# Generated by pormake.
# Topology eea, (3,6)-cn, num edge types: 1
# Building blocks:
#     Node 0, Type 0, BuildingBlock: VETTIZ_charged_linker_0, # of connection points: 3
#     Node 1, Type 0, BuildingBlock: VETTIZ_charged_linker_0, # of connection points: 3
#     Node 2, Type 0, BuildingBlock: VETTIZ_charged_linker_0, # of connection points: 3
#     Node 3, Type 0, BuildingBlock: VETTIZ_charged_linker_0, # of connection points: 3
#     Node 4, Type 0, BuildingBlock: VETTIZ_charged_linker_0, # of connection points: 3
#     Node 5, Type 0, BuildingBlock: VETTIZ_charged_linker_0, # of connection points: 3
#     Node 6, Type 0, BuildingBlock: VETTIZ_charged_linker_0, # of connection points: 3
#     Node 7, Type 0, BuildingBlock: VETTIZ_charged_linker_0, # of connection points: 3
#     Node 8, Type 0, BuildingBlock: VETTIZ_charged_linker_0, # of connection points: 3
#     Node 9, Type 0, BuildingBlock: VETTIZ_charged_linker_0, # of connection points: 3
#     Node 10, Type 0, BuildingBlock: VETTIZ_charged_linker_0, # of connection points: 3
#     Node 11, Type 0, BuildingBlock: VETTIZ_charged_linker_0, # of connection points: 3
#     Node 12, Type 0, BuildingBlock: VETTIZ_charged_linker_0, # of connection points: 3
#     Node 13, Type 0, BuildingBlock: VETTIZ_charged_linker_0, # of connection points: 3
#     Node 14, Type 0, BuildingBlock: VETTIZ_charged_linker_0, # of connection points: 3
#     Node 15, Type 0, BuildingBlock: VETTIZ_charged_linker_0, # of connection points: 3
#     Node 16, Type 0, BuildingBlock: VETTIZ_charged_linker_0, # of connection points: 3
#     Node 17, Type 0, BuildingBlock: VETTIZ_charged_linker_0, # of connection points: 3
#     Node 18, Type 1, BuildingBlock: KUMJIN_clean_sbu_0, # of connection points: 6
#     Node 19, Type 1, BuildingBlock: KUMJIN_clean_sbu_0, # of connection points: 6
#     Node 20, Type 1, BuildingBlock: KUMJIN_clean_sbu_0, # of connection points: 6
#     Node 21, Type 1, BuildingBlock: KUMJIN_clean_sbu_0, # of connection points: 6
#     Node 22, Type 1, BuildingBlock: KUMJIN_clean_sbu_0, # of connection points: 6
#     Node 23, Type 1, BuildingBlock: KUMJIN_clean_sbu_0, # of connection points: 6
#     Node 24, Type 1, BuildingBlock: KUMJIN_clean_sbu_0, # of connection points: 6
#     Node 25, Type 1, BuildingBlock: KUMJIN_clean_sbu_0, # of connection points: 6
#     Node 26, Type 1, BuildingBlock: KUMJIN_clean_sbu_0, # of connection points: 6
#     Edge 27, Type (0, 1), BuildingBlock: ZUJKAS_clean_linker_0, # of connection points: 2
#     Edge 28, Type (0, 1), BuildingBlock: ZUJKAS_clean_linker_0, # of connection points: 2
#     Edge 29, Type (0, 1), BuildingBlock: ZUJKAS_clean_linker_0, # of connection points: 2
#     Edge 30, Type (0, 1), BuildingBlock: ZUJKAS_clean_linker_0, # of connection points: 2
#     Edge 31, Type (0, 1), BuildingBlock: ZUJKAS_clean_linker_0, # of connection points: 2
#     Edge 32, Type (0, 1), BuildingBlock: ZUJKAS_clean_linker_0, # of connection points: 2
#     Edge 33, Type (0, 1), BuildingBlock: ZUJKAS_clean_linker_0, # of connection points: 2
#     Edge 34, Type (0, 1), BuildingBlock: ZUJKAS_clean_linker_0, # of connection points: 2
#     Edge 35, Type (0, 1), BuildingBlock: ZUJKAS_clean_linker_0, # of connection points: 2
#     Edge 36, Type (0, 1), BuildingBlock: ZUJKAS_clean_linker_0, # of connection points: 2
#     Edge 37, Type (0, 1), BuildingBlock: ZUJKAS_clean_linker_0, # of connection points: 2
#     Edge 38, Type (0, 1), BuildingBlock: ZUJKAS_clean_linker_0, # of connection points: 2
#     Edge 39, Type (0, 1), BuildingBlock: ZUJKAS_clean_linker_0, # of connection points: 2
#     Edge 40, Type (0, 1), BuildingBlock: ZUJKAS_clean_linker_0, # of connection points: 2
#     Edge 41, Type (0, 1), BuildingBlock: ZUJKAS_clean_linker_0, # of connection points: 2
#     Edge 42, Type (0, 1), BuildingBlock: ZUJKAS_clean_linker_0, # of connection points: 2
#     Edge 43, Type (0, 1), BuildingBlock: ZUJKAS_clean_linker_0, # of connection points: 2
#     Edge 44, Type (0, 1), BuildingBlock: ZUJKAS_clean_linker_0, # of connection points: 2
#     Edge 45, Type (0, 1), BuildingBlock: ZUJKAS_clean_linker_0, # of connection points: 2
#     Edge 46, Type (0, 1), BuildingBlock: ZUJKAS_clean_linker_0, # of connection points: 2
#     Edge 47, Type (0, 1), BuildingBlock: ZUJKAS_clean_linker_0, # of connection points: 2
#     Edge 48, Type (0, 1), BuildingBlock: ZUJKAS_clean_linker_0, # of connection points: 2
#     Edge 49, Type (0, 1), BuildingBlock: ZUJKAS_clean_linker_0, # of connection points: 2
#     Edge 50, Type (0, 1), BuildingBlock: ZUJKAS_clean_linker_0, # of connection points: 2
#     Edge 51, Type (0, 1), BuildingBlock: ZUJKAS_clean_linker_0, # of connection points: 2
#     Edge 52, Type (0, 1), BuildingBlock: ZUJKAS_clean_linker_0, # of connection points: 2
#     Edge 53, Type (0, 1), BuildingBlock: ZUJKAS_clean_linker_0, # of connection points: 2
#     Edge 54, Type (0, 1), BuildingBlock: ZUJKAS_clean_linker_0, # of connection points: 2
#     Edge 55, Type (0, 1), BuildingBlock: ZUJKAS_clean_linker_0, # of connection points: 2
#     Edge 56, Type (0, 1), BuildingBlock: ZUJKAS_clean_linker_0, # of connection points: 2
#     Edge 57, Type (0, 1), BuildingBlock: ZUJKAS_clean_linker_0, # of connection points: 2
#     Edge 58, Type (0, 1), BuildingBlock: ZUJKAS_clean_linker_0, # of connection points: 2
#     Edge 59, Type (0, 1), BuildingBlock: ZUJKAS_clean_linker_0, # of connection points: 2
#     Edge 60, Type (0, 1), BuildingBlock: ZUJKAS_clean_linker_0, # of connection points: 2
#     Edge 61, Type (0, 1), BuildingBlock: ZUJKAS_clean_linker_0, # of connection points: 2
#     Edge 62, Type (0, 1), BuildingBlock: ZUJKAS_clean_linker_0, # of connection points: 2
#     Edge 63, Type (0, 1), BuildingBlock: ZUJKAS_clean_linker_0, # of connection points: 2
#     Edge 64, Type (0, 1), BuildingBlock: ZUJKAS_clean_linker_0, # of connection points: 2
#     Edge 65, Type (0, 1), BuildingBlock: ZUJKAS_clean_linker_0, # of connection points: 2
#     Edge 66, Type (0, 1), BuildingBlock: ZUJKAS_clean_linker_0, # of connection points: 2
#     Edge 67, Type (0, 1), BuildingBlock: ZUJKAS_clean_linker_0, # of connection points: 2
#     Edge 68, Type (0, 1), BuildingBlock: ZUJKAS_clean_linker_0, # of connection points: 2
#     Edge 69, Type (0, 1), BuildingBlock: ZUJKAS_clean_linker_0, # of connection points: 2
#     Edge 70, Type (0, 1), BuildingBlock: ZUJKAS_clean_linker_0, # of connection points: 2
#     Edge 71, Type (0, 1), BuildingBlock: ZUJKAS_clean_linker_0, # of connection points: 2
#     Edge 72, Type (0, 1), BuildingBlock: ZUJKAS_clean_linker_0, # of connection points: 2
#     Edge 73, Type (0, 1), BuildingBlock: ZUJKAS_clean_linker_0, # of connection points: 2
#     Edge 74, Type (0, 1), BuildingBlock: ZUJKAS_clean_linker_0, # of connection points: 2
#     Edge 75, Type (0, 1), BuildingBlock: ZUJKAS_clean_linker_0, # of connection points: 2
#     Edge 76, Type (0, 1), BuildingBlock: ZUJKAS_clean_linker_0, # of connection points: 2
#     Edge 77, Type (0, 1), BuildingBlock: ZUJKAS_clean_linker_0, # of connection points: 2
#     Edge 78, Type (0, 1), BuildingBlock: ZUJKAS_clean_linker_0, # of connection points: 2
#     Edge 79, Type (0, 1), BuildingBlock: ZUJKAS_clean_linker_0, # of connection points: 2
#     Edge 80, Type (0, 1), BuildingBlock: ZUJKAS_clean_linker_0, # of connection points: 2
# Relax obj value: 0.010
# Max RMSD: 0.100
# Mean RMSD: 0.054
data_MOF--net-eea--node1-KUMJIN_clean_sbu_0--node2-VETTIZ_charged_linker_0--edge1-ZUJKAS_clean_linker_0
_symmetry_space_group_name_H-M    P1
_symmetry_Int_Tables_number       1
_symmetry_cell_setting            triclinic
loop_
_symmetry_equiv_pos_as_xyz
'x, y, z'
_cell_length_a     77.675169
_cell_length_b     79.054708
_cell_length_c     107.16977
_cell_angle_alpha  90.246091
_cell_angle_beta   90.251739
_cell_angle_gamma 119.956
loop_
_atom_site_label
_atom_site_type_symbol
_atom_site_fract_x
_atom_site_fract_y
_atom_site_fract_z
_atom_type_partial_charge
C0 C 0.23315 0.16349 0.40256 0.0
C1 C 0.23626 0.18113 0.40783 0.0
C2 C 0.24435 0.18627 0.42 0.0
C3 C 0.24526 0.15614 0.42153 0.0
C4 C 0.23777 0.15133 0.40952 0.0
C5 C 0.23512 0.13203 0.40527 0.0
H6 H 0.23623 0.04913 0.41872 0.0
C7 C 0.24764 0.13993 0.42635 0.0
C8 C 0.24175 0.12578 0.41685 0.0
H9 H 0.22262 0.06617 0.38343 0.0
H10 H 0.22945 0.09703 0.39238 0.0
H11 H 0.27496 0.09029 0.42405 0.0
H12 H 0.21457 0.06584 0.43638 0.0
H13 H 0.23007 0.07792 0.44924 0.0
H14 H 0.23091 0.05765 0.44209 0.0
H15 H 0.26467 0.07195 0.43589 0.0
H16 H 0.27608 0.09761 0.43965 0.0
C17 C 0.24915 0.13569 0.39408 0.0
C18 C 0.2128 0.11821 0.40232 0.0
C19 C 0.27225 0.14241 0.47076 0.0
C20 C 0.27495 0.12905 0.47795 0.0
C21 C 0.27018 0.11085 0.47266 0.0
C22 C 0.26303 0.10609 0.46039 0.0
C23 C 0.26053 0.11962 0.45329 0.0
C24 C 0.26497 0.13737 0.45852 0.0
C25 C 0.26088 0.14969 0.44966 0.0
C26 C 0.25373 0.13659 0.43816 0.0
C27 C 0.25359 0.11902 0.44036 0.0
C28 C 0.28067 0.16881 0.44728 0.0
C29 C 0.2443 0.15273 0.45533 0.0
C30 C 0.23463 0.05951 0.41298 0.0
C31 C 0.22874 0.05526 0.40041 0.0
C32 C 0.22719 0.06923 0.39313 0.0
C33 C 0.2311 0.08709 0.39836 0.0
C34 C 0.23677 0.09108 0.41098 0.0
C35 C 0.23875 0.07754 0.41802 0.0
C36 C 0.2459 0.08473 0.43108 0.0
C37 C 0.24761 0.10471 0.43076 0.0
C38 C 0.242 0.10822 0.41902 0.0
C39 C 0.2664 0.08614 0.43289 0.0
C40 C 0.22968 0.07083 0.44026 0.0
H41 H 0.25487 0.17859 0.43607 0.0
H42 H 0.22681 0.15895 0.3933 0.0
H43 H 0.20338 0.11977 0.40952 0.0
H44 H 0.20845 0.10263 0.40238 0.0
H45 H 0.20869 0.12167 0.39313 0.0
H46 H 0.26237 0.15062 0.39447 0.0
H47 H 0.24143 0.1342 0.38505 0.0
H48 H 0.25542 0.12583 0.39407 0.0
H49 H 0.27555 0.15641 0.47463 0.0
H50 H 0.27232 0.1004 0.47796 0.0
H51 H 0.25979 0.09206 0.4569 0.0
H52 H 0.29327 0.16591 0.44674 0.0
H53 H 0.28403 0.17958 0.45492 0.0
H54 H 0.28079 0.17563 0.43828 0.0
H55 H 0.23339 0.13954 0.4605 0.0
H56 H 0.23535 0.15499 0.44821 0.0
H57 H 0.25058 0.16523 0.46199 0.0
H58 H 0.24726 0.19993 0.42422 0.0
C59 C 0.24884 0.17389 0.42686 0.0
C60 C 0.94538 0.16208 0.40184 0.0
C61 C 0.96089 0.17927 0.40715 0.0
C62 C 0.95918 0.18403 0.41961 0.0
C63 C 0.92696 0.15468 0.42124 0.0
C64 C 0.92871 0.15 0.40904 0.0
C65 C 0.9113 0.13082 0.40496 0.0
H66 H 0.82361 0.05053 0.41858 0.0
C67 C 0.90795 0.13888 0.42618 0.0
C68 C 0.89878 0.1248 0.41668 0.0
H69 H 0.85611 0.0643 0.38394 0.0
H70 H 0.88151 0.09483 0.39269 0.0
H71 H 0.86066 0.06456 0.43645 0.0
H72 H 0.83027 0.09402 0.4232 0.0
H73 H 0.83586 0.1002 0.43903 0.0
H74 H 0.8198 0.075 0.43461 0.0
H75 H 0.83684 0.05917 0.44229 0.0
H76 H 0.85967 0.07832 0.44903 0.0
C77 C 0.91905 0.11666 0.40177 0.0
C78 C 0.90075 0.13477 0.39399 0.0
C79 C 0.88646 0.14327 0.4704 0.0
C80 C 0.86976 0.13061 0.47751 0.0
C81 C 0.85527 0.11277 0.47214 0.0
C82 C 0.85727 0.10765 0.45993 0.0
C83 C 0.87397 0.12044 0.45293 0.0
C84 C 0.88829 0.13787 0.45819 0.0
C85 C 0.90524 0.14938 0.4494 0.0
C86 C 0.89853 0.13614 0.43795 0.0
C87 C 0.88018 0.11924 0.44008 0.0
C88 C 0.92444 0.15137 0.45528 0.0
C89 C 0.90618 0.16907 0.44681 0.0
C90 C 0.83609 0.06021 0.41283 0.0
C91 C 0.83784 0.05491 0.40055 0.0
C92 C 0.85451 0.06787 0.39348 0.0
C93 C 0.86922 0.08566 0.39856 0.0
C94 C 0.86736 0.09064 0.41089 0.0
C95 C 0.85095 0.07804 0.41778 0.0
C96 C 0.85148 0.08571 0.43073 0.0
C97 C 0.87098 0.10494 0.43051 0.0
C98 C 0.88021 0.10774 0.41886 0.0
C99 C 0.85205 0.07122 0.4402 0.0
C100 C 0.83339 0.08882 0.4321 0.0
H101 H 0.94188 0.17635 0.43607 0.0
H102 H 0.94637 0.15788 0.39235 0.0
H103 H 0.90086 0.14878 0.39545 0.0
H104 H 0.88489 0.12362 0.39308 0.0
H105 H 0.9083 0.13581 0.38501 0.0
H106 H 0.93178 0.1194 0.40791 0.0
H107 H 0.92423 0.11846 0.39196 0.0
H108 H 0.90789 0.10119 0.40333 0.0
H109 H 0.89797 0.15698 0.47429 0.0
H110 H 0.84216 0.10287 0.47734 0.0
H111 H 0.84566 0.09391 0.45641 0.0
H112 H 0.9211 0.13833 0.46095 0.0
H113 H 0.93187 0.16437 0.46151 0.0
H114 H 0.93514 0.15216 0.44823 0.0
H115 H 0.89096 0.16689 0.44557 0.0
H116 H 0.91407 0.17603 0.43813 0.0
H117 H 0.91338 0.17947 0.4547 0.0
H118 H 0.97086 0.19729 0.42388 0.0
C119 C 0.9423 0.17189 0.42666 0.0
C120 C 0.94516 0.78885 0.40162 0.0
C121 C 0.9606 0.78684 0.40701 0.0
C122 C 0.95862 0.78045 0.41947 0.0
C123 C 0.92638 0.77827 0.42093 0.0
C124 C 0.92834 0.78464 0.40874 0.0
C125 C 0.91088 0.78659 0.40456 0.0
H126 H 0.82246 0.78023 0.41771 0.0
C127 C 0.9072 0.7753 0.42576 0.0
C128 C 0.89811 0.7803 0.41621 0.0
H129 H 0.85498 0.79777 0.3831 0.0
H130 H 0.88056 0.79257 0.39199 0.0
H131 H 0.82886 0.74403 0.42228 0.0
H132 H 0.86054 0.80313 0.43614 0.0
H133 H 0.8577 0.78765 0.44865 0.0
H134 H 0.83594 0.78572 0.44116 0.0
H135 H 0.81898 0.75259 0.43427 0.0
H136 H 0.83509 0.7429 0.43788 0.0
C137 C 0.90057 0.77227 0.39351 0.0
C138 C 0.91855 0.80831 0.40143 0.0
C139 C 0.88473 0.74899 0.46972 0.0
C140 C 0.86754 0.74444 0.47661 0.0
C141 C 0.85317 0.74815 0.47119 0.0
C142 C 0.85562 0.75584 0.45914 0.0
C143 C 0.87265 0.75996 0.4523 0.0
C144 C 0.88694 0.75666 0.45763 0.0
C145 C 0.90411 0.76202 0.44894 0.0
C146 C 0.89757 0.76872 0.43747 0.0
C147 C 0.87913 0.7675 0.43952 0.0
C148 C 0.9053 0.74338 0.44623 0.0
C149 C 0.92309 0.7789 0.45503 0.0
C150 C 0.83519 0.78313 0.41209 0.0
C151 C 0.83669 0.78952 0.39968 0.0
C152 C 0.85334 0.79272 0.39263 0.0
C153 C 0.86826 0.78978 0.39785 0.0
C154 C 0.86657 0.78347 0.41026 0.0
C155 C 0.85016 0.78013 0.41713 0.0
C156 C 0.85056 0.77293 0.43006 0.0
C157 C 0.87006 0.7728 0.4299 0.0
C158 C 0.87943 0.77906 0.41829 0.0
C159 C 0.83241 0.75209 0.43132 0.0
C160 C 0.85107 0.78798 0.43958 0.0
H161 H 0.94107 0.77126 0.43582 0.0
H162 H 0.94628 0.79394 0.39213 0.0
H163 H 0.93054 0.81809 0.40805 0.0
H164 H 0.90703 0.81251 0.40235 0.0
H165 H 0.92475 0.81178 0.39186 0.0
H166 H 0.90102 0.75854 0.39483 0.0
H167 H 0.90804 0.77879 0.38455 0.0
H168 H 0.88462 0.76754 0.39264 0.0
H169 H 0.89605 0.74626 0.47352 0.0
H170 H 0.83998 0.74521 0.47631 0.0
H171 H 0.84407 0.75824 0.45561 0.0
H172 H 0.89017 0.73052 0.44497 0.0
H173 H 0.91262 0.74018 0.45407 0.0
H174 H 0.91321 0.74425 0.43752 0.0
H175 H 0.91953 0.78866 0.46059 0.0
H176 H 0.93404 0.78858 0.4481 0.0
H177 H 0.9303 0.77322 0.46141 0.0
H178 H 0.97016 0.77856 0.42382 0.0
C179 C 0.94165 0.77613 0.42642 0.0
C180 C 0.15674 0.21094 0.60774 0.0
C181 C 0.17527 0.21526 0.60282 0.0
C182 C 0.18043 0.22344 0.5908 0.0
C183 C 0.14906 0.22302 0.58888 0.0
C184 C 0.144 0.21505 0.60067 0.0
C185 C 0.12408 0.212 0.60467 0.0
H186 H 0.04301 0.22067 0.5926 0.0
C187 C 0.13268 0.22575 0.58409 0.0
C188 C 0.11803 0.21942 0.59335 0.0
H189 H 0.05592 0.19775 0.62569 0.0
H190 H 0.0866 0.20317 0.61663 0.0
H191 H 0.08756 0.25696 0.58882 0.0
H192 H 0.05721 0.19891 0.57302 0.0
H193 H 0.07084 0.21519 0.56106 0.0
H194 H 0.05126 0.21728 0.5686 0.0
H195 H 0.06787 0.24936 0.57754 0.0
H196 H 0.0933 0.25875 0.57286 0.0
C197 C 0.12733 0.22482 0.6164 0.0
C198 C 0.11001 0.18985 0.60667 0.0
C199 C 0.13712 0.25336 0.54058 0.0
C200 C 0.12465 0.25809 0.53367 0.0
C201 C 0.10675 0.25486 0.53913 0.0
C202 C 0.10138 0.24708 0.55117 0.0
C203 C 0.11402 0.24248 0.55795 0.0
C204 C 0.13159 0.2457 0.55264 0.0
C205 C 0.14342 0.24038 0.56132 0.0
C206 C 0.12995 0.23317 0.57263 0.0
C207 C 0.11271 0.2344 0.57062 0.0
C208 C 0.16341 0.25916 0.56429 0.0
C209 C 0.14559 0.22384 0.55508 0.0
C210 C 0.05252 0.21696 0.59793 0.0
C211 C 0.04695 0.20878 0.60992 0.0
C212 C 0.05968 0.20387 0.61641 0.0
C213 C 0.0776 0.20714 0.61115 0.0
C214 C 0.08299 0.21541 0.59922 0.0
C215 C 0.07047 0.22006 0.59278 0.0
C216 C 0.07848 0.22838 0.5801 0.0
C217 C 0.09796 0.22818 0.58006 0.0
C218 C 0.10056 0.22063 0.59132 0.0
C219 C 0.08191 0.24943 0.57967 0.0
C220 C 0.06372 0.21439 0.5701 0.0
H221 H 0.17228 0.23345 0.57474 0.0
H222 H 0.15241 0.20486 0.61699 0.0
H223 H 0.113 0.18112 0.59974 0.0
H224 H 0.09419 0.18533 0.60526 0.0
H225 H 0.11204 0.18538 0.61612 0.0
H226 H 0.1415 0.23895 0.61575 0.0
H227 H 0.12808 0.21739 0.62499 0.0
H228 H 0.11576 0.22891 0.61754 0.0
H229 H 0.15112 0.25592 0.53678 0.0
H230 H 0.09676 0.25818 0.53401 0.0
H231 H 0.08756 0.24497 0.55474 0.0
H232 H 0.16167 0.2723 0.5642 0.0
H233 H 0.1749 0.26145 0.55731 0.0
H234 H 0.16912 0.2591 0.57374 0.0
H235 H 0.13149 0.21315 0.55035 0.0
H236 H 0.14873 0.2152 0.56182 0.0
H237 H 0.15746 0.22977 0.54793 0.0
H238 H 0.19449 0.22672 0.58673 0.0
C239 C 0.16745 0.22727 0.58382 0.0
C240 C 0.77026 0.83561 0.60717 0.0
C241 C 0.76665 0.8178 0.60193 0.0
C242 C 0.75801 0.81251 0.58991 0.0
C243 C 0.75726 0.84274 0.58852 0.0
C244 C 0.76543 0.84773 0.60037 0.0
C245 C 0.76846 0.86714 0.60466 0.0
H246 H 0.76428 0.94876 0.59264 0.0
C247 C 0.75456 0.85888 0.58391 0.0
C248 C 0.76105 0.87316 0.59336 0.0
H249 H 0.78318 0.93325 0.62663 0.0
H250 H 0.77626 0.90267 0.61742 0.0
H251 H 0.78519 0.93371 0.57397 0.0
H252 H 0.72549 0.9059 0.58804 0.0
H253 H 0.72396 0.90025 0.57206 0.0
H254 H 0.73461 0.92539 0.57695 0.0
H255 H 0.76723 0.94001 0.56856 0.0
H256 H 0.76937 0.92036 0.56153 0.0
C257 C 0.791 0.88094 0.60699 0.0
C258 C 0.75522 0.86372 0.61624 0.0
C259 C 0.72755 0.85591 0.54014 0.0
C260 C 0.72432 0.86912 0.53318 0.0
C261 C 0.72875 0.88711 0.53865 0.0
C262 C 0.73622 0.89187 0.55085 0.0
C263 C 0.7394 0.87854 0.5577 0.0
C264 C 0.73516 0.86094 0.55231 0.0
C265 C 0.73993 0.84881 0.56091 0.0
C266 C 0.74753 0.86196 0.57237 0.0
C267 C 0.74713 0.87932 0.57043 0.0
C268 C 0.75637 0.84602 0.55477 0.0
C269 C 0.72043 0.82955 0.56357 0.0
C270 C 0.76673 0.93869 0.59814 0.0
C271 C 0.7744 0.94351 0.61037 0.0
C272 C 0.7776 0.93005 0.61713 0.0
C273 C 0.77344 0.91222 0.61179 0.0
C274 C 0.76598 0.9077 0.59953 0.0
C275 C 0.76262 0.92076 0.59294 0.0
C276 C 0.75453 0.91337 0.58004 0.0
C277 C 0.75358 0.89371 0.58001 0.0
C278 C 0.76039 0.89055 0.59143 0.0
C279 C 0.76969 0.92757 0.57045 0.0
C280 C 0.7336 0.91118 0.57909 0.0
H281 H 0.74681 0.82005 0.57409 0.0
H282 H 0.77711 0.8403 0.6163 0.0
H283 H 0.74151 0.84913 0.61581 0.0
H284 H 0.74973 0.87418 0.61689 0.0
H285 H 0.76323 0.86439 0.62501 0.0
H286 H 0.79993 0.87839 0.59992 0.0
H287 H 0.79553 0.87848 0.61635 0.0
H288 H 0.79561 0.89654 0.60611 0.0
H289 H 0.72451 0.84207 0.53614 0.0
H290 H 0.72618 0.89744 0.53352 0.0
H291 H 0.73922 0.90575 0.55448 0.0
H292 H 0.76714 0.85943 0.54973 0.0
H293 H 0.74993 0.83378 0.54791 0.0
H294 H 0.76548 0.84346 0.56161 0.0
H295 H 0.70767 0.83218 0.5643 0.0
H296 H 0.72077 0.82297 0.57257 0.0
H297 H 0.71697 0.81868 0.55598 0.0
H298 H 0.75477 0.79873 0.58572 0.0
C299 C 0.7533 0.82487 0.58319 0.0
C300 C 0.06035 0.8369 0.60837 0.0
C301 C 0.04569 0.81876 0.60358 0.0
C302 C 0.04797 0.81318 0.59145 0.0
C303 C 0.07875 0.84389 0.58899 0.0
C304 C 0.07668 0.84911 0.60098 0.0
C305 C 0.09361 0.86876 0.60478 0.0
H306 H 0.1782 0.95143 0.5899 0.0
C307 C 0.09712 0.8602 0.58371 0.0
C308 C 0.10586 0.87479 0.59295 0.0
H309 H 0.14878 0.93529 0.62557 0.0
H310 H 0.1236 0.90447 0.61696 0.0
H311 H 0.17386 0.90932 0.58441 0.0
H312 H 0.13911 0.93525 0.57294 0.0
H313 H 0.13994 0.92178 0.56012 0.0
H314 H 0.16273 0.94202 0.56613 0.0
H315 H 0.18251 0.92871 0.57326 0.0
H316 H 0.16778 0.90347 0.56857 0.0
C317 C 0.10484 0.86588 0.61584 0.0
C318 C 0.08502 0.88229 0.60773 0.0
C319 C 0.11745 0.85652 0.53903 0.0
C320 C 0.13293 0.87006 0.53146 0.0
C321 C 0.14627 0.88871 0.53634 0.0
C322 C 0.14446 0.89376 0.54861 0.0
C323 C 0.12904 0.88007 0.55612 0.0
C324 C 0.11568 0.8619 0.55126 0.0
C325 C 0.09969 0.84964 0.56047 0.0
C326 C 0.10602 0.86325 0.57174 0.0
C327 C 0.12331 0.881 0.56913 0.0
C328 C 0.1009 0.83103 0.56314 0.0
C329 C 0.07948 0.84563 0.55502 0.0
C330 C 0.16623 0.94127 0.5958 0.0
C331 C 0.16538 0.94576 0.60841 0.0
C332 C 0.14978 0.93206 0.61586 0.0
C333 C 0.13515 0.9142 0.61082 0.0
C334 C 0.13617 0.90987 0.5982 0.0
C335 C 0.15163 0.92321 0.59095 0.0
C336 C 0.15074 0.91571 0.57789 0.0
C337 C 0.13219 0.8957 0.57852 0.0
C338 C 0.12362 0.89248 0.59039 0.0
C339 C 0.16971 0.91429 0.57579 0.0
C340 C 0.14814 0.92938 0.56871 0.0
H341 H 0.06519 0.82063 0.57495 0.0
H342 H 0.05924 0.84144 0.61774 0.0
H343 H 0.0735 0.88019 0.60071 0.0
H344 H 0.09625 0.89795 0.60736 0.0
H345 H 0.07796 0.87906 0.61706 0.0
H346 H 0.1031 0.85103 0.61568 0.0
H347 H 0.09919 0.86773 0.62495 0.0
H348 H 0.12108 0.8759 0.61546 0.0
H349 H 0.10681 0.84218 0.53546 0.0
H350 H 0.15837 0.89933 0.53071 0.0
H351 H 0.15519 0.90814 0.55178 0.0
H352 H 0.11665 0.83456 0.56376 0.0
H353 H 0.09356 0.82 0.55559 0.0
H354 H 0.09429 0.8243 0.57217 0.0
H355 H 0.0812 0.85845 0.54971 0.0
H356 H 0.06844 0.84318 0.56227 0.0
H357 H 0.07317 0.8329 0.54853 0.0
H358 H 0.03684 0.79929 0.58754 0.0
C359 C 0.06438 0.82564 0.58413 0.0
C360 C 0.89622 0.49535 0.7361 0.0
C361 C 0.89982 0.51323 0.74124 0.0
C362 C 0.9086 0.51873 0.75322 0.0
C363 C 0.90973 0.4887 0.75469 0.0
C364 C 0.90134 0.48346 0.74291 0.0
C365 C 0.89856 0.46411 0.73868 0.0
H366 H 0.908 0.38519 0.75013 0.0
C367 C 0.91298 0.4729 0.75928 0.0
C368 C 0.90654 0.45851 0.7499 0.0
H369 H 0.88364 0.39744 0.71726 0.0
H370 H 0.89011 0.42798 0.72629 0.0
H371 H 0.94498 0.42913 0.75442 0.0
H372 H 0.88585 0.39772 0.76926 0.0
H373 H 0.9012 0.41244 0.78146 0.0
H374 H 0.90539 0.39379 0.77481 0.0
H375 H 0.93714 0.40931 0.76517 0.0
H376 H 0.94663 0.43406 0.77054 0.0
C377 C 0.91151 0.4676 0.72695 0.0
C378 C 0.87602 0.44992 0.73661 0.0
C379 C 0.94108 0.47691 0.80284 0.0
C380 C 0.94497 0.46407 0.80973 0.0
C381 C 0.94138 0.44641 0.80416 0.0
C382 C 0.93398 0.44156 0.79194 0.0
C383 C 0.93 0.45445 0.78521 0.0
C384 C 0.93353 0.47178 0.79066 0.0
C385 C 0.92808 0.48348 0.78214 0.0
C386 C 0.92064 0.47027 0.77071 0.0
C387 C 0.92188 0.45334 0.77256 0.0
C388 C 0.94717 0.50309 0.77939 0.0
C389 C 0.91133 0.48563 0.78841 0.0
C390 C 0.90394 0.39438 0.7449 0.0
C391 C 0.89538 0.38886 0.73291 0.0
C392 C 0.89057 0.40144 0.7264 0.0
C393 C 0.89421 0.41914 0.73171 0.0
C394 C 0.90267 0.42437 0.74371 0.0
C395 C 0.90735 0.41206 0.7501 0.0
C396 C 0.91579 0.4198 0.76288 0.0
C397 C 0.91559 0.4389 0.76302 0.0
C398 C 0.90793 0.44149 0.75177 0.0
C399 C 0.93722 0.42319 0.76341 0.0
C400 C 0.9015 0.40523 0.77268 0.0
H401 H 0.92017 0.51156 0.76901 0.0
H402 H 0.88927 0.49051 0.72701 0.0
H403 H 0.86706 0.4529 0.74341 0.0
H404 H 0.87166 0.43449 0.73814 0.0
H405 H 0.87127 0.45146 0.7271 0.0
H406 H 0.92559 0.48185 0.72761 0.0
H407 H 0.90358 0.46782 0.71836 0.0
H408 H 0.9163 0.45668 0.7258 0.0
H409 H 0.94351 0.49051 0.80691 0.0
H410 H 0.94451 0.4364 0.80922 0.0
H411 H 0.93161 0.42794 0.78824 0.0
H412 H 0.96034 0.50108 0.77885 0.0
H413 H 0.95014 0.51404 0.78684 0.0
H414 H 0.94661 0.50927 0.77027 0.0
H415 H 0.90076 0.47196 0.79329 0.0
H416 H 0.9021 0.48819 0.78168 0.0
H417 H 0.91751 0.49764 0.79544 0.0
H418 H 0.91182 0.53254 0.75734 0.0
C419 C 0.91355 0.50657 0.75996 0.0
C420 C 0.61289 0.49567 0.73406 0.0
C421 C 0.62871 0.51239 0.73962 0.0
C422 C 0.62733 0.51644 0.75229 0.0
C423 C 0.59478 0.48743 0.75361 0.0
C424 C 0.59622 0.48342 0.74121 0.0
C425 C 0.57845 0.46476 0.7368 0.0
H426 H 0.4901 0.38475 0.74946 0.0
C427 C 0.57555 0.47172 0.75835 0.0
C428 C 0.56597 0.45837 0.74853 0.0
H429 H 0.52272 0.39966 0.71484 0.0
H430 H 0.54817 0.42983 0.72396 0.0
H431 H 0.52783 0.39858 0.76755 0.0
H432 H 0.49642 0.42728 0.75478 0.0
H433 H 0.5036 0.43499 0.77026 0.0
H434 H 0.48689 0.40943 0.76693 0.0
H435 H 0.5031 0.39166 0.77243 0.0
H436 H 0.52462 0.41053 0.78044 0.0
C437 C 0.5856 0.45032 0.73301 0.0
C438 C 0.56818 0.46974 0.72617 0.0
C439 C 0.55535 0.47342 0.80333 0.0
C440 C 0.53818 0.46109 0.81021 0.0
C441 C 0.52264 0.44454 0.8042 0.0
C442 C 0.52421 0.44022 0.79171 0.0
C443 C 0.54148 0.45257 0.78503 0.0
C444 C 0.55662 0.46895 0.7908 0.0
C445 C 0.57366 0.48063 0.7821 0.0
C446 C 0.56623 0.4685 0.77019 0.0
C447 C 0.54743 0.45202 0.77201 0.0
C448 C 0.59241 0.48099 0.78743 0.0
C449 C 0.57575 0.50104 0.78056 0.0
C450 C 0.50261 0.39462 0.74379 0.0
C451 C 0.50442 0.38972 0.73142 0.0
C452 C 0.52109 0.40291 0.72445 0.0
C453 C 0.53584 0.42048 0.72975 0.0
C454 C 0.53401 0.42498 0.7422 0.0
C455 C 0.51753 0.41221 0.74897 0.0
C456 C 0.51813 0.41938 0.76209 0.0
C457 C 0.53787 0.43839 0.76212 0.0
C458 C 0.54708 0.44158 0.75045 0.0
C459 C 0.51831 0.40429 0.77119 0.0
C460 C 0.50032 0.42287 0.76373 0.0
H461 H 0.61031 0.50803 0.76887 0.0
H462 H 0.61361 0.49198 0.72441 0.0
H463 H 0.56858 0.48377 0.72815 0.0
H464 H 0.55226 0.45885 0.72508 0.0
H465 H 0.57575 0.4713 0.71712 0.0
H466 H 0.59851 0.45261 0.73883 0.0
H467 H 0.59032 0.45227 0.72311 0.0
H468 H 0.57426 0.43489 0.73453 0.0
H469 H 0.56767 0.48618 0.80761 0.0
H470 H 0.50905 0.435 0.8091 0.0
H471 H 0.51185 0.42741 0.78774 0.0
H472 H 0.58846 0.46685 0.79191 0.0
H473 H 0.59985 0.49267 0.7946 0.0
H474 H 0.60326 0.48292 0.78017 0.0
H475 H 0.56089 0.49991 0.78024 0.0
H476 H 0.58292 0.50817 0.77174 0.0
H477 H 0.5842 0.51083 0.78849 0.0
H478 H 0.63925 0.52932 0.75676 0.0
C479 C 0.61046 0.50411 0.75929 0.0
C480 C 0.61311 0.1249 0.73681 0.0
C481 C 0.62713 0.11989 0.74122 0.0
C482 C 0.62337 0.11 0.75273 0.0
C483 C 0.59263 0.11063 0.75516 0.0
C484 C 0.59601 0.11997 0.74381 0.0
C485 C 0.5793 0.12345 0.74014 0.0
H486 H 0.48787 0.11063 0.75187 0.0
C487 C 0.57342 0.10748 0.76004 0.0
C488 C 0.56543 0.1148 0.75118 0.0
H489 H 0.5259 0.1396 0.72038 0.0
H490 H 0.55111 0.13385 0.72903 0.0
H491 H 0.49771 0.07559 0.75481 0.0
H492 H 0.52222 0.13243 0.77183 0.0
H493 H 0.52293 0.11704 0.78331 0.0
H494 H 0.49927 0.11216 0.777 0.0
H495 H 0.48429 0.08213 0.76556 0.0
H496 H 0.50025 0.07319 0.77095 0.0
C497 C 0.56986 0.11195 0.7279 0.0
C498 C 0.58773 0.14577 0.73917 0.0
C499 C 0.5492 0.0769 0.80285 0.0
C500 C 0.532 0.0722 0.80979 0.0
C501 C 0.51765 0.07607 0.8045 0.0
C502 C 0.52027 0.08433 0.79262 0.0
C503 C 0.53747 0.0889 0.78583 0.0
C504 C 0.55161 0.0852 0.79096 0.0
C505 C 0.56888 0.09092 0.78229 0.0
C506 C 0.56297 0.09909 0.77128 0.0
C507 C 0.5445 0.09776 0.77339 0.0
C508 C 0.56955 0.07225 0.77868 0.0
C509 C 0.58792 0.10683 0.78889 0.0
C510 C 0.50164 0.11592 0.74683 0.0
C511 C 0.50453 0.12535 0.73524 0.0
C512 C 0.52283 0.13181 0.7291 0.0
C513 C 0.53762 0.12859 0.73421 0.0
C514 C 0.53432 0.11891 0.74566 0.0
C515 C 0.5167 0.11304 0.75187 0.0
C516 C 0.51619 0.10388 0.76425 0.0
C517 C 0.53615 0.10466 0.76427 0.0
C518 C 0.54666 0.11334 0.7533 0.0
C519 C 0.49865 0.0826 0.76401 0.0
C520 C 0.51495 0.11686 0.7747 0.0
H521 H 0.6045 0.09799 0.76835 0.0
H522 H 0.61536 0.13263 0.72812 0.0
H523 H 0.59958 0.15378 0.74629 0.0
H524 H 0.57648 0.15009 0.74106 0.0
H525 H 0.5943 0.15124 0.72984 0.0
H526 H 0.56927 0.09759 0.72799 0.0
H527 H 0.57866 0.12012 0.71966 0.0
H528 H 0.55432 0.10836 0.72653 0.0
H529 H 0.56043 0.07392 0.80652 0.0
H530 H 0.50441 0.07292 0.80964 0.0
H531 H 0.50876 0.08684 0.78918 0.0
H532 H 0.55441 0.05915 0.77867 0.0
H533 H 0.57885 0.06951 0.78536 0.0
H534 H 0.57504 0.07281 0.76911 0.0
H535 H 0.58502 0.11771 0.79361 0.0
H536 H 0.60021 0.1153 0.78239 0.0
H537 H 0.59313 0.10032 0.7961 0.0
H538 H 0.63342 0.1054 0.75632 0.0
C539 C 0.60637 0.10548 0.75971 0.0
C540 C 0.82123 0.5444 0.94097 0.0
C541 C 0.83873 0.5464 0.93568 0.0
C542 C 0.84335 0.55297 0.92327 0.0
C543 C 0.81352 0.55548 0.92167 0.0
C544 C 0.80885 0.54889 0.9338 0.0
C545 C 0.78943 0.54708 0.93784 0.0
H546 H 0.70981 0.55788 0.92477 0.0
C547 C 0.79767 0.55898 0.91681 0.0
C548 C 0.78344 0.554 0.92624 0.0
H549 H 0.7218 0.53564 0.95851 0.0
H550 H 0.75236 0.54013 0.94976 0.0
H551 H 0.75467 0.59326 0.92096 0.0
H552 H 0.72312 0.53487 0.9058 0.0
H553 H 0.73684 0.55068 0.89366 0.0
H554 H 0.71774 0.55355 0.9012 0.0
H555 H 0.73568 0.5861 0.90922 0.0
H556 H 0.76124 0.59459 0.90518 0.0
C557 C 0.79368 0.56102 0.94908 0.0
C558 C 0.77469 0.52531 0.94061 0.0
C559 C 0.80306 0.58603 0.87298 0.0
C560 C 0.79121 0.59158 0.86608 0.0
C561 C 0.77367 0.58927 0.87155 0.0
C562 C 0.76807 0.58168 0.88361 0.0
C563 C 0.78013 0.57635 0.89041 0.0
C564 C 0.79732 0.57859 0.88508 0.0
C565 C 0.8085 0.57251 0.89378 0.0
C566 C 0.79519 0.56621 0.90519 0.0
C567 C 0.77854 0.56842 0.90315 0.0
C568 C 0.82907 0.59065 0.89655 0.0
C569 C 0.80942 0.55517 0.88768 0.0
C570 C 0.71909 0.55412 0.93031 0.0
C571 C 0.71327 0.54635 0.94237 0.0
C572 C 0.72573 0.54141 0.94916 0.0
C573 C 0.74356 0.54412 0.94408 0.0
C574 C 0.74912 0.55181 0.93201 0.0
C575 C 0.73691 0.55662 0.92533 0.0
C576 C 0.74504 0.56432 0.91257 0.0
C577 C 0.76407 0.56328 0.91267 0.0
C578 C 0.76645 0.55603 0.92412 0.0
C579 C 0.7493 0.58564 0.91181 0.0
C580 C 0.72994 0.5503 0.90271 0.0
H581 H 0.83537 0.56252 0.90692 0.0
H582 H 0.8171 0.53916 0.95041 0.0
H583 H 0.77738 0.51557 0.93439 0.0
H584 H 0.75906 0.52117 0.93882 0.0
H585 H 0.77625 0.52166 0.9504 0.0
H586 H 0.80765 0.57511 0.94763 0.0
H587 H 0.79544 0.55454 0.95784 0.0
H588 H 0.78207 0.56498 0.95044 0.0
H589 H 0.81675 0.58781 0.86916 0.0
H590 H 0.76413 0.59318 0.86643 0.0
H591 H 0.75455 0.5803 0.88718 0.0
H592 H 0.82788 0.60408 0.89723 0.0
H593 H 0.83981 0.59294 0.88903 0.0
H594 H 0.83546 0.58984 0.9056 0.0
H595 H 0.79552 0.54558 0.88236 0.0
H596 H 0.8106 0.54546 0.89457 0.0
H597 H 0.822 0.5604 0.88106 0.0
H598 H 0.8568 0.55486 0.91899 0.0
C599 C 0.83091 0.55753 0.91628 0.0
C600 C 0.43926 0.17001 0.93959 0.0
C601 C 0.43543 0.15206 0.93442 0.0
C602 C 0.4265 0.14662 0.92249 0.0
C603 C 0.42589 0.17691 0.92101 0.0
C604 C 0.43435 0.18209 0.93278 0.0
C605 C 0.43758 0.20163 0.93695 0.0
H606 H 0.43274 0.28292 0.9246 0.0
C607 C 0.42313 0.193 0.91635 0.0
C608 C 0.42993 0.20749 0.92568 0.0
H609 H 0.45304 0.26855 0.95846 0.0
H610 H 0.44607 0.23778 0.94946 0.0
H611 H 0.45338 0.2679 0.90588 0.0
H612 H 0.39408 0.23989 0.92056 0.0
H613 H 0.39215 0.23404 0.9046 0.0
H614 H 0.40282 0.25922 0.90937 0.0
H615 H 0.43502 0.27361 0.90041 0.0
H616 H 0.43743 0.25394 0.89365 0.0
C617 C 0.46018 0.21541 0.93905 0.0
C618 C 0.42467 0.19851 0.94866 0.0
C619 C 0.39491 0.18921 0.87281 0.0
C620 C 0.39162 0.20236 0.86581 0.0
C621 C 0.39622 0.22045 0.8712 0.0
C622 C 0.40395 0.22539 0.88334 0.0
C623 C 0.40724 0.21215 0.8902 0.0
C624 C 0.40281 0.19444 0.88492 0.0
C625 C 0.40779 0.18245 0.89352 0.0
C626 C 0.41576 0.19584 0.90486 0.0
C627 C 0.41533 0.21317 0.90286 0.0
C628 C 0.424 0.17946 0.88723 0.0
C629 C 0.38833 0.16329 0.89645 0.0
C630 C 0.43549 0.27306 0.93013 0.0
C631 C 0.44352 0.27824 0.94226 0.0
C632 C 0.44714 0.26506 0.94904 0.0
C633 C 0.44296 0.24713 0.94381 0.0
C634 C 0.43506 0.24223 0.93166 0.0
C635 C 0.43139 0.25507 0.92505 0.0
C636 C 0.42294 0.24738 0.91227 0.0
C637 C 0.42207 0.22776 0.91233 0.0
C638 C 0.42925 0.22488 0.92369 0.0
C639 C 0.43778 0.2614 0.90247 0.0
C640 C 0.40195 0.24508 0.91153 0.0
H641 H 0.41499 0.15396 0.90674 0.0
H642 H 0.4463 0.1748 0.94866 0.0
H643 H 0.41072 0.18412 0.94826 0.0
H644 H 0.41961 0.20929 0.94945 0.0
H645 H 0.43275 0.19891 0.95733 0.0
H646 H 0.46891 0.21266 0.93194 0.0
H647 H 0.46492 0.21314 0.94839 0.0
H648 H 0.46481 0.23099 0.93804 0.0
H649 H 0.39173 0.17529 0.86887 0.0
H650 H 0.3936 0.23073 0.86605 0.0
H651 H 0.40708 0.23935 0.88689 0.0
H652 H 0.4346 0.19271 0.88199 0.0
H653 H 0.41732 0.16703 0.88052 0.0
H654 H 0.43333 0.17709 0.89399 0.0
H655 H 0.37564 0.16601 0.89732 0.0
H656 H 0.38893 0.15686 0.90545 0.0
H657 H 0.38459 0.15228 0.88891 0.0
H658 H 0.42307 0.13274 0.91835 0.0
C659 C 0.42172 0.15892 0.91577 0.0
C660 C 0.72516 0.17198 0.94145 0.0
C661 C 0.70981 0.15458 0.93622 0.0
C662 C 0.71161 0.14978 0.92378 0.0
C663 C 0.74353 0.17947 0.92202 0.0
C664 C 0.74172 0.18419 0.9342 0.0
C665 C 0.75896 0.20354 0.93822 0.0
H666 H 0.84622 0.2843 0.92438 0.0
C667 C 0.76241 0.19543 0.91702 0.0
C668 C 0.77144 0.20964 0.92647 0.0
H669 H 0.81392 0.27051 0.95909 0.0
H670 H 0.78854 0.2399 0.95038 0.0
H671 H 0.83981 0.24093 0.91978 0.0
H672 H 0.80919 0.2702 0.90664 0.0
H673 H 0.80968 0.25613 0.89409 0.0
H674 H 0.83277 0.27536 0.90051 0.0
H675 H 0.85019 0.26008 0.90845 0.0
H676 H 0.83435 0.2349 0.90391 0.0
C677 C 0.76972 0.19991 0.9492 0.0
C678 C 0.75091 0.21747 0.94135 0.0
C679 C 0.78406 0.19122 0.87276 0.0
C680 C 0.80057 0.20414 0.8656 0.0
C681 C 0.8148 0.22212 0.87093 0.0
C682 C 0.81274 0.22717 0.88314 0.0
C683 C 0.79622 0.21415 0.89019 0.0
C684 C 0.78213 0.19657 0.88497 0.0
C685 C 0.76528 0.18489 0.89381 0.0
C686 C 0.77182 0.19822 0.90523 0.0
C687 C 0.78999 0.21529 0.90304 0.0
C688 C 0.76477 0.16542 0.89647 0.0
C689 C 0.74591 0.18247 0.88794 0.0
C690 C 0.83379 0.2746 0.93015 0.0
C691 C 0.83211 0.27991 0.94245 0.0
C692 C 0.81548 0.26694 0.94954 0.0
C693 C 0.80078 0.24909 0.94448 0.0
C694 C 0.80263 0.24407 0.93216 0.0
C695 C 0.81896 0.25673 0.92523 0.0
C696 C 0.81843 0.24904 0.91229 0.0
C697 C 0.79906 0.2297 0.91258 0.0
C698 C 0.78986 0.22686 0.92423 0.0
C699 C 0.83666 0.24616 0.9109 0.0
C700 C 0.81762 0.26339 0.90281 0.0
H701 H 0.72886 0.15756 0.9073 0.0
H702 H 0.72412 0.17621 0.95092 0.0
H703 H 0.73821 0.2146 0.93514 0.0
H704 H 0.76195 0.23299 0.93985 0.0
H705 H 0.7456 0.21555 0.95113 0.0
H706 H 0.76986 0.18602 0.9478 0.0
H707 H 0.76217 0.19883 0.95818 0.0
H708 H 0.78553 0.21125 0.95007 0.0
H709 H 0.77275 0.17739 0.86889 0.0
H710 H 0.82777 0.23223 0.86568 0.0
H711 H 0.82416 0.24103 0.88662 0.0
H712 H 0.78009 0.16792 0.89775 0.0
H713 H 0.75776 0.15496 0.88858 0.0
H714 H 0.7569 0.1584 0.90514 0.0
H715 H 0.74897 0.19543 0.88226 0.0
H716 H 0.7351 0.18144 0.89499 0.0
H717 H 0.73871 0.16945 0.88171 0.0
H718 H 0.70008 0.13638 0.91956 0.0
C719 C 0.72837 0.16207 0.91668 0.0
C720 C 0.56136 0.82788 0.07125 0.0
C721 C 0.56415 0.84534 0.07663 0.0
C722 C 0.57261 0.85067 0.08869 0.0
C723 C 0.57515 0.82136 0.08978 0.0
C724 C 0.5669 0.81619 0.07796 0.0
C725 C 0.5647 0.79711 0.07359 0.0
H726 H 0.57622 0.71922 0.08468 0.0
C727 C 0.57913 0.80593 0.09419 0.0
C728 C 0.573 0.79168 0.08473 0.0
H729 H 0.5506 0.73059 0.05208 0.0
H730 H 0.55689 0.76113 0.06107 0.0
H731 H 0.61277 0.76312 0.08825 0.0
H732 H 0.55447 0.73199 0.10431 0.0
H733 H 0.57074 0.74637 0.11629 0.0
H734 H 0.57415 0.72767 0.10895 0.0
H735 H 0.60605 0.74425 0.09959 0.0
H736 H 0.61533 0.76933 0.10417 0.0
C737 C 0.57772 0.80108 0.06184 0.0
C738 C 0.54227 0.7825 0.07149 0.0
C739 C 0.60998 0.81143 0.13707 0.0
C740 C 0.61535 0.79934 0.14363 0.0
C741 C 0.612 0.78179 0.13797 0.0
C742 C 0.6036 0.77643 0.12601 0.0
C743 C 0.59839 0.78867 0.11958 0.0
C744 C 0.60156 0.80583 0.12511 0.0
C745 C 0.595 0.81695 0.11686 0.0
C746 C 0.58741 0.80365 0.10547 0.0
C747 C 0.58945 0.78713 0.10713 0.0
C748 C 0.61345 0.83692 0.11384 0.0
C749 C 0.57813 0.81836 0.12357 0.0
C750 C 0.57183 0.72821 0.07949 0.0
C751 C 0.56291 0.72242 0.06762 0.0
C752 C 0.55775 0.73478 0.06115 0.0
C753 C 0.56127 0.75247 0.06644 0.0
C754 C 0.56999 0.75792 0.07837 0.0
C755 C 0.57514 0.74587 0.08468 0.0
C756 C 0.584 0.75389 0.09732 0.0
C757 C 0.58327 0.77272 0.09757 0.0
C758 C 0.57509 0.77501 0.08644 0.0
C759 C 0.60563 0.75778 0.09748 0.0
C760 C 0.57032 0.73927 0.10731 0.0
H761 H 0.5844 0.84363 0.10442 0.0
H762 H 0.55516 0.82345 0.06195 0.0
H763 H 0.53304 0.78524 0.07821 0.0
H764 H 0.53827 0.76718 0.07311 0.0
H765 H 0.53747 0.78379 0.06193 0.0
H766 H 0.5918 0.81529 0.06272 0.0
H767 H 0.56985 0.80169 0.05333 0.0
H768 H 0.58245 0.79017 0.06041 0.0
H769 H 0.61251 0.82509 0.14107 0.0
H770 H 0.61566 0.77203 0.14287 0.0
H771 H 0.60145 0.7629 0.12227 0.0
H772 H 0.62683 0.8354 0.11261 0.0
H773 H 0.6167 0.84764 0.1215 0.0
H774 H 0.61193 0.84316 0.10499 0.0
H775 H 0.56854 0.80481 0.12888 0.0
H776 H 0.56788 0.81979 0.11705 0.0
H777 H 0.58425 0.83078 0.13029 0.0
H778 H 0.57471 0.86391 0.09313 0.0
C779 C 0.57812 0.8388 0.09528 0.0
C780 C 0.27942 0.82949 0.06919 0.0
C781 C 0.29463 0.8471 0.0743 0.0
C782 C 0.29268 0.85216 0.08665 0.0
C783 C 0.26086 0.82239 0.08852 0.0
C784 C 0.26281 0.8174 0.07644 0.0
C785 C 0.24556 0.79802 0.07248 0.0
H786 H 0.15777 0.71792 0.0863 0.0
C787 C 0.24191 0.80656 0.09352 0.0
C788 C 0.23293 0.7922 0.08416 0.0
H789 H 0.19042 0.73111 0.05174 0.0
H790 H 0.21593 0.76166 0.06042 0.0
H791 H 0.19473 0.73208 0.10429 0.0
H792 H 0.16454 0.76147 0.09057 0.0
H793 H 0.16982 0.76761 0.10644 0.0
H794 H 0.1539 0.74242 0.10195 0.0
H795 H 0.17105 0.72702 0.11018 0.0
H796 H 0.19403 0.74628 0.1167 0.0
C797 C 0.25355 0.78396 0.06963 0.0
C798 C 0.235 0.80152 0.06131 0.0
C799 C 0.22002 0.81171 0.13749 0.0
C800 C 0.2034 0.79904 0.14467 0.0
C801 C 0.18913 0.78097 0.13944 0.0
C802 C 0.19124 0.77564 0.12731 0.0
C803 C 0.20785 0.78844 0.12025 0.0
C804 C 0.22198 0.80608 0.12537 0.0
C805 C 0.2389 0.81755 0.11655 0.0
C806 C 0.2324 0.80402 0.10524 0.0
C807 C 0.21416 0.78703 0.10746 0.0
C808 C 0.2582 0.82 0.12256 0.0
C809 C 0.2395 0.83701 0.11367 0.0
C810 C 0.17031 0.72747 0.08055 0.0
C811 C 0.17205 0.722 0.06831 0.0
C812 C 0.18881 0.73479 0.06125 0.0
C813 C 0.20358 0.75261 0.06629 0.0
C814 C 0.20167 0.7578 0.07855 0.0
C815 C 0.18521 0.74532 0.08545 0.0
C816 C 0.18566 0.75322 0.09831 0.0
C817 C 0.20512 0.77248 0.09801 0.0
C818 C 0.21443 0.77508 0.08642 0.0
C819 C 0.18626 0.73894 0.10795 0.0
C820 C 0.16752 0.75627 0.09952 0.0
H821 H 0.27529 0.84468 0.10306 0.0
H822 H 0.28055 0.82504 0.05979 0.0
H823 H 0.23517 0.81561 0.06243 0.0
H824 H 0.21911 0.79038 0.06052 0.0
H825 H 0.24248 0.80211 0.05238 0.0
H826 H 0.266 0.78675 0.07606 0.0
H827 H 0.25921 0.78584 0.05994 0.0
H828 H 0.24236 0.76847 0.07107 0.0
H829 H 0.23137 0.82558 0.14128 0.0
H830 H 0.17609 0.77105 0.1447 0.0
H831 H 0.17979 0.76174 0.1239 0.0
H832 H 0.25506 0.80704 0.12825 0.0
H833 H 0.26529 0.83302 0.12879 0.0
H834 H 0.26913 0.82106 0.11559 0.0
H835 H 0.22419 0.8346 0.11248 0.0
H836 H 0.24715 0.8437 0.10488 0.0
H837 H 0.24676 0.84772 0.1214 0.0
H838 H 0.30405 0.86574 0.09077 0.0
C839 C 0.2759 0.83995 0.09376 0.0
C840 C 0.2776 0.45726 0.07013 0.0
C841 C 0.29161 0.45228 0.07461 0.0
C842 C 0.2879 0.44268 0.08623 0.0
C843 C 0.25741 0.44375 0.08868 0.0
C844 C 0.26063 0.45268 0.0772 0.0
C845 C 0.24386 0.45603 0.07344 0.0
H846 H 0.15456 0.44777 0.08648 0.0
C847 C 0.23842 0.44107 0.09366 0.0
C848 C 0.23031 0.44808 0.08468 0.0
H849 H 0.18926 0.46999 0.05291 0.0
H850 H 0.21471 0.46446 0.06162 0.0
H851 H 0.16174 0.41161 0.08997 0.0
H852 H 0.19153 0.46972 0.10552 0.0
H853 H 0.19028 0.45398 0.11742 0.0
H854 H 0.16759 0.45125 0.11084 0.0
H855 H 0.15057 0.41965 0.10145 0.0
H856 H 0.16613 0.40971 0.10587 0.0
C857 C 0.234 0.44389 0.06145 0.0
C858 C 0.25235 0.47827 0.07196 0.0
C859 C 0.21525 0.41269 0.13711 0.0
C860 C 0.19843 0.40873 0.14423 0.0
C861 C 0.1844 0.41318 0.13908 0.0
C862 C 0.18692 0.42118 0.12713 0.0
C863 C 0.20367 0.42489 0.12011 0.0
C864 C 0.21755 0.42072 0.12513 0.0
C865 C 0.23439 0.42561 0.11626 0.0
C866 C 0.22841 0.43356 0.10516 0.0
C867 C 0.21034 0.43303 0.10747 0.0
C868 C 0.23435 0.4065 0.11292 0.0
C869 C 0.25385 0.44148 0.12249 0.0
C870 C 0.16771 0.45162 0.08104 0.0
C871 C 0.16976 0.45926 0.06893 0.0
C872 C 0.18709 0.46381 0.06216 0.0
C873 C 0.20192 0.46065 0.06726 0.0
C874 C 0.1995 0.45275 0.07928 0.0
C875 C 0.18264 0.44846 0.08598 0.0
C876 C 0.18254 0.44007 0.09858 0.0
C877 C 0.20194 0.43975 0.09828 0.0
C878 C 0.21186 0.44725 0.08696 0.0
C879 C 0.16426 0.41921 0.09913 0.0
C880 C 0.18285 0.45431 0.10869 0.0
H881 H 0.26926 0.43127 0.102 0.0
H882 H 0.27972 0.46469 0.06133 0.0
H883 H 0.26329 0.48648 0.07952 0.0
H884 H 0.2409 0.48259 0.07272 0.0
H885 H 0.26007 0.48344 0.0629 0.0
H886 H 0.23487 0.43026 0.06127 0.0
H887 H 0.24144 0.45228 0.05294 0.0
H888 H 0.21794 0.43881 0.06082 0.0
H889 H 0.22624 0.4093 0.14068 0.0
H890 H 0.17149 0.41064 0.14437 0.0
H891 H 0.17566 0.42416 0.12381 0.0
H892 H 0.21902 0.39371 0.11306 0.0
H893 H 0.24347 0.40362 0.11967 0.0
H894 H 0.23966 0.40656 0.10336 0.0
H895 H 0.25145 0.45274 0.12714 0.0
H896 H 0.26593 0.44953 0.11578 0.0
H897 H 0.25912 0.43502 0.1297 0.0
H898 H 0.29785 0.438 0.08988 0.0
C899 C 0.27107 0.43854 0.09327 0.0
C900 C 0.49081 0.87879 0.27397 0.0
C901 C 0.50902 0.88246 0.26883 0.0
C902 C 0.51375 0.88994 0.25662 0.0
C903 C 0.48264 0.89009 0.25495 0.0
C904 C 0.47797 0.88278 0.26691 0.0
C905 C 0.4583 0.88019 0.27108 0.0
H906 H 0.37589 0.88637 0.25855 0.0
C907 C 0.4662 0.89275 0.25018 0.0
C908 C 0.4519 0.88701 0.25963 0.0
H909 H 0.39113 0.86783 0.2927 0.0
H910 H 0.42188 0.87337 0.28364 0.0
H911 H 0.419 0.92289 0.25417 0.0
H912 H 0.39134 0.86424 0.23942 0.0
H913 H 0.40359 0.88055 0.22715 0.0
H914 H 0.38357 0.88133 0.23507 0.0
H915 H 0.40011 0.91444 0.24228 0.0
H916 H 0.426 0.92446 0.23848 0.0
C917 C 0.4621 0.89373 0.28251 0.0
C918 C 0.44418 0.85823 0.27363 0.0
C919 C 0.46975 0.91899 0.20634 0.0
C920 C 0.45713 0.9235 0.19941 0.0
C921 C 0.43916 0.92007 0.20486 0.0
C922 C 0.4339 0.91241 0.21693 0.0
C923 C 0.44675 0.90815 0.22377 0.0
C924 C 0.46434 0.91145 0.21844 0.0
C925 C 0.47636 0.90643 0.22715 0.0
C926 C 0.46311 0.89955 0.23858 0.0
C927 C 0.44573 0.90052 0.23654 0.0
C928 C 0.49637 0.9253 0.22987 0.0
C929 C 0.47845 0.88972 0.22109 0.0
C930 C 0.38578 0.88333 0.26402 0.0
C931 C 0.38099 0.8766 0.27638 0.0
C932 C 0.39449 0.87318 0.28323 0.0
C933 C 0.41233 0.87633 0.27792 0.0
C934 C 0.41693 0.8831 0.26559 0.0
C935 C 0.40378 0.88657 0.25888 0.0
C936 C 0.41143 0.89428 0.24603 0.0
C937 C 0.43121 0.89468 0.24611 0.0
C938 C 0.43431 0.88803 0.25759 0.0
C939 C 0.4142 0.91505 0.24506 0.0
C940 C 0.39674 0.87949 0.23633 0.0
H941 H 0.50523 0.89936 0.24044 0.0
H942 H 0.4868 0.87328 0.28337 0.0
H943 H 0.44615 0.84906 0.26651 0.0
H944 H 0.42832 0.85393 0.27304 0.0
H945 H 0.44723 0.8541 0.28293 0.0
H946 H 0.47676 0.90735 0.28182 0.0
H947 H 0.4621 0.88641 0.29134 0.0
H948 H 0.45122 0.89881 0.28322 0.0
H949 H 0.48378 0.92166 0.20254 0.0
H950 H 0.42904 0.92318 0.19971 0.0
H951 H 0.42003 0.91014 0.2205 0.0
H952 H 0.4944 0.93831 0.23006 0.0
H953 H 0.50751 0.92777 0.2226 0.0
H954 H 0.50264 0.92528 0.23913 0.0
H955 H 0.46446 0.87916 0.21619 0.0
H956 H 0.4811 0.88091 0.22797 0.0
H957 H 0.49058 0.8955 0.21413 0.0
H958 H 0.52753 0.89269 0.25236 0.0
C959 C 0.50071 0.89372 0.24967 0.0
C960 C 0.10688 0.50411 0.27331 0.0
C961 C 0.10322 0.48613 0.26832 0.0
C962 C 0.09412 0.4803 0.25645 0.0
C963 C 0.09278 0.5102 0.25477 0.0
C964 C 0.10149 0.51578 0.26645 0.0
C965 C 0.10428 0.5352 0.27052 0.0
H966 H 0.09413 0.61363 0.25856 0.0
C967 C 0.08927 0.52581 0.25009 0.0
C968 C 0.09592 0.54045 0.25932 0.0
H969 H 0.11947 0.60234 0.29135 0.0
H970 H 0.11286 0.57161 0.28258 0.0
H971 H 0.11576 0.60047 0.2393 0.0
H972 H 0.05713 0.56956 0.25493 0.0
H973 H 0.05495 0.56402 0.23889 0.0
H974 H 0.06453 0.58896 0.24389 0.0
H975 H 0.09609 0.6044 0.23401 0.0
H976 H 0.09992 0.58553 0.22734 0.0
C977 C 0.12685 0.54953 0.27231 0.0
C978 C 0.09165 0.53198 0.28237 0.0
C979 C 0.05965 0.52036 0.20681 0.0
C980 C 0.0554 0.53292 0.19987 0.0
C981 C 0.05907 0.5507 0.2053 0.0
C982 C 0.06691 0.55595 0.2174 0.0
C983 C 0.07123 0.54335 0.22418 0.0
C984 C 0.06761 0.52589 0.21888 0.0
C985 C 0.07346 0.51451 0.22744 0.0
C986 C 0.08121 0.52806 0.23871 0.0
C987 C 0.0798 0.54488 0.23675 0.0
C988 C 0.09006 0.51229 0.22102 0.0
C989 C 0.05454 0.49494 0.23051 0.0
C990 C 0.09836 0.60461 0.26384 0.0
C991 C 0.10724 0.61046 0.27573 0.0
C992 C 0.11228 0.59809 0.28229 0.0
C993 C 0.10857 0.58027 0.27713 0.0
C994 C 0.09979 0.57469 0.26523 0.0
C995 C 0.09486 0.58679 0.25878 0.0
C996 C 0.08604 0.57865 0.24614 0.0
C997 C 0.08632 0.55958 0.24613 0.0
C998 C 0.09435 0.55736 0.25734 0.0
C999 C 0.09999 0.59296 0.23611 0.0
C1000 C 0.06457 0.57518 0.24581 0.0
H1001 H 0.08205 0.48697 0.24069 0.0
H1002 H 0.11406 0.50921 0.28232 0.0
H1003 H 0.07761 0.51767 0.28192 0.0
H1004 H 0.08682 0.54287 0.28348 0.0
H1005 H 0.09986 0.53204 0.29091 0.0
H1006 H 0.13566 0.54644 0.26544 0.0
H1007 H 0.1319 0.54826 0.28179 0.0
H1008 H 0.13108 0.5649 0.27065 0.0
H1009 H 0.05717 0.50668 0.20286 0.0
H1010 H 0.05568 0.5605 0.20021 0.0
H1011 H 0.06931 0.56966 0.22099 0.0
H1012 H 0.1004 0.52583 0.21594 0.0
H1013 H 0.08371 0.50007 0.21415 0.0
H1014 H 0.09956 0.51 0.22769 0.0
H1015 H 0.04134 0.49689 0.23119 0.0
H1016 H 0.05546 0.48903 0.23965 0.0
H1017 H 0.05136 0.4838 0.22315 0.0
H1018 H 0.09083 0.4664 0.25244 0.0
C1019 C 0.08891 0.49223 0.24965 0.0
C1020 C 0.39066 0.50528 0.27437 0.0
C1021 C 0.37643 0.48673 0.26987 0.0
C1022 C 0.37925 0.48056 0.25807 0.0
C1023 C 0.41006 0.51119 0.25549 0.0
C1024 C 0.40731 0.51715 0.2671 0.0
C1025 C 0.42406 0.53701 0.27071 0.0
H1026 H 0.51338 0.61535 0.25755 0.0
C1027 C 0.42901 0.52694 0.25042 0.0
C1028 C 0.4373 0.54206 0.25936 0.0
H1029 H 0.47722 0.60556 0.29029 0.0
H1030 H 0.45225 0.57461 0.28191 0.0
H1031 H 0.50551 0.57152 0.25467 0.0
H1032 H 0.47769 0.60151 0.23829 0.0
H1033 H 0.47801 0.58603 0.22663 0.0
H1034 H 0.50119 0.60522 0.23299 0.0
H1035 H 0.51742 0.59035 0.24324 0.0
H1036 H 0.50162 0.56516 0.23876 0.0
C1037 C 0.43421 0.53479 0.28259 0.0
C1038 C 0.4155 0.55089 0.27227 0.0
C1039 C 0.45246 0.51991 0.20734 0.0
C1040 C 0.46953 0.53212 0.20035 0.0
C1041 C 0.48374 0.55029 0.20549 0.0
C1042 C 0.48116 0.55614 0.21735 0.0
C1043 C 0.46415 0.54376 0.22424 0.0
C1044 C 0.45011 0.526 0.21922 0.0
C1045 C 0.43303 0.51477 0.22798 0.0
C1046 C 0.43907 0.52884 0.239 0.0
C1047 C 0.45735 0.54576 0.23674 0.0
C1048 C 0.43261 0.49558 0.23148 0.0
C1049 C 0.4138 0.51178 0.22157 0.0
C1050 C 0.50003 0.60665 0.2629 0.0
C1051 C 0.49747 0.61297 0.2747 0.0
C1052 C 0.47986 0.60097 0.28132 0.0
C1053 C 0.46525 0.583 0.27638 0.0
C1054 C 0.46812 0.57687 0.26464 0.0
C1055 C 0.4852 0.58871 0.25806 0.0
C1056 C 0.48547 0.58003 0.24559 0.0
C1057 C 0.46585 0.56092 0.24585 0.0
C1058 C 0.45581 0.55911 0.25705 0.0
C1059 C 0.50348 0.57665 0.24542 0.0
C1060 C 0.48575 0.59387 0.23527 0.0
H1061 H 0.39718 0.48718 0.24194 0.0
H1062 H 0.38909 0.51035 0.28347 0.0
H1063 H 0.40314 0.5471 0.26552 0.0
H1064 H 0.42647 0.56627 0.27025 0.0
H1065 H 0.40955 0.54995 0.2818 0.0
H1066 H 0.43447 0.52084 0.28232 0.0
H1067 H 0.42615 0.53473 0.29113 0.0
H1068 H 0.44995 0.54625 0.28354 0.0
H1069 H 0.44134 0.50578 0.20373 0.0
H1070 H 0.49685 0.56014 0.20027 0.0
H1071 H 0.49255 0.57013 0.22069 0.0
H1072 H 0.44793 0.49782 0.23202 0.0
H1073 H 0.4242 0.48394 0.22443 0.0
H1074 H 0.42629 0.49018 0.2408 0.0
H1075 H 0.41666 0.52518 0.2165 0.0
H1076 H 0.40189 0.50896 0.22823 0.0
H1077 H 0.4081 0.49959 0.21468 0.0
H1078 H 0.36842 0.46638 0.25435 0.0
C1079 C 0.39593 0.49269 0.25085 0.0
Eu1080 Eu 0.49291 0.98503 0.99051 0.0
C1081 C 0.53765 0.06147 0.02316 0.0
C1082 C 0.57233 0.07067 0.02165 0.0
C1083 C 0.5632 0.09569 0.02461 0.0
C1084 C 0.55202 0.05628 0.02151 0.0
C1085 C 0.54307 0.08118 0.02503 0.0
C1086 C 0.57782 0.09044 0.0229 0.0
C1087 C 0.50845 0.07056 0.02864 0.0
N1088 N 0.51839 0.04709 0.02361 0.0
C1089 C 0.50384 0.05123 0.02673 0.0
C1090 C 0.52812 0.08565 0.02762 0.0
Eu1091 Eu 0.5115 0.01481 0.01965 0.0
N1092 N 0.54619 0.03705 0.02048 0.0
C1093 C 0.55995 0.03111 0.02058 0.0
C1094 C 0.58649 0.06472 0.02091 0.0
C1095 C 0.58027 0.04482 0.02059 0.0
H1096 H 0.48859 0.03963 0.02743 0.0
H1097 H 0.5911 0.04003 0.02029 0.0
H1098 H 0.59333 0.10172 0.02289 0.0
H1099 H 0.49682 0.07382 0.03085 0.0
H1100 H 0.55537 0.0158 0.02024 0.0
H1101 H 0.41393 0.96223 0.98786 0.0
H1102 H 0.60224 0.07531 0.02093 0.0
H1103 H 0.51483 0.95878 0.98423 0.0
H1104 H 0.44979 0.98556 0.98896 0.0
H1105 H 0.50563 0.92417 0.98147 0.0
H1106 H 0.56766 0.11094 0.0259 0.0
H1107 H 0.40172 0.92677 0.98715 0.0
H1108 H 0.40951 0.89951 0.98642 0.0
H1109 H 0.53166 0.10061 0.02912 0.0
H1110 H 0.43447 0.88911 0.9847 0.0
N1111 N 0.45808 0.96363 0.98926 0.0
C1112 C 0.4448 0.97017 0.98868 0.0
C1113 C 0.41755 0.93695 0.98773 0.0
C1114 C 0.43124 0.93035 0.98776 0.0
C1115 C 0.42438 0.95696 0.98807 0.0
C1116 C 0.45168 0.94425 0.98839 0.0
H1117 H 0.47034 0.89823 0.98263 0.0
N1118 N 0.48513 0.95233 0.98722 0.0
C1119 C 0.49424 0.92797 0.98317 0.0
C1120 C 0.46566 0.93841 0.98737 0.0
C1121 C 0.4994 0.94752 0.9847 0.0
C1122 C 0.47431 0.91336 0.98387 0.0
C1123 C 0.45969 0.91851 0.98579 0.0
O1124 O 0.50721 0.98773 0.97251 0.0
O1125 O 0.51774 0.01104 0.99986 0.0
O1126 O 0.50704 0.03327 0.00534 0.0
O1127 O 0.48455 0.00889 0.99177 0.0
O1128 O 0.52566 0.99486 0.98857 0.0
O1129 O 0.48319 0.99398 0.97388 0.0
O1130 O 0.49663 0.01004 0.03765 0.0
O1131 O 0.48671 0.98897 0.01019 0.0
O1132 O 0.49662 0.96668 0.00526 0.0
O1133 O 0.52031 0.99128 0.01811 0.0
O1134 O 0.47867 0.00477 0.0217 0.0
O1135 O 0.52264 0.00695 0.03613 0.0
C1136 C 0.53238 0.01029 0.99547 0.0
C1137 C 0.48752 0.98236 0.95447 0.0
C1138 C 0.48587 0.98345 0.93166 0.0
C1139 C 0.49357 0.99289 0.94324 0.0
C1140 C 0.47215 0.96326 0.93159 0.0
C1141 C 0.47378 0.96231 0.95412 0.0
C1142 C 0.46618 0.95283 0.94273 0.0
C1143 C 0.49368 0.02706 0.99619 0.0
C1144 C 0.49561 0.99242 0.96647 0.0
C1145 C 0.43936 0.9045 0.98579 0.0
C1146 C 0.42515 0.91042 0.98676 0.0
C1147 C 0.47201 0.9896 0.01456 0.0
C1148 C 0.51636 0.01653 0.05577 0.0
C1149 C 0.50932 0.00577 0.06686 0.0
C1150 C 0.51543 0.01512 0.07861 0.0
C1151 C 0.52887 0.03536 0.07901 0.0
C1152 C 0.52975 0.03666 0.05643 0.0
C1153 C 0.53598 0.04598 0.068 0.0
C1154 C 0.51046 0.97291 0.01409 0.0
C1155 C 0.50929 0.0067 0.04359 0.0
H1156 H 0.50403 0.00845 0.94355 0.0
H1157 H 0.46618 0.95541 0.92289 0.0
H1158 H 0.46897 0.954 0.96265 0.0
H1159 H 0.45565 0.93732 0.94252 0.0
H1160 H 0.49882 0.99024 0.06634 0.0
H1161 H 0.53407 0.04296 0.08786 0.0
H1162 H 0.53533 0.04514 0.048 0.0
H1163 H 0.54634 0.06153 0.06845 0.0
Eu1164 Eu 0.01825 0.50756 0.99104 0.0
C1165 C 0.93736 0.47464 0.01859 0.0
C1166 C 0.92798 0.4994 0.01603 0.0
C1167 C 0.90243 0.46526 0.01761 0.0
C1168 C 0.9427 0.49399 0.01704 0.0
C1169 C 0.91717 0.46009 0.0192 0.0
C1170 C 0.90782 0.48488 0.01602 0.0
C1171 C 0.92766 0.4367 0.02393 0.0
N1172 N 0.95196 0.47018 0.02018 0.0
C1173 C 0.94747 0.45167 0.0233 0.0
C1174 C 0.91243 0.44087 0.02171 0.0
Eu1175 Eu 0.98511 0.49605 0.01827 0.0
N1176 N 0.9623 0.50765 0.01718 0.0
C1177 C 0.96816 0.52706 0.01734 0.0
C1178 C 0.93395 0.51925 0.01542 0.0
C1179 C 0.95412 0.53315 0.01629 0.0
H1180 H 0.95922 0.44838 0.02491 0.0
H1181 H 0.95888 0.54856 0.01608 0.0
H1182 H 0.89631 0.48873 0.0151 0.0
H1183 H 0.92415 0.42196 0.02609 0.0
H1184 H 0.9837 0.53795 0.01791 0.0
H1185 H 0.04238 0.45343 0.99099 0.0
H1186 H 0.92311 0.52401 0.01459 0.0
H1187 H 0.04493 0.55547 0.98549 0.0
H1188 H 0.01832 0.46499 0.99128 0.0
H1189 H 0.08017 0.58125 0.98376 0.0
H1190 H 0.88682 0.45426 0.01792 0.0
H1191 H 0.07838 0.47715 0.99063 0.0
H1192 H 0.10587 0.51211 0.99016 0.0
H1193 H 0.89709 0.42926 0.02224 0.0
H1194 H 0.11619 0.54693 0.98854 0.0
N1195 N 0.04038 0.49513 0.99161 0.0
C1196 C 0.03396 0.47559 0.99127 0.0
C1197 C 0.06788 0.48237 0.99093 0.0
C1198 C 0.07439 0.50237 0.99092 0.0
C1199 C 0.04757 0.46893 0.99108 0.0
C1200 C 0.06008 0.50838 0.99117 0.0
H1201 H 0.10672 0.57284 0.98602 0.0
N1202 N 0.05161 0.53298 0.98924 0.0
C1203 C 0.07637 0.56633 0.98558 0.0
C1204 C 0.06589 0.52794 0.99007 0.0
C1205 C 0.05646 0.55173 0.98655 0.0
C1206 C 0.09131 0.56153 0.98691 0.0
C1207 C 0.08616 0.54208 0.98892 0.0
O1208 O 0.01755 0.51884 0.97261 0.0
O1209 O 0.99068 0.50569 0.9985 0.0
O1210 O 0.96797 0.47375 0.00325 0.0
O1211 O 0.99395 0.47526 0.99154 0.0
O1212 O 0.0079 0.52947 0.98749 0.0
O1213 O 0.01202 0.48924 0.97444 0.0
O1214 O 0.98666 0.48558 0.03682 0.0
O1215 O 0.01266 0.49799 0.01075 0.0
O1216 O 0.03534 0.52953 0.00627 0.0
O1217 O 0.00927 0.52838 0.01768 0.0
O1218 O 0.99598 0.47449 0.022 0.0
O1219 O 0.99023 0.51441 0.03472 0.0
C1220 C 0.99156 0.52058 0.99364 0.0
C1221 C 0.02677 0.50586 0.9558 0.0
C1222 C 0.02963 0.50519 0.93318 0.0
C1223 C 0.01806 0.50215 0.94389 0.0
C1224 C 0.05008 0.512 0.93457 0.0
C1225 C 0.04714 0.51252 0.95702 0.0
C1226 C 0.05873 0.51558 0.94645 0.0
C1227 C 0.975 0.4664 0.99492 0.0
C1228 C 0.01442 0.50303 0.96678 0.0
C1229 C 0.10054 0.53628 0.98933 0.0
C1230 C 0.09466 0.51645 0.99025 0.0
C1231 C 0.01215 0.48332 0.01566 0.0
C1232 C 0.97607 0.49761 0.05342 0.0
C1233 C 0.9843 0.49993 0.06541 0.0
C1234 C 0.97241 0.49611 0.07605 0.0
C1235 C 0.95211 0.48992 0.07451 0.0
C1236 C 0.95584 0.49155 0.05205 0.0
C1237 C 0.94394 0.48772 0.06256 0.0
C1238 C 0.0283 0.53702 0.0145 0.0
C1239 C 0.98871 0.5011 0.0425 0.0
H1240 H 0.00233 0.49719 0.94297 0.0
H1241 H 0.05931 0.51429 0.9265 0.0
H1242 H 0.05409 0.51541 0.96611 0.0
H1243 H 0.07446 0.52072 0.94745 0.0
H1244 H 0.99991 0.50441 0.06642 0.0
H1245 H 0.94263 0.48704 0.08253 0.0
H1246 H 0.94926 0.48974 0.0429 0.0
H1247 H 0.92833 0.48305 0.06146 0.0
Eu1248 Eu 0.51045 0.49354 0.01937 0.0
C1249 C 0.46272 0.52291 0.98843 0.0
C1250 C 0.42857 0.49674 0.99049 0.0
C1251 C 0.43569 0.53009 0.98777 0.0
C1252 C 0.44913 0.50318 0.99013 0.0
C1253 C 0.45603 0.53642 0.98689 0.0
C1254 C 0.42201 0.51032 0.98959 0.0
C1255 C 0.48987 0.56133 0.98268 0.0
N1256 N 0.48237 0.52877 0.98762 0.0
C1257 C 0.49584 0.54748 0.98429 0.0
C1258 C 0.46992 0.55585 0.98417 0.0
Eu1259 Eu 0.49102 0.50441 0.99097 0.0
N1260 N 0.45583 0.49023 0.991 0.0
C1261 C 0.44257 0.4706 0.99118 0.0
C1262 C 0.41511 0.47675 0.99148 0.0
C1263 C 0.42214 0.46363 0.99163 0.0
H1264 H 0.51137 0.55195 0.98342 0.0
H1265 H 0.4118 0.4481 0.99214 0.0
H1266 H 0.40631 0.50561 0.98999 0.0
H1267 H 0.50067 0.57624 0.98038 0.0
H1268 H 0.44736 0.46 0.99135 0.0
H1269 H 0.58992 0.5464 0.0211 0.0
H1270 H 0.39925 0.47127 0.99185 0.0
H1271 H 0.48714 0.4455 0.02492 0.0
H1272 H 0.55424 0.53554 0.01989 0.0
H1273 H 0.49532 0.41922 0.02739 0.0
H1274 H 0.43033 0.54031 0.98676 0.0
H1275 H 0.601 0.52206 0.02236 0.0
H1276 H 0.59217 0.48692 0.02296 0.0
H1277 H 0.46533 0.56662 0.98292 0.0
H1278 H 0.56645 0.45228 0.02449 0.0
N1279 N 0.54507 0.50527 0.0199 0.0
C1280 C 0.55881 0.52472 0.02026 0.0
C1281 C 0.5853 0.51719 0.02156 0.0
C1282 C 0.57115 0.49729 0.02151 0.0
C1283 C 0.5791 0.53097 0.02095 0.0
C1284 C 0.55086 0.49172 0.02081 0.0
H1285 H 0.53032 0.42693 0.02629 0.0
N1286 N 0.51711 0.46764 0.022 0.0
C1287 C 0.50703 0.43407 0.02579 0.0
C1288 C 0.53643 0.47228 0.0218 0.0
C1289 C 0.50245 0.44897 0.02441 0.0
C1290 C 0.52679 0.43847 0.02512 0.0
C1291 C 0.54182 0.45782 0.02333 0.0
O1292 O 0.49706 0.48232 0.03755 0.0
O1293 O 0.48519 0.49565 0.01094 0.0
O1294 O 0.49874 0.5292 0.00461 0.0
O1295 O 0.51915 0.52566 0.01921 0.0
O1296 O 0.47766 0.4718 0.02204 0.0
O1297 O 0.52213 0.51166 0.03615 0.0
O1298 O 0.5024 0.49471 0.97542 0.0
O1299 O 0.51682 0.50418 0.99976 0.0
O1300 O 0.50629 0.4718 0.00424 0.0
O1301 O 0.48107 0.47208 0.9926 0.0
O1302 O 0.52334 0.52829 0.9891 0.0
O1303 O 0.48319 0.50631 0.97159 0.0
C1304 C 0.47069 0.48084 0.01566 0.0
C1305 C 0.51813 0.49505 0.05514 0.0
C1306 C 0.51934 0.49508 0.07795 0.0
C1307 C 0.51161 0.49796 0.06674 0.0
C1308 C 0.53367 0.48916 0.0773 0.0
C1309 C 0.53245 0.48923 0.05472 0.0
C1310 C 0.54015 0.48629 0.06576 0.0
C1311 C 0.51123 0.53554 0.0142 0.0
C1312 C 0.50974 0.49803 0.0436 0.0
C1313 C 0.562 0.46319 0.02341 0.0
C1314 C 0.57665 0.48291 0.02255 0.0
C1315 C 0.53099 0.51979 0.99549 0.0
C1316 C 0.50785 0.51232 0.95673 0.0
C1317 C 0.50734 0.50385 0.94506 0.0
C1318 C 0.51944 0.51548 0.93524 0.0
C1319 C 0.53227 0.53555 0.93734 0.0
C1320 C 0.52079 0.53239 0.95857 0.0
C1321 C 0.53297 0.54388 0.94896 0.0
C1322 C 0.49156 0.4638 0.99601 0.0
C1323 C 0.49457 0.50032 0.96682 0.0
H1324 H 0.5007 0.50269 0.067 0.0
H1325 H 0.53971 0.48651 0.08571 0.0
H1326 H 0.53766 0.48694 0.0459 0.0
H1327 H 0.55115 0.48171 0.06538 0.0
H1328 H 0.49727 0.48838 0.94354 0.0
H1329 H 0.5419 0.54477 0.93001 0.0
H1330 H 0.52141 0.53925 0.9674 0.0
H1331 H 0.54292 0.55934 0.95049 0.0
Eu1332 Eu 0.15932 0.31899 0.32435 0.0
C1333 C 0.20522 0.39488 0.35764 0.0
C1334 C 0.23984 0.40393 0.35597 0.0
C1335 C 0.23094 0.42898 0.35952 0.0
C1336 C 0.2195 0.38963 0.35578 0.0
C1337 C 0.21077 0.41457 0.35983 0.0
C1338 C 0.24546 0.42368 0.35757 0.0
C1339 C 0.17618 0.40406 0.36346 0.0
N1340 N 0.18591 0.38059 0.35797 0.0
C1341 C 0.17145 0.38475 0.36126 0.0
C1342 C 0.19591 0.41908 0.36259 0.0
Eu1343 Eu 0.1788 0.34834 0.35365 0.0
N1344 N 0.21355 0.37041 0.35436 0.0
C1345 C 0.22724 0.36438 0.354 0.0
C1346 C 0.25392 0.39791 0.35485 0.0
C1347 C 0.24758 0.37802 0.35404 0.0
H1348 H 0.15616 0.3732 0.36188 0.0
H1349 H 0.25834 0.37317 0.35341 0.0
H1350 H 0.261 0.43489 0.35763 0.0
H1351 H 0.16462 0.40735 0.36581 0.0
H1352 H 0.22261 0.34909 0.35331 0.0
H1353 H 0.07979 0.29416 0.32428 0.0
H1354 H 0.26968 0.40844 0.35489 0.0
H1355 H 0.18186 0.29402 0.31615 0.0
H1356 H 0.11555 0.31826 0.32415 0.0
H1357 H 0.1734 0.25977 0.31261 0.0
H1358 H 0.2355 0.44421 0.36106 0.0
H1359 H 0.06848 0.25884 0.32359 0.0
H1360 H 0.07718 0.23231 0.32145 0.0
H1361 H 0.19955 0.43402 0.36433 0.0
H1362 H 0.10266 0.22293 0.31815 0.0
N1363 N 0.12459 0.2969 0.32375 0.0
C1364 C 0.1109 0.30294 0.32379 0.0
C1365 C 0.08424 0.26938 0.32352 0.0
C1366 C 0.09832 0.26332 0.32265 0.0
C1367 C 0.09056 0.28929 0.32388 0.0
C1368 C 0.11865 0.27764 0.32268 0.0
H1369 H 0.13855 0.23309 0.31459 0.0
N1370 N 0.1522 0.28667 0.32029 0.0
C1371 C 0.16187 0.2631 0.31498 0.0
C1372 C 0.13292 0.27236 0.32087 0.0
C1373 C 0.16661 0.28246 0.31695 0.0
C1374 C 0.1422 0.24808 0.31614 0.0
C1375 C 0.12737 0.25262 0.31893 0.0
O1376 O 0.17316 0.32299 0.30605 0.0
O1377 O 0.1843 0.3449 0.33366 0.0
O1378 O 0.17383 0.36688 0.33965 0.0
O1379 O 0.15059 0.34251 0.3264 0.0
O1380 O 0.19206 0.32937 0.32166 0.0
O1381 O 0.14815 0.32757 0.30823 0.0
O1382 O 0.16428 0.34336 0.37178 0.0
O1383 O 0.1538 0.3225 0.3443 0.0
O1384 O 0.16425 0.30053 0.33841 0.0
O1385 O 0.1877 0.32496 0.35151 0.0
O1386 O 0.1461 0.33825 0.35616 0.0
O1387 O 0.19015 0.34012 0.36987 0.0
C1388 C 0.19887 0.34454 0.32882 0.0
C1389 C 0.15253 0.31706 0.28842 0.0
C1390 C 0.15092 0.31829 0.26562 0.0
C1391 C 0.15872 0.32763 0.27721 0.0
C1392 C 0.13698 0.29816 0.26551 0.0
C1393 C 0.13858 0.29707 0.28804 0.0
C1394 C 0.13089 0.28769 0.27663 0.0
C1395 C 0.16004 0.3607 0.33077 0.0
C1396 C 0.16071 0.327 0.30045 0.0
C1397 C 0.10722 0.23819 0.31948 0.0
C1398 C 0.09271 0.24353 0.32136 0.0
C1399 C 0.13926 0.32308 0.34901 0.0
C1400 C 0.18439 0.34965 0.38968 0.0
C1401 C 0.1771 0.33898 0.40079 0.0
C1402 C 0.1835 0.34832 0.41253 0.0
C1403 C 0.19745 0.36843 0.4129 0.0
C1404 C 0.1983 0.36964 0.39032 0.0
C1405 C 0.2048 0.37894 0.40188 0.0
C1406 C 0.1782 0.30675 0.34719 0.0
C1407 C 0.17701 0.33989 0.37751 0.0
H1408 H 0.16937 0.34314 0.27755 0.0
H1409 H 0.13093 0.29039 0.2568 0.0
H1410 H 0.13365 0.28872 0.29655 0.0
H1411 H 0.12018 0.27222 0.2764 0.0
H1412 H 0.1662 0.32355 0.40029 0.0
H1413 H 0.20287 0.376 0.42174 0.0
H1414 H 0.20408 0.37805 0.38189 0.0
H1415 H 0.21557 0.39439 0.40231 0.0
Eu1416 Eu 0.6848 0.838 0.32523 0.0
C1417 C 0.60359 0.80742 0.35301 0.0
C1418 C 0.59448 0.83233 0.35028 0.0
C1419 C 0.56874 0.79844 0.35277 0.0
C1420 C 0.60907 0.82673 0.35109 0.0
C1421 C 0.58338 0.7931 0.35416 0.0
C1422 C 0.57428 0.81803 0.35084 0.0
C1423 C 0.59372 0.76969 0.35913 0.0
N1424 N 0.61811 0.80282 0.35451 0.0
C1425 C 0.61355 0.78443 0.35798 0.0
C1426 C 0.57855 0.77398 0.35705 0.0
Eu1427 Eu 0.6513 0.82838 0.35217 0.0
N1428 N 0.62872 0.8402 0.35071 0.0
C1429 C 0.63481 0.85965 0.35038 0.0
C1430 C 0.60064 0.8522 0.34933 0.0
C1431 C 0.6209 0.86593 0.34953 0.0
H1432 H 0.62522 0.78102 0.35954 0.0
H1433 H 0.62584 0.88136 0.34903 0.0
H1434 H 0.56286 0.82204 0.3501 0.0
H1435 H 0.59015 0.75503 0.36159 0.0
H1436 H 0.65041 0.87042 0.3505 0.0
H1437 H 0.70862 0.78373 0.32865 0.0
H1438 H 0.5899 0.8571 0.34872 0.0
H1439 H 0.71204 0.88534 0.31806 0.0
H1440 H 0.68467 0.79534 0.32644 0.0
H1441 H 0.74744 0.91093 0.31683 0.0
H1442 H 0.55313 0.78763 0.3535 0.0
H1443 H 0.74462 0.80746 0.33009 0.0
H1444 H 0.77223 0.84239 0.32939 0.0
H1445 H 0.5632 0.76256 0.358 0.0
H1446 H 0.78283 0.87704 0.32613 0.0
N1447 N 0.70677 0.82544 0.32689 0.0
C1448 C 0.70031 0.8059 0.32699 0.0
C1449 C 0.73417 0.81267 0.32909 0.0
C1450 C 0.74076 0.83264 0.32826 0.0
C1451 C 0.71386 0.79923 0.32825 0.0
C1452 C 0.72651 0.83863 0.32703 0.0
H1453 H 0.7737 0.90269 0.3212 0.0
N1454 N 0.71832 0.86308 0.32335 0.0
C1455 C 0.74344 0.89614 0.31925 0.0
C1456 C 0.73248 0.85809 0.32522 0.0
C1457 C 0.72344 0.88164 0.31992 0.0
C1458 C 0.75822 0.89144 0.32176 0.0
C1459 C 0.75284 0.87215 0.32459 0.0
O1460 O 0.68416 0.8481 0.3064 0.0
O1461 O 0.65738 0.83704 0.33223 0.0
O1462 O 0.6341 0.80549 0.33743 0.0
O1463 O 0.66011 0.80595 0.3263 0.0
O1464 O 0.67482 0.85989 0.32058 0.0
O1465 O 0.67895 0.81878 0.30916 0.0
O1466 O 0.653 0.81903 0.37104 0.0
O1467 O 0.67863 0.82937 0.3451 0.0
O1468 O 0.70177 0.86088 0.34003 0.0
O1469 O 0.67561 0.86054 0.35085 0.0
O1470 O 0.66148 0.80661 0.35682 0.0
O1471 O 0.65701 0.84787 0.36808 0.0
C1472 C 0.65849 0.85166 0.32678 0.0
C1473 C 0.6939 0.83445 0.2903 0.0
C1474 C 0.69778 0.83475 0.26769 0.0
C1475 C 0.68596 0.83215 0.27823 0.0
C1476 C 0.71772 0.83968 0.26948 0.0
C1477 C 0.71377 0.8393 0.29189 0.0
C1478 C 0.72561 0.8419 0.28151 0.0
C1479 C 0.64107 0.79761 0.32942 0.0
C1480 C 0.68131 0.83205 0.30107 0.0
C1481 C 0.7671 0.86642 0.32644 0.0
C1482 C 0.76107 0.84669 0.32828 0.0
C1483 C 0.67769 0.81483 0.35051 0.0
C1484 C 0.64296 0.8324 0.38716 0.0
C1485 C 0.65128 0.8352 0.39916 0.0
C1486 C 0.63953 0.83215 0.40978 0.0
C1487 C 0.61931 0.82627 0.40822 0.0
C1488 C 0.62282 0.82667 0.38577 0.0
C1489 C 0.61106 0.82362 0.39627 0.0
C1490 C 0.69468 0.86888 0.34783 0.0
C1491 C 0.6554 0.835 0.37627 0.0
H1492 H 0.6705 0.82813 0.27709 0.0
H1493 H 0.72731 0.84206 0.26158 0.0
H1494 H 0.72013 0.84111 0.30112 0.0
H1495 H 0.74097 0.84573 0.28279 0.0
H1496 H 0.66681 0.83943 0.40021 0.0
H1497 H 0.60996 0.82397 0.41623 0.0
H1498 H 0.61618 0.8245 0.37662 0.0
H1499 H 0.59552 0.81918 0.39514 0.0
Eu1500 Eu 0.17928 0.82802 0.35209 0.0
C1501 C 0.13194 0.85967 0.32253 0.0
C1502 C 0.09738 0.83481 0.32471 0.0
C1503 C 0.10638 0.86887 0.32274 0.0
C1504 C 0.11765 0.84031 0.32407 0.0
C1505 C 0.12645 0.87414 0.32158 0.0
C1506 C 0.09187 0.84923 0.32432 0.0
C1507 C 0.16084 0.89767 0.31746 0.0
N1508 N 0.15116 0.86425 0.32139 0.0
C1509 C 0.16552 0.88279 0.31842 0.0
C1510 C 0.14125 0.89338 0.3192 0.0
Eu1511 Eu 0.15816 0.83856 0.32399 0.0
N1512 N 0.12349 0.82676 0.32437 0.0
C1513 C 0.10971 0.80732 0.32434 0.0
C1514 C 0.08325 0.81494 0.32542 0.0
C1515 C 0.08943 0.80113 0.32504 0.0
H1516 H 0.18071 0.88618 0.31718 0.0
H1517 H 0.07861 0.78571 0.32535 0.0
H1518 H 0.07639 0.8453 0.32494 0.0
H1519 H 0.17234 0.91244 0.31541 0.0
H1520 H 0.11428 0.79648 0.32416 0.0
H1521 H 0.25908 0.87971 0.35011 0.0
H1522 H 0.06754 0.81011 0.32599 0.0
H1523 H 0.15621 0.78089 0.36021 0.0
H1524 H 0.22357 0.86957 0.35131 0.0
H1525 H 0.16405 0.75444 0.363 0.0
H1526 H 0.10188 0.87979 0.32216 0.0
H1527 H 0.26955 0.85485 0.3501 0.0
H1528 H 0.26011 0.81957 0.352 0.0
H1529 H 0.13765 0.90493 0.31842 0.0
H1530 H 0.23425 0.78546 0.35562 0.0
N1531 N 0.21383 0.83919 0.35165 0.0
C1532 C 0.22787 0.85854 0.35138 0.0
C1533 C 0.25391 0.8503 0.35065 0.0
C1534 C 0.23953 0.83056 0.35173 0.0
C1535 C 0.24806 0.86437 0.35068 0.0
C1536 C 0.21935 0.82543 0.35232 0.0
H1537 H 0.19844 0.7611 0.35998 0.0
N1538 N 0.18577 0.80213 0.35543 0.0
C1539 C 0.17565 0.76894 0.36049 0.0
C1540 C 0.20486 0.80628 0.35429 0.0
C1541 C 0.17127 0.78395 0.35893 0.0
C1542 C 0.19508 0.77274 0.35875 0.0
C1543 C 0.21004 0.79167 0.35579 0.0
O1544 O 0.16566 0.81933 0.37045 0.0
O1545 O 0.15372 0.82957 0.34387 0.0
O1546 O 0.16345 0.86109 0.33875 0.0
O1547 O 0.18849 0.86033 0.3504 0.0
O1548 O 0.14663 0.80627 0.35543 0.0
O1549 O 0.19289 0.84691 0.3684 0.0
O1550 O 0.17123 0.8486 0.30562 0.0
O1551 O 0.18361 0.83684 0.33214 0.0
O1552 O 0.1734 0.80476 0.33772 0.0
O1553 O 0.14946 0.80636 0.32527 0.0
O1554 O 0.19084 0.86017 0.32057 0.0
O1555 O 0.14524 0.81995 0.30751 0.0
C1556 C 0.13939 0.81482 0.34878 0.0
C1557 C 0.187 0.83098 0.38788 0.0
C1558 C 0.18688 0.83074 0.41071 0.0
C1559 C 0.18096 0.8351 0.39928 0.0
C1560 C 0.19909 0.82224 0.41045 0.0
C1561 C 0.19926 0.82268 0.38785 0.0
C1562 C 0.20528 0.81836 0.3991 0.0
C1563 C 0.17829 0.86889 0.3469 0.0
C1564 C 0.17965 0.83467 0.37614 0.0
C1565 C 0.22999 0.79652 0.35463 0.0
C1566 C 0.24471 0.81594 0.35258 0.0
C1567 C 0.19798 0.85145 0.32715 0.0
C1568 C 0.14967 0.83621 0.28829 0.0
C1569 C 0.15638 0.83348 0.27672 0.0
C1570 C 0.14943 0.83727 0.26551 0.0
C1571 C 0.13556 0.84376 0.26609 0.0
C1572 C 0.13579 0.84261 0.28868 0.0
C1573 C 0.12877 0.84634 0.27761 0.0
C1574 C 0.15909 0.79739 0.32917 0.0
C1575 C 0.15784 0.83297 0.29983 0.0
H1576 H 0.17171 0.84178 0.39918 0.0
H1577 H 0.20364 0.81829 0.419 0.0
H1578 H 0.20404 0.81941 0.37915 0.0
H1579 H 0.21462 0.8118 0.39903 0.0
H1580 H 0.16731 0.82877 0.27646 0.0
H1581 H 0.12978 0.84662 0.25764 0.0
H1582 H 0.13048 0.8448 0.29751 0.0
H1583 H 0.11805 0.85127 0.27796 0.0
Eu1584 Eu 0.82654 0.65286 0.65664 0.0
C1585 C 0.87254 0.72856 0.69015 0.0
C1586 C 0.90711 0.73738 0.68866 0.0
C1587 C 0.89841 0.76257 0.69219 0.0
C1588 C 0.88674 0.72318 0.68835 0.0
C1589 C 0.87819 0.74825 0.69238 0.0
C1590 C 0.91285 0.75715 0.69031 0.0
C1591 C 0.84362 0.73793 0.69589 0.0
N1592 N 0.85319 0.71435 0.69038 0.0
C1593 C 0.83878 0.7186 0.69364 0.0
C1594 C 0.86339 0.75287 0.6951 0.0
Eu1595 Eu 0.8459 0.68206 0.68602 0.0
N1596 N 0.88067 0.70395 0.6869 0.0
C1597 C 0.89426 0.69778 0.68666 0.0
C1598 C 0.9211 0.73123 0.68764 0.0
C1599 C 0.91463 0.71131 0.68682 0.0
H1600 H 0.82345 0.70712 0.69418 0.0
H1601 H 0.92532 0.70636 0.68626 0.0
H1602 H 0.92842 0.76828 0.69046 0.0
H1603 H 0.8321 0.7413 0.6982 0.0
H1604 H 0.88953 0.68247 0.68596 0.0
H1605 H 0.74708 0.62833 0.65639 0.0
H1606 H 0.93688 0.74167 0.68778 0.0
H1607 H 0.84901 0.62775 0.64857 0.0
H1608 H 0.78286 0.65231 0.65639 0.0
H1609 H 0.84043 0.59349 0.64497 0.0
H1610 H 0.90305 0.77781 0.69377 0.0
H1611 H 0.73562 0.59299 0.65552 0.0
H1612 H 0.74419 0.56637 0.6533 0.0
H1613 H 0.86712 0.76782 0.69688 0.0
H1614 H 0.7696 0.55687 0.65008 0.0
N1615 N 0.79179 0.63087 0.65588 0.0
C1616 C 0.77816 0.63698 0.65595 0.0
C1617 C 0.7514 0.60347 0.65551 0.0
C1618 C 0.76542 0.59735 0.65463 0.0
C1619 C 0.7578 0.6234 0.65597 0.0
C1620 C 0.78577 0.61161 0.65473 0.0
H1621 H 0.8055 0.56691 0.64672 0.0
N1622 N 0.81931 0.62052 0.6525 0.0
C1623 C 0.82892 0.59686 0.64726 0.0
C1624 C 0.8 0.60626 0.65296 0.0
C1625 C 0.83372 0.61624 0.64927 0.0
C1626 C 0.80919 0.5819 0.64829 0.0
C1627 C 0.79439 0.58652 0.65099 0.0
O1628 O 0.84071 0.65717 0.63842 0.0
O1629 O 0.85157 0.67864 0.66605 0.0
O1630 O 0.84109 0.70071 0.67202 0.0
O1631 O 0.81788 0.67637 0.65874 0.0
O1632 O 0.85922 0.66291 0.65413 0.0
O1633 O 0.81558 0.66159 0.64048 0.0
O1634 O 0.83133 0.6772 0.70413 0.0
O1635 O 0.82091 0.65637 0.67657 0.0
O1636 O 0.83107 0.63421 0.67074 0.0
O1637 O 0.85456 0.65851 0.68389 0.0
O1638 O 0.8132 0.67204 0.68847 0.0
O1639 O 0.8569 0.67347 0.70224 0.0
C1640 C 0.86609 0.67807 0.66129 0.0
C1641 C 0.82049 0.65159 0.62063 0.0
C1642 C 0.81939 0.6534 0.59783 0.0
C1643 C 0.82682 0.66248 0.60954 0.0
C1644 C 0.80567 0.63321 0.59749 0.0
C1645 C 0.80676 0.63155 0.62001 0.0
C1646 C 0.79944 0.62243 0.60849 0.0
C1647 C 0.82731 0.69454 0.66313 0.0
C1648 C 0.82835 0.66124 0.63277 0.0
C1649 C 0.77421 0.57214 0.65144 0.0
C1650 C 0.75974 0.57755 0.65328 0.0
C1651 C 0.80636 0.65693 0.68126 0.0
C1652 C 0.8513 0.68308 0.72206 0.0
C1653 C 0.844 0.67235 0.73315 0.0
C1654 C 0.85052 0.68159 0.7449 0.0
C1655 C 0.86462 0.70165 0.74532 0.0
C1656 C 0.86535 0.70303 0.72274 0.0
C1657 C 0.87197 0.71223 0.73432 0.0
C1658 C 0.84492 0.6403 0.67957 0.0
C1659 C 0.84385 0.67343 0.70986 0.0
H1660 H 0.83729 0.67801 0.61007 0.0
H1661 H 0.79991 0.62563 0.58868 0.0
H1662 H 0.80175 0.62296 0.62843 0.0
H1663 H 0.78891 0.60693 0.60807 0.0
H1664 H 0.833 0.65695 0.73262 0.0
H1665 H 0.87015 0.70916 0.75417 0.0
H1666 H 0.87114 0.71149 0.71433 0.0
H1667 H 0.88285 0.72764 0.73478 0.0
Eu1668 Eu 0.35154 0.17027 0.65812 0.0
C1669 C 0.27085 0.14193 0.68553 0.0
C1670 C 0.2622 0.16702 0.68196 0.0
C1671 C 0.23611 0.13328 0.68453 0.0
C1672 C 0.2766 0.16125 0.68333 0.0
C1673 C 0.25055 0.12778 0.68641 0.0
C1674 C 0.24193 0.15287 0.6823 0.0
C1675 C 0.26033 0.10414 0.69194 0.0
N1676 N 0.28515 0.13714 0.68741 0.0
C1677 C 0.28027 0.11873 0.69105 0.0
C1678 C 0.24539 0.10862 0.68947 0.0
Eu1679 Eu 0.31852 0.16235 0.6851 0.0
N1680 N 0.29631 0.17455 0.68309 0.0
C1681 C 0.30261 0.19403 0.68236 0.0
C1682 C 0.2686 0.18687 0.68054 0.0
C1683 C 0.28889 0.20046 0.68091 0.0
H1684 H 0.29179 0.1152 0.69289 0.0
H1685 H 0.29399 0.21588 0.68001 0.0
H1686 H 0.23065 0.15699 0.68113 0.0
H1687 H 0.25651 0.08946 0.69452 0.0
H1688 H 0.31824 0.20469 0.68256 0.0
H1689 H 0.37631 0.11691 0.66264 0.0
H1690 H 0.25801 0.19189 0.67938 0.0
H1691 H 0.37787 0.21725 0.64991 0.0
H1692 H 0.352 0.1281 0.66094 0.0
H1693 H 0.413 0.24288 0.64743 0.0
H1694 H 0.22043 0.12259 0.68506 0.0
H1695 H 0.41233 0.14086 0.66235 0.0
H1696 H 0.43958 0.17569 0.66013 0.0
H1697 H 0.22996 0.09731 0.69021 0.0
H1698 H 0.44958 0.21 0.65604 0.0
N1699 N 0.3739 0.15821 0.6599 0.0
C1700 C 0.36763 0.13875 0.66076 0.0
C1701 C 0.40169 0.14588 0.66159 0.0
C1702 C 0.40803 0.16571 0.66014 0.0
C1703 C 0.38139 0.13232 0.66175 0.0
C1704 C 0.39357 0.17147 0.65919 0.0
H1705 H 0.43977 0.23514 0.65113 0.0
N1706 N 0.38479 0.19546 0.65531 0.0
C1707 C 0.40933 0.22829 0.65014 0.0
C1708 C 0.3992 0.19073 0.65687 0.0
C1709 C 0.38947 0.21375 0.65152 0.0
C1710 C 0.4244 0.22388 0.65227 0.0
C1711 C 0.41942 0.20483 0.65548 0.0
O1712 O 0.34946 0.17861 0.63903 0.0
O1713 O 0.32438 0.16983 0.66503 0.0
O1714 O 0.30124 0.13893 0.67069 0.0
O1715 O 0.3272 0.13826 0.66029 0.0
O1716 O 0.34141 0.19181 0.65276 0.0
O1717 O 0.34528 0.14986 0.64267 0.0
O1718 O 0.31991 0.15354 0.70418 0.0
O1719 O 0.3458 0.16294 0.67825 0.0
O1720 O 0.36891 0.19409 0.67231 0.0
O1721 O 0.34303 0.19433 0.68318 0.0
O1722 O 0.32879 0.14092 0.69051 0.0
O1723 O 0.32422 0.18239 0.7007 0.0
C1724 C 0.3253 0.18405 0.65918 0.0
C1725 C 0.35887 0.16421 0.62323 0.0
C1726 C 0.36188 0.1641 0.6006 0.0
C1727 C 0.35044 0.16162 0.61129 0.0
C1728 C 0.3819 0.16918 0.60204 0.0
C1729 C 0.37882 0.16916 0.62451 0.0
C1730 C 0.39026 0.17162 0.61394 0.0
C1731 C 0.30814 0.13035 0.66322 0.0
C1732 C 0.34679 0.16232 0.63419 0.0
C1733 C 0.43395 0.19934 0.65697 0.0
C1734 C 0.42826 0.17981 0.65929 0.0
C1735 C 0.34498 0.1488 0.68416 0.0
C1736 C 0.31003 0.16759 0.71994 0.0
C1737 C 0.31817 0.17014 0.73197 0.0
C1738 C 0.30642 0.1674 0.74255 0.0
C1739 C 0.28637 0.16211 0.7409 0.0
C1740 C 0.29005 0.16243 0.71846 0.0
C1741 C 0.2783 0.15971 0.72891 0.0
C1742 C 0.362 0.20251 0.67992 0.0
C1743 C 0.32244 0.16973 0.70911 0.0
H1744 H 0.33507 0.15803 0.61034 0.0
H1745 H 0.39101 0.17103 0.59397 0.0
H1746 H 0.38555 0.17117 0.63363 0.0
H1747 H 0.40566 0.17545 0.61498 0.0
H1748 H 0.33357 0.17389 0.73309 0.0
H1749 H 0.27701 0.16006 0.74887 0.0
H1750 H 0.28354 0.16042 0.70927 0.0
H1751 H 0.26287 0.15572 0.72771 0.0
Eu1752 Eu 0.84573 0.16163 0.68603 0.0
C1753 C 0.7982 0.1914 0.65395 0.0
C1754 C 0.7636 0.1669 0.65651 0.0
C1755 C 0.77269 0.20058 0.65252 0.0
C1756 C 0.78386 0.17229 0.65626 0.0
C1757 C 0.79276 0.20569 0.65177 0.0
C1758 C 0.75813 0.18122 0.6549 0.0
C1759 C 0.82717 0.22857 0.64721 0.0
N1760 N 0.81741 0.19579 0.65318 0.0
C1761 C 0.8318 0.21386 0.64943 0.0
C1762 C 0.8076 0.22453 0.64854 0.0
Eu1763 Eu 0.82429 0.17039 0.65738 0.0
N1764 N 0.78965 0.15881 0.65767 0.0
C1765 C 0.77581 0.13944 0.6585 0.0
C1766 C 0.74942 0.14719 0.65805 0.0
C1767 C 0.75555 0.13338 0.65889 0.0
H1768 H 0.84697 0.21707 0.64845 0.0
H1769 H 0.74468 0.11806 0.65988 0.0
H1770 H 0.74266 0.17738 0.65518 0.0
H1771 H 0.83868 0.24299 0.64451 0.0
H1772 H 0.78031 0.12859 0.6592 0.0
H1773 H 0.92527 0.21435 0.68378 0.0
H1774 H 0.73371 0.14246 0.65833 0.0
H1775 H 0.82326 0.1147 0.69447 0.0
H1776 H 0.88961 0.20365 0.68468 0.0
H1777 H 0.83171 0.08874 0.69778 0.0
H1778 H 0.76823 0.21139 0.65098 0.0
H1779 H 0.93638 0.19001 0.68466 0.0
H1780 H 0.92759 0.15502 0.68724 0.0
H1781 H 0.80403 0.23593 0.64679 0.0
H1782 H 0.90215 0.12083 0.69109 0.0
N1783 N 0.8804 0.17342 0.68574 0.0
C1784 C 0.89417 0.19283 0.68513 0.0
C1785 C 0.92067 0.1852 0.68507 0.0
C1786 C 0.90655 0.16543 0.68641 0.0
C1787 C 0.91445 0.19898 0.6846 0.0
C1788 C 0.88627 0.15995 0.68683 0.0
H1789 H 0.86641 0.09604 0.69523 0.0
N1790 N 0.85278 0.13624 0.68984 0.0
C1791 C 0.84318 0.10329 0.69524 0.0
C1792 C 0.87201 0.14075 0.68894 0.0
C1793 C 0.83845 0.11801 0.6934 0.0
C1794 C 0.86277 0.10745 0.69376 0.0
C1795 C 0.87754 0.12644 0.69076 0.0
O1796 O 0.83259 0.15307 0.70452 0.0
O1797 O 0.82013 0.1629 0.67757 0.0
O1798 O 0.83025 0.19446 0.67113 0.0
O1799 O 0.85452 0.19369 0.68368 0.0
O1800 O 0.81314 0.14023 0.68972 0.0
O1801 O 0.85891 0.18129 0.70204 0.0
O1802 O 0.83738 0.17851 0.63884 0.0
O1803 O 0.8499 0.16928 0.66589 0.0
O1804 O 0.84003 0.13788 0.6721 0.0
O1805 O 0.81531 0.1383 0.65988 0.0
O1806 O 0.85689 0.19181 0.65367 0.0
O1807 O 0.81102 0.1504 0.64154 0.0
C1808 C 0.80587 0.14857 0.68288 0.0
C1809 C 0.85425 0.16624 0.72175 0.0
C1810 C 0.85394 0.16579 0.74455 0.0
C1811 C 0.84712 0.16911 0.73313 0.0
C1812 C 0.8681 0.15964 0.74438 0.0
C1813 C 0.8684 0.16019 0.72177 0.0
C1814 C 0.8753 0.15693 0.73305 0.0
C1815 C 0.84473 0.20235 0.67955 0.0
C1816 C 0.8462 0.16895 0.70997 0.0
C1817 C 0.89762 0.13165 0.68984 0.0
C1818 C 0.9121 0.15111 0.68766 0.0
C1819 C 0.86418 0.18362 0.66062 0.0
C1820 C 0.81544 0.16518 0.62176 0.0
C1821 C 0.82294 0.16299 0.61034 0.0
C1822 C 0.81591 0.16622 0.59898 0.0
C1823 C 0.80116 0.17159 0.59924 0.0
C1824 C 0.80069 0.17047 0.62182 0.0
C1825 C 0.79359 0.17364 0.6106 0.0
C1826 C 0.82534 0.1298 0.66385 0.0
C1827 C 0.82366 0.16259 0.6335 0.0
H1828 H 0.83599 0.17356 0.73307 0.0
H1829 H 0.87381 0.15717 0.753 0.0
H1830 H 0.87404 0.1579 0.7131 0.0
H1831 H 0.88623 0.15226 0.73302 0.0
H1832 H 0.83452 0.15912 0.61033 0.0
H1833 H 0.79529 0.17398 0.59066 0.0
H1834 H 0.79472 0.17221 0.63052 0.0
H1835 H 0.7822 0.17771 0.6107 0.0
H1836 H 0.33356 0.8661 0.08184 0.0
H1837 H 0.36275 0.88843 0.06975 0.0
H1838 H 0.32532 0.87999 0.03778 0.0
H1839 H 0.29603 0.85749 0.0498 0.0
H1840 H 0.35985 0.87991 0.03147 0.0
H1841 H 0.37684 0.9439 0.06134 0.0
H1842 H 0.37558 0.92384 0.06987 0.0
H1843 H 0.35365 0.92119 0.06228 0.0
C1844 C 0.33153 0.86908 0.07226 0.0
C1845 C 0.31245 0.86018 0.06682 0.0
C1846 C 0.34823 0.88183 0.06536 0.0
C1847 C 0.34619 0.88616 0.05293 0.0
C1848 C 0.32724 0.87691 0.04737 0.0
H1849 H 0.43777 0.99008 0.0172 0.0
H1850 H 0.40592 0.9636 0.02455 0.0
C1851 C 0.31052 0.86404 0.05424 0.0
C1852 C 0.36377 0.90067 0.04585 0.0
H1853 H 0.40122 0.94812 0.04653 0.0
C1854 C 0.36887 0.89487 0.0347 0.0
C1855 C 0.37534 0.92025 0.04998 0.0
C1856 C 0.37 0.92776 0.06145 0.0
C1857 C 0.38544 0.90804 0.0277 0.0
C1858 C 0.39742 0.92746 0.03208 0.0
C1859 C 0.39211 0.93325 0.04315 0.0
C1860 C 0.41555 0.94222 0.02548 0.0
C1861 C 0.3897 0.90111 0.01559 0.0
C1862 C 0.43144 0.93891 0.02315 0.0
C1863 C 0.44956 0.95399 0.01871 0.0
C1864 C 0.45212 0.97265 0.01666 0.0
C1865 C 0.43606 0.97576 0.0186 0.0
C1866 C 0.41791 0.96065 0.02284 0.0
H1867 H 0.37618 0.88825 0.01172 0.0
H1868 H 0.39552 0.91286 0.00854 0.0
H1869 H 0.40103 0.89671 0.01723 0.0
H1870 H 0.43026 0.92504 0.02541 0.0
H1871 H 0.46186 0.95135 0.01758 0.0
H1872 H 0.14806 0.47382 0.08014 0.0
H1873 H 0.12196 0.47856 0.0708 0.0
H1874 H 0.12931 0.45619 0.03568 0.0
H1875 H 0.15542 0.45145 0.04493 0.0
H1876 H 0.12723 0.48941 0.03276 0.0
H1877 H 0.06523 0.43712 0.06243 0.0
H1878 H 0.08609 0.4556 0.07105 0.0
H1879 H 0.08887 0.43797 0.06192 0.0
C1880 C 0.14399 0.46972 0.07046 0.0
C1881 C 0.15384 0.46221 0.0633 0.0
C1882 C 0.12902 0.47242 0.06513 0.0
C1883 C 0.12342 0.46746 0.05258 0.0
C1884 C 0.13333 0.4601 0.04539 0.0
H1885 H 0.01323 0.45007 0.01975 0.0
H1886 H 0.04106 0.44687 0.02774 0.0
C1887 C 0.14833 0.45748 0.05069 0.0
C1888 C 0.10752 0.47026 0.0468 0.0
H1889 H 0.05847 0.45683 0.049 0.0
C1890 C 0.11216 0.48224 0.03628 0.0
C1891 C 0.08782 0.46079 0.05132 0.0
C1892 C 0.08159 0.447 0.06223 0.0
C1893 C 0.09773 0.48503 0.03016 0.0
C1894 C 0.07803 0.47584 0.03478 0.0
C1895 C 0.07346 0.4639 0.04536 0.0
C1896 C 0.06177 0.47799 0.02877 0.0
C1897 C 0.10374 0.49734 0.01857 0.0
C1898 C 0.06402 0.4965 0.02646 0.0
C1899 C 0.04823 0.49828 0.02156 0.0
C1900 C 0.02972 0.48161 0.01909 0.0
C1901 C 0.02742 0.46314 0.02142 0.0
C1902 C 0.04332 0.46134 0.02606 0.0
H1903 H 0.11683 0.49783 0.01405 0.0
H1904 H 0.09138 0.49159 0.01174 0.0
H1905 H 0.1078 0.51252 0.02107 0.0
H1906 H 0.07776 0.50964 0.02882 0.0
H1907 H 0.05028 0.51273 0.02023 0.0
H1908 H 0.54925 0.68749 0.07952 0.0
H1909 H 0.54193 0.65619 0.07045 0.0
H1910 H 0.55825 0.68259 0.03411 0.0
H1911 H 0.56656 0.71419 0.0432 0.0
H1912 H 0.51451 0.63468 0.05286 0.0
H1913 H 0.5897 0.65446 0.03619 0.0
H1914 H 0.58543 0.66974 0.04682 0.0
H1915 H 0.58106 0.67017 0.03036 0.0
C1916 C 0.55167 0.68676 0.06964 0.0
C1917 C 0.55862 0.70341 0.0621 0.0
C1918 C 0.54731 0.6688 0.06445 0.0
C1919 C 0.54981 0.66711 0.05164 0.0
C1920 C 0.55661 0.68364 0.04406 0.0
H1921 H 0.49417 0.55803 0.00979 0.0
H1922 H 0.50384 0.5901 0.01856 0.0
C1923 C 0.56109 0.70164 0.04925 0.0
C1924 C 0.54455 0.64787 0.04616 0.0
H1925 H 0.56299 0.6239 0.0292 0.0
C1926 C 0.52513 0.63229 0.04773 0.0
C1927 C 0.5585 0.64474 0.03961 0.0
C1928 C 0.57989 0.66061 0.03824 0.0
C1929 C 0.51918 0.6137 0.04279 0.0
C1930 C 0.53292 0.61075 0.03584 0.0
C1931 C 0.55242 0.62626 0.03441 0.0
C1932 C 0.52746 0.59159 0.03016 0.0
C1933 C 0.49837 0.59731 0.04529 0.0
C1934 C 0.53795 0.58206 0.03344 0.0
C1935 C 0.53275 0.5639 0.02821 0.0
C1936 C 0.51698 0.55495 0.01956 0.0
C1937 C 0.50659 0.56462 0.01624 0.0
C1938 C 0.5119 0.58284 0.0214 0.0
H1939 H 0.49181 0.60052 0.05353 0.0
H1940 H 0.48877 0.59539 0.03709 0.0
H1941 H 0.49814 0.58334 0.0469 0.0
H1942 H 0.55004 0.5886 0.04015 0.0
H1943 H 0.54109 0.5569 0.03099 0.0
H1944 H 0.82648 0.30537 0.95691 0.0
H1945 H 0.85177 0.33678 0.96558 0.0
H1946 H 0.89777 0.32904 0.94884 0.0
H1947 H 0.87257 0.29755 0.94016 0.0
H1948 H 0.88312 0.34496 0.98185 0.0
H1949 H 0.91104 0.3832 0.93676 0.0
H1950 H 0.88798 0.36037 0.93797 0.0
H1951 H 0.91128 0.36068 0.93807 0.0
C1952 C 0.84198 0.31027 0.95513 0.0
C1953 C 0.84749 0.29896 0.9478 0.0
C1954 C 0.85641 0.32828 0.96005 0.0
C1955 C 0.87663 0.33539 0.9577 0.0
C1956 C 0.88223 0.32405 0.95053 0.0
H1957 H 0.98365 0.44249 0.98088 0.0
H1958 H 0.96018 0.4104 0.97204 0.0
C1959 C 0.8678 0.30605 0.94558 0.0
C1960 C 0.89182 0.35452 0.96297 0.0
H1961 H 0.92859 0.4002 0.95499 0.0
C1962 C 0.89305 0.35705 0.97598 0.0
C1963 C 0.9048 0.37025 0.95529 0.0
C1964 C 0.90367 0.36862 0.94124 0.0
C1965 C 0.90697 0.37486 0.98153 0.0
C1966 C 0.9198 0.39064 0.97385 0.0
C1967 C 0.91875 0.38805 0.96085 0.0
C1968 C 0.93401 0.41012 0.97913 0.0
C1969 C 0.908 0.37655 0.99558 0.0
C1970 C 0.92704 0.42074 0.98583 0.0
C1971 C 0.94036 0.43905 0.99086 0.0
C1972 C 0.96097 0.44715 0.9893 0.0
C1973 C 0.9679 0.43665 0.98234 0.0
C1974 C 0.95452 0.41831 0.97728 0.0
H1975 H 0.90114 0.36199 1.00007 0.0
H1976 H 0.92362 0.38536 0.99889 0.0
H1977 H 0.89978 0.38393 0.99871 0.0
H1978 H 0.91124 0.41492 0.9871 0.0
H1979 H 0.93444 0.44691 0.99589 0.0
H1980 H 0.68574 0.51502 0.95573 0.0
H1981 H 0.65491 0.51031 0.96497 0.0
H1982 H 0.66723 0.56632 0.95101 0.0
H1983 H 0.69796 0.571 0.94162 0.0
H1984 H 0.64887 0.53089 0.98266 0.0
H1985 H 0.61082 0.53251 0.93923 0.0
H1986 H 0.63299 0.53057 0.93909 0.0
H1987 H 0.6347 0.55395 0.94131 0.0
C1988 C 0.6819 0.52635 0.95462 0.0
C1989 C 0.69432 0.54337 0.94788 0.0
C1990 C 0.66421 0.52361 0.95988 0.0
C1991 C 0.65848 0.53778 0.95853 0.0
C1992 C 0.67096 0.55489 0.95191 0.0
H1993 H 0.56355 0.55353 0.9886 0.0
H1994 H 0.59487 0.55783 0.98026 0.0
C1995 C 0.68859 0.55758 0.94656 0.0
C1996 C 0.63983 0.53494 0.96441 0.0
H1997 H 0.59611 0.53411 0.95835 0.0
C1998 C 0.63728 0.53143 0.97731 0.0
C1999 C 0.62463 0.53563 0.95746 0.0
C2000 C 0.62579 0.53817 0.94349 0.0
C2001 C 0.62021 0.52899 0.98344 0.0
C2002 C 0.60524 0.53003 0.97654 0.0
C2003 C 0.60769 0.53344 0.96365 0.0
C2004 C 0.58688 0.52761 0.9825 0.0
C2005 C 0.6185 0.5259 0.99733 0.0
C2006 C 0.57201 0.5092 0.98658 0.0
C2007 C 0.55405 0.50669 0.99124 0.0
C2008 C 0.55076 0.52262 0.99213 0.0
C2009 C 0.56581 0.54107 0.98823 0.0
C2010 C 0.58366 0.54353 0.98343 0.0
H2011 H 0.63228 0.52739 1.00157 0.0
H2012 H 0.61523 0.53666 1.00179 0.0
H2013 H 0.60601 0.51106 0.99936 0.0
H2014 H 0.57404 0.49665 0.98578 0.0
H2015 H 0.54253 0.49218 0.9938 0.0
H2016 H 0.45162 0.13081 0.92512 0.0
H2017 H 0.46128 0.1102 0.93661 0.0
H2018 H 0.44288 0.12469 0.97102 0.0
H2019 H 0.43229 0.1446 0.95954 0.0
H2020 H 0.48903 0.12037 0.95523 0.0
H2021 H 0.41432 0.06555 0.97223 0.0
H2022 H 0.41784 0.08288 0.96022 0.0
H2023 H 0.42159 0.09027 0.97635 0.0
C2024 C 0.44927 0.12934 0.9351 0.0
C2025 C 0.44105 0.13928 0.94138 0.0
C2026 C 0.45499 0.1177 0.94167 0.0
C2027 C 0.45259 0.11573 0.95465 0.0
C2028 C 0.44454 0.12572 0.96098 0.0
H2029 H 0.51013 0.06639 1.00088 0.0
H2030 H 0.50046 0.08873 0.99169 0.0
C2031 C 0.43871 0.13729 0.95441 0.0
C2032 C 0.45883 0.10344 0.96154 0.0
H2033 H 0.44165 0.06334 0.98012 0.0
C2034 C 0.47869 0.1079 0.96069 0.0
C2035 C 0.44526 0.08711 0.96856 0.0
C2036 C 0.42352 0.08101 0.96933 0.0
C2037 C 0.48535 0.09638 0.96661 0.0
C2038 C 0.47184 0.08021 0.97378 0.0
C2039 C 0.45201 0.07585 0.9747 0.0
C2040 C 0.47757 0.06683 0.97973 0.0
C2041 C 0.50658 0.10124 0.96478 0.0
C2042 C 0.46758 0.04704 0.97631 0.0
C2043 C 0.47279 0.03419 0.9817 0.0
C2044 C 0.48814 0.04085 0.99067 0.0
C2045 C 0.49811 0.06071 0.99412 0.0
C2046 C 0.49276 0.07356 0.98876 0.0
H2047 H 0.51352 0.11103 0.95669 0.0
H2048 H 0.51541 0.10882 0.97324 0.0
H2049 H 0.50748 0.08778 0.96332 0.0
H2050 H 0.45581 0.04153 0.96936 0.0
H2051 H 0.46477 0.01904 0.97877 0.0
H2052 H 0.67091 0.13724 0.92888 0.0
H2053 H 0.64147 0.11523 0.94088 0.0
H2054 H 0.67882 0.12001 0.97217 0.0
H2055 H 0.7083 0.14241 0.96028 0.0
H2056 H 0.63131 0.0805 0.94956 0.0
H2057 H 0.63767 0.12791 0.98957 0.0
H2058 H 0.65252 0.13732 0.97571 0.0
H2059 H 0.65946 0.12582 0.98762 0.0
C2060 C 0.67283 0.13365 0.93833 0.0
C2061 C 0.69192 0.14155 0.94363 0.0
C2062 C 0.65599 0.12114 0.94521 0.0
C2063 C 0.65784 0.11616 0.95752 0.0
C2064 C 0.67691 0.12404 0.96284 0.0
H2065 H 0.5665 0.00994 0.99164 0.0
H2066 H 0.5979 0.03658 0.98379 0.0
C2067 C 0.69377 0.13675 0.956 0.0
C2068 C 0.63989 0.10171 0.9644 0.0
H2069 H 0.614 0.09392 0.99155 0.0
C2070 C 0.62752 0.08352 0.95871 0.0
C2071 C 0.63474 0.10567 0.9763 0.0
C2072 C 0.64668 0.12531 0.98261 0.0
C2073 C 0.61035 0.06914 0.96459 0.0
C2074 C 0.60567 0.07277 0.97671 0.0
C2075 C 0.6178 0.09106 0.98235 0.0
C2076 C 0.58796 0.05774 0.98344 0.0
C2077 C 0.59717 0.05033 0.95763 0.0
C2078 C 0.57239 0.06113 0.98658 0.0
C2079 C 0.55452 0.04597 0.99125 0.0
C2080 C 0.55209 0.02728 0.99293 0.0
C2081 C 0.56806 0.02424 0.99043 0.0
C2082 C 0.58593 0.0394 0.98588 0.0
H2083 H 0.59976 0.05201 0.94741 0.0
H2084 H 0.60048 0.03892 0.96085 0.0
H2085 H 0.58122 0.04515 0.95936 0.0
H2086 H 0.57368 0.07521 0.98484 0.0
H2087 H 0.54235 0.04863 0.99295 0.0
H2088 H 0.85662 0.52595 0.92788 0.0
H2089 H 0.88045 0.52009 0.93926 0.0
H2090 H 0.87586 0.55095 0.9712 0.0
H2091 H 0.8517 0.55657 0.95989 0.0
H2092 H 0.91615 0.54615 0.94756 0.0
H2093 H 0.87141 0.50343 0.98788 0.0
H2094 H 0.86042 0.50795 0.97435 0.0
H2095 H 0.87227 0.52642 0.98626 0.0
C2096 C 0.86059 0.5314 0.93736 0.0
C2097 C 0.85227 0.54177 0.94296 0.0
C2098 C 0.87418 0.52798 0.94388 0.0
C2099 C 0.87986 0.53485 0.95617 0.0
C2100 C 0.87141 0.54504 0.96186 0.0
H2101 H 0.99143 0.55409 0.98883 0.0
H2102 H 0.96393 0.55774 0.98065 0.0
C2103 C 0.85763 0.54832 0.95536 0.0
C2104 C 0.89559 0.53245 0.96262 0.0
H2105 H 0.90622 0.51498 0.98899 0.0
C2106 C 0.9139 0.53926 0.9566 0.0
C2107 C 0.89269 0.52329 0.97438 0.0
C2108 C 0.87307 0.51467 0.98105 0.0
C2109 C 0.92934 0.53733 0.96199 0.0
C2110 C 0.92671 0.5288 0.97393 0.0
C2111 C 0.90834 0.52176 0.97992 0.0
C2112 C 0.94276 0.52674 0.98014 0.0
C2113 C 0.9482 0.54406 0.95467 0.0
C2114 C 0.93981 0.50817 0.9831 0.0
C2115 C 0.95547 0.50611 0.98791 0.0
C2116 C 0.97427 0.5226 0.99002 0.0
C2117 C 0.97705 0.54117 0.98735 0.0
C2118 C 0.96138 0.54324 0.98262 0.0
H2119 H 0.9458 0.54512 0.94454 0.0
H2120 H 0.9596 0.55876 0.95802 0.0
H2121 H 0.95413 0.53397 0.9559 0.0
H2122 H 0.92558 0.49522 0.9813 0.0
H2123 H 0.95299 0.49159 0.98964 0.0
H2124 H 0.42141 0.29642 0.94099 0.0
H2125 H 0.42937 0.328 0.95004 0.0
H2126 H 0.48391 0.33464 0.96526 0.0
H2127 H 0.4762 0.30318 0.95614 0.0
H2128 H 0.46116 0.3427 0.9824 0.0
H2129 H 0.4722 0.38211 0.9377 0.0
H2130 H 0.44901 0.35962 0.9389 0.0
H2131 H 0.47191 0.35918 0.93868 0.0
C2132 C 0.43521 0.3047 0.94614 0.0
C2133 C 0.44821 0.29733 0.94781 0.0
C2134 C 0.43972 0.32272 0.95131 0.0
C2135 C 0.45734 0.33373 0.95817 0.0
C2136 C 0.47025 0.32635 0.95997 0.0
H2137 H 0.51268 0.44469 0.99769 0.0
H2138 H 0.50407 0.41293 0.98881 0.0
C2139 C 0.46576 0.30834 0.9548 0.0
C2140 C 0.4622 0.35283 0.96365 0.0
H2141 H 0.47241 0.39882 0.95615 0.0
C2142 C 0.46369 0.35501 0.97668 0.0
C2143 C 0.46544 0.3688 0.95613 0.0
C2144 C 0.46474 0.36745 0.94207 0.0
C2145 C 0.46806 0.37271 0.98242 0.0
C2146 C 0.47137 0.38871 0.9749 0.0
C2147 C 0.46983 0.3865 0.96187 0.0
C2148 C 0.47653 0.40791 0.98036 0.0
C2149 C 0.4687 0.37402 0.99648 0.0
C2150 C 0.46417 0.41584 0.97827 0.0
C2151 C 0.46905 0.43403 0.98333 0.0
C2152 C 0.48642 0.44462 0.99055 0.0
C2153 C 0.49896 0.43675 0.99242 0.0
C2154 C 0.49406 0.41857 0.98736 0.0
H2155 H 0.46083 0.35935 1.00082 0.0
H2156 H 0.48441 0.38142 0.9997 0.0
H2157 H 0.46194 0.38267 0.99988 0.0
H2158 H 0.45065 0.40789 0.9728 0.0
H2159 H 0.45915 0.4397 0.9816 0.0
H2160 H 0.17746 0.69627 0.054 0.0
H2161 H 0.152 0.66511 0.04513 0.0
H2162 H 0.10624 0.67313 0.06196 0.0
H2163 H 0.13157 0.70462 0.07057 0.0
H2164 H 0.12328 0.63222 0.05793 0.0
H2165 H 0.08814 0.66082 0.02538 0.0
H2166 H 0.11218 0.67625 0.03249 0.0
H2167 H 0.08993 0.66871 0.04132 0.0
C2168 C 0.16197 0.69156 0.05567 0.0
C2169 C 0.15656 0.70301 0.06294 0.0
C2170 C 0.14745 0.67368 0.05067 0.0
C2171 C 0.12723 0.66693 0.05275 0.0
C2172 C 0.12175 0.67822 0.06007 0.0
H2173 H 0.01985 0.56078 0.02884 0.0
H2174 H 0.0435 0.592 0.03863 0.0
C2175 C 0.13626 0.69611 0.06509 0.0
C2176 C 0.11196 0.64784 0.0475 0.0
H2177 H 0.07255 0.62648 0.02727 0.0
C2178 C 0.1122 0.63095 0.05121 0.0
C2179 C 0.09747 0.64623 0.03879 0.0
C2180 C 0.09693 0.66396 0.03415 0.0
C2181 C 0.09828 0.61247 0.04649 0.0
C2182 C 0.08395 0.61089 0.03765 0.0
C2183 C 0.08354 0.62774 0.03405 0.0
C2184 C 0.06963 0.59195 0.03177 0.0
C2185 C 0.09886 0.59477 0.05114 0.0
C2186 C 0.07648 0.58169 0.02455 0.0
C2187 C 0.06305 0.56386 0.01899 0.0
C2188 C 0.04244 0.55599 0.02041 0.0
C2189 C 0.03561 0.56638 0.02757 0.0
C2190 C 0.04909 0.58425 0.03315 0.0
H2191 H 0.1068 0.5977 0.06024 0.0
H2192 H 0.08362 0.58213 0.05221 0.0
H2193 H 0.10685 0.59068 0.04429 0.0
H2194 H 0.09225 0.58753 0.02318 0.0
H2195 H 0.06888 0.5562 0.01366 0.0
H2196 H 0.2966 0.45447 0.04895 0.0
H2197 H 0.32633 0.46196 0.03724 0.0
H2198 H 0.35747 0.46633 0.07158 0.0
H2199 H 0.32859 0.46089 0.08343 0.0
H2200 H 0.38142 0.49316 0.05726 0.0
H2201 H 0.34526 0.42574 0.02846 0.0
H2202 H 0.33415 0.44064 0.02615 0.0
H2203 H 0.33267 0.42984 0.04118 0.0
C2204 C 0.30982 0.45735 0.0541 0.0
C2205 C 0.30985 0.45682 0.06726 0.0
C2206 C 0.3268 0.46127 0.04731 0.0
C2207 C 0.34411 0.46416 0.05344 0.0
C2208 C 0.34431 0.46396 0.06655 0.0
H2209 H 0.43778 0.44841 0.02344 0.0
H2210 H 0.40729 0.44573 0.03175 0.0
C2211 C 0.32754 0.46052 0.07335 0.0
C2212 C 0.36214 0.4676 0.04634 0.0
H2213 H 0.37835 0.44901 0.02327 0.0
C2214 C 0.38071 0.48344 0.04985 0.0
C2215 C 0.3614 0.45489 0.0367 0.0
C2216 C 0.34234 0.43673 0.03298 0.0
C2217 C 0.39847 0.48667 0.04428 0.0
C2218 C 0.39768 0.47424 0.03443 0.0
C2219 C 0.37905 0.45868 0.03072 0.0
C2220 C 0.41597 0.47601 0.0286 0.0
C2221 C 0.4179 0.50281 0.04948 0.0
C2222 C 0.43104 0.49382 0.0238 0.0
C2223 C 0.44878 0.49547 0.01935 0.0
C2224 C 0.45141 0.47913 0.01907 0.0
C2225 C 0.43606 0.4612 0.02342 0.0
C2226 C 0.41858 0.45965 0.02813 0.0
H2227 H 0.41618 0.50709 0.05908 0.0
H2228 H 0.42939 0.49838 0.04973 0.0
H2229 H 0.42329 0.51589 0.0435 0.0
H2230 H 0.42927 0.50655 0.02366 0.0
H2231 H 0.46052 0.50958 0.0163 0.0
H2232 H 0.53075 0.83381 0.06234 0.0
H2233 H 0.52143 0.85445 0.05052 0.0
H2234 H 0.57425 0.9058 0.06378 0.0
H2235 H 0.58408 0.88527 0.07525 0.0
H2236 H 0.51407 0.88314 0.05923 0.0
H2237 H 0.57707 0.91418 0.02618 0.0
H2238 H 0.57112 0.89317 0.03568 0.0
H2239 H 0.58472 0.91737 0.04226 0.0
C2240 C 0.54054 0.84949 0.0626 0.0
C2241 C 0.55824 0.85789 0.06967 0.0
C2242 C 0.53511 0.86125 0.05591 0.0
C2243 C 0.54731 0.88162 0.05611 0.0
C2244 C 0.56483 0.89008 0.06329 0.0
H2245 H 0.54207 0.98097 0.02923 0.0
H2246 H 0.55009 0.95782 0.03887 0.0
C2247 C 0.5703 0.87833 0.06997 0.0
C2248 C 0.54142 0.89405 0.04909 0.0
H2249 H 0.55712 0.92931 0.02678 0.0
C2250 C 0.52337 0.89311 0.05205 0.0
C2251 C 0.55358 0.90698 0.0397 0.0
C2252 C 0.57261 0.90789 0.03566 0.0
C2253 C 0.51746 0.90523 0.04616 0.0
C2254 C 0.52983 0.91844 0.03698 0.0
C2255 C 0.54771 0.91917 0.03386 0.0
C2256 C 0.5249 0.93223 0.03086 0.0
C2257 C 0.49837 0.90429 0.05008 0.0
C2258 C 0.50817 0.92546 0.02304 0.0
C2259 C 0.50349 0.93867 0.0175 0.0
C2260 C 0.51554 0.95886 0.01965 0.0
C2261 C 0.53242 0.96553 0.02739 0.0
C2262 C 0.53708 0.95234 0.03289 0.0
H2263 H 0.49258 0.89616 0.05893 0.0
H2264 H 0.50056 0.9192 0.05129 0.0
H2265 H 0.48693 0.89673 0.0427 0.0
H2266 H 0.49872 0.90998 0.02125 0.0
H2267 H 0.49031 0.93302 0.01168 0.0
H2268 H 0.96272 0.192 0.38323 0.0
H2269 H 0.99242 0.2142 0.37145 0.0
H2270 H 0.02935 0.21741 0.4026 0.0
H2271 H 0.99968 0.19562 0.4145 0.0
H2272 H 0.04008 0.2525 0.39435 0.0
H2273 H 0.03305 0.20581 0.35376 0.0
H2274 H 0.0115 0.20827 0.35583 0.0
H2275 H 0.01809 0.19623 0.36756 0.0
C2276 C 0.9772 0.19728 0.38749 0.0
C2277 C 0.97889 0.19212 0.3998 0.0
C2278 C 0.99418 0.20986 0.38072 0.0
C2279 C 0.01318 0.21724 0.38604 0.0
C2280 C 0.01486 0.21188 0.39827 0.0
H2281 H 0.12908 0.28465 0.35111 0.0
H2282 H 0.09756 0.258 0.35897 0.0
C2283 C 0.99791 0.1995 0.40509 0.0
C2284 C 0.03126 0.23164 0.37927 0.0
H2285 H 0.05712 0.23976 0.35209 0.0
C2286 C 0.04382 0.24962 0.38514 0.0
C2287 C 0.03632 0.22786 0.36729 0.0
C2288 C 0.02414 0.20842 0.36079 0.0
C2289 C 0.06109 0.26398 0.37936 0.0
C2290 C 0.06569 0.26055 0.36717 0.0
C2291 C 0.05338 0.24247 0.36135 0.0
C2292 C 0.08346 0.2756 0.36054 0.0
C2293 C 0.07446 0.28257 0.38649 0.0
C2294 C 0.08564 0.29405 0.35829 0.0
C2295 C 0.1036 0.30924 0.35391 0.0
C2296 C 0.1195 0.30612 0.35135 0.0
C2297 C 0.11694 0.28735 0.35284 0.0
C2298 C 0.09897 0.27215 0.35736 0.0
H2299 H 0.07183 0.28066 0.3967 0.0
H2300 H 0.09037 0.28757 0.38474 0.0
H2301 H 0.07138 0.29419 0.38343 0.0
H2302 H 0.07371 0.29691 0.36044 0.0
H2303 H 0.10529 0.32362 0.35285 0.0
H2304 H 0.81955 0.77871 0.37644 0.0
H2305 H 0.7935 0.78381 0.36744 0.0
H2306 H 0.79236 0.81307 0.40122 0.0
H2307 H 0.81816 0.80769 0.41035 0.0
H2308 H 0.75579 0.7878 0.39378 0.0
H2309 H 0.79716 0.83231 0.35311 0.0
H2310 H 0.79626 0.80921 0.35351 0.0
H2311 H 0.80919 0.82695 0.36568 0.0
C2312 C 0.81391 0.78642 0.3819 0.0
C2313 C 0.821 0.79285 0.39411 0.0
C2314 C 0.79905 0.78941 0.37671 0.0
C2315 C 0.79118 0.79918 0.38353 0.0
C2316 C 0.79822 0.80556 0.39574 0.0
H2317 H 0.71637 0.84359 0.35421 0.0
H2318 H 0.74394 0.83977 0.36199 0.0
C2319 C 0.81293 0.80242 0.40097 0.0
C2320 C 0.77501 0.80201 0.37821 0.0
H2321 H 0.76228 0.82049 0.35325 0.0
C2322 C 0.75728 0.79503 0.38494 0.0
C2323 C 0.77696 0.81168 0.36674 0.0
C2324 C 0.79599 0.82065 0.3594 0.0
C2325 C 0.74143 0.79717 0.38049 0.0
C2326 C 0.74307 0.8061 0.36878 0.0
C2327 C 0.76089 0.81338 0.36213 0.0
C2328 C 0.72655 0.80829 0.36343 0.0
C2329 C 0.72327 0.79024 0.38854 0.0
C2330 C 0.70768 0.79188 0.36139 0.0
C2331 C 0.69193 0.79407 0.35698 0.0
C2332 C 0.69486 0.81265 0.35416 0.0
C2333 C 0.71379 0.82906 0.35601 0.0
C2334 C 0.72953 0.82688 0.36052 0.0
H2335 H 0.72664 0.78916 0.3985 0.0
H2336 H 0.71708 0.80019 0.38789 0.0
H2337 H 0.71169 0.77548 0.38536 0.0
H2338 H 0.70509 0.77735 0.36329 0.0
H2339 H 0.67742 0.78122 0.35573 0.0
H2340 H 0.24325 0.04867 0.37896 0.0
H2341 H 0.23521 0.01709 0.36982 0.0
H2342 H 0.1951 0.98753 0.40017 0.0
H2343 H 0.20376 0.01911 0.40958 0.0
H2344 H 0.21623 0.97091 0.39536 0.0
H2345 H 0.1863 0.98064 0.35067 0.0
H2346 H 0.21147 0.99952 0.35339 0.0
H2347 H 0.19215 0.9972 0.36368 0.0
C2348 C 0.23267 0.03539 0.38363 0.0
C2349 C 0.22402 0.03624 0.39492 0.0
C2350 C 0.22799 0.01738 0.37837 0.0
C2351 C 0.21418 -8e-05 0.38415 0.0
C2352 C 0.20571 0.0008 0.39551 0.0
H2353 H 0.15561 0.88631 0.34792 0.0
H2354 H 0.16444 0.91788 0.35724 0.0
C2355 C 0.21066 0.0188 0.40088 0.0
C2356 C 0.20883 0.98072 0.37851 0.0
H2357 H 0.19181 0.95362 0.35174 0.0
C2358 C 0.21079 0.96709 0.38584 0.0
C2359 C 0.20142 0.97561 0.36615 0.0
C2360 C 0.1975 0.98893 0.35807 0.0
C2361 C 0.20572 0.94857 0.38114 0.0
C2362 C 0.19919 0.94381 0.3686 0.0
C2363 C 0.19706 0.95737 0.36131 0.0
C2364 C 0.19402 0.92468 0.36293 0.0
C2365 C 0.20691 0.93416 0.3898 0.0
C2366 C 0.2078 0.9181 0.36287 0.0
C2367 C 0.20268 0.89992 0.35771 0.0
C2368 C 0.18385 0.88819 0.35225 0.0
C2369 C 0.17026 0.89503 0.35203 0.0
C2370 C 0.17528 0.91307 0.35735 0.0
H2371 H 0.20607 0.93772 0.39974 0.0
H2372 H 0.19476 0.91903 0.38787 0.0
H2373 H 0.22133 0.93471 0.38847 0.0
H2374 H 0.22256 0.92706 0.36676 0.0
H2375 H 0.21355 0.89515 0.35787 0.0
H2376 H 0.50957 0.62159 0.29913 0.0
H2377 H 0.53407 0.65304 0.30806 0.0
H2378 H 0.54607 0.67858 0.2714 0.0
H2379 H 0.52076 0.64749 0.26247 0.0
H2380 H 0.57321 0.6753 0.30435 0.0
H2381 H 0.53565 0.7164 0.29055 0.0
H2382 H 0.52364 0.69016 0.28938 0.0
H2383 H 0.54075 0.70524 0.27755 0.0
C2384 C 0.51715 0.63396 0.29297 0.0
C2385 C 0.51297 0.63199 0.28008 0.0
C2386 C 0.53132 0.6519 0.29808 0.0
C2387 C 0.54167 0.66828 0.29044 0.0
C2388 C 0.53794 0.66628 0.27753 0.0
H2389 H 0.64921 0.77485 0.31387 0.0
H2390 H 0.62555 0.7436 0.30427 0.0
C2391 C 0.52364 0.64837 0.27241 0.0
C2392 C 0.55646 0.68736 0.296 0.0
H2393 H 0.56837 0.73503 0.29879 0.0
C2394 C 0.57213 0.68836 0.30316 0.0
C2395 C 0.55488 0.70433 0.2946 0.0
C2396 C 0.53772 0.704 0.28771 0.0
C2397 C 0.58633 0.70587 0.3089 0.0
C2398 C 0.58513 0.72299 0.30714 0.0
C2399 C 0.5694 0.72196 0.30003 0.0
C2400 C 0.59964 0.74202 0.3129 0.0
C2401 C 0.60212 0.70569 0.31706 0.0
C2402 C 0.59293 0.7519 0.32061 0.0
C2403 C 0.60636 0.76995 0.32591 0.0
C2404 C 0.62687 0.77846 0.32373 0.0
C2405 C 0.63356 0.76864 0.31589 0.0
C2406 C 0.62005 0.75066 0.31046 0.0
H2407 H 0.59763 0.69072 0.3203 0.0
H2408 H 0.61599 0.71106 0.31163 0.0
H2409 H 0.6054 0.71531 0.32536 0.0
H2410 H 0.57723 0.74563 0.32253 0.0
H2411 H 0.60058 0.77726 0.33163 0.0
H2412 H 0.37561 0.88721 0.29978 0.0
H2413 H 0.34467 0.88178 0.30923 0.0
H2414 H 0.31259 0.85265 0.27562 0.0
H2415 H 0.34361 0.85846 0.26602 0.0
H2416 H 0.30134 0.87708 0.28347 0.0
H2417 H 0.30013 0.83335 0.32397 0.0
H2418 H 0.3225 0.85661 0.32346 0.0
H2419 H 0.31719 0.83897 0.31122 0.0
C2420 C 0.36193 0.87947 0.29444 0.0
C2421 C 0.36209 0.8732 0.28216 0.0
C2422 C 0.34419 0.87627 0.29989 0.0
C2423 C 0.32612 0.8664 0.29328 0.0
C2424 C 0.32627 0.86021 0.28097 0.0
H2425 H 0.20731 0.82241 0.32441 0.0
H2426 H 0.23857 0.82584 0.31664 0.0
C2427 C 0.34404 0.8636 0.27547 0.0
C2428 C 0.30722 0.86334 0.29892 0.0
H2429 H 0.27729 0.84529 0.32449 0.0
C2430 C 0.29606 0.87003 0.2924 0.0
C2431 C 0.30006 0.85387 0.31051 0.0
C2432 C 0.31048 0.8451 0.31763 0.0
C2433 C 0.27826 0.86784 0.29721 0.0
C2434 C 0.27162 0.85924 0.30907 0.0
C2435 C 0.28252 0.85217 0.31549 0.0
C2436 C 0.25328 0.85728 0.31483 0.0
C2437 C 0.26655 0.87446 0.28936 0.0
C2438 C 0.25132 0.87382 0.3168 0.0
C2439 C 0.23348 0.87185 0.32118 0.0
C2440 C 0.21741 0.85338 0.32403 0.0
C2441 C 0.21957 0.83686 0.3225 0.0
C2442 C 0.2374 0.83882 0.31801 0.0
H2443 H 0.27033 0.87519 0.27932 0.0
H2444 H 0.25031 0.8645 0.29039 0.0
H2445 H 0.27014 0.8893 0.29241 0.0
H2446 H 0.26348 0.88826 0.31472 0.0
H2447 H 0.23214 0.88479 0.32224 0.0
H2448 H 0.11938 0.46467 0.2593 0.0
H2449 H 0.12894 0.44419 0.27107 0.0
H2450 H 0.11095 0.45972 0.30525 0.0
H2451 H 0.10042 0.47943 0.29352 0.0
H2452 H 0.15661 0.45425 0.28962 0.0
H2453 H 0.0817 0.40071 0.30701 0.0
H2454 H 0.08543 0.41791 0.29487 0.0
H2455 H 0.08938 0.42559 0.31095 0.0
C2456 C 0.11712 0.46347 0.2693 0.0
C2457 C 0.109 0.47361 0.27544 0.0
C2458 C 0.12278 0.45191 0.27602 0.0
C2459 C 0.12042 0.45024 0.28901 0.0
C2460 C 0.11256 0.46051 0.29521 0.0
H2461 H 0.17704 0.4001 0.33543 0.0
H2462 H 0.16773 0.42272 0.32627 0.0
C2463 C 0.10677 0.47197 0.28849 0.0
C2464 C 0.12643 0.4379 0.29605 0.0
H2465 H 0.10878 0.39817 0.315 0.0
C2466 C 0.14618 0.44199 0.29518 0.0
C2467 C 0.11273 0.42184 0.30322 0.0
C2468 C 0.09109 0.41609 0.304 0.0
C2469 C 0.15257 0.43035 0.30121 0.0
C2470 C 0.13894 0.41446 0.30853 0.0
C2471 C 0.11925 0.41049 0.30948 0.0
C2472 C 0.14435 0.40089 0.31454 0.0
C2473 C 0.17367 0.43477 0.29933 0.0
C2474 C 0.13391 0.38104 0.31128 0.0
C2475 C 0.13891 0.36803 0.31666 0.0
C2476 C 0.15451 0.3746 0.32544 0.0
C2477 C 0.16486 0.3945 0.32879 0.0
C2478 C 0.15971 0.40751 0.32345 0.0
H2479 H 0.18065 0.44434 0.29116 0.0
H2480 H 0.18266 0.44243 0.30773 0.0
H2481 H 0.17424 0.42113 0.29799 0.0
H2482 H 0.12199 0.37562 0.30443 0.0
H2483 H 0.13058 0.35284 0.31383 0.0
H2484 H 0.35226 0.49654 0.28273 0.0
H2485 H 0.32323 0.47517 0.29537 0.0
H2486 H 0.33172 0.42648 0.28691 0.0
H2487 H 0.3608 0.44774 0.27431 0.0
H2488 H 0.28819 0.43887 0.28623 0.0
H2489 H 0.327 0.42729 0.32609 0.0
H2490 H 0.33928 0.44783 0.31569 0.0
H2491 H 0.33456 0.42412 0.31083 0.0
C2492 C 0.34804 0.48131 0.28366 0.0
C2493 C 0.35882 0.47381 0.27753 0.0
C2494 C 0.33144 0.46914 0.29085 0.0
C2495 C 0.32552 0.44933 0.29219 0.0
C2496 C 0.33624 0.4418 0.28612 0.0
H2497 H 0.23248 0.34439 0.32287 0.0
H2498 H 0.26363 0.37174 0.31536 0.0
C2499 C 0.35271 0.45391 0.27883 0.0
C2500 C 0.30759 0.43627 0.29947 0.0
H2501 H 0.29194 0.40673 0.32499 0.0
C2502 C 0.28895 0.432 0.29479 0.0
C2503 C 0.30873 0.42736 0.31061 0.0
C2504 C 0.32846 0.43194 0.3162 0.0
C2505 C 0.27131 0.41831 0.30063 0.0
C2506 C 0.2724 0.40908 0.31168 0.0
C2507 C 0.29111 0.41384 0.31656 0.0
C2508 C 0.25433 0.39322 0.31764 0.0
C2509 C 0.2517 0.41316 0.29455 0.0
C2510 C 0.23896 0.3963 0.32179 0.0
C2511 C 0.22106 0.3806 0.32595 0.0
C2512 C 0.21848 0.36171 0.32636 0.0
C2513 C 0.23419 0.35886 0.32275 0.0
C2514 C 0.25198 0.37447 0.31848 0.0
H2515 H 0.25356 0.41812 0.28471 0.0
H2516 H 0.24132 0.39715 0.29471 0.0
H2517 H 0.24479 0.42039 0.29975 0.0
H2518 H 0.24059 0.41071 0.32147 0.0
H2519 H 0.20907 0.38316 0.32847 0.0
H2520 H 0.54941 0.90561 0.27083 0.0
H2521 H 0.57276 0.89896 0.28223 0.0
H2522 H 0.5241 0.8443 0.29486 0.0
H2523 H 0.5006 0.85075 0.28336 0.0
H2524 H 0.57235 0.89042 0.30914 0.0
H2525 H 0.56437 0.8304 0.27794 0.0
H2526 H 0.55731 0.84796 0.27307 0.0
H2527 H 0.54187 0.82886 0.28364 0.0
C2528 C 0.54366 0.89211 0.27597 0.0
C2529 C 0.52313 0.87865 0.27611 0.0
C2530 C 0.55702 0.88839 0.28254 0.0
C2531 C 0.5502 0.87105 0.28928 0.0
C2532 C 0.52971 0.85768 0.2896 0.0
H2533 H 0.61903 0.82375 0.32463 0.0
H2534 H 0.59175 0.82822 0.31711 0.0
C2535 C 0.51629 0.86146 0.28311 0.0
C2536 C 0.56461 0.86707 0.29596 0.0
H2537 H 0.586 0.8384 0.29513 0.0
C2538 C 0.5753 0.87899 0.30613 0.0
C2539 C 0.56833 0.85209 0.29206 0.0
C2540 C 0.55751 0.83911 0.28104 0.0
C2541 C 0.58965 0.87637 0.31252 0.0
C2542 C 0.59386 0.86175 0.3084 0.0
C2543 C 0.58284 0.84959 0.29834 0.0
C2544 C 0.61014 0.85929 0.31398 0.0
C2545 C 0.5999 0.88922 0.3237 0.0
C2546 C 0.62965 0.87517 0.31474 0.0
C2547 C 0.64514 0.87269 0.31932 0.0
C2548 C 0.64154 0.85425 0.32316 0.0
C2549 C 0.62214 0.83826 0.32216 0.0
C2550 C 0.60657 0.84079 0.31773 0.0
H2551 H 0.59025 0.894 0.32831 0.0
H2552 H 0.60416 0.88164 0.33067 0.0
H2553 H 0.61353 0.90252 0.3206 0.0
H2554 H 0.63305 0.88945 0.31148 0.0
H2555 H 0.66005 0.88516 0.31967 0.0
H2556 H 0.12068 0.64537 0.26374 0.0
H2557 H 0.12848 0.67677 0.27287 0.0
H2558 H 0.11248 0.65046 0.30925 0.0
H2559 H 0.1036 0.61875 0.30011 0.0
H2560 H 0.09798 0.6747 0.30515 0.0
H2561 H 0.17787 0.71172 0.29303 0.0
H2562 H 0.16178 0.70149 0.27971 0.0
H2563 H 0.16187 0.68564 0.29169 0.0
C2564 C 0.11855 0.64617 0.27366 0.0
C2565 C 0.11162 0.62953 0.2812 0.0
C2566 C 0.12329 0.66421 0.27889 0.0
C2567 C 0.12149 0.66604 0.29177 0.0
C2568 C 0.11417 0.64941 0.29929 0.0
H2569 H 0.17695 0.77545 0.3329 0.0
H2570 H 0.16694 0.74316 0.3244 0.0
C2571 C 0.10927 0.63133 0.29406 0.0
C2572 C 0.12711 0.68526 0.29744 0.0
H2573 H 0.16562 0.73194 0.30071 0.0
C2574 C 0.11278 0.68721 0.30423 0.0
C2575 C 0.14654 0.70146 0.29639 0.0
C2576 C 0.16296 0.69997 0.28992 0.0
C2577 C 0.11726 0.70502 0.30986 0.0
C2578 C 0.13645 0.72143 0.30837 0.0
C2579 C 0.15085 0.7194 0.30173 0.0
C2580 C 0.14205 0.7408 0.31378 0.0
C2581 C 0.10153 0.70594 0.31756 0.0
C2582 C 0.13151 0.75031 0.31054 0.0
C2583 C 0.13697 0.76865 0.31559 0.0
C2584 C 0.15326 0.77795 0.32384 0.0
C2585 C 0.16406 0.76856 0.32682 0.0
C2586 C 0.15845 0.75014 0.32188 0.0
H2587 H 0.0901 0.69123 0.32078 0.0
H2588 H 0.10814 0.71558 0.32585 0.0
H2589 H 0.09392 0.71188 0.31178 0.0
H2590 H 0.11916 0.74362 0.30402 0.0
H2591 H 0.12845 0.77553 0.31296 0.0
H2592 H 0.79734 0.03718 0.40265 0.0
H2593 H 0.77234 0.00541 0.39415 0.0
H2594 H 0.81868 0.99804 0.37758 0.0
H2595 H 0.84378 0.0295 0.3863 0.0
H2596 H 0.76528 0.99281 0.36879 0.0
H2597 H 0.78619 0.94754 0.39758 0.0
H2598 H 0.79421 0.9727 0.40133 0.0
H2599 H 0.80647 0.96687 0.38929 0.0
C2600 C 0.80222 0.0287 0.3973 0.0
C2601 C 0.82257 0.03584 0.39519 0.0
C2602 C 0.78791 0.01062 0.39239 0.0
C2603 C 0.79369 0.99928 0.38539 0.0
C2604 C 0.81394 0.00644 0.38313 0.0
H2605 H 0.73528 0.888 0.34722 0.0
H2606 H 0.75853 0.9199 0.35613 0.0
C2607 C 0.82824 0.02452 0.38801 0.0
C2608 C 0.77854 0.98005 0.38027 0.0
H2609 H 0.76335 0.93141 0.38097 0.0
C2610 C 0.76473 0.97935 0.3715 0.0
C2611 C 0.77791 0.96255 0.38384 0.0
C2612 C 0.79186 0.96234 0.39361 0.0
C2613 C 0.75063 0.96163 0.36592 0.0
C2614 C 0.75012 0.94414 0.36941 0.0
C2615 C 0.7638 0.94484 0.37829 0.0
C2616 C 0.73577 0.92498 0.3638 0.0
C2617 C 0.73679 0.96186 0.35608 0.0
C2618 C 0.71522 0.91714 0.36524 0.0
C2619 C 0.70183 0.89893 0.36004 0.0
C2620 C 0.70876 0.8882 0.35334 0.0
C2621 C 0.72938 0.896 0.35209 0.0
C2622 C 0.74273 0.9142 0.35725 0.0
H2623 H 0.7423 0.97674 0.35229 0.0
H2624 H 0.73486 0.95181 0.34824 0.0
H2625 H 0.722 0.95693 0.36026 0.0
H2626 H 0.70955 0.92502 0.37049 0.0
H2627 H 0.68606 0.8933 0.36128 0.0
H2628 H 0.99938 0.80742 0.41479 0.0
H2629 H 0.02911 0.81383 0.40327 0.0
H2630 H 0.99273 0.78255 0.37143 0.0
H2631 H 0.96294 0.77644 0.38286 0.0
H2632 H 0.0392 0.78878 0.39481 0.0
H2633 H 0.03519 0.83037 0.35454 0.0
H2634 H 0.01982 0.82543 0.36815 0.0
H2635 H 0.01312 0.80706 0.35621 0.0
C2636 C 0.99771 0.80198 0.40531 0.0
C2637 C 0.97876 0.7914 0.39976 0.0
C2638 C 0.01475 0.80571 0.39871 0.0
C2639 C 0.0133 0.79893 0.38638 0.0
C2640 C 0.99438 0.78843 0.38078 0.0
H2641 H 0.10535 0.78122 0.35335 0.0
H2642 H 0.07412 0.77735 0.36141 0.0
C2643 C 0.97732 0.78485 0.38736 0.0
C2644 C 0.03147 0.80181 0.37979 0.0
H2645 H 0.05865 0.81929 0.35308 0.0
C2646 C 0.04345 0.79554 0.38571 0.0
C2647 C 0.03725 0.81084 0.36796 0.0
C2648 C 0.02579 0.819 0.36139 0.0
C2649 C 0.06081 0.79781 0.38013 0.0
C2650 C 0.06616 0.8061 0.3681 0.0
C2651 C 0.0544 0.81268 0.36222 0.0
C2652 C 0.08411 0.80828 0.36165 0.0
C2653 C 0.07349 0.79166 0.38736 0.0
C2654 C 0.09978 0.82685 0.35847 0.0
C2655 C 0.11756 0.82905 0.3537 0.0
C2656 C 0.11986 0.81266 0.35188 0.0
C2657 C 0.10391 0.79406 0.35462 0.0
C2658 C 0.08613 0.79186 0.35929 0.0
H2659 H 0.0705 0.79085 0.39753 0.0
H2660 H 0.07007 0.77693 0.38415 0.0
H2661 H 0.08955 0.80194 0.38587 0.0
H2662 H 0.09856 0.83973 0.36016 0.0
H2663 H 0.12973 0.84359 0.3519 0.0
H2664 H 0.21914 0.2017 0.41688 0.0
H2665 H 0.20914 0.22187 0.40521 0.0
H2666 H 0.22951 0.2087 0.37111 0.0
H2667 H 0.24056 0.18933 0.38281 0.0
H2668 H 0.24083 0.24665 0.37264 0.0
H2669 H 0.16065 0.20273 0.38318 0.0
H2670 H 0.17565 0.21074 0.39708 0.0
H2671 H 0.17786 0.19423 0.38646 0.0
C2672 C 0.22174 0.20327 0.40692 0.0
C2673 C 0.23059 0.1938 0.40079 0.0
C2674 C 0.21571 0.21456 0.40023 0.0
C2675 C 0.21812 0.21639 0.38725 0.0
C2676 C 0.22728 0.20729 0.38111 0.0
H2677 H 0.16085 0.26733 0.3427 0.0
H2678 H 0.17096 0.24486 0.35107 0.0
C2679 C 0.23346 0.19611 0.38781 0.0
C2680 C 0.2116 0.22827 0.38013 0.0
H2681 H 0.17181 0.23459 0.37484 0.0
C2682 C 0.22569 0.2439 0.37303 0.0
C2683 C 0.19175 0.22442 0.38041 0.0
C2684 C 0.17556 0.20699 0.38708 0.0
C2685 C 0.22065 0.25625 0.36658 0.0
C2686 C 0.20113 0.25317 0.36754 0.0
C2687 C 0.18684 0.23709 0.37424 0.0
C2688 C 0.19542 0.26687 0.36207 0.0
C2689 C 0.2363 0.2724 0.35876 0.0
C2690 C 0.20563 0.28663 0.36559 0.0
C2691 C 0.2001 0.29955 0.36068 0.0
C2692 C 0.18404 0.29293 0.35225 0.0
C2693 C 0.17355 0.27302 0.34894 0.0
C2694 C 0.17922 0.26012 0.35378 0.0
H2695 H 0.24781 0.26888 0.3557 0.0
H2696 H 0.22965 0.27516 0.35036 0.0
H2697 H 0.24382 0.28602 0.36441 0.0
H2698 H 0.21778 0.29205 0.37226 0.0
H2699 H 0.2084 0.31471 0.36358 0.0
H2700 H 0.63022 0.52617 0.71604 0.0
H2701 H 0.65976 0.54856 0.70421 0.0
H2702 H 0.69713 0.55033 0.73467 0.0
H2703 H 0.66764 0.52825 0.74661 0.0
H2704 H 0.7079 0.58593 0.72688 0.0
H2705 H 0.6997 0.53987 0.68567 0.0
H2706 H 0.67827 0.54239 0.68823 0.0
H2707 H 0.68513 0.53008 0.6996 0.0
C2708 C 0.64475 0.53116 0.72014 0.0
C2709 C 0.64662 0.52548 0.73226 0.0
C2710 C 0.66164 0.54386 0.71334 0.0
C2711 C 0.68071 0.55088 0.71844 0.0
C2712 C 0.68258 0.54506 0.73051 0.0
H2713 H 0.79614 0.61848 0.68314 0.0
H2714 H 0.76467 0.59177 0.691 0.0
C2715 C 0.66572 0.53253 0.73735 0.0
C2716 C 0.69869 0.56533 0.71163 0.0
H2717 H 0.72397 0.57376 0.68419 0.0
C2718 C 0.71143 0.58319 0.71757 0.0
C2719 C 0.70346 0.5617 0.69953 0.0
C2720 C 0.69103 0.54239 0.69293 0.0
C2721 C 0.72861 0.59759 0.71173 0.0
C2722 C 0.73293 0.59431 0.69944 0.0
C2723 C 0.72044 0.57634 0.69354 0.0
C2724 C 0.75061 0.60939 0.69276 0.0
C2725 C 0.74216 0.61607 0.7189 0.0
C2726 C 0.75279 0.62786 0.69063 0.0
C2727 C 0.77072 0.64308 0.68622 0.0
C2728 C 0.78659 0.63996 0.68356 0.0
C2729 C 0.78402 0.62117 0.68494 0.0
C2730 C 0.76608 0.60595 0.68947 0.0
H2731 H 0.73966 0.61409 0.72912 0.0
H2732 H 0.75802 0.62098 0.71704 0.0
H2733 H 0.73917 0.62781 0.71596 0.0
H2734 H 0.7409 0.63072 0.69289 0.0
H2735 H 0.77241 0.65747 0.68525 0.0
H2736 H 0.4954 0.12515 0.71033 0.0
H2737 H 0.47008 0.13086 0.70107 0.0
H2738 H 0.4508 0.13632 0.73778 0.0
H2739 H 0.47715 0.13229 0.74713 0.0
H2740 H 0.43194 0.11124 0.70158 0.0
H2741 H 0.45442 0.18342 0.72243 0.0
H2742 H 0.46973 0.17229 0.72359 0.0
H2743 H 0.44946 0.16562 0.73424 0.0
C2744 C 0.48617 0.12806 0.71649 0.0
C2745 C 0.48865 0.12844 0.72954 0.0
C2746 C 0.47146 0.13111 0.71114 0.0
C2747 C 0.45868 0.13443 0.71868 0.0
C2748 C 0.46079 0.13439 0.73171 0.0
H2749 H 0.34391 0.11625 0.69297 0.0
H2750 H 0.37151 0.11284 0.70102 0.0
C2751 C 0.47571 0.13168 0.73707 0.0
C2752 C 0.44273 0.13722 0.71289 0.0
H2753 H 0.42198 0.16649 0.71321 0.0
C2754 C 0.42991 0.12345 0.70405 0.0
C2755 C 0.44018 0.15331 0.71588 0.0
C2756 C 0.45433 0.1696 0.72445 0.0
C2757 C 0.41447 0.12507 0.69832 0.0
C2758 C 0.41116 0.14052 0.70186 0.0
C2759 C 0.42425 0.1545 0.71053 0.0
C2760 C 0.39426 0.14248 0.69681 0.0
C2761 C 0.40223 0.11032 0.68836 0.0
C2762 C 0.39749 0.16052 0.6923 0.0
C2763 C 0.38157 0.16263 0.68808 0.0
C2764 C 0.36214 0.14661 0.68791 0.0
C2765 C 0.35883 0.12869 0.69261 0.0
C2766 C 0.37467 0.12668 0.69711 0.0
H2767 H 0.41095 0.10458 0.68358 0.0
H2768 H 0.38926 0.09776 0.69274 0.0
H2769 H 0.39679 0.11668 0.68123 0.0
H2770 H 0.41235 0.17306 0.69209 0.0
H2771 H 0.3845 0.17684 0.68501 0.0
H2772 H 0.88137 0.3537 0.74459 0.0
H2773 H 0.87419 0.32256 0.73534 0.0
H2774 H 0.89116 0.34959 0.69921 0.0
H2775 H 0.89946 0.38105 0.70849 0.0
H2776 H 0.84721 0.30129 0.71775 0.0
H2777 H 0.9225 0.32157 0.70107 0.0
H2778 H 0.91811 0.33677 0.71169 0.0
H2779 H 0.91382 0.33723 0.69521 0.0
C2780 C 0.88399 0.35314 0.73472 0.0
C2781 C 0.89112 0.36993 0.7273 0.0
C2782 C 0.8797 0.33528 0.72943 0.0
C2783 C 0.88241 0.33382 0.71662 0.0
C2784 C 0.88936 0.35047 0.70916 0.0
H2785 H 0.82705 0.2243 0.67501 0.0
H2786 H 0.83644 0.25644 0.68355 0.0
C2787 C 0.89382 0.36839 0.71446 0.0
C2788 C 0.87725 0.31469 0.71103 0.0
H2789 H 0.89588 0.2911 0.69387 0.0
C2790 C 0.85786 0.29902 0.71257 0.0
C2791 C 0.89126 0.31173 0.70441 0.0
C2792 C 0.91264 0.32766 0.70309 0.0
C2793 C 0.85203 0.28049 0.70758 0.0
C2794 C 0.86583 0.27773 0.70056 0.0
C2795 C 0.88527 0.29334 0.69913 0.0
C2796 C 0.86057 0.2586 0.69494 0.0
C2797 C 0.8313 0.26399 0.71014 0.0
C2798 C 0.87147 0.24946 0.69814 0.0
C2799 C 0.86645 0.23129 0.69304 0.0
C2800 C 0.8504 0.22189 0.68462 0.0
C2801 C 0.83962 0.23118 0.68135 0.0
C2802 C 0.8448 0.24946 0.68636 0.0
H2803 H 0.82475 0.2671 0.71842 0.0
H2804 H 0.8216 0.262 0.70198 0.0
H2805 H 0.83122 0.25007 0.7117 0.0
H2806 H 0.88374 0.2563 0.70472 0.0
H2807 H 0.8751 0.22459 0.69578 0.0
H2808 H 0.1865 0.95176 0.62997 0.0
H2809 H 0.21128 0.98297 0.63919 0.0
H2810 H 0.20313 0.01354 0.60852 0.0
H2811 H 0.17884 0.98227 0.59905 0.0
H2812 H 0.24119 0.0292 0.61398 0.0
H2813 H 0.20037 0.02036 0.6579 0.0
H2814 H 0.20549 0.00087 0.65539 0.0
H2815 H 0.18934 0.00408 0.64475 0.0
C2816 C 0.18998 0.96517 0.62523 0.0
C2817 C 0.18067 0.96465 0.61385 0.0
C2818 C 0.20404 0.98299 0.63054 0.0
C2819 C 0.20873 0.00066 0.62472 0.0
C2820 C 0.19969 0.00012 0.61322 0.0
H2821 H 0.26786 0.11391 0.66148 0.0
H2822 H 0.24421 0.08272 0.65187 0.0
C2823 C 0.18584 0.98228 0.60781 0.0
C2824 C 0.22322 0.01968 0.63051 0.0
H2825 H 0.23381 0.04658 0.65737 0.0
C2826 C 0.23953 0.03304 0.62345 0.0
C2827 C 0.22089 0.02485 0.6428 0.0
C2828 C 0.20297 0.01187 0.6506 0.0
C2829 C 0.25366 0.0513 0.62836 0.0
C2830 C 0.2518 0.05609 0.64085 0.0
C2831 C 0.23538 0.04282 0.64786 0.0
C2832 C 0.26637 0.07501 0.64672 0.0
C2833 C 0.27009 0.06545 0.61998 0.0
C2834 C 0.2867 0.08098 0.64722 0.0
C2835 C 0.30032 0.09897 0.65258 0.0
C2836 C 0.2938 0.11111 0.6578 0.0
C2837 C 0.27338 0.10487 0.65759 0.0
C2838 C 0.25983 0.08703 0.65208 0.0
H2839 H 0.26598 0.06209 0.60996 0.0
H2840 H 0.2738 0.08073 0.62187 0.0
H2841 H 0.28359 0.06433 0.62166 0.0
H2842 H 0.29205 0.07171 0.6435 0.0
H2843 H 0.31592 0.10326 0.65271 0.0
H2844 H 0.03122 0.23307 0.60982 0.0
H2845 H 1.00058 0.22786 0.61965 0.0
H2846 H 0.98912 0.17172 0.63281 0.0
H2847 H 0.01983 0.17693 0.62311 0.0
H2848 H 0.96257 0.20017 0.6155 0.0
H2849 H 0.98229 0.19506 0.6646 0.0
H2850 H 1.00036 0.2036 0.65225 0.0
H2851 H 0.98378 0.17786 0.65433 0.0
C2852 C 0.02216 0.21959 0.61477 0.0
C2853 C 0.02808 0.20547 0.61572 0.0
C2854 C 0.00467 0.21666 0.62045 0.0
C2855 C 0.99268 0.19956 0.62721 0.0
C2856 C 0.99837 0.18529 0.62798 0.0
H2857 H 0.87438 0.15495 0.65961 0.0
H2858 H 0.90587 0.15835 0.65224 0.0
C2859 C 0.01593 0.18826 0.62238 0.0
C2860 C 0.97389 0.19644 0.63302 0.0
H2861 H 0.94894 0.18725 0.66069 0.0
C2862 C 0.95967 0.19742 0.62539 0.0
C2863 C 0.96999 0.19277 0.64595 0.0
C2864 C 0.98498 0.19243 0.65479 0.0
C2865 C 0.94174 0.19479 0.63027 0.0
C2866 C 0.9379 0.1912 0.64316 0.0
C2867 C 0.95193 0.18996 0.65081 0.0
C2868 C 0.91963 0.18936 0.64882 0.0
C2869 C 0.9269 0.19575 0.62159 0.0
C2870 C 0.91714 0.20573 0.64963 0.0
C2871 C 0.89932 0.20385 0.65396 0.0
C2872 C 0.88371 0.18561 0.65769 0.0
C2873 C 0.88633 0.16927 0.6571 0.0
C2874 C 0.90425 0.17117 0.65282 0.0
H2875 H 0.93028 0.19482 0.61163 0.0
H2876 H 0.91162 0.18375 0.62358 0.0
H2877 H 0.92721 0.2098 0.62309 0.0
H2878 H 0.92886 0.2199 0.64663 0.0
H2879 H 0.89759 0.21663 0.65418 0.0
H2880 H 0.78325 0.79688 0.59271 0.0
H2881 H 0.79334 0.77667 0.60431 0.0
H2882 H 0.77424 0.79075 0.6386 0.0
H2883 H 0.76315 0.81014 0.62701 0.0
H2884 H 0.82104 0.78739 0.62285 0.0
H2885 H 0.74684 0.73186 0.64013 0.0
H2886 H 0.74996 0.74902 0.62809 0.0
H2887 H 0.75368 0.75648 0.64422 0.0
C2888 C 0.78081 0.79536 0.60268 0.0
C2889 C 0.77229 0.80506 0.60891 0.0
C2890 C 0.78678 0.78397 0.60931 0.0
C2891 C 0.78434 0.78204 0.62229 0.0
C2892 C 0.77593 0.79176 0.62856 0.0
H2893 H 0.84373 0.73383 0.66804 0.0
H2894 H 0.83368 0.75612 0.6592 0.0
C2895 C 0.76983 0.80303 0.62193 0.0
C2896 C 0.79094 0.77012 0.62926 0.0
H2897 H 0.77453 0.73036 0.64805 0.0
C2898 C 0.8109 0.77492 0.62837 0.0
C2899 C 0.77762 0.75381 0.63639 0.0
C2900 C 0.75579 0.74734 0.63719 0.0
C2901 C 0.81788 0.76369 0.63432 0.0
C2902 C 0.80461 0.74752 0.64157 0.0
C2903 C 0.78471 0.74288 0.64258 0.0
C2904 C 0.81057 0.73422 0.64735 0.0
C2905 C 0.83919 0.76883 0.6324 0.0
C2906 C 0.80055 0.71445 0.6439 0.0
C2907 C 0.80595 0.70164 0.64911 0.0
C2908 C 0.82154 0.70832 0.6579 0.0
C2909 C 0.83154 0.72815 0.6614 0.0
C2910 C 0.82597 0.74097 0.65624 0.0
H2911 H 0.84597 0.77867 0.62431 0.0
H2912 H 0.84803 0.77646 0.64084 0.0
H2913 H 0.84027 0.75549 0.63089 0.0
H2914 H 0.78862 0.70893 0.63706 0.0
H2915 H 0.79789 0.6865 0.64614 0.0
H2916 H 0.02256 0.82901 0.61715 0.0
H2917 H 0.99322 0.8077 0.62957 0.0
H2918 H 0.99945 0.75817 0.61955 0.0
H2919 H 0.02883 0.77938 0.60712 0.0
H2920 H 0.95734 0.7718 0.61936 0.0
H2921 H 0.99472 0.75806 0.65919 0.0
H2922 H 0.00738 0.77921 0.64929 0.0
H2923 H 0.00258 0.75576 0.6438 0.0
C2924 C 0.01778 0.81361 0.61769 0.0
C2925 C 0.02801 0.80585 0.61118 0.0
C2926 C 1.00101 0.80148 0.62475 0.0
C2927 C 0.99434 0.78145 0.62557 0.0
C2928 C 0.00453 0.77366 0.61913 0.0
H2929 H 0.89943 0.67723 0.65569 0.0
H2930 H 0.93097 0.70422 0.64838 0.0
C2931 C 0.02119 0.78574 0.61197 0.0
C2932 C 0.97619 0.76849 0.63268 0.0
H2933 H 0.9596 0.73873 0.65807 0.0
C2934 C 0.95777 0.7647 0.6279 0.0
C2935 C 0.97692 0.7593 0.64379 0.0
C2936 C 0.99644 0.76332 0.64943 0.0
C2937 C 0.93991 0.75125 0.63363 0.0
C2938 C 0.94057 0.74177 0.64468 0.0
C2939 C 0.9591 0.74604 0.64965 0.0
C2940 C 0.92223 0.72613 0.65053 0.0
C2941 C 0.92052 0.7466 0.62744 0.0
C2942 C 0.90703 0.72956 0.65454 0.0
C2943 C 0.88888 0.71407 0.65857 0.0
C2944 C 0.8859 0.69503 0.65899 0.0
C2945 C 0.90145 0.69182 0.65554 0.0
C2946 C 0.91947 0.70723 0.6514 0.0
H2947 H 0.92264 0.75161 0.61761 0.0
H2948 H 0.90983 0.73066 0.62755 0.0
H2949 H 0.91385 0.75411 0.63258 0.0
H2950 H 0.90898 0.7441 0.65421 0.0
H2951 H 0.87702 0.71689 0.66097 0.0
H2952 H 0.16704 0.18254 0.61616 0.0
H2953 H 0.19056 0.17597 0.62757 0.0
H2954 H 0.23866 0.23262 0.61738 0.0
H2955 H 0.21532 0.2393 0.60599 0.0
H2956 H 0.22666 0.17783 0.61625 0.0
H2957 H 0.24332 0.22841 0.65647 0.0
H2958 H 0.2209 0.21929 0.64718 0.0
H2959 H 0.24407 0.23838 0.64129 0.0
C2960 C 0.1826 0.19367 0.61647 0.0
C2961 C 0.18931 0.21143 0.61015 0.0
C2962 C 0.19601 0.18987 0.62294 0.0
C2963 C 0.21632 0.20387 0.62341 0.0
C2964 C 0.22302 0.22169 0.61724 0.0
H2965 H 0.32615 0.21725 0.65208 0.0
H2966 H 0.29862 0.22089 0.64398 0.0
C2967 C 0.20969 0.22542 0.61066 0.0
C2968 C 0.23072 0.19964 0.62983 0.0
H2969 H 0.26389 0.21436 0.6541 0.0
C2970 C 0.23469 0.18565 0.6246 0.0
C2971 C 0.2412 0.20994 0.64068 0.0
C2972 C 0.23713 0.22476 0.64684 0.0
C2973 C 0.2494 0.18221 0.62964 0.0
C2974 C 0.26008 0.19267 0.64044 0.0
C2975 C 0.25575 0.20635 0.64583 0.0
C2976 C 0.27646 0.19037 0.64591 0.0
C2977 C 0.25394 0.16802 0.62301 0.0
C2978 C 0.27318 0.17207 0.64986 0.0
C2979 C 0.28895 0.16997 0.6544 0.0
C2980 C 0.30818 0.18623 0.6554 0.0
C2981 C 0.3114 0.20455 0.65158 0.0
C2982 C 0.29568 0.20663 0.64697 0.0
H2983 H 0.24828 0.16523 0.61324 0.0
H2984 H 0.27018 0.17351 0.62286 0.0
H2985 H 0.24664 0.15387 0.62798 0.0
H2986 H 0.25845 0.15936 0.64938 0.0
H2987 H 0.28611 0.15559 0.65697 0.0
H2988 H 0.80692 0.96774 0.62455 0.0
H2989 H 0.81474 0.99889 0.63416 0.0
H2990 H 0.7613 0.99393 0.61825 0.0
H2991 H 0.75298 0.96241 0.60895 0.0
H2992 H 0.82068 0.03265 0.62227 0.0
H2993 H 0.75742 0.00512 0.65518 0.0
H2994 H 0.76452 0.98921 0.64744 0.0
H2995 H 0.75038 0.99802 0.6392 0.0
C2996 C 0.79667 0.97313 0.62324 0.0
C2997 C 0.77925 0.96253 0.61606 0.0
C2998 C 0.80124 0.99098 0.62867 0.0
C2999 C 0.78845 0.99854 0.62706 0.0
C3000 C 0.77117 0.98815 0.61979 0.0
H3001 H 0.79276 0.10578 0.64961 0.0
H3002 H 0.78411 0.07395 0.64076 0.0
C3003 C 0.76656 0.97027 0.61436 0.0
C3004 C 0.79355 0.01759 0.63272 0.0
H3005 H 0.77736 0.03952 0.65336 0.0
C3006 C 0.81127 0.03416 0.62911 0.0
C3007 C 0.7812 0.01945 0.64162 0.0
C3008 C 0.7624 0.00199 0.6462 0.0
C3009 C 0.81685 0.05267 0.63404 0.0
C3010 C 0.8045 0.05453 0.64293 0.0
C3011 C 0.78677 0.03798 0.64653 0.0
C3012 C 0.80967 0.07361 0.64854 0.0
C3013 C 0.83568 0.07014 0.6295 0.0
C3014 C 0.82677 0.08379 0.65598 0.0
C3015 C 0.83182 0.102 0.66104 0.0
C3016 C 0.81973 0.11028 0.65881 0.0
C3017 C 0.80243 0.09987 0.65149 0.0
C3018 C 0.79742 0.08166 0.64644 0.0
H3019 H 0.8409 0.06695 0.62063 0.0
H3020 H 0.83346 0.08282 0.62806 0.0
H3021 H 0.84756 0.07432 0.63663 0.0
H3022 H 0.83625 0.07765 0.65785 0.0
H3023 H 0.84532 0.10967 0.66655 0.0
H3024 H 0.46389 0.37154 0.7335 0.0
H3025 H 0.43919 0.33971 0.72489 0.0
H3026 H 0.48601 0.33341 0.70804 0.0
H3027 H 0.51079 0.3649 0.71686 0.0
H3028 H 0.43216 0.32714 0.69945 0.0
H3029 H 0.45445 0.28281 0.72815 0.0
H3030 H 0.46201 0.30787 0.73191 0.0
H3031 H 0.47444 0.30236 0.71981 0.0
C3032 C 0.46893 0.36329 0.72805 0.0
C3033 C 0.48931 0.37072 0.7259 0.0
C3034 C 0.4548 0.34518 0.72308 0.0
C3035 C 0.46081 0.33411 0.71598 0.0
C3036 C 0.48109 0.3416 0.71366 0.0
H3037 H 0.40258 0.222 0.67852 0.0
H3038 H 0.42595 0.25427 0.68691 0.0
C3039 C 0.49521 0.3597 0.7186 0.0
C3040 C 0.44589 0.31478 0.71089 0.0
H3041 H 0.4314 0.26632 0.71171 0.0
C3042 C 0.43188 0.3138 0.70217 0.0
C3043 C 0.44562 0.29746 0.71447 0.0
C3044 C 0.45981 0.29756 0.72418 0.0
C3045 C 0.41789 0.29596 0.69668 0.0
C3046 C 0.4177 0.27864 0.70021 0.0
C3047 C 0.43162 0.27963 0.709 0.0
C3048 C 0.40332 0.25933 0.69482 0.0
C3049 C 0.40378 0.29587 0.68692 0.0
C3050 C 0.38282 0.25138 0.69656 0.0
C3051 C 0.36936 0.23297 0.69167 0.0
C3052 C 0.37618 0.22212 0.685 0.0
C3053 C 0.39676 0.23006 0.6834 0.0
C3054 C 0.41018 0.24848 0.68826 0.0
H3055 H 0.4091 0.31066 0.68303 0.0
H3056 H 0.40176 0.28569 0.67915 0.0
H3057 H 0.38907 0.29092 0.69122 0.0
H3058 H 0.37723 0.25933 0.70183 0.0
H3059 H 0.35364 0.22726 0.69317 0.0
H3060 H 0.66426 0.12911 0.75003 0.0
H3061 H 0.69338 0.13535 0.73813 0.0
H3062 H 0.66163 0.12956 0.70381 0.0
H3063 H 0.63178 0.12152 0.71561 0.0
H3064 H 0.68147 0.11211 0.70095 0.0
H3065 H 0.73341 0.18365 0.72196 0.0
H3066 H 0.72308 0.16555 0.73389 0.0
H3067 H 0.70709 0.17147 0.72492 0.0
C3068 C 0.66325 0.12888 0.73995 0.0
C3069 C 0.64542 0.12474 0.73388 0.0
C3070 C 0.68018 0.1329 0.73312 0.0
C3071 C 0.68003 0.13349 0.72002 0.0
C3072 C 0.66231 0.12942 0.7139 0.0
H3073 H 0.7954 0.17709 0.68296 0.0
H3074 H 0.76391 0.17394 0.68986 0.0
C3075 C 0.64522 0.12502 0.72072 0.0
C3076 C 0.69802 0.13742 0.71274 0.0
H3077 H 0.74841 0.16719 0.71151 0.0
C3078 C 0.69605 0.12433 0.70317 0.0
C3079 C 0.71711 0.15363 0.7153 0.0
C3080 C 0.72025 0.16947 0.72447 0.0
C3081 C 0.71262 0.12649 0.69653 0.0
C3082 C 0.73189 0.14169 0.69987 0.0
C3083 C 0.73376 0.1553 0.70904 0.0
C3084 C 0.75034 0.14326 0.69446 0.0
C3085 C 0.70913 0.11249 0.68592 0.0
C3086 C 0.75336 0.12715 0.69466 0.0
C3087 C 0.77112 0.12883 0.69037 0.0
C3088 C 0.78643 0.14671 0.68594 0.0
C3089 C 0.78363 0.16295 0.68591 0.0
C3090 C 0.76568 0.16119 0.69 0.0
H3091 H 0.69433 0.10728 0.68152 0.0
H3092 H 0.72066 0.1193 0.67863 0.0
H3093 H 0.70937 0.0995 0.6896 0.0
H3094 H 0.74221 0.11335 0.69849 0.0
H3095 H 0.77307 0.1162 0.6908 0.0
H3096 H 0.88353 0.53456 0.75029 0.0
H3097 H 0.87387 0.55494 0.73852 0.0
H3098 H 0.89288 0.54029 0.70441 0.0
H3099 H 0.90355 0.5207 0.71617 0.0
H3100 H 0.90535 0.57856 0.70579 0.0
H3101 H 0.82513 0.53642 0.71668 0.0
H3102 H 0.84039 0.54436 0.73047 0.0
H3103 H 0.84187 0.52735 0.71993 0.0
C3104 C 0.88587 0.53583 0.7403 0.0
C3105 C 0.89422 0.5259 0.73417 0.0
C3106 C 0.88004 0.54725 0.73356 0.0
C3107 C 0.88222 0.54875 0.72055 0.0
C3108 C 0.89085 0.53914 0.71443 0.0
H3109 H 0.8271 0.60085 0.67515 0.0
H3110 H 0.83652 0.57802 0.68382 0.0
C3111 C 0.89681 0.52784 0.72116 0.0
C3112 C 0.87606 0.56084 0.71338 0.0
H3113 H 0.83692 0.5681 0.70791 0.0
C3114 C 0.89034 0.57617 0.70617 0.0
C3115 C 0.85637 0.55745 0.71366 0.0
C3116 C 0.84001 0.54037 0.72049 0.0
C3117 C 0.88565 0.58864 0.69958 0.0
C3118 C 0.8663 0.58601 0.70051 0.0
C3119 C 0.85182 0.57025 0.70734 0.0
C3120 C 0.861 0.59987 0.69488 0.0
C3121 C 0.90147 0.60447 0.69166 0.0
C3122 C 0.87148 0.61965 0.69833 0.0
C3123 C 0.86633 0.63276 0.69327 0.0
C3124 C 0.85041 0.62631 0.68475 0.0
C3125 C 0.83969 0.60639 0.68147 0.0
C3126 C 0.84496 0.5933 0.68648 0.0
H3127 H 0.91282 0.60064 0.68873 0.0
H3128 H 0.89495 0.60717 0.68319 0.0
H3129 H 0.90916 0.61821 0.69719 0.0
H3130 H 0.88353 0.62494 0.70507 0.0
H3131 H 0.87481 0.64793 0.69613 0.0
H3132 H 0.4735 0.91286 0.1804 0.0
H3133 H 0.4831 0.92732 0.15958 0.0
H3134 H 0.46299 0.96773 0.16871 0.0
H3135 H 0.45354 0.95353 0.18953 0.0
H3136 H 0.45759 0.93193 0.14066 0.0
H3137 H 0.52187 0.00221 0.15667 0.0
H3138 H 0.51125 0.98043 0.16607 0.0
H3139 H 0.49895 0.99447 0.16481 0.0
C3140 C 0.47124 0.92491 0.178 0.0
C3141 C 0.46278 0.93205 0.18667 0.0
C3142 C 0.47662 0.93307 0.16608 0.0
C3143 C 0.47392 0.9487 0.16263 0.0
C3144 C 0.46538 0.95578 0.17121 0.0
H3145 H 0.50238 0.02555 0.09933 0.0
H3146 H 0.49173 0.00842 0.1192 0.0
C3147 C 0.45984 0.94754 0.18308 0.0
C3148 C 0.48003 0.95769 0.15008 0.0
H3149 H 0.51245 6e-05 0.13547 0.0
C3150 C 0.46965 0.94678 0.13948 0.0
C3151 C 0.49572 0.97707 0.14858 0.0
C3152 C 0.50775 0.98925 0.1596 0.0
C3153 C 0.47419 0.95495 0.12746 0.0
C3154 C 0.48988 0.97442 0.12595 0.0
C3155 C 0.50039 0.98518 0.13657 0.0
C3156 C 0.49546 0.98415 0.11353 0.0
C3157 C 0.46166 0.94285 0.11656 0.0
C3158 C 0.50111 0.97626 0.10362 0.0
C3159 C 0.5071 0.98601 0.09218 0.0
C3160 C 0.5079 0.00402 0.09046 0.0
C3161 C 0.50214 0.01181 0.10037 0.0
C3162 C 0.496 0.002 0.11174 0.0
H3163 H 0.44705 0.93074 0.11965 0.0
H3164 H 0.45902 0.95194 0.1098 0.0
H3165 H 0.46951 0.9363 0.11167 0.0
H3166 H 0.50133 0.96278 0.10482 0.0
H3167 H 0.51169 0.97974 0.0848 0.0
H3168 H 0.06676 0.55628 0.17934 0.0
H3169 H 0.0524 0.54796 0.1583 0.0
H3170 H 0.01146 0.48934 0.17021 0.0
H3171 H 0.0256 0.4976 0.19135 0.0
H3172 H 0.04794 0.5153 0.14197 0.0
H3173 H 0.97668 0.51154 0.15472 0.0
H3174 H 0.99883 0.52426 0.16425 0.0
H3175 H 0.98475 0.49808 0.16426 0.0
C3176 C 0.05464 0.54164 0.17749 0.0
C3177 C 0.0472 0.52762 0.18701 0.0
C3178 C 0.04655 0.53689 0.16547 0.0
C3179 C 0.03078 0.51811 0.16277 0.0
C3180 C 0.02352 0.50397 0.17217 0.0
H3181 H 0.95715 0.47152 0.09594 0.0
H3182 H 0.97162 0.47584 0.11687 0.0
C3183 C 0.03169 0.50867 0.1842 0.0
C3184 C 0.02182 0.51348 0.15014 0.0
H3185 H 0.98021 0.50447 0.13384 0.0
C3186 C 0.03312 0.51288 0.14016 0.0
C3187 C 0.00246 0.51025 0.14788 0.0
C3188 C 0.98993 0.51116 0.15829 0.0
C3189 C 0.02553 0.50905 0.12792 0.0
C3190 C 0.00632 0.50628 0.1256 0.0
C3191 C 0.99493 0.50662 0.13564 0.0
C3192 C 0.99789 0.50344 0.11281 0.0
C3193 C 0.03804 0.50773 0.11765 0.0
C3194 C 0.00774 0.51763 0.10363 0.0
C3195 C 0.99954 0.51517 0.09167 0.0
C3196 C 0.98118 0.4986 0.08872 0.0
C3197 C 0.97124 0.48451 0.09797 0.0
C3198 C 0.97952 0.48692 0.1099 0.0
H3199 H 0.04921 0.50417 0.12139 0.0
H3200 H 0.02869 0.49648 0.1106 0.0
H3201 H 0.04618 0.52204 0.11291 0.0
H3202 H 0.02165 0.53077 0.10576 0.0
H3203 H 0.00739 0.52643 0.0848 0.0
H3204 H 0.44222 0.51408 0.18146 0.0
H3205 H 0.44806 0.50528 0.16055 0.0
H3206 H 0.50994 0.52844 0.16981 0.0
H3207 H 0.50415 0.53671 0.19074 0.0
H3208 H 0.4739 0.53017 0.14237 0.0
H3209 H 0.49408 0.47461 0.15565 0.0
H3210 H 0.48192 0.48306 0.16624 0.0
H3211 H 0.50832 0.49732 0.16389 0.0
C3212 C 0.457 0.517 0.1791 0.0
C3213 C 0.47272 0.52609 0.18778 0.0
C3214 C 0.46033 0.51208 0.16713 0.0
C3215 C 0.47938 0.51597 0.16367 0.0
C3216 C 0.49504 0.52497 0.17233 0.0
H3217 H 0.5419 0.51234 0.09885 0.0
H3218 H 0.53073 0.51666 0.11928 0.0
C3219 C 0.49175 0.5299 0.18426 0.0
C3220 C 0.48318 0.51137 0.15088 0.0
H3221 H 0.50235 0.4871 0.13493 0.0
C3222 C 0.47989 0.52056 0.1407 0.0
C3223 C 0.49097 0.49882 0.14874 0.0
C3224 C 0.49385 0.48773 0.15919 0.0
C3225 C 0.48494 0.51816 0.1285 0.0
C3226 C 0.49326 0.50604 0.12642 0.0
C3227 C 0.49608 0.49648 0.13656 0.0
C3228 C 0.4998 0.50359 0.11389 0.0
C3229 C 0.48203 0.52916 0.118 0.0
C3230 C 0.48608 0.49471 0.10407 0.0
C3231 C 0.49241 0.4921 0.09237 0.0
C3232 C 0.51257 0.49824 0.09028 0.0
C3233 C 0.52624 0.50718 0.10016 0.0
C3234 C 0.5199 0.50976 0.11183 0.0
H3235 H 0.47945 0.54095 0.1215 0.0
H3236 H 0.49516 0.53569 0.11178 0.0
H3237 H 0.46891 0.51888 0.11233 0.0
H3238 H 0.47044 0.48952 0.10552 0.0
H3239 H 0.48144 0.48489 0.08504 0.0
H3240 H 0.93266 0.44017 0.82999 0.0
H3241 H 0.94614 0.44789 0.85125 0.0
H3242 H 0.98843 0.5065 0.83993 0.0
H3243 H 0.97485 0.49893 0.81868 0.0
H3244 H 0.98359 0.45886 0.85893 0.0
H3245 H 0.96566 0.51655 0.87114 0.0
H3246 H 0.95495 0.50072 0.85774 0.0
H3247 H 0.9797 0.5214 0.85705 0.0
C3248 C 0.94481 0.45472 0.83205 0.0
C3249 C 0.95271 0.46896 0.82269 0.0
C3250 C 0.95243 0.45913 0.84419 0.0
C3251 C 0.96809 0.47785 0.84721 0.0
C3252 C 0.97601 0.49211 0.83789 0.0
H3253 H 0.04363 0.52792 0.9124 0.0
H3254 H 0.02846 0.52109 0.89153 0.0
C3255 C 0.96829 0.48775 0.82575 0.0
C3256 C 0.97675 0.48209 0.85997 0.0
H3257 H 0.98739 0.51259 0.88507 0.0
C3258 C 0.9843 0.47052 0.86468 0.0
C3259 C 0.97765 0.49732 0.86744 0.0
C3260 C 0.96889 0.5096 0.86315 0.0
C3261 C 0.99302 0.47397 0.87658 0.0
C3262 C 0.99409 0.48931 0.88398 0.0
C3263 C 0.98656 0.50089 0.87931 0.0
C3264 C 0.003 0.4935 0.89661 0.0
C3265 C 1.00134 0.46144 0.88111 0.0
C3266 C 0.99355 0.4803 0.90634 0.0
C3267 C 0.00215 0.48414 0.91824 0.0
C3268 C 0.02037 0.50124 0.92059 0.0
C3269 C 0.02971 0.51451 0.91082 0.0
C3270 C 0.02102 0.51071 0.89894 0.0
H3271 H 0.0027 0.45269 0.87343 0.0
H3272 H 0.01619 0.4706 0.88549 0.0
H3273 H 0.99133 0.45122 0.88829 0.0
H3274 H 0.97953 0.46701 0.90471 0.0
H3275 H 0.99468 0.4736 0.92556 0.0
H3276 H 0.55101 0.4969 0.8213 0.0
H3277 H 0.54735 0.50378 0.84311 0.0
H3278 H 0.51684 0.44222 0.85105 0.0
H3279 H 0.52101 0.43514 0.8294 0.0
H3280 H 0.49768 0.46583 0.85918 0.0
H3281 H 0.57609 0.4954 0.87468 0.0
H3282 H 0.57218 0.50442 0.86016 0.0
H3283 H 0.56564 0.47928 0.86134 0.0
C3284 C 0.54381 0.4848 0.8277 0.0
C3285 C 0.53631 0.46544 0.82354 0.0
C3286 C 0.54165 0.48878 0.84015 0.0
C3287 C 0.5319 0.4735 0.84867 0.0
C3288 C 0.52439 0.4542 0.8446 0.0
H3289 H 0.52174 0.48283 0.92959 0.0
H3290 H 0.52351 0.47073 0.90871 0.0
C3291 C 0.52668 0.4502 0.83219 0.0
C3292 C 0.52914 0.47768 0.86176 0.0
H3293 H 0.55436 0.49824 0.8889 0.0
C3294 C 0.51002 0.4728 0.86571 0.0
C3295 C 0.54528 0.48663 0.87025 0.0
C3296 C 0.56598 0.49166 0.86649 0.0
C3297 C 0.50673 0.47721 0.87788 0.0
C3298 C 0.52295 0.48662 0.88626 0.0
C3299 C 0.54197 0.49101 0.88242 0.0
C3300 C 0.52065 0.49302 0.89883 0.0
C3301 C 0.48601 0.47198 0.88171 0.0
C3302 C 0.51836 0.50943 0.90011 0.0
C3303 C 0.51749 0.5164 0.91195 0.0
C3304 C 0.51878 0.50701 0.92274 0.0
C3305 C 0.52055 0.49024 0.92143 0.0
C3306 C 0.52166 0.48339 0.90955 0.0
H3307 H 0.47462 0.46204 0.87486 0.0
H3308 H 0.48252 0.46491 0.89101 0.0
H3309 H 0.48508 0.48551 0.88249 0.0
H3310 H 0.51765 0.51709 0.89194 0.0
H3311 H 0.51598 0.52928 0.91269 0.0
H3312 H 0.5594 0.0811 0.82868 0.0
H3313 H 0.55376 0.0667 0.84954 0.0
H3314 H 0.49176 0.02928 0.84055 0.0
H3315 H 0.49734 0.04308 0.81964 0.0
H3316 H 0.52849 0.06594 0.86828 0.0
H3317 H 0.50752 0.9907 0.85379 0.0
H3318 H 0.51945 0.01121 0.84337 0.0
H3319 H 0.49314 -0.00034 0.84608 0.0
C3320 C 0.54462 0.0696 0.83108 0.0
C3321 C 0.52884 0.06325 0.82243 0.0
C3322 C 0.5414 0.06148 0.84304 0.0
C3323 C 0.52239 0.04671 0.84658 0.0
C3324 C 0.50663 0.0404 0.83799 0.0
H3325 H 0.46246 0.9794 0.91138 0.0
H3326 H 0.47264 0.99567 0.89123 0.0
C3327 C 0.50982 0.04849 0.82606 0.0
C3328 C 0.51879 0.03817 0.85932 0.0
H3329 H 0.50017 0.99487 0.87479 0.0
C3330 C 0.5225 0.05044 0.86973 0.0
C3331 C 0.51102 0.01794 0.86122 0.0
C3332 C 0.50773 0.00412 0.85054 0.0
C3333 C 0.51792 0.0429 0.88191 0.0
C3334 C 0.50966 0.02259 0.88376 0.0
C3335 C 0.50638 0.01042 0.87338 0.0
C3336 C 0.50366 0.01348 0.8963 0.0
C3337 C 0.52129 0.05664 0.89265 0.0
C3338 C 0.5177 0.01808 0.90592 0.0
C3339 C 0.51192 0.00868 0.91749 0.0
C3340 C 0.492 0.99439 0.91964 0.0
C3341 C 0.47798 0.99007 0.91002 0.0
C3342 C 0.48375 0.99944 0.89849 0.0
H3343 H 0.5235 0.07092 0.88941 0.0
H3344 H 0.50854 0.05014 0.89917 0.0
H3345 H 0.53479 0.05937 0.8979 0.0
H3346 H 0.53321 0.0286 0.90439 0.0
H3347 H 0.52317 0.0122 0.92461 0.0
H3348 H 0.14058 0.24699 0.51466 0.0
H3349 H 0.15013 0.26122 0.49378 0.0
H3350 H 0.13097 0.30237 0.50288 0.0
H3351 H 0.12154 0.28838 0.52376 0.0
H3352 H 0.12455 0.26617 0.47494 0.0
H3353 H 0.18994 0.33594 0.49056 0.0
H3354 H 0.17915 0.3142 0.50001 0.0
H3355 H 0.16721 0.32858 0.49884 0.0
C3356 C 0.13851 0.25915 0.51225 0.0
C3357 C 0.13033 0.26657 0.52092 0.0
C3358 C 0.14387 0.26718 0.50029 0.0
C3359 C 0.14141 0.28295 0.49681 0.0
C3360 C 0.13315 0.29031 0.5054 0.0
H3361 H 0.17104 0.35945 0.43321 0.0
H3362 H 0.16014 0.34257 0.45314 0.0
C3363 C 0.12764 0.2822 0.51731 0.0
C3364 C 0.14748 0.29178 0.48422 0.0
H3365 H 0.18042 0.3337 0.46939 0.0
C3366 C 0.13682 0.28089 0.47369 0.0
C3367 C 0.16346 0.311 0.48262 0.0
C3368 C 0.17576 0.32314 0.49357 0.0
C3369 C 0.14137 0.28892 0.46162 0.0
C3370 C 0.15737 0.3082 0.46001 0.0
C3371 C 0.16814 0.31895 0.47057 0.0
C3372 C 0.16302 0.31776 0.44754 0.0
C3373 C 0.12855 0.27687 0.4508 0.0
C3374 C 0.16825 0.30949 0.43765 0.0
C3375 C 0.17437 0.3191 0.42617 0.0
C3376 C 0.17573 0.33735 0.4244 0.0
C3377 C 0.17036 0.34552 0.43429 0.0
C3378 C 0.16409 0.33585 0.4457 0.0
H3379 H 0.11384 0.26505 0.45398 0.0
H3380 H 0.12616 0.28608 0.44401 0.0
H3381 H 0.13604 0.26994 0.44592 0.0
H3382 H 0.16807 0.29582 0.43889 0.0
H3383 H 0.17865 0.31254 0.4188 0.0
H3384 H 0.6933 0.83469 0.52459 0.0
H3385 H 0.67933 0.82707 0.50338 0.0
H3386 H 0.72293 0.88488 0.49156 0.0
H3387 H 0.73709 0.89255 0.51268 0.0
H3388 H 0.66451 0.84983 0.48993 0.0
H3389 H 0.72576 0.84647 0.46551 0.0
H3390 H 0.72235 0.84357 0.48219 0.0
H3391 H 0.733 0.86741 0.47542 0.0
C3392 C 0.70005 0.84568 0.51742 0.0
C3393 C 0.71627 0.86422 0.52027 0.0
C3394 C 0.69202 0.84134 0.50536 0.0
C3395 C 0.70024 0.85536 0.49593 0.0
C3396 C 0.71654 0.8738 0.4987 0.0
H3397 H 0.67481 0.86249 0.41815 0.0
H3398 H 0.68911 0.86757 0.43917 0.0
C3399 C 0.72449 0.8782 0.51077 0.0
C3400 C 0.69122 0.85107 0.48331 0.0
H3401 H 0.70023 0.84555 0.45286 0.0
C3402 C 0.67222 0.84875 0.48182 0.0
C3403 C 0.70144 0.84984 0.47279 0.0
C3404 C 0.72172 0.8518 0.47399 0.0
C3405 C 0.66328 0.84566 0.46998 0.0
C3406 C 0.67346 0.84435 0.45943 0.0
C3407 C 0.69244 0.84654 0.46096 0.0
C3408 C 0.66482 0.84102 0.44668 0.0
C3409 C 0.64332 0.84446 0.46887 0.0
C3410 C 0.64657 0.82427 0.44388 0.0
C3411 C 0.63833 0.8214 0.43191 0.0
C3412 C 0.64834 0.83509 0.42247 0.0
C3413 C 0.66682 0.85164 0.42522 0.0
C3414 C 0.67497 0.85457 0.43722 0.0
H3415 H 0.64023 0.85112 0.47709 0.0
H3416 H 0.64244 0.8519 0.46033 0.0
H3417 H 0.6315 0.8289 0.46832 0.0
H3418 H 0.63873 0.81336 0.45095 0.0
H3419 H 0.62424 0.80835 0.42999 0.0
H3420 H 0.13839 0.89113 0.51027 0.0
H3421 H 0.14484 0.8837 0.4892 0.0
H3422 H 0.14087 0.83046 0.50258 0.0
H3423 H 0.1337 0.83754 0.52358 0.0
H3424 H 0.17494 0.88114 0.48115 0.0
H3425 H 0.10733 0.81007 0.47193 0.0
H3426 H 0.10931 0.82541 0.485 0.0
H3427 H 0.11972 0.80955 0.48595 0.0
C3428 C 0.13867 0.87773 0.50866 0.0
C3429 C 0.13549 0.86487 0.51854 0.0
C3430 C 0.14235 0.87348 0.49662 0.0
C3431 C 0.14309 0.85637 0.49421 0.0
C3432 C 0.13981 0.84346 0.50408 0.0
H3433 H 0.20785 0.84317 0.43278 0.0
H3434 H 0.19674 0.84906 0.45272 0.0
C3435 C 0.13581 0.84756 0.5161 0.0
C3436 C 0.14857 0.85276 0.48157 0.0
H3437 H 0.13487 0.81855 0.45836 0.0
C3438 C 0.16606 0.8675 0.47614 0.0
C3439 C 0.13687 0.83511 0.47488 0.0
C3440 C 0.11716 0.81923 0.47968 0.0
C3441 C 0.17238 0.86496 0.46437 0.0
C3442 C 0.16129 0.84688 0.45801 0.0
C3443 C 0.14355 0.8323 0.4633 0.0
C3444 C 0.16786 0.8428 0.4459 0.0
C3445 C 0.19069 0.88185 0.45882 0.0
C3446 C 0.15506 0.83653 0.43548 0.0
C3447 C 0.16118 0.83258 0.4241 0.0
C3448 C 0.18028 0.83488 0.42285 0.0
C3449 C 0.19298 0.84103 0.43336 0.0
C3450 C 0.18676 0.84474 0.44476 0.0
H3451 H 0.19343 0.89604 0.46271 0.0
H3452 H 0.20382 0.88038 0.46111 0.0
H3453 H 0.18941 0.8822 0.44851 0.0
H3454 H 0.14033 0.83473 0.43614 0.0
H3455 H 0.15079 0.82749 0.41634 0.0
H3456 H 0.60518 0.81566 0.16281 0.0
H3457 H 0.6198 0.82416 0.18379 0.0
H3458 H 0.65981 0.8032 0.17426 0.0
H3459 H 0.64587 0.79539 0.15318 0.0
H3460 H 0.6209 0.79963 0.2015 0.0
H3461 H 0.69741 0.85649 0.18923 0.0
H3462 H 0.67688 0.84778 0.17834 0.0
H3463 H 0.68925 0.83397 0.18092 0.0
C3464 C 0.61734 0.81318 0.16511 0.0
C3465 C 0.62439 0.80488 0.1563 0.0
C3466 C 0.62557 0.81792 0.17713 0.0
C3467 C 0.64109 0.81458 0.18052 0.0
C3468 C 0.64813 0.80628 0.17177 0.0
H3469 H 0.70409 0.81736 0.24742 0.0
H3470 H 0.69006 0.81328 0.22641 0.0
C3471 C 0.63995 0.80158 0.15976 0.0
C3472 C 0.64937 0.81895 0.19338 0.0
H3473 H 0.69275 0.84382 0.20993 0.0
C3474 C 0.63657 0.80946 0.20337 0.0
C3475 C 0.66982 0.8318 0.19578 0.0
C3476 C 0.68411 0.84325 0.18551 0.0
C3477 C 0.64378 0.81196 0.21567 0.0
C3478 C 0.66429 0.82443 0.21801 0.0
C3479 C 0.67704 0.83419 0.20806 0.0
C3480 C 0.67287 0.82721 0.23071 0.0
C3481 C 0.62955 0.80082 0.22603 0.0
C3482 C 0.66803 0.83662 0.24001 0.0
C3483 C 0.67616 0.83915 0.252 0.0
C3484 C 0.6893 0.8323 0.2549 0.0
C3485 C 0.69423 0.82302 0.24548 0.0
C3486 C 0.68614 0.82057 0.23349 0.0
H3487 H 0.61505 0.78903 0.22239 0.0
H3488 H 0.63601 0.79428 0.23232 0.0
H3489 H 0.62677 0.81102 0.23166 0.0
H3490 H 0.65806 0.84214 0.23797 0.0
H3491 H 0.67233 0.84667 0.25895 0.0
H3492 H 0.20836 0.83413 0.15273 0.0
H3493 H 0.20168 0.84237 0.17359 0.0
H3494 H 0.18517 0.78457 0.18627 0.0
H3495 H 0.19197 0.77629 0.16552 0.0
H3496 H 0.16352 0.82107 0.18612 0.0
H3497 H 0.22506 0.82194 0.21326 0.0
H3498 H 0.22572 0.82446 0.19649 0.0
H3499 H 0.21108 0.80087 0.20343 0.0
C3500 C 0.20361 0.82329 0.16002 0.0
C3501 C 0.20066 0.80455 0.15748 0.0
C3502 C 0.19972 0.82799 0.1719 0.0
C3503 C 0.19311 0.81414 0.18149 0.0
C3504 C 0.1905 0.79555 0.17904 0.0
H3505 H 0.15419 0.80675 0.2579 0.0
H3506 H 0.16514 0.80186 0.23748 0.0
C3507 C 0.19423 0.7908 0.16716 0.0
C3508 C 0.18781 0.81867 0.19385 0.0
H3509 H 0.19972 0.8231 0.22486 0.0
C3510 C 0.17151 0.82169 0.19459 0.0
C3511 C 0.19818 0.81929 0.20487 0.0
C3512 C 0.21609 0.81663 0.20454 0.0
C3513 C 0.16496 0.82482 0.20612 0.0
C3514 C 0.17534 0.82548 0.21718 0.0
C3515 C 0.19177 0.82262 0.2164 0.0
C3516 C 0.1692 0.82879 0.22966 0.0
C3517 C 0.14657 0.82671 0.20635 0.0
C3518 C 0.16818 0.84573 0.23215 0.0
C3519 C 0.16181 0.84849 0.24378 0.0
C3520 C 0.15662 0.83452 0.25323 0.0
C3521 C 0.15818 0.81783 0.25083 0.0
C3522 C 0.16439 0.815 0.23916 0.0
H3523 H 0.13734 0.82042 0.1978 0.0
H3524 H 0.1373 0.81932 0.21461 0.0
H3525 H 0.15103 0.8424 0.20683 0.0
H3526 H 0.17234 0.85685 0.22509 0.0
H3527 H 0.16114 0.86168 0.24541 0.0
H3528 H 0.16358 0.38043 0.15436 0.0
H3529 H 0.15801 0.36676 0.17532 0.0
H3530 H 0.22045 0.4026 0.18375 0.0
H3531 H 0.22609 0.41684 0.16286 0.0
H3532 H 0.17415 0.34622 0.18666 0.0
H3533 H 0.1944 0.41431 0.21317 0.0
H3534 H 0.18968 0.41212 0.19657 0.0
H3535 H 0.21295 0.41581 0.20256 0.0
C3536 C 0.17613 0.38562 0.1607 0.0
C3537 C 0.19527 0.39991 0.15692 0.0
C3538 C 0.17292 0.37767 0.17267 0.0
C3539 C 0.18873 0.38385 0.18121 0.0
C3540 C 0.20794 0.39786 0.17743 0.0
H3541 H 0.18841 0.3467 0.25855 0.0
H3542 H 0.1986 0.36304 0.2383 0.0
C3543 C 0.21118 0.40582 0.16541 0.0
C3544 C 0.18498 0.37524 0.19394 0.0
H3545 H 0.18631 0.38616 0.22499 0.0
C3546 C 0.17684 0.35497 0.19503 0.0
C3547 C 0.18859 0.38666 0.2049 0.0
C3548 C 0.19674 0.40841 0.20431 0.0
C3549 C 0.17214 0.34581 0.20673 0.0
C3550 C 0.17529 0.35714 0.21766 0.0
C3551 C 0.18385 0.37747 0.21662 0.0
C3552 C 0.16908 0.34798 0.23018 0.0
C3553 C 0.16398 0.32404 0.20727 0.0
C3554 C 0.14903 0.33451 0.23249 0.0
C3555 C 0.14316 0.32523 0.24404 0.0
C3556 C 0.15718 0.32925 0.25362 0.0
C3557 C 0.17719 0.34329 0.25143 0.0
C3558 C 0.18306 0.35259 0.23983 0.0
H3559 H 0.16774 0.31851 0.19876 0.0
H3560 H 0.16977 0.32006 0.21557 0.0
H3561 H 0.14754 0.31655 0.20793 0.0
H3562 H 0.13788 0.33109 0.22531 0.0
H3563 H 0.12757 0.31488 0.24546 0.0
H3564 H 0.80614 0.57946 0.84699 0.0
H3565 H 0.81599 0.59356 0.82609 0.0
H3566 H 0.79943 0.6366 0.83535 0.0
H3567 H 0.78976 0.62278 0.85625 0.0
H3568 H 0.79134 0.59957 0.80738 0.0
H3569 H 0.85809 0.66839 0.82273 0.0
H3570 H 0.84665 0.6468 0.8323 0.0
H3571 H 0.83562 0.66199 0.83105 0.0
C3572 C 0.80473 0.59202 0.84461 0.0
C3573 C 0.79719 0.60001 0.85333 0.0
C3574 C 0.81025 0.59997 0.83264 0.0
C3575 C 0.8086 0.61623 0.82919 0.0
C3576 C 0.80101 0.62417 0.83784 0.0
H3577 H 0.83854 0.69284 0.76575 0.0
H3578 H 0.82775 0.6759 0.78567 0.0
C3579 C 0.79534 0.61615 0.84976 0.0
C3580 C 0.81477 0.62493 0.81658 0.0
H3581 H 0.84815 0.66655 0.80164 0.0
C3582 C 0.80383 0.61417 0.80608 0.0
C3583 C 0.83103 0.64398 0.81492 0.0
C3584 C 0.84368 0.65597 0.82581 0.0
C3585 C 0.80836 0.62217 0.79401 0.0
C3586 C 0.82459 0.64131 0.79235 0.0
C3587 C 0.83568 0.65192 0.80287 0.0
C3588 C 0.83016 0.6509 0.77989 0.0
C3589 C 0.79526 0.61029 0.78324 0.0
C3590 C 0.83507 0.64253 0.7699 0.0
C3591 C 0.84115 0.65218 0.75843 0.0
C3592 C 0.84276 0.67056 0.75676 0.0
C3593 C 0.83768 0.67881 0.76675 0.0
C3594 C 0.83146 0.66911 0.77815 0.0
H3595 H 0.78053 0.59858 0.78647 0.0
H3596 H 0.79292 0.61966 0.77655 0.0
H3597 H 0.80249 0.60323 0.77822 0.0
H3598 H 0.83468 0.62874 0.77106 0.0
H3599 H 0.8452 0.64554 0.75099 0.0
H3600 H 0.36024 0.16798 0.8574 0.0
H3601 H 0.34592 0.16035 0.83628 0.0
H3602 H 0.3899 0.21783 0.82418 0.0
H3603 H 0.40437 0.22552 0.84521 0.0
H3604 H 0.33148 0.18371 0.82286 0.0
H3605 H 0.39154 0.17864 0.79813 0.0
H3606 H 0.38822 0.17578 0.81482 0.0
H3607 H 0.39935 0.19966 0.80807 0.0
C3608 C 0.367 0.17889 0.85019 0.0
C3609 C 0.3834 0.19736 0.85295 0.0
C3610 C 0.35876 0.17454 0.83817 0.0
C3611 C 0.36698 0.18848 0.82868 0.0
C3612 C 0.38349 0.20682 0.83136 0.0
H3613 H 0.34209 0.19697 0.75108 0.0
H3614 H 0.3562 0.20139 0.77211 0.0
C3615 C 0.39163 0.21124 0.84338 0.0
C3616 C 0.35778 0.18424 0.81611 0.0
H3617 H 0.36629 0.17855 0.78559 0.0
C3618 C 0.33897 0.18242 0.8147 0.0
C3619 C 0.36772 0.18273 0.80553 0.0
C3620 C 0.38777 0.18415 0.80665 0.0
C3621 C 0.33001 0.17962 0.80289 0.0
C3622 C 0.33994 0.17809 0.79227 0.0
C3623 C 0.3587 0.17972 0.79373 0.0
C3624 C 0.33133 0.17518 0.77952 0.0
C3625 C 0.31033 0.17903 0.80187 0.0
C3626 C 0.31279 0.15885 0.77666 0.0
C3627 C 0.30465 0.15636 0.76467 0.0
C3628 C 0.31505 0.17001 0.75528 0.0
C3629 C 0.33379 0.18615 0.75811 0.0
C3630 C 0.34184 0.18871 0.77012 0.0
H3631 H 0.30752 0.18579 0.81015 0.0
H3632 H 0.30966 0.18669 0.79339 0.0
H3633 H 0.29819 0.1636 0.80127 0.0
H3634 H 0.30465 0.14795 0.78367 0.0
H3635 H 0.29035 0.14361 0.7627 0.0
H3636 H 0.79616 0.16947 0.857 0.0
H3637 H 0.80357 0.16224 0.83607 0.0
H3638 H 0.81822 0.21988 0.82407 0.0
H3639 H 0.81115 0.22727 0.84496 0.0
H3640 H 0.78868 0.1618 0.81273 0.0
H3641 H 0.86824 0.21881 0.81534 0.0
H3642 H 0.8523 0.21138 0.82879 0.0
H3643 H 0.85178 0.22827 0.8178 0.0
C3644 C 0.80079 0.18052 0.84986 0.0
C3645 C 0.80332 0.19903 0.85267 0.0
C3646 C 0.80508 0.1764 0.83792 0.0
C3647 C 0.81192 0.19068 0.82857 0.0
C3648 C 0.81355 0.20883 0.83122 0.0
H3649 H 0.8485 0.1962 0.75142 0.0
H3650 H 0.83709 0.20152 0.77158 0.0
C3651 C 0.80944 0.21302 0.84315 0.0
C3652 C 0.81764 0.18674 0.81613 0.0
H3653 H 0.8562 0.20356 0.79559 0.0
C3654 C 0.80347 0.17087 0.809 0.0
C3655 C 0.83698 0.19854 0.81128 0.0
C3656 C 0.85327 0.21508 0.81874 0.0
C3657 C 0.80801 0.16673 0.79708 0.0
C3658 C 0.82724 0.1787 0.79221 0.0
C3659 C 0.84141 0.19451 0.79932 0.0
C3660 C 0.83314 0.1749 0.77982 0.0
C3661 C 0.79213 0.1498 0.78968 0.0
C3662 C 0.83476 0.1582 0.77781 0.0
C3663 C 0.84134 0.15516 0.76633 0.0
C3664 C 0.84638 0.16875 0.75663 0.0
C3665 C 0.84453 0.18536 0.75865 0.0
C3666 C 0.8381 0.18847 0.77017 0.0
H3667 H 0.77709 0.14455 0.79359 0.0
H3668 H 0.79216 0.15397 0.7798 0.0
H3669 H 0.79522 0.13753 0.78984 0.0
H3670 H 0.83125 0.14768 0.78519 0.0
H3671 H 0.84245 0.14214 0.76504 0.0
H3672 H 0.26162 0.10614 0.49866 0.0
H3673 H 0.27614 0.11377 0.51968 0.0
H3674 H 0.32096 0.17078 0.5074 0.0
H3675 H 0.30662 0.1632 0.48629 0.0
H3676 H 0.33481 0.14706 0.52062 0.0
H3677 H 0.27584 0.15336 0.54586 0.0
H3678 H 0.26753 0.1322 0.53597 0.0
H3679 H 0.27883 0.15603 0.52914 0.0
C3680 C 0.27453 0.12032 0.50045 0.0
C3681 C 0.28301 0.13407 0.49084 0.0
C3682 C 0.2827 0.1247 0.51247 0.0
C3683 C 0.29948 0.14289 0.51508 0.0
C3684 C 0.30791 0.15672 0.50555 0.0
H3685 H 0.37758 0.18765 0.58032 0.0
H3686 H 0.36274 0.1832 0.5595 0.0
C3687 C 0.29965 0.15241 0.49354 0.0
C3688 C 0.30886 0.14701 0.52759 0.0
H3689 H 0.30114 0.15316 0.55818 0.0
C3690 C 0.32757 0.14855 0.52884 0.0
C3691 C 0.29923 0.14878 0.53825 0.0
C3692 C 0.2793 0.14766 0.5373 0.0
C3693 C 0.33674 0.15134 0.54057 0.0
C3694 C 0.32714 0.15316 0.55127 0.0
C3695 C 0.30848 0.15178 0.54997 0.0
C3696 C 0.33604 0.15614 0.56392 0.0
C3697 C 0.35631 0.15166 0.54142 0.0
C3698 C 0.3257 0.14275 0.57342 0.0
C3699 C 0.33405 0.14537 0.58534 0.0
C3700 C 0.35293 0.16143 0.58797 0.0
C3701 C 0.36316 0.17495 0.57849 0.0
C3702 C 0.35473 0.17241 0.5666 0.0
H3703 H 0.35881 0.14472 0.53311 0.0
H3704 H 0.3686 0.16703 0.54191 0.0
H3705 H 0.35703 0.14402 0.5499 0.0
H3706 H 0.31123 0.13013 0.57157 0.0
H3707 H 0.32587 0.13466 0.59245 0.0
H3708 H 0.85781 0.10736 0.49814 0.0
H3709 H 0.85115 0.1154 0.51901 0.0
H3710 H 0.86913 0.17384 0.50698 0.0
H3711 H 0.87566 0.16586 0.48601 0.0
H3712 H 0.87817 0.148 0.53606 0.0
H3713 H 0.81083 0.15035 0.52071 0.0
H3714 H 0.8212 0.13828 0.51168 0.0
H3715 H 0.8331 0.16443 0.51183 0.0
C3716 C 0.86035 0.12193 0.49994 0.0
C3717 C 0.86711 0.13594 0.4904 0.0
C3718 C 0.85664 0.12652 0.51187 0.0
C3719 C 0.85946 0.14513 0.51448 0.0
C3720 C 0.86671 0.15933 0.5051 0.0
H3721 H 0.82695 0.19051 0.57885 0.0
H3722 H 0.839 0.18631 0.55866 0.0
C3723 C 0.87055 0.15479 0.49317 0.0
C3724 C 0.85423 0.14945 0.52692 0.0
H3725 H 0.8203 0.15765 0.54181 0.0
C3726 C 0.86555 0.15016 0.53735 0.0
C3727 C 0.8378 0.15229 0.52852 0.0
C3728 C 0.82488 0.15119 0.51764 0.0
C3729 C 0.86097 0.15383 0.54938 0.0
C3730 C 0.84427 0.15631 0.55104 0.0
C3731 C 0.83308 0.15575 0.54055 0.0
C3732 C 0.83792 0.15926 0.56355 0.0
C3733 C 0.87429 0.15537 0.56014 0.0
C3734 C 0.83322 0.14542 0.57303 0.0
C3735 C 0.82642 0.14785 0.5846 0.0
C3736 C 0.82387 0.164 0.58686 0.0
C3737 C 0.82858 0.17782 0.57736 0.0
C3738 C 0.83553 0.17547 0.56583 0.0
H3739 H 0.88936 0.15917 0.55689 0.0
H3740 H 0.87576 0.16653 0.56705 0.0
H3741 H 0.86781 0.14107 0.5649 0.0
H3742 H 0.83439 0.13251 0.57139 0.0
H3743 H 0.82263 0.13681 0.59166 0.0
H3744 H 0.89479 0.75331 0.49565 0.0
H3745 H 0.88895 0.73871 0.51647 0.0
H3746 H 0.82701 0.70145 0.50726 0.0
H3747 H 0.83278 0.71543 0.4864 0.0
H3748 H 0.86344 0.73756 0.53528 0.0
H3749 H 0.84274 0.66265 0.52016 0.0
H3750 H 0.85477 0.68338 0.50992 0.0
H3751 H 0.82842 0.67172 0.5125 0.0
C3752 C 0.87997 0.74182 0.498 0.0
C3753 C 0.86427 0.73556 0.4893 0.0
C3754 C 0.87664 0.73359 0.50994 0.0
C3755 C 0.85759 0.71878 0.5134 0.0
C3756 C 0.84191 0.71259 0.50476 0.0
H3757 H 0.79647 0.64994 0.5774 0.0
H3758 H 0.80712 0.66675 0.55745 0.0
C3759 C 0.84521 0.7208 0.49286 0.0
C3760 C 0.85388 0.70999 0.52608 0.0
H3761 H 0.83498 0.66634 0.54116 0.0
C3762 C 0.85743 0.72202 0.53659 0.0
C3763 C 0.84608 0.68971 0.52781 0.0
C3764 C 0.84296 0.67613 0.51701 0.0
C3765 C 0.85263 0.71422 0.5487 0.0
C3766 C 0.84431 0.69386 0.55037 0.0
C3767 C 0.84123 0.68192 0.53989 0.0
C3768 C 0.83802 0.68444 0.56282 0.0
C3769 C 0.85583 0.72771 0.55955 0.0
C3770 C 0.85183 0.68879 0.57256 0.0
C3771 C 0.84578 0.67908 0.58402 0.0
C3772 C 0.82581 0.66471 0.58595 0.0
C3773 C 0.81201 0.66066 0.57621 0.0
C3774 C 0.81806 0.67034 0.5648 0.0
H3775 H 0.85814 0.74208 0.55643 0.0
H3776 H 0.84295 0.72109 0.56597 0.0
H3777 H 0.86922 0.73029 0.56488 0.0
H3778 H 0.86738 0.69935 0.5712 0.0
H3779 H 0.85686 0.68241 0.59122 0.0
loop_
_geom_bond_atom_site_label_1
_geom_bond_atom_site_label_2
_geom_bond_distance
_geom_bond_site_symmetry_2
_ccdc_geom_bond_type
C0 C1 1.391 . S
C0 C4 1.391 . S
C0 H42 0.948 . S
C1 C0 1.391 . S
C1 C2 1.391 . S
C2 C1 1.391 . S
C2 H58 0.947 . S
C2 C59 1.392 . S
C3 C4 1.391 . S
C3 C7 1.397 . S
C3 C59 1.419 . S
C4 C0 1.391 . S
C4 C3 1.391 . S
C4 C5 1.399 . S
C5 C4 1.399 . S
C5 C8 1.396 . S
C5 C17 1.453 . S
C5 C18 1.684 . S
H6 C30 0.948 . S
C7 C3 1.397 . S
C7 C8 1.394 . S
C7 C26 1.723 . S
C8 C5 1.396 . S
C8 C7 1.394 . S
C8 C38 1.723 . S
H9 C32 0.947 . S
H10 C33 0.948 . S
H11 C39 0.982 . S
H12 C40 0.979 . S
H13 C40 0.980 . S
H14 C40 0.983 . S
H15 C39 0.979 . S
H16 C39 0.977 . S
C17 C5 1.453 . S
C17 H46 0.982 . S
C17 H47 0.979 . S
C17 H48 0.977 . S
C18 C5 1.684 . S
C18 H43 0.979 . S
C18 H44 0.980 . S
C18 H45 0.983 . S
C19 C20 1.391 . S
C19 C24 1.391 . S
C19 H49 0.948 . S
C20 C19 1.391 . S
C20 C21 1.391 . S
C21 C20 1.391 . S
C21 C22 1.392 . S
C21 H50 0.947 . S
C22 C21 1.392 . S
C22 C23 1.419 . S
C22 H51 0.948 . S
C23 C22 1.419 . S
C23 C24 1.391 . S
C23 C27 1.397 . S
C24 C19 1.391 . S
C24 C23 1.391 . S
C24 C25 1.399 . S
C25 C24 1.399 . S
C25 C26 1.396 . S
C25 C28 1.453 . S
C25 C29 1.684 . S
C26 C7 1.723 . S
C26 C25 1.396 . S
C26 C27 1.394 . S
C27 C23 1.397 . S
C27 C26 1.394 . S
C27 C37 1.723 . S
C28 C25 1.453 . S
C28 H52 0.982 . S
C28 H53 0.979 . S
C28 H54 0.977 . S
C29 C25 1.684 . S
C29 H55 0.979 . S
C29 H56 0.980 . S
C29 H57 0.983 . S
C30 H6 0.948 . S
C30 C31 1.391 . S
C30 C35 1.391 . S
C31 C30 1.391 . S
C31 C32 1.391 . S
C32 H9 0.947 . S
C32 C31 1.391 . S
C32 C33 1.392 . S
C33 H10 0.948 . S
C33 C32 1.392 . S
C33 C34 1.419 . S
C34 C33 1.419 . S
C34 C35 1.391 . S
C34 C38 1.397 . S
C35 C30 1.391 . S
C35 C34 1.391 . S
C35 C36 1.399 . S
C36 C35 1.399 . S
C36 C37 1.396 . S
C36 C39 1.453 . S
C36 C40 1.684 . S
C37 C27 1.723 . S
C37 C36 1.396 . S
C37 C38 1.394 . S
C38 C8 1.723 . S
C38 C34 1.397 . S
C38 C37 1.394 . S
C39 H11 0.982 . S
C39 H15 0.979 . S
C39 H16 0.977 . S
C39 C36 1.453 . S
C40 H12 0.979 . S
C40 H13 0.980 . S
C40 H14 0.983 . S
C40 C36 1.684 . S
H41 C59 0.948 . S
H42 C0 0.948 . S
H43 C18 0.979 . S
H44 C18 0.980 . S
H45 C18 0.983 . S
H46 C17 0.982 . S
H47 C17 0.979 . S
H48 C17 0.977 . S
H49 C19 0.948 . S
H50 C21 0.947 . S
H51 C22 0.948 . S
H52 C28 0.982 . S
H53 C28 0.979 . S
H54 C28 0.977 . S
H55 C29 0.979 . S
H56 C29 0.980 . S
H57 C29 0.983 . S
H58 C2 0.947 . S
C59 C2 1.392 . S
C59 C3 1.419 . S
C59 H41 0.948 . S
C60 C61 1.391 . S
C60 C64 1.391 . S
C60 H102 0.948 . S
C61 C60 1.391 . S
C61 C62 1.391 . S
C62 C61 1.391 . S
C62 H118 0.947 . S
C62 C119 1.392 . S
C63 C64 1.391 . S
C63 C67 1.397 . S
C63 C119 1.419 . S
C64 C60 1.391 . S
C64 C63 1.391 . S
C64 C65 1.399 . S
C65 C64 1.399 . S
C65 C68 1.396 . S
C65 C77 1.453 . S
C65 C78 1.684 . S
H66 C90 0.948 . S
C67 C63 1.397 . S
C67 C68 1.394 . S
C67 C86 1.723 . S
C68 C65 1.396 . S
C68 C67 1.394 . S
C68 C98 1.723 . S
H69 C92 0.947 . S
H70 C93 0.948 . S
H71 C99 0.982 . S
H72 C100 0.979 . S
H73 C100 0.980 . S
H74 C100 0.983 . S
H75 C99 0.979 . S
H76 C99 0.977 . S
C77 C65 1.453 . S
C77 H106 0.982 . S
C77 H107 0.979 . S
C77 H108 0.977 . S
C78 C65 1.684 . S
C78 H103 0.979 . S
C78 H104 0.980 . S
C78 H105 0.983 . S
C79 C80 1.391 . S
C79 C84 1.391 . S
C79 H109 0.948 . S
C80 C79 1.391 . S
C80 C81 1.391 . S
C81 C80 1.391 . S
C81 C82 1.392 . S
C81 H110 0.947 . S
C82 C81 1.392 . S
C82 C83 1.419 . S
C82 H111 0.948 . S
C83 C82 1.419 . S
C83 C84 1.391 . S
C83 C87 1.397 . S
C84 C79 1.391 . S
C84 C83 1.391 . S
C84 C85 1.399 . S
C85 C84 1.399 . S
C85 C86 1.396 . S
C85 C88 1.453 . S
C85 C89 1.684 . S
C86 C67 1.723 . S
C86 C85 1.396 . S
C86 C87 1.394 . S
C87 C83 1.397 . S
C87 C86 1.394 . S
C87 C97 1.723 . S
C88 C85 1.453 . S
C88 H112 0.982 . S
C88 H113 0.979 . S
C88 H114 0.977 . S
C89 C85 1.684 . S
C89 H115 0.979 . S
C89 H116 0.980 . S
C89 H117 0.983 . S
C90 H66 0.948 . S
C90 C91 1.391 . S
C90 C95 1.391 . S
C91 C90 1.391 . S
C91 C92 1.391 . S
C92 H69 0.947 . S
C92 C91 1.391 . S
C92 C93 1.392 . S
C93 H70 0.948 . S
C93 C92 1.392 . S
C93 C94 1.419 . S
C94 C93 1.419 . S
C94 C95 1.391 . S
C94 C98 1.397 . S
C95 C90 1.391 . S
C95 C94 1.391 . S
C95 C96 1.399 . S
C96 C95 1.399 . S
C96 C97 1.396 . S
C96 C99 1.453 . S
C96 C100 1.684 . S
C97 C87 1.723 . S
C97 C96 1.396 . S
C97 C98 1.394 . S
C98 C68 1.723 . S
C98 C94 1.397 . S
C98 C97 1.394 . S
C99 H71 0.982 . S
C99 H75 0.979 . S
C99 H76 0.977 . S
C99 C96 1.453 . S
C100 H72 0.979 . S
C100 H73 0.980 . S
C100 H74 0.983 . S
C100 C96 1.684 . S
H101 C119 0.948 . S
H102 C60 0.948 . S
H103 C78 0.979 . S
H104 C78 0.980 . S
H105 C78 0.983 . S
H106 C77 0.982 . S
H107 C77 0.979 . S
H108 C77 0.977 . S
H109 C79 0.948 . S
H110 C81 0.947 . S
H111 C82 0.948 . S
H112 C88 0.982 . S
H113 C88 0.979 . S
H114 C88 0.977 . S
H115 C89 0.979 . S
H116 C89 0.980 . S
H117 C89 0.983 . S
H118 C62 0.947 . S
C119 C62 1.392 . S
C119 C63 1.419 . S
C119 H101 0.948 . S
C120 C121 1.391 . S
C120 C124 1.391 . S
C120 H162 0.948 . S
C121 C120 1.391 . S
C121 C122 1.391 . S
C122 C121 1.391 . S
C122 H178 0.947 . S
C122 C179 1.392 . S
C123 C124 1.391 . S
C123 C127 1.397 . S
C123 C179 1.419 . S
C124 C120 1.391 . S
C124 C123 1.391 . S
C124 C125 1.399 . S
C125 C124 1.399 . S
C125 C128 1.396 . S
C125 C137 1.453 . S
C125 C138 1.684 . S
H126 C150 0.948 . S
C127 C123 1.397 . S
C127 C128 1.394 . S
C127 C146 1.723 . S
C128 C125 1.396 . S
C128 C127 1.394 . S
C128 C158 1.723 . S
H129 C152 0.947 . S
H130 C153 0.948 . S
H131 C159 0.982 . S
H132 C160 0.979 . S
H133 C160 0.980 . S
H134 C160 0.983 . S
H135 C159 0.979 . S
H136 C159 0.977 . S
C137 C125 1.453 . S
C137 H166 0.982 . S
C137 H167 0.979 . S
C137 H168 0.977 . S
C138 C125 1.684 . S
C138 H163 0.979 . S
C138 H164 0.980 . S
C138 H165 0.983 . S
C139 C140 1.391 . S
C139 C144 1.391 . S
C139 H169 0.948 . S
C140 C139 1.391 . S
C140 C141 1.391 . S
C141 C140 1.391 . S
C141 C142 1.392 . S
C141 H170 0.947 . S
C142 C141 1.392 . S
C142 C143 1.419 . S
C142 H171 0.948 . S
C143 C142 1.419 . S
C143 C144 1.391 . S
C143 C147 1.397 . S
C144 C139 1.391 . S
C144 C143 1.391 . S
C144 C145 1.399 . S
C145 C144 1.399 . S
C145 C146 1.396 . S
C145 C148 1.453 . S
C145 C149 1.684 . S
C146 C127 1.723 . S
C146 C145 1.396 . S
C146 C147 1.394 . S
C147 C143 1.397 . S
C147 C146 1.394 . S
C147 C157 1.723 . S
C148 C145 1.453 . S
C148 H172 0.982 . S
C148 H173 0.979 . S
C148 H174 0.977 . S
C149 C145 1.684 . S
C149 H175 0.979 . S
C149 H176 0.980 . S
C149 H177 0.983 . S
C150 H126 0.948 . S
C150 C151 1.391 . S
C150 C155 1.391 . S
C151 C150 1.391 . S
C151 C152 1.391 . S
C152 H129 0.947 . S
C152 C151 1.391 . S
C152 C153 1.392 . S
C153 H130 0.948 . S
C153 C152 1.392 . S
C153 C154 1.419 . S
C154 C153 1.419 . S
C154 C155 1.391 . S
C154 C158 1.397 . S
C155 C150 1.391 . S
C155 C154 1.391 . S
C155 C156 1.399 . S
C156 C155 1.399 . S
C156 C157 1.396 . S
C156 C159 1.453 . S
C156 C160 1.684 . S
C157 C147 1.723 . S
C157 C156 1.396 . S
C157 C158 1.394 . S
C158 C128 1.723 . S
C158 C154 1.397 . S
C158 C157 1.394 . S
C159 H131 0.982 . S
C159 H135 0.979 . S
C159 H136 0.977 . S
C159 C156 1.453 . S
C160 H132 0.979 . S
C160 H133 0.980 . S
C160 H134 0.983 . S
C160 C156 1.684 . S
H161 C179 0.948 . S
H162 C120 0.948 . S
H163 C138 0.979 . S
H164 C138 0.980 . S
H165 C138 0.983 . S
H166 C137 0.982 . S
H167 C137 0.979 . S
H168 C137 0.977 . S
H169 C139 0.948 . S
H170 C141 0.947 . S
H171 C142 0.948 . S
H172 C148 0.982 . S
H173 C148 0.979 . S
H174 C148 0.977 . S
H175 C149 0.979 . S
H176 C149 0.980 . S
H177 C149 0.983 . S
H178 C122 0.947 . S
C179 C122 1.392 . S
C179 C123 1.419 . S
C179 H161 0.948 . S
C180 C181 1.391 . S
C180 C184 1.391 . S
C180 H222 0.948 . S
C181 C180 1.391 . S
C181 C182 1.391 . S
C182 C181 1.391 . S
C182 H238 0.947 . S
C182 C239 1.392 . S
C183 C184 1.391 . S
C183 C187 1.397 . S
C183 C239 1.419 . S
C184 C180 1.391 . S
C184 C183 1.391 . S
C184 C185 1.399 . S
C185 C184 1.399 . S
C185 C188 1.396 . S
C185 C197 1.453 . S
C185 C198 1.684 . S
H186 C210 0.948 . S
C187 C183 1.397 . S
C187 C188 1.394 . S
C187 C206 1.723 . S
C188 C185 1.396 . S
C188 C187 1.394 . S
C188 C218 1.723 . S
H189 C212 0.947 . S
H190 C213 0.948 . S
H191 C219 0.982 . S
H192 C220 0.979 . S
H193 C220 0.980 . S
H194 C220 0.983 . S
H195 C219 0.979 . S
H196 C219 0.977 . S
C197 C185 1.453 . S
C197 H226 0.982 . S
C197 H227 0.979 . S
C197 H228 0.977 . S
C198 C185 1.684 . S
C198 H223 0.979 . S
C198 H224 0.980 . S
C198 H225 0.983 . S
C199 C200 1.391 . S
C199 C204 1.391 . S
C199 H229 0.948 . S
C200 C199 1.391 . S
C200 C201 1.391 . S
C201 C200 1.391 . S
C201 C202 1.392 . S
C201 H230 0.947 . S
C202 C201 1.392 . S
C202 C203 1.419 . S
C202 H231 0.948 . S
C203 C202 1.419 . S
C203 C204 1.391 . S
C203 C207 1.397 . S
C204 C199 1.391 . S
C204 C203 1.391 . S
C204 C205 1.399 . S
C205 C204 1.399 . S
C205 C206 1.396 . S
C205 C208 1.453 . S
C205 C209 1.684 . S
C206 C187 1.723 . S
C206 C205 1.396 . S
C206 C207 1.394 . S
C207 C203 1.397 . S
C207 C206 1.394 . S
C207 C217 1.723 . S
C208 C205 1.453 . S
C208 H232 0.982 . S
C208 H233 0.979 . S
C208 H234 0.977 . S
C209 C205 1.684 . S
C209 H235 0.979 . S
C209 H236 0.980 . S
C209 H237 0.983 . S
C210 H186 0.948 . S
C210 C211 1.391 . S
C210 C215 1.391 . S
C211 C210 1.391 . S
C211 C212 1.391 . S
C212 H189 0.947 . S
C212 C211 1.391 . S
C212 C213 1.392 . S
C213 H190 0.948 . S
C213 C212 1.392 . S
C213 C214 1.419 . S
C214 C213 1.419 . S
C214 C215 1.391 . S
C214 C218 1.397 . S
C215 C210 1.391 . S
C215 C214 1.391 . S
C215 C216 1.399 . S
C216 C215 1.399 . S
C216 C217 1.396 . S
C216 C219 1.453 . S
C216 C220 1.684 . S
C217 C207 1.723 . S
C217 C216 1.396 . S
C217 C218 1.394 . S
C218 C188 1.723 . S
C218 C214 1.397 . S
C218 C217 1.394 . S
C219 H191 0.982 . S
C219 H195 0.979 . S
C219 H196 0.977 . S
C219 C216 1.453 . S
C220 H192 0.979 . S
C220 H193 0.980 . S
C220 H194 0.983 . S
C220 C216 1.684 . S
H221 C239 0.948 . S
H222 C180 0.948 . S
H223 C198 0.979 . S
H224 C198 0.980 . S
H225 C198 0.983 . S
H226 C197 0.982 . S
H227 C197 0.979 . S
H228 C197 0.977 . S
H229 C199 0.948 . S
H230 C201 0.947 . S
H231 C202 0.948 . S
H232 C208 0.982 . S
H233 C208 0.979 . S
H234 C208 0.977 . S
H235 C209 0.979 . S
H236 C209 0.980 . S
H237 C209 0.983 . S
H238 C182 0.947 . S
C239 C182 1.392 . S
C239 C183 1.419 . S
C239 H221 0.948 . S
C240 C241 1.391 . S
C240 C244 1.391 . S
C240 H282 0.948 . S
C241 C240 1.391 . S
C241 C242 1.391 . S
C242 C241 1.391 . S
C242 H298 0.947 . S
C242 C299 1.392 . S
C243 C244 1.391 . S
C243 C247 1.397 . S
C243 C299 1.419 . S
C244 C240 1.391 . S
C244 C243 1.391 . S
C244 C245 1.399 . S
C245 C244 1.399 . S
C245 C248 1.396 . S
C245 C257 1.453 . S
C245 C258 1.684 . S
H246 C270 0.948 . S
C247 C243 1.397 . S
C247 C248 1.394 . S
C247 C266 1.723 . S
C248 C245 1.396 . S
C248 C247 1.394 . S
C248 C278 1.723 . S
H249 C272 0.947 . S
H250 C273 0.948 . S
H251 C279 0.982 . S
H252 C280 0.979 . S
H253 C280 0.980 . S
H254 C280 0.983 . S
H255 C279 0.979 . S
H256 C279 0.977 . S
C257 C245 1.453 . S
C257 H286 0.982 . S
C257 H287 0.979 . S
C257 H288 0.977 . S
C258 C245 1.684 . S
C258 H283 0.979 . S
C258 H284 0.980 . S
C258 H285 0.983 . S
C259 C260 1.391 . S
C259 C264 1.391 . S
C259 H289 0.948 . S
C260 C259 1.391 . S
C260 C261 1.391 . S
C261 C260 1.391 . S
C261 C262 1.392 . S
C261 H290 0.947 . S
C262 C261 1.392 . S
C262 C263 1.419 . S
C262 H291 0.948 . S
C263 C262 1.419 . S
C263 C264 1.391 . S
C263 C267 1.397 . S
C264 C259 1.391 . S
C264 C263 1.391 . S
C264 C265 1.399 . S
C265 C264 1.399 . S
C265 C266 1.396 . S
C265 C268 1.453 . S
C265 C269 1.684 . S
C266 C247 1.723 . S
C266 C265 1.396 . S
C266 C267 1.394 . S
C267 C263 1.397 . S
C267 C266 1.394 . S
C267 C277 1.723 . S
C268 C265 1.453 . S
C268 H292 0.982 . S
C268 H293 0.979 . S
C268 H294 0.977 . S
C269 C265 1.684 . S
C269 H295 0.979 . S
C269 H296 0.980 . S
C269 H297 0.983 . S
C270 H246 0.948 . S
C270 C271 1.391 . S
C270 C275 1.391 . S
C271 C270 1.391 . S
C271 C272 1.391 . S
C272 H249 0.947 . S
C272 C271 1.391 . S
C272 C273 1.392 . S
C273 H250 0.948 . S
C273 C272 1.392 . S
C273 C274 1.419 . S
C274 C273 1.419 . S
C274 C275 1.391 . S
C274 C278 1.397 . S
C275 C270 1.391 . S
C275 C274 1.391 . S
C275 C276 1.399 . S
C276 C275 1.399 . S
C276 C277 1.396 . S
C276 C279 1.453 . S
C276 C280 1.684 . S
C277 C267 1.723 . S
C277 C276 1.396 . S
C277 C278 1.394 . S
C278 C248 1.723 . S
C278 C274 1.397 . S
C278 C277 1.394 . S
C279 H251 0.982 . S
C279 H255 0.979 . S
C279 H256 0.977 . S
C279 C276 1.453 . S
C280 H252 0.979 . S
C280 H253 0.980 . S
C280 H254 0.983 . S
C280 C276 1.684 . S
H281 C299 0.948 . S
H282 C240 0.948 . S
H283 C258 0.979 . S
H284 C258 0.980 . S
H285 C258 0.983 . S
H286 C257 0.982 . S
H287 C257 0.979 . S
H288 C257 0.977 . S
H289 C259 0.948 . S
H290 C261 0.947 . S
H291 C262 0.948 . S
H292 C268 0.982 . S
H293 C268 0.979 . S
H294 C268 0.977 . S
H295 C269 0.979 . S
H296 C269 0.980 . S
H297 C269 0.983 . S
H298 C242 0.947 . S
C299 C242 1.392 . S
C299 C243 1.419 . S
C299 H281 0.948 . S
C300 C301 1.391 . S
C300 C304 1.391 . S
C300 H342 0.948 . S
C301 C300 1.391 . S
C301 C302 1.391 . S
C302 C301 1.391 . S
C302 H358 0.947 . S
C302 C359 1.392 . S
C303 C304 1.391 . S
C303 C307 1.397 . S
C303 C359 1.419 . S
C304 C300 1.391 . S
C304 C303 1.391 . S
C304 C305 1.399 . S
C305 C304 1.399 . S
C305 C308 1.396 . S
C305 C317 1.453 . S
C305 C318 1.684 . S
H306 C330 0.948 . S
C307 C303 1.397 . S
C307 C308 1.394 . S
C307 C326 1.723 . S
C308 C305 1.396 . S
C308 C307 1.394 . S
C308 C338 1.723 . S
H309 C332 0.947 . S
H310 C333 0.948 . S
H311 C339 0.982 . S
H312 C340 0.979 . S
H313 C340 0.980 . S
H314 C340 0.983 . S
H315 C339 0.979 . S
H316 C339 0.977 . S
C317 C305 1.453 . S
C317 H346 0.982 . S
C317 H347 0.979 . S
C317 H348 0.977 . S
C318 C305 1.684 . S
C318 H343 0.979 . S
C318 H344 0.980 . S
C318 H345 0.983 . S
C319 C320 1.391 . S
C319 C324 1.391 . S
C319 H349 0.948 . S
C320 C319 1.391 . S
C320 C321 1.391 . S
C321 C320 1.391 . S
C321 C322 1.392 . S
C321 H350 0.947 . S
C322 C321 1.392 . S
C322 C323 1.419 . S
C322 H351 0.948 . S
C323 C322 1.419 . S
C323 C324 1.391 . S
C323 C327 1.397 . S
C324 C319 1.391 . S
C324 C323 1.391 . S
C324 C325 1.399 . S
C325 C324 1.399 . S
C325 C326 1.396 . S
C325 C328 1.453 . S
C325 C329 1.684 . S
C326 C307 1.723 . S
C326 C325 1.396 . S
C326 C327 1.394 . S
C327 C323 1.397 . S
C327 C326 1.394 . S
C327 C337 1.723 . S
C328 C325 1.453 . S
C328 H352 0.982 . S
C328 H353 0.979 . S
C328 H354 0.977 . S
C329 C325 1.684 . S
C329 H355 0.979 . S
C329 H356 0.980 . S
C329 H357 0.983 . S
C330 H306 0.948 . S
C330 C331 1.391 . S
C330 C335 1.391 . S
C331 C330 1.391 . S
C331 C332 1.391 . S
C332 H309 0.947 . S
C332 C331 1.391 . S
C332 C333 1.392 . S
C333 H310 0.948 . S
C333 C332 1.392 . S
C333 C334 1.419 . S
C334 C333 1.419 . S
C334 C335 1.391 . S
C334 C338 1.397 . S
C335 C330 1.391 . S
C335 C334 1.391 . S
C335 C336 1.399 . S
C336 C335 1.399 . S
C336 C337 1.396 . S
C336 C339 1.453 . S
C336 C340 1.684 . S
C337 C327 1.723 . S
C337 C336 1.396 . S
C337 C338 1.394 . S
C338 C308 1.723 . S
C338 C334 1.397 . S
C338 C337 1.394 . S
C339 H311 0.982 . S
C339 H315 0.979 . S
C339 H316 0.977 . S
C339 C336 1.453 . S
C340 H312 0.979 . S
C340 H313 0.980 . S
C340 H314 0.983 . S
C340 C336 1.684 . S
H341 C359 0.948 . S
H342 C300 0.948 . S
H343 C318 0.979 . S
H344 C318 0.980 . S
H345 C318 0.983 . S
H346 C317 0.982 . S
H347 C317 0.979 . S
H348 C317 0.977 . S
H349 C319 0.948 . S
H350 C321 0.947 . S
H351 C322 0.948 . S
H352 C328 0.982 . S
H353 C328 0.979 . S
H354 C328 0.977 . S
H355 C329 0.979 . S
H356 C329 0.980 . S
H357 C329 0.983 . S
H358 C302 0.947 . S
C359 C302 1.392 . S
C359 C303 1.419 . S
C359 H341 0.948 . S
C360 C361 1.391 . S
C360 C364 1.391 . S
C360 H402 0.948 . S
C361 C360 1.391 . S
C361 C362 1.391 . S
C362 C361 1.391 . S
C362 H418 0.947 . S
C362 C419 1.392 . S
C363 C364 1.391 . S
C363 C367 1.397 . S
C363 C419 1.419 . S
C364 C360 1.391 . S
C364 C363 1.391 . S
C364 C365 1.399 . S
C365 C364 1.399 . S
C365 C368 1.396 . S
C365 C377 1.453 . S
C365 C378 1.684 . S
H366 C390 0.948 . S
C367 C363 1.397 . S
C367 C368 1.394 . S
C367 C386 1.723 . S
C368 C365 1.396 . S
C368 C367 1.394 . S
C368 C398 1.723 . S
H369 C392 0.947 . S
H370 C393 0.948 . S
H371 C399 0.982 . S
H372 C400 0.979 . S
H373 C400 0.980 . S
H374 C400 0.983 . S
H375 C399 0.979 . S
H376 C399 0.977 . S
C377 C365 1.453 . S
C377 H406 0.982 . S
C377 H407 0.979 . S
C377 H408 0.977 . S
C378 C365 1.684 . S
C378 H403 0.979 . S
C378 H404 0.980 . S
C378 H405 0.983 . S
C379 C380 1.391 . S
C379 C384 1.391 . S
C379 H409 0.948 . S
C380 C379 1.391 . S
C380 C381 1.391 . S
C381 C380 1.391 . S
C381 C382 1.392 . S
C381 H410 0.947 . S
C382 C381 1.392 . S
C382 C383 1.419 . S
C382 H411 0.948 . S
C383 C382 1.419 . S
C383 C384 1.391 . S
C383 C387 1.397 . S
C384 C379 1.391 . S
C384 C383 1.391 . S
C384 C385 1.399 . S
C385 C384 1.399 . S
C385 C386 1.396 . S
C385 C388 1.453 . S
C385 C389 1.684 . S
C386 C367 1.723 . S
C386 C385 1.396 . S
C386 C387 1.394 . S
C387 C383 1.397 . S
C387 C386 1.394 . S
C387 C397 1.723 . S
C388 C385 1.453 . S
C388 H412 0.982 . S
C388 H413 0.979 . S
C388 H414 0.977 . S
C389 C385 1.684 . S
C389 H415 0.979 . S
C389 H416 0.980 . S
C389 H417 0.983 . S
C390 H366 0.948 . S
C390 C391 1.391 . S
C390 C395 1.391 . S
C391 C390 1.391 . S
C391 C392 1.391 . S
C392 H369 0.947 . S
C392 C391 1.391 . S
C392 C393 1.392 . S
C393 H370 0.948 . S
C393 C392 1.392 . S
C393 C394 1.419 . S
C394 C393 1.419 . S
C394 C395 1.391 . S
C394 C398 1.397 . S
C395 C390 1.391 . S
C395 C394 1.391 . S
C395 C396 1.399 . S
C396 C395 1.399 . S
C396 C397 1.396 . S
C396 C399 1.453 . S
C396 C400 1.684 . S
C397 C387 1.723 . S
C397 C396 1.396 . S
C397 C398 1.394 . S
C398 C368 1.723 . S
C398 C394 1.397 . S
C398 C397 1.394 . S
C399 H371 0.982 . S
C399 H375 0.979 . S
C399 H376 0.977 . S
C399 C396 1.453 . S
C400 H372 0.979 . S
C400 H373 0.980 . S
C400 H374 0.983 . S
C400 C396 1.684 . S
H401 C419 0.948 . S
H402 C360 0.948 . S
H403 C378 0.979 . S
H404 C378 0.980 . S
H405 C378 0.983 . S
H406 C377 0.982 . S
H407 C377 0.979 . S
H408 C377 0.977 . S
H409 C379 0.948 . S
H410 C381 0.947 . S
H411 C382 0.948 . S
H412 C388 0.982 . S
H413 C388 0.979 . S
H414 C388 0.977 . S
H415 C389 0.979 . S
H416 C389 0.980 . S
H417 C389 0.983 . S
H418 C362 0.947 . S
C419 C362 1.392 . S
C419 C363 1.419 . S
C419 H401 0.948 . S
C420 C421 1.391 . S
C420 C424 1.391 . S
C420 H462 0.948 . S
C421 C420 1.391 . S
C421 C422 1.391 . S
C422 C421 1.391 . S
C422 H478 0.947 . S
C422 C479 1.392 . S
C423 C424 1.391 . S
C423 C427 1.397 . S
C423 C479 1.419 . S
C424 C420 1.391 . S
C424 C423 1.391 . S
C424 C425 1.399 . S
C425 C424 1.399 . S
C425 C428 1.396 . S
C425 C437 1.453 . S
C425 C438 1.684 . S
H426 C450 0.948 . S
C427 C423 1.397 . S
C427 C428 1.394 . S
C427 C446 1.723 . S
C428 C425 1.396 . S
C428 C427 1.394 . S
C428 C458 1.723 . S
H429 C452 0.947 . S
H430 C453 0.948 . S
H431 C459 0.982 . S
H432 C460 0.979 . S
H433 C460 0.980 . S
H434 C460 0.983 . S
H435 C459 0.979 . S
H436 C459 0.977 . S
C437 C425 1.453 . S
C437 H466 0.982 . S
C437 H467 0.979 . S
C437 H468 0.977 . S
C438 C425 1.684 . S
C438 H463 0.979 . S
C438 H464 0.980 . S
C438 H465 0.983 . S
C439 C440 1.391 . S
C439 C444 1.391 . S
C439 H469 0.948 . S
C440 C439 1.391 . S
C440 C441 1.391 . S
C441 C440 1.391 . S
C441 C442 1.392 . S
C441 H470 0.947 . S
C442 C441 1.392 . S
C442 C443 1.419 . S
C442 H471 0.948 . S
C443 C442 1.419 . S
C443 C444 1.391 . S
C443 C447 1.397 . S
C444 C439 1.391 . S
C444 C443 1.391 . S
C444 C445 1.399 . S
C445 C444 1.399 . S
C445 C446 1.396 . S
C445 C448 1.453 . S
C445 C449 1.684 . S
C446 C427 1.723 . S
C446 C445 1.396 . S
C446 C447 1.394 . S
C447 C443 1.397 . S
C447 C446 1.394 . S
C447 C457 1.723 . S
C448 C445 1.453 . S
C448 H472 0.982 . S
C448 H473 0.979 . S
C448 H474 0.977 . S
C449 C445 1.684 . S
C449 H475 0.979 . S
C449 H476 0.980 . S
C449 H477 0.983 . S
C450 H426 0.948 . S
C450 C451 1.391 . S
C450 C455 1.391 . S
C451 C450 1.391 . S
C451 C452 1.391 . S
C452 H429 0.947 . S
C452 C451 1.391 . S
C452 C453 1.392 . S
C453 H430 0.948 . S
C453 C452 1.392 . S
C453 C454 1.419 . S
C454 C453 1.419 . S
C454 C455 1.391 . S
C454 C458 1.397 . S
C455 C450 1.391 . S
C455 C454 1.391 . S
C455 C456 1.399 . S
C456 C455 1.399 . S
C456 C457 1.396 . S
C456 C459 1.453 . S
C456 C460 1.684 . S
C457 C447 1.723 . S
C457 C456 1.396 . S
C457 C458 1.394 . S
C458 C428 1.723 . S
C458 C454 1.397 . S
C458 C457 1.394 . S
C459 H431 0.982 . S
C459 H435 0.979 . S
C459 H436 0.977 . S
C459 C456 1.453 . S
C460 H432 0.979 . S
C460 H433 0.980 . S
C460 H434 0.983 . S
C460 C456 1.684 . S
H461 C479 0.948 . S
H462 C420 0.948 . S
H463 C438 0.979 . S
H464 C438 0.980 . S
H465 C438 0.983 . S
H466 C437 0.982 . S
H467 C437 0.979 . S
H468 C437 0.977 . S
H469 C439 0.948 . S
H470 C441 0.947 . S
H471 C442 0.948 . S
H472 C448 0.982 . S
H473 C448 0.979 . S
H474 C448 0.977 . S
H475 C449 0.979 . S
H476 C449 0.980 . S
H477 C449 0.983 . S
H478 C422 0.947 . S
C479 C422 1.392 . S
C479 C423 1.419 . S
C479 H461 0.948 . S
C480 C481 1.391 . S
C480 C484 1.391 . S
C480 H522 0.948 . S
C481 C480 1.391 . S
C481 C482 1.391 . S
C482 C481 1.391 . S
C482 H538 0.947 . S
C482 C539 1.392 . S
C483 C484 1.391 . S
C483 C487 1.397 . S
C483 C539 1.419 . S
C484 C480 1.391 . S
C484 C483 1.391 . S
C484 C485 1.399 . S
C485 C484 1.399 . S
C485 C488 1.396 . S
C485 C497 1.453 . S
C485 C498 1.684 . S
H486 C510 0.948 . S
C487 C483 1.397 . S
C487 C488 1.394 . S
C487 C506 1.723 . S
C488 C485 1.396 . S
C488 C487 1.394 . S
C488 C518 1.723 . S
H489 C512 0.947 . S
H490 C513 0.948 . S
H491 C519 0.982 . S
H492 C520 0.979 . S
H493 C520 0.980 . S
H494 C520 0.983 . S
H495 C519 0.979 . S
H496 C519 0.977 . S
C497 C485 1.453 . S
C497 H526 0.982 . S
C497 H527 0.979 . S
C497 H528 0.977 . S
C498 C485 1.684 . S
C498 H523 0.979 . S
C498 H524 0.980 . S
C498 H525 0.983 . S
C499 C500 1.391 . S
C499 C504 1.391 . S
C499 H529 0.948 . S
C500 C499 1.391 . S
C500 C501 1.391 . S
C501 C500 1.391 . S
C501 C502 1.392 . S
C501 H530 0.947 . S
C502 C501 1.392 . S
C502 C503 1.419 . S
C502 H531 0.948 . S
C503 C502 1.419 . S
C503 C504 1.391 . S
C503 C507 1.397 . S
C504 C499 1.391 . S
C504 C503 1.391 . S
C504 C505 1.399 . S
C505 C504 1.399 . S
C505 C506 1.396 . S
C505 C508 1.453 . S
C505 C509 1.684 . S
C506 C487 1.723 . S
C506 C505 1.396 . S
C506 C507 1.394 . S
C507 C503 1.397 . S
C507 C506 1.394 . S
C507 C517 1.723 . S
C508 C505 1.453 . S
C508 H532 0.982 . S
C508 H533 0.979 . S
C508 H534 0.977 . S
C509 C505 1.684 . S
C509 H535 0.979 . S
C509 H536 0.980 . S
C509 H537 0.983 . S
C510 H486 0.948 . S
C510 C511 1.391 . S
C510 C515 1.391 . S
C511 C510 1.391 . S
C511 C512 1.391 . S
C512 H489 0.947 . S
C512 C511 1.391 . S
C512 C513 1.392 . S
C513 H490 0.948 . S
C513 C512 1.392 . S
C513 C514 1.419 . S
C514 C513 1.419 . S
C514 C515 1.391 . S
C514 C518 1.397 . S
C515 C510 1.391 . S
C515 C514 1.391 . S
C515 C516 1.399 . S
C516 C515 1.399 . S
C516 C517 1.396 . S
C516 C519 1.453 . S
C516 C520 1.684 . S
C517 C507 1.723 . S
C517 C516 1.396 . S
C517 C518 1.394 . S
C518 C488 1.723 . S
C518 C514 1.397 . S
C518 C517 1.394 . S
C519 H491 0.982 . S
C519 H495 0.979 . S
C519 H496 0.977 . S
C519 C516 1.453 . S
C520 H492 0.979 . S
C520 H493 0.980 . S
C520 H494 0.983 . S
C520 C516 1.684 . S
H521 C539 0.948 . S
H522 C480 0.948 . S
H523 C498 0.979 . S
H524 C498 0.980 . S
H525 C498 0.983 . S
H526 C497 0.982 . S
H527 C497 0.979 . S
H528 C497 0.977 . S
H529 C499 0.948 . S
H530 C501 0.947 . S
H531 C502 0.948 . S
H532 C508 0.982 . S
H533 C508 0.979 . S
H534 C508 0.977 . S
H535 C509 0.979 . S
H536 C509 0.980 . S
H537 C509 0.983 . S
H538 C482 0.947 . S
C539 C482 1.392 . S
C539 C483 1.419 . S
C539 H521 0.948 . S
C540 C541 1.391 . S
C540 C544 1.391 . S
C540 H582 0.948 . S
C541 C540 1.391 . S
C541 C542 1.391 . S
C542 C541 1.391 . S
C542 H598 0.947 . S
C542 C599 1.392 . S
C543 C544 1.391 . S
C543 C547 1.397 . S
C543 C599 1.419 . S
C544 C540 1.391 . S
C544 C543 1.391 . S
C544 C545 1.399 . S
C545 C544 1.399 . S
C545 C548 1.396 . S
C545 C557 1.453 . S
C545 C558 1.684 . S
H546 C570 0.948 . S
C547 C543 1.397 . S
C547 C548 1.394 . S
C547 C566 1.723 . S
C548 C545 1.396 . S
C548 C547 1.394 . S
C548 C578 1.723 . S
H549 C572 0.947 . S
H550 C573 0.948 . S
H551 C579 0.982 . S
H552 C580 0.979 . S
H553 C580 0.980 . S
H554 C580 0.983 . S
H555 C579 0.979 . S
H556 C579 0.977 . S
C557 C545 1.453 . S
C557 H586 0.982 . S
C557 H587 0.979 . S
C557 H588 0.977 . S
C558 C545 1.684 . S
C558 H583 0.979 . S
C558 H584 0.980 . S
C558 H585 0.983 . S
C559 C560 1.391 . S
C559 C564 1.391 . S
C559 H589 0.948 . S
C560 C559 1.391 . S
C560 C561 1.391 . S
C561 C560 1.391 . S
C561 C562 1.392 . S
C561 H590 0.947 . S
C562 C561 1.392 . S
C562 C563 1.419 . S
C562 H591 0.948 . S
C563 C562 1.419 . S
C563 C564 1.391 . S
C563 C567 1.397 . S
C564 C559 1.391 . S
C564 C563 1.391 . S
C564 C565 1.399 . S
C565 C564 1.399 . S
C565 C566 1.396 . S
C565 C568 1.453 . S
C565 C569 1.684 . S
C566 C547 1.723 . S
C566 C565 1.396 . S
C566 C567 1.394 . S
C567 C563 1.397 . S
C567 C566 1.394 . S
C567 C577 1.723 . S
C568 C565 1.453 . S
C568 H592 0.982 . S
C568 H593 0.979 . S
C568 H594 0.977 . S
C569 C565 1.684 . S
C569 H595 0.979 . S
C569 H596 0.980 . S
C569 H597 0.983 . S
C570 H546 0.948 . S
C570 C571 1.391 . S
C570 C575 1.391 . S
C571 C570 1.391 . S
C571 C572 1.391 . S
C572 H549 0.947 . S
C572 C571 1.391 . S
C572 C573 1.392 . S
C573 H550 0.948 . S
C573 C572 1.392 . S
C573 C574 1.419 . S
C574 C573 1.419 . S
C574 C575 1.391 . S
C574 C578 1.397 . S
C575 C570 1.391 . S
C575 C574 1.391 . S
C575 C576 1.399 . S
C576 C575 1.399 . S
C576 C577 1.396 . S
C576 C579 1.453 . S
C576 C580 1.684 . S
C577 C567 1.723 . S
C577 C576 1.396 . S
C577 C578 1.394 . S
C578 C548 1.723 . S
C578 C574 1.397 . S
C578 C577 1.394 . S
C579 H551 0.982 . S
C579 H555 0.979 . S
C579 H556 0.977 . S
C579 C576 1.453 . S
C580 H552 0.979 . S
C580 H553 0.980 . S
C580 H554 0.983 . S
C580 C576 1.684 . S
H581 C599 0.948 . S
H582 C540 0.948 . S
H583 C558 0.979 . S
H584 C558 0.980 . S
H585 C558 0.983 . S
H586 C557 0.982 . S
H587 C557 0.979 . S
H588 C557 0.977 . S
H589 C559 0.948 . S
H590 C561 0.947 . S
H591 C562 0.948 . S
H592 C568 0.982 . S
H593 C568 0.979 . S
H594 C568 0.977 . S
H595 C569 0.979 . S
H596 C569 0.980 . S
H597 C569 0.983 . S
H598 C542 0.947 . S
C599 C542 1.392 . S
C599 C543 1.419 . S
C599 H581 0.948 . S
C600 C601 1.391 . S
C600 C604 1.391 . S
C600 H642 0.948 . S
C601 C600 1.391 . S
C601 C602 1.391 . S
C602 C601 1.391 . S
C602 H658 0.947 . S
C602 C659 1.392 . S
C603 C604 1.391 . S
C603 C607 1.397 . S
C603 C659 1.419 . S
C604 C600 1.391 . S
C604 C603 1.391 . S
C604 C605 1.399 . S
C605 C604 1.399 . S
C605 C608 1.396 . S
C605 C617 1.453 . S
C605 C618 1.684 . S
H606 C630 0.948 . S
C607 C603 1.397 . S
C607 C608 1.394 . S
C607 C626 1.723 . S
C608 C605 1.396 . S
C608 C607 1.394 . S
C608 C638 1.723 . S
H609 C632 0.947 . S
H610 C633 0.948 . S
H611 C639 0.982 . S
H612 C640 0.979 . S
H613 C640 0.980 . S
H614 C640 0.983 . S
H615 C639 0.979 . S
H616 C639 0.977 . S
C617 C605 1.453 . S
C617 H646 0.982 . S
C617 H647 0.979 . S
C617 H648 0.977 . S
C618 C605 1.684 . S
C618 H643 0.979 . S
C618 H644 0.980 . S
C618 H645 0.983 . S
C619 C620 1.391 . S
C619 C624 1.391 . S
C619 H649 0.948 . S
C620 C619 1.391 . S
C620 C621 1.391 . S
C621 C620 1.391 . S
C621 C622 1.392 . S
C621 H650 0.947 . S
C622 C621 1.392 . S
C622 C623 1.419 . S
C622 H651 0.948 . S
C623 C622 1.419 . S
C623 C624 1.391 . S
C623 C627 1.397 . S
C624 C619 1.391 . S
C624 C623 1.391 . S
C624 C625 1.399 . S
C625 C624 1.399 . S
C625 C626 1.396 . S
C625 C628 1.453 . S
C625 C629 1.684 . S
C626 C607 1.723 . S
C626 C625 1.396 . S
C626 C627 1.394 . S
C627 C623 1.397 . S
C627 C626 1.394 . S
C627 C637 1.723 . S
C628 C625 1.453 . S
C628 H652 0.982 . S
C628 H653 0.979 . S
C628 H654 0.977 . S
C629 C625 1.684 . S
C629 H655 0.979 . S
C629 H656 0.980 . S
C629 H657 0.983 . S
C630 H606 0.948 . S
C630 C631 1.391 . S
C630 C635 1.391 . S
C631 C630 1.391 . S
C631 C632 1.391 . S
C632 H609 0.947 . S
C632 C631 1.391 . S
C632 C633 1.392 . S
C633 H610 0.948 . S
C633 C632 1.392 . S
C633 C634 1.419 . S
C634 C633 1.419 . S
C634 C635 1.391 . S
C634 C638 1.397 . S
C635 C630 1.391 . S
C635 C634 1.391 . S
C635 C636 1.399 . S
C636 C635 1.399 . S
C636 C637 1.396 . S
C636 C639 1.453 . S
C636 C640 1.684 . S
C637 C627 1.723 . S
C637 C636 1.396 . S
C637 C638 1.394 . S
C638 C608 1.723 . S
C638 C634 1.397 . S
C638 C637 1.394 . S
C639 H611 0.982 . S
C639 H615 0.979 . S
C639 H616 0.977 . S
C639 C636 1.453 . S
C640 H612 0.979 . S
C640 H613 0.980 . S
C640 H614 0.983 . S
C640 C636 1.684 . S
H641 C659 0.948 . S
H642 C600 0.948 . S
H643 C618 0.979 . S
H644 C618 0.980 . S
H645 C618 0.983 . S
H646 C617 0.982 . S
H647 C617 0.979 . S
H648 C617 0.977 . S
H649 C619 0.948 . S
H650 C621 0.947 . S
H651 C622 0.948 . S
H652 C628 0.982 . S
H653 C628 0.979 . S
H654 C628 0.977 . S
H655 C629 0.979 . S
H656 C629 0.980 . S
H657 C629 0.983 . S
H658 C602 0.947 . S
C659 C602 1.392 . S
C659 C603 1.419 . S
C659 H641 0.948 . S
C660 C661 1.391 . S
C660 C664 1.391 . S
C660 H702 0.948 . S
C661 C660 1.391 . S
C661 C662 1.391 . S
C662 C661 1.391 . S
C662 H718 0.947 . S
C662 C719 1.392 . S
C663 C664 1.391 . S
C663 C667 1.397 . S
C663 C719 1.419 . S
C664 C660 1.391 . S
C664 C663 1.391 . S
C664 C665 1.399 . S
C665 C664 1.399 . S
C665 C668 1.396 . S
C665 C677 1.453 . S
C665 C678 1.684 . S
H666 C690 0.948 . S
C667 C663 1.397 . S
C667 C668 1.394 . S
C667 C686 1.723 . S
C668 C665 1.396 . S
C668 C667 1.394 . S
C668 C698 1.723 . S
H669 C692 0.947 . S
H670 C693 0.948 . S
H671 C699 0.982 . S
H672 C700 0.979 . S
H673 C700 0.980 . S
H674 C700 0.983 . S
H675 C699 0.979 . S
H676 C699 0.977 . S
C677 C665 1.453 . S
C677 H706 0.982 . S
C677 H707 0.979 . S
C677 H708 0.977 . S
C678 C665 1.684 . S
C678 H703 0.979 . S
C678 H704 0.980 . S
C678 H705 0.983 . S
C679 C680 1.391 . S
C679 C684 1.391 . S
C679 H709 0.948 . S
C680 C679 1.391 . S
C680 C681 1.391 . S
C681 C680 1.391 . S
C681 C682 1.392 . S
C681 H710 0.947 . S
C682 C681 1.392 . S
C682 C683 1.419 . S
C682 H711 0.948 . S
C683 C682 1.419 . S
C683 C684 1.391 . S
C683 C687 1.397 . S
C684 C679 1.391 . S
C684 C683 1.391 . S
C684 C685 1.399 . S
C685 C684 1.399 . S
C685 C686 1.396 . S
C685 C688 1.453 . S
C685 C689 1.684 . S
C686 C667 1.723 . S
C686 C685 1.396 . S
C686 C687 1.394 . S
C687 C683 1.397 . S
C687 C686 1.394 . S
C687 C697 1.723 . S
C688 C685 1.453 . S
C688 H712 0.982 . S
C688 H713 0.979 . S
C688 H714 0.977 . S
C689 C685 1.684 . S
C689 H715 0.979 . S
C689 H716 0.980 . S
C689 H717 0.983 . S
C690 H666 0.948 . S
C690 C691 1.391 . S
C690 C695 1.391 . S
C691 C690 1.391 . S
C691 C692 1.391 . S
C692 H669 0.947 . S
C692 C691 1.391 . S
C692 C693 1.392 . S
C693 H670 0.948 . S
C693 C692 1.392 . S
C693 C694 1.419 . S
C694 C693 1.419 . S
C694 C695 1.391 . S
C694 C698 1.397 . S
C695 C690 1.391 . S
C695 C694 1.391 . S
C695 C696 1.399 . S
C696 C695 1.399 . S
C696 C697 1.396 . S
C696 C699 1.453 . S
C696 C700 1.684 . S
C697 C687 1.723 . S
C697 C696 1.396 . S
C697 C698 1.394 . S
C698 C668 1.723 . S
C698 C694 1.397 . S
C698 C697 1.394 . S
C699 H671 0.982 . S
C699 H675 0.979 . S
C699 H676 0.977 . S
C699 C696 1.453 . S
C700 H672 0.979 . S
C700 H673 0.980 . S
C700 H674 0.983 . S
C700 C696 1.684 . S
H701 C719 0.948 . S
H702 C660 0.948 . S
H703 C678 0.979 . S
H704 C678 0.980 . S
H705 C678 0.983 . S
H706 C677 0.982 . S
H707 C677 0.979 . S
H708 C677 0.977 . S
H709 C679 0.948 . S
H710 C681 0.947 . S
H711 C682 0.948 . S
H712 C688 0.982 . S
H713 C688 0.979 . S
H714 C688 0.977 . S
H715 C689 0.979 . S
H716 C689 0.980 . S
H717 C689 0.983 . S
H718 C662 0.947 . S
C719 C662 1.392 . S
C719 C663 1.419 . S
C719 H701 0.948 . S
C720 C721 1.391 . S
C720 C724 1.391 . S
C720 H762 0.948 . S
C721 C720 1.391 . S
C721 C722 1.391 . S
C722 C721 1.391 . S
C722 H778 0.947 . S
C722 C779 1.392 . S
C723 C724 1.391 . S
C723 C727 1.397 . S
C723 C779 1.419 . S
C724 C720 1.391 . S
C724 C723 1.391 . S
C724 C725 1.399 . S
C725 C724 1.399 . S
C725 C728 1.396 . S
C725 C737 1.453 . S
C725 C738 1.684 . S
H726 C750 0.948 . S
C727 C723 1.397 . S
C727 C728 1.394 . S
C727 C746 1.723 . S
C728 C725 1.396 . S
C728 C727 1.394 . S
C728 C758 1.723 . S
H729 C752 0.947 . S
H730 C753 0.948 . S
H731 C759 0.982 . S
H732 C760 0.979 . S
H733 C760 0.980 . S
H734 C760 0.983 . S
H735 C759 0.979 . S
H736 C759 0.977 . S
C737 C725 1.453 . S
C737 H766 0.982 . S
C737 H767 0.979 . S
C737 H768 0.977 . S
C738 C725 1.684 . S
C738 H763 0.979 . S
C738 H764 0.980 . S
C738 H765 0.983 . S
C739 C740 1.391 . S
C739 C744 1.391 . S
C739 H769 0.948 . S
C740 C739 1.391 . S
C740 C741 1.391 . S
C741 C740 1.391 . S
C741 C742 1.392 . S
C741 H770 0.947 . S
C742 C741 1.392 . S
C742 C743 1.419 . S
C742 H771 0.948 . S
C743 C742 1.419 . S
C743 C744 1.391 . S
C743 C747 1.397 . S
C744 C739 1.391 . S
C744 C743 1.391 . S
C744 C745 1.399 . S
C745 C744 1.399 . S
C745 C746 1.396 . S
C745 C748 1.453 . S
C745 C749 1.684 . S
C746 C727 1.723 . S
C746 C745 1.396 . S
C746 C747 1.394 . S
C747 C743 1.397 . S
C747 C746 1.394 . S
C747 C757 1.723 . S
C748 C745 1.453 . S
C748 H772 0.982 . S
C748 H773 0.979 . S
C748 H774 0.977 . S
C749 C745 1.684 . S
C749 H775 0.979 . S
C749 H776 0.980 . S
C749 H777 0.983 . S
C750 H726 0.948 . S
C750 C751 1.391 . S
C750 C755 1.391 . S
C751 C750 1.391 . S
C751 C752 1.391 . S
C752 H729 0.947 . S
C752 C751 1.391 . S
C752 C753 1.392 . S
C753 H730 0.948 . S
C753 C752 1.392 . S
C753 C754 1.419 . S
C754 C753 1.419 . S
C754 C755 1.391 . S
C754 C758 1.397 . S
C755 C750 1.391 . S
C755 C754 1.391 . S
C755 C756 1.399 . S
C756 C755 1.399 . S
C756 C757 1.396 . S
C756 C759 1.453 . S
C756 C760 1.684 . S
C757 C747 1.723 . S
C757 C756 1.396 . S
C757 C758 1.394 . S
C758 C728 1.723 . S
C758 C754 1.397 . S
C758 C757 1.394 . S
C759 H731 0.982 . S
C759 H735 0.979 . S
C759 H736 0.977 . S
C759 C756 1.453 . S
C760 H732 0.979 . S
C760 H733 0.980 . S
C760 H734 0.983 . S
C760 C756 1.684 . S
H761 C779 0.948 . S
H762 C720 0.948 . S
H763 C738 0.979 . S
H764 C738 0.980 . S
H765 C738 0.983 . S
H766 C737 0.982 . S
H767 C737 0.979 . S
H768 C737 0.977 . S
H769 C739 0.948 . S
H770 C741 0.947 . S
H771 C742 0.948 . S
H772 C748 0.982 . S
H773 C748 0.979 . S
H774 C748 0.977 . S
H775 C749 0.979 . S
H776 C749 0.980 . S
H777 C749 0.983 . S
H778 C722 0.947 . S
C779 C722 1.392 . S
C779 C723 1.419 . S
C779 H761 0.948 . S
C780 C781 1.391 . S
C780 C784 1.391 . S
C780 H822 0.948 . S
C781 C780 1.391 . S
C781 C782 1.391 . S
C782 C781 1.391 . S
C782 H838 0.947 . S
C782 C839 1.392 . S
C783 C784 1.391 . S
C783 C787 1.397 . S
C783 C839 1.419 . S
C784 C780 1.391 . S
C784 C783 1.391 . S
C784 C785 1.399 . S
C785 C784 1.399 . S
C785 C788 1.396 . S
C785 C797 1.453 . S
C785 C798 1.684 . S
H786 C810 0.948 . S
C787 C783 1.397 . S
C787 C788 1.394 . S
C787 C806 1.723 . S
C788 C785 1.396 . S
C788 C787 1.394 . S
C788 C818 1.723 . S
H789 C812 0.947 . S
H790 C813 0.948 . S
H791 C819 0.982 . S
H792 C820 0.979 . S
H793 C820 0.980 . S
H794 C820 0.983 . S
H795 C819 0.979 . S
H796 C819 0.977 . S
C797 C785 1.453 . S
C797 H826 0.982 . S
C797 H827 0.979 . S
C797 H828 0.977 . S
C798 C785 1.684 . S
C798 H823 0.979 . S
C798 H824 0.980 . S
C798 H825 0.983 . S
C799 C800 1.391 . S
C799 C804 1.391 . S
C799 H829 0.948 . S
C800 C799 1.391 . S
C800 C801 1.391 . S
C801 C800 1.391 . S
C801 C802 1.392 . S
C801 H830 0.947 . S
C802 C801 1.392 . S
C802 C803 1.419 . S
C802 H831 0.948 . S
C803 C802 1.419 . S
C803 C804 1.391 . S
C803 C807 1.397 . S
C804 C799 1.391 . S
C804 C803 1.391 . S
C804 C805 1.399 . S
C805 C804 1.399 . S
C805 C806 1.396 . S
C805 C808 1.453 . S
C805 C809 1.684 . S
C806 C787 1.723 . S
C806 C805 1.396 . S
C806 C807 1.394 . S
C807 C803 1.397 . S
C807 C806 1.394 . S
C807 C817 1.723 . S
C808 C805 1.453 . S
C808 H832 0.982 . S
C808 H833 0.979 . S
C808 H834 0.977 . S
C809 C805 1.684 . S
C809 H835 0.979 . S
C809 H836 0.980 . S
C809 H837 0.983 . S
C810 H786 0.948 . S
C810 C811 1.391 . S
C810 C815 1.391 . S
C811 C810 1.391 . S
C811 C812 1.391 . S
C812 H789 0.947 . S
C812 C811 1.391 . S
C812 C813 1.392 . S
C813 H790 0.948 . S
C813 C812 1.392 . S
C813 C814 1.419 . S
C814 C813 1.419 . S
C814 C815 1.391 . S
C814 C818 1.397 . S
C815 C810 1.391 . S
C815 C814 1.391 . S
C815 C816 1.399 . S
C816 C815 1.399 . S
C816 C817 1.396 . S
C816 C819 1.453 . S
C816 C820 1.684 . S
C817 C807 1.723 . S
C817 C816 1.396 . S
C817 C818 1.394 . S
C818 C788 1.723 . S
C818 C814 1.397 . S
C818 C817 1.394 . S
C819 H791 0.982 . S
C819 H795 0.979 . S
C819 H796 0.977 . S
C819 C816 1.453 . S
C820 H792 0.979 . S
C820 H793 0.980 . S
C820 H794 0.983 . S
C820 C816 1.684 . S
H821 C839 0.948 . S
H822 C780 0.948 . S
H823 C798 0.979 . S
H824 C798 0.980 . S
H825 C798 0.983 . S
H826 C797 0.982 . S
H827 C797 0.979 . S
H828 C797 0.977 . S
H829 C799 0.948 . S
H830 C801 0.947 . S
H831 C802 0.948 . S
H832 C808 0.982 . S
H833 C808 0.979 . S
H834 C808 0.977 . S
H835 C809 0.979 . S
H836 C809 0.980 . S
H837 C809 0.983 . S
H838 C782 0.947 . S
C839 C782 1.392 . S
C839 C783 1.419 . S
C839 H821 0.948 . S
C840 C841 1.391 . S
C840 C844 1.391 . S
C840 H882 0.948 . S
C841 C840 1.391 . S
C841 C842 1.391 . S
C842 C841 1.391 . S
C842 H898 0.947 . S
C842 C899 1.392 . S
C843 C844 1.391 . S
C843 C847 1.397 . S
C843 C899 1.419 . S
C844 C840 1.391 . S
C844 C843 1.391 . S
C844 C845 1.399 . S
C845 C844 1.399 . S
C845 C848 1.396 . S
C845 C857 1.453 . S
C845 C858 1.684 . S
H846 C870 0.948 . S
C847 C843 1.397 . S
C847 C848 1.394 . S
C847 C866 1.723 . S
C848 C845 1.396 . S
C848 C847 1.394 . S
C848 C878 1.723 . S
H849 C872 0.947 . S
H850 C873 0.948 . S
H851 C879 0.982 . S
H852 C880 0.979 . S
H853 C880 0.980 . S
H854 C880 0.983 . S
H855 C879 0.979 . S
H856 C879 0.977 . S
C857 C845 1.453 . S
C857 H886 0.982 . S
C857 H887 0.979 . S
C857 H888 0.977 . S
C858 C845 1.684 . S
C858 H883 0.979 . S
C858 H884 0.980 . S
C858 H885 0.983 . S
C859 C860 1.391 . S
C859 C864 1.391 . S
C859 H889 0.948 . S
C860 C859 1.391 . S
C860 C861 1.391 . S
C861 C860 1.391 . S
C861 C862 1.392 . S
C861 H890 0.947 . S
C862 C861 1.392 . S
C862 C863 1.419 . S
C862 H891 0.948 . S
C863 C862 1.419 . S
C863 C864 1.391 . S
C863 C867 1.397 . S
C864 C859 1.391 . S
C864 C863 1.391 . S
C864 C865 1.399 . S
C865 C864 1.399 . S
C865 C866 1.396 . S
C865 C868 1.453 . S
C865 C869 1.684 . S
C866 C847 1.723 . S
C866 C865 1.396 . S
C866 C867 1.394 . S
C867 C863 1.397 . S
C867 C866 1.394 . S
C867 C877 1.723 . S
C868 C865 1.453 . S
C868 H892 0.982 . S
C868 H893 0.979 . S
C868 H894 0.977 . S
C869 C865 1.684 . S
C869 H895 0.979 . S
C869 H896 0.980 . S
C869 H897 0.983 . S
C870 H846 0.948 . S
C870 C871 1.391 . S
C870 C875 1.391 . S
C871 C870 1.391 . S
C871 C872 1.391 . S
C872 H849 0.947 . S
C872 C871 1.391 . S
C872 C873 1.392 . S
C873 H850 0.948 . S
C873 C872 1.392 . S
C873 C874 1.419 . S
C874 C873 1.419 . S
C874 C875 1.391 . S
C874 C878 1.397 . S
C875 C870 1.391 . S
C875 C874 1.391 . S
C875 C876 1.399 . S
C876 C875 1.399 . S
C876 C877 1.396 . S
C876 C879 1.453 . S
C876 C880 1.684 . S
C877 C867 1.723 . S
C877 C876 1.396 . S
C877 C878 1.394 . S
C878 C848 1.723 . S
C878 C874 1.397 . S
C878 C877 1.394 . S
C879 H851 0.982 . S
C879 H855 0.979 . S
C879 H856 0.977 . S
C879 C876 1.453 . S
C880 H852 0.979 . S
C880 H853 0.980 . S
C880 H854 0.983 . S
C880 C876 1.684 . S
H881 C899 0.948 . S
H882 C840 0.948 . S
H883 C858 0.979 . S
H884 C858 0.980 . S
H885 C858 0.983 . S
H886 C857 0.982 . S
H887 C857 0.979 . S
H888 C857 0.977 . S
H889 C859 0.948 . S
H890 C861 0.947 . S
H891 C862 0.948 . S
H892 C868 0.982 . S
H893 C868 0.979 . S
H894 C868 0.977 . S
H895 C869 0.979 . S
H896 C869 0.980 . S
H897 C869 0.983 . S
H898 C842 0.947 . S
C899 C842 1.392 . S
C899 C843 1.419 . S
C899 H881 0.948 . S
C900 C901 1.391 . S
C900 C904 1.391 . S
C900 H942 0.948 . S
C901 C900 1.391 . S
C901 C902 1.391 . S
C902 C901 1.391 . S
C902 H958 0.947 . S
C902 C959 1.392 . S
C903 C904 1.391 . S
C903 C907 1.397 . S
C903 C959 1.419 . S
C904 C900 1.391 . S
C904 C903 1.391 . S
C904 C905 1.399 . S
C905 C904 1.399 . S
C905 C908 1.396 . S
C905 C917 1.453 . S
C905 C918 1.684 . S
H906 C930 0.948 . S
C907 C903 1.397 . S
C907 C908 1.394 . S
C907 C926 1.723 . S
C908 C905 1.396 . S
C908 C907 1.394 . S
C908 C938 1.723 . S
H909 C932 0.947 . S
H910 C933 0.948 . S
H911 C939 0.982 . S
H912 C940 0.979 . S
H913 C940 0.980 . S
H914 C940 0.983 . S
H915 C939 0.979 . S
H916 C939 0.977 . S
C917 C905 1.453 . S
C917 H946 0.982 . S
C917 H947 0.979 . S
C917 H948 0.977 . S
C918 C905 1.684 . S
C918 H943 0.979 . S
C918 H944 0.980 . S
C918 H945 0.983 . S
C919 C920 1.391 . S
C919 C924 1.391 . S
C919 H949 0.948 . S
C920 C919 1.391 . S
C920 C921 1.391 . S
C921 C920 1.391 . S
C921 C922 1.392 . S
C921 H950 0.947 . S
C922 C921 1.392 . S
C922 C923 1.419 . S
C922 H951 0.948 . S
C923 C922 1.419 . S
C923 C924 1.391 . S
C923 C927 1.397 . S
C924 C919 1.391 . S
C924 C923 1.391 . S
C924 C925 1.399 . S
C925 C924 1.399 . S
C925 C926 1.396 . S
C925 C928 1.453 . S
C925 C929 1.684 . S
C926 C907 1.723 . S
C926 C925 1.396 . S
C926 C927 1.394 . S
C927 C923 1.397 . S
C927 C926 1.394 . S
C927 C937 1.723 . S
C928 C925 1.453 . S
C928 H952 0.982 . S
C928 H953 0.979 . S
C928 H954 0.977 . S
C929 C925 1.684 . S
C929 H955 0.979 . S
C929 H956 0.980 . S
C929 H957 0.983 . S
C930 H906 0.948 . S
C930 C931 1.391 . S
C930 C935 1.391 . S
C931 C930 1.391 . S
C931 C932 1.391 . S
C932 H909 0.947 . S
C932 C931 1.391 . S
C932 C933 1.392 . S
C933 H910 0.948 . S
C933 C932 1.392 . S
C933 C934 1.419 . S
C934 C933 1.419 . S
C934 C935 1.391 . S
C934 C938 1.397 . S
C935 C930 1.391 . S
C935 C934 1.391 . S
C935 C936 1.399 . S
C936 C935 1.399 . S
C936 C937 1.396 . S
C936 C939 1.453 . S
C936 C940 1.684 . S
C937 C927 1.723 . S
C937 C936 1.396 . S
C937 C938 1.394 . S
C938 C908 1.723 . S
C938 C934 1.397 . S
C938 C937 1.394 . S
C939 H911 0.982 . S
C939 H915 0.979 . S
C939 H916 0.977 . S
C939 C936 1.453 . S
C940 H912 0.979 . S
C940 H913 0.980 . S
C940 H914 0.983 . S
C940 C936 1.684 . S
H941 C959 0.948 . S
H942 C900 0.948 . S
H943 C918 0.979 . S
H944 C918 0.980 . S
H945 C918 0.983 . S
H946 C917 0.982 . S
H947 C917 0.979 . S
H948 C917 0.977 . S
H949 C919 0.948 . S
H950 C921 0.947 . S
H951 C922 0.948 . S
H952 C928 0.982 . S
H953 C928 0.979 . S
H954 C928 0.977 . S
H955 C929 0.979 . S
H956 C929 0.980 . S
H957 C929 0.983 . S
H958 C902 0.947 . S
C959 C902 1.392 . S
C959 C903 1.419 . S
C959 H941 0.948 . S
C960 C961 1.391 . S
C960 C964 1.391 . S
C960 H1002 0.948 . S
C961 C960 1.391 . S
C961 C962 1.391 . S
C962 C961 1.391 . S
C962 H1018 0.947 . S
C962 C1019 1.392 . S
C963 C964 1.391 . S
C963 C967 1.397 . S
C963 C1019 1.419 . S
C964 C960 1.391 . S
C964 C963 1.391 . S
C964 C965 1.399 . S
C965 C964 1.399 . S
C965 C968 1.396 . S
C965 C977 1.453 . S
C965 C978 1.684 . S
H966 C990 0.948 . S
C967 C963 1.397 . S
C967 C968 1.394 . S
C967 C986 1.723 . S
C968 C965 1.396 . S
C968 C967 1.394 . S
C968 C998 1.723 . S
H969 C992 0.947 . S
H970 C993 0.948 . S
H971 C999 0.982 . S
H972 C1000 0.979 . S
H973 C1000 0.980 . S
H974 C1000 0.983 . S
H975 C999 0.979 . S
H976 C999 0.977 . S
C977 C965 1.453 . S
C977 H1006 0.982 . S
C977 H1007 0.979 . S
C977 H1008 0.977 . S
C978 C965 1.684 . S
C978 H1003 0.979 . S
C978 H1004 0.980 . S
C978 H1005 0.983 . S
C979 C980 1.391 . S
C979 C984 1.391 . S
C979 H1009 0.948 . S
C980 C979 1.391 . S
C980 C981 1.391 . S
C981 C980 1.391 . S
C981 C982 1.392 . S
C981 H1010 0.947 . S
C982 C981 1.392 . S
C982 C983 1.419 . S
C982 H1011 0.948 . S
C983 C982 1.419 . S
C983 C984 1.391 . S
C983 C987 1.397 . S
C984 C979 1.391 . S
C984 C983 1.391 . S
C984 C985 1.399 . S
C985 C984 1.399 . S
C985 C986 1.396 . S
C985 C988 1.453 . S
C985 C989 1.684 . S
C986 C967 1.723 . S
C986 C985 1.396 . S
C986 C987 1.394 . S
C987 C983 1.397 . S
C987 C986 1.394 . S
C987 C997 1.723 . S
C988 C985 1.453 . S
C988 H1012 0.982 . S
C988 H1013 0.979 . S
C988 H1014 0.977 . S
C989 C985 1.684 . S
C989 H1015 0.979 . S
C989 H1016 0.980 . S
C989 H1017 0.983 . S
C990 H966 0.948 . S
C990 C991 1.391 . S
C990 C995 1.391 . S
C991 C990 1.391 . S
C991 C992 1.391 . S
C992 H969 0.947 . S
C992 C991 1.391 . S
C992 C993 1.392 . S
C993 H970 0.948 . S
C993 C992 1.392 . S
C993 C994 1.419 . S
C994 C993 1.419 . S
C994 C995 1.391 . S
C994 C998 1.397 . S
C995 C990 1.391 . S
C995 C994 1.391 . S
C995 C996 1.399 . S
C996 C995 1.399 . S
C996 C997 1.396 . S
C996 C999 1.453 . S
C996 C1000 1.684 . S
C997 C987 1.723 . S
C997 C996 1.396 . S
C997 C998 1.394 . S
C998 C968 1.723 . S
C998 C994 1.397 . S
C998 C997 1.394 . S
C999 H971 0.982 . S
C999 H975 0.979 . S
C999 H976 0.977 . S
C999 C996 1.453 . S
C1000 H972 0.979 . S
C1000 H973 0.980 . S
C1000 H974 0.983 . S
C1000 C996 1.684 . S
H1001 C1019 0.948 . S
H1002 C960 0.948 . S
H1003 C978 0.979 . S
H1004 C978 0.980 . S
H1005 C978 0.983 . S
H1006 C977 0.982 . S
H1007 C977 0.979 . S
H1008 C977 0.977 . S
H1009 C979 0.948 . S
H1010 C981 0.947 . S
H1011 C982 0.948 . S
H1012 C988 0.982 . S
H1013 C988 0.979 . S
H1014 C988 0.977 . S
H1015 C989 0.979 . S
H1016 C989 0.980 . S
H1017 C989 0.983 . S
H1018 C962 0.947 . S
C1019 C962 1.392 . S
C1019 C963 1.419 . S
C1019 H1001 0.948 . S
C1020 C1021 1.391 . S
C1020 C1024 1.391 . S
C1020 H1062 0.948 . S
C1021 C1020 1.391 . S
C1021 C1022 1.391 . S
C1022 C1021 1.391 . S
C1022 H1078 0.947 . S
C1022 C1079 1.392 . S
C1023 C1024 1.391 . S
C1023 C1027 1.397 . S
C1023 C1079 1.419 . S
C1024 C1020 1.391 . S
C1024 C1023 1.391 . S
C1024 C1025 1.399 . S
C1025 C1024 1.399 . S
C1025 C1028 1.396 . S
C1025 C1037 1.453 . S
C1025 C1038 1.684 . S
H1026 C1050 0.948 . S
C1027 C1023 1.397 . S
C1027 C1028 1.394 . S
C1027 C1046 1.723 . S
C1028 C1025 1.396 . S
C1028 C1027 1.394 . S
C1028 C1058 1.723 . S
H1029 C1052 0.947 . S
H1030 C1053 0.948 . S
H1031 C1059 0.982 . S
H1032 C1060 0.979 . S
H1033 C1060 0.980 . S
H1034 C1060 0.983 . S
H1035 C1059 0.979 . S
H1036 C1059 0.977 . S
C1037 C1025 1.453 . S
C1037 H1066 0.982 . S
C1037 H1067 0.979 . S
C1037 H1068 0.977 . S
C1038 C1025 1.684 . S
C1038 H1063 0.979 . S
C1038 H1064 0.980 . S
C1038 H1065 0.983 . S
C1039 C1040 1.391 . S
C1039 C1044 1.391 . S
C1039 H1069 0.948 . S
C1040 C1039 1.391 . S
C1040 C1041 1.391 . S
C1041 C1040 1.391 . S
C1041 C1042 1.392 . S
C1041 H1070 0.947 . S
C1042 C1041 1.392 . S
C1042 C1043 1.419 . S
C1042 H1071 0.948 . S
C1043 C1042 1.419 . S
C1043 C1044 1.391 . S
C1043 C1047 1.397 . S
C1044 C1039 1.391 . S
C1044 C1043 1.391 . S
C1044 C1045 1.399 . S
C1045 C1044 1.399 . S
C1045 C1046 1.396 . S
C1045 C1048 1.453 . S
C1045 C1049 1.684 . S
C1046 C1027 1.723 . S
C1046 C1045 1.396 . S
C1046 C1047 1.394 . S
C1047 C1043 1.397 . S
C1047 C1046 1.394 . S
C1047 C1057 1.723 . S
C1048 C1045 1.453 . S
C1048 H1072 0.982 . S
C1048 H1073 0.979 . S
C1048 H1074 0.977 . S
C1049 C1045 1.684 . S
C1049 H1075 0.979 . S
C1049 H1076 0.980 . S
C1049 H1077 0.983 . S
C1050 H1026 0.948 . S
C1050 C1051 1.391 . S
C1050 C1055 1.391 . S
C1051 C1050 1.391 . S
C1051 C1052 1.391 . S
C1052 H1029 0.947 . S
C1052 C1051 1.391 . S
C1052 C1053 1.392 . S
C1053 H1030 0.948 . S
C1053 C1052 1.392 . S
C1053 C1054 1.419 . S
C1054 C1053 1.419 . S
C1054 C1055 1.391 . S
C1054 C1058 1.397 . S
C1055 C1050 1.391 . S
C1055 C1054 1.391 . S
C1055 C1056 1.399 . S
C1056 C1055 1.399 . S
C1056 C1057 1.396 . S
C1056 C1059 1.453 . S
C1056 C1060 1.684 . S
C1057 C1047 1.723 . S
C1057 C1056 1.396 . S
C1057 C1058 1.394 . S
C1058 C1028 1.723 . S
C1058 C1054 1.397 . S
C1058 C1057 1.394 . S
C1059 H1031 0.982 . S
C1059 H1035 0.979 . S
C1059 H1036 0.977 . S
C1059 C1056 1.453 . S
C1060 H1032 0.979 . S
C1060 H1033 0.980 . S
C1060 H1034 0.983 . S
C1060 C1056 1.684 . S
H1061 C1079 0.948 . S
H1062 C1020 0.948 . S
H1063 C1038 0.979 . S
H1064 C1038 0.980 . S
H1065 C1038 0.983 . S
H1066 C1037 0.982 . S
H1067 C1037 0.979 . S
H1068 C1037 0.977 . S
H1069 C1039 0.948 . S
H1070 C1041 0.947 . S
H1071 C1042 0.948 . S
H1072 C1048 0.982 . S
H1073 C1048 0.979 . S
H1074 C1048 0.977 . S
H1075 C1049 0.979 . S
H1076 C1049 0.980 . S
H1077 C1049 0.983 . S
H1078 C1022 0.947 . S
C1079 C1022 1.392 . S
C1079 C1023 1.419 . S
C1079 H1061 0.948 . S
Eu1080 N1111 2.657 . S
Eu1080 N1118 2.609 . S
Eu1080 O1124 2.558 . S
Eu1080 O1125 2.612 1_565 S
Eu1080 O1127 2.339 1_565 S
Eu1080 O1128 2.563 1_565 S
Eu1080 O1129 2.419 . S
Eu1080 O1131 2.380 1_556 S
Eu1080 O1132 2.432 . S
Eu1080 C1144 2.848 . S
C1081 C1084 1.429 . S
C1081 C1085 1.411 . S
C1081 N1088 1.377 . S
C1082 C1084 1.420 . S
C1082 C1086 1.423 . S
C1082 C1094 1.392 . S
C1083 C1085 1.420 . S
C1083 C1086 1.351 . S
C1083 H1106 0.931 . S
C1084 C1081 1.429 . S
C1084 C1082 1.420 . S
C1084 N1092 1.362 . S
C1085 C1081 1.411 . S
C1085 C1083 1.420 . S
C1085 C1090 1.395 . S
C1086 C1082 1.423 . S
C1086 C1083 1.351 . S
C1086 H1098 0.930 . S
C1087 C1089 1.400 . S
C1087 C1090 1.386 . S
C1087 H1099 0.930 . S
N1088 C1081 1.377 . S
N1088 C1089 1.321 . S
N1088 Eu1091 2.609 . S
C1089 C1087 1.400 . S
C1089 N1088 1.321 . S
C1089 H1096 0.930 . S
C1090 C1085 1.395 . S
C1090 C1087 1.386 . S
C1090 H1109 0.930 . S
Eu1091 N1088 2.609 . S
Eu1091 N1092 2.657 . S
Eu1091 O1125 2.380 1_554 S
Eu1091 O1126 2.432 . S
Eu1091 O1130 2.558 . S
Eu1091 O1131 2.612 1_545 S
Eu1091 O1133 2.339 1_545 S
Eu1091 O1134 2.563 1_545 S
Eu1091 O1135 2.419 . S
Eu1091 C1155 2.848 . S
N1092 C1084 1.362 . S
N1092 Eu1091 2.657 . S
N1092 C1093 1.334 . S
C1093 N1092 1.334 . S
C1093 C1095 1.413 . S
C1093 H1100 0.929 . S
C1094 C1082 1.392 . S
C1094 C1095 1.367 . S
C1094 H1102 0.930 . S
C1095 C1093 1.413 . S
C1095 C1094 1.367 . S
C1095 H1097 0.930 . S
H1096 C1089 0.930 . S
H1097 C1095 0.930 . S
H1098 C1086 0.930 . S
H1099 C1087 0.930 . S
H1100 C1093 0.929 . S
H1101 C1115 0.930 . S
H1102 C1094 0.930 . S
H1103 C1121 0.930 . S
H1104 C1112 0.929 . S
H1105 C1119 0.930 . S
H1106 C1083 0.931 . S
H1107 C1113 0.930 . S
H1108 C1146 0.930 . S
H1109 C1090 0.930 . S
H1110 C1145 0.931 . S
N1111 Eu1080 2.657 . S
N1111 C1112 1.334 . S
N1111 C1116 1.362 . S
C1112 H1104 0.929 . S
C1112 N1111 1.334 . S
C1112 C1115 1.413 . S
C1113 H1107 0.930 . S
C1113 C1114 1.392 . S
C1113 C1115 1.367 . S
C1114 C1113 1.392 . S
C1114 C1116 1.420 . S
C1114 C1146 1.423 . S
C1115 H1101 0.930 . S
C1115 C1112 1.413 . S
C1115 C1113 1.367 . S
C1116 N1111 1.362 . S
C1116 C1114 1.420 . S
C1116 C1120 1.429 . S
H1117 C1122 0.930 . S
N1118 Eu1080 2.609 . S
N1118 C1120 1.377 . S
N1118 C1121 1.321 . S
C1119 H1105 0.930 . S
C1119 C1121 1.400 . S
C1119 C1122 1.386 . S
C1120 C1116 1.429 . S
C1120 N1118 1.377 . S
C1120 C1123 1.411 . S
C1121 H1103 0.930 . S
C1121 N1118 1.321 . S
C1121 C1119 1.400 . S
C1122 H1117 0.930 . S
C1122 C1119 1.386 . S
C1122 C1123 1.395 . S
C1123 C1120 1.411 . S
C1123 C1122 1.395 . S
C1123 C1145 1.420 . S
O1124 Eu1080 2.558 . S
O1124 C1144 1.257 . S
O1125 Eu1080 2.612 1_545 S
O1125 Eu1091 2.380 1_556 S
O1125 C1136 1.276 . S
O1126 Eu1091 2.432 . S
O1126 C1143 1.264 1_554 S
O1127 Eu1080 2.339 1_545 S
O1127 C1143 1.254 . S
O1128 Eu1080 2.563 1_545 S
O1128 C1136 1.235 . S
O1129 Eu1080 2.419 . S
O1129 C1144 1.249 . S
O1130 Eu1091 2.558 . S
O1130 C1155 1.257 . S
O1131 Eu1080 2.380 1_554 S
O1131 Eu1091 2.612 1_565 S
O1131 C1147 1.276 . S
O1132 Eu1080 2.432 . S
O1132 C1154 1.264 1_556 S
O1133 Eu1091 2.339 1_565 S
O1133 C1154 1.254 . S
O1134 Eu1091 2.563 1_565 S
O1134 C1147 1.235 . S
O1135 Eu1091 2.419 . S
O1135 C1155 1.249 . S
C1136 O1125 1.276 . S
C1136 O1128 1.235 . S
C1137 C1139 1.393 1_565 S
C1137 C1141 1.395 . S
C1137 C1144 1.492 . S
C1138 C1139 1.392 . S
C1138 C1140 1.386 1_545 S
C1139 C1137 1.393 1_545 S
C1139 C1138 1.392 . S
C1139 H1156 0.930 . S
C1140 C1138 1.386 1_565 S
C1140 C1142 1.395 . S
C1140 H1157 0.930 . S
C1141 C1137 1.395 . S
C1141 C1142 1.379 . S
C1141 H1158 0.930 . S
C1142 C1140 1.395 . S
C1142 C1141 1.379 . S
C1142 H1159 0.930 . S
C1143 O1126 1.264 1_556 S
C1143 O1127 1.254 . S
C1144 Eu1080 2.848 . S
C1144 O1124 1.257 . S
C1144 O1129 1.249 . S
C1144 C1137 1.492 . S
C1145 H1110 0.931 . S
C1145 C1123 1.420 . S
C1145 C1146 1.351 . S
C1146 H1108 0.930 . S
C1146 C1114 1.423 . S
C1146 C1145 1.351 . S
C1147 O1131 1.276 . S
C1147 O1134 1.235 . S
C1148 C1149 1.393 1_545 S
C1148 C1152 1.395 . S
C1148 C1155 1.492 . S
C1149 C1148 1.393 1_565 S
C1149 C1150 1.392 . S
C1149 H1160 0.930 . S
C1150 C1149 1.392 . S
C1150 C1151 1.386 1_565 S
C1151 C1150 1.386 1_545 S
C1151 C1153 1.395 . S
C1151 H1161 0.930 . S
C1152 C1148 1.395 . S
C1152 C1153 1.379 . S
C1152 H1162 0.930 . S
C1153 C1151 1.395 . S
C1153 C1152 1.379 . S
C1153 H1163 0.930 . S
C1154 O1132 1.264 1_554 S
C1154 O1133 1.254 . S
C1155 Eu1091 2.848 . S
C1155 O1130 1.257 . S
C1155 O1135 1.249 . S
C1155 C1148 1.492 . S
H1156 C1139 0.930 . S
H1157 C1140 0.930 . S
H1158 C1141 0.930 . S
H1159 C1142 0.930 . S
H1160 C1149 0.930 . S
H1161 C1151 0.930 . S
H1162 C1152 0.930 . S
H1163 C1153 0.930 . S
Eu1164 N1195 2.657 . S
Eu1164 N1202 2.609 . S
Eu1164 O1208 2.558 . S
Eu1164 O1209 2.612 1_455 S
Eu1164 O1211 2.339 1_455 S
Eu1164 O1212 2.563 1_455 S
Eu1164 O1213 2.419 . S
Eu1164 O1215 2.380 1_556 S
Eu1164 O1216 2.432 . S
Eu1164 C1228 2.848 . S
C1165 C1168 1.429 . S
C1165 C1169 1.411 . S
C1165 N1172 1.377 . S
C1166 C1168 1.420 . S
C1166 C1170 1.423 . S
C1166 C1178 1.392 . S
C1167 C1169 1.420 . S
C1167 C1170 1.351 . S
C1167 H1190 0.931 . S
C1168 C1165 1.429 . S
C1168 C1166 1.420 . S
C1168 N1176 1.362 . S
C1169 C1165 1.411 . S
C1169 C1167 1.420 . S
C1169 C1174 1.395 . S
C1170 C1166 1.423 . S
C1170 C1167 1.351 . S
C1170 H1182 0.930 . S
C1171 C1173 1.400 . S
C1171 C1174 1.386 . S
C1171 H1183 0.930 . S
N1172 C1165 1.377 . S
N1172 C1173 1.321 . S
N1172 Eu1175 2.609 . S
C1173 C1171 1.400 . S
C1173 N1172 1.321 . S
C1173 H1180 0.930 . S
C1174 C1169 1.395 . S
C1174 C1171 1.386 . S
C1174 H1193 0.930 . S
Eu1175 N1172 2.609 . S
Eu1175 N1176 2.657 . S
Eu1175 O1209 2.380 1_554 S
Eu1175 O1210 2.432 . S
Eu1175 O1214 2.558 . S
Eu1175 O1215 2.612 1_655 S
Eu1175 O1217 2.339 1_655 S
Eu1175 O1218 2.563 1_655 S
Eu1175 O1219 2.419 . S
Eu1175 C1239 2.848 . S
N1176 C1168 1.362 . S
N1176 Eu1175 2.657 . S
N1176 C1177 1.334 . S
C1177 N1176 1.334 . S
C1177 C1179 1.413 . S
C1177 H1184 0.929 . S
C1178 C1166 1.392 . S
C1178 C1179 1.367 . S
C1178 H1186 0.930 . S
C1179 C1177 1.413 . S
C1179 C1178 1.367 . S
C1179 H1181 0.930 . S
H1180 C1173 0.930 . S
H1181 C1179 0.930 . S
H1182 C1170 0.930 . S
H1183 C1171 0.930 . S
H1184 C1177 0.929 . S
H1185 C1199 0.930 . S
H1186 C1178 0.930 . S
H1187 C1205 0.930 . S
H1188 C1196 0.929 . S
H1189 C1203 0.930 . S
H1190 C1167 0.931 . S
H1191 C1197 0.930 . S
H1192 C1230 0.930 . S
H1193 C1174 0.930 . S
H1194 C1229 0.931 . S
N1195 Eu1164 2.657 . S
N1195 C1196 1.334 . S
N1195 C1200 1.362 . S
C1196 H1188 0.929 . S
C1196 N1195 1.334 . S
C1196 C1199 1.413 . S
C1197 H1191 0.930 . S
C1197 C1198 1.392 . S
C1197 C1199 1.367 . S
C1198 C1197 1.392 . S
C1198 C1200 1.420 . S
C1198 C1230 1.423 . S
C1199 H1185 0.930 . S
C1199 C1196 1.413 . S
C1199 C1197 1.367 . S
C1200 N1195 1.362 . S
C1200 C1198 1.420 . S
C1200 C1204 1.429 . S
H1201 C1206 0.930 . S
N1202 Eu1164 2.609 . S
N1202 C1204 1.377 . S
N1202 C1205 1.321 . S
C1203 H1189 0.930 . S
C1203 C1205 1.400 . S
C1203 C1206 1.386 . S
C1204 C1200 1.429 . S
C1204 N1202 1.377 . S
C1204 C1207 1.411 . S
C1205 H1187 0.930 . S
C1205 N1202 1.321 . S
C1205 C1203 1.400 . S
C1206 H1201 0.930 . S
C1206 C1203 1.386 . S
C1206 C1207 1.395 . S
C1207 C1204 1.411 . S
C1207 C1206 1.395 . S
C1207 C1229 1.420 . S
O1208 Eu1164 2.558 . S
O1208 C1228 1.257 . S
O1209 Eu1164 2.612 1_655 S
O1209 Eu1175 2.380 1_556 S
O1209 C1220 1.276 . S
O1210 Eu1175 2.432 . S
O1210 C1227 1.264 1_554 S
O1211 Eu1164 2.339 1_655 S
O1211 C1227 1.254 . S
O1212 Eu1164 2.563 1_655 S
O1212 C1220 1.235 . S
O1213 Eu1164 2.419 . S
O1213 C1228 1.249 . S
O1214 Eu1175 2.558 . S
O1214 C1239 1.257 . S
O1215 Eu1164 2.380 1_554 S
O1215 Eu1175 2.612 1_455 S
O1215 C1231 1.276 . S
O1216 Eu1164 2.432 . S
O1216 C1238 1.264 1_556 S
O1217 Eu1175 2.339 1_455 S
O1217 C1238 1.254 . S
O1218 Eu1175 2.563 1_455 S
O1218 C1231 1.235 . S
O1219 Eu1175 2.419 . S
O1219 C1239 1.249 . S
C1220 O1209 1.276 . S
C1220 O1212 1.235 . S
C1221 C1223 1.393 1_455 S
C1221 C1225 1.395 . S
C1221 C1228 1.492 . S
C1222 C1223 1.392 . S
C1222 C1224 1.386 1_655 S
C1223 C1221 1.393 1_655 S
C1223 C1222 1.392 . S
C1223 H1240 0.930 . S
C1224 C1222 1.386 1_455 S
C1224 C1226 1.395 . S
C1224 H1241 0.930 . S
C1225 C1221 1.395 . S
C1225 C1226 1.379 . S
C1225 H1242 0.930 . S
C1226 C1224 1.395 . S
C1226 C1225 1.379 . S
C1226 H1243 0.930 . S
C1227 O1210 1.264 1_556 S
C1227 O1211 1.254 . S
C1228 Eu1164 2.848 . S
C1228 O1208 1.257 . S
C1228 O1213 1.249 . S
C1228 C1221 1.492 . S
C1229 H1194 0.931 . S
C1229 C1207 1.420 . S
C1229 C1230 1.351 . S
C1230 H1192 0.930 . S
C1230 C1198 1.423 . S
C1230 C1229 1.351 . S
C1231 O1215 1.276 . S
C1231 O1218 1.235 . S
C1232 C1233 1.393 1_655 S
C1232 C1236 1.395 . S
C1232 C1239 1.492 . S
C1233 C1232 1.393 1_455 S
C1233 C1234 1.392 . S
C1233 H1244 0.930 . S
C1234 C1233 1.392 . S
C1234 C1235 1.386 1_455 S
C1235 C1234 1.386 1_655 S
C1235 C1237 1.395 . S
C1235 H1245 0.930 . S
C1236 C1232 1.395 . S
C1236 C1237 1.379 . S
C1236 H1246 0.930 . S
C1237 C1235 1.395 . S
C1237 C1236 1.379 . S
C1237 H1247 0.930 . S
C1238 O1216 1.264 1_554 S
C1238 O1217 1.254 . S
C1239 Eu1175 2.848 . S
C1239 O1214 1.257 . S
C1239 O1219 1.249 . S
C1239 C1232 1.492 . S
H1240 C1223 0.930 . S
H1241 C1224 0.930 . S
H1242 C1225 0.930 . S
H1243 C1226 0.930 . S
H1244 C1233 0.930 . S
H1245 C1235 0.930 . S
H1246 C1236 0.930 . S
H1247 C1237 0.930 . S
Eu1248 N1279 2.657 . S
Eu1248 N1286 2.609 . S
Eu1248 O1292 2.558 . S
Eu1248 O1293 2.612 . S
Eu1248 O1295 2.339 . S
Eu1248 O1296 2.563 . S
Eu1248 O1297 2.419 . S
Eu1248 O1299 2.380 1_554 S
Eu1248 O1300 2.432 . S
Eu1248 C1312 2.848 . S
C1249 C1252 1.429 . S
C1249 C1253 1.411 . S
C1249 N1256 1.377 . S
C1250 C1252 1.420 . S
C1250 C1254 1.423 . S
C1250 C1262 1.392 . S
C1251 C1253 1.420 . S
C1251 C1254 1.351 . S
C1251 H1274 0.931 . S
C1252 C1249 1.429 . S
C1252 C1250 1.420 . S
C1252 N1260 1.362 . S
C1253 C1249 1.411 . S
C1253 C1251 1.420 . S
C1253 C1258 1.395 . S
C1254 C1250 1.423 . S
C1254 C1251 1.351 . S
C1254 H1266 0.930 . S
C1255 C1257 1.400 . S
C1255 C1258 1.386 . S
C1255 H1267 0.930 . S
N1256 C1249 1.377 . S
N1256 C1257 1.321 . S
N1256 Eu1259 2.609 . S
C1257 C1255 1.400 . S
C1257 N1256 1.321 . S
C1257 H1264 0.930 . S
C1258 C1253 1.395 . S
C1258 C1255 1.386 . S
C1258 H1277 0.930 . S
Eu1259 N1256 2.609 . S
Eu1259 N1260 2.657 . S
Eu1259 O1293 2.380 1_556 S
Eu1259 O1294 2.432 . S
Eu1259 O1298 2.558 . S
Eu1259 O1299 2.612 . S
Eu1259 O1301 2.339 . S
Eu1259 O1302 2.563 . S
Eu1259 O1303 2.419 . S
Eu1259 C1323 2.848 . S
N1260 C1252 1.362 . S
N1260 Eu1259 2.657 . S
N1260 C1261 1.334 . S
C1261 N1260 1.334 . S
C1261 C1263 1.413 . S
C1261 H1268 0.929 . S
C1262 C1250 1.392 . S
C1262 C1263 1.367 . S
C1262 H1270 0.930 . S
C1263 C1261 1.413 . S
C1263 C1262 1.367 . S
C1263 H1265 0.930 . S
H1264 C1257 0.930 . S
H1265 C1263 0.930 . S
H1266 C1254 0.930 . S
H1267 C1255 0.930 . S
H1268 C1261 0.929 . S
H1269 C1283 0.930 . S
H1270 C1262 0.930 . S
H1271 C1289 0.930 . S
H1272 C1280 0.929 . S
H1273 C1287 0.930 . S
H1274 C1251 0.931 . S
H1275 C1281 0.930 . S
H1276 C1314 0.930 . S
H1277 C1258 0.930 . S
H1278 C1313 0.931 . S
N1279 Eu1248 2.657 . S
N1279 C1280 1.334 . S
N1279 C1284 1.362 . S
C1280 H1272 0.929 . S
C1280 N1279 1.334 . S
C1280 C1283 1.413 . S
C1281 H1275 0.930 . S
C1281 C1282 1.392 . S
C1281 C1283 1.367 . S
C1282 C1281 1.392 . S
C1282 C1284 1.420 . S
C1282 C1314 1.423 . S
C1283 H1269 0.930 . S
C1283 C1280 1.413 . S
C1283 C1281 1.367 . S
C1284 N1279 1.362 . S
C1284 C1282 1.420 . S
C1284 C1288 1.429 . S
H1285 C1290 0.930 . S
N1286 Eu1248 2.609 . S
N1286 C1288 1.377 . S
N1286 C1289 1.321 . S
C1287 H1273 0.930 . S
C1287 C1289 1.400 . S
C1287 C1290 1.386 . S
C1288 C1284 1.429 . S
C1288 N1286 1.377 . S
C1288 C1291 1.411 . S
C1289 H1271 0.930 . S
C1289 N1286 1.321 . S
C1289 C1287 1.400 . S
C1290 H1285 0.930 . S
C1290 C1287 1.386 . S
C1290 C1291 1.395 . S
C1291 C1288 1.411 . S
C1291 C1290 1.395 . S
C1291 C1313 1.420 . S
O1292 Eu1248 2.558 . S
O1292 C1312 1.257 . S
O1293 Eu1248 2.612 . S
O1293 Eu1259 2.380 1_554 S
O1293 C1304 1.276 . S
O1294 Eu1259 2.432 . S
O1294 C1311 1.264 1_556 S
O1295 Eu1248 2.339 . S
O1295 C1311 1.254 . S
O1296 Eu1248 2.563 . S
O1296 C1304 1.235 . S
O1297 Eu1248 2.419 . S
O1297 C1312 1.249 . S
O1298 Eu1259 2.558 . S
O1298 C1323 1.257 . S
O1299 Eu1248 2.380 1_556 S
O1299 Eu1259 2.612 . S
O1299 C1315 1.276 . S
O1300 Eu1248 2.432 . S
O1300 C1322 1.264 1_554 S
O1301 Eu1259 2.339 . S
O1301 C1322 1.254 . S
O1302 Eu1259 2.563 . S
O1302 C1315 1.235 . S
O1303 Eu1259 2.419 . S
O1303 C1323 1.249 . S
C1304 O1293 1.276 . S
C1304 O1296 1.235 . S
C1305 C1307 1.393 . S
C1305 C1309 1.395 . S
C1305 C1312 1.492 . S
C1306 C1307 1.392 . S
C1306 C1308 1.386 . S
C1307 C1305 1.393 . S
C1307 C1306 1.392 . S
C1307 H1324 0.930 . S
C1308 C1306 1.386 . S
C1308 C1310 1.395 . S
C1308 H1325 0.930 . S
C1309 C1305 1.395 . S
C1309 C1310 1.379 . S
C1309 H1326 0.930 . S
C1310 C1308 1.395 . S
C1310 C1309 1.379 . S
C1310 H1327 0.930 . S
C1311 O1294 1.264 1_554 S
C1311 O1295 1.254 . S
C1312 Eu1248 2.848 . S
C1312 O1292 1.257 . S
C1312 O1297 1.249 . S
C1312 C1305 1.492 . S
C1313 H1278 0.931 . S
C1313 C1291 1.420 . S
C1313 C1314 1.351 . S
C1314 H1276 0.930 . S
C1314 C1282 1.423 . S
C1314 C1313 1.351 . S
C1315 O1299 1.276 . S
C1315 O1302 1.235 . S
C1316 C1317 1.393 . S
C1316 C1320 1.395 . S
C1316 C1323 1.492 . S
C1317 C1316 1.393 . S
C1317 C1318 1.392 . S
C1317 H1328 0.930 . S
C1318 C1317 1.392 . S
C1318 C1319 1.386 . S
C1319 C1318 1.386 . S
C1319 C1321 1.395 . S
C1319 H1329 0.930 . S
C1320 C1316 1.395 . S
C1320 C1321 1.379 . S
C1320 H1330 0.930 . S
C1321 C1319 1.395 . S
C1321 C1320 1.379 . S
C1321 H1331 0.930 . S
C1322 O1300 1.264 1_556 S
C1322 O1301 1.254 . S
C1323 Eu1259 2.848 . S
C1323 O1298 1.257 . S
C1323 O1303 1.249 . S
C1323 C1316 1.492 . S
H1324 C1307 0.930 . S
H1325 C1308 0.930 . S
H1326 C1309 0.930 . S
H1327 C1310 0.930 . S
H1328 C1317 0.930 . S
H1329 C1319 0.930 . S
H1330 C1320 0.930 . S
H1331 C1321 0.930 . S
Eu1332 N1363 2.657 . S
Eu1332 N1370 2.609 . S
Eu1332 O1376 2.558 . S
Eu1332 O1377 2.612 . S
Eu1332 O1379 2.339 . S
Eu1332 O1380 2.563 . S
Eu1332 O1381 2.419 . S
Eu1332 O1383 2.380 . S
Eu1332 O1384 2.432 . S
Eu1332 C1396 2.848 . S
C1333 C1336 1.429 . S
C1333 C1337 1.411 . S
C1333 N1340 1.377 . S
C1334 C1336 1.420 . S
C1334 C1338 1.423 . S
C1334 C1346 1.392 . S
C1335 C1337 1.420 . S
C1335 C1338 1.351 . S
C1335 H1358 0.931 . S
C1336 C1333 1.429 . S
C1336 C1334 1.420 . S
C1336 N1344 1.362 . S
C1337 C1333 1.411 . S
C1337 C1335 1.420 . S
C1337 C1342 1.395 . S
C1338 C1334 1.423 . S
C1338 C1335 1.351 . S
C1338 H1350 0.930 . S
C1339 C1341 1.400 . S
C1339 C1342 1.386 . S
C1339 H1351 0.930 . S
N1340 C1333 1.377 . S
N1340 C1341 1.321 . S
N1340 Eu1343 2.609 . S
C1341 C1339 1.400 . S
C1341 N1340 1.321 . S
C1341 H1348 0.930 . S
C1342 C1337 1.395 . S
C1342 C1339 1.386 . S
C1342 H1361 0.930 . S
Eu1343 N1340 2.609 . S
Eu1343 N1344 2.657 . S
Eu1343 O1377 2.380 . S
Eu1343 O1378 2.432 . S
Eu1343 O1382 2.558 . S
Eu1343 O1383 2.612 . S
Eu1343 O1385 2.339 . S
Eu1343 O1386 2.563 . S
Eu1343 O1387 2.419 . S
Eu1343 C1407 2.848 . S
N1344 C1336 1.362 . S
N1344 Eu1343 2.657 . S
N1344 C1345 1.334 . S
C1345 N1344 1.334 . S
C1345 C1347 1.413 . S
C1345 H1352 0.929 . S
C1346 C1334 1.392 . S
C1346 C1347 1.367 . S
C1346 H1354 0.930 . S
C1347 C1345 1.413 . S
C1347 C1346 1.367 . S
C1347 H1349 0.930 . S
H1348 C1341 0.930 . S
H1349 C1347 0.930 . S
H1350 C1338 0.930 . S
H1351 C1339 0.930 . S
H1352 C1345 0.929 . S
H1353 C1367 0.930 . S
H1354 C1346 0.930 . S
H1355 C1373 0.930 . S
H1356 C1364 0.929 . S
H1357 C1371 0.930 . S
H1358 C1335 0.931 . S
H1359 C1365 0.930 . S
H1360 C1398 0.930 . S
H1361 C1342 0.930 . S
H1362 C1397 0.931 . S
N1363 Eu1332 2.657 . S
N1363 C1364 1.334 . S
N1363 C1368 1.362 . S
C1364 H1356 0.929 . S
C1364 N1363 1.334 . S
C1364 C1367 1.413 . S
C1365 H1359 0.930 . S
C1365 C1366 1.392 . S
C1365 C1367 1.367 . S
C1366 C1365 1.392 . S
C1366 C1368 1.420 . S
C1366 C1398 1.423 . S
C1367 H1353 0.930 . S
C1367 C1364 1.413 . S
C1367 C1365 1.367 . S
C1368 N1363 1.362 . S
C1368 C1366 1.420 . S
C1368 C1372 1.429 . S
H1369 C1374 0.930 . S
N1370 Eu1332 2.609 . S
N1370 C1372 1.377 . S
N1370 C1373 1.321 . S
C1371 H1357 0.930 . S
C1371 C1373 1.400 . S
C1371 C1374 1.386 . S
C1372 C1368 1.429 . S
C1372 N1370 1.377 . S
C1372 C1375 1.411 . S
C1373 H1355 0.930 . S
C1373 N1370 1.321 . S
C1373 C1371 1.400 . S
C1374 H1369 0.930 . S
C1374 C1371 1.386 . S
C1374 C1375 1.395 . S
C1375 C1372 1.411 . S
C1375 C1374 1.395 . S
C1375 C1397 1.420 . S
O1376 Eu1332 2.558 . S
O1376 C1396 1.257 . S
O1377 Eu1332 2.612 . S
O1377 Eu1343 2.380 . S
O1377 C1388 1.276 . S
O1378 Eu1343 2.432 . S
O1378 C1395 1.264 . S
O1379 Eu1332 2.339 . S
O1379 C1395 1.254 . S
O1380 Eu1332 2.563 . S
O1380 C1388 1.235 . S
O1381 Eu1332 2.419 . S
O1381 C1396 1.249 . S
O1382 Eu1343 2.558 . S
O1382 C1407 1.257 . S
O1383 Eu1332 2.380 . S
O1383 Eu1343 2.612 . S
O1383 C1399 1.276 . S
O1384 Eu1332 2.432 . S
O1384 C1406 1.264 . S
O1385 Eu1343 2.339 . S
O1385 C1406 1.254 . S
O1386 Eu1343 2.563 . S
O1386 C1399 1.235 . S
O1387 Eu1343 2.419 . S
O1387 C1407 1.249 . S
C1388 O1377 1.276 . S
C1388 O1380 1.235 . S
C1389 C1391 1.393 . S
C1389 C1393 1.395 . S
C1389 C1396 1.492 . S
C1390 C1391 1.392 . S
C1390 C1392 1.386 . S
C1391 C1389 1.393 . S
C1391 C1390 1.392 . S
C1391 H1408 0.930 . S
C1392 C1390 1.386 . S
C1392 C1394 1.395 . S
C1392 H1409 0.930 . S
C1393 C1389 1.395 . S
C1393 C1394 1.379 . S
C1393 H1410 0.930 . S
C1394 C1392 1.395 . S
C1394 C1393 1.379 . S
C1394 H1411 0.930 . S
C1395 O1378 1.264 . S
C1395 O1379 1.254 . S
C1396 Eu1332 2.848 . S
C1396 O1376 1.257 . S
C1396 O1381 1.249 . S
C1396 C1389 1.492 . S
C1397 H1362 0.931 . S
C1397 C1375 1.420 . S
C1397 C1398 1.351 . S
C1398 H1360 0.930 . S
C1398 C1366 1.423 . S
C1398 C1397 1.351 . S
C1399 O1383 1.276 . S
C1399 O1386 1.235 . S
C1400 C1401 1.393 . S
C1400 C1404 1.395 . S
C1400 C1407 1.492 . S
C1401 C1400 1.393 . S
C1401 C1402 1.392 . S
C1401 H1412 0.930 . S
C1402 C1401 1.392 . S
C1402 C1403 1.386 . S
C1403 C1402 1.386 . S
C1403 C1405 1.395 . S
C1403 H1413 0.930 . S
C1404 C1400 1.395 . S
C1404 C1405 1.379 . S
C1404 H1414 0.930 . S
C1405 C1403 1.395 . S
C1405 C1404 1.379 . S
C1405 H1415 0.930 . S
C1406 O1384 1.264 . S
C1406 O1385 1.254 . S
C1407 Eu1343 2.848 . S
C1407 O1382 1.257 . S
C1407 O1387 1.249 . S
C1407 C1400 1.492 . S
H1408 C1391 0.930 . S
H1409 C1392 0.930 . S
H1410 C1393 0.930 . S
H1411 C1394 0.930 . S
H1412 C1401 0.930 . S
H1413 C1403 0.930 . S
H1414 C1404 0.930 . S
H1415 C1405 0.930 . S
Eu1416 N1447 2.657 . S
Eu1416 N1454 2.609 . S
Eu1416 O1460 2.558 . S
Eu1416 O1461 2.612 . S
Eu1416 O1463 2.339 . S
Eu1416 O1464 2.563 . S
Eu1416 O1465 2.419 . S
Eu1416 O1467 2.380 . S
Eu1416 O1468 2.432 . S
Eu1416 C1480 2.848 . S
C1417 C1420 1.429 . S
C1417 C1421 1.411 . S
C1417 N1424 1.377 . S
C1418 C1420 1.420 . S
C1418 C1422 1.423 . S
C1418 C1430 1.392 . S
C1419 C1421 1.420 . S
C1419 C1422 1.351 . S
C1419 H1442 0.931 . S
C1420 C1417 1.429 . S
C1420 C1418 1.420 . S
C1420 N1428 1.362 . S
C1421 C1417 1.411 . S
C1421 C1419 1.420 . S
C1421 C1426 1.395 . S
C1422 C1418 1.423 . S
C1422 C1419 1.351 . S
C1422 H1434 0.930 . S
C1423 C1425 1.400 . S
C1423 C1426 1.386 . S
C1423 H1435 0.930 . S
N1424 C1417 1.377 . S
N1424 C1425 1.321 . S
N1424 Eu1427 2.609 . S
C1425 C1423 1.400 . S
C1425 N1424 1.321 . S
C1425 H1432 0.930 . S
C1426 C1421 1.395 . S
C1426 C1423 1.386 . S
C1426 H1445 0.930 . S
Eu1427 N1424 2.609 . S
Eu1427 N1428 2.657 . S
Eu1427 O1461 2.380 . S
Eu1427 O1462 2.432 . S
Eu1427 O1466 2.558 . S
Eu1427 O1467 2.612 . S
Eu1427 O1469 2.339 . S
Eu1427 O1470 2.563 . S
Eu1427 O1471 2.419 . S
Eu1427 C1491 2.848 . S
N1428 C1420 1.362 . S
N1428 Eu1427 2.657 . S
N1428 C1429 1.334 . S
C1429 N1428 1.334 . S
C1429 C1431 1.413 . S
C1429 H1436 0.929 . S
C1430 C1418 1.392 . S
C1430 C1431 1.367 . S
C1430 H1438 0.930 . S
C1431 C1429 1.413 . S
C1431 C1430 1.367 . S
C1431 H1433 0.930 . S
H1432 C1425 0.930 . S
H1433 C1431 0.930 . S
H1434 C1422 0.930 . S
H1435 C1423 0.930 . S
H1436 C1429 0.929 . S
H1437 C1451 0.930 . S
H1438 C1430 0.930 . S
H1439 C1457 0.930 . S
H1440 C1448 0.929 . S
H1441 C1455 0.930 . S
H1442 C1419 0.931 . S
H1443 C1449 0.930 . S
H1444 C1482 0.930 . S
H1445 C1426 0.930 . S
H1446 C1481 0.931 . S
N1447 Eu1416 2.657 . S
N1447 C1448 1.334 . S
N1447 C1452 1.362 . S
C1448 H1440 0.929 . S
C1448 N1447 1.334 . S
C1448 C1451 1.413 . S
C1449 H1443 0.930 . S
C1449 C1450 1.392 . S
C1449 C1451 1.367 . S
C1450 C1449 1.392 . S
C1450 C1452 1.420 . S
C1450 C1482 1.423 . S
C1451 H1437 0.930 . S
C1451 C1448 1.413 . S
C1451 C1449 1.367 . S
C1452 N1447 1.362 . S
C1452 C1450 1.420 . S
C1452 C1456 1.429 . S
H1453 C1458 0.930 . S
N1454 Eu1416 2.609 . S
N1454 C1456 1.377 . S
N1454 C1457 1.321 . S
C1455 H1441 0.930 . S
C1455 C1457 1.400 . S
C1455 C1458 1.386 . S
C1456 C1452 1.429 . S
C1456 N1454 1.377 . S
C1456 C1459 1.411 . S
C1457 H1439 0.930 . S
C1457 N1454 1.321 . S
C1457 C1455 1.400 . S
C1458 H1453 0.930 . S
C1458 C1455 1.386 . S
C1458 C1459 1.395 . S
C1459 C1456 1.411 . S
C1459 C1458 1.395 . S
C1459 C1481 1.420 . S
O1460 Eu1416 2.558 . S
O1460 C1480 1.257 . S
O1461 Eu1416 2.612 . S
O1461 Eu1427 2.380 . S
O1461 C1472 1.276 . S
O1462 Eu1427 2.432 . S
O1462 C1479 1.264 . S
O1463 Eu1416 2.339 . S
O1463 C1479 1.254 . S
O1464 Eu1416 2.563 . S
O1464 C1472 1.235 . S
O1465 Eu1416 2.419 . S
O1465 C1480 1.249 . S
O1466 Eu1427 2.558 . S
O1466 C1491 1.257 . S
O1467 Eu1416 2.380 . S
O1467 Eu1427 2.612 . S
O1467 C1483 1.276 . S
O1468 Eu1416 2.432 . S
O1468 C1490 1.264 . S
O1469 Eu1427 2.339 . S
O1469 C1490 1.254 . S
O1470 Eu1427 2.563 . S
O1470 C1483 1.235 . S
O1471 Eu1427 2.419 . S
O1471 C1491 1.249 . S
C1472 O1461 1.276 . S
C1472 O1464 1.235 . S
C1473 C1475 1.393 . S
C1473 C1477 1.395 . S
C1473 C1480 1.492 . S
C1474 C1475 1.392 . S
C1474 C1476 1.386 . S
C1475 C1473 1.393 . S
C1475 C1474 1.392 . S
C1475 H1492 0.930 . S
C1476 C1474 1.386 . S
C1476 C1478 1.395 . S
C1476 H1493 0.930 . S
C1477 C1473 1.395 . S
C1477 C1478 1.379 . S
C1477 H1494 0.930 . S
C1478 C1476 1.395 . S
C1478 C1477 1.379 . S
C1478 H1495 0.930 . S
C1479 O1462 1.264 . S
C1479 O1463 1.254 . S
C1480 Eu1416 2.848 . S
C1480 O1460 1.257 . S
C1480 O1465 1.249 . S
C1480 C1473 1.492 . S
C1481 H1446 0.931 . S
C1481 C1459 1.420 . S
C1481 C1482 1.351 . S
C1482 H1444 0.930 . S
C1482 C1450 1.423 . S
C1482 C1481 1.351 . S
C1483 O1467 1.276 . S
C1483 O1470 1.235 . S
C1484 C1485 1.393 . S
C1484 C1488 1.395 . S
C1484 C1491 1.492 . S
C1485 C1484 1.393 . S
C1485 C1486 1.392 . S
C1485 H1496 0.930 . S
C1486 C1485 1.392 . S
C1486 C1487 1.386 . S
C1487 C1486 1.386 . S
C1487 C1489 1.395 . S
C1487 H1497 0.930 . S
C1488 C1484 1.395 . S
C1488 C1489 1.379 . S
C1488 H1498 0.930 . S
C1489 C1487 1.395 . S
C1489 C1488 1.379 . S
C1489 H1499 0.930 . S
C1490 O1468 1.264 . S
C1490 O1469 1.254 . S
C1491 Eu1427 2.848 . S
C1491 O1466 1.257 . S
C1491 O1471 1.249 . S
C1491 C1484 1.492 . S
H1492 C1475 0.930 . S
H1493 C1476 0.930 . S
H1494 C1477 0.930 . S
H1495 C1478 0.930 . S
H1496 C1485 0.930 . S
H1497 C1487 0.930 . S
H1498 C1488 0.930 . S
H1499 C1489 0.930 . S
Eu1500 N1531 2.657 . S
Eu1500 N1538 2.609 . S
Eu1500 O1544 2.558 . S
Eu1500 O1545 2.612 . S
Eu1500 O1547 2.339 . S
Eu1500 O1548 2.563 . S
Eu1500 O1549 2.419 . S
Eu1500 O1551 2.380 . S
Eu1500 O1552 2.432 . S
Eu1500 C1564 2.848 . S
C1501 C1504 1.429 . S
C1501 C1505 1.411 . S
C1501 N1508 1.377 . S
C1502 C1504 1.420 . S
C1502 C1506 1.423 . S
C1502 C1514 1.392 . S
C1503 C1505 1.420 . S
C1503 C1506 1.351 . S
C1503 H1526 0.931 . S
C1504 C1501 1.429 . S
C1504 C1502 1.420 . S
C1504 N1512 1.362 . S
C1505 C1501 1.411 . S
C1505 C1503 1.420 . S
C1505 C1510 1.395 . S
C1506 C1502 1.423 . S
C1506 C1503 1.351 . S
C1506 H1518 0.930 . S
C1507 C1509 1.400 . S
C1507 C1510 1.386 . S
C1507 H1519 0.930 . S
N1508 C1501 1.377 . S
N1508 C1509 1.321 . S
N1508 Eu1511 2.609 . S
C1509 C1507 1.400 . S
C1509 N1508 1.321 . S
C1509 H1516 0.930 . S
C1510 C1505 1.395 . S
C1510 C1507 1.386 . S
C1510 H1529 0.930 . S
Eu1511 N1508 2.609 . S
Eu1511 N1512 2.657 . S
Eu1511 O1545 2.380 . S
Eu1511 O1546 2.432 . S
Eu1511 O1550 2.558 . S
Eu1511 O1551 2.612 . S
Eu1511 O1553 2.339 . S
Eu1511 O1554 2.563 . S
Eu1511 O1555 2.419 . S
Eu1511 C1575 2.848 . S
N1512 C1504 1.362 . S
N1512 Eu1511 2.657 . S
N1512 C1513 1.334 . S
C1513 N1512 1.334 . S
C1513 C1515 1.413 . S
C1513 H1520 0.929 . S
C1514 C1502 1.392 . S
C1514 C1515 1.367 . S
C1514 H1522 0.930 . S
C1515 C1513 1.413 . S
C1515 C1514 1.367 . S
C1515 H1517 0.930 . S
H1516 C1509 0.930 . S
H1517 C1515 0.930 . S
H1518 C1506 0.930 . S
H1519 C1507 0.930 . S
H1520 C1513 0.929 . S
H1521 C1535 0.930 . S
H1522 C1514 0.930 . S
H1523 C1541 0.930 . S
H1524 C1532 0.929 . S
H1525 C1539 0.930 . S
H1526 C1503 0.931 . S
H1527 C1533 0.930 . S
H1528 C1566 0.930 . S
H1529 C1510 0.930 . S
H1530 C1565 0.931 . S
N1531 Eu1500 2.657 . S
N1531 C1532 1.334 . S
N1531 C1536 1.362 . S
C1532 H1524 0.929 . S
C1532 N1531 1.334 . S
C1532 C1535 1.413 . S
C1533 H1527 0.930 . S
C1533 C1534 1.392 . S
C1533 C1535 1.367 . S
C1534 C1533 1.392 . S
C1534 C1536 1.420 . S
C1534 C1566 1.423 . S
C1535 H1521 0.930 . S
C1535 C1532 1.413 . S
C1535 C1533 1.367 . S
C1536 N1531 1.362 . S
C1536 C1534 1.420 . S
C1536 C1540 1.429 . S
H1537 C1542 0.930 . S
N1538 Eu1500 2.609 . S
N1538 C1540 1.377 . S
N1538 C1541 1.321 . S
C1539 H1525 0.930 . S
C1539 C1541 1.400 . S
C1539 C1542 1.386 . S
C1540 C1536 1.429 . S
C1540 N1538 1.377 . S
C1540 C1543 1.411 . S
C1541 H1523 0.930 . S
C1541 N1538 1.321 . S
C1541 C1539 1.400 . S
C1542 H1537 0.930 . S
C1542 C1539 1.386 . S
C1542 C1543 1.395 . S
C1543 C1540 1.411 . S
C1543 C1542 1.395 . S
C1543 C1565 1.420 . S
O1544 Eu1500 2.558 . S
O1544 C1564 1.257 . S
O1545 Eu1500 2.612 . S
O1545 Eu1511 2.380 . S
O1545 C1556 1.276 . S
O1546 Eu1511 2.432 . S
O1546 C1563 1.264 . S
O1547 Eu1500 2.339 . S
O1547 C1563 1.254 . S
O1548 Eu1500 2.563 . S
O1548 C1556 1.235 . S
O1549 Eu1500 2.419 . S
O1549 C1564 1.249 . S
O1550 Eu1511 2.558 . S
O1550 C1575 1.257 . S
O1551 Eu1500 2.380 . S
O1551 Eu1511 2.612 . S
O1551 C1567 1.276 . S
O1552 Eu1500 2.432 . S
O1552 C1574 1.264 . S
O1553 Eu1511 2.339 . S
O1553 C1574 1.254 . S
O1554 Eu1511 2.563 . S
O1554 C1567 1.235 . S
O1555 Eu1511 2.419 . S
O1555 C1575 1.249 . S
C1556 O1545 1.276 . S
C1556 O1548 1.235 . S
C1557 C1559 1.393 . S
C1557 C1561 1.395 . S
C1557 C1564 1.492 . S
C1558 C1559 1.392 . S
C1558 C1560 1.386 . S
C1559 C1557 1.393 . S
C1559 C1558 1.392 . S
C1559 H1576 0.930 . S
C1560 C1558 1.386 . S
C1560 C1562 1.395 . S
C1560 H1577 0.930 . S
C1561 C1557 1.395 . S
C1561 C1562 1.379 . S
C1561 H1578 0.930 . S
C1562 C1560 1.395 . S
C1562 C1561 1.379 . S
C1562 H1579 0.930 . S
C1563 O1546 1.264 . S
C1563 O1547 1.254 . S
C1564 Eu1500 2.848 . S
C1564 O1544 1.257 . S
C1564 O1549 1.249 . S
C1564 C1557 1.492 . S
C1565 H1530 0.931 . S
C1565 C1543 1.420 . S
C1565 C1566 1.351 . S
C1566 H1528 0.930 . S
C1566 C1534 1.423 . S
C1566 C1565 1.351 . S
C1567 O1551 1.276 . S
C1567 O1554 1.235 . S
C1568 C1569 1.393 . S
C1568 C1572 1.395 . S
C1568 C1575 1.492 . S
C1569 C1568 1.393 . S
C1569 C1570 1.392 . S
C1569 H1580 0.930 . S
C1570 C1569 1.392 . S
C1570 C1571 1.386 . S
C1571 C1570 1.386 . S
C1571 C1573 1.395 . S
C1571 H1581 0.930 . S
C1572 C1568 1.395 . S
C1572 C1573 1.379 . S
C1572 H1582 0.930 . S
C1573 C1571 1.395 . S
C1573 C1572 1.379 . S
C1573 H1583 0.930 . S
C1574 O1552 1.264 . S
C1574 O1553 1.254 . S
C1575 Eu1511 2.848 . S
C1575 O1550 1.257 . S
C1575 O1555 1.249 . S
C1575 C1568 1.492 . S
H1576 C1559 0.930 . S
H1577 C1560 0.930 . S
H1578 C1561 0.930 . S
H1579 C1562 0.930 . S
H1580 C1569 0.930 . S
H1581 C1571 0.930 . S
H1582 C1572 0.930 . S
H1583 C1573 0.930 . S
Eu1584 N1615 2.657 . S
Eu1584 N1622 2.609 . S
Eu1584 O1628 2.558 . S
Eu1584 O1629 2.612 . S
Eu1584 O1631 2.339 . S
Eu1584 O1632 2.563 . S
Eu1584 O1633 2.419 . S
Eu1584 O1635 2.380 . S
Eu1584 O1636 2.432 . S
Eu1584 C1648 2.848 . S
C1585 C1588 1.429 . S
C1585 C1589 1.411 . S
C1585 N1592 1.377 . S
C1586 C1588 1.420 . S
C1586 C1590 1.423 . S
C1586 C1598 1.392 . S
C1587 C1589 1.420 . S
C1587 C1590 1.351 . S
C1587 H1610 0.931 . S
C1588 C1585 1.429 . S
C1588 C1586 1.420 . S
C1588 N1596 1.362 . S
C1589 C1585 1.411 . S
C1589 C1587 1.420 . S
C1589 C1594 1.395 . S
C1590 C1586 1.423 . S
C1590 C1587 1.351 . S
C1590 H1602 0.930 . S
C1591 C1593 1.400 . S
C1591 C1594 1.386 . S
C1591 H1603 0.930 . S
N1592 C1585 1.377 . S
N1592 C1593 1.321 . S
N1592 Eu1595 2.609 . S
C1593 C1591 1.400 . S
C1593 N1592 1.321 . S
C1593 H1600 0.930 . S
C1594 C1589 1.395 . S
C1594 C1591 1.386 . S
C1594 H1613 0.930 . S
Eu1595 N1592 2.609 . S
Eu1595 N1596 2.657 . S
Eu1595 O1629 2.380 . S
Eu1595 O1630 2.432 . S
Eu1595 O1634 2.558 . S
Eu1595 O1635 2.612 . S
Eu1595 O1637 2.339 . S
Eu1595 O1638 2.563 . S
Eu1595 O1639 2.419 . S
Eu1595 C1659 2.848 . S
N1596 C1588 1.362 . S
N1596 Eu1595 2.657 . S
N1596 C1597 1.334 . S
C1597 N1596 1.334 . S
C1597 C1599 1.413 . S
C1597 H1604 0.929 . S
C1598 C1586 1.392 . S
C1598 C1599 1.367 . S
C1598 H1606 0.930 . S
C1599 C1597 1.413 . S
C1599 C1598 1.367 . S
C1599 H1601 0.930 . S
H1600 C1593 0.930 . S
H1601 C1599 0.930 . S
H1602 C1590 0.930 . S
H1603 C1591 0.930 . S
H1604 C1597 0.929 . S
H1605 C1619 0.930 . S
H1606 C1598 0.930 . S
H1607 C1625 0.930 . S
H1608 C1616 0.929 . S
H1609 C1623 0.930 . S
H1610 C1587 0.931 . S
H1611 C1617 0.930 . S
H1612 C1650 0.930 . S
H1613 C1594 0.930 . S
H1614 C1649 0.931 . S
N1615 Eu1584 2.657 . S
N1615 C1616 1.334 . S
N1615 C1620 1.362 . S
C1616 H1608 0.929 . S
C1616 N1615 1.334 . S
C1616 C1619 1.413 . S
C1617 H1611 0.930 . S
C1617 C1618 1.392 . S
C1617 C1619 1.367 . S
C1618 C1617 1.392 . S
C1618 C1620 1.420 . S
C1618 C1650 1.423 . S
C1619 H1605 0.930 . S
C1619 C1616 1.413 . S
C1619 C1617 1.367 . S
C1620 N1615 1.362 . S
C1620 C1618 1.420 . S
C1620 C1624 1.429 . S
H1621 C1626 0.930 . S
N1622 Eu1584 2.609 . S
N1622 C1624 1.377 . S
N1622 C1625 1.321 . S
C1623 H1609 0.930 . S
C1623 C1625 1.400 . S
C1623 C1626 1.386 . S
C1624 C1620 1.429 . S
C1624 N1622 1.377 . S
C1624 C1627 1.411 . S
C1625 H1607 0.930 . S
C1625 N1622 1.321 . S
C1625 C1623 1.400 . S
C1626 H1621 0.930 . S
C1626 C1623 1.386 . S
C1626 C1627 1.395 . S
C1627 C1624 1.411 . S
C1627 C1626 1.395 . S
C1627 C1649 1.420 . S
O1628 Eu1584 2.558 . S
O1628 C1648 1.257 . S
O1629 Eu1584 2.612 . S
O1629 Eu1595 2.380 . S
O1629 C1640 1.276 . S
O1630 Eu1595 2.432 . S
O1630 C1647 1.264 . S
O1631 Eu1584 2.339 . S
O1631 C1647 1.254 . S
O1632 Eu1584 2.563 . S
O1632 C1640 1.235 . S
O1633 Eu1584 2.419 . S
O1633 C1648 1.249 . S
O1634 Eu1595 2.558 . S
O1634 C1659 1.257 . S
O1635 Eu1584 2.380 . S
O1635 Eu1595 2.612 . S
O1635 C1651 1.276 . S
O1636 Eu1584 2.432 . S
O1636 C1658 1.264 . S
O1637 Eu1595 2.339 . S
O1637 C1658 1.254 . S
O1638 Eu1595 2.563 . S
O1638 C1651 1.235 . S
O1639 Eu1595 2.419 . S
O1639 C1659 1.249 . S
C1640 O1629 1.276 . S
C1640 O1632 1.235 . S
C1641 C1643 1.393 . S
C1641 C1645 1.395 . S
C1641 C1648 1.492 . S
C1642 C1643 1.392 . S
C1642 C1644 1.386 . S
C1643 C1641 1.393 . S
C1643 C1642 1.392 . S
C1643 H1660 0.930 . S
C1644 C1642 1.386 . S
C1644 C1646 1.395 . S
C1644 H1661 0.930 . S
C1645 C1641 1.395 . S
C1645 C1646 1.379 . S
C1645 H1662 0.930 . S
C1646 C1644 1.395 . S
C1646 C1645 1.379 . S
C1646 H1663 0.930 . S
C1647 O1630 1.264 . S
C1647 O1631 1.254 . S
C1648 Eu1584 2.848 . S
C1648 O1628 1.257 . S
C1648 O1633 1.249 . S
C1648 C1641 1.492 . S
C1649 H1614 0.931 . S
C1649 C1627 1.420 . S
C1649 C1650 1.351 . S
C1650 H1612 0.930 . S
C1650 C1618 1.423 . S
C1650 C1649 1.351 . S
C1651 O1635 1.276 . S
C1651 O1638 1.235 . S
C1652 C1653 1.393 . S
C1652 C1656 1.395 . S
C1652 C1659 1.492 . S
C1653 C1652 1.393 . S
C1653 C1654 1.392 . S
C1653 H1664 0.930 . S
C1654 C1653 1.392 . S
C1654 C1655 1.386 . S
C1655 C1654 1.386 . S
C1655 C1657 1.395 . S
C1655 H1665 0.930 . S
C1656 C1652 1.395 . S
C1656 C1657 1.379 . S
C1656 H1666 0.930 . S
C1657 C1655 1.395 . S
C1657 C1656 1.379 . S
C1657 H1667 0.930 . S
C1658 O1636 1.264 . S
C1658 O1637 1.254 . S
C1659 Eu1595 2.848 . S
C1659 O1634 1.257 . S
C1659 O1639 1.249 . S
C1659 C1652 1.492 . S
H1660 C1643 0.930 . S
H1661 C1644 0.930 . S
H1662 C1645 0.930 . S
H1663 C1646 0.930 . S
H1664 C1653 0.930 . S
H1665 C1655 0.930 . S
H1666 C1656 0.930 . S
H1667 C1657 0.930 . S
Eu1668 N1699 2.657 . S
Eu1668 N1706 2.609 . S
Eu1668 O1712 2.558 . S
Eu1668 O1713 2.612 . S
Eu1668 O1715 2.339 . S
Eu1668 O1716 2.563 . S
Eu1668 O1717 2.419 . S
Eu1668 O1719 2.380 . S
Eu1668 O1720 2.432 . S
Eu1668 C1732 2.848 . S
C1669 C1672 1.429 . S
C1669 C1673 1.411 . S
C1669 N1676 1.377 . S
C1670 C1672 1.420 . S
C1670 C1674 1.423 . S
C1670 C1682 1.392 . S
C1671 C1673 1.420 . S
C1671 C1674 1.351 . S
C1671 H1694 0.931 . S
C1672 C1669 1.429 . S
C1672 C1670 1.420 . S
C1672 N1680 1.362 . S
C1673 C1669 1.411 . S
C1673 C1671 1.420 . S
C1673 C1678 1.395 . S
C1674 C1670 1.423 . S
C1674 C1671 1.351 . S
C1674 H1686 0.930 . S
C1675 C1677 1.400 . S
C1675 C1678 1.386 . S
C1675 H1687 0.930 . S
N1676 C1669 1.377 . S
N1676 C1677 1.321 . S
N1676 Eu1679 2.609 . S
C1677 C1675 1.400 . S
C1677 N1676 1.321 . S
C1677 H1684 0.930 . S
C1678 C1673 1.395 . S
C1678 C1675 1.386 . S
C1678 H1697 0.930 . S
Eu1679 N1676 2.609 . S
Eu1679 N1680 2.657 . S
Eu1679 O1713 2.380 . S
Eu1679 O1714 2.432 . S
Eu1679 O1718 2.558 . S
Eu1679 O1719 2.612 . S
Eu1679 O1721 2.339 . S
Eu1679 O1722 2.563 . S
Eu1679 O1723 2.419 . S
Eu1679 C1743 2.848 . S
N1680 C1672 1.362 . S
N1680 Eu1679 2.657 . S
N1680 C1681 1.334 . S
C1681 N1680 1.334 . S
C1681 C1683 1.413 . S
C1681 H1688 0.929 . S
C1682 C1670 1.392 . S
C1682 C1683 1.367 . S
C1682 H1690 0.930 . S
C1683 C1681 1.413 . S
C1683 C1682 1.367 . S
C1683 H1685 0.930 . S
H1684 C1677 0.930 . S
H1685 C1683 0.930 . S
H1686 C1674 0.930 . S
H1687 C1675 0.930 . S
H1688 C1681 0.929 . S
H1689 C1703 0.930 . S
H1690 C1682 0.930 . S
H1691 C1709 0.930 . S
H1692 C1700 0.929 . S
H1693 C1707 0.930 . S
H1694 C1671 0.931 . S
H1695 C1701 0.930 . S
H1696 C1734 0.930 . S
H1697 C1678 0.930 . S
H1698 C1733 0.931 . S
N1699 Eu1668 2.657 . S
N1699 C1700 1.334 . S
N1699 C1704 1.362 . S
C1700 H1692 0.929 . S
C1700 N1699 1.334 . S
C1700 C1703 1.413 . S
C1701 H1695 0.930 . S
C1701 C1702 1.392 . S
C1701 C1703 1.367 . S
C1702 C1701 1.392 . S
C1702 C1704 1.420 . S
C1702 C1734 1.423 . S
C1703 H1689 0.930 . S
C1703 C1700 1.413 . S
C1703 C1701 1.367 . S
C1704 N1699 1.362 . S
C1704 C1702 1.420 . S
C1704 C1708 1.429 . S
H1705 C1710 0.930 . S
N1706 Eu1668 2.609 . S
N1706 C1708 1.377 . S
N1706 C1709 1.321 . S
C1707 H1693 0.930 . S
C1707 C1709 1.400 . S
C1707 C1710 1.386 . S
C1708 C1704 1.429 . S
C1708 N1706 1.377 . S
C1708 C1711 1.411 . S
C1709 H1691 0.930 . S
C1709 N1706 1.321 . S
C1709 C1707 1.400 . S
C1710 H1705 0.930 . S
C1710 C1707 1.386 . S
C1710 C1711 1.395 . S
C1711 C1708 1.411 . S
C1711 C1710 1.395 . S
C1711 C1733 1.420 . S
O1712 Eu1668 2.558 . S
O1712 C1732 1.257 . S
O1713 Eu1668 2.612 . S
O1713 Eu1679 2.380 . S
O1713 C1724 1.276 . S
O1714 Eu1679 2.432 . S
O1714 C1731 1.264 . S
O1715 Eu1668 2.339 . S
O1715 C1731 1.254 . S
O1716 Eu1668 2.563 . S
O1716 C1724 1.235 . S
O1717 Eu1668 2.419 . S
O1717 C1732 1.249 . S
O1718 Eu1679 2.558 . S
O1718 C1743 1.257 . S
O1719 Eu1668 2.380 . S
O1719 Eu1679 2.612 . S
O1719 C1735 1.276 . S
O1720 Eu1668 2.432 . S
O1720 C1742 1.264 . S
O1721 Eu1679 2.339 . S
O1721 C1742 1.254 . S
O1722 Eu1679 2.563 . S
O1722 C1735 1.235 . S
O1723 Eu1679 2.419 . S
O1723 C1743 1.249 . S
C1724 O1713 1.276 . S
C1724 O1716 1.235 . S
C1725 C1727 1.393 . S
C1725 C1729 1.395 . S
C1725 C1732 1.492 . S
C1726 C1727 1.392 . S
C1726 C1728 1.386 . S
C1727 C1725 1.393 . S
C1727 C1726 1.392 . S
C1727 H1744 0.930 . S
C1728 C1726 1.386 . S
C1728 C1730 1.395 . S
C1728 H1745 0.930 . S
C1729 C1725 1.395 . S
C1729 C1730 1.379 . S
C1729 H1746 0.930 . S
C1730 C1728 1.395 . S
C1730 C1729 1.379 . S
C1730 H1747 0.930 . S
C1731 O1714 1.264 . S
C1731 O1715 1.254 . S
C1732 Eu1668 2.848 . S
C1732 O1712 1.257 . S
C1732 O1717 1.249 . S
C1732 C1725 1.492 . S
C1733 H1698 0.931 . S
C1733 C1711 1.420 . S
C1733 C1734 1.351 . S
C1734 H1696 0.930 . S
C1734 C1702 1.423 . S
C1734 C1733 1.351 . S
C1735 O1719 1.276 . S
C1735 O1722 1.235 . S
C1736 C1737 1.393 . S
C1736 C1740 1.395 . S
C1736 C1743 1.492 . S
C1737 C1736 1.393 . S
C1737 C1738 1.392 . S
C1737 H1748 0.930 . S
C1738 C1737 1.392 . S
C1738 C1739 1.386 . S
C1739 C1738 1.386 . S
C1739 C1741 1.395 . S
C1739 H1749 0.930 . S
C1740 C1736 1.395 . S
C1740 C1741 1.379 . S
C1740 H1750 0.930 . S
C1741 C1739 1.395 . S
C1741 C1740 1.379 . S
C1741 H1751 0.930 . S
C1742 O1720 1.264 . S
C1742 O1721 1.254 . S
C1743 Eu1679 2.848 . S
C1743 O1718 1.257 . S
C1743 O1723 1.249 . S
C1743 C1736 1.492 . S
H1744 C1727 0.930 . S
H1745 C1728 0.930 . S
H1746 C1729 0.930 . S
H1747 C1730 0.930 . S
H1748 C1737 0.930 . S
H1749 C1739 0.930 . S
H1750 C1740 0.930 . S
H1751 C1741 0.930 . S
Eu1752 N1783 2.657 . S
Eu1752 N1790 2.609 . S
Eu1752 O1796 2.558 . S
Eu1752 O1797 2.612 . S
Eu1752 O1799 2.339 . S
Eu1752 O1800 2.563 . S
Eu1752 O1801 2.419 . S
Eu1752 O1803 2.380 . S
Eu1752 O1804 2.432 . S
Eu1752 C1816 2.848 . S
C1753 C1756 1.429 . S
C1753 C1757 1.411 . S
C1753 N1760 1.377 . S
C1754 C1756 1.420 . S
C1754 C1758 1.423 . S
C1754 C1766 1.392 . S
C1755 C1757 1.420 . S
C1755 C1758 1.351 . S
C1755 H1778 0.931 . S
C1756 C1753 1.429 . S
C1756 C1754 1.420 . S
C1756 N1764 1.362 . S
C1757 C1753 1.411 . S
C1757 C1755 1.420 . S
C1757 C1762 1.395 . S
C1758 C1754 1.423 . S
C1758 C1755 1.351 . S
C1758 H1770 0.930 . S
C1759 C1761 1.400 . S
C1759 C1762 1.386 . S
C1759 H1771 0.930 . S
N1760 C1753 1.377 . S
N1760 C1761 1.321 . S
N1760 Eu1763 2.609 . S
C1761 C1759 1.400 . S
C1761 N1760 1.321 . S
C1761 H1768 0.930 . S
C1762 C1757 1.395 . S
C1762 C1759 1.386 . S
C1762 H1781 0.930 . S
Eu1763 N1760 2.609 . S
Eu1763 N1764 2.657 . S
Eu1763 O1797 2.380 . S
Eu1763 O1798 2.432 . S
Eu1763 O1802 2.558 . S
Eu1763 O1803 2.612 . S
Eu1763 O1805 2.339 . S
Eu1763 O1806 2.563 . S
Eu1763 O1807 2.419 . S
Eu1763 C1827 2.848 . S
N1764 C1756 1.362 . S
N1764 Eu1763 2.657 . S
N1764 C1765 1.334 . S
C1765 N1764 1.334 . S
C1765 C1767 1.413 . S
C1765 H1772 0.929 . S
C1766 C1754 1.392 . S
C1766 C1767 1.367 . S
C1766 H1774 0.930 . S
C1767 C1765 1.413 . S
C1767 C1766 1.367 . S
C1767 H1769 0.930 . S
H1768 C1761 0.930 . S
H1769 C1767 0.930 . S
H1770 C1758 0.930 . S
H1771 C1759 0.930 . S
H1772 C1765 0.929 . S
H1773 C1787 0.930 . S
H1774 C1766 0.930 . S
H1775 C1793 0.930 . S
H1776 C1784 0.929 . S
H1777 C1791 0.930 . S
H1778 C1755 0.931 . S
H1779 C1785 0.930 . S
H1780 C1818 0.930 . S
H1781 C1762 0.930 . S
H1782 C1817 0.931 . S
N1783 Eu1752 2.657 . S
N1783 C1784 1.334 . S
N1783 C1788 1.362 . S
C1784 H1776 0.929 . S
C1784 N1783 1.334 . S
C1784 C1787 1.413 . S
C1785 H1779 0.930 . S
C1785 C1786 1.392 . S
C1785 C1787 1.367 . S
C1786 C1785 1.392 . S
C1786 C1788 1.420 . S
C1786 C1818 1.423 . S
C1787 H1773 0.930 . S
C1787 C1784 1.413 . S
C1787 C1785 1.367 . S
C1788 N1783 1.362 . S
C1788 C1786 1.420 . S
C1788 C1792 1.429 . S
H1789 C1794 0.930 . S
N1790 Eu1752 2.609 . S
N1790 C1792 1.377 . S
N1790 C1793 1.321 . S
C1791 H1777 0.930 . S
C1791 C1793 1.400 . S
C1791 C1794 1.386 . S
C1792 C1788 1.429 . S
C1792 N1790 1.377 . S
C1792 C1795 1.411 . S
C1793 H1775 0.930 . S
C1793 N1790 1.321 . S
C1793 C1791 1.400 . S
C1794 H1789 0.930 . S
C1794 C1791 1.386 . S
C1794 C1795 1.395 . S
C1795 C1792 1.411 . S
C1795 C1794 1.395 . S
C1795 C1817 1.420 . S
O1796 Eu1752 2.558 . S
O1796 C1816 1.257 . S
O1797 Eu1752 2.612 . S
O1797 Eu1763 2.380 . S
O1797 C1808 1.276 . S
O1798 Eu1763 2.432 . S
O1798 C1815 1.264 . S
O1799 Eu1752 2.339 . S
O1799 C1815 1.254 . S
O1800 Eu1752 2.563 . S
O1800 C1808 1.235 . S
O1801 Eu1752 2.419 . S
O1801 C1816 1.249 . S
O1802 Eu1763 2.558 . S
O1802 C1827 1.257 . S
O1803 Eu1752 2.380 . S
O1803 Eu1763 2.612 . S
O1803 C1819 1.276 . S
O1804 Eu1752 2.432 . S
O1804 C1826 1.264 . S
O1805 Eu1763 2.339 . S
O1805 C1826 1.254 . S
O1806 Eu1763 2.563 . S
O1806 C1819 1.235 . S
O1807 Eu1763 2.419 . S
O1807 C1827 1.249 . S
C1808 O1797 1.276 . S
C1808 O1800 1.235 . S
C1809 C1811 1.393 . S
C1809 C1813 1.395 . S
C1809 C1816 1.492 . S
C1810 C1811 1.392 . S
C1810 C1812 1.386 . S
C1811 C1809 1.393 . S
C1811 C1810 1.392 . S
C1811 H1828 0.930 . S
C1812 C1810 1.386 . S
C1812 C1814 1.395 . S
C1812 H1829 0.930 . S
C1813 C1809 1.395 . S
C1813 C1814 1.379 . S
C1813 H1830 0.930 . S
C1814 C1812 1.395 . S
C1814 C1813 1.379 . S
C1814 H1831 0.930 . S
C1815 O1798 1.264 . S
C1815 O1799 1.254 . S
C1816 Eu1752 2.848 . S
C1816 O1796 1.257 . S
C1816 O1801 1.249 . S
C1816 C1809 1.492 . S
C1817 H1782 0.931 . S
C1817 C1795 1.420 . S
C1817 C1818 1.351 . S
C1818 H1780 0.930 . S
C1818 C1786 1.423 . S
C1818 C1817 1.351 . S
C1819 O1803 1.276 . S
C1819 O1806 1.235 . S
C1820 C1821 1.393 . S
C1820 C1824 1.395 . S
C1820 C1827 1.492 . S
C1821 C1820 1.393 . S
C1821 C1822 1.392 . S
C1821 H1832 0.930 . S
C1822 C1821 1.392 . S
C1822 C1823 1.386 . S
C1823 C1822 1.386 . S
C1823 C1825 1.395 . S
C1823 H1833 0.930 . S
C1824 C1820 1.395 . S
C1824 C1825 1.379 . S
C1824 H1834 0.930 . S
C1825 C1823 1.395 . S
C1825 C1824 1.379 . S
C1825 H1835 0.930 . S
C1826 O1804 1.264 . S
C1826 O1805 1.254 . S
C1827 Eu1763 2.848 . S
C1827 O1802 1.257 . S
C1827 O1807 1.249 . S
C1827 C1820 1.492 . S
H1828 C1811 0.930 . S
H1829 C1812 0.930 . S
H1830 C1813 0.930 . S
H1831 C1814 0.930 . S
H1832 C1821 0.930 . S
H1833 C1823 0.930 . S
H1834 C1824 0.930 . S
H1835 C1825 0.930 . S
H1836 C1844 0.929 . S
H1837 C1846 0.930 . S
H1838 C1848 0.930 . S
H1839 C1851 0.929 . S
H1840 C1854 0.930 . S
H1841 C1856 0.960 . S
H1842 C1856 0.960 . S
H1843 C1856 0.960 . S
C1844 H1836 0.929 . S
C1844 C1845 1.377 . S
C1844 C1846 1.384 . S
C1845 C1844 1.377 . S
C1845 C1851 1.390 . S
C1846 H1837 0.930 . S
C1846 C1844 1.384 . S
C1846 C1847 1.372 . S
C1847 C1846 1.372 . S
C1847 C1848 1.400 . S
C1847 C1852 1.490 . S
C1848 H1838 0.930 . S
C1848 C1847 1.400 . S
C1848 C1851 1.386 . S
H1849 C1865 0.944 . S
H1850 C1866 0.931 . S
C1851 H1839 0.929 . S
C1851 C1845 1.390 . S
C1851 C1848 1.386 . S
C1852 C1847 1.490 . S
C1852 C1854 1.395 . S
C1852 C1855 1.403 . S
H1853 C1859 0.930 . S
C1854 H1840 0.930 . S
C1854 C1852 1.395 . S
C1854 C1857 1.403 . S
C1855 C1852 1.403 . S
C1855 C1856 1.524 . S
C1855 C1859 1.400 . S
C1856 H1841 0.960 . S
C1856 H1842 0.960 . S
C1856 H1843 0.960 . S
C1856 C1855 1.524 . S
C1857 C1854 1.403 . S
C1857 C1858 1.392 . S
C1857 C1861 1.495 . S
C1858 C1857 1.392 . S
C1858 C1859 1.385 . S
C1858 C1860 1.478 . S
C1859 H1853 0.930 . S
C1859 C1855 1.400 . S
C1859 C1858 1.385 . S
C1860 C1858 1.478 . S
C1860 C1862 1.381 . S
C1860 C1866 1.383 . S
C1861 C1857 1.495 . S
C1861 H1867 0.959 . S
C1861 H1868 0.961 . S
C1861 H1869 0.960 . S
C1862 C1860 1.381 . S
C1862 C1863 1.394 . S
C1862 H1870 0.930 . S
C1863 C1862 1.394 . S
C1863 C1864 1.383 . S
C1863 H1871 0.929 . S
C1864 C1863 1.383 . S
C1864 C1865 1.377 . S
C1865 H1849 0.944 . S
C1865 C1864 1.377 . S
C1865 C1866 1.379 . S
C1866 H1850 0.931 . S
C1866 C1860 1.383 . S
C1866 C1865 1.379 . S
H1867 C1861 0.959 . S
H1868 C1861 0.961 . S
H1869 C1861 0.960 . S
H1870 C1862 0.930 . S
H1871 C1863 0.929 . S
H1872 C1880 0.929 . S
H1873 C1882 0.930 . S
H1874 C1884 0.930 . S
H1875 C1887 0.929 . S
H1876 C1890 0.930 . S
H1877 C1892 0.960 . S
H1878 C1892 0.960 . S
H1879 C1892 0.960 . S
C1880 H1872 0.929 . S
C1880 C1881 1.377 . S
C1880 C1882 1.384 . S
C1881 C1880 1.377 . S
C1881 C1887 1.390 . S
C1882 H1873 0.930 . S
C1882 C1880 1.384 . S
C1882 C1883 1.372 . S
C1883 C1882 1.372 . S
C1883 C1884 1.400 . S
C1883 C1888 1.490 . S
C1884 H1874 0.930 . S
C1884 C1883 1.400 . S
C1884 C1887 1.386 . S
H1885 C1901 0.930 . S
H1886 C1902 0.931 . S
C1887 H1875 0.929 . S
C1887 C1881 1.390 . S
C1887 C1884 1.386 . S
C1888 C1883 1.490 . S
C1888 C1890 1.395 . S
C1888 C1891 1.403 . S
H1889 C1895 0.930 . S
C1890 H1876 0.930 . S
C1890 C1888 1.395 . S
C1890 C1893 1.403 . S
C1891 C1888 1.403 . S
C1891 C1892 1.524 . S
C1891 C1895 1.400 . S
C1892 H1877 0.960 . S
C1892 H1878 0.960 . S
C1892 H1879 0.960 . S
C1892 C1891 1.524 . S
C1893 C1890 1.403 . S
C1893 C1894 1.392 . S
C1893 C1897 1.495 . S
C1894 C1893 1.392 . S
C1894 C1895 1.385 . S
C1894 C1896 1.478 . S
C1895 H1889 0.930 . S
C1895 C1891 1.400 . S
C1895 C1894 1.385 . S
C1896 C1894 1.478 . S
C1896 C1898 1.381 . S
C1896 C1902 1.383 . S
C1897 C1893 1.495 . S
C1897 H1903 0.959 . S
C1897 H1904 0.961 . S
C1897 H1905 0.960 . S
C1898 C1896 1.381 . S
C1898 C1899 1.394 . S
C1898 H1906 0.930 . S
C1899 C1898 1.394 . S
C1899 C1900 1.383 . S
C1899 H1907 0.929 . S
C1900 C1899 1.383 . S
C1900 C1901 1.377 . S
C1901 H1885 0.930 . S
C1901 C1900 1.377 . S
C1901 C1902 1.379 . S
C1902 H1886 0.931 . S
C1902 C1896 1.383 . S
C1902 C1901 1.379 . S
H1903 C1897 0.959 . S
H1904 C1897 0.961 . S
H1905 C1897 0.960 . S
H1906 C1898 0.930 . S
H1907 C1899 0.929 . S
H1908 C1916 0.929 . S
H1909 C1918 0.930 . S
H1910 C1920 0.930 . S
H1911 C1923 0.929 . S
H1912 C1926 0.930 . S
H1913 C1928 0.960 . S
H1914 C1928 0.960 . S
H1915 C1928 0.960 . S
C1916 H1908 0.929 . S
C1916 C1917 1.377 . S
C1916 C1918 1.384 . S
C1917 C1916 1.377 . S
C1917 C1923 1.390 . S
C1918 H1909 0.930 . S
C1918 C1916 1.384 . S
C1918 C1919 1.372 . S
C1919 C1918 1.372 . S
C1919 C1920 1.400 . S
C1919 C1924 1.490 . S
C1920 H1910 0.930 . S
C1920 C1919 1.400 . S
C1920 C1923 1.386 . S
H1921 C1937 1.003 . S
H1922 C1938 0.931 . S
C1923 H1911 0.929 . S
C1923 C1917 1.390 . S
C1923 C1920 1.386 . S
C1924 C1919 1.490 . S
C1924 C1926 1.395 . S
C1924 C1927 1.403 . S
H1925 C1931 0.930 . S
C1926 H1912 0.930 . S
C1926 C1924 1.395 . S
C1926 C1929 1.403 . S
C1927 C1924 1.403 . S
C1927 C1928 1.524 . S
C1927 C1931 1.400 . S
C1928 H1913 0.960 . S
C1928 H1914 0.960 . S
C1928 H1915 0.960 . S
C1928 C1927 1.524 . S
C1929 C1926 1.403 . S
C1929 C1930 1.392 . S
C1929 C1933 1.495 . S
C1930 C1929 1.392 . S
C1930 C1931 1.385 . S
C1930 C1932 1.478 . S
C1931 H1925 0.930 . S
C1931 C1927 1.400 . S
C1931 C1930 1.385 . S
C1932 C1930 1.478 . S
C1932 C1934 1.381 . S
C1932 C1938 1.383 . S
C1933 C1929 1.495 . S
C1933 H1939 0.959 . S
C1933 H1940 0.961 . S
C1933 H1941 0.960 . S
C1934 C1932 1.381 . S
C1934 C1935 1.394 . S
C1934 H1942 0.930 . S
C1935 C1934 1.394 . S
C1935 C1936 1.383 . S
C1935 H1943 0.929 . S
C1936 C1935 1.383 . S
C1936 C1937 1.377 . S
C1937 H1921 1.003 . S
C1937 C1936 1.377 . S
C1937 C1938 1.379 . S
C1938 H1922 0.931 . S
C1938 C1932 1.383 . S
C1938 C1937 1.379 . S
H1939 C1933 0.959 . S
H1940 C1933 0.961 . S
H1941 C1933 0.960 . S
H1942 C1934 0.930 . S
H1943 C1935 0.929 . S
H1944 C1952 0.929 . S
H1945 C1954 0.930 . S
H1946 C1956 0.930 . S
H1947 C1959 0.929 . S
H1948 C1962 0.930 . S
H1949 C1964 0.960 . S
H1950 C1964 0.960 . S
H1951 C1964 0.960 . S
C1952 H1944 0.929 . S
C1952 C1953 1.377 . S
C1952 C1954 1.384 . S
C1953 C1952 1.377 . S
C1953 C1959 1.390 . S
C1954 H1945 0.930 . S
C1954 C1952 1.384 . S
C1954 C1955 1.372 . S
C1955 C1954 1.372 . S
C1955 C1956 1.400 . S
C1955 C1960 1.490 . S
C1956 H1946 0.930 . S
C1956 C1955 1.400 . S
C1956 C1959 1.386 . S
H1957 C1973 0.930 . S
H1958 C1974 0.931 . S
C1959 H1947 0.929 . S
C1959 C1953 1.390 . S
C1959 C1956 1.386 . S
C1960 C1955 1.490 . S
C1960 C1962 1.395 . S
C1960 C1963 1.403 . S
H1961 C1967 0.930 . S
C1962 H1948 0.930 . S
C1962 C1960 1.395 . S
C1962 C1965 1.403 . S
C1963 C1960 1.403 . S
C1963 C1964 1.524 . S
C1963 C1967 1.400 . S
C1964 H1949 0.960 . S
C1964 H1950 0.960 . S
C1964 H1951 0.960 . S
C1964 C1963 1.524 . S
C1965 C1962 1.403 . S
C1965 C1966 1.392 . S
C1965 C1969 1.495 . S
C1966 C1965 1.392 . S
C1966 C1967 1.385 . S
C1966 C1968 1.478 . S
C1967 H1961 0.930 . S
C1967 C1963 1.400 . S
C1967 C1966 1.385 . S
C1968 C1966 1.478 . S
C1968 C1970 1.381 . S
C1968 C1974 1.383 . S
C1969 C1965 1.495 . S
C1969 H1975 0.959 . S
C1969 H1976 0.961 . S
C1969 H1977 0.963 1_556 S
C1970 C1968 1.381 . S
C1970 C1971 1.394 . S
C1970 H1978 0.930 . S
C1971 C1970 1.394 . S
C1971 C1972 1.383 . S
C1971 H1979 0.929 . S
C1972 C1971 1.383 . S
C1972 C1973 1.377 . S
C1973 H1957 0.930 . S
C1973 C1972 1.377 . S
C1973 C1974 1.379 . S
C1974 H1958 0.931 . S
C1974 C1968 1.383 . S
C1974 C1973 1.379 . S
H1975 C1969 0.959 . S
H1976 C1969 0.961 . S
H1977 C1969 0.963 1_554 S
H1978 C1970 0.930 . S
H1979 C1971 0.929 . S
H1980 C1988 0.929 . S
H1981 C1990 0.930 . S
H1982 C1992 0.930 . S
H1983 C1995 0.929 . S
H1984 C1998 0.930 . S
H1985 C2000 0.960 . S
H1986 C2000 0.960 . S
H1987 C2000 0.960 . S
C1988 H1980 0.929 . S
C1988 C1989 1.377 . S
C1988 C1990 1.384 . S
C1989 C1988 1.377 . S
C1989 C1995 1.390 . S
C1990 H1981 0.930 . S
C1990 C1988 1.384 . S
C1990 C1991 1.372 . S
C1991 C1990 1.372 . S
C1991 C1992 1.400 . S
C1991 C1996 1.490 . S
C1992 H1982 0.930 . S
C1992 C1991 1.400 . S
C1992 C1995 1.386 . S
H1993 C2009 0.930 . S
H1994 C2010 0.931 . S
C1995 H1983 0.929 . S
C1995 C1989 1.390 . S
C1995 C1992 1.386 . S
C1996 C1991 1.490 . S
C1996 C1998 1.395 . S
C1996 C1999 1.403 . S
H1997 C2003 0.930 . S
C1998 H1984 0.930 . S
C1998 C1996 1.395 . S
C1998 C2001 1.403 . S
C1999 C1996 1.403 . S
C1999 C2000 1.524 . S
C1999 C2003 1.400 . S
C2000 H1985 0.960 . S
C2000 H1986 0.960 . S
C2000 H1987 0.960 . S
C2000 C1999 1.524 . S
C2001 C1998 1.403 . S
C2001 C2002 1.392 . S
C2001 C2005 1.495 . S
C2002 C2001 1.392 . S
C2002 C2003 1.385 . S
C2002 C2004 1.478 . S
C2003 H1997 0.930 . S
C2003 C1999 1.400 . S
C2003 C2002 1.385 . S
C2004 C2002 1.478 . S
C2004 C2006 1.381 . S
C2004 C2010 1.383 . S
C2005 C2001 1.495 . S
C2005 H2011 0.959 . S
C2005 H2012 0.961 . S
C2005 H2013 0.960 . S
C2006 C2004 1.381 . S
C2006 C2007 1.394 . S
C2006 H2014 0.930 . S
C2007 C2006 1.394 . S
C2007 C2008 1.383 . S
C2007 H2015 0.929 . S
C2008 C2007 1.383 . S
C2008 C2009 1.377 . S
C2009 H1993 0.930 . S
C2009 C2008 1.377 . S
C2009 C2010 1.379 . S
C2010 H1994 0.931 . S
C2010 C2004 1.383 . S
C2010 C2009 1.379 . S
H2011 C2005 0.959 . S
H2012 C2005 0.961 . S
H2013 C2005 0.960 . S
H2014 C2006 0.930 . S
H2015 C2007 0.929 . S
H2016 C2024 0.929 . S
H2017 C2026 0.930 . S
H2018 C2028 0.930 . S
H2019 C2031 0.929 . S
H2020 C2034 0.930 . S
H2021 C2036 0.960 . S
H2022 C2036 0.960 . S
H2023 C2036 0.960 . S
C2024 H2016 0.929 . S
C2024 C2025 1.377 . S
C2024 C2026 1.384 . S
C2025 C2024 1.377 . S
C2025 C2031 1.390 . S
C2026 H2017 0.930 . S
C2026 C2024 1.384 . S
C2026 C2027 1.372 . S
C2027 C2026 1.372 . S
C2027 C2028 1.400 . S
C2027 C2032 1.490 . S
C2028 H2018 0.930 . S
C2028 C2027 1.400 . S
C2028 C2031 1.386 . S
H2029 C2045 0.930 1_554 S
H2030 C2046 0.931 . S
C2031 H2019 0.929 . S
C2031 C2025 1.390 . S
C2031 C2028 1.386 . S
C2032 C2027 1.490 . S
C2032 C2034 1.395 . S
C2032 C2035 1.403 . S
H2033 C2039 0.930 . S
C2034 H2020 0.930 . S
C2034 C2032 1.395 . S
C2034 C2037 1.403 . S
C2035 C2032 1.403 . S
C2035 C2036 1.524 . S
C2035 C2039 1.400 . S
C2036 H2021 0.960 . S
C2036 H2022 0.960 . S
C2036 H2023 0.960 . S
C2036 C2035 1.524 . S
C2037 C2034 1.403 . S
C2037 C2038 1.392 . S
C2037 C2041 1.495 . S
C2038 C2037 1.392 . S
C2038 C2039 1.385 . S
C2038 C2040 1.478 . S
C2039 H2033 0.930 . S
C2039 C2035 1.400 . S
C2039 C2038 1.385 . S
C2040 C2038 1.478 . S
C2040 C2042 1.381 . S
C2040 C2046 1.383 . S
C2041 C2037 1.495 . S
C2041 H2047 0.959 . S
C2041 H2048 0.961 . S
C2041 H2049 0.960 . S
C2042 C2040 1.381 . S
C2042 C2043 1.394 . S
C2042 H2050 0.930 . S
C2043 C2042 1.394 . S
C2043 C2044 1.383 . S
C2043 H2051 0.929 . S
C2044 C2043 1.383 . S
C2044 C2045 1.377 . S
C2045 H2029 0.930 1_556 S
C2045 C2044 1.377 . S
C2045 C2046 1.379 . S
C2046 H2030 0.931 . S
C2046 C2040 1.383 . S
C2046 C2045 1.379 . S
H2047 C2041 0.959 . S
H2048 C2041 0.961 . S
H2049 C2041 0.960 . S
H2050 C2042 0.930 . S
H2051 C2043 0.929 . S
H2052 C2060 0.929 . S
H2053 C2062 0.930 . S
H2054 C2064 0.930 . S
H2055 C2067 0.929 . S
H2056 C2070 0.930 . S
H2057 C2072 0.960 . S
H2058 C2072 0.960 . S
H2059 C2072 0.960 . S
C2060 H2052 0.929 . S
C2060 C2061 1.377 . S
C2060 C2062 1.384 . S
C2061 C2060 1.377 . S
C2061 C2067 1.390 . S
C2062 H2053 0.930 . S
C2062 C2060 1.384 . S
C2062 C2063 1.372 . S
C2063 C2062 1.372 . S
C2063 C2064 1.400 . S
C2063 C2068 1.490 . S
C2064 H2054 0.930 . S
C2064 C2063 1.400 . S
C2064 C2067 1.386 . S
H2065 C2081 0.930 1_554 S
H2066 C2082 0.931 . S
C2067 H2055 0.929 . S
C2067 C2061 1.390 . S
C2067 C2064 1.386 . S
C2068 C2063 1.490 . S
C2068 C2070 1.395 . S
C2068 C2071 1.403 . S
H2069 C2075 0.930 . S
C2070 H2056 0.930 . S
C2070 C2068 1.395 . S
C2070 C2073 1.403 . S
C2071 C2068 1.403 . S
C2071 C2072 1.524 . S
C2071 C2075 1.400 . S
C2072 H2057 0.960 . S
C2072 H2058 0.960 . S
C2072 H2059 0.960 . S
C2072 C2071 1.524 . S
C2073 C2070 1.403 . S
C2073 C2074 1.392 . S
C2073 C2077 1.495 . S
C2074 C2073 1.392 . S
C2074 C2075 1.385 . S
C2074 C2076 1.478 . S
C2075 H2069 0.930 . S
C2075 C2071 1.400 . S
C2075 C2074 1.385 . S
C2076 C2074 1.478 . S
C2076 C2078 1.381 . S
C2076 C2082 1.383 . S
C2077 C2073 1.495 . S
C2077 H2083 0.959 . S
C2077 H2084 0.961 . S
C2077 H2085 0.960 . S
C2078 C2076 1.381 . S
C2078 C2079 1.394 . S
C2078 H2086 0.930 . S
C2079 C2078 1.394 . S
C2079 C2080 1.383 . S
C2079 H2087 0.929 . S
C2080 C2079 1.383 . S
C2080 C2081 1.377 . S
C2081 H2065 0.930 1_556 S
C2081 C2080 1.377 . S
C2081 C2082 1.379 . S
C2082 H2066 0.931 . S
C2082 C2076 1.383 . S
C2082 C2081 1.379 . S
H2083 C2077 0.959 . S
H2084 C2077 0.961 . S
H2085 C2077 0.960 . S
H2086 C2078 0.930 . S
H2087 C2079 0.929 . S
H2088 C2096 0.929 . S
H2089 C2098 0.930 . S
H2090 C2100 0.930 . S
H2091 C2103 0.929 . S
H2092 C2106 0.930 . S
H2093 C2108 0.960 . S
H2094 C2108 0.960 . S
H2095 C2108 0.960 . S
C2096 H2088 0.929 . S
C2096 C2097 1.377 . S
C2096 C2098 1.384 . S
C2097 C2096 1.377 . S
C2097 C2103 1.390 . S
C2098 H2089 0.930 . S
C2098 C2096 1.384 . S
C2098 C2099 1.372 . S
C2099 C2098 1.372 . S
C2099 C2100 1.400 . S
C2099 C2104 1.490 . S
C2100 H2090 0.930 . S
C2100 C2099 1.400 . S
C2100 C2103 1.386 . S
H2101 C2117 0.857 1_554 S
H2102 C2118 0.931 . S
C2103 H2091 0.929 . S
C2103 C2097 1.390 . S
C2103 C2100 1.386 . S
C2104 C2099 1.490 . S
C2104 C2106 1.395 . S
C2104 C2107 1.403 . S
H2105 C2111 0.930 . S
C2106 H2092 0.930 . S
C2106 C2104 1.395 . S
C2106 C2109 1.403 . S
C2107 C2104 1.403 . S
C2107 C2108 1.524 . S
C2107 C2111 1.400 . S
C2108 H2093 0.960 . S
C2108 H2094 0.960 . S
C2108 H2095 0.960 . S
C2108 C2107 1.524 . S
C2109 C2106 1.403 . S
C2109 C2110 1.392 . S
C2109 C2113 1.495 . S
C2110 C2109 1.392 . S
C2110 C2111 1.385 . S
C2110 C2112 1.478 . S
C2111 H2105 0.930 . S
C2111 C2107 1.400 . S
C2111 C2110 1.385 . S
C2112 C2110 1.478 . S
C2112 C2114 1.381 . S
C2112 C2118 1.383 . S
C2113 C2109 1.495 . S
C2113 H2119 0.959 . S
C2113 H2120 0.961 . S
C2113 H2121 0.960 . S
C2114 C2112 1.381 . S
C2114 C2115 1.394 . S
C2114 H2122 0.930 . S
C2115 C2114 1.394 . S
C2115 C2116 1.383 . S
C2115 H2123 0.929 . S
C2116 C2115 1.383 . S
C2116 C2117 1.377 . S
C2117 H2101 0.857 1_556 S
C2117 C2116 1.377 . S
C2117 C2118 1.379 . S
C2118 H2102 0.931 . S
C2118 C2112 1.383 . S
C2118 C2117 1.379 . S
H2119 C2113 0.959 . S
H2120 C2113 0.961 . S
H2121 C2113 0.960 . S
H2122 C2114 0.930 . S
H2123 C2115 0.929 . S
H2124 C2132 0.929 . S
H2125 C2134 0.930 . S
H2126 C2136 0.930 . S
H2127 C2139 0.929 . S
H2128 C2142 0.930 . S
H2129 C2144 0.960 . S
H2130 C2144 0.960 . S
H2131 C2144 0.960 . S
C2132 H2124 0.929 . S
C2132 C2133 1.377 . S
C2132 C2134 1.384 . S
C2133 C2132 1.377 . S
C2133 C2139 1.390 . S
C2134 H2125 0.930 . S
C2134 C2132 1.384 . S
C2134 C2135 1.372 . S
C2135 C2134 1.372 . S
C2135 C2136 1.400 . S
C2135 C2140 1.490 . S
C2136 H2126 0.930 . S
C2136 C2135 1.400 . S
C2136 C2139 1.386 . S
H2137 C2153 0.930 . S
H2138 C2154 0.931 . S
C2139 H2127 0.929 . S
C2139 C2133 1.390 . S
C2139 C2136 1.386 . S
C2140 C2135 1.490 . S
C2140 C2142 1.395 . S
C2140 C2143 1.403 . S
H2141 C2147 0.930 . S
C2142 H2128 0.930 . S
C2142 C2140 1.395 . S
C2142 C2145 1.403 . S
C2143 C2140 1.403 . S
C2143 C2144 1.524 . S
C2143 C2147 1.400 . S
C2144 H2129 0.960 . S
C2144 H2130 0.960 . S
C2144 H2131 0.960 . S
C2144 C2143 1.524 . S
C2145 C2142 1.403 . S
C2145 C2146 1.392 . S
C2145 C2149 1.495 . S
C2146 C2145 1.392 . S
C2146 C2147 1.385 . S
C2146 C2148 1.478 . S
C2147 H2141 0.930 . S
C2147 C2143 1.400 . S
C2147 C2146 1.385 . S
C2148 C2146 1.478 . S
C2148 C2150 1.381 . S
C2148 C2154 1.383 . S
C2149 C2145 1.495 . S
C2149 H2155 0.962 . S
C2149 H2156 0.961 1_556 S
C2149 H2157 0.960 . S
C2150 C2148 1.381 . S
C2150 C2151 1.394 . S
C2150 H2158 0.930 . S
C2151 C2150 1.394 . S
C2151 C2152 1.383 . S
C2151 H2159 0.929 . S
C2152 C2151 1.383 . S
C2152 C2153 1.377 . S
C2153 H2137 0.930 . S
C2153 C2152 1.377 . S
C2153 C2154 1.379 . S
C2154 H2138 0.931 . S
C2154 C2148 1.383 . S
C2154 C2153 1.379 . S
H2155 C2149 0.962 . S
H2156 C2149 0.961 1_554 S
H2157 C2149 0.960 . S
H2158 C2150 0.930 . S
H2159 C2151 0.929 . S
H2160 C2168 0.929 . S
H2161 C2170 0.930 . S
H2162 C2172 0.930 . S
H2163 C2175 0.929 . S
H2164 C2178 0.930 . S
H2165 C2180 0.960 . S
H2166 C2180 0.960 . S
H2167 C2180 0.960 . S
C2168 H2160 0.929 . S
C2168 C2169 1.377 . S
C2168 C2170 1.384 . S
C2169 C2168 1.377 . S
C2169 C2175 1.390 . S
C2170 H2161 0.930 . S
C2170 C2168 1.384 . S
C2170 C2171 1.372 . S
C2171 C2170 1.372 . S
C2171 C2172 1.400 . S
C2171 C2176 1.490 . S
C2172 H2162 0.930 . S
C2172 C2171 1.400 . S
C2172 C2175 1.386 . S
H2173 C2189 0.930 . S
H2174 C2190 0.931 . S
C2175 H2163 0.929 . S
C2175 C2169 1.390 . S
C2175 C2172 1.386 . S
C2176 C2171 1.490 . S
C2176 C2178 1.395 . S
C2176 C2179 1.403 . S
H2177 C2183 0.930 . S
C2178 H2164 0.930 . S
C2178 C2176 1.395 . S
C2178 C2181 1.403 . S
C2179 C2176 1.403 . S
C2179 C2180 1.524 . S
C2179 C2183 1.400 . S
C2180 H2165 0.960 . S
C2180 H2166 0.960 . S
C2180 H2167 0.960 . S
C2180 C2179 1.524 . S
C2181 C2178 1.403 . S
C2181 C2182 1.392 . S
C2181 C2185 1.495 . S
C2182 C2181 1.392 . S
C2182 C2183 1.385 . S
C2182 C2184 1.478 . S
C2183 H2177 0.930 . S
C2183 C2179 1.400 . S
C2183 C2182 1.385 . S
C2184 C2182 1.478 . S
C2184 C2186 1.381 . S
C2184 C2190 1.383 . S
C2185 C2181 1.495 . S
C2185 H2191 0.959 . S
C2185 H2192 0.961 . S
C2185 H2193 0.960 . S
C2186 C2184 1.381 . S
C2186 C2187 1.394 . S
C2186 H2194 0.930 . S
C2187 C2186 1.394 . S
C2187 C2188 1.383 . S
C2187 H2195 0.929 . S
C2188 C2187 1.383 . S
C2188 C2189 1.377 . S
C2189 H2173 0.930 . S
C2189 C2188 1.377 . S
C2189 C2190 1.379 . S
C2190 H2174 0.931 . S
C2190 C2184 1.383 . S
C2190 C2189 1.379 . S
H2191 C2185 0.959 . S
H2192 C2185 0.961 . S
H2193 C2185 0.960 . S
H2194 C2186 0.930 . S
H2195 C2187 0.929 . S
H2196 C2204 0.929 . S
H2197 C2206 0.930 . S
H2198 C2208 0.930 . S
H2199 C2211 0.929 . S
H2200 C2214 0.930 . S
H2201 C2216 0.960 . S
H2202 C2216 0.960 . S
H2203 C2216 0.960 . S
C2204 H2196 0.929 . S
C2204 C2205 1.377 . S
C2204 C2206 1.384 . S
C2205 C2204 1.377 . S
C2205 C2211 1.390 . S
C2206 H2197 0.930 . S
C2206 C2204 1.384 . S
C2206 C2207 1.372 . S
C2207 C2206 1.372 . S
C2207 C2208 1.400 . S
C2207 C2212 1.490 . S
C2208 H2198 0.930 . S
C2208 C2207 1.400 . S
C2208 C2211 1.386 . S
H2209 C2225 0.930 . S
H2210 C2226 0.931 . S
C2211 H2199 0.929 . S
C2211 C2205 1.390 . S
C2211 C2208 1.386 . S
C2212 C2207 1.490 . S
C2212 C2214 1.395 . S
C2212 C2215 1.403 . S
H2213 C2219 0.930 . S
C2214 H2200 0.930 . S
C2214 C2212 1.395 . S
C2214 C2217 1.403 . S
C2215 C2212 1.403 . S
C2215 C2216 1.524 . S
C2215 C2219 1.400 . S
C2216 H2201 0.960 . S
C2216 H2202 0.960 . S
C2216 H2203 0.960 . S
C2216 C2215 1.524 . S
C2217 C2214 1.403 . S
C2217 C2218 1.392 . S
C2217 C2221 1.495 . S
C2218 C2217 1.392 . S
C2218 C2219 1.385 . S
C2218 C2220 1.478 . S
C2219 H2213 0.930 . S
C2219 C2215 1.400 . S
C2219 C2218 1.385 . S
C2220 C2218 1.478 . S
C2220 C2222 1.381 . S
C2220 C2226 1.383 . S
C2221 C2217 1.495 . S
C2221 H2227 0.959 . S
C2221 H2228 0.961 . S
C2221 H2229 0.960 . S
C2222 C2220 1.381 . S
C2222 C2223 1.394 . S
C2222 H2230 0.930 . S
C2223 C2222 1.394 . S
C2223 C2224 1.383 . S
C2223 H2231 0.945 . S
C2224 C2223 1.383 . S
C2224 C2225 1.377 . S
C2225 H2209 0.930 . S
C2225 C2224 1.377 . S
C2225 C2226 1.379 . S
C2226 H2210 0.931 . S
C2226 C2220 1.383 . S
C2226 C2225 1.379 . S
H2227 C2221 0.959 . S
H2228 C2221 0.961 . S
H2229 C2221 0.960 . S
H2230 C2222 0.930 . S
H2231 C2223 0.945 . S
H2232 C2240 0.929 . S
H2233 C2242 0.930 . S
H2234 C2244 0.930 . S
H2235 C2247 0.929 . S
H2236 C2250 0.930 . S
H2237 C2252 0.960 . S
H2238 C2252 0.960 . S
H2239 C2252 0.960 . S
C2240 H2232 0.929 . S
C2240 C2241 1.377 . S
C2240 C2242 1.384 . S
C2241 C2240 1.377 . S
C2241 C2247 1.390 . S
C2242 H2233 0.930 . S
C2242 C2240 1.384 . S
C2242 C2243 1.372 . S
C2243 C2242 1.372 . S
C2243 C2244 1.400 . S
C2243 C2248 1.490 . S
C2244 H2234 0.930 . S
C2244 C2243 1.400 . S
C2244 C2247 1.386 . S
H2245 C2261 0.930 . S
H2246 C2262 0.931 . S
C2247 H2235 0.929 . S
C2247 C2241 1.390 . S
C2247 C2244 1.386 . S
C2248 C2243 1.490 . S
C2248 C2250 1.395 . S
C2248 C2251 1.403 . S
H2249 C2255 0.930 . S
C2250 H2236 0.930 . S
C2250 C2248 1.395 . S
C2250 C2253 1.403 . S
C2251 C2248 1.403 . S
C2251 C2252 1.524 . S
C2251 C2255 1.400 . S
C2252 H2237 0.960 . S
C2252 H2238 0.960 . S
C2252 H2239 0.960 . S
C2252 C2251 1.524 . S
C2253 C2250 1.403 . S
C2253 C2254 1.392 . S
C2253 C2257 1.495 . S
C2254 C2253 1.392 . S
C2254 C2255 1.385 . S
C2254 C2256 1.478 . S
C2255 H2249 0.930 . S
C2255 C2251 1.400 . S
C2255 C2254 1.385 . S
C2256 C2254 1.478 . S
C2256 C2258 1.381 . S
C2256 C2262 1.383 . S
C2257 C2253 1.495 . S
C2257 H2263 0.959 . S
C2257 H2264 0.961 . S
C2257 H2265 0.960 . S
C2258 C2256 1.381 . S
C2258 C2259 1.394 . S
C2258 H2266 0.930 . S
C2259 C2258 1.394 . S
C2259 C2260 1.383 . S
C2259 H2267 0.929 . S
C2260 C2259 1.383 . S
C2260 C2261 1.377 . S
C2261 H2245 0.930 . S
C2261 C2260 1.377 . S
C2261 C2262 1.379 . S
C2262 H2246 0.931 . S
C2262 C2256 1.383 . S
C2262 C2261 1.379 . S
H2263 C2257 0.959 . S
H2264 C2257 0.961 . S
H2265 C2257 0.960 . S
H2266 C2258 0.930 . S
H2267 C2259 0.929 . S
H2268 C2276 0.929 . S
H2269 C2278 0.930 . S
H2270 C2280 0.930 . S
H2271 C2283 0.929 . S
H2272 C2286 0.930 . S
H2273 C2288 0.960 . S
H2274 C2288 0.960 . S
H2275 C2288 0.960 . S
C2276 H2268 0.929 . S
C2276 C2277 1.377 . S
C2276 C2278 1.384 . S
C2277 C2276 1.377 . S
C2277 C2283 1.390 . S
C2278 H2269 0.930 . S
C2278 C2276 1.384 . S
C2278 C2279 1.372 1_655 S
C2279 C2278 1.372 1_455 S
C2279 C2280 1.400 . S
C2279 C2284 1.490 . S
C2280 H2270 0.930 . S
C2280 C2279 1.400 . S
C2280 C2283 1.386 1_455 S
H2281 C2297 0.930 . S
H2282 C2298 0.931 . S
C2283 H2271 0.929 . S
C2283 C2277 1.390 . S
C2283 C2280 1.386 1_655 S
C2284 C2279 1.490 . S
C2284 C2286 1.395 . S
C2284 C2287 1.403 . S
H2285 C2291 0.930 . S
C2286 H2272 0.930 . S
C2286 C2284 1.395 . S
C2286 C2289 1.403 . S
C2287 C2284 1.403 . S
C2287 C2288 1.524 . S
C2287 C2291 1.400 . S
C2288 H2273 0.960 . S
C2288 H2274 0.960 . S
C2288 H2275 0.960 . S
C2288 C2287 1.524 . S
C2289 C2286 1.403 . S
C2289 C2290 1.392 . S
C2289 C2293 1.495 . S
C2290 C2289 1.392 . S
C2290 C2291 1.385 . S
C2290 C2292 1.478 . S
C2291 H2285 0.930 . S
C2291 C2287 1.400 . S
C2291 C2290 1.385 . S
C2292 C2290 1.478 . S
C2292 C2294 1.381 . S
C2292 C2298 1.383 . S
C2293 C2289 1.495 . S
C2293 H2299 0.959 . S
C2293 H2300 0.961 . S
C2293 H2301 0.960 . S
C2294 C2292 1.381 . S
C2294 C2295 1.394 . S
C2294 H2302 0.930 . S
C2295 C2294 1.394 . S
C2295 C2296 1.383 . S
C2295 H2303 0.929 . S
C2296 C2295 1.383 . S
C2296 C2297 1.377 . S
C2297 H2281 0.930 . S
C2297 C2296 1.377 . S
C2297 C2298 1.379 . S
C2298 H2282 0.931 . S
C2298 C2292 1.383 . S
C2298 C2297 1.379 . S
H2299 C2293 0.959 . S
H2300 C2293 0.961 . S
H2301 C2293 0.960 . S
H2302 C2294 0.930 . S
H2303 C2295 0.929 . S
H2304 C2312 0.929 . S
H2305 C2314 0.930 . S
H2306 C2316 0.930 . S
H2307 C2319 0.929 . S
H2308 C2322 0.930 . S
H2309 C2324 0.960 . S
H2310 C2324 0.960 . S
H2311 C2324 0.960 . S
C2312 H2304 0.929 . S
C2312 C2313 1.377 . S
C2312 C2314 1.384 . S
C2313 C2312 1.377 . S
C2313 C2319 1.390 . S
C2314 H2305 0.930 . S
C2314 C2312 1.384 . S
C2314 C2315 1.372 . S
C2315 C2314 1.372 . S
C2315 C2316 1.400 . S
C2315 C2320 1.490 . S
C2316 H2306 0.930 . S
C2316 C2315 1.400 . S
C2316 C2319 1.386 . S
H2317 C2333 0.930 . S
H2318 C2334 0.931 . S
C2319 H2307 0.929 . S
C2319 C2313 1.390 . S
C2319 C2316 1.386 . S
C2320 C2315 1.490 . S
C2320 C2322 1.395 . S
C2320 C2323 1.403 . S
H2321 C2327 0.930 . S
C2322 H2308 0.930 . S
C2322 C2320 1.395 . S
C2322 C2325 1.403 . S
C2323 C2320 1.403 . S
C2323 C2324 1.524 . S
C2323 C2327 1.400 . S
C2324 H2309 0.960 . S
C2324 H2310 0.960 . S
C2324 H2311 0.960 . S
C2324 C2323 1.524 . S
C2325 C2322 1.403 . S
C2325 C2326 1.392 . S
C2325 C2329 1.495 . S
C2326 C2325 1.392 . S
C2326 C2327 1.385 . S
C2326 C2328 1.478 . S
C2327 H2321 0.930 . S
C2327 C2323 1.400 . S
C2327 C2326 1.385 . S
C2328 C2326 1.478 . S
C2328 C2330 1.381 . S
C2328 C2334 1.383 . S
C2329 C2325 1.495 . S
C2329 H2335 0.959 . S
C2329 H2336 0.961 . S
C2329 H2337 0.960 . S
C2330 C2328 1.381 . S
C2330 C2331 1.394 . S
C2330 H2338 0.930 . S
C2331 C2330 1.394 . S
C2331 C2332 1.383 . S
C2331 H2339 0.929 . S
C2332 C2331 1.383 . S
C2332 C2333 1.377 . S
C2333 H2317 0.930 . S
C2333 C2332 1.377 . S
C2333 C2334 1.379 . S
C2334 H2318 0.931 . S
C2334 C2328 1.383 . S
C2334 C2333 1.379 . S
H2335 C2329 0.959 . S
H2336 C2329 0.961 . S
H2337 C2329 0.960 . S
H2338 C2330 0.930 . S
H2339 C2331 0.929 . S
H2340 C2348 0.929 . S
H2341 C2350 0.930 . S
H2342 C2352 0.930 1_565 S
H2343 C2355 0.929 . S
H2344 C2358 0.930 . S
H2345 C2360 0.960 . S
H2346 C2360 0.960 . S
H2347 C2360 0.960 . S
C2348 H2340 0.929 . S
C2348 C2349 1.377 . S
C2348 C2350 1.384 . S
C2349 C2348 1.377 . S
C2349 C2355 1.390 . S
C2350 H2341 0.930 . S
C2350 C2348 1.384 . S
C2350 C2351 1.372 . S
C2351 C2350 1.372 . S
C2351 C2352 1.400 . S
C2351 C2356 1.490 1_545 S
C2352 H2342 0.930 1_545 S
C2352 C2351 1.400 . S
C2352 C2355 1.386 . S
H2353 C2369 0.930 . S
H2354 C2370 0.931 . S
C2355 H2343 0.929 . S
C2355 C2349 1.390 . S
C2355 C2352 1.386 . S
C2356 C2351 1.490 1_565 S
C2356 C2358 1.395 . S
C2356 C2359 1.403 . S
H2357 C2363 0.930 . S
C2358 H2344 0.930 . S
C2358 C2356 1.395 . S
C2358 C2361 1.403 . S
C2359 C2356 1.403 . S
C2359 C2360 1.524 . S
C2359 C2363 1.400 . S
C2360 H2345 0.960 . S
C2360 H2346 0.960 . S
C2360 H2347 0.960 . S
C2360 C2359 1.524 . S
C2361 C2358 1.403 . S
C2361 C2362 1.392 . S
C2361 C2365 1.495 . S
C2362 C2361 1.392 . S
C2362 C2363 1.385 . S
C2362 C2364 1.478 . S
C2363 H2357 0.930 . S
C2363 C2359 1.400 . S
C2363 C2362 1.385 . S
C2364 C2362 1.478 . S
C2364 C2366 1.381 . S
C2364 C2370 1.383 . S
C2365 C2361 1.495 . S
C2365 H2371 0.959 . S
C2365 H2372 0.961 . S
C2365 H2373 0.960 . S
C2366 C2364 1.381 . S
C2366 C2367 1.394 . S
C2366 H2374 0.930 . S
C2367 C2366 1.394 . S
C2367 C2368 1.383 . S
C2367 H2375 0.929 . S
C2368 C2367 1.383 . S
C2368 C2369 1.377 . S
C2369 H2353 0.930 . S
C2369 C2368 1.377 . S
C2369 C2370 1.379 . S
C2370 H2354 0.931 . S
C2370 C2364 1.383 . S
C2370 C2369 1.379 . S
H2371 C2365 0.959 . S
H2372 C2365 0.961 . S
H2373 C2365 0.960 . S
H2374 C2366 0.930 . S
H2375 C2367 0.929 . S
H2376 C2384 0.929 . S
H2377 C2386 0.930 . S
H2378 C2388 0.930 . S
H2379 C2391 0.929 . S
H2380 C2394 0.930 . S
H2381 C2396 0.960 . S
H2382 C2396 0.960 . S
H2383 C2396 0.960 . S
C2384 H2376 0.929 . S
C2384 C2385 1.377 . S
C2384 C2386 1.384 . S
C2385 C2384 1.377 . S
C2385 C2391 1.390 . S
C2386 H2377 0.930 . S
C2386 C2384 1.384 . S
C2386 C2387 1.372 . S
C2387 C2386 1.372 . S
C2387 C2388 1.400 . S
C2387 C2392 1.490 . S
C2388 H2378 0.930 . S
C2388 C2387 1.400 . S
C2388 C2391 1.386 . S
H2389 C2405 0.930 . S
H2390 C2406 0.931 . S
C2391 H2379 0.929 . S
C2391 C2385 1.390 . S
C2391 C2388 1.386 . S
C2392 C2387 1.490 . S
C2392 C2394 1.395 . S
C2392 C2395 1.403 . S
H2393 C2399 0.930 . S
C2394 H2380 0.930 . S
C2394 C2392 1.395 . S
C2394 C2397 1.403 . S
C2395 C2392 1.403 . S
C2395 C2396 1.524 . S
C2395 C2399 1.400 . S
C2396 H2381 0.960 . S
C2396 H2382 0.960 . S
C2396 H2383 0.960 . S
C2396 C2395 1.524 . S
C2397 C2394 1.403 . S
C2397 C2398 1.392 . S
C2397 C2401 1.495 . S
C2398 C2397 1.392 . S
C2398 C2399 1.385 . S
C2398 C2400 1.478 . S
C2399 H2393 0.930 . S
C2399 C2395 1.400 . S
C2399 C2398 1.385 . S
C2400 C2398 1.478 . S
C2400 C2402 1.381 . S
C2400 C2406 1.383 . S
C2401 C2397 1.495 . S
C2401 H2407 0.959 . S
C2401 H2408 0.961 . S
C2401 H2409 0.960 . S
C2402 C2400 1.381 . S
C2402 C2403 1.394 . S
C2402 H2410 0.930 . S
C2403 C2402 1.394 . S
C2403 C2404 1.383 . S
C2403 H2411 0.929 . S
C2404 C2403 1.383 . S
C2404 C2405 1.377 . S
C2405 H2389 0.930 . S
C2405 C2404 1.377 . S
C2405 C2406 1.379 . S
C2406 H2390 0.931 . S
C2406 C2400 1.383 . S
C2406 C2405 1.379 . S
H2407 C2401 0.959 . S
H2408 C2401 0.961 . S
H2409 C2401 0.960 . S
H2410 C2402 0.930 . S
H2411 C2403 0.929 . S
H2412 C2420 0.929 . S
H2413 C2422 0.930 . S
H2414 C2424 0.930 . S
H2415 C2427 0.929 . S
H2416 C2430 0.930 . S
H2417 C2432 0.960 . S
H2418 C2432 0.960 . S
H2419 C2432 0.960 . S
C2420 H2412 0.929 . S
C2420 C2421 1.377 . S
C2420 C2422 1.384 . S
C2421 C2420 1.377 . S
C2421 C2427 1.390 . S
C2422 H2413 0.930 . S
C2422 C2420 1.384 . S
C2422 C2423 1.372 . S
C2423 C2422 1.372 . S
C2423 C2424 1.400 . S
C2423 C2428 1.490 . S
C2424 H2414 0.930 . S
C2424 C2423 1.400 . S
C2424 C2427 1.386 . S
H2425 C2441 0.930 . S
H2426 C2442 0.931 . S
C2427 H2415 0.929 . S
C2427 C2421 1.390 . S
C2427 C2424 1.386 . S
C2428 C2423 1.490 . S
C2428 C2430 1.395 . S
C2428 C2431 1.403 . S
H2429 C2435 0.930 . S
C2430 H2416 0.930 . S
C2430 C2428 1.395 . S
C2430 C2433 1.403 . S
C2431 C2428 1.403 . S
C2431 C2432 1.524 . S
C2431 C2435 1.400 . S
C2432 H2417 0.960 . S
C2432 H2418 0.960 . S
C2432 H2419 0.960 . S
C2432 C2431 1.524 . S
C2433 C2430 1.403 . S
C2433 C2434 1.392 . S
C2433 C2437 1.495 . S
C2434 C2433 1.392 . S
C2434 C2435 1.385 . S
C2434 C2436 1.478 . S
C2435 H2429 0.930 . S
C2435 C2431 1.400 . S
C2435 C2434 1.385 . S
C2436 C2434 1.478 . S
C2436 C2438 1.381 . S
C2436 C2442 1.383 . S
C2437 C2433 1.495 . S
C2437 H2443 0.959 . S
C2437 H2444 0.961 . S
C2437 H2445 0.960 . S
C2438 C2436 1.381 . S
C2438 C2439 1.394 . S
C2438 H2446 0.930 . S
C2439 C2438 1.394 . S
C2439 C2440 1.383 . S
C2439 H2447 0.929 . S
C2440 C2439 1.383 . S
C2440 C2441 1.377 . S
C2441 H2425 0.930 . S
C2441 C2440 1.377 . S
C2441 C2442 1.379 . S
C2442 H2426 0.931 . S
C2442 C2436 1.383 . S
C2442 C2441 1.379 . S
H2443 C2437 0.959 . S
H2444 C2437 0.961 . S
H2445 C2437 0.960 . S
H2446 C2438 0.930 . S
H2447 C2439 0.929 . S
H2448 C2456 0.929 . S
H2449 C2458 0.930 . S
H2450 C2460 0.930 . S
H2451 C2463 0.929 . S
H2452 C2466 0.930 . S
H2453 C2468 0.960 . S
H2454 C2468 0.960 . S
H2455 C2468 0.960 . S
C2456 H2448 0.929 . S
C2456 C2457 1.377 . S
C2456 C2458 1.384 . S
C2457 C2456 1.377 . S
C2457 C2463 1.390 . S
C2458 H2449 0.930 . S
C2458 C2456 1.384 . S
C2458 C2459 1.372 . S
C2459 C2458 1.372 . S
C2459 C2460 1.400 . S
C2459 C2464 1.490 . S
C2460 H2450 0.930 . S
C2460 C2459 1.400 . S
C2460 C2463 1.386 . S
H2461 C2477 0.930 . S
H2462 C2478 0.931 . S
C2463 H2451 0.929 . S
C2463 C2457 1.390 . S
C2463 C2460 1.386 . S
C2464 C2459 1.490 . S
C2464 C2466 1.395 . S
C2464 C2467 1.403 . S
H2465 C2471 0.930 . S
C2466 H2452 0.930 . S
C2466 C2464 1.395 . S
C2466 C2469 1.403 . S
C2467 C2464 1.403 . S
C2467 C2468 1.524 . S
C2467 C2471 1.400 . S
C2468 H2453 0.960 . S
C2468 H2454 0.960 . S
C2468 H2455 0.960 . S
C2468 C2467 1.524 . S
C2469 C2466 1.403 . S
C2469 C2470 1.392 . S
C2469 C2473 1.495 . S
C2470 C2469 1.392 . S
C2470 C2471 1.385 . S
C2470 C2472 1.478 . S
C2471 H2465 0.930 . S
C2471 C2467 1.400 . S
C2471 C2470 1.385 . S
C2472 C2470 1.478 . S
C2472 C2474 1.381 . S
C2472 C2478 1.383 . S
C2473 C2469 1.495 . S
C2473 H2479 0.959 . S
C2473 H2480 0.961 . S
C2473 H2481 0.960 . S
C2474 C2472 1.381 . S
C2474 C2475 1.394 . S
C2474 H2482 0.930 . S
C2475 C2474 1.394 . S
C2475 C2476 1.383 . S
C2475 H2483 0.929 . S
C2476 C2475 1.383 . S
C2476 C2477 1.377 . S
C2477 H2461 0.930 . S
C2477 C2476 1.377 . S
C2477 C2478 1.379 . S
C2478 H2462 0.931 . S
C2478 C2472 1.383 . S
C2478 C2477 1.379 . S
H2479 C2473 0.959 . S
H2480 C2473 0.961 . S
H2481 C2473 0.960 . S
H2482 C2474 0.930 . S
H2483 C2475 0.929 . S
H2484 C2492 0.929 . S
H2485 C2494 0.930 . S
H2486 C2496 0.930 . S
H2487 C2499 0.929 . S
H2488 C2502 0.930 . S
H2489 C2504 0.960 . S
H2490 C2504 0.960 . S
H2491 C2504 0.960 . S
C2492 H2484 0.929 . S
C2492 C2493 1.377 . S
C2492 C2494 1.384 . S
C2493 C2492 1.377 . S
C2493 C2499 1.390 . S
C2494 H2485 0.930 . S
C2494 C2492 1.384 . S
C2494 C2495 1.372 . S
C2495 C2494 1.372 . S
C2495 C2496 1.400 . S
C2495 C2500 1.490 . S
C2496 H2486 0.930 . S
C2496 C2495 1.400 . S
C2496 C2499 1.386 . S
H2497 C2513 0.930 . S
H2498 C2514 0.931 . S
C2499 H2487 0.929 . S
C2499 C2493 1.390 . S
C2499 C2496 1.386 . S
C2500 C2495 1.490 . S
C2500 C2502 1.395 . S
C2500 C2503 1.403 . S
H2501 C2507 0.930 . S
C2502 H2488 0.930 . S
C2502 C2500 1.395 . S
C2502 C2505 1.403 . S
C2503 C2500 1.403 . S
C2503 C2504 1.524 . S
C2503 C2507 1.400 . S
C2504 H2489 0.960 . S
C2504 H2490 0.960 . S
C2504 H2491 0.960 . S
C2504 C2503 1.524 . S
C2505 C2502 1.403 . S
C2505 C2506 1.392 . S
C2505 C2509 1.495 . S
C2506 C2505 1.392 . S
C2506 C2507 1.385 . S
C2506 C2508 1.478 . S
C2507 H2501 0.930 . S
C2507 C2503 1.400 . S
C2507 C2506 1.385 . S
C2508 C2506 1.478 . S
C2508 C2510 1.381 . S
C2508 C2514 1.383 . S
C2509 C2505 1.495 . S
C2509 H2515 0.959 . S
C2509 H2516 0.961 . S
C2509 H2517 0.960 . S
C2510 C2508 1.381 . S
C2510 C2511 1.394 . S
C2510 H2518 0.930 . S
C2511 C2510 1.394 . S
C2511 C2512 1.383 . S
C2511 H2519 0.929 . S
C2512 C2511 1.383 . S
C2512 C2513 1.377 . S
C2513 H2497 0.930 . S
C2513 C2512 1.377 . S
C2513 C2514 1.379 . S
C2514 H2498 0.931 . S
C2514 C2508 1.383 . S
C2514 C2513 1.379 . S
H2515 C2509 0.959 . S
H2516 C2509 0.961 . S
H2517 C2509 0.960 . S
H2518 C2510 0.930 . S
H2519 C2511 0.929 . S
H2520 C2528 0.929 . S
H2521 C2530 0.930 . S
H2522 C2532 0.930 . S
H2523 C2535 0.929 . S
H2524 C2538 0.930 . S
H2525 C2540 0.960 . S
H2526 C2540 0.960 . S
H2527 C2540 0.960 . S
C2528 H2520 0.929 . S
C2528 C2529 1.377 . S
C2528 C2530 1.384 . S
C2529 C2528 1.377 . S
C2529 C2535 1.390 . S
C2530 H2521 0.930 . S
C2530 C2528 1.384 . S
C2530 C2531 1.372 . S
C2531 C2530 1.372 . S
C2531 C2532 1.400 . S
C2531 C2536 1.490 . S
C2532 H2522 0.930 . S
C2532 C2531 1.400 . S
C2532 C2535 1.386 . S
H2533 C2549 0.930 . S
H2534 C2550 0.931 . S
C2535 H2523 0.929 . S
C2535 C2529 1.390 . S
C2535 C2532 1.386 . S
C2536 C2531 1.490 . S
C2536 C2538 1.395 . S
C2536 C2539 1.403 . S
H2537 C2543 0.930 . S
C2538 H2524 0.930 . S
C2538 C2536 1.395 . S
C2538 C2541 1.403 . S
C2539 C2536 1.403 . S
C2539 C2540 1.524 . S
C2539 C2543 1.400 . S
C2540 H2525 0.960 . S
C2540 H2526 0.960 . S
C2540 H2527 0.960 . S
C2540 C2539 1.524 . S
C2541 C2538 1.403 . S
C2541 C2542 1.392 . S
C2541 C2545 1.495 . S
C2542 C2541 1.392 . S
C2542 C2543 1.385 . S
C2542 C2544 1.478 . S
C2543 H2537 0.930 . S
C2543 C2539 1.400 . S
C2543 C2542 1.385 . S
C2544 C2542 1.478 . S
C2544 C2546 1.381 . S
C2544 C2550 1.383 . S
C2545 C2541 1.495 . S
C2545 H2551 0.959 . S
C2545 H2552 0.961 . S
C2545 H2553 0.960 . S
C2546 C2544 1.381 . S
C2546 C2547 1.394 . S
C2546 H2554 0.930 . S
C2547 C2546 1.394 . S
C2547 C2548 1.383 . S
C2547 H2555 0.929 . S
C2548 C2547 1.383 . S
C2548 C2549 1.377 . S
C2549 H2533 0.930 . S
C2549 C2548 1.377 . S
C2549 C2550 1.379 . S
C2550 H2534 0.931 . S
C2550 C2544 1.383 . S
C2550 C2549 1.379 . S
H2551 C2545 0.959 . S
H2552 C2545 0.961 . S
H2553 C2545 0.960 . S
H2554 C2546 0.930 . S
H2555 C2547 0.929 . S
H2556 C2564 0.929 . S
H2557 C2566 0.930 . S
H2558 C2568 0.930 . S
H2559 C2571 0.929 . S
H2560 C2574 0.930 . S
H2561 C2576 0.960 . S
H2562 C2576 0.960 . S
H2563 C2576 0.960 . S
C2564 H2556 0.929 . S
C2564 C2565 1.377 . S
C2564 C2566 1.384 . S
C2565 C2564 1.377 . S
C2565 C2571 1.390 . S
C2566 H2557 0.930 . S
C2566 C2564 1.384 . S
C2566 C2567 1.372 . S
C2567 C2566 1.372 . S
C2567 C2568 1.400 . S
C2567 C2572 1.490 . S
C2568 H2558 0.930 . S
C2568 C2567 1.400 . S
C2568 C2571 1.386 . S
H2569 C2585 0.930 . S
H2570 C2586 0.931 . S
C2571 H2559 0.929 . S
C2571 C2565 1.390 . S
C2571 C2568 1.386 . S
C2572 C2567 1.490 . S
C2572 C2574 1.395 . S
C2572 C2575 1.403 . S
H2573 C2579 0.930 . S
C2574 H2560 0.930 . S
C2574 C2572 1.395 . S
C2574 C2577 1.403 . S
C2575 C2572 1.403 . S
C2575 C2576 1.524 . S
C2575 C2579 1.400 . S
C2576 H2561 0.960 . S
C2576 H2562 0.960 . S
C2576 H2563 0.960 . S
C2576 C2575 1.524 . S
C2577 C2574 1.403 . S
C2577 C2578 1.392 . S
C2577 C2581 1.495 . S
C2578 C2577 1.392 . S
C2578 C2579 1.385 . S
C2578 C2580 1.478 . S
C2579 H2573 0.930 . S
C2579 C2575 1.400 . S
C2579 C2578 1.385 . S
C2580 C2578 1.478 . S
C2580 C2582 1.381 . S
C2580 C2586 1.383 . S
C2581 C2577 1.495 . S
C2581 H2587 0.959 . S
C2581 H2588 0.961 . S
C2581 H2589 0.960 . S
C2582 C2580 1.381 . S
C2582 C2583 1.394 . S
C2582 H2590 0.930 . S
C2583 C2582 1.394 . S
C2583 C2584 1.383 . S
C2583 H2591 0.929 . S
C2584 C2583 1.383 . S
C2584 C2585 1.377 . S
C2585 H2569 0.930 . S
C2585 C2584 1.377 . S
C2585 C2586 1.379 . S
C2586 H2570 0.931 . S
C2586 C2580 1.383 . S
C2586 C2585 1.379 . S
H2587 C2581 0.959 . S
H2588 C2581 0.961 . S
H2589 C2581 0.960 . S
H2590 C2582 0.930 . S
H2591 C2583 0.929 . S
H2592 C2600 0.929 . S
H2593 C2602 0.930 . S
H2594 C2604 0.930 . S
H2595 C2607 0.929 . S
H2596 C2610 0.930 . S
H2597 C2612 0.960 . S
H2598 C2612 0.960 . S
H2599 C2612 0.960 . S
C2600 H2592 0.929 . S
C2600 C2601 1.377 . S
C2600 C2602 1.384 . S
C2601 C2600 1.377 . S
C2601 C2607 1.390 . S
C2602 H2593 0.930 . S
C2602 C2600 1.384 . S
C2602 C2603 1.362 1_545 S
C2603 C2602 1.362 1_565 S
C2603 C2604 1.399 1_565 S
C2603 C2608 1.500 . S
C2604 H2594 0.930 . S
C2604 C2603 1.399 1_545 S
C2604 C2607 1.386 . S
H2605 C2621 0.930 . S
H2606 C2622 0.931 . S
C2607 H2595 0.929 . S
C2607 C2601 1.390 . S
C2607 C2604 1.386 . S
C2608 C2603 1.500 . S
C2608 C2610 1.395 . S
C2608 C2611 1.403 . S
H2609 C2615 0.930 . S
C2610 H2596 0.930 . S
C2610 C2608 1.395 . S
C2610 C2613 1.403 . S
C2611 C2608 1.403 . S
C2611 C2612 1.524 . S
C2611 C2615 1.400 . S
C2612 H2597 0.960 . S
C2612 H2598 0.960 . S
C2612 H2599 0.960 . S
C2612 C2611 1.524 . S
C2613 C2610 1.403 . S
C2613 C2614 1.392 . S
C2613 C2617 1.495 . S
C2614 C2613 1.392 . S
C2614 C2615 1.385 . S
C2614 C2616 1.478 . S
C2615 H2609 0.930 . S
C2615 C2611 1.400 . S
C2615 C2614 1.385 . S
C2616 C2614 1.478 . S
C2616 C2618 1.381 . S
C2616 C2622 1.383 . S
C2617 C2613 1.495 . S
C2617 H2623 0.959 . S
C2617 H2624 0.961 . S
C2617 H2625 0.960 . S
C2618 C2616 1.381 . S
C2618 C2619 1.394 . S
C2618 H2626 0.930 . S
C2619 C2618 1.394 . S
C2619 C2620 1.383 . S
C2619 H2627 0.929 . S
C2620 C2619 1.383 . S
C2620 C2621 1.377 . S
C2621 H2605 0.930 . S
C2621 C2620 1.377 . S
C2621 C2622 1.379 . S
C2622 H2606 0.931 . S
C2622 C2616 1.383 . S
C2622 C2621 1.379 . S
H2623 C2617 0.959 . S
H2624 C2617 0.961 . S
H2625 C2617 0.960 . S
H2626 C2618 0.930 . S
H2627 C2619 0.929 . S
H2628 C2636 0.929 . S
H2629 C2638 0.930 . S
H2630 C2640 0.930 . S
H2631 C2643 0.929 . S
H2632 C2646 0.930 . S
H2633 C2648 0.960 . S
H2634 C2648 0.960 . S
H2635 C2648 0.960 . S
C2636 H2628 0.929 . S
C2636 C2637 1.377 . S
C2636 C2638 1.384 1_655 S
C2637 C2636 1.377 . S
C2637 C2643 1.390 . S
C2638 H2629 0.930 . S
C2638 C2636 1.384 1_455 S
C2638 C2639 1.372 . S
C2639 C2638 1.372 . S
C2639 C2640 1.400 1_455 S
C2639 C2644 1.490 . S
C2640 H2630 0.930 . S
C2640 C2639 1.400 1_655 S
C2640 C2643 1.386 . S
H2641 C2657 0.930 . S
H2642 C2658 0.931 . S
C2643 H2631 0.929 . S
C2643 C2637 1.390 . S
C2643 C2640 1.386 . S
C2644 C2639 1.490 . S
C2644 C2646 1.395 . S
C2644 C2647 1.403 . S
H2645 C2651 0.930 . S
C2646 H2632 0.930 . S
C2646 C2644 1.395 . S
C2646 C2649 1.403 . S
C2647 C2644 1.403 . S
C2647 C2648 1.524 . S
C2647 C2651 1.400 . S
C2648 H2633 0.960 . S
C2648 H2634 0.960 . S
C2648 H2635 0.960 . S
C2648 C2647 1.524 . S
C2649 C2646 1.403 . S
C2649 C2650 1.392 . S
C2649 C2653 1.495 . S
C2650 C2649 1.392 . S
C2650 C2651 1.385 . S
C2650 C2652 1.478 . S
C2651 H2645 0.930 . S
C2651 C2647 1.400 . S
C2651 C2650 1.385 . S
C2652 C2650 1.478 . S
C2652 C2654 1.381 . S
C2652 C2658 1.383 . S
C2653 C2649 1.495 . S
C2653 H2659 0.959 . S
C2653 H2660 0.961 . S
C2653 H2661 0.960 . S
C2654 C2652 1.381 . S
C2654 C2655 1.394 . S
C2654 H2662 0.930 . S
C2655 C2654 1.394 . S
C2655 C2656 1.383 . S
C2655 H2663 0.929 . S
C2656 C2655 1.383 . S
C2656 C2657 1.377 . S
C2657 H2641 0.930 . S
C2657 C2656 1.377 . S
C2657 C2658 1.379 . S
C2658 H2642 0.931 . S
C2658 C2652 1.383 . S
C2658 C2657 1.379 . S
H2659 C2653 0.959 . S
H2660 C2653 0.961 . S
H2661 C2653 0.960 . S
H2662 C2654 0.930 . S
H2663 C2655 0.929 . S
H2664 C2672 0.929 . S
H2665 C2674 0.930 . S
H2666 C2676 0.930 . S
H2667 C2679 0.929 . S
H2668 C2682 0.930 . S
H2669 C2684 0.960 . S
H2670 C2684 0.960 . S
H2671 C2684 0.960 . S
C2672 H2664 0.929 . S
C2672 C2673 1.377 . S
C2672 C2674 1.384 . S
C2673 C2672 1.377 . S
C2673 C2679 1.390 . S
C2674 H2665 0.930 . S
C2674 C2672 1.384 . S
C2674 C2675 1.372 . S
C2675 C2674 1.372 . S
C2675 C2676 1.400 . S
C2675 C2680 1.490 . S
C2676 H2666 0.930 . S
C2676 C2675 1.400 . S
C2676 C2679 1.386 . S
H2677 C2693 0.930 . S
H2678 C2694 0.931 . S
C2679 H2667 0.929 . S
C2679 C2673 1.390 . S
C2679 C2676 1.386 . S
C2680 C2675 1.490 . S
C2680 C2682 1.395 . S
C2680 C2683 1.403 . S
H2681 C2687 0.930 . S
C2682 H2668 0.930 . S
C2682 C2680 1.395 . S
C2682 C2685 1.403 . S
C2683 C2680 1.403 . S
C2683 C2684 1.524 . S
C2683 C2687 1.400 . S
C2684 H2669 0.960 . S
C2684 H2670 0.960 . S
C2684 H2671 0.960 . S
C2684 C2683 1.524 . S
C2685 C2682 1.403 . S
C2685 C2686 1.392 . S
C2685 C2689 1.495 . S
C2686 C2685 1.392 . S
C2686 C2687 1.385 . S
C2686 C2688 1.478 . S
C2687 H2681 0.930 . S
C2687 C2683 1.400 . S
C2687 C2686 1.385 . S
C2688 C2686 1.478 . S
C2688 C2690 1.381 . S
C2688 C2694 1.383 . S
C2689 C2685 1.495 . S
C2689 H2695 0.959 . S
C2689 H2696 0.961 . S
C2689 H2697 0.960 . S
C2690 C2688 1.381 . S
C2690 C2691 1.394 . S
C2690 H2698 0.930 . S
C2691 C2690 1.394 . S
C2691 C2692 1.383 . S
C2691 H2699 0.929 . S
C2692 C2691 1.383 . S
C2692 C2693 1.377 . S
C2693 H2677 0.930 . S
C2693 C2692 1.377 . S
C2693 C2694 1.379 . S
C2694 H2678 0.931 . S
C2694 C2688 1.383 . S
C2694 C2693 1.379 . S
H2695 C2689 0.959 . S
H2696 C2689 0.961 . S
H2697 C2689 0.960 . S
H2698 C2690 0.930 . S
H2699 C2691 0.929 . S
H2700 C2708 0.929 . S
H2701 C2710 0.930 . S
H2702 C2712 0.930 . S
H2703 C2715 0.929 . S
H2704 C2718 0.930 . S
H2705 C2720 0.960 . S
H2706 C2720 0.960 . S
H2707 C2720 0.960 . S
C2708 H2700 0.929 . S
C2708 C2709 1.377 . S
C2708 C2710 1.384 . S
C2709 C2708 1.377 . S
C2709 C2715 1.390 . S
C2710 H2701 0.930 . S
C2710 C2708 1.384 . S
C2710 C2711 1.372 . S
C2711 C2710 1.372 . S
C2711 C2712 1.400 . S
C2711 C2716 1.490 . S
C2712 H2702 0.930 . S
C2712 C2711 1.400 . S
C2712 C2715 1.386 . S
H2713 C2729 0.930 . S
H2714 C2730 0.931 . S
C2715 H2703 0.929 . S
C2715 C2709 1.390 . S
C2715 C2712 1.386 . S
C2716 C2711 1.490 . S
C2716 C2718 1.395 . S
C2716 C2719 1.403 . S
H2717 C2723 0.930 . S
C2718 H2704 0.930 . S
C2718 C2716 1.395 . S
C2718 C2721 1.403 . S
C2719 C2716 1.403 . S
C2719 C2720 1.524 . S
C2719 C2723 1.400 . S
C2720 H2705 0.960 . S
C2720 H2706 0.960 . S
C2720 H2707 0.960 . S
C2720 C2719 1.524 . S
C2721 C2718 1.403 . S
C2721 C2722 1.392 . S
C2721 C2725 1.495 . S
C2722 C2721 1.392 . S
C2722 C2723 1.385 . S
C2722 C2724 1.478 . S
C2723 H2717 0.930 . S
C2723 C2719 1.400 . S
C2723 C2722 1.385 . S
C2724 C2722 1.478 . S
C2724 C2726 1.381 . S
C2724 C2730 1.383 . S
C2725 C2721 1.495 . S
C2725 H2731 0.959 . S
C2725 H2732 0.961 . S
C2725 H2733 0.960 . S
C2726 C2724 1.381 . S
C2726 C2727 1.394 . S
C2726 H2734 0.930 . S
C2727 C2726 1.394 . S
C2727 C2728 1.383 . S
C2727 H2735 0.929 . S
C2728 C2727 1.383 . S
C2728 C2729 1.377 . S
C2729 H2713 0.930 . S
C2729 C2728 1.377 . S
C2729 C2730 1.379 . S
C2730 H2714 0.931 . S
C2730 C2724 1.383 . S
C2730 C2729 1.379 . S
H2731 C2725 0.959 . S
H2732 C2725 0.961 . S
H2733 C2725 0.960 . S
H2734 C2726 0.930 . S
H2735 C2727 0.929 . S
H2736 C2744 0.929 . S
H2737 C2746 0.930 . S
H2738 C2748 0.930 . S
H2739 C2751 0.929 . S
H2740 C2754 0.930 . S
H2741 C2756 0.960 . S
H2742 C2756 0.960 . S
H2743 C2756 0.960 . S
C2744 H2736 0.929 . S
C2744 C2745 1.377 . S
C2744 C2746 1.384 . S
C2745 C2744 1.377 . S
C2745 C2751 1.390 . S
C2746 H2737 0.930 . S
C2746 C2744 1.384 . S
C2746 C2747 1.372 . S
C2747 C2746 1.372 . S
C2747 C2748 1.400 . S
C2747 C2752 1.490 . S
C2748 H2738 0.930 . S
C2748 C2747 1.400 . S
C2748 C2751 1.386 . S
H2749 C2765 0.930 . S
H2750 C2766 0.931 . S
C2751 H2739 0.929 . S
C2751 C2745 1.390 . S
C2751 C2748 1.386 . S
C2752 C2747 1.490 . S
C2752 C2754 1.395 . S
C2752 C2755 1.403 . S
H2753 C2759 0.930 . S
C2754 H2740 0.930 . S
C2754 C2752 1.395 . S
C2754 C2757 1.403 . S
C2755 C2752 1.403 . S
C2755 C2756 1.524 . S
C2755 C2759 1.400 . S
C2756 H2741 0.960 . S
C2756 H2742 0.960 . S
C2756 H2743 0.960 . S
C2756 C2755 1.524 . S
C2757 C2754 1.403 . S
C2757 C2758 1.392 . S
C2757 C2761 1.495 . S
C2758 C2757 1.392 . S
C2758 C2759 1.385 . S
C2758 C2760 1.478 . S
C2759 H2753 0.930 . S
C2759 C2755 1.400 . S
C2759 C2758 1.385 . S
C2760 C2758 1.478 . S
C2760 C2762 1.381 . S
C2760 C2766 1.383 . S
C2761 C2757 1.495 . S
C2761 H2767 0.959 . S
C2761 H2768 0.961 . S
C2761 H2769 0.960 . S
C2762 C2760 1.381 . S
C2762 C2763 1.394 . S
C2762 H2770 0.930 . S
C2763 C2762 1.394 . S
C2763 C2764 1.383 . S
C2763 H2771 0.929 . S
C2764 C2763 1.383 . S
C2764 C2765 1.377 . S
C2765 H2749 0.930 . S
C2765 C2764 1.377 . S
C2765 C2766 1.379 . S
C2766 H2750 0.931 . S
C2766 C2760 1.383 . S
C2766 C2765 1.379 . S
H2767 C2761 0.959 . S
H2768 C2761 0.961 . S
H2769 C2761 0.960 . S
H2770 C2762 0.930 . S
H2771 C2763 0.929 . S
H2772 C2780 0.929 . S
H2773 C2782 0.930 . S
H2774 C2784 0.930 . S
H2775 C2787 0.929 . S
H2776 C2790 0.930 . S
H2777 C2792 0.960 . S
H2778 C2792 0.960 . S
H2779 C2792 0.960 . S
C2780 H2772 0.929 . S
C2780 C2781 1.377 . S
C2780 C2782 1.384 . S
C2781 C2780 1.377 . S
C2781 C2787 1.390 . S
C2782 H2773 0.930 . S
C2782 C2780 1.384 . S
C2782 C2783 1.372 . S
C2783 C2782 1.372 . S
C2783 C2784 1.400 . S
C2783 C2788 1.490 . S
C2784 H2774 0.930 . S
C2784 C2783 1.400 . S
C2784 C2787 1.386 . S
H2785 C2801 0.930 . S
H2786 C2802 0.931 . S
C2787 H2775 0.929 . S
C2787 C2781 1.390 . S
C2787 C2784 1.386 . S
C2788 C2783 1.490 . S
C2788 C2790 1.395 . S
C2788 C2791 1.403 . S
H2789 C2795 0.930 . S
C2790 H2776 0.930 . S
C2790 C2788 1.395 . S
C2790 C2793 1.403 . S
C2791 C2788 1.403 . S
C2791 C2792 1.524 . S
C2791 C2795 1.400 . S
C2792 H2777 0.960 . S
C2792 H2778 0.960 . S
C2792 H2779 0.960 . S
C2792 C2791 1.524 . S
C2793 C2790 1.403 . S
C2793 C2794 1.392 . S
C2793 C2797 1.495 . S
C2794 C2793 1.392 . S
C2794 C2795 1.385 . S
C2794 C2796 1.478 . S
C2795 H2789 0.930 . S
C2795 C2791 1.400 . S
C2795 C2794 1.385 . S
C2796 C2794 1.478 . S
C2796 C2798 1.381 . S
C2796 C2802 1.383 . S
C2797 C2793 1.495 . S
C2797 H2803 0.959 . S
C2797 H2804 0.961 . S
C2797 H2805 0.960 . S
C2798 C2796 1.381 . S
C2798 C2799 1.394 . S
C2798 H2806 0.930 . S
C2799 C2798 1.394 . S
C2799 C2800 1.383 . S
C2799 H2807 0.929 . S
C2800 C2799 1.383 . S
C2800 C2801 1.377 . S
C2801 H2785 0.930 . S
C2801 C2800 1.377 . S
C2801 C2802 1.379 . S
C2802 H2786 0.931 . S
C2802 C2796 1.383 . S
C2802 C2801 1.379 . S
H2803 C2797 0.959 . S
H2804 C2797 0.961 . S
H2805 C2797 0.960 . S
H2806 C2798 0.930 . S
H2807 C2799 0.929 . S
H2808 C2816 0.929 . S
H2809 C2818 0.930 . S
H2810 C2820 0.930 1_545 S
H2811 C2823 0.929 . S
H2812 C2826 0.930 . S
H2813 C2828 0.960 . S
H2814 C2828 0.960 . S
H2815 C2828 0.960 . S
C2816 H2808 0.929 . S
C2816 C2817 1.377 . S
C2816 C2818 1.384 . S
C2817 C2816 1.377 . S
C2817 C2823 1.390 . S
C2818 H2809 0.930 . S
C2818 C2816 1.384 . S
C2818 C2819 1.320 1_565 S
C2819 C2818 1.320 1_545 S
C2819 C2820 1.416 1_545 S
C2819 C2824 1.526 . S
C2820 H2810 0.930 1_565 S
C2820 C2819 1.416 1_565 S
C2820 C2823 1.386 . S
H2821 C2837 0.930 . S
H2822 C2838 0.931 . S
C2823 H2811 0.929 . S
C2823 C2817 1.390 . S
C2823 C2820 1.386 . S
C2824 C2819 1.526 . S
C2824 C2826 1.395 . S
C2824 C2827 1.403 . S
H2825 C2831 0.930 . S
C2826 H2812 0.930 . S
C2826 C2824 1.395 . S
C2826 C2829 1.403 . S
C2827 C2824 1.403 . S
C2827 C2828 1.524 . S
C2827 C2831 1.400 . S
C2828 H2813 0.960 . S
C2828 H2814 0.960 . S
C2828 H2815 0.960 . S
C2828 C2827 1.524 . S
C2829 C2826 1.403 . S
C2829 C2830 1.392 . S
C2829 C2833 1.495 . S
C2830 C2829 1.392 . S
C2830 C2831 1.385 . S
C2830 C2832 1.478 . S
C2831 H2825 0.930 . S
C2831 C2827 1.400 . S
C2831 C2830 1.385 . S
C2832 C2830 1.478 . S
C2832 C2834 1.381 . S
C2832 C2838 1.383 . S
C2833 C2829 1.495 . S
C2833 H2839 0.959 . S
C2833 H2840 0.961 . S
C2833 H2841 0.960 . S
C2834 C2832 1.381 . S
C2834 C2835 1.394 . S
C2834 H2842 0.930 . S
C2835 C2834 1.394 . S
C2835 C2836 1.383 . S
C2835 H2843 0.929 . S
C2836 C2835 1.383 . S
C2836 C2837 1.377 . S
C2837 H2821 0.930 . S
C2837 C2836 1.377 . S
C2837 C2838 1.379 . S
C2838 H2822 0.931 . S
C2838 C2832 1.383 . S
C2838 C2837 1.379 . S
H2839 C2833 0.959 . S
H2840 C2833 0.961 . S
H2841 C2833 0.960 . S
H2842 C2834 0.930 . S
H2843 C2835 0.929 . S
H2844 C2852 0.929 . S
H2845 C2854 0.930 . S
H2846 C2856 0.930 . S
H2847 C2859 0.929 . S
H2848 C2862 0.930 . S
H2849 C2864 0.960 . S
H2850 C2864 0.960 . S
H2851 C2864 0.960 . S
C2852 H2844 0.929 . S
C2852 C2853 1.377 . S
C2852 C2854 1.384 . S
C2853 C2852 1.377 . S
C2853 C2859 1.390 . S
C2854 H2845 0.930 . S
C2854 C2852 1.384 . S
C2854 C2855 1.372 1_455 S
C2855 C2854 1.372 1_655 S
C2855 C2856 1.400 . S
C2855 C2860 1.490 . S
C2856 H2846 0.930 . S
C2856 C2855 1.400 . S
C2856 C2859 1.386 1_655 S
H2857 C2873 0.930 . S
H2858 C2874 0.931 . S
C2859 H2847 0.929 . S
C2859 C2853 1.390 . S
C2859 C2856 1.386 1_455 S
C2860 C2855 1.490 . S
C2860 C2862 1.395 . S
C2860 C2863 1.403 . S
H2861 C2867 0.930 . S
C2862 H2848 0.930 . S
C2862 C2860 1.395 . S
C2862 C2865 1.403 . S
C2863 C2860 1.403 . S
C2863 C2864 1.524 . S
C2863 C2867 1.400 . S
C2864 H2849 0.960 . S
C2864 H2850 0.960 . S
C2864 H2851 0.960 . S
C2864 C2863 1.524 . S
C2865 C2862 1.403 . S
C2865 C2866 1.392 . S
C2865 C2869 1.495 . S
C2866 C2865 1.392 . S
C2866 C2867 1.385 . S
C2866 C2868 1.478 . S
C2867 H2861 0.930 . S
C2867 C2863 1.400 . S
C2867 C2866 1.385 . S
C2868 C2866 1.478 . S
C2868 C2870 1.381 . S
C2868 C2874 1.383 . S
C2869 C2865 1.495 . S
C2869 H2875 0.959 . S
C2869 H2876 0.961 . S
C2869 H2877 0.960 . S
C2870 C2868 1.381 . S
C2870 C2871 1.394 . S
C2870 H2878 0.930 . S
C2871 C2870 1.394 . S
C2871 C2872 1.383 . S
C2871 H2879 0.929 . S
C2872 C2871 1.383 . S
C2872 C2873 1.377 . S
C2873 H2857 0.930 . S
C2873 C2872 1.377 . S
C2873 C2874 1.379 . S
C2874 H2858 0.931 . S
C2874 C2868 1.383 . S
C2874 C2873 1.379 . S
H2875 C2869 0.959 . S
H2876 C2869 0.961 . S
H2877 C2869 0.960 . S
H2878 C2870 0.930 . S
H2879 C2871 0.929 . S
H2880 C2888 0.929 . S
H2881 C2890 0.930 . S
H2882 C2892 0.930 . S
H2883 C2895 0.929 . S
H2884 C2898 0.930 . S
H2885 C2900 0.960 . S
H2886 C2900 0.960 . S
H2887 C2900 0.960 . S
C2888 H2880 0.929 . S
C2888 C2889 1.377 . S
C2888 C2890 1.384 . S
C2889 C2888 1.377 . S
C2889 C2895 1.390 . S
C2890 H2881 0.930 . S
C2890 C2888 1.384 . S
C2890 C2891 1.372 . S
C2891 C2890 1.372 . S
C2891 C2892 1.400 . S
C2891 C2896 1.490 . S
C2892 H2882 0.930 . S
C2892 C2891 1.400 . S
C2892 C2895 1.386 . S
H2893 C2909 0.930 . S
H2894 C2910 0.931 . S
C2895 H2883 0.929 . S
C2895 C2889 1.390 . S
C2895 C2892 1.386 . S
C2896 C2891 1.490 . S
C2896 C2898 1.395 . S
C2896 C2899 1.403 . S
H2897 C2903 0.930 . S
C2898 H2884 0.930 . S
C2898 C2896 1.395 . S
C2898 C2901 1.403 . S
C2899 C2896 1.403 . S
C2899 C2900 1.524 . S
C2899 C2903 1.400 . S
C2900 H2885 0.960 . S
C2900 H2886 0.960 . S
C2900 H2887 0.960 . S
C2900 C2899 1.524 . S
C2901 C2898 1.403 . S
C2901 C2902 1.392 . S
C2901 C2905 1.495 . S
C2902 C2901 1.392 . S
C2902 C2903 1.385 . S
C2902 C2904 1.478 . S
C2903 H2897 0.930 . S
C2903 C2899 1.400 . S
C2903 C2902 1.385 . S
C2904 C2902 1.478 . S
C2904 C2906 1.381 . S
C2904 C2910 1.383 . S
C2905 C2901 1.495 . S
C2905 H2911 0.959 . S
C2905 H2912 0.961 . S
C2905 H2913 0.960 . S
C2906 C2904 1.381 . S
C2906 C2907 1.394 . S
C2906 H2914 0.930 . S
C2907 C2906 1.394 . S
C2907 C2908 1.383 . S
C2907 H2915 0.929 . S
C2908 C2907 1.383 . S
C2908 C2909 1.377 . S
C2909 H2893 0.930 . S
C2909 C2908 1.377 . S
C2909 C2910 1.379 . S
C2910 H2894 0.931 . S
C2910 C2904 1.383 . S
C2910 C2909 1.379 . S
H2911 C2905 0.959 . S
H2912 C2905 0.961 . S
H2913 C2905 0.960 . S
H2914 C2906 0.930 . S
H2915 C2907 0.929 . S
H2916 C2924 0.929 . S
H2917 C2926 0.930 1_655 S
H2918 C2928 0.930 . S
H2919 C2931 0.929 . S
H2920 C2934 0.930 . S
H2921 C2936 0.960 . S
H2922 C2936 0.960 . S
H2923 C2936 0.941 1_455 S
C2924 H2916 0.929 . S
C2924 C2925 1.377 . S
C2924 C2926 1.384 . S
C2925 C2924 1.377 . S
C2925 C2931 1.390 . S
C2926 H2917 0.930 1_455 S
C2926 C2924 1.384 . S
C2926 C2927 1.372 1_455 S
C2927 C2926 1.372 1_655 S
C2927 C2928 1.400 1_655 S
C2927 C2932 1.490 . S
C2928 H2918 0.930 . S
C2928 C2927 1.400 1_455 S
C2928 C2931 1.386 . S
H2929 C2945 0.930 . S
H2930 C2946 0.931 . S
C2931 H2919 0.929 . S
C2931 C2925 1.390 . S
C2931 C2928 1.386 . S
C2932 C2927 1.490 . S
C2932 C2934 1.395 . S
C2932 C2935 1.403 . S
H2933 C2939 0.930 . S
C2934 H2920 0.930 . S
C2934 C2932 1.395 . S
C2934 C2937 1.403 . S
C2935 C2932 1.403 . S
C2935 C2936 1.524 . S
C2935 C2939 1.400 . S
C2936 H2921 0.960 . S
C2936 H2922 0.960 . S
C2936 H2923 0.941 1_655 S
C2936 C2935 1.524 . S
C2937 C2934 1.403 . S
C2937 C2938 1.392 . S
C2937 C2941 1.495 . S
C2938 C2937 1.392 . S
C2938 C2939 1.385 . S
C2938 C2940 1.478 . S
C2939 H2933 0.930 . S
C2939 C2935 1.400 . S
C2939 C2938 1.385 . S
C2940 C2938 1.478 . S
C2940 C2942 1.381 . S
C2940 C2946 1.383 . S
C2941 C2937 1.495 . S
C2941 H2947 0.959 . S
C2941 H2948 0.961 . S
C2941 H2949 0.960 . S
C2942 C2940 1.381 . S
C2942 C2943 1.394 . S
C2942 H2950 0.930 . S
C2943 C2942 1.394 . S
C2943 C2944 1.383 . S
C2943 H2951 0.929 . S
C2944 C2943 1.383 . S
C2944 C2945 1.377 . S
C2945 H2929 0.930 . S
C2945 C2944 1.377 . S
C2945 C2946 1.379 . S
C2946 H2930 0.931 . S
C2946 C2940 1.383 . S
C2946 C2945 1.379 . S
H2947 C2941 0.959 . S
H2948 C2941 0.961 . S
H2949 C2941 0.960 . S
H2950 C2942 0.930 . S
H2951 C2943 0.929 . S
H2952 C2960 0.929 . S
H2953 C2962 0.930 . S
H2954 C2964 0.930 . S
H2955 C2967 0.929 . S
H2956 C2970 0.930 . S
H2957 C2972 0.960 . S
H2958 C2972 0.960 . S
H2959 C2972 0.960 . S
C2960 H2952 0.929 . S
C2960 C2961 1.377 . S
C2960 C2962 1.384 . S
C2961 C2960 1.377 . S
C2961 C2967 1.390 . S
C2962 H2953 0.930 . S
C2962 C2960 1.384 . S
C2962 C2963 1.372 . S
C2963 C2962 1.372 . S
C2963 C2964 1.400 . S
C2963 C2968 1.490 . S
C2964 H2954 0.930 . S
C2964 C2963 1.400 . S
C2964 C2967 1.386 . S
H2965 C2981 0.930 . S
H2966 C2982 0.931 . S
C2967 H2955 0.929 . S
C2967 C2961 1.390 . S
C2967 C2964 1.386 . S
C2968 C2963 1.490 . S
C2968 C2970 1.395 . S
C2968 C2971 1.403 . S
H2969 C2975 0.930 . S
C2970 H2956 0.930 . S
C2970 C2968 1.395 . S
C2970 C2973 1.403 . S
C2971 C2968 1.403 . S
C2971 C2972 1.524 . S
C2971 C2975 1.400 . S
C2972 H2957 0.960 . S
C2972 H2958 0.960 . S
C2972 H2959 0.960 . S
C2972 C2971 1.524 . S
C2973 C2970 1.403 . S
C2973 C2974 1.392 . S
C2973 C2977 1.495 . S
C2974 C2973 1.392 . S
C2974 C2975 1.385 . S
C2974 C2976 1.478 . S
C2975 H2969 0.930 . S
C2975 C2971 1.400 . S
C2975 C2974 1.385 . S
C2976 C2974 1.478 . S
C2976 C2978 1.381 . S
C2976 C2982 1.383 . S
C2977 C2973 1.495 . S
C2977 H2983 0.959 . S
C2977 H2984 0.961 . S
C2977 H2985 0.960 . S
C2978 C2976 1.381 . S
C2978 C2979 1.394 . S
C2978 H2986 0.930 . S
C2979 C2978 1.394 . S
C2979 C2980 1.383 . S
C2979 H2987 0.929 . S
C2980 C2979 1.383 . S
C2980 C2981 1.377 . S
C2981 H2965 0.930 . S
C2981 C2980 1.377 . S
C2981 C2982 1.379 . S
C2982 H2966 0.931 . S
C2982 C2976 1.383 . S
C2982 C2981 1.379 . S
H2983 C2977 0.959 . S
H2984 C2977 0.961 . S
H2985 C2977 0.960 . S
H2986 C2978 0.930 . S
H2987 C2979 0.929 . S
H2988 C2996 0.929 . S
H2989 C2998 0.930 . S
H2990 C3000 0.930 . S
H2991 C3003 0.929 . S
H2992 C3006 0.930 . S
H2993 C3008 0.960 . S
H2994 C3008 0.960 1_565 S
H2995 C3008 0.960 . S
C2996 H2988 0.929 . S
C2996 C2997 1.377 . S
C2996 C2998 1.384 . S
C2997 C2996 1.377 . S
C2997 C3003 1.390 . S
C2998 H2989 0.930 . S
C2998 C2996 1.384 . S
C2998 C2999 1.372 . S
C2999 C2998 1.372 . S
C2999 C3000 1.400 . S
C2999 C3004 1.490 1_565 S
C3000 H2990 0.930 . S
C3000 C2999 1.400 . S
C3000 C3003 1.386 . S
H3001 C3017 0.930 . S
H3002 C3018 0.931 . S
C3003 H2991 0.929 . S
C3003 C2997 1.390 . S
C3003 C3000 1.386 . S
C3004 C2999 1.490 1_545 S
C3004 C3006 1.395 . S
C3004 C3007 1.403 . S
H3005 C3011 0.930 . S
C3006 H2992 0.930 . S
C3006 C3004 1.395 . S
C3006 C3009 1.403 . S
C3007 C3004 1.403 . S
C3007 C3008 1.524 . S
C3007 C3011 1.400 . S
C3008 H2993 0.960 . S
C3008 H2994 0.960 1_545 S
C3008 H2995 0.960 . S
C3008 C3007 1.524 . S
C3009 C3006 1.403 . S
C3009 C3010 1.392 . S
C3009 C3013 1.495 . S
C3010 C3009 1.392 . S
C3010 C3011 1.385 . S
C3010 C3012 1.478 . S
C3011 H3005 0.930 . S
C3011 C3007 1.400 . S
C3011 C3010 1.385 . S
C3012 C3010 1.478 . S
C3012 C3014 1.381 . S
C3012 C3018 1.383 . S
C3013 C3009 1.495 . S
C3013 H3019 0.959 . S
C3013 H3020 0.961 . S
C3013 H3021 0.960 . S
C3014 C3012 1.381 . S
C3014 C3015 1.394 . S
C3014 H3022 0.930 . S
C3015 C3014 1.394 . S
C3015 C3016 1.383 . S
C3015 H3023 0.929 . S
C3016 C3015 1.383 . S
C3016 C3017 1.377 . S
C3017 H3001 0.930 . S
C3017 C3016 1.377 . S
C3017 C3018 1.379 . S
C3018 H3002 0.931 . S
C3018 C3012 1.383 . S
C3018 C3017 1.379 . S
H3019 C3013 0.959 . S
H3020 C3013 0.961 . S
H3021 C3013 0.960 . S
H3022 C3014 0.930 . S
H3023 C3015 0.929 . S
H3024 C3032 0.929 . S
H3025 C3034 0.930 . S
H3026 C3036 0.930 . S
H3027 C3039 0.929 . S
H3028 C3042 0.930 . S
H3029 C3044 0.960 . S
H3030 C3044 0.960 . S
H3031 C3044 0.960 . S
C3032 H3024 0.929 . S
C3032 C3033 1.377 . S
C3032 C3034 1.384 . S
C3033 C3032 1.377 . S
C3033 C3039 1.390 . S
C3034 H3025 0.930 . S
C3034 C3032 1.384 . S
C3034 C3035 1.372 . S
C3035 C3034 1.372 . S
C3035 C3036 1.400 . S
C3035 C3040 1.490 . S
C3036 H3026 0.930 . S
C3036 C3035 1.400 . S
C3036 C3039 1.386 . S
H3037 C3053 0.930 . S
H3038 C3054 0.931 . S
C3039 H3027 0.929 . S
C3039 C3033 1.390 . S
C3039 C3036 1.386 . S
C3040 C3035 1.490 . S
C3040 C3042 1.395 . S
C3040 C3043 1.403 . S
H3041 C3047 0.930 . S
C3042 H3028 0.930 . S
C3042 C3040 1.395 . S
C3042 C3045 1.403 . S
C3043 C3040 1.403 . S
C3043 C3044 1.524 . S
C3043 C3047 1.400 . S
C3044 H3029 0.960 . S
C3044 H3030 0.960 . S
C3044 H3031 0.960 . S
C3044 C3043 1.524 . S
C3045 C3042 1.403 . S
C3045 C3046 1.392 . S
C3045 C3049 1.495 . S
C3046 C3045 1.392 . S
C3046 C3047 1.385 . S
C3046 C3048 1.478 . S
C3047 H3041 0.930 . S
C3047 C3043 1.400 . S
C3047 C3046 1.385 . S
C3048 C3046 1.478 . S
C3048 C3050 1.381 . S
C3048 C3054 1.383 . S
C3049 C3045 1.495 . S
C3049 H3055 0.959 . S
C3049 H3056 0.961 . S
C3049 H3057 0.960 . S
C3050 C3048 1.381 . S
C3050 C3051 1.394 . S
C3050 H3058 0.930 . S
C3051 C3050 1.394 . S
C3051 C3052 1.383 . S
C3051 H3059 0.929 . S
C3052 C3051 1.383 . S
C3052 C3053 1.377 . S
C3053 H3037 0.930 . S
C3053 C3052 1.377 . S
C3053 C3054 1.379 . S
C3054 H3038 0.931 . S
C3054 C3048 1.383 . S
C3054 C3053 1.379 . S
H3055 C3049 0.959 . S
H3056 C3049 0.961 . S
H3057 C3049 0.960 . S
H3058 C3050 0.930 . S
H3059 C3051 0.929 . S
H3060 C3068 0.929 . S
H3061 C3070 0.930 . S
H3062 C3072 0.930 . S
H3063 C3075 0.929 . S
H3064 C3078 0.930 . S
H3065 C3080 0.960 . S
H3066 C3080 0.960 . S
H3067 C3080 0.960 . S
C3068 H3060 0.929 . S
C3068 C3069 1.377 . S
C3068 C3070 1.384 . S
C3069 C3068 1.377 . S
C3069 C3075 1.390 . S
C3070 H3061 0.930 . S
C3070 C3068 1.384 . S
C3070 C3071 1.372 . S
C3071 C3070 1.372 . S
C3071 C3072 1.400 . S
C3071 C3076 1.490 . S
C3072 H3062 0.930 . S
C3072 C3071 1.400 . S
C3072 C3075 1.386 . S
H3073 C3089 0.930 . S
H3074 C3090 0.931 . S
C3075 H3063 0.929 . S
C3075 C3069 1.390 . S
C3075 C3072 1.386 . S
C3076 C3071 1.490 . S
C3076 C3078 1.395 . S
C3076 C3079 1.403 . S
H3077 C3083 0.930 . S
C3078 H3064 0.930 . S
C3078 C3076 1.395 . S
C3078 C3081 1.403 . S
C3079 C3076 1.403 . S
C3079 C3080 1.524 . S
C3079 C3083 1.400 . S
C3080 H3065 0.960 . S
C3080 H3066 0.960 . S
C3080 H3067 0.960 . S
C3080 C3079 1.524 . S
C3081 C3078 1.403 . S
C3081 C3082 1.392 . S
C3081 C3085 1.495 . S
C3082 C3081 1.392 . S
C3082 C3083 1.385 . S
C3082 C3084 1.478 . S
C3083 H3077 0.930 . S
C3083 C3079 1.400 . S
C3083 C3082 1.385 . S
C3084 C3082 1.478 . S
C3084 C3086 1.381 . S
C3084 C3090 1.383 . S
C3085 C3081 1.495 . S
C3085 H3091 0.959 . S
C3085 H3092 0.961 . S
C3085 H3093 0.960 . S
C3086 C3084 1.381 . S
C3086 C3087 1.394 . S
C3086 H3094 0.930 . S
C3087 C3086 1.394 . S
C3087 C3088 1.383 . S
C3087 H3095 0.929 . S
C3088 C3087 1.383 . S
C3088 C3089 1.377 . S
C3089 H3073 0.930 . S
C3089 C3088 1.377 . S
C3089 C3090 1.379 . S
C3090 H3074 0.931 . S
C3090 C3084 1.383 . S
C3090 C3089 1.379 . S
H3091 C3085 0.959 . S
H3092 C3085 0.961 . S
H3093 C3085 0.960 . S
H3094 C3086 0.930 . S
H3095 C3087 0.929 . S
H3096 C3104 0.929 . S
H3097 C3106 0.930 . S
H3098 C3108 0.930 . S
H3099 C3111 0.929 . S
H3100 C3114 0.930 . S
H3101 C3116 0.960 . S
H3102 C3116 0.960 . S
H3103 C3116 0.960 . S
C3104 H3096 0.929 . S
C3104 C3105 1.377 . S
C3104 C3106 1.384 . S
C3105 C3104 1.377 . S
C3105 C3111 1.390 . S
C3106 H3097 0.930 . S
C3106 C3104 1.384 . S
C3106 C3107 1.372 . S
C3107 C3106 1.372 . S
C3107 C3108 1.400 . S
C3107 C3112 1.490 . S
C3108 H3098 0.930 . S
C3108 C3107 1.400 . S
C3108 C3111 1.386 . S
H3109 C3125 0.930 . S
H3110 C3126 0.931 . S
C3111 H3099 0.929 . S
C3111 C3105 1.390 . S
C3111 C3108 1.386 . S
C3112 C3107 1.490 . S
C3112 C3114 1.395 . S
C3112 C3115 1.403 . S
H3113 C3119 0.930 . S
C3114 H3100 0.930 . S
C3114 C3112 1.395 . S
C3114 C3117 1.403 . S
C3115 C3112 1.403 . S
C3115 C3116 1.524 . S
C3115 C3119 1.400 . S
C3116 H3101 0.960 . S
C3116 H3102 0.960 . S
C3116 H3103 0.960 . S
C3116 C3115 1.524 . S
C3117 C3114 1.403 . S
C3117 C3118 1.392 . S
C3117 C3121 1.495 . S
C3118 C3117 1.392 . S
C3118 C3119 1.385 . S
C3118 C3120 1.478 . S
C3119 H3113 0.930 . S
C3119 C3115 1.400 . S
C3119 C3118 1.385 . S
C3120 C3118 1.478 . S
C3120 C3122 1.381 . S
C3120 C3126 1.383 . S
C3121 C3117 1.495 . S
C3121 H3127 0.959 . S
C3121 H3128 0.961 . S
C3121 H3129 0.960 . S
C3122 C3120 1.381 . S
C3122 C3123 1.394 . S
C3122 H3130 0.930 . S
C3123 C3122 1.394 . S
C3123 C3124 1.383 . S
C3123 H3131 0.929 . S
C3124 C3123 1.383 . S
C3124 C3125 1.377 . S
C3125 H3109 0.930 . S
C3125 C3124 1.377 . S
C3125 C3126 1.379 . S
C3126 H3110 0.931 . S
C3126 C3120 1.383 . S
C3126 C3125 1.379 . S
H3127 C3121 0.959 . S
H3128 C3121 0.961 . S
H3129 C3121 0.960 . S
H3130 C3122 0.930 . S
H3131 C3123 0.929 . S
H3132 C3140 0.929 . S
H3133 C3142 0.930 . S
H3134 C3144 0.930 . S
H3135 C3147 0.929 . S
H3136 C3150 0.930 . S
H3137 C3152 0.960 . S
H3138 C3152 0.960 . S
H3139 C3152 0.960 . S
C3140 H3132 0.929 . S
C3140 C3141 1.377 . S
C3140 C3142 1.384 . S
C3141 C3140 1.377 . S
C3141 C3147 1.390 . S
C3142 H3133 0.930 . S
C3142 C3140 1.384 . S
C3142 C3143 1.372 . S
C3143 C3142 1.372 . S
C3143 C3144 1.400 . S
C3143 C3148 1.490 . S
C3144 H3134 0.930 . S
C3144 C3143 1.400 . S
C3144 C3147 1.386 . S
H3145 C3161 0.930 . S
H3146 C3162 0.931 . S
C3147 H3135 0.929 . S
C3147 C3141 1.390 . S
C3147 C3144 1.386 . S
C3148 C3143 1.490 . S
C3148 C3150 1.395 . S
C3148 C3151 1.403 . S
H3149 C3155 0.930 . S
C3150 H3136 0.930 . S
C3150 C3148 1.395 . S
C3150 C3153 1.403 . S
C3151 C3148 1.403 . S
C3151 C3152 1.524 . S
C3151 C3155 1.400 . S
C3152 H3137 0.960 . S
C3152 H3138 0.960 . S
C3152 H3139 0.960 . S
C3152 C3151 1.524 . S
C3153 C3150 1.403 . S
C3153 C3154 1.392 . S
C3153 C3157 1.495 . S
C3154 C3153 1.392 . S
C3154 C3155 1.385 . S
C3154 C3156 1.478 . S
C3155 H3149 0.930 . S
C3155 C3151 1.400 . S
C3155 C3154 1.385 . S
C3156 C3154 1.478 . S
C3156 C3158 1.381 . S
C3156 C3162 1.383 . S
C3157 C3153 1.495 . S
C3157 H3163 0.959 . S
C3157 H3164 0.961 . S
C3157 H3165 0.960 . S
C3158 C3156 1.381 . S
C3158 C3159 1.394 . S
C3158 H3166 0.930 . S
C3159 C3158 1.394 . S
C3159 C3160 1.383 . S
C3159 H3167 0.929 . S
C3160 C3159 1.383 . S
C3160 C3161 1.377 . S
C3161 H3145 0.930 . S
C3161 C3160 1.377 . S
C3161 C3162 1.379 . S
C3162 H3146 0.931 . S
C3162 C3156 1.383 . S
C3162 C3161 1.379 . S
H3163 C3157 0.959 . S
H3164 C3157 0.961 . S
H3165 C3157 0.960 . S
H3166 C3158 0.930 . S
H3167 C3159 0.929 . S
H3168 C3176 0.929 . S
H3169 C3178 0.930 . S
H3170 C3180 0.930 . S
H3171 C3183 0.929 . S
H3172 C3186 0.930 . S
H3173 C3188 0.960 1_655 S
H3174 C3188 0.960 . S
H3175 C3188 0.960 . S
C3176 H3168 0.929 . S
C3176 C3177 1.377 . S
C3176 C3178 1.384 . S
C3177 C3176 1.377 . S
C3177 C3183 1.390 . S
C3178 H3169 0.930 . S
C3178 C3176 1.384 . S
C3178 C3179 1.372 . S
C3179 C3178 1.372 . S
C3179 C3180 1.400 . S
C3179 C3184 1.490 . S
C3180 H3170 0.930 . S
C3180 C3179 1.400 . S
C3180 C3183 1.386 . S
H3181 C3197 0.930 . S
H3182 C3198 0.931 . S
C3183 H3171 0.929 . S
C3183 C3177 1.390 . S
C3183 C3180 1.386 . S
C3184 C3179 1.490 . S
C3184 C3186 1.395 . S
C3184 C3187 1.403 . S
H3185 C3191 0.930 . S
C3186 H3172 0.930 . S
C3186 C3184 1.395 . S
C3186 C3189 1.403 . S
C3187 C3184 1.403 . S
C3187 C3188 1.524 . S
C3187 C3191 1.400 . S
C3188 H3173 0.960 1_455 S
C3188 H3174 0.960 . S
C3188 H3175 0.960 . S
C3188 C3187 1.524 . S
C3189 C3186 1.403 . S
C3189 C3190 1.392 . S
C3189 C3193 1.495 . S
C3190 C3189 1.392 . S
C3190 C3191 1.385 . S
C3190 C3192 1.478 . S
C3191 H3185 0.930 . S
C3191 C3187 1.400 . S
C3191 C3190 1.385 . S
C3192 C3190 1.478 . S
C3192 C3194 1.381 . S
C3192 C3198 1.383 . S
C3193 C3189 1.495 . S
C3193 H3199 0.959 . S
C3193 H3200 0.961 . S
C3193 H3201 0.960 . S
C3194 C3192 1.381 . S
C3194 C3195 1.394 . S
C3194 H3202 0.930 . S
C3195 C3194 1.394 . S
C3195 C3196 1.383 . S
C3195 H3203 0.929 . S
C3196 C3195 1.383 . S
C3196 C3197 1.377 . S
C3197 H3181 0.930 . S
C3197 C3196 1.377 . S
C3197 C3198 1.379 . S
C3198 H3182 0.931 . S
C3198 C3192 1.383 . S
C3198 C3197 1.379 . S
H3199 C3193 0.959 . S
H3200 C3193 0.961 . S
H3201 C3193 0.960 . S
H3202 C3194 0.930 . S
H3203 C3195 0.929 . S
H3204 C3212 0.929 . S
H3205 C3214 0.930 . S
H3206 C3216 0.930 . S
H3207 C3219 0.929 . S
H3208 C3222 0.930 . S
H3209 C3224 0.960 . S
H3210 C3224 0.960 . S
H3211 C3224 0.960 . S
C3212 H3204 0.929 . S
C3212 C3213 1.377 . S
C3212 C3214 1.384 . S
C3213 C3212 1.377 . S
C3213 C3219 1.390 . S
C3214 H3205 0.930 . S
C3214 C3212 1.384 . S
C3214 C3215 1.372 . S
C3215 C3214 1.372 . S
C3215 C3216 1.400 . S
C3215 C3220 1.490 . S
C3216 H3206 0.930 . S
C3216 C3215 1.400 . S
C3216 C3219 1.386 . S
H3217 C3233 0.930 . S
H3218 C3234 0.931 . S
C3219 H3207 0.929 . S
C3219 C3213 1.390 . S
C3219 C3216 1.386 . S
C3220 C3215 1.490 . S
C3220 C3222 1.395 . S
C3220 C3223 1.403 . S
H3221 C3227 0.930 . S
C3222 H3208 0.930 . S
C3222 C3220 1.395 . S
C3222 C3225 1.403 . S
C3223 C3220 1.403 . S
C3223 C3224 1.524 . S
C3223 C3227 1.400 . S
C3224 H3209 0.960 . S
C3224 H3210 0.960 . S
C3224 H3211 0.960 . S
C3224 C3223 1.524 . S
C3225 C3222 1.403 . S
C3225 C3226 1.392 . S
C3225 C3229 1.495 . S
C3226 C3225 1.392 . S
C3226 C3227 1.385 . S
C3226 C3228 1.478 . S
C3227 H3221 0.930 . S
C3227 C3223 1.400 . S
C3227 C3226 1.385 . S
C3228 C3226 1.478 . S
C3228 C3230 1.381 . S
C3228 C3234 1.383 . S
C3229 C3225 1.495 . S
C3229 H3235 0.959 . S
C3229 H3236 0.961 . S
C3229 H3237 0.960 . S
C3230 C3228 1.381 . S
C3230 C3231 1.394 . S
C3230 H3238 0.930 . S
C3231 C3230 1.394 . S
C3231 C3232 1.383 . S
C3231 H3239 0.929 . S
C3232 C3231 1.383 . S
C3232 C3233 1.377 . S
C3233 H3217 0.930 . S
C3233 C3232 1.377 . S
C3233 C3234 1.379 . S
C3234 H3218 0.931 . S
C3234 C3228 1.383 . S
C3234 C3233 1.379 . S
H3235 C3229 0.959 . S
H3236 C3229 0.961 . S
H3237 C3229 0.960 . S
H3238 C3230 0.930 . S
H3239 C3231 0.929 . S
H3240 C3248 0.929 . S
H3241 C3250 0.930 . S
H3242 C3252 0.930 . S
H3243 C3255 0.929 . S
H3244 C3258 0.930 . S
H3245 C3260 0.960 . S
H3246 C3260 0.960 . S
H3247 C3260 0.960 . S
C3248 H3240 0.929 . S
C3248 C3249 1.377 . S
C3248 C3250 1.384 . S
C3249 C3248 1.377 . S
C3249 C3255 1.390 . S
C3250 H3241 0.930 . S
C3250 C3248 1.384 . S
C3250 C3251 1.372 . S
C3251 C3250 1.372 . S
C3251 C3252 1.400 . S
C3251 C3256 1.490 . S
C3252 H3242 0.930 . S
C3252 C3251 1.400 . S
C3252 C3255 1.386 . S
H3253 C3269 0.930 . S
H3254 C3270 0.931 . S
C3255 H3243 0.929 . S
C3255 C3249 1.390 . S
C3255 C3252 1.386 . S
C3256 C3251 1.490 . S
C3256 C3258 1.395 . S
C3256 C3259 1.403 . S
H3257 C3263 0.930 . S
C3258 H3244 0.930 . S
C3258 C3256 1.395 . S
C3258 C3261 1.403 . S
C3259 C3256 1.403 . S
C3259 C3260 1.524 . S
C3259 C3263 1.400 . S
C3260 H3245 0.960 . S
C3260 H3246 0.960 . S
C3260 H3247 0.960 . S
C3260 C3259 1.524 . S
C3261 C3258 1.403 . S
C3261 C3262 1.392 . S
C3261 C3265 1.495 . S
C3262 C3261 1.392 . S
C3262 C3263 1.385 . S
C3262 C3264 1.478 . S
C3263 H3257 0.930 . S
C3263 C3259 1.400 . S
C3263 C3262 1.385 . S
C3264 C3262 1.478 . S
C3264 C3266 1.381 . S
C3264 C3270 1.383 . S
C3265 C3261 1.495 . S
C3265 H3271 0.959 . S
C3265 H3272 1.005 . S
C3265 H3273 0.960 . S
C3266 C3264 1.381 . S
C3266 C3267 1.394 . S
C3266 H3274 0.930 . S
C3267 C3266 1.394 . S
C3267 C3268 1.383 . S
C3267 H3275 0.929 . S
C3268 C3267 1.383 . S
C3268 C3269 1.377 . S
C3269 H3253 0.930 . S
C3269 C3268 1.377 . S
C3269 C3270 1.379 . S
C3270 H3254 0.931 . S
C3270 C3264 1.383 . S
C3270 C3269 1.379 . S
H3271 C3265 0.959 . S
H3272 C3265 1.005 . S
H3273 C3265 0.960 . S
H3274 C3266 0.930 . S
H3275 C3267 0.929 . S
H3276 C3284 0.929 . S
H3277 C3286 0.930 . S
H3278 C3288 0.930 . S
H3279 C3291 0.929 . S
H3280 C3294 0.930 . S
H3281 C3296 0.960 . S
H3282 C3296 0.960 . S
H3283 C3296 0.960 . S
C3284 H3276 0.929 . S
C3284 C3285 1.377 . S
C3284 C3286 1.384 . S
C3285 C3284 1.377 . S
C3285 C3291 1.390 . S
C3286 H3277 0.930 . S
C3286 C3284 1.384 . S
C3286 C3287 1.372 . S
C3287 C3286 1.372 . S
C3287 C3288 1.400 . S
C3287 C3292 1.490 . S
C3288 H3278 0.930 . S
C3288 C3287 1.400 . S
C3288 C3291 1.386 . S
H3289 C3305 0.930 . S
H3290 C3306 0.931 . S
C3291 H3279 0.929 . S
C3291 C3285 1.390 . S
C3291 C3288 1.386 . S
C3292 C3287 1.490 . S
C3292 C3294 1.395 . S
C3292 C3295 1.403 . S
H3293 C3299 0.930 . S
C3294 H3280 0.930 . S
C3294 C3292 1.395 . S
C3294 C3297 1.403 . S
C3295 C3292 1.403 . S
C3295 C3296 1.524 . S
C3295 C3299 1.400 . S
C3296 H3281 0.960 . S
C3296 H3282 0.960 . S
C3296 H3283 0.960 . S
C3296 C3295 1.524 . S
C3297 C3294 1.403 . S
C3297 C3298 1.392 . S
C3297 C3301 1.495 . S
C3298 C3297 1.392 . S
C3298 C3299 1.385 . S
C3298 C3300 1.478 . S
C3299 H3293 0.930 . S
C3299 C3295 1.400 . S
C3299 C3298 1.385 . S
C3300 C3298 1.478 . S
C3300 C3302 1.381 . S
C3300 C3306 1.383 . S
C3301 C3297 1.495 . S
C3301 H3307 0.959 . S
C3301 H3308 0.961 . S
C3301 H3309 0.960 . S
C3302 C3300 1.381 . S
C3302 C3303 1.394 . S
C3302 H3310 0.930 . S
C3303 C3302 1.394 . S
C3303 C3304 1.383 . S
C3303 H3311 0.929 . S
C3304 C3303 1.383 . S
C3304 C3305 1.377 . S
C3305 H3289 0.930 . S
C3305 C3304 1.377 . S
C3305 C3306 1.379 . S
C3306 H3290 0.931 . S
C3306 C3300 1.383 . S
C3306 C3305 1.379 . S
H3307 C3301 0.959 . S
H3308 C3301 0.961 . S
H3309 C3301 0.960 . S
H3310 C3302 0.930 . S
H3311 C3303 0.929 . S
H3312 C3320 0.929 . S
H3313 C3322 0.930 . S
H3314 C3324 0.930 . S
H3315 C3327 0.929 . S
H3316 C3330 0.930 . S
H3317 C3332 0.960 . S
H3318 C3332 0.960 . S
H3319 C3332 0.960 . S
C3320 H3312 0.929 . S
C3320 C3321 1.377 . S
C3320 C3322 1.384 . S
C3321 C3320 1.377 . S
C3321 C3327 1.390 . S
C3322 H3313 0.930 . S
C3322 C3320 1.384 . S
C3322 C3323 1.372 . S
C3323 C3322 1.372 . S
C3323 C3324 1.400 . S
C3323 C3328 1.490 . S
C3324 H3314 0.930 . S
C3324 C3323 1.400 . S
C3324 C3327 1.386 . S
H3325 C3341 0.930 . S
H3326 C3342 0.931 . S
C3327 H3315 0.929 . S
C3327 C3321 1.390 . S
C3327 C3324 1.386 . S
C3328 C3323 1.490 . S
C3328 C3330 1.395 . S
C3328 C3331 1.403 . S
H3329 C3335 0.930 . S
C3330 H3316 0.930 . S
C3330 C3328 1.395 . S
C3330 C3333 1.403 . S
C3331 C3328 1.403 . S
C3331 C3332 1.524 . S
C3331 C3335 1.400 . S
C3332 H3317 0.960 . S
C3332 H3318 0.960 . S
C3332 H3319 0.960 . S
C3332 C3331 1.524 . S
C3333 C3330 1.403 . S
C3333 C3334 1.392 . S
C3333 C3337 1.495 . S
C3334 C3333 1.392 . S
C3334 C3335 1.385 . S
C3334 C3336 1.478 . S
C3335 H3329 0.930 . S
C3335 C3331 1.400 . S
C3335 C3334 1.385 . S
C3336 C3334 1.478 . S
C3336 C3338 1.381 . S
C3336 C3342 1.383 . S
C3337 C3333 1.495 . S
C3337 H3343 0.959 . S
C3337 H3344 0.961 . S
C3337 H3345 0.960 . S
C3338 C3336 1.381 . S
C3338 C3339 1.394 . S
C3338 H3346 0.930 . S
C3339 C3338 1.394 . S
C3339 C3340 1.383 . S
C3339 H3347 0.929 . S
C3340 C3339 1.383 . S
C3340 C3341 1.377 . S
C3341 H3325 0.930 . S
C3341 C3340 1.377 . S
C3341 C3342 1.379 . S
C3342 H3326 0.931 . S
C3342 C3336 1.383 . S
C3342 C3341 1.379 . S
H3343 C3337 0.959 . S
H3344 C3337 0.961 . S
H3345 C3337 0.960 . S
H3346 C3338 0.930 . S
H3347 C3339 0.929 . S
H3348 C3356 0.929 . S
H3349 C3358 0.930 . S
H3350 C3360 0.930 . S
H3351 C3363 0.929 . S
H3352 C3366 0.930 . S
H3353 C3368 0.960 . S
H3354 C3368 0.960 . S
H3355 C3368 0.960 . S
C3356 H3348 0.929 . S
C3356 C3357 1.377 . S
C3356 C3358 1.384 . S
C3357 C3356 1.377 . S
C3357 C3363 1.390 . S
C3358 H3349 0.930 . S
C3358 C3356 1.384 . S
C3358 C3359 1.372 . S
C3359 C3358 1.372 . S
C3359 C3360 1.400 . S
C3359 C3364 1.490 . S
C3360 H3350 0.930 . S
C3360 C3359 1.400 . S
C3360 C3363 1.386 . S
H3361 C3377 0.930 . S
H3362 C3378 0.931 . S
C3363 H3351 0.929 . S
C3363 C3357 1.390 . S
C3363 C3360 1.386 . S
C3364 C3359 1.490 . S
C3364 C3366 1.395 . S
C3364 C3367 1.403 . S
H3365 C3371 0.930 . S
C3366 H3352 0.930 . S
C3366 C3364 1.395 . S
C3366 C3369 1.403 . S
C3367 C3364 1.403 . S
C3367 C3368 1.524 . S
C3367 C3371 1.400 . S
C3368 H3353 0.960 . S
C3368 H3354 0.960 . S
C3368 H3355 0.960 . S
C3368 C3367 1.524 . S
C3369 C3366 1.403 . S
C3369 C3370 1.392 . S
C3369 C3373 1.495 . S
C3370 C3369 1.392 . S
C3370 C3371 1.385 . S
C3370 C3372 1.478 . S
C3371 H3365 0.930 . S
C3371 C3367 1.400 . S
C3371 C3370 1.385 . S
C3372 C3370 1.478 . S
C3372 C3374 1.381 . S
C3372 C3378 1.383 . S
C3373 C3369 1.495 . S
C3373 H3379 0.959 . S
C3373 H3380 0.961 . S
C3373 H3381 0.960 . S
C3374 C3372 1.381 . S
C3374 C3375 1.394 . S
C3374 H3382 0.930 . S
C3375 C3374 1.394 . S
C3375 C3376 1.383 . S
C3375 H3383 0.929 . S
C3376 C3375 1.383 . S
C3376 C3377 1.377 . S
C3377 H3361 0.930 . S
C3377 C3376 1.377 . S
C3377 C3378 1.379 . S
C3378 H3362 0.931 . S
C3378 C3372 1.383 . S
C3378 C3377 1.379 . S
H3379 C3373 0.959 . S
H3380 C3373 0.961 . S
H3381 C3373 0.960 . S
H3382 C3374 0.930 . S
H3383 C3375 0.929 . S
H3384 C3392 0.929 . S
H3385 C3394 0.930 . S
H3386 C3396 0.930 . S
H3387 C3399 0.929 . S
H3388 C3402 0.930 . S
H3389 C3404 0.960 . S
H3390 C3404 0.960 . S
H3391 C3404 0.960 . S
C3392 H3384 0.929 . S
C3392 C3393 1.377 . S
C3392 C3394 1.384 . S
C3393 C3392 1.377 . S
C3393 C3399 1.390 . S
C3394 H3385 0.930 . S
C3394 C3392 1.384 . S
C3394 C3395 1.372 . S
C3395 C3394 1.372 . S
C3395 C3396 1.400 . S
C3395 C3400 1.490 . S
C3396 H3386 0.930 . S
C3396 C3395 1.400 . S
C3396 C3399 1.386 . S
H3397 C3413 0.930 . S
H3398 C3414 0.931 . S
C3399 H3387 0.929 . S
C3399 C3393 1.390 . S
C3399 C3396 1.386 . S
C3400 C3395 1.490 . S
C3400 C3402 1.395 . S
C3400 C3403 1.403 . S
H3401 C3407 0.930 . S
C3402 H3388 0.930 . S
C3402 C3400 1.395 . S
C3402 C3405 1.403 . S
C3403 C3400 1.403 . S
C3403 C3404 1.524 . S
C3403 C3407 1.400 . S
C3404 H3389 0.960 . S
C3404 H3390 0.960 . S
C3404 H3391 0.960 . S
C3404 C3403 1.524 . S
C3405 C3402 1.403 . S
C3405 C3406 1.392 . S
C3405 C3409 1.495 . S
C3406 C3405 1.392 . S
C3406 C3407 1.385 . S
C3406 C3408 1.478 . S
C3407 H3401 0.930 . S
C3407 C3403 1.400 . S
C3407 C3406 1.385 . S
C3408 C3406 1.478 . S
C3408 C3410 1.381 . S
C3408 C3414 1.383 . S
C3409 C3405 1.495 . S
C3409 H3415 0.959 . S
C3409 H3416 0.961 . S
C3409 H3417 0.960 . S
C3410 C3408 1.381 . S
C3410 C3411 1.394 . S
C3410 H3418 0.930 . S
C3411 C3410 1.394 . S
C3411 C3412 1.383 . S
C3411 H3419 0.929 . S
C3412 C3411 1.383 . S
C3412 C3413 1.377 . S
C3413 H3397 0.930 . S
C3413 C3412 1.377 . S
C3413 C3414 1.379 . S
C3414 H3398 0.931 . S
C3414 C3408 1.383 . S
C3414 C3413 1.379 . S
H3415 C3409 0.959 . S
H3416 C3409 0.961 . S
H3417 C3409 0.960 . S
H3418 C3410 0.930 . S
H3419 C3411 0.929 . S
H3420 C3428 0.929 . S
H3421 C3430 0.930 . S
H3422 C3432 0.930 . S
H3423 C3435 0.929 . S
H3424 C3438 0.930 . S
H3425 C3440 0.960 . S
H3426 C3440 0.960 . S
H3427 C3440 0.960 . S
C3428 H3420 0.929 . S
C3428 C3429 1.377 . S
C3428 C3430 1.384 . S
C3429 C3428 1.377 . S
C3429 C3435 1.390 . S
C3430 H3421 0.930 . S
C3430 C3428 1.384 . S
C3430 C3431 1.372 . S
C3431 C3430 1.372 . S
C3431 C3432 1.400 . S
C3431 C3436 1.490 . S
C3432 H3422 0.930 . S
C3432 C3431 1.400 . S
C3432 C3435 1.386 . S
H3433 C3449 0.930 . S
H3434 C3450 0.931 . S
C3435 H3423 0.929 . S
C3435 C3429 1.390 . S
C3435 C3432 1.386 . S
C3436 C3431 1.490 . S
C3436 C3438 1.395 . S
C3436 C3439 1.403 . S
H3437 C3443 0.930 . S
C3438 H3424 0.930 . S
C3438 C3436 1.395 . S
C3438 C3441 1.403 . S
C3439 C3436 1.403 . S
C3439 C3440 1.524 . S
C3439 C3443 1.400 . S
C3440 H3425 0.960 . S
C3440 H3426 0.960 . S
C3440 H3427 0.960 . S
C3440 C3439 1.524 . S
C3441 C3438 1.403 . S
C3441 C3442 1.392 . S
C3441 C3445 1.495 . S
C3442 C3441 1.392 . S
C3442 C3443 1.385 . S
C3442 C3444 1.478 . S
C3443 H3437 0.930 . S
C3443 C3439 1.400 . S
C3443 C3442 1.385 . S
C3444 C3442 1.478 . S
C3444 C3446 1.381 . S
C3444 C3450 1.383 . S
C3445 C3441 1.495 . S
C3445 H3451 0.959 . S
C3445 H3452 0.961 . S
C3445 H3453 0.960 . S
C3446 C3444 1.381 . S
C3446 C3447 1.394 . S
C3446 H3454 0.930 . S
C3447 C3446 1.394 . S
C3447 C3448 1.383 . S
C3447 H3455 0.929 . S
C3448 C3447 1.383 . S
C3448 C3449 1.377 . S
C3449 H3433 0.930 . S
C3449 C3448 1.377 . S
C3449 C3450 1.379 . S
C3450 H3434 0.931 . S
C3450 C3444 1.383 . S
C3450 C3449 1.379 . S
H3451 C3445 0.959 . S
H3452 C3445 0.961 . S
H3453 C3445 0.960 . S
H3454 C3446 0.930 . S
H3455 C3447 0.929 . S
H3456 C3464 0.929 . S
H3457 C3466 0.930 . S
H3458 C3468 0.930 . S
H3459 C3471 0.929 . S
H3460 C3474 0.930 . S
H3461 C3476 0.960 . S
H3462 C3476 0.960 . S
H3463 C3476 0.960 . S
C3464 H3456 0.929 . S
C3464 C3465 1.377 . S
C3464 C3466 1.384 . S
C3465 C3464 1.377 . S
C3465 C3471 1.390 . S
C3466 H3457 0.930 . S
C3466 C3464 1.384 . S
C3466 C3467 1.372 . S
C3467 C3466 1.372 . S
C3467 C3468 1.400 . S
C3467 C3472 1.490 . S
C3468 H3458 0.930 . S
C3468 C3467 1.400 . S
C3468 C3471 1.386 . S
H3469 C3485 0.930 . S
H3470 C3486 0.931 . S
C3471 H3459 0.929 . S
C3471 C3465 1.390 . S
C3471 C3468 1.386 . S
C3472 C3467 1.490 . S
C3472 C3474 1.395 . S
C3472 C3475 1.403 . S
H3473 C3479 0.930 . S
C3474 H3460 0.930 . S
C3474 C3472 1.395 . S
C3474 C3477 1.403 . S
C3475 C3472 1.403 . S
C3475 C3476 1.524 . S
C3475 C3479 1.400 . S
C3476 H3461 0.960 . S
C3476 H3462 0.960 . S
C3476 H3463 0.960 . S
C3476 C3475 1.524 . S
C3477 C3474 1.403 . S
C3477 C3478 1.392 . S
C3477 C3481 1.495 . S
C3478 C3477 1.392 . S
C3478 C3479 1.385 . S
C3478 C3480 1.478 . S
C3479 H3473 0.930 . S
C3479 C3475 1.400 . S
C3479 C3478 1.385 . S
C3480 C3478 1.478 . S
C3480 C3482 1.381 . S
C3480 C3486 1.383 . S
C3481 C3477 1.495 . S
C3481 H3487 0.959 . S
C3481 H3488 0.961 . S
C3481 H3489 0.960 . S
C3482 C3480 1.381 . S
C3482 C3483 1.394 . S
C3482 H3490 0.930 . S
C3483 C3482 1.394 . S
C3483 C3484 1.383 . S
C3483 H3491 0.929 . S
C3484 C3483 1.383 . S
C3484 C3485 1.377 . S
C3485 H3469 0.930 . S
C3485 C3484 1.377 . S
C3485 C3486 1.379 . S
C3486 H3470 0.931 . S
C3486 C3480 1.383 . S
C3486 C3485 1.379 . S
H3487 C3481 0.959 . S
H3488 C3481 0.961 . S
H3489 C3481 0.960 . S
H3490 C3482 0.930 . S
H3491 C3483 0.929 . S
H3492 C3500 0.929 . S
H3493 C3502 0.930 . S
H3494 C3504 0.930 . S
H3495 C3507 0.929 . S
H3496 C3510 0.930 . S
H3497 C3512 0.960 . S
H3498 C3512 0.960 . S
H3499 C3512 0.960 . S
C3500 H3492 0.929 . S
C3500 C3501 1.377 . S
C3500 C3502 1.384 . S
C3501 C3500 1.377 . S
C3501 C3507 1.390 . S
C3502 H3493 0.930 . S
C3502 C3500 1.384 . S
C3502 C3503 1.372 . S
C3503 C3502 1.372 . S
C3503 C3504 1.400 . S
C3503 C3508 1.490 . S
C3504 H3494 0.930 . S
C3504 C3503 1.400 . S
C3504 C3507 1.386 . S
H3505 C3521 0.930 . S
H3506 C3522 0.931 . S
C3507 H3495 0.929 . S
C3507 C3501 1.390 . S
C3507 C3504 1.386 . S
C3508 C3503 1.490 . S
C3508 C3510 1.395 . S
C3508 C3511 1.403 . S
H3509 C3515 0.930 . S
C3510 H3496 0.930 . S
C3510 C3508 1.395 . S
C3510 C3513 1.403 . S
C3511 C3508 1.403 . S
C3511 C3512 1.524 . S
C3511 C3515 1.400 . S
C3512 H3497 0.960 . S
C3512 H3498 0.960 . S
C3512 H3499 0.960 . S
C3512 C3511 1.524 . S
C3513 C3510 1.403 . S
C3513 C3514 1.392 . S
C3513 C3517 1.495 . S
C3514 C3513 1.392 . S
C3514 C3515 1.385 . S
C3514 C3516 1.478 . S
C3515 H3509 0.930 . S
C3515 C3511 1.400 . S
C3515 C3514 1.385 . S
C3516 C3514 1.478 . S
C3516 C3518 1.381 . S
C3516 C3522 1.383 . S
C3517 C3513 1.495 . S
C3517 H3523 0.959 . S
C3517 H3524 0.961 . S
C3517 H3525 0.960 . S
C3518 C3516 1.381 . S
C3518 C3519 1.394 . S
C3518 H3526 0.930 . S
C3519 C3518 1.394 . S
C3519 C3520 1.383 . S
C3519 H3527 0.929 . S
C3520 C3519 1.383 . S
C3520 C3521 1.377 . S
C3521 H3505 0.930 . S
C3521 C3520 1.377 . S
C3521 C3522 1.379 . S
C3522 H3506 0.931 . S
C3522 C3516 1.383 . S
C3522 C3521 1.379 . S
H3523 C3517 0.959 . S
H3524 C3517 0.961 . S
H3525 C3517 0.960 . S
H3526 C3518 0.930 . S
H3527 C3519 0.929 . S
H3528 C3536 0.929 . S
H3529 C3538 0.930 . S
H3530 C3540 0.930 . S
H3531 C3543 0.929 . S
H3532 C3546 0.930 . S
H3533 C3548 0.960 . S
H3534 C3548 0.960 . S
H3535 C3548 0.960 . S
C3536 H3528 0.929 . S
C3536 C3537 1.377 . S
C3536 C3538 1.384 . S
C3537 C3536 1.377 . S
C3537 C3543 1.390 . S
C3538 H3529 0.930 . S
C3538 C3536 1.384 . S
C3538 C3539 1.372 . S
C3539 C3538 1.372 . S
C3539 C3540 1.400 . S
C3539 C3544 1.490 . S
C3540 H3530 0.930 . S
C3540 C3539 1.400 . S
C3540 C3543 1.386 . S
H3541 C3557 0.930 . S
H3542 C3558 0.931 . S
C3543 H3531 0.929 . S
C3543 C3537 1.390 . S
C3543 C3540 1.386 . S
C3544 C3539 1.490 . S
C3544 C3546 1.395 . S
C3544 C3547 1.403 . S
H3545 C3551 0.930 . S
C3546 H3532 0.930 . S
C3546 C3544 1.395 . S
C3546 C3549 1.403 . S
C3547 C3544 1.403 . S
C3547 C3548 1.524 . S
C3547 C3551 1.400 . S
C3548 H3533 0.960 . S
C3548 H3534 0.960 . S
C3548 H3535 0.960 . S
C3548 C3547 1.524 . S
C3549 C3546 1.403 . S
C3549 C3550 1.392 . S
C3549 C3553 1.495 . S
C3550 C3549 1.392 . S
C3550 C3551 1.385 . S
C3550 C3552 1.478 . S
C3551 H3545 0.930 . S
C3551 C3547 1.400 . S
C3551 C3550 1.385 . S
C3552 C3550 1.478 . S
C3552 C3554 1.381 . S
C3552 C3558 1.383 . S
C3553 C3549 1.495 . S
C3553 H3559 0.959 . S
C3553 H3560 0.961 . S
C3553 H3561 0.960 . S
C3554 C3552 1.381 . S
C3554 C3555 1.394 . S
C3554 H3562 0.930 . S
C3555 C3554 1.394 . S
C3555 C3556 1.383 . S
C3555 H3563 0.929 . S
C3556 C3555 1.383 . S
C3556 C3557 1.377 . S
C3557 H3541 0.930 . S
C3557 C3556 1.377 . S
C3557 C3558 1.379 . S
C3558 H3542 0.931 . S
C3558 C3552 1.383 . S
C3558 C3557 1.379 . S
H3559 C3553 0.959 . S
H3560 C3553 0.961 . S
H3561 C3553 0.960 . S
H3562 C3554 0.930 . S
H3563 C3555 0.929 . S
H3564 C3572 0.929 . S
H3565 C3574 0.930 . S
H3566 C3576 0.930 . S
H3567 C3579 0.929 . S
H3568 C3582 0.930 . S
H3569 C3584 0.960 . S
H3570 C3584 0.960 . S
H3571 C3584 0.960 . S
C3572 H3564 0.929 . S
C3572 C3573 1.377 . S
C3572 C3574 1.384 . S
C3573 C3572 1.377 . S
C3573 C3579 1.390 . S
C3574 H3565 0.930 . S
C3574 C3572 1.384 . S
C3574 C3575 1.372 . S
C3575 C3574 1.372 . S
C3575 C3576 1.400 . S
C3575 C3580 1.490 . S
C3576 H3566 0.930 . S
C3576 C3575 1.400 . S
C3576 C3579 1.386 . S
H3577 C3593 0.930 . S
H3578 C3594 0.931 . S
C3579 H3567 0.929 . S
C3579 C3573 1.390 . S
C3579 C3576 1.386 . S
C3580 C3575 1.490 . S
C3580 C3582 1.395 . S
C3580 C3583 1.403 . S
H3581 C3587 0.930 . S
C3582 H3568 0.930 . S
C3582 C3580 1.395 . S
C3582 C3585 1.403 . S
C3583 C3580 1.403 . S
C3583 C3584 1.524 . S
C3583 C3587 1.400 . S
C3584 H3569 0.960 . S
C3584 H3570 0.960 . S
C3584 H3571 0.960 . S
C3584 C3583 1.524 . S
C3585 C3582 1.403 . S
C3585 C3586 1.392 . S
C3585 C3589 1.495 . S
C3586 C3585 1.392 . S
C3586 C3587 1.385 . S
C3586 C3588 1.478 . S
C3587 H3581 0.930 . S
C3587 C3583 1.400 . S
C3587 C3586 1.385 . S
C3588 C3586 1.478 . S
C3588 C3590 1.381 . S
C3588 C3594 1.383 . S
C3589 C3585 1.495 . S
C3589 H3595 0.959 . S
C3589 H3596 0.961 . S
C3589 H3597 0.960 . S
C3590 C3588 1.381 . S
C3590 C3591 1.394 . S
C3590 H3598 0.930 . S
C3591 C3590 1.394 . S
C3591 C3592 1.383 . S
C3591 H3599 0.929 . S
C3592 C3591 1.383 . S
C3592 C3593 1.377 . S
C3593 H3577 0.930 . S
C3593 C3592 1.377 . S
C3593 C3594 1.379 . S
C3594 H3578 0.931 . S
C3594 C3588 1.383 . S
C3594 C3593 1.379 . S
H3595 C3589 0.959 . S
H3596 C3589 0.961 . S
H3597 C3589 0.960 . S
H3598 C3590 0.930 . S
H3599 C3591 0.929 . S
H3600 C3608 0.929 . S
H3601 C3610 0.930 . S
H3602 C3612 0.930 . S
H3603 C3615 0.929 . S
H3604 C3618 0.930 . S
H3605 C3620 0.960 . S
H3606 C3620 0.960 . S
H3607 C3620 0.960 . S
C3608 H3600 0.929 . S
C3608 C3609 1.377 . S
C3608 C3610 1.384 . S
C3609 C3608 1.377 . S
C3609 C3615 1.390 . S
C3610 H3601 0.930 . S
C3610 C3608 1.384 . S
C3610 C3611 1.372 . S
C3611 C3610 1.372 . S
C3611 C3612 1.400 . S
C3611 C3616 1.490 . S
C3612 H3602 0.930 . S
C3612 C3611 1.400 . S
C3612 C3615 1.386 . S
H3613 C3629 0.930 . S
H3614 C3630 0.931 . S
C3615 H3603 0.929 . S
C3615 C3609 1.390 . S
C3615 C3612 1.386 . S
C3616 C3611 1.490 . S
C3616 C3618 1.395 . S
C3616 C3619 1.403 . S
H3617 C3623 0.930 . S
C3618 H3604 0.930 . S
C3618 C3616 1.395 . S
C3618 C3621 1.403 . S
C3619 C3616 1.403 . S
C3619 C3620 1.524 . S
C3619 C3623 1.400 . S
C3620 H3605 0.960 . S
C3620 H3606 0.960 . S
C3620 H3607 0.960 . S
C3620 C3619 1.524 . S
C3621 C3618 1.403 . S
C3621 C3622 1.392 . S
C3621 C3625 1.495 . S
C3622 C3621 1.392 . S
C3622 C3623 1.385 . S
C3622 C3624 1.478 . S
C3623 H3617 0.930 . S
C3623 C3619 1.400 . S
C3623 C3622 1.385 . S
C3624 C3622 1.478 . S
C3624 C3626 1.381 . S
C3624 C3630 1.383 . S
C3625 C3621 1.495 . S
C3625 H3631 0.959 . S
C3625 H3632 0.961 . S
C3625 H3633 0.960 . S
C3626 C3624 1.381 . S
C3626 C3627 1.394 . S
C3626 H3634 0.930 . S
C3627 C3626 1.394 . S
C3627 C3628 1.383 . S
C3627 H3635 0.929 . S
C3628 C3627 1.383 . S
C3628 C3629 1.377 . S
C3629 H3613 0.930 . S
C3629 C3628 1.377 . S
C3629 C3630 1.379 . S
C3630 H3614 0.931 . S
C3630 C3624 1.383 . S
C3630 C3629 1.379 . S
H3631 C3625 0.959 . S
H3632 C3625 0.961 . S
H3633 C3625 0.960 . S
H3634 C3626 0.930 . S
H3635 C3627 0.929 . S
H3636 C3644 0.929 . S
H3637 C3646 0.930 . S
H3638 C3648 0.930 . S
H3639 C3651 0.929 . S
H3640 C3654 0.930 . S
H3641 C3656 0.960 . S
H3642 C3656 0.960 . S
H3643 C3656 0.960 . S
C3644 H3636 0.929 . S
C3644 C3645 1.377 . S
C3644 C3646 1.384 . S
C3645 C3644 1.377 . S
C3645 C3651 1.390 . S
C3646 H3637 0.930 . S
C3646 C3644 1.384 . S
C3646 C3647 1.372 . S
C3647 C3646 1.372 . S
C3647 C3648 1.400 . S
C3647 C3652 1.490 . S
C3648 H3638 0.930 . S
C3648 C3647 1.400 . S
C3648 C3651 1.386 . S
H3649 C3665 0.930 . S
H3650 C3666 0.931 . S
C3651 H3639 0.929 . S
C3651 C3645 1.390 . S
C3651 C3648 1.386 . S
C3652 C3647 1.490 . S
C3652 C3654 1.395 . S
C3652 C3655 1.403 . S
H3653 C3659 0.930 . S
C3654 H3640 0.930 . S
C3654 C3652 1.395 . S
C3654 C3657 1.403 . S
C3655 C3652 1.403 . S
C3655 C3656 1.524 . S
C3655 C3659 1.400 . S
C3656 H3641 0.960 . S
C3656 H3642 0.960 . S
C3656 H3643 0.960 . S
C3656 C3655 1.524 . S
C3657 C3654 1.403 . S
C3657 C3658 1.392 . S
C3657 C3661 1.495 . S
C3658 C3657 1.392 . S
C3658 C3659 1.385 . S
C3658 C3660 1.478 . S
C3659 H3653 0.930 . S
C3659 C3655 1.400 . S
C3659 C3658 1.385 . S
C3660 C3658 1.478 . S
C3660 C3662 1.381 . S
C3660 C3666 1.383 . S
C3661 C3657 1.495 . S
C3661 H3667 0.959 . S
C3661 H3668 0.961 . S
C3661 H3669 0.960 . S
C3662 C3660 1.381 . S
C3662 C3663 1.394 . S
C3662 H3670 0.930 . S
C3663 C3662 1.394 . S
C3663 C3664 1.383 . S
C3663 H3671 0.929 . S
C3664 C3663 1.383 . S
C3664 C3665 1.377 . S
C3665 H3649 0.930 . S
C3665 C3664 1.377 . S
C3665 C3666 1.379 . S
C3666 H3650 0.931 . S
C3666 C3660 1.383 . S
C3666 C3665 1.379 . S
H3667 C3661 0.959 . S
H3668 C3661 0.961 . S
H3669 C3661 0.960 . S
H3670 C3662 0.930 . S
H3671 C3663 0.929 . S
H3672 C3680 0.929 . S
H3673 C3682 0.930 . S
H3674 C3684 0.930 . S
H3675 C3687 0.929 . S
H3676 C3690 0.930 . S
H3677 C3692 0.960 . S
H3678 C3692 0.960 . S
H3679 C3692 0.960 . S
C3680 H3672 0.929 . S
C3680 C3681 1.377 . S
C3680 C3682 1.384 . S
C3681 C3680 1.377 . S
C3681 C3687 1.390 . S
C3682 H3673 0.930 . S
C3682 C3680 1.384 . S
C3682 C3683 1.372 . S
C3683 C3682 1.372 . S
C3683 C3684 1.400 . S
C3683 C3688 1.490 . S
C3684 H3674 0.930 . S
C3684 C3683 1.400 . S
C3684 C3687 1.386 . S
H3685 C3701 0.930 . S
H3686 C3702 0.931 . S
C3687 H3675 0.929 . S
C3687 C3681 1.390 . S
C3687 C3684 1.386 . S
C3688 C3683 1.490 . S
C3688 C3690 1.395 . S
C3688 C3691 1.403 . S
H3689 C3695 0.930 . S
C3690 H3676 0.930 . S
C3690 C3688 1.395 . S
C3690 C3693 1.403 . S
C3691 C3688 1.403 . S
C3691 C3692 1.524 . S
C3691 C3695 1.400 . S
C3692 H3677 0.960 . S
C3692 H3678 0.960 . S
C3692 H3679 0.960 . S
C3692 C3691 1.524 . S
C3693 C3690 1.403 . S
C3693 C3694 1.392 . S
C3693 C3697 1.495 . S
C3694 C3693 1.392 . S
C3694 C3695 1.385 . S
C3694 C3696 1.478 . S
C3695 H3689 0.930 . S
C3695 C3691 1.400 . S
C3695 C3694 1.385 . S
C3696 C3694 1.478 . S
C3696 C3698 1.381 . S
C3696 C3702 1.383 . S
C3697 C3693 1.495 . S
C3697 H3703 0.959 . S
C3697 H3704 0.961 . S
C3697 H3705 0.960 . S
C3698 C3696 1.381 . S
C3698 C3699 1.394 . S
C3698 H3706 0.930 . S
C3699 C3698 1.394 . S
C3699 C3700 1.383 . S
C3699 H3707 0.929 . S
C3700 C3699 1.383 . S
C3700 C3701 1.377 . S
C3701 H3685 0.930 . S
C3701 C3700 1.377 . S
C3701 C3702 1.379 . S
C3702 H3686 0.931 . S
C3702 C3696 1.383 . S
C3702 C3701 1.379 . S
H3703 C3697 0.959 . S
H3704 C3697 0.961 . S
H3705 C3697 0.960 . S
H3706 C3698 0.930 . S
H3707 C3699 0.929 . S
H3708 C3716 0.929 . S
H3709 C3718 0.930 . S
H3710 C3720 0.930 . S
H3711 C3723 0.929 . S
H3712 C3726 0.930 . S
H3713 C3728 0.960 . S
H3714 C3728 0.960 . S
H3715 C3728 0.960 . S
C3716 H3708 0.929 . S
C3716 C3717 1.377 . S
C3716 C3718 1.384 . S
C3717 C3716 1.377 . S
C3717 C3723 1.390 . S
C3718 H3709 0.930 . S
C3718 C3716 1.384 . S
C3718 C3719 1.372 . S
C3719 C3718 1.372 . S
C3719 C3720 1.400 . S
C3719 C3724 1.490 . S
C3720 H3710 0.930 . S
C3720 C3719 1.400 . S
C3720 C3723 1.386 . S
H3721 C3737 0.930 . S
H3722 C3738 0.931 . S
C3723 H3711 0.929 . S
C3723 C3717 1.390 . S
C3723 C3720 1.386 . S
C3724 C3719 1.490 . S
C3724 C3726 1.395 . S
C3724 C3727 1.403 . S
H3725 C3731 0.930 . S
C3726 H3712 0.930 . S
C3726 C3724 1.395 . S
C3726 C3729 1.403 . S
C3727 C3724 1.403 . S
C3727 C3728 1.524 . S
C3727 C3731 1.400 . S
C3728 H3713 0.960 . S
C3728 H3714 0.960 . S
C3728 H3715 0.960 . S
C3728 C3727 1.524 . S
C3729 C3726 1.403 . S
C3729 C3730 1.392 . S
C3729 C3733 1.495 . S
C3730 C3729 1.392 . S
C3730 C3731 1.385 . S
C3730 C3732 1.478 . S
C3731 H3725 0.930 . S
C3731 C3727 1.400 . S
C3731 C3730 1.385 . S
C3732 C3730 1.478 . S
C3732 C3734 1.381 . S
C3732 C3738 1.383 . S
C3733 C3729 1.495 . S
C3733 H3739 0.959 . S
C3733 H3740 0.961 . S
C3733 H3741 0.960 . S
C3734 C3732 1.381 . S
C3734 C3735 1.394 . S
C3734 H3742 0.930 . S
C3735 C3734 1.394 . S
C3735 C3736 1.383 . S
C3735 H3743 0.929 . S
C3736 C3735 1.383 . S
C3736 C3737 1.377 . S
C3737 H3721 0.930 . S
C3737 C3736 1.377 . S
C3737 C3738 1.379 . S
C3738 H3722 0.931 . S
C3738 C3732 1.383 . S
C3738 C3737 1.379 . S
H3739 C3733 0.959 . S
H3740 C3733 0.961 . S
H3741 C3733 0.960 . S
H3742 C3734 0.930 . S
H3743 C3735 0.929 . S
H3744 C3752 0.929 . S
H3745 C3754 0.930 . S
H3746 C3756 0.930 . S
H3747 C3759 0.929 . S
H3748 C3762 0.930 . S
H3749 C3764 0.960 . S
H3750 C3764 0.960 . S
H3751 C3764 0.960 . S
C3752 H3744 0.929 . S
C3752 C3753 1.377 . S
C3752 C3754 1.384 . S
C3753 C3752 1.377 . S
C3753 C3759 1.390 . S
C3754 H3745 0.930 . S
C3754 C3752 1.384 . S
C3754 C3755 1.372 . S
C3755 C3754 1.372 . S
C3755 C3756 1.400 . S
C3755 C3760 1.490 . S
C3756 H3746 0.930 . S
C3756 C3755 1.400 . S
C3756 C3759 1.386 . S
H3757 C3773 0.930 . S
H3758 C3774 0.931 . S
C3759 H3747 0.929 . S
C3759 C3753 1.390 . S
C3759 C3756 1.386 . S
C3760 C3755 1.490 . S
C3760 C3762 1.395 . S
C3760 C3763 1.403 . S
H3761 C3767 0.930 . S
C3762 H3748 0.930 . S
C3762 C3760 1.395 . S
C3762 C3765 1.403 . S
C3763 C3760 1.403 . S
C3763 C3764 1.524 . S
C3763 C3767 1.400 . S
C3764 H3749 0.960 . S
C3764 H3750 0.960 . S
C3764 H3751 0.960 . S
C3764 C3763 1.524 . S
C3765 C3762 1.403 . S
C3765 C3766 1.392 . S
C3765 C3769 1.495 . S
C3766 C3765 1.392 . S
C3766 C3767 1.385 . S
C3766 C3768 1.478 . S
C3767 H3761 0.930 . S
C3767 C3763 1.400 . S
C3767 C3766 1.385 . S
C3768 C3766 1.478 . S
C3768 C3770 1.381 . S
C3768 C3774 1.383 . S
C3769 C3765 1.495 . S
C3769 H3775 0.959 . S
C3769 H3776 0.961 . S
C3769 H3777 0.960 . S
C3770 C3768 1.381 . S
C3770 C3771 1.394 . S
C3770 H3778 0.930 . S
C3771 C3770 1.394 . S
C3771 C3772 1.383 . S
C3771 H3779 0.929 . S
C3772 C3771 1.383 . S
C3772 C3773 1.377 . S
C3773 H3757 0.930 . S
C3773 C3772 1.377 . S
C3773 C3774 1.379 . S
C3774 H3758 0.931 . S
C3774 C3768 1.383 . S
C3774 C3773 1.379 . S
H3775 C3769 0.959 . S
H3776 C3769 0.961 . S
H3777 C3769 0.960 . S
H3778 C3770 0.930 . S
H3779 C3771 0.929 . S
C1845 C781 1.391 . S
C1864 C1147 1.357 . S
C1881 C871 1.418 . S
C1900 C1231 1.400 . S
C1917 C751 1.421 . S
C1936 C1311 1.428 . S
C1953 C691 1.371 . S
C1972 C1227 1.345 . S
C2008 C1315 1.330 . S
C1989 C571 1.342 . S
C2025 C601 1.356 . S
C2044 C1143 1.360 . S
C2080 C1136 1.307 . S
C2061 C661 1.371 . S
C2116 C1220 1.337 . S
C2097 C541 1.404 . S
C2133 C631 1.446 . S
C2152 C1322 1.392 . S
C2169 C811 1.391 . S
C2188 C1238 1.388 . S
C2205 C841 1.342 . S
C2224 C1304 1.317 . S
C2260 C1154 1.363 . S
C2241 C721 1.342 . S
C2296 C1399 1.302 . S
C2277 C61 1.398 . S
C2313 C151 1.415 . S
C2332 C1483 1.339 . S
C2349 C31 1.419 . S
C2368 C1563 1.395 . S
C2385 C1051 1.371 . S
C2404 C1479 1.338 . S
C2421 C931 1.340 . S
C2440 C1567 1.267 . S
C2457 C961 1.356 . S
C2476 C1395 1.361 . S
C2493 C1021 1.377 . S
C2512 C1388 1.312 . S
C2529 C901 1.402 . S
C2548 C1472 1.361 . S
C2584 C1574 1.385 . S
C2565 C991 1.445 . S
C2601 C91 1.397 . S
C2620 C1490 1.338 . S
C2656 C1556 1.264 . S
C2637 C121 1.333 . S
C2673 C1 1.330 . S
C2692 C1406 1.313 . S
C2728 C1651 1.303 . S
C2709 C421 1.398 . S
C2745 C511 1.412 . S
C2764 C1735 1.362 . S
C2800 C1815 1.431 . S
C2781 C391 1.423 . S
C2836 C1731 1.351 . S
C2817 C331 1.375 . S
C2872 C1819 1.260 . S
C2853 C211 1.344 . S
C2889 C241 1.356 . S
C2908 C1647 1.362 . S
C2925 C301 1.377 . S
C2944 C1640 1.316 . S
C2961 C181 1.412 . S
C2980 C1724 1.385 . S
C3016 C1826 1.432 . S
C2997 C271 1.441 . S
C3033 C451 1.397 . S
C3052 C1742 1.345 . S
C3069 C481 1.332 . S
C3088 C1808 1.268 . S
C3105 C361 1.330 . S
C3124 C1658 1.312 . S
C3141 C920 1.400 . S
C3160 C1150 1.334 . S
C3196 C1234 1.389 . S
C3177 C980 1.476 . S
C3213 C1040 1.431 . S
C3232 C1306 1.364 . S
C3249 C380 1.464 . S
C3268 C1222 1.343 . S
C3285 C440 1.436 . S
C3304 C1318 1.308 . S
C3340 C1138 1.343 . S
C3321 C500 1.400 . S
C3357 C200 1.400 . S
C3376 C1402 1.325 . S
C3393 C260 1.482 . S
C3412 C1486 1.311 . S
C3429 C320 1.427 . S
C3448 C1558 1.335 . S
C3465 C740 1.471 . S
C3484 C1474 1.395 . S
C3520 C1570 1.290 . S
C3501 C800 1.437 . S
C3537 C860 1.393 . S
C3556 C1390 1.259 . S
C3573 C560 1.400 . S
C3592 C1654 1.334 . S
C3609 C620 1.482 . S
C3628 C1738 1.324 . S
C3664 C1810 1.336 . S
C3645 C680 1.431 . S
C3681 C20 1.463 . S
C3700 C1726 1.323 . S
C3717 C80 1.430 . S
C3736 C1822 1.365 . S
C3753 C140 1.401 . S
C3772 C1642 1.343 . S
