# Generated by pormake.
# Topology pyr, (3,6)-cn, num edge types: 1
# Building blocks:
#     Node 0, Type 0, BuildingBlock: PAMTOO_clean_linker_0, # of connection points: 3
#     Node 1, Type 0, BuildingBlock: PAMTOO_clean_linker_0, # of connection points: 3
#     Node 2, Type 0, BuildingBlock: PAMTOO_clean_linker_0, # of connection points: 3
#     Node 3, Type 0, BuildingBlock: PAMTOO_clean_linker_0, # of connection points: 3
#     Node 4, Type 0, BuildingBlock: PAMTOO_clean_linker_0, # of connection points: 3
#     Node 5, Type 0, BuildingBlock: PAMTOO_clean_linker_0, # of connection points: 3
#     Node 6, Type 0, BuildingBlock: PAMTOO_clean_linker_0, # of connection points: 3
#     Node 7, Type 0, BuildingBlock: PAMTOO_clean_linker_0, # of connection points: 3
#     Node 8, Type 1, BuildingBlock: PAMTUU_clean_sbu_0, # of connection points: 6
#     Node 9, Type 1, BuildingBlock: PAMTUU_clean_sbu_0, # of connection points: 6
#     Node 10, Type 1, BuildingBlock: PAMTUU_clean_sbu_0, # of connection points: 6
#     Node 11, Type 1, BuildingBlock: PAMTUU_clean_sbu_0, # of connection points: 6
#     Edge 12, Type (0, 1), BuildingBlock: ZUJKAS_clean_linker_0, # of connection points: 2
#     Edge 13, Type (0, 1), BuildingBlock: ZUJKAS_clean_linker_0, # of connection points: 2
#     Edge 14, Type (0, 1), BuildingBlock: ZUJKAS_clean_linker_0, # of connection points: 2
#     Edge 15, Type (0, 1), BuildingBlock: ZUJKAS_clean_linker_0, # of connection points: 2
#     Edge 16, Type (0, 1), BuildingBlock: ZUJKAS_clean_linker_0, # of connection points: 2
#     Edge 17, Type (0, 1), BuildingBlock: ZUJKAS_clean_linker_0, # of connection points: 2
#     Edge 18, Type (0, 1), BuildingBlock: ZUJKAS_clean_linker_0, # of connection points: 2
#     Edge 19, Type (0, 1), BuildingBlock: ZUJKAS_clean_linker_0, # of connection points: 2
#     Edge 20, Type (0, 1), BuildingBlock: ZUJKAS_clean_linker_0, # of connection points: 2
#     Edge 21, Type (0, 1), BuildingBlock: ZUJKAS_clean_linker_0, # of connection points: 2
#     Edge 22, Type (0, 1), BuildingBlock: ZUJKAS_clean_linker_0, # of connection points: 2
#     Edge 23, Type (0, 1), BuildingBlock: ZUJKAS_clean_linker_0, # of connection points: 2
#     Edge 24, Type (0, 1), BuildingBlock: ZUJKAS_clean_linker_0, # of connection points: 2
#     Edge 25, Type (0, 1), BuildingBlock: ZUJKAS_clean_linker_0, # of connection points: 2
#     Edge 26, Type (0, 1), BuildingBlock: ZUJKAS_clean_linker_0, # of connection points: 2
#     Edge 27, Type (0, 1), BuildingBlock: ZUJKAS_clean_linker_0, # of connection points: 2
#     Edge 28, Type (0, 1), BuildingBlock: ZUJKAS_clean_linker_0, # of connection points: 2
#     Edge 29, Type (0, 1), BuildingBlock: ZUJKAS_clean_linker_0, # of connection points: 2
#     Edge 30, Type (0, 1), BuildingBlock: ZUJKAS_clean_linker_0, # of connection points: 2
#     Edge 31, Type (0, 1), BuildingBlock: ZUJKAS_clean_linker_0, # of connection points: 2
#     Edge 32, Type (0, 1), BuildingBlock: ZUJKAS_clean_linker_0, # of connection points: 2
#     Edge 33, Type (0, 1), BuildingBlock: ZUJKAS_clean_linker_0, # of connection points: 2
#     Edge 34, Type (0, 1), BuildingBlock: ZUJKAS_clean_linker_0, # of connection points: 2
#     Edge 35, Type (0, 1), BuildingBlock: ZUJKAS_clean_linker_0, # of connection points: 2
# Relax obj value: 0.127
# Max RMSD: 0.225
# Mean RMSD: 0.142
data_MOF--net-pyr--node1-PAMTUU_clean_sbu_0--node2-PAMTOO_clean_linker_0--edge1-ZUJKAS_clean_linker_0
_symmetry_space_group_name_H-M    P1
_symmetry_Int_Tables_number       1
_symmetry_cell_setting            triclinic
loop_
_symmetry_equiv_pos_as_xyz
'x, y, z'
_cell_length_a     48.539446
_cell_length_b     51.244762
_cell_length_c     48.697329
_cell_angle_alpha  90.157401
_cell_angle_beta   89.72429
_cell_angle_gamma 104.39306
loop_
_atom_site_label
_atom_site_type_symbol
_atom_site_fract_x
_atom_site_fract_y
_atom_site_fract_z
_atom_type_partial_charge
H0 H 0.29227 0.2806 0.23892 0.0
H1 H 0.3424 0.22248 0.23144 0.0
H2 H 0.33775 0.27445 0.16391 0.0
H3 H 0.33322 0.22014 0.14663 0.0
C4 C 0.34289 0.2125 0.16462 0.0
O5 O 0.35692 0.23403 0.18049 0.0
H6 H 0.3254 0.19907 0.1766 0.0
C7 C 0.30688 0.27196 0.22723 0.0
C8 C 0.31396 0.28053 0.20012 0.0
C9 C 0.31712 0.25116 0.2389 0.0
C10 C 0.33516 0.23928 0.22331 0.0
C11 C 0.3423 0.24763 0.19632 0.0
C12 C 0.33222 0.26849 0.18496 0.0
H13 H 0.21315 0.83361 0.74014 0.0
H14 H 0.20245 0.78529 0.66662 0.0
H15 H 0.26842 0.7814 0.72344 0.0
H16 H 0.27074 0.79524 0.65457 0.0
C17 C 0.26235 0.7729 0.65404 0.0
O18 O 0.245 0.76403 0.67648 0.0
H19 H 0.24954 0.76789 0.63504 0.0
C20 C 0.21923 0.81865 0.7273 0.0
C21 C 0.24211 0.80811 0.73523 0.0
C22 C 0.20486 0.81082 0.7025 0.0
C23 C 0.21316 0.79162 0.68588 0.0
C24 C 0.23605 0.78114 0.69348 0.0
C25 C 0.25038 0.78925 0.71812 0.0
H26 H 0.7278 0.33948 0.90822 0.0
H27 H 0.6646 0.32918 0.84461 0.0
H28 H 0.7336 0.40033 0.84606 0.0
H29 H 0.67305 0.40591 0.83677 0.0
C30 C 0.66721 0.39011 0.8206 0.0
O31 O 0.68754 0.37527 0.81978 0.0
H32 H 0.64631 0.37659 0.82633 0.0
C33 C 0.71944 0.34686 0.89004 0.0
C34 C 0.73406 0.37181 0.87877 0.0
C35 C 0.69436 0.33113 0.87809 0.0
C36 C 0.68381 0.34087 0.85423 0.0
C37 C 0.6977 0.36605 0.84294 0.0
C38 C 0.72272 0.38133 0.85527 0.0
H39 H 0.87574 0.72072 0.41396 0.0
H40 H 0.87463 0.65625 0.35671 0.0
H41 H 0.94384 0.72725 0.35528 0.0
H42 H 0.92206 0.70479 0.29917 0.0
C43 C 0.91584 0.683 0.30448 0.0
O44 O 0.9223 0.67999 0.33186 0.0
H45 H 0.89246 0.67587 0.30149 0.0
C46 C 0.88572 0.71211 0.3975 0.0
C47 C 0.91184 0.72712 0.38663 0.0
C48 C 0.87197 0.68644 0.38724 0.0
C49 C 0.88446 0.67607 0.36479 0.0
C50 C 0.9101 0.69087 0.35293 0.0
C51 C 0.92371 0.71632 0.36397 0.0
H52 H 0.74542 0.83117 0.86727 0.0
H53 H 0.70771 0.77346 0.9294 0.0
H54 H 0.77763 0.76133 0.88126 0.0
H55 H 0.72392 0.71588 0.89062 0.0
C56 C 0.73097 0.71648 0.91242 0.0
O57 O 0.74226 0.74252 0.92129 0.0
H58 H 0.71198 0.70722 0.9251 0.0
C59 C 0.74424 0.8124 0.87795 0.0
C60 C 0.76353 0.79697 0.87114 0.0
C61 C 0.72417 0.80433 0.8991 0.0
C62 C 0.72291 0.78002 0.91291 0.0
C63 C 0.74202 0.76455 0.90628 0.0
C64 C 0.76238 0.77307 0.88559 0.0
H65 H 0.86518 0.21341 0.35831 0.0
H66 H 0.82847 0.28157 0.36499 0.0
H67 H 0.89216 0.27244 0.42218 0.0
H68 H 0.85612 0.30692 0.4501 0.0
C69 C 0.84141 0.29929 0.43283 0.0
O70 O 0.85716 0.3014 0.40885 0.0
H71 H 0.83075 0.2779 0.43773 0.0
C72 C 0.86411 0.23205 0.3683 0.0
C73 C 0.88106 0.241 0.39144 0.0
C74 C 0.8452 0.24662 0.35837 0.0
C75 C 0.84339 0.2704 0.37187 0.0
C76 C 0.86022 0.27947 0.39489 0.0
C77 C 0.87932 0.26511 0.4043 0.0
H78 H 0.36918 0.71488 0.16421 0.0
H79 H 0.36313 0.65207 0.22419 0.0
H80 H 0.43199 0.72319 0.22811 0.0
H81 H 0.44898 0.67345 0.24253 0.0
C82 C 0.42848 0.66114 0.25086 0.0
O83 O 0.40878 0.67663 0.25158 0.0
H84 H 0.42095 0.64382 0.23663 0.0
C85 C 0.37726 0.70719 0.18238 0.0
C86 C 0.40234 0.7225 0.19476 0.0
C87 C 0.3628 0.68174 0.19263 0.0
C88 C 0.37407 0.6714 0.21567 0.0
C89 C 0.39905 0.68625 0.22843 0.0
C90 C 0.41307 0.7117 0.21788 0.0
H91 H 0.13284 0.32755 0.76281 0.0
H92 H 0.20019 0.40071 0.75911 0.0
H93 H 0.19795 0.3385 0.70001 0.0
H94 H 0.25369 0.36434 0.72555 0.0
C95 C 0.25243 0.38565 0.72346 0.0
O96 O 0.22521 0.38642 0.71584 0.0
H97 H 0.25731 0.3954 0.7439 0.0
C98 C 0.15214 0.33949 0.75343 0.0
C99 C 0.16344 0.32956 0.72974 0.0
C100 C 0.16497 0.36545 0.7642 0.0
C101 C 0.18975 0.38094 0.75125 0.0
C102 C 0.20158 0.3711 0.72832 0.0
C103 C 0.18841 0.34568 0.71773 0.0
Tb104 Tb 0.06967 0.035 0.53885 0.0
Tb105 Tb 0.01169 0.02082 0.57621 0.0
C106 C 0.02035 0.98232 0.52828 0.0
C107 C 0.13546 0.06891 0.49876 0.0
C108 C 0.17619 0.10871 0.47047 0.0
C109 C 0.1471 0.10821 0.46911 0.0
C110 C 0.12691 0.08854 0.48318 0.0
C111 C 0.16451 0.07023 0.50133 0.0
C112 C 0.18471 0.09 0.48743 0.0
C113 C 0.11462 0.0456 0.51037 0.0
O114 O 0.04662 0.06424 0.52685 0.0
O115 O 1.00179 0.04022 0.53908 0.0
O116 O 0.03229 0.06286 0.58533 0.0
O117 O 0.07817 0.06312 0.57375 0.0
O118 O 0.96778 1.00361 0.57969 0.0
O119 O 0.99189 0.02414 0.61395 0.0
O120 O 0.04293 1.00561 0.59896 0.0
O121 O 0.07116 0.99993 0.5628 0.0
O122 O 0.03917 1.00269 0.51725 0.0
O123 O 0.011 0.98382 0.55349 0.0
C124 C 0.01887 0.05981 0.52533 0.0
O125 O 0.11433 0.04288 0.53699 0.0
O126 O 0.08905 0.04001 0.50011 0.0
C127 C 0.05976 0.07392 0.58666 0.0
C128 C 0.95426 0.98705 0.62406 0.0
C129 C 0.93087 0.94626 0.6621 0.0
C130 C 0.92045 0.96947 0.66029 0.0
C131 C 0.93207 0.98969 0.64141 0.0
C132 C 0.96452 0.96378 0.6254 0.0
C133 C 0.95279 0.94343 0.64423 0.0
C134 C 0.96747 1.00933 0.60577 0.0
C135 C 0.06214 0.99463 0.58806 0.0
H136 H 0.13973 0.12214 0.45606 0.0
H137 H 0.10459 0.08806 0.48097 0.0
H138 H 0.17155 0.05535 0.51336 0.0
H139 H 0.20697 0.09012 0.48934 0.0
H140 H 0.9033 0.97202 0.67352 0.0
H141 H 0.92399 1.00758 0.64063 0.0
H142 H 0.98187 0.96158 0.61223 0.0
H143 H 0.96135 0.92585 0.64532 0.0
Tb144 Tb 0.57952 0.03297 0.06003 0.0
Tb145 Tb 0.53201 1.01661 1.01114 0.0
C146 C 0.58816 0.99918 1.00989 0.0
C147 C 0.63391 0.07009 0.11072 0.0
C148 C 0.66757 0.11267 0.14181 0.0
C149 C 0.68016 0.09482 0.12737 0.0
C150 C 0.66347 0.07369 0.11207 0.0
C151 C 0.62136 0.08858 0.12417 0.0
C152 C 0.63806 0.10963 0.13965 0.0
C153 C 0.61665 0.04583 0.09702 0.0
O154 O 0.59362 0.06358 0.02804 0.0
O155 O 0.55213 0.05897 1.00368 0.0
O156 O 0.51106 0.02858 0.04688 0.0
O157 O 0.54995 0.05797 0.06525 0.0
O158 O 0.51983 0.99498 0.97487 0.0
O159 O 0.49472 0.02069 0.99146 0.0
O160 O 0.52549 0.98001 0.03578 0.0
O161 O 0.54828 0.99754 0.07563 0.0
O162 O 0.58846 1.00005 0.03671 0.0
O163 O 0.57288 1.01237 0.99612 0.0
C164 C 0.57811 0.07255 1.00986 0.0
O165 O 0.5893 0.0396 0.1017 0.0
O166 O 0.62264 0.04226 0.07135 0.0
C167 C 0.52232 0.04944 0.06245 0.0
C168 C 0.47018 0.98188 0.96639 0.0
C169 C 0.42152 0.94473 0.94581 0.0
C170 C 0.41985 0.97033 0.95505 0.0
C171 C 0.44396 0.98876 0.96509 0.0
C172 C 0.47153 0.95581 0.95849 0.0
C173 C 0.44748 0.93746 0.94833 0.0
C174 C 0.49636 1.00279 0.97285 0.0
C175 C 0.53129 0.97773 0.06194 0.0
H176 H 0.70278 0.09641 0.1289 0.0
H177 H 0.67357 0.05961 0.10198 0.0
H178 H 0.5986 0.08638 0.12336 0.0
H179 H 0.62782 0.12325 0.15036 0.0
H180 H 0.40008 0.97644 0.95377 0.0
H181 H 0.44232 1.00874 0.9709 0.0
H182 H 0.49143 0.94986 0.95902 0.0
H183 H 0.4497 0.91808 0.94108 0.0
Tb184 Tb 0.54906 0.50664 0.52121 0.0
Tb185 Tb 0.5539 0.56139 0.55727 0.0
C186 C 0.52456 0.55346 0.49876 0.0
C187 C 0.57096 0.45313 0.48306 0.0
C188 C 0.61494 0.42956 0.4663 0.0
C189 C 0.58637 0.41462 0.46571 0.0
C190 C 0.56456 0.42635 0.47403 0.0
C191 C 0.59936 0.4682 0.4835 0.0
C192 C 0.62114 0.45657 0.47509 0.0
C193 C 0.54821 0.4651 0.49286 0.0
O194 O 0.58581 0.53653 0.50525 0.0
O195 O 0.59721 0.56412 0.54277 0.0
O196 O 0.56545 0.53245 0.5851 0.0
O197 O 0.57924 0.50462 0.55388 0.0
O198 O 0.56464 0.60366 0.56013 0.0
O199 O 0.54787 0.57904 0.59506 0.0
O200 O 0.50919 0.53951 0.55947 0.0
O201 O 0.514 0.4969 0.55067 0.0
O202 O 0.51985 0.52721 0.50177 0.0
O203 O 0.54123 0.57006 0.51586 0.0
C204 C 0.60391 0.55551 0.51876 0.0
O205 O 0.5445 0.46479 0.51936 0.0
O206 O 0.54817 0.48847 0.48245 0.0
C207 C 0.57816 0.51324 0.57925 0.0
C208 C 0.53355 0.61905 0.5899 0.0
C209 C 0.49087 0.64599 0.6019 0.0
C210 C 0.51415 0.64823 0.61962 0.0
C211 C 0.53533 0.63487 0.61363 0.0
C212 C 0.51053 0.61695 0.57198 0.0
C213 C 0.48945 0.63042 0.57786 0.0
C214 C 0.55461 0.60331 0.58503 0.0
C215 C 0.49944 0.5132 0.56084 0.0
H216 H 0.58089 0.39369 0.45942 0.0
H217 H 0.54274 0.41441 0.47375 0.0
H218 H 0.60471 0.48893 0.49052 0.0
H219 H 0.64283 0.46877 0.47544 0.0
H220 H 0.51596 0.66026 0.63815 0.0
H221 H 0.55286 0.63654 0.62777 0.0
H222 H 0.5086 0.60448 0.55373 0.0
H223 H 0.47161 0.62803 0.56399 0.0
Tb224 Tb 0.0498 0.5498 1.02049 0.0
Tb225 Tb 0.04423 0.49621 0.05795 0.0
C226 C 0.07137 0.49951 0.99891 0.0
C227 C 0.02648 0.60333 0.9856 0.0
C228 C 0.97889 0.62239 0.97111 0.0
C229 C 1.0037 0.62861 0.95483 0.0
C230 C 0.0273 0.61907 0.96201 0.0
C231 C 1.00208 0.59767 1.00229 0.0
C232 C 0.97854 0.60718 0.99516 0.0
C233 C 0.04959 0.59038 0.99129 0.0
O234 O 1.00469 0.52915 1.02032 0.0
O235 O 1.00866 0.48649 0.0294 0.0
O236 O 0.01706 0.51871 0.07844 0.0
O237 O 0.03904 0.56054 0.06209 0.0
O238 O 0.03513 0.45411 0.06133 0.0
O239 O 0.04678 0.47943 0.09692 0.0
O240 O 0.08266 0.52525 0.07167 0.0
O241 O 0.09326 0.55313 0.03424 0.0
O242 O 0.05955 0.51929 0.99305 0.0
O243 O 0.07285 0.49162 0.02443 0.0
C244 C 0.99433 0.50292 1.01943 0.0
O245 O 0.05869 0.59194 1.01651 0.0
O246 O 0.04543 0.56601 0.9817 0.0
C247 C 0.0227 0.54513 0.08039 0.0
C248 C 0.06511 0.4414 0.09369 0.0
C249 C 0.10951 0.41777 0.10804 0.0
C250 C 0.08649 0.41647 0.12608 0.0
C251 C 0.06441 0.42817 0.11891 0.0
C252 C 0.08807 0.44273 0.07564 0.0
C253 C 0.10999 0.43088 0.08269 0.0
C254 C 0.04289 0.4552 0.08697 0.0
C255 C 0.10043 0.54432 0.05786 0.0
H256 H 1.00452 0.64006 0.93605 0.0
H257 H 0.04585 0.62329 0.94873 0.0
H258 H 1.00097 0.58532 1.02048 0.0
H259 H 0.95995 0.60239 1.00836 0.0
H260 H 0.08551 0.4063 0.14567 0.0
H261 H 0.04696 0.42717 0.13315 0.0
H262 H 0.08925 0.45323 0.05624 0.0
H263 H 0.12764 0.43249 0.06856 0.0
H264 H 0.34746 0.23628 0.28091 0.0
H265 H 0.32864 0.21443 0.3243 0.0
H266 H 0.24425 0.21896 0.3015 0.0
H267 H 0.2626 0.24017 0.25811 0.0
H268 H 0.2923 0.23243 0.3679 0.0
H269 H 0.2415 0.1368 0.31425 0.0
H270 H 0.26984 0.1624 0.29901 0.0
H271 H 0.23423 0.16667 0.29991 0.0
C272 C 0.32493 0.23269 0.28524 0.0
C273 C 0.30652 0.23996 0.26612 0.0
C274 C 0.31428 0.22041 0.31004 0.0
C275 C 0.2851 0.21503 0.31589 0.0
C276 C 0.26684 0.22291 0.29723 0.0
H277 H 0.17908 0.16137 0.45685 0.0
H278 H 0.20915 0.18838 0.42154 0.0
C279 C 0.27742 0.23521 0.27255 0.0
C280 C 0.2732 0.19982 0.34072 0.0
H281 H 0.22896 0.14035 0.36092 0.0
C282 C 0.27864 0.21221 0.36653 0.0
C283 C 0.25569 0.17339 0.33872 0.0
C284 C 0.25008 0.15885 0.31154 0.0
C285 C 0.26618 0.19902 0.39046 0.0
C286 C 0.24773 0.17297 0.38829 0.0
C287 C 0.24304 0.16037 0.36252 0.0
C288 C 0.23235 0.1584 0.4122 0.0
C289 C 0.27289 0.21299 0.4178 0.0
C290 C 0.23543 0.13263 0.41866 0.0
C291 C 0.21801 0.11702 0.43846 0.0
C292 C 0.19707 0.12684 0.45221 0.0
C293 C 0.19482 0.15313 0.44648 0.0
C294 C 0.21224 0.16873 0.42655 0.0
H295 H 0.29301 0.22908 0.41696 0.0
H296 H 0.25547 0.22247 0.42354 0.0
H297 H 0.27467 0.19843 0.43414 0.0
H298 H 0.25066 0.12422 0.40764 0.0
H299 H 0.22006 0.09673 0.44197 0.0
H300 H 0.25973 0.86007 0.75301 0.0
H301 H 0.28588 0.87668 0.79479 0.0
H302 H 0.2873 0.79552 0.81662 0.0
H303 H 0.26094 0.77863 0.77465 0.0
H304 H 0.27072 0.8632 0.85001 0.0
H305 H 0.37148 0.83713 0.81981 0.0
H306 H 0.34378 0.83763 0.79538 0.0
H307 H 0.33968 0.81017 0.81911 0.0
C308 C 0.26537 0.84569 0.76679 0.0
C309 C 0.25819 0.81801 0.7606 0.0
C310 C 0.28038 0.85523 0.79061 0.0
C311 C 0.28866 0.83735 0.80867 0.0
C312 C 0.28145 0.80967 0.80271 0.0
H313 H 0.40306 0.88949 0.94848 0.0
H314 H 0.36752 0.86004 0.91918 0.0
C315 C 0.26644 0.80008 0.77877 0.0
C316 C 0.30504 0.84811 0.83354 0.0
H317 H 0.37123 0.85983 0.86169 0.0
C318 C 0.2926 0.8622 0.85277 0.0
C319 C 0.3335 0.84661 0.83713 0.0
C320 C 0.34809 0.83225 0.81673 0.0
C321 C 0.30819 0.87564 0.87503 0.0
C322 C 0.33705 0.87525 0.87786 0.0
C323 C 0.34907 0.86005 0.85943 0.0
C324 C 0.35598 0.89272 0.89786 0.0
C325 C 0.2938 0.89054 0.89504 0.0
C326 C 0.36109 0.9208 0.89565 0.0
C327 C 0.38149 0.93763 0.9121 0.0
C328 C 0.39732 0.92673 0.93108 0.0
C329 C 0.39146 0.89854 0.93388 0.0
C330 C 0.37108 0.88168 0.91728 0.0
H331 H 0.2704 0.88204 0.89535 0.0
H332 H 0.30212 0.88985 0.91616 0.0
H333 H 0.29793 0.91196 0.8887 0.0
H334 H 0.35018 0.92973 0.88032 0.0
H335 H 0.38581 0.95918 0.90892 0.0
H336 H 0.66217 0.36771 0.76831 0.0
H337 H 0.65131 0.38792 0.72514 0.0
H338 H 0.65054 0.46119 0.76852 0.0
H339 H 0.66206 0.44139 0.81118 0.0
H340 H 0.60583 0.40518 0.71086 0.0
H341 H 0.69882 0.49264 0.7044 0.0
H342 H 0.69739 0.46528 0.72803 0.0
H343 H 0.68062 0.49193 0.73659 0.0
C344 C 0.66045 0.38838 0.76841 0.0
C345 C 0.6639 0.40319 0.79309 0.0
C346 C 0.654 0.39989 0.74375 0.0
C347 C 0.65069 0.42645 0.74317 0.0
C348 C 0.6539 0.44108 0.76793 0.0
H349 H 0.58604 0.52976 0.633 0.0
H350 H 0.60439 0.50795 0.671 0.0
C351 C 0.66044 0.42966 0.79245 0.0
C352 C 0.6423 0.43843 0.71726 0.0
H353 H 0.65874 0.49477 0.6766 0.0
C354 C 0.61768 0.4246 0.70321 0.0
C355 C 0.65759 0.46383 0.70697 0.0
C356 C 0.68523 0.47914 0.71962 0.0
C357 C 0.60747 0.43581 0.68006 0.0
C358 C 0.6223 0.46154 0.67035 0.0
C359 C 0.64719 0.47515 0.68403 0.0
C360 C 0.61184 0.47503 0.64663 0.0
C361 C 0.58028 0.42043 0.6667 0.0
C362 C 0.61029 0.46418 0.61993 0.0
C363 C 0.59995 0.47678 0.59797 0.0
C364 C 0.59076 0.50052 0.60215 0.0
C365 C 0.59278 0.51151 0.62886 0.0
C366 C 0.60333 0.49904 0.65071 0.0
H367 H 0.56847 0.40351 0.67971 0.0
H368 H 0.5662 0.434 0.66234 0.0
H369 H 0.5854 0.41197 0.64687 0.0
H370 H 0.61709 0.44591 0.61606 0.0
H371 H 0.59877 0.46765 0.57779 0.0
H372 H 0.95601 0.70227 0.26433 0.0
H373 H 0.97409 0.67704 0.22864 0.0
H374 H 0.92644 0.60242 0.26428 0.0
H375 H 0.90779 0.62781 0.29976 0.0
H376 H 1.00536 0.64034 0.22815 0.0
H377 H 0.8988 0.59218 0.18626 0.0
H378 H 0.90431 0.61907 0.21117 0.0
H379 H 0.90266 0.58515 0.22191 0.0
C380 C 0.94963 0.68047 0.26479 0.0
C381 C 0.93042 0.66709 0.28501 0.0
C382 C 0.95994 0.66599 0.24424 0.0
C383 C 0.95125 0.63768 0.24311 0.0
C384 C 0.93299 0.62421 0.26402 0.0
H385 H 0.98867 0.52079 0.12353 0.0
H386 H 0.97185 0.54237 0.16312 0.0
C387 C 0.9226 0.63873 0.28459 0.0
C388 C 0.96115 0.62258 0.21993 0.0
H389 H 0.93776 0.57851 0.16686 0.0
C390 C 0.9905 0.62686 0.21479 0.0
C391 C 0.94197 0.60483 0.20223 0.0
C392 C 0.91018 0.60017 0.20543 0.0
C393 C 1.00109 0.61393 0.1929 0.0
C394 C 0.98192 0.59642 0.17506 0.0
C395 C 0.95259 0.59184 0.18038 0.0
C396 C 0.99186 0.58317 0.15053 0.0
C397 C 0.03286 0.61884 0.18942 0.0
C398 C 1.0083 0.59869 0.1297 0.0
C399 C 0.0179 0.58638 0.10695 0.0
C400 C 0.01128 0.5581 0.1042 0.0
C401 C 0.99432 0.54257 0.12482 0.0
C402 C 0.98465 0.55494 0.14757 0.0
H403 H 0.04429 0.62606 0.20878 0.0
H404 H 0.03881 0.60025 0.18265 0.0
H405 H 0.04024 0.63457 0.17356 0.0
H406 H 0.01367 0.62047 0.13093 0.0
H407 H 0.03071 0.59916 0.09156 0.0
H408 H 0.37028 0.18352 0.1967 0.0
H409 H 0.40248 0.15589 0.18208 0.0
H410 H 0.3924 0.17707 0.09768 0.0
H411 H 0.36073 0.20503 0.11229 0.0
H412 H 0.39104 0.11187 0.14736 0.0
H413 H 0.47847 0.19335 0.10561 0.0
H414 H 0.45068 0.19998 0.12724 0.0
H415 H 0.4444 0.19304 0.09127 0.0
C416 C 0.37525 0.18239 0.17509 0.0
C417 C 0.36324 0.19637 0.1556 0.0
C418 C 0.3935 0.16662 0.16676 0.0
C419 C 0.40009 0.16475 0.13884 0.0
C420 C 0.38805 0.17871 0.11936 0.0
H421 H 0.46513 0.04334 0.05537 0.0
H422 H 0.43543 0.07045 0.07585 0.0
C423 C 0.36988 0.19453 0.12769 0.0
C424 C 0.41881 0.14748 0.12995 0.0
H425 H 0.47967 0.14835 0.09427 0.0
C426 C 0.41054 0.11984 0.13593 0.0
C427 C 0.4444 0.15802 0.11537 0.0
C428 C 0.45521 0.18776 0.10971 0.0
C429 C 0.42685 0.1023 0.12708 0.0
C430 C 0.45177 0.11266 0.11142 0.0
C431 C 0.46039 0.14041 0.10605 0.0
C432 C 0.46925 0.09516 0.10024 0.0
C433 C 0.41741 0.07292 0.13481 0.0
C434 C 0.49819 0.10031 0.10687 0.0
C435 C 0.51528 0.08507 0.095 0.0
C436 C 0.50374 0.06439 0.07621 0.0
C437 C 0.47462 0.05899 0.06992 0.0
C438 C 0.45757 0.07436 0.08172 0.0
H439 H 0.40309 0.06978 0.15302 0.0
H440 H 0.40551 0.06139 0.11743 0.0
H441 H 0.43593 0.06456 0.1393 0.0
H442 H 0.50762 0.11633 0.12106 0.0
H443 H 0.53761 0.08973 0.10035 0.0
H444 H 0.19886 0.82971 0.65111 0.0
H445 H 0.16682 0.85698 0.63668 0.0
H446 H 0.12997 0.85102 0.71788 0.0
H447 H 0.16197 0.82352 0.73253 0.0
H448 H 0.10681 0.84748 0.63727 0.0
H449 H 0.15887 0.93275 0.70554 0.0
H450 H 0.17462 0.90508 0.6982 0.0
H451 H 0.14528 0.90064 0.72178 0.0
C452 C 0.18356 0.8337 0.66578 0.0
C453 C 0.18306 0.82457 0.69302 0.0
C454 C 0.16536 0.84942 0.65754 0.0
C455 C 0.14639 0.85637 0.67635 0.0
C456 C 0.14489 0.84632 0.70322 0.0
H457 H 0.04774 0.97588 0.64047 0.0
H458 H 0.06419 0.94056 0.66468 0.0
C459 C 0.16314 0.83061 0.71152 0.0
C460 C 0.12919 0.87509 0.66782 0.0
H461 H 0.1231 0.93964 0.67618 0.0
C462 C 0.11008 0.8675 0.64601 0.0
C463 C 0.13344 0.90117 0.67937 0.0
C464 C 0.15428 0.91061 0.70239 0.0
C465 C 0.09583 0.88563 0.63479 0.0
C466 C 0.10115 0.9121 0.64544 0.0
C467 C 0.11911 0.91929 0.66813 0.0
C468 C 0.09091 0.93336 0.63128 0.0
C469 C 0.0757 0.87655 0.61117 0.0
C470 C 0.10103 0.94131 0.60484 0.0
C471 C 0.09195 0.96146 0.59113 0.0
C472 C 0.07254 0.97419 0.60358 0.0
C473 C 0.06271 0.96649 0.63032 0.0
C474 C 0.07199 0.9463 0.64413 0.0
H475 H 0.06765 0.85428 0.61071 0.0
H476 H 0.0573 0.88577 0.61238 0.0
H477 H 0.08711 0.88292 0.59156 0.0
H478 H 0.11609 0.93193 0.59481 0.0
H479 H 0.10008 0.96688 0.57062 0.0
H480 H 0.75287 0.42677 0.88675 0.0
H481 H 0.79704 0.45164 0.90877 0.0
H482 H 0.82052 0.37702 0.92281 0.0
H483 H 0.7773 0.35228 0.89998 0.0
H484 H 0.81618 0.44866 0.96125 0.0
H485 H 0.89234 0.42171 0.8883 0.0
H486 H 0.85495 0.41596 0.88077 0.0
H487 H 0.86759 0.39254 0.90179 0.0
C488 C 0.76765 0.41569 0.89411 0.0
C489 C 0.76133 0.38742 0.89151 0.0
C490 C 0.79284 0.42994 0.90691 0.0
C491 C 0.81246 0.41633 0.91717 0.0
C492 C 0.80615 0.38816 0.91462 0.0
H493 H 0.96771 0.4497 1.01124 0.0
H494 H 0.92343 0.43068 0.98676 0.0
C495 C 0.7811 0.37394 0.90183 0.0
C496 C 0.8391 0.43127 0.93126 0.0
H497 H 0.91133 0.43989 0.93149 0.0
C498 C 0.83701 0.44699 0.95454 0.0
C499 C 0.86641 0.42925 0.92256 0.0
C500 C 0.87054 0.41418 0.89682 0.0
C501 C 0.86122 0.45978 0.96987 0.0
C502 C 0.88839 0.45707 0.9616 0.0
C503 C 0.89053 0.44185 0.938 0.0
C504 C 0.91479 0.46912 0.97749 0.0
C505 C 0.85743 0.47533 0.99537 0.0
C506 C 0.92487 0.49717 0.98054 0.0
C507 C 0.95035 0.50821 0.99458 0.0
C508 C 0.96637 0.49142 1.00588 0.0
C509 C 0.95601 0.46333 1.00297 0.0
C510 C 0.93065 0.45236 0.98887 0.0
H511 H 0.83488 0.4707 1.00223 0.0
H512 H 0.87063 0.47082 1.01242 0.0
H513 H 0.86443 0.49723 0.991 0.0
H514 H 0.91333 0.51059 0.97157 0.0
H515 H 0.95769 0.52991 0.99621 0.0
H516 H 0.85752 0.68355 0.4421 0.0
H517 H 0.81253 0.66051 0.46352 0.0
H518 H 0.77973 0.62966 0.38467 0.0
H519 H 0.82453 0.6534 0.36274 0.0
H520 H 0.75642 0.66777 0.45013 0.0
H521 H 0.76385 0.56205 0.43603 0.0
H522 H 0.79459 0.59037 0.4341 0.0
H523 H 0.77006 0.58314 0.40601 0.0
C524 C 0.84075 0.6721 0.42911 0.0
C525 C 0.84483 0.6707 0.40048 0.0
C526 C 0.81501 0.65874 0.44152 0.0
C527 C 0.7927 0.6432 0.42581 0.0
C528 C 0.79673 0.64125 0.39733 0.0
H529 H 0.62255 0.54679 0.46707 0.0
H530 H 0.66777 0.56832 0.4451 0.0
C531 C 0.82247 0.65481 0.3848 0.0
C532 C 0.76502 0.62986 0.43926 0.0
H533 H 0.72128 0.5684 0.45528 0.0
C534 C 0.74874 0.64604 0.4513 0.0
C535 C 0.75488 0.60151 0.44071 0.0
C536 C 0.77175 0.58312 0.42873 0.0
C537 C 0.72249 0.63472 0.46432 0.0
C538 C 0.71248 0.6063 0.46621 0.0
C539 C 0.72881 0.59014 0.45405 0.0
C540 C 0.68496 0.59294 0.48017 0.0
C541 C 0.70539 0.65344 0.47516 0.0
C542 C 0.6794 0.59906 0.50753 0.0
C543 C 0.65326 0.58692 0.52016 0.0
C544 C 0.63216 0.56798 0.50589 0.0
C545 C 0.63813 0.56132 0.47878 0.0
C546 C 0.66412 0.57363 0.46612 0.0
H547 H 0.71145 0.6734 0.46488 0.0
H548 H 0.68224 0.64481 0.47224 0.0
H549 H 0.70952 0.65678 0.49744 0.0
H550 H 0.69531 0.61323 0.51924 0.0
H551 H 0.64964 0.59238 0.54112 0.0
H552 H 0.3019 0.32573 0.22237 0.0
H553 H 0.27056 0.35176 0.20336 0.0
H554 H 0.26276 0.3052 0.12864 0.0
H555 H 0.29271 0.27813 0.14795 0.0
H556 H 0.27068 0.38277 0.15671 0.0
H557 H 0.18091 0.29114 0.15532 0.0
H558 H 0.21402 0.29215 0.17244 0.0
H559 H 0.21134 0.28796 0.13578 0.0
C560 C 0.29358 0.32107 0.20186 0.0
C561 C 0.29946 0.29954 0.18689 0.0
C562 C 0.27585 0.3361 0.19096 0.0
C563 C 0.26383 0.32993 0.16488 0.0
C564 C 0.27134 0.30984 0.14907 0.0
H565 H 0.13495 0.38645 0.07626 0.0
H566 H 0.17414 0.36665 0.08895 0.0
C567 C 0.28882 0.29463 0.16003 0.0
C568 C 0.24199 0.34328 0.15504 0.0
H569 H 0.1722 0.33072 0.13639 0.0
C570 C 0.24916 0.37143 0.15224 0.0
C571 C 0.21386 0.32839 0.14945 0.0
C572 C 0.20442 0.29828 0.15363 0.0
C573 C 0.22893 0.38505 0.1437 0.0
C574 C 0.20092 0.3701 0.13804 0.0
C575 C 0.19381 0.34201 0.14063 0.0
C576 C 0.17834 0.38322 0.13005 0.0
C577 C 0.23759 0.41527 0.14059 0.0
C578 C 0.16768 0.3988 0.14913 0.0
C579 C 0.14523 0.40999 0.14202 0.0
C580 C 0.13318 0.40578 0.11569 0.0
C581 C 0.14402 0.39022 0.09661 0.0
C582 C 0.16632 0.37888 0.10381 0.0
H583 H 0.26108 0.42318 0.14044 0.0
H584 H 0.22885 0.42148 0.12134 0.0
H585 H 0.22883 0.42467 0.15804 0.0
H586 H 0.17648 0.40201 0.16962 0.0
H587 H 0.13744 0.42209 0.15703 0.0
H588 H 0.6845 0.31911 0.93273 0.0
H589 H 0.66457 0.27519 0.95381 0.0
H590 H 0.6506 0.2387 0.8736 0.0
H591 H 0.67118 0.28264 0.85228 0.0
H592 H 0.61167 0.23951 0.94952 0.0
H593 H 0.69577 0.1918 0.91223 0.0
H594 H 0.6995 0.22771 0.91078 0.0
H595 H 0.67828 0.20589 0.88574 0.0
C596 C 0.67734 0.30175 0.91949 0.0
C597 C 0.67982 0.30451 0.89072 0.0
C598 C 0.66578 0.2766 0.93163 0.0
C599 C 0.6565 0.25338 0.91542 0.0
C600 C 0.65811 0.25613 0.88665 0.0
H601 H 0.55158 0.09856 0.97301 0.0
H602 H 0.57047 0.14183 0.95042 0.0
C603 C 0.66959 0.28138 0.87445 0.0
C604 C 0.64519 0.22649 0.92879 0.0
H605 H 0.6568 0.16356 0.93579 0.0
C606 C 0.62153 0.22291 0.94644 0.0
C607 C 0.65825 0.20484 0.92525 0.0
C608 C 0.68451 0.20769 0.90769 0.0
C609 C 0.61042 0.19835 0.96024 0.0
C610 C 0.62304 0.17648 0.95616 0.0
C611 C 0.64693 0.18016 0.93882 0.0
C612 C 0.61175 0.1497 0.96974 0.0
C613 C 0.58556 0.19624 0.97955 0.0
C614 C 0.62878 0.13912 0.98776 0.0
C615 C 0.61802 0.11417 1.00079 0.0
C616 C 0.58999 0.09902 0.99591 0.0
C617 C 0.57319 0.10955 0.97749 0.0
C618 C 0.58393 0.13448 0.96459 0.0
H619 H 0.58317 0.2164 0.98591 0.0
H620 H 0.56571 0.18557 0.96902 0.0
H621 H 0.58796 0.18463 0.99822 0.0
H622 H 0.65036 0.15035 0.99203 0.0
H623 H 0.63168 0.1068 1.01472 0.0
H624 H 0.94164 0.77457 0.36188 0.0
H625 H 0.963 0.81806 0.38393 0.0
H626 H 0.93518 0.78362 0.46301 0.0
H627 H 0.91514 0.7402 0.4415 0.0
H628 H 0.93918 0.85155 0.4134 0.0
H629 H 0.01602 0.81936 0.48045 0.0
H630 H 0.99767 0.79837 0.45308 0.0
H631 H 0.98057 0.79921 0.48589 0.0
C632 C 0.94053 0.77611 0.38402 0.0
C633 C 0.92644 0.75364 0.39974 0.0
C634 C 0.9526 0.80112 0.39663 0.0
C635 C 0.95119 0.80429 0.42533 0.0
C636 C 0.93727 0.78184 0.44099 0.0
H637 H 0.98753 0.93354 0.54629 0.0
H638 H 0.97154 0.89153 0.52032 0.0
C639 C 0.92536 0.75694 0.42848 0.0
C640 C 0.96317 0.83109 0.43896 0.0
H641 H 1.00566 0.86144 0.49195 0.0
C642 C 0.95399 0.85373 0.43034 0.0
C643 C 0.98259 0.83426 0.46117 0.0
C644 C 0.99502 0.81156 0.4705 0.0
C645 C 0.96279 0.87889 0.4438 0.0
C646 C 0.98155 0.88178 0.46645 0.0
C647 C 0.99111 0.85931 0.47478 0.0
C648 C 0.99119 0.90776 0.48203 0.0
C649 C 0.95122 0.90201 0.43421 0.0
C650 C 1.00786 0.93106 0.46937 0.0
C651 C 0.01723 0.9552 0.48426 0.0
C652 C 0.01009 0.95673 0.51222 0.0
C653 C 0.99338 0.93333 0.52481 0.0
C654 C 0.98423 0.90917 0.50997 0.0
H655 H 0.93251 0.89515 0.42058 0.0
H656 H 0.94497 0.91293 0.45198 0.0
H657 H 0.96799 0.91644 0.42254 0.0
H658 H 0.01396 0.93052 0.448 0.0
H659 H 0.03011 0.97266 0.47381 0.0
H660 H 0.26018 0.71922 0.66031 0.0
H661 H 0.29914 0.69687 0.65507 0.0
H662 H 0.35719 0.77354 0.63731 0.0
H663 H 0.31854 0.79593 0.64327 0.0
H664 H 0.33056 0.69446 0.60994 0.0
H665 H 0.40163 0.74354 0.69376 0.0
H666 H 0.36516 0.74565 0.69123 0.0
H667 H 0.39248 0.76742 0.67091 0.0
C668 C 0.28142 0.73129 0.65588 0.0
C669 C 0.28655 0.75935 0.65286 0.0
C670 C 0.3036 0.71854 0.65275 0.0
C671 C 0.33122 0.73359 0.64635 0.0
C672 C 0.33627 0.7616 0.64306 0.0
H673 H 0.46445 0.6744 0.56778 0.0
H674 H 0.42549 0.69511 0.57907 0.0
C675 C 0.31416 0.77436 0.64635 0.0
C676 C 0.35437 0.71987 0.64142 0.0
H677 H 0.42208 0.71982 0.6601 0.0
C678 C 0.35049 0.69985 0.62106 0.0
C679 C 0.38023 0.72667 0.65617 0.0
C680 C 0.38506 0.74679 0.67943 0.0
C681 C 0.37199 0.6869 0.61459 0.0
C682 C 0.39837 0.69464 0.62841 0.0
C683 C 0.40199 0.71416 0.64926 0.0
C684 C 0.42239 0.6826 0.62164 0.0
C685 C 0.36608 0.6648 0.59327 0.0
C686 C 0.43426 0.66949 0.64203 0.0
C687 C 0.4567 0.65788 0.63569 0.0
C688 C 0.46772 0.65917 0.60882 0.0
C689 C 0.4561 0.6727 0.58855 0.0
C690 C 0.43379 0.68447 0.59495 0.0
H691 H 0.34288 0.65605 0.59067 0.0
H692 H 0.37484 0.67325 0.57319 0.0
H693 H 0.37623 0.64837 0.5988 0.0
H694 H 0.42586 0.6679 0.66278 0.0
H695 H 0.46502 0.64739 0.65169 0.0
H696 H 0.79681 0.84783 0.86421 0.0
H697 H 0.83046 0.86451 0.82705 0.0
H698 H 0.81436 0.78445 0.79284 0.0
H699 H 0.77999 0.76761 0.82982 0.0
H700 H 0.88044 0.8478 0.80971 0.0
H701 H 0.79596 0.83198 0.72977 0.0
H702 H 0.78772 0.83175 0.76597 0.0
H703 H 0.79791 0.80363 0.75071 0.0
C704 C 0.80032 0.83377 0.84873 0.0
C705 C 0.78544 0.8065 0.84966 0.0
C706 C 0.81973 0.84328 0.82767 0.0
C707 C 0.82461 0.82576 0.80709 0.0
C708 C 0.81059 0.79832 0.8084 0.0
H709 H 0.91532 0.89139 0.6556 0.0
H710 H 0.89339 0.85757 0.69007 0.0
C711 C 0.79114 0.78873 0.82958 0.0
C712 C 0.8435 0.8369 0.78381 0.0
H713 H 0.84188 0.85553 0.71674 0.0
C714 C 0.87218 0.84911 0.78924 0.0
C715 C 0.83264 0.83837 0.75712 0.0
C716 C 0.80186 0.8259 0.75038 0.0
C717 C 0.88999 0.86387 0.76896 0.0
C718 C 0.87863 0.86687 0.74281 0.0
C719 C 0.85047 0.85323 0.73686 0.0
C720 C 0.89433 0.88662 0.7226 0.0
C721 C 0.9206 0.87676 0.77593 0.0
C722 C 0.90198 0.91406 0.72951 0.0
C723 C 0.91435 0.93329 0.70997 0.0
C724 C 0.91918 0.92549 0.68306 0.0
C725 C 0.91202 0.89794 0.67626 0.0
C726 C 0.89947 0.87865 0.69586 0.0
H727 H 0.92833 0.8655 0.79247 0.0
H728 H 0.93463 0.87778 0.75767 0.0
H729 H 0.92238 0.89757 0.78344 0.0
H730 H 0.89764 0.9207 0.74985 0.0
H731 H 0.91992 0.95434 0.71588 0.0
H732 H 0.8338 0.2749 0.31399 0.0
H733 H 0.80393 0.2573 0.27431 0.0
H734 H 0.78472 0.17771 0.30969 0.0
H735 H 0.81457 0.19507 0.34918 0.0
H736 H 0.80083 0.17822 0.25562 0.0
H737 H 0.71724 0.23413 0.26997 0.0
H738 H 0.75305 0.25473 0.26829 0.0
H739 H 0.74238 0.23188 0.29651 0.0
C740 C 0.82295 0.25371 0.31338 0.0
C741 C 0.8266 0.23633 0.33462 0.0
C742 C 0.80587 0.24371 0.29076 0.0
C743 C 0.79189 0.21625 0.2892 0.0
C744 C 0.79536 0.19896 0.31048 0.0
H745 H 0.65421 0.12415 0.19418 0.0
H746 H 0.68518 0.15261 0.22768 0.0
C747 C 0.81251 0.20888 0.33296 0.0
C748 C 0.77434 0.20508 0.26509 0.0
H749 H 0.7138 0.2067 0.2304 0.0
C750 C 0.78188 0.18454 0.24999 0.0
C751 C 0.74955 0.21328 0.25796 0.0
C752 C 0.73984 0.23455 0.27412 0.0
C753 C 0.76502 0.17154 0.22826 0.0
C754 C 0.74027 0.17979 0.22102 0.0
C755 C 0.73295 0.20064 0.23584 0.0
C756 C 0.72062 0.16547 0.19959 0.0
C757 C 0.77326 0.14836 0.21404 0.0
C758 C 0.72993 0.16403 0.17243 0.0
C759 C 0.71229 0.14768 0.15324 0.0
C760 C 0.68492 0.13279 0.16084 0.0
C761 C 0.67508 0.13554 0.18763 0.0
C762 C 0.69279 0.15173 0.20683 0.0
H763 H 0.789 0.14073 0.22609 0.0
H764 H 0.75431 0.13142 0.21047 0.0
H765 H 0.78299 0.1552 0.19382 0.0
H766 H 0.75112 0.17497 0.16627 0.0
H767 H 0.72026 0.14626 0.13262 0.0
H768 H 0.46004 0.68894 0.29344 0.0
H769 H 0.47355 0.67091 0.33677 0.0
H770 H 0.42232 0.59211 0.31548 0.0
H771 H 0.40899 0.61003 0.27221 0.0
H772 H 0.44202 0.64329 0.38182 0.0
H773 H 0.50089 0.57813 0.32809 0.0
H774 H 0.48954 0.60479 0.31087 0.0
H775 H 0.46453 0.57313 0.31758 0.0
C776 C 0.45141 0.66785 0.29822 0.0
C777 C 0.43367 0.65089 0.27925 0.0
C778 C 0.45919 0.65752 0.32296 0.0
C779 C 0.44952 0.62995 0.32927 0.0
C780 C 0.43067 0.61328 0.31092 0.0
H781 H 0.48854 0.52608 0.45882 0.0
H782 H 0.46926 0.5447 0.41908 0.0
C783 C 0.42285 0.62361 0.28625 0.0
C784 C 0.45966 0.61851 0.35457 0.0
H785 H 0.49596 0.57295 0.37621 0.0
C786 C 0.45388 0.62796 0.38057 0.0
C787 C 0.47513 0.59843 0.35314 0.0
C788 C 0.48316 0.58814 0.32595 0.0
C789 C 0.4626 0.61759 0.40501 0.0
C790 C 0.47823 0.59759 0.40358 0.0
C791 C 0.48396 0.58816 0.37754 0.0
C792 C 0.48915 0.58637 0.42867 0.0
C793 C 0.45428 0.62773 0.43215 0.0
C794 C 0.50699 0.60338 0.44751 0.0
C795 C 0.51795 0.59276 0.47041 0.0
C796 C 0.51167 0.56475 0.47503 0.0
C797 C 0.49383 0.54773 0.45613 0.0
C798 C 0.48279 0.55839 0.43327 0.0
H799 H 0.43542 0.63619 0.43006 0.0
H800 H 0.44944 0.61143 0.44773 0.0
H801 H 0.47215 0.64405 0.4398 0.0
H802 H 0.51297 0.62495 0.44426 0.0
H803 H 0.53177 0.60659 0.48427 0.0
H804 H 0.14514 0.34115 0.8136 0.0
H805 H 0.12835 0.36176 0.8541 0.0
H806 H 0.1406 0.43679 0.81046 0.0
H807 H 0.15731 0.41646 0.77017 0.0
H808 H 0.15995 0.41102 0.88396 0.0
H809 H 0.05754 0.42185 0.84138 0.0
H810 H 0.07636 0.39852 0.82733 0.0
H811 H 0.08816 0.43382 0.81973 0.0
C812 C 0.14393 0.36194 0.81252 0.0
C813 C 0.15269 0.37707 0.78848 0.0
C814 C 0.13448 0.37378 0.83579 0.0
C815 C 0.133 0.40088 0.83545 0.0
C816 C 0.14126 0.41583 0.81133 0.0
H817 H 0.07939 0.51448 0.94468 0.0
H818 H 0.09495 0.49027 0.90666 0.0
C819 C 0.151 0.40416 0.78827 0.0
C820 C 0.12355 0.41392 0.86032 0.0
H821 H 0.07226 0.44412 0.88342 0.0
C822 C 0.14064 0.41805 0.88395 0.0
C823 C 0.09852 0.4234 0.86038 0.0
C824 C 0.07888 0.41906 0.83597 0.0
C825 C 0.13389 0.43202 0.90714 0.0
C826 C 0.10876 0.44155 0.90726 0.0
C827 C 0.09152 0.43702 0.88365 0.0
C828 C 0.10017 0.45668 0.9312 0.0
C829 C 0.1545 0.43736 0.93079 0.0
C830 C 0.09769 0.44619 0.95809 0.0
C831 C 0.08911 0.46029 0.98011 0.0
C832 C 0.08222 0.48513 0.97586 0.0
C833 C 0.08453 0.49551 0.94893 0.0
C834 C 0.09339 0.48155 0.92702 0.0
H835 H 0.1762 0.43649 0.9242 0.0
H836 H 0.1558 0.4574 0.94017 0.0
H837 H 0.14726 0.4217 0.94673 0.0
H838 H 0.10185 0.42676 0.96206 0.0
H839 H 0.08725 0.45138 1.00038 0.0
H840 H 0.69513 0.83245 0.86723 0.0
H841 H 0.67118 0.86687 0.88252 0.0
H842 H 0.68969 0.85196 0.9667 0.0
H843 H 0.71404 0.81797 0.95165 0.0
H844 H 0.62447 0.86312 0.92278 0.0
H845 H 0.72617 0.93411 0.95288 0.0
H846 H 0.72464 0.90589 0.93013 0.0
H847 H 0.72067 0.90065 0.96655 0.0
C848 C 0.69394 0.83643 0.889 0.0
C849 C 0.70657 0.82261 0.90825 0.0
C850 C 0.6802 0.85599 0.89767 0.0
C851 C 0.67912 0.86214 0.92566 0.0
C852 C 0.69066 0.84766 0.94497 0.0
H853 H 0.62125 0.96908 0.03246 0.0
H854 H 0.64318 0.93706 1.00931 0.0
C855 C 0.70429 0.82806 0.93636 0.0
C856 C 0.66673 0.88428 0.9348 0.0
H857 H 0.68364 0.94531 0.96708 0.0
C858 C 0.63735 0.88125 0.93222 0.0
C859 C 0.68375 0.90788 0.94692 0.0
C860 C 0.71561 0.91256 0.94913 0.0
C861 C 0.62428 0.90079 0.94264 0.0
C862 C 0.64123 0.92408 0.95546 0.0
C863 C 0.67073 0.92741 0.95727 0.0
C864 C 0.62861 0.94436 0.96881 0.0
C865 C 0.59236 0.89583 0.94091 0.0
C866 C 0.61364 0.95951 0.95356 0.0
C867 C 0.60099 0.97788 0.96676 0.0
C868 C 0.60327 0.98146 0.99539 0.0
C869 C 0.61901 0.96679 1.0104 0.0
C870 C 0.63158 0.94847 0.99722 0.0
H871 H 0.582 0.87458 0.93555 0.0
H872 H 0.58339 0.90083 0.96069 0.0
H873 H 0.58693 0.90897 0.9248 0.0
H874 H 0.6116 0.95698 0.93152 0.0
H875 H 0.58909 0.98893 0.95461 0.0
H876 H 0.88688 0.22938 0.44543 0.0
H877 H 0.91429 0.19992 0.46481 0.0
H878 H 0.94267 0.18459 0.38366 0.0
H879 H 0.91531 0.21424 0.36403 0.0
H880 H 0.92201 0.13811 0.4139 0.0
H881 H 1.00006 0.21311 0.47468 0.0
H882 H 0.96392 0.21373 0.48179 0.0
H883 H 0.97864 0.22265 0.44813 0.0
C884 C 0.89941 0.2202 0.43173 0.0
C885 C 0.89908 0.22429 0.4032 0.0
C886 C 0.91506 0.20335 0.44284 0.0
C887 C 0.93086 0.19041 0.42571 0.0
C888 C 0.93071 0.1945 0.39724 0.0
H889 H 0.04712 0.10156 0.49286 0.0
H890 H 0.02676 0.13248 0.4662 0.0
C891 C 0.91501 0.21136 0.38607 0.0
C892 C 0.94626 0.17152 0.43752 0.0
H893 H 0.99567 0.16674 0.48561 0.0
C894 C 0.93834 0.1444 0.42937 0.0
C895 C 0.96781 0.17985 0.45742 0.0
C896 C 0.97834 0.20898 0.46584 0.0
C897 C 0.95066 0.12516 0.44135 0.0
C898 C 0.97108 0.13324 0.46233 0.0
C899 C 0.97977 0.16054 0.46974 0.0
C900 C 0.98319 0.11364 0.47739 0.0
C901 C 0.94173 0.09639 0.43141 0.0
C902 C 0.96542 0.09286 0.49263 0.0
C903 C 0.97695 0.0751 0.50786 0.0
C904 C 1.00652 0.07794 0.50833 0.0
C905 C 0.02425 0.09876 0.49296 0.0
C906 C 0.01268 0.11647 0.4777 0.0
H907 H 0.9327 0.09508 0.41039 0.0
H908 H 0.95994 0.08688 0.43136 0.0
H909 H 0.92506 0.08466 0.44535 0.0
H910 H 0.94265 0.09068 0.49317 0.0
H911 H 0.96268 0.05942 0.51957 0.0
H912 H 0.34599 0.6276 0.18011 0.0
H913 H 0.30231 0.60328 0.15683 0.0
H914 H 0.27485 0.67686 0.15154 0.0
H915 H 0.31818 0.70118 0.17496 0.0
H916 H 0.23187 0.63143 0.17008 0.0
H917 H 0.28385 0.6092 0.07394 0.0
H918 H 0.29811 0.59961 0.1053 0.0
H919 H 0.30147 0.63461 0.09813 0.0
C920 C 0.33058 0.63857 0.17414 0.0
C921 C 0.33579 0.66643 0.17929 0.0
C922 C 0.30571 0.62468 0.16058 0.0
C923 C 0.28539 0.63828 0.15202 0.0
C924 C 0.29025 0.66593 0.1577 0.0
H925 H 0.14239 0.58729 0.03872 0.0
H926 H 0.1872 0.60957 0.06128 0.0
C927 C 0.31515 0.67985 0.17101 0.0
C928 C 0.25889 0.62379 0.13748 0.0
H929 H 0.23432 0.59017 0.0781 0.0
C930 C 0.23242 0.62237 0.14999 0.0
C931 C 0.25951 0.61226 0.11107 0.0
C932 C 0.28719 0.61409 0.09611 0.0
C933 C 0.20669 0.60949 0.13707 0.0
C934 C 0.2073 0.59743 0.11091 0.0
C935 C 0.23377 0.59919 0.0982 0.0
C936 C 0.18065 0.58304 0.09648 0.0
C937 C 0.17901 0.60937 0.15137 0.0
C938 C 0.16224 0.56027 0.10832 0.0
C939 C 0.13664 0.54747 0.09548 0.0
C940 C 0.12873 0.55701 0.07032 0.0
C941 C 0.14763 0.57935 0.05806 0.0
C942 C 0.17332 0.59215 0.07096 0.0
H943 H 0.18186 0.62511 0.16757 0.0
H944 H 0.16292 0.61264 0.1365 0.0
H945 H 0.17057 0.5895 0.16129 0.0
H946 H 0.1676 0.55244 0.12767 0.0
H947 H 0.12287 0.53022 0.10553 0.0
H948 H 0.27376 0.44018 0.71653 0.0
H949 H 0.31264 0.46358 0.68614 0.0
H950 H 0.32013 0.38703 0.65427 0.0
H951 H 0.281 0.36378 0.68414 0.0
H952 H 0.36736 0.46018 0.68619 0.0
H953 H 0.32151 0.42849 0.58402 0.0
H954 H 0.30017 0.42399 0.61492 0.0
H955 H 0.32083 0.40042 0.60615 0.0
C956 C 0.28343 0.42846 0.70266 0.0
C957 C 0.27438 0.40017 0.70275 0.0
C958 C 0.30572 0.4418 0.68537 0.0
C959 C 0.31928 0.42718 0.66758 0.0
C960 C 0.30975 0.39891 0.66726 0.0
H961 H 0.47114 0.45987 0.56576 0.0
H962 H 0.42723 0.44051 0.59112 0.0
C963 C 0.28745 0.38559 0.68448 0.0
C964 C 0.34445 0.44128 0.6507 0.0
H965 H 0.37172 0.44776 0.58536 0.0
C966 C 0.36814 0.45768 0.6641 0.0
C967 C 0.34569 0.43807 0.62182 0.0
C968 C 0.32058 0.42201 0.60583 0.0
C969 C 0.39316 0.4702 0.64967 0.0
C970 C 0.39455 0.46662 0.62088 0.0
C971 C 0.37076 0.4505 0.60741 0.0
C972 C 0.42076 0.47881 0.60455 0.0
C973 C 0.41827 0.48645 0.66554 0.0
C974 C 0.43161 0.5069 0.6031 0.0
C975 C 0.45678 0.51811 0.5885 0.0
C976 C 0.47171 0.50148 0.57495 0.0
C977 C 0.46038 0.47337 0.57594 0.0
C978 C 0.43519 0.46222 0.59045 0.0
H979 H 0.4162 0.48209 0.6879 0.0
H980 H 0.43841 0.48232 0.65802 0.0
H981 H 0.41973 0.50822 0.66264 0.0
H982 H 0.42064 0.5202 0.61334 0.0
H983 H 0.46472 0.53982 0.58818 0.0
H984 H 0.74287 0.69041 0.95796 0.0
H985 H 0.7843 0.67205 0.96563 0.0
H986 H 0.81228 0.6921 0.88239 0.0
H987 H 0.7706 0.7101 0.87457 0.0
H988 H 0.81842 0.64088 0.90039 0.0
H989 H 0.86419 0.72336 0.97363 0.0
H990 H 0.82874 0.70457 0.98199 0.0
H991 H 0.83503 0.72435 0.95112 0.0
C992 C 0.75754 0.69026 0.94117 0.0
C993 C 0.75346 0.70124 0.91558 0.0
C994 C 0.78128 0.68005 0.94562 0.0
C995 C 0.80148 0.68109 0.92468 0.0
C996 C 0.7969 0.69115 0.89878 0.0
H997 H 0.97581 0.67106 0.94992 0.0
H998 H 0.93303 0.68493 0.93641 0.0
C999 C 0.77312 0.70131 0.89431 0.0
C1000 C 0.82808 0.67292 0.93019 0.0
H1001 H 0.88783 0.6882 0.96971 0.0
C1002 C 0.83366 0.65122 0.91549 0.0
C1003 C 0.84812 0.68683 0.94953 0.0
C1004 C 0.84395 0.71124 0.96482 0.0
C1005 C 0.85853 0.6426 0.92012 0.0
C1006 C 0.87803 0.65586 0.94023 0.0
C1007 C 0.87272 0.67795 0.95446 0.0
C1008 C 0.90392 0.64698 0.94716 0.0
C1009 C 0.86387 0.6196 0.90323 0.0
C1010 C 0.90167 0.62115 0.95782 0.0
C1011 C 0.92602 0.61314 0.96539 0.0
C1012 C 0.95311 0.63092 0.96269 0.0
C1013 C 0.95529 0.65682 0.95198 0.0
C1014 C 0.93089 0.6648 0.94438 0.0
H1015 H 0.85136 0.61674 0.88392 0.0
H1016 H 0.88677 0.623 0.89796 0.0
H1017 H 0.85739 0.6007 0.91527 0.0
H1018 H 0.88102 0.60727 0.96061 0.0
H1019 H 0.92362 0.59295 0.97327 0.0
H1020 H 0.45985 0.7453 0.18824 0.0
H1021 H 0.48299 0.78907 0.16789 0.0
H1022 H 0.40095 0.80477 0.15418 0.0
H1023 H 0.3778 0.76163 0.17515 0.0
H1024 H 0.47831 0.80799 0.11559 0.0
H1025 H 0.44324 0.87402 0.19123 0.0
H1026 H 0.44035 0.83877 0.19764 0.0
H1027 H 0.41426 0.84896 0.17693 0.0
C1028 C 0.44673 0.75824 0.18131 0.0
C1029 C 0.41686 0.74974 0.18341 0.0
C1030 C 0.46001 0.78323 0.16946 0.0
C1031 C 0.44383 0.80054 0.15971 0.0
C1032 C 0.41406 0.79216 0.16192 0.0
H1033 H 0.49528 0.93175 0.04119 0.0
H1034 H 0.475 0.88922 0.06486 0.0
C1035 C 0.40078 0.76721 0.17368 0.0
C1036 C 0.45787 0.82689 0.14642 0.0
H1037 H 0.46307 0.89474 0.14938 0.0
C1038 C 0.47508 0.82696 0.1231 0.0
C1039 C 0.45406 0.85183 0.15628 0.0
C1040 C 0.43721 0.85353 0.18205 0.0
C1041 C 0.48792 0.85101 0.10908 0.0
C1042 C 0.48315 0.87581 0.11828 0.0
C1043 C 0.46653 0.87581 0.14201 0.0
C1044 C 0.49537 0.90194 0.10377 0.0
C1045 C 0.50684 0.84963 0.08473 0.0
C1046 C 0.51301 0.92378 0.11779 0.0
C1047 C 0.52454 0.9483 0.10432 0.0
C1048 C 0.51859 0.95175 0.07645 0.0
C1049 C 0.50056 0.92994 0.06256 0.0
C1050 C 0.48906 0.90543 0.07607 0.0
H1051 H 0.51473 0.83105 0.08508 0.0
H1052 H 0.49453 0.84939 0.06556 0.0
H1053 H 0.52541 0.86738 0.08413 0.0
H1054 H 0.51814 0.92178 0.13919 0.0
H1055 H 0.53824 0.96454 0.11581 0.0
H1056 H 0.15624 0.31759 0.67485 0.0
H1057 H 0.13752 0.27398 0.65305 0.0
H1058 H 0.1193 0.23681 0.73255 0.0
H1059 H 0.13904 0.28063 0.75474 0.0
H1060 H 0.1448 0.20687 0.69834 0.0
H1061 H 0.05605 0.23259 0.64283 0.0
H1062 H 0.08958 0.25558 0.6353 0.0
H1063 H 0.07536 0.25369 0.66966 0.0
C1064 C 0.14833 0.30021 0.68786 0.0
C1065 C 0.14942 0.30285 0.71672 0.0
C1066 C 0.13725 0.27518 0.67525 0.0
C1067 C 0.12653 0.25189 0.69097 0.0
C1068 C 0.12728 0.25439 0.71982 0.0
H1069 H 0.02813 0.10064 0.61789 0.0
H1070 H 0.04431 0.1424 0.64398 0.0
C1071 C 0.13838 0.27956 0.73253 0.0
C1072 C 0.11549 0.22502 0.67715 0.0
H1073 H 0.06871 0.19254 0.62825 0.0
C1074 C 0.12801 0.20371 0.68316 0.0
C1075 C 0.09332 0.2205 0.65749 0.0
C1076 C 0.07759 0.24171 0.65112 0.0
C1077 C 0.11958 0.17853 0.66967 0.0
C1078 C 0.0983 0.17444 0.6491 0.0
C1079 C 0.08528 0.19553 0.64365 0.0
C1080 C 0.08878 0.1484 0.63337 0.0
C1081 C 0.13329 0.15639 0.678 0.0
C1082 C 0.10817 0.13758 0.61825 0.0
C1083 C 0.09893 0.11345 0.60328 0.0
C1084 C 0.06996 0.09955 0.60276 0.0
C1085 C 0.0506 0.11058 0.61771 0.0
C1086 C 0.05985 0.13462 0.63271 0.0
H1087 H 0.14251 0.15982 0.69893 0.0
H1088 H 0.11776 0.13642 0.67754 0.0
H1089 H 0.15083 0.1559 0.66346 0.0
H1090 H 0.13049 0.14799 0.61768 0.0
H1091 H 0.11451 0.10583 0.59191 0.0
H1092 H 0.79292 0.2868 0.40217 0.0
H1093 H 0.75476 0.31048 0.4007 0.0
H1094 H 0.80117 0.36955 0.45791 0.0
H1095 H 0.8396 0.34642 0.45869 0.0
H1096 H 0.72206 0.31789 0.44329 0.0
H1097 H 0.77799 0.41738 0.40169 0.0
H1098 H 0.7929 0.38846 0.39989 0.0
H1099 H 0.79596 0.40827 0.43085 0.0
C1100 C 0.7951 0.30515 0.41395 0.0
C1101 C 0.81909 0.31488 0.4305 0.0
C1102 C 0.77334 0.3186 0.41318 0.0
C1103 C 0.77529 0.34201 0.42888 0.0
C1104 C 0.79951 0.35194 0.44508 0.0
H1105 H 0.66659 0.4359 0.49122 0.0
H1106 H 0.70472 0.41458 0.47901 0.0
C1107 C 0.82133 0.33861 0.44571 0.0
C1108 C 0.75107 0.35481 0.43019 0.0
H1109 H 0.73386 0.41532 0.4254 0.0
C1110 C 0.7245 0.3391 0.43893 0.0
C1111 C 0.7543 0.38247 0.42448 0.0
C1112 C 0.78176 0.40005 0.41343 0.0
C1113 C 0.70144 0.35057 0.44329 0.0
C1114 C 0.70503 0.3784 0.43859 0.0
C1115 C 0.7313 0.39399 0.4291 0.0
C1116 C 0.6822 0.39197 0.44489 0.0
C1117 C 0.67372 0.3331 0.45395 0.0
C1118 C 0.65708 0.38651 0.42948 0.0
C1119 C 0.63528 0.39884 0.43625 0.0
C1120 C 0.63828 0.41687 0.45855 0.0
C1121 C 0.6637 0.42246 0.47369 0.0
C1122 C 0.68548 0.41021 0.46684 0.0
H1123 H 0.67582 0.31297 0.46063 0.0
H1124 H 0.66578 0.34305 0.47153 0.0
H1125 H 0.65752 0.33014 0.43747 0.0
H1126 H 0.65435 0.37271 0.41225 0.0
H1127 H 0.61617 0.39442 0.42391 0.0
loop_
_geom_bond_atom_site_label_1
_geom_bond_atom_site_label_2
_geom_bond_distance
_geom_bond_site_symmetry_2
_ccdc_geom_bond_type
H0 C7 0.929 . S
H1 C10 0.930 . S
H2 C12 0.929 . S
H3 C4 0.969 . S
C4 H3 0.969 . S
C4 O5 1.550 . S
C4 H6 0.973 . S
O5 C4 1.550 . S
O5 C11 1.412 . S
H6 C4 0.973 . S
C7 H0 0.929 . S
C7 C8 1.400 . S
C7 C9 1.364 . S
C8 C7 1.400 . S
C8 C12 1.377 . S
C9 C7 1.364 . S
C9 C10 1.374 . S
C10 H1 0.930 . S
C10 C9 1.374 . S
C10 C11 1.383 . S
C11 O5 1.412 . S
C11 C10 1.383 . S
C11 C12 1.394 . S
C12 H2 0.929 . S
C12 C8 1.377 . S
C12 C11 1.394 . S
H13 C20 0.929 . S
H14 C23 0.930 . S
H15 C25 0.929 . S
H16 C17 0.969 . S
C17 H16 0.969 . S
C17 O18 1.550 . S
C17 H19 0.973 . S
O18 C17 1.550 . S
O18 C24 1.412 . S
H19 C17 0.973 . S
C20 H13 0.929 . S
C20 C21 1.400 . S
C20 C22 1.364 . S
C21 C20 1.400 . S
C21 C25 1.377 . S
C22 C20 1.364 . S
C22 C23 1.374 . S
C23 H14 0.930 . S
C23 C22 1.374 . S
C23 C24 1.383 . S
C24 O18 1.412 . S
C24 C23 1.383 . S
C24 C25 1.394 . S
C25 H15 0.929 . S
C25 C21 1.377 . S
C25 C24 1.394 . S
H26 C33 0.929 . S
H27 C36 0.930 . S
H28 C38 0.929 . S
H29 C30 0.969 . S
C30 H29 0.969 . S
C30 O31 1.550 . S
C30 H32 0.973 . S
O31 C30 1.550 . S
O31 C37 1.412 . S
H32 C30 0.973 . S
C33 H26 0.929 . S
C33 C34 1.400 . S
C33 C35 1.364 . S
C34 C33 1.400 . S
C34 C38 1.377 . S
C35 C33 1.364 . S
C35 C36 1.374 . S
C36 H27 0.930 . S
C36 C35 1.374 . S
C36 C37 1.383 . S
C37 O31 1.412 . S
C37 C36 1.383 . S
C37 C38 1.394 . S
C38 H28 0.929 . S
C38 C34 1.377 . S
C38 C37 1.394 . S
H39 C46 0.929 . S
H40 C49 0.930 . S
H41 C51 0.929 . S
H42 C43 0.969 . S
C43 H42 0.969 . S
C43 O44 1.550 . S
C43 H45 0.973 . S
O44 C43 1.550 . S
O44 C50 1.412 . S
H45 C43 0.973 . S
C46 H39 0.929 . S
C46 C47 1.400 . S
C46 C48 1.364 . S
C47 C46 1.400 . S
C47 C51 1.377 . S
C48 C46 1.364 . S
C48 C49 1.374 . S
C49 H40 0.930 . S
C49 C48 1.374 . S
C49 C50 1.383 . S
C50 O44 1.412 . S
C50 C49 1.383 . S
C50 C51 1.394 . S
C51 H41 0.929 . S
C51 C47 1.377 . S
C51 C50 1.394 . S
H52 C59 0.929 . S
H53 C62 0.930 . S
H54 C64 0.929 . S
H55 C56 0.969 . S
C56 H55 0.969 . S
C56 O57 1.550 . S
C56 H58 0.973 . S
O57 C56 1.550 . S
O57 C63 1.412 . S
H58 C56 0.973 . S
C59 H52 0.929 . S
C59 C60 1.400 . S
C59 C61 1.364 . S
C60 C59 1.400 . S
C60 C64 1.377 . S
C61 C59 1.364 . S
C61 C62 1.374 . S
C62 H53 0.930 . S
C62 C61 1.374 . S
C62 C63 1.383 . S
C63 O57 1.412 . S
C63 C62 1.383 . S
C63 C64 1.394 . S
C64 H54 0.929 . S
C64 C60 1.377 . S
C64 C63 1.394 . S
H65 C72 0.929 . S
H66 C75 0.930 . S
H67 C77 0.929 . S
H68 C69 0.969 . S
C69 H68 0.969 . S
C69 O70 1.550 . S
C69 H71 0.973 . S
O70 C69 1.550 . S
O70 C76 1.412 . S
H71 C69 0.973 . S
C72 H65 0.929 . S
C72 C73 1.400 . S
C72 C74 1.364 . S
C73 C72 1.400 . S
C73 C77 1.377 . S
C74 C72 1.364 . S
C74 C75 1.374 . S
C75 H66 0.930 . S
C75 C74 1.374 . S
C75 C76 1.383 . S
C76 O70 1.412 . S
C76 C75 1.383 . S
C76 C77 1.394 . S
C77 H67 0.929 . S
C77 C73 1.377 . S
C77 C76 1.394 . S
H78 C85 0.929 . S
H79 C88 0.930 . S
H80 C90 0.929 . S
H81 C82 0.969 . S
C82 H81 0.969 . S
C82 O83 1.550 . S
C82 H84 0.973 . S
O83 C82 1.550 . S
O83 C89 1.412 . S
H84 C82 0.973 . S
C85 H78 0.929 . S
C85 C86 1.400 . S
C85 C87 1.364 . S
C86 C85 1.400 . S
C86 C90 1.377 . S
C87 C85 1.364 . S
C87 C88 1.374 . S
C88 H79 0.930 . S
C88 C87 1.374 . S
C88 C89 1.383 . S
C89 O83 1.412 . S
C89 C88 1.383 . S
C89 C90 1.394 . S
C90 H80 0.929 . S
C90 C86 1.377 . S
C90 C89 1.394 . S
H91 C98 0.929 . S
H92 C101 0.930 . S
H93 C103 0.929 . S
H94 C95 0.969 . S
C95 H94 0.969 . S
C95 O96 1.550 . S
C95 H97 0.973 . S
O96 C95 1.550 . S
O96 C102 1.412 . S
H97 C95 0.973 . S
C98 H91 0.929 . S
C98 C99 1.400 . S
C98 C100 1.364 . S
C99 C98 1.400 . S
C99 C103 1.377 . S
C100 C98 1.364 . S
C100 C101 1.374 . S
C101 H92 0.930 . S
C101 C100 1.374 . S
C101 C102 1.383 . S
C102 O96 1.412 . S
C102 C101 1.383 . S
C102 C103 1.394 . S
C103 H93 0.929 . S
C103 C99 1.377 . S
C103 C102 1.394 . S
Tb104 C113 2.764 . S
Tb104 O114 2.325 . S
Tb104 O117 2.303 . S
Tb104 O121 2.322 1_545 S
Tb104 O122 2.349 1_545 S
Tb104 O125 2.415 . S
Tb104 O126 2.399 . S
Tb105 O115 2.322 . S
Tb105 O116 2.349 1_655 S
Tb105 O118 2.415 1_545 S
Tb105 O119 2.399 . S
Tb105 O120 2.325 1_645 S
Tb105 O123 2.303 1_545 S
Tb105 C134 2.764 1_545 S
C106 O122 1.261 1_655 S
C106 O123 1.257 . S
C107 C110 1.358 . S
C107 C111 1.332 . S
C107 C113 1.504 . S
C108 C109 1.373 . S
C108 C112 1.308 . S
C109 C108 1.373 . S
C109 C110 1.429 . S
C109 H136 0.932 . S
C110 C107 1.358 . S
C110 C109 1.429 . S
C110 H137 0.930 . S
C111 C107 1.332 . S
C111 C112 1.394 . S
C111 H138 0.932 . S
C112 C108 1.308 . S
C112 C111 1.394 . S
C112 H139 0.929 . S
C113 Tb104 2.764 . S
C113 C107 1.504 . S
C113 O125 1.239 . S
C113 O126 1.263 . S
O114 Tb104 2.325 . S
O114 C124 1.236 1_455 S
O115 Tb105 2.322 . S
O115 C124 1.257 . S
O116 Tb105 2.349 1_455 S
O116 C127 1.261 . S
O117 Tb104 2.303 . S
O117 C127 1.257 . S
O118 Tb105 2.415 1_565 S
O118 C134 1.239 . S
O119 Tb105 2.399 . S
O119 C134 1.263 1_545 S
O120 Tb105 2.325 1_465 S
O120 C135 1.236 . S
O121 Tb104 2.322 1_565 S
O121 C135 1.257 . S
O122 Tb104 2.349 1_565 S
O122 C106 1.261 1_455 S
O123 Tb105 2.303 1_565 S
O123 C106 1.257 . S
C124 O114 1.236 1_655 S
C124 O115 1.257 . S
O125 Tb104 2.415 . S
O125 C113 1.239 . S
O126 Tb104 2.399 . S
O126 C113 1.263 . S
C127 O116 1.261 . S
C127 O117 1.257 . S
C128 C131 1.358 . S
C128 C132 1.332 . S
C128 C134 1.504 . S
C129 C130 1.373 . S
C129 C133 1.308 . S
C130 C129 1.373 . S
C130 C131 1.429 . S
C130 H140 0.932 . S
C131 C128 1.358 . S
C131 C130 1.429 . S
C131 H141 0.930 . S
C132 C128 1.332 . S
C132 C133 1.394 . S
C132 H142 0.932 . S
C133 C129 1.308 . S
C133 C132 1.394 . S
C133 H143 0.929 . S
C134 Tb105 2.764 1_565 S
C134 O118 1.239 . S
C134 O119 1.263 1_565 S
C134 C128 1.504 . S
C135 O120 1.236 . S
C135 O121 1.257 . S
H136 C109 0.932 . S
H137 C110 0.930 . S
H138 C111 0.932 . S
H139 C112 0.929 . S
H140 C130 0.932 . S
H141 C131 0.930 . S
H142 C132 0.932 . S
H143 C133 0.929 . S
Tb144 C153 2.764 . S
Tb144 O154 2.325 . S
Tb144 O157 2.303 . S
Tb144 O161 2.322 1_545 S
Tb144 O162 2.349 1_545 S
Tb144 O165 2.415 . S
Tb144 O166 2.399 . S
Tb145 O155 2.322 . S
Tb145 O156 2.349 1_556 S
Tb145 O158 2.415 1_545 S
Tb145 O159 2.399 1_545 S
Tb145 O160 2.325 1_546 S
Tb145 O163 2.303 1_545 S
Tb145 C174 2.764 1_545 S
C146 O162 1.261 1_556 S
C146 O163 1.257 . S
C147 C150 1.358 . S
C147 C151 1.332 . S
C147 C153 1.504 . S
C148 C149 1.373 . S
C148 C152 1.308 . S
C149 C148 1.373 . S
C149 C150 1.429 . S
C149 H176 0.932 . S
C150 C147 1.358 . S
C150 C149 1.429 . S
C150 H177 0.930 . S
C151 C147 1.332 . S
C151 C152 1.394 . S
C151 H178 0.932 . S
C152 C148 1.308 . S
C152 C151 1.394 . S
C152 H179 0.929 . S
C153 Tb144 2.764 . S
C153 C147 1.504 . S
C153 O165 1.239 . S
C153 O166 1.263 . S
O154 Tb144 2.325 . S
O154 C164 1.236 1_554 S
O155 Tb145 2.322 . S
O155 C164 1.257 . S
O156 Tb145 2.349 1_554 S
O156 C167 1.261 . S
O157 Tb144 2.303 . S
O157 C167 1.257 . S
O158 Tb145 2.415 1_565 S
O158 C174 1.239 . S
O159 Tb145 2.399 1_565 S
O159 C174 1.263 . S
O160 Tb145 2.325 1_564 S
O160 C175 1.236 . S
O161 Tb144 2.322 1_565 S
O161 C175 1.257 . S
O162 Tb144 2.349 1_565 S
O162 C146 1.261 1_554 S
O163 Tb145 2.303 1_565 S
O163 C146 1.257 . S
C164 O154 1.236 1_556 S
C164 O155 1.257 . S
O165 Tb144 2.415 . S
O165 C153 1.239 . S
O166 Tb144 2.399 . S
O166 C153 1.263 . S
C167 O156 1.261 . S
C167 O157 1.257 . S
C168 C171 1.358 . S
C168 C172 1.332 . S
C168 C174 1.504 . S
C169 C170 1.373 . S
C169 C173 1.308 . S
C170 C169 1.373 . S
C170 C171 1.429 . S
C170 H180 0.932 . S
C171 C168 1.358 . S
C171 C170 1.429 . S
C171 H181 0.930 . S
C172 C168 1.332 . S
C172 C173 1.394 . S
C172 H182 0.932 . S
C173 C169 1.308 . S
C173 C172 1.394 . S
C173 H183 0.929 . S
C174 Tb145 2.764 1_565 S
C174 O158 1.239 . S
C174 O159 1.263 . S
C174 C168 1.504 . S
C175 O160 1.236 . S
C175 O161 1.257 . S
H176 C149 0.932 . S
H177 C150 0.930 . S
H178 C151 0.932 . S
H179 C152 0.929 . S
H180 C170 0.932 . S
H181 C171 0.930 . S
H182 C172 0.932 . S
H183 C173 0.929 . S
Tb184 C193 2.764 . S
Tb184 O194 2.325 . S
Tb184 O197 2.303 . S
Tb184 O201 2.322 . S
Tb184 O202 2.349 . S
Tb184 O205 2.415 . S
Tb184 O206 2.399 . S
Tb185 O195 2.322 . S
Tb185 O196 2.349 . S
Tb185 O198 2.415 . S
Tb185 O199 2.399 . S
Tb185 O200 2.325 . S
Tb185 O203 2.303 . S
Tb185 C214 2.764 . S
C186 O202 1.261 . S
C186 O203 1.257 . S
C187 C190 1.358 . S
C187 C191 1.332 . S
C187 C193 1.504 . S
C188 C189 1.373 . S
C188 C192 1.308 . S
C189 C188 1.373 . S
C189 C190 1.429 . S
C189 H216 0.932 . S
C190 C187 1.358 . S
C190 C189 1.429 . S
C190 H217 0.930 . S
C191 C187 1.332 . S
C191 C192 1.394 . S
C191 H218 0.932 . S
C192 C188 1.308 . S
C192 C191 1.394 . S
C192 H219 0.929 . S
C193 Tb184 2.764 . S
C193 C187 1.504 . S
C193 O205 1.239 . S
C193 O206 1.263 . S
O194 Tb184 2.325 . S
O194 C204 1.236 . S
O195 Tb185 2.322 . S
O195 C204 1.257 . S
O196 Tb185 2.349 . S
O196 C207 1.261 . S
O197 Tb184 2.303 . S
O197 C207 1.257 . S
O198 Tb185 2.415 . S
O198 C214 1.239 . S
O199 Tb185 2.399 . S
O199 C214 1.263 . S
O200 Tb185 2.325 . S
O200 C215 1.236 . S
O201 Tb184 2.322 . S
O201 C215 1.257 . S
O202 Tb184 2.349 . S
O202 C186 1.261 . S
O203 Tb185 2.303 . S
O203 C186 1.257 . S
C204 O194 1.236 . S
C204 O195 1.257 . S
O205 Tb184 2.415 . S
O205 C193 1.239 . S
O206 Tb184 2.399 . S
O206 C193 1.263 . S
C207 O196 1.261 . S
C207 O197 1.257 . S
C208 C211 1.358 . S
C208 C212 1.332 . S
C208 C214 1.504 . S
C209 C210 1.373 . S
C209 C213 1.308 . S
C210 C209 1.373 . S
C210 C211 1.429 . S
C210 H220 0.932 . S
C211 C208 1.358 . S
C211 C210 1.429 . S
C211 H221 0.930 . S
C212 C208 1.332 . S
C212 C213 1.394 . S
C212 H222 0.932 . S
C213 C209 1.308 . S
C213 C212 1.394 . S
C213 H223 0.929 . S
C214 Tb185 2.764 . S
C214 O198 1.239 . S
C214 O199 1.263 . S
C214 C208 1.504 . S
C215 O200 1.236 . S
C215 O201 1.257 . S
H216 C189 0.932 . S
H217 C190 0.930 . S
H218 C191 0.932 . S
H219 C192 0.929 . S
H220 C210 0.932 . S
H221 C211 0.930 . S
H222 C212 0.932 . S
H223 C213 0.929 . S
Tb224 C233 2.753 1_454 S
Tb224 O234 2.325 1_455 S
Tb224 O237 2.303 . S
Tb224 O241 2.322 . S
Tb224 O242 2.349 1_554 S
Tb224 O245 2.415 1_455 S
Tb224 O246 2.399 1_554 S
Tb225 O235 2.322 1_455 S
Tb225 O236 2.349 . S
Tb225 O238 2.415 . S
Tb225 O239 2.399 . S
Tb225 O240 2.325 . S
Tb225 O243 2.303 . S
Tb225 C254 2.764 . S
C226 O242 1.261 . S
C226 O243 1.257 1_556 S
C227 C230 1.358 . S
C227 C231 1.332 1_556 S
C227 C233 1.515 . S
C228 C229 1.373 . S
C228 C232 1.308 . S
C229 C228 1.373 . S
C229 C230 1.429 . S
C229 H256 0.932 . S
C230 C227 1.358 . S
C230 C229 1.429 . S
C230 H257 0.930 . S
C231 C227 1.332 1_554 S
C231 C232 1.394 1_554 S
C231 H258 0.932 . S
C232 C228 1.308 . S
C232 C231 1.394 1_556 S
C232 H259 0.916 1_556 S
C233 Tb224 2.753 1_656 S
C233 C227 1.515 . S
C233 O245 1.210 1_556 S
C233 O246 1.280 1_655 S
O234 Tb224 2.325 1_655 S
O234 C244 1.236 . S
O235 Tb225 2.322 1_655 S
O235 C244 1.257 . S
O236 Tb225 2.349 . S
O236 C247 1.261 . S
O237 Tb224 2.303 . S
O237 C247 1.257 . S
O238 Tb225 2.415 . S
O238 C254 1.239 . S
O239 Tb225 2.399 . S
O239 C254 1.263 . S
O240 Tb225 2.325 . S
O240 C255 1.236 . S
O241 Tb224 2.322 . S
O241 C255 1.257 . S
O242 Tb224 2.349 1_556 S
O242 C226 1.261 . S
O243 Tb225 2.303 . S
O243 C226 1.257 1_554 S
C244 O234 1.236 . S
C244 O235 1.257 . S
O245 Tb224 2.415 1_655 S
O245 C233 1.210 1_554 S
O246 Tb224 2.399 1_556 S
O246 C233 1.280 1_455 S
C247 O236 1.261 . S
C247 O237 1.257 . S
C248 C251 1.358 . S
C248 C252 1.332 . S
C248 C254 1.504 . S
C249 C250 1.373 . S
C249 C253 1.308 . S
C250 C249 1.373 . S
C250 C251 1.429 . S
C250 H260 0.932 . S
C251 C248 1.358 . S
C251 C250 1.429 . S
C251 H261 0.930 . S
C252 C248 1.332 . S
C252 C253 1.394 . S
C252 H262 0.932 . S
C253 C249 1.308 . S
C253 C252 1.394 . S
C253 H263 0.929 . S
C254 Tb225 2.764 . S
C254 O238 1.239 . S
C254 O239 1.263 . S
C254 C248 1.504 . S
C255 O240 1.236 . S
C255 O241 1.257 . S
H256 C229 0.932 . S
H257 C230 0.930 . S
H258 C231 0.932 . S
H259 C232 0.916 1_554 S
H260 C250 0.932 . S
H261 C251 0.930 . S
H262 C252 0.932 . S
H263 C253 0.929 . S
H264 C272 0.929 . S
H265 C274 0.930 . S
H266 C276 0.930 . S
H267 C279 0.929 . S
H268 C282 0.930 . S
H269 C284 0.960 . S
H270 C284 0.960 . S
H271 C284 0.960 . S
C272 H264 0.929 . S
C272 C273 1.377 . S
C272 C274 1.384 . S
C273 C272 1.377 . S
C273 C279 1.390 . S
C274 H265 0.930 . S
C274 C272 1.384 . S
C274 C275 1.372 . S
C275 C274 1.372 . S
C275 C276 1.400 . S
C275 C280 1.490 . S
C276 H266 0.930 . S
C276 C275 1.400 . S
C276 C279 1.386 . S
H277 C293 0.930 . S
H278 C294 0.931 . S
C279 H267 0.929 . S
C279 C273 1.390 . S
C279 C276 1.386 . S
C280 C275 1.490 . S
C280 C282 1.395 . S
C280 C283 1.403 . S
H281 C287 0.930 . S
C282 H268 0.930 . S
C282 C280 1.395 . S
C282 C285 1.403 . S
C283 C280 1.403 . S
C283 C284 1.524 . S
C283 C287 1.400 . S
C284 H269 0.960 . S
C284 H270 0.960 . S
C284 H271 0.960 . S
C284 C283 1.524 . S
C285 C282 1.403 . S
C285 C286 1.392 . S
C285 C289 1.495 . S
C286 C285 1.392 . S
C286 C287 1.385 . S
C286 C288 1.478 . S
C287 H281 0.930 . S
C287 C283 1.400 . S
C287 C286 1.385 . S
C288 C286 1.478 . S
C288 C290 1.381 . S
C288 C294 1.383 . S
C289 C285 1.495 . S
C289 H295 0.959 . S
C289 H296 0.961 . S
C289 H297 0.960 . S
C290 C288 1.381 . S
C290 C291 1.394 . S
C290 H298 0.930 . S
C291 C290 1.394 . S
C291 C292 1.383 . S
C291 H299 0.929 . S
C292 C291 1.383 . S
C292 C293 1.377 . S
C293 H277 0.930 . S
C293 C292 1.377 . S
C293 C294 1.379 . S
C294 H278 0.931 . S
C294 C288 1.383 . S
C294 C293 1.379 . S
H295 C289 0.959 . S
H296 C289 0.961 . S
H297 C289 0.960 . S
H298 C290 0.930 . S
H299 C291 0.929 . S
H300 C308 0.929 . S
H301 C310 0.930 . S
H302 C312 0.930 . S
H303 C315 0.929 . S
H304 C318 0.930 . S
H305 C320 0.960 . S
H306 C320 0.960 . S
H307 C320 0.960 . S
C308 H300 0.929 . S
C308 C309 1.377 . S
C308 C310 1.384 . S
C309 C308 1.377 . S
C309 C315 1.390 . S
C310 H301 0.930 . S
C310 C308 1.384 . S
C310 C311 1.372 . S
C311 C310 1.372 . S
C311 C312 1.400 . S
C311 C316 1.490 . S
C312 H302 0.930 . S
C312 C311 1.400 . S
C312 C315 1.386 . S
H313 C329 0.930 . S
H314 C330 0.931 . S
C315 H303 0.929 . S
C315 C309 1.390 . S
C315 C312 1.386 . S
C316 C311 1.490 . S
C316 C318 1.395 . S
C316 C319 1.403 . S
H317 C323 0.930 . S
C318 H304 0.930 . S
C318 C316 1.395 . S
C318 C321 1.403 . S
C319 C316 1.403 . S
C319 C320 1.524 . S
C319 C323 1.400 . S
C320 H305 0.960 . S
C320 H306 0.960 . S
C320 H307 0.960 . S
C320 C319 1.524 . S
C321 C318 1.403 . S
C321 C322 1.392 . S
C321 C325 1.495 . S
C322 C321 1.392 . S
C322 C323 1.385 . S
C322 C324 1.478 . S
C323 H317 0.930 . S
C323 C319 1.400 . S
C323 C322 1.385 . S
C324 C322 1.478 . S
C324 C326 1.381 . S
C324 C330 1.383 . S
C325 C321 1.495 . S
C325 H331 0.959 . S
C325 H332 0.961 . S
C325 H333 0.960 . S
C326 C324 1.381 . S
C326 C327 1.394 . S
C326 H334 0.930 . S
C327 C326 1.394 . S
C327 C328 1.383 . S
C327 H335 0.929 . S
C328 C327 1.383 . S
C328 C329 1.377 . S
C329 H313 0.930 . S
C329 C328 1.377 . S
C329 C330 1.379 . S
C330 H314 0.931 . S
C330 C324 1.383 . S
C330 C329 1.379 . S
H331 C325 0.959 . S
H332 C325 0.961 . S
H333 C325 0.960 . S
H334 C326 0.930 . S
H335 C327 0.929 . S
H336 C344 0.929 . S
H337 C346 0.930 . S
H338 C348 0.930 . S
H339 C351 0.929 . S
H340 C354 0.930 . S
H341 C356 0.960 . S
H342 C356 0.960 . S
H343 C356 0.960 . S
C344 H336 0.929 . S
C344 C345 1.377 . S
C344 C346 1.384 . S
C345 C344 1.377 . S
C345 C351 1.390 . S
C346 H337 0.930 . S
C346 C344 1.384 . S
C346 C347 1.372 . S
C347 C346 1.372 . S
C347 C348 1.400 . S
C347 C352 1.490 . S
C348 H338 0.930 . S
C348 C347 1.400 . S
C348 C351 1.386 . S
H349 C365 0.930 . S
H350 C366 0.931 . S
C351 H339 0.929 . S
C351 C345 1.390 . S
C351 C348 1.386 . S
C352 C347 1.490 . S
C352 C354 1.395 . S
C352 C355 1.403 . S
H353 C359 0.930 . S
C354 H340 0.930 . S
C354 C352 1.395 . S
C354 C357 1.403 . S
C355 C352 1.403 . S
C355 C356 1.524 . S
C355 C359 1.400 . S
C356 H341 0.960 . S
C356 H342 0.960 . S
C356 H343 0.960 . S
C356 C355 1.524 . S
C357 C354 1.403 . S
C357 C358 1.392 . S
C357 C361 1.495 . S
C358 C357 1.392 . S
C358 C359 1.385 . S
C358 C360 1.478 . S
C359 H353 0.930 . S
C359 C355 1.400 . S
C359 C358 1.385 . S
C360 C358 1.478 . S
C360 C362 1.381 . S
C360 C366 1.383 . S
C361 C357 1.495 . S
C361 H367 0.959 . S
C361 H368 0.961 . S
C361 H369 0.960 . S
C362 C360 1.381 . S
C362 C363 1.394 . S
C362 H370 0.930 . S
C363 C362 1.394 . S
C363 C364 1.383 . S
C363 H371 0.929 . S
C364 C363 1.383 . S
C364 C365 1.377 . S
C365 H349 0.930 . S
C365 C364 1.377 . S
C365 C366 1.379 . S
C366 H350 0.931 . S
C366 C360 1.383 . S
C366 C365 1.379 . S
H367 C361 0.959 . S
H368 C361 0.961 . S
H369 C361 0.960 . S
H370 C362 0.930 . S
H371 C363 0.929 . S
H372 C380 0.929 . S
H373 C382 0.930 . S
H374 C384 0.930 . S
H375 C387 0.929 . S
H376 C390 0.930 . S
H377 C392 0.960 . S
H378 C392 0.960 . S
H379 C392 0.960 . S
C380 H372 0.929 . S
C380 C381 1.377 . S
C380 C382 1.384 . S
C381 C380 1.377 . S
C381 C387 1.390 . S
C382 H373 0.930 . S
C382 C380 1.384 . S
C382 C383 1.372 . S
C383 C382 1.372 . S
C383 C384 1.400 . S
C383 C388 1.490 . S
C384 H374 0.930 . S
C384 C383 1.400 . S
C384 C387 1.386 . S
H385 C401 0.930 . S
H386 C402 0.931 . S
C387 H375 0.929 . S
C387 C381 1.390 . S
C387 C384 1.386 . S
C388 C383 1.490 . S
C388 C390 1.395 . S
C388 C391 1.403 . S
H389 C395 0.930 . S
C390 H376 0.930 . S
C390 C388 1.395 . S
C390 C393 1.403 . S
C391 C388 1.403 . S
C391 C392 1.524 . S
C391 C395 1.400 . S
C392 H377 0.960 . S
C392 H378 0.960 . S
C392 H379 0.960 . S
C392 C391 1.524 . S
C393 C390 1.403 . S
C393 C394 1.392 . S
C393 C397 1.495 1_655 S
C394 C393 1.392 . S
C394 C395 1.385 . S
C394 C396 1.478 . S
C395 H389 0.930 . S
C395 C391 1.400 . S
C395 C394 1.385 . S
C396 C394 1.478 . S
C396 C398 1.367 1_655 S
C396 C402 1.383 . S
C397 C393 1.495 1_455 S
C397 H403 0.959 . S
C397 H404 0.961 . S
C397 H405 0.960 . S
C398 C396 1.367 1_455 S
C398 C399 1.401 . S
C398 H406 0.938 . S
C399 C398 1.401 . S
C399 C400 1.383 1_455 S
C399 H407 0.929 . S
C400 C399 1.383 1_655 S
C400 C401 1.377 . S
C401 H385 0.930 . S
C401 C400 1.377 . S
C401 C402 1.379 . S
C402 H386 0.931 . S
C402 C396 1.383 . S
C402 C401 1.379 . S
H403 C397 0.959 . S
H404 C397 0.961 . S
H405 C397 0.960 . S
H406 C398 0.938 . S
H407 C399 0.929 . S
H408 C416 0.929 . S
H409 C418 0.930 . S
H410 C420 0.930 . S
H411 C423 0.929 . S
H412 C426 0.930 . S
H413 C428 0.960 . S
H414 C428 0.960 . S
H415 C428 0.960 . S
C416 H408 0.929 . S
C416 C417 1.377 . S
C416 C418 1.384 . S
C417 C416 1.377 . S
C417 C423 1.390 . S
C418 H409 0.930 . S
C418 C416 1.384 . S
C418 C419 1.372 . S
C419 C418 1.372 . S
C419 C420 1.400 . S
C419 C424 1.490 . S
C420 H410 0.930 . S
C420 C419 1.400 . S
C420 C423 1.386 . S
H421 C437 0.930 . S
H422 C438 0.931 . S
C423 H411 0.929 . S
C423 C417 1.390 . S
C423 C420 1.386 . S
C424 C419 1.490 . S
C424 C426 1.395 . S
C424 C427 1.403 . S
H425 C431 0.930 . S
C426 H412 0.930 . S
C426 C424 1.395 . S
C426 C429 1.403 . S
C427 C424 1.403 . S
C427 C428 1.524 . S
C427 C431 1.400 . S
C428 H413 0.960 . S
C428 H414 0.960 . S
C428 H415 0.960 . S
C428 C427 1.524 . S
C429 C426 1.403 . S
C429 C430 1.392 . S
C429 C433 1.495 . S
C430 C429 1.392 . S
C430 C431 1.385 . S
C430 C432 1.478 . S
C431 H425 0.930 . S
C431 C427 1.400 . S
C431 C430 1.385 . S
C432 C430 1.478 . S
C432 C434 1.381 . S
C432 C438 1.383 . S
C433 C429 1.495 . S
C433 H439 0.959 . S
C433 H440 0.961 . S
C433 H441 0.960 . S
C434 C432 1.381 . S
C434 C435 1.394 . S
C434 H442 0.930 . S
C435 C434 1.394 . S
C435 C436 1.383 . S
C435 H443 0.929 . S
C436 C435 1.383 . S
C436 C437 1.377 . S
C437 H421 0.930 . S
C437 C436 1.377 . S
C437 C438 1.379 . S
C438 H422 0.931 . S
C438 C432 1.383 . S
C438 C437 1.379 . S
H439 C433 0.959 . S
H440 C433 0.961 . S
H441 C433 0.960 . S
H442 C434 0.930 . S
H443 C435 0.929 . S
H444 C452 0.929 . S
H445 C454 0.930 . S
H446 C456 0.930 . S
H447 C459 0.929 . S
H448 C462 0.930 . S
H449 C464 0.960 . S
H450 C464 0.960 . S
H451 C464 0.960 . S
C452 H444 0.929 . S
C452 C453 1.377 . S
C452 C454 1.384 . S
C453 C452 1.377 . S
C453 C459 1.390 . S
C454 H445 0.930 . S
C454 C452 1.384 . S
C454 C455 1.372 . S
C455 C454 1.372 . S
C455 C456 1.400 . S
C455 C460 1.490 . S
C456 H446 0.930 . S
C456 C455 1.400 . S
C456 C459 1.386 . S
H457 C473 0.930 . S
H458 C474 0.931 . S
C459 H447 0.929 . S
C459 C453 1.390 . S
C459 C456 1.386 . S
C460 C455 1.490 . S
C460 C462 1.395 . S
C460 C463 1.403 . S
H461 C467 0.930 . S
C462 H448 0.930 . S
C462 C460 1.395 . S
C462 C465 1.403 . S
C463 C460 1.403 . S
C463 C464 1.524 . S
C463 C467 1.400 . S
C464 H449 0.960 . S
C464 H450 0.960 . S
C464 H451 0.960 . S
C464 C463 1.524 . S
C465 C462 1.403 . S
C465 C466 1.392 . S
C465 C469 1.495 . S
C466 C465 1.392 . S
C466 C467 1.385 . S
C466 C468 1.478 . S
C467 H461 0.930 . S
C467 C463 1.400 . S
C467 C466 1.385 . S
C468 C466 1.478 . S
C468 C470 1.381 . S
C468 C474 1.383 . S
C469 C465 1.495 . S
C469 H475 0.959 . S
C469 H476 0.961 . S
C469 H477 0.960 . S
C470 C468 1.381 . S
C470 C471 1.394 . S
C470 H478 0.930 . S
C471 C470 1.394 . S
C471 C472 1.383 . S
C471 H479 0.929 . S
C472 C471 1.383 . S
C472 C473 1.377 . S
C473 H457 0.930 . S
C473 C472 1.377 . S
C473 C474 1.379 . S
C474 H458 0.931 . S
C474 C468 1.383 . S
C474 C473 1.379 . S
H475 C469 0.959 . S
H476 C469 0.961 . S
H477 C469 0.960 . S
H478 C470 0.930 . S
H479 C471 0.929 . S
H480 C488 0.929 . S
H481 C490 0.930 . S
H482 C492 0.930 . S
H483 C495 0.929 . S
H484 C498 0.930 . S
H485 C500 0.960 . S
H486 C500 0.960 . S
H487 C500 0.960 . S
C488 H480 0.929 . S
C488 C489 1.377 . S
C488 C490 1.384 . S
C489 C488 1.377 . S
C489 C495 1.390 . S
C490 H481 0.930 . S
C490 C488 1.384 . S
C490 C491 1.372 . S
C491 C490 1.372 . S
C491 C492 1.400 . S
C491 C496 1.490 . S
C492 H482 0.930 . S
C492 C491 1.400 . S
C492 C495 1.386 . S
H493 C509 0.930 . S
H494 C510 0.931 . S
C495 H483 0.929 . S
C495 C489 1.390 . S
C495 C492 1.386 . S
C496 C491 1.490 . S
C496 C498 1.395 . S
C496 C499 1.403 . S
H497 C503 0.930 . S
C498 H484 0.930 . S
C498 C496 1.395 . S
C498 C501 1.403 . S
C499 C496 1.403 . S
C499 C500 1.524 . S
C499 C503 1.400 . S
C500 H485 0.960 . S
C500 H486 0.960 . S
C500 H487 0.960 . S
C500 C499 1.524 . S
C501 C498 1.403 . S
C501 C502 1.392 . S
C501 C505 1.495 . S
C502 C501 1.392 . S
C502 C503 1.385 . S
C502 C504 1.478 . S
C503 H497 0.930 . S
C503 C499 1.400 . S
C503 C502 1.385 . S
C504 C502 1.478 . S
C504 C506 1.381 . S
C504 C510 1.383 1_556 S
C505 C501 1.495 . S
C505 H511 0.959 . S
C505 H512 0.961 1_556 S
C505 H513 0.960 . S
C506 C504 1.381 . S
C506 C507 1.394 . S
C506 H514 0.930 . S
C507 C506 1.394 . S
C507 C508 1.383 1_556 S
C507 H515 0.929 . S
C508 C507 1.383 1_554 S
C508 C509 1.377 . S
C509 H493 0.930 . S
C509 C508 1.377 . S
C509 C510 1.379 . S
C510 H494 0.931 . S
C510 C504 1.383 1_554 S
C510 C509 1.379 . S
H511 C505 0.959 . S
H512 C505 0.961 1_554 S
H513 C505 0.960 . S
H514 C506 0.930 . S
H515 C507 0.929 . S
H516 C524 0.929 . S
H517 C526 0.930 . S
H518 C528 0.930 . S
H519 C531 0.929 . S
H520 C534 0.930 . S
H521 C536 0.960 . S
H522 C536 0.960 . S
H523 C536 0.960 . S
C524 H516 0.929 . S
C524 C525 1.377 . S
C524 C526 1.384 . S
C525 C524 1.377 . S
C525 C531 1.390 . S
C526 H517 0.930 . S
C526 C524 1.384 . S
C526 C527 1.372 . S
C527 C526 1.372 . S
C527 C528 1.400 . S
C527 C532 1.490 . S
C528 H518 0.930 . S
C528 C527 1.400 . S
C528 C531 1.386 . S
H529 C545 0.930 . S
H530 C546 0.931 . S
C531 H519 0.929 . S
C531 C525 1.390 . S
C531 C528 1.386 . S
C532 C527 1.490 . S
C532 C534 1.395 . S
C532 C535 1.403 . S
H533 C539 0.930 . S
C534 H520 0.930 . S
C534 C532 1.395 . S
C534 C537 1.403 . S
C535 C532 1.403 . S
C535 C536 1.524 . S
C535 C539 1.400 . S
C536 H521 0.960 . S
C536 H522 0.960 . S
C536 H523 0.960 . S
C536 C535 1.524 . S
C537 C534 1.403 . S
C537 C538 1.392 . S
C537 C541 1.495 . S
C538 C537 1.392 . S
C538 C539 1.385 . S
C538 C540 1.478 . S
C539 H533 0.930 . S
C539 C535 1.400 . S
C539 C538 1.385 . S
C540 C538 1.478 . S
C540 C542 1.381 . S
C540 C546 1.383 . S
C541 C537 1.495 . S
C541 H547 0.959 . S
C541 H548 0.961 . S
C541 H549 0.960 . S
C542 C540 1.381 . S
C542 C543 1.394 . S
C542 H550 0.930 . S
C543 C542 1.394 . S
C543 C544 1.383 . S
C543 H551 0.929 . S
C544 C543 1.383 . S
C544 C545 1.377 . S
C545 H529 0.930 . S
C545 C544 1.377 . S
C545 C546 1.379 . S
C546 H530 0.931 . S
C546 C540 1.383 . S
C546 C545 1.379 . S
H547 C541 0.959 . S
H548 C541 0.961 . S
H549 C541 0.960 . S
H550 C542 0.930 . S
H551 C543 0.929 . S
H552 C560 0.929 . S
H553 C562 0.930 . S
H554 C564 0.930 . S
H555 C567 0.929 . S
H556 C570 0.930 . S
H557 C572 0.960 . S
H558 C572 0.960 . S
H559 C572 0.960 . S
C560 H552 0.929 . S
C560 C561 1.377 . S
C560 C562 1.384 . S
C561 C560 1.377 . S
C561 C567 1.390 . S
C562 H553 0.930 . S
C562 C560 1.384 . S
C562 C563 1.372 . S
C563 C562 1.372 . S
C563 C564 1.400 . S
C563 C568 1.490 . S
C564 H554 0.930 . S
C564 C563 1.400 . S
C564 C567 1.386 . S
H565 C581 0.930 . S
H566 C582 0.931 . S
C567 H555 0.929 . S
C567 C561 1.390 . S
C567 C564 1.386 . S
C568 C563 1.490 . S
C568 C570 1.395 . S
C568 C571 1.403 . S
H569 C575 0.930 . S
C570 H556 0.930 . S
C570 C568 1.395 . S
C570 C573 1.403 . S
C571 C568 1.403 . S
C571 C572 1.524 . S
C571 C575 1.400 . S
C572 H557 0.960 . S
C572 H558 0.960 . S
C572 H559 0.960 . S
C572 C571 1.524 . S
C573 C570 1.403 . S
C573 C574 1.392 . S
C573 C577 1.495 . S
C574 C573 1.392 . S
C574 C575 1.385 . S
C574 C576 1.478 . S
C575 H569 0.930 . S
C575 C571 1.400 . S
C575 C574 1.385 . S
C576 C574 1.478 . S
C576 C578 1.381 . S
C576 C582 1.383 . S
C577 C573 1.495 . S
C577 H583 0.959 . S
C577 H584 0.961 . S
C577 H585 0.960 . S
C578 C576 1.381 . S
C578 C579 1.394 . S
C578 H586 0.930 . S
C579 C578 1.394 . S
C579 C580 1.383 . S
C579 H587 0.929 . S
C580 C579 1.383 . S
C580 C581 1.377 . S
C581 H565 0.930 . S
C581 C580 1.377 . S
C581 C582 1.379 . S
C582 H566 0.931 . S
C582 C576 1.383 . S
C582 C581 1.379 . S
H583 C577 0.959 . S
H584 C577 0.961 . S
H585 C577 0.960 . S
H586 C578 0.930 . S
H587 C579 0.929 . S
H588 C596 0.929 . S
H589 C598 0.930 . S
H590 C600 0.930 . S
H591 C603 0.929 . S
H592 C606 0.930 . S
H593 C608 0.960 . S
H594 C608 0.960 . S
H595 C608 0.960 . S
C596 H588 0.929 . S
C596 C597 1.377 . S
C596 C598 1.384 . S
C597 C596 1.377 . S
C597 C603 1.390 . S
C598 H589 0.930 . S
C598 C596 1.384 . S
C598 C599 1.372 . S
C599 C598 1.372 . S
C599 C600 1.400 . S
C599 C604 1.490 . S
C600 H590 0.930 . S
C600 C599 1.400 . S
C600 C603 1.386 . S
H601 C617 0.930 . S
H602 C618 0.931 . S
C603 H591 0.929 . S
C603 C597 1.390 . S
C603 C600 1.386 . S
C604 C599 1.490 . S
C604 C606 1.395 . S
C604 C607 1.403 . S
H605 C611 0.930 . S
C606 H592 0.930 . S
C606 C604 1.395 . S
C606 C609 1.403 . S
C607 C604 1.403 . S
C607 C608 1.524 . S
C607 C611 1.400 . S
C608 H593 0.960 . S
C608 H594 0.960 . S
C608 H595 0.960 . S
C608 C607 1.524 . S
C609 C606 1.403 . S
C609 C610 1.392 . S
C609 C613 1.495 . S
C610 C609 1.392 . S
C610 C611 1.385 . S
C610 C612 1.478 . S
C611 H605 0.930 . S
C611 C607 1.400 . S
C611 C610 1.385 . S
C612 C610 1.478 . S
C612 C614 1.381 . S
C612 C618 1.383 . S
C613 C609 1.495 . S
C613 H619 0.959 . S
C613 H620 0.961 . S
C613 H621 0.960 . S
C614 C612 1.381 . S
C614 C615 1.394 . S
C614 H622 0.930 . S
C615 C614 1.394 . S
C615 C616 1.383 . S
C615 H623 0.929 1_556 S
C616 C615 1.383 . S
C616 C617 1.377 . S
C617 H601 0.930 . S
C617 C616 1.377 . S
C617 C618 1.379 . S
C618 H602 0.931 . S
C618 C612 1.383 . S
C618 C617 1.379 . S
H619 C613 0.959 . S
H620 C613 0.961 . S
H621 C613 0.960 . S
H622 C614 0.930 . S
H623 C615 0.929 1_554 S
H624 C632 0.929 . S
H625 C634 0.930 . S
H626 C636 0.930 . S
H627 C639 0.929 . S
H628 C642 0.930 . S
H629 C644 0.960 1_455 S
H630 C644 0.960 . S
H631 C644 0.960 . S
C632 H624 0.929 . S
C632 C633 1.377 . S
C632 C634 1.384 . S
C633 C632 1.377 . S
C633 C639 1.390 . S
C634 H625 0.930 . S
C634 C632 1.384 . S
C634 C635 1.372 . S
C635 C634 1.372 . S
C635 C636 1.400 . S
C635 C640 1.490 . S
C636 H626 0.930 . S
C636 C635 1.400 . S
C636 C639 1.386 . S
H637 C653 0.930 . S
H638 C654 0.931 . S
C639 H627 0.929 . S
C639 C633 1.390 . S
C639 C636 1.386 . S
C640 C635 1.490 . S
C640 C642 1.395 . S
C640 C643 1.403 . S
H641 C647 0.930 . S
C642 H628 0.930 . S
C642 C640 1.395 . S
C642 C645 1.403 . S
C643 C640 1.403 . S
C643 C644 1.524 . S
C643 C647 1.400 . S
C644 H629 0.960 1_655 S
C644 H630 0.960 . S
C644 H631 0.960 . S
C644 C643 1.524 . S
C645 C642 1.403 . S
C645 C646 1.392 . S
C645 C649 1.495 . S
C646 C645 1.392 . S
C646 C647 1.385 . S
C646 C648 1.478 . S
C647 H641 0.930 . S
C647 C643 1.400 . S
C647 C646 1.385 . S
C648 C646 1.478 . S
C648 C650 1.381 . S
C648 C654 1.383 . S
C649 C645 1.495 . S
C649 H655 0.959 . S
C649 H656 0.961 . S
C649 H657 0.960 . S
C650 C648 1.381 . S
C650 C651 1.394 . S
C650 H658 0.930 . S
C651 C650 1.394 . S
C651 C652 1.383 . S
C651 H659 0.929 . S
C652 C651 1.383 . S
C652 C653 1.377 . S
C653 H637 0.930 . S
C653 C652 1.377 . S
C653 C654 1.379 . S
C654 H638 0.931 . S
C654 C648 1.383 . S
C654 C653 1.379 . S
H655 C649 0.959 . S
H656 C649 0.961 . S
H657 C649 0.960 . S
H658 C650 0.930 . S
H659 C651 0.929 . S
H660 C668 0.929 . S
H661 C670 0.930 . S
H662 C672 0.930 . S
H663 C675 0.929 . S
H664 C678 0.930 . S
H665 C680 0.960 . S
H666 C680 0.960 . S
H667 C680 0.960 . S
C668 H660 0.929 . S
C668 C669 1.377 . S
C668 C670 1.384 . S
C669 C668 1.377 . S
C669 C675 1.390 . S
C670 H661 0.930 . S
C670 C668 1.384 . S
C670 C671 1.372 . S
C671 C670 1.372 . S
C671 C672 1.400 . S
C671 C676 1.490 . S
C672 H662 0.930 . S
C672 C671 1.400 . S
C672 C675 1.386 . S
H673 C689 0.930 . S
H674 C690 0.931 . S
C675 H663 0.929 . S
C675 C669 1.390 . S
C675 C672 1.386 . S
C676 C671 1.490 . S
C676 C678 1.395 . S
C676 C679 1.403 . S
H677 C683 0.930 . S
C678 H664 0.930 . S
C678 C676 1.395 . S
C678 C681 1.403 . S
C679 C676 1.403 . S
C679 C680 1.524 . S
C679 C683 1.400 . S
C680 H665 0.960 . S
C680 H666 0.960 . S
C680 H667 0.960 . S
C680 C679 1.524 . S
C681 C678 1.403 . S
C681 C682 1.392 . S
C681 C685 1.495 . S
C682 C681 1.392 . S
C682 C683 1.385 . S
C682 C684 1.478 . S
C683 H677 0.930 . S
C683 C679 1.400 . S
C683 C682 1.385 . S
C684 C682 1.478 . S
C684 C686 1.381 . S
C684 C690 1.383 . S
C685 C681 1.495 . S
C685 H691 0.959 . S
C685 H692 0.961 . S
C685 H693 0.960 . S
C686 C684 1.381 . S
C686 C687 1.394 . S
C686 H694 0.930 . S
C687 C686 1.394 . S
C687 C688 1.383 . S
C687 H695 0.929 . S
C688 C687 1.383 . S
C688 C689 1.377 . S
C689 H673 0.930 . S
C689 C688 1.377 . S
C689 C690 1.379 . S
C690 H674 0.931 . S
C690 C684 1.383 . S
C690 C689 1.379 . S
H691 C685 0.959 . S
H692 C685 0.961 . S
H693 C685 0.960 . S
H694 C686 0.930 . S
H695 C687 0.929 . S
H696 C704 0.929 . S
H697 C706 0.930 . S
H698 C708 0.930 . S
H699 C711 0.929 . S
H700 C714 0.930 . S
H701 C716 0.960 . S
H702 C716 0.960 . S
H703 C716 0.960 . S
C704 H696 0.929 . S
C704 C705 1.377 . S
C704 C706 1.384 . S
C705 C704 1.377 . S
C705 C711 1.390 . S
C706 H697 0.930 . S
C706 C704 1.384 . S
C706 C707 1.372 . S
C707 C706 1.372 . S
C707 C708 1.400 . S
C707 C712 1.490 . S
C708 H698 0.930 . S
C708 C707 1.400 . S
C708 C711 1.386 . S
H709 C725 0.930 . S
H710 C726 0.931 . S
C711 H699 0.929 . S
C711 C705 1.390 . S
C711 C708 1.386 . S
C712 C707 1.490 . S
C712 C714 1.395 . S
C712 C715 1.403 . S
H713 C719 0.930 . S
C714 H700 0.930 . S
C714 C712 1.395 . S
C714 C717 1.403 . S
C715 C712 1.403 . S
C715 C716 1.524 . S
C715 C719 1.400 . S
C716 H701 0.960 . S
C716 H702 0.960 . S
C716 H703 0.960 . S
C716 C715 1.524 . S
C717 C714 1.403 . S
C717 C718 1.392 . S
C717 C721 1.495 . S
C718 C717 1.392 . S
C718 C719 1.385 . S
C718 C720 1.478 . S
C719 H713 0.930 . S
C719 C715 1.400 . S
C719 C718 1.385 . S
C720 C718 1.478 . S
C720 C722 1.381 . S
C720 C726 1.383 . S
C721 C717 1.495 . S
C721 H727 0.959 . S
C721 H728 0.961 . S
C721 H729 0.960 . S
C722 C720 1.381 . S
C722 C723 1.394 . S
C722 H730 0.930 . S
C723 C722 1.394 . S
C723 C724 1.383 . S
C723 H731 0.929 . S
C724 C723 1.383 . S
C724 C725 1.377 . S
C725 H709 0.930 . S
C725 C724 1.377 . S
C725 C726 1.379 . S
C726 H710 0.931 . S
C726 C720 1.383 . S
C726 C725 1.379 . S
H727 C721 0.959 . S
H728 C721 0.961 . S
H729 C721 0.960 . S
H730 C722 0.930 . S
H731 C723 0.929 . S
H732 C740 0.929 . S
H733 C742 0.930 . S
H734 C744 0.930 . S
H735 C747 0.929 . S
H736 C750 0.930 . S
H737 C752 0.960 . S
H738 C752 0.960 . S
H739 C752 0.960 . S
C740 H732 0.929 . S
C740 C741 1.377 . S
C740 C742 1.384 . S
C741 C740 1.377 . S
C741 C747 1.390 . S
C742 H733 0.930 . S
C742 C740 1.384 . S
C742 C743 1.372 . S
C743 C742 1.372 . S
C743 C744 1.400 . S
C743 C748 1.490 . S
C744 H734 0.930 . S
C744 C743 1.400 . S
C744 C747 1.386 . S
H745 C761 0.930 . S
H746 C762 0.931 . S
C747 H735 0.929 . S
C747 C741 1.390 . S
C747 C744 1.386 . S
C748 C743 1.490 . S
C748 C750 1.395 . S
C748 C751 1.403 . S
H749 C755 0.930 . S
C750 H736 0.930 . S
C750 C748 1.395 . S
C750 C753 1.403 . S
C751 C748 1.403 . S
C751 C752 1.524 . S
C751 C755 1.400 . S
C752 H737 0.960 . S
C752 H738 0.960 . S
C752 H739 0.960 . S
C752 C751 1.524 . S
C753 C750 1.403 . S
C753 C754 1.392 . S
C753 C757 1.495 . S
C754 C753 1.392 . S
C754 C755 1.385 . S
C754 C756 1.478 . S
C755 H749 0.930 . S
C755 C751 1.400 . S
C755 C754 1.385 . S
C756 C754 1.478 . S
C756 C758 1.381 . S
C756 C762 1.383 . S
C757 C753 1.495 . S
C757 H763 0.959 . S
C757 H764 0.961 . S
C757 H765 0.960 . S
C758 C756 1.381 . S
C758 C759 1.394 . S
C758 H766 0.930 . S
C759 C758 1.394 . S
C759 C760 1.383 . S
C759 H767 0.929 . S
C760 C759 1.383 . S
C760 C761 1.377 . S
C761 H745 0.930 . S
C761 C760 1.377 . S
C761 C762 1.379 . S
C762 H746 0.931 . S
C762 C756 1.383 . S
C762 C761 1.379 . S
H763 C757 0.959 . S
H764 C757 0.961 . S
H765 C757 0.960 . S
H766 C758 0.930 . S
H767 C759 0.929 . S
H768 C776 0.929 . S
H769 C778 0.930 . S
H770 C780 0.930 . S
H771 C783 0.929 . S
H772 C786 0.930 . S
H773 C788 0.960 . S
H774 C788 0.960 . S
H775 C788 0.960 . S
C776 H768 0.929 . S
C776 C777 1.377 . S
C776 C778 1.384 . S
C777 C776 1.377 . S
C777 C783 1.390 . S
C778 H769 0.930 . S
C778 C776 1.384 . S
C778 C779 1.372 . S
C779 C778 1.372 . S
C779 C780 1.400 . S
C779 C784 1.490 . S
C780 H770 0.930 . S
C780 C779 1.400 . S
C780 C783 1.386 . S
H781 C797 0.930 . S
H782 C798 0.931 . S
C783 H771 0.929 . S
C783 C777 1.390 . S
C783 C780 1.386 . S
C784 C779 1.490 . S
C784 C786 1.395 . S
C784 C787 1.403 . S
H785 C791 0.930 . S
C786 H772 0.930 . S
C786 C784 1.395 . S
C786 C789 1.403 . S
C787 C784 1.403 . S
C787 C788 1.524 . S
C787 C791 1.400 . S
C788 H773 0.960 . S
C788 H774 0.960 . S
C788 H775 0.960 . S
C788 C787 1.524 . S
C789 C786 1.403 . S
C789 C790 1.392 . S
C789 C793 1.495 . S
C790 C789 1.392 . S
C790 C791 1.385 . S
C790 C792 1.478 . S
C791 H785 0.930 . S
C791 C787 1.400 . S
C791 C790 1.385 . S
C792 C790 1.478 . S
C792 C794 1.381 . S
C792 C798 1.383 . S
C793 C789 1.495 . S
C793 H799 0.959 . S
C793 H800 0.961 . S
C793 H801 0.960 . S
C794 C792 1.381 . S
C794 C795 1.394 . S
C794 H802 0.930 . S
C795 C794 1.394 . S
C795 C796 1.383 . S
C795 H803 0.929 . S
C796 C795 1.383 . S
C796 C797 1.377 . S
C797 H781 0.930 . S
C797 C796 1.377 . S
C797 C798 1.379 . S
C798 H782 0.931 . S
C798 C792 1.383 . S
C798 C797 1.379 . S
H799 C793 0.959 . S
H800 C793 0.961 . S
H801 C793 0.960 . S
H802 C794 0.930 . S
H803 C795 0.929 . S
H804 C812 0.929 . S
H805 C814 0.930 . S
H806 C816 0.930 . S
H807 C819 0.929 . S
H808 C822 0.930 . S
H809 C824 0.960 . S
H810 C824 0.960 . S
H811 C824 0.960 . S
C812 H804 0.929 . S
C812 C813 1.377 . S
C812 C814 1.384 . S
C813 C812 1.377 . S
C813 C819 1.390 . S
C814 H805 0.930 . S
C814 C812 1.384 . S
C814 C815 1.372 . S
C815 C814 1.372 . S
C815 C816 1.400 . S
C815 C820 1.490 . S
C816 H806 0.930 . S
C816 C815 1.400 . S
C816 C819 1.386 . S
H817 C833 0.930 . S
H818 C834 0.931 . S
C819 H807 0.929 . S
C819 C813 1.390 . S
C819 C816 1.386 . S
C820 C815 1.490 . S
C820 C822 1.395 . S
C820 C823 1.403 . S
H821 C827 0.930 . S
C822 H808 0.930 . S
C822 C820 1.395 . S
C822 C825 1.403 . S
C823 C820 1.403 . S
C823 C824 1.524 . S
C823 C827 1.400 . S
C824 H809 0.960 . S
C824 H810 0.960 . S
C824 H811 0.960 . S
C824 C823 1.524 . S
C825 C822 1.403 . S
C825 C826 1.392 . S
C825 C829 1.495 . S
C826 C825 1.392 . S
C826 C827 1.385 . S
C826 C828 1.478 . S
C827 H821 0.930 . S
C827 C823 1.400 . S
C827 C826 1.385 . S
C828 C826 1.478 . S
C828 C830 1.381 . S
C828 C834 1.383 . S
C829 C825 1.495 . S
C829 H835 0.959 . S
C829 H836 0.961 . S
C829 H837 0.960 . S
C830 C828 1.381 . S
C830 C831 1.394 . S
C830 H838 0.930 . S
C831 C830 1.394 . S
C831 C832 1.383 . S
C831 H839 0.929 . S
C832 C831 1.383 . S
C832 C833 1.377 . S
C833 H817 0.930 . S
C833 C832 1.377 . S
C833 C834 1.379 . S
C834 H818 0.931 . S
C834 C828 1.383 . S
C834 C833 1.379 . S
H835 C829 0.959 . S
H836 C829 0.961 . S
H837 C829 0.960 . S
H838 C830 0.930 . S
H839 C831 0.929 . S
H840 C848 0.929 . S
H841 C850 0.930 . S
H842 C852 0.930 . S
H843 C855 0.929 . S
H844 C858 0.930 . S
H845 C860 0.960 . S
H846 C860 0.960 . S
H847 C860 0.960 . S
C848 H840 0.929 . S
C848 C849 1.377 . S
C848 C850 1.384 . S
C849 C848 1.377 . S
C849 C855 1.390 . S
C850 H841 0.930 . S
C850 C848 1.384 . S
C850 C851 1.372 . S
C851 C850 1.372 . S
C851 C852 1.400 . S
C851 C856 1.490 . S
C852 H842 0.930 . S
C852 C851 1.400 . S
C852 C855 1.386 . S
H853 C869 0.930 1_554 S
H854 C870 0.931 . S
C855 H843 0.929 . S
C855 C849 1.390 . S
C855 C852 1.386 . S
C856 C851 1.490 . S
C856 C858 1.395 . S
C856 C859 1.403 . S
H857 C863 0.930 . S
C858 H844 0.930 . S
C858 C856 1.395 . S
C858 C861 1.403 . S
C859 C856 1.403 . S
C859 C860 1.524 . S
C859 C863 1.400 . S
C860 H845 0.960 . S
C860 H846 0.960 . S
C860 H847 0.960 . S
C860 C859 1.524 . S
C861 C858 1.403 . S
C861 C862 1.392 . S
C861 C865 1.495 . S
C862 C861 1.392 . S
C862 C863 1.385 . S
C862 C864 1.478 . S
C863 H857 0.930 . S
C863 C859 1.400 . S
C863 C862 1.385 . S
C864 C862 1.478 . S
C864 C866 1.381 . S
C864 C870 1.383 . S
C865 C861 1.495 . S
C865 H871 0.959 . S
C865 H872 0.961 . S
C865 H873 0.960 . S
C866 C864 1.381 . S
C866 C867 1.394 . S
C866 H874 0.930 . S
C867 C866 1.394 . S
C867 C868 1.383 . S
C867 H875 0.929 . S
C868 C867 1.383 . S
C868 C869 1.377 . S
C869 H853 0.930 1_556 S
C869 C868 1.377 . S
C869 C870 1.379 . S
C870 H854 0.931 . S
C870 C864 1.383 . S
C870 C869 1.379 . S
H871 C865 0.959 . S
H872 C865 0.961 . S
H873 C865 0.960 . S
H874 C866 0.930 . S
H875 C867 0.929 . S
H876 C884 0.929 . S
H877 C886 0.930 . S
H878 C888 0.930 . S
H879 C891 0.929 . S
H880 C894 0.930 . S
H881 C896 0.946 1_455 S
H882 C896 0.960 . S
H883 C896 0.960 . S
C884 H876 0.929 . S
C884 C885 1.377 . S
C884 C886 1.384 . S
C885 C884 1.377 . S
C885 C891 1.390 . S
C886 H877 0.930 . S
C886 C884 1.384 . S
C886 C887 1.372 . S
C887 C886 1.372 . S
C887 C888 1.400 . S
C887 C892 1.490 . S
C888 H878 0.930 . S
C888 C887 1.400 . S
C888 C891 1.386 . S
H889 C905 0.930 . S
H890 C906 0.931 . S
C891 H879 0.929 . S
C891 C885 1.390 . S
C891 C888 1.386 . S
C892 C887 1.490 . S
C892 C894 1.395 . S
C892 C895 1.403 . S
H893 C899 0.930 . S
C894 H880 0.930 . S
C894 C892 1.395 . S
C894 C897 1.403 . S
C895 C892 1.403 . S
C895 C896 1.524 . S
C895 C899 1.400 . S
C896 H881 0.946 1_655 S
C896 H882 0.960 . S
C896 H883 0.960 . S
C896 C895 1.524 . S
C897 C894 1.403 . S
C897 C898 1.392 . S
C897 C901 1.495 . S
C898 C897 1.392 . S
C898 C899 1.385 . S
C898 C900 1.478 . S
C899 H893 0.930 . S
C899 C895 1.400 . S
C899 C898 1.385 . S
C900 C898 1.478 . S
C900 C902 1.381 . S
C900 C906 1.383 . S
C901 C897 1.495 . S
C901 H907 0.959 . S
C901 H908 0.961 . S
C901 H909 0.960 . S
C902 C900 1.381 . S
C902 C903 1.394 . S
C902 H910 0.930 . S
C903 C902 1.394 . S
C903 C904 1.383 . S
C903 H911 0.929 . S
C904 C903 1.383 . S
C904 C905 1.377 . S
C905 H889 0.930 . S
C905 C904 1.377 . S
C905 C906 1.379 . S
C906 H890 0.931 . S
C906 C900 1.383 . S
C906 C905 1.379 . S
H907 C901 0.959 . S
H908 C901 0.961 . S
H909 C901 0.960 . S
H910 C902 0.930 . S
H911 C903 0.929 . S
H912 C920 0.929 . S
H913 C922 0.930 . S
H914 C924 0.930 . S
H915 C927 0.929 . S
H916 C930 0.930 . S
H917 C932 0.960 . S
H918 C932 0.960 . S
H919 C932 0.960 . S
C920 H912 0.929 . S
C920 C921 1.377 . S
C920 C922 1.384 . S
C921 C920 1.377 . S
C921 C927 1.390 . S
C922 H913 0.930 . S
C922 C920 1.384 . S
C922 C923 1.372 . S
C923 C922 1.372 . S
C923 C924 1.400 . S
C923 C928 1.490 . S
C924 H914 0.930 . S
C924 C923 1.400 . S
C924 C927 1.386 . S
H925 C941 0.930 . S
H926 C942 0.931 . S
C927 H915 0.929 . S
C927 C921 1.390 . S
C927 C924 1.386 . S
C928 C923 1.490 . S
C928 C930 1.395 . S
C928 C931 1.403 . S
H929 C935 0.930 . S
C930 H916 0.930 . S
C930 C928 1.395 . S
C930 C933 1.403 . S
C931 C928 1.403 . S
C931 C932 1.524 . S
C931 C935 1.400 . S
C932 H917 0.960 . S
C932 H918 0.960 . S
C932 H919 0.960 . S
C932 C931 1.524 . S
C933 C930 1.403 . S
C933 C934 1.392 . S
C933 C937 1.495 . S
C934 C933 1.392 . S
C934 C935 1.385 . S
C934 C936 1.478 . S
C935 H929 0.930 . S
C935 C931 1.400 . S
C935 C934 1.385 . S
C936 C934 1.478 . S
C936 C938 1.381 . S
C936 C942 1.383 . S
C937 C933 1.495 . S
C937 H943 0.959 . S
C937 H944 0.961 . S
C937 H945 0.960 . S
C938 C936 1.381 . S
C938 C939 1.394 . S
C938 H946 0.930 . S
C939 C938 1.394 . S
C939 C940 1.383 . S
C939 H947 0.929 . S
C940 C939 1.383 . S
C940 C941 1.377 . S
C941 H925 0.930 . S
C941 C940 1.377 . S
C941 C942 1.379 . S
C942 H926 0.931 . S
C942 C936 1.383 . S
C942 C941 1.379 . S
H943 C937 0.959 . S
H944 C937 0.961 . S
H945 C937 0.960 . S
H946 C938 0.930 . S
H947 C939 0.929 . S
H948 C956 0.929 . S
H949 C958 0.930 . S
H950 C960 0.930 . S
H951 C963 0.929 . S
H952 C966 0.930 . S
H953 C968 0.960 . S
H954 C968 0.960 . S
H955 C968 0.960 . S
C956 H948 0.929 . S
C956 C957 1.377 . S
C956 C958 1.384 . S
C957 C956 1.377 . S
C957 C963 1.390 . S
C958 H949 0.930 . S
C958 C956 1.384 . S
C958 C959 1.372 . S
C959 C958 1.372 . S
C959 C960 1.400 . S
C959 C964 1.490 . S
C960 H950 0.930 . S
C960 C959 1.400 . S
C960 C963 1.386 . S
H961 C977 0.930 . S
H962 C978 0.931 . S
C963 H951 0.929 . S
C963 C957 1.390 . S
C963 C960 1.386 . S
C964 C959 1.490 . S
C964 C966 1.395 . S
C964 C967 1.403 . S
H965 C971 0.930 . S
C966 H952 0.930 . S
C966 C964 1.395 . S
C966 C969 1.403 . S
C967 C964 1.403 . S
C967 C968 1.524 . S
C967 C971 1.400 . S
C968 H953 0.960 . S
C968 H954 0.960 . S
C968 H955 0.960 . S
C968 C967 1.524 . S
C969 C966 1.403 . S
C969 C970 1.392 . S
C969 C973 1.495 . S
C970 C969 1.392 . S
C970 C971 1.385 . S
C970 C972 1.478 . S
C971 H965 0.930 . S
C971 C967 1.400 . S
C971 C970 1.385 . S
C972 C970 1.478 . S
C972 C974 1.381 . S
C972 C978 1.383 . S
C973 C969 1.495 . S
C973 H979 0.959 . S
C973 H980 0.961 . S
C973 H981 0.960 . S
C974 C972 1.381 . S
C974 C975 1.394 . S
C974 H982 0.930 . S
C975 C974 1.394 . S
C975 C976 1.383 . S
C975 H983 0.929 . S
C976 C975 1.383 . S
C976 C977 1.377 . S
C977 H961 0.930 . S
C977 C976 1.377 . S
C977 C978 1.379 . S
C978 H962 0.931 . S
C978 C972 1.383 . S
C978 C977 1.379 . S
H979 C973 0.959 . S
H980 C973 0.961 . S
H981 C973 0.960 . S
H982 C974 0.930 . S
H983 C975 0.929 . S
H984 C992 0.929 . S
H985 C994 0.930 . S
H986 C996 0.930 . S
H987 C999 0.929 . S
H988 C1002 0.930 . S
H989 C1004 0.960 . S
H990 C1004 0.960 . S
H991 C1004 0.960 . S
C992 H984 0.929 . S
C992 C993 1.377 . S
C992 C994 1.384 . S
C993 C992 1.377 . S
C993 C999 1.390 . S
C994 H985 0.930 . S
C994 C992 1.384 . S
C994 C995 1.372 . S
C995 C994 1.372 . S
C995 C996 1.400 . S
C995 C1000 1.490 . S
C996 H986 0.930 . S
C996 C995 1.400 . S
C996 C999 1.386 . S
H997 C1013 0.930 . S
H998 C1014 0.931 . S
C999 H987 0.929 . S
C999 C993 1.390 . S
C999 C996 1.386 . S
C1000 C995 1.490 . S
C1000 C1002 1.395 . S
C1000 C1003 1.403 . S
H1001 C1007 0.930 . S
C1002 H988 0.930 . S
C1002 C1000 1.395 . S
C1002 C1005 1.403 . S
C1003 C1000 1.403 . S
C1003 C1004 1.524 . S
C1003 C1007 1.400 . S
C1004 H989 0.960 . S
C1004 H990 0.960 . S
C1004 H991 0.960 . S
C1004 C1003 1.524 . S
C1005 C1002 1.403 . S
C1005 C1006 1.392 . S
C1005 C1009 1.495 . S
C1006 C1005 1.392 . S
C1006 C1007 1.385 . S
C1006 C1008 1.478 . S
C1007 H1001 0.930 . S
C1007 C1003 1.400 . S
C1007 C1006 1.385 . S
C1008 C1006 1.478 . S
C1008 C1010 1.381 . S
C1008 C1014 1.383 . S
C1009 C1005 1.495 . S
C1009 H1015 0.959 . S
C1009 H1016 0.961 . S
C1009 H1017 0.960 . S
C1010 C1008 1.381 . S
C1010 C1011 1.394 . S
C1010 H1018 0.930 . S
C1011 C1010 1.394 . S
C1011 C1012 1.383 . S
C1011 H1019 0.929 . S
C1012 C1011 1.383 . S
C1012 C1013 1.377 . S
C1013 H997 0.930 . S
C1013 C1012 1.377 . S
C1013 C1014 1.379 . S
C1014 H998 0.931 . S
C1014 C1008 1.383 . S
C1014 C1013 1.379 . S
H1015 C1009 0.959 . S
H1016 C1009 0.961 . S
H1017 C1009 0.960 . S
H1018 C1010 0.930 . S
H1019 C1011 0.929 . S
H1020 C1028 0.929 . S
H1021 C1030 0.930 . S
H1022 C1032 0.930 . S
H1023 C1035 0.929 . S
H1024 C1038 0.930 . S
H1025 C1040 0.960 . S
H1026 C1040 0.960 . S
H1027 C1040 0.960 . S
C1028 H1020 0.929 . S
C1028 C1029 1.377 . S
C1028 C1030 1.384 . S
C1029 C1028 1.377 . S
C1029 C1035 1.390 . S
C1030 H1021 0.930 . S
C1030 C1028 1.384 . S
C1030 C1031 1.372 . S
C1031 C1030 1.372 . S
C1031 C1032 1.400 . S
C1031 C1036 1.490 . S
C1032 H1022 0.930 . S
C1032 C1031 1.400 . S
C1032 C1035 1.386 . S
H1033 C1049 0.930 . S
H1034 C1050 0.931 . S
C1035 H1023 0.929 . S
C1035 C1029 1.390 . S
C1035 C1032 1.386 . S
C1036 C1031 1.490 . S
C1036 C1038 1.395 . S
C1036 C1039 1.403 . S
H1037 C1043 0.930 . S
C1038 H1024 0.930 . S
C1038 C1036 1.395 . S
C1038 C1041 1.403 . S
C1039 C1036 1.403 . S
C1039 C1040 1.524 . S
C1039 C1043 1.400 . S
C1040 H1025 0.960 . S
C1040 H1026 0.960 . S
C1040 H1027 0.960 . S
C1040 C1039 1.524 . S
C1041 C1038 1.403 . S
C1041 C1042 1.392 . S
C1041 C1045 1.495 . S
C1042 C1041 1.392 . S
C1042 C1043 1.385 . S
C1042 C1044 1.478 . S
C1043 H1037 0.930 . S
C1043 C1039 1.400 . S
C1043 C1042 1.385 . S
C1044 C1042 1.478 . S
C1044 C1046 1.381 . S
C1044 C1050 1.383 . S
C1045 C1041 1.495 . S
C1045 H1051 0.959 . S
C1045 H1052 0.961 . S
C1045 H1053 0.960 . S
C1046 C1044 1.381 . S
C1046 C1047 1.394 . S
C1046 H1054 0.930 . S
C1047 C1046 1.394 . S
C1047 C1048 1.383 . S
C1047 H1055 0.929 . S
C1048 C1047 1.383 . S
C1048 C1049 1.377 . S
C1049 H1033 0.930 . S
C1049 C1048 1.377 . S
C1049 C1050 1.379 . S
C1050 H1034 0.931 . S
C1050 C1044 1.383 . S
C1050 C1049 1.379 . S
H1051 C1045 0.959 . S
H1052 C1045 0.961 . S
H1053 C1045 0.960 . S
H1054 C1046 0.930 . S
H1055 C1047 0.929 . S
H1056 C1064 0.929 . S
H1057 C1066 0.930 . S
H1058 C1068 0.930 . S
H1059 C1071 0.929 . S
H1060 C1074 0.930 . S
H1061 C1076 0.960 . S
H1062 C1076 0.960 . S
H1063 C1076 0.960 . S
C1064 H1056 0.929 . S
C1064 C1065 1.377 . S
C1064 C1066 1.384 . S
C1065 C1064 1.377 . S
C1065 C1071 1.390 . S
C1066 H1057 0.930 . S
C1066 C1064 1.384 . S
C1066 C1067 1.372 . S
C1067 C1066 1.372 . S
C1067 C1068 1.400 . S
C1067 C1072 1.490 . S
C1068 H1058 0.930 . S
C1068 C1067 1.400 . S
C1068 C1071 1.386 . S
H1069 C1085 0.930 . S
H1070 C1086 0.931 . S
C1071 H1059 0.929 . S
C1071 C1065 1.390 . S
C1071 C1068 1.386 . S
C1072 C1067 1.490 . S
C1072 C1074 1.395 . S
C1072 C1075 1.403 . S
H1073 C1079 0.930 . S
C1074 H1060 0.930 . S
C1074 C1072 1.395 . S
C1074 C1077 1.403 . S
C1075 C1072 1.403 . S
C1075 C1076 1.524 . S
C1075 C1079 1.400 . S
C1076 H1061 0.960 . S
C1076 H1062 0.960 . S
C1076 H1063 0.960 . S
C1076 C1075 1.524 . S
C1077 C1074 1.403 . S
C1077 C1078 1.392 . S
C1077 C1081 1.495 . S
C1078 C1077 1.392 . S
C1078 C1079 1.385 . S
C1078 C1080 1.478 . S
C1079 H1073 0.930 . S
C1079 C1075 1.400 . S
C1079 C1078 1.385 . S
C1080 C1078 1.478 . S
C1080 C1082 1.381 . S
C1080 C1086 1.383 . S
C1081 C1077 1.495 . S
C1081 H1087 0.959 . S
C1081 H1088 0.961 . S
C1081 H1089 0.960 . S
C1082 C1080 1.381 . S
C1082 C1083 1.394 . S
C1082 H1090 0.930 . S
C1083 C1082 1.394 . S
C1083 C1084 1.383 . S
C1083 H1091 0.929 . S
C1084 C1083 1.383 . S
C1084 C1085 1.377 . S
C1085 H1069 0.930 . S
C1085 C1084 1.377 . S
C1085 C1086 1.379 . S
C1086 H1070 0.931 . S
C1086 C1080 1.383 . S
C1086 C1085 1.379 . S
H1087 C1081 0.959 . S
H1088 C1081 0.961 . S
H1089 C1081 0.960 . S
H1090 C1082 0.930 . S
H1091 C1083 0.929 . S
H1092 C1100 0.929 . S
H1093 C1102 0.930 . S
H1094 C1104 0.930 . S
H1095 C1107 0.929 . S
H1096 C1110 0.930 . S
H1097 C1112 0.960 . S
H1098 C1112 0.960 . S
H1099 C1112 0.960 . S
C1100 H1092 0.929 . S
C1100 C1101 1.377 . S
C1100 C1102 1.384 . S
C1101 C1100 1.377 . S
C1101 C1107 1.390 . S
C1102 H1093 0.930 . S
C1102 C1100 1.384 . S
C1102 C1103 1.372 . S
C1103 C1102 1.372 . S
C1103 C1104 1.400 . S
C1103 C1108 1.490 . S
C1104 H1094 0.930 . S
C1104 C1103 1.400 . S
C1104 C1107 1.386 . S
H1105 C1121 0.930 . S
H1106 C1122 0.931 . S
C1107 H1095 0.929 . S
C1107 C1101 1.390 . S
C1107 C1104 1.386 . S
C1108 C1103 1.490 . S
C1108 C1110 1.395 . S
C1108 C1111 1.403 . S
H1109 C1115 0.930 . S
C1110 H1096 0.930 . S
C1110 C1108 1.395 . S
C1110 C1113 1.403 . S
C1111 C1108 1.403 . S
C1111 C1112 1.524 . S
C1111 C1115 1.400 . S
C1112 H1097 0.960 . S
C1112 H1098 0.960 . S
C1112 H1099 0.960 . S
C1112 C1111 1.524 . S
C1113 C1110 1.403 . S
C1113 C1114 1.392 . S
C1113 C1117 1.495 . S
C1114 C1113 1.392 . S
C1114 C1115 1.385 . S
C1114 C1116 1.478 . S
C1115 H1109 0.930 . S
C1115 C1111 1.400 . S
C1115 C1114 1.385 . S
C1116 C1114 1.478 . S
C1116 C1118 1.381 . S
C1116 C1122 1.383 . S
C1117 C1113 1.495 . S
C1117 H1123 0.959 . S
C1117 H1124 0.961 . S
C1117 H1125 0.960 . S
C1118 C1116 1.381 . S
C1118 C1119 1.394 . S
C1118 H1126 0.930 . S
C1119 C1118 1.394 . S
C1119 C1120 1.383 . S
C1119 H1127 0.929 . S
C1120 C1119 1.383 . S
C1120 C1121 1.377 . S
C1121 H1105 0.930 . S
C1121 C1120 1.377 . S
C1121 C1122 1.379 . S
C1122 H1106 0.931 . S
C1122 C1116 1.383 . S
C1122 C1121 1.379 . S
H1123 C1117 0.959 . S
H1124 C1117 0.961 . S
H1125 C1117 0.960 . S
H1126 C1118 0.930 . S
H1127 C1119 0.929 . S
C273 C9 1.291 . S
C292 C108 1.310 . S
C309 C21 1.046 . S
C328 C169 1.066 . S
C364 C207 2.118 . S
C345 C30 2.133 . S
C381 C43 2.016 . S
C400 C247 2.075 1_655 S
C436 C167 1.107 . S
C417 C4 1.044 . S
C472 C135 2.609 . S
C453 C22 2.553 . S
C508 C244 1.260 . S
C489 C34 1.268 . S
C544 C204 1.640 . S
C525 C48 1.643 . S
C561 C8 1.052 . S
C580 C249 1.042 . S
C616 C164 2.342 . S
C597 C35 2.334 . S
C633 C47 2.352 . S
C652 C106 2.310 . S
C669 C17 1.192 . S
C688 C209 1.219 . S
C724 C129 0.725 . S
C705 C60 0.727 . S
C741 C74 1.253 . S
C760 C148 1.262 . S
C777 C82 1.894 . S
C796 C186 1.895 . S
C813 C100 2.709 . S
C832 C226 2.660 . S
C849 C61 1.629 . S
C868 C146 1.642 . S
C904 C124 1.925 . S
C885 C73 1.872 . S
C940 C255 1.845 . S
C921 C87 1.872 . S
C976 C215 1.446 . S
C957 C95 1.445 . S
C993 C56 0.976 . S
C1012 C228 0.983 . S
C1048 C175 2.545 . S
C1029 C86 2.548 . S
C1084 C127 2.168 . S
C1065 C99 2.193 . S
C1101 C69 1.080 . S
C1120 C188 1.203 . S
