# Generated by pormake.
# Topology tsx, (6,3)-cn, num edge types: 1
# Building blocks:
#     Node 0, Type 0, BuildingBlock: MIDCAF_clean_sbu_0, # of connection points: 6
#     Node 1, Type 0, BuildingBlock: MIDCAF_clean_sbu_0, # of connection points: 6
#     Node 2, Type 1, BuildingBlock: QEWDON_clean_linker_0, # of connection points: 3
#     Node 3, Type 1, BuildingBlock: QEWDON_clean_linker_0, # of connection points: 3
#     Node 4, Type 1, BuildingBlock: QEWDON_clean_linker_0, # of connection points: 3
#     Node 5, Type 1, BuildingBlock: QEWDON_clean_linker_0, # of connection points: 3
#     Edge 6, Type (0, 1), BuildingBlock: UVAHIK_clean_linker_0, # of connection points: 2
#     Edge 7, Type (0, 1), BuildingBlock: UVAHIK_clean_linker_0, # of connection points: 2
#     Edge 8, Type (0, 1), BuildingBlock: UVAHIK_clean_linker_0, # of connection points: 2
#     Edge 9, Type (0, 1), BuildingBlock: UVAHIK_clean_linker_0, # of connection points: 2
#     Edge 10, Type (0, 1), BuildingBlock: UVAHIK_clean_linker_0, # of connection points: 2
#     Edge 11, Type (0, 1), BuildingBlock: UVAHIK_clean_linker_0, # of connection points: 2
#     Edge 12, Type (0, 1), BuildingBlock: UVAHIK_clean_linker_0, # of connection points: 2
#     Edge 13, Type (0, 1), BuildingBlock: UVAHIK_clean_linker_0, # of connection points: 2
#     Edge 14, Type (0, 1), BuildingBlock: UVAHIK_clean_linker_0, # of connection points: 2
#     Edge 15, Type (0, 1), BuildingBlock: UVAHIK_clean_linker_0, # of connection points: 2
#     Edge 16, Type (0, 1), BuildingBlock: UVAHIK_clean_linker_0, # of connection points: 2
#     Edge 17, Type (0, 1), BuildingBlock: UVAHIK_clean_linker_0, # of connection points: 2
# Relax obj value: 0.092
# Max RMSD: 0.157
# Mean RMSD: 0.153
data_MOF--net-tsx--node1-MIDCAF_clean_sbu_0--node2-QEWDON_clean_linker_0--edge1-UVAHIK_clean_linker_0
_symmetry_space_group_name_H-M    P1
_symmetry_Int_Tables_number       1
_symmetry_cell_setting            triclinic
loop_
_symmetry_equiv_pos_as_xyz
'x, y, z'
_cell_length_a     27.268671
_cell_length_b     28.201242
_cell_length_c     45.878168
_cell_angle_alpha  90.217929
_cell_angle_beta   109.09881
_cell_angle_gamma 90.042462
loop_
_atom_site_label
_atom_site_type_symbol
_atom_site_fract_x
_atom_site_fract_y
_atom_site_fract_z
_atom_type_partial_charge
Zn0 Zn 0.95993 0.00219 0.95768 0.0
Zn1 Zn 0.13093 0.97136 0.04812 0.0
Zn2 Zn 0.04863 0.99411 0.00249 0.0
C3 C 0.13281 0.0708 0.03491 0.0
C4 C 0.13781 0.92014 0.9987 0.0
O5 O 0.9858 0.95657 0.01488 0.0
O6 O 0.91505 0.9631 0.97422 0.0
C7 C 0.99547 0.09413 0.9798 0.0
O8 O 0.08608 0.063 0.0171 0.0
O9 O 0.16051 0.03669 0.04907 0.0
O10 O 0.15599 0.91913 0.02775 0.0
O11 O 0.10035 0.9486 0.98505 0.0
O12 O 0.95771 0.07227 0.96107 0.0
O13 O 0.03505 0.07131 0.9972 0.0
O14 O 0.05852 0.96434 0.95957 0.0
O15 O 0.98173 0.97532 0.92416 0.0
C16 C 0.02819 0.96161 0.93133 0.0
O17 O 0.02722 0.96548 0.0421 0.0
O18 O 0.10076 0.95566 0.08054 0.0
C19 C 0.93744 0.94693 0.00088 0.0
C20 C 0.05187 0.95558 0.07061 0.0
Zn21 Zn 0.64101 0.50917 0.5571 0.0
Zn22 Zn 0.47418 0.48979 0.45894 0.0
Zn23 Zn 0.55777 0.50538 0.50742 0.0
C24 C 0.55679 0.46448 0.44044 0.0
C25 C 0.48381 0.58901 0.47357 0.0
O26 O 0.53841 0.4772 0.54778 0.0
O27 O 0.60756 0.49382 0.58807 0.0
C28 C 0.66434 0.44853 0.51518 0.0
O29 O 0.58101 0.47384 0.46915 0.0
O30 O 0.50819 0.46858 0.42947 0.0
O31 O 0.45342 0.55817 0.45703 0.0
O32 O 0.52729 0.57659 0.49344 0.0
O33 O 0.68057 0.45911 0.54352 0.0
O34 O 0.62097 0.4656 0.49746 0.0
O35 O 0.57783 0.58128 0.51433 0.0
O36 O 0.65378 0.57767 0.55158 0.0
C37 C 0.61911 0.60163 0.53215 0.0
O38 O 0.49982 0.46261 0.5212 0.0
O39 O 0.44008 0.44167 0.47729 0.0
C40 C 0.56161 0.47873 0.57721 0.0
C41 C 0.4586 0.439 0.50628 0.0
H42 H 0.04408 0.08246 0.3783 0.0
C43 C 0.07036 0.05427 0.38952 0.0
C44 C 0.07303 0.01279 0.37282 0.0
C45 C 0.10289 0.06 0.42038 0.0
H46 H 0.11254 0.94589 0.37465 0.0
C47 C 0.10828 0.97705 0.38752 0.0
C48 C 0.14096 0.98227 0.41804 0.0
C49 C 0.13796 0.02356 0.43437 0.0
C50 C 0.10288 0.1047 0.43784 0.0
H51 H 0.16314 0.02719 0.45808 0.0
C52 C 0.05628 0.12761 0.43676 0.0
C53 C 0.05723 0.16901 0.45443 0.0
C54 C 0.1504 0.12434 0.45629 0.0
H55 H 0.18694 0.1084 0.45709 0.0
C56 C 0.15156 0.16489 0.47387 0.0
H57 H 0.01953 0.11315 0.4223 0.0
C58 C 0.10552 0.18679 0.47328 0.0
H59 H 0.10791 0.21759 0.48784 0.0
H60 H 0.18841 0.17939 0.4881 0.0
H61 H 0.05663 0.07791 0.62572 0.0
C62 C 0.03007 0.05088 0.6127 0.0
C63 C 0.02181 0.00984 0.62785 0.0
C64 C 1.00201 0.05839 0.58133 0.0
H65 H 0.97772 0.94502 0.62289 0.0
C66 C 0.986 0.9757 0.61109 0.0
C67 C 0.95706 0.98292 0.57997 0.0
C68 C 0.96554 0.02407 0.56519 0.0
C69 C 0.00691 0.10397 0.5662 0.0
H70 H 0.94307 0.02963 0.54116 0.0
C71 C 0.05575 0.1253 0.57076 0.0
C72 C 0.05917 0.16965 0.55751 0.0
C73 C 0.96192 0.12742 0.54784 0.0
H74 H 0.92377 0.11253 0.54431 0.0
C75 C 0.96541 0.17108 0.53451 0.0
H76 H 0.09085 0.10783 0.58483 0.0
C77 C 0.01361 0.19217 0.53931 0.0
H78 H 0.01536 0.22612 0.5287 0.0
H79 H 0.93054 0.1889 0.5207 0.0
H80 H 0.5377 0.5596 0.88228 0.0
C81 C 0.56613 0.53316 0.89385 0.0
C82 C 0.57362 0.49327 0.87721 0.0
C83 C 0.59673 0.54 0.92496 0.0
H84 H 0.61994 0.43071 0.87916 0.0
C85 C 0.61191 0.46011 0.89219 0.0
C86 C 0.64267 0.4661 0.92314 0.0
C87 C 0.63449 0.50584 0.93944 0.0
C88 C 0.59259 0.58449 0.9417 0.0
H89 H 0.658 0.51032 0.96341 0.0
C90 C 0.54413 0.60574 0.93827 0.0
C91 C 0.54157 0.64906 0.95314 0.0
C92 C 0.63807 0.60702 0.96059 0.0
H93 H 0.67601 0.59242 0.96325 0.0
C94 C 0.63544 0.64943 0.97567 0.0
H95 H 0.50862 0.58913 0.9238 0.0
C96 C 0.58761 0.67043 0.97199 0.0
H97 H 0.58654 0.70351 0.98387 0.0
H98 H 0.67072 0.6664 0.98996 0.0
H99 H 0.56601 0.57148 0.13222 0.0
C100 C 0.53908 0.54345 0.12117 0.0
C101 C 0.53454 0.50342 0.13836 0.0
C102 C 0.5077 0.548 0.09002 0.0
H103 H 0.49222 0.43878 0.13769 0.0
C104 C 0.4981 0.46821 0.12407 0.0
C105 C 0.46688 0.47169 0.09306 0.0
C106 C 0.47219 0.51157 0.07614 0.0
C107 C 0.50941 0.59183 0.07234 0.0
H108 H 0.44854 0.5143 0.05209 0.0
C109 C 0.55685 0.61404 0.07446 0.0
C110 C 0.55749 0.65608 0.05806 0.0
C111 C 0.46278 0.61223 0.05346 0.0
H112 H 0.42562 0.59666 0.05175 0.0
C113 C 0.46338 0.65353 0.03699 0.0
H114 H 0.5931 0.5989 0.08896 0.0
C115 C 0.51031 0.67531 0.03917 0.0
H116 H 0.50972 0.70719 0.02594 0.0
H117 H 0.42723 0.66889 0.02263 0.0
C118 C 0.20214 0.12733 0.06349 0.0
C119 C 0.15597 0.11896 0.03902 0.0
C120 C 0.22727 0.17096 0.06677 0.0
C121 C 0.24281 0.27576 0.02319 0.0
H122 H 0.31874 0.32126 0.10555 0.0
C123 C 0.37628 0.44689 0.06087 0.0
C124 C 0.42692 0.43461 0.07944 0.0
C125 C 0.33704 0.4124 0.052 0.0
C126 C 0.29743 0.30911 0.08242 0.0
H127 H 0.0999 0.15037 0.99879 0.0
H128 H 0.14349 0.22764 0.00494 0.0
H129 H 0.2577 0.25578 0.09894 0.0
H130 H 0.47679 0.37583 0.10101 0.0
H131 H 0.40803 0.31636 0.08642 0.0
H132 H 0.28335 0.32975 0.007 0.0
C133 C 0.16025 0.19993 0.02147 0.0
C134 C 0.26268 0.2715 0.07859 0.0
C135 C 0.13493 0.15587 0.01815 0.0
C136 C 0.43801 0.38675 0.08738 0.0
C137 C 0.39881 0.35264 0.07892 0.0
C138 C 0.27724 0.31407 0.02706 0.0
C139 C 0.20694 0.20783 0.04579 0.0
C140 C 0.23639 0.25312 0.04903 0.0
C141 C 0.34783 0.36536 0.06184 0.0
C142 C 0.30598 0.32989 0.0568 0.0
H143 H 0.21962 0.09977 0.08 0.0
H144 H 0.26367 0.17521 0.08538 0.0
H145 H 0.22336 0.26239 0.00012 0.0
H146 H 0.36631 0.48344 0.0545 0.0
H147 H 0.29785 0.42286 0.03883 0.0
C148 C 0.16795 0.84094 0.988 0.0
C149 C 0.16217 0.88954 0.98129 0.0
C150 C 0.20076 0.81314 0.97711 0.0
C151 C 0.3208 0.82683 0.96007 0.0
H152 H 0.29841 0.69618 0.93219 0.0
C153 C 0.4856 0.72089 0.9392 0.0
C154 C 0.4915 0.67336 0.94861 0.0
C155 C 0.44061 0.74582 0.93758 0.0
C156 C 0.30549 0.73249 0.94023 0.0
H157 H 0.18576 0.94731 0.95804 0.0
H158 H 0.24263 0.89872 0.93844 0.0
H159 H 0.22628 0.74239 0.93805 0.0
H160 H 0.45469 0.61412 0.96305 0.0
H161 H 0.37633 0.658 0.96119 0.0
H162 H 0.40014 0.81687 0.96388 0.0
C163 C 0.2213 0.88192 0.9518 0.0
C164 C 0.26403 0.75902 0.94338 0.0
C165 C 0.18807 0.9096 0.9625 0.0
C166 C 0.4508 0.65067 0.95547 0.0
C167 C 0.40588 0.67588 0.95429 0.0
C168 C 0.36225 0.80027 0.9573 0.0
C169 C 0.22922 0.8337 0.9598 0.0
C170 C 0.27135 0.80644 0.95349 0.0
C171 C 0.40064 0.72414 0.94592 0.0
C172 C 0.35537 0.75263 0.94748 0.0
H173 H 0.14898 0.82495 0.00293 0.0
H174 H 0.20643 0.7763 0.98398 0.0
H175 H 0.32806 0.86291 0.96861 0.0
H176 H 0.51624 0.73897 0.9334 0.0
H177 H 0.43756 0.78241 0.93015 0.0
C178 C 0.93235 0.88331 0.03828 0.0
C179 C 0.90755 0.91598 0.01503 0.0
C180 C 0.90308 0.85146 0.04933 0.0
C181 C 0.79746 0.77684 0.02728 0.0
H182 H 0.75072 0.8031 0.09696 0.0
C183 C 0.61086 0.73004 0.06521 0.0
C184 C 0.60689 0.68071 0.06069 0.0
C185 C 0.65563 0.75426 0.06542 0.0
C186 C 0.76379 0.79509 0.0776 0.0
H187 H 0.83259 0.94113 0.98546 0.0
H188 H 0.78198 0.88509 0.00443 0.0
H189 H 0.81544 0.85504 0.08669 0.0
H190 H 0.64715 0.61784 0.05351 0.0
H191 H 0.72576 0.66038 0.05373 0.0
H192 H 0.7446 0.71824 0.01724 0.0
C193 C 0.82394 0.88458 0.01422 0.0
C194 C 0.80095 0.82457 0.07191 0.0
C195 C 0.85298 0.91652 0.0034 0.0
C196 C 0.64932 0.65583 0.05726 0.0
C197 C 0.6941 0.6802 0.0572 0.0
C198 C 0.76067 0.74714 0.03308 0.0
C199 C 0.84873 0.85159 0.03698 0.0
C200 C 0.81706 0.81619 0.04632 0.0
C201 C 0.69744 0.72978 0.06091 0.0
C202 C 0.74232 0.75672 0.05779 0.0
H203 H 0.97421 0.881 0.04705 0.0
H204 H 0.9228 0.82591 0.06679 0.0
H205 H 0.8091 0.77023 0.00721 0.0
H206 H 0.57894 0.75007 0.06819 0.0
H207 H 0.65669 0.79248 0.06799 0.0
C208 C 0.98058 0.17358 0.95623 0.0
C209 C 0.98986 0.14555 0.98263 0.0
C210 C 0.9557 0.21726 0.95423 0.0
C211 C 0.8976 0.30418 0.99532 0.0
H212 H 0.78621 0.30302 0.91679 0.0
C213 C 0.73591 0.44902 0.95381 0.0
C214 C 0.68577 0.4324 0.93729 0.0
C215 C 0.77793 0.41759 0.96311 0.0
C216 C 0.81687 0.3038 0.9389 0.0
H217 H 0.98476 0.14234 0.02862 0.0
H218 H 0.94009 0.21841 0.02502 0.0
H219 H 0.85608 0.24618 0.92611 0.0
H220 H 0.63979 0.36949 0.91968 0.0
H221 H 0.71278 0.3148 0.93593 0.0
H222 H 0.85663 0.3614 0.00815 0.0
C223 C 0.95284 0.20733 0.00605 0.0
C224 C 0.85758 0.27167 0.9441 0.0
C225 C 0.97863 0.16384 0.00821 0.0
C226 C 0.67808 0.38347 0.93186 0.0
C227 C 0.71992 0.35219 0.94111 0.0
C228 C 0.85668 0.33673 0.99001 0.0
C229 C 0.93832 0.23309 0.97829 0.0
C230 C 0.89833 0.27107 0.97242 0.0
C231 C 0.77055 0.36902 0.95599 0.0
C232 C 0.81544 0.33627 0.96188 0.0
H233 H 0.9887 0.15993 0.93618 0.0
H234 H 0.94643 0.23685 0.93285 0.0
H235 H 0.92838 0.30467 0.01738 0.0
H236 H 0.74314 0.48658 0.95816 0.0
H237 H 0.81648 0.43162 0.97448 0.0
C238 C 0.65301 0.67926 0.55576 0.0
C239 C 0.62951 0.65229 0.52905 0.0
C240 C 0.67518 0.72326 0.55387 0.0
C241 C 0.7476 0.77716 0.51068 0.0
H242 H 0.74435 0.88912 0.55938 0.0
C243 C 0.86349 0.96688 0.55051 0.0
C244 C 0.91423 0.94975 0.56422 0.0
C245 C 0.82178 0.93535 0.53946 0.0
C246 C 0.74522 0.85844 0.54528 0.0
H247 H 0.6081 0.65088 0.47928 0.0
H248 H 0.64863 0.72775 0.47597 0.0
H249 H 0.67807 0.82756 0.55233 0.0
H250 H 0.96151 0.88653 0.57583 0.0
H251 H 0.88874 0.83134 0.55585 0.0
H252 H 0.81667 0.80663 0.50527 0.0
C253 C 0.64905 0.71501 0.49829 0.0
C254 C 0.7074 0.82323 0.54132 0.0
C255 C 0.62559 0.67135 0.50015 0.0
C256 C 0.92277 0.90059 0.56534 0.0
C257 C 0.8812 0.8691 0.55379 0.0
C258 C 0.78596 0.81199 0.51509 0.0
C259 C 0.67538 0.74064 0.52527 0.0
C260 C 0.70888 0.78179 0.52455 0.0
C261 C 0.83015 0.88614 0.54139 0.0
C262 C 0.78579 0.85247 0.533 0.0
H263 H 0.65671 0.66511 0.57831 0.0
H264 H 0.69551 0.74202 0.57503 0.0
H265 H 0.75003 0.74531 0.49795 0.0
H266 H 0.85579 0.00462 0.54964 0.0
H267 H 0.78283 0.94939 0.52996 0.0
C268 C 0.69847 0.42048 0.47343 0.0
C269 C 0.69542 0.41552 0.50317 0.0
C270 C 0.72943 0.38988 0.46281 0.0
C271 C 0.80407 0.27619 0.48157 0.0
H272 H 0.88362 0.33208 0.43427 0.0
C273 C 0.96296 0.16919 0.45165 0.0
C274 C 0.00858 0.19418 0.4535 0.0
C275 C 0.91853 0.19339 0.45251 0.0
C276 C 0.86208 0.31584 0.44769 0.0
H277 H 0.72319 0.37519 0.5455 0.0
H278 H 0.7786 0.32308 0.52769 0.0
H279 H 0.81852 0.37915 0.44651 0.0
H280 H 0.04204 0.26466 0.45645 0.0
H281 H 0.96671 0.30607 0.45991 0.0
H282 H 0.84941 0.21371 0.48413 0.0
C283 C 0.75571 0.34934 0.5119 0.0
C284 C 0.82393 0.34274 0.45429 0.0
C285 C 0.72439 0.37964 0.52229 0.0
C286 C 0.00814 0.24394 0.45559 0.0
C287 C 0.96425 0.26795 0.45695 0.0
C288 C 0.84257 0.24941 0.47521 0.0
C289 C 0.75887 0.35409 0.48203 0.0
C290 C 0.79525 0.32369 0.47197 0.0
C291 C 0.91878 0.24314 0.45559 0.0
C292 C 0.87322 0.2693 0.45894 0.0
H293 H 0.67872 0.44919 0.45887 0.0
H294 H 0.73071 0.39471 0.43967 0.0
H295 H 0.78191 0.25985 0.49459 0.0
H296 H 0.96187 0.13085 0.45031 0.0
H297 H 0.88419 0.17295 0.45105 0.0
C298 C 0.41652 0.42567 0.54661 0.0
C299 C 0.43227 0.40816 0.52241 0.0
C300 C 0.38437 0.39826 0.55834 0.0
C301 C 0.335 0.27776 0.56276 0.0
H302 H 0.20363 0.33914 0.55316 0.0
C303 C 0.14916 0.1713 0.5542 0.0
C304 C 0.10976 0.19343 0.56266 0.0
C305 C 0.19419 0.19641 0.55547 0.0
C306 C 0.24036 0.32144 0.55685 0.0
H307 H 0.42913 0.34806 0.49237 0.0
H308 H 0.37422 0.29973 0.51335 0.0
H309 H 0.27464 0.38482 0.5465 0.0
H310 H 0.0876 0.25768 0.58099 0.0
H311 H 0.1668 0.30076 0.58471 0.0
H312 H 0.30116 0.21438 0.5733 0.0
C313 C 0.38645 0.33446 0.52324 0.0
C314 C 0.28109 0.34783 0.55289 0.0
C315 C 0.41761 0.36214 0.51116 0.0
C316 C 0.11726 0.24009 0.57396 0.0
C317 C 0.16253 0.26487 0.57578 0.0
C318 C 0.29455 0.25147 0.56735 0.0
C319 C 0.36831 0.3527 0.54634 0.0
C320 C 0.32842 0.32607 0.55517 0.0
C321 C 0.20103 0.244 0.56563 0.0
C322 C 0.24616 0.27268 0.5638 0.0
H323 H 0.42668 0.46138 0.55526 0.0
H324 H 0.37084 0.41313 0.57613 0.0
H325 H 0.37125 0.26019 0.56472 0.0
H326 H 0.14401 0.13542 0.54517 0.0
H327 H 0.22243 0.17899 0.54717 0.0
C328 C 0.43912 0.65643 0.44132 0.0
C329 C 0.46643 0.63872 0.47065 0.0
C330 C 0.41177 0.69887 0.43819 0.0
C331 C 0.38268 0.80331 0.4802 0.0
H332 H 0.24898 0.79174 0.41604 0.0
C333 C 0.23346 0.95753 0.4431 0.0
C334 C 0.18055 0.94555 0.43172 0.0
C335 C 0.2713 0.92198 0.45148 0.0
C336 C 0.28574 0.79548 0.4344 0.0
H337 H 0.48986 0.65274 0.5197 0.0
H338 H 0.44014 0.72642 0.5144 0.0
H339 H 0.31178 0.72897 0.42308 0.0
H340 H 0.12538 0.88768 0.42224 0.0
H341 H 0.19095 0.82572 0.43802 0.0
H342 H 0.35512 0.86942 0.49213 0.0
C343 C 0.44062 0.70807 0.49373 0.0
C344 C 0.32245 0.75973 0.43804 0.0
C345 C 0.46913 0.6659 0.49683 0.0
C346 C 0.16599 0.89772 0.43064 0.0
C347 C 0.20365 0.86229 0.43943 0.0
C348 C 0.34554 0.83916 0.47669 0.0
C349 C 0.40975 0.72392 0.46436 0.0
C350 C 0.37161 0.76318 0.46078 0.0
C351 C 0.25685 0.87381 0.44892 0.0
C352 C 0.29652 0.83562 0.45372 0.0
H353 H 0.43703 0.6363 0.42078 0.0
H354 H 0.39015 0.71085 0.41517 0.0
H355 H 0.42013 0.80723 0.49792 0.0
H356 H 0.24561 0.99424 0.44394 0.0
H357 H 0.31177 0.93226 0.45848 0.0
C358 C 0.99995 0.99188 0.10012 0.0
C359 C 0.02446 0.95171 0.0933 0.0
C360 C 0.98817 0.99434 0.12759 0.0
C361 C 0.03288 0.93773 0.20535 0.0
H362 H 0.94017 0.02977 0.22248 0.0
C363 C 0.02424 0.9627 0.32715 0.0
C364 C 0.0434 0.0075 0.3393 0.0
C365 C 0.0076 0.95444 0.29537 0.0
C366 C 0.96595 0.00375 0.21788 0.0
H367 H 0.05135 0.88089 0.10781 0.0
H368 H 0.02623 0.88288 0.15412 0.0
H369 H 0.93438 0.01332 0.16904 0.0
H370 H 0.05525 0.07988 0.32717 0.0
H371 H 0.02444 0.06559 0.2714 0.0
H372 H 0.06349 0.92765 0.25418 0.0
C373 C 0.01891 0.91396 0.13958 0.0
C374 C 0.96305 0.99446 0.18728 0.0
C375 C 0.03245 0.91226 0.11271 0.0
C376 C 0.04056 0.04504 0.31867 0.0
C377 C 0.02308 0.03687 0.28673 0.0
C378 C 0.03475 0.94612 0.23568 0.0
C379 C 0.99957 0.95609 0.14847 0.0
C380 C 0.99728 0.96195 0.18053 0.0
C381 C 0.0086 0.99102 0.27495 0.0
C382 C 1.00204 0.97975 0.24231 0.0
H383 H 0.99419 0.02303 0.08563 0.0
H384 H 0.9737 0.0276 0.13328 0.0
H385 H 0.06115 0.91356 0.20175 0.0
H386 H 0.02475 0.93324 0.34233 0.0
H387 H 0.99616 0.91888 0.2868 0.0
C388 C 0.09295 0.96955 0.90369 0.0
C389 C 0.04756 0.94855 0.90589 0.0
C390 C 0.10272 0.96952 0.8755 0.0
C391 C 0.026 0.98194 0.79657 0.0
H392 H 0.14613 0.94984 0.77294 0.0
C393 C 0.06393 0.96144 0.67543 0.0
C394 C 0.04436 0.00518 0.66191 0.0
C395 C 0.07576 0.9546 0.70722 0.0
C396 C 0.11251 0.9591 0.77939 0.0
H397 H 0.97878 0.90828 0.88121 0.0
H398 H 0.99559 0.90847 0.83212 0.0
H399 H 0.14588 0.93195 0.8255 0.0
H400 H 0.02447 0.07669 0.67136 0.0
H401 H 0.04472 0.0646 0.72672 0.0
H402 H 0.99264 0.00958 0.75104 0.0
C403 C 0.02374 0.92469 0.85209 0.0
C404 C 0.11241 0.94892 0.80932 0.0
C405 C 0.01426 0.9244 0.88019 0.0
C406 C 0.03988 0.04274 0.68108 0.0
C407 C 0.05109 0.03573 0.71273 0.0
C408 C 0.02652 0.99291 0.76708 0.0
C409 C 0.06674 0.94909 0.84914 0.0
C410 C 0.06875 0.95973 0.81795 0.0
C411 C 0.06756 0.99119 0.72595 0.0
C412 C 0.06955 0.98143 0.75807 0.0
H413 H 0.11813 0.98992 0.9228 0.0
H414 H 0.13586 0.98899 0.87369 0.0
H415 H 0.99211 0.99114 0.80277 0.0
H416 H 0.06795 0.93193 0.6612 0.0
H417 H 0.0882 0.91988 0.7168 0.0
C418 C 0.51927 0.51196 0.61249 0.0
C419 C 0.53286 0.47173 0.59889 0.0
C420 C 0.50369 0.50776 0.63844 0.0
C421 C 0.52602 0.42817 0.7047 0.0
H422 H 0.44547 0.52369 0.7298 0.0
C423 C 0.53085 0.44249 0.83056 0.0
C424 C 0.54573 0.48778 0.84347 0.0
C425 C 0.51365 0.43581 0.79859 0.0
C426 C 0.46784 0.49661 0.72305 0.0
H427 H 0.53819 0.39528 0.6002 0.0
H428 H 0.50932 0.38732 0.64538 0.0
H429 H 0.44016 0.51775 0.67572 0.0
H430 H 0.55068 0.56204 0.83258 0.0
H431 H 0.51964 0.55048 0.7768 0.0
H432 H 0.55437 0.40769 0.75214 0.0
C433 C 0.5115 0.42238 0.63633 0.0
C434 C 0.46497 0.49322 0.69209 0.0
C435 C 0.52747 0.42673 0.61032 0.0
C436 C 0.53917 0.52676 0.82352 0.0
C437 C 0.52146 0.52011 0.7915 0.0
C438 C 0.52834 0.43118 0.73554 0.0
C439 C 0.50143 0.46306 0.65148 0.0
C440 C 0.49557 0.46013 0.68268 0.0
C441 C 0.51023 0.47435 0.77873 0.0
C442 C 0.50064 0.46645 0.74525 0.0
H443 H 0.52388 0.54707 0.60418 0.0
H444 H 0.49713 0.54001 0.64948 0.0
H445 H 0.55075 0.40267 0.69862 0.0
H446 H 0.53438 0.41181 0.84524 0.0
H447 H 0.50453 0.40024 0.7894 0.0
C448 C 0.58108 0.41725 0.40127 0.0
C449 C 0.58486 0.45921 0.41826 0.0
C450 C 0.59519 0.41672 0.37454 0.0
C451 C 0.64651 0.49457 0.32376 0.0
H452 H 0.55002 0.41941 0.25927 0.0
C453 C 0.56818 0.53733 0.19221 0.0
C454 C 0.56412 0.49894 0.17187 0.0
C455 C 0.58624 0.53023 0.2242 0.0
C456 C 0.57777 0.44016 0.27709 0.0
H457 H 0.60775 0.53294 0.42175 0.0
H458 H 0.62977 0.53313 0.3746 0.0
H459 H 0.55365 0.40873 0.31223 0.0
H460 H 0.58096 0.42415 0.16926 0.0
H461 H 0.6109 0.4117 0.22491 0.0
H462 H 0.66713 0.52847 0.28746 0.0
C463 C 0.61821 0.49985 0.38207 0.0
C464 C 0.5803 0.43379 0.3077 0.0
C465 C 0.60547 0.49993 0.40919 0.0
C466 C 0.58247 0.45425 0.18427 0.0
C467 C 0.59981 0.44708 0.21611 0.0
C468 C 0.64301 0.5017 0.29291 0.0
C469 C 0.61123 0.45872 0.36358 0.0
C470 C 0.61412 0.46137 0.33157 0.0
C471 C 0.60015 0.4846 0.23633 0.0
C472 C 0.60816 0.47486 0.2693 0.0
H473 H 0.56486 0.38554 0.40782 0.0
H474 H 0.59092 0.38386 0.36168 0.0
H475 H 0.67389 0.51587 0.34135 0.0
H476 H 0.55415 0.57211 0.18346 0.0
H477 H 0.58594 0.55971 0.23934 0.0
loop_
_geom_bond_atom_site_label_1
_geom_bond_atom_site_label_2
_geom_bond_distance
_geom_bond_site_symmetry_2
_ccdc_geom_bond_type
Zn0 O6 1.920 1_545 S
Zn0 O12 1.898 . S
Zn0 O15 1.905 1_545 S
Zn1 O9 1.905 . S
Zn1 O10 1.898 1_545 S
Zn1 O18 1.920 1_545 S
Zn2 O5 2.084 1_444 S
Zn2 O8 2.114 . S
Zn2 O11 2.120 1_545 S
Zn2 O13 2.120 1_455 S
Zn2 O14 2.114 1_554 S
Zn2 O17 2.080 . S
C3 O8 1.166 . S
C3 O9 1.182 . S
C4 O10 1.167 . S
C4 O11 1.299 . S
O5 Zn2 2.084 1_666 S
O5 C19 1.296 . S
O6 Zn0 1.920 1_565 S
O6 C19 1.234 . S
C7 O12 1.167 . S
C7 O13 1.299 1_556 S
O8 Zn2 2.114 . S
O8 C3 1.166 . S
O9 Zn1 1.905 . S
O9 C3 1.182 . S
O10 Zn1 1.898 1_565 S
O10 C4 1.167 . S
O11 Zn2 2.120 1_565 S
O11 C4 1.299 . S
O12 Zn0 1.898 . S
O12 C7 1.167 . S
O13 Zn2 2.120 1_655 S
O13 C7 1.299 1_554 S
O14 Zn2 2.114 1_556 S
O14 C16 1.166 1_545 S
O15 Zn0 1.905 1_565 S
O15 C16 1.182 1_655 S
C16 O14 1.166 1_565 S
C16 O15 1.182 1_455 S
O17 Zn2 2.080 . S
O17 C20 1.305 1_545 S
O18 Zn1 1.920 1_565 S
O18 C20 1.234 . S
C19 O5 1.296 . S
C19 O6 1.234 . S
C20 O17 1.305 1_565 S
C20 O18 1.234 . S
Zn21 O27 1.920 . S
Zn21 O33 1.898 . S
Zn21 O36 1.905 . S
Zn22 O30 1.905 . S
Zn22 O31 1.898 . S
Zn22 O39 1.920 . S
Zn23 O26 2.080 . S
Zn23 O29 2.114 . S
Zn23 O32 2.120 . S
Zn23 O34 2.120 . S
Zn23 O35 2.114 . S
Zn23 O38 2.080 . S
C24 O29 1.166 . S
C24 O30 1.182 . S
C25 O31 1.167 . S
C25 O32 1.299 . S
O26 Zn23 2.080 . S
O26 C40 1.305 . S
O27 Zn21 1.920 . S
O27 C40 1.234 . S
C28 O33 1.167 . S
C28 O34 1.299 . S
O29 Zn23 2.114 . S
O29 C24 1.166 . S
O30 Zn22 1.905 . S
O30 C24 1.182 . S
O31 Zn22 1.898 . S
O31 C25 1.167 . S
O32 Zn23 2.120 . S
O32 C25 1.299 . S
O33 Zn21 1.898 . S
O33 C28 1.167 . S
O34 Zn23 2.120 . S
O34 C28 1.299 . S
O35 Zn23 2.114 . S
O35 C37 1.166 . S
O36 Zn21 1.905 . S
O36 C37 1.182 . S
C37 O35 1.166 . S
C37 O36 1.182 . S
O38 Zn23 2.080 . S
O38 C41 1.305 . S
O39 Zn22 1.920 . S
O39 C41 1.234 . S
C40 O26 1.305 . S
C40 O27 1.234 . S
C41 O38 1.305 . S
C41 O39 1.234 . S
H42 C43 0.949 . S
C43 H42 0.949 . S
C43 C44 1.395 . S
C43 C45 1.391 . S
C44 C43 1.395 . S
C44 C47 1.390 1_545 S
C45 C43 1.391 . S
C45 C49 1.387 . S
C45 C50 1.491 . S
H46 C47 0.950 . S
C47 C44 1.390 1_565 S
C47 H46 0.950 . S
C47 C48 1.378 . S
C48 C47 1.378 . S
C48 C49 1.409 1_565 S
C49 C45 1.387 . S
C49 C48 1.409 1_545 S
C49 H51 0.951 . S
C50 C45 1.491 . S
C50 C52 1.382 . S
C50 C54 1.404 . S
H51 C49 0.951 . S
C52 C50 1.382 . S
C52 C53 1.390 . S
C52 H57 0.949 . S
C53 C52 1.390 . S
C53 C58 1.399 . S
C54 C50 1.404 . S
C54 H55 0.950 . S
C54 C56 1.375 . S
H55 C54 0.950 . S
C56 C54 1.375 . S
C56 C58 1.382 . S
C56 H60 0.950 . S
H57 C52 0.949 . S
C58 C53 1.399 . S
C58 C56 1.382 . S
C58 H59 0.952 . S
H59 C58 0.952 . S
H60 C56 0.950 . S
H61 C62 0.949 . S
C62 H61 0.949 . S
C62 C63 1.395 1_455 S
C62 C64 1.391 1_455 S
C63 C62 1.395 1_655 S
C63 C66 1.390 1_545 S
C64 C62 1.391 1_655 S
C64 C68 1.387 . S
C64 C69 1.491 1_655 S
H65 C66 0.950 . S
C66 C63 1.390 1_565 S
C66 H65 0.950 . S
C66 C67 1.378 . S
C67 C66 1.378 . S
C67 C68 1.409 1_565 S
C68 C64 1.387 . S
C68 C67 1.409 1_545 S
C68 H70 0.951 . S
C69 C64 1.491 1_455 S
C69 C71 1.382 . S
C69 C73 1.404 1_455 S
H70 C68 0.951 . S
C71 C69 1.382 . S
C71 C72 1.390 . S
C71 H76 0.949 . S
C72 C71 1.390 . S
C72 C77 1.399 . S
C73 C69 1.404 1_655 S
C73 H74 0.950 . S
C73 C75 1.375 . S
H74 C73 0.950 . S
C75 C73 1.375 . S
C75 C77 1.382 1_655 S
C75 H79 0.950 . S
H76 C71 0.949 . S
C77 C72 1.399 . S
C77 C75 1.382 1_455 S
C77 H78 0.952 . S
H78 C77 0.952 . S
H79 C75 0.950 . S
H80 C81 0.949 . S
C81 H80 0.949 . S
C81 C82 1.395 . S
C81 C83 1.391 . S
C82 C81 1.395 . S
C82 C85 1.390 . S
C83 C81 1.391 . S
C83 C87 1.387 . S
C83 C88 1.491 . S
H84 C85 0.950 . S
C85 C82 1.390 . S
C85 H84 0.950 . S
C85 C86 1.378 . S
C86 C85 1.378 . S
C86 C87 1.409 . S
C87 C83 1.387 . S
C87 C86 1.409 . S
C87 H89 0.951 . S
C88 C83 1.491 . S
C88 C90 1.382 . S
C88 C92 1.404 . S
H89 C87 0.951 . S
C90 C88 1.382 . S
C90 C91 1.390 . S
C90 H95 0.949 . S
C91 C90 1.390 . S
C91 C96 1.399 . S
C92 C88 1.404 . S
C92 H93 0.950 . S
C92 C94 1.375 1_556 S
H93 C92 0.950 . S
C94 C92 1.375 1_554 S
C94 C96 1.382 1_554 S
C94 H98 0.950 . S
H95 C90 0.949 . S
C96 C91 1.399 . S
C96 C94 1.382 1_556 S
C96 H97 0.952 1_556 S
H97 C96 0.952 1_554 S
H98 C94 0.950 . S
H99 C100 0.949 . S
C100 H99 0.949 . S
C100 C101 1.395 . S
C100 C102 1.391 . S
C101 C100 1.395 . S
C101 C104 1.390 . S
C102 C100 1.391 . S
C102 C106 1.387 . S
C102 C107 1.491 . S
H103 C104 0.950 . S
C104 C101 1.390 . S
C104 H103 0.950 . S
C104 C105 1.378 . S
C105 C104 1.378 . S
C105 C106 1.409 . S
C106 C102 1.387 . S
C106 C105 1.409 . S
C106 H108 0.951 . S
C107 C102 1.491 . S
C107 C109 1.382 . S
C107 C111 1.404 . S
H108 C106 0.951 . S
C109 C107 1.382 . S
C109 C110 1.390 . S
C109 H114 0.949 . S
C110 C109 1.390 . S
C110 C115 1.399 . S
C111 C107 1.404 . S
C111 H112 0.950 . S
C111 C113 1.375 . S
H112 C111 0.950 . S
C113 C111 1.375 . S
C113 C115 1.382 . S
C113 H117 0.950 1_554 S
H114 C109 0.949 . S
C115 C110 1.399 . S
C115 C113 1.382 . S
C115 H116 0.952 . S
H116 C115 0.952 . S
H117 C113 0.950 1_556 S
C118 C119 1.349 . S
C118 C120 1.327 . S
C118 H143 0.950 . S
C119 C118 1.349 . S
C119 C135 1.349 . S
C120 C118 1.327 . S
C120 C139 1.429 . S
C120 H144 0.950 . S
C121 C138 1.574 . S
C121 C140 1.368 . S
C121 H145 0.949 . S
H122 C126 0.949 . S
C123 C124 1.349 . S
C123 C125 1.327 . S
C123 H146 0.950 . S
C124 C123 1.349 . S
C124 C136 1.349 . S
C125 C123 1.327 . S
C125 C141 1.429 . S
C125 H147 0.950 . S
C126 H122 0.949 . S
C126 C134 1.574 . S
C126 C142 1.368 . S
H127 C135 0.950 . S
H128 C133 0.950 . S
H129 C134 0.949 . S
H130 C136 0.950 . S
H131 C137 0.950 . S
H132 C138 0.949 . S
C133 H128 0.950 . S
C133 C135 1.327 . S
C133 C139 1.429 . S
C134 C126 1.574 . S
C134 H129 0.949 . S
C134 C140 1.368 . S
C135 C119 1.349 . S
C135 H127 0.950 . S
C135 C133 1.327 . S
C136 C124 1.349 . S
C136 H130 0.950 . S
C136 C137 1.327 . S
C137 H131 0.950 . S
C137 C136 1.327 . S
C137 C141 1.429 . S
C138 C121 1.574 . S
C138 H132 0.949 . S
C138 C142 1.368 . S
C139 C120 1.429 . S
C139 C133 1.429 . S
C139 C140 1.523 . S
C140 C121 1.368 . S
C140 C134 1.368 . S
C140 C139 1.523 . S
C141 C125 1.429 . S
C141 C137 1.429 . S
C141 C142 1.523 . S
C142 C126 1.368 . S
C142 C138 1.368 . S
C142 C141 1.523 . S
H143 C118 0.950 . S
H144 C120 0.950 . S
H145 C121 0.949 . S
H146 C123 0.950 . S
H147 C125 0.950 . S
C148 C149 1.349 . S
C148 C150 1.327 . S
C148 H173 0.950 . S
C149 C148 1.349 . S
C149 C165 1.343 . S
C150 C148 1.327 . S
C150 C169 1.429 . S
C150 H174 0.950 . S
C151 C168 1.574 . S
C151 C170 1.368 . S
C151 H175 0.949 . S
H152 C156 0.949 . S
C153 C154 1.349 . S
C153 C155 1.327 . S
C153 H176 0.950 . S
C154 C153 1.349 . S
C154 C166 1.349 . S
C155 C153 1.327 . S
C155 C171 1.429 . S
C155 H177 0.950 . S
C156 H152 0.949 . S
C156 C164 1.574 . S
C156 C172 1.368 . S
H157 C165 0.946 1_554 S
H158 C163 0.950 . S
H159 C164 0.949 . S
H160 C166 0.950 . S
H161 C167 0.950 . S
H162 C168 0.949 . S
C163 H158 0.950 . S
C163 C165 1.338 . S
C163 C169 1.429 . S
C164 C156 1.574 . S
C164 H159 0.949 . S
C164 C170 1.368 . S
C165 C149 1.343 . S
C165 H157 0.946 1_556 S
C165 C163 1.338 . S
C166 C154 1.349 . S
C166 H160 0.950 . S
C166 C167 1.327 . S
C167 H161 0.950 . S
C167 C166 1.327 . S
C167 C171 1.429 . S
C168 C151 1.574 . S
C168 H162 0.949 . S
C168 C172 1.368 . S
C169 C150 1.429 . S
C169 C163 1.429 . S
C169 C170 1.523 . S
C170 C151 1.368 . S
C170 C164 1.368 . S
C170 C169 1.523 . S
C171 C155 1.429 . S
C171 C167 1.429 . S
C171 C172 1.523 . S
C172 C156 1.368 . S
C172 C168 1.368 . S
C172 C171 1.523 . S
H173 C148 0.950 . S
H174 C150 0.950 . S
H175 C151 0.949 . S
H176 C153 0.950 . S
H177 C155 0.950 . S
C178 C179 1.349 . S
C178 C180 1.327 . S
C178 H203 0.950 . S
C179 C178 1.349 . S
C179 C195 1.349 1_554 S
C180 C178 1.327 . S
C180 C199 1.429 . S
C180 H204 0.950 . S
C181 C198 1.570 1_556 S
C181 C200 1.362 1_556 S
C181 H205 0.959 . S
H182 C186 0.949 . S
C183 C184 1.349 . S
C183 C185 1.327 . S
C183 H206 0.950 . S
C184 C183 1.349 . S
C184 C196 1.349 . S
C185 C183 1.327 . S
C185 C201 1.429 . S
C185 H207 0.950 1_554 S
C186 H182 0.949 . S
C186 C194 1.574 . S
C186 C202 1.368 . S
H187 C195 0.950 . S
H188 C193 0.950 . S
H189 C194 0.949 . S
H190 C196 0.950 . S
H191 C197 0.950 . S
H192 C198 0.949 1_556 S
C193 H188 0.950 . S
C193 C195 1.327 . S
C193 C199 1.429 1_556 S
C194 C186 1.574 . S
C194 H189 0.949 . S
C194 C200 1.368 . S
C195 C179 1.349 1_556 S
C195 H187 0.950 . S
C195 C193 1.327 . S
C196 C184 1.349 . S
C196 H190 0.950 . S
C196 C197 1.327 . S
C197 H191 0.950 . S
C197 C196 1.327 . S
C197 C201 1.429 . S
C198 C181 1.570 1_554 S
C198 H192 0.949 1_554 S
C198 C202 1.368 . S
C199 C180 1.429 . S
C199 C193 1.429 1_554 S
C199 C200 1.523 . S
C200 C181 1.362 1_554 S
C200 C194 1.368 . S
C200 C199 1.523 . S
C201 C185 1.429 . S
C201 C197 1.429 . S
C201 C202 1.523 . S
C202 C186 1.368 . S
C202 C198 1.368 . S
C202 C201 1.523 . S
H203 C178 0.950 . S
H204 C180 0.950 . S
H205 C181 0.959 . S
H206 C183 0.950 . S
H207 C185 0.950 1_556 S
C208 C209 1.349 . S
C208 C210 1.327 . S
C208 H233 0.950 . S
C209 C208 1.349 . S
C209 C225 1.349 1_556 S
C210 C208 1.327 . S
C210 C229 1.429 . S
C210 H234 0.950 . S
C211 C228 1.574 . S
C211 C230 1.368 . S
C211 H235 0.949 1_556 S
H212 C216 0.949 . S
C213 C214 1.349 . S
C213 C215 1.327 . S
C213 H236 0.950 . S
C214 C213 1.349 . S
C214 C226 1.349 . S
C215 C213 1.327 . S
C215 C231 1.429 . S
C215 H237 0.950 . S
C216 H212 0.949 . S
C216 C224 1.574 . S
C216 C232 1.368 . S
H217 C225 0.950 . S
H218 C223 0.950 . S
H219 C224 0.949 . S
H220 C226 0.950 . S
H221 C227 0.950 . S
H222 C228 0.949 1_554 S
C223 H218 0.950 . S
C223 C225 1.327 . S
C223 C229 1.429 1_554 S
C224 C216 1.574 . S
C224 H219 0.949 . S
C224 C230 1.368 . S
C225 C209 1.349 1_554 S
C225 H217 0.950 . S
C225 C223 1.327 . S
C226 C214 1.349 . S
C226 H220 0.950 . S
C226 C227 1.327 . S
C227 H221 0.950 . S
C227 C226 1.327 . S
C227 C231 1.429 . S
C228 C211 1.574 . S
C228 H222 0.949 1_556 S
C228 C232 1.368 . S
C229 C210 1.429 . S
C229 C223 1.429 1_556 S
C229 C230 1.523 . S
C230 C211 1.368 . S
C230 C224 1.368 . S
C230 C229 1.523 . S
C231 C215 1.429 . S
C231 C227 1.429 . S
C231 C232 1.523 . S
C232 C216 1.368 . S
C232 C228 1.368 . S
C232 C231 1.523 . S
H233 C208 0.950 . S
H234 C210 0.950 . S
H235 C211 0.949 1_554 S
H236 C213 0.950 . S
H237 C215 0.950 . S
C238 C239 1.349 . S
C238 C240 1.327 . S
C238 H263 0.950 . S
C239 C238 1.349 . S
C239 C255 1.349 . S
C240 C238 1.327 . S
C240 C259 1.429 . S
C240 H264 0.950 . S
C241 C258 1.574 . S
C241 C260 1.368 . S
C241 H265 0.949 . S
H242 C246 0.949 . S
C243 C244 1.349 . S
C243 C245 1.327 . S
C243 H266 0.950 . S
C244 C243 1.349 . S
C244 C256 1.349 . S
C245 C243 1.327 . S
C245 C261 1.429 . S
C245 H267 0.950 . S
C246 H242 0.949 . S
C246 C254 1.574 . S
C246 C262 1.368 . S
H247 C255 0.950 . S
H248 C253 0.950 . S
H249 C254 0.949 . S
H250 C256 0.950 . S
H251 C257 0.950 . S
H252 C258 0.949 . S
C253 H248 0.950 . S
C253 C255 1.327 . S
C253 C259 1.429 . S
C254 C246 1.574 . S
C254 H249 0.949 . S
C254 C260 1.368 . S
C255 C239 1.349 . S
C255 H247 0.950 . S
C255 C253 1.327 . S
C256 C244 1.349 . S
C256 H250 0.950 . S
C256 C257 1.327 . S
C257 H251 0.950 . S
C257 C256 1.327 . S
C257 C261 1.429 . S
C258 C241 1.574 . S
C258 H252 0.949 . S
C258 C262 1.368 . S
C259 C240 1.429 . S
C259 C253 1.429 . S
C259 C260 1.523 . S
C260 C241 1.368 . S
C260 C254 1.368 . S
C260 C259 1.523 . S
C261 C245 1.429 . S
C261 C257 1.429 . S
C261 C262 1.523 . S
C262 C246 1.368 . S
C262 C258 1.368 . S
C262 C261 1.523 . S
H263 C238 0.950 . S
H264 C240 0.950 . S
H265 C241 0.949 . S
H266 C243 0.950 . S
H267 C245 0.950 . S
C268 C269 1.349 . S
C268 C270 1.327 . S
C268 H293 0.950 . S
C269 C268 1.349 . S
C269 C285 1.349 . S
C270 C268 1.327 . S
C270 C289 1.429 . S
C270 H294 0.950 . S
C271 C288 1.574 . S
C271 C290 1.368 . S
C271 H295 0.949 . S
H272 C276 0.949 . S
C273 C274 1.349 . S
C273 C275 1.327 . S
C273 H296 0.950 . S
C274 C273 1.349 . S
C274 C286 1.349 . S
C275 C273 1.327 . S
C275 C291 1.429 . S
C275 H297 0.950 . S
C276 H272 0.949 . S
C276 C284 1.574 . S
C276 C292 1.368 . S
H277 C285 0.950 . S
H278 C283 0.950 . S
H279 C284 0.949 . S
H280 C286 0.950 . S
H281 C287 0.950 . S
H282 C288 0.949 . S
C283 H278 0.950 . S
C283 C285 1.327 . S
C283 C289 1.429 . S
C284 C276 1.574 . S
C284 H279 0.949 . S
C284 C290 1.368 . S
C285 C269 1.349 . S
C285 H277 0.950 . S
C285 C283 1.327 . S
C286 C274 1.349 . S
C286 H280 0.950 . S
C286 C287 1.327 . S
C287 H281 0.950 . S
C287 C286 1.327 . S
C287 C291 1.429 . S
C288 C271 1.574 . S
C288 H282 0.949 . S
C288 C292 1.368 . S
C289 C270 1.429 . S
C289 C283 1.429 . S
C289 C290 1.523 . S
C290 C271 1.368 . S
C290 C284 1.368 . S
C290 C289 1.523 . S
C291 C275 1.429 . S
C291 C287 1.429 . S
C291 C292 1.523 . S
C292 C276 1.368 . S
C292 C288 1.368 . S
C292 C291 1.523 . S
H293 C268 0.950 . S
H294 C270 0.950 . S
H295 C271 0.949 . S
H296 C273 0.950 . S
H297 C275 0.950 . S
C298 C299 1.349 . S
C298 C300 1.327 . S
C298 H323 0.950 . S
C299 C298 1.349 . S
C299 C315 1.349 . S
C300 C298 1.327 . S
C300 C319 1.429 . S
C300 H324 0.950 . S
C301 C318 1.574 . S
C301 C320 1.368 . S
C301 H325 0.949 . S
H302 C306 0.949 . S
C303 C304 1.349 . S
C303 C305 1.327 . S
C303 H326 0.950 . S
C304 C303 1.349 . S
C304 C316 1.349 . S
C305 C303 1.327 . S
C305 C321 1.429 . S
C305 H327 0.950 . S
C306 H302 0.949 . S
C306 C314 1.574 . S
C306 C322 1.368 . S
H307 C315 0.950 . S
H308 C313 0.950 . S
H309 C314 0.949 . S
H310 C316 0.950 . S
H311 C317 0.950 . S
H312 C318 0.949 . S
C313 H308 0.950 . S
C313 C315 1.327 . S
C313 C319 1.429 . S
C314 C306 1.574 . S
C314 H309 0.949 . S
C314 C320 1.368 . S
C315 C299 1.349 . S
C315 H307 0.950 . S
C315 C313 1.327 . S
C316 C304 1.349 . S
C316 H310 0.950 . S
C316 C317 1.327 . S
C317 H311 0.950 . S
C317 C316 1.327 . S
C317 C321 1.429 . S
C318 C301 1.574 . S
C318 H312 0.949 . S
C318 C322 1.368 . S
C319 C300 1.429 . S
C319 C313 1.429 . S
C319 C320 1.523 . S
C320 C301 1.368 . S
C320 C314 1.368 . S
C320 C319 1.523 . S
C321 C305 1.429 . S
C321 C317 1.429 . S
C321 C322 1.523 . S
C322 C306 1.368 . S
C322 C318 1.368 . S
C322 C321 1.523 . S
H323 C298 0.950 . S
H324 C300 0.950 . S
H325 C301 0.949 . S
H326 C303 0.950 . S
H327 C305 0.950 . S
C328 C329 1.349 . S
C328 C330 1.327 . S
C328 H353 0.950 . S
C329 C328 1.349 . S
C329 C345 1.349 . S
C330 C328 1.327 . S
C330 C349 1.429 . S
C330 H354 0.950 . S
C331 C348 1.574 . S
C331 C350 1.368 . S
C331 H355 0.949 . S
H332 C336 0.949 . S
C333 C334 1.349 . S
C333 C335 1.327 . S
C333 H356 0.950 . S
C334 C333 1.349 . S
C334 C346 1.349 . S
C335 C333 1.327 . S
C335 C351 1.429 . S
C335 H357 0.950 . S
C336 H332 0.949 . S
C336 C344 1.574 . S
C336 C352 1.368 . S
H337 C345 0.950 . S
H338 C343 0.950 . S
H339 C344 0.949 . S
H340 C346 0.950 . S
H341 C347 0.950 . S
H342 C348 0.949 . S
C343 H338 0.950 . S
C343 C345 1.327 . S
C343 C349 1.429 . S
C344 C336 1.574 . S
C344 H339 0.949 . S
C344 C350 1.368 . S
C345 C329 1.349 . S
C345 H337 0.950 . S
C345 C343 1.327 . S
C346 C334 1.349 . S
C346 H340 0.950 . S
C346 C347 1.327 . S
C347 H341 0.950 . S
C347 C346 1.327 . S
C347 C351 1.429 . S
C348 C331 1.574 . S
C348 H342 0.949 . S
C348 C352 1.368 . S
C349 C330 1.429 . S
C349 C343 1.429 . S
C349 C350 1.523 . S
C350 C331 1.368 . S
C350 C344 1.368 . S
C350 C349 1.523 . S
C351 C335 1.429 . S
C351 C347 1.429 . S
C351 C352 1.523 . S
C352 C336 1.368 . S
C352 C348 1.368 . S
C352 C351 1.523 . S
H353 C328 0.950 . S
H354 C330 0.950 . S
H355 C331 0.949 . S
H356 C333 0.950 . S
H357 C335 0.950 . S
C358 C359 1.349 1_545 S
C358 C360 1.327 . S
C358 H383 0.950 . S
C359 C358 1.349 1_565 S
C359 C375 1.349 . S
C360 C358 1.327 . S
C360 C379 1.429 1_545 S
C360 H384 0.950 . S
C361 C378 1.574 . S
C361 C380 1.368 1_565 S
C361 H385 0.949 . S
H362 C366 0.949 . S
C363 C364 1.349 1_565 S
C363 C365 1.327 . S
C363 H386 0.950 . S
C364 C363 1.349 1_545 S
C364 C376 1.349 . S
C365 C363 1.327 . S
C365 C381 1.429 1_565 S
C365 H387 0.950 . S
C366 H362 0.949 . S
C366 C374 1.574 . S
C366 C382 1.368 . S
H367 C375 0.950 . S
H368 C373 0.950 . S
H369 C374 0.949 . S
H370 C376 0.950 . S
H371 C377 0.950 . S
H372 C378 0.949 . S
C373 H368 0.950 . S
C373 C375 1.327 . S
C373 C379 1.429 . S
C374 C366 1.574 . S
C374 H369 0.949 . S
C374 C380 1.368 . S
C375 C359 1.349 . S
C375 H367 0.950 . S
C375 C373 1.327 . S
C376 C364 1.349 . S
C376 H370 0.950 . S
C376 C377 1.327 . S
C377 H371 0.950 . S
C377 C376 1.327 . S
C377 C381 1.429 . S
C378 C361 1.574 . S
C378 H372 0.949 . S
C378 C382 1.368 1_565 S
C379 C360 1.429 1_565 S
C379 C373 1.429 . S
C379 C380 1.523 1_565 S
C380 C361 1.368 1_545 S
C380 C374 1.368 . S
C380 C379 1.523 1_545 S
C381 C365 1.429 1_545 S
C381 C377 1.429 . S
C381 C382 1.523 . S
C382 C366 1.368 . S
C382 C378 1.368 1_545 S
C382 C381 1.523 . S
H383 C358 0.950 . S
H384 C360 0.950 . S
H385 C361 0.949 . S
H386 C363 0.950 . S
H387 C365 0.950 . S
C388 C389 1.349 1_545 S
C388 C390 1.327 . S
C388 H413 0.950 . S
C389 C388 1.349 1_565 S
C389 C405 1.349 . S
C390 C388 1.327 . S
C390 C409 1.429 1_545 S
C390 H414 0.950 . S
C391 C408 1.574 . S
C391 C410 1.368 1_665 S
C391 H415 0.949 . S
H392 C396 0.949 . S
C393 C394 1.349 1_565 S
C393 C395 1.327 . S
C393 H416 0.950 . S
C394 C393 1.349 1_545 S
C394 C406 1.349 1_655 S
C395 C393 1.327 . S
C395 C411 1.432 1_565 S
C395 H417 0.950 . S
C396 H392 0.949 . S
C396 C404 1.574 . S
C396 C412 1.368 . S
H397 C405 0.950 1_655 S
H398 C403 0.947 1_655 S
H399 C404 0.949 . S
H400 C406 0.950 . S
H401 C407 0.950 . S
H402 C408 0.949 . S
C403 H398 0.947 1_455 S
C403 C405 1.324 . S
C403 C409 1.434 . S
C404 C396 1.574 . S
C404 H399 0.949 . S
C404 C410 1.368 . S
C405 C389 1.349 . S
C405 H397 0.950 1_455 S
C405 C403 1.324 . S
C406 C394 1.349 1_455 S
C406 H400 0.950 . S
C406 C407 1.327 . S
C407 H401 0.950 . S
C407 C406 1.327 . S
C407 C411 1.420 1_455 S
C408 C391 1.574 . S
C408 H402 0.949 . S
C408 C412 1.368 1_665 S
C409 C390 1.429 1_565 S
C409 C403 1.434 . S
C409 C410 1.523 1_565 S
C410 C391 1.368 1_445 S
C410 C404 1.368 . S
C410 C409 1.523 1_545 S
C411 C395 1.432 1_545 S
C411 C407 1.420 1_655 S
C411 C412 1.528 1_655 S
C412 C396 1.368 . S
C412 C408 1.368 1_445 S
C412 C411 1.528 1_455 S
H413 C388 0.950 . S
H414 C390 0.950 . S
H415 C391 0.949 . S
H416 C393 0.950 . S
H417 C395 0.950 . S
C418 C419 1.349 . S
C418 C420 1.327 . S
C418 H443 0.950 . S
C419 C418 1.349 . S
C419 C435 1.349 . S
C420 C418 1.327 . S
C420 C439 1.429 . S
C420 H444 0.950 . S
C421 C438 1.574 . S
C421 C440 1.368 . S
C421 H445 0.949 . S
H422 C426 0.949 . S
C423 C424 1.349 . S
C423 C425 1.327 . S
C423 H446 0.950 . S
C424 C423 1.349 . S
C424 C436 1.349 . S
C425 C423 1.327 . S
C425 C441 1.429 . S
C425 H447 0.950 . S
C426 H422 0.949 . S
C426 C434 1.574 . S
C426 C442 1.368 . S
H427 C435 0.950 . S
H428 C433 0.950 . S
H429 C434 0.949 . S
H430 C436 0.950 . S
H431 C437 0.950 . S
H432 C438 0.949 . S
C433 H428 0.950 . S
C433 C435 1.327 . S
C433 C439 1.429 . S
C434 C426 1.574 . S
C434 H429 0.949 . S
C434 C440 1.368 . S
C435 C419 1.349 . S
C435 H427 0.950 . S
C435 C433 1.327 . S
C436 C424 1.349 . S
C436 H430 0.950 . S
C436 C437 1.327 . S
C437 H431 0.950 . S
C437 C436 1.327 . S
C437 C441 1.429 . S
C438 C421 1.574 . S
C438 H432 0.949 . S
C438 C442 1.368 . S
C439 C420 1.429 . S
C439 C433 1.429 . S
C439 C440 1.523 . S
C440 C421 1.368 . S
C440 C434 1.368 . S
C440 C439 1.523 . S
C441 C425 1.429 . S
C441 C437 1.429 . S
C441 C442 1.523 . S
C442 C426 1.368 . S
C442 C438 1.368 . S
C442 C441 1.523 . S
H443 C418 0.950 . S
H444 C420 0.950 . S
H445 C421 0.949 . S
H446 C423 0.950 . S
H447 C425 0.950 . S
C448 C449 1.349 . S
C448 C450 1.327 . S
C448 H473 0.950 . S
C449 C448 1.349 . S
C449 C465 1.349 . S
C450 C448 1.327 . S
C450 C469 1.429 . S
C450 H474 0.950 . S
C451 C468 1.574 . S
C451 C470 1.368 . S
C451 H475 0.949 . S
H452 C456 0.949 . S
C453 C454 1.349 . S
C453 C455 1.327 . S
C453 H476 0.950 . S
C454 C453 1.349 . S
C454 C466 1.349 . S
C455 C453 1.327 . S
C455 C471 1.429 . S
C455 H477 0.950 . S
C456 H452 0.949 . S
C456 C464 1.574 . S
C456 C472 1.368 . S
H457 C465 0.950 . S
H458 C463 0.950 . S
H459 C464 0.949 . S
H460 C466 0.950 . S
H461 C467 0.950 . S
H462 C468 0.949 . S
C463 H458 0.950 . S
C463 C465 1.327 . S
C463 C469 1.429 . S
C464 C456 1.574 . S
C464 H459 0.949 . S
C464 C470 1.368 . S
C465 C449 1.349 . S
C465 H457 0.950 . S
C465 C463 1.327 . S
C466 C454 1.349 . S
C466 H460 0.950 . S
C466 C467 1.327 . S
C467 H461 0.950 . S
C467 C466 1.327 . S
C467 C471 1.429 . S
C468 C451 1.574 . S
C468 H462 0.949 . S
C468 C472 1.368 . S
C469 C450 1.429 . S
C469 C463 1.429 . S
C469 C470 1.523 . S
C470 C451 1.368 . S
C470 C464 1.368 . S
C470 C469 1.523 . S
C471 C455 1.429 . S
C471 C467 1.429 . S
C471 C472 1.523 . S
C472 C456 1.368 . S
C472 C468 1.368 . S
C472 C471 1.523 . S
H473 C448 0.950 . S
H474 C450 0.950 . S
H475 C451 0.949 . S
H476 C453 0.950 . S
H477 C455 0.950 . S
C124 C105 1.358 . S
C119 C3 1.258 . S
C149 C4 1.437 1_556 S
C154 C91 1.499 . S
C179 C19 1.463 1_554 S
C184 C110 1.517 . S
C209 C7 1.264 . S
C214 C86 1.372 . S
C239 C37 1.258 . S
C244 C67 1.358 . S
C269 C28 1.437 . S
C274 C53 1.499 1_655 S
C304 C72 1.517 . S
C299 C41 1.463 . S
C334 C48 1.372 . S
C329 C25 1.264 . S
C359 C20 1.378 . S
C364 C44 1.494 . S
C389 C16 1.428 . S
C394 C63 1.543 . S
C424 C82 1.494 . S
C419 C40 1.378 . S
C449 C24 1.428 . S
C454 C101 1.543 . S
