# Generated by pormake.
# Topology zzz, (3,6)-cn, num edge types: 1
# Building blocks:
#     Node 0, Type 0, BuildingBlock: VETTIZ_charged_linker_0, # of connection points: 3
#     Node 1, Type 0, BuildingBlock: VETTIZ_charged_linker_0, # of connection points: 3
#     Node 2, Type 0, BuildingBlock: VETTIZ_charged_linker_0, # of connection points: 3
#     Node 3, Type 0, BuildingBlock: VETTIZ_charged_linker_0, # of connection points: 3
#     Node 4, Type 0, BuildingBlock: VETTIZ_charged_linker_0, # of connection points: 3
#     Node 5, Type 0, BuildingBlock: VETTIZ_charged_linker_0, # of connection points: 3
#     Node 6, Type 0, BuildingBlock: VETTIZ_charged_linker_0, # of connection points: 3
#     Node 7, Type 0, BuildingBlock: VETTIZ_charged_linker_0, # of connection points: 3
#     Node 8, Type 1, BuildingBlock: MIFKUJ_clean_sbu_0, # of connection points: 6
#     Node 9, Type 1, BuildingBlock: MIFKUJ_clean_sbu_0, # of connection points: 6
#     Node 10, Type 1, BuildingBlock: MIFKUJ_clean_sbu_0, # of connection points: 6
#     Node 11, Type 1, BuildingBlock: MIFKUJ_clean_sbu_0, # of connection points: 6
#     Edge 12, Type (0, 1), BuildingBlock: KIFKEQ_clean_linker_1, # of connection points: 2
#     Edge 13, Type (0, 1), BuildingBlock: KIFKEQ_clean_linker_1, # of connection points: 2
#     Edge 14, Type (0, 1), BuildingBlock: KIFKEQ_clean_linker_1, # of connection points: 2
#     Edge 15, Type (0, 1), BuildingBlock: KIFKEQ_clean_linker_1, # of connection points: 2
#     Edge 16, Type (0, 1), BuildingBlock: KIFKEQ_clean_linker_1, # of connection points: 2
#     Edge 17, Type (0, 1), BuildingBlock: KIFKEQ_clean_linker_1, # of connection points: 2
#     Edge 18, Type (0, 1), BuildingBlock: KIFKEQ_clean_linker_1, # of connection points: 2
#     Edge 19, Type (0, 1), BuildingBlock: KIFKEQ_clean_linker_1, # of connection points: 2
#     Edge 20, Type (0, 1), BuildingBlock: KIFKEQ_clean_linker_1, # of connection points: 2
#     Edge 21, Type (0, 1), BuildingBlock: KIFKEQ_clean_linker_1, # of connection points: 2
#     Edge 22, Type (0, 1), BuildingBlock: KIFKEQ_clean_linker_1, # of connection points: 2
#     Edge 23, Type (0, 1), BuildingBlock: KIFKEQ_clean_linker_1, # of connection points: 2
#     Edge 24, Type (0, 1), BuildingBlock: KIFKEQ_clean_linker_1, # of connection points: 2
#     Edge 25, Type (0, 1), BuildingBlock: KIFKEQ_clean_linker_1, # of connection points: 2
#     Edge 26, Type (0, 1), BuildingBlock: KIFKEQ_clean_linker_1, # of connection points: 2
#     Edge 27, Type (0, 1), BuildingBlock: KIFKEQ_clean_linker_1, # of connection points: 2
#     Edge 28, Type (0, 1), BuildingBlock: KIFKEQ_clean_linker_1, # of connection points: 2
#     Edge 29, Type (0, 1), BuildingBlock: KIFKEQ_clean_linker_1, # of connection points: 2
#     Edge 30, Type (0, 1), BuildingBlock: KIFKEQ_clean_linker_1, # of connection points: 2
#     Edge 31, Type (0, 1), BuildingBlock: KIFKEQ_clean_linker_1, # of connection points: 2
#     Edge 32, Type (0, 1), BuildingBlock: KIFKEQ_clean_linker_1, # of connection points: 2
#     Edge 33, Type (0, 1), BuildingBlock: KIFKEQ_clean_linker_1, # of connection points: 2
#     Edge 34, Type (0, 1), BuildingBlock: KIFKEQ_clean_linker_1, # of connection points: 2
#     Edge 35, Type (0, 1), BuildingBlock: KIFKEQ_clean_linker_1, # of connection points: 2
# Relax obj value: 0.318
# Max RMSD: 0.217
# Mean RMSD: 0.195
data_MOF--net-zzz--node1-MIFKUJ_clean_sbu_0--node2-VETTIZ_charged_linker_0--edge1-KIFKEQ_clean_linker_1
_symmetry_space_group_name_H-M    P1
_symmetry_Int_Tables_number       1
_symmetry_cell_setting            triclinic
loop_
_symmetry_equiv_pos_as_xyz
'x, y, z'
_cell_length_a     56.850791
_cell_length_b     57.881526
_cell_length_c     21.444932
_cell_angle_alpha  89.640456
_cell_angle_beta   89.726934
_cell_angle_gamma 91.123023
loop_
_atom_site_label
_atom_site_type_symbol
_atom_site_fract_x
_atom_site_fract_y
_atom_site_fract_z
_atom_type_partial_charge
C0 C 0.78412 0.55749 0.14908 0.0
C1 C 0.80869 0.55897 0.15864 0.0
C2 C 0.82395 0.55269 0.11004 0.0
C3 C 0.79096 0.53995 0.04828 0.0
C4 C 0.77563 0.54844 0.0923 0.0
C5 C 0.75038 0.54634 0.07024 0.0
H6 H 0.67389 0.49987 0.85872 0.0
C7 C 0.77725 0.52857 0.99904 0.0
C8 C 0.75336 0.53268 0.01002 0.0
H9 H 0.65809 0.54984 0.00072 0.0
H10 H 0.69898 0.54974 0.03493 0.0
H11 H 0.7182 0.52486 0.81044 0.0
H12 H 0.71124 0.46879 0.9428 0.0
H13 H 0.73423 0.4624 0.89092 0.0
H14 H 0.70485 0.46564 0.86135 0.0
H15 H 0.71168 0.49579 0.78642 0.0
H16 H 0.74156 0.5062 0.79627 0.0
C17 C 0.74127 0.57097 0.05753 0.0
C18 C 0.7357 0.53267 0.11923 0.0
C19 C 0.81964 0.47456 0.85415 0.0
C20 C 0.81243 0.46082 0.80397 0.0
C21 C 0.78848 0.45989 0.78763 0.0
C22 C 0.7719 0.4725 0.82158 0.0
C23 C 0.77954 0.48653 0.87133 0.0
C24 C 0.80311 0.4874 0.8864 0.0
C25 C 0.80862 0.50431 0.93712 0.0
C26 C 0.78423 0.513 0.95201 0.0
C27 C 0.76729 0.50251 0.91367 0.0
C28 C 0.82501 0.5237 0.9097 0.0
C29 C 0.81934 0.4906 0.99203 0.0
C30 C 0.67915 0.51054 0.8978 0.0
C31 C 0.66287 0.52464 0.92767 0.0
C32 C 0.67045 0.53881 0.97722 0.0
C33 C 0.6941 0.53883 0.99663 0.0
C34 C 0.71032 0.52496 0.9651 0.0
C35 C 0.70265 0.51119 0.91646 0.0
C36 C 0.72231 0.49877 0.88512 0.0
C37 C 0.74321 0.50767 0.92183 0.0
C38 C 0.73618 0.52274 0.96949 0.0
C39 C 0.72355 0.50656 0.81581 0.0
C40 C 0.71803 0.47248 0.89494 0.0
H41 H 0.82788 0.53807 0.02129 0.0
H42 H 0.77201 0.56276 0.18517 0.0
H43 H 0.74446 0.51624 0.13141 0.0
H44 H 0.71795 0.528 0.10224 0.0
H45 H 0.73371 0.54284 0.16264 0.0
H46 H 0.75593 0.58322 0.0453 0.0
H47 H 0.73216 0.57793 0.0991 0.0
H48 H 0.72933 0.57157 0.01704 0.0
H49 H 0.83811 0.47632 0.86597 0.0
H50 H 0.78271 0.44972 0.74811 0.0
H51 H 0.75389 0.47122 0.80696 0.0
H52 H 0.82492 0.52402 0.8578 0.0
H53 H 0.84353 0.52145 0.92444 0.0
H54 H 0.81925 0.54119 0.92319 0.0
H55 H 0.80838 0.47494 0.00285 0.0
H56 H 0.82044 0.5004 0.03575 0.0
H57 H 0.83734 0.48487 0.98012 0.0
H58 H 0.84287 0.55364 0.11602 0.0
C59 C 0.81524 0.54328 0.05516 0.0
C60 C 0.07851 0.81571 0.8473 0.0
C61 C 0.08171 0.83924 0.86225 0.0
C62 C 0.07787 0.84623 0.92429 0.0
C63 C 0.06304 0.80799 0.95105 0.0
C64 C 0.06901 0.80044 0.89228 0.0
C65 C 0.06185 0.77551 0.88258 0.0
H66 H 0.99579 0.6824 0.97127 0.0
C67 C 0.04934 0.78937 0.98259 0.0
C68 C 0.04868 0.7702 0.94324 0.0
H69 H 0.04541 0.68886 0.8184 0.0
H70 H 0.05594 0.72735 0.85051 0.0
H71 H 0.03155 0.70769 0.07568 0.0
H72 H 0.97592 0.73652 0.96372 0.0
H73 H 0.97357 0.74563 0.04179 0.0
H74 H 0.9699 0.71542 0.02386 0.0
H75 H 0.00131 0.69869 0.08542 0.0
H76 H 0.01266 0.72449 0.1218 0.0
C77 C 0.08451 0.76115 0.87616 0.0
C78 C 0.04538 0.77417 0.82528 0.0
C79 C 0.00658 0.80935 0.18104 0.0
C80 C 0.98897 0.79842 0.21671 0.0
C81 C 0.98112 0.77602 0.20042 0.0
C82 C 0.99083 0.76477 0.14826 0.0
C83 C 0.00833 0.77622 0.1121 0.0
C84 C 0.01579 0.79817 0.12923 0.0
C85 C 0.03323 0.80873 0.08453 0.0
C86 C 0.0355 0.78946 0.03771 0.0
C87 C 0.02109 0.77025 0.05374 0.0
C88 C 0.05661 0.81304 0.11996 0.0
C89 C 0.02226 0.8308 0.05581 0.0
C90 C 0.00882 0.69228 0.94482 0.0
C91 C 0.01977 0.68263 0.89208 0.0
C92 C 0.03688 0.69583 0.85928 0.0
C93 C 0.04295 0.71823 0.87787 0.0
C94 C 0.03184 0.72777 0.92993 0.0
C95 C 0.01543 0.7148 0.96351 0.0
C96 C 0.00676 0.72776 0.01997 0.0
C97 C 0.02087 0.75039 0.01453 0.0
C98 C 0.03505 0.75032 0.96054 0.0
C99 C 0.01323 0.71397 0.07915 0.0
C100 C 0.98008 0.7315 0.01255 0.0
H101 H 0.06519 0.83743 0.01417 0.0
H102 H 0.08187 0.80966 0.80049 0.0
H103 H 0.03189 0.7878 0.82781 0.0
H104 H 0.03555 0.75763 0.82198 0.0
H105 H 0.05548 0.77677 0.78124 0.0
H106 H 0.10028 0.77056 0.89432 0.0
H107 H 0.0882 0.75691 0.82668 0.0
H108 H 0.08347 0.74492 0.90387 0.0
H109 H 0.01264 0.8267 0.19233 0.0
H110 H 0.96743 0.76738 0.22761 0.0
H111 H 0.98417 0.74777 0.13757 0.0
H112 H 0.06 0.79866 0.15322 0.0
H113 H 0.05604 0.82928 0.14721 0.0
H114 H 0.07214 0.81369 0.08874 0.0
H115 H 0.00276 0.83072 0.06077 0.0
H116 H 0.02526 0.83231 0.00494 0.0
H117 H 0.02909 0.84672 0.07868 0.0
H118 H 0.08009 0.86415 0.93759 0.0
C119 C 0.06873 0.83071 0.96873 0.0
C120 C 0.81603 0.95691 0.00254 0.0
C121 C 0.82518 0.9485 0.94592 0.0
C122 C 0.81099 0.93389 0.90892 0.0
C123 C 0.7786 0.93768 0.9811 0.0
C124 C 0.79277 0.95079 0.01991 0.0
C125 C 0.78003 0.95675 0.07963 0.0
H126 H 0.67853 0.94863 0.25085 0.0
C127 C 0.75527 0.93482 0.01019 0.0
C128 C 0.75607 0.94503 0.06945 0.0
H129 H 0.74174 0.98668 0.29884 0.0
H130 H 0.76094 0.9732 0.20421 0.0
H131 H 0.67398 0.96646 0.13476 0.0
H132 H 0.70248 0.90205 0.18522 0.0
H133 H 0.6845 0.89768 0.11913 0.0
H134 H 0.67223 0.91042 0.18828 0.0
H135 H 0.65706 0.94066 0.12321 0.0
H136 H 0.67511 0.95316 0.06169 0.0
C137 C 0.77823 0.98333 0.08299 0.0
C138 C 0.79331 0.94592 0.13492 0.0
C139 C 0.68439 0.91834 0.87614 0.0
C140 C 0.66023 0.91925 0.89073 0.0
C141 C 0.65304 0.91548 0.95303 0.0
C142 C 0.66967 0.91442 0.00078 0.0
C143 C 0.69358 0.91776 0.98621 0.0
C144 C 0.70082 0.91788 0.92471 0.0
C145 C 0.72716 0.9207 0.91872 0.0
C146 C 0.73379 0.92578 0.98626 0.0
C147 C 0.71395 0.92423 0.02513 0.0
C148 C 0.73288 0.94147 0.8749 0.0
C149 C 0.73727 0.89753 0.89549 0.0
C150 C 0.69673 0.95352 0.24175 0.0
C151 C 0.70889 0.96819 0.28254 0.0
C152 C 0.73221 0.9751 0.26808 0.0
C153 C 0.7432 0.96736 0.21312 0.0
C154 C 0.73043 0.95316 0.17155 0.0
C155 C 0.7075 0.94673 0.18634 0.0
C156 C 0.69526 0.9343 0.13434 0.0
C157 C 0.7149 0.93329 0.08643 0.0
C158 C 0.73565 0.94411 0.10834 0.0
C159 C 0.67426 0.9492 0.11228 0.0
C160 C 0.68804 0.90981 0.15775 0.0
H161 H 0.77788 0.91732 0.89628 0.0
H162 H 0.82674 0.96778 0.0325 0.0
H163 H 0.7983 0.92791 0.12394 0.0
H164 H 0.78256 0.94472 0.17778 0.0
H165 H 0.8097 0.95595 0.14512 0.0
H166 H 0.77426 0.99071 0.03626 0.0
H167 H 0.79503 0.99132 0.09917 0.0
H168 H 0.76382 0.98895 0.11362 0.0
H169 H 0.69032 0.92021 0.82831 0.0
H170 H 0.6346 0.91563 0.96588 0.0
H171 H 0.66321 0.91264 0.04757 0.0
H172 H 0.72328 0.95702 0.89023 0.0
H173 H 0.72769 0.93756 0.82618 0.0
H174 H 0.75174 0.94621 0.87381 0.0
H175 H 0.7237 0.88344 0.89374 0.0
H176 H 0.75115 0.89108 0.92705 0.0
H177 H 0.74472 0.8993 0.84767 0.0
H178 H 0.81765 0.92715 0.86538 0.0
C179 C 0.78787 0.92836 0.92641 0.0
C180 C 0.48357 0.72126 0.18664 0.0
C181 C 0.47833 0.69833 0.20511 0.0
C182 C 0.46148 0.6853 0.17216 0.0
C183 C 0.4565 0.71689 0.09987 0.0
C184 C 0.4723 0.73024 0.13355 0.0
C185 C 0.47559 0.75403 0.10487 0.0
H186 H 0.45238 0.82684 0.86286 0.0
C187 C 0.449 0.73025 0.04513 0.0
C188 C 0.45979 0.75222 0.04767 0.0
H189 H 0.49494 0.84161 0.02475 0.0
H190 H 0.48649 0.80311 0.06552 0.0
H191 H 0.47193 0.77897 0.83938 0.0
H192 H 0.40931 0.79921 0.93612 0.0
H193 H 0.40192 0.77591 0.88688 0.0
H194 H 0.41362 0.80239 0.85346 0.0
H195 H 0.44552 0.7857 0.7983 0.0
H196 H 0.45115 0.75684 0.82612 0.0
C197 C 0.5018 0.75736 0.08677 0.0
C198 C 0.46659 0.772 0.15195 0.0
C199 C 0.40633 0.68773 0.87357 0.0
C200 C 0.40206 0.69348 0.81093 0.0
C201 C 0.40324 0.71698 0.79291 0.0
C202 C 0.41106 0.73398 0.83487 0.0
C203 C 0.418 0.72737 0.89519 0.0
C204 C 0.41465 0.70472 0.91427 0.0
C205 C 0.42445 0.70024 0.97795 0.0
C206 C 0.43515 0.72372 0.9931 0.0
C207 C 0.43132 0.73956 0.94475 0.0
C208 C 0.44343 0.68135 0.97193 0.0
C209 C 0.40358 0.69385 0.02211 0.0
C210 C 0.4596 0.82197 0.90761 0.0
C211 C 0.47413 0.83737 0.94092 0.0
C212 C 0.48375 0.83002 0.99809 0.0
C213 C 0.47873 0.80773 0.02179 0.0
C214 C 0.46414 0.79255 0.98767 0.0
C215 C 0.45486 0.79987 0.93159 0.0
C216 C 0.4404 0.78142 0.90013 0.0
C217 C 0.44176 0.76199 0.94745 0.0
C218 C 0.45584 0.76842 0.99865 0.0
C219 C 0.45264 0.7754 0.83755 0.0
C220 C 0.41495 0.79009 0.89321 0.0
H221 H 0.43806 0.68343 0.09669 0.0
H222 H 0.49627 0.73167 0.21207 0.0
H223 H 0.45052 0.76536 0.17648 0.0
H224 H 0.46129 0.78826 0.12937 0.0
H225 H 0.48009 0.77593 0.18784 0.0
H226 H 0.50858 0.74144 0.06478 0.0
H227 H 0.51269 0.76109 0.12853 0.0
H228 H 0.50484 0.77127 0.05214 0.0
H229 H 0.40598 0.6699 0.88918 0.0
H230 H 0.39965 0.72199 0.7452 0.0
H231 H 0.41269 0.75139 0.8176 0.0
H232 H 0.45282 0.6828 0.92637 0.0
H233 H 0.4354 0.66373 0.97498 0.0
H234 H 0.45756 0.68282 0.00679 0.0
H235 H 0.38702 0.70199 0.00655 0.0
H236 H 0.40626 0.70031 0.07009 0.0
H237 H 0.40029 0.67488 0.02374 0.0
H238 H 0.45705 0.66774 0.18649 0.0
C239 C 0.45043 0.69448 0.12012 0.0
C240 C 0.30873 0.46222 0.19265 0.0
C241 C 0.31646 0.45676 0.25339 0.0
C242 C 0.30263 0.44183 0.29111 0.0
C243 C 0.27231 0.44078 0.21295 0.0
C244 C 0.28648 0.45382 0.17319 0.0
C245 C 0.27443 0.45792 0.11134 0.0
H246 H 0.17412 0.44491 0.93966 0.0
C247 C 0.24958 0.43631 0.18265 0.0
C248 C 0.25077 0.44545 0.12178 0.0
H249 H 0.23756 0.48173 0.88362 0.0
H250 H 0.25638 0.47043 0.98085 0.0
H251 H 0.1982 0.39982 0.01048 0.0
H252 H 0.16917 0.46472 0.05188 0.0
H253 H 0.16981 0.45244 0.12664 0.0
H254 H 0.15226 0.43902 0.06637 0.0
H255 H 0.16781 0.40769 0.00734 0.0
H256 H 0.18043 0.39613 0.07771 0.0
C257 C 0.28901 0.44652 0.05946 0.0
C258 C 0.27159 0.48424 0.10244 0.0
C259 C 0.17789 0.42064 0.31636 0.0
C260 C 0.15391 0.42162 0.3007 0.0
C261 C 0.14721 0.41666 0.23893 0.0
C262 C 0.16423 0.4146 0.1921 0.0
C263 C 0.18802 0.41831 0.20693 0.0
C264 C 0.19472 0.4195 0.26856 0.0
C265 C 0.22089 0.42326 0.27517 0.0
C266 C 0.22806 0.42725 0.20717 0.0
C267 C 0.20863 0.42458 0.16786 0.0
C268 C 0.23146 0.4009 0.30284 0.0
C269 C 0.22532 0.44502 0.31562 0.0
C270 C 0.19233 0.45 0.94718 0.0
C271 C 0.2045 0.46378 0.90337 0.0
C272 C 0.22784 0.47094 0.91661 0.0
C273 C 0.23866 0.46443 0.97308 0.0
C274 C 0.22577 0.45119 0.01736 0.0
C275 C 0.20296 0.44433 0.00355 0.0
C276 C 0.19057 0.43267 0.05715 0.0
C277 C 0.20996 0.43261 0.10529 0.0
C278 C 0.23072 0.44335 0.08218 0.0
C279 C 0.18369 0.40776 0.03737 0.0
C280 C 0.16935 0.44777 0.07664 0.0
H281 H 0.271 0.42248 0.3018 0.0
H282 H 0.31928 0.47332 0.16231 0.0
H283 H 0.26586 0.49233 0.14677 0.0
H284 H 0.25802 0.48855 0.06798 0.0
H285 H 0.28851 0.49263 0.08797 0.0
H286 H 0.29443 0.42896 0.07421 0.0
H287 H 0.3052 0.45691 0.04896 0.0
H288 H 0.279 0.44411 0.01599 0.0
H289 H 0.18344 0.42328 0.36404 0.0
H290 H 0.1289 0.41671 0.22528 0.0
H291 H 0.15814 0.41198 0.14548 0.0
H292 H 0.21845 0.38629 0.30493 0.0
H293 H 0.23783 0.40364 0.35118 0.0
H294 H 0.24622 0.39459 0.27387 0.0
H295 H 0.21489 0.45973 0.29792 0.0
H296 H 0.24382 0.45095 0.31589 0.0
H297 H 0.22019 0.4417 0.36493 0.0
H298 H 0.30856 0.43694 0.33723 0.0
C299 C 0.28083 0.43355 0.27081 0.0
C300 C 0.04643 0.20576 0.34168 0.0
C301 C 0.04731 0.18162 0.33454 0.0
C302 C 0.05238 0.17263 0.27507 0.0
C303 C 0.05013 0.21081 0.22975 0.0
C304 C 0.04778 0.22 0.28857 0.0
C305 C 0.04478 0.24577 0.28629 0.0
H306 H 0.01774 0.34199 0.12347 0.0
C307 C 0.04587 0.22928 0.18377 0.0
C308 C 0.04289 0.24987 0.21616 0.0
H309 H 0.03966 0.33518 0.31544 0.0
H310 H 0.04468 0.2946 0.30207 0.0
H311 H 0.0586 0.30535 0.06349 0.0
H312 H 0.98631 0.29063 0.11985 0.0
H313 H 0.99293 0.27926 0.04567 0.0
H314 H 0.9931 0.31009 0.05631 0.0
H315 H 0.03436 0.31998 0.02814 0.0
H316 H 0.0418 0.29131 0.00472 0.0
C317 C 0.06723 0.25735 0.31421 0.0
C318 C 0.02166 0.25159 0.32095 0.0
C319 C 0.03207 0.20475 0.96216 0.0
C320 C 0.02184 0.21489 0.90979 0.0
C321 C 0.01534 0.23832 0.9131 0.0
C322 C 0.01922 0.25127 0.96812 0.0
C323 C 0.02914 0.24048 0.02073 0.0
C324 C 0.03513 0.21748 0.01656 0.0
C325 C 0.04283 0.20745 0.07722 0.0
C326 C 0.04124 0.22826 0.11904 0.0
C327 C 0.03356 0.24792 0.08633 0.0
C328 C 0.06864 0.1997 0.06966 0.0
C329 C 0.02503 0.18775 0.09602 0.0
C330 C 0.02357 0.33154 0.16226 0.0
C331 C 0.02836 0.34172 0.22076 0.0
C332 C 0.03604 0.32774 0.27012 0.0
C333 C 0.03899 0.30413 0.26228 0.0
C334 C 0.03421 0.29406 0.2044 0.0
C335 C 0.02699 0.30755 0.15488 0.0
C336 C 0.02392 0.29317 0.09633 0.0
C337 C 0.0314 0.26931 0.11898 0.0
C338 C 0.03667 0.27014 0.18305 0.0
C339 C 0.04047 0.30295 0.04504 0.0
C340 C 0.9977 0.2933 0.07801 0.0
H341 H 0.0569 0.17905 0.1788 0.0
H342 H 0.04331 0.21326 0.38703 0.0
H343 H 0.00717 0.23962 0.30655 0.0
H344 H 0.01547 0.26915 0.31092 0.0
H345 H 0.02381 0.24989 0.37222 0.0
H346 H 0.08203 0.24513 0.31818 0.0
H347 H 0.06384 0.2641 0.36173 0.0
H348 H 0.07417 0.27163 0.28423 0.0
H349 H 0.03645 0.1866 0.96227 0.0
H350 H 0.0072 0.24653 0.87338 0.0
H351 H 0.014 0.26899 0.96817 0.0
H352 H 0.07893 0.21227 0.0404 0.0
H353 H 0.06945 0.18258 0.04674 0.0
H354 H 0.07815 0.19897 0.11446 0.0
H355 H 0.00829 0.18864 0.06948 0.0
H356 H 0.01936 0.18875 0.14533 0.0
H357 H 0.0324 0.17043 0.08738 0.0
H358 H 0.05323 0.15419 0.2676 0.0
C359 C 0.05402 0.18711 0.22291 0.0
C360 C 0.2718 0.07407 0.9929 0.0
C361 C 0.29506 0.08324 0.98731 0.0
C362 C 0.30434 0.09642 0.0368 0.0
C363 C 0.27011 0.08749 0.09971 0.0
C364 C 0.25936 0.07698 0.04955 0.0
C365 C 0.23416 0.06986 0.06576 0.0
H366 H 0.15301 0.05417 0.30174 0.0
C367 C 0.25495 0.08458 0.15484 0.0
C368 C 0.2333 0.07486 0.1358 0.0
H369 H 0.13913 0.04734 0.1053 0.0
H370 H 0.18056 0.05654 0.08166 0.0
H371 H 0.19851 0.02691 0.29826 0.0
H372 H 0.1849 0.09941 0.29837 0.0
H373 H 0.20753 0.09436 0.35249 0.0
H374 H 0.17943 0.08005 0.36286 0.0
H375 H 0.19575 0.0424 0.36976 0.0
H376 H 0.22389 0.03927 0.3314 0.0
C377 C 0.2303 0.04397 0.05192 0.0
C378 C 0.21762 0.08564 0.02866 0.0
C379 C 0.29421 0.08817 0.36568 0.0
C380 C 0.28728 0.07938 0.4241 0.0
C381 C 0.2637 0.07272 0.43445 0.0
C382 C 0.24736 0.07394 0.38586 0.0
C383 C 0.255 0.081 0.32596 0.0
C384 C 0.27803 0.08825 0.31698 0.0
C385 C 0.28386 0.09274 0.24955 0.0
C386 C 0.2605 0.08645 0.21906 0.0
C387 C 0.24377 0.07985 0.26404 0.0
C388 C 0.30372 0.07603 0.23094 0.0
C389 C 0.29047 0.11875 0.24145 0.0
C390 C 0.15882 0.05493 0.25353 0.0
C391 C 0.14298 0.05058 0.20534 0.0
C392 C 0.15117 0.051 0.14311 0.0
C393 C 0.17504 0.05654 0.12958 0.0
C394 C 0.1906 0.06163 0.17892 0.0
C395 C 0.18221 0.06039 0.2396 0.0
C396 C 0.20071 0.06521 0.28713 0.0
C397 C 0.22124 0.07183 0.24553 0.0
C398 C 0.21573 0.06936 0.18184 0.0
C399 C 0.20495 0.04243 0.32395 0.0
C400 C 0.19282 0.08574 0.32783 0.0
H401 H 0.30024 0.10846 0.1286 0.0
H402 H 0.2638 0.06464 0.9548 0.0
H403 H 0.22423 0.10385 0.02918 0.0
H404 H 0.19976 0.08603 0.04869 0.0
H405 H 0.21647 0.08011 0.97922 0.0
H406 H 0.24426 0.03363 0.07426 0.0
H407 H 0.23084 0.04075 0.00092 0.0
H408 H 0.21326 0.03732 0.07011 0.0
H409 H 0.31244 0.09293 0.35663 0.0
H410 H 0.25817 0.06581 0.47937 0.0
H411 H 0.22966 0.06849 0.39635 0.0
H412 H 0.29937 0.05815 0.24719 0.0
H413 H 0.32071 0.0814 0.2523 0.0
H414 H 0.30671 0.07478 0.18047 0.0
H415 H 0.28518 0.12916 0.28247 0.0
H416 H 0.28127 0.12664 0.20133 0.0
H417 H 0.30975 0.12138 0.23515 0.0
H418 H 0.32196 0.10384 0.0343 0.0
C419 C 0.29189 0.09881 0.09229 0.0
C420 C 0.51586 0.29052 0.99982 0.0
C421 C 0.52175 0.31211 0.97266 0.0
C422 C 0.54077 0.32516 0.99624 0.0
C423 C 0.54612 0.29692 0.07779 0.0
C424 C 0.52867 0.28307 0.05217 0.0
C425 C 0.52581 0.26053 0.08779 0.0
H426 H 0.55737 0.19547 0.33923 0.0
C427 C 0.55482 0.28568 0.13454 0.0
C428 C 0.54368 0.2639 0.14009 0.0
H429 H 0.50724 0.17682 0.19676 0.0
H430 H 0.51503 0.21339 0.14333 0.0
H431 H 0.59796 0.22178 0.24926 0.0
H432 H 0.53931 0.24072 0.36151 0.0
H433 H 0.55588 0.2665 0.35597 0.0
H434 H 0.56841 0.24146 0.39262 0.0
H435 H 0.59592 0.21969 0.33276 0.0
H436 H 0.60625 0.2459 0.29504 0.0
C437 C 0.53257 0.24064 0.04383 0.0
C438 C 0.50032 0.25873 0.113 0.0
C439 C 0.59462 0.33529 0.29648 0.0
C440 C 0.59914 0.33111 0.35994 0.0
C441 C 0.60125 0.30802 0.38038 0.0
C442 C 0.59555 0.28962 0.34059 0.0
C443 C 0.58748 0.29439 0.28011 0.0
C444 C 0.58843 0.31681 0.2578 0.0
C445 C 0.57854 0.31885 0.19315 0.0
C446 C 0.56944 0.29428 0.18288 0.0
C447 C 0.57469 0.28009 0.23392 0.0
C448 C 0.59898 0.32553 0.14784 0.0
C449 C 0.55832 0.33651 0.19476 0.0
C450 C 0.54845 0.19907 0.29579 0.0
C451 C 0.53204 0.18319 0.2714 0.0
C452 C 0.52008 0.18882 0.21607 0.0
C453 C 0.52467 0.20999 0.18519 0.0
C454 C 0.54104 0.22583 0.21068 0.0
C455 C 0.55245 0.22021 0.2654 0.0
C456 C 0.56765 0.23965 0.28933 0.0
C457 C 0.56459 0.25752 0.23824 0.0
C458 C 0.549 0.24945 0.19201 0.0
C459 C 0.59336 0.23141 0.29223 0.0
C460 C 0.5575 0.24751 0.35315 0.0
H461 H 0.56711 0.32849 0.06459 0.0
H462 H 0.50161 0.27996 0.98135 0.0
H463 H 0.49477 0.27561 0.13208 0.0
H464 H 0.49826 0.24625 0.1518 0.0
H465 H 0.48786 0.25381 0.07538 0.0
H466 H 0.54808 0.24569 0.01462 0.0
H467 H 0.51785 0.23614 0.01196 0.0
H468 H 0.53784 0.22495 0.06921 0.0
H469 H 0.59306 0.35273 0.27883 0.0
H470 H 0.60547 0.30423 0.42853 0.0
H471 H 0.59622 0.27247 0.35964 0.0
H472 H 0.61656 0.32304 0.1692 0.0
H473 H 0.59818 0.34395 0.13329 0.0
H474 H 0.59896 0.31454 0.10562 0.0
H475 H 0.54658 0.33309 0.23559 0.0
H476 H 0.54687 0.33589 0.15362 0.0
H477 H 0.56539 0.35447 0.19843 0.0
H478 H 0.54572 0.34163 0.97514 0.0
C479 C 0.5531 0.31758 0.04818 0.0
Zn480 Zn 0.98579 0.03011 0.5994 0.0
Zn481 Zn 0.98268 0.97439 0.541 0.0
C482 C 0.97877 0.07367 0.66546 0.0
O483 O 0.95693 0.06585 0.66813 0.0
C484 C 0.96921 0.92758 0.51245 0.0
O485 O 0.97389 0.92519 0.57206 0.0
O486 O 0.95857 0.0351 0.54006 0.0
O487 O 0.01416 0.01898 0.54949 0.0
O488 O 0.99247 0.99996 0.48153 0.0
C489 C 0.9531 0.05199 0.50493 0.0
O490 O 0.9332 0.05062 0.47416 0.0
O491 O 0.99433 0.06122 0.64007 0.0
C492 C 0.02359 0.96733 0.625 0.0
O493 O 0.01654 0.98507 0.65752 0.0
O494 O 0.01224 0.96121 0.57681 0.0
O495 O 0.95942 0.97957 0.61167 0.0
O496 O 0.97239 0.0094 0.66749 0.0
O497 O 0.97038 0.94772 0.48821 0.0
C498 C 0.01081 0.01192 0.49403 0.0
C499 C 0.95906 0.99162 0.66126 0.0
Zn500 Zn 0.47751 0.03305 0.67371 0.0
Zn501 Zn 0.53408 0.01671 0.62598 0.0
C502 C 0.44009 0.03493 0.75873 0.0
O503 O 0.44109 0.01281 0.74591 0.0
C504 C 0.57807 0.02275 0.55551 0.0
O505 O 0.57356 0.04484 0.56055 0.0
O506 O 0.45247 0.0255 0.61125 0.0
O507 O 0.49971 0.05607 0.62861 0.0
O508 O 0.51343 0.03098 0.56167 0.0
C509 C 0.44411 0.04407 0.58943 0.0
O510 O 0.45426 0.06388 0.60377 0.0
O511 O 0.45615 0.04851 0.73718 0.0
C512 C 0.55183 0.03636 0.74212 0.0
O513 O 0.55304 0.05198 0.78617 0.0
O514 O 0.54031 0.04049 0.69285 0.0
O515 O 0.52133 0.98849 0.66949 0.0
O516 O 0.48912 0.00299 0.71139 0.0
O517 O 0.564 0.00794 0.58033 0.0
C518 C 0.50706 0.05135 0.57398 0.0
C519 C 0.50408 0.98696 0.70728 0.0
Zn520 Zn 0.4832 0.48193 0.62742 0.0
Zn521 Zn 0.49386 0.52599 0.55281 0.0
C522 C 0.49471 0.44443 0.70268 0.0
O523 O 0.51509 0.45481 0.69169 0.0
C524 C 0.48685 0.5633 0.47272 0.0
O525 O 0.46541 0.55514 0.48258 0.0
O526 O 0.50785 0.47005 0.56864 0.0
O527 O 0.45434 0.49008 0.57775 0.0
O528 O 0.47626 0.50267 0.49948 0.0
C529 C 0.50197 0.45131 0.54195 0.0
O530 O 0.48012 0.44372 0.54753 0.0
O531 O 0.47615 0.4537 0.68195 0.0
C532 C 0.47868 0.56014 0.63199 0.0
O533 O 0.50137 0.56455 0.62652 0.0
O534 O 0.47033 0.54176 0.60786 0.0
O535 O 0.52174 0.5174 0.60653 0.0
O536 O 0.49858 0.50554 0.68302 0.0
O537 O 0.50405 0.55232 0.49527 0.0
C538 C 0.45683 0.49425 0.51971 0.0
C539 C 0.5183 0.51378 0.66451 0.0
Zn540 Zn 0.02831 0.51172 0.57052 0.0
Zn541 Zn 0.97556 0.51977 0.51721 0.0
C542 C 0.07067 0.51759 0.64615 0.0
O543 O 0.06065 0.5369 0.66263 0.0
C544 C 0.93518 0.52214 0.44035 0.0
O545 O 0.93815 0.4997 0.44296 0.0
O546 O 0.03096 0.53818 0.50785 0.0
O547 O 0.01702 0.4831 0.5254 0.0
O548 O 0.99635 0.50233 0.45633 0.0
C549 C 0.04275 0.53799 0.45734 0.0
O550 O 0.04105 0.55523 0.41765 0.0
O551 O 0.0602 0.50434 0.60761 0.0
C552 C 0.96079 0.48141 0.60722 0.0
O553 O 0.98123 0.48203 0.6354 0.0
O554 O 0.95664 0.49529 0.56276 0.0
O555 O 0.98725 0.54419 0.57942 0.0
O556 O 0.0088 0.52301 0.64177 0.0
O557 O 0.95027 0.53537 0.46644 0.0
C558 C 0.00766 0.4844 0.47175 0.0
C559 C 0.99686 0.54099 0.63226 0.0
H560 H 0.11975 0.00899 0.21086 0.0
H561 H 0.11178 0.08157 0.24682 0.0
H562 H 0.08481 1.00018 0.27475 0.0
H563 H 0.07679 0.07299 0.31013 0.0
H564 H 0.04615 0.04472 0.49674 0.0
H565 H 0.07422 0.05487 0.41429 0.0
H566 H 0.04174 0.00411 0.29378 0.0
H567 H 0.01358 0.99388 0.37648 0.0
C568 C 0.10982 0.0231 0.22999 0.0
C569 C 0.11818 0.04595 0.22331 0.0
C570 C 0.08994 0.01809 0.26704 0.0
C571 C 0.07826 0.03587 0.29847 0.0
C572 C 0.08562 0.05888 0.28749 0.0
C573 C 0.10539 0.06384 0.25043 0.0
C574 C 0.04492 0.03575 0.45266 0.0
C575 C 0.02766 0.01842 0.44342 0.0
C576 C 0.06088 0.04172 0.40509 0.0
C577 C 0.06016 0.03037 0.3472 0.0
C578 C 0.04283 0.01311 0.33783 0.0
C579 C 0.02667 0.00731 0.38522 0.0
H580 H 0.56341 0.15144 0.31052 0.0
H581 H 0.48939 0.16652 0.31238 0.0
H582 H 0.55606 0.11838 0.37992 0.0
H583 H 0.48198 0.13346 0.38254 0.0
H584 H 0.4897 0.09524 0.57642 0.0
H585 H 0.49405 0.12536 0.4966 0.0
H586 H 0.53445 0.07929 0.38267 0.0
H587 H 0.52988 0.04902 0.46178 0.0
C588 C 0.54552 0.14742 0.32514 0.0
C589 C 0.52695 0.16144 0.3061 0.0
C590 C 0.5413 0.1285 0.36469 0.0
C591 C 0.51847 0.12343 0.38685 0.0
C592 C 0.49977 0.13709 0.36647 0.0
C593 C 0.50396 0.15583 0.32596 0.0
C594 C 0.49933 0.09144 0.53415 0.0
C595 C 0.50938 0.06968 0.52551 0.0
C596 C 0.5017 0.10866 0.48831 0.0
C597 C 0.51452 0.10463 0.43337 0.0
C598 C 0.52453 0.08289 0.42465 0.0
C599 C 0.52185 0.06556 0.46997 0.0
H600 H 0.36245 0.45181 0.21674 0.0
H601 H 0.31868 0.48421 0.35422 0.0
H602 H 0.39756 0.46218 0.27793 0.0
H603 H 0.35339 0.49486 0.41461 0.0
H604 H 0.41258 0.47803 0.54797 0.0
H605 H 0.37978 0.47154 0.47746 0.0
H606 H 0.42311 0.49394 0.32172 0.0
H607 H 0.45623 0.50029 0.3925 0.0
C608 C 0.36047 0.46174 0.25901 0.0
C609 C 0.33796 0.46718 0.28103 0.0
C610 C 0.38048 0.4676 0.29418 0.0
C611 C 0.37821 0.47893 0.35184 0.0
C612 C 0.35573 0.48565 0.37128 0.0
C613 C 0.33588 0.47978 0.33642 0.0
C614 C 0.41521 0.48158 0.49875 0.0
C615 C 0.43706 0.48976 0.47607 0.0
C616 C 0.39631 0.478 0.45828 0.0
C617 C 0.39873 0.48247 0.39395 0.0
C618 C 0.42069 0.49027 0.37094 0.0
C619 C 0.43963 0.49397 0.4116 0.0
H620 H 0.98782 0.36639 0.22574 0.0
H621 H 0.06287 0.37248 0.25023 0.0
H622 H 0.98286 0.40334 0.27952 0.0
H623 H 0.05809 0.40925 0.30327 0.0
H624 H 0.03625 0.44716 0.48233 0.0
H625 H 0.04129 0.41568 0.40915 0.0
H626 H 0.99157 0.44674 0.28406 0.0
H627 H 0.9863 0.4784 0.35794 0.0
C628 C 0.00329 0.37613 0.24024 0.0
C629 C 0.02573 0.36669 0.2336 0.0
C630 C 1.00047 0.39719 0.27144 0.0
C631 C 0.02006 0.40902 0.29686 0.0
C632 C 0.04261 0.40039 0.28545 0.0
C633 C 0.0454 0.37949 0.2543 0.0
C634 C 0.02634 0.44736 0.43933 0.0
C635 C 0.0108 0.46534 0.42629 0.0
C636 C 0.02941 0.42938 0.39699 0.0
C637 C 0.01701 0.42879 0.34036 0.0
C638 C 0.00138 0.44669 0.32723 0.0
C639 C 0.99842 0.46484 0.36954 0.0
H640 H 0.86008 0.91995 0.91016 0.0
H641 H 0.84339 0.99201 0.92651 0.0
H642 H 0.89538 0.93026 0.85034 0.0
H643 H 0.87842 0.00249 0.86491 0.0
H644 H 0.92979 0.95366 0.66664 0.0
H645 H 0.9006 0.94369 0.74559 0.0
H646 H 0.92096 0.00413 0.85111 0.0
H647 H 0.95004 0.01451 0.77078 0.0
C648 C 0.86426 0.93805 0.90183 0.0
C649 C 0.84897 0.95518 0.92257 0.0
C650 C 0.88435 0.94398 0.86705 0.0
C651 C 0.88951 0.96718 0.85146 0.0
C652 C 0.87508 0.98445 0.87611 0.0
C653 C 0.85502 0.97849 0.91151 0.0
C654 C 0.92822 0.96482 0.70676 0.0
C655 C 0.94229 0.98495 0.71204 0.0
C656 C 0.91155 0.95896 0.75253 0.0
C657 C 0.90844 0.97301 0.80514 0.0
C658 C 0.92274 0.993 0.81104 0.0
C659 C 0.93951 0.99887 0.7651 0.0
H660 H 0.51658 0.86078 0.9343 0.0
H661 H 0.4431 0.86684 0.88817 0.0
H662 H 0.52498 0.89806 0.88336 0.0
H663 H 0.4515 0.90346 0.83586 0.0
H664 H 0.53244 0.94912 0.71445 0.0
H665 H 0.52612 0.91415 0.77713 0.0
H666 H 0.463 0.94299 0.85499 0.0
H667 H 0.46897 0.97757 0.79175 0.0
C668 C 0.50221 0.87018 0.91389 0.0
C669 C 0.4792 0.86082 0.91498 0.0
C670 C 0.50705 0.89139 0.88411 0.0
C671 C 0.48893 0.90372 0.8553 0.0
C672 C 0.46585 0.89459 0.85807 0.0
C673 C 0.46105 0.87346 0.88755 0.0
C674 C 0.51719 0.94798 0.74488 0.0
C675 C 0.50098 0.96602 0.74708 0.0
C676 C 0.5137 0.92802 0.78129 0.0
C677 C 0.49392 0.92566 0.82067 0.0
C678 C 0.47816 0.94403 0.82427 0.0
C679 C 0.48164 0.96392 0.78799 0.0
H680 H 0.63244 0.48831 0.91331 0.0
H681 H 0.63912 0.56198 0.88477 0.0
H682 H 0.59542 0.48778 0.85581 0.0
H683 H 0.60205 0.5615 0.8265 0.0
H684 H 0.559 0.53911 0.64754 0.0
H685 H 0.59159 0.54391 0.72061 0.0
H686 H 0.55365 0.50242 0.85706 0.0
H687 H 0.521 0.49768 0.7843 0.0
C688 C 0.62565 0.50446 0.89585 0.0
C689 C 0.63852 0.52519 0.90354 0.0
C690 C 0.60447 0.50418 0.86303 0.0
C691 C 0.59592 0.52458 0.83633 0.0
C692 C 0.60833 0.5455 0.84622 0.0
C693 C 0.62937 0.54583 0.88001 0.0
C694 C 0.55753 0.53118 0.6933 0.0
C695 C 0.53747 0.51791 0.70995 0.0
C696 C 0.57611 0.53409 0.73532 0.0
C697 C 0.57515 0.52355 0.79455 0.0
C698 C 0.55491 0.51066 0.81164 0.0
C699 C 0.5362 0.50801 0.76998 0.0
H700 H 0.04987 0.64789 0.86831 0.0
H701 H 0.97632 0.66462 0.86251 0.0
H702 H 0.04159 0.61189 0.81362 0.0
H703 H 0.96783 0.62827 0.80774 0.0
H704 H 0.97378 0.58216 0.62797 0.0
H705 H 0.97679 0.61416 0.70116 0.0
H706 H 0.02207 0.57382 0.81854 0.0
H707 H 0.01926 0.54186 0.74525 0.0
C708 C 0.03182 0.64357 0.85638 0.0
C709 C 0.01374 0.65905 0.86946 0.0
C710 C 0.02703 0.62288 0.82527 0.0
C711 C 0.00405 0.61721 0.80591 0.0
C712 C 0.98575 0.63224 0.82148 0.0
C713 C 0.99054 0.6529 0.85336 0.0
C714 C 0.98415 0.57997 0.66975 0.0
C715 C 0.9965 0.55948 0.68018 0.0
C716 C 0.98574 0.5983 0.712 0.0
C717 C 0.99979 0.59664 0.7656 0.0
C718 C 0.01134 0.57579 0.77733 0.0
C719 C 0.00966 0.55743 0.7353 0.0
H720 H 0.01129 0.18821 0.41722 0.0
H721 H 0.06359 0.13864 0.36462 0.0
H722 H 0.9904 0.15856 0.47713 0.0
H723 H 0.04168 0.10859 0.41988 0.0
H724 H 1.00057 0.05643 0.52312 0.0
H725 H 0.02585 0.08983 0.5061 0.0
H726 H 0.96563 0.12817 0.4443 0.0
H727 H 0.94021 0.09491 0.46705 0.0
C728 C 0.01874 0.17116 0.41971 0.0
C729 C 0.03886 0.16569 0.38474 0.0
C730 C 0.00645 0.154 0.45319 0.0
C731 C 0.01381 0.13097 0.45168 0.0
C732 C 0.0353 0.12607 0.42217 0.0
C733 C 0.04781 0.1433 0.38968 0.0
C734 C 0.99262 0.07205 0.50804 0.0
C735 C 0.96837 0.07288 0.4976 0.0
C736 C 0.0072 0.0913 0.4973 0.0
C737 C 0.99793 0.11182 0.47346 0.0
C738 C 0.97347 0.11287 0.4639 0.0
C739 C 0.95887 0.09365 0.47605 0.0
H740 H 0.3189 0.10862 0.47794 0.0
H741 H 0.29803 0.03675 0.46593 0.0
H742 H 0.35639 0.09765 0.52324 0.0
H743 H 0.3359 0.02556 0.50887 0.0
H744 H 0.40568 0.01738 0.62024 0.0
H745 H 0.36485 0.02552 0.59291 0.0
H746 H 0.3893 0.0807 0.47059 0.0
H747 H 0.42972 0.07304 0.49957 0.0
C748 C 0.32213 0.09052 0.48696 0.0
C749 C 0.30579 0.0735 0.4687 0.0
C750 C 0.34366 0.08418 0.51184 0.0
C751 C 0.34935 0.06071 0.51762 0.0
C752 C 0.33206 0.04376 0.50477 0.0
C753 C 0.31035 0.05014 0.4806 0.0
C754 C 0.40222 0.03079 0.5862 0.0
C755 C 0.42066 0.04459 0.56167 0.0
C756 C 0.3789 0.03561 0.57109 0.0
C757 C 0.37386 0.05418 0.53104 0.0
C758 C 0.39256 0.06682 0.50334 0.0
C759 C 0.4157 0.0622 0.51895 0.0
H760 H 0.57585 0.32811 0.47119 0.0
H761 H 0.61226 0.37727 0.35045 0.0
H762 H 0.55631 0.35948 0.5229 0.0
H763 H 0.59165 0.40876 0.40127 0.0
H764 H 0.5498 0.45915 0.53334 0.0
H765 H 0.57963 0.43127 0.5022 0.0
H766 H 0.52459 0.38101 0.46358 0.0
H767 H 0.49506 0.40849 0.49384 0.0
C768 C 0.58053 0.34561 0.45717 0.0
C769 C 0.59518 0.35005 0.40523 0.0
C770 C 0.569 0.36361 0.48643 0.0
C771 C 0.57185 0.38638 0.46444 0.0
C772 C 0.58891 0.39128 0.41849 0.0
C773 C 0.60061 0.37321 0.38926 0.0
C774 C 0.54413 0.44221 0.51752 0.0
C775 C 0.52006 0.43598 0.51628 0.0
C776 C 0.56119 0.42629 0.50009 0.0
C777 C 0.5544 0.40386 0.48208 0.0
C778 C 0.53035 0.39799 0.47897 0.0
C779 C 0.5134 0.41385 0.49566 0.0
H780 H 0.10648 0.41243 0.31903 0.0
H781 H 0.16322 0.45856 0.37491 0.0
H782 H 0.07822 0.43858 0.36585 0.0
H783 H 0.13529 0.48421 0.42091 0.0
H784 H 0.03869 0.50838 0.36012 0.0
H785 H 0.06448 0.47631 0.33512 0.0
H786 H 0.10672 0.4925 0.49693 0.0
H787 H 0.08169 0.52532 0.51863 0.0
C788 C 0.11297 0.42779 0.34244 0.0
C789 C 0.13716 0.43338 0.34279 0.0
C790 C 0.09678 0.4428 0.36894 0.0
C791 C 0.10444 0.46361 0.39633 0.0
C792 C 0.1287 0.46823 0.40092 0.0
C793 C 0.14483 0.45332 0.3746 0.0
C794 C 0.05346 0.50485 0.39023 0.0
C795 C 0.05787 0.51855 0.44265 0.0
C796 C 0.06804 0.48637 0.37654 0.0
C797 C 0.08747 0.48156 0.41466 0.0
C798 C 0.09184 0.49557 0.46686 0.0
C799 C 0.07734 0.51408 0.48007 0.0
H800 H 0.10756 0.88006 0.86445 0.0
H801 H 0.06101 0.83937 0.74794 0.0
H802 H 0.1018 0.91353 0.79661 0.0
H803 H 0.05559 0.87236 0.68056 0.0
H804 H 0.04325 0.96729 0.74123 0.0
H805 H 0.06646 0.93678 0.78736 0.0
H806 H 0.06913 0.90228 0.60942 0.0
H807 H 0.04539 0.93252 0.56364 0.0
C808 C 0.09662 0.87805 0.82356 0.0
C809 C 0.0844 0.85711 0.81243 0.0
C810 C 0.09333 0.89723 0.78476 0.0
C811 C 0.07792 0.89574 0.73382 0.0
C812 C 0.06774 0.87415 0.71906 0.0
C813 C 0.07092 0.85507 0.75789 0.0
C814 C 0.04929 0.95352 0.71156 0.0
C815 C 0.042 0.95201 0.64923 0.0
C816 C 0.06277 0.93607 0.7379 0.0
C817 C 0.06933 0.91687 0.70226 0.0
C818 C 0.06395 0.91659 0.63839 0.0
C819 C 0.05036 0.93394 0.61219 0.0
H820 H 0.61349 0.90781 0.87028 0.0
H821 H 0.66902 0.95541 0.81252 0.0
H822 H 0.58463 0.93227 0.81919 0.0
H823 H 0.6407 0.97974 0.76356 0.0
H824 H 0.54371 1.00179 0.82642 0.0
H825 H 0.56831 0.96831 0.84554 0.0
H826 H 0.61302 0.98912 0.69029 0.0
H827 H 0.58975 0.0236 0.67663 0.0
C828 C 0.6196 0.92316 0.84547 0.0
C829 C 0.64356 0.9297 0.84596 0.0
C830 C 0.60307 0.93726 0.81659 0.0
C831 C 0.61019 0.95825 0.78804 0.0
C832 C 0.63439 0.96364 0.78412 0.0
C833 C 0.65082 0.94953 0.81238 0.0
C834 C 0.55871 0.9989 0.79631 0.0
C835 C 0.56467 0.01479 0.74904 0.0
C836 C 0.57264 0.97959 0.80652 0.0
C837 C 0.5928 0.97592 0.76956 0.0
C838 C 0.59788 0.99143 0.72026 0.0
C839 C 0.58426 0.01092 0.71121 0.0
H840 H 0.42504 0.69396 0.69906 0.0
H841 H 0.38117 0.6501 0.81717 0.0
H842 H 0.43901 0.6602 0.64509 0.0
H843 H 0.39616 0.61609 0.7644 0.0
H844 H 0.43024 0.55955 0.63828 0.0
H845 H 0.40496 0.59191 0.66601 0.0
H846 H 0.46676 0.63414 0.70255 0.0
H847 H 0.49175 0.60229 0.67563 0.0
C848 C 0.41754 0.67726 0.71192 0.0
C849 C 0.40251 0.67473 0.76388 0.0
C850 C 0.42585 0.65784 0.68139 0.0
C851 C 0.41934 0.63556 0.70227 0.0
C852 C 0.40171 0.63308 0.74795 0.0
C853 C 0.39322 0.65257 0.77832 0.0
C854 C 0.43835 0.57572 0.65277 0.0
C855 C 0.46301 0.57837 0.65467 0.0
C856 C 0.42389 0.59422 0.66819 0.0
C857 C 0.43393 0.61567 0.6848 0.0
C858 C 0.45852 0.61802 0.68809 0.0
C859 C 0.47286 0.59963 0.6734 0.0
H860 H 0.82006 0.46842 0.68095 0.0
H861 H 0.84683 0.43155 0.83998 0.0
H862 H 0.85726 0.46392 0.62708 0.0
H863 H 0.88402 0.42595 0.78519 0.0
H864 H 0.95172 0.46855 0.72758 0.0
H865 H 0.91454 0.45326 0.76827 0.0
H866 H 0.88868 0.44529 0.58001 0.0
H867 H 0.92551 0.46184 0.53995 0.0
C868 C 0.83355 0.45826 0.70298 0.0
C869 C 0.83079 0.45057 0.76466 0.0
C870 C 0.855 0.45563 0.67216 0.0
C871 C 0.87398 0.44503 0.70237 0.0
C872 C 0.87005 0.43479 0.76125 0.0
C873 C 0.84869 0.43772 0.79237 0.0
C874 C 0.9383 0.46292 0.69502 0.0
C875 C 0.9412 0.4668 0.63089 0.0
C876 C 0.91695 0.45399 0.7182 0.0
C877 C 0.8983 0.44843 0.67744 0.0
C878 C 0.90235 0.45 0.61283 0.0
C879 C 0.92348 0.45937 0.58983 0.0
H880 H 0.05151 0.18549 0.8517 0.0
H881 H 0.98012 0.20922 0.84709 0.0
H882 H 0.04086 0.1534 0.78453 0.0
H883 H 0.96943 0.17752 0.77698 0.0
H884 H 0.95236 0.10023 0.74276 0.0
H885 H 0.96282 0.13733 0.78859 0.0
H886 H 0.02919 0.13745 0.68932 0.0
H887 H 0.01897 0.09978 0.64541 0.0
C888 C 0.03364 0.18422 0.83459 0.0
C889 C 0.01661 0.19978 0.8553 0.0
C890 C 0.02749 0.1658 0.79567 0.0
C891 C 0.00412 0.16244 0.77581 0.0
C892 C 0.98749 0.17915 0.79244 0.0
C893 C 0.99366 0.1976 0.83179 0.0
C894 C 0.96917 0.1082 0.73052 0.0
C895 C 0.98496 0.09683 0.69109 0.0
C896 C 0.9751 0.12969 0.75637 0.0
C897 C 0.99693 0.14061 0.74301 0.0
C898 C 0.01241 0.12951 0.70181 0.0
C899 C 0.00655 0.10787 0.67646 0.0
H900 H 0.30167 0.04122 0.93222 0.0
H901 H 0.32577 0.11233 0.92503 0.0
H902 H 0.33536 0.03016 0.86901 0.0
H903 H 0.36025 0.10125 0.86635 0.0
H904 H 0.41876 0.07651 0.74052 0.0
H905 H 0.3806 0.08828 0.78088 0.0
H906 H 0.37492 0.02449 0.8866 0.0
H907 H 0.41224 0.01242 0.84331 0.0
C908 C 0.31385 0.05458 0.91595 0.0
C909 C 0.3112 0.07759 0.93469 0.0
C910 C 0.33355 0.0482 0.88079 0.0
C911 C 0.35121 0.06462 0.86412 0.0
C912 C 0.3473 0.08796 0.87813 0.0
C913 C 0.32748 0.09435 0.91232 0.0
C914 C 0.40941 0.0652 0.77301 0.0
C915 C 0.41861 0.04366 0.78933 0.0
C916 C 0.38742 0.07187 0.7961 0.0
C917 C 0.37428 0.05732 0.83692 0.0
C918 C 0.38394 0.03598 0.85404 0.0
C919 C 0.40563 0.02917 0.83004 0.0
H920 H 0.53154 0.31051 0.84908 0.0
H921 H 0.48364 0.33903 0.98303 0.0
H922 H 0.52002 0.3396 0.77253 0.0
H923 H 0.4724 0.36853 0.90736 0.0
H924 H 0.45643 0.41995 0.75033 0.0
H925 H 0.45679 0.38249 0.80495 0.0
H926 H 0.53215 0.38026 0.78015 0.0
H927 H 0.53181 0.41709 0.72623 0.0
C928 C 0.51768 0.32232 0.86094 0.0
C929 C 0.50827 0.32248 0.92145 0.0
C930 C 0.51132 0.33919 0.81758 0.0
C931 C 0.49569 0.35671 0.83438 0.0
C932 C 0.4844 0.35528 0.89281 0.0
C933 C 0.49072 0.33832 0.93609 0.0
C934 C 0.47299 0.4113 0.75631 0.0
C935 C 0.49411 0.4216 0.73445 0.0
C936 C 0.47319 0.38988 0.78745 0.0
C937 C 0.49446 0.37824 0.79627 0.0
C938 C 0.51539 0.38842 0.77306 0.0
C939 C 0.51522 0.40978 0.74279 0.0
H940 H 0.17707 0.43827 0.82478 0.0
H941 H 0.20148 0.50809 0.8586 0.0
H942 H 0.14744 0.45251 0.75385 0.0
H943 H 0.17237 0.52251 0.78505 0.0
H944 H 0.09472 0.53893 0.74043 0.0
H945 H 0.13094 0.52691 0.78978 0.0
H946 H 0.13567 0.47022 0.66035 0.0
H947 H 0.09883 0.48176 0.61266 0.0
C948 C 0.17654 0.45668 0.81545 0.0
C949 C 0.19142 0.47207 0.84788 0.0
C950 C 0.15959 0.46489 0.77439 0.0
C951 C 0.15713 0.48876 0.76425 0.0
C952 C 0.17337 0.50405 0.79275 0.0
C953 C 0.19033 0.49579 0.83417 0.0
C954 C 0.10356 0.52399 0.72218 0.0
C955 C 0.0937 0.51118 0.67298 0.0
C956 C 0.12454 0.5172 0.75014 0.0
C957 C 0.13637 0.49751 0.72933 0.0
C958 C 0.12693 0.48524 0.67843 0.0
C959 C 0.10581 0.49191 0.65084 0.0
H960 H 0.95116 0.82619 0.21322 0.0
H961 H 0.00558 0.80175 0.33458 0.0
H962 H 0.94132 0.85603 0.28907 0.0
H963 H 0.99614 0.83159 0.41031 0.0
H964 H 0.96882 0.88223 0.54933 0.0
H965 H 0.9682 0.84803 0.48355 0.0
H966 H 0.96204 0.89145 0.32015 0.0
H967 H 0.96234 0.92566 0.38596 0.0
C968 C 0.96039 0.82672 0.25729 0.0
C969 C 0.97878 0.81148 0.26888 0.0
C970 C 0.95504 0.84398 0.3003 0.0
C971 C 0.96807 0.84638 0.35562 0.0
C972 C 0.98553 0.83013 0.36866 0.0
C973 C 0.99092 0.81295 0.32551 0.0
C974 C 0.96698 0.88451 0.49943 0.0
C975 C 0.96582 0.90676 0.47294 0.0
C976 C 0.96673 0.86485 0.46169 0.0
C977 C 0.96523 0.86693 0.39649 0.0
C978 C 0.96296 0.88914 0.37023 0.0
C979 C 0.96326 0.90881 0.40798 0.0
H980 H 0.69571 0.01255 0.29864 0.0
H981 H 0.69116 0.94491 0.38324 0.0
H982 H 0.66574 0.02623 0.37048 0.0
H983 H 0.66217 0.95867 0.45795 0.0
H984 H 0.58811 0.97945 0.51451 0.0
H985 H 0.62258 0.96729 0.45702 0.0
H986 H 0.65219 0.03653 0.46875 0.0
H987 H 0.61698 0.04888 0.52348 0.0
C988 C 0.68893 1.00091 0.33449 0.0
C989 C 0.69579 0.97778 0.33589 0.0
C990 C 0.67168 0.00869 0.37577 0.0
C991 C 0.6611 0.99352 0.41985 0.0
C992 C 0.66933 0.97075 0.42374 0.0
C993 C 0.68625 0.9629 0.38171 0.0
C994 C 0.60202 0.99206 0.50495 0.0
C995 C 0.59969 0.01517 0.52312 0.0
C996 C 0.622 0.98504 0.4724 0.0
C997 C 0.64044 1.00086 0.45802 0.0
C998 C 0.63829 0.02389 0.47777 0.0
C999 C 0.6181 0.03098 0.50949 0.0
H1000 H 0.46695 0.70118 0.32762 0.0
H1001 H 0.51363 0.6679 0.19901 0.0
H1002 H 0.47403 0.67091 0.40506 0.0
H1003 H 0.52051 0.6374 0.27552 0.0
H1004 H 0.52813 0.58406 0.43122 0.0
H1005 H 0.53271 0.62182 0.37922 0.0
H1006 H 0.45775 0.63148 0.39398 0.0
H1007 H 0.45321 0.59429 0.44535 0.0
C1008 C 0.47967 0.68803 0.31728 0.0
C1009 C 0.48989 0.68685 0.25785 0.0
C1010 C 0.48348 0.67052 0.36111 0.0
C1011 C 0.49741 0.65149 0.34582 0.0
C1012 C 0.50975 0.65182 0.28888 0.0
C1013 C 0.50593 0.66933 0.24512 0.0
C1014 C 0.5127 0.59437 0.42352 0.0
C1015 C 0.49028 0.58606 0.44174 0.0
C1016 C 0.51534 0.61598 0.394 0.0
C1017 C 0.49564 0.62979 0.38316 0.0
C1018 C 0.47337 0.62158 0.40277 0.0
C1019 C 0.47072 0.60002 0.43146 0.0
H1020 H 0.79896 0.53644 0.26751 0.0
H1021 H 0.84374 0.58989 0.18735 0.0
H1022 H 0.82714 0.53122 0.35173 0.0
H1023 H 0.87229 0.58425 0.26998 0.0
H1024 H 0.92262 0.56759 0.4257 0.0
H1025 H 0.88715 0.58219 0.37576 0.0
H1026 H 0.86415 0.51206 0.33844 0.0
H1027 H 0.89902 0.49762 0.38866 0.0
C1028 C 0.81427 0.54785 0.26958 0.0
C1029 C 0.81936 0.56331 0.22048 0.0
C1030 C 0.83066 0.54459 0.31718 0.0
C1031 C 0.85239 0.55672 0.31633 0.0
C1032 C 0.85587 0.57448 0.27203 0.0
C1033 C 0.83945 0.57778 0.22464 0.0
C1034 C 0.90988 0.55534 0.40709 0.0
C1035 C 0.91379 0.53144 0.41069 0.0
C1036 C 0.88954 0.5637 0.37865 0.0
C1037 C 0.87262 0.54832 0.3536 0.0
C1038 C 0.87643 0.52445 0.35846 0.0
C1039 C 0.89669 0.51614 0.38656 0.0
loop_
_geom_bond_atom_site_label_1
_geom_bond_atom_site_label_2
_geom_bond_distance
_geom_bond_site_symmetry_2
_ccdc_geom_bond_type
C0 C1 1.391 . S
C0 C4 1.391 . S
C0 H42 0.948 . S
C1 C0 1.391 . S
C1 C2 1.391 . S
C2 C1 1.391 . S
C2 H58 0.947 . S
C2 C59 1.392 . S
C3 C4 1.391 . S
C3 C7 1.397 . S
C3 C59 1.419 . S
C4 C0 1.391 . S
C4 C3 1.391 . S
C4 C5 1.399 . S
C5 C4 1.399 . S
C5 C8 1.396 . S
C5 C17 1.453 . S
C5 C18 1.684 . S
H6 C30 0.948 . S
C7 C3 1.397 . S
C7 C8 1.394 . S
C7 C26 1.731 . S
C8 C5 1.396 . S
C8 C7 1.394 . S
C8 C38 1.723 . S
H9 C32 0.947 . S
H10 C33 0.948 . S
H11 C39 0.982 . S
H12 C40 0.979 . S
H13 C40 0.980 . S
H14 C40 0.983 . S
H15 C39 0.979 . S
H16 C39 0.977 . S
C17 C5 1.453 . S
C17 H46 0.982 . S
C17 H47 0.979 . S
C17 H48 0.977 . S
C18 C5 1.684 . S
C18 H43 0.979 . S
C18 H44 0.980 . S
C18 H45 0.983 . S
C19 C20 1.391 . S
C19 C24 1.391 . S
C19 H49 0.948 . S
C20 C19 1.391 . S
C20 C21 1.391 . S
C21 C20 1.391 . S
C21 C22 1.392 . S
C21 H50 0.947 . S
C22 C21 1.392 . S
C22 C23 1.419 . S
C22 H51 0.948 . S
C23 C22 1.419 . S
C23 C24 1.391 . S
C23 C27 1.397 . S
C24 C19 1.391 . S
C24 C23 1.391 . S
C24 C25 1.399 . S
C25 C24 1.399 . S
C25 C26 1.393 1_556 S
C25 C28 1.453 1_556 S
C25 C29 1.684 1_556 S
C26 C7 1.731 . S
C26 C25 1.393 1_554 S
C26 C27 1.386 1_554 S
C27 C23 1.397 . S
C27 C26 1.386 1_556 S
C27 C37 1.723 . S
C28 C25 1.453 1_554 S
C28 H52 0.982 1_554 S
C28 H53 0.979 1_554 S
C28 H54 0.977 . S
C29 C25 1.684 1_554 S
C29 H55 0.979 . S
C29 H56 0.980 . S
C29 H57 0.983 . S
C30 H6 0.948 . S
C30 C31 1.391 . S
C30 C35 1.391 . S
C31 C30 1.391 . S
C31 C32 1.391 1_556 S
C32 H9 0.947 . S
C32 C31 1.391 1_554 S
C32 C33 1.392 . S
C33 H10 0.948 . S
C33 C32 1.392 . S
C33 C34 1.419 1_554 S
C34 C33 1.419 1_556 S
C34 C35 1.391 . S
C34 C38 1.397 1_556 S
C35 C30 1.391 . S
C35 C34 1.391 . S
C35 C36 1.399 . S
C36 C35 1.399 . S
C36 C37 1.396 . S
C36 C39 1.453 . S
C36 C40 1.684 . S
C37 C27 1.723 . S
C37 C36 1.396 . S
C37 C38 1.394 1_556 S
C38 C8 1.723 . S
C38 C34 1.397 1_554 S
C38 C37 1.394 1_554 S
C39 H11 0.982 . S
C39 H15 0.979 . S
C39 H16 0.977 . S
C39 C36 1.453 . S
C40 H12 0.979 . S
C40 H13 0.980 . S
C40 H14 0.983 . S
C40 C36 1.684 . S
H41 C59 0.948 . S
H42 C0 0.948 . S
H43 C18 0.979 . S
H44 C18 0.980 . S
H45 C18 0.983 . S
H46 C17 0.982 . S
H47 C17 0.979 . S
H48 C17 0.977 . S
H49 C19 0.948 . S
H50 C21 0.947 . S
H51 C22 0.948 . S
H52 C28 0.982 1_556 S
H53 C28 0.979 1_556 S
H54 C28 0.977 . S
H55 C29 0.979 . S
H56 C29 0.980 . S
H57 C29 0.983 . S
H58 C2 0.947 . S
C59 C2 1.392 . S
C59 C3 1.419 . S
C59 H41 0.948 . S
C60 C61 1.391 . S
C60 C64 1.391 . S
C60 H102 0.948 . S
C61 C60 1.391 . S
C61 C62 1.391 . S
C62 C61 1.391 . S
C62 H118 0.947 . S
C62 C119 1.392 . S
C63 C64 1.391 . S
C63 C67 1.397 1_655 S
C63 C119 1.419 . S
C64 C60 1.391 . S
C64 C63 1.391 . S
C64 C65 1.399 . S
C65 C64 1.399 . S
C65 C68 1.396 1_655 S
C65 C77 1.453 1_655 S
C65 C78 1.684 . S
H66 C90 0.948 . S
C67 C63 1.397 1_455 S
C67 C68 1.394 . S
C67 C86 1.723 1_556 S
C68 C65 1.396 1_455 S
C68 C67 1.394 . S
C68 C98 1.723 1_556 S
H69 C92 0.947 . S
H70 C93 0.948 . S
H71 C99 0.982 . S
H72 C100 0.979 . S
H73 C100 0.980 . S
H74 C100 0.983 . S
H75 C99 0.979 . S
H76 C99 0.977 . S
C77 C65 1.453 1_455 S
C77 H106 0.982 . S
C77 H107 0.979 . S
C77 H108 0.977 . S
C78 C65 1.684 . S
C78 H103 0.979 . S
C78 H104 0.980 . S
C78 H105 0.983 . S
C79 C80 1.391 . S
C79 C84 1.391 . S
C79 H109 0.948 . S
C80 C79 1.391 . S
C80 C81 1.391 . S
C81 C80 1.391 . S
C81 C82 1.392 . S
C81 H110 0.947 . S
C82 C81 1.392 . S
C82 C83 1.419 . S
C82 H111 0.948 . S
C83 C82 1.419 . S
C83 C84 1.391 . S
C83 C87 1.397 1_655 S
C84 C79 1.391 . S
C84 C83 1.391 . S
C84 C85 1.399 . S
C85 C84 1.399 . S
C85 C86 1.396 1_655 S
C85 C88 1.453 1_655 S
C85 C89 1.684 . S
C86 C67 1.723 1_554 S
C86 C85 1.396 1_455 S
C86 C87 1.394 . S
C87 C83 1.397 1_455 S
C87 C86 1.394 . S
C87 C97 1.723 . S
C88 C85 1.453 1_455 S
C88 H112 0.982 . S
C88 H113 0.979 . S
C88 H114 0.977 . S
C89 C85 1.684 . S
C89 H115 0.979 . S
C89 H116 0.980 . S
C89 H117 0.983 . S
C90 H66 0.948 . S
C90 C91 1.391 1_554 S
C90 C95 1.391 . S
C91 C90 1.391 1_556 S
C91 C92 1.391 . S
C92 H69 0.947 . S
C92 C91 1.391 . S
C92 C93 1.392 . S
C93 H70 0.948 . S
C93 C92 1.392 . S
C93 C94 1.419 . S
C94 C93 1.419 . S
C94 C95 1.391 1_556 S
C94 C98 1.397 1_656 S
C95 C90 1.391 . S
C95 C94 1.391 1_554 S
C95 C96 1.399 . S
C96 C95 1.399 . S
C96 C97 1.396 1_655 S
C96 C99 1.453 1_655 S
C96 C100 1.684 . S
C97 C87 1.723 . S
C97 C96 1.396 1_455 S
C97 C98 1.394 . S
C98 C68 1.723 1_554 S
C98 C94 1.397 1_454 S
C98 C97 1.394 . S
C99 H71 0.982 . S
C99 H75 0.979 . S
C99 H76 0.977 . S
C99 C96 1.453 1_455 S
C100 H72 0.979 . S
C100 H73 0.980 . S
C100 H74 0.983 . S
C100 C96 1.684 . S
H101 C119 0.948 1_554 S
H102 C60 0.948 . S
H103 C78 0.979 . S
H104 C78 0.980 . S
H105 C78 0.983 . S
H106 C77 0.982 . S
H107 C77 0.979 . S
H108 C77 0.977 . S
H109 C79 0.948 . S
H110 C81 0.947 . S
H111 C82 0.948 . S
H112 C88 0.982 . S
H113 C88 0.979 . S
H114 C88 0.977 . S
H115 C89 0.979 . S
H116 C89 0.980 . S
H117 C89 0.983 . S
H118 C62 0.947 . S
C119 C62 1.392 . S
C119 C63 1.419 . S
C119 H101 0.948 1_556 S
C120 C121 1.391 1_554 S
C120 C124 1.391 . S
C120 H162 0.948 . S
C121 C120 1.391 1_556 S
C121 C122 1.391 . S
C122 C121 1.391 . S
C122 H178 0.947 . S
C122 C179 1.392 . S
C123 C124 1.391 1_556 S
C123 C127 1.397 . S
C123 C179 1.419 . S
C124 C120 1.391 . S
C124 C123 1.391 1_554 S
C124 C125 1.399 . S
C125 C124 1.399 . S
C125 C128 1.396 . S
C125 C137 1.453 . S
C125 C138 1.684 . S
H126 C150 0.948 . S
C127 C123 1.397 . S
C127 C128 1.394 1_556 S
C127 C146 1.723 . S
C128 C125 1.396 . S
C128 C127 1.394 1_554 S
C128 C158 1.723 . S
H129 C152 0.947 . S
H130 C153 0.948 . S
H131 C159 0.982 . S
H132 C160 0.979 . S
H133 C160 0.980 . S
H134 C160 0.983 . S
H135 C159 0.979 . S
H136 C159 0.977 . S
C137 C125 1.453 . S
C137 H166 0.982 . S
C137 H167 0.979 . S
C137 H168 0.977 . S
C138 C125 1.684 . S
C138 H163 0.979 . S
C138 H164 0.980 . S
C138 H165 0.983 . S
C139 C140 1.391 . S
C139 C144 1.391 . S
C139 H169 0.948 . S
C140 C139 1.391 . S
C140 C141 1.391 . S
C141 C140 1.391 . S
C141 C142 1.392 . S
C141 H170 0.947 . S
C142 C141 1.392 . S
C142 C143 1.419 . S
C142 H171 0.948 . S
C143 C142 1.419 . S
C143 C144 1.391 . S
C143 C147 1.397 . S
C144 C139 1.391 . S
C144 C143 1.391 . S
C144 C145 1.399 . S
C145 C144 1.399 . S
C145 C146 1.396 . S
C145 C148 1.453 . S
C145 C149 1.684 . S
C146 C127 1.723 . S
C146 C145 1.396 . S
C146 C147 1.394 . S
C147 C143 1.397 . S
C147 C146 1.394 . S
C147 C157 1.723 1_556 S
C148 C145 1.453 . S
C148 H172 0.982 . S
C148 H173 0.979 . S
C148 H174 0.977 . S
C149 C145 1.684 . S
C149 H175 0.979 . S
C149 H176 0.980 . S
C149 H177 0.983 . S
C150 H126 0.948 . S
C150 C151 1.391 . S
C150 C155 1.391 . S
C151 C150 1.391 . S
C151 C152 1.391 . S
C152 H129 0.947 . S
C152 C151 1.391 . S
C152 C153 1.392 . S
C153 H130 0.948 . S
C153 C152 1.392 . S
C153 C154 1.419 . S
C154 C153 1.419 . S
C154 C155 1.391 . S
C154 C158 1.397 . S
C155 C150 1.391 . S
C155 C154 1.391 . S
C155 C156 1.399 . S
C156 C155 1.399 . S
C156 C157 1.396 . S
C156 C159 1.453 . S
C156 C160 1.684 . S
C157 C147 1.723 1_554 S
C157 C156 1.396 . S
C157 C158 1.394 . S
C158 C128 1.723 . S
C158 C154 1.397 . S
C158 C157 1.394 . S
C159 H131 0.982 . S
C159 H135 0.979 . S
C159 H136 0.977 . S
C159 C156 1.453 . S
C160 H132 0.979 . S
C160 H133 0.980 . S
C160 H134 0.983 . S
C160 C156 1.684 . S
H161 C179 0.948 . S
H162 C120 0.948 . S
H163 C138 0.979 . S
H164 C138 0.980 . S
H165 C138 0.983 . S
H166 C137 0.982 . S
H167 C137 0.979 . S
H168 C137 0.977 . S
H169 C139 0.948 . S
H170 C141 0.947 . S
H171 C142 0.948 . S
H172 C148 0.982 . S
H173 C148 0.979 . S
H174 C148 0.977 . S
H175 C149 0.979 . S
H176 C149 0.980 . S
H177 C149 0.983 . S
H178 C122 0.947 . S
C179 C122 1.392 . S
C179 C123 1.419 . S
C179 H161 0.948 . S
C180 C181 1.391 . S
C180 C184 1.391 . S
C180 H222 0.948 . S
C181 C180 1.391 . S
C181 C182 1.391 . S
C182 C181 1.391 . S
C182 H238 0.947 . S
C182 C239 1.392 . S
C183 C184 1.391 . S
C183 C187 1.397 . S
C183 C239 1.419 . S
C184 C180 1.391 . S
C184 C183 1.391 . S
C184 C185 1.399 . S
C185 C184 1.399 . S
C185 C188 1.396 . S
C185 C197 1.453 . S
C185 C198 1.684 . S
H186 C210 0.948 . S
C187 C183 1.397 . S
C187 C188 1.394 . S
C187 C206 1.723 . S
C188 C185 1.396 . S
C188 C187 1.394 . S
C188 C218 1.723 . S
H189 C212 0.947 . S
H190 C213 0.948 . S
H191 C219 0.982 . S
H192 C220 0.979 . S
H193 C220 0.980 . S
H194 C220 0.983 . S
H195 C219 0.979 . S
H196 C219 0.977 . S
C197 C185 1.453 . S
C197 H226 0.982 . S
C197 H227 0.979 . S
C197 H228 0.977 . S
C198 C185 1.684 . S
C198 H223 0.979 . S
C198 H224 0.980 . S
C198 H225 0.983 . S
C199 C200 1.391 . S
C199 C204 1.391 . S
C199 H229 0.948 . S
C200 C199 1.391 . S
C200 C201 1.391 . S
C201 C200 1.391 . S
C201 C202 1.392 . S
C201 H230 0.947 . S
C202 C201 1.392 . S
C202 C203 1.419 . S
C202 H231 0.948 . S
C203 C202 1.419 . S
C203 C204 1.391 . S
C203 C207 1.397 . S
C204 C199 1.391 . S
C204 C203 1.391 . S
C204 C205 1.399 1_556 S
C205 C204 1.399 1_554 S
C205 C206 1.396 . S
C205 C208 1.453 . S
C205 C209 1.684 . S
C206 C187 1.723 . S
C206 C205 1.396 . S
C206 C207 1.394 1_554 S
C207 C203 1.397 . S
C207 C206 1.394 1_556 S
C207 C217 1.723 . S
C208 C205 1.453 . S
C208 H232 0.982 . S
C208 H233 0.979 . S
C208 H234 0.977 . S
C209 C205 1.684 . S
C209 H235 0.979 . S
C209 H236 0.980 . S
C209 H237 0.983 . S
C210 H186 0.948 . S
C210 C211 1.391 . S
C210 C215 1.391 . S
C211 C210 1.391 . S
C211 C212 1.391 1_556 S
C212 H189 0.947 . S
C212 C211 1.391 1_554 S
C212 C213 1.392 . S
C213 H190 0.948 . S
C213 C212 1.392 . S
C213 C214 1.419 . S
C214 C213 1.419 . S
C214 C215 1.391 1_554 S
C214 C218 1.397 . S
C215 C210 1.391 . S
C215 C214 1.391 1_556 S
C215 C216 1.399 . S
C216 C215 1.399 . S
C216 C217 1.396 . S
C216 C219 1.453 . S
C216 C220 1.684 . S
C217 C207 1.723 . S
C217 C216 1.396 . S
C217 C218 1.394 1_556 S
C218 C188 1.723 . S
C218 C214 1.397 . S
C218 C217 1.394 1_554 S
C219 H191 0.982 . S
C219 H195 0.979 . S
C219 H196 0.977 . S
C219 C216 1.453 . S
C220 H192 0.979 . S
C220 H193 0.980 . S
C220 H194 0.983 . S
C220 C216 1.684 . S
H221 C239 0.948 . S
H222 C180 0.948 . S
H223 C198 0.979 . S
H224 C198 0.980 . S
H225 C198 0.983 . S
H226 C197 0.982 . S
H227 C197 0.979 . S
H228 C197 0.977 . S
H229 C199 0.948 . S
H230 C201 0.947 . S
H231 C202 0.948 . S
H232 C208 0.982 . S
H233 C208 0.979 . S
H234 C208 0.977 . S
H235 C209 0.979 . S
H236 C209 0.980 . S
H237 C209 0.983 . S
H238 C182 0.947 . S
C239 C182 1.392 . S
C239 C183 1.419 . S
C239 H221 0.948 . S
C240 C241 1.391 . S
C240 C244 1.391 . S
C240 H282 0.948 . S
C241 C240 1.391 . S
C241 C242 1.391 . S
C242 C241 1.391 . S
C242 H298 0.947 . S
C242 C299 1.392 . S
C243 C244 1.391 . S
C243 C247 1.397 . S
C243 C299 1.419 . S
C244 C240 1.391 . S
C244 C243 1.391 . S
C244 C245 1.399 . S
C245 C244 1.399 . S
C245 C248 1.396 . S
C245 C257 1.453 . S
C245 C258 1.684 . S
H246 C270 0.948 . S
C247 C243 1.397 . S
C247 C248 1.394 . S
C247 C266 1.723 . S
C248 C245 1.396 . S
C248 C247 1.394 . S
C248 C278 1.723 . S
H249 C272 0.947 . S
H250 C273 0.948 . S
H251 C279 0.982 . S
H252 C280 0.979 . S
H253 C280 0.980 . S
H254 C280 0.983 . S
H255 C279 0.979 . S
H256 C279 0.977 . S
C257 C245 1.453 . S
C257 H286 0.982 . S
C257 H287 0.979 . S
C257 H288 0.977 . S
C258 C245 1.684 . S
C258 H283 0.979 . S
C258 H284 0.980 . S
C258 H285 0.983 . S
C259 C260 1.391 . S
C259 C264 1.391 . S
C259 H289 0.948 . S
C260 C259 1.391 . S
C260 C261 1.391 . S
C261 C260 1.391 . S
C261 C262 1.392 . S
C261 H290 0.947 . S
C262 C261 1.392 . S
C262 C263 1.419 . S
C262 H291 0.948 . S
C263 C262 1.419 . S
C263 C264 1.391 . S
C263 C267 1.397 . S
C264 C259 1.391 . S
C264 C263 1.391 . S
C264 C265 1.399 . S
C265 C264 1.399 . S
C265 C266 1.396 . S
C265 C268 1.453 . S
C265 C269 1.684 . S
C266 C247 1.723 . S
C266 C265 1.396 . S
C266 C267 1.394 . S
C267 C263 1.397 . S
C267 C266 1.394 . S
C267 C277 1.723 . S
C268 C265 1.453 . S
C268 H292 0.982 . S
C268 H293 0.979 . S
C268 H294 0.977 . S
C269 C265 1.684 . S
C269 H295 0.979 . S
C269 H296 0.980 . S
C269 H297 0.983 . S
C270 H246 0.948 . S
C270 C271 1.391 . S
C270 C275 1.391 1_556 S
C271 C270 1.391 . S
C271 C272 1.391 . S
C272 H249 0.947 . S
C272 C271 1.391 . S
C272 C273 1.392 . S
C273 H250 0.948 . S
C273 C272 1.392 . S
C273 C274 1.419 1_556 S
C274 C273 1.419 1_554 S
C274 C275 1.391 . S
C274 C278 1.397 . S
C275 C270 1.391 1_554 S
C275 C274 1.391 . S
C275 C276 1.399 . S
C276 C275 1.399 . S
C276 C277 1.396 . S
C276 C279 1.453 . S
C276 C280 1.684 . S
C277 C267 1.723 . S
C277 C276 1.396 . S
C277 C278 1.394 . S
C278 C248 1.723 . S
C278 C274 1.397 . S
C278 C277 1.394 . S
C279 H251 0.982 . S
C279 H255 0.979 . S
C279 H256 0.977 . S
C279 C276 1.453 . S
C280 H252 0.979 . S
C280 H253 0.980 . S
C280 H254 0.983 . S
C280 C276 1.684 . S
H281 C299 0.948 . S
H282 C240 0.948 . S
H283 C258 0.979 . S
H284 C258 0.980 . S
H285 C258 0.983 . S
H286 C257 0.982 . S
H287 C257 0.979 . S
H288 C257 0.977 . S
H289 C259 0.948 . S
H290 C261 0.947 . S
H291 C262 0.948 . S
H292 C268 0.982 . S
H293 C268 0.979 . S
H294 C268 0.977 . S
H295 C269 0.979 . S
H296 C269 0.980 . S
H297 C269 0.983 . S
H298 C242 0.947 . S
C299 C242 1.392 . S
C299 C243 1.419 . S
C299 H281 0.948 . S
C300 C301 1.391 . S
C300 C304 1.391 . S
C300 H342 0.948 . S
C301 C300 1.391 . S
C301 C302 1.391 . S
C302 C301 1.391 . S
C302 H358 0.947 . S
C302 C359 1.392 . S
C303 C304 1.391 . S
C303 C307 1.397 1_655 S
C303 C359 1.419 . S
C304 C300 1.391 . S
C304 C303 1.391 . S
C304 C305 1.399 . S
C305 C304 1.399 . S
C305 C308 1.396 1_655 S
C305 C317 1.453 1_655 S
C305 C318 1.684 . S
H306 C330 0.948 . S
C307 C303 1.397 1_455 S
C307 C308 1.395 . S
C307 C326 1.723 . S
C308 C305 1.396 1_455 S
C308 C307 1.395 . S
C308 C338 1.723 . S
H309 C332 0.947 . S
H310 C333 0.948 . S
H311 C339 0.982 . S
H312 C340 0.979 . S
H313 C340 0.980 1_556 S
H314 C340 0.983 . S
H315 C339 0.979 . S
H316 C339 0.977 . S
C317 C305 1.453 1_455 S
C317 H346 0.982 . S
C317 H347 0.979 . S
C317 H348 0.977 . S
C318 C305 1.684 . S
C318 H343 0.979 . S
C318 H344 0.980 . S
C318 H345 0.983 . S
C319 C320 1.391 . S
C319 C324 1.391 1_556 S
C319 H349 0.948 . S
C320 C319 1.391 . S
C320 C321 1.391 . S
C321 C320 1.391 . S
C321 C322 1.392 . S
C321 H350 0.947 . S
C322 C321 1.392 . S
C322 C323 1.419 1_556 S
C322 H351 0.948 . S
C323 C322 1.419 1_554 S
C323 C324 1.391 . S
C323 C327 1.396 1_655 S
C324 C319 1.391 1_554 S
C324 C323 1.391 . S
C324 C325 1.399 . S
C325 C324 1.399 . S
C325 C326 1.396 1_655 S
C325 C328 1.453 1_655 S
C325 C329 1.684 . S
C326 C307 1.723 . S
C326 C325 1.396 1_455 S
C326 C327 1.395 . S
C327 C323 1.396 1_455 S
C327 C326 1.395 . S
C327 C337 1.723 . S
C328 C325 1.453 1_455 S
C328 H352 0.982 . S
C328 H353 0.979 . S
C328 H354 0.977 . S
C329 C325 1.684 . S
C329 H355 0.979 . S
C329 H356 0.980 . S
C329 H357 0.983 . S
C330 H306 0.948 . S
C330 C331 1.391 . S
C330 C335 1.391 . S
C331 C330 1.391 . S
C331 C332 1.391 . S
C332 H309 0.947 . S
C332 C331 1.391 . S
C332 C333 1.392 . S
C333 H310 0.948 . S
C333 C332 1.392 . S
C333 C334 1.419 . S
C334 C333 1.419 . S
C334 C335 1.391 . S
C334 C338 1.396 1_655 S
C335 C330 1.391 . S
C335 C334 1.391 . S
C335 C336 1.399 . S
C336 C335 1.399 . S
C336 C337 1.396 1_655 S
C336 C339 1.453 1_655 S
C336 C340 1.684 . S
C337 C327 1.723 . S
C337 C336 1.396 1_455 S
C337 C338 1.395 . S
C338 C308 1.723 . S
C338 C334 1.396 1_455 S
C338 C337 1.395 . S
C339 H311 0.982 . S
C339 H315 0.979 . S
C339 H316 0.977 . S
C339 C336 1.453 1_455 S
C340 H312 0.979 . S
C340 H313 0.980 1_554 S
C340 H314 0.983 . S
C340 C336 1.684 . S
H341 C359 0.948 . S
H342 C300 0.948 . S
H343 C318 0.979 . S
H344 C318 0.980 . S
H345 C318 0.983 . S
H346 C317 0.982 . S
H347 C317 0.979 . S
H348 C317 0.977 . S
H349 C319 0.948 . S
H350 C321 0.947 . S
H351 C322 0.948 . S
H352 C328 0.982 . S
H353 C328 0.979 . S
H354 C328 0.977 . S
H355 C329 0.979 . S
H356 C329 0.980 . S
H357 C329 0.983 . S
H358 C302 0.947 . S
C359 C302 1.392 . S
C359 C303 1.419 . S
C359 H341 0.948 . S
C360 C361 1.391 . S
C360 C364 1.391 . S
C360 H402 0.948 . S
C361 C360 1.391 . S
C361 C362 1.391 . S
C362 C361 1.391 . S
C362 H418 0.947 . S
C362 C419 1.392 1_556 S
C363 C364 1.391 1_554 S
C363 C367 1.397 . S
C363 C419 1.419 . S
C364 C360 1.391 . S
C364 C363 1.391 1_556 S
C364 C365 1.399 1_556 S
C365 C364 1.399 1_554 S
C365 C368 1.396 . S
C365 C377 1.453 . S
C365 C378 1.684 1_554 S
H366 C390 0.948 . S
C367 C363 1.397 . S
C367 C368 1.394 . S
C367 C386 1.723 . S
C368 C365 1.396 . S
C368 C367 1.394 . S
C368 C398 1.723 . S
H369 C392 0.947 . S
H370 C393 0.948 . S
H371 C399 0.982 . S
H372 C400 0.979 . S
H373 C400 0.980 . S
H374 C400 0.983 . S
H375 C399 0.979 . S
H376 C399 0.977 . S
C377 C365 1.453 . S
C377 H406 0.982 . S
C377 H407 0.979 1_554 S
C377 H408 0.977 . S
C378 C365 1.684 1_556 S
C378 H403 0.979 . S
C378 H404 0.980 1_556 S
C378 H405 0.983 . S
C379 C380 1.391 . S
C379 C384 1.391 . S
C379 H409 0.948 . S
C380 C379 1.391 . S
C380 C381 1.391 . S
C381 C380 1.391 . S
C381 C382 1.392 . S
C381 H410 0.947 . S
C382 C381 1.392 . S
C382 C383 1.419 . S
C382 H411 0.948 . S
C383 C382 1.419 . S
C383 C384 1.391 . S
C383 C387 1.397 . S
C384 C379 1.391 . S
C384 C383 1.391 . S
C384 C385 1.399 . S
C385 C384 1.399 . S
C385 C386 1.396 . S
C385 C388 1.453 . S
C385 C389 1.684 . S
C386 C367 1.723 . S
C386 C385 1.396 . S
C386 C387 1.394 . S
C387 C383 1.397 . S
C387 C386 1.394 . S
C387 C397 1.723 . S
C388 C385 1.453 . S
C388 H412 0.982 . S
C388 H413 0.979 . S
C388 H414 0.977 . S
C389 C385 1.684 . S
C389 H415 0.979 . S
C389 H416 0.980 . S
C389 H417 0.983 . S
C390 H366 0.948 . S
C390 C391 1.391 . S
C390 C395 1.391 . S
C391 C390 1.391 . S
C391 C392 1.391 . S
C392 H369 0.947 . S
C392 C391 1.391 . S
C392 C393 1.392 . S
C393 H370 0.948 . S
C393 C392 1.392 . S
C393 C394 1.419 . S
C394 C393 1.419 . S
C394 C395 1.391 . S
C394 C398 1.397 . S
C395 C390 1.391 . S
C395 C394 1.391 . S
C395 C396 1.399 . S
C396 C395 1.399 . S
C396 C397 1.396 . S
C396 C399 1.453 . S
C396 C400 1.684 . S
C397 C387 1.723 . S
C397 C396 1.396 . S
C397 C398 1.394 . S
C398 C368 1.723 . S
C398 C394 1.397 . S
C398 C397 1.394 . S
C399 H371 0.982 . S
C399 H375 0.979 . S
C399 H376 0.977 . S
C399 C396 1.453 . S
C400 H372 0.979 . S
C400 H373 0.980 . S
C400 H374 0.983 . S
C400 C396 1.684 . S
H401 C419 0.948 . S
H402 C360 0.948 . S
H403 C378 0.979 . S
H404 C378 0.980 1_554 S
H405 C378 0.983 . S
H406 C377 0.982 . S
H407 C377 0.979 1_556 S
H408 C377 0.977 . S
H409 C379 0.948 . S
H410 C381 0.947 . S
H411 C382 0.948 . S
H412 C388 0.982 . S
H413 C388 0.979 . S
H414 C388 0.977 . S
H415 C389 0.979 . S
H416 C389 0.980 . S
H417 C389 0.983 . S
H418 C362 0.947 . S
C419 C362 1.392 1_554 S
C419 C363 1.419 . S
C419 H401 0.948 . S
C420 C421 1.391 . S
C420 C424 1.391 . S
C420 H462 0.948 . S
C421 C420 1.391 . S
C421 C422 1.391 . S
C422 C421 1.391 . S
C422 H478 0.947 . S
C422 C479 1.392 1_556 S
C423 C424 1.391 1_554 S
C423 C427 1.397 . S
C423 C479 1.419 . S
C424 C420 1.391 . S
C424 C423 1.391 1_556 S
C424 C425 1.399 1_556 S
C425 C424 1.399 1_554 S
C425 C428 1.396 . S
C425 C437 1.453 1_554 S
C425 C438 1.684 1_554 S
H426 C450 0.948 . S
C427 C423 1.397 . S
C427 C428 1.394 . S
C427 C446 1.723 . S
C428 C425 1.396 . S
C428 C427 1.394 . S
C428 C458 1.723 . S
H429 C452 0.947 . S
H430 C453 0.948 . S
H431 C459 0.982 . S
H432 C460 0.979 . S
H433 C460 0.980 . S
H434 C460 0.983 . S
H435 C459 0.979 . S
H436 C459 0.977 . S
C437 C425 1.453 1_556 S
C437 H466 0.982 1_556 S
C437 H467 0.979 . S
C437 H468 0.977 1_556 S
C438 C425 1.684 1_556 S
C438 H463 0.979 . S
C438 H464 0.980 1_556 S
C438 H465 0.983 . S
C439 C440 1.391 . S
C439 C444 1.391 . S
C439 H469 0.948 . S
C440 C439 1.391 . S
C440 C441 1.391 . S
C441 C440 1.391 . S
C441 C442 1.392 . S
C441 H470 0.947 . S
C442 C441 1.392 . S
C442 C443 1.419 . S
C442 H471 0.948 . S
C443 C442 1.419 . S
C443 C444 1.391 . S
C443 C447 1.397 . S
C444 C439 1.391 . S
C444 C443 1.391 . S
C444 C445 1.399 . S
C445 C444 1.399 . S
C445 C446 1.396 . S
C445 C448 1.453 . S
C445 C449 1.684 . S
C446 C427 1.723 . S
C446 C445 1.396 . S
C446 C447 1.394 . S
C447 C443 1.397 . S
C447 C446 1.394 . S
C447 C457 1.723 . S
C448 C445 1.453 . S
C448 H472 0.982 . S
C448 H473 0.979 . S
C448 H474 0.977 . S
C449 C445 1.684 . S
C449 H475 0.979 . S
C449 H476 0.980 . S
C449 H477 0.983 . S
C450 H426 0.948 . S
C450 C451 1.391 . S
C450 C455 1.391 . S
C451 C450 1.391 . S
C451 C452 1.391 . S
C452 H429 0.947 . S
C452 C451 1.391 . S
C452 C453 1.392 . S
C453 H430 0.948 . S
C453 C452 1.392 . S
C453 C454 1.419 . S
C454 C453 1.419 . S
C454 C455 1.391 . S
C454 C458 1.397 . S
C455 C450 1.391 . S
C455 C454 1.391 . S
C455 C456 1.399 . S
C456 C455 1.399 . S
C456 C457 1.396 . S
C456 C459 1.453 . S
C456 C460 1.684 . S
C457 C447 1.723 . S
C457 C456 1.396 . S
C457 C458 1.394 . S
C458 C428 1.723 . S
C458 C454 1.397 . S
C458 C457 1.394 . S
C459 H431 0.982 . S
C459 H435 0.979 . S
C459 H436 0.977 . S
C459 C456 1.453 . S
C460 H432 0.979 . S
C460 H433 0.980 . S
C460 H434 0.983 . S
C460 C456 1.684 . S
H461 C479 0.948 . S
H462 C420 0.948 . S
H463 C438 0.979 . S
H464 C438 0.980 1_554 S
H465 C438 0.983 . S
H466 C437 0.982 1_554 S
H467 C437 0.979 . S
H468 C437 0.977 1_554 S
H469 C439 0.948 . S
H470 C441 0.947 . S
H471 C442 0.948 . S
H472 C448 0.982 . S
H473 C448 0.979 . S
H474 C448 0.977 . S
H475 C449 0.979 . S
H476 C449 0.980 . S
H477 C449 0.983 . S
H478 C422 0.947 . S
C479 C422 1.392 1_554 S
C479 C423 1.419 . S
C479 H461 0.948 . S
Zn480 O486 1.969 . S
Zn480 O487 1.965 1_655 S
Zn480 O491 2.024 1_655 S
Zn480 O496 1.969 . S
Zn481 O488 1.969 . S
Zn481 O494 1.969 . S
Zn481 O495 1.965 1_455 S
Zn481 O497 2.024 1_455 S
C482 O483 1.229 1_455 S
C482 O491 1.058 . S
O483 C482 1.229 1_655 S
C484 O485 1.229 1_655 S
C484 O497 1.058 . S
O485 C484 1.229 1_455 S
O486 Zn480 1.969 . S
O486 C489 1.267 . S
O487 Zn480 1.965 1_455 S
O487 C498 1.260 . S
O488 Zn481 1.969 . S
O488 C498 1.258 1_565 S
C489 O486 1.267 . S
C489 O490 1.228 1_655 S
O490 C489 1.228 1_455 S
O491 Zn480 2.024 1_455 S
O491 C482 1.058 . S
C492 O493 1.228 1_455 S
C492 O494 1.267 . S
O493 C492 1.228 1_655 S
O494 Zn481 1.969 . S
O494 C492 1.267 . S
O495 Zn481 1.965 1_655 S
O495 C499 1.270 . S
O496 Zn480 1.969 . S
O496 C499 1.240 1_545 S
O497 Zn481 2.024 1_655 S
O497 C484 1.058 . S
C498 O487 1.260 . S
C498 O488 1.258 1_545 S
C499 O495 1.270 . S
C499 O496 1.240 1_565 S
Zn500 O506 1.961 1_545 S
Zn500 O507 1.965 . S
Zn500 O511 2.024 . S
Zn500 O516 1.969 1_545 S
Zn501 O508 1.969 1_565 S
Zn501 O514 1.969 1_565 S
Zn501 O515 1.965 . S
Zn501 O517 2.024 . S
C502 O503 1.229 . S
C502 O511 1.058 . S
O503 C502 1.229 . S
C504 O505 1.229 . S
C504 O517 1.058 . S
O505 C504 1.229 . S
O506 Zn500 1.961 1_565 S
O506 C509 1.248 1_565 S
O507 Zn500 1.965 . S
O507 C518 1.260 . S
O508 Zn501 1.969 1_545 S
O508 C518 1.258 . S
C509 O506 1.248 1_545 S
C509 O510 1.228 . S
O510 C509 1.228 . S
O511 Zn500 2.024 . S
O511 C502 1.058 . S
C512 O513 1.228 . S
C512 O514 1.267 1_565 S
O513 C512 1.228 . S
O514 Zn501 1.969 1_545 S
O514 C512 1.267 1_545 S
O515 Zn501 1.965 . S
O515 C519 1.260 . S
O516 Zn500 1.969 1_565 S
O516 C519 1.258 . S
O517 Zn501 2.024 . S
O517 C504 1.058 . S
C518 O507 1.260 . S
C518 O508 1.258 . S
C519 O515 1.260 . S
C519 O516 1.258 . S
Zn520 O526 1.969 . S
Zn520 O527 1.965 . S
Zn520 O531 2.024 . S
Zn520 O536 1.969 . S
Zn521 O528 1.969 . S
Zn521 O534 1.969 . S
Zn521 O535 1.965 . S
Zn521 O537 2.024 . S
C522 O523 1.229 . S
C522 O531 1.058 . S
O523 C522 1.229 . S
C524 O525 1.229 . S
C524 O537 1.058 . S
O525 C524 1.229 . S
O526 Zn520 1.969 . S
O526 C529 1.267 . S
O527 Zn520 1.965 . S
O527 C538 1.260 . S
O528 Zn521 1.969 . S
O528 C538 1.258 . S
C529 O526 1.267 . S
C529 O530 1.228 . S
O530 C529 1.228 . S
O531 Zn520 2.024 . S
O531 C522 1.058 . S
C532 O533 1.228 . S
C532 O534 1.267 . S
O533 C532 1.228 . S
O534 Zn521 1.969 . S
O534 C532 1.267 . S
O535 Zn521 1.965 . S
O535 C539 1.260 . S
O536 Zn520 1.969 . S
O536 C539 1.258 . S
O537 Zn521 2.024 . S
O537 C524 1.058 . S
C538 O527 1.260 . S
C538 O528 1.258 . S
C539 O535 1.260 . S
C539 O536 1.258 . S
Zn540 O546 1.969 . S
Zn540 O547 1.965 . S
Zn540 O551 2.024 . S
Zn540 O556 1.969 . S
Zn541 O548 1.969 . S
Zn541 O554 1.969 . S
Zn541 O555 1.965 . S
Zn541 O557 2.024 . S
C542 O543 1.229 . S
C542 O551 1.058 . S
O543 C542 1.229 . S
C544 O545 1.229 . S
C544 O557 1.058 . S
O545 C544 1.229 . S
O546 Zn540 1.969 . S
O546 C549 1.267 . S
O547 Zn540 1.965 . S
O547 C558 1.260 1_455 S
O548 Zn541 1.969 . S
O548 C558 1.258 . S
C549 O546 1.267 . S
C549 O550 1.228 . S
O550 C549 1.228 . S
O551 Zn540 2.024 . S
O551 C542 1.058 . S
C552 O553 1.228 . S
C552 O554 1.267 . S
O553 C552 1.228 . S
O554 Zn541 1.969 . S
O554 C552 1.267 . S
O555 Zn541 1.965 . S
O555 C559 1.260 1_655 S
O556 Zn540 1.969 . S
O556 C559 1.258 . S
O557 Zn541 2.024 . S
O557 C544 1.058 . S
C558 O547 1.260 1_655 S
C558 O548 1.258 . S
C559 O555 1.260 1_455 S
C559 O556 1.258 . S
H560 C568 0.950 . S
H561 C573 0.950 . S
H562 C570 0.950 . S
H563 C572 0.950 . S
H564 C574 0.950 . S
H565 C576 0.950 . S
H566 C578 0.950 . S
H567 C579 0.950 1_565 S
C568 H560 0.950 . S
C568 C569 1.386 . S
C568 C570 1.391 . S
C569 C568 1.386 . S
C569 C573 1.393 . S
C570 H562 0.950 . S
C570 C568 1.391 . S
C570 C571 1.400 . S
C571 C570 1.400 . S
C571 C572 1.398 . S
C571 C577 1.491 . S
C572 H563 0.950 . S
C572 C571 1.398 . S
C572 C573 1.391 . S
C573 H561 0.950 . S
C573 C569 1.393 . S
C573 C572 1.391 . S
C574 H564 0.950 . S
C574 C575 1.386 . S
C574 C576 1.391 . S
C575 C574 1.386 . S
C575 C579 1.393 . S
C576 H565 0.950 . S
C576 C574 1.391 . S
C576 C577 1.400 . S
C577 C571 1.491 . S
C577 C576 1.400 . S
C577 C578 1.398 . S
C578 H566 0.950 . S
C578 C577 1.398 . S
C578 C579 1.391 . S
C579 H567 0.950 1_545 S
C579 C575 1.393 . S
C579 C578 1.391 . S
H580 C588 0.950 . S
H581 C593 0.950 . S
H582 C590 0.950 . S
H583 C592 0.950 . S
H584 C594 0.950 . S
H585 C596 0.950 . S
H586 C598 0.950 . S
H587 C599 0.950 . S
C588 H580 0.950 . S
C588 C589 1.386 . S
C588 C590 1.391 . S
C589 C588 1.386 . S
C589 C593 1.393 . S
C590 H582 0.950 . S
C590 C588 1.391 . S
C590 C591 1.400 . S
C591 C590 1.400 . S
C591 C592 1.398 . S
C591 C597 1.491 . S
C592 H583 0.950 . S
C592 C591 1.398 . S
C592 C593 1.391 . S
C593 H581 0.950 . S
C593 C589 1.393 . S
C593 C592 1.391 . S
C594 H584 0.950 . S
C594 C595 1.386 . S
C594 C596 1.391 . S
C595 C594 1.386 . S
C595 C599 1.393 . S
C596 H585 0.950 . S
C596 C594 1.391 . S
C596 C597 1.400 . S
C597 C591 1.491 . S
C597 C596 1.400 . S
C597 C598 1.398 . S
C598 H586 0.950 . S
C598 C597 1.398 . S
C598 C599 1.391 . S
C599 H587 0.950 . S
C599 C595 1.393 . S
C599 C598 1.391 . S
H600 C608 0.950 . S
H601 C613 0.950 . S
H602 C610 0.950 . S
H603 C612 0.950 . S
H604 C614 0.950 . S
H605 C616 0.950 . S
H606 C618 0.950 . S
H607 C619 0.950 . S
C608 H600 0.950 . S
C608 C609 1.386 . S
C608 C610 1.391 . S
C609 C608 1.386 . S
C609 C613 1.393 . S
C610 H602 0.950 . S
C610 C608 1.391 . S
C610 C611 1.400 . S
C611 C610 1.400 . S
C611 C612 1.398 . S
C611 C617 1.491 . S
C612 H603 0.950 . S
C612 C611 1.398 . S
C612 C613 1.391 . S
C613 H601 0.950 . S
C613 C609 1.393 . S
C613 C612 1.391 . S
C614 H604 0.950 . S
C614 C615 1.386 . S
C614 C616 1.391 . S
C615 C614 1.386 . S
C615 C619 1.393 . S
C616 H605 0.950 . S
C616 C614 1.391 . S
C616 C617 1.400 . S
C617 C611 1.491 . S
C617 C616 1.400 . S
C617 C618 1.398 . S
C618 H606 0.950 . S
C618 C617 1.398 . S
C618 C619 1.391 . S
C619 H607 0.950 . S
C619 C615 1.393 . S
C619 C618 1.391 . S
H620 C628 0.950 . S
H621 C633 0.950 . S
H622 C630 0.950 . S
H623 C632 0.950 . S
H624 C634 0.950 . S
H625 C636 0.950 . S
H626 C638 0.950 . S
H627 C639 0.950 . S
C628 H620 0.950 . S
C628 C629 1.404 . S
C628 C630 1.391 . S
C629 C628 1.404 . S
C629 C633 1.375 1_655 S
C630 H622 0.950 . S
C630 C628 1.391 . S
C630 C631 1.400 . S
C631 C630 1.400 . S
C631 C632 1.398 1_655 S
C631 C637 1.491 . S
C632 H623 0.950 . S
C632 C631 1.398 1_455 S
C632 C633 1.391 . S
C633 H621 0.950 . S
C633 C629 1.375 1_455 S
C633 C632 1.391 . S
C634 H624 0.950 . S
C634 C635 1.386 1_455 S
C634 C636 1.391 . S
C635 C634 1.386 1_655 S
C635 C639 1.393 . S
C636 H625 0.950 . S
C636 C634 1.391 . S
C636 C637 1.400 1_455 S
C637 C631 1.491 . S
C637 C636 1.400 1_655 S
C637 C638 1.398 . S
C638 H626 0.950 . S
C638 C637 1.398 . S
C638 C639 1.391 . S
C639 H627 0.950 . S
C639 C635 1.393 . S
C639 C638 1.391 . S
H640 C648 0.950 . S
H641 C653 0.950 . S
H642 C650 0.950 . S
H643 C652 0.950 . S
H644 C654 0.950 1_545 S
H645 C656 0.950 . S
H646 C658 0.950 . S
H647 C659 0.950 . S
C648 H640 0.950 . S
C648 C649 1.386 . S
C648 C650 1.391 . S
C649 C648 1.386 . S
C649 C653 1.393 . S
C650 H642 0.950 . S
C650 C648 1.391 . S
C650 C651 1.400 . S
C651 C650 1.400 . S
C651 C652 1.398 . S
C651 C657 1.491 . S
C652 H643 0.950 . S
C652 C651 1.398 . S
C652 C653 1.391 . S
C653 H641 0.950 . S
C653 C649 1.393 . S
C653 C652 1.391 . S
C654 H644 0.950 1_565 S
C654 C655 1.386 . S
C654 C656 1.391 . S
C655 C654 1.386 . S
C655 C659 1.393 . S
C656 H645 0.950 . S
C656 C654 1.391 . S
C656 C657 1.400 . S
C657 C651 1.491 . S
C657 C656 1.400 . S
C657 C658 1.398 . S
C658 H646 0.950 . S
C658 C657 1.398 . S
C658 C659 1.391 . S
C659 H647 0.950 . S
C659 C655 1.393 . S
C659 C658 1.391 . S
H660 C668 0.950 . S
H661 C673 0.950 . S
H662 C670 0.950 . S
H663 C672 0.950 . S
H664 C674 0.950 . S
H665 C676 0.950 . S
H666 C678 0.950 . S
H667 C679 0.950 . S
C668 H660 0.950 . S
C668 C669 1.386 . S
C668 C670 1.391 . S
C669 C668 1.386 . S
C669 C673 1.393 . S
C670 H662 0.950 . S
C670 C668 1.391 . S
C670 C671 1.400 . S
C671 C670 1.400 . S
C671 C672 1.398 . S
C671 C677 1.491 . S
C672 H663 0.950 . S
C672 C671 1.398 . S
C672 C673 1.391 . S
C673 H661 0.950 . S
C673 C669 1.393 . S
C673 C672 1.391 . S
C674 H664 0.950 . S
C674 C675 1.386 . S
C674 C676 1.391 . S
C675 C674 1.386 . S
C675 C679 1.393 . S
C676 H665 0.950 . S
C676 C674 1.391 . S
C676 C677 1.400 . S
C677 C671 1.491 . S
C677 C676 1.400 . S
C677 C678 1.398 . S
C678 H666 0.950 . S
C678 C677 1.398 . S
C678 C679 1.391 . S
C679 H667 0.950 . S
C679 C675 1.393 . S
C679 C678 1.391 . S
H680 C688 0.950 . S
H681 C693 0.950 . S
H682 C690 0.950 . S
H683 C692 0.950 . S
H684 C694 0.950 . S
H685 C696 0.950 . S
H686 C698 0.950 . S
H687 C699 0.950 . S
C688 H680 0.950 . S
C688 C689 1.386 . S
C688 C690 1.391 . S
C689 C688 1.386 . S
C689 C693 1.393 . S
C690 H682 0.950 . S
C690 C688 1.391 . S
C690 C691 1.400 . S
C691 C690 1.400 . S
C691 C692 1.398 . S
C691 C697 1.491 . S
C692 H683 0.950 . S
C692 C691 1.398 . S
C692 C693 1.391 . S
C693 H681 0.950 . S
C693 C689 1.393 . S
C693 C692 1.391 . S
C694 H684 0.950 . S
C694 C695 1.386 . S
C694 C696 1.391 . S
C695 C694 1.386 . S
C695 C699 1.393 . S
C696 H685 0.950 . S
C696 C694 1.391 . S
C696 C697 1.400 . S
C697 C691 1.491 . S
C697 C696 1.400 . S
C697 C698 1.398 . S
C698 H686 0.950 . S
C698 C697 1.398 . S
C698 C699 1.391 . S
C699 H687 0.950 . S
C699 C695 1.393 . S
C699 C698 1.391 . S
H700 C708 0.950 . S
H701 C713 0.950 . S
H702 C710 0.950 . S
H703 C712 0.950 . S
H704 C714 0.950 . S
H705 C716 0.950 . S
H706 C718 0.950 . S
H707 C719 0.950 . S
C708 H700 0.950 . S
C708 C709 1.384 1_455 S
C708 C710 1.391 . S
C709 C708 1.384 1_655 S
C709 C713 1.394 . S
C710 H702 0.950 . S
C710 C708 1.391 . S
C710 C711 1.400 . S
C711 C710 1.400 . S
C711 C712 1.398 1_455 S
C711 C717 1.491 . S
C712 H703 0.950 . S
C712 C711 1.398 1_655 S
C712 C713 1.391 . S
C713 H701 0.950 . S
C713 C709 1.394 . S
C713 C712 1.391 . S
C714 H704 0.950 . S
C714 C715 1.386 . S
C714 C716 1.391 . S
C715 C714 1.386 . S
C715 C719 1.393 . S
C716 H705 0.950 . S
C716 C714 1.391 . S
C716 C717 1.400 . S
C717 C711 1.491 . S
C717 C716 1.400 . S
C717 C718 1.398 . S
C718 H706 0.950 . S
C718 C717 1.398 . S
C718 C719 1.391 . S
C719 H707 0.950 . S
C719 C715 1.393 . S
C719 C718 1.391 . S
H720 C728 0.950 . S
H721 C733 0.950 . S
H722 C730 0.950 . S
H723 C732 0.950 . S
H724 C734 0.950 . S
H725 C736 0.950 . S
H726 C738 0.950 . S
H727 C739 0.950 . S
C728 H720 0.950 . S
C728 C729 1.386 1_655 S
C728 C730 1.391 . S
C729 C728 1.386 1_455 S
C729 C733 1.393 . S
C730 H722 0.950 . S
C730 C728 1.391 . S
C730 C731 1.400 . S
C731 C730 1.400 . S
C731 C732 1.398 1_655 S
C731 C737 1.491 . S
C732 H723 0.950 . S
C732 C731 1.398 1_455 S
C732 C733 1.391 . S
C733 H721 0.950 . S
C733 C729 1.393 . S
C733 C732 1.391 . S
C734 H724 0.950 . S
C734 C735 1.386 1_455 S
C734 C736 1.391 . S
C735 C734 1.386 1_655 S
C735 C739 1.393 . S
C736 H725 0.950 . S
C736 C734 1.391 . S
C736 C737 1.400 1_455 S
C737 C731 1.491 . S
C737 C736 1.400 1_655 S
C737 C738 1.398 . S
C738 H726 0.950 . S
C738 C737 1.398 . S
C738 C739 1.391 . S
C739 H727 0.950 . S
C739 C735 1.393 . S
C739 C738 1.391 . S
H740 C748 0.950 . S
H741 C753 0.950 . S
H742 C750 0.950 . S
H743 C752 0.950 . S
H744 C754 0.950 1_565 S
H745 C756 0.950 . S
H746 C758 0.950 . S
H747 C759 0.950 . S
C748 H740 0.950 . S
C748 C749 1.386 . S
C748 C750 1.391 . S
C749 C748 1.386 . S
C749 C753 1.393 . S
C750 H742 0.950 . S
C750 C748 1.391 . S
C750 C751 1.400 . S
C751 C750 1.400 . S
C751 C752 1.398 . S
C751 C757 1.491 . S
C752 H743 0.950 . S
C752 C751 1.398 . S
C752 C753 1.391 . S
C753 H741 0.950 . S
C753 C749 1.393 . S
C753 C752 1.391 . S
C754 H744 0.950 1_545 S
C754 C755 1.386 . S
C754 C756 1.391 . S
C755 C754 1.386 . S
C755 C759 1.393 . S
C756 H745 0.950 . S
C756 C754 1.391 . S
C756 C757 1.400 . S
C757 C751 1.491 . S
C757 C756 1.400 . S
C757 C758 1.398 . S
C758 H746 0.950 . S
C758 C757 1.398 . S
C758 C759 1.391 . S
C759 H747 0.950 . S
C759 C755 1.393 . S
C759 C758 1.391 . S
H760 C768 0.950 . S
H761 C773 0.950 . S
H762 C770 0.950 . S
H763 C772 0.950 . S
H764 C774 0.950 . S
H765 C776 0.950 . S
H766 C778 0.950 . S
H767 C779 0.950 . S
C768 H760 0.950 . S
C768 C769 1.386 . S
C768 C770 1.391 . S
C769 C768 1.386 . S
C769 C773 1.393 . S
C770 H762 0.950 . S
C770 C768 1.391 . S
C770 C771 1.400 . S
C771 C770 1.400 . S
C771 C772 1.398 . S
C771 C777 1.491 . S
C772 H763 0.950 . S
C772 C771 1.398 . S
C772 C773 1.391 . S
C773 H761 0.950 . S
C773 C769 1.393 . S
C773 C772 1.391 . S
C774 H764 0.950 . S
C774 C775 1.386 . S
C774 C776 1.391 . S
C775 C774 1.386 . S
C775 C779 1.393 . S
C776 H765 0.950 . S
C776 C774 1.391 . S
C776 C777 1.400 . S
C777 C771 1.491 . S
C777 C776 1.400 . S
C777 C778 1.398 . S
C778 H766 0.950 . S
C778 C777 1.398 . S
C778 C779 1.391 . S
C779 H767 0.950 . S
C779 C775 1.393 . S
C779 C778 1.391 . S
H780 C788 0.950 . S
H781 C793 0.950 . S
H782 C790 0.950 . S
H783 C792 0.950 . S
H784 C794 0.950 . S
H785 C796 0.950 . S
H786 C798 0.950 . S
H787 C799 0.950 . S
C788 H780 0.950 . S
C788 C789 1.386 . S
C788 C790 1.391 . S
C789 C788 1.386 . S
C789 C793 1.393 . S
C790 H782 0.950 . S
C790 C788 1.391 . S
C790 C791 1.400 . S
C791 C790 1.400 . S
C791 C792 1.398 . S
C791 C797 1.491 . S
C792 H783 0.950 . S
C792 C791 1.398 . S
C792 C793 1.391 . S
C793 H781 0.950 . S
C793 C789 1.393 . S
C793 C792 1.391 . S
C794 H784 0.950 . S
C794 C795 1.386 . S
C794 C796 1.391 . S
C795 C794 1.386 . S
C795 C799 1.393 . S
C796 H785 0.950 . S
C796 C794 1.391 . S
C796 C797 1.400 . S
C797 C791 1.491 . S
C797 C796 1.400 . S
C797 C798 1.398 . S
C798 H786 0.950 . S
C798 C797 1.398 . S
C798 C799 1.391 . S
C799 H787 0.950 . S
C799 C795 1.393 . S
C799 C798 1.391 . S
H800 C808 0.950 . S
H801 C813 0.950 . S
H802 C810 0.950 . S
H803 C812 0.950 . S
H804 C814 0.936 1_655 S
H805 C816 0.950 . S
H806 C818 0.950 . S
H807 C819 0.950 . S
C808 H800 0.950 . S
C808 C809 1.386 1_455 S
C808 C810 1.391 . S
C809 C808 1.386 1_655 S
C809 C813 1.393 . S
C810 H802 0.950 . S
C810 C808 1.391 . S
C810 C811 1.400 . S
C811 C810 1.400 . S
C811 C812 1.398 1_455 S
C811 C817 1.491 . S
C812 H803 0.950 . S
C812 C811 1.398 1_655 S
C812 C813 1.391 . S
C813 H801 0.950 . S
C813 C809 1.393 . S
C813 C812 1.391 . S
C814 H804 0.936 1_455 S
C814 C815 1.402 . S
C814 C816 1.388 1_455 S
C815 C814 1.402 . S
C815 C819 1.393 . S
C816 H805 0.950 . S
C816 C814 1.388 1_655 S
C816 C817 1.400 1_655 S
C817 C811 1.491 . S
C817 C816 1.400 1_455 S
C817 C818 1.398 . S
C818 H806 0.950 . S
C818 C817 1.398 . S
C818 C819 1.391 . S
C819 H807 0.950 . S
C819 C815 1.393 . S
C819 C818 1.391 . S
H820 C828 0.950 . S
H821 C833 0.950 . S
H822 C830 0.950 . S
H823 C832 0.950 . S
H824 C834 0.950 1_545 S
H825 C836 0.950 . S
H826 C838 0.950 . S
H827 C839 0.950 . S
C828 H820 0.950 . S
C828 C829 1.386 . S
C828 C830 1.391 . S
C829 C828 1.386 . S
C829 C833 1.393 . S
C830 H822 0.950 . S
C830 C828 1.391 . S
C830 C831 1.400 . S
C831 C830 1.400 . S
C831 C832 1.398 . S
C831 C837 1.491 . S
C832 H823 0.950 . S
C832 C831 1.398 . S
C832 C833 1.391 . S
C833 H821 0.950 . S
C833 C829 1.393 . S
C833 C832 1.391 . S
C834 H824 0.950 1_565 S
C834 C835 1.386 . S
C834 C836 1.391 . S
C835 C834 1.386 . S
C835 C839 1.393 . S
C836 H825 0.950 . S
C836 C834 1.391 . S
C836 C837 1.400 . S
C837 C831 1.491 . S
C837 C836 1.400 . S
C837 C838 1.398 . S
C838 H826 0.950 . S
C838 C837 1.398 . S
C838 C839 1.391 . S
C839 H827 0.950 . S
C839 C835 1.393 . S
C839 C838 1.391 . S
H840 C848 0.950 . S
H841 C853 0.950 . S
H842 C850 0.950 . S
H843 C852 0.950 . S
H844 C854 0.950 . S
H845 C856 0.950 . S
H846 C858 0.950 . S
H847 C859 0.950 . S
C848 H840 0.950 . S
C848 C849 1.386 . S
C848 C850 1.391 . S
C849 C848 1.386 . S
C849 C853 1.393 . S
C850 H842 0.950 . S
C850 C848 1.391 . S
C850 C851 1.400 . S
C851 C850 1.400 . S
C851 C852 1.398 . S
C851 C857 1.491 . S
C852 H843 0.950 . S
C852 C851 1.398 . S
C852 C853 1.391 . S
C853 H841 0.950 . S
C853 C849 1.393 . S
C853 C852 1.391 . S
C854 H844 0.950 . S
C854 C855 1.386 . S
C854 C856 1.391 . S
C855 C854 1.386 . S
C855 C859 1.393 . S
C856 H845 0.950 . S
C856 C854 1.391 . S
C856 C857 1.400 . S
C857 C851 1.491 . S
C857 C856 1.400 . S
C857 C858 1.398 . S
C858 H846 0.950 . S
C858 C857 1.398 . S
C858 C859 1.391 . S
C859 H847 0.950 . S
C859 C855 1.393 . S
C859 C858 1.391 . S
H860 C868 0.950 . S
H861 C873 0.950 . S
H862 C870 0.950 . S
H863 C872 0.950 . S
H864 C874 0.950 . S
H865 C876 0.950 . S
H866 C878 0.950 . S
H867 C879 0.950 . S
C868 H860 0.950 . S
C868 C869 1.386 . S
C868 C870 1.391 . S
C869 C868 1.386 . S
C869 C873 1.393 . S
C870 H862 0.950 . S
C870 C868 1.391 . S
C870 C871 1.400 . S
C871 C870 1.400 . S
C871 C872 1.398 . S
C871 C877 1.491 . S
C872 H863 0.950 . S
C872 C871 1.398 . S
C872 C873 1.391 . S
C873 H861 0.950 . S
C873 C869 1.393 . S
C873 C872 1.391 . S
C874 H864 0.950 . S
C874 C875 1.386 . S
C874 C876 1.391 . S
C875 C874 1.386 . S
C875 C879 1.393 . S
C876 H865 0.950 . S
C876 C874 1.391 . S
C876 C877 1.400 . S
C877 C871 1.491 . S
C877 C876 1.400 . S
C877 C878 1.398 . S
C878 H866 0.950 . S
C878 C877 1.398 . S
C878 C879 1.391 . S
C879 H867 0.950 . S
C879 C875 1.393 . S
C879 C878 1.391 . S
H880 C888 0.950 . S
H881 C893 0.950 . S
H882 C890 0.950 . S
H883 C892 0.950 . S
H884 C894 0.950 . S
H885 C896 0.950 . S
H886 C898 0.950 . S
H887 C899 0.950 . S
C888 H880 0.950 . S
C888 C889 1.422 . S
C888 C890 1.391 . S
C889 C888 1.422 . S
C889 C893 1.360 1_455 S
C890 H882 0.950 . S
C890 C888 1.391 . S
C890 C891 1.400 . S
C891 C890 1.400 . S
C891 C892 1.398 1_455 S
C891 C897 1.491 . S
C892 H883 0.950 . S
C892 C891 1.398 1_655 S
C892 C893 1.391 . S
C893 H881 0.950 . S
C893 C889 1.360 1_655 S
C893 C892 1.391 . S
C894 H884 0.950 . S
C894 C895 1.386 1_655 S
C894 C896 1.391 . S
C895 C894 1.386 1_455 S
C895 C899 1.393 . S
C896 H885 0.950 . S
C896 C894 1.391 . S
C896 C897 1.400 1_655 S
C897 C891 1.491 . S
C897 C896 1.400 1_455 S
C897 C898 1.398 . S
C898 H886 0.950 . S
C898 C897 1.398 . S
C898 C899 1.391 . S
C899 H887 0.950 . S
C899 C895 1.393 . S
C899 C898 1.391 . S
H900 C908 0.950 . S
H901 C913 0.950 . S
H902 C910 0.950 . S
H903 C912 0.950 . S
H904 C914 0.950 . S
H905 C916 0.950 . S
H906 C918 0.950 . S
H907 C919 0.950 . S
C908 H900 0.950 . S
C908 C909 1.386 . S
C908 C910 1.391 . S
C909 C908 1.386 . S
C909 C913 1.393 . S
C910 H902 0.950 . S
C910 C908 1.391 . S
C910 C911 1.400 . S
C911 C910 1.400 . S
C911 C912 1.398 . S
C911 C917 1.491 . S
C912 H903 0.950 . S
C912 C911 1.398 . S
C912 C913 1.391 . S
C913 H901 0.950 . S
C913 C909 1.393 . S
C913 C912 1.391 . S
C914 H904 0.950 . S
C914 C915 1.386 . S
C914 C916 1.391 . S
C915 C914 1.386 . S
C915 C919 1.393 . S
C916 H905 0.950 . S
C916 C914 1.391 . S
C916 C917 1.400 . S
C917 C911 1.491 . S
C917 C916 1.400 . S
C917 C918 1.398 . S
C918 H906 0.950 . S
C918 C917 1.398 . S
C918 C919 1.391 . S
C919 H907 0.950 . S
C919 C915 1.393 . S
C919 C918 1.391 . S
H920 C928 0.950 . S
H921 C933 0.950 . S
H922 C930 0.950 . S
H923 C932 0.950 . S
H924 C934 0.950 . S
H925 C936 0.950 . S
H926 C938 0.950 . S
H927 C939 0.950 . S
C928 H920 0.950 . S
C928 C929 1.386 . S
C928 C930 1.391 . S
C929 C928 1.386 . S
C929 C933 1.393 . S
C930 H922 0.950 . S
C930 C928 1.391 . S
C930 C931 1.400 . S
C931 C930 1.400 . S
C931 C932 1.398 . S
C931 C937 1.491 . S
C932 H923 0.950 . S
C932 C931 1.398 . S
C932 C933 1.391 . S
C933 H921 0.950 . S
C933 C929 1.393 . S
C933 C932 1.391 . S
C934 H924 0.950 . S
C934 C935 1.386 . S
C934 C936 1.391 . S
C935 C934 1.386 . S
C935 C939 1.393 . S
C936 H925 0.950 . S
C936 C934 1.391 . S
C936 C937 1.400 . S
C937 C931 1.491 . S
C937 C936 1.400 . S
C937 C938 1.398 . S
C938 H926 0.950 . S
C938 C937 1.398 . S
C938 C939 1.391 . S
C939 H927 0.950 . S
C939 C935 1.393 . S
C939 C938 1.391 . S
H940 C948 0.950 . S
H941 C953 0.950 . S
H942 C950 0.950 . S
H943 C952 0.950 . S
H944 C954 0.950 . S
H945 C956 0.950 . S
H946 C958 0.950 . S
H947 C959 0.950 . S
C948 H940 0.950 . S
C948 C949 1.386 . S
C948 C950 1.391 . S
C949 C948 1.386 . S
C949 C953 1.393 . S
C950 H942 0.950 . S
C950 C948 1.391 . S
C950 C951 1.400 . S
C951 C950 1.400 . S
C951 C952 1.398 . S
C951 C957 1.491 . S
C952 H943 0.950 . S
C952 C951 1.398 . S
C952 C953 1.391 . S
C953 H941 0.950 . S
C953 C949 1.393 . S
C953 C952 1.391 . S
C954 H944 0.950 . S
C954 C955 1.386 . S
C954 C956 1.391 . S
C955 C954 1.386 . S
C955 C959 1.393 . S
C956 H945 0.950 . S
C956 C954 1.391 . S
C956 C957 1.400 . S
C957 C951 1.491 . S
C957 C956 1.400 . S
C957 C958 1.398 . S
C958 H946 0.950 . S
C958 C957 1.398 . S
C958 C959 1.391 . S
C959 H947 0.950 . S
C959 C955 1.393 . S
C959 C958 1.391 . S
H960 C968 0.950 . S
H961 C973 0.950 . S
H962 C970 0.950 . S
H963 C972 0.950 . S
H964 C974 0.950 . S
H965 C976 0.950 . S
H966 C978 0.950 . S
H967 C979 0.950 . S
C968 H960 0.950 . S
C968 C969 1.386 . S
C968 C970 1.391 . S
C969 C968 1.386 . S
C969 C973 1.393 1_655 S
C970 H962 0.950 . S
C970 C968 1.391 . S
C970 C971 1.400 . S
C971 C970 1.400 . S
C971 C972 1.398 1_655 S
C971 C977 1.491 . S
C972 H963 0.950 . S
C972 C971 1.398 1_455 S
C972 C973 1.391 . S
C973 H961 0.950 . S
C973 C969 1.393 1_455 S
C973 C972 1.391 . S
C974 H964 0.950 . S
C974 C975 1.386 1_455 S
C974 C976 1.391 . S
C975 C974 1.386 1_655 S
C975 C979 1.393 . S
C976 H965 0.950 . S
C976 C974 1.391 . S
C976 C977 1.400 1_455 S
C977 C971 1.491 . S
C977 C976 1.400 1_655 S
C977 C978 1.398 . S
C978 H966 0.950 . S
C978 C977 1.398 . S
C978 C979 1.391 . S
C979 H967 0.950 . S
C979 C975 1.393 . S
C979 C978 1.391 . S
H980 C988 0.950 . S
H981 C993 0.950 . S
H982 C990 0.950 . S
H983 C992 0.950 . S
H984 C994 0.950 . S
H985 C996 0.950 . S
H986 C998 0.950 . S
H987 C999 0.950 . S
C988 H980 0.950 . S
C988 C989 1.386 . S
C988 C990 1.391 . S
C989 C988 1.386 . S
C989 C993 1.393 . S
C990 H982 0.950 . S
C990 C988 1.391 . S
C990 C991 1.400 . S
C991 C990 1.400 . S
C991 C992 1.398 . S
C991 C997 1.491 . S
C992 H983 0.950 . S
C992 C991 1.398 . S
C992 C993 1.391 . S
C993 H981 0.950 . S
C993 C989 1.393 . S
C993 C992 1.391 . S
C994 H984 0.950 . S
C994 C995 1.386 . S
C994 C996 1.391 . S
C995 C994 1.386 . S
C995 C999 1.393 . S
C996 H985 0.950 . S
C996 C994 1.391 . S
C996 C997 1.400 . S
C997 C991 1.491 . S
C997 C996 1.400 . S
C997 C998 1.398 . S
C998 H986 0.950 . S
C998 C997 1.398 . S
C998 C999 1.391 . S
C999 H987 0.950 . S
C999 C995 1.393 . S
C999 C998 1.391 . S
H1000 C1008 0.950 . S
H1001 C1013 0.950 . S
H1002 C1010 0.950 . S
H1003 C1012 0.950 . S
H1004 C1014 0.950 . S
H1005 C1016 0.950 . S
H1006 C1018 0.950 . S
H1007 C1019 0.950 . S
C1008 H1000 0.950 . S
C1008 C1009 1.386 . S
C1008 C1010 1.391 . S
C1009 C1008 1.386 . S
C1009 C1013 1.393 . S
C1010 H1002 0.950 . S
C1010 C1008 1.391 . S
C1010 C1011 1.400 . S
C1011 C1010 1.400 . S
C1011 C1012 1.398 . S
C1011 C1017 1.491 . S
C1012 H1003 0.950 . S
C1012 C1011 1.398 . S
C1012 C1013 1.391 . S
C1013 H1001 0.950 . S
C1013 C1009 1.393 . S
C1013 C1012 1.391 . S
C1014 H1004 0.950 . S
C1014 C1015 1.386 . S
C1014 C1016 1.391 . S
C1015 C1014 1.386 . S
C1015 C1019 1.393 . S
C1016 H1005 0.950 . S
C1016 C1014 1.391 . S
C1016 C1017 1.400 . S
C1017 C1011 1.491 . S
C1017 C1016 1.400 . S
C1017 C1018 1.398 . S
C1018 H1006 0.950 . S
C1018 C1017 1.398 . S
C1018 C1019 1.391 . S
C1019 H1007 0.950 . S
C1019 C1015 1.393 . S
C1019 C1018 1.391 . S
H1020 C1028 0.950 . S
H1021 C1033 0.950 . S
H1022 C1030 0.950 . S
H1023 C1032 0.950 . S
H1024 C1034 0.950 . S
H1025 C1036 0.950 . S
H1026 C1038 0.950 . S
H1027 C1039 0.950 . S
C1028 H1020 0.950 . S
C1028 C1029 1.386 . S
C1028 C1030 1.391 . S
C1029 C1028 1.386 . S
C1029 C1033 1.393 . S
C1030 H1022 0.950 . S
C1030 C1028 1.391 . S
C1030 C1031 1.400 . S
C1031 C1030 1.400 . S
C1031 C1032 1.398 . S
C1031 C1037 1.491 . S
C1032 H1023 0.950 . S
C1032 C1031 1.398 . S
C1032 C1033 1.391 . S
C1033 H1021 0.950 . S
C1033 C1029 1.393 . S
C1033 C1032 1.391 . S
C1034 H1024 0.950 . S
C1034 C1035 1.386 . S
C1034 C1036 1.391 . S
C1035 C1034 1.386 . S
C1035 C1039 1.393 . S
C1036 H1025 0.950 . S
C1036 C1034 1.391 . S
C1036 C1037 1.400 . S
C1037 C1031 1.491 . S
C1037 C1036 1.400 . S
C1037 C1038 1.398 . S
C1038 H1026 0.950 . S
C1038 C1037 1.398 . S
C1038 C1039 1.391 . S
C1039 H1027 0.950 . S
C1039 C1035 1.393 . S
C1039 C1038 1.391 . S
C569 C391 1.907 . S
C575 C498 1.853 . S
C595 C518 1.545 . S
C589 C451 1.611 . S
C615 C538 1.836 . S
C609 C241 1.641 . S
C635 C558 1.519 . S
C629 C331 1.416 . S
C655 C499 1.862 . S
C649 C121 1.738 . S
C669 C211 1.641 . S
C675 C519 1.546 . S
C689 C31 1.813 . S
C695 C539 1.827 . S
C709 C91 1.438 . S
C715 C559 1.532 . S
C735 C489 0.628 . S
C729 C301 0.615 1_455 S
C755 C509 0.819 . S
C749 C380 0.818 . S
C775 C529 0.692 . S
C769 C440 0.635 . S
C789 C260 0.770 . S
C795 C549 0.756 . S
C809 C61 0.641 . S
C815 C492 0.660 . S
C835 C512 0.794 . S
C829 C140 0.779 . S
C855 C532 0.636 . S
C849 C200 0.623 . S
C869 C20 0.809 . S
C875 C552 0.804 . S
C889 C320 2.127 1_455 S
C895 C482 2.000 . S
C909 C361 1.959 . S
C915 C502 2.072 . S
C935 C522 1.938 . S
C929 C421 1.791 . S
C955 C542 2.144 . S
C949 C271 2.221 . S
C969 C80 2.139 . S
C975 C484 2.016 . S
C995 C504 2.047 . S
C989 C151 2.189 . S
C1015 C524 1.910 . S
C1009 C181 1.804 . S
C1029 C1 1.960 . S
C1035 C544 2.145 . S
