# Generated by pormake.
# Topology zzz, (3,6)-cn, num edge types: 1
# Building blocks:
#     Node 0, Type 0, BuildingBlock: KAKCAD_clean_linker_0, # of connection points: 3
#     Node 1, Type 0, BuildingBlock: KAKCAD_clean_linker_0, # of connection points: 3
#     Node 2, Type 0, BuildingBlock: KAKCAD_clean_linker_0, # of connection points: 3
#     Node 3, Type 0, BuildingBlock: KAKCAD_clean_linker_0, # of connection points: 3
#     Node 4, Type 0, BuildingBlock: KAKCAD_clean_linker_0, # of connection points: 3
#     Node 5, Type 0, BuildingBlock: KAKCAD_clean_linker_0, # of connection points: 3
#     Node 6, Type 0, BuildingBlock: KAKCAD_clean_linker_0, # of connection points: 3
#     Node 7, Type 0, BuildingBlock: KAKCAD_clean_linker_0, # of connection points: 3
#     Node 8, Type 1, BuildingBlock: BETDIP_clean_sbu_0, # of connection points: 6
#     Node 9, Type 1, BuildingBlock: BETDIP_clean_sbu_0, # of connection points: 6
#     Node 10, Type 1, BuildingBlock: BETDIP_clean_sbu_0, # of connection points: 6
#     Node 11, Type 1, BuildingBlock: BETDIP_clean_sbu_0, # of connection points: 6
#     Edge 12, Type (0, 1), BuildingBlock: MIFKUJ_clean_linker_0, # of connection points: 2
#     Edge 13, Type (0, 1), BuildingBlock: MIFKUJ_clean_linker_0, # of connection points: 2
#     Edge 14, Type (0, 1), BuildingBlock: MIFKUJ_clean_linker_0, # of connection points: 2
#     Edge 15, Type (0, 1), BuildingBlock: MIFKUJ_clean_linker_0, # of connection points: 2
#     Edge 16, Type (0, 1), BuildingBlock: MIFKUJ_clean_linker_0, # of connection points: 2
#     Edge 17, Type (0, 1), BuildingBlock: MIFKUJ_clean_linker_0, # of connection points: 2
#     Edge 18, Type (0, 1), BuildingBlock: MIFKUJ_clean_linker_0, # of connection points: 2
#     Edge 19, Type (0, 1), BuildingBlock: MIFKUJ_clean_linker_0, # of connection points: 2
#     Edge 20, Type (0, 1), BuildingBlock: MIFKUJ_clean_linker_0, # of connection points: 2
#     Edge 21, Type (0, 1), BuildingBlock: MIFKUJ_clean_linker_0, # of connection points: 2
#     Edge 22, Type (0, 1), BuildingBlock: MIFKUJ_clean_linker_0, # of connection points: 2
#     Edge 23, Type (0, 1), BuildingBlock: MIFKUJ_clean_linker_0, # of connection points: 2
#     Edge 24, Type (0, 1), BuildingBlock: MIFKUJ_clean_linker_0, # of connection points: 2
#     Edge 25, Type (0, 1), BuildingBlock: MIFKUJ_clean_linker_0, # of connection points: 2
#     Edge 26, Type (0, 1), BuildingBlock: MIFKUJ_clean_linker_0, # of connection points: 2
#     Edge 27, Type (0, 1), BuildingBlock: MIFKUJ_clean_linker_0, # of connection points: 2
#     Edge 28, Type (0, 1), BuildingBlock: MIFKUJ_clean_linker_0, # of connection points: 2
#     Edge 29, Type (0, 1), BuildingBlock: MIFKUJ_clean_linker_0, # of connection points: 2
#     Edge 30, Type (0, 1), BuildingBlock: MIFKUJ_clean_linker_0, # of connection points: 2
#     Edge 31, Type (0, 1), BuildingBlock: MIFKUJ_clean_linker_0, # of connection points: 2
#     Edge 32, Type (0, 1), BuildingBlock: MIFKUJ_clean_linker_0, # of connection points: 2
#     Edge 33, Type (0, 1), BuildingBlock: MIFKUJ_clean_linker_0, # of connection points: 2
#     Edge 34, Type (0, 1), BuildingBlock: MIFKUJ_clean_linker_0, # of connection points: 2
#     Edge 35, Type (0, 1), BuildingBlock: MIFKUJ_clean_linker_0, # of connection points: 2
# Relax obj value: 0.404
# Max RMSD: 0.266
# Mean RMSD: 0.239
data_MOF--net-zzz--node1-BETDIP_clean_sbu_0--node2-KAKCAD_clean_linker_0--edge1-MIFKUJ_clean_linker_0
_symmetry_space_group_name_H-M    P1
_symmetry_Int_Tables_number       1
_symmetry_cell_setting            triclinic
loop_
_symmetry_equiv_pos_as_xyz
'x, y, z'
_cell_length_a     74.877193
_cell_length_b     74.958854
_cell_length_c     23.074168
_cell_angle_alpha  89.941446
_cell_angle_beta   89.921971
_cell_angle_gamma 90.000444
loop_
_atom_site_label
_atom_site_type_symbol
_atom_site_fract_x
_atom_site_fract_y
_atom_site_fract_z
_atom_type_partial_charge
C0 C 0.75706 0.46508 0.00847 0.0
C1 C 0.76941 0.45103 0.01243 0.0
C2 C 0.74937 0.47226 0.05841 0.0
C3 C 0.7538 0.4655 0.11343 0.0
C4 C 0.76552 0.4509 0.11717 0.0
C5 C 0.77326 0.44377 0.06723 0.0
C6 C 0.74689 0.47424 0.16665 0.0
C7 C 0.72927 0.48037 0.169 0.0
C8 C 0.72289 0.4898 0.21719 0.0
C9 C 0.7344 0.49313 0.26445 0.0
C10 C 0.75206 0.48642 0.26353 0.0
C11 C 0.7581 0.47716 0.2143 0.0
C12 C 0.76482 0.48876 0.3124 0.0
C13 C 0.77056 0.50579 0.32975 0.0
C14 C 0.77361 0.47371 0.33492 0.0
C15 C 0.78851 0.47559 0.37083 0.0
C16 C 0.79514 0.49258 0.38505 0.0
C17 C 0.70411 0.49597 0.21473 0.0
C18 C 0.7003 0.51338 0.19609 0.0
C19 C 0.69039 0.48321 0.21439 0.0
C20 C 0.67355 0.48736 0.19178 0.0
C21 C 0.67009 0.50438 0.16851 0.0
C22 C 0.68344 0.51756 0.17334 0.0
C23 C 0.78559 0.50769 0.3658 0.0
H24 H 0.75373 0.47088 0.96685 0.0
H25 H 0.7405 0.48359 0.05398 0.0
H26 H 0.769 0.44522 0.15883 0.0
H27 H 0.78292 0.4331 0.07191 0.0
H28 H 0.72039 0.4779 0.13277 0.0
H29 H 0.77186 0.47267 0.21253 0.0
H30 H 0.72958 0.50044 0.3018 0.0
H31 H 0.76415 0.51761 0.31249 0.0
H32 H 0.76944 0.46042 0.32239 0.0
H33 H 0.79522 0.46366 0.3859 0.0
H34 H 0.71077 0.52335 0.19477 0.0
H35 H 0.69314 0.46957 0.22725 0.0
H36 H 0.79032 0.52098 0.37578 0.0
H37 H 0.68117 0.53089 0.15677 0.0
H38 H 0.66375 0.47679 0.18847 0.0
C39 C 0.99605 0.75067 0.01647 0.0
C40 C 0.0111 0.76052 0.99937 0.0
C41 C 0.99522 0.74326 0.0719 0.0
C42 C 0.00925 0.74593 0.11129 0.0
C43 C 0.02441 0.75552 0.09388 0.0
C44 C 0.02539 0.76264 0.0381 0.0
C45 C 0.008 0.73872 0.17055 0.0
C46 C 0.00454 0.72065 0.17877 0.0
C47 C 1.00321 0.7134 0.2345 0.0
C48 C 0.0049 0.7247 0.28336 0.0
C49 C 0.00843 0.74315 0.27533 0.0
C50 C 0.01011 0.74985 0.21864 0.0
C51 C 0.01009 0.75613 0.32404 0.0
C52 C 0.99562 0.75958 0.36121 0.0
C53 C 0.02497 0.76756 0.32619 0.0
C54 C 0.02503 0.78262 0.36204 0.0
C55 C 0.01013 0.78679 0.39676 0.0
C56 C 1.0006 0.69382 0.23737 0.0
C57 C 0.98366 0.68685 0.22441 0.0
C58 C 0.01558 0.68272 0.23087 0.0
C59 C 0.01387 0.66563 0.20671 0.0
C60 C 0.9971 0.6593 0.18824 0.0
C61 C 0.98191 0.66977 0.20037 0.0
C62 C 0.99562 0.77476 0.39706 0.0
H63 H 0.98484 0.74903 0.98734 0.0
H64 H 0.9834 0.73589 0.08465 0.0
H65 H 0.03541 0.75759 0.12356 0.0
H66 H 0.03699 0.77045 0.02605 0.0
H67 H 1.00321 0.71203 0.14124 0.0
H68 H 0.01255 0.76397 0.21178 0.0
H69 H 1.00373 0.71923 0.32667 0.0
H70 H 0.98387 0.75115 0.35998 0.0
H71 H 0.03626 0.76534 0.29765 0.0
H72 H 0.03639 0.79153 0.35995 0.0
H73 H 0.97193 0.69527 0.2276 0.0
H74 H 0.02885 0.68795 0.2388 0.0
H75 H 0.98401 0.77735 0.42381 0.0
H76 H 0.96874 0.66522 0.18788 0.0
H77 H 0.02589 0.65808 0.19789 0.0
C78 C 0.75132 0.04932 0.05398 0.0
C79 C 0.74537 0.06644 0.07019 0.0
C80 C 0.76026 0.03845 0.09338 0.0
C81 C 0.76322 0.04428 0.15022 0.0
C82 C 0.75838 0.06169 0.16583 0.0
C83 C 0.74978 0.07279 0.12587 0.0
C84 C 0.76968 0.03142 0.19388 0.0
C85 C 0.78504 0.02143 0.18308 0.0
C86 C 0.78998 0.00732 0.21961 0.0
C87 C 0.77912 1.00307 0.26794 0.0
C88 C 0.76355 0.01323 0.27949 0.0
C89 C 0.75921 0.02751 0.24248 0.0
C90 C 0.75059 0.00869 0.3264 0.0
C91 C 0.74215 0.99194 0.32792 0.0
C92 C 0.74413 0.02225 0.3629 0.0
C93 C 0.72892 0.01957 0.39712 0.0
C94 C 0.71963 1.00326 0.39566 0.0
C95 C 0.80632 0.99726 0.20355 0.0
C96 C 0.80701 0.98886 0.1492 0.0
C97 C 0.82231 0.99989 0.23407 0.0
C98 C 0.83878 0.99537 0.20873 0.0
C99 C 0.83959 0.98824 0.15217 0.0
C100 C 0.82339 0.98442 0.12383 0.0
C101 C 0.72682 0.98925 0.36218 0.0
H102 H 0.74796 0.04363 0.01231 0.0
H103 H 0.76378 0.025 0.08055 0.0
H104 H 0.76073 0.06649 0.20944 0.0
H105 H 0.74582 0.08601 0.13966 0.0
H106 H 0.79309 0.02449 0.14519 0.0
H107 H 0.74693 0.0349 0.24937 0.0
H108 H 0.78258 0.9919 0.29558 0.0
H109 H 0.74666 0.98132 0.29966 0.0
H110 H 0.75037 0.03529 0.36276 0.0
H111 H 0.7241 0.03053 0.42339 0.0
H112 H 0.79489 0.987 0.12431 0.0
H113 H 0.82216 0.00661 0.27559 0.0
H114 H 0.72004 0.97651 0.35976 0.0
H115 H 0.82328 0.97917 0.08015 0.0
H116 H 0.85091 0.99821 0.23248 0.0
C117 C 0.49256 0.72494 0.39868 0.0
C118 C 0.50779 0.71389 0.39669 0.0
C119 C 0.49124 0.74 0.36298 0.0
C120 C 0.50524 0.74463 0.32533 0.0
C121 C 0.52102 0.73454 0.32663 0.0
C122 C 0.52229 0.71933 0.36183 0.0
C123 C 0.50151 0.7561 0.27443 0.0
C124 C 0.50955 0.77295 0.26583 0.0
C125 C 0.50699 0.78208 0.2129 0.0
C126 C 0.49668 0.77415 0.16917 0.0
C127 C 0.48894 0.75733 0.17697 0.0
C128 C 0.491 0.74868 0.23037 0.0
C129 C 0.48089 0.74788 0.12692 0.0
C130 C 0.47059 0.75702 0.08537 0.0
C131 C 0.48498 0.72983 0.11759 0.0
C132 C 0.47958 0.72132 0.06707 0.0
C133 C 0.47014 0.73066 0.02414 0.0
C134 C 0.51539 0.79954 0.19946 0.0
C135 C 0.50969 0.81515 0.22738 0.0
C136 C 0.52604 0.80104 0.14957 0.0
C137 C 0.52961 0.8177 0.12502 0.0
C138 C 0.52271 0.83339 0.14996 0.0
C139 C 0.51337 0.83194 0.20298 0.0
C140 C 0.46523 0.74846 0.03436 0.0
H141 H 0.48128 0.72151 0.42593 0.0
H142 H 0.47881 0.74739 0.36198 0.0
H143 H 0.5318 0.73754 0.29682 0.0
H144 H 0.53418 0.71119 0.35849 0.0
H145 H 0.51799 0.77864 0.29912 0.0
H146 H 0.4851 0.73561 0.23687 0.0
H147 H 0.49536 0.78086 0.12774 0.0
H148 H 0.46704 0.77089 0.09166 0.0
H149 H 0.49308 0.7224 0.14808 0.0
H150 H 0.4832 0.70745 0.06101 0.0
H151 H 0.50132 0.81434 0.26562 0.0
H152 H 0.53048 0.78917 0.12695 0.0
H153 H 0.45786 0.75594 1.00209 0.0
H154 H 0.50816 0.84371 0.22428 0.0
H155 H 0.53666 0.81804 0.08408 0.0
C156 C 0.2576 0.52007 0.34555 0.0
C157 C 0.24296 0.51045 0.36719 0.0
C158 C 0.26521 0.51546 0.29236 0.0
C159 C 0.25806 0.50138 0.25959 0.0
C160 C 0.24364 0.49157 0.2817 0.0
C161 C 0.23624 0.49597 0.33534 0.0
C162 C 0.26536 0.49735 0.20164 0.0
C163 C 0.28367 0.49485 0.19441 0.0
C164 C 0.29102 0.49192 0.13941 0.0
C165 C 0.27972 0.49152 0.0903 0.0
C166 C 0.26111 0.49424 0.09724 0.0
C167 C 0.25416 0.49687 0.15323 0.0
C168 C 0.24837 0.49524 0.04775 0.0
C169 C 0.23731 0.51031 0.04253 0.0
C170 C 0.24483 0.48033 0.01272 0.0
C171 C 0.22978 0.4801 0.97615 0.0
C172 C 0.21798 0.49477 0.97427 0.0
C173 C 0.31073 0.49041 0.13683 0.0
C174 C 0.32089 0.5061 0.14119 0.0
C175 C 0.31882 0.47404 0.15079 0.0
C176 C 0.33623 0.47355 0.17326 0.0
C177 C 0.34573 0.48946 0.18307 0.0
C178 C 0.33819 0.50564 0.16414 0.0
C179 C 0.22236 0.51009 0.00634 0.0
H180 H 0.26293 0.53133 0.36932 0.0
H181 H 0.2763 0.52326 0.27591 0.0
H182 H 0.238 0.48061 0.25719 0.0
H183 H 0.22478 0.48853 0.35082 0.0
H184 H 0.29235 0.49534 0.23202 0.0
H185 H 0.23994 0.49903 0.15902 0.0
H186 H 0.28534 0.48965 0.04746 0.0
H187 H 0.23973 0.52201 0.06893 0.0
H188 H 0.253 0.46846 0.0164 0.0
H189 H 0.22681 0.46808 0.95205 0.0
H190 H 0.31481 0.51892 0.13219 0.0
H191 H 0.31109 0.46183 0.1495 0.0
H192 H 0.21383 0.52176 0.00506 0.0
H193 H 0.34523 0.5181 0.17052 0.0
H194 H 0.3416 0.46088 0.18764 0.0
C195 C 0.98784 0.25866 0.32483 0.0
C196 C 0.99929 0.24548 0.34698 0.0
C197 C 0.99008 0.26495 0.26828 0.0
C198 C 1.00367 0.25801 0.2327 0.0
C199 C 0.01533 0.24514 0.25512 0.0
C200 C 0.01326 0.23906 0.31183 0.0
C201 C 0.00615 0.2648 0.17313 0.0
C202 C 0.00685 0.28315 0.1639 0.0
C203 C 0.00971 0.29023 0.10858 0.0
C204 C 0.01153 0.27854 0.06072 0.0
C205 C 0.0107 0.25981 0.06955 0.0
C206 C 0.00823 0.25318 0.12605 0.0
C207 C 0.01215 0.24657 0.02154 0.0
C208 C 0.99753 0.24327 0.98499 0.0
C209 C 0.02673 0.23476 0.01981 0.0
C210 C 0.02649 0.21969 0.98372 0.0
C211 C 0.0115 0.21582 0.94915 0.0
C212 C 0.01155 0.30993 0.10576 0.0
C213 C 0.99636 0.32044 0.11656 0.0
C214 C 0.02847 0.31744 0.1155 0.0
C215 C 0.0301 0.33432 0.1412 0.0
C216 C 0.01483 0.34407 0.15786 0.0
C217 C 0.99797 0.33733 0.14214 0.0
C218 C 0.99717 0.22804 0.94938 0.0
H219 H 0.97698 0.26387 0.35083 0.0
H220 H 0.98097 0.27498 0.25191 0.0
H221 H 0.02607 0.23982 0.22883 0.0
H222 H 0.02221 0.22877 0.32726 0.0
H223 H 0.00571 0.29211 0.20069 0.0
H224 H 0.00757 0.23889 0.13322 0.0
H225 H 0.01372 0.28388 0.01766 0.0
H226 H 0.98595 0.25193 0.98635 0.0
H227 H 0.038 0.23676 0.04848 0.0
H228 H 0.03768 0.21056 0.98532 0.0
H229 H 0.98314 0.3148 0.11107 0.0
H230 H 0.04039 0.30949 0.109 0.0
H231 H 0.98546 0.22559 0.92306 0.0
H232 H 0.98589 0.34433 0.15442 0.0
H233 H 0.04333 0.3392 0.15157 0.0
C234 C 0.26505 0.05386 0.28294 0.0
C235 C 0.27861 0.06624 0.27 0.0
C236 C 0.25375 0.04761 0.23957 0.0
C237 C 0.25577 0.05351 0.18217 0.0
C238 C 0.26839 0.06686 0.16989 0.0
C239 C 0.27965 0.07324 0.21348 0.0
C240 C 0.24622 0.04411 0.13499 0.0
C241 C 0.22833 0.03921 0.14176 0.0
C242 C 0.21993 0.0278 0.10205 0.0
C243 C 0.22976 0.02118 0.05424 0.0
C244 C 0.24766 0.02671 0.04577 0.0
C245 C 0.25563 0.03815 0.08626 0.0
C246 C 0.25912 0.02031 0.99744 0.0
C247 C 0.26728 0.00348 1.00082 0.0
C248 C 0.26556 0.03267 0.95663 0.0
C249 C 0.2805 0.02872 0.92233 0.0
C250 C 0.28955 0.01237 0.92854 0.0
C251 C 0.2011 0.02284 0.11468 0.0
C252 C 0.197 0.00598 0.13784 0.0
C253 C 0.18825 0.03646 0.11844 0.0
C254 C 0.17229 0.03377 0.14878 0.0
C255 C 0.16877 0.01739 0.17629 0.0
C256 C 0.18092 1.00325 0.16818 0.0
C257 C 0.28234 0.99955 0.96676 0.0
H258 H 0.26398 0.04791 0.32557 0.0
H259 H 0.24429 0.03718 0.25033 0.0
H260 H 0.27003 0.07184 0.12611 0.0
H261 H 0.28974 0.08301 0.20229 0.0
H262 H 0.22098 0.04389 0.17934 0.0
H263 H 0.26961 0.04164 0.08125 0.0
H264 H 0.22355 0.01209 0.02388 0.0
H265 H 0.26284 0.99387 0.03283 0.0
H266 H 0.25977 0.0459 0.95419 0.0
H267 H 0.2857 0.03901 0.89397 0.0
H268 H 0.20683 0.99539 0.13666 0.0
H269 H 0.19118 0.04964 0.10161 0.0
H270 H 0.28881 0.98674 0.97223 0.0
H271 H 0.17864 0.99049 0.18895 0.0
H272 H 0.16311 0.04485 0.15333 0.0
C273 C 0.47183 0.28223 0.97459 0.0
C274 C 0.48938 0.28806 0.96367 0.0
C275 C 0.46861 0.26749 0.01042 0.0
C276 C 0.48283 0.25801 0.03549 0.0
C277 C 0.50039 0.26304 0.02171 0.0
C278 C 0.50364 0.27796 0.98633 0.0
C279 C 0.47928 0.24593 0.08529 0.0
C280 C 0.48374 0.22759 0.08508 0.0
C281 C 0.48054 0.21713 0.13501 0.0
C282 C 0.47358 0.22519 0.1849 0.0
C283 C 0.46989 0.24344 0.18631 0.0
C284 C 0.47229 0.25362 0.13597 0.0
C285 C 0.46599 0.25231 0.24218 0.0
C286 C 0.45292 0.26567 0.24631 0.0
C287 C 0.47678 0.24863 0.29046 0.0
C288 C 0.47543 0.25894 0.34044 0.0
C289 C 0.46317 0.27312 0.34348 0.0
C290 C 0.48529 0.19803 0.13987 0.0
C291 C 0.47155 0.18527 0.14145 0.0
C292 C 0.50219 0.19338 0.16133 0.0
C293 C 0.50491 0.17681 0.18809 0.0
C294 C 0.49076 0.16456 0.19402 0.0
C295 C 0.47428 0.16865 0.16787 0.0
C296 C 0.45142 0.2759 0.29672 0.0
H297 H 0.46052 0.28974 0.95844 0.0
H298 H 0.45494 0.26408 0.02126 0.0
H299 H 0.51159 0.25617 0.04137 0.0
H300 H 0.51733 0.28196 0.97835 0.0
H301 H 0.48958 0.22157 0.04681 0.0
H302 H 0.46979 0.26787 0.13717 0.0
H303 H 0.47167 0.21725 0.22379 0.0
H304 H 0.4443 0.2686 0.20987 0.0
H305 H 0.48713 0.23855 0.2883 0.0
H306 H 0.48492 0.25654 0.37493 0.0
H307 H 0.45827 0.18874 0.1267 0.0
H308 H 0.51286 0.20315 0.16196 0.0
H309 H 0.4416 0.28649 0.29804 0.0
H310 H 0.46305 0.15963 0.17192 0.0
H311 H 0.51784 0.17398 0.20702 0.0
Tb312 Tb 0.02058 0.99632 0.72578 0.0
Tb313 Tb 0.99503 0.0045 0.63322 0.0
C314 C 0.03451 0.98019 0.80855 0.0
C315 C 0.03263 0.96089 0.81885 0.0
C316 C 0.01561 0.95301 0.81587 0.0
C317 C 0.01383 0.93464 0.80983 0.0
C318 C 0.02899 0.92366 0.80744 0.0
C319 C 0.046 0.93142 0.81373 0.0
C320 C 0.0478 0.94991 0.81921 0.0
C321 C 0.03564 0.00784 0.62945 0.0
C322 C 0.00515 0.96477 0.64397 0.0
C323 C 0.98063 0.01919 0.54789 0.0
C324 C 0.98191 0.03797 0.53082 0.0
C325 C 0.9976 0.04743 0.54311 0.0
C326 C 0.998 0.06588 0.53833 0.0
C327 C 0.98285 0.07533 0.5196 0.0
C328 C 0.96738 0.0657 0.50437 0.0
C329 C 0.96688 0.04714 0.51051 0.0
C330 C 0.98005 0.99259 0.72919 0.0
C331 C 0.0104 0.03601 0.71607 0.0
O332 O 0.01988 0.98963 0.81401 0.0
O333 O 0.04339 0.9843 0.76149 0.0
O334 O 0.02254 0.9973 0.6334 0.0
O335 O 0.04124 0.0117 0.68119 0.0
O336 O 0.01328 0.96957 0.69251 0.0
O337 O 0.99772 0.9767 0.60961 0.0
O338 O 0.99552 0.01008 0.54428 0.0
O339 O 0.97232 0.01649 0.59701 0.0
O340 O 0.99301 1.0033 0.72545 0.0
O341 O 0.97442 0.98896 0.67738 0.0
O342 O 1.00268 0.03127 0.66657 0.0
O343 O 0.01747 0.02395 0.75083 0.0
H344 H 1.00361 0.96107 0.81436 0.0
H345 H 1.00055 0.92917 0.80438 0.0
H346 H 0.05792 0.92325 0.81323 0.0
H347 H 0.06105 0.9557 0.82073 0.0
H348 H 0.00939 0.04068 0.55921 0.0
H349 H 0.01003 0.07271 0.55182 0.0
H350 H 0.95558 0.07248 0.4886 0.0
H351 H 0.95461 0.04003 0.50121 0.0
Tb352 Tb 0.51112 0.0097 0.72414 0.0
Tb353 Tb 0.49974 0.98823 0.62356 0.0
C354 C 0.52668 0.02126 0.81264 0.0
C355 C 0.54441 0.02907 0.82365 0.0
C356 C 0.56016 0.01954 0.81175 0.0
C357 C 0.57681 0.02739 0.82106 0.0
C358 C 0.57804 0.04488 0.84257 0.0
C359 C 0.56226 0.05438 0.85433 0.0
C360 C 0.54561 0.04653 0.84508 0.0
C361 C 0.50099 0.02863 0.63302 0.0
C362 C 0.5405 0.99522 0.63237 0.0
C363 C 0.48168 0.97885 0.53812 0.0
C364 C 0.46429 0.98655 0.52188 0.0
C365 C 0.46164 0.00504 0.52679 0.0
C366 C 0.4446 0.01229 0.52259 0.0
C367 C 0.42975 1.00128 0.51293 0.0
C368 C 0.43243 0.98281 0.50595 0.0
C369 C 0.44958 0.97549 0.51078 0.0
C370 C 0.51008 0.96938 0.71388 0.0
C371 C 0.47109 1.00336 0.71336 0.0
O372 O 0.52621 0.00434 0.79845 0.0
O373 O 0.5159 0.03095 0.78105 0.0
O374 O 0.50996 0.01447 0.63284 0.0
O375 O 0.49828 0.0334 0.68623 0.0
O376 O 0.53694 1.00249 0.68365 0.0
O377 O 0.52761 0.98953 0.59785 0.0
O378 O 0.4954 0.98964 0.53392 0.0
O379 O 0.48164 0.97002 0.58705 0.0
O380 O 0.50089 0.98344 0.71467 0.0
O381 O 0.5128 0.96466 0.66049 0.0
O382 O 0.47498 1.00049 0.65813 0.0
O383 O 0.484 0.00439 0.75195 0.0
H384 H 0.55966 0.00601 0.79544 0.0
H385 H 0.58871 0.0196 0.81255 0.0
H386 H 0.56277 0.06794 0.87046 0.0
H387 H 0.53364 0.05413 0.85441 0.0
H388 H 0.47263 0.01393 0.53631 0.0
H389 H 0.44309 0.02657 0.52758 0.0
H390 H 0.42123 0.97397 0.49864 0.0
H391 H 0.45126 0.96116 0.50795 0.0
Tb392 Tb 0.49388 0.50503 0.72307 0.0
Tb393 Tb 0.52032 0.49553 0.63598 0.0
C394 C 0.47692 0.52122 0.80027 0.0
C395 C 0.46883 0.53904 0.79811 0.0
C396 C 0.47039 0.55035 0.84603 0.0
C397 C 0.46614 0.5684 0.84078 0.0
C398 C 0.46026 0.57537 0.7875 0.0
C399 C 0.4577 0.56382 0.74048 0.0
C400 C 0.46208 0.54578 0.74561 0.0
C401 C 0.47985 0.49269 0.62605 0.0
C402 C 0.50887 0.53506 0.63518 0.0
C403 C 0.53756 0.47909 0.55978 0.0
C404 C 0.54125 0.45986 0.55646 0.0
C405 C 0.53792 0.45065 0.50481 0.0
C406 C 0.53697 0.43204 0.50489 0.0
C407 C 0.53927 0.42243 0.55678 0.0
C408 C 0.54408 0.43163 0.60734 0.0
C409 C 0.54503 0.45019 0.60724 0.0
C410 C 0.53413 0.50808 0.73312 0.0
C411 C 0.50525 0.46586 0.72355 0.0
O412 O 0.49437 0.52125 0.79692 0.0
O413 O 0.46969 0.50909 0.767 0.0
O414 O 0.49298 0.50318 0.63017 0.0
O415 O 0.47376 0.48936 0.67748 0.0
O416 O 0.49995 0.53115 0.68316 0.0
O417 O 0.51701 0.52261 0.60461 0.0
O418 O 0.52071 0.48336 0.55408 0.0
O419 O 0.54513 0.48758 0.60263 0.0
O420 O 0.52121 0.49738 0.72875 0.0
O421 O 0.54012 0.51158 0.68171 0.0
O422 O 0.51141 0.46939 0.67093 0.0
O423 O 0.49997 0.47886 0.75791 0.0
H424 H 0.47574 0.54542 0.88662 0.0
H425 H 0.46802 0.57706 0.87784 0.0
H426 H 0.45329 0.56892 0.69893 0.0
H427 H 0.46105 0.53733 0.70769 0.0
H428 H 0.53482 0.45788 0.46539 0.0
H429 H 0.53306 0.42531 0.46537 0.0
H430 H 0.54607 0.42454 0.64777 0.0
H431 H 0.54754 0.45695 0.64789 0.0
Tb432 Tb 1.00121 0.48681 0.72259 0.0
Tb433 Tb 0.01184 0.51287 0.63803 0.0
C434 C 0.98356 0.46994 0.79674 0.0
C435 C 0.9653 0.46252 0.79272 0.0
C436 C 0.95124 0.47103 0.82199 0.0
C437 C 0.93363 0.46557 0.81343 0.0
C438 C 0.92972 0.45135 0.77592 0.0
C439 C 0.94376 0.4425 0.74772 0.0
C440 C 0.9614 0.44808 0.75579 0.0
C441 C 0.01263 0.47247 0.62441 0.0
C442 C 0.97191 0.50342 0.63583 0.0
C443 C 0.02924 0.53042 0.56469 0.0
C444 C 0.04849 0.53452 0.56469 0.0
C445 C 0.06107 0.52075 0.57087 0.0
C446 C 0.07888 0.52469 0.58209 0.0
C447 C 0.08459 0.54247 0.58699 0.0
C448 C 0.07225 0.5563 0.5779 0.0
C449 C 0.05428 0.55234 0.56715 0.0
C450 C 1.00006 0.52688 0.73628 0.0
C451 C 0.04094 0.49601 0.72411 0.0
O452 O 0.98456 0.48736 0.79569 0.0
O453 O 0.9958 0.4625 0.76423 0.0
O454 O 1.00277 0.48603 0.62939 0.0
O455 O 0.01596 0.46625 0.67558 0.0
O456 O 0.97539 0.4953 0.68552 0.0
O457 O 0.98499 0.51001 0.60397 0.0
O458 O 0.02482 0.51367 0.55738 0.0
O459 O 0.02024 0.5378 0.60678 0.0
O460 O 0.01027 0.51361 0.73111 0.0
O461 O 0.99631 0.53289 0.68512 0.0
O462 O 0.0376 0.50262 0.67198 0.0
O463 O 0.02765 0.49115 0.75816 0.0
H464 H 0.95384 0.48218 0.85062 0.0
H465 H 0.92306 0.4724 0.83656 0.0
H466 H 0.94106 0.43149 0.71864 0.0
H467 H 0.9719 0.44129 0.7322 0.0
H468 H 0.0571 0.50687 0.56914 0.0
H469 H 0.08822 0.51376 0.58727 0.0
H470 H 0.07639 0.57011 0.58081 0.0
H471 H 0.0448 0.56317 0.56289 0.0
H472 H 0.14427 0.99008 0.18893 0.0
H473 H 0.12019 0.98776 0.26133 0.0
H474 H 0.13548 0.03871 0.33206 0.0
H475 H 0.15933 0.04114 0.2602 0.0
H476 H 0.13114 0.01186 0.41635 0.0
H477 H 0.0994 0.0363 0.25156 0.0
H478 H 0.08886 0.03632 0.15035 0.0
H479 H 0.06208 0.98642 0.17888 0.0
H480 H 0.07268 0.98598 0.2801 0.0
H481 H 0.0623 0.03186 0.61123 0.0
H482 H 0.08323 0.03316 0.5299 0.0
H483 H 0.05645 0.98859 0.44972 0.0
H484 H 0.03492 0.98788 0.5299 0.0
H485 H 0.06661 0.00974 0.36839 0.0
H486 H 0.09688 0.98427 0.52978 0.0
H487 H 0.1077 0.98203 0.63041 0.0
H488 H 0.1379 0.03026 0.60826 0.0
H489 H 0.12706 0.03292 0.5077 0.0
C490 C 0.14242 1.0008 0.21979 0.0
C491 C 0.15364 0.01588 0.21835 0.0
C492 C 0.12862 0.99949 0.26099 0.0
C493 C 0.12596 0.01311 0.30206 0.0
C494 C 0.13722 0.02807 0.30081 0.0
C495 C 0.15078 0.02949 0.25932 0.0
C496 C 0.11181 0.01175 0.34749 0.0
C497 C 0.11702 0.01157 0.40589 0.0
C498 C 0.0934 0.01072 0.33394 0.0
C499 C 0.087 0.01101 0.27319 0.0
C500 C 0.0914 0.02525 0.2361 0.0
C501 C 0.08539 0.02535 0.17877 0.0
C502 C 0.07485 0.01135 0.15814 0.0
C503 C 0.07027 0.99724 0.19488 0.0
C504 C 0.07626 0.99706 0.25223 0.0
C505 C 0.06076 0.02248 0.57589 0.0
C506 C 0.04708 0.00968 0.57721 0.0
C507 C 0.07284 0.02311 0.52954 0.0
C508 C 0.07186 0.01062 0.48412 0.0
C509 C 0.05767 0.9983 0.48421 0.0
C510 C 0.04535 0.99789 0.53014 0.0
C511 C 0.08589 0.01017 0.43769 0.0
C512 C 0.08071 0.00994 0.37909 0.0
C513 C 0.1044 0.01046 0.45098 0.0
C514 C 0.11103 0.00887 0.51136 0.0
C515 C 0.10574 0.99446 0.54649 0.0
C516 C 0.11189 0.99311 0.6035 0.0
C517 C 0.12345 0.00602 0.62576 0.0
C518 C 0.12893 0.02028 0.59098 0.0
C519 C 0.1228 0.02171 0.53396 0.0
H520 H 0.12819 0.00495 0.66991 0.0
H521 H 0.0702 0.01146 0.11375 0.0
H522 H 0.50644 0.163 0.30073 0.0
H523 H 0.50744 0.13794 0.36803 0.0
H524 H 0.4796 0.1051 0.24415 0.0
H525 H 0.47832 0.13037 0.17663 0.0
H526 H 0.46598 0.09965 0.34727 0.0
H527 H 0.52552 0.1004 0.27155 0.0
H528 H 0.55457 0.11369 0.24532 0.0
H529 H 0.5641 0.12681 0.42372 0.0
H530 H 0.53501 0.11381 0.45092 0.0
H531 H 0.51574 0.02521 0.5254 0.0
H532 H 0.51271 0.04557 0.44277 0.0
H533 H 0.47632 0.07821 0.5415 0.0
H534 H 0.47954 0.058 0.62468 0.0
H535 H 0.5223 0.08095 0.44256 0.0
H536 H 0.44647 0.0965 0.44586 0.0
H537 H 0.41763 0.0811 0.46016 0.0
H538 H 0.44163 0.03139 0.41061 0.0
H539 H 0.47064 0.04641 0.39701 0.0
C540 C 0.50081 0.15037 0.28721 0.0
C541 C 0.49249 0.14868 0.23282 0.0
C542 C 0.50135 0.13601 0.32596 0.0
C543 C 0.49381 0.11946 0.31112 0.0
C544 C 0.48552 0.11769 0.25678 0.0
C545 C 0.48483 0.13214 0.2181 0.0
C546 C 0.49435 0.10419 0.35284 0.0
C547 C 0.47831 0.09558 0.36801 0.0
C548 C 0.51046 0.09852 0.37936 0.0
C549 C 0.52802 0.10625 0.36318 0.0
C550 C 0.53377 0.10622 0.30513 0.0
C551 C 0.55025 0.11369 0.2901 0.0
C552 C 0.56116 0.12112 0.3328 0.0
C553 C 0.55563 0.12106 0.39067 0.0
C554 C 0.53916 0.11362 0.40593 0.0
C555 C 0.50697 0.03664 0.5293 0.0
C556 C 0.49801 0.04013 0.58165 0.0
C557 C 0.50524 0.04826 0.48205 0.0
C558 C 0.49426 0.06341 0.48578 0.0
C559 C 0.48476 0.06654 0.53737 0.0
C560 C 0.48669 0.05506 0.58498 0.0
C561 C 0.49391 0.07671 0.43773 0.0
C562 C 0.50998 0.08501 0.42165 0.0
C563 C 0.47791 0.08184 0.40967 0.0
C564 C 0.46076 0.07257 0.42098 0.0
C565 C 0.44561 0.08226 0.43848 0.0
C566 C 0.42924 0.07359 0.4466 0.0
C567 C 0.42783 0.05526 0.43668 0.0
C568 C 0.44279 0.04555 0.41886 0.0
C569 C 0.45922 0.05411 0.41139 0.0
H570 H 0.41512 0.0486 0.44247 0.0
H571 H 0.57391 0.1269 0.32108 0.0
H572 H 0.35298 0.51101 0.2749 0.0
H573 H 0.37854 0.51012 0.33998 0.0
H574 H 0.40133 0.46706 0.24035 0.0
H575 H 0.3752 0.46748 0.17605 0.0
H576 H 0.40622 0.45982 0.34681 0.0
H577 H 0.41807 0.51192 0.23645 0.0
H578 H 0.41189 0.54095 0.19027 0.0
H579 H 0.40258 0.56446 0.35722 0.0
H580 H 0.40846 0.53551 0.40438 0.0
H581 H 0.48699 0.50471 0.51605 0.0
H582 H 0.46781 0.50225 0.43022 0.0
H583 H 0.42907 0.47283 0.53067 0.0
H584 H 0.44833 0.47489 0.61568 0.0
H585 H 0.43662 0.51529 0.4098 0.0
H586 H 0.40477 0.44492 0.44761 0.0
H587 H 0.41386 0.41536 0.48424 0.0
H588 H 0.46868 0.42737 0.44591 0.0
H589 H 0.45991 0.45686 0.40813 0.0
C590 C 0.36356 0.50153 0.26619 0.0
C591 C 0.36216 0.48949 0.21967 0.0
C592 C 0.37825 0.50104 0.30353 0.0
C593 C 0.39221 0.48878 0.29472 0.0
C594 C 0.39085 0.47671 0.2482 0.0
C595 C 0.37594 0.47699 0.21128 0.0
C596 C 0.40782 0.48831 0.33533 0.0
C597 C 0.4129 0.47196 0.36032 0.0
C598 C 0.41705 0.50401 0.35205 0.0
C599 C 0.4136 0.5215 0.32391 0.0
C600 C 0.4146 0.52325 0.2633 0.0
C601 C 0.41116 0.5397 0.23695 0.0
C602 C 0.40682 0.55453 0.27079 0.0
C603 C 0.40594 0.55296 0.33107 0.0
C604 C 0.40936 0.53654 0.35763 0.0
C605 C 0.4745 0.49749 0.51946 0.0
C606 C 0.46917 0.49 0.57262 0.0
C607 C 0.4635 0.49614 0.47044 0.0
C608 C 0.44698 0.48722 0.47351 0.0
C609 C 0.44185 0.47948 0.52651 0.0
C610 C 0.45285 0.48076 0.57533 0.0
C611 C 0.43457 0.48691 0.42272 0.0
C612 C 0.43007 0.50312 0.39588 0.0
C613 C 0.4263 0.471 0.40309 0.0
C614 C 0.43167 0.4532 0.42548 0.0
C615 C 0.41876 0.44123 0.44673 0.0
C616 C 0.42386 0.42448 0.46774 0.0
C617 C 0.44184 0.41951 0.46756 0.0
C618 C 0.45476 0.43126 0.44622 0.0
C619 C 0.44973 0.44801 0.42507 0.0
H620 H 0.44577 0.40655 0.48387 0.0
H621 H 0.40415 0.56725 0.2503 0.0
H622 H 0.03731 0.34797 0.25053 0.0
H623 H 0.03759 0.37159 0.3231 0.0
H624 H 0.99548 0.39896 0.23208 0.0
H625 H 0.99533 0.37541 0.15816 0.0
H626 H 0.02144 0.42252 0.27611 0.0
H627 H 0.98498 0.3744 0.34585 0.0
H628 H 0.97812 0.34309 0.37004 0.0
H629 H 0.02136 0.34221 0.49203 0.0
H630 H 0.02866 0.37345 0.46789 0.0
H631 H 0.99634 0.4774 0.51887 0.0
H632 H 0.99725 0.45744 0.43469 0.0
H633 H 0.03397 0.42294 0.52525 0.0
H634 H 0.03268 0.44257 0.6097 0.0
H635 H 0.00942 0.4035 0.47843 0.0
H636 H 0.04652 0.45115 0.40868 0.0
H637 H 0.05401 0.48231 0.38446 0.0
H638 H 0.01056 0.48416 0.26333 0.0
H639 H 1.00265 0.45307 0.28746 0.0
C640 C 0.02838 0.35919 0.24488 0.0
C641 C 0.01631 0.35971 0.1981 0.0
C642 C 0.02843 0.37264 0.28695 0.0
C643 C 0.0164 0.38699 0.28365 0.0
C644 C 0.00485 0.38801 0.23578 0.0
C645 C 0.00472 0.37447 0.19367 0.0
C646 C 0.01533 0.40029 0.33182 0.0
C647 C 0.01858 0.41841 0.32026 0.0
C648 C 0.01192 0.39496 0.38971 0.0
C649 C 0.00747 0.37621 0.40466 0.0
C650 C 0.99311 0.36749 0.37751 0.0
C651 C 0.98913 0.34976 0.39126 0.0
C652 C 0.99932 0.34065 0.43244 0.0
C653 C 0.01349 0.34928 0.46008 0.0
C654 C 0.01755 0.367 0.44641 0.0
C655 C 0.00475 0.46566 0.52048 0.0
C656 C 0.01442 0.46154 0.57099 0.0
C657 C 0.00531 0.45425 0.47221 0.0
C658 C 0.01577 0.43862 0.4731 0.0
C659 C 0.02573 0.4348 0.52323 0.0
C660 C 0.02505 0.44609 0.57151 0.0
C661 C 0.01584 0.42581 0.42321 0.0
C662 C 0.01231 0.4077 0.43439 0.0
C663 C 0.01909 0.43119 0.36515 0.0
C664 C 0.02388 0.44984 0.35033 0.0
C665 C 0.03848 0.45824 0.3772 0.0
C666 C 0.04282 0.47589 0.36344 0.0
C667 C 0.03274 0.48522 0.32249 0.0
C668 C 0.01834 0.47692 0.2951 0.0
C669 C 0.01393 0.45928 0.30878 0.0
H670 H 0.03612 0.49888 0.3119 0.0
H671 H 0.99622 0.32693 0.44303 0.0
H672 H 0.84955 0.96264 0.07252 0.0
H673 H 0.87591 0.96246 0.01055 0.0
H674 H 0.89601 0.00911 0.09819 0.0
H675 H 0.8691 0.0101 0.15775 0.0
H676 H 0.89988 0.01407 0.98981 0.0
H677 H 0.91511 0.96561 0.11305 0.0
H678 H 0.91103 0.93726 0.1657 0.0
H679 H 0.90451 0.9095 0.00445 0.0
H680 H 0.9083 0.93773 0.9508 0.0
H681 H 0.98248 0.00991 0.83368 0.0
H682 H 0.96156 0.00797 0.9156 0.0
H683 H 0.9314 0.96778 0.8247 0.0
H684 H 0.95215 0.96976 0.74283 0.0
H685 H 0.93513 0.96002 0.94213 0.0
H686 H 0.91867 0.01031 0.82136 0.0
H687 H 0.92386 0.0391 0.77236 0.0
H688 H 0.9342 0.064 0.93644 0.0
H689 H 0.92952 0.03525 0.98629 0.0
C690 C 0.85954 0.9729 0.07881 0.0
C691 C 0.85699 0.98645 0.12031 0.0
C692 C 0.87482 0.97263 0.04366 0.0
C693 C 0.88819 0.98567 0.04972 0.0
C694 C 0.88597 0.99886 0.09242 0.0
C695 C 0.8706 0.99926 0.12716 0.0
C696 C 0.90384 0.98621 0.00918 0.0
C697 C 0.90779 1.0023 0.98046 0.0
C698 C 0.91414 0.97086 0.99587 0.0
C699 C 0.91184 0.95383 0.02792 0.0
C700 C 0.91267 0.95349 0.08881 0.0
C701 C 0.91043 0.93743 0.11884 0.0
C702 C 0.90748 0.9216 0.08845 0.0
C703 C 0.90679 0.92178 0.02794 0.0
C704 C 0.909 0.9378 0.99769 0.0
C705 C 0.97151 1.0005 0.83156 0.0
C706 C 0.96886 0.99008 0.78167 0.0
C707 C 0.95953 0.99945 0.87829 0.0
C708 C 0.94477 0.98786 0.87612 0.0
C709 C 0.94265 0.97684 0.82743 0.0
C710 C 0.95449 0.97802 0.78057 0.0
C711 C 0.93096 0.98779 0.92285 0.0
C712 C 0.92733 0.9718 0.95239 0.0
C713 C 0.92114 1.00329 0.93758 0.0
C714 C 0.92398 0.02056 0.90749 0.0
C715 C 0.92225 0.02188 0.84693 0.0
C716 C 0.92509 0.0382 0.819 0.0
C717 C 0.92944 0.05335 0.85124 0.0
C718 C 0.93089 0.05223 0.9115 0.0
C719 C 0.92819 0.03592 0.9396 0.0
H720 H 0.93163 0.06598 0.82955 0.0
H721 H 0.90575 0.90918 0.11178 0.0
H722 H 0.49749 0.8601 0.14506 0.0
H723 H 0.49687 0.88583 0.0807 0.0
H724 H 0.54829 0.87098 0.01155 0.0
H725 H 0.54969 0.84598 0.07908 0.0
H726 H 0.54654 0.90522 0.01132 0.0
H727 H 0.50734 0.85926 0.9447 0.0
H728 H 0.48279 0.8374 0.95084 0.0
H729 H 0.44538 0.87971 0.98259 0.0
H730 H 0.46976 0.90181 0.97742 0.0
H731 H 0.533 0.94127 0.72291 0.0
H732 H 0.53651 0.92079 0.80534 0.0
H733 H 0.49645 0.94999 0.90032 0.0
H734 H 0.49329 0.97083 0.81884 0.0
H735 H 0.49226 0.90985 0.88905 0.0
H736 H 0.53355 0.95591 0.94684 0.0
H737 H 0.55901 0.9762 0.93086 0.0
H738 H 0.59369 0.93129 0.90475 0.0
H739 H 0.56835 0.91073 0.91945 0.0
C740 C 0.50897 0.86253 0.11762 0.0
C741 C 0.52354 0.85064 0.11705 0.0
C742 C 0.50845 0.87718 0.07994 0.0
C743 C 0.52225 0.8801 0.03967 0.0
C744 C 0.53732 0.86895 0.04151 0.0
C745 C 0.53801 0.85448 0.0799 0.0
C746 C 0.52055 0.89406 0.99367 0.0
C747 C 0.5347 0.9061 0.98443 0.0
C748 C 0.50511 0.8954 0.95832 0.0
C749 C 0.4904 0.88216 0.96132 0.0
C750 C 0.49389 0.86388 0.95341 0.0
C751 C 0.48001 0.85146 0.95666 0.0
C752 C 0.46254 0.85716 0.96727 0.0
C753 C 0.45892 0.87531 0.97449 0.0
C754 C 0.47276 0.88779 0.97138 0.0
C755 C 0.52508 0.9434 0.76161 0.0
C756 C 0.51287 0.9576 0.76453 0.0
C757 C 0.5271 0.93172 0.8086 0.0
C758 C 0.51673 0.93388 0.85884 0.0
C759 C 0.50458 0.94811 0.86192 0.0
C760 C 0.50283 0.96001 0.81546 0.0
C761 C 0.51813 0.9209 0.90729 0.0
C762 C 0.50398 0.909 0.91654 0.0
C763 C 0.53369 0.91946 0.94161 0.0
C764 C 0.549 0.93178 0.93366 0.0
C765 C 0.54657 0.95036 0.93715 0.0
C766 C 0.56099 0.96191 0.92842 0.0
C767 C 0.57795 0.95504 0.91667 0.0
C768 C 0.58054 0.93659 0.91379 0.0
C769 C 0.56615 0.92499 0.92235 0.0
H770 H 0.5891 0.964 0.90991 0.0
H771 H 0.45181 0.84751 0.96976 0.0
H772 H 0.66703 0.52293 0.06667 0.0
H773 H 0.64104 0.52556 0.00392 0.0
H774 H 0.60971 0.49515 0.12593 0.0
H775 H 0.63578 0.49252 0.18949 0.0
H776 H 0.60463 0.48288 0.01904 0.0
H777 H 0.60269 0.54031 0.10674 0.0
H778 H 0.61434 0.56931 0.13998 0.0
H779 H 0.62701 0.58371 0.96453 0.0
H780 H 0.61566 0.55469 0.93027 0.0
H781 H 0.52741 0.4955 0.84277 0.0
H782 H 0.54722 0.49709 0.92732 0.0
H783 H 0.58547 0.5271 0.82674 0.0
H784 H 0.56558 0.52593 0.74302 0.0
H785 H 0.58394 0.53998 0.93348 0.0
H786 H 0.58898 0.48097 0.84852 0.0
H787 H 0.57652 0.45232 0.81503 0.0
H788 H 0.55741 0.44118 0.98684 0.0
H789 H 0.56956 0.4699 0.02117 0.0
C790 C 0.65453 0.51716 0.08111 0.0
C791 C 0.65356 0.50759 0.13358 0.0
C792 C 0.63963 0.51863 0.04488 0.0
C793 C 0.62328 0.5107 0.06022 0.0
C794 C 0.62215 0.50138 0.11299 0.0
C795 C 0.63709 0.49988 0.14932 0.0
C796 C 0.60775 0.51146 0.0197 0.0
C797 C 0.59989 0.49541 1.00125 0.0
C798 C 0.60163 0.52775 0.99562 0.0
C799 C 0.60844 0.54526 0.01599 0.0
C800 C 0.60808 0.54961 0.07527 0.0
C801 C 0.61461 0.56606 0.09429 0.0
C802 C 0.62144 0.57833 0.0544 0.0
C803 C 0.62172 0.57419 0.99538 0.0
C804 C 0.61522 0.55775 0.97613 0.0
C805 C 0.53995 0.50263 0.83906 0.0
C806 C 0.54502 0.51046 0.78614 0.0
C807 C 0.55131 0.50345 0.88728 0.0
C808 C 0.56804 0.51195 0.88327 0.0
C809 C 0.5727 0.52042 0.83107 0.0
C810 C 0.56133 0.51969 0.7831 0.0
C811 C 0.58113 0.51141 0.93202 0.0
C812 C 0.58854 0.52749 0.95192 0.0
C813 C 0.58682 0.49515 0.95747 0.0
C814 C 0.58002 0.47765 0.93727 0.0
C815 C 0.58207 0.47244 0.8791 0.0
C816 C 0.57505 0.45619 0.85996 0.0
C817 C 0.56613 0.44496 0.89874 0.0
C818 C 0.56429 0.44991 0.95683 0.0
C819 C 0.57125 0.46616 0.97616 0.0
H820 H 0.56066 0.43242 0.88381 0.0
H821 H 0.6265 0.59106 0.06922 0.0
H822 H 0.01551 0.62742 0.19634 0.0
H823 H 0.01519 0.60245 0.12789 0.0
H824 H 0.97579 0.62979 0.02455 0.0
H825 H 0.97602 0.65465 0.09245 0.0
H826 H 0.96783 0.59564 0.02864 0.0
H827 H 0.02117 0.62946 0.98927 0.0
H828 H 0.04997 0.64363 0.01286 0.0
H829 H 0.07162 0.59272 0.06139 0.0
H830 H 0.04284 0.57828 0.0388 0.0
H831 H 0.97972 0.55662 0.75107 0.0
H832 H 0.97833 0.57623 0.83564 0.0
H833 H 0.01498 0.54179 0.92656 0.0
H834 H 0.01642 0.52207 0.84163 0.0
H835 H 0.02459 0.57691 0.93582 0.0
H836 H 0.97142 0.54287 0.96495 0.0
H837 H 0.94266 0.52927 0.93761 0.0
H838 H 0.92065 0.58121 0.90501 0.0
H839 H 0.94937 0.59512 0.9313 0.0
C840 C 0.00671 0.62809 0.15919 0.0
C841 C 0.99577 0.64313 0.15026 0.0
C842 C 0.00656 0.61379 0.11992 0.0
C843 C 0.99564 0.61425 0.07034 0.0
C844 C 0.98432 0.62899 0.06237 0.0
C845 C 0.9844 0.64323 0.10163 0.0
C846 C 0.99628 0.59977 0.0257 0.0
C847 C 0.98024 0.59166 0.00811 0.0
C848 C 0.01249 0.59417 0.9995 0.0
C849 C 0.02979 0.60282 0.01302 0.0
C850 C 0.03203 0.62131 0.00542 0.0
C851 C 0.04835 0.62939 0.01853 0.0
C852 C 0.0626 0.61909 0.03879 0.0
C853 C 0.06056 0.60069 0.04581 0.0
C854 C 0.04425 0.59254 0.03285 0.0
C855 C 0.98734 0.55311 0.7893 0.0
C856 C 0.99816 0.53779 0.78967 0.0
C857 C 0.9865 0.56432 0.83775 0.0
C858 C 0.99646 0.56048 0.88785 0.0
C859 C 0.00715 0.54505 0.88855 0.0
C860 C 0.0079 0.53374 0.8401 0.0
C861 C 0.99613 0.57298 0.93834 0.0
C862 C 0.01221 0.58073 0.95688 0.0
C863 C 0.97995 0.57834 0.96512 0.0
C864 C 0.96261 0.57003 0.94969 0.0
C865 C 0.96049 0.55139 0.95155 0.0
C866 C 0.94419 0.54362 0.9363 0.0
C867 C 0.92985 0.55437 0.91948 0.0
C868 C 0.93177 0.5729 0.91801 0.0
C869 C 0.94806 0.58074 0.93315 0.0
H870 H 0.91724 0.54833 0.90768 0.0
H871 H 0.07523 0.62537 0.0489 0.0
H872 H 0.02298 0.23477 0.4305 0.0
H873 H 0.01788 0.20993 0.49693 0.0
H874 H 0.96175 0.21092 0.45644 0.0
H875 H 0.96672 0.23534 0.38886 0.0
H876 H 0.97678 0.1923 0.57709 0.0
H877 H 0.97491 0.1905 0.35889 0.0
H878 H 0.9865 0.20012 0.2636 0.0
H879 H 0.03973 0.18619 0.3159 0.0
H880 H 0.02842 0.17671 0.4118 0.0
H881 H 0.95545 0.09893 0.54197 0.0
H882 H 0.9566 0.13148 0.53788 0.0
H883 H 0.01269 0.12897 0.49521 0.0
H884 H 0.01124 0.09677 0.49268 0.0
H885 H 0.99699 0.14976 0.42584 0.0
H886 H 0.9927 0.1391 0.63117 0.0
H887 H 0.97812 0.1281 0.72007 0.0
H888 H 0.93533 0.16538 0.6967 0.0
H889 H 0.94887 0.17583 0.60554 0.0
C890 C 0.00942 0.23022 0.43766 0.0
C891 C 0.99537 0.23648 0.40278 0.0
C892 C 0.00649 0.21623 0.4764 0.0
C893 C 0.9895 0.20848 0.48056 0.0
C894 C 0.97494 0.21681 0.45381 0.0
C895 C 0.97786 0.23074 0.41475 0.0
C896 C 0.98831 0.18923 0.49236 0.0
C897 C 0.98113 0.18283 0.5445 0.0
C898 C 0.99401 0.17712 0.44941 0.0
C899 C 1.00088 0.1831 0.39241 0.0
C900 C 0.9891 0.18962 0.35009 0.0
C901 C 0.99559 0.19499 0.29598 0.0
C902 C 0.01383 0.19369 0.28361 0.0
C903 C 0.02561 0.18714 0.32548 0.0
C904 C 0.01917 0.1818 0.37972 0.0
C905 C 0.96795 0.1053 0.53064 0.0
C906 C 0.98326 0.09512 0.51764 0.0
C907 C 0.96866 0.12393 0.52957 0.0
C908 C 0.98481 0.13266 0.51732 0.0
C909 C 1.0001 0.12252 0.50523 0.0
C910 C 0.99928 0.10403 0.5044 0.0
C911 C 0.98575 0.15228 0.51167 0.0
C912 C 0.99279 0.15891 0.45966 0.0
C913 C 0.97972 0.16434 0.55498 0.0
C914 C 0.97176 0.15814 0.61068 0.0
C915 C 0.98001 0.14477 0.64418 0.0
C916 C 0.97194 0.13863 0.69513 0.0
C917 C 0.95591 0.1461 0.71416 0.0
C918 C 0.94778 0.15962 0.68197 0.0
C919 C 0.95559 0.16558 0.63042 0.0
H920 H 0.94978 0.1414 0.75385 0.0
H921 H 0.01884 0.19787 0.24173 0.0
H922 H 0.27598 0.06978 0.38844 0.0
H923 H 0.30025 0.0655 0.45794 0.0
H924 H 0.33838 0.06523 0.31771 0.0
H925 H 0.31437 0.06886 0.24821 0.0
H926 H 0.31879 0.03437 0.4506 0.0
H927 H 0.37959 0.07652 0.36859 0.0
H928 H 0.38557 0.10699 0.33345 0.0
H929 H 0.33884 0.1261 0.42173 0.0
H930 H 0.33272 0.09581 0.45831 0.0
H931 H 0.40294 0.99314 0.43711 0.0
H932 H 0.3745 0.00863 0.4251 0.0
H933 H 0.38737 0.04334 0.56798 0.0
H934 H 0.41575 0.02772 0.58099 0.0
H935 H 0.37911 0.06132 0.46544 0.0
H936 H 0.3463 0.01985 0.59226 0.0
H937 H 0.33882 0.98993 0.63037 0.0
H938 H 0.32893 0.97133 0.45739 0.0
H939 H 0.33601 1.00125 0.4186 0.0
C940 C 0.28958 0.06923 0.37252 0.0
C941 C 0.29316 0.06929 0.3126 0.0
C942 C 0.30343 0.0669 0.41234 0.0
C943 C 0.32107 0.06496 0.39291 0.0
C944 C 0.32487 0.06691 0.33372 0.0
C945 C 0.31105 0.06904 0.29389 0.0
C946 C 0.33492 0.05753 0.43164 0.0
C947 C 0.33186 0.04048 0.45488 0.0
C948 C 0.35195 0.06549 0.43748 0.0
C949 C 0.35563 0.08381 0.41595 0.0
C950 C 0.37063 0.08722 0.38085 0.0
C951 C 0.37404 0.10447 0.3606 0.0
C952 C 0.36257 0.11847 0.37523 0.0
C953 C 0.34768 0.11524 0.41026 0.0
C954 C 0.34422 0.09802 0.43069 0.0
C955 C 0.39953 0.00374 0.46698 0.0
C956 C 0.41166 0.00927 0.50973 0.0
C957 C 0.38325 0.01256 0.46017 0.0
C958 C 0.37881 0.02702 0.49601 0.0
C959 C 0.39055 0.03216 0.54012 0.0
C960 C 0.4068 0.02329 0.54715 0.0
C961 C 0.36303 0.03804 0.48205 0.0
C962 C 0.36582 0.05561 0.4629 0.0
C963 C 0.34573 0.03067 0.47997 0.0
C964 C 0.34185 0.01264 0.50266 0.0
C965 C 0.34261 0.00932 0.56247 0.0
C966 C 0.33833 0.99242 0.58418 0.0
C967 C 0.33351 0.97872 0.54629 0.0
C968 C 0.33273 0.98194 0.48668 0.0
C969 C 0.33676 0.99888 0.46486 0.0
H970 H 0.33032 0.96562 0.56315 0.0
H971 H 0.36523 0.13181 0.35948 0.0
H972 H 0.47055 0.26725 0.45894 0.0
H973 H 0.4807 0.28959 0.52888 0.0
H974 H 0.46958 0.3313 0.40522 0.0
H975 H 0.46009 0.30929 0.3349 0.0
H976 H 0.50975 0.3099 0.50703 0.0
H977 H 0.46026 0.3696 0.47203 0.0
H978 H 0.42781 0.37444 0.46425 0.0
H979 H 0.41805 0.32538 0.55517 0.0
H980 H 0.45045 0.32038 0.5645 0.0
H981 H 0.54705 0.39547 0.48063 0.0
H982 H 0.53293 0.36604 0.47702 0.0
H983 H 0.5044 0.37762 0.63495 0.0
H984 H 0.51851 0.40694 0.639 0.0
H985 H 0.48229 0.36837 0.55332 0.0
H986 H 0.53476 0.34527 0.63272 0.0
H987 H 0.56682 0.33978 0.64752 0.0
H988 H 0.57033 0.31506 0.48014 0.0
H989 H 0.53829 0.32054 0.46393 0.0
C990 C 0.46997 0.28121 0.44704 0.0
C991 C 0.46473 0.28642 0.39089 0.0
C992 C 0.47568 0.29394 0.48718 0.0
C993 C 0.47589 0.31206 0.47217 0.0
C994 C 0.46927 0.31739 0.41804 0.0
C995 C 0.46375 0.30472 0.37779 0.0
C996 C 0.48541 0.32524 0.50831 0.0
C997 C 0.50375 0.32263 0.5179 0.0
C998 C 0.4774 0.34159 0.52405 0.0
C999 C 0.45784 0.34456 0.5187 0.0
C1000 C 0.45122 0.35988 0.49071 0.0
C1001 C 0.43281 0.36265 0.48596 0.0
C1002 C 0.42087 0.35021 0.50909 0.0
C1003 C 0.42731 0.33498 0.53711 0.0
C1004 C 0.4457 0.33216 0.54207 0.0
C1005 C 0.53812 0.39153 0.51533 0.0
C1006 C 0.53383 0.40349 0.56001 0.0
C1007 C 0.53016 0.3747 0.5135 0.0
C1008 C 0.51774 0.36965 0.55616 0.0
C1009 C 0.51414 0.38122 0.60228 0.0
C1010 C 0.52224 0.39793 0.60449 0.0
C1011 C 0.50683 0.35344 0.54817 0.0
C1012 C 0.48826 0.35552 0.5438 0.0
C1013 C 0.51463 0.33657 0.5379 0.0
C1014 C 0.53401 0.33332 0.54711 0.0
C1015 C 0.54234 0.33873 0.59886 0.0
C1016 C 0.56054 0.3356 0.60756 0.0
C1017 C 0.57061 0.32707 0.5648 0.0
C1018 C 0.5625 0.32164 0.51328 0.0
C1019 C 0.54429 0.32471 0.50439 0.0
H1020 H 0.58471 0.32468 0.57159 0.0
H1021 H 0.40663 0.35237 0.50534 0.0
H1022 H 0.23057 0.54372 0.38898 0.0
H1023 H 0.20916 0.55232 0.46334 0.0
H1024 H 0.21244 0.49958 0.5382 0.0
H1025 H 0.23336 0.49074 0.46174 0.0
H1026 H 0.18041 0.50599 0.51519 0.0
H1027 H 0.22334 0.53903 0.61743 0.0
H1028 H 0.24845 0.55965 0.63407 0.0
H1029 H 0.21726 0.60318 0.56783 0.0
H1030 H 0.19204 0.58278 0.54995 0.0
H1031 H 0.10547 0.52725 0.67003 0.0
H1032 H 0.13813 0.52659 0.67041 0.0
H1033 H 0.13925 0.56513 0.53184 0.0
H1034 H 0.10659 0.56578 0.53072 0.0
H1035 H 0.17143 0.56421 0.61329 0.0
H1036 H 0.13273 0.52674 0.48851 0.0
H1037 H 0.10731 0.50603 0.47901 0.0
H1038 H 0.13234 0.46971 0.59785 0.0
H1039 H 0.1579 0.49028 0.60793 0.0
C1040 C 0.22716 0.53416 0.42244 0.0
C1041 C 0.23342 0.51655 0.41953 0.0
C1042 C 0.215 0.53912 0.46532 0.0
C1043 C 0.20919 0.52664 0.50674 0.0
C1044 C 0.21667 0.50943 0.50664 0.0
C1045 C 0.22857 0.50437 0.46303 0.0
C1046 C 0.1931 0.53051 0.5421 0.0
C1047 C 0.17877 0.5185 0.53815 0.0
C1048 C 0.19068 0.54693 0.57155 0.0
C1049 C 0.2058 0.55932 0.58206 0.0
C1050 C 0.22187 0.55297 0.60596 0.0
C1051 C 0.23612 0.56463 0.61572 0.0
C1052 C 0.23446 0.58271 0.60195 0.0
C1053 C 0.21852 0.58917 0.5785 0.0
C1054 C 0.20423 0.57757 0.56866 0.0
C1055 C 0.11271 0.53604 0.64103 0.0
C1056 C 0.1036 0.54617 0.59912 0.0
C1057 C 0.13131 0.53581 0.6419 0.0
C1058 C 0.14097 0.54559 0.60068 0.0
C1059 C 0.13196 0.55753 0.5641 0.0
C1060 C 0.11331 0.5578 0.56322 0.0
C1061 C 0.15914 0.53985 0.58488 0.0
C1062 C 0.17357 0.55152 0.59187 0.0
C1063 C 0.16185 0.523 0.55888 0.0
C1064 C 0.14701 0.5102 0.55001 0.0
C1065 C 0.13276 0.51438 0.51279 0.0
C1066 C 0.11835 0.50265 0.50715 0.0
C1067 C 0.11815 0.48661 0.53809 0.0
C1068 C 0.13246 0.48218 0.57416 0.0
C1069 C 0.14691 0.49386 0.57984 0.0
H1070 H 0.10694 0.47759 0.53392 0.0
H1071 H 0.24551 0.59171 0.60952 0.0
H1072 H 0.98615 0.78397 0.96338 0.0
H1073 H 0.9894 0.80604 0.88712 0.0
H1074 H 0.0392 0.78177 0.8345 0.0
H1075 H 0.03635 0.76017 0.91385 0.0
H1076 H 0.04521 0.81358 0.85433 0.0
H1077 H 1.0012 0.7867 0.74263 0.0
H1078 H 0.97324 0.77175 0.71479 0.0
H1079 H 0.94333 0.81836 0.76226 0.0
H1080 H 0.97101 0.83353 0.79143 0.0
H1081 H 0.04963 0.90172 0.7396 0.0
H1082 H 0.04706 0.8693 0.7294 0.0
H1083 H 1.00067 0.86962 0.84042 0.0
H1084 H 1.00353 0.90168 0.85282 0.0
H1085 H 0.99755 0.84555 0.74745 0.0
H1086 H 0.04119 0.86419 0.89594 0.0
H1087 H 0.06907 0.87908 0.92587 0.0
H1088 H 0.09898 0.84638 0.80782 0.0
H1089 H 0.07122 0.83142 0.77685 0.0
C1090 C 0.99746 0.78298 0.93424 0.0
C1091 C 0.01107 0.77054 0.94447 0.0
C1092 C 0.99927 0.79553 0.89012 0.0
C1093 C 0.01452 0.79557 0.85446 0.0
C1094 C 0.02735 0.78205 0.86147 0.0
C1095 C 0.02574 0.76973 0.90665 0.0
C1096 C 0.01855 0.81162 0.81911 0.0
C1097 C 0.03494 0.8202 0.8291 0.0
C1098 C 0.00522 0.82043 0.7862 0.0
C1099 C 0.98834 0.81134 0.76907 0.0
C1100 C 0.98867 0.79377 0.74757 0.0
C1101 C 0.97284 0.78524 0.73144 0.0
C1102 C 0.95652 0.79411 0.73665 0.0
C1103 C 0.95599 0.81152 0.75803 0.0
C1104 C 0.97179 0.82012 0.77418 0.0
C1105 C 0.0389 0.89485 0.76186 0.0
C1106 C 0.02693 0.90424 0.79772 0.0
C1107 C 0.03727 0.8764 0.7551 0.0
C1108 C 0.0236 0.86714 0.78381 0.0
C1109 C 0.01116 0.87659 0.81721 0.0
C1110 C 0.01287 0.89493 0.82446 0.0
C1111 C 0.02344 0.84748 0.78692 0.0
C1112 C 0.00789 0.83837 0.77064 0.0
C1113 C 0.03746 0.83809 0.81417 0.0
C1114 C 0.05412 0.84697 0.8332 0.0
C1115 C 0.0537 0.86031 0.876 0.0
C1116 C 0.06947 0.86873 0.89324 0.0
C1117 C 0.08577 0.86375 0.86851 0.0
C1118 C 0.08634 0.85028 0.8267 0.0
C1119 C 0.07058 0.84185 0.80923 0.0
H1120 H 0.09798 0.87028 0.88193 0.0
H1121 H 0.94428 0.78748 0.72417 0.0
H1122 H 0.71721 0.08726 0.10567 0.0
H1123 H 0.69025 0.0928 0.0511 0.0
H1124 H 0.71488 0.07125 0.89751 0.0
H1125 H 0.74274 0.06705 0.95056 0.0
H1126 H 0.68585 0.0936 0.87113 0.0
H1127 H 0.69906 0.04253 0.98789 0.0
H1128 H 0.70956 0.02733 0.07631 0.0
H1129 H 0.66669 0.05082 0.17368 0.0
H1130 H 0.65618 0.0665 0.08597 0.0
H1131 H 0.60868 0.04298 0.77749 0.0
H1132 H 0.63846 0.05369 0.80419 0.0
H1133 H 0.61699 0.07569 0.96231 0.0
H1134 H 0.58742 0.06457 0.93701 0.0
H1135 H 0.6451 0.05352 0.9805 0.0
H1136 H 0.63097 0.10273 0.8512 0.0
H1137 H 0.62188 0.11541 0.75708 0.0
H1138 H 0.66731 0.09117 0.67515 0.0
H1139 H 0.67654 0.07813 0.76865 0.0
C1140 C 0.71747 0.08463 0.05959 0.0
C1141 C 0.73201 0.07586 0.03332 0.0
C1142 C 0.70187 0.08776 0.02837 0.0
C1143 C 0.70037 0.08168 0.97113 0.0
C1144 C 0.71567 0.07568 0.94212 0.0
C1145 C 0.73151 0.073 0.97294 0.0
C1146 C 0.68249 0.07748 0.94769 0.0
C1147 C 0.67691 0.08484 0.8948 0.0
C1148 C 0.67103 0.06568 0.97806 0.0
C1149 C 0.67695 0.05583 0.03053 0.0
C1150 C 0.69193 0.04453 0.02823 0.0
C1151 C 0.69789 0.03584 0.07821 0.0
C1152 C 0.68882 0.03813 0.13062 0.0
C1153 C 0.67372 0.04908 0.13307 0.0
C1154 C 0.66776 0.05788 0.08325 0.0
C1155 C 0.61032 0.05018 0.81781 0.0
C1156 C 0.59572 0.05285 0.85532 0.0
C1157 C 0.62728 0.05646 0.83263 0.0
C1158 C 0.62987 0.06559 0.88501 0.0
C1159 C 0.61522 0.06876 0.92153 0.0
C1160 C 0.59832 0.06248 0.90684 0.0
C1161 C 0.64802 0.07023 0.90503 0.0
C1162 C 0.65385 0.06256 0.95707 0.0
C1163 C 0.65975 0.08128 0.87286 0.0
C1164 C 0.65437 0.08936 0.81687 0.0
C1165 C 0.63896 0.10002 0.81305 0.0
C1166 C 0.63379 0.10727 0.75981 0.0
C1167 C 0.64398 0.10405 0.71014 0.0
C1168 C 0.65941 0.09362 0.71364 0.0
C1169 C 0.66464 0.08633 0.76677 0.0
H1170 H 0.63995 0.10966 0.66895 0.0
H1171 H 0.69346 0.0314 0.16929 0.0
H1172 H 0.49271 0.71037 0.96048 0.0
H1173 H 0.48536 0.6912 0.87988 0.0
H1174 H 0.43163 0.71219 0.8777 0.0
H1175 H 0.43879 0.73084 0.96203 0.0
H1176 H 0.42989 0.67852 0.88095 0.0
H1177 H 0.46077 0.71565 0.75272 0.0
H1178 H 0.48408 0.7361 0.71681 0.0
H1179 H 0.52318 0.69442 0.73034 0.0
H1180 H 0.50023 0.67379 0.76724 0.0
H1181 H 0.43208 0.59379 0.74057 0.0
H1182 H 0.42834 0.62641 0.73724 0.0
H1183 H 0.48051 0.63292 0.81368 0.0
H1184 H 0.4843 0.60067 0.81657 0.0
H1185 H 0.47339 0.65883 0.73202 0.0
H1186 H 0.44355 0.62962 0.89963 0.0
H1187 H 0.42089 0.60924 0.94047 0.0
H1188 H 0.37961 0.63739 0.8492 0.0
H1189 H 0.40211 0.65781 0.80741 0.0
C1190 C 0.47936 0.71107 0.94254 0.0
C1191 C 0.4662 0.72176 0.96839 0.0
C1192 C 0.47525 0.70036 0.89536 0.0
C1193 C 0.45798 0.70039 0.87169 0.0
C1194 C 0.44508 0.71202 0.89491 0.0
C1195 C 0.44917 0.72267 0.94295 0.0
C1196 C 0.45302 0.68601 0.83054 0.0
C1197 C 0.43893 0.67465 0.84639 0.0
C1198 C 0.4647 0.68085 0.7852 0.0
C1199 C 0.47869 0.69313 0.76269 0.0
C1200 C 0.47436 0.71085 0.74836 0.0
C1201 C 0.48752 0.72249 0.72782 0.0
C1202 C 0.5051 0.71656 0.72133 0.0
C1203 C 0.50955 0.69898 0.73535 0.0
C1204 C 0.49645 0.68729 0.75594 0.0
C1205 C 0.44281 0.60228 0.75569 0.0
C1206 C 0.4583 0.59483 0.78012 0.0
C1207 C 0.44069 0.62083 0.75359 0.0
C1208 C 0.45411 0.63203 0.77555 0.0
C1209 C 0.47002 0.62453 0.79635 0.0
C1210 C 0.47207 0.60611 0.79881 0.0
C1211 C 0.45107 0.65127 0.7852 0.0
C1212 C 0.46367 0.6634 0.76354 0.0
C1213 C 0.43794 0.65725 0.82472 0.0
C1214 C 0.42447 0.64505 0.84993 0.0
C1215 C 0.42965 0.63137 0.88809 0.0
C1216 C 0.41684 0.61984 0.9114 0.0
C1217 C 0.39882 0.62198 0.89729 0.0
C1218 C 0.39357 0.63571 0.85995 0.0
C1219 C 0.40634 0.64726 0.83643 0.0
H1220 H 0.38892 0.61304 0.91539 0.0
H1221 H 0.51526 0.72559 0.70536 0.0
H1222 H 0.77892 0.41705 0.98052 0.0
H1223 H 0.80162 0.40883 0.90882 0.0
H1224 H 0.80629 0.46397 0.85735 0.0
H1225 H 0.78383 0.47227 0.92864 0.0
H1226 H 0.81286 0.44083 0.76544 0.0
H1227 H 0.83059 0.44909 0.96795 0.0
H1228 H 0.82879 0.44199 0.07222 0.0
H1229 H 0.84252 0.38747 0.03649 0.0
H1230 H 0.84411 0.39422 0.93181 0.0
H1231 H 0.90067 0.47204 0.75297 0.0
H1232 H 0.86932 0.46321 0.75912 0.0
H1233 H 0.88518 0.40861 0.78869 0.0
H1234 H 0.91663 0.41745 0.78274 0.0
H1235 H 0.86624 0.42189 0.87676 0.0
H1236 H 0.85691 0.41641 0.67617 0.0
H1237 H 0.85716 0.42278 0.57134 0.0
H1238 H 0.82848 0.47154 0.60073 0.0
H1239 H 0.82804 0.46547 0.70587 0.0
C1240 C 0.78451 0.42734 0.95295 0.0
C1241 C 0.77983 0.44534 0.96096 0.0
C1242 C 0.79735 0.42261 0.91174 0.0
C1243 C 0.8058 0.43584 0.87848 0.0
C1244 C 0.79989 0.45354 0.88246 0.0
C1245 C 0.78704 0.45827 0.92343 0.0
C1246 C 0.82282 0.43213 0.84821 0.0
C1247 C 0.82457 0.4366 0.7894 0.0
C1248 C 0.83794 0.4261 0.87928 0.0
C1249 C 0.83724 0.4221 0.94215 0.0
C1250 C 0.83311 0.43557 0.98236 0.0
C1251 C 0.83213 0.43161 0.04149 0.0
C1252 C 0.83548 0.41427 0.06096 0.0
C1253 C 0.83988 0.40088 0.02133 0.0
C1254 C 0.84081 0.40476 0.96211 0.0
C1255 C 0.89743 0.4581 0.75956 0.0
C1256 C 0.91101 0.44547 0.76847 0.0
C1257 C 0.87953 0.45301 0.76221 0.0
C1258 C 0.87491 0.43523 0.7742 0.0
C1259 C 0.88847 0.42237 0.77898 0.0
C1260 C 0.9064 0.42743 0.77573 0.0
C1261 C 0.85655 0.43115 0.79404 0.0
C1262 C 0.85453 0.42541 0.85156 0.0
C1263 C 0.8413 0.43608 0.76167 0.0
C1264 C 0.84245 0.44046 0.699 0.0
C1265 C 0.85078 0.42857 0.6604 0.0
C1266 C 0.85084 0.43206 0.60086 0.0
C1267 C 0.84269 0.44747 0.57938 0.0
C1268 C 0.83466 0.45954 0.61745 0.0
C1269 C 0.83446 0.45604 0.67701 0.0
H1270 H 0.84261 0.45006 0.53324 0.0
H1271 H 0.83472 0.41123 0.10675 0.0
H1272 H 0.03758 0.19917 0.88425 0.0
H1273 H 0.03626 0.16985 0.8373 0.0
H1274 H 0.98171 0.16371 0.89378 0.0
H1275 H 0.98297 0.19293 0.94088 0.0
H1276 H 0.99995 0.13422 0.91674 0.0
H1277 H 0.99127 0.17148 0.75713 0.0
H1278 H 0.99517 0.19469 0.68281 0.0
H1279 H 0.04334 0.16942 0.62425 0.0
H1280 H 0.03999 0.14619 0.69917 0.0
H1281 H 0.99359 0.06472 0.66461 0.0
H1282 H 0.99326 0.09587 0.69686 0.0
H1283 H 0.02781 0.08217 0.83946 0.0
H1284 H 0.0281 0.05111 0.8078 0.0
H1285 H 0.01681 0.12201 0.71267 0.0
H1286 H 0.01617 0.10588 0.9596 0.0
H1287 H 0.00602 0.08165 0.02422 0.0
H1288 H 0.96745 0.06534 0.89742 0.0
H1289 H 0.97692 0.08978 0.83292 0.0
C1290 C 0.02527 0.19162 0.88645 0.0
C1291 C 0.01038 0.19852 0.91644 0.0
C1292 C 0.02449 0.17486 0.85924 0.0
C1293 C 0.00888 0.16445 0.86174 0.0
C1294 C 0.99394 0.17139 0.89111 0.0
C1295 C 0.99463 0.18822 0.9177 0.0
C1296 C 0.00836 0.14604 0.83612 0.0
C1297 C 1.00371 0.13162 0.87212 0.0
C1298 C 0.01273 0.14253 0.77732 0.0
C1299 C 0.01552 0.15717 0.73468 0.0
C1300 C 1.00296 0.17107 0.72949 0.0
C1301 C 0.005 0.18419 0.68691 0.0
C1302 C 0.01953 0.18358 0.64896 0.0
C1303 C 0.0321 0.16989 0.65375 0.0
C1304 C 0.03014 0.15673 0.69632 0.0
C1305 C 1.00127 0.06834 0.7025 0.0
C1306 C 0.01082 0.05525 0.73358 0.0
C1307 C 1.00108 0.08624 0.72096 0.0
C1308 C 0.01032 0.09149 0.77122 0.0
C1309 C 0.0203 0.07853 0.80118 0.0
C1310 C 0.02047 0.06069 0.78286 0.0
C1311 C 0.00903 0.11025 0.79389 0.0
C1312 C 0.01333 0.12469 0.75745 0.0
C1313 C 1.00367 0.11391 0.85167 0.0
C1314 C 0.99742 0.09955 0.89114 0.0
C1315 C 0.00541 0.09722 0.94573 0.0
C1316 C 0.99975 0.08346 0.98239 0.0
C1317 C 0.98609 0.07196 0.96495 0.0
C1318 C 0.97798 0.07427 0.91098 0.0
C1319 C 0.98348 0.08808 0.87437 0.0
H1320 H 0.98179 0.06126 0.99324 0.0
H1321 H 0.021 0.19366 0.61568 0.0
H1322 H 0.31961 0.99731 0.97535 0.0
H1323 H 0.34951 0.99557 0.93336 0.0
H1324 H 0.33027 0.01999 0.7762 0.0
H1325 H 0.30011 0.02152 0.81769 0.0
H1326 H 0.35473 0.99264 0.75388 0.0
H1327 H 0.35147 0.04509 0.87191 0.0
H1328 H 0.34513 0.06225 0.96069 0.0
H1329 H 0.38363 0.03108 0.05428 0.0
H1330 H 0.39 0.01355 0.96621 0.0
H1331 H 0.44188 0.01249 0.64827 0.0
H1332 H 0.41077 0.01472 0.68006 0.0
H1333 H 0.42631 0.99892 0.85264 0.0
H1334 H 0.4575 0.99765 0.82168 0.0
H1335 H 0.4029 0.02335 0.86247 0.0
H1336 H 0.40344 0.96851 0.74904 0.0
H1337 H 0.41018 0.95117 0.66073 0.0
H1338 H 0.37778 0.98678 0.55993 0.0
H1339 H 0.37128 0.00459 0.64757 0.0
C1340 C 0.32158 1.00198 0.93138 0.0
C1341 C 0.30735 0.00958 0.90006 0.0
C1342 C 0.33878 1.00113 0.90757 0.0
C1343 C 0.34227 0.00787 0.85183 0.0
C1344 C 0.32797 0.01477 0.81936 0.0
C1345 C 0.31074 0.01573 0.84332 0.0
C1346 C 0.36097 0.00849 0.82901 0.0
C1347 C 0.36521 0.99952 0.77734 0.0
C1348 C 0.37479 0.01729 0.85965 0.0
C1349 C 0.37109 0.0279 0.91258 0.0
C1350 C 0.35848 0.04181 0.91153 0.0
C1351 C 0.3549 0.05162 0.96171 0.0
C1352 C 0.36394 0.04773 0.01313 0.0
C1353 C 0.37662 0.03406 0.01443 0.0
C1354 C 0.38024 0.02419 0.96438 0.0
C1355 C 0.43864 0.00949 0.69294 0.0
C1356 C 0.45217 0.00483 0.73233 0.0
C1357 C 0.42079 0.01064 0.71108 0.0
C1358 C 0.41595 0.00659 0.76862 0.0
C1359 C 0.42954 1.0021 0.80804 0.0
C1360 C 0.44742 1.00134 0.79024 0.0
C1361 C 0.39684 0.00709 0.7881 0.0
C1362 C 0.39247 0.0164 0.83905 0.0
C1363 C 0.38295 0.99852 0.75702 0.0
C1364 C 0.3867 0.98773 0.70469 0.0
C1365 C 0.39776 0.97262 0.70798 0.0
C1366 C 0.40161 0.96277 0.65807 0.0
C1367 C 0.39438 0.96786 0.60476 0.0
C1368 C 0.38334 0.98285 0.60124 0.0
C1369 C 0.37954 0.99279 0.65097 0.0
H1370 H 0.39733 0.9602 0.56619 0.0
H1371 H 0.36114 0.05534 0.05194 0.0
H1372 H 0.47279 0.30123 0.86622 0.0
H1373 H 0.47623 0.33085 0.82247 0.0
H1374 H 0.51639 0.34399 0.94911 0.0
H1375 H 0.51289 0.3145 0.99342 0.0
H1376 H 0.48946 0.3703 0.93675 0.0
H1377 H 0.53016 0.33661 0.8072 0.0
H1378 H 0.5353 0.31071 0.74319 0.0
H1379 H 0.48994 0.32559 0.64032 0.0
H1380 H 0.48491 0.35186 0.70249 0.0
H1381 H 0.51733 0.45339 0.82697 0.0
H1382 H 0.51617 0.42281 0.86379 0.0
H1383 H 0.48959 0.40604 0.707 0.0
H1384 H 0.49235 0.4364 0.66818 0.0
H1385 H 0.50915 0.38088 0.73445 0.0
H1386 H 0.46758 0.41385 0.84763 0.0
H1387 H 0.45657 0.4381 0.91038 0.0
H1388 H 0.49426 0.42327 0.04199 0.0
H1389 H 0.50565 0.39906 0.97971 0.0
C1390 C 0.48244 0.31038 0.88454 0.0
C1391 C 0.49261 0.30541 0.93327 0.0
C1392 C 0.48446 0.32729 0.85928 0.0
C1393 C 0.49664 0.33966 0.88228 0.0
C1394 C 0.50694 0.33468 0.93048 0.0
C1395 C 0.50504 0.31773 0.95545 0.0
C1396 C 0.49824 0.35801 0.85753 0.0
C1397 C 0.49396 0.37267 0.89269 0.0
C1398 C 0.50328 0.3611 0.79929 0.0
C1399 C 0.50716 0.34612 0.75948 0.0
C1400 C 0.52141 0.33442 0.77055 0.0
C1401 C 0.52431 0.3197 0.73454 0.0
C1402 C 0.51296 0.31651 0.68764 0.0
C1403 C 0.49881 0.32815 0.67629 0.0
C1404 C 0.49602 0.34303 0.71159 0.0
C1405 C 0.51134 0.44311 0.80036 0.0
C1406 C 0.50479 0.44724 0.74499 0.0
C1407 C 0.5105 0.42561 0.82163 0.0
C1408 C 0.50229 0.41197 0.78918 0.0
C1409 C 0.49595 0.41616 0.73332 0.0
C1410 C 0.49745 0.43354 0.71111 0.0
C1411 C 0.50029 0.39346 0.81343 0.0
C1412 C 0.50452 0.37869 0.77832 0.0
C1413 C 0.4944 0.39024 0.87108 0.0
C1414 C 0.48759 0.40476 0.90877 0.0
C1415 C 0.4736 0.41584 0.88981 0.0
C1416 C 0.46728 0.42957 0.9253 0.0
C1417 C 0.47474 0.43226 0.98007 0.0
C1418 C 0.48851 0.42119 0.99952 0.0
C1419 C 0.49489 0.40745 0.96417 0.0
H1420 H 0.46983 0.44289 0.00749 0.0
H1421 H 0.51516 0.30507 0.65997 0.0
H1422 H 0.21082 0.48151 0.86499 0.0
H1423 H 0.18171 0.47998 0.81586 0.0
H1424 H 0.15651 0.50403 0.96453 0.0
H1425 H 0.18532 0.5055 0.01372 0.0
H1426 H 0.13865 0.47291 0.92105 0.0
H1427 H 0.15741 0.53337 0.84008 0.0
H1428 H 0.18084 0.55142 0.79232 0.0
H1429 H 0.18741 0.51088 0.66263 0.0
H1430 H 0.1639 0.49274 0.70965 0.0
H1431 H 0.05254 0.49808 0.83581 0.0
H1432 H 0.08315 0.4967 0.87154 0.0
H1433 H 0.10236 0.48925 0.69669 0.0
H1434 H 0.07166 0.49162 0.66066 0.0
H1435 H 0.12482 0.50866 0.74581 0.0
H1436 H 0.09913 0.45386 0.80532 0.0
H1437 H 0.07707 0.43354 0.84951 0.0
H1438 H 0.08602 0.45752 0.01587 0.0
H1439 H 0.10797 0.47816 0.97255 0.0
C1440 C 0.19906 0.48647 0.88714 0.0
C1441 C 0.20048 0.49378 0.94314 0.0
C1442 C 0.18245 0.4857 0.85887 0.0
C1443 C 0.1669 0.49205 0.88628 0.0
C1444 C 0.16828 0.49913 0.94235 0.0
C1445 C 0.18483 0.50006 0.97028 0.0
C1446 C 0.14907 0.49115 0.85754 0.0
C1447 C 0.13554 0.48079 0.88291 0.0
C1448 C 0.14517 0.50082 0.80654 0.0
C1449 C 0.15892 0.51184 0.77785 0.0
C1450 C 0.16382 0.52841 0.80117 0.0
C1451 C 0.17708 0.53864 0.77429 0.0
C1452 C 0.18557 0.53232 0.72436 0.0
C1453 C 0.18075 0.51581 0.70106 0.0
C1454 C 0.16741 0.5056 0.72758 0.0
C1455 C 0.06328 0.49607 0.80499 0.0
C1456 C 0.05964 0.49484 0.74542 0.0
C1457 C 0.08085 0.49515 0.82551 0.0
C1458 C 0.09526 0.49231 0.78729 0.0
C1459 C 0.09162 0.49131 0.72748 0.0
C1460 C 0.07403 0.49267 0.70679 0.0
C1461 C 0.114 0.49067 0.80991 0.0
C1462 C 0.12778 0.50057 0.7835 0.0
C1463 C 0.11823 0.48009 0.85918 0.0
C1464 C 0.1051 0.46765 0.88556 0.0
C1465 C 0.09632 0.45488 0.85127 0.0
C1466 C 0.08384 0.44329 0.87617 0.0
C1467 C 0.08012 0.44426 0.93544 0.0
C1468 C 0.08891 0.45679 0.96996 0.0
C1469 C 0.10138 0.46843 0.94527 0.0
H1470 H 0.07046 0.43528 0.95463 0.0
H1471 H 0.1959 0.54021 0.70386 0.0
H1472 H 0.03725 0.80415 0.45475 0.0
H1473 H 0.03652 0.83365 0.49991 0.0
H1474 H 0.98067 0.83855 0.45772 0.0
H1475 H 0.98143 0.80932 0.41072 0.0
H1476 H 0.99988 0.869 0.43069 0.0
H1477 H 0.99576 0.82815 0.59467 0.0
H1478 H 0.00829 0.80235 0.64667 0.0
H1479 H 0.0563 0.83176 0.68092 0.0
H1480 H 0.04449 0.85739 0.62603 0.0
H1481 H 0.97986 0.94742 0.58024 0.0
H1482 H 0.9801 0.91654 0.54684 0.0
H1483 H 0.03073 0.90811 0.63191 0.0
H1484 H 0.02971 0.93868 0.66936 0.0
H1485 H 0.01543 0.87895 0.6371 0.0
H1486 H 0.0248 0.91703 0.47576 0.0
H1487 H 0.01929 0.94186 0.40791 0.0
H1488 H 0.9692 0.91844 0.35905 0.0
H1489 H 0.9743 0.89358 0.42722 0.0
C1490 C 0.02479 0.81147 0.45491 0.0
C1491 C 0.00938 0.80419 0.429 0.0
C1492 C 0.02437 0.82835 0.48119 0.0
C1493 C 0.00849 0.83837 0.48281 0.0
C1494 C 0.99308 0.83112 0.45731 0.0
C1495 C 0.99349 0.81425 0.43098 0.0
C1496 C 0.00794 0.85648 0.51027 0.0
C1497 C 1.00298 0.87114 0.47606 0.0
C1498 C 0.01288 0.85949 0.56877 0.0
C1499 C 0.01925 0.84469 0.60612 0.0
C1500 C 0.00899 0.82912 0.6133 0.0
C1501 C 0.01601 0.81448 0.64302 0.0
C1502 C 0.03303 0.81543 0.66756 0.0
C1503 C 0.04311 0.83103 0.66206 0.0
C1504 C 0.03629 0.8456 0.6314 0.0
C1505 C 0.99098 0.93894 0.59217 0.0
C1506 C 0.00489 0.94562 0.62669 0.0
C1507 C 0.99122 0.92125 0.57254 0.0
C1508 C 0.00579 0.90993 0.58455 0.0
C1509 C 0.01938 0.91642 0.62115 0.0
C1510 C 0.01883 0.93399 0.64245 0.0
C1511 C 0.00701 0.89165 0.55764 0.0
C1512 C 0.01216 0.87692 0.59181 0.0
C1513 C 1.00298 0.88864 0.49823 0.0
C1514 C 0.99986 0.90353 0.45703 0.0
C1515 C 0.01256 0.91723 0.45081 0.0
C1516 C 0.00952 0.93131 0.41228 0.0
C1517 C 0.99388 0.93175 0.37931 0.0
C1518 C 0.98129 0.91809 0.38469 0.0
C1519 C 0.98425 0.904 0.42324 0.0
H1520 H 0.99155 0.94266 0.34949 0.0
H1521 H 0.03839 0.80411 0.69093 0.0
H1522 H 0.69272 0.02795 0.4024 0.0
H1523 H 0.66365 0.02515 0.44904 0.0
H1524 H 0.67678 0.97161 0.50262 0.0
H1525 H 0.70605 0.97432 0.45559 0.0
H1526 H 0.64418 0.97183 0.46511 0.0
H1527 H 0.6759 0.00731 0.5995 0.0
H1528 H 0.69432 0.032 0.63681 0.0
H1529 H 0.65434 0.06975 0.58444 0.0
H1530 H 0.6358 0.04531 0.54579 0.0
H1531 H 0.57107 0.99963 0.69632 0.0
H1532 H 0.602 0.99897 0.66256 0.0
H1533 H 0.58377 0.98928 0.48809 0.0
H1534 H 0.55287 0.98926 0.52208 0.0
H1535 H 0.62039 0.01852 0.59633 0.0
H1536 H 0.61398 0.96714 0.40849 0.0
H1537 H 0.59672 0.94005 0.38525 0.0
H1538 H 0.58862 0.92998 0.56662 0.0
H1539 H 0.60604 0.95686 0.59097 0.0
C1540 C 0.68961 0.01565 0.42486 0.0
C1541 C 0.70193 1.00143 0.42564 0.0
C1542 C 0.67288 0.01406 0.45157 0.0
C1543 C 0.66798 0.99827 0.48036 0.0
C1544 C 0.68017 0.98397 0.48086 0.0
C1545 C 0.69693 0.98552 0.45384 0.0
C1546 C 0.64997 0.99661 0.50833 0.0
C1547 C 0.63902 0.98205 0.49387 0.0
C1548 C 0.64324 0.00965 0.54722 0.0
C1549 C 0.65453 0.02446 0.56915 0.0
C1550 C 0.67112 0.02089 0.59529 0.0
C1551 C 0.68157 0.03484 0.61681 0.0
C1552 C 0.67553 0.05243 0.61286 0.0
C1553 C 0.65902 0.05612 0.58736 0.0
C1554 C 0.64853 0.04222 0.56563 0.0
C1555 C 0.57363 0.99721 0.65083 0.0
C1556 C 0.55941 0.99439 0.61208 0.0
C1557 C 0.59139 0.99689 0.63145 0.0
C1558 C 0.59542 0.99386 0.57271 0.0
C1559 C 0.58119 0.9912 0.53385 0.0
C1560 C 0.56344 0.99128 0.55336 0.0
C1561 C 0.61442 0.99399 0.55188 0.0
C1562 C 0.62555 0.00829 0.56764 0.0
C1563 C 0.62151 0.98042 0.51572 0.0
C1564 C 0.61118 0.96411 0.50149 0.0
C1565 C 0.60858 0.9591 0.44341 0.0
C1566 C 0.59876 0.94379 0.43004 0.0
C1567 C 0.59153 0.93333 0.47442 0.0
C1568 C 0.59417 0.93812 0.53228 0.0
C1569 C 0.604 0.95341 0.54588 0.0
H1570 H 0.58392 0.92149 0.46397 0.0
H1571 H 0.68363 0.06321 0.62967 0.0
H1572 H 0.4798 0.69054 0.41131 0.0
H1573 H 0.48016 0.66098 0.45564 0.0
H1574 H 0.53636 0.6665 0.49108 0.0
H1575 H 0.53609 0.69642 0.44848 0.0
H1576 H 0.52601 0.6334 0.43664 0.0
H1577 H 0.50643 0.67231 0.59226 0.0
H1578 H 0.48548 0.695 0.62843 0.0
H1579 H 0.44231 0.65749 0.61754 0.0
H1580 H 0.46275 0.63491 0.57726 0.0
H1581 H 0.53731 0.55434 0.59656 0.0
H1582 H 0.53757 0.58529 0.56299 0.0
H1583 H 0.48048 0.5883 0.58892 0.0
H1584 H 0.48066 0.55787 0.62752 0.0
H1585 H 0.49117 0.61794 0.61262 0.0
H1586 H 0.50376 0.58237 0.44732 0.0
H1587 H 0.51896 0.55969 0.38762 0.0
H1588 H 0.56812 0.58892 0.40013 0.0
H1589 H 0.55326 0.61167 0.46055 0.0
C1590 C 0.49221 0.68573 0.42958 0.0
C1591 C 0.5079 0.69611 0.42654 0.0
C1592 C 0.49239 0.66868 0.45448 0.0
C1593 C 0.50826 0.66152 0.47691 0.0
C1594 C 0.52396 0.67173 0.47391 0.0
C1595 C 0.52378 0.68886 0.44938 0.0
C1596 C 0.50852 0.64333 0.50304 0.0
C1597 C 0.51863 0.63004 0.47565 0.0
C1598 C 0.49812 0.63876 0.55226 0.0
C1599 C 0.48614 0.65195 0.58072 0.0
C1600 C 0.49245 0.66892 0.59688 0.0
C1601 C 0.48062 0.68181 0.61786 0.0
C1602 C 0.46256 0.67773 0.6251 0.0
C1603 C 0.45628 0.6607 0.61145 0.0
C1604 C 0.46798 0.64787 0.58918 0.0
C1605 C 0.52486 0.56169 0.59513 0.0
C1606 C 0.50895 0.55372 0.61414 0.0
C1607 C 0.52494 0.57937 0.5754 0.0
C1608 C 0.50894 0.58922 0.57134 0.0
C1609 C 0.49305 0.5812 0.5912 0.0
C1610 C 0.49311 0.56374 0.61306 0.0
C1611 C 0.50876 0.60773 0.54621 0.0
C1612 C 0.49866 0.62116 0.57373 0.0
C1613 C 0.51844 0.61226 0.49525 0.0
C1614 C 0.52744 0.59862 0.45898 0.0
C1615 C 0.51784 0.58389 0.43767 0.0
C1616 C 0.52639 0.57103 0.40366 0.0
C1617 C 0.5445 0.57283 0.39024 0.0
C1618 C 0.5541 0.58752 0.41066 0.0
C1619 C 0.54562 0.60041 0.44475 0.0
H1620 H 0.5511 0.56286 0.3639 0.0
H1621 H 0.45347 0.6877 0.64182 0.0
H1622 H 0.8046 0.51598 0.47227 0.0
H1623 H 0.83369 0.51875 0.52032 0.0
H1624 H 0.85447 0.47622 0.414 0.0
H1625 H 0.82557 0.47327 0.36671 0.0
H1626 H 0.86631 0.47165 0.51684 0.0
H1627 H 0.86344 0.5218 0.38797 0.0
H1628 H 0.8507 0.54928 0.34617 0.0
H1629 H 0.8548 0.57532 0.5113 0.0
H1630 H 0.86736 0.54789 0.55427 0.0
H1631 H 0.95948 0.51682 0.53268 0.0
H1632 H 0.92889 0.51607 0.49567 0.0
H1633 H 0.91117 0.49092 0.65386 0.0
H1634 H 0.94173 0.49129 0.69066 0.0
H1635 H 0.89774 0.52975 0.52697 0.0
H1636 H 0.87783 0.46122 0.62282 0.0
H1637 H 0.89172 0.43273 0.65197 0.0
H1638 H 0.93588 0.44281 0.53786 0.0
H1639 H 0.9218 0.47085 0.50561 0.0
C1640 C 0.81539 0.50725 0.45912 0.0
C1641 C 0.81265 0.49435 0.41572 0.0
C1642 C 0.83205 0.50885 0.48659 0.0
C1643 C 0.84645 0.49781 0.47058 0.0
C1644 C 0.84365 0.48485 0.42761 0.0
C1645 C 0.82703 0.48315 0.40058 0.0
C1646 C 0.86452 0.49971 0.49768 0.0
C1647 C 0.87302 0.48441 0.51965 0.0
C1648 C 0.87368 0.51625 0.50018 0.0
C1649 C 0.86615 0.53274 0.47446 0.0
C1650 C 0.8615 0.53334 0.41546 0.0
C1651 C 0.85433 0.54891 0.39154 0.0
C1652 C 0.85189 0.56402 0.4261 0.0
C1653 C 0.85666 0.5636 0.48461 0.0
C1654 C 0.86381 0.54805 0.50876 0.0
C1655 C 0.94908 0.5112 0.55976 0.0
C1656 C 0.95316 0.50401 0.61452 0.0
C1657 C 0.93154 0.51085 0.53861 0.0
C1658 C 0.91767 0.50328 0.57159 0.0
C1659 C 0.92162 0.49661 0.62709 0.0
C1660 C 0.93915 0.49688 0.64818 0.0
C1661 C 0.8993 0.50172 0.54692 0.0
C1662 C 0.8908 0.51706 0.52525 0.0
C1663 C 0.89027 0.48514 0.54359 0.0
C1664 C 0.8988 0.4682 0.56218 0.0
C1665 C 0.8904 0.45725 0.60348 0.0
C1666 C 0.89831 0.44119 0.62055 0.0
C1667 C 0.91475 0.43606 0.59729 0.0
C1668 C 0.92319 0.44685 0.55613 0.0
C1669 C 0.9152 0.46278 0.53818 0.0
H1670 H 0.92092 0.4237 0.61101 0.0
H1671 H 0.84635 0.57607 0.4075 0.0
loop_
_geom_bond_atom_site_label_1
_geom_bond_atom_site_label_2
_geom_bond_distance
_geom_bond_site_symmetry_2
_ccdc_geom_bond_type
C0 C1 1.386 . S
C0 C2 1.397 . S
C0 H24 0.931 . S
C1 C0 1.386 . S
C1 C5 1.397 . S
C2 C0 1.397 . S
C2 C3 1.384 . S
C2 H25 0.930 . S
C3 C2 1.384 . S
C3 C4 1.377 . S
C3 C6 1.481 . S
C4 C3 1.377 . S
C4 C5 1.389 . S
C4 H26 0.929 . S
C5 C1 1.397 . S
C5 C4 1.389 . S
C5 H27 0.931 . S
C6 C3 1.481 . S
C6 C7 1.387 . S
C6 C11 1.390 . S
C7 C6 1.387 . S
C7 C8 1.401 . S
C7 H28 0.930 . S
C8 C7 1.401 . S
C8 C9 1.376 . S
C8 C17 1.511 . S
C9 C8 1.376 . S
C9 C10 1.392 . S
C9 H30 0.931 . S
C10 C9 1.392 . S
C10 C11 1.361 . S
C10 C12 1.500 . S
C11 C6 1.390 . S
C11 C10 1.361 . S
C11 H29 0.931 . S
C12 C10 1.500 . S
C12 C13 1.371 . S
C12 C14 1.365 . S
C13 C12 1.371 . S
C13 C23 1.386 . S
C13 H31 0.931 . S
C14 C12 1.365 . S
C14 C15 1.409 . S
C14 H32 0.929 . S
C15 C14 1.409 . S
C15 C16 1.380 . S
C15 H33 0.930 . S
C16 C15 1.380 . S
C16 C23 1.357 . S
C17 C8 1.511 . S
C17 C18 1.341 . S
C17 C19 1.371 . S
C18 C17 1.341 . S
C18 C22 1.394 . S
C18 H34 0.930 . S
C19 C17 1.371 . S
C19 C20 1.392 . S
C19 H35 0.931 . S
C20 C19 1.392 . S
C20 C21 1.331 . S
C20 H38 0.932 . S
C21 C20 1.331 . S
C21 C22 1.336 . S
C22 C18 1.394 . S
C22 C21 1.336 . S
C22 H37 0.929 . S
C23 C13 1.386 . S
C23 C16 1.357 . S
C23 H36 0.928 . S
H24 C0 0.931 . S
H25 C2 0.930 . S
H26 C4 0.929 . S
H27 C5 0.931 . S
H28 C7 0.930 . S
H29 C11 0.931 . S
H30 C9 0.931 . S
H31 C13 0.931 . S
H32 C14 0.929 . S
H33 C15 0.930 . S
H34 C18 0.930 . S
H35 C19 0.931 . S
H36 C23 0.928 . S
H37 C22 0.929 . S
H38 C20 0.932 . S
C39 C40 1.394 . S
C39 C41 1.397 . S
C39 H63 0.931 . S
C40 C39 1.394 . S
C40 C44 1.389 1_655 S
C41 C39 1.397 . S
C41 C42 1.389 . S
C41 H64 0.930 . S
C42 C41 1.389 . S
C42 C43 1.373 1_655 S
C42 C45 1.480 . S
C43 C42 1.373 1_455 S
C43 C44 1.389 . S
C43 H65 0.929 . S
C44 C40 1.389 1_455 S
C44 C43 1.389 . S
C44 H66 0.931 . S
C45 C42 1.480 . S
C45 C46 1.388 . S
C45 C50 1.390 . S
C46 C45 1.388 . S
C46 C47 1.402 . S
C46 H67 0.930 . S
C47 C46 1.402 . S
C47 C48 1.376 . S
C47 C56 1.513 . S
C48 C47 1.376 . S
C48 C49 1.392 . S
C48 H69 0.934 . S
C49 C48 1.392 . S
C49 C50 1.361 . S
C49 C51 1.499 1_655 S
C50 C45 1.390 . S
C50 C49 1.361 . S
C50 H68 0.931 . S
C51 C49 1.499 1_455 S
C51 C52 1.364 1_455 S
C51 C53 1.373 . S
C52 C51 1.364 1_655 S
C52 C62 1.386 . S
C52 H70 0.931 . S
C53 C51 1.373 . S
C53 C54 1.409 . S
C53 H71 0.929 . S
C54 C53 1.409 . S
C54 C55 1.378 . S
C54 H72 0.930 . S
C55 C54 1.378 . S
C55 C62 1.360 1_455 S
C56 C47 1.513 . S
C56 C57 1.341 . S
C56 C58 1.371 1_655 S
C57 C56 1.341 . S
C57 C61 1.394 . S
C57 H73 0.930 . S
C58 C56 1.371 1_455 S
C58 C59 1.392 . S
C58 H74 0.931 . S
C59 C58 1.392 . S
C59 C60 1.322 1_455 S
C59 H77 0.932 . S
C60 C59 1.322 1_655 S
C60 C61 1.345 . S
C61 C57 1.394 . S
C61 C60 1.345 . S
C61 H76 0.929 . S
C62 C52 1.386 . S
C62 C55 1.360 1_655 S
C62 H75 0.928 . S
H63 C39 0.931 . S
H64 C41 0.930 . S
H65 C43 0.929 . S
H66 C44 0.931 . S
H67 C46 0.930 . S
H68 C50 0.931 . S
H69 C48 0.934 . S
H70 C52 0.931 . S
H71 C53 0.929 . S
H72 C54 0.930 . S
H73 C57 0.930 . S
H74 C58 0.931 . S
H75 C62 0.928 . S
H76 C61 0.929 . S
H77 C59 0.932 . S
C78 C79 1.394 . S
C78 C80 1.397 . S
C78 H102 0.931 . S
C79 C78 1.394 . S
C79 C83 1.389 1_565 S
C80 C78 1.397 . S
C80 C81 1.389 . S
C80 H103 0.930 . S
C81 C80 1.389 . S
C81 C82 1.373 1_565 S
C81 C84 1.480 . S
C82 C81 1.373 1_545 S
C82 C83 1.389 . S
C82 H104 0.929 . S
C83 C79 1.389 1_545 S
C83 C82 1.389 . S
C83 H105 0.931 . S
C84 C81 1.480 . S
C84 C85 1.388 . S
C84 C89 1.390 . S
C85 C84 1.388 . S
C85 C86 1.402 . S
C85 H106 0.930 . S
C86 C85 1.402 . S
C86 C87 1.376 . S
C86 C95 1.513 . S
C87 C86 1.376 . S
C87 C88 1.392 . S
C87 H108 0.934 . S
C88 C87 1.392 . S
C88 C89 1.361 . S
C88 C90 1.499 1_565 S
C89 C84 1.390 . S
C89 C88 1.361 . S
C89 H107 0.931 . S
C90 C88 1.499 1_545 S
C90 C91 1.364 1_545 S
C90 C92 1.373 . S
C91 C90 1.364 1_565 S
C91 C101 1.386 . S
C91 H109 0.931 . S
C92 C90 1.373 . S
C92 C93 1.409 . S
C92 H110 0.929 . S
C93 C92 1.409 . S
C93 C94 1.378 . S
C93 H111 0.930 . S
C94 C93 1.378 . S
C94 C101 1.360 1_545 S
C95 C86 1.513 . S
C95 C96 1.341 . S
C95 C97 1.371 1_565 S
C96 C95 1.341 . S
C96 C100 1.394 . S
C96 H112 0.930 . S
C97 C95 1.371 1_545 S
C97 C98 1.392 . S
C97 H113 0.931 . S
C98 C97 1.392 . S
C98 C99 1.322 1_545 S
C98 H116 0.932 . S
C99 C98 1.322 1_565 S
C99 C100 1.345 . S
C100 C96 1.394 . S
C100 C99 1.345 . S
C100 H115 0.929 . S
C101 C91 1.386 . S
C101 C94 1.360 1_565 S
C101 H114 0.928 . S
H102 C78 0.931 . S
H103 C80 0.930 . S
H104 C82 0.929 . S
H105 C83 0.931 . S
H106 C85 0.930 . S
H107 C89 0.931 . S
H108 C87 0.934 . S
H109 C91 0.931 . S
H110 C92 0.929 . S
H111 C93 0.930 . S
H112 C96 0.930 . S
H113 C97 0.931 . S
H114 C101 0.928 . S
H115 C100 0.929 . S
H116 C98 0.932 . S
C117 C118 1.386 . S
C117 C119 1.397 . S
C117 H141 0.931 . S
C118 C117 1.386 . S
C118 C122 1.397 . S
C119 C117 1.397 . S
C119 C120 1.384 . S
C119 H142 0.930 . S
C120 C119 1.384 . S
C120 C121 1.377 . S
C120 C123 1.481 . S
C121 C120 1.377 . S
C121 C122 1.389 . S
C121 H143 0.929 . S
C122 C118 1.397 . S
C122 C121 1.389 . S
C122 H144 0.931 . S
C123 C120 1.481 . S
C123 C124 1.387 . S
C123 C128 1.390 . S
C124 C123 1.387 . S
C124 C125 1.401 . S
C124 H145 0.930 . S
C125 C124 1.401 . S
C125 C126 1.376 . S
C125 C134 1.511 . S
C126 C125 1.376 . S
C126 C127 1.392 . S
C126 H147 0.931 . S
C127 C126 1.392 . S
C127 C128 1.361 . S
C127 C129 1.500 . S
C128 C123 1.390 . S
C128 C127 1.361 . S
C128 H146 0.931 . S
C129 C127 1.500 . S
C129 C130 1.371 . S
C129 C131 1.365 . S
C130 C129 1.371 . S
C130 C140 1.386 . S
C130 H148 0.931 . S
C131 C129 1.365 . S
C131 C132 1.409 . S
C131 H149 0.929 . S
C132 C131 1.409 . S
C132 C133 1.380 . S
C132 H150 0.930 . S
C133 C132 1.380 . S
C133 C140 1.357 . S
C134 C125 1.511 . S
C134 C135 1.341 . S
C134 C136 1.371 . S
C135 C134 1.341 . S
C135 C139 1.394 . S
C135 H151 0.930 . S
C136 C134 1.371 . S
C136 C137 1.392 . S
C136 H152 0.931 . S
C137 C136 1.392 . S
C137 C138 1.331 . S
C137 H155 0.932 . S
C138 C137 1.331 . S
C138 C139 1.336 . S
C139 C135 1.394 . S
C139 C138 1.336 . S
C139 H154 0.929 . S
C140 C130 1.386 . S
C140 C133 1.357 . S
C140 H153 0.928 . S
H141 C117 0.931 . S
H142 C119 0.930 . S
H143 C121 0.929 . S
H144 C122 0.931 . S
H145 C124 0.930 . S
H146 C128 0.931 . S
H147 C126 0.931 . S
H148 C130 0.931 . S
H149 C131 0.929 . S
H150 C132 0.930 . S
H151 C135 0.930 . S
H152 C136 0.931 . S
H153 C140 0.928 . S
H154 C139 0.929 . S
H155 C137 0.932 . S
C156 C157 1.386 . S
C156 C158 1.397 . S
C156 H180 0.931 . S
C157 C156 1.386 . S
C157 C161 1.397 . S
C158 C156 1.397 . S
C158 C159 1.384 . S
C158 H181 0.930 . S
C159 C158 1.384 . S
C159 C160 1.377 . S
C159 C162 1.481 . S
C160 C159 1.377 . S
C160 C161 1.389 . S
C160 H182 0.929 . S
C161 C157 1.397 . S
C161 C160 1.389 . S
C161 H183 0.931 . S
C162 C159 1.481 . S
C162 C163 1.387 . S
C162 C167 1.390 . S
C163 C162 1.387 . S
C163 C164 1.401 . S
C163 H184 0.930 . S
C164 C163 1.401 . S
C164 C165 1.376 . S
C164 C173 1.511 . S
C165 C164 1.376 . S
C165 C166 1.392 1_554 S
C165 H186 0.931 1_554 S
C166 C165 1.392 1_556 S
C166 C167 1.361 1_556 S
C166 C168 1.500 . S
C167 C162 1.390 . S
C167 C166 1.361 1_554 S
C167 H185 0.931 . S
C168 C166 1.500 . S
C168 C169 1.371 . S
C168 C170 1.365 . S
C169 C168 1.371 . S
C169 C179 1.386 . S
C169 H187 0.931 . S
C170 C168 1.365 . S
C170 C171 1.409 . S
C170 H188 0.929 . S
C171 C170 1.409 . S
C171 C172 1.380 . S
C171 H189 0.930 . S
C172 C171 1.380 . S
C172 C179 1.357 . S
C173 C164 1.511 . S
C173 C174 1.341 . S
C173 C175 1.371 . S
C174 C173 1.341 . S
C174 C178 1.394 . S
C174 H190 0.930 . S
C175 C173 1.371 . S
C175 C176 1.392 . S
C175 H191 0.931 1_554 S
C176 C175 1.392 . S
C176 C177 1.331 . S
C176 H194 0.932 . S
C177 C176 1.331 . S
C177 C178 1.336 . S
C178 C174 1.394 . S
C178 C177 1.336 . S
C178 H193 0.929 . S
C179 C169 1.386 . S
C179 C172 1.357 . S
C179 H192 0.928 . S
H180 C156 0.931 . S
H181 C158 0.930 . S
H182 C160 0.929 . S
H183 C161 0.931 . S
H184 C163 0.930 . S
H185 C167 0.931 . S
H186 C165 0.931 1_556 S
H187 C169 0.931 . S
H188 C170 0.929 . S
H189 C171 0.930 . S
H190 C174 0.930 . S
H191 C175 0.931 1_556 S
H192 C179 0.928 . S
H193 C178 0.929 . S
H194 C176 0.932 . S
C195 C196 1.386 . S
C195 C197 1.397 . S
C195 H219 0.931 . S
C196 C195 1.386 . S
C196 C200 1.398 1_655 S
C197 C195 1.397 . S
C197 C198 1.389 1_655 S
C197 H220 0.930 . S
C198 C197 1.389 1_455 S
C198 C199 1.373 . S
C198 C201 1.480 1_455 S
C199 C198 1.373 . S
C199 C200 1.389 . S
C199 H221 0.929 . S
C200 C196 1.398 1_455 S
C200 C199 1.389 . S
C200 H222 0.931 . S
C201 C198 1.480 1_655 S
C201 C202 1.386 . S
C201 C206 1.390 . S
C202 C201 1.386 . S
C202 C203 1.400 . S
C202 H223 0.935 . S
C203 C202 1.400 . S
C203 C204 1.376 . S
C203 C212 1.512 . S
C204 C203 1.376 . S
C204 C205 1.392 1_654 S
C204 H225 0.933 1_554 S
C205 C204 1.392 1_456 S
C205 C206 1.361 1_456 S
C205 C207 1.499 . S
C206 C201 1.390 . S
C206 C205 1.361 1_654 S
C206 H224 0.931 1_655 S
C207 C205 1.499 . S
C207 C208 1.357 1_455 S
C207 C209 1.380 . S
C208 C207 1.357 1_655 S
C208 C218 1.386 . S
C208 H226 0.931 . S
C209 C207 1.380 . S
C209 C210 1.409 . S
C209 H227 0.929 . S
C210 C209 1.409 . S
C210 C211 1.384 . S
C210 H228 0.930 . S
C211 C210 1.384 . S
C211 C218 1.353 1_455 S
C212 C203 1.512 . S
C212 C213 1.341 . S
C212 C214 1.371 1_655 S
C213 C212 1.341 . S
C213 C217 1.394 . S
C213 H229 0.930 . S
C214 C212 1.371 1_455 S
C214 C215 1.392 . S
C214 H230 0.931 1_554 S
C215 C214 1.392 . S
C215 C216 1.327 1_455 S
C215 H233 0.932 . S
C216 C215 1.327 1_655 S
C216 C217 1.341 . S
C217 C213 1.394 . S
C217 C216 1.341 . S
C217 H232 0.929 . S
C218 C208 1.386 . S
C218 C211 1.353 1_655 S
C218 H231 0.928 . S
H219 C195 0.931 . S
H220 C197 0.930 . S
H221 C199 0.929 . S
H222 C200 0.931 . S
H223 C202 0.935 . S
H224 C206 0.931 1_455 S
H225 C204 0.933 1_556 S
H226 C208 0.931 . S
H227 C209 0.929 . S
H228 C210 0.930 . S
H229 C213 0.930 . S
H230 C214 0.931 1_556 S
H231 C218 0.928 . S
H232 C217 0.929 . S
H233 C215 0.932 . S
C234 C235 1.386 . S
C234 C236 1.397 . S
C234 H258 0.931 . S
C235 C234 1.386 . S
C235 C239 1.398 1_565 S
C236 C234 1.397 . S
C236 C237 1.389 1_565 S
C236 H259 0.930 . S
C237 C236 1.389 1_545 S
C237 C238 1.373 . S
C237 C240 1.480 1_545 S
C238 C237 1.373 . S
C238 C239 1.389 . S
C238 H260 0.929 . S
C239 C235 1.398 1_545 S
C239 C238 1.389 . S
C239 H261 0.931 . S
C240 C237 1.480 1_565 S
C240 C241 1.386 . S
C240 C245 1.390 . S
C241 C240 1.386 . S
C241 C242 1.400 . S
C241 H262 0.935 . S
C242 C241 1.400 . S
C242 C243 1.376 . S
C242 C251 1.512 . S
C243 C242 1.376 . S
C243 C244 1.392 1_564 S
C243 H264 0.933 1_554 S
C244 C243 1.392 1_546 S
C244 C245 1.361 1_546 S
C244 C246 1.499 . S
C245 C240 1.390 . S
C245 C244 1.361 1_564 S
C245 H263 0.931 1_565 S
C246 C244 1.499 . S
C246 C247 1.357 1_545 S
C246 C248 1.380 . S
C247 C246 1.357 1_565 S
C247 C257 1.386 . S
C247 H265 0.931 . S
C248 C246 1.380 . S
C248 C249 1.409 . S
C248 H266 0.929 . S
C249 C248 1.409 . S
C249 C250 1.384 . S
C249 H267 0.930 . S
C250 C249 1.384 . S
C250 C257 1.353 1_545 S
C251 C242 1.512 . S
C251 C252 1.341 . S
C251 C253 1.371 1_565 S
C252 C251 1.341 . S
C252 C256 1.394 . S
C252 H268 0.930 . S
C253 C251 1.371 1_545 S
C253 C254 1.392 . S
C253 H269 0.931 1_554 S
C254 C253 1.392 . S
C254 C255 1.327 1_545 S
C254 H272 0.932 . S
C255 C254 1.327 1_565 S
C255 C256 1.341 . S
C256 C252 1.394 . S
C256 C255 1.341 . S
C256 H271 0.929 . S
C257 C247 1.386 . S
C257 C250 1.353 1_565 S
C257 H270 0.928 . S
H258 C234 0.931 . S
H259 C236 0.930 . S
H260 C238 0.929 . S
H261 C239 0.931 . S
H262 C241 0.935 . S
H263 C245 0.931 1_545 S
H264 C243 0.933 1_556 S
H265 C247 0.931 . S
H266 C248 0.929 . S
H267 C249 0.930 . S
H268 C252 0.930 . S
H269 C253 0.931 1_556 S
H270 C257 0.928 . S
H271 C256 0.929 . S
H272 C254 0.932 . S
C273 C274 1.386 . S
C273 C275 1.397 . S
C273 H297 0.931 . S
C274 C273 1.386 . S
C274 C278 1.397 . S
C275 C273 1.397 . S
C275 C276 1.384 . S
C275 H298 0.930 . S
C276 C275 1.384 . S
C276 C277 1.377 . S
C276 C279 1.481 . S
C277 C276 1.377 . S
C277 C278 1.389 . S
C277 H299 0.929 . S
C278 C274 1.397 . S
C278 C277 1.389 . S
C278 H300 0.931 . S
C279 C276 1.481 . S
C279 C280 1.387 1_556 S
C279 C284 1.390 1_556 S
C280 C279 1.387 1_554 S
C280 C281 1.401 . S
C280 H301 0.930 1_554 S
C281 C280 1.401 . S
C281 C282 1.376 . S
C281 C290 1.511 . S
C282 C281 1.376 . S
C282 C283 1.392 . S
C282 H303 0.931 . S
C283 C282 1.392 . S
C283 C284 1.361 . S
C283 C285 1.500 . S
C284 C279 1.390 1_554 S
C284 C283 1.361 . S
C284 H302 0.931 . S
C285 C283 1.500 . S
C285 C286 1.371 . S
C285 C287 1.365 . S
C286 C285 1.371 . S
C286 C296 1.386 . S
C286 H304 0.931 . S
C287 C285 1.365 . S
C287 C288 1.409 . S
C287 H305 0.929 . S
C288 C287 1.409 . S
C288 C289 1.380 . S
C288 H306 0.930 . S
C289 C288 1.380 . S
C289 C296 1.357 . S
C290 C281 1.511 . S
C290 C291 1.341 . S
C290 C292 1.371 . S
C291 C290 1.341 . S
C291 C295 1.394 . S
C291 H307 0.931 . S
C292 C290 1.371 . S
C292 C293 1.392 . S
C292 H308 0.931 . S
C293 C292 1.392 . S
C293 C294 1.331 . S
C293 H311 0.932 . S
C294 C293 1.331 . S
C294 C295 1.336 . S
C295 C291 1.394 . S
C295 C294 1.336 . S
C295 H310 0.929 . S
C296 C286 1.386 . S
C296 C289 1.357 . S
C296 H309 0.928 . S
H297 C273 0.931 . S
H298 C275 0.930 . S
H299 C277 0.929 . S
H300 C278 0.931 . S
H301 C280 0.930 1_556 S
H302 C284 0.931 . S
H303 C282 0.931 . S
H304 C286 0.931 . S
H305 C287 0.929 . S
H306 C288 0.930 . S
H307 C291 0.931 . S
H308 C292 0.931 . S
H309 C296 0.928 . S
H310 C295 0.929 . S
H311 C293 0.932 . S
Tb312 C314 2.809 . S
Tb312 O332 2.484 . S
Tb312 O333 2.440 . S
Tb312 O334 2.658 1_565 S
Tb312 O335 2.409 . S
Tb312 O336 2.378 . S
Tb312 O340 2.325 1_455 S
Tb312 O343 2.341 1_565 S
Tb313 C323 2.809 . S
Tb313 O334 2.325 1_655 S
Tb313 O337 2.341 1_545 S
Tb313 O338 2.510 . S
Tb313 O339 2.440 . S
Tb313 O340 2.658 1_545 S
Tb313 O341 2.409 . S
Tb313 O342 2.378 . S
C314 Tb312 2.809 . S
C314 C315 1.514 . S
C314 O332 1.248 . S
C314 O333 1.266 . S
C315 C314 1.514 . S
C315 C316 1.359 . S
C315 C320 1.348 . S
C316 C315 1.359 . S
C316 C317 1.380 . S
C316 H344 0.929 1_455 S
C317 C316 1.380 . S
C317 C318 1.347 . S
C317 H345 0.931 1_455 S
C318 C317 1.347 . S
C318 C319 1.369 . S
C319 C318 1.369 . S
C319 C320 1.408 . S
C319 H346 0.930 . S
C320 C315 1.348 . S
C320 C319 1.408 . S
C320 H347 0.930 . S
C321 O334 1.263 1_565 S
C321 O335 1.280 . S
C322 O336 1.236 1_655 S
C322 O337 1.266 . S
C323 Tb313 2.809 . S
C323 C324 1.514 . S
C323 O338 1.307 . S
C323 O339 1.266 . S
C324 C323 1.514 . S
C324 C325 1.359 . S
C324 C329 1.348 . S
C325 C324 1.359 . S
C325 C326 1.380 . S
C325 H348 0.929 1_655 S
C326 C325 1.380 . S
C326 C327 1.347 . S
C326 H349 0.931 1_655 S
C327 C326 1.347 . S
C327 C328 1.369 . S
C328 C327 1.369 . S
C328 C329 1.408 . S
C328 H350 0.930 . S
C329 C324 1.348 . S
C329 C328 1.408 . S
C329 H351 0.930 . S
C330 O340 1.258 1_545 S
C330 O341 1.288 . S
C331 O342 1.236 1_455 S
C331 O343 1.266 . S
O332 Tb312 2.484 . S
O332 C314 1.248 . S
O333 Tb312 2.440 . S
O333 C314 1.266 . S
O334 Tb312 2.658 1_545 S
O334 Tb313 2.325 1_455 S
O334 C321 1.263 1_545 S
O335 Tb312 2.409 . S
O335 C321 1.280 . S
O336 Tb312 2.378 . S
O336 C322 1.236 1_455 S
O337 Tb313 2.341 1_565 S
O337 C322 1.266 . S
O338 Tb313 2.510 . S
O338 C323 1.307 . S
O339 Tb313 2.440 . S
O339 C323 1.266 . S
O340 Tb312 2.325 1_655 S
O340 Tb313 2.658 1_565 S
O340 C330 1.258 1_565 S
O341 Tb313 2.409 . S
O341 C330 1.288 . S
O342 Tb313 2.378 . S
O342 C331 1.236 1_655 S
O343 Tb312 2.341 1_545 S
O343 C331 1.266 . S
H344 C316 0.929 1_655 S
H345 C317 0.931 1_655 S
H346 C319 0.930 . S
H347 C320 0.930 . S
H348 C325 0.929 1_455 S
H349 C326 0.931 1_455 S
H350 C328 0.930 . S
H351 C329 0.930 . S
Tb352 C354 2.809 . S
Tb352 O372 2.484 . S
Tb352 O373 2.440 . S
Tb352 O374 2.658 . S
Tb352 O375 2.409 . S
Tb352 O376 2.378 . S
Tb352 O380 2.325 1_545 S
Tb352 O383 2.341 . S
Tb353 C363 2.809 . S
Tb353 O374 2.325 1_565 S
Tb353 O377 2.341 . S
Tb353 O378 2.506 . S
Tb353 O379 2.440 . S
Tb353 O380 2.658 . S
Tb353 O381 2.409 . S
Tb353 O382 2.378 . S
C354 Tb352 2.809 . S
C354 C355 1.514 . S
C354 O372 1.248 . S
C354 O373 1.266 . S
C355 C354 1.514 . S
C355 C356 1.359 . S
C355 C360 1.348 . S
C356 C355 1.359 . S
C356 C357 1.380 . S
C356 H384 0.929 1_545 S
C357 C356 1.380 . S
C357 C358 1.347 . S
C357 H385 0.931 1_545 S
C358 C357 1.347 . S
C358 C359 1.369 . S
C359 C358 1.369 . S
C359 C360 1.408 . S
C359 H386 0.930 . S
C360 C355 1.348 . S
C360 C359 1.408 . S
C360 H387 0.930 . S
C361 O374 1.281 . S
C361 O375 1.254 . S
C362 O376 1.236 1_565 S
C362 O377 1.266 . S
C363 Tb353 2.809 . S
C363 C364 1.514 . S
C363 O378 1.297 . S
C363 O379 1.266 . S
C364 C363 1.514 . S
C364 C365 1.359 . S
C364 C369 1.348 . S
C365 C364 1.359 . S
C365 C366 1.380 . S
C365 H388 0.929 1_565 S
C366 C365 1.380 . S
C366 C367 1.347 . S
C366 H389 0.931 1_565 S
C367 C366 1.347 . S
C367 C368 1.369 . S
C368 C367 1.369 . S
C368 C369 1.408 . S
C368 H390 0.930 . S
C369 C364 1.348 . S
C369 C368 1.408 . S
C369 H391 0.930 . S
C370 O380 1.281 . S
C370 O381 1.254 . S
C371 O382 1.236 1_545 S
C371 O383 1.266 . S
O372 Tb352 2.484 . S
O372 C354 1.248 . S
O373 Tb352 2.440 . S
O373 C354 1.266 . S
O374 Tb352 2.658 . S
O374 Tb353 2.325 1_545 S
O374 C361 1.281 . S
O375 Tb352 2.409 . S
O375 C361 1.254 . S
O376 Tb352 2.378 . S
O376 C362 1.236 1_545 S
O377 Tb353 2.341 . S
O377 C362 1.266 . S
O378 Tb353 2.506 . S
O378 C363 1.297 . S
O379 Tb353 2.440 . S
O379 C363 1.266 . S
O380 Tb352 2.325 1_565 S
O380 Tb353 2.658 . S
O380 C370 1.281 . S
O381 Tb353 2.409 . S
O381 C370 1.254 . S
O382 Tb353 2.378 . S
O382 C371 1.236 1_565 S
O383 Tb352 2.341 . S
O383 C371 1.266 . S
H384 C356 0.929 1_565 S
H385 C357 0.931 1_565 S
H386 C359 0.930 . S
H387 C360 0.930 . S
H388 C365 0.929 1_545 S
H389 C366 0.931 1_545 S
H390 C368 0.930 . S
H391 C369 0.930 . S
Tb392 C394 2.809 . S
Tb392 O412 2.484 . S
Tb392 O413 2.440 . S
Tb392 O414 2.658 . S
Tb392 O415 2.409 . S
Tb392 O416 2.378 . S
Tb392 O420 2.325 . S
Tb392 O423 2.341 . S
Tb393 C403 2.809 . S
Tb393 O414 2.325 . S
Tb393 O417 2.341 . S
Tb393 O418 2.484 . S
Tb393 O419 2.440 . S
Tb393 O420 2.658 . S
Tb393 O421 2.409 . S
Tb393 O422 2.378 . S
C394 Tb392 2.809 . S
C394 C395 1.514 . S
C394 O412 1.248 . S
C394 O413 1.266 . S
C395 C394 1.514 . S
C395 C396 1.359 . S
C395 C400 1.348 . S
C396 C395 1.359 . S
C396 C397 1.380 . S
C396 H424 0.929 . S
C397 C396 1.380 . S
C397 C398 1.347 . S
C397 H425 0.931 . S
C398 C397 1.347 . S
C398 C399 1.369 . S
C399 C398 1.369 . S
C399 C400 1.408 . S
C399 H426 0.930 . S
C400 C395 1.348 . S
C400 C399 1.408 . S
C400 H427 0.930 . S
C401 O414 1.281 . S
C401 O415 1.254 . S
C402 O416 1.236 . S
C402 O417 1.266 . S
C403 Tb393 2.809 . S
C403 C404 1.514 . S
C403 O418 1.248 . S
C403 O419 1.266 . S
C404 C403 1.514 . S
C404 C405 1.359 . S
C404 C409 1.348 . S
C405 C404 1.359 . S
C405 C406 1.380 . S
C405 H428 0.929 . S
C406 C405 1.380 . S
C406 C407 1.347 . S
C406 H429 0.931 . S
C407 C406 1.347 . S
C407 C408 1.369 . S
C408 C407 1.369 . S
C408 C409 1.408 . S
C408 H430 0.930 . S
C409 C404 1.348 . S
C409 C408 1.408 . S
C409 H431 0.930 . S
C410 O420 1.281 . S
C410 O421 1.254 . S
C411 O422 1.236 . S
C411 O423 1.266 . S
O412 Tb392 2.484 . S
O412 C394 1.248 . S
O413 Tb392 2.440 . S
O413 C394 1.266 . S
O414 Tb392 2.658 . S
O414 Tb393 2.325 . S
O414 C401 1.281 . S
O415 Tb392 2.409 . S
O415 C401 1.254 . S
O416 Tb392 2.378 . S
O416 C402 1.236 . S
O417 Tb393 2.341 . S
O417 C402 1.266 . S
O418 Tb393 2.484 . S
O418 C403 1.248 . S
O419 Tb393 2.440 . S
O419 C403 1.266 . S
O420 Tb392 2.325 . S
O420 Tb393 2.658 . S
O420 C410 1.281 . S
O421 Tb393 2.409 . S
O421 C410 1.254 . S
O422 Tb393 2.378 . S
O422 C411 1.236 . S
O423 Tb392 2.341 . S
O423 C411 1.266 . S
H424 C396 0.929 . S
H425 C397 0.931 . S
H426 C399 0.930 . S
H427 C400 0.930 . S
H428 C405 0.929 . S
H429 C406 0.931 . S
H430 C408 0.930 . S
H431 C409 0.930 . S
Tb432 C434 2.809 . S
Tb432 O452 2.484 . S
Tb432 O453 2.440 . S
Tb432 O454 2.658 1_655 S
Tb432 O455 2.409 . S
Tb432 O456 2.378 . S
Tb432 O460 2.325 . S
Tb432 O463 2.341 1_655 S
Tb433 C443 2.809 . S
Tb433 O454 2.325 . S
Tb433 O457 2.341 1_455 S
Tb433 O458 2.484 . S
Tb433 O459 2.440 . S
Tb433 O460 2.658 1_455 S
Tb433 O461 2.409 . S
Tb433 O462 2.378 . S
C434 Tb432 2.809 . S
C434 C435 1.514 . S
C434 O452 1.248 . S
C434 O453 1.266 . S
C435 C434 1.514 . S
C435 C436 1.359 . S
C435 C440 1.348 . S
C436 C435 1.359 . S
C436 C437 1.380 . S
C436 H464 0.929 . S
C437 C436 1.380 . S
C437 C438 1.347 . S
C437 H465 0.931 . S
C438 C437 1.347 . S
C438 C439 1.369 . S
C439 C438 1.369 . S
C439 C440 1.408 . S
C439 H466 0.930 . S
C440 C435 1.348 . S
C440 C439 1.408 . S
C440 H467 0.930 . S
C441 O454 1.270 1_655 S
C441 O455 1.269 . S
C442 O456 1.236 . S
C442 O457 1.266 . S
C443 Tb433 2.809 . S
C443 C444 1.514 . S
C443 O458 1.248 . S
C443 O459 1.266 . S
C444 C443 1.514 . S
C444 C445 1.359 . S
C444 C449 1.348 . S
C445 C444 1.359 . S
C445 C446 1.380 . S
C445 H468 0.929 . S
C446 C445 1.380 . S
C446 C447 1.347 . S
C446 H469 0.931 . S
C447 C446 1.347 . S
C447 C448 1.369 . S
C448 C447 1.369 . S
C448 C449 1.408 . S
C448 H470 0.930 . S
C449 C444 1.348 . S
C449 C448 1.408 . S
C449 H471 0.930 . S
C450 O460 1.266 1_455 S
C450 O461 1.276 . S
C451 O462 1.236 . S
C451 O463 1.266 . S
O452 Tb432 2.484 . S
O452 C434 1.248 . S
O453 Tb432 2.440 . S
O453 C434 1.266 . S
O454 Tb432 2.658 1_455 S
O454 Tb433 2.325 . S
O454 C441 1.270 1_455 S
O455 Tb432 2.409 . S
O455 C441 1.269 . S
O456 Tb432 2.378 . S
O456 C442 1.236 . S
O457 Tb433 2.341 1_655 S
O457 C442 1.266 . S
O458 Tb433 2.484 . S
O458 C443 1.248 . S
O459 Tb433 2.440 . S
O459 C443 1.266 . S
O460 Tb432 2.325 . S
O460 Tb433 2.658 1_655 S
O460 C450 1.266 1_655 S
O461 Tb433 2.409 . S
O461 C450 1.276 . S
O462 Tb433 2.378 . S
O462 C451 1.236 . S
O463 Tb432 2.341 1_455 S
O463 C451 1.266 . S
H464 C436 0.929 . S
H465 C437 0.931 . S
H466 C439 0.930 . S
H467 C440 0.930 . S
H468 C445 0.929 . S
H469 C446 0.931 . S
H470 C448 0.930 . S
H471 C449 0.930 . S
H472 C490 0.951 . S
H473 C492 0.951 . S
H474 C494 0.950 . S
H475 C495 0.950 . S
H476 C497 0.950 . S
H477 C500 0.950 . S
H478 C501 0.961 . S
H479 C503 0.950 . S
H480 C504 0.950 . S
H481 C505 0.951 . S
H482 C507 0.951 . S
H483 C509 0.950 . S
H484 C510 0.950 . S
H485 C512 0.950 . S
H486 C515 0.950 . S
H487 C516 0.936 1_565 S
H488 C518 0.950 . S
H489 C519 0.950 . S
C490 H472 0.951 . S
C490 C491 1.363 1_565 S
C490 C492 1.388 . S
C491 C490 1.363 1_545 S
C491 C495 1.387 . S
C492 H473 0.951 . S
C492 C490 1.388 . S
C492 C493 1.334 1_565 S
C493 C492 1.334 1_545 S
C493 C494 1.445 . S
C493 C496 1.500 . S
C494 H474 0.950 . S
C494 C493 1.445 . S
C494 C495 1.374 . S
C495 H475 0.950 . S
C495 C491 1.387 . S
C495 C494 1.374 . S
C496 C493 1.500 . S
C496 C497 1.373 . S
C496 C498 1.389 1_545 S
C497 H476 0.950 . S
C497 C496 1.373 . S
C497 C513 1.377 . S
C498 C496 1.389 1_565 S
C498 C499 1.524 . S
C498 C512 1.377 . S
C499 C498 1.524 . S
C499 C500 1.397 1_565 S
C499 C504 1.363 . S
C500 H477 0.950 . S
C500 C499 1.397 1_545 S
C500 C501 1.337 . S
C501 H478 0.961 . S
C501 C500 1.337 . S
C501 C502 1.273 1_545 S
C502 C501 1.273 1_565 S
C502 C503 1.524 . S
C502 H521 0.913 . S
C503 H479 0.950 . S
C503 C502 1.524 . S
C503 C504 1.415 . S
C504 H480 0.950 . S
C504 C499 1.363 . S
C504 C503 1.415 . S
C505 H481 0.951 . S
C505 C506 1.393 . S
C505 C507 1.388 . S
C506 C505 1.393 . S
C506 C510 1.357 1_545 S
C507 H482 0.951 . S
C507 C505 1.388 . S
C507 C508 1.365 . S
C508 C507 1.365 . S
C508 C509 1.415 1_545 S
C508 C511 1.498 1_545 S
C509 H483 0.950 . S
C509 C508 1.415 1_565 S
C509 C510 1.374 . S
C510 H484 0.950 . S
C510 C506 1.357 1_565 S
C510 C509 1.374 . S
C511 C508 1.498 1_565 S
C511 C512 1.383 . S
C511 C513 1.380 1_565 S
C512 H485 0.950 . S
C512 C498 1.377 . S
C512 C511 1.383 . S
C513 C497 1.377 . S
C513 C511 1.380 1_545 S
C513 C514 1.524 . S
C514 C513 1.524 . S
C514 C515 1.397 1_545 S
C514 C519 1.363 . S
C515 H486 0.950 . S
C515 C514 1.397 1_565 S
C515 C516 1.331 1_565 S
C516 H487 0.936 1_545 S
C516 C515 1.331 1_545 S
C516 C517 1.305 . S
C517 C516 1.305 . S
C517 C518 1.524 . S
C517 H520 0.999 . S
C518 H488 0.950 . S
C518 C517 1.524 . S
C518 C519 1.415 . S
C519 H489 0.950 . S
C519 C514 1.363 . S
C519 C518 1.415 . S
H520 C517 0.999 . S
H521 C502 0.913 . S
H522 C540 0.951 . S
H523 C542 0.951 . S
H524 C544 0.950 . S
H525 C545 0.950 . S
H526 C547 0.950 . S
H527 C550 0.950 . S
H528 C551 0.950 . S
H529 C553 0.950 . S
H530 C554 0.950 . S
H531 C555 0.951 . S
H532 C557 0.951 . S
H533 C559 0.950 . S
H534 C560 0.950 . S
H535 C562 0.950 . S
H536 C565 0.950 . S
H537 C566 0.950 . S
H538 C568 0.950 . S
H539 C569 0.950 . S
C540 H522 0.951 . S
C540 C541 1.366 . S
C540 C542 1.388 . S
C541 C540 1.366 . S
C541 C545 1.385 . S
C542 H523 0.951 . S
C542 C540 1.388 . S
C542 C543 1.366 . S
C543 C542 1.366 . S
C543 C544 1.414 . S
C543 C546 1.499 . S
C544 H524 0.950 . S
C544 C543 1.414 . S
C544 C545 1.374 . S
C545 H525 0.950 . S
C545 C541 1.385 . S
C545 C544 1.374 . S
C546 C543 1.499 . S
C546 C547 1.373 . S
C546 C548 1.389 . S
C547 H526 0.950 . S
C547 C546 1.373 . S
C547 C563 1.377 . S
C548 C546 1.389 . S
C548 C549 1.524 . S
C548 C562 1.377 . S
C549 C548 1.524 . S
C549 C550 1.397 . S
C549 C554 1.363 . S
C550 H527 0.950 . S
C550 C549 1.397 . S
C550 C551 1.334 . S
C551 H528 0.950 . S
C551 C550 1.334 . S
C551 C552 1.287 . S
C552 C551 1.287 . S
C552 C553 1.524 . S
C552 H571 0.913 . S
C553 H529 0.950 . S
C553 C552 1.524 . S
C553 C554 1.415 . S
C554 H530 0.950 . S
C554 C549 1.363 . S
C554 C553 1.415 . S
C555 H531 0.951 . S
C555 C556 1.366 . S
C555 C557 1.388 . S
C556 C555 1.366 . S
C556 C560 1.385 . S
C557 H532 0.951 . S
C557 C555 1.388 . S
C557 C558 1.366 . S
C558 C557 1.366 . S
C558 C559 1.414 . S
C558 C561 1.499 . S
C559 H533 0.950 . S
C559 C558 1.414 . S
C559 C560 1.374 . S
C560 H534 0.950 . S
C560 C556 1.385 . S
C560 C559 1.374 . S
C561 C558 1.499 . S
C561 C562 1.373 . S
C561 C563 1.389 . S
C562 H535 0.950 . S
C562 C548 1.377 . S
C562 C561 1.373 . S
C563 C547 1.377 . S
C563 C561 1.389 . S
C563 C564 1.524 . S
C564 C563 1.524 . S
C564 C565 1.397 . S
C564 C569 1.363 . S
C565 H536 0.950 . S
C565 C564 1.397 . S
C565 C566 1.334 . S
C566 H537 0.950 . S
C566 C565 1.334 . S
C566 C567 1.287 . S
C567 C566 1.287 . S
C567 C568 1.524 . S
C567 H570 0.999 . S
C568 H538 0.950 . S
C568 C567 1.524 . S
C568 C569 1.415 . S
C569 H539 0.950 . S
C569 C564 1.363 . S
C569 C568 1.415 . S
H570 C567 0.999 . S
H571 C552 0.913 . S
H572 C590 0.951 . S
H573 C592 0.951 . S
H574 C594 0.950 . S
H575 C595 0.950 . S
H576 C597 0.950 . S
H577 C600 0.950 . S
H578 C601 0.950 . S
H579 C603 0.950 . S
H580 C604 0.950 . S
H581 C605 0.951 . S
H582 C607 0.951 . S
H583 C609 0.950 . S
H584 C610 0.950 . S
H585 C612 0.950 . S
H586 C615 0.950 . S
H587 C616 0.950 . S
H588 C618 0.950 . S
H589 C619 0.950 . S
C590 H572 0.951 . S
C590 C591 1.366 . S
C590 C592 1.388 . S
C591 C590 1.366 . S
C591 C595 1.385 . S
C592 H573 0.951 . S
C592 C590 1.388 . S
C592 C593 1.366 . S
C593 C592 1.366 . S
C593 C594 1.414 . S
C593 C596 1.499 . S
C594 H574 0.950 . S
C594 C593 1.414 . S
C594 C595 1.374 . S
C595 H575 0.950 . S
C595 C591 1.385 . S
C595 C594 1.374 . S
C596 C593 1.499 . S
C596 C597 1.373 . S
C596 C598 1.389 . S
C597 H576 0.950 . S
C597 C596 1.373 . S
C597 C613 1.377 . S
C598 C596 1.389 . S
C598 C599 1.524 . S
C598 C612 1.377 . S
C599 C598 1.524 . S
C599 C600 1.397 . S
C599 C604 1.363 . S
C600 H577 0.950 . S
C600 C599 1.397 . S
C600 C601 1.334 . S
C601 H578 0.950 . S
C601 C600 1.334 . S
C601 C602 1.287 . S
C602 C601 1.287 . S
C602 C603 1.524 . S
C602 H621 0.913 . S
C603 H579 0.950 . S
C603 C602 1.524 . S
C603 C604 1.415 . S
C604 H580 0.950 . S
C604 C599 1.363 . S
C604 C603 1.415 . S
C605 H581 0.951 . S
C605 C606 1.366 . S
C605 C607 1.388 . S
C606 C605 1.366 . S
C606 C610 1.385 . S
C607 H582 0.951 . S
C607 C605 1.388 . S
C607 C608 1.366 . S
C608 C607 1.366 . S
C608 C609 1.414 . S
C608 C611 1.499 . S
C609 H583 0.950 . S
C609 C608 1.414 . S
C609 C610 1.374 . S
C610 H584 0.950 . S
C610 C606 1.385 . S
C610 C609 1.374 . S
C611 C608 1.499 . S
C611 C612 1.373 . S
C611 C613 1.389 . S
C612 H585 0.950 . S
C612 C598 1.377 . S
C612 C611 1.373 . S
C613 C597 1.377 . S
C613 C611 1.389 . S
C613 C614 1.524 . S
C614 C613 1.524 . S
C614 C615 1.397 . S
C614 C619 1.363 . S
C615 H586 0.950 . S
C615 C614 1.397 . S
C615 C616 1.334 . S
C616 H587 0.950 . S
C616 C615 1.334 . S
C616 C617 1.287 . S
C617 C616 1.287 . S
C617 C618 1.524 . S
C617 H620 0.999 . S
C618 H588 0.950 . S
C618 C617 1.524 . S
C618 C619 1.415 . S
C619 H589 0.950 . S
C619 C614 1.363 . S
C619 C618 1.415 . S
H620 C617 0.999 . S
H621 C602 0.913 . S
H622 C640 0.951 . S
H623 C642 0.951 . S
H624 C644 0.950 . S
H625 C645 0.950 . S
H626 C647 0.950 . S
H627 C650 0.950 1_655 S
H628 C651 0.950 . S
H629 C653 0.950 . S
H630 C654 0.950 . S
H631 C655 0.951 . S
H632 C657 0.951 . S
H633 C659 0.950 . S
H634 C660 0.950 . S
H635 C662 0.950 . S
H636 C665 0.950 1_455 S
H637 C666 0.950 . S
H638 C668 0.950 . S
H639 C669 0.950 . S
C640 H622 0.951 . S
C640 C641 1.370 . S
C640 C642 1.388 . S
C641 C640 1.370 . S
C641 C645 1.380 1_455 S
C642 H623 0.951 . S
C642 C640 1.388 . S
C642 C643 1.377 . S
C643 C642 1.377 . S
C643 C644 1.403 1_455 S
C643 C646 1.498 1_455 S
C644 H624 0.950 . S
C644 C643 1.403 1_655 S
C644 C645 1.374 . S
C645 H625 0.950 . S
C645 C641 1.380 1_655 S
C645 C644 1.374 . S
C646 C643 1.498 1_655 S
C646 C647 1.377 . S
C646 C648 1.386 1_655 S
C647 H626 0.950 . S
C647 C646 1.377 . S
C647 C663 1.377 . S
C648 C646 1.386 1_455 S
C648 C649 1.524 . S
C648 C662 1.377 . S
C649 C648 1.524 . S
C649 C650 1.397 . S
C649 C654 1.363 . S
C650 H627 0.950 1_455 S
C650 C649 1.397 . S
C650 C651 1.334 . S
C651 H628 0.950 . S
C651 C650 1.334 . S
C651 C652 1.287 . S
C652 C651 1.287 . S
C652 C653 1.524 . S
C652 H671 0.913 . S
C653 H629 0.950 . S
C653 C652 1.524 . S
C653 C654 1.415 . S
C654 H630 0.950 . S
C654 C649 1.363 . S
C654 C653 1.415 . S
C655 H631 0.951 . S
C655 C656 1.319 1_655 S
C655 C657 1.388 . S
C656 C655 1.319 1_455 S
C656 C660 1.432 . S
C657 H632 0.951 . S
C657 C655 1.388 . S
C657 C658 1.326 1_655 S
C658 C657 1.326 1_455 S
C658 C659 1.454 . S
C658 C661 1.500 . S
C659 H633 0.950 . S
C659 C658 1.454 . S
C659 C660 1.374 . S
C660 H634 0.950 . S
C660 C656 1.432 . S
C660 C659 1.374 . S
C661 C658 1.500 . S
C661 C662 1.373 . S
C661 C663 1.389 1_455 S
C662 H635 0.950 . S
C662 C648 1.377 . S
C662 C661 1.373 . S
C663 C647 1.377 . S
C663 C661 1.389 1_655 S
C663 C664 1.524 . S
C664 C663 1.524 . S
C664 C665 1.397 . S
C664 C669 1.363 . S
C665 H636 0.950 1_655 S
C665 C664 1.397 . S
C665 C666 1.334 . S
C666 H637 0.950 . S
C666 C665 1.334 . S
C666 C667 1.287 . S
C667 C666 1.287 . S
C667 C668 1.524 . S
C667 H670 0.999 . S
C668 H638 0.950 . S
C668 C667 1.524 . S
C668 C669 1.415 . S
C669 H639 0.950 . S
C669 C664 1.363 . S
C669 C668 1.415 . S
H670 C667 0.999 . S
H671 C652 0.913 . S
H672 C690 0.951 . S
H673 C692 0.951 . S
H674 C694 0.950 . S
H675 C695 0.950 . S
H676 C697 0.950 1_554 S
H677 C700 0.950 . S
H678 C701 0.950 . S
H679 C703 0.950 . S
H680 C704 0.950 . S
H681 C705 0.951 . S
H682 C707 0.951 . S
H683 C709 0.950 . S
H684 C710 0.950 . S
H685 C712 0.950 . S
H686 C715 0.950 . S
H687 C716 0.950 . S
H688 C718 0.950 . S
H689 C719 0.950 . S
C690 H672 0.951 . S
C690 C691 1.368 1_565 S
C690 C692 1.388 . S
C691 C690 1.368 1_545 S
C691 C695 1.382 . S
C692 H673 0.951 . S
C692 C690 1.388 . S
C692 C693 1.369 . S
C693 C692 1.369 . S
C693 C694 1.411 1_565 S
C693 C696 1.498 1_565 S
C694 H674 0.950 . S
C694 C693 1.411 1_545 S
C694 C695 1.374 . S
C695 H675 0.950 . S
C695 C691 1.382 . S
C695 C694 1.374 . S
C696 C693 1.498 1_545 S
C696 C697 1.384 1_554 S
C696 C698 1.379 1_545 S
C697 H676 0.950 1_556 S
C697 C696 1.384 1_556 S
C697 C713 1.377 . S
C698 C696 1.379 1_565 S
C698 C699 1.524 . S
C698 C712 1.377 1_554 S
C699 C698 1.524 . S
C699 C700 1.397 . S
C699 C704 1.363 . S
C700 H677 0.950 . S
C700 C699 1.397 . S
C700 C701 1.334 . S
C701 H678 0.950 . S
C701 C700 1.334 . S
C701 C702 1.287 . S
C702 C701 1.287 . S
C702 C703 1.524 . S
C702 H721 0.913 . S
C703 H679 0.950 . S
C703 C702 1.524 . S
C703 C704 1.415 . S
C704 H680 0.950 . S
C704 C699 1.363 . S
C704 C703 1.415 . S
C705 H681 0.951 . S
C705 C706 1.349 1_545 S
C705 C707 1.388 . S
C706 C705 1.349 1_565 S
C706 C710 1.401 . S
C707 H682 0.951 . S
C707 C705 1.388 . S
C707 C708 1.363 1_545 S
C708 C707 1.363 1_565 S
C708 C709 1.416 . S
C708 C711 1.498 . S
C709 H683 0.950 . S
C709 C708 1.416 . S
C709 C710 1.374 . S
C710 H684 0.950 . S
C710 C706 1.401 . S
C710 C709 1.374 . S
C711 C708 1.498 . S
C711 C712 1.398 . S
C711 C713 1.364 1_565 S
C712 H685 0.950 . S
C712 C698 1.377 1_556 S
C712 C711 1.398 . S
C713 C697 1.377 . S
C713 C711 1.364 1_545 S
C713 C714 1.524 . S
C714 C713 1.524 . S
C714 C715 1.397 . S
C714 C719 1.363 . S
C715 H686 0.950 . S
C715 C714 1.397 . S
C715 C716 1.334 . S
C716 H687 0.950 . S
C716 C715 1.334 . S
C716 C717 1.287 . S
C717 C716 1.287 . S
C717 C718 1.524 . S
C717 H720 0.999 . S
C718 H688 0.950 . S
C718 C717 1.524 . S
C718 C719 1.415 . S
C719 H689 0.950 . S
C719 C714 1.363 . S
C719 C718 1.415 . S
H720 C717 0.999 . S
H721 C702 0.913 . S
H722 C740 0.951 . S
H723 C742 0.951 . S
H724 C744 0.950 . S
H725 C745 0.950 . S
H726 C747 0.950 . S
H727 C750 0.950 1_554 S
H728 C751 0.950 . S
H729 C753 0.950 . S
H730 C754 0.950 . S
H731 C755 0.951 . S
H732 C757 0.951 . S
H733 C759 0.950 . S
H734 C760 0.950 . S
H735 C762 0.950 . S
H736 C765 0.950 . S
H737 C766 0.950 . S
H738 C768 0.950 . S
H739 C769 0.950 . S
C740 H722 0.951 . S
C740 C741 1.366 . S
C740 C742 1.388 . S
C741 C740 1.366 . S
C741 C745 1.385 . S
C742 H723 0.951 . S
C742 C740 1.388 . S
C742 C743 1.366 . S
C743 C742 1.366 . S
C743 C744 1.414 . S
C743 C746 1.499 . S
C744 H724 0.950 . S
C744 C743 1.414 . S
C744 C745 1.374 . S
C745 H725 0.950 . S
C745 C741 1.385 . S
C745 C744 1.374 . S
C746 C743 1.499 . S
C746 C747 1.373 . S
C746 C748 1.389 1_554 S
C747 H726 0.950 . S
C747 C746 1.373 . S
C747 C763 1.377 1_554 S
C748 C746 1.389 1_556 S
C748 C749 1.524 . S
C748 C762 1.377 . S
C749 C748 1.524 . S
C749 C750 1.397 . S
C749 C754 1.363 . S
C750 H727 0.950 1_556 S
C750 C749 1.397 . S
C750 C751 1.334 . S
C751 H728 0.950 . S
C751 C750 1.334 . S
C751 C752 1.287 . S
C752 C751 1.287 . S
C752 C753 1.524 . S
C752 H771 0.913 . S
C753 H729 0.950 . S
C753 C752 1.524 . S
C753 C754 1.415 . S
C754 H730 0.950 . S
C754 C749 1.363 . S
C754 C753 1.415 . S
C755 H731 0.951 . S
C755 C756 1.366 . S
C755 C757 1.388 . S
C756 C755 1.366 . S
C756 C760 1.385 . S
C757 H732 0.951 . S
C757 C755 1.388 . S
C757 C758 1.366 . S
C758 C757 1.366 . S
C758 C759 1.414 . S
C758 C761 1.499 . S
C759 H733 0.950 . S
C759 C758 1.414 . S
C759 C760 1.374 . S
C760 H734 0.950 . S
C760 C756 1.385 . S
C760 C759 1.374 . S
C761 C758 1.499 . S
C761 C762 1.373 . S
C761 C763 1.389 . S
C762 H735 0.950 . S
C762 C748 1.377 . S
C762 C761 1.373 . S
C763 C747 1.377 1_556 S
C763 C761 1.389 . S
C763 C764 1.524 1_556 S
C764 C763 1.524 1_554 S
C764 C765 1.397 1_554 S
C764 C769 1.363 . S
C765 H736 0.950 . S
C765 C764 1.397 1_556 S
C765 C766 1.334 . S
C766 H737 0.950 . S
C766 C765 1.334 . S
C766 C767 1.287 1_556 S
C767 C766 1.287 1_554 S
C767 C768 1.524 . S
C767 H770 0.999 . S
C768 H738 0.950 . S
C768 C767 1.524 . S
C768 C769 1.415 . S
C769 H739 0.950 . S
C769 C764 1.363 . S
C769 C768 1.415 . S
H770 C767 0.999 . S
H771 C752 0.913 . S
H772 C790 0.951 . S
H773 C792 0.951 . S
H774 C794 0.950 . S
H775 C795 0.950 . S
H776 C797 0.950 . S
H777 C800 0.950 . S
H778 C801 0.950 . S
H779 C803 0.950 . S
H780 C804 0.950 . S
H781 C805 0.951 . S
H782 C807 0.951 . S
H783 C809 0.950 . S
H784 C810 0.950 . S
H785 C812 0.950 . S
H786 C815 0.950 . S
H787 C816 0.950 . S
H788 C818 0.950 . S
H789 C819 0.950 . S
C790 H772 0.951 . S
C790 C791 1.366 . S
C790 C792 1.388 . S
C791 C790 1.366 . S
C791 C795 1.385 . S
C792 H773 0.951 . S
C792 C790 1.388 . S
C792 C793 1.366 . S
C793 C792 1.366 . S
C793 C794 1.414 . S
C793 C796 1.499 . S
C794 H774 0.950 . S
C794 C793 1.414 . S
C794 C795 1.374 . S
C795 H775 0.950 . S
C795 C791 1.385 . S
C795 C794 1.374 . S
C796 C793 1.499 . S
C796 C797 1.373 . S
C796 C798 1.389 1_554 S
C797 H776 0.950 . S
C797 C796 1.373 . S
C797 C813 1.377 1_554 S
C798 C796 1.389 1_556 S
C798 C799 1.524 . S
C798 C812 1.377 . S
C799 C798 1.524 . S
C799 C800 1.397 1_556 S
C799 C804 1.363 . S
C800 H777 0.950 . S
C800 C799 1.397 1_554 S
C800 C801 1.334 . S
C801 H778 0.950 . S
C801 C800 1.334 . S
C801 C802 1.287 1_554 S
C802 C801 1.287 1_556 S
C802 C803 1.524 . S
C802 H821 0.913 1_556 S
C803 H779 0.950 . S
C803 C802 1.524 . S
C803 C804 1.415 . S
C804 H780 0.950 . S
C804 C799 1.363 . S
C804 C803 1.415 . S
C805 H781 0.951 . S
C805 C806 1.366 . S
C805 C807 1.388 . S
C806 C805 1.366 . S
C806 C810 1.385 . S
C807 H782 0.951 . S
C807 C805 1.388 . S
C807 C808 1.366 . S
C808 C807 1.366 . S
C808 C809 1.414 . S
C808 C811 1.499 . S
C809 H783 0.950 . S
C809 C808 1.414 . S
C809 C810 1.374 . S
C810 H784 0.950 . S
C810 C806 1.385 . S
C810 C809 1.374 . S
C811 C808 1.499 . S
C811 C812 1.373 . S
C811 C813 1.389 . S
C812 H785 0.950 . S
C812 C798 1.377 . S
C812 C811 1.373 . S
C813 C797 1.377 1_556 S
C813 C811 1.389 . S
C813 C814 1.524 . S
C814 C813 1.524 . S
C814 C815 1.397 . S
C814 C819 1.363 1_556 S
C815 H786 0.950 . S
C815 C814 1.397 . S
C815 C816 1.334 . S
C816 H787 0.950 . S
C816 C815 1.334 . S
C816 C817 1.287 . S
C817 C816 1.287 . S
C817 C818 1.524 1_556 S
C817 H820 0.999 . S
C818 H788 0.950 . S
C818 C817 1.524 1_554 S
C818 C819 1.415 . S
C819 H789 0.950 . S
C819 C814 1.363 1_554 S
C819 C818 1.415 . S
H820 C817 0.999 . S
H821 C802 0.913 1_554 S
H822 C840 0.951 . S
H823 C842 0.951 . S
H824 C844 0.950 . S
H825 C845 0.950 . S
H826 C847 0.950 . S
H827 C850 0.950 . S
H828 C851 0.950 . S
H829 C853 0.950 . S
H830 C854 0.950 . S
H831 C855 0.951 . S
H832 C857 0.951 . S
H833 C859 0.950 . S
H834 C860 0.950 . S
H835 C862 0.950 . S
H836 C865 0.950 . S
H837 C866 0.950 . S
H838 C868 0.950 . S
H839 C869 0.950 . S
C840 H822 0.951 . S
C840 C841 1.360 1_455 S
C840 C842 1.388 . S
C841 C840 1.360 1_655 S
C841 C845 1.390 . S
C842 H823 0.951 . S
C842 C840 1.388 . S
C842 C843 1.366 . S
C843 C842 1.366 . S
C843 C844 1.414 1_455 S
C843 C846 1.498 1_455 S
C844 H824 0.950 . S
C844 C843 1.414 1_655 S
C844 C845 1.374 . S
C845 H825 0.950 . S
C845 C841 1.390 . S
C845 C844 1.374 . S
C846 C843 1.498 1_655 S
C846 C847 1.392 . S
C846 C848 1.371 1_655 S
C847 H826 0.950 . S
C847 C846 1.392 . S
C847 C863 1.377 1_554 S
C848 C846 1.371 1_455 S
C848 C849 1.524 . S
C848 C862 1.377 1_554 S
C849 C848 1.524 . S
C849 C850 1.397 . S
C849 C854 1.363 . S
C850 H827 0.950 . S
C850 C849 1.397 . S
C850 C851 1.334 . S
C851 H828 0.950 . S
C851 C850 1.334 . S
C851 C852 1.287 . S
C852 C851 1.287 . S
C852 C853 1.524 . S
C852 H871 0.913 . S
C853 H829 0.950 . S
C853 C852 1.524 . S
C853 C854 1.415 . S
C854 H830 0.950 . S
C854 C849 1.363 . S
C854 C853 1.415 . S
C855 H831 0.951 . S
C855 C856 1.405 . S
C855 C857 1.388 . S
C856 C855 1.405 . S
C856 C860 1.346 1_655 S
C857 H832 0.951 . S
C857 C855 1.388 . S
C857 C858 1.366 . S
C858 C857 1.366 . S
C858 C859 1.414 1_655 S
C858 C861 1.500 . S
C859 H833 0.950 . S
C859 C858 1.414 1_455 S
C859 C860 1.374 . S
C860 H834 0.950 . S
C860 C856 1.346 1_455 S
C860 C859 1.374 . S
C861 C858 1.500 . S
C861 C862 1.343 1_655 S
C861 C863 1.419 . S
C862 H835 0.950 . S
C862 C848 1.377 1_556 S
C862 C861 1.343 1_455 S
C863 C847 1.377 1_556 S
C863 C861 1.419 . S
C863 C864 1.524 . S
C864 C863 1.524 . S
C864 C865 1.397 . S
C864 C869 1.363 . S
C865 H836 0.950 . S
C865 C864 1.397 . S
C865 C866 1.334 . S
C866 H837 0.950 . S
C866 C865 1.334 . S
C866 C867 1.287 . S
C867 C866 1.287 . S
C867 C868 1.524 . S
C867 H870 0.999 . S
C868 H838 0.950 . S
C868 C867 1.524 . S
C868 C869 1.415 . S
C869 H839 0.950 . S
C869 C864 1.363 . S
C869 C868 1.415 . S
H870 C867 0.999 . S
H871 C852 0.913 . S
H872 C890 0.951 . S
H873 C892 0.951 . S
H874 C894 0.950 . S
H875 C895 0.950 . S
H876 C897 0.950 . S
H877 C900 0.950 . S
H878 C901 0.950 . S
H879 C903 0.950 . S
H880 C904 0.950 . S
H881 C905 0.951 . S
H882 C907 0.951 . S
H883 C909 0.950 1_455 S
H884 C910 0.950 1_455 S
H885 C912 0.950 . S
H886 C915 0.950 . S
H887 C916 0.950 . S
H888 C918 0.950 . S
H889 C919 0.950 . S
C890 H872 0.951 . S
C890 C891 1.366 . S
C890 C892 1.388 . S
C891 C890 1.366 . S
C891 C895 1.385 1_455 S
C892 H873 0.951 . S
C892 C890 1.388 . S
C892 C893 1.366 1_455 S
C893 C892 1.366 1_655 S
C893 C894 1.414 . S
C893 C896 1.499 . S
C894 H874 0.950 . S
C894 C893 1.414 . S
C894 C895 1.374 . S
C895 H875 0.950 . S
C895 C891 1.385 1_655 S
C895 C894 1.374 . S
C896 C893 1.499 . S
C896 C897 1.373 . S
C896 C898 1.389 . S
C897 H876 0.950 . S
C897 C896 1.373 . S
C897 C913 1.377 . S
C898 C896 1.389 . S
C898 C899 1.524 1_655 S
C898 C912 1.377 . S
C899 C898 1.524 1_455 S
C899 C900 1.397 1_455 S
C899 C904 1.363 . S
C900 H877 0.950 . S
C900 C899 1.397 1_655 S
C900 C901 1.334 . S
C901 H878 0.950 . S
C901 C900 1.334 . S
C901 C902 1.287 1_655 S
C902 C901 1.287 1_455 S
C902 C903 1.524 . S
C902 H921 0.913 . S
C903 H879 0.950 . S
C903 C902 1.524 . S
C903 C904 1.415 . S
C904 H880 0.950 . S
C904 C899 1.363 . S
C904 C903 1.415 . S
C905 H881 0.951 . S
C905 C906 1.366 . S
C905 C907 1.388 . S
C906 C905 1.366 . S
C906 C910 1.385 . S
C907 H882 0.951 . S
C907 C905 1.388 . S
C907 C908 1.366 . S
C908 C907 1.366 . S
C908 C909 1.414 . S
C908 C911 1.499 . S
C909 H883 0.950 1_655 S
C909 C908 1.414 . S
C909 C910 1.374 . S
C910 H884 0.950 1_655 S
C910 C906 1.385 . S
C910 C909 1.374 . S
C911 C908 1.499 . S
C911 C912 1.373 . S
C911 C913 1.389 . S
C912 H885 0.950 . S
C912 C898 1.377 . S
C912 C911 1.373 . S
C913 C897 1.377 . S
C913 C911 1.389 . S
C913 C914 1.524 . S
C914 C913 1.524 . S
C914 C915 1.397 . S
C914 C919 1.363 . S
C915 H886 0.950 . S
C915 C914 1.397 . S
C915 C916 1.334 . S
C916 H887 0.950 . S
C916 C915 1.334 . S
C916 C917 1.287 . S
C917 C916 1.287 . S
C917 C918 1.524 . S
C917 H920 0.999 . S
C918 H888 0.950 . S
C918 C917 1.524 . S
C918 C919 1.415 . S
C919 H889 0.950 . S
C919 C914 1.363 . S
C919 C918 1.415 . S
H920 C917 0.999 . S
H921 C902 0.913 . S
H922 C940 0.950 . S
H923 C942 0.951 . S
H924 C944 0.950 . S
H925 C945 0.958 . S
H926 C947 0.950 . S
H927 C950 0.950 . S
H928 C951 0.950 . S
H929 C953 0.950 . S
H930 C954 0.950 . S
H931 C955 0.951 . S
H932 C957 0.951 . S
H933 C959 0.950 . S
H934 C960 0.950 . S
H935 C962 0.950 1_545 S
H936 C965 0.950 . S
H937 C966 0.950 . S
H938 C968 0.950 . S
H939 C969 0.950 . S
C940 H922 0.950 . S
C940 C941 1.363 1_565 S
C940 C942 1.393 . S
C941 C940 1.363 1_545 S
C941 C945 1.388 . S
C942 H923 0.951 . S
C942 C940 1.393 . S
C942 C943 1.366 . S
C943 C942 1.366 . S
C943 C944 1.414 . S
C943 C946 1.499 . S
C944 H924 0.950 . S
C944 C943 1.414 . S
C944 C945 1.367 1_565 S
C945 H925 0.958 . S
C945 C941 1.388 . S
C945 C944 1.367 1_545 S
C946 C943 1.499 . S
C946 C947 1.373 . S
C946 C948 1.389 1_565 S
C947 H926 0.950 . S
C947 C946 1.373 . S
C947 C963 1.377 . S
C948 C946 1.389 1_545 S
C948 C949 1.524 . S
C948 C962 1.377 1_545 S
C949 C948 1.524 . S
C949 C950 1.397 . S
C949 C954 1.363 . S
C950 H927 0.950 . S
C950 C949 1.397 . S
C950 C951 1.334 . S
C951 H928 0.950 . S
C951 C950 1.334 . S
C951 C952 1.287 . S
C952 C951 1.287 . S
C952 C953 1.524 . S
C952 H971 0.913 . S
C953 H929 0.950 . S
C953 C952 1.524 . S
C953 C954 1.415 . S
C954 H930 0.950 . S
C954 C949 1.363 . S
C954 C953 1.415 . S
C955 H931 0.951 . S
C955 C956 1.366 . S
C955 C957 1.388 . S
C956 C955 1.366 . S
C956 C960 1.385 . S
C957 H932 0.951 . S
C957 C955 1.388 . S
C957 C958 1.366 . S
C958 C957 1.366 . S
C958 C959 1.414 . S
C958 C961 1.499 . S
C959 H933 0.950 . S
C959 C958 1.414 . S
C959 C960 1.374 . S
C960 H934 0.950 . S
C960 C956 1.385 . S
C960 C959 1.374 . S
C961 C958 1.499 . S
C961 C962 1.373 . S
C961 C963 1.389 . S
C962 H935 0.950 1_565 S
C962 C948 1.377 1_565 S
C962 C961 1.373 . S
C963 C947 1.377 . S
C963 C961 1.389 . S
C963 C964 1.524 . S
C964 C963 1.524 . S
C964 C965 1.397 . S
C964 C969 1.363 . S
C965 H936 0.950 . S
C965 C964 1.397 . S
C965 C966 1.334 . S
C966 H937 0.950 . S
C966 C965 1.334 . S
C966 C967 1.287 . S
C967 C966 1.287 . S
C967 C968 1.524 . S
C967 H970 0.999 . S
C968 H938 0.950 . S
C968 C967 1.524 . S
C968 C969 1.415 . S
C969 H939 0.950 . S
C969 C964 1.363 . S
C969 C968 1.415 . S
H970 C967 0.999 . S
H971 C952 0.913 . S
H972 C990 0.951 . S
H973 C992 0.951 . S
H974 C994 0.950 . S
H975 C995 0.950 . S
H976 C997 0.950 . S
H977 C1000 0.950 . S
H978 C1001 0.950 . S
H979 C1003 0.950 . S
H980 C1004 0.950 . S
H981 C1005 0.951 . S
H982 C1007 0.951 . S
H983 C1009 0.950 . S
H984 C1010 0.950 . S
H985 C1012 0.950 . S
H986 C1015 0.950 . S
H987 C1016 0.950 . S
H988 C1018 0.950 . S
H989 C1019 0.950 . S
C990 H972 0.951 . S
C990 C991 1.366 . S
C990 C992 1.388 . S
C991 C990 1.366 . S
C991 C995 1.385 . S
C992 H973 0.951 . S
C992 C990 1.388 . S
C992 C993 1.366 . S
C993 C992 1.366 . S
C993 C994 1.414 . S
C993 C996 1.499 . S
C994 H974 0.950 . S
C994 C993 1.414 . S
C994 C995 1.374 . S
C995 H975 0.950 . S
C995 C991 1.385 . S
C995 C994 1.374 . S
C996 C993 1.499 . S
C996 C997 1.373 . S
C996 C998 1.389 . S
C997 H976 0.950 . S
C997 C996 1.373 . S
C997 C1013 1.377 . S
C998 C996 1.389 . S
C998 C999 1.524 . S
C998 C1012 1.377 . S
C999 C998 1.524 . S
C999 C1000 1.397 . S
C999 C1004 1.363 . S
C1000 H977 0.950 . S
C1000 C999 1.397 . S
C1000 C1001 1.334 . S
C1001 H978 0.950 . S
C1001 C1000 1.334 . S
C1001 C1002 1.287 . S
C1002 C1001 1.287 . S
C1002 C1003 1.524 . S
C1002 H1021 0.913 . S
C1003 H979 0.950 . S
C1003 C1002 1.524 . S
C1003 C1004 1.415 . S
C1004 H980 0.950 . S
C1004 C999 1.363 . S
C1004 C1003 1.415 . S
C1005 H981 0.951 . S
C1005 C1006 1.366 . S
C1005 C1007 1.388 . S
C1006 C1005 1.366 . S
C1006 C1010 1.385 . S
C1007 H982 0.951 . S
C1007 C1005 1.388 . S
C1007 C1008 1.366 . S
C1008 C1007 1.366 . S
C1008 C1009 1.414 . S
C1008 C1011 1.499 . S
C1009 H983 0.950 . S
C1009 C1008 1.414 . S
C1009 C1010 1.374 . S
C1010 H984 0.950 . S
C1010 C1006 1.385 . S
C1010 C1009 1.374 . S
C1011 C1008 1.499 . S
C1011 C1012 1.373 . S
C1011 C1013 1.389 . S
C1012 H985 0.950 . S
C1012 C998 1.377 . S
C1012 C1011 1.373 . S
C1013 C997 1.377 . S
C1013 C1011 1.389 . S
C1013 C1014 1.524 . S
C1014 C1013 1.524 . S
C1014 C1015 1.397 . S
C1014 C1019 1.363 . S
C1015 H986 0.950 . S
C1015 C1014 1.397 . S
C1015 C1016 1.334 . S
C1016 H987 0.950 . S
C1016 C1015 1.334 . S
C1016 C1017 1.287 . S
C1017 C1016 1.287 . S
C1017 C1018 1.524 . S
C1017 H1020 0.999 . S
C1018 H988 0.950 . S
C1018 C1017 1.524 . S
C1018 C1019 1.415 . S
C1019 H989 0.950 . S
C1019 C1014 1.363 . S
C1019 C1018 1.415 . S
H1020 C1017 0.999 . S
H1021 C1002 0.913 . S
H1022 C1040 0.951 . S
H1023 C1042 0.951 . S
H1024 C1044 0.950 . S
H1025 C1045 0.950 . S
H1026 C1047 0.950 . S
H1027 C1050 0.950 . S
H1028 C1051 0.950 . S
H1029 C1053 0.950 . S
H1030 C1054 0.950 . S
H1031 C1055 0.951 . S
H1032 C1057 0.951 . S
H1033 C1059 0.950 . S
H1034 C1060 0.950 . S
H1035 C1062 0.950 . S
H1036 C1065 0.950 . S
H1037 C1066 0.950 . S
H1038 C1068 0.950 . S
H1039 C1069 0.950 . S
C1040 H1022 0.951 . S
C1040 C1041 1.366 . S
C1040 C1042 1.388 . S
C1041 C1040 1.366 . S
C1041 C1045 1.385 . S
C1042 H1023 0.951 . S
C1042 C1040 1.388 . S
C1042 C1043 1.366 . S
C1043 C1042 1.366 . S
C1043 C1044 1.414 . S
C1043 C1046 1.499 . S
C1044 H1024 0.950 . S
C1044 C1043 1.414 . S
C1044 C1045 1.374 . S
C1045 H1025 0.950 . S
C1045 C1041 1.385 . S
C1045 C1044 1.374 . S
C1046 C1043 1.499 . S
C1046 C1047 1.373 . S
C1046 C1048 1.389 . S
C1047 H1026 0.950 . S
C1047 C1046 1.373 . S
C1047 C1063 1.377 . S
C1048 C1046 1.389 . S
C1048 C1049 1.524 . S
C1048 C1062 1.377 . S
C1049 C1048 1.524 . S
C1049 C1050 1.397 . S
C1049 C1054 1.363 . S
C1050 H1027 0.950 . S
C1050 C1049 1.397 . S
C1050 C1051 1.334 . S
C1051 H1028 0.950 . S
C1051 C1050 1.334 . S
C1051 C1052 1.287 . S
C1052 C1051 1.287 . S
C1052 C1053 1.524 . S
C1052 H1071 0.913 . S
C1053 H1029 0.950 . S
C1053 C1052 1.524 . S
C1053 C1054 1.415 . S
C1054 H1030 0.950 . S
C1054 C1049 1.363 . S
C1054 C1053 1.415 . S
C1055 H1031 0.951 . S
C1055 C1056 1.366 . S
C1055 C1057 1.388 . S
C1056 C1055 1.366 . S
C1056 C1060 1.385 . S
C1057 H1032 0.951 . S
C1057 C1055 1.388 . S
C1057 C1058 1.366 . S
C1058 C1057 1.366 . S
C1058 C1059 1.414 . S
C1058 C1061 1.499 . S
C1059 H1033 0.950 . S
C1059 C1058 1.414 . S
C1059 C1060 1.374 . S
C1060 H1034 0.950 . S
C1060 C1056 1.385 . S
C1060 C1059 1.374 . S
C1061 C1058 1.499 . S
C1061 C1062 1.373 . S
C1061 C1063 1.389 . S
C1062 H1035 0.950 . S
C1062 C1048 1.377 . S
C1062 C1061 1.373 . S
C1063 C1047 1.377 . S
C1063 C1061 1.389 . S
C1063 C1064 1.524 . S
C1064 C1063 1.524 . S
C1064 C1065 1.397 . S
C1064 C1069 1.363 . S
C1065 H1036 0.950 . S
C1065 C1064 1.397 . S
C1065 C1066 1.334 . S
C1066 H1037 0.950 . S
C1066 C1065 1.334 . S
C1066 C1067 1.287 . S
C1067 C1066 1.287 . S
C1067 C1068 1.524 . S
C1067 H1070 0.999 . S
C1068 H1038 0.950 . S
C1068 C1067 1.524 . S
C1068 C1069 1.415 . S
C1069 H1039 0.950 . S
C1069 C1064 1.363 . S
C1069 C1068 1.415 . S
H1070 C1067 0.999 . S
H1071 C1052 0.913 . S
H1072 C1090 0.951 . S
H1073 C1092 0.951 . S
H1074 C1094 0.950 . S
H1075 C1095 0.950 . S
H1076 C1097 0.950 . S
H1077 C1100 0.950 . S
H1078 C1101 0.950 . S
H1079 C1103 0.950 . S
H1080 C1104 0.950 . S
H1081 C1105 0.951 . S
H1082 C1107 0.951 . S
H1083 C1109 0.950 1_655 S
H1084 C1110 0.950 1_655 S
H1085 C1112 0.972 . S
H1086 C1115 0.950 . S
H1087 C1116 0.950 . S
H1088 C1118 0.950 . S
H1089 C1119 0.950 . S
C1090 H1072 0.951 . S
C1090 C1091 1.366 . S
C1090 C1092 1.388 . S
C1091 C1090 1.366 . S
C1091 C1095 1.385 1_655 S
C1092 H1073 0.951 . S
C1092 C1090 1.388 . S
C1092 C1093 1.366 1_655 S
C1093 C1092 1.366 1_455 S
C1093 C1094 1.414 . S
C1093 C1096 1.499 . S
C1094 H1074 0.950 . S
C1094 C1093 1.414 . S
C1094 C1095 1.374 . S
C1095 H1075 0.950 . S
C1095 C1091 1.385 1_455 S
C1095 C1094 1.374 . S
C1096 C1093 1.499 . S
C1096 C1097 1.373 . S
C1096 C1098 1.389 1_454 S
C1097 H1076 0.950 . S
C1097 C1096 1.373 . S
C1097 C1113 1.377 1_554 S
C1098 C1096 1.389 1_656 S
C1098 C1099 1.524 . S
C1098 C1112 1.382 . S
C1099 C1098 1.524 . S
C1099 C1100 1.397 . S
C1099 C1104 1.363 . S
C1100 H1077 0.950 . S
C1100 C1099 1.397 . S
C1100 C1101 1.334 . S
C1101 H1078 0.950 . S
C1101 C1100 1.334 . S
C1101 C1102 1.287 . S
C1102 C1101 1.287 . S
C1102 C1103 1.524 . S
C1102 H1121 0.913 . S
C1103 H1079 0.950 . S
C1103 C1102 1.524 . S
C1103 C1104 1.415 . S
C1104 H1080 0.950 . S
C1104 C1099 1.363 . S
C1104 C1103 1.415 . S
C1105 H1081 0.951 . S
C1105 C1106 1.366 . S
C1105 C1107 1.388 . S
C1106 C1105 1.366 . S
C1106 C1110 1.385 . S
C1107 H1082 0.951 . S
C1107 C1105 1.388 . S
C1107 C1108 1.366 . S
C1108 C1107 1.366 . S
C1108 C1109 1.414 . S
C1108 C1111 1.499 . S
C1109 H1083 0.950 1_455 S
C1109 C1108 1.414 . S
C1109 C1110 1.374 . S
C1110 H1084 0.950 1_455 S
C1110 C1106 1.385 . S
C1110 C1109 1.374 . S
C1111 C1108 1.499 . S
C1111 C1112 1.347 1_455 S
C1111 C1113 1.389 . S
C1112 H1085 0.972 . S
C1112 C1098 1.382 . S
C1112 C1111 1.347 1_655 S
C1113 C1097 1.377 1_556 S
C1113 C1111 1.389 . S
C1113 C1114 1.524 1_556 S
C1114 C1113 1.524 1_554 S
C1114 C1115 1.397 . S
C1114 C1119 1.363 . S
C1115 H1086 0.950 . S
C1115 C1114 1.397 . S
C1115 C1116 1.334 . S
C1116 H1087 0.950 . S
C1116 C1115 1.334 . S
C1116 C1117 1.287 . S
C1117 C1116 1.287 . S
C1117 C1118 1.524 . S
C1117 H1120 0.999 . S
C1118 H1088 0.950 . S
C1118 C1117 1.524 . S
C1118 C1119 1.415 . S
C1119 H1089 0.950 . S
C1119 C1114 1.363 . S
C1119 C1118 1.415 . S
H1120 C1117 0.999 . S
H1121 C1102 0.913 . S
H1122 C1140 0.951 . S
H1123 C1142 0.951 . S
H1124 C1144 0.950 1_556 S
H1125 C1145 0.950 . S
H1126 C1147 0.950 . S
H1127 C1150 0.950 . S
H1128 C1151 0.950 . S
H1129 C1153 0.950 . S
H1130 C1154 0.950 . S
H1131 C1155 0.951 . S
H1132 C1157 0.951 . S
H1133 C1159 0.950 . S
H1134 C1160 0.950 . S
H1135 C1162 0.950 1_565 S
H1136 C1165 0.950 . S
H1137 C1166 0.950 . S
H1138 C1168 0.950 . S
H1139 C1169 0.950 . S
C1140 H1122 0.951 . S
C1140 C1141 1.366 1_545 S
C1140 C1142 1.388 . S
C1141 C1140 1.366 1_565 S
C1141 C1145 1.385 . S
C1142 H1123 0.951 . S
C1142 C1140 1.388 . S
C1142 C1143 1.366 . S
C1143 C1142 1.366 . S
C1143 C1144 1.420 . S
C1143 C1146 1.499 . S
C1144 H1124 0.950 1_554 S
C1144 C1143 1.420 . S
C1144 C1145 1.369 1_545 S
C1145 H1125 0.950 . S
C1145 C1141 1.385 . S
C1145 C1144 1.369 1_565 S
C1146 C1143 1.499 . S
C1146 C1147 1.373 1_554 S
C1146 C1148 1.363 1_545 S
C1147 H1126 0.950 . S
C1147 C1146 1.373 1_556 S
C1147 C1163 1.377 . S
C1148 C1146 1.363 1_565 S
C1148 C1149 1.571 . S
C1148 C1162 1.364 1_565 S
C1149 C1148 1.571 . S
C1149 C1150 1.397 . S
C1149 C1154 1.363 . S
C1150 H1127 0.950 . S
C1150 C1149 1.397 . S
C1150 C1151 1.334 . S
C1151 H1128 0.950 . S
C1151 C1150 1.334 . S
C1151 C1152 1.287 . S
C1152 C1151 1.287 . S
C1152 C1153 1.524 . S
C1152 H1171 0.913 . S
C1153 H1129 0.950 . S
C1153 C1152 1.524 . S
C1153 C1154 1.415 . S
C1154 H1130 0.950 . S
C1154 C1149 1.363 . S
C1154 C1153 1.415 . S
C1155 H1131 0.951 . S
C1155 C1156 1.366 . S
C1155 C1157 1.388 . S
C1156 C1155 1.366 . S
C1156 C1160 1.385 . S
C1157 H1132 0.951 . S
C1157 C1155 1.388 . S
C1157 C1158 1.366 . S
C1158 C1157 1.366 . S
C1158 C1159 1.414 . S
C1158 C1161 1.499 . S
C1159 H1133 0.950 . S
C1159 C1158 1.414 . S
C1159 C1160 1.374 . S
C1160 H1134 0.950 . S
C1160 C1156 1.385 . S
C1160 C1159 1.374 . S
C1161 C1158 1.499 . S
C1161 C1162 1.373 1_556 S
C1161 C1163 1.389 . S
C1162 H1135 0.950 1_545 S
C1162 C1148 1.364 1_545 S
C1162 C1161 1.373 1_554 S
C1163 C1147 1.377 . S
C1163 C1161 1.389 . S
C1163 C1164 1.524 . S
C1164 C1163 1.524 . S
C1164 C1165 1.397 . S
C1164 C1169 1.363 . S
C1165 H1136 0.950 . S
C1165 C1164 1.397 . S
C1165 C1166 1.334 . S
C1166 H1137 0.950 . S
C1166 C1165 1.334 . S
C1166 C1167 1.287 . S
C1167 C1166 1.287 . S
C1167 C1168 1.524 . S
C1167 H1170 0.999 . S
C1168 H1138 0.950 . S
C1168 C1167 1.524 . S
C1168 C1169 1.415 . S
C1169 H1139 0.950 . S
C1169 C1164 1.363 . S
C1169 C1168 1.415 . S
H1170 C1167 0.999 . S
H1171 C1152 0.913 . S
H1172 C1190 0.951 . S
H1173 C1192 0.951 . S
H1174 C1194 0.950 . S
H1175 C1195 0.950 . S
H1176 C1197 0.950 . S
H1177 C1200 0.950 . S
H1178 C1201 0.950 . S
H1179 C1203 0.950 . S
H1180 C1204 0.950 . S
H1181 C1205 0.951 . S
H1182 C1207 0.951 . S
H1183 C1209 0.950 . S
H1184 C1210 0.950 . S
H1185 C1212 0.950 . S
H1186 C1215 0.950 . S
H1187 C1216 0.950 . S
H1188 C1218 0.950 . S
H1189 C1219 0.950 . S
C1190 H1172 0.951 . S
C1190 C1191 1.366 . S
C1190 C1192 1.388 . S
C1191 C1190 1.366 . S
C1191 C1195 1.385 . S
C1192 H1173 0.951 . S
C1192 C1190 1.388 . S
C1192 C1193 1.366 . S
C1193 C1192 1.366 . S
C1193 C1194 1.414 . S
C1193 C1196 1.499 . S
C1194 H1174 0.950 . S
C1194 C1193 1.414 . S
C1194 C1195 1.374 . S
C1195 H1175 0.950 . S
C1195 C1191 1.385 . S
C1195 C1194 1.374 . S
C1196 C1193 1.499 . S
C1196 C1197 1.373 . S
C1196 C1198 1.389 1_554 S
C1197 H1176 0.950 . S
C1197 C1196 1.373 . S
C1197 C1213 1.377 . S
C1198 C1196 1.389 1_556 S
C1198 C1199 1.524 . S
C1198 C1212 1.377 . S
C1199 C1198 1.524 . S
C1199 C1200 1.397 . S
C1199 C1204 1.363 . S
C1200 H1177 0.950 . S
C1200 C1199 1.397 . S
C1200 C1201 1.334 . S
C1201 H1178 0.950 . S
C1201 C1200 1.334 . S
C1201 C1202 1.287 . S
C1202 C1201 1.287 . S
C1202 C1203 1.524 . S
C1202 H1221 0.913 . S
C1203 H1179 0.950 . S
C1203 C1202 1.524 . S
C1203 C1204 1.415 . S
C1204 H1180 0.950 . S
C1204 C1199 1.363 . S
C1204 C1203 1.415 . S
C1205 H1181 0.951 . S
C1205 C1206 1.366 . S
C1205 C1207 1.388 . S
C1206 C1205 1.366 . S
C1206 C1210 1.385 . S
C1207 H1182 0.951 . S
C1207 C1205 1.388 . S
C1207 C1208 1.366 . S
C1208 C1207 1.366 . S
C1208 C1209 1.414 . S
C1208 C1211 1.499 . S
C1209 H1183 0.950 . S
C1209 C1208 1.414 . S
C1209 C1210 1.374 . S
C1210 H1184 0.950 . S
C1210 C1206 1.385 . S
C1210 C1209 1.374 . S
C1211 C1208 1.499 . S
C1211 C1212 1.373 . S
C1211 C1213 1.389 1_556 S
C1212 H1185 0.950 . S
C1212 C1198 1.377 . S
C1212 C1211 1.373 . S
C1213 C1197 1.377 . S
C1213 C1211 1.389 1_554 S
C1213 C1214 1.524 . S
C1214 C1213 1.524 . S
C1214 C1215 1.397 . S
C1214 C1219 1.363 . S
C1215 H1186 0.950 . S
C1215 C1214 1.397 . S
C1215 C1216 1.334 . S
C1216 H1187 0.950 . S
C1216 C1215 1.334 . S
C1216 C1217 1.287 . S
C1217 C1216 1.287 . S
C1217 C1218 1.524 . S
C1217 H1220 0.999 . S
C1218 H1188 0.950 . S
C1218 C1217 1.524 . S
C1218 C1219 1.415 . S
C1219 H1189 0.950 . S
C1219 C1214 1.363 . S
C1219 C1218 1.415 . S
H1220 C1217 0.999 . S
H1221 C1202 0.913 . S
H1222 C1240 0.951 . S
H1223 C1242 0.951 . S
H1224 C1244 0.950 . S
H1225 C1245 0.950 . S
H1226 C1247 0.950 . S
H1227 C1250 0.950 . S
H1228 C1251 0.950 . S
H1229 C1253 0.950 . S
H1230 C1254 0.950 . S
H1231 C1255 0.951 . S
H1232 C1257 0.951 . S
H1233 C1259 0.950 . S
H1234 C1260 0.950 . S
H1235 C1262 0.950 . S
H1236 C1265 0.950 . S
H1237 C1266 0.950 . S
H1238 C1268 0.950 . S
H1239 C1269 0.950 . S
C1240 H1222 0.951 . S
C1240 C1241 1.366 . S
C1240 C1242 1.388 . S
C1241 C1240 1.366 . S
C1241 C1245 1.385 . S
C1242 H1223 0.951 . S
C1242 C1240 1.388 . S
C1242 C1243 1.366 . S
C1243 C1242 1.366 . S
C1243 C1244 1.414 . S
C1243 C1246 1.499 . S
C1244 H1224 0.950 . S
C1244 C1243 1.414 . S
C1244 C1245 1.374 . S
C1245 H1225 0.950 . S
C1245 C1241 1.385 . S
C1245 C1244 1.374 . S
C1246 C1243 1.499 . S
C1246 C1247 1.373 1_554 S
C1246 C1248 1.389 . S
C1247 H1226 0.950 . S
C1247 C1246 1.373 1_556 S
C1247 C1263 1.377 . S
C1248 C1246 1.389 . S
C1248 C1249 1.524 . S
C1248 C1262 1.377 . S
C1249 C1248 1.524 . S
C1249 C1250 1.397 . S
C1249 C1254 1.363 . S
C1250 H1227 0.950 . S
C1250 C1249 1.397 . S
C1250 C1251 1.334 . S
C1251 H1228 0.950 . S
C1251 C1250 1.334 . S
C1251 C1252 1.287 . S
C1252 C1251 1.287 . S
C1252 C1253 1.524 . S
C1252 H1271 0.913 . S
C1253 H1229 0.950 . S
C1253 C1252 1.524 . S
C1253 C1254 1.415 . S
C1254 H1230 0.950 . S
C1254 C1249 1.363 . S
C1254 C1253 1.415 . S
C1255 H1231 0.951 . S
C1255 C1256 1.366 . S
C1255 C1257 1.388 . S
C1256 C1255 1.366 . S
C1256 C1260 1.385 . S
C1257 H1232 0.951 . S
C1257 C1255 1.388 . S
C1257 C1258 1.366 . S
C1258 C1257 1.366 . S
C1258 C1259 1.414 . S
C1258 C1261 1.499 . S
C1259 H1233 0.950 . S
C1259 C1258 1.414 . S
C1259 C1260 1.374 . S
C1260 H1234 0.950 . S
C1260 C1256 1.385 . S
C1260 C1259 1.374 . S
C1261 C1258 1.499 . S
C1261 C1262 1.373 1_556 S
C1261 C1263 1.389 . S
C1262 H1235 0.950 . S
C1262 C1248 1.377 . S
C1262 C1261 1.373 1_554 S
C1263 C1247 1.377 . S
C1263 C1261 1.389 . S
C1263 C1264 1.524 . S
C1264 C1263 1.524 . S
C1264 C1265 1.397 . S
C1264 C1269 1.363 . S
C1265 H1236 0.950 . S
C1265 C1264 1.397 . S
C1265 C1266 1.334 . S
C1266 H1237 0.950 . S
C1266 C1265 1.334 . S
C1266 C1267 1.287 . S
C1267 C1266 1.287 . S
C1267 C1268 1.524 . S
C1267 H1270 0.999 . S
C1268 H1238 0.950 . S
C1268 C1267 1.524 . S
C1268 C1269 1.415 . S
C1269 H1239 0.950 . S
C1269 C1264 1.363 . S
C1269 C1268 1.415 . S
H1270 C1267 0.999 . S
H1271 C1252 0.913 . S
H1272 C1290 0.951 . S
H1273 C1292 0.951 . S
H1274 C1294 0.950 . S
H1275 C1295 0.950 . S
H1276 C1297 0.950 . S
H1277 C1300 0.950 1_655 S
H1278 C1301 0.923 1_655 S
H1279 C1303 0.950 . S
H1280 C1304 0.950 . S
H1281 C1305 0.951 . S
H1282 C1307 0.951 . S
H1283 C1309 0.950 . S
H1284 C1310 0.950 . S
H1285 C1312 0.950 . S
H1286 C1315 0.950 . S
H1287 C1316 0.972 . S
H1288 C1318 0.950 . S
H1289 C1319 0.950 . S
C1290 H1272 0.951 . S
C1290 C1291 1.366 . S
C1290 C1292 1.388 . S
C1291 C1290 1.366 . S
C1291 C1295 1.385 1_455 S
C1292 H1273 0.951 . S
C1292 C1290 1.388 . S
C1292 C1293 1.366 . S
C1293 C1292 1.366 . S
C1293 C1294 1.414 1_455 S
C1293 C1296 1.499 . S
C1294 H1274 0.950 . S
C1294 C1293 1.414 1_655 S
C1294 C1295 1.374 . S
C1295 H1275 0.950 . S
C1295 C1291 1.385 1_655 S
C1295 C1294 1.374 . S
C1296 C1293 1.499 . S
C1296 C1297 1.373 1_455 S
C1296 C1298 1.389 . S
C1297 H1276 0.950 . S
C1297 C1296 1.373 1_655 S
C1297 C1313 1.377 . S
C1298 C1296 1.389 . S
C1298 C1299 1.524 . S
C1298 C1312 1.377 . S
C1299 C1298 1.524 . S
C1299 C1300 1.397 . S
C1299 C1304 1.363 . S
C1300 H1277 0.950 1_455 S
C1300 C1299 1.397 . S
C1300 C1301 1.334 . S
C1301 H1278 0.923 1_455 S
C1301 C1300 1.334 . S
C1301 C1302 1.287 . S
C1302 C1301 1.287 . S
C1302 C1303 1.524 . S
C1302 H1321 0.913 . S
C1303 H1279 0.950 . S
C1303 C1302 1.524 . S
C1303 C1304 1.415 . S
C1304 H1280 0.950 . S
C1304 C1299 1.363 . S
C1304 C1303 1.415 . S
C1305 H1281 0.951 . S
C1305 C1306 1.366 1_655 S
C1305 C1307 1.388 . S
C1306 C1305 1.366 1_455 S
C1306 C1310 1.385 . S
C1307 H1282 0.951 . S
C1307 C1305 1.388 . S
C1307 C1308 1.366 1_655 S
C1308 C1307 1.366 1_455 S
C1308 C1309 1.414 . S
C1308 C1311 1.499 . S
C1309 H1283 0.950 . S
C1309 C1308 1.414 . S
C1309 C1310 1.374 . S
C1310 H1284 0.950 . S
C1310 C1306 1.385 . S
C1310 C1309 1.374 . S
C1311 C1308 1.499 . S
C1311 C1312 1.373 . S
C1311 C1313 1.389 1_455 S
C1312 H1285 0.950 . S
C1312 C1298 1.377 . S
C1312 C1311 1.373 . S
C1313 C1297 1.377 . S
C1313 C1311 1.389 1_655 S
C1313 C1314 1.524 . S
C1314 C1313 1.524 . S
C1314 C1315 1.397 1_655 S
C1314 C1319 1.363 . S
C1315 H1286 0.950 . S
C1315 C1314 1.397 1_455 S
C1315 C1316 1.342 . S
C1316 H1287 0.972 . S
C1316 C1315 1.342 . S
C1316 C1317 1.257 1_455 S
C1317 C1316 1.257 1_655 S
C1317 C1318 1.524 . S
C1317 H1320 0.999 . S
C1318 H1288 0.950 . S
C1318 C1317 1.524 . S
C1318 C1319 1.415 . S
C1319 H1289 0.950 . S
C1319 C1314 1.363 . S
C1319 C1318 1.415 . S
H1320 C1317 0.999 . S
H1321 C1302 0.913 . S
H1322 C1340 0.951 . S
H1323 C1342 0.951 . S
H1324 C1344 0.950 . S
H1325 C1345 0.950 . S
H1326 C1347 0.950 . S
H1327 C1350 0.950 . S
H1328 C1351 0.950 . S
H1329 C1353 0.950 . S
H1330 C1354 0.950 . S
H1331 C1355 0.951 . S
H1332 C1357 0.951 . S
H1333 C1359 0.939 1_565 S
H1334 C1360 0.950 1_565 S
H1335 C1362 0.950 . S
H1336 C1365 0.950 . S
H1337 C1366 0.950 . S
H1338 C1368 0.950 . S
H1339 C1369 0.950 . S
C1340 H1322 0.951 . S
C1340 C1341 1.366 1_565 S
C1340 C1342 1.388 . S
C1341 C1340 1.366 1_545 S
C1341 C1345 1.385 . S
C1342 H1323 0.951 . S
C1342 C1340 1.388 . S
C1342 C1343 1.366 1_565 S
C1343 C1342 1.366 1_545 S
C1343 C1344 1.414 . S
C1343 C1346 1.499 . S
C1344 H1324 0.950 . S
C1344 C1343 1.414 . S
C1344 C1345 1.374 . S
C1345 H1325 0.950 . S
C1345 C1341 1.385 . S
C1345 C1344 1.374 . S
C1346 C1343 1.499 . S
C1346 C1347 1.373 1_545 S
C1346 C1348 1.389 . S
C1347 H1326 0.950 . S
C1347 C1346 1.373 1_565 S
C1347 C1363 1.377 . S
C1348 C1346 1.389 . S
C1348 C1349 1.524 . S
C1348 C1362 1.377 . S
C1349 C1348 1.524 . S
C1349 C1350 1.397 . S
C1349 C1354 1.363 . S
C1350 H1327 0.950 . S
C1350 C1349 1.397 . S
C1350 C1351 1.334 . S
C1351 H1328 0.950 . S
C1351 C1350 1.334 . S
C1351 C1352 1.287 . S
C1352 C1351 1.287 . S
C1352 C1353 1.524 . S
C1352 H1371 0.913 . S
C1353 H1329 0.950 . S
C1353 C1352 1.524 . S
C1353 C1354 1.415 . S
C1354 H1330 0.950 . S
C1354 C1349 1.363 . S
C1354 C1353 1.415 . S
C1355 H1331 0.951 . S
C1355 C1356 1.366 . S
C1355 C1357 1.388 . S
C1356 C1355 1.366 . S
C1356 C1360 1.385 . S
C1357 H1332 0.951 . S
C1357 C1355 1.388 . S
C1357 C1358 1.366 . S
C1358 C1357 1.366 . S
C1358 C1359 1.425 . S
C1358 C1361 1.499 . S
C1359 H1333 0.939 1_545 S
C1359 C1358 1.425 . S
C1359 C1360 1.377 . S
C1360 H1334 0.950 1_545 S
C1360 C1356 1.385 . S
C1360 C1359 1.377 . S
C1361 C1358 1.499 . S
C1361 C1362 1.373 . S
C1361 C1363 1.389 1_545 S
C1362 H1335 0.950 . S
C1362 C1348 1.377 . S
C1362 C1361 1.373 . S
C1363 C1347 1.377 . S
C1363 C1361 1.389 1_565 S
C1363 C1364 1.524 . S
C1364 C1363 1.524 . S
C1364 C1365 1.397 . S
C1364 C1369 1.363 . S
C1365 H1336 0.950 . S
C1365 C1364 1.397 . S
C1365 C1366 1.334 . S
C1366 H1337 0.950 . S
C1366 C1365 1.334 . S
C1366 C1367 1.287 . S
C1367 C1366 1.287 . S
C1367 C1368 1.524 . S
C1367 H1370 0.999 . S
C1368 H1338 0.950 . S
C1368 C1367 1.524 . S
C1368 C1369 1.415 . S
C1369 H1339 0.950 . S
C1369 C1364 1.363 . S
C1369 C1368 1.415 . S
H1370 C1367 0.999 . S
H1371 C1352 0.913 . S
H1372 C1390 0.951 . S
H1373 C1392 0.951 . S
H1374 C1394 0.950 . S
H1375 C1395 0.950 . S
H1376 C1397 0.950 . S
H1377 C1400 0.950 . S
H1378 C1401 0.950 . S
H1379 C1403 0.950 . S
H1380 C1404 0.950 . S
H1381 C1405 0.951 . S
H1382 C1407 0.951 . S
H1383 C1409 0.950 . S
H1384 C1410 0.950 . S
H1385 C1412 0.950 . S
H1386 C1415 0.950 . S
H1387 C1416 0.950 . S
H1388 C1418 0.950 . S
H1389 C1419 0.950 . S
C1390 H1372 0.951 . S
C1390 C1391 1.366 . S
C1390 C1392 1.388 . S
C1391 C1390 1.366 . S
C1391 C1395 1.385 . S
C1392 H1373 0.951 . S
C1392 C1390 1.388 . S
C1392 C1393 1.366 . S
C1393 C1392 1.366 . S
C1393 C1394 1.414 . S
C1393 C1396 1.499 . S
C1394 H1374 0.950 . S
C1394 C1393 1.414 . S
C1394 C1395 1.374 . S
C1395 H1375 0.950 . S
C1395 C1391 1.385 . S
C1395 C1394 1.374 . S
C1396 C1393 1.499 . S
C1396 C1397 1.373 . S
C1396 C1398 1.389 . S
C1397 H1376 0.950 . S
C1397 C1396 1.373 . S
C1397 C1413 1.377 . S
C1398 C1396 1.389 . S
C1398 C1399 1.524 . S
C1398 C1412 1.377 . S
C1399 C1398 1.524 . S
C1399 C1400 1.397 . S
C1399 C1404 1.363 . S
C1400 H1377 0.950 . S
C1400 C1399 1.397 . S
C1400 C1401 1.334 . S
C1401 H1378 0.950 . S
C1401 C1400 1.334 . S
C1401 C1402 1.287 . S
C1402 C1401 1.287 . S
C1402 C1403 1.524 . S
C1402 H1421 0.913 . S
C1403 H1379 0.950 . S
C1403 C1402 1.524 . S
C1403 C1404 1.415 . S
C1404 H1380 0.950 . S
C1404 C1399 1.363 . S
C1404 C1403 1.415 . S
C1405 H1381 0.951 . S
C1405 C1406 1.366 . S
C1405 C1407 1.388 . S
C1406 C1405 1.366 . S
C1406 C1410 1.385 . S
C1407 H1382 0.951 . S
C1407 C1405 1.388 . S
C1407 C1408 1.366 . S
C1408 C1407 1.366 . S
C1408 C1409 1.414 . S
C1408 C1411 1.499 . S
C1409 H1383 0.950 . S
C1409 C1408 1.414 . S
C1409 C1410 1.374 . S
C1410 H1384 0.950 . S
C1410 C1406 1.385 . S
C1410 C1409 1.374 . S
C1411 C1408 1.499 . S
C1411 C1412 1.373 . S
C1411 C1413 1.389 . S
C1412 H1385 0.950 . S
C1412 C1398 1.377 . S
C1412 C1411 1.373 . S
C1413 C1397 1.377 . S
C1413 C1411 1.389 . S
C1413 C1414 1.524 . S
C1414 C1413 1.524 . S
C1414 C1415 1.397 . S
C1414 C1419 1.363 . S
C1415 H1386 0.950 . S
C1415 C1414 1.397 . S
C1415 C1416 1.334 . S
C1416 H1387 0.950 . S
C1416 C1415 1.334 . S
C1416 C1417 1.287 . S
C1417 C1416 1.287 . S
C1417 C1418 1.524 . S
C1417 H1420 0.999 . S
C1418 H1388 0.950 . S
C1418 C1417 1.524 . S
C1418 C1419 1.415 . S
C1419 H1389 0.950 . S
C1419 C1414 1.363 . S
C1419 C1418 1.415 . S
H1420 C1417 0.999 . S
H1421 C1402 0.913 . S
H1422 C1440 0.951 . S
H1423 C1442 0.951 . S
H1424 C1444 0.950 . S
H1425 C1445 0.950 . S
H1426 C1447 0.950 . S
H1427 C1450 0.950 . S
H1428 C1451 0.950 . S
H1429 C1453 0.950 . S
H1430 C1454 0.950 . S
H1431 C1455 0.951 . S
H1432 C1457 0.951 . S
H1433 C1459 0.950 . S
H1434 C1460 0.950 . S
H1435 C1462 0.950 . S
H1436 C1465 0.950 . S
H1437 C1466 0.950 . S
H1438 C1468 0.950 . S
H1439 C1469 0.950 . S
C1440 H1422 0.951 . S
C1440 C1441 1.366 . S
C1440 C1442 1.388 . S
C1441 C1440 1.366 . S
C1441 C1445 1.385 . S
C1442 H1423 0.951 . S
C1442 C1440 1.388 . S
C1442 C1443 1.366 . S
C1443 C1442 1.366 . S
C1443 C1444 1.414 . S
C1443 C1446 1.499 . S
C1444 H1424 0.950 . S
C1444 C1443 1.414 . S
C1444 C1445 1.374 . S
C1445 H1425 0.950 . S
C1445 C1441 1.385 . S
C1445 C1444 1.374 . S
C1446 C1443 1.499 . S
C1446 C1447 1.373 . S
C1446 C1448 1.389 . S
C1447 H1426 0.950 . S
C1447 C1446 1.373 . S
C1447 C1463 1.377 . S
C1448 C1446 1.389 . S
C1448 C1449 1.524 . S
C1448 C1462 1.377 . S
C1449 C1448 1.524 . S
C1449 C1450 1.397 . S
C1449 C1454 1.363 . S
C1450 H1427 0.950 . S
C1450 C1449 1.397 . S
C1450 C1451 1.334 . S
C1451 H1428 0.950 . S
C1451 C1450 1.334 . S
C1451 C1452 1.287 . S
C1452 C1451 1.287 . S
C1452 C1453 1.524 . S
C1452 H1471 0.913 . S
C1453 H1429 0.950 . S
C1453 C1452 1.524 . S
C1453 C1454 1.415 . S
C1454 H1430 0.950 . S
C1454 C1449 1.363 . S
C1454 C1453 1.415 . S
C1455 H1431 0.951 . S
C1455 C1456 1.366 . S
C1455 C1457 1.388 . S
C1456 C1455 1.366 . S
C1456 C1460 1.385 . S
C1457 H1432 0.951 . S
C1457 C1455 1.388 . S
C1457 C1458 1.366 . S
C1458 C1457 1.366 . S
C1458 C1459 1.414 . S
C1458 C1461 1.499 . S
C1459 H1433 0.950 . S
C1459 C1458 1.414 . S
C1459 C1460 1.374 . S
C1460 H1434 0.950 . S
C1460 C1456 1.385 . S
C1460 C1459 1.374 . S
C1461 C1458 1.499 . S
C1461 C1462 1.373 . S
C1461 C1463 1.389 . S
C1462 H1435 0.950 . S
C1462 C1448 1.377 . S
C1462 C1461 1.373 . S
C1463 C1447 1.377 . S
C1463 C1461 1.389 . S
C1463 C1464 1.524 . S
C1464 C1463 1.524 . S
C1464 C1465 1.397 . S
C1464 C1469 1.363 . S
C1465 H1436 0.950 . S
C1465 C1464 1.397 . S
C1465 C1466 1.334 . S
C1466 H1437 0.950 . S
C1466 C1465 1.334 . S
C1466 C1467 1.287 . S
C1467 C1466 1.287 . S
C1467 C1468 1.524 . S
C1467 H1470 0.999 . S
C1468 H1438 0.950 . S
C1468 C1467 1.524 . S
C1468 C1469 1.415 . S
C1469 H1439 0.950 . S
C1469 C1464 1.363 . S
C1469 C1468 1.415 . S
H1470 C1467 0.999 . S
H1471 C1452 0.913 . S
H1472 C1490 0.951 . S
H1473 C1492 0.951 . S
H1474 C1494 0.950 . S
H1475 C1495 0.950 . S
H1476 C1497 0.950 . S
H1477 C1500 0.950 1_655 S
H1478 C1501 0.950 . S
H1479 C1503 0.950 . S
H1480 C1504 0.950 . S
H1481 C1505 0.951 . S
H1482 C1507 0.951 . S
H1483 C1509 0.950 . S
H1484 C1510 0.950 . S
H1485 C1512 0.950 . S
H1486 C1515 0.950 . S
H1487 C1516 0.950 . S
H1488 C1518 0.950 . S
H1489 C1519 0.950 . S
C1490 H1472 0.951 . S
C1490 C1491 1.366 1_455 S
C1490 C1492 1.388 . S
C1491 C1490 1.366 1_655 S
C1491 C1495 1.385 . S
C1492 H1473 0.951 . S
C1492 C1490 1.388 . S
C1492 C1493 1.366 1_455 S
C1493 C1492 1.366 1_655 S
C1493 C1494 1.414 . S
C1493 C1496 1.499 . S
C1494 H1474 0.950 . S
C1494 C1493 1.414 . S
C1494 C1495 1.374 . S
C1495 H1475 0.950 . S
C1495 C1491 1.385 . S
C1495 C1494 1.374 . S
C1496 C1493 1.499 . S
C1496 C1497 1.373 . S
C1496 C1498 1.389 1_655 S
C1497 H1476 0.950 . S
C1497 C1496 1.373 . S
C1497 C1513 1.377 . S
C1498 C1496 1.389 1_455 S
C1498 C1499 1.524 . S
C1498 C1512 1.377 . S
C1499 C1498 1.524 . S
C1499 C1500 1.397 . S
C1499 C1504 1.363 . S
C1500 H1477 0.950 1_455 S
C1500 C1499 1.397 . S
C1500 C1501 1.334 . S
C1501 H1478 0.950 . S
C1501 C1500 1.334 . S
C1501 C1502 1.287 . S
C1502 C1501 1.287 . S
C1502 C1503 1.524 . S
C1502 H1521 0.913 . S
C1503 H1479 0.950 . S
C1503 C1502 1.524 . S
C1503 C1504 1.415 . S
C1504 H1480 0.950 . S
C1504 C1499 1.363 . S
C1504 C1503 1.415 . S
C1505 H1481 0.951 . S
C1505 C1506 1.366 . S
C1505 C1507 1.388 . S
C1506 C1505 1.366 . S
C1506 C1510 1.385 1_655 S
C1507 H1482 0.951 . S
C1507 C1505 1.388 . S
C1507 C1508 1.366 . S
C1508 C1507 1.366 . S
C1508 C1509 1.414 1_655 S
C1508 C1511 1.499 . S
C1509 H1483 0.950 . S
C1509 C1508 1.414 1_455 S
C1509 C1510 1.374 . S
C1510 H1484 0.950 . S
C1510 C1506 1.385 1_455 S
C1510 C1509 1.374 . S
C1511 C1508 1.499 . S
C1511 C1512 1.373 1_655 S
C1511 C1513 1.389 . S
C1512 H1485 0.950 . S
C1512 C1498 1.377 . S
C1512 C1511 1.373 1_455 S
C1513 C1497 1.377 . S
C1513 C1511 1.389 . S
C1513 C1514 1.524 . S
C1514 C1513 1.524 . S
C1514 C1515 1.397 . S
C1514 C1519 1.363 . S
C1515 H1486 0.950 . S
C1515 C1514 1.397 . S
C1515 C1516 1.334 . S
C1516 H1487 0.950 . S
C1516 C1515 1.334 . S
C1516 C1517 1.287 . S
C1517 C1516 1.287 . S
C1517 C1518 1.524 . S
C1517 H1520 0.999 . S
C1518 H1488 0.950 . S
C1518 C1517 1.524 . S
C1518 C1519 1.415 . S
C1519 H1489 0.950 . S
C1519 C1514 1.363 . S
C1519 C1518 1.415 . S
H1520 C1517 0.999 . S
H1521 C1502 0.913 . S
H1522 C1540 0.951 . S
H1523 C1542 0.951 . S
H1524 C1544 0.950 . S
H1525 C1545 0.950 . S
H1526 C1547 0.950 . S
H1527 C1550 0.950 . S
H1528 C1551 0.950 . S
H1529 C1553 0.950 . S
H1530 C1554 0.950 . S
H1531 C1555 0.951 . S
H1532 C1557 0.951 . S
H1533 C1559 0.954 . S
H1534 C1560 0.945 1_545 S
H1535 C1562 0.950 . S
H1536 C1565 0.950 . S
H1537 C1566 0.950 . S
H1538 C1568 0.950 . S
H1539 C1569 0.950 . S
C1540 H1522 0.951 . S
C1540 C1541 1.366 1_545 S
C1540 C1542 1.388 . S
C1541 C1540 1.366 1_565 S
C1541 C1545 1.385 . S
C1542 H1523 0.951 . S
C1542 C1540 1.388 . S
C1542 C1543 1.366 1_545 S
C1543 C1542 1.366 1_565 S
C1543 C1544 1.414 . S
C1543 C1546 1.499 . S
C1544 H1524 0.950 . S
C1544 C1543 1.414 . S
C1544 C1545 1.374 . S
C1545 H1525 0.950 . S
C1545 C1541 1.385 . S
C1545 C1544 1.374 . S
C1546 C1543 1.499 . S
C1546 C1547 1.373 . S
C1546 C1548 1.389 1_565 S
C1547 H1526 0.950 . S
C1547 C1546 1.373 . S
C1547 C1563 1.377 . S
C1548 C1546 1.389 1_545 S
C1548 C1549 1.524 . S
C1548 C1562 1.377 . S
C1549 C1548 1.524 . S
C1549 C1550 1.397 . S
C1549 C1554 1.363 . S
C1550 H1527 0.950 . S
C1550 C1549 1.397 . S
C1550 C1551 1.334 . S
C1551 H1528 0.950 . S
C1551 C1550 1.334 . S
C1551 C1552 1.287 . S
C1552 C1551 1.287 . S
C1552 C1553 1.524 . S
C1552 H1571 0.913 . S
C1553 H1529 0.950 . S
C1553 C1552 1.524 . S
C1553 C1554 1.415 . S
C1554 H1530 0.950 . S
C1554 C1549 1.363 . S
C1554 C1553 1.415 . S
C1555 H1531 0.951 . S
C1555 C1556 1.366 . S
C1555 C1557 1.388 . S
C1556 C1555 1.366 . S
C1556 C1560 1.390 . S
C1557 H1532 0.951 . S
C1557 C1555 1.388 . S
C1557 C1558 1.366 . S
C1558 C1557 1.366 . S
C1558 C1559 1.410 1_565 S
C1558 C1561 1.499 . S
C1559 H1533 0.954 . S
C1559 C1558 1.410 1_545 S
C1559 C1560 1.373 1_545 S
C1560 H1534 0.945 1_565 S
C1560 C1556 1.390 . S
C1560 C1559 1.373 1_565 S
C1561 C1558 1.499 . S
C1561 C1562 1.373 1_565 S
C1561 C1563 1.389 . S
C1562 H1535 0.950 . S
C1562 C1548 1.377 . S
C1562 C1561 1.373 1_545 S
C1563 C1547 1.377 . S
C1563 C1561 1.389 . S
C1563 C1564 1.524 . S
C1564 C1563 1.524 . S
C1564 C1565 1.397 . S
C1564 C1569 1.363 . S
C1565 H1536 0.950 . S
C1565 C1564 1.397 . S
C1565 C1566 1.334 . S
C1566 H1537 0.950 . S
C1566 C1565 1.334 . S
C1566 C1567 1.287 . S
C1567 C1566 1.287 . S
C1567 C1568 1.524 . S
C1567 H1570 0.999 . S
C1568 H1538 0.950 . S
C1568 C1567 1.524 . S
C1568 C1569 1.415 . S
C1569 H1539 0.950 . S
C1569 C1564 1.363 . S
C1569 C1568 1.415 . S
H1570 C1567 0.999 . S
H1571 C1552 0.913 . S
H1572 C1590 0.951 . S
H1573 C1592 0.951 . S
H1574 C1594 0.950 . S
H1575 C1595 0.950 . S
H1576 C1597 0.950 . S
H1577 C1600 0.950 . S
H1578 C1601 0.950 . S
H1579 C1603 0.950 . S
H1580 C1604 0.950 . S
H1581 C1605 0.951 . S
H1582 C1607 0.951 . S
H1583 C1609 0.950 . S
H1584 C1610 0.950 . S
H1585 C1612 0.950 . S
H1586 C1615 0.950 . S
H1587 C1616 0.950 . S
H1588 C1618 0.950 . S
H1589 C1619 0.950 . S
C1590 H1572 0.951 . S
C1590 C1591 1.366 . S
C1590 C1592 1.388 . S
C1591 C1590 1.366 . S
C1591 C1595 1.385 . S
C1592 H1573 0.951 . S
C1592 C1590 1.388 . S
C1592 C1593 1.366 . S
C1593 C1592 1.366 . S
C1593 C1594 1.414 . S
C1593 C1596 1.499 . S
C1594 H1574 0.950 . S
C1594 C1593 1.414 . S
C1594 C1595 1.374 . S
C1595 H1575 0.950 . S
C1595 C1591 1.385 . S
C1595 C1594 1.374 . S
C1596 C1593 1.499 . S
C1596 C1597 1.373 . S
C1596 C1598 1.389 . S
C1597 H1576 0.950 . S
C1597 C1596 1.373 . S
C1597 C1613 1.377 . S
C1598 C1596 1.389 . S
C1598 C1599 1.524 . S
C1598 C1612 1.377 . S
C1599 C1598 1.524 . S
C1599 C1600 1.397 . S
C1599 C1604 1.363 . S
C1600 H1577 0.950 . S
C1600 C1599 1.397 . S
C1600 C1601 1.334 . S
C1601 H1578 0.950 . S
C1601 C1600 1.334 . S
C1601 C1602 1.287 . S
C1602 C1601 1.287 . S
C1602 C1603 1.524 . S
C1602 H1621 0.913 . S
C1603 H1579 0.950 . S
C1603 C1602 1.524 . S
C1603 C1604 1.415 . S
C1604 H1580 0.950 . S
C1604 C1599 1.363 . S
C1604 C1603 1.415 . S
C1605 H1581 0.951 . S
C1605 C1606 1.366 . S
C1605 C1607 1.388 . S
C1606 C1605 1.366 . S
C1606 C1610 1.385 . S
C1607 H1582 0.951 . S
C1607 C1605 1.388 . S
C1607 C1608 1.366 . S
C1608 C1607 1.366 . S
C1608 C1609 1.414 . S
C1608 C1611 1.499 . S
C1609 H1583 0.950 . S
C1609 C1608 1.414 . S
C1609 C1610 1.374 . S
C1610 H1584 0.950 . S
C1610 C1606 1.385 . S
C1610 C1609 1.374 . S
C1611 C1608 1.499 . S
C1611 C1612 1.373 . S
C1611 C1613 1.389 . S
C1612 H1585 0.950 . S
C1612 C1598 1.377 . S
C1612 C1611 1.373 . S
C1613 C1597 1.377 . S
C1613 C1611 1.389 . S
C1613 C1614 1.524 . S
C1614 C1613 1.524 . S
C1614 C1615 1.397 . S
C1614 C1619 1.363 . S
C1615 H1586 0.950 . S
C1615 C1614 1.397 . S
C1615 C1616 1.334 . S
C1616 H1587 0.950 . S
C1616 C1615 1.334 . S
C1616 C1617 1.287 . S
C1617 C1616 1.287 . S
C1617 C1618 1.524 . S
C1617 H1620 0.999 . S
C1618 H1588 0.950 . S
C1618 C1617 1.524 . S
C1618 C1619 1.415 . S
C1619 H1589 0.950 . S
C1619 C1614 1.363 . S
C1619 C1618 1.415 . S
H1620 C1617 0.999 . S
H1621 C1602 0.913 . S
H1622 C1640 0.951 . S
H1623 C1642 0.951 . S
H1624 C1644 0.950 . S
H1625 C1645 0.950 . S
H1626 C1647 0.950 . S
H1627 C1650 0.950 . S
H1628 C1651 0.950 . S
H1629 C1653 0.950 . S
H1630 C1654 0.950 . S
H1631 C1655 0.951 . S
H1632 C1657 0.951 . S
H1633 C1659 0.950 . S
H1634 C1660 0.950 . S
H1635 C1662 0.950 . S
H1636 C1665 0.950 . S
H1637 C1666 0.950 . S
H1638 C1668 0.950 . S
H1639 C1669 0.950 . S
C1640 H1622 0.951 . S
C1640 C1641 1.366 . S
C1640 C1642 1.388 . S
C1641 C1640 1.366 . S
C1641 C1645 1.385 . S
C1642 H1623 0.951 . S
C1642 C1640 1.388 . S
C1642 C1643 1.366 . S
C1643 C1642 1.366 . S
C1643 C1644 1.414 . S
C1643 C1646 1.499 . S
C1644 H1624 0.950 . S
C1644 C1643 1.414 . S
C1644 C1645 1.374 . S
C1645 H1625 0.950 . S
C1645 C1641 1.385 . S
C1645 C1644 1.374 . S
C1646 C1643 1.499 . S
C1646 C1647 1.373 . S
C1646 C1648 1.389 . S
C1647 H1626 0.950 . S
C1647 C1646 1.373 . S
C1647 C1663 1.377 . S
C1648 C1646 1.389 . S
C1648 C1649 1.524 . S
C1648 C1662 1.377 . S
C1649 C1648 1.524 . S
C1649 C1650 1.397 . S
C1649 C1654 1.363 . S
C1650 H1627 0.950 . S
C1650 C1649 1.397 . S
C1650 C1651 1.334 . S
C1651 H1628 0.950 . S
C1651 C1650 1.334 . S
C1651 C1652 1.287 . S
C1652 C1651 1.287 . S
C1652 C1653 1.524 . S
C1652 H1671 0.913 . S
C1653 H1629 0.950 . S
C1653 C1652 1.524 . S
C1653 C1654 1.415 . S
C1654 H1630 0.950 . S
C1654 C1649 1.363 . S
C1654 C1653 1.415 . S
C1655 H1631 0.951 . S
C1655 C1656 1.366 . S
C1655 C1657 1.388 . S
C1656 C1655 1.366 . S
C1656 C1660 1.385 . S
C1657 H1632 0.951 . S
C1657 C1655 1.388 . S
C1657 C1658 1.366 . S
C1658 C1657 1.366 . S
C1658 C1659 1.414 . S
C1658 C1661 1.499 . S
C1659 H1633 0.950 . S
C1659 C1658 1.414 . S
C1659 C1660 1.374 . S
C1660 H1634 0.950 . S
C1660 C1656 1.385 . S
C1660 C1659 1.374 . S
C1661 C1658 1.499 . S
C1661 C1662 1.373 . S
C1661 C1663 1.389 . S
C1662 H1635 0.950 . S
C1662 C1648 1.377 . S
C1662 C1661 1.373 . S
C1663 C1647 1.377 . S
C1663 C1661 1.389 . S
C1663 C1664 1.524 . S
C1664 C1663 1.524 . S
C1664 C1665 1.397 . S
C1664 C1669 1.363 . S
C1665 H1636 0.950 . S
C1665 C1664 1.397 . S
C1665 C1666 1.334 . S
C1666 H1637 0.950 . S
C1666 C1665 1.334 . S
C1666 C1667 1.287 . S
C1667 C1666 1.287 . S
C1667 C1668 1.524 . S
C1667 H1670 0.999 . S
C1668 H1638 0.950 . S
C1668 C1667 1.524 . S
C1668 C1669 1.415 . S
C1669 H1639 0.950 . S
C1669 C1664 1.363 . S
C1669 C1668 1.415 . S
H1670 C1667 0.999 . S
H1671 C1652 0.913 . S
C491 C255 1.921 1_545 S
C506 C321 2.033 1_545 S
C556 C361 2.053 . S
C541 C294 1.908 . S
C606 C401 2.049 . S
C591 C177 1.933 . S
C656 C441 2.046 1_455 S
C641 C216 1.931 1_455 S
C706 C330 2.037 1_565 S
C691 C99 1.927 1_545 S
C741 C138 1.916 . S
C756 C370 2.058 . S
C791 C21 1.931 . S
C806 C410 2.048 . S
C841 C60 1.931 . S
C856 C450 2.045 1_655 S
C906 C327 0.242 . S
C891 C196 0.253 1_455 S
C956 C367 0.240 . S
C941 C235 0.250 1_545 S
C1006 C407 0.234 . S
C991 C289 0.246 . S
C1041 C157 0.244 . S
C1056 C447 0.236 . S
C1091 C40 0.240 . S
C1106 C318 0.231 . S
C1156 C358 0.240 . S
C1141 C79 0.239 . S
C1206 C398 0.236 . S
C1191 C133 0.239 . S
C1241 C1 0.235 . S
C1256 C438 0.241 . S
C1291 C211 2.544 . S
C1306 C331 2.841 . S
C1341 C250 2.518 . S
C1356 C371 2.821 . S
C1406 C411 2.817 . S
C1391 C274 2.519 . S
C1456 C451 2.830 . S
C1441 C172 2.519 . S
C1491 C55 2.544 1_655 S
C1506 C322 2.856 . S
C1556 C362 2.822 . S
C1541 C94 2.519 1_565 S
C1606 C402 2.817 . S
C1591 C118 2.520 . S
C1641 C16 2.527 . S
C1656 C442 2.837 . S
