# Generated by pormake.
# Topology ssa, (4,4)-cn, num edge types: 1
# Building blocks:
#     Node 0, Type 0, BuildingBlock: ESEHIV_clean_sbu_0, # of connection points: 4
#     Node 1, Type 0, BuildingBlock: ESEHIV_clean_sbu_0, # of connection points: 4
#     Node 2, Type 0, BuildingBlock: ESEHIV_clean_sbu_0, # of connection points: 4
#     Node 3, Type 0, BuildingBlock: ESEHIV_clean_sbu_0, # of connection points: 4
#     Node 4, Type 0, BuildingBlock: ESEHIV_clean_sbu_0, # of connection points: 4
#     Node 5, Type 0, BuildingBlock: ESEHIV_clean_sbu_0, # of connection points: 4
#     Node 6, Type 1, BuildingBlock: GIZVER_clean_linker_0, # of connection points: 4
#     Node 7, Type 1, BuildingBlock: GIZVER_clean_linker_0, # of connection points: 4
#     Node 8, Type 1, BuildingBlock: GIZVER_clean_linker_0, # of connection points: 4
#     Node 9, Type 1, BuildingBlock: GIZVER_clean_linker_0, # of connection points: 4
#     Node 10, Type 1, BuildingBlock: GIZVER_clean_linker_0, # of connection points: 4
#     Node 11, Type 1, BuildingBlock: GIZVER_clean_linker_0, # of connection points: 4
#     Edge 12, Type (0, 1), BuildingBlock: ZUJKAS_clean_linker_0, # of connection points: 2
#     Edge 13, Type (0, 1), BuildingBlock: ZUJKAS_clean_linker_0, # of connection points: 2
#     Edge 14, Type (0, 1), BuildingBlock: ZUJKAS_clean_linker_0, # of connection points: 2
#     Edge 15, Type (0, 1), BuildingBlock: ZUJKAS_clean_linker_0, # of connection points: 2
#     Edge 16, Type (0, 1), BuildingBlock: ZUJKAS_clean_linker_0, # of connection points: 2
#     Edge 17, Type (0, 1), BuildingBlock: ZUJKAS_clean_linker_0, # of connection points: 2
#     Edge 18, Type (0, 1), BuildingBlock: ZUJKAS_clean_linker_0, # of connection points: 2
#     Edge 19, Type (0, 1), BuildingBlock: ZUJKAS_clean_linker_0, # of connection points: 2
#     Edge 20, Type (0, 1), BuildingBlock: ZUJKAS_clean_linker_0, # of connection points: 2
#     Edge 21, Type (0, 1), BuildingBlock: ZUJKAS_clean_linker_0, # of connection points: 2
#     Edge 22, Type (0, 1), BuildingBlock: ZUJKAS_clean_linker_0, # of connection points: 2
#     Edge 23, Type (0, 1), BuildingBlock: ZUJKAS_clean_linker_0, # of connection points: 2
#     Edge 24, Type (0, 1), BuildingBlock: ZUJKAS_clean_linker_0, # of connection points: 2
#     Edge 25, Type (0, 1), BuildingBlock: ZUJKAS_clean_linker_0, # of connection points: 2
#     Edge 26, Type (0, 1), BuildingBlock: ZUJKAS_clean_linker_0, # of connection points: 2
#     Edge 27, Type (0, 1), BuildingBlock: ZUJKAS_clean_linker_0, # of connection points: 2
#     Edge 28, Type (0, 1), BuildingBlock: ZUJKAS_clean_linker_0, # of connection points: 2
#     Edge 29, Type (0, 1), BuildingBlock: ZUJKAS_clean_linker_0, # of connection points: 2
#     Edge 30, Type (0, 1), BuildingBlock: ZUJKAS_clean_linker_0, # of connection points: 2
#     Edge 31, Type (0, 1), BuildingBlock: ZUJKAS_clean_linker_0, # of connection points: 2
#     Edge 32, Type (0, 1), BuildingBlock: ZUJKAS_clean_linker_0, # of connection points: 2
#     Edge 33, Type (0, 1), BuildingBlock: ZUJKAS_clean_linker_0, # of connection points: 2
#     Edge 34, Type (0, 1), BuildingBlock: ZUJKAS_clean_linker_0, # of connection points: 2
#     Edge 35, Type (0, 1), BuildingBlock: ZUJKAS_clean_linker_0, # of connection points: 2
# Relax obj value: 0.004
# Max RMSD: 0.106
# Mean RMSD: 0.064
data_MOF--net-ssa--node1-ESEHIV_clean_sbu_0--node2-GIZVER_clean_linker_0--edge1-ZUJKAS_clean_linker_0
_symmetry_space_group_name_H-M    P1
_symmetry_Int_Tables_number       1
_symmetry_cell_setting            triclinic
loop_
_symmetry_equiv_pos_as_xyz
'x, y, z'
_cell_length_a     69.016086
_cell_length_b     72.824901
_cell_length_c     38.870972
_cell_angle_alpha  88.298561
_cell_angle_beta   90.738341
_cell_angle_gamma 121.90986
loop_
_atom_site_label
_atom_site_type_symbol
_atom_site_fract_x
_atom_site_fract_y
_atom_site_fract_z
_atom_type_partial_charge
Cu0 Cu 0.01624 0.51729 0.01751 0.0
N1 N 0.99578 0.48822 0.02975 0.0
N2 N 0.96746 0.4536 0.02593 0.0
C3 C 0.97768 0.47369 0.01144 0.0
C4 C 0.9796 0.45564 0.05464 0.0
C5 C 0.99703 0.47702 0.05694 0.0
O6 O 1.00124 0.52687 0.98548 0.0
C7 C 0.04757 0.50581 0.99428 0.0
O8 O 0.02948 0.48622 0.99186 0.0
H9 H 0.9727 0.4776 0.98718 0.0
H10 H 1.01009 0.48382 0.07652 0.0
N11 N 0.02381 0.53401 0.05645 0.0
N12 N 0.04434 0.56114 0.09207 0.0
C13 C 0.04255 0.55385 0.05997 0.0
C14 C 1.01325 0.52858 0.08725 0.0
C15 C 0.02596 0.54529 0.10937 0.0
C16 C 0.99555 0.5204 0.95486 0.0
O17 O 1.00184 0.50784 0.94201 0.0
H18 H 0.05508 0.5624 0.03975 0.0
H19 H 0.99771 0.51337 0.09338 0.0
O20 O 0.04497 0.52136 0.00137 0.0
H21 H 0.97635 0.44261 0.07247 0.0
H22 H 0.02208 0.54569 0.13613 0.0
Cu23 Cu 0.51442 0.01516 0.50992 0.0
N24 N 0.52145 1.00606 0.47025 0.0
N25 N 0.52755 0.98465 0.43806 0.0
C26 C 0.52343 0.98867 0.46993 0.0
C27 C 0.52817 1.00023 0.41744 0.0
C28 C 0.52442 0.01346 0.43743 0.0
O29 O 0.48935 0.98845 0.53032 0.0
C30 C 0.55905 0.04561 0.52334 0.0
O31 O 0.55722 0.05045 0.49111 0.0
H32 H 0.52123 0.97881 0.49268 0.0
H33 H 0.52375 0.02734 0.42862 0.0
N34 N 0.50597 0.03534 0.50068 0.0
N35 N 0.50047 0.06238 0.51039 0.0
C36 C 0.50972 0.05106 0.52214 0.0
C37 C 0.49402 0.03676 0.47422 0.0
C38 C 0.49052 0.05341 0.48022 0.0
C39 C 0.46893 0.98417 0.5316 0.0
O40 O 0.46515 0.99995 0.52703 0.0
H41 H 0.51831 0.05354 0.54662 0.0
H42 H 0.48775 0.02607 0.45265 0.0
O43 O 0.54173 0.02952 0.538 0.0
H44 H 0.53121 1.00201 0.38996 0.0
H45 H 0.4812 0.05837 0.46383 0.0
Cu46 Cu 0.53147 0.50982 0.02402 0.0
N47 N 0.52322 0.48178 0.03775 0.0
N48 N 0.51611 0.44822 0.03304 0.0
C49 C 0.52417 0.46772 0.01726 0.0
C50 C 0.51001 0.4502 0.06495 0.0
C51 C 0.51435 0.47093 0.06774 0.0
O52 O 0.55608 0.51982 0.99078 0.0
C53 C 0.48539 0.4931 0.00239 0.0
O54 O 0.48285 0.47399 0.00644 0.0
H55 H 0.53052 0.47176 0.99108 0.0
H56 H 0.5108 0.47745 0.08975 0.0
N57 N 0.54154 0.52831 0.06124 0.0
N58 N 0.54809 0.55597 0.09363 0.0
C59 C 0.54097 0.54647 0.06281 0.0
C60 C 0.54932 0.52614 0.09202 0.0
C61 C 0.55339 0.54316 0.11203 0.0
C62 C 0.57437 0.52142 0.00173 0.0
O63 O 0.57588 0.51758 0.03459 0.0
H64 H 0.53529 0.55242 0.04164 0.0
H65 H 0.55149 0.51293 0.09959 0.0
O66 O 0.50513 0.51003 0.0058 0.0
H67 H 0.50228 0.43742 0.08449 0.0
H68 H 0.55921 0.54549 0.13842 0.0
Cu69 Cu 1.01191 0.49794 0.4755 0.0
N70 N 0.02026 0.48719 0.43938 0.0
N71 N 0.04101 0.47969 0.40552 0.0
C72 C 0.04121 0.49111 0.43242 0.0
C73 C 0.01905 0.46822 0.39511 0.0
C74 C 1.00631 0.47289 0.41605 0.0
O75 O 0.03769 0.52652 0.4861 0.0
C76 C 0.99416 0.47868 0.542 0.0
O77 O 0.99732 0.49755 0.54954 0.0
H78 H 0.05619 0.5017 0.4473 0.0
H79 H 0.98811 0.46615 0.41466 0.0
N80 N 0.98792 0.50123 0.46134 0.0
N81 N 0.95603 0.50207 0.46358 0.0
C82 C 0.96861 0.49495 0.47892 0.0
C83 C 0.98745 0.51251 0.43365 0.0
C84 C 0.96782 0.51312 0.43499 0.0
C85 C 0.0565 0.53052 0.49913 0.0
O86 O 0.05851 0.51439 0.51022 0.0
H87 H 0.96442 0.4863 0.50343 0.0
H88 H 1.00088 0.52043 0.41455 0.0
O89 O 1.00091 0.47648 0.51299 0.0
H90 H 1.01262 0.45729 0.37382 0.0
H91 H 0.96294 0.52151 0.41683 0.0
Cu92 Cu 0.52307 0.02051 0.05126 0.0
N93 N 0.52214 0.04402 0.06638 0.0
N94 N 0.51913 0.07301 0.0602 0.0
C95 C 0.51467 0.05439 0.04643 0.0
C96 C 0.52984 0.0744 0.09023 0.0
C97 C 0.53162 0.05639 0.09403 0.0
O98 O 0.53625 0.02975 0.00537 0.0
C99 C 0.486 0.97677 0.04159 0.0
O100 O 0.50029 0.97485 0.02226 0.0
H101 H 0.5076 0.04911 0.02104 0.0
H102 H 0.54025 0.05316 0.11453 0.0
N103 N 0.54221 0.01534 0.07866 0.0
N104 N 0.55758 0.99695 0.09967 0.0
C105 C 0.53896 0.9957 0.08556 0.0
C106 C 0.56354 0.02963 0.08932 0.0
C107 C 0.57304 0.01831 0.1025 0.0
C108 C 0.5525 0.02797 0.99457 0.0
O109 O 0.55725 0.01481 0.01098 0.0
H110 H 0.52355 0.98077 0.07903 0.0
H111 H 0.57206 0.047 0.08574 0.0
O112 O 0.49225 0.9951 0.05387 0.0
H113 H 0.53658 0.08778 0.10755 0.0
H114 H 0.5904 0.02529 0.11144 0.0
Cu115 Cu 0.51039 0.51071 0.51459 0.0
N116 N 0.51721 0.53722 0.53124 0.0
N117 N 0.52468 0.57104 0.52978 0.0
C118 C 0.51858 0.55332 0.5115 0.0
C119 C 0.527 0.56578 0.56251 0.0
C120 C 0.52248 0.54487 0.56331 0.0
O121 O 0.49006 0.5046 0.47532 0.0
C122 C 0.55829 0.52878 0.50382 0.0
O123 O 0.56024 0.54769 0.50478 0.0
H124 H 0.51522 0.552 0.48412 0.0
H125 H 0.52331 0.53601 0.58552 0.0
N126 N 0.49605 0.48896 0.54848 0.0
N127 N 0.48685 0.45908 0.57948 0.0
C128 C 0.49761 0.47132 0.55115 0.0
C129 C 0.48395 0.48796 0.5761 0.0
C130 C 0.47814 0.46947 0.5952 0.0
C131 C 0.46959 0.49919 0.48165 0.0
O132 O 0.46294 0.49675 0.51384 0.0
H133 H 0.50672 0.46774 0.53275 0.0
H134 H 0.48006 0.50006 0.58229 0.0
O135 O 0.53848 0.51164 0.50414 0.0
H136 H 0.53217 0.57643 0.5841 0.0
H137 H 0.46893 0.46451 0.61939 0.0
H138 H 0.2631 0.52629 0.13807 0.0
H139 H 0.25596 0.51127 0.24706 0.0
H140 H 0.1965 0.48993 0.18429 0.0
H141 H 0.29568 0.54562 0.17596 0.0
H142 H 0.29208 0.54182 0.22143 0.0
H143 H 0.29937 0.51867 0.14125 0.0
H144 H 0.33478 0.4926 0.19499 0.0
H145 H 0.30396 0.5203 0.25194 0.0
C146 C 0.25237 0.51804 0.16035 0.0
C147 C 0.2285 0.50721 0.1571 0.0
C148 C 0.26244 0.51912 0.19267 0.0
C149 C 0.24834 0.50954 0.22187 0.0
C150 C 0.22448 0.49873 0.21886 0.0
C151 C 0.21482 0.49724 0.18634 0.0
C152 C 0.28807 0.53301 0.19691 0.0
C153 C 0.29934 0.51996 0.1967 0.0
C154 C 0.30442 0.51436 0.16518 0.0
C155 C 0.31705 0.50429 0.1644 0.0
C156 C 0.32406 0.49936 0.19552 0.0
C157 C 0.31959 0.50516 0.22714 0.0
C158 C 0.30703 0.51533 0.22765 0.0
H159 H 0.75235 0.23332 0.70692 0.0
H160 H 0.74363 0.23223 0.81676 0.0
H161 H 0.71682 0.17279 0.76373 0.0
H162 H 0.75645 0.26464 0.73549 0.0
H163 H 0.75289 0.26434 0.78082 0.0
H164 H 0.79405 0.28051 0.7111 0.0
H165 H 0.85157 0.31143 0.77899 0.0
H166 H 0.78429 0.26955 0.82084 0.0
C167 C 0.7469 0.22442 0.73131 0.0
C168 C 0.73479 0.20167 0.73176 0.0
C169 C 0.75068 0.23566 0.76201 0.0
C170 C 0.74201 0.22384 0.79332 0.0
C171 C 0.73021 0.20112 0.79402 0.0
C172 C 0.72723 0.19034 0.76336 0.0
C173 C 0.76075 0.25984 0.76052 0.0
C174 C 0.78636 0.27263 0.76533 0.0
C175 C 0.80108 0.28273 0.73682 0.0
C176 C 0.82473 0.29657 0.74161 0.0
C177 C 0.83354 0.29982 0.77508 0.0
C178 C 0.81917 0.29031 0.80379 0.0
C179 C 0.79558 0.2765 0.79875 0.0
H180 H 0.53239 0.74309 0.21806 0.0
H181 H 0.53108 0.75309 0.32649 0.0
H182 H 0.55683 0.71462 0.29094 0.0
H183 H 0.51117 0.75814 0.238 0.0
H184 H 0.50403 0.75512 0.28252 0.0
H185 H 0.54431 0.79203 0.21481 0.0
H186 H 0.56672 0.84835 0.27502 0.0
H187 H 0.52414 0.78528 0.32125 0.0
C188 C 0.53656 0.7411 0.24434 0.0
C189 C 0.54614 0.7285 0.2513 0.0
C190 C 0.53146 0.75037 0.27138 0.0
C191 C 0.53586 0.74674 0.30556 0.0
C192 C 0.54529 0.73405 0.31286 0.0
C193 C 0.55075 0.72541 0.28548 0.0
C194 C 0.51866 0.76166 0.26429 0.0
C195 C 0.53368 0.78586 0.26815 0.0
C196 C 0.54555 0.79924 0.23938 0.0
C197 C 0.55762 0.82188 0.24166 0.0
C198 C 0.55857 0.83094 0.27344 0.0
C199 C 0.54653 0.81797 0.30211 0.0
C200 C 0.53414 0.79538 0.29948 0.0
H201 H 0.76644 0.54736 0.66994 0.0
H202 H 0.76683 0.54716 0.78084 0.0
H203 H 0.70347 0.52001 0.72577 0.0
H204 H 0.80149 0.57231 0.70242 0.0
H205 H 0.8015 0.57149 0.74826 0.0
H206 H 0.79752 0.53926 0.67104 0.0
H207 H 0.84097 0.51986 0.71733 0.0
H208 H 0.81962 0.55509 0.77625 0.0
C209 C 0.75732 0.54258 0.69424 0.0
C210 C 0.73341 0.53214 0.69434 0.0
C211 C 0.76951 0.54761 0.72546 0.0
C212 C 0.75749 0.54252 0.75682 0.0
C213 C 0.7336 0.53248 0.75717 0.0
C214 C 0.72177 0.52692 0.72584 0.0
C215 C 0.79536 0.56111 0.72531 0.0
C216 C 0.8061 0.54759 0.72442 0.0
C217 C 0.80621 0.53798 0.69353 0.0
C218 C 0.81844 0.52762 0.69112 0.0
C219 C 0.83076 0.52708 0.71963 0.0
C220 C 0.83158 0.53716 0.7502 0.0
C221 C 0.81868 0.54689 0.75289 0.0
H222 H 0.30511 0.78109 0.24319 0.0
H223 H 0.30165 0.78023 0.35376 0.0
H224 H 0.33871 0.84082 0.29745 0.0
H225 H 0.29474 0.7483 0.27619 0.0
H226 H 0.29665 0.74871 0.3219 0.0
H227 H 0.25987 0.74397 0.24695 0.0
H228 H 0.19812 0.7052 0.30489 0.0
H229 H 0.26291 0.73506 0.3566 0.0
C230 C 0.30894 0.78973 0.26699 0.0
C231 C 0.32227 0.81251 0.26626 0.0
C232 C 0.30131 0.77797 0.29849 0.0
C233 C 0.30691 0.78922 0.32943 0.0
C234 C 0.32013 0.81194 0.32917 0.0
C235 C 0.32746 0.82336 0.29752 0.0
C236 C 0.29004 0.75363 0.29951 0.0
C237 C 0.2643 0.74188 0.30183 0.0
C238 C 0.25135 0.73788 0.27162 0.0
C239 C 0.22746 0.72497 0.27295 0.0
C240 C 0.2165 0.71623 0.30459 0.0
C241 C 0.22901 0.71946 0.33496 0.0
C242 C 0.253 0.73269 0.33348 0.0
H243 H 0.46924 0.2497 0.84045 0.0
H244 H 0.47156 0.25734 0.72978 0.0
H245 H 0.497 0.31275 0.79347 0.0
H246 H 0.44443 0.21883 0.80328 0.0
H247 H 0.44603 0.22205 0.75759 0.0
H248 H 0.47589 0.21791 0.83588 0.0
H249 H 0.50452 0.18741 0.78093 0.0
H250 H 0.47011 0.21405 0.72563 0.0
C251 C 0.47452 0.26003 0.81747 0.0
C252 C 0.48437 0.28238 0.82051 0.0
C253 C 0.47006 0.25085 0.78468 0.0
C254 C 0.47572 0.26437 0.75504 0.0
C255 C 0.48575 0.2868 0.75801 0.0
C256 C 0.49026 0.2956 0.79084 0.0
C257 C 0.45659 0.22656 0.78134 0.0
C258 C 0.4718 0.21744 0.78073 0.0
C259 C 0.47978 0.21343 0.81176 0.0
C260 C 0.49195 0.20293 0.8119 0.0
C261 C 0.49627 0.1966 0.78057 0.0
C262 C 0.4884 0.20036 0.74921 0.0
C263 C 0.47645 0.21115 0.74952 0.0
H264 H 0.08889 0.54373 0.00162 0.0
H265 H 0.12565 0.54772 0.01492 0.0
H266 H 0.09499 0.47883 0.00671 0.0
H267 H 0.05849 0.4748 0.99243 0.0
H268 H 0.1331 0.53115 0.07096 0.0
H269 H 0.15457 0.49961 0.95983 0.0
H270 H 0.13289 0.50637 0.95761 0.0
H271 H 0.12633 0.48055 0.97539 0.0
C272 C 0.09011 0.5295 0.00166 0.0
C273 C 0.07066 0.50893 0.99604 0.0
C274 C 0.11117 0.53181 0.00936 0.0
C275 C 0.11326 0.51362 0.01154 0.0
C276 C 0.09409 0.49322 0.00436 0.0
H277 H 0.19188 0.47447 0.12404 0.0
H278 H 0.16709 0.47825 0.08259 0.0
C279 C 0.07309 0.49092 0.99641 0.0
C280 C 0.13441 0.51551 0.02566 0.0
H281 H 0.17256 0.49976 0.01387 0.0
C282 C 0.14202 0.52471 0.05807 0.0
C283 C 0.14604 0.507 0.00903 0.0
C284 C 0.13966 0.49803 0.97339 0.0
C285 C 0.16012 0.52472 0.07498 0.0
C286 C 0.17118 0.5155 0.05893 0.0
C287 C 0.16409 0.50685 0.0261 0.0
C288 C 0.18868 0.51308 0.07751 0.0
C289 C 0.16654 0.53364 0.11071 0.0
C290 C 0.20964 0.5313 0.08695 0.0
C291 C 0.2239 0.52917 0.11055 0.0
C292 C 0.21735 0.50878 0.12512 0.0
C293 C 0.19732 0.49038 0.11327 0.0
C294 C 0.18315 0.49252 0.08961 0.0
H295 H 0.15396 0.537 0.12162 0.0
H296 H 0.16794 0.52213 0.12838 0.0
H297 H 0.18343 0.549 0.10976 0.0
H298 H 0.2143 0.5473 0.07766 0.0
H299 H 0.2391 0.54364 0.11942 0.0
H300 H 0.59796 0.08092 0.49801 0.0
H301 H 0.63189 0.10661 0.5296 0.0
H302 H 0.60284 0.06875 0.62318 0.0
H303 H 0.56837 0.043 0.5917 0.0
H304 H 0.61822 0.1111 0.63107 0.0
H305 H 0.68535 0.10423 0.56754 0.0
H306 H 0.66868 0.10926 0.53738 0.0
H307 H 0.65531 0.08442 0.56262 0.0
C308 C 0.59883 0.07783 0.52524 0.0
C309 C 0.58039 0.05989 0.54236 0.0
C310 C 0.61839 0.09249 0.54321 0.0
C311 C 0.6201 0.08945 0.57864 0.0
C312 C 0.60194 0.07132 0.59575 0.0
H313 H 0.73396 0.1651 0.71448 0.0
H314 H 0.70792 0.13845 0.67322 0.0
C315 C 0.58227 0.05661 0.57776 0.0
C316 C 0.63991 0.10626 0.59817 0.0
H317 H 0.69825 0.13568 0.60136 0.0
C318 C 0.6357 0.11634 0.62472 0.0
C319 C 0.66273 0.11302 0.59003 0.0
C320 C 0.66831 0.10202 0.56307 0.0
C321 C 0.65363 0.13327 0.64288 0.0
C322 C 0.67646 0.1407 0.6337 0.0
C323 C 0.68074 0.13028 0.60777 0.0
C324 C 0.6959 0.15852 0.65231 0.0
C325 C 0.64793 0.14283 0.67213 0.0
C326 C 0.6989 0.17915 0.6525 0.0
C327 C 0.71371 0.19437 0.67613 0.0
C328 C 0.72579 0.18919 0.6998 0.0
C329 C 0.72468 0.16943 0.69677 0.0
C330 C 0.7098 0.15419 0.67325 0.0
H331 H 0.63 0.13205 0.68101 0.0
H332 H 0.65945 0.14594 0.69436 0.0
H333 H 0.65015 0.15847 0.66335 0.0
H334 H 0.68862 0.18292 0.63603 0.0
H335 H 0.71408 0.20937 0.67789 0.0
H336 H 0.52615 0.5749 0.06554 0.0
H337 H 0.52717 0.60684 0.0855 0.0
H338 H 0.57217 0.61256 0.16798 0.0
H339 H 0.57187 0.58099 0.14781 0.0
H340 H 0.53091 0.61288 0.18671 0.0
H341 H 0.58247 0.67201 0.08171 0.0
H342 H 0.55932 0.64581 0.06917 0.0
H343 H 0.58345 0.64806 0.09117 0.0
C344 C 0.53662 0.58305 0.08757 0.0
C345 C 0.54896 0.57518 0.10494 0.0
C346 C 0.53712 0.60135 0.09898 0.0
C347 C 0.54989 0.61215 0.12802 0.0
C348 C 0.56224 0.60445 0.14543 0.0
H349 H 0.58322 0.7257 0.23799 0.0
H350 H 0.58405 0.69853 0.20336 0.0
C351 C 0.5619 0.58626 0.13393 0.0
C352 C 0.54956 0.63087 0.1413 0.0
H353 H 0.56763 0.68393 0.12422 0.0
C354 C 0.53885 0.62838 0.17301 0.0
C355 C 0.56 0.65107 0.12334 0.0
C356 C 0.57212 0.65461 0.08953 0.0
C357 C 0.5383 0.64558 0.18727 0.0
C358 C 0.54875 0.66578 0.16937 0.0
C359 C 0.55948 0.66833 0.13765 0.0
C360 C 0.54957 0.68458 0.18459 0.0
C361 C 0.52688 0.64225 0.2217 0.0
C362 C 0.53019 0.6862 0.18435 0.0
C363 C 0.52973 0.70182 0.2039 0.0
C364 C 0.54858 0.71588 0.22421 0.0
C365 C 0.56847 0.71507 0.22257 0.0
C366 C 0.56897 0.69958 0.20283 0.0
H367 H 0.52103 0.62605 0.23349 0.0
H368 H 0.53884 0.65484 0.23968 0.0
H369 H 0.51188 0.64394 0.21845 0.0
H370 H 0.51503 0.67468 0.17048 0.0
H371 H 0.51409 0.70189 0.20502 0.0
H372 H 0.92424 0.47025 0.50547 0.0
H373 H 0.89344 0.47028 0.53576 0.0
H374 H 0.91183 0.53083 0.48489 0.0
H375 H 0.94267 0.53091 0.45453 0.0
H376 H 0.90189 0.50206 0.58039 0.0
H377 H 0.84223 0.49704 0.47876 0.0
H378 H 0.86329 0.48998 0.47151 0.0
H379 H 0.87152 0.51789 0.47098 0.0
C380 C 0.92156 0.48344 0.5004 0.0
C381 C 0.93604 0.50065 0.47776 0.0
C382 C 0.90385 0.48336 0.51757 0.0
C383 C 0.90017 0.50044 0.51236 0.0
C384 C 0.91399 0.51722 0.48873 0.0
H385 H 0.83495 0.55081 0.63101 0.0
H386 H 0.85135 0.54194 0.58341 0.0
C387 C 0.93168 0.51727 0.47144 0.0
C388 C 0.88386 0.50198 0.53475 0.0
H389 H 0.83729 0.507 0.53459 0.0
C390 C 0.8876 0.50287 0.57038 0.0
C391 C 0.86539 0.5033 0.5216 0.0
C392 C 0.86019 0.50182 0.48364 0.0
C393 C 0.87373 0.50545 0.5932 0.0
C394 C 0.85522 0.50673 0.58014 0.0
C395 C 0.85138 0.50583 0.54451 0.0
C396 C 0.84047 0.50987 0.60351 0.0
C397 C 0.87947 0.50749 0.63108 0.0
C398 C 0.82775 0.49428 0.62934 0.0
C399 C 0.81851 0.49935 0.65653 0.0
C400 C 0.82156 0.51997 0.65801 0.0
C401 C 0.83218 0.53473 0.63026 0.0
C402 C 0.84164 0.52971 0.60317 0.0
H403 H 0.89705 0.5111 0.63581 0.0
H404 H 0.87787 0.52045 0.64242 0.0
H405 H 0.86739 0.492 0.64475 0.0
H406 H 0.8264 0.47876 0.62977 0.0
H407 H 0.81037 0.48772 0.67764 0.0
H408 H 0.47198 0.93416 0.03398 0.0
H409 H 0.43954 0.90246 0.06226 0.0
H410 H 0.41953 0.94342 0.10719 0.0
H411 H 0.45175 0.97513 0.07896 0.0
H412 H 0.43432 0.89761 0.13368 0.0
H413 H 0.35851 0.8926 0.07357 0.0
H414 H 0.38654 0.90774 0.05408 0.0
H415 H 0.37924 0.91909 0.08834 0.0
C416 C 0.46038 0.93639 0.04921 0.0
C417 C 0.46452 0.95723 0.05421 0.0
C418 C 0.44187 0.91823 0.06545 0.0
C419 C 0.42695 0.9205 0.08659 0.0
C420 C 0.43052 0.94118 0.09049 0.0
H421 H 0.32751 0.85112 0.24482 0.0
H422 H 0.35144 0.8751 0.1977 0.0
C423 C 0.44907 0.95934 0.07446 0.0
C424 C 0.4092 0.90177 0.10748 0.0
H425 H 0.35226 0.87297 0.12703 0.0
C426 C 0.41632 0.89196 0.13186 0.0
C427 C 0.38575 0.89453 0.10524 0.0
C428 C 0.37698 0.90389 0.07868 0.0
C429 C 0.40083 0.8758 0.1551 0.0
C430 C 0.3774 0.86883 0.15336 0.0
C431 C 0.37018 0.87825 0.12833 0.0
C432 C 0.36054 0.85295 0.17895 0.0
C433 C 0.40994 0.86716 0.18241 0.0
C434 C 0.35686 0.83211 0.18328 0.0
C435 C 0.34336 0.81841 0.21052 0.0
C436 C 0.33309 0.82523 0.2338 0.0
C437 C 0.3355 0.8455 0.2278 0.0
C438 C 0.34908 0.8592 0.20071 0.0
H439 H 0.42875 0.87774 0.18525 0.0
H440 H 0.40186 0.86555 0.20775 0.0
H441 H 0.40601 0.85091 0.17518 0.0
H442 H 0.36509 0.82671 0.16632 0.0
H443 H 0.34197 0.80297 0.21435 0.0
H444 H 0.51748 0.44751 0.56615 0.0
H445 H 0.51703 0.41564 0.58869 0.0
H446 H 0.45446 0.39502 0.64324 0.0
H447 H 0.45469 0.42683 0.62061 0.0
H448 H 0.48772 0.39579 0.68419 0.0
H449 H 0.47732 0.35163 0.56466 0.0
H450 H 0.50034 0.37946 0.56321 0.0
H451 H 0.47143 0.37298 0.56663 0.0
C452 C 0.50336 0.43601 0.58237 0.0
C453 C 0.48609 0.43976 0.59152 0.0
C454 C 0.50312 0.41775 0.59519 0.0
C455 C 0.48554 0.40279 0.61723 0.0
C456 C 0.46814 0.40633 0.62612 0.0
H457 H 0.45426 0.28022 0.70887 0.0
H458 H 0.4554 0.30789 0.66991 0.0
C459 C 0.46838 0.42459 0.61335 0.0
C460 C 0.48619 0.38437 0.63319 0.0
H461 H 0.48679 0.33893 0.61553 0.0
C462 C 0.48744 0.38333 0.66916 0.0
C463 C 0.48568 0.36806 0.61352 0.0
C464 C 0.48341 0.3679 0.57488 0.0
C465 C 0.48847 0.3666 0.68605 0.0
C466 C 0.48862 0.35063 0.66639 0.0
C467 C 0.487 0.35139 0.63043 0.0
C468 C 0.48983 0.33279 0.68339 0.0
C469 C 0.4891 0.36599 0.7249 0.0
C470 C 0.50926 0.33735 0.70228 0.0
C471 C 0.50866 0.32162 0.72445 0.0
C472 C 0.48865 0.30104 0.72791 0.0
C473 C 0.46996 0.29588 0.7065 0.0
C474 C 0.47055 0.3117 0.68438 0.0
H475 H 0.48397 0.37664 0.73619 0.0
H476 H 0.47766 0.34924 0.73524 0.0
H477 H 0.50674 0.37161 0.73349 0.0
H478 H 0.5244 0.35348 0.70149 0.0
H479 H 0.52335 0.32595 0.74052 0.0
H480 H 0.54244 0.96354 0.47837 0.0
H481 H 0.54592 0.93317 0.46266 0.0
H482 H 0.52181 0.93508 0.36053 0.0
H483 H 0.51823 0.96548 0.37609 0.0
H484 H 0.51318 0.89236 0.43996 0.0
H485 H 0.58126 0.93763 0.3421 0.0
H486 H 0.57343 0.95096 0.37233 0.0
H487 H 0.55643 0.93915 0.33456 0.0
C488 C 0.53776 0.95746 0.45261 0.0
C489 C 0.5301 0.96703 0.42845 0.0
C490 C 0.53982 0.94012 0.44365 0.0
C491 C 0.53439 0.93201 0.41033 0.0
C492 C 0.52655 0.94136 0.38621 0.0
H493 H 0.50729 0.8128 0.32688 0.0
H494 H 0.50438 0.83925 0.36013 0.0
C495 C 0.52454 0.95877 0.39511 0.0
C496 C 0.53688 0.91375 0.40085 0.0
H497 H 0.56351 0.89939 0.34399 0.0
C498 C 0.52431 0.8939 0.41913 0.0
C499 C 0.55169 0.91589 0.3741 0.0
C500 C 0.56665 0.93711 0.35484 0.0
C501 C 0.52564 0.87595 0.41067 0.0
C502 C 0.5397 0.87785 0.3829 0.0
C503 C 0.5527 0.89788 0.36527 0.0
C504 C 0.54062 0.85924 0.37033 0.0
C505 C 0.51212 0.85521 0.43165 0.0
C506 C 0.56182 0.8612 0.36596 0.0
C507 C 0.56348 0.84615 0.3468 0.0
C508 C 0.54397 0.82883 0.33178 0.0
C509 C 0.52252 0.82575 0.3388 0.0
C510 C 0.52087 0.84093 0.35774 0.0
H511 H 0.50836 0.8583 0.45782 0.0
H512 H 0.4956 0.84448 0.41871 0.0
H513 H 0.52137 0.84657 0.43415 0.0
H514 H 0.57729 0.87516 0.37543 0.0
H515 H 0.58023 0.84898 0.34141 0.0
H516 H 0.61631 0.52888 0.01873 0.0
H517 H 0.64581 0.5324 0.98027 0.0
H518 H 0.60385 0.52567 0.89256 0.0
H519 H 0.57425 0.52246 0.93098 0.0
H520 H 0.64208 0.50232 0.9361 0.0
H521 H 0.66537 0.57831 0.86449 0.0
H522 H 0.64886 0.56993 0.9038 0.0
H523 H 0.63539 0.55821 0.86362 0.0
C524 C 0.61341 0.52841 0.99123 0.0
C525 C 0.59291 0.52542 0.97792 0.0
C526 C 0.63031 0.53039 0.96928 0.0
C527 C 0.62716 0.52949 0.93353 0.0
C528 C 0.60686 0.52684 0.92004 0.0
H529 H 0.69265 0.49781 0.77921 0.0
H530 H 0.66828 0.49706 0.82499 0.0
C531 C 0.58992 0.52493 0.94203 0.0
C532 C 0.64466 0.53022 0.91066 0.0
H533 H 0.67976 0.55765 0.84229 0.0
C534 C 0.65043 0.5145 0.91571 0.0
C535 C 0.65579 0.5463 0.8844 0.0
C536 C 0.65124 0.56428 0.87889 0.0
C537 C 0.66662 0.51411 0.89471 0.0
C538 C 0.67705 0.52965 0.86756 0.0
C539 C 0.67168 0.54568 0.86303 0.0
C540 C 0.6929 0.52914 0.84266 0.0
C541 C 0.67251 0.49716 0.90199 0.0
C542 C 0.71495 0.54734 0.83748 0.0
C543 C 0.72888 0.54786 0.81114 0.0
C544 C 0.72092 0.53023 0.78927 0.0
C545 C 0.69924 0.51165 0.79558 0.0
C546 C 0.68534 0.51115 0.82189 0.0
H547 H 0.66859 0.49101 0.92909 0.0
H548 H 0.66221 0.48326 0.88504 0.0
H549 H 0.69085 0.50365 0.89688 0.0
H550 H 0.72109 0.56144 0.85313 0.0
H551 H 0.74533 0.56253 0.80665 0.0
H552 H 0.10138 0.54375 0.50972 0.0
H553 H 0.13506 0.5793 0.49546 0.0
H554 H 0.0916 0.60303 0.46584 0.0
H555 H 0.05791 0.5677 0.48017 0.0
H556 H 0.1431 0.59722 0.4292 0.0
H557 H 0.14154 0.6532 0.52084 0.0
H558 H 0.12584 0.62422 0.52822 0.0
H559 H 0.11472 0.63637 0.49975 0.0
C560 C 0.09898 0.55667 0.50099 0.0
C561 C 0.0769 0.55282 0.496 0.0
C562 C 0.11827 0.57699 0.49279 0.0
C563 C 0.11589 0.59392 0.4799 0.0
C564 C 0.09391 0.59038 0.47638 0.0
H565 H 0.18852 0.71117 0.36175 0.0
H566 H 0.16376 0.68195 0.40238 0.0
C567 C 0.07463 0.57008 0.48439 0.0
C568 C 0.13603 0.61433 0.46619 0.0
H569 H 0.16434 0.66945 0.46991 0.0
C570 C 0.14805 0.61302 0.43851 0.0
C571 C 0.14232 0.63492 0.47817 0.0
C572 C 0.13057 0.63732 0.50859 0.0
C573 C 0.16542 0.63168 0.42137 0.0
C574 C 0.17143 0.65234 0.43283 0.0
C575 C 0.15985 0.65366 0.46123 0.0
C576 C 0.18816 0.67253 0.4136 0.0
C577 C 0.17625 0.62903 0.38991 0.0
C578 C 0.21063 0.67782 0.40785 0.0
C579 C 0.22478 0.69441 0.38426 0.0
C580 C 0.21676 0.70615 0.36626 0.0
C581 C 0.19507 0.70219 0.37472 0.0
C582 C 0.18091 0.68552 0.39807 0.0
H583 H 0.16616 0.61233 0.3801 0.0
H584 H 0.17806 0.64049 0.36888 0.0
H585 H 0.19351 0.63245 0.39659 0.0
H586 H 0.21681 0.66837 0.42022 0.0
H587 H 0.24133 0.69696 0.37837 0.0
H588 H 0.48548 0.06592 0.01614 0.0
H589 H 0.48341 0.09296 0.98026 0.0
H590 H 0.54378 0.14382 0.02912 0.0
H591 H 0.54603 0.11672 0.06512 0.0
H592 H 0.50695 0.15252 0.01519 0.0
H593 H 0.53189 0.12485 0.90188 0.0
H594 H 0.508 0.10357 0.92565 0.0
H595 H 0.53561 0.11816 0.94557 0.0
C596 C 0.49821 0.08286 0.01946 0.0
C597 C 0.5161 0.08916 0.04311 0.0
C598 C 0.49698 0.09828 -0.00099 0.0
C599 C 0.51366 0.12032 0.00167 0.0
C600 C 0.53079 0.12685 0.02665 0.0
H601 H 0.53262 0.2071 0.82879 0.0
H602 H 0.54061 0.1908 0.87861 0.0
C603 C 0.532 0.11137 0.04726 0.0
C604 C 0.51396 0.13618 0.97659 0.0
H605 H 0.51826 0.14829 0.89055 0.0
C606 C 0.50963 0.1518 0.98796 0.0
C607 C 0.51788 0.13543 0.9412 0.0
C608 C 0.52382 0.11975 0.92778 0.0
C609 C 0.5082 0.16614 0.96452 0.0
C610 C 0.51088 0.16456 0.92888 0.0
C611 C 0.51608 0.14947 0.91782 0.0
C612 C 0.50741 0.17757 0.90216 0.0
C613 C 0.50387 0.18283 0.97815 0.0
C614 C 0.48628 0.176 0.8992 0.0
C615 C 0.48174 0.18542 0.87085 0.0
C616 C 0.49814 0.19632 0.8447 0.0
C617 C 0.51963 0.19869 0.84847 0.0
C618 C 0.52421 0.18942 0.87693 0.0
H619 H 0.50959 0.18663 0.00527 0.0
H620 H 0.51273 0.19805 0.96232 0.0
H621 H 0.48527 0.17637 0.97749 0.0
H622 H 0.47283 0.16649 0.91781 0.0
H623 H 0.46491 0.18305 0.86838 0.0
H624 H 0.48008 0.51704 0.41607 0.0
H625 H 0.4538 0.51792 0.37379 0.0
H626 H 0.39722 0.4783 0.44247 0.0
H627 H 0.42333 0.47797 0.48501 0.0
H628 H 0.4176 0.48798 0.33904 0.0
H629 H 0.3891 0.52835 0.42516 0.0
H630 H 0.41299 0.52556 0.43535 0.0
H631 H 0.38425 0.50345 0.44383 0.0
C632 C 0.46201 0.50838 0.42197 0.0
C633 C 0.45381 0.49762 0.454 0.0
C634 C 0.44701 0.50896 0.39786 0.0
C635 C 0.42357 0.4987 0.40532 0.0
C636 C 0.41528 0.48698 0.43655 0.0
H637 H 0.31832 0.46909 0.25202 0.0
H638 H 0.34268 0.46729 0.29669 0.0
C639 C 0.43024 0.48664 0.46074 0.0
C640 C 0.40772 0.50022 0.38065 0.0
H641 H 0.36702 0.51342 0.37437 0.0
C642 C 0.40663 0.49365 0.34672 0.0
C643 C 0.39368 0.50802 0.3904 0.0
C644 C 0.39521 0.51697 0.42555 0.0
C645 C 0.39157 0.49419 0.32258 0.0
C646 C 0.37663 0.50086 0.33289 0.0
C647 C 0.37811 0.50792 0.36658 0.0
C648 C 0.35983 0.50122 0.3088 0.0
C649 C 0.39227 0.48808 0.28605 0.0
C650 C 0.36012 0.52047 0.30243 0.0
C651 C 0.34576 0.52136 0.27753 0.0
C652 C 0.33092 0.50304 0.25845 0.0
C653 C 0.3297 0.48348 0.26625 0.0
C654 C 0.34382 0.48252 0.29145 0.0
H655 H 0.40887 0.48982 0.28003 0.0
H656 H 0.37867 0.47089 0.28259 0.0
H657 H 0.38943 0.49821 0.26727 0.0
H658 H 0.37215 0.53507 0.31568 0.0
H659 H 0.34723 0.5367 0.27179 0.0
H660 H 0.93441 0.44982 0.98287 0.0
H661 H 0.90554 0.41729 0.9539 0.0
H662 H 0.92928 0.38013 0.00728 0.0
H663 H 0.95845 0.41268 0.03612 0.0
H664 H 0.91693 0.39392 0.91099 0.0
H665 H 0.85877 0.34166 0.01696 0.0
H666 H 0.87796 0.37054 0.02068 0.0
H667 H 0.88872 0.35288 0.02436 0.0
C668 C 0.93347 0.43474 0.98862 0.0
C669 C 0.94893 0.43396 0.01164 0.0
C670 C 0.91683 0.41612 0.97222 0.0
C671 C 0.91514 0.39627 0.97866 0.0
C672 C 0.93001 0.39521 0.00244 0.0
H673 H 0.85713 0.29332 0.83213 0.0
H674 H 0.87936 0.31617 0.88001 0.0
C675 C 0.94671 0.41387 0.01888 0.0
C676 C 0.89937 0.37732 0.95789 0.0
H677 H 0.85253 0.32584 0.96214 0.0
C678 C 0.90286 0.37904 0.92219 0.0
C679 C 0.881 0.35797 0.97261 0.0
C680 C 0.87617 0.35558 0.01073 0.0
C681 C 0.88852 0.36196 0.90074 0.0
C682 C 0.87033 0.34248 0.91542 0.0
C683 C 0.86667 0.34072 0.95111 0.0
C684 C 0.85455 0.32436 0.8933 0.0
C685 C 0.89269 0.36501 0.86235 0.0
C686 C 0.83266 0.32038 0.88644 0.0
C687 C 0.81989 0.30726 0.85918 0.0
C688 C 0.82892 0.29805 0.83841 0.0
C689 C 0.84985 0.30035 0.84761 0.0
C690 C 0.86256 0.3134 0.87488 0.0
H691 H 0.9047 0.38224 0.85472 0.0
H692 H 0.90014 0.35554 0.85417 0.0
H693 H 0.87641 0.35902 0.84824 0.0
H694 H 0.82623 0.32874 0.90039 0.0
H695 H 0.80391 0.30594 0.85251 0.0
H696 H 0.97802 0.5445 0.97507 0.0
H697 H 0.94919 0.54907 0.94579 0.0
H698 H 0.94796 0.51092 0.86211 0.0
H699 H 0.9766 0.50604 0.89136 0.0
H700 H 0.94929 0.56697 0.88189 0.0
H701 H 0.88064 0.48027 0.88963 0.0
H702 H 0.9066 0.49123 0.91436 0.0
H703 H 0.9063 0.48498 0.86986 0.0
C704 C 0.97172 0.53715 0.95035 0.0
C705 C 0.97957 0.52478 0.93568 0.0
C706 C 0.95519 0.53976 0.93367 0.0
C707 C 0.94605 0.52997 0.9021 0.0
C708 C 0.95436 0.5182 0.88685 0.0
H709 H 0.87681 0.55401 0.74172 0.0
H710 H 0.90372 0.55379 0.78281 0.0
C711 C 0.9709 0.51558 0.90349 0.0
C712 C 0.92797 0.53221 0.88493 0.0
H713 H 0.87404 0.50297 0.85201 0.0
C714 C 0.93276 0.55299 0.87565 0.0
C715 C 0.9062 0.51401 0.87743 0.0
C716 C 0.89948 0.49137 0.88863 0.0
C717 C 0.91679 0.55598 0.85763 0.0
C718 C 0.89556 0.53769 0.84828 0.0
C719 C 0.89036 0.51698 0.85898 0.0
C720 C 0.87944 0.53954 0.82482 0.0
C721 C 0.92288 0.5787 0.84849 0.0
C722 C 0.85672 0.53154 0.83465 0.0
C723 C 0.8412 0.53166 0.81102 0.0
C724 C 0.84813 0.53941 0.77709 0.0
C725 C 0.871 0.54788 0.7677 0.0
C726 C 0.88645 0.54791 0.79124 0.0
H727 H 0.93589 0.59059 0.86632 0.0
H728 H 0.93015 0.5831 0.82209 0.0
H729 H 0.90759 0.58005 0.84911 0.0
H730 H 0.85091 0.52486 0.86039 0.0
H731 H 0.82363 0.52492 0.81879 0.0
H732 H 0.42371 0.96952 0.52247 0.0
H733 H 0.39438 0.93432 0.50152 0.0
H734 H 0.44099 0.91198 0.51101 0.0
H735 H 0.47073 0.94743 0.53116 0.0
H736 H 0.42518 0.90794 0.4474 0.0
H737 H 0.35156 0.87349 0.53634 0.0
H738 H 0.36084 0.90076 0.52334 0.0
H739 H 0.37964 0.8954 0.54814 0.0
C740 C 0.42758 0.95695 0.52115 0.0
C741 C 0.44971 0.96144 0.52813 0.0
C742 C 0.41065 0.9367 0.50934 0.0
C743 C 0.41538 0.92039 0.50478 0.0
C744 C 0.43692 0.92429 0.51434 0.0
H745 H 0.33957 0.8031 0.38377 0.0
H746 H 0.36066 0.8269 0.43148 0.0
C747 C 0.45391 0.94459 0.52597 0.0
C748 C 0.39932 0.90087 0.48508 0.0
H749 H 0.34327 0.86026 0.47814 0.0
C750 C 0.4074 0.89726 0.45459 0.0
C751 C 0.37604 0.88697 0.49423 0.0
C752 C 0.36657 0.88922 0.5275 0.0
C753 C 0.39271 0.88078 0.4324 0.0
C754 C 0.36932 0.86749 0.44086 0.0
C755 C 0.36124 0.87057 0.47175 0.0
C756 C 0.35308 0.85126 0.41651 0.0
C757 C 0.40204 0.87813 0.39927 0.0
C758 C 0.34132 0.85686 0.39305 0.0
C759 C 0.32932 0.84336 0.36578 0.0
C760 C 0.32884 0.824 0.3616 0.0
C761 C 0.33942 0.81778 0.38651 0.0
C762 C 0.35153 0.83137 0.41369 0.0
H763 H 0.42052 0.89036 0.39581 0.0
H764 H 0.39951 0.86176 0.399 0.0
H765 H 0.3926 0.87953 0.37703 0.0
H766 H 0.34243 0.87221 0.39478 0.0
H767 H 0.32123 0.84849 0.34709 0.0
H768 H 0.51052 0.43838 0.96553 0.0
H769 H 0.50637 0.40641 0.93982 0.0
H770 H 0.51119 0.38227 0.04017 0.0
H771 H 0.51546 0.41449 0.06628 0.0
H772 H 0.53652 0.39208 0.94191 0.0
H773 H 0.4527 0.3309 0.00039 0.0
H774 H 0.46368 0.35955 0.00059 0.0
H775 H 0.47501 0.34798 0.02974 0.0
C776 C 0.51091 0.42643 0.98223 0.0
C777 C 0.51343 0.4291 0.01803 0.0
C778 C 0.5084 0.40806 0.96746 0.0
C779 C 0.50828 0.39186 0.98806 0.0
C780 C 0.51084 0.3944 0.02382 0.0
H781 H 0.51687 0.29431 0.87045 0.0
H782 H 0.52347 0.31826 0.91851 0.0
C783 C 0.51329 0.41282 0.0387 0.0
C784 C 0.50575 0.37259 0.9715 0.0
H785 H 0.46881 0.31831 0.96177 0.0
C786 C 0.52189 0.37587 0.94656 0.0
C787 C 0.48658 0.35151 0.97755 0.0
C788 C 0.46836 0.34715 0.00332 0.0
C789 C 0.51893 0.35887 0.92646 0.0
C790 C 0.4995 0.33784 0.93198 0.0
C791 C 0.48381 0.33438 0.95787 0.0
C792 C 0.49365 0.32013 0.90799 0.0
C793 C 0.53591 0.36389 0.89808 0.0
C794 C 0.47403 0.31223 0.88759 0.0
C795 C 0.47015 0.29843 0.86069 0.0
C796 C 0.48573 0.29216 0.85384 0.0
C797 C 0.50455 0.2988 0.8756 0.0
C798 C 0.50842 0.31263 0.90272 0.0
H799 H 0.54751 0.38158 0.89327 0.0
H800 H 0.54652 0.3571 0.9054 0.0
H801 H 0.52699 0.35644 0.87371 0.0
H802 H 0.46242 0.31779 0.89113 0.0
H803 H 0.45568 0.29366 0.84389 0.0
H804 H 0.08577 0.51175 0.40755 0.0
H805 H 0.118 0.51157 0.38251 0.0
H806 H 0.07216 0.44704 0.34675 0.0
H807 H 0.03985 0.44704 0.37177 0.0
H808 H 0.13436 0.48327 0.39322 0.0
H809 H 0.10508 0.48171 0.25892 0.0
H810 H 0.09344 0.48792 0.29487 0.0
H811 H 0.08431 0.46033 0.28668 0.0
C812 C 0.08253 0.49744 0.39464 0.0
C813 C 0.06014 0.47948 0.39141 0.0
C814 C 0.10099 0.49738 0.38031 0.0
C815 C 0.09744 0.47941 0.36239 0.0
C816 C 0.07523 0.46125 0.3599 0.0
H817 H 0.18509 0.45994 0.23115 0.0
H818 H 0.15493 0.45287 0.27175 0.0
C819 C 0.05676 0.46131 0.37412 0.0
C820 C 0.11685 0.47994 0.34536 0.0
H821 H 0.13714 0.47855 0.26654 0.0
C822 C 0.135 0.48221 0.36552 0.0
C823 C 0.11765 0.47862 0.30924 0.0
C824 C 0.09921 0.4772 0.28606 0.0
C825 C 0.15385 0.48294 0.35048 0.0
C826 C 0.15463 0.48166 0.31434 0.0
C827 C 0.13641 0.47929 0.29429 0.0
C828 C 0.17456 0.48384 0.2961 0.0
C829 C 0.1726 0.48485 0.37337 0.0
C830 C 0.19597 0.50321 0.29735 0.0
C831 C 0.2133 0.50719 0.27433 0.0
C832 C 0.20935 0.49197 0.24945 0.0
C833 C 0.18856 0.47193 0.25009 0.0
C834 C 0.17131 0.46791 0.27319 0.0
H835 H 0.16649 0.47928 0.4002 0.0
H836 H 0.17955 0.47531 0.3635 0.0
H837 H 0.18669 0.50207 0.37402 0.0
H838 H 0.19875 0.51591 0.31431 0.0
H839 H 0.22901 0.52291 0.27404 0.0
H840 H 0.59069 0.03088 0.96831 0.0
H841 H 0.62183 0.06156 0.93628 0.0
H842 H 0.58405 0.09343 0.93339 0.0
H843 H 0.55284 0.06292 0.9655 0.0
H844 H 0.62273 0.08204 0.87119 0.0
H845 H 0.64524 0.13701 0.98096 0.0
H846 H 0.62719 0.10795 0.98586 0.0
H847 H 0.61593 0.12331 0.9675 0.0
C848 C 0.5888 0.04424 0.9604 0.0
C849 C 0.5693 0.04447 0.96975 0.0
C850 C 0.60668 0.0618 0.9422 0.0
C851 C 0.60546 0.07997 0.9332 0.0
C852 C 0.58552 0.07976 0.94075 0.0
H853 H 0.69759 0.20299 0.82955 0.0
H854 H 0.66818 0.17411 0.86676 0.0
C855 C 0.56759 0.06218 0.95883 0.0
C856 C 0.6253 0.09932 0.91664 0.0
H857 H 0.66577 0.15256 0.92906 0.0
C858 C 0.6322 0.09744 0.88385 0.0
C859 C 0.63757 0.1194 0.93323 0.0
C860 C 0.63129 0.12212 0.96895 0.0
C861 C 0.65082 0.11521 0.8669 0.0
C862 C 0.66329 0.13527 0.88363 0.0
C863 C 0.65632 0.13716 0.9164 0.0
C864 C 0.68322 0.1545 0.8669 0.0
C865 C 0.65657 0.11246 0.83082 0.0
C866 C 0.70217 0.15371 0.85654 0.0
C867 C 0.71894 0.17017 0.83537 0.0
C868 C 0.71724 0.18786 0.82465 0.0
C869 C 0.69946 0.18967 0.8378 0.0
C870 C 0.68255 0.17308 0.85878 0.0
H871 H 0.64201 0.09813 0.81854 0.0
H872 H 0.6615 0.12701 0.81435 0.0
H873 H 0.67118 0.11008 0.83177 0.0
H874 H 0.70333 0.13978 0.86325 0.0
H875 H 0.73246 0.16839 0.82548 0.0
H876 H 0.53909 0.58812 0.4658 0.0
H877 H 0.54293 0.62108 0.44138 0.0
H878 H 0.52316 0.63352 0.53855 0.0
H879 H 0.51908 0.60018 0.56331 0.0
H880 H 0.50577 0.62807 0.43892 0.0
H881 H 0.58172 0.69255 0.50769 0.0
H882 H 0.57607 0.66544 0.50464 0.0
H883 H 0.55923 0.67059 0.53285 0.0
C884 C 0.5355 0.59779 0.48204 0.0
C885 C 0.52849 0.59137 0.51639 0.0
C886 C 0.53788 0.61672 0.46811 0.0
C887 C 0.5334 0.62975 0.48818 0.0
C888 C 0.52698 0.62381 0.52278 0.0
H889 H 0.5129 0.72005 0.36354 0.0
H890 H 0.50973 0.69844 0.41495 0.0
C891 C 0.52463 0.60478 0.53685 0.0
C892 C 0.53403 0.64862 0.47159 0.0
H893 H 0.56586 0.70379 0.46415 0.0
C894 C 0.51865 0.64466 0.44476 0.0
C895 C 0.55094 0.67017 0.47931 0.0
C896 C 0.56807 0.67513 0.50756 0.0
C897 C 0.52035 0.66159 0.42424 0.0
C898 C 0.53762 0.6832 0.43133 0.0
C899 C 0.55248 0.68725 0.45908 0.0
C900 C 0.54218 0.70122 0.4072 0.0
C901 C 0.50455 0.65603 0.39378 0.0
C902 C 0.56233 0.71147 0.38762 0.0
C903 C 0.56439 0.72417 0.35862 0.0
C904 C 0.54625 0.72669 0.34858 0.0
C905 C 0.52718 0.71842 0.37048 0.0
C906 C 0.52523 0.70587 0.39971 0.0
H907 H 0.49515 0.63849 0.38833 0.0
H908 H 0.49178 0.66045 0.39915 0.0
H909 H 0.51423 0.66521 0.3703 0.0
H910 H 0.57572 0.70827 0.39313 0.0
H911 H 0.57948 0.7307 0.34261 0.0
H912 H 0.46742 0.07193 0.50732 0.0
H913 H 0.46555 0.09904 0.54062 0.0
H914 H 0.53027 0.11793 0.58732 0.0
H915 H 0.53239 0.09113 0.55385 0.0
H916 H 0.46613 0.09965 0.61411 0.0
H917 H 0.53751 0.17624 0.5572 0.0
H918 H 0.52449 0.1508 0.53548 0.0
H919 H 0.54479 0.15662 0.56931 0.0
C920 C 0.48145 0.08214 0.52417 0.0
C921 C 0.50004 0.07934 0.52797 0.0
C922 C 0.48031 0.09755 0.5433 0.0
C923 C 0.49789 0.11067 0.56615 0.0
C924 C 0.51668 0.10823 0.56944 0.0
H925 H 0.52524 0.19885 0.72769 0.0
H926 H 0.5266 0.17807 0.68059 0.0
C927 C 0.51776 0.09274 0.55056 0.0
C928 C 0.49585 0.12573 0.58855 0.0
H929 H 0.5224 0.17877 0.61047 0.0
C930 C 0.47823 0.11699 0.61305 0.0
C931 C 0.51177 0.14831 0.58723 0.0
C932 C 0.53061 0.15864 0.56071 0.0
C933 C 0.47658 0.13009 0.6372 0.0
C934 C 0.49268 0.15269 0.63621 0.0
C935 C 0.51004 0.16149 0.61117 0.0
C936 C 0.49254 0.16717 0.66228 0.0
C937 C 0.45825 0.11941 0.66454 0.0
C938 C 0.47328 0.16868 0.66689 0.0
C939 C 0.47232 0.18033 0.69414 0.0
C940 C 0.49073 0.19092 0.71712 0.0
C941 C 0.51058 0.19055 0.71094 0.0
C942 C 0.51145 0.17878 0.68386 0.0
H943 H 0.4511 0.10171 0.66692 0.0
H944 H 0.46498 0.12662 0.69001 0.0
H945 H 0.44407 0.1218 0.65762 0.0
H946 H 0.45869 0.1603 0.65004 0.0
H947 H 0.45672 0.18015 0.69812 0.0
H948 H 0.44069 0.46053 0.00926 0.0
H949 H 0.40827 0.46418 0.02026 0.0
H950 H 0.45106 0.53334 0.00437 0.0
H951 H 0.4839 0.52989 0.99448 0.0
H952 H 0.43081 0.52393 0.06422 0.0
H953 H 0.36464 0.47489 0.96895 0.0
H954 H 0.37471 0.45934 0.99017 0.0
H955 H 0.39402 0.48267 0.96381 0.0
C956 C 0.44314 0.47649 0.00716 0.0
C957 C 0.46498 0.49494 0.00131 0.0
C958 C 0.42445 0.47853 0.01318 0.0
C959 C 0.42707 0.49902 0.01283 0.0
C960 C 0.44857 0.51735 0.00468 0.0
H961 H 0.33869 0.53456 0.11276 0.0
H962 H 0.36312 0.53413 0.06802 0.0
C963 C 0.46734 0.51534 -0.001 0.0
C964 C 0.40852 0.50153 0.02622 0.0
H965 H 0.351 0.48062 0.02264 0.0
C966 C 0.41349 0.51486 0.05452 0.0
C967 C 0.38582 0.4896 0.0138 0.0
C968 C 0.37955 0.47601 0.98227 0.0
C969 C 0.3963 0.51573 0.07181 0.0
C970 C 0.37349 0.50308 0.06034 0.0
C971 C 0.36853 0.49031 0.03133 0.0
C972 C 0.3546 0.50154 0.0805 0.0
C973 C 0.4025 0.5293 0.10343 0.0
C974 C 0.34074 0.4829 0.10085 0.0
C975 C 0.32671 0.48307 0.1263 0.0
C976 C 0.3263 0.50187 0.13172 0.0
C977 C 0.33852 0.51979 0.10905 0.0
C978 C 0.35261 0.51963 0.08364 0.0
H979 H 0.42037 0.53566 0.11171 0.0
H980 H 0.40054 0.54327 0.09785 0.0
H981 H 0.39089 0.51969 0.12514 0.0
H982 H 0.34202 0.46878 0.09878 0.0
H983 H 0.31736 0.46899 0.14327 0.0
H984 H 0.98359 0.43718 0.5333 0.0
H985 H 0.95512 0.40443 0.56474 0.0
H986 H 0.94142 0.44289 0.63061 0.0
H987 H 0.97011 0.47581 0.59964 0.0
H988 H 0.94363 0.41078 0.6664 0.0
H989 H 0.88637 0.37703 0.55364 0.0
H990 H 0.91489 0.38329 0.54623 0.0
H991 H 0.91006 0.40472 0.55447 0.0
C992 C 0.97471 0.43873 0.5547 0.0
C993 C 0.97908 0.45916 0.56379 0.0
C994 C 0.95827 0.41994 0.57245 0.0
C995 C 0.94573 0.42114 0.59949 0.0
C996 C 0.95074 0.44156 0.60962 0.0
H997 H 0.81856 0.32171 0.69466 0.0
H998 H 0.84785 0.35081 0.65765 0.0
C999 C 0.96723 0.46038 0.59194 0.0
C1000 C 0.92727 0.40114 0.61708 0.0
H1001 H 0.87615 0.35423 0.60361 0.0
C1002 C 0.9289 0.39841 0.65266 0.0
C1003 C 0.90785 0.38514 0.59923 0.0
C1004 C 0.90449 0.38771 0.56135 0.0
C1005 C 0.9118 0.38006 0.67082 0.0
C1006 C 0.89272 0.36374 0.6528 0.0
C1007 C 0.89094 0.36658 0.61728 0.0
C1008 C 0.87409 0.34407 0.67084 0.0
C1009 C 0.91407 0.37859 0.70934 0.0
C1010 C 0.87874 0.3299 0.68905 0.0
C1011 C 0.86204 0.31327 0.71011 0.0
C1012 C 0.84027 0.31034 0.71309 0.0
C1013 C 0.83508 0.32343 0.69266 0.0
C1014 C 0.85187 0.34017 0.6717 0.0
H1015 H 0.92645 0.39462 0.72016 0.0
H1016 H 0.89735 0.37199 0.72236 0.0
H1017 H 0.92028 0.36759 0.71542 0.0
H1018 H 0.89559 0.33226 0.68809 0.0
H1019 H 0.86646 0.30332 0.72538 0.0
H1020 H 0.53649 0.95832 0.06809 0.0
H1021 H 0.54068 0.92766 0.08117 0.0
H1022 H 0.59098 0.96445 0.1582 0.0
H1023 H 0.58662 0.99532 0.1457 0.0
H1024 H 0.60035 0.93752 0.10909 0.0
H1025 H 0.51635 0.89347 0.17663 0.0
H1026 H 0.51703 0.90469 0.13448 0.0
H1027 H 0.53207 0.92243 0.16922 0.0
C1028 C 0.54833 0.95994 0.08804 0.0
C1029 C 0.56092 0.97921 0.10633 0.0
C1030 C 0.55086 0.94244 0.09519 0.0
C1031 C 0.56603 0.9438 0.12072 0.0
C1032 C 0.57924 0.96317 0.13828 0.0
H1033 H 0.59735 0.86105 0.232 0.0
H1034 H 0.6017 0.89009 0.19371 0.0
C1035 C 0.5767 0.98076 0.13116 0.0
C1036 C 0.56683 0.92446 0.13067 0.0
H1037 H 0.53587 0.87538 0.172 0.0
C1038 C 0.58626 0.92384 0.12272 0.0
C1039 C 0.54834 0.90666 0.14816 0.0
C1040 C 0.52728 0.90675 0.15791 0.0
C1041 C 0.58767 0.90576 0.13202 0.0
C1042 C 0.56935 0.88813 0.15028 0.0
C1043 C 0.54981 0.88873 0.15762 0.0
C1044 C 0.57059 0.86978 0.16537 0.0
C1045 C 0.60868 0.90571 0.12203 0.0
C1046 C 0.55227 0.84842 0.16119 0.0
C1047 C 0.54952 0.83183 0.1836 0.0
C1048 C 0.56508 0.83637 0.21054 0.0
C1049 C 0.58497 0.85713 0.21168 0.0
C1050 C 0.58756 0.87377 0.18957 0.0
H1051 H 0.61661 0.91572 0.09828 0.0
H1052 H 0.62145 0.91281 0.14297 0.0
H1053 H 0.60469 0.88905 0.11778 0.0
H1054 H 0.53899 0.84494 0.1426 0.0
H1055 H 0.53397 0.81606 0.18206 0.0
H1056 H 0.55989 0.49211 0.51335 0.0
H1057 H 0.59216 0.48995 0.53463 0.0
H1058 H 0.63497 0.55955 0.5307 0.0
H1059 H 0.6029 0.56193 0.50912 0.0
H1060 H 0.65727 0.53629 0.51061 0.0
H1061 H 0.61134 0.5082 0.63609 0.0
H1062 H 0.59576 0.49285 0.59935 0.0
H1063 H 0.60329 0.52042 0.60236 0.0
C1064 C 0.57628 0.50697 0.51622 0.0
C1065 C 0.57869 0.52722 0.50993 0.0
C1066 C 0.5947 0.50569 0.52852 0.0
C1067 C 0.61584 0.5246 0.53479 0.0
C1068 C 0.61877 0.54476 0.52616 0.0
H1069 H 0.74 0.56265 0.64563 0.0
H1070 H 0.71261 0.55937 0.60181 0.0
C1071 C 0.60038 0.54608 0.51387 0.0
C1072 C 0.63406 0.5235 0.55366 0.0
H1073 H 0.64686 0.51135 0.63289 0.0
C1074 C 0.65501 0.53071 0.53728 0.0
C1075 C 0.63108 0.51631 0.58848 0.0
C1076 C 0.60926 0.50915 0.60783 0.0
C1077 C 0.67303 0.53076 0.55482 0.0
C1078 C 0.67015 0.52387 0.58986 0.0
C1079 C 0.64907 0.51647 0.60598 0.0
C1080 C 0.68885 0.52507 0.61121 0.0
C1081 C 0.69484 0.53796 0.53555 0.0
C1082 C 0.6849 0.50687 0.63082 0.0
C1083 C 0.70039 0.50881 0.65615 0.0
C1084 C 0.72025 0.52896 0.66223 0.0
C1085 C 0.72503 0.54685 0.64103 0.0
C1086 C 0.70937 0.54496 0.61592 0.0
H1087 H 0.69178 0.53572 0.50742 0.0
H1088 H 0.70704 0.55545 0.53965 0.0
H1089 H 0.70287 0.52894 0.54473 0.0
H1090 H 0.66921 0.49136 0.62776 0.0
H1091 H 0.69627 0.49481 0.67229 0.0
H1092 H 0.06195 0.56734 0.15612 0.0
H1093 H 0.09406 0.60074 0.17856 0.0
H1094 H 0.10062 0.63354 0.08112 0.0
H1095 H 0.06889 0.5998 0.05822 0.0
H1096 H 0.14111 0.64444 0.10355 0.0
H1097 H 0.09499 0.65241 0.21107 0.0
H1098 H 0.09245 0.62664 0.21404 0.0
H1099 H 0.08035 0.63309 0.17773 0.0
C1100 C 0.07007 0.58174 0.13965 0.0
C1101 C 0.06281 0.58104 0.10554 0.0
C1102 C 0.08837 0.60087 0.15252 0.0
C1103 C 0.09944 0.61987 0.13185 0.0
C1104 C 0.09228 0.61917 0.09766 0.0
H1105 H 0.19472 0.73247 0.25015 0.0
H1106 H 0.16505 0.71134 0.20774 0.0
C1107 C 0.07418 0.5999 0.08459 0.0
C1108 C 0.11898 0.64015 0.14573 0.0
H1109 H 0.13598 0.67164 0.21634 0.0
C1110 C 0.13991 0.65062 0.12795 0.0
C1111 C 0.11736 0.64871 0.17702 0.0
C1112 C 0.09498 0.63975 0.1958 0.0
C1113 C 0.15952 0.66858 0.14163 0.0
C1114 C 0.15838 0.6758 0.17456 0.0
C1115 C 0.13712 0.66607 0.19131 0.0
C1116 C 0.17902 0.69204 0.1936 0.0
C1117 C 0.18119 0.67954 0.12056 0.0
C1118 C 0.19737 0.68902 0.19873 0.0
C1119 C 0.21466 0.70157 0.22211 0.0
C1120 C 0.21362 0.717 0.2414 0.0
C1121 C 0.19602 0.72088 0.23508 0.0
C1122 C 0.17899 0.70867 0.2111 0.0
H1123 H 0.17731 0.67841 0.09259 0.0
H1124 H 0.19244 0.69687 0.12684 0.0
H1125 H 0.19057 0.67121 0.12565 0.0
H1126 H 0.19755 0.67592 0.18659 0.0
H1127 H 0.22777 0.69793 0.22727 0.0
loop_
_geom_bond_atom_site_label_1
_geom_bond_atom_site_label_2
_geom_bond_distance
_geom_bond_site_symmetry_2
_ccdc_geom_bond_type
Cu0 N1 1.999 1_454 S
Cu0 O6 1.974 1_454 S
Cu0 N11 1.985 . S
Cu0 O20 1.959 . S
N1 Cu0 1.999 1_656 S
N1 C3 1.263 . S
N1 C5 1.389 1_556 S
N2 C3 1.358 . S
N2 C4 1.400 . S
C3 N1 1.263 . S
C3 N2 1.358 . S
C3 H9 0.930 . S
C4 N2 1.400 . S
C4 C5 1.351 1_556 S
C4 H21 0.928 1_556 S
C5 N1 1.389 1_554 S
C5 C4 1.351 1_554 S
C5 H10 0.930 . S
O6 Cu0 1.974 1_656 S
O6 C16 1.282 . S
C7 O8 1.261 1_554 S
C7 O20 1.251 . S
O8 C7 1.261 1_556 S
H9 C3 0.930 . S
H10 C5 0.930 . S
N11 Cu0 1.985 . S
N11 C13 1.335 . S
N11 C14 1.390 . S
N12 C13 1.345 . S
N12 C15 1.336 . S
C13 N11 1.335 . S
C13 N12 1.345 . S
C13 H18 0.930 . S
C14 N11 1.390 . S
C14 C15 1.346 . S
C14 H19 0.930 1_554 S
C15 N12 1.336 . S
C15 C14 1.346 . S
C15 H22 0.929 . S
C16 O6 1.282 . S
C16 O17 1.216 1_655 S
O17 C16 1.216 1_455 S
H18 C13 0.930 . S
H19 C14 0.930 1_556 S
O20 Cu0 1.959 . S
O20 C7 1.251 . S
H21 C4 0.928 1_554 S
H22 C15 0.929 . S
Cu23 N24 1.999 . S
Cu23 O29 1.974 . S
Cu23 N34 1.985 1_565 S
Cu23 O43 1.959 1_565 S
N24 Cu23 1.999 . S
N24 C26 1.263 . S
N24 C28 1.389 . S
N25 C26 1.358 . S
N25 C27 1.400 . S
C26 N24 1.263 . S
C26 N25 1.358 . S
C26 H32 0.930 . S
C27 N25 1.400 . S
C27 C28 1.351 . S
C27 H44 0.930 . S
C28 N24 1.389 . S
C28 C27 1.351 . S
C28 H33 0.930 . S
O29 Cu23 1.974 . S
O29 C39 1.282 . S
C30 O31 1.261 . S
C30 O43 1.251 . S
O31 C30 1.261 . S
H32 C26 0.930 . S
H33 C28 0.930 . S
N34 Cu23 1.985 1_545 S
N34 C36 1.335 . S
N34 C37 1.390 . S
N35 C36 1.345 . S
N35 C38 1.336 . S
C36 N34 1.335 . S
C36 N35 1.345 . S
C36 H41 0.930 . S
C37 N34 1.390 . S
C37 C38 1.346 . S
C37 H42 0.930 . S
C38 N35 1.336 . S
C38 C37 1.346 . S
C38 H45 0.929 . S
C39 O29 1.282 . S
C39 O40 1.216 . S
O40 C39 1.216 . S
H41 C36 0.930 . S
H42 C37 0.930 . S
O43 Cu23 1.959 1_545 S
O43 C30 1.251 . S
H44 C27 0.930 . S
H45 C38 0.929 . S
Cu46 N47 1.999 1_554 S
Cu46 O52 1.974 1_554 S
Cu46 N57 1.985 . S
Cu46 O66 1.959 . S
N47 Cu46 1.999 1_556 S
N47 C49 1.263 . S
N47 C51 1.389 . S
N48 C49 1.358 . S
N48 C50 1.400 . S
C49 N47 1.263 . S
C49 N48 1.358 . S
C49 H55 0.930 . S
C50 N48 1.400 . S
C50 C51 1.351 . S
C50 H67 0.930 . S
C51 N47 1.389 . S
C51 C50 1.351 . S
C51 H56 0.930 . S
O52 Cu46 1.974 1_556 S
O52 C62 1.282 1_556 S
C53 O54 1.261 . S
C53 O66 1.251 . S
O54 C53 1.261 . S
H55 C49 0.930 . S
H56 C51 0.930 . S
N57 Cu46 1.985 . S
N57 C59 1.335 . S
N57 C60 1.390 . S
N58 C59 1.345 . S
N58 C61 1.336 . S
C59 N57 1.335 . S
C59 N58 1.345 . S
C59 H64 0.930 . S
C60 N57 1.390 . S
C60 C61 1.346 . S
C60 H65 0.930 . S
C61 N58 1.336 . S
C61 C60 1.346 . S
C61 H68 0.929 . S
C62 O52 1.282 1_554 S
C62 O63 1.216 . S
O63 C62 1.216 . S
H64 C59 0.930 . S
H65 C60 0.930 . S
O66 Cu46 1.959 . S
O66 C53 1.251 . S
H67 C50 0.930 . S
H68 C61 0.929 . S
Cu69 N70 1.999 1_655 S
Cu69 O75 1.974 1_655 S
Cu69 N80 1.985 . S
Cu69 O89 1.959 . S
N70 Cu69 1.999 1_455 S
N70 C72 1.263 . S
N70 C74 1.394 1_455 S
N71 C72 1.358 . S
N71 C73 1.400 . S
C72 N70 1.263 . S
C72 N71 1.358 . S
C72 H78 0.930 . S
C73 N71 1.400 . S
C73 C74 1.304 1_455 S
C73 H90 0.930 . S
C74 N70 1.394 1_655 S
C74 C73 1.304 1_655 S
C74 H79 0.968 . S
O75 Cu69 1.974 1_455 S
O75 C85 1.282 . S
C76 O77 1.261 . S
C76 O89 1.251 . S
O77 C76 1.261 . S
H78 C72 0.930 . S
H79 C74 0.968 . S
N80 Cu69 1.985 . S
N80 C82 1.335 . S
N80 C83 1.390 . S
N81 C82 1.345 . S
N81 C84 1.336 . S
C82 N80 1.335 . S
C82 N81 1.345 . S
C82 H87 0.930 . S
C83 N80 1.390 . S
C83 C84 1.346 . S
C83 H88 0.930 1_655 S
C84 N81 1.336 . S
C84 C83 1.346 . S
C84 H91 0.929 . S
C85 O75 1.282 . S
C85 O86 1.216 . S
O86 C85 1.216 . S
H87 C82 0.930 . S
H88 C83 0.930 1_455 S
O89 Cu69 1.959 . S
O89 C76 1.251 . S
H90 C73 0.930 . S
H91 C84 0.929 . S
Cu92 N93 1.999 . S
Cu92 O98 1.974 . S
Cu92 N103 1.985 1_545 S
Cu92 O112 1.959 1_545 S
N93 Cu92 1.999 . S
N93 C95 1.263 1_554 S
N93 C97 1.389 . S
N94 C95 1.358 . S
N94 C96 1.400 1_556 S
C95 N93 1.263 1_556 S
C95 N94 1.358 . S
C95 H101 0.930 . S
C96 N94 1.400 1_554 S
C96 C97 1.351 . S
C96 H113 0.930 . S
C97 N93 1.389 . S
C97 C96 1.351 . S
C97 H102 0.930 . S
O98 Cu92 1.974 . S
O98 C108 1.282 1_554 S
C99 O100 1.261 . S
C99 O112 1.251 . S
O100 C99 1.261 . S
H101 C95 0.930 . S
H102 C97 0.930 . S
N103 Cu92 1.985 1_565 S
N103 C105 1.335 . S
N103 C106 1.390 . S
N104 C105 1.345 . S
N104 C107 1.336 . S
C105 N103 1.335 . S
C105 N104 1.345 . S
C105 H110 0.930 . S
C106 N103 1.390 . S
C106 C107 1.346 . S
C106 H111 0.910 1_565 S
C107 N104 1.336 . S
C107 C106 1.346 . S
C107 H114 0.929 . S
C108 O98 1.282 1_556 S
C108 O109 1.216 . S
O109 C108 1.216 . S
H110 C105 0.930 . S
H111 C106 0.910 1_545 S
O112 Cu92 1.959 1_565 S
O112 C99 1.251 . S
H113 C96 0.930 . S
H114 C107 0.929 . S
Cu115 N116 1.999 . S
Cu115 O121 1.974 . S
Cu115 N126 1.985 . S
Cu115 O135 1.959 . S
N116 Cu115 1.999 . S
N116 C118 1.263 . S
N116 C120 1.389 . S
N117 C118 1.358 . S
N117 C119 1.400 . S
C118 N116 1.263 . S
C118 N117 1.358 . S
C118 H124 0.930 . S
C119 N117 1.400 . S
C119 C120 1.351 . S
C119 H136 0.930 . S
C120 N116 1.389 . S
C120 C119 1.351 . S
C120 H125 0.930 . S
O121 Cu115 1.974 . S
O121 C131 1.282 . S
C122 O123 1.261 . S
C122 O135 1.251 . S
O123 C122 1.261 . S
H124 C118 0.930 . S
H125 C120 0.930 . S
N126 Cu115 1.985 . S
N126 C128 1.335 . S
N126 C129 1.390 . S
N127 C128 1.345 . S
N127 C130 1.336 . S
C128 N126 1.335 . S
C128 N127 1.345 . S
C128 H133 0.930 . S
C129 N126 1.390 . S
C129 C130 1.346 . S
C129 H134 0.930 . S
C130 N127 1.336 . S
C130 C129 1.346 . S
C130 H137 0.929 . S
C131 O121 1.282 . S
C131 O132 1.216 . S
O132 C131 1.216 . S
H133 C128 0.930 . S
H134 C129 0.930 . S
O135 Cu115 1.959 . S
O135 C122 1.251 . S
H136 C119 0.930 . S
H137 C130 0.929 . S
H138 C146 0.930 . S
H139 C149 0.930 . S
H140 C151 0.930 . S
H141 C152 0.970 . S
H142 C152 0.970 . S
H143 C154 0.930 . S
H144 C156 0.930 . S
H145 C158 0.930 . S
C146 H138 0.930 . S
C146 C147 1.382 . S
C146 C148 1.426 . S
C147 C146 1.382 . S
C147 C151 1.389 . S
C148 C146 1.426 . S
C148 C149 1.375 . S
C148 C152 1.532 . S
C149 H139 0.930 . S
C149 C148 1.375 . S
C149 C150 1.416 . S
C150 C149 1.416 . S
C150 C151 1.371 . S
C151 H140 0.930 . S
C151 C147 1.389 . S
C151 C150 1.371 . S
C152 H141 0.970 . S
C152 H142 0.970 . S
C152 C148 1.532 . S
C152 C153 1.499 . S
C153 C152 1.499 . S
C153 C154 1.370 . S
C153 C158 1.415 . S
C154 H143 0.930 . S
C154 C153 1.370 . S
C154 C155 1.407 . S
C155 C154 1.407 . S
C155 C156 1.365 . S
C156 H144 0.930 . S
C156 C155 1.365 . S
C156 C157 1.393 . S
C157 C156 1.393 . S
C157 C158 1.387 . S
C158 H145 0.930 . S
C158 C153 1.415 . S
C158 C157 1.387 . S
H159 C167 0.930 . S
H160 C170 0.930 . S
H161 C172 0.930 . S
H162 C173 0.970 . S
H163 C173 0.970 . S
H164 C175 0.930 . S
H165 C177 0.930 . S
H166 C179 0.930 . S
C167 H159 0.930 . S
C167 C168 1.382 . S
C167 C169 1.426 . S
C168 C167 1.382 . S
C168 C172 1.389 . S
C169 C167 1.426 . S
C169 C170 1.375 . S
C169 C173 1.532 . S
C170 H160 0.930 . S
C170 C169 1.375 . S
C170 C171 1.416 . S
C171 C170 1.416 . S
C171 C172 1.371 . S
C172 H161 0.930 . S
C172 C168 1.389 . S
C172 C171 1.371 . S
C173 H162 0.970 . S
C173 H163 0.970 . S
C173 C169 1.532 . S
C173 C174 1.499 . S
C174 C173 1.499 . S
C174 C175 1.370 . S
C174 C179 1.415 . S
C175 H164 0.930 . S
C175 C174 1.370 . S
C175 C176 1.407 . S
C176 C175 1.407 . S
C176 C177 1.365 . S
C177 H165 0.930 . S
C177 C176 1.365 . S
C177 C178 1.393 . S
C178 C177 1.393 . S
C178 C179 1.387 . S
C179 H166 0.930 . S
C179 C174 1.415 . S
C179 C178 1.387 . S
H180 C188 0.930 . S
H181 C191 0.930 . S
H182 C193 0.930 . S
H183 C194 0.970 . S
H184 C194 0.970 . S
H185 C196 0.930 . S
H186 C198 0.930 . S
H187 C200 0.930 . S
C188 H180 0.930 . S
C188 C189 1.382 . S
C188 C190 1.426 . S
C189 C188 1.382 . S
C189 C193 1.389 . S
C190 C188 1.426 . S
C190 C191 1.375 . S
C190 C194 1.532 . S
C191 H181 0.930 . S
C191 C190 1.375 . S
C191 C192 1.416 . S
C192 C191 1.416 . S
C192 C193 1.371 . S
C193 H182 0.930 . S
C193 C189 1.389 . S
C193 C192 1.371 . S
C194 H183 0.970 . S
C194 H184 0.970 . S
C194 C190 1.532 . S
C194 C195 1.499 . S
C195 C194 1.499 . S
C195 C196 1.370 . S
C195 C200 1.415 . S
C196 H185 0.930 . S
C196 C195 1.370 . S
C196 C197 1.407 . S
C197 C196 1.407 . S
C197 C198 1.365 . S
C198 H186 0.930 . S
C198 C197 1.365 . S
C198 C199 1.393 . S
C199 C198 1.393 . S
C199 C200 1.387 . S
C200 H187 0.930 . S
C200 C195 1.415 . S
C200 C199 1.387 . S
H201 C209 0.930 . S
H202 C212 0.930 . S
H203 C214 0.930 . S
H204 C215 0.970 . S
H205 C215 0.970 . S
H206 C217 0.930 . S
H207 C219 0.930 . S
H208 C221 0.930 . S
C209 H201 0.930 . S
C209 C210 1.382 . S
C209 C211 1.426 . S
C210 C209 1.382 . S
C210 C214 1.389 . S
C211 C209 1.426 . S
C211 C212 1.375 . S
C211 C215 1.532 . S
C212 H202 0.930 . S
C212 C211 1.375 . S
C212 C213 1.416 . S
C213 C212 1.416 . S
C213 C214 1.371 . S
C214 H203 0.930 . S
C214 C210 1.389 . S
C214 C213 1.371 . S
C215 H204 0.970 . S
C215 H205 0.970 . S
C215 C211 1.532 . S
C215 C216 1.499 . S
C216 C215 1.499 . S
C216 C217 1.370 . S
C216 C221 1.415 . S
C217 H206 0.930 . S
C217 C216 1.370 . S
C217 C218 1.407 . S
C218 C217 1.407 . S
C218 C219 1.365 . S
C219 H207 0.930 . S
C219 C218 1.365 . S
C219 C220 1.393 . S
C220 C219 1.393 . S
C220 C221 1.387 . S
C221 H208 0.930 . S
C221 C216 1.415 . S
C221 C220 1.387 . S
H222 C230 0.930 . S
H223 C233 0.930 . S
H224 C235 0.930 . S
H225 C236 0.970 . S
H226 C236 0.970 . S
H227 C238 0.930 . S
H228 C240 0.930 . S
H229 C242 0.930 . S
C230 H222 0.930 . S
C230 C231 1.382 . S
C230 C232 1.426 . S
C231 C230 1.382 . S
C231 C235 1.389 . S
C232 C230 1.426 . S
C232 C233 1.375 . S
C232 C236 1.532 . S
C233 H223 0.930 . S
C233 C232 1.375 . S
C233 C234 1.416 . S
C234 C233 1.416 . S
C234 C235 1.371 . S
C235 H224 0.930 . S
C235 C231 1.389 . S
C235 C234 1.371 . S
C236 H225 0.970 . S
C236 H226 0.970 . S
C236 C232 1.532 . S
C236 C237 1.499 . S
C237 C236 1.499 . S
C237 C238 1.370 . S
C237 C242 1.415 . S
C238 H227 0.930 . S
C238 C237 1.370 . S
C238 C239 1.407 . S
C239 C238 1.407 . S
C239 C240 1.365 . S
C240 H228 0.930 . S
C240 C239 1.365 . S
C240 C241 1.393 . S
C241 C240 1.393 . S
C241 C242 1.387 . S
C242 H229 0.930 . S
C242 C237 1.415 . S
C242 C241 1.387 . S
H243 C251 0.930 . S
H244 C254 0.930 . S
H245 C256 0.930 . S
H246 C257 0.970 . S
H247 C257 0.970 . S
H248 C259 0.930 . S
H249 C261 0.930 . S
H250 C263 0.930 . S
C251 H243 0.930 . S
C251 C252 1.382 . S
C251 C253 1.426 . S
C252 C251 1.382 . S
C252 C256 1.389 . S
C253 C251 1.426 . S
C253 C254 1.375 . S
C253 C257 1.532 . S
C254 H244 0.930 . S
C254 C253 1.375 . S
C254 C255 1.416 . S
C255 C254 1.416 . S
C255 C256 1.371 . S
C256 H245 0.930 . S
C256 C252 1.389 . S
C256 C255 1.371 . S
C257 H246 0.970 . S
C257 H247 0.970 . S
C257 C253 1.532 . S
C257 C258 1.499 . S
C258 C257 1.499 . S
C258 C259 1.370 . S
C258 C263 1.415 . S
C259 H248 0.930 . S
C259 C258 1.370 . S
C259 C260 1.407 . S
C260 C259 1.407 . S
C260 C261 1.365 . S
C261 H249 0.930 . S
C261 C260 1.365 . S
C261 C262 1.393 . S
C262 C261 1.393 . S
C262 C263 1.387 . S
C263 H250 0.930 . S
C263 C258 1.415 . S
C263 C262 1.387 . S
H264 C272 0.929 . S
H265 C274 0.930 . S
H266 C276 0.930 . S
H267 C279 0.929 . S
H268 C282 0.930 . S
H269 C284 0.960 . S
H270 C284 0.960 . S
H271 C284 0.960 . S
C272 H264 0.929 . S
C272 C273 1.377 . S
C272 C274 1.384 . S
C273 C272 1.377 . S
C273 C279 1.390 . S
C274 H265 0.930 . S
C274 C272 1.384 . S
C274 C275 1.372 . S
C275 C274 1.372 . S
C275 C276 1.400 . S
C275 C280 1.490 . S
C276 H266 0.930 . S
C276 C275 1.400 . S
C276 C279 1.386 . S
H277 C293 0.930 . S
H278 C294 0.931 . S
C279 H267 0.929 . S
C279 C273 1.390 . S
C279 C276 1.386 . S
C280 C275 1.490 . S
C280 C282 1.395 . S
C280 C283 1.403 . S
H281 C287 0.930 . S
C282 H268 0.930 . S
C282 C280 1.395 . S
C282 C285 1.403 . S
C283 C280 1.403 . S
C283 C284 1.524 . S
C283 C287 1.400 . S
C284 H269 0.960 . S
C284 H270 0.960 . S
C284 H271 0.960 . S
C284 C283 1.524 . S
C285 C282 1.403 . S
C285 C286 1.392 . S
C285 C289 1.495 . S
C286 C285 1.392 . S
C286 C287 1.385 . S
C286 C288 1.478 . S
C287 H281 0.930 . S
C287 C283 1.400 . S
C287 C286 1.385 . S
C288 C286 1.478 . S
C288 C290 1.381 . S
C288 C294 1.383 . S
C289 C285 1.495 . S
C289 H295 0.959 . S
C289 H296 0.961 . S
C289 H297 0.960 . S
C290 C288 1.381 . S
C290 C291 1.394 . S
C290 H298 0.930 . S
C291 C290 1.394 . S
C291 C292 1.383 . S
C291 H299 0.929 . S
C292 C291 1.383 . S
C292 C293 1.377 . S
C293 H277 0.930 . S
C293 C292 1.377 . S
C293 C294 1.379 . S
C294 H278 0.931 . S
C294 C288 1.383 . S
C294 C293 1.379 . S
H295 C289 0.959 . S
H296 C289 0.961 . S
H297 C289 0.960 . S
H298 C290 0.930 . S
H299 C291 0.929 . S
H300 C308 0.929 . S
H301 C310 0.930 . S
H302 C312 0.930 . S
H303 C315 0.929 . S
H304 C318 0.930 . S
H305 C320 0.960 . S
H306 C320 0.960 . S
H307 C320 0.960 . S
C308 H300 0.929 . S
C308 C309 1.377 . S
C308 C310 1.384 . S
C309 C308 1.377 . S
C309 C315 1.390 . S
C310 H301 0.930 . S
C310 C308 1.384 . S
C310 C311 1.372 . S
C311 C310 1.372 . S
C311 C312 1.400 . S
C311 C316 1.490 . S
C312 H302 0.930 . S
C312 C311 1.400 . S
C312 C315 1.386 . S
H313 C329 0.930 . S
H314 C330 0.931 . S
C315 H303 0.929 . S
C315 C309 1.390 . S
C315 C312 1.386 . S
C316 C311 1.490 . S
C316 C318 1.395 . S
C316 C319 1.403 . S
H317 C323 0.930 . S
C318 H304 0.930 . S
C318 C316 1.395 . S
C318 C321 1.403 . S
C319 C316 1.403 . S
C319 C320 1.524 . S
C319 C323 1.400 . S
C320 H305 0.960 . S
C320 H306 0.960 . S
C320 H307 0.960 . S
C320 C319 1.524 . S
C321 C318 1.403 . S
C321 C322 1.392 . S
C321 C325 1.495 . S
C322 C321 1.392 . S
C322 C323 1.385 . S
C322 C324 1.478 . S
C323 H317 0.930 . S
C323 C319 1.400 . S
C323 C322 1.385 . S
C324 C322 1.478 . S
C324 C326 1.381 . S
C324 C330 1.383 . S
C325 C321 1.495 . S
C325 H331 0.959 . S
C325 H332 0.961 . S
C325 H333 0.960 . S
C326 C324 1.381 . S
C326 C327 1.394 . S
C326 H334 0.930 . S
C327 C326 1.394 . S
C327 C328 1.383 . S
C327 H335 0.929 . S
C328 C327 1.383 . S
C328 C329 1.377 . S
C329 H313 0.930 . S
C329 C328 1.377 . S
C329 C330 1.379 . S
C330 H314 0.931 . S
C330 C324 1.383 . S
C330 C329 1.379 . S
H331 C325 0.959 . S
H332 C325 0.961 . S
H333 C325 0.960 . S
H334 C326 0.930 . S
H335 C327 0.929 . S
H336 C344 0.929 . S
H337 C346 0.930 . S
H338 C348 0.930 . S
H339 C351 0.929 . S
H340 C354 0.930 . S
H341 C356 0.960 . S
H342 C356 0.960 . S
H343 C356 0.960 . S
C344 H336 0.929 . S
C344 C345 1.377 . S
C344 C346 1.384 . S
C345 C344 1.377 . S
C345 C351 1.390 . S
C346 H337 0.930 . S
C346 C344 1.384 . S
C346 C347 1.372 . S
C347 C346 1.372 . S
C347 C348 1.400 . S
C347 C352 1.490 . S
C348 H338 0.930 . S
C348 C347 1.400 . S
C348 C351 1.386 . S
H349 C365 0.930 . S
H350 C366 0.931 . S
C351 H339 0.929 . S
C351 C345 1.390 . S
C351 C348 1.386 . S
C352 C347 1.490 . S
C352 C354 1.395 . S
C352 C355 1.403 . S
H353 C359 0.930 . S
C354 H340 0.930 . S
C354 C352 1.395 . S
C354 C357 1.403 . S
C355 C352 1.403 . S
C355 C356 1.524 . S
C355 C359 1.400 . S
C356 H341 0.960 . S
C356 H342 0.960 . S
C356 H343 0.960 . S
C356 C355 1.524 . S
C357 C354 1.403 . S
C357 C358 1.392 . S
C357 C361 1.495 . S
C358 C357 1.392 . S
C358 C359 1.385 . S
C358 C360 1.478 . S
C359 H353 0.930 . S
C359 C355 1.400 . S
C359 C358 1.385 . S
C360 C358 1.478 . S
C360 C362 1.381 . S
C360 C366 1.383 . S
C361 C357 1.495 . S
C361 H367 0.959 . S
C361 H368 0.961 . S
C361 H369 0.960 . S
C362 C360 1.381 . S
C362 C363 1.394 . S
C362 H370 0.930 . S
C363 C362 1.394 . S
C363 C364 1.383 . S
C363 H371 0.929 . S
C364 C363 1.383 . S
C364 C365 1.377 . S
C365 H349 0.930 . S
C365 C364 1.377 . S
C365 C366 1.379 . S
C366 H350 0.931 . S
C366 C360 1.383 . S
C366 C365 1.379 . S
H367 C361 0.959 . S
H368 C361 0.961 . S
H369 C361 0.960 . S
H370 C362 0.930 . S
H371 C363 0.929 . S
H372 C380 0.929 . S
H373 C382 0.930 . S
H374 C384 0.930 . S
H375 C387 0.929 . S
H376 C390 0.930 . S
H377 C392 0.960 . S
H378 C392 0.960 . S
H379 C392 0.960 . S
C380 H372 0.929 . S
C380 C381 1.377 . S
C380 C382 1.384 . S
C381 C380 1.377 . S
C381 C387 1.390 . S
C382 H373 0.930 . S
C382 C380 1.384 . S
C382 C383 1.372 . S
C383 C382 1.372 . S
C383 C384 1.400 . S
C383 C388 1.490 . S
C384 H374 0.930 . S
C384 C383 1.400 . S
C384 C387 1.386 . S
H385 C401 0.930 . S
H386 C402 0.931 . S
C387 H375 0.929 . S
C387 C381 1.390 . S
C387 C384 1.386 . S
C388 C383 1.490 . S
C388 C390 1.395 . S
C388 C391 1.403 . S
H389 C395 0.930 . S
C390 H376 0.930 . S
C390 C388 1.395 . S
C390 C393 1.403 . S
C391 C388 1.403 . S
C391 C392 1.524 . S
C391 C395 1.400 . S
C392 H377 0.960 . S
C392 H378 0.960 . S
C392 H379 0.960 . S
C392 C391 1.524 . S
C393 C390 1.403 . S
C393 C394 1.392 . S
C393 C397 1.495 . S
C394 C393 1.392 . S
C394 C395 1.385 . S
C394 C396 1.478 . S
C395 H389 0.930 . S
C395 C391 1.400 . S
C395 C394 1.385 . S
C396 C394 1.478 . S
C396 C398 1.381 . S
C396 C402 1.383 . S
C397 C393 1.495 . S
C397 H403 0.959 . S
C397 H404 0.961 . S
C397 H405 0.960 . S
C398 C396 1.381 . S
C398 C399 1.394 . S
C398 H406 0.930 . S
C399 C398 1.394 . S
C399 C400 1.383 . S
C399 H407 0.929 . S
C400 C399 1.383 . S
C400 C401 1.377 . S
C401 H385 0.930 . S
C401 C400 1.377 . S
C401 C402 1.379 . S
C402 H386 0.931 . S
C402 C396 1.383 . S
C402 C401 1.379 . S
H403 C397 0.959 . S
H404 C397 0.961 . S
H405 C397 0.960 . S
H406 C398 0.930 . S
H407 C399 0.929 . S
H408 C416 0.929 . S
H409 C418 0.930 . S
H410 C420 0.930 . S
H411 C423 0.929 . S
H412 C426 0.930 . S
H413 C428 0.960 . S
H414 C428 0.960 . S
H415 C428 0.960 . S
C416 H408 0.929 . S
C416 C417 1.377 . S
C416 C418 1.384 . S
C417 C416 1.377 . S
C417 C423 1.390 . S
C418 H409 0.930 . S
C418 C416 1.384 . S
C418 C419 1.372 . S
C419 C418 1.372 . S
C419 C420 1.400 . S
C419 C424 1.490 . S
C420 H410 0.930 . S
C420 C419 1.400 . S
C420 C423 1.386 . S
H421 C437 0.930 . S
H422 C438 0.931 . S
C423 H411 0.929 . S
C423 C417 1.390 . S
C423 C420 1.386 . S
C424 C419 1.490 . S
C424 C426 1.395 . S
C424 C427 1.403 . S
H425 C431 0.930 . S
C426 H412 0.930 . S
C426 C424 1.395 . S
C426 C429 1.403 . S
C427 C424 1.403 . S
C427 C428 1.524 . S
C427 C431 1.400 . S
C428 H413 0.960 . S
C428 H414 0.960 . S
C428 H415 0.960 . S
C428 C427 1.524 . S
C429 C426 1.403 . S
C429 C430 1.392 . S
C429 C433 1.495 . S
C430 C429 1.392 . S
C430 C431 1.385 . S
C430 C432 1.478 . S
C431 H425 0.930 . S
C431 C427 1.400 . S
C431 C430 1.385 . S
C432 C430 1.478 . S
C432 C434 1.381 . S
C432 C438 1.383 . S
C433 C429 1.495 . S
C433 H439 0.959 . S
C433 H440 0.961 . S
C433 H441 0.960 . S
C434 C432 1.381 . S
C434 C435 1.394 . S
C434 H442 0.930 . S
C435 C434 1.394 . S
C435 C436 1.383 . S
C435 H443 0.929 . S
C436 C435 1.383 . S
C436 C437 1.377 . S
C437 H421 0.930 . S
C437 C436 1.377 . S
C437 C438 1.379 . S
C438 H422 0.931 . S
C438 C432 1.383 . S
C438 C437 1.379 . S
H439 C433 0.959 . S
H440 C433 0.961 . S
H441 C433 0.960 . S
H442 C434 0.930 . S
H443 C435 0.929 . S
H444 C452 0.929 . S
H445 C454 0.930 . S
H446 C456 0.930 . S
H447 C459 0.929 . S
H448 C462 0.930 . S
H449 C464 0.960 . S
H450 C464 0.960 . S
H451 C464 0.960 . S
C452 H444 0.929 . S
C452 C453 1.377 . S
C452 C454 1.384 . S
C453 C452 1.377 . S
C453 C459 1.390 . S
C454 H445 0.930 . S
C454 C452 1.384 . S
C454 C455 1.372 . S
C455 C454 1.372 . S
C455 C456 1.400 . S
C455 C460 1.490 . S
C456 H446 0.930 . S
C456 C455 1.400 . S
C456 C459 1.386 . S
H457 C473 0.930 . S
H458 C474 0.931 . S
C459 H447 0.929 . S
C459 C453 1.390 . S
C459 C456 1.386 . S
C460 C455 1.490 . S
C460 C462 1.395 . S
C460 C463 1.403 . S
H461 C467 0.930 . S
C462 H448 0.930 . S
C462 C460 1.395 . S
C462 C465 1.403 . S
C463 C460 1.403 . S
C463 C464 1.524 . S
C463 C467 1.400 . S
C464 H449 0.960 . S
C464 H450 0.960 . S
C464 H451 0.960 . S
C464 C463 1.524 . S
C465 C462 1.403 . S
C465 C466 1.392 . S
C465 C469 1.495 . S
C466 C465 1.392 . S
C466 C467 1.385 . S
C466 C468 1.478 . S
C467 H461 0.930 . S
C467 C463 1.400 . S
C467 C466 1.385 . S
C468 C466 1.478 . S
C468 C470 1.381 . S
C468 C474 1.383 . S
C469 C465 1.495 . S
C469 H475 0.959 . S
C469 H476 0.961 . S
C469 H477 0.960 . S
C470 C468 1.381 . S
C470 C471 1.394 . S
C470 H478 0.930 . S
C471 C470 1.394 . S
C471 C472 1.383 . S
C471 H479 0.929 . S
C472 C471 1.383 . S
C472 C473 1.377 . S
C473 H457 0.930 . S
C473 C472 1.377 . S
C473 C474 1.379 . S
C474 H458 0.931 . S
C474 C468 1.383 . S
C474 C473 1.379 . S
H475 C469 0.959 . S
H476 C469 0.961 . S
H477 C469 0.960 . S
H478 C470 0.930 . S
H479 C471 0.929 . S
H480 C488 0.929 . S
H481 C490 0.930 . S
H482 C492 0.930 . S
H483 C495 0.929 . S
H484 C498 0.930 . S
H485 C500 0.960 . S
H486 C500 0.960 . S
H487 C500 0.960 . S
C488 H480 0.929 . S
C488 C489 1.377 . S
C488 C490 1.384 . S
C489 C488 1.377 . S
C489 C495 1.390 . S
C490 H481 0.930 . S
C490 C488 1.384 . S
C490 C491 1.372 . S
C491 C490 1.372 . S
C491 C492 1.400 . S
C491 C496 1.490 . S
C492 H482 0.930 . S
C492 C491 1.400 . S
C492 C495 1.386 . S
H493 C509 0.930 . S
H494 C510 0.931 . S
C495 H483 0.929 . S
C495 C489 1.390 . S
C495 C492 1.386 . S
C496 C491 1.490 . S
C496 C498 1.395 . S
C496 C499 1.403 . S
H497 C503 0.930 . S
C498 H484 0.930 . S
C498 C496 1.395 . S
C498 C501 1.403 . S
C499 C496 1.403 . S
C499 C500 1.524 . S
C499 C503 1.400 . S
C500 H485 0.960 . S
C500 H486 0.960 . S
C500 H487 0.960 . S
C500 C499 1.524 . S
C501 C498 1.403 . S
C501 C502 1.392 . S
C501 C505 1.495 . S
C502 C501 1.392 . S
C502 C503 1.385 . S
C502 C504 1.478 . S
C503 H497 0.930 . S
C503 C499 1.400 . S
C503 C502 1.385 . S
C504 C502 1.478 . S
C504 C506 1.381 . S
C504 C510 1.383 . S
C505 C501 1.495 . S
C505 H511 0.959 . S
C505 H512 0.961 . S
C505 H513 0.960 . S
C506 C504 1.381 . S
C506 C507 1.394 . S
C506 H514 0.930 . S
C507 C506 1.394 . S
C507 C508 1.383 . S
C507 H515 0.929 . S
C508 C507 1.383 . S
C508 C509 1.377 . S
C509 H493 0.930 . S
C509 C508 1.377 . S
C509 C510 1.379 . S
C510 H494 0.931 . S
C510 C504 1.383 . S
C510 C509 1.379 . S
H511 C505 0.959 . S
H512 C505 0.961 . S
H513 C505 0.960 . S
H514 C506 0.930 . S
H515 C507 0.929 . S
H516 C524 0.929 1_554 S
H517 C526 0.930 . S
H518 C528 0.930 . S
H519 C531 0.929 . S
H520 C534 0.930 . S
H521 C536 0.960 . S
H522 C536 0.960 . S
H523 C536 0.960 . S
C524 H516 0.929 1_556 S
C524 C525 1.377 . S
C524 C526 1.384 . S
C525 C524 1.377 . S
C525 C531 1.390 . S
C526 H517 0.930 . S
C526 C524 1.384 . S
C526 C527 1.372 . S
C527 C526 1.372 . S
C527 C528 1.400 . S
C527 C532 1.490 . S
C528 H518 0.930 . S
C528 C527 1.400 . S
C528 C531 1.386 . S
H529 C545 0.930 . S
H530 C546 0.931 . S
C531 H519 0.929 . S
C531 C525 1.390 . S
C531 C528 1.386 . S
C532 C527 1.490 . S
C532 C534 1.395 . S
C532 C535 1.403 . S
H533 C539 0.930 . S
C534 H520 0.930 . S
C534 C532 1.395 . S
C534 C537 1.403 . S
C535 C532 1.403 . S
C535 C536 1.524 . S
C535 C539 1.400 . S
C536 H521 0.960 . S
C536 H522 0.960 . S
C536 H523 0.960 . S
C536 C535 1.524 . S
C537 C534 1.403 . S
C537 C538 1.392 . S
C537 C541 1.495 . S
C538 C537 1.392 . S
C538 C539 1.385 . S
C538 C540 1.478 . S
C539 H533 0.930 . S
C539 C535 1.400 . S
C539 C538 1.385 . S
C540 C538 1.478 . S
C540 C542 1.381 . S
C540 C546 1.383 . S
C541 C537 1.495 . S
C541 H547 0.959 . S
C541 H548 0.961 . S
C541 H549 0.960 . S
C542 C540 1.381 . S
C542 C543 1.394 . S
C542 H550 0.930 . S
C543 C542 1.394 . S
C543 C544 1.383 . S
C543 H551 0.929 . S
C544 C543 1.383 . S
C544 C545 1.377 . S
C545 H529 0.930 . S
C545 C544 1.377 . S
C545 C546 1.379 . S
C546 H530 0.931 . S
C546 C540 1.383 . S
C546 C545 1.379 . S
H547 C541 0.959 . S
H548 C541 0.961 . S
H549 C541 0.960 . S
H550 C542 0.930 . S
H551 C543 0.929 . S
H552 C560 0.929 . S
H553 C562 0.930 . S
H554 C564 0.930 . S
H555 C567 0.929 . S
H556 C570 0.930 . S
H557 C572 0.960 . S
H558 C572 0.960 . S
H559 C572 0.960 . S
C560 H552 0.929 . S
C560 C561 1.377 . S
C560 C562 1.384 . S
C561 C560 1.377 . S
C561 C567 1.390 . S
C562 H553 0.930 . S
C562 C560 1.384 . S
C562 C563 1.372 . S
C563 C562 1.372 . S
C563 C564 1.400 . S
C563 C568 1.490 . S
C564 H554 0.930 . S
C564 C563 1.400 . S
C564 C567 1.386 . S
H565 C581 0.930 . S
H566 C582 0.931 . S
C567 H555 0.929 . S
C567 C561 1.390 . S
C567 C564 1.386 . S
C568 C563 1.490 . S
C568 C570 1.395 . S
C568 C571 1.403 . S
H569 C575 0.930 . S
C570 H556 0.930 . S
C570 C568 1.395 . S
C570 C573 1.403 . S
C571 C568 1.403 . S
C571 C572 1.524 . S
C571 C575 1.400 . S
C572 H557 0.960 . S
C572 H558 0.960 . S
C572 H559 0.960 . S
C572 C571 1.524 . S
C573 C570 1.403 . S
C573 C574 1.392 . S
C573 C577 1.495 . S
C574 C573 1.392 . S
C574 C575 1.385 . S
C574 C576 1.478 . S
C575 H569 0.930 . S
C575 C571 1.400 . S
C575 C574 1.385 . S
C576 C574 1.478 . S
C576 C578 1.381 . S
C576 C582 1.383 . S
C577 C573 1.495 . S
C577 H583 0.959 . S
C577 H584 0.961 . S
C577 H585 0.960 . S
C578 C576 1.381 . S
C578 C579 1.394 . S
C578 H586 0.930 . S
C579 C578 1.394 . S
C579 C580 1.383 . S
C579 H587 0.929 . S
C580 C579 1.383 . S
C580 C581 1.377 . S
C581 H565 0.930 . S
C581 C580 1.377 . S
C581 C582 1.379 . S
C582 H566 0.931 . S
C582 C576 1.383 . S
C582 C581 1.379 . S
H583 C577 0.959 . S
H584 C577 0.961 . S
H585 C577 0.960 . S
H586 C578 0.930 . S
H587 C579 0.929 . S
H588 C596 0.929 . S
H589 C598 0.930 . S
H590 C600 0.930 . S
H591 C603 0.929 . S
H592 C606 0.930 . S
H593 C608 0.960 . S
H594 C608 0.960 . S
H595 C608 0.960 . S
C596 H588 0.929 . S
C596 C597 1.377 . S
C596 C598 1.384 . S
C597 C596 1.377 . S
C597 C603 1.390 . S
C598 H589 0.930 . S
C598 C596 1.384 . S
C598 C599 1.372 . S
C599 C598 1.372 . S
C599 C600 1.400 . S
C599 C604 1.490 . S
C600 H590 0.930 . S
C600 C599 1.400 . S
C600 C603 1.386 . S
H601 C617 0.930 . S
H602 C618 0.931 . S
C603 H591 0.929 . S
C603 C597 1.390 . S
C603 C600 1.386 . S
C604 C599 1.490 . S
C604 C606 1.395 . S
C604 C607 1.403 . S
H605 C611 0.930 . S
C606 H592 0.930 . S
C606 C604 1.395 . S
C606 C609 1.403 . S
C607 C604 1.403 . S
C607 C608 1.524 . S
C607 C611 1.400 . S
C608 H593 0.960 . S
C608 H594 0.960 . S
C608 H595 0.960 . S
C608 C607 1.524 . S
C609 C606 1.403 . S
C609 C610 1.392 . S
C609 C613 1.495 . S
C610 C609 1.392 . S
C610 C611 1.385 . S
C610 C612 1.478 . S
C611 H605 0.930 . S
C611 C607 1.400 . S
C611 C610 1.385 . S
C612 C610 1.478 . S
C612 C614 1.381 . S
C612 C618 1.383 . S
C613 C609 1.495 . S
C613 H619 0.959 . S
C613 H620 0.961 . S
C613 H621 0.960 . S
C614 C612 1.381 . S
C614 C615 1.394 . S
C614 H622 0.930 . S
C615 C614 1.394 . S
C615 C616 1.383 . S
C615 H623 0.929 . S
C616 C615 1.383 . S
C616 C617 1.377 . S
C617 H601 0.930 . S
C617 C616 1.377 . S
C617 C618 1.379 . S
C618 H602 0.931 . S
C618 C612 1.383 . S
C618 C617 1.379 . S
H619 C613 0.959 . S
H620 C613 0.961 . S
H621 C613 0.960 . S
H622 C614 0.930 . S
H623 C615 0.929 . S
H624 C632 0.929 . S
H625 C634 0.930 . S
H626 C636 0.930 . S
H627 C639 0.929 . S
H628 C642 0.930 . S
H629 C644 0.960 . S
H630 C644 0.960 . S
H631 C644 0.960 . S
C632 H624 0.929 . S
C632 C633 1.377 . S
C632 C634 1.384 . S
C633 C632 1.377 . S
C633 C639 1.390 . S
C634 H625 0.930 . S
C634 C632 1.384 . S
C634 C635 1.372 . S
C635 C634 1.372 . S
C635 C636 1.400 . S
C635 C640 1.490 . S
C636 H626 0.930 . S
C636 C635 1.400 . S
C636 C639 1.386 . S
H637 C653 0.930 . S
H638 C654 0.931 . S
C639 H627 0.929 . S
C639 C633 1.390 . S
C639 C636 1.386 . S
C640 C635 1.490 . S
C640 C642 1.395 . S
C640 C643 1.403 . S
H641 C647 0.930 . S
C642 H628 0.930 . S
C642 C640 1.395 . S
C642 C645 1.403 . S
C643 C640 1.403 . S
C643 C644 1.524 . S
C643 C647 1.400 . S
C644 H629 0.960 . S
C644 H630 0.960 . S
C644 H631 0.960 . S
C644 C643 1.524 . S
C645 C642 1.403 . S
C645 C646 1.392 . S
C645 C649 1.495 . S
C646 C645 1.392 . S
C646 C647 1.385 . S
C646 C648 1.478 . S
C647 H641 0.930 . S
C647 C643 1.400 . S
C647 C646 1.385 . S
C648 C646 1.478 . S
C648 C650 1.381 . S
C648 C654 1.383 . S
C649 C645 1.495 . S
C649 H655 0.959 . S
C649 H656 0.961 . S
C649 H657 0.960 . S
C650 C648 1.381 . S
C650 C651 1.394 . S
C650 H658 0.930 . S
C651 C650 1.394 . S
C651 C652 1.383 . S
C651 H659 0.929 . S
C652 C651 1.383 . S
C652 C653 1.377 . S
C653 H637 0.930 . S
C653 C652 1.377 . S
C653 C654 1.379 . S
C654 H638 0.931 . S
C654 C648 1.383 . S
C654 C653 1.379 . S
H655 C649 0.959 . S
H656 C649 0.961 . S
H657 C649 0.960 . S
H658 C650 0.930 . S
H659 C651 0.929 . S
H660 C668 0.929 . S
H661 C670 0.930 . S
H662 C672 0.930 . S
H663 C675 0.929 . S
H664 C678 0.930 . S
H665 C680 0.960 . S
H666 C680 0.960 . S
H667 C680 0.960 . S
C668 H660 0.929 . S
C668 C669 1.377 . S
C668 C670 1.384 . S
C669 C668 1.377 . S
C669 C675 1.390 . S
C670 H661 0.930 . S
C670 C668 1.384 . S
C670 C671 1.372 . S
C671 C670 1.372 . S
C671 C672 1.400 . S
C671 C676 1.490 . S
C672 H662 0.930 . S
C672 C671 1.400 . S
C672 C675 1.386 . S
H673 C689 0.930 . S
H674 C690 0.931 . S
C675 H663 0.929 . S
C675 C669 1.390 . S
C675 C672 1.386 . S
C676 C671 1.490 . S
C676 C678 1.395 . S
C676 C679 1.403 . S
H677 C683 0.930 . S
C678 H664 0.930 . S
C678 C676 1.395 . S
C678 C681 1.403 . S
C679 C676 1.403 . S
C679 C680 1.524 . S
C679 C683 1.400 . S
C680 H665 0.960 . S
C680 H666 0.960 . S
C680 H667 0.960 . S
C680 C679 1.524 . S
C681 C678 1.403 . S
C681 C682 1.392 . S
C681 C685 1.495 . S
C682 C681 1.392 . S
C682 C683 1.385 . S
C682 C684 1.478 . S
C683 H677 0.930 . S
C683 C679 1.400 . S
C683 C682 1.385 . S
C684 C682 1.478 . S
C684 C686 1.381 . S
C684 C690 1.383 . S
C685 C681 1.495 . S
C685 H691 0.959 . S
C685 H692 0.961 . S
C685 H693 0.960 . S
C686 C684 1.381 . S
C686 C687 1.394 . S
C686 H694 0.930 . S
C687 C686 1.394 . S
C687 C688 1.383 . S
C687 H695 0.929 . S
C688 C687 1.383 . S
C688 C689 1.377 . S
C689 H673 0.930 . S
C689 C688 1.377 . S
C689 C690 1.379 . S
C690 H674 0.931 . S
C690 C684 1.383 . S
C690 C689 1.379 . S
H691 C685 0.959 . S
H692 C685 0.961 . S
H693 C685 0.960 . S
H694 C686 0.930 . S
H695 C687 0.929 . S
H696 C704 0.929 . S
H697 C706 0.930 . S
H698 C708 0.930 . S
H699 C711 0.929 . S
H700 C714 0.930 . S
H701 C716 0.960 . S
H702 C716 0.960 . S
H703 C716 0.960 . S
C704 H696 0.929 . S
C704 C705 1.377 . S
C704 C706 1.384 . S
C705 C704 1.377 . S
C705 C711 1.390 . S
C706 H697 0.930 . S
C706 C704 1.384 . S
C706 C707 1.372 . S
C707 C706 1.372 . S
C707 C708 1.400 . S
C707 C712 1.490 . S
C708 H698 0.930 . S
C708 C707 1.400 . S
C708 C711 1.386 . S
H709 C725 0.930 . S
H710 C726 0.931 . S
C711 H699 0.929 . S
C711 C705 1.390 . S
C711 C708 1.386 . S
C712 C707 1.490 . S
C712 C714 1.395 . S
C712 C715 1.403 . S
H713 C719 0.930 . S
C714 H700 0.930 . S
C714 C712 1.395 . S
C714 C717 1.403 . S
C715 C712 1.403 . S
C715 C716 1.524 . S
C715 C719 1.400 . S
C716 H701 0.960 . S
C716 H702 0.960 . S
C716 H703 0.960 . S
C716 C715 1.524 . S
C717 C714 1.403 . S
C717 C718 1.392 . S
C717 C721 1.495 . S
C718 C717 1.392 . S
C718 C719 1.385 . S
C718 C720 1.478 . S
C719 H713 0.930 . S
C719 C715 1.400 . S
C719 C718 1.385 . S
C720 C718 1.478 . S
C720 C722 1.381 . S
C720 C726 1.383 . S
C721 C717 1.495 . S
C721 H727 0.959 . S
C721 H728 0.961 . S
C721 H729 0.960 . S
C722 C720 1.381 . S
C722 C723 1.394 . S
C722 H730 0.930 . S
C723 C722 1.394 . S
C723 C724 1.383 . S
C723 H731 0.929 . S
C724 C723 1.383 . S
C724 C725 1.377 . S
C725 H709 0.930 . S
C725 C724 1.377 . S
C725 C726 1.379 . S
C726 H710 0.931 . S
C726 C720 1.383 . S
C726 C725 1.379 . S
H727 C721 0.959 . S
H728 C721 0.961 . S
H729 C721 0.960 . S
H730 C722 0.930 . S
H731 C723 0.929 . S
H732 C740 0.929 . S
H733 C742 0.930 . S
H734 C744 0.930 . S
H735 C747 0.929 . S
H736 C750 0.930 . S
H737 C752 0.960 . S
H738 C752 0.960 . S
H739 C752 0.960 . S
C740 H732 0.929 . S
C740 C741 1.377 . S
C740 C742 1.384 . S
C741 C740 1.377 . S
C741 C747 1.390 . S
C742 H733 0.930 . S
C742 C740 1.384 . S
C742 C743 1.372 . S
C743 C742 1.372 . S
C743 C744 1.400 . S
C743 C748 1.490 . S
C744 H734 0.930 . S
C744 C743 1.400 . S
C744 C747 1.386 . S
H745 C761 0.930 . S
H746 C762 0.931 . S
C747 H735 0.929 . S
C747 C741 1.390 . S
C747 C744 1.386 . S
C748 C743 1.490 . S
C748 C750 1.395 . S
C748 C751 1.403 . S
H749 C755 0.930 . S
C750 H736 0.930 . S
C750 C748 1.395 . S
C750 C753 1.403 . S
C751 C748 1.403 . S
C751 C752 1.524 . S
C751 C755 1.400 . S
C752 H737 0.960 . S
C752 H738 0.960 . S
C752 H739 0.960 . S
C752 C751 1.524 . S
C753 C750 1.403 . S
C753 C754 1.392 . S
C753 C757 1.495 . S
C754 C753 1.392 . S
C754 C755 1.385 . S
C754 C756 1.478 . S
C755 H749 0.930 . S
C755 C751 1.400 . S
C755 C754 1.385 . S
C756 C754 1.478 . S
C756 C758 1.381 . S
C756 C762 1.383 . S
C757 C753 1.495 . S
C757 H763 0.959 . S
C757 H764 0.961 . S
C757 H765 0.960 . S
C758 C756 1.381 . S
C758 C759 1.394 . S
C758 H766 0.930 . S
C759 C758 1.394 . S
C759 C760 1.383 . S
C759 H767 0.929 . S
C760 C759 1.383 . S
C760 C761 1.377 . S
C761 H745 0.930 . S
C761 C760 1.377 . S
C761 C762 1.379 . S
C762 H746 0.931 . S
C762 C756 1.383 . S
C762 C761 1.379 . S
H763 C757 0.959 . S
H764 C757 0.961 . S
H765 C757 0.960 . S
H766 C758 0.930 . S
H767 C759 0.929 . S
H768 C776 0.929 . S
H769 C778 0.930 . S
H770 C780 0.930 . S
H771 C783 0.929 . S
H772 C786 0.930 . S
H773 C788 0.960 . S
H774 C788 0.960 . S
H775 C788 0.960 . S
C776 H768 0.929 . S
C776 C777 1.377 . S
C776 C778 1.384 . S
C777 C776 1.377 . S
C777 C783 1.390 . S
C778 H769 0.930 . S
C778 C776 1.384 . S
C778 C779 1.372 . S
C779 C778 1.372 . S
C779 C780 1.400 . S
C779 C784 1.490 . S
C780 H770 0.930 . S
C780 C779 1.400 . S
C780 C783 1.386 . S
H781 C797 0.930 . S
H782 C798 0.931 . S
C783 H771 0.929 . S
C783 C777 1.390 . S
C783 C780 1.386 . S
C784 C779 1.490 . S
C784 C786 1.395 . S
C784 C787 1.403 . S
H785 C791 0.930 . S
C786 H772 0.930 . S
C786 C784 1.395 . S
C786 C789 1.403 . S
C787 C784 1.403 . S
C787 C788 1.524 . S
C787 C791 1.400 . S
C788 H773 0.960 . S
C788 H774 0.960 . S
C788 H775 0.960 . S
C788 C787 1.524 . S
C789 C786 1.403 . S
C789 C790 1.392 . S
C789 C793 1.495 . S
C790 C789 1.392 . S
C790 C791 1.385 . S
C790 C792 1.478 . S
C791 H785 0.930 . S
C791 C787 1.400 . S
C791 C790 1.385 . S
C792 C790 1.478 . S
C792 C794 1.381 . S
C792 C798 1.383 . S
C793 C789 1.495 . S
C793 H799 0.959 . S
C793 H800 0.961 . S
C793 H801 0.960 . S
C794 C792 1.381 . S
C794 C795 1.394 . S
C794 H802 0.930 . S
C795 C794 1.394 . S
C795 C796 1.383 . S
C795 H803 0.929 . S
C796 C795 1.383 . S
C796 C797 1.377 . S
C797 H781 0.930 . S
C797 C796 1.377 . S
C797 C798 1.379 . S
C798 H782 0.931 . S
C798 C792 1.383 . S
C798 C797 1.379 . S
H799 C793 0.959 . S
H800 C793 0.961 . S
H801 C793 0.960 . S
H802 C794 0.930 . S
H803 C795 0.929 . S
H804 C812 0.929 . S
H805 C814 0.930 . S
H806 C816 0.930 . S
H807 C819 0.929 . S
H808 C822 0.930 . S
H809 C824 0.960 . S
H810 C824 0.960 . S
H811 C824 0.960 . S
C812 H804 0.929 . S
C812 C813 1.377 . S
C812 C814 1.384 . S
C813 C812 1.377 . S
C813 C819 1.390 . S
C814 H805 0.930 . S
C814 C812 1.384 . S
C814 C815 1.372 . S
C815 C814 1.372 . S
C815 C816 1.400 . S
C815 C820 1.490 . S
C816 H806 0.930 . S
C816 C815 1.400 . S
C816 C819 1.386 . S
H817 C833 0.930 . S
H818 C834 0.931 . S
C819 H807 0.929 . S
C819 C813 1.390 . S
C819 C816 1.386 . S
C820 C815 1.490 . S
C820 C822 1.395 . S
C820 C823 1.403 . S
H821 C827 0.930 . S
C822 H808 0.930 . S
C822 C820 1.395 . S
C822 C825 1.403 . S
C823 C820 1.403 . S
C823 C824 1.524 . S
C823 C827 1.400 . S
C824 H809 0.960 . S
C824 H810 0.960 . S
C824 H811 0.960 . S
C824 C823 1.524 . S
C825 C822 1.403 . S
C825 C826 1.392 . S
C825 C829 1.495 . S
C826 C825 1.392 . S
C826 C827 1.385 . S
C826 C828 1.478 . S
C827 H821 0.930 . S
C827 C823 1.400 . S
C827 C826 1.385 . S
C828 C826 1.478 . S
C828 C830 1.381 . S
C828 C834 1.383 . S
C829 C825 1.495 . S
C829 H835 0.959 . S
C829 H836 0.961 . S
C829 H837 0.960 . S
C830 C828 1.381 . S
C830 C831 1.394 . S
C830 H838 0.930 . S
C831 C830 1.394 . S
C831 C832 1.383 . S
C831 H839 0.929 . S
C832 C831 1.383 . S
C832 C833 1.377 . S
C833 H817 0.930 . S
C833 C832 1.377 . S
C833 C834 1.379 . S
C834 H818 0.931 . S
C834 C828 1.383 . S
C834 C833 1.379 . S
H835 C829 0.959 . S
H836 C829 0.961 . S
H837 C829 0.960 . S
H838 C830 0.930 . S
H839 C831 0.929 . S
H840 C848 0.929 . S
H841 C850 0.930 . S
H842 C852 0.930 . S
H843 C855 0.929 . S
H844 C858 0.930 . S
H845 C860 0.960 . S
H846 C860 0.960 . S
H847 C860 0.960 . S
C848 H840 0.929 . S
C848 C849 1.377 . S
C848 C850 1.384 . S
C849 C848 1.377 . S
C849 C855 1.390 . S
C850 H841 0.930 . S
C850 C848 1.384 . S
C850 C851 1.372 . S
C851 C850 1.372 . S
C851 C852 1.400 . S
C851 C856 1.490 . S
C852 H842 0.930 . S
C852 C851 1.400 . S
C852 C855 1.386 . S
H853 C869 0.930 . S
H854 C870 0.931 . S
C855 H843 0.929 . S
C855 C849 1.390 . S
C855 C852 1.386 . S
C856 C851 1.490 . S
C856 C858 1.395 . S
C856 C859 1.403 . S
H857 C863 0.930 . S
C858 H844 0.930 . S
C858 C856 1.395 . S
C858 C861 1.403 . S
C859 C856 1.403 . S
C859 C860 1.524 . S
C859 C863 1.400 . S
C860 H845 0.960 . S
C860 H846 0.960 . S
C860 H847 0.960 . S
C860 C859 1.524 . S
C861 C858 1.403 . S
C861 C862 1.392 . S
C861 C865 1.495 . S
C862 C861 1.392 . S
C862 C863 1.385 . S
C862 C864 1.478 . S
C863 H857 0.930 . S
C863 C859 1.400 . S
C863 C862 1.385 . S
C864 C862 1.478 . S
C864 C866 1.381 . S
C864 C870 1.383 . S
C865 C861 1.495 . S
C865 H871 0.959 . S
C865 H872 0.961 . S
C865 H873 0.960 . S
C866 C864 1.381 . S
C866 C867 1.394 . S
C866 H874 0.930 . S
C867 C866 1.394 . S
C867 C868 1.383 . S
C867 H875 0.929 . S
C868 C867 1.383 . S
C868 C869 1.377 . S
C869 H853 0.930 . S
C869 C868 1.377 . S
C869 C870 1.379 . S
C870 H854 0.931 . S
C870 C864 1.383 . S
C870 C869 1.379 . S
H871 C865 0.959 . S
H872 C865 0.961 . S
H873 C865 0.960 . S
H874 C866 0.930 . S
H875 C867 0.929 . S
H876 C884 0.929 . S
H877 C886 0.930 . S
H878 C888 0.930 . S
H879 C891 0.929 . S
H880 C894 0.930 . S
H881 C896 0.960 . S
H882 C896 0.960 . S
H883 C896 0.960 . S
C884 H876 0.929 . S
C884 C885 1.377 . S
C884 C886 1.384 . S
C885 C884 1.377 . S
C885 C891 1.390 . S
C886 H877 0.930 . S
C886 C884 1.384 . S
C886 C887 1.372 . S
C887 C886 1.372 . S
C887 C888 1.400 . S
C887 C892 1.490 . S
C888 H878 0.930 . S
C888 C887 1.400 . S
C888 C891 1.386 . S
H889 C905 0.930 . S
H890 C906 0.931 . S
C891 H879 0.929 . S
C891 C885 1.390 . S
C891 C888 1.386 . S
C892 C887 1.490 . S
C892 C894 1.395 . S
C892 C895 1.403 . S
H893 C899 0.930 . S
C894 H880 0.930 . S
C894 C892 1.395 . S
C894 C897 1.403 . S
C895 C892 1.403 . S
C895 C896 1.524 . S
C895 C899 1.400 . S
C896 H881 0.960 . S
C896 H882 0.960 . S
C896 H883 0.960 . S
C896 C895 1.524 . S
C897 C894 1.403 . S
C897 C898 1.392 . S
C897 C901 1.495 . S
C898 C897 1.392 . S
C898 C899 1.385 . S
C898 C900 1.478 . S
C899 H893 0.930 . S
C899 C895 1.400 . S
C899 C898 1.385 . S
C900 C898 1.478 . S
C900 C902 1.381 . S
C900 C906 1.383 . S
C901 C897 1.495 . S
C901 H907 0.959 . S
C901 H908 0.961 . S
C901 H909 0.960 . S
C902 C900 1.381 . S
C902 C903 1.394 . S
C902 H910 0.930 . S
C903 C902 1.394 . S
C903 C904 1.383 . S
C903 H911 0.929 . S
C904 C903 1.383 . S
C904 C905 1.377 . S
C905 H889 0.930 . S
C905 C904 1.377 . S
C905 C906 1.379 . S
C906 H890 0.931 . S
C906 C900 1.383 . S
C906 C905 1.379 . S
H907 C901 0.959 . S
H908 C901 0.961 . S
H909 C901 0.960 . S
H910 C902 0.930 . S
H911 C903 0.929 . S
H912 C920 0.929 . S
H913 C922 0.930 . S
H914 C924 0.930 . S
H915 C927 0.929 . S
H916 C930 0.930 . S
H917 C932 0.960 . S
H918 C932 0.960 . S
H919 C932 0.960 . S
C920 H912 0.929 . S
C920 C921 1.377 . S
C920 C922 1.384 . S
C921 C920 1.377 . S
C921 C927 1.390 . S
C922 H913 0.930 . S
C922 C920 1.384 . S
C922 C923 1.372 . S
C923 C922 1.372 . S
C923 C924 1.400 . S
C923 C928 1.490 . S
C924 H914 0.930 . S
C924 C923 1.400 . S
C924 C927 1.386 . S
H925 C941 0.930 . S
H926 C942 0.931 . S
C927 H915 0.929 . S
C927 C921 1.390 . S
C927 C924 1.386 . S
C928 C923 1.490 . S
C928 C930 1.395 . S
C928 C931 1.403 . S
H929 C935 0.930 . S
C930 H916 0.930 . S
C930 C928 1.395 . S
C930 C933 1.403 . S
C931 C928 1.403 . S
C931 C932 1.524 . S
C931 C935 1.400 . S
C932 H917 0.960 . S
C932 H918 0.960 . S
C932 H919 0.960 . S
C932 C931 1.524 . S
C933 C930 1.403 . S
C933 C934 1.392 . S
C933 C937 1.495 . S
C934 C933 1.392 . S
C934 C935 1.385 . S
C934 C936 1.478 . S
C935 H929 0.930 . S
C935 C931 1.400 . S
C935 C934 1.385 . S
C936 C934 1.478 . S
C936 C938 1.381 . S
C936 C942 1.383 . S
C937 C933 1.495 . S
C937 H943 0.959 . S
C937 H944 0.961 . S
C937 H945 0.960 . S
C938 C936 1.381 . S
C938 C939 1.394 . S
C938 H946 0.930 . S
C939 C938 1.394 . S
C939 C940 1.383 . S
C939 H947 0.929 . S
C940 C939 1.383 . S
C940 C941 1.377 . S
C941 H925 0.930 . S
C941 C940 1.377 . S
C941 C942 1.379 . S
C942 H926 0.931 . S
C942 C936 1.383 . S
C942 C941 1.379 . S
H943 C937 0.959 . S
H944 C937 0.961 . S
H945 C937 0.960 . S
H946 C938 0.930 . S
H947 C939 0.929 . S
H948 C956 0.929 . S
H949 C958 0.930 . S
H950 C960 0.930 . S
H951 C963 0.929 . S
H952 C966 0.930 . S
H953 C968 0.960 . S
H954 C968 0.960 . S
H955 C968 0.960 . S
C956 H948 0.929 . S
C956 C957 1.377 . S
C956 C958 1.384 . S
C957 C956 1.377 . S
C957 C963 1.390 . S
C958 H949 0.930 . S
C958 C956 1.384 . S
C958 C959 1.372 . S
C959 C958 1.372 . S
C959 C960 1.400 . S
C959 C964 1.490 . S
C960 H950 0.930 . S
C960 C959 1.400 . S
C960 C963 1.386 . S
H961 C977 0.930 . S
H962 C978 0.931 . S
C963 H951 0.929 . S
C963 C957 1.390 . S
C963 C960 1.386 . S
C964 C959 1.490 . S
C964 C966 1.395 . S
C964 C967 1.403 . S
H965 C971 0.930 . S
C966 H952 0.930 . S
C966 C964 1.395 . S
C966 C969 1.403 . S
C967 C964 1.403 . S
C967 C968 1.524 . S
C967 C971 1.400 . S
C968 H953 0.960 . S
C968 H954 0.960 . S
C968 H955 0.960 . S
C968 C967 1.524 . S
C969 C966 1.403 . S
C969 C970 1.392 . S
C969 C973 1.495 . S
C970 C969 1.392 . S
C970 C971 1.385 . S
C970 C972 1.478 . S
C971 H965 0.930 . S
C971 C967 1.400 . S
C971 C970 1.385 . S
C972 C970 1.478 . S
C972 C974 1.381 . S
C972 C978 1.383 . S
C973 C969 1.495 . S
C973 H979 0.959 . S
C973 H980 0.961 . S
C973 H981 0.960 . S
C974 C972 1.381 . S
C974 C975 1.394 . S
C974 H982 0.930 . S
C975 C974 1.394 . S
C975 C976 1.383 . S
C975 H983 0.929 . S
C976 C975 1.383 . S
C976 C977 1.377 . S
C977 H961 0.930 . S
C977 C976 1.377 . S
C977 C978 1.379 . S
C978 H962 0.931 . S
C978 C972 1.383 . S
C978 C977 1.379 . S
H979 C973 0.959 . S
H980 C973 0.961 . S
H981 C973 0.960 . S
H982 C974 0.930 . S
H983 C975 0.929 . S
H984 C992 0.929 . S
H985 C994 0.930 . S
H986 C996 0.930 . S
H987 C999 0.929 . S
H988 C1002 0.930 . S
H989 C1004 0.960 . S
H990 C1004 0.960 . S
H991 C1004 0.960 . S
C992 H984 0.929 . S
C992 C993 1.377 . S
C992 C994 1.384 . S
C993 C992 1.377 . S
C993 C999 1.390 . S
C994 H985 0.930 . S
C994 C992 1.384 . S
C994 C995 1.372 . S
C995 C994 1.372 . S
C995 C996 1.400 . S
C995 C1000 1.490 . S
C996 H986 0.930 . S
C996 C995 1.400 . S
C996 C999 1.386 . S
H997 C1013 0.930 . S
H998 C1014 0.931 . S
C999 H987 0.929 . S
C999 C993 1.390 . S
C999 C996 1.386 . S
C1000 C995 1.490 . S
C1000 C1002 1.395 . S
C1000 C1003 1.403 . S
H1001 C1007 0.930 . S
C1002 H988 0.930 . S
C1002 C1000 1.395 . S
C1002 C1005 1.403 . S
C1003 C1000 1.403 . S
C1003 C1004 1.524 . S
C1003 C1007 1.400 . S
C1004 H989 0.960 . S
C1004 H990 0.960 . S
C1004 H991 0.960 . S
C1004 C1003 1.524 . S
C1005 C1002 1.403 . S
C1005 C1006 1.392 . S
C1005 C1009 1.495 . S
C1006 C1005 1.392 . S
C1006 C1007 1.385 . S
C1006 C1008 1.478 . S
C1007 H1001 0.930 . S
C1007 C1003 1.400 . S
C1007 C1006 1.385 . S
C1008 C1006 1.478 . S
C1008 C1010 1.381 . S
C1008 C1014 1.383 . S
C1009 C1005 1.495 . S
C1009 H1015 0.959 . S
C1009 H1016 0.961 . S
C1009 H1017 0.960 . S
C1010 C1008 1.381 . S
C1010 C1011 1.394 . S
C1010 H1018 0.930 . S
C1011 C1010 1.394 . S
C1011 C1012 1.383 . S
C1011 H1019 0.929 . S
C1012 C1011 1.383 . S
C1012 C1013 1.377 . S
C1013 H997 0.930 . S
C1013 C1012 1.377 . S
C1013 C1014 1.379 . S
C1014 H998 0.931 . S
C1014 C1008 1.383 . S
C1014 C1013 1.379 . S
H1015 C1009 0.959 . S
H1016 C1009 0.961 . S
H1017 C1009 0.960 . S
H1018 C1010 0.930 . S
H1019 C1011 0.929 . S
H1020 C1028 0.929 . S
H1021 C1030 0.930 . S
H1022 C1032 0.930 . S
H1023 C1035 0.929 . S
H1024 C1038 0.930 . S
H1025 C1040 0.960 . S
H1026 C1040 0.960 . S
H1027 C1040 0.960 . S
C1028 H1020 0.929 . S
C1028 C1029 1.377 . S
C1028 C1030 1.384 . S
C1029 C1028 1.377 . S
C1029 C1035 1.390 . S
C1030 H1021 0.930 . S
C1030 C1028 1.384 . S
C1030 C1031 1.372 . S
C1031 C1030 1.372 . S
C1031 C1032 1.400 . S
C1031 C1036 1.490 . S
C1032 H1022 0.930 . S
C1032 C1031 1.400 . S
C1032 C1035 1.386 . S
H1033 C1049 0.930 . S
H1034 C1050 0.931 . S
C1035 H1023 0.929 . S
C1035 C1029 1.390 . S
C1035 C1032 1.386 . S
C1036 C1031 1.490 . S
C1036 C1038 1.395 . S
C1036 C1039 1.403 . S
H1037 C1043 0.930 . S
C1038 H1024 0.930 . S
C1038 C1036 1.395 . S
C1038 C1041 1.403 . S
C1039 C1036 1.403 . S
C1039 C1040 1.524 . S
C1039 C1043 1.400 . S
C1040 H1025 0.960 . S
C1040 H1026 0.960 . S
C1040 H1027 0.960 . S
C1040 C1039 1.524 . S
C1041 C1038 1.403 . S
C1041 C1042 1.392 . S
C1041 C1045 1.495 . S
C1042 C1041 1.392 . S
C1042 C1043 1.385 . S
C1042 C1044 1.478 . S
C1043 H1037 0.930 . S
C1043 C1039 1.400 . S
C1043 C1042 1.385 . S
C1044 C1042 1.478 . S
C1044 C1046 1.381 . S
C1044 C1050 1.383 . S
C1045 C1041 1.495 . S
C1045 H1051 0.959 . S
C1045 H1052 0.961 . S
C1045 H1053 0.960 . S
C1046 C1044 1.381 . S
C1046 C1047 1.394 . S
C1046 H1054 0.930 . S
C1047 C1046 1.394 . S
C1047 C1048 1.383 . S
C1047 H1055 0.929 . S
C1048 C1047 1.383 . S
C1048 C1049 1.377 . S
C1049 H1033 0.930 . S
C1049 C1048 1.377 . S
C1049 C1050 1.379 . S
C1050 H1034 0.931 . S
C1050 C1044 1.383 . S
C1050 C1049 1.379 . S
H1051 C1045 0.959 . S
H1052 C1045 0.961 . S
H1053 C1045 0.960 . S
H1054 C1046 0.930 . S
H1055 C1047 0.929 . S
H1056 C1064 0.929 . S
H1057 C1066 0.930 . S
H1058 C1068 0.930 . S
H1059 C1071 0.929 . S
H1060 C1074 0.930 . S
H1061 C1076 0.960 . S
H1062 C1076 0.960 . S
H1063 C1076 0.960 . S
C1064 H1056 0.929 . S
C1064 C1065 1.377 . S
C1064 C1066 1.384 . S
C1065 C1064 1.377 . S
C1065 C1071 1.390 . S
C1066 H1057 0.930 . S
C1066 C1064 1.384 . S
C1066 C1067 1.372 . S
C1067 C1066 1.372 . S
C1067 C1068 1.400 . S
C1067 C1072 1.490 . S
C1068 H1058 0.930 . S
C1068 C1067 1.400 . S
C1068 C1071 1.386 . S
H1069 C1085 0.930 . S
H1070 C1086 0.931 . S
C1071 H1059 0.929 . S
C1071 C1065 1.390 . S
C1071 C1068 1.386 . S
C1072 C1067 1.490 . S
C1072 C1074 1.395 . S
C1072 C1075 1.403 . S
H1073 C1079 0.930 . S
C1074 H1060 0.930 . S
C1074 C1072 1.395 . S
C1074 C1077 1.403 . S
C1075 C1072 1.403 . S
C1075 C1076 1.524 . S
C1075 C1079 1.400 . S
C1076 H1061 0.960 . S
C1076 H1062 0.960 . S
C1076 H1063 0.960 . S
C1076 C1075 1.524 . S
C1077 C1074 1.403 . S
C1077 C1078 1.392 . S
C1077 C1081 1.495 . S
C1078 C1077 1.392 . S
C1078 C1079 1.385 . S
C1078 C1080 1.478 . S
C1079 H1073 0.930 . S
C1079 C1075 1.400 . S
C1079 C1078 1.385 . S
C1080 C1078 1.478 . S
C1080 C1082 1.381 . S
C1080 C1086 1.383 . S
C1081 C1077 1.495 . S
C1081 H1087 0.959 . S
C1081 H1088 0.961 . S
C1081 H1089 0.960 . S
C1082 C1080 1.381 . S
C1082 C1083 1.394 . S
C1082 H1090 0.930 . S
C1083 C1082 1.394 . S
C1083 C1084 1.383 . S
C1083 H1091 0.929 . S
C1084 C1083 1.383 . S
C1084 C1085 1.377 . S
C1085 H1069 0.930 . S
C1085 C1084 1.377 . S
C1085 C1086 1.379 . S
C1086 H1070 0.931 . S
C1086 C1080 1.383 . S
C1086 C1085 1.379 . S
H1087 C1081 0.959 . S
H1088 C1081 0.961 . S
H1089 C1081 0.960 . S
H1090 C1082 0.930 . S
H1091 C1083 0.929 . S
H1092 C1100 0.929 . S
H1093 C1102 0.930 . S
H1094 C1104 0.930 . S
H1095 C1107 0.929 . S
H1096 C1110 0.930 . S
H1097 C1112 0.960 . S
H1098 C1112 0.960 . S
H1099 C1112 0.960 . S
C1100 H1092 0.929 . S
C1100 C1101 1.377 . S
C1100 C1102 1.384 . S
C1101 C1100 1.377 . S
C1101 C1107 1.390 . S
C1102 H1093 0.930 . S
C1102 C1100 1.384 . S
C1102 C1103 1.372 . S
C1103 C1102 1.372 . S
C1103 C1104 1.400 . S
C1103 C1108 1.490 . S
C1104 H1094 0.930 . S
C1104 C1103 1.400 . S
C1104 C1107 1.386 . S
H1105 C1121 0.930 . S
H1106 C1122 0.931 . S
C1107 H1095 0.929 . S
C1107 C1101 1.390 . S
C1107 C1104 1.386 . S
C1108 C1103 1.490 . S
C1108 C1110 1.395 . S
C1108 C1111 1.403 . S
H1109 C1115 0.930 . S
C1110 H1096 0.930 . S
C1110 C1108 1.395 . S
C1110 C1113 1.403 . S
C1111 C1108 1.403 . S
C1111 C1112 1.524 . S
C1111 C1115 1.400 . S
C1112 H1097 0.960 . S
C1112 H1098 0.960 . S
C1112 H1099 0.960 . S
C1112 C1111 1.524 . S
C1113 C1110 1.403 . S
C1113 C1114 1.392 . S
C1113 C1117 1.495 . S
C1114 C1113 1.392 . S
C1114 C1115 1.385 . S
C1114 C1116 1.478 . S
C1115 H1109 0.930 . S
C1115 C1111 1.400 . S
C1115 C1114 1.385 . S
C1116 C1114 1.478 . S
C1116 C1118 1.381 . S
C1116 C1122 1.383 . S
C1117 C1113 1.495 . S
C1117 H1123 0.959 . S
C1117 H1124 0.961 . S
C1117 H1125 0.960 . S
C1118 C1116 1.381 . S
C1118 C1119 1.394 . S
C1118 H1126 0.930 . S
C1119 C1118 1.394 . S
C1119 C1120 1.383 . S
C1119 H1127 0.929 . S
C1120 C1119 1.383 . S
C1120 C1121 1.377 . S
C1121 H1105 0.930 . S
C1121 C1120 1.377 . S
C1121 C1122 1.379 . S
C1122 H1106 0.931 . S
C1122 C1116 1.383 . S
C1122 C1121 1.379 . S
H1123 C1117 0.959 . S
H1124 C1117 0.961 . S
H1125 C1117 0.960 . S
H1126 C1118 0.930 . S
H1127 C1119 0.929 . S
C273 C7 1.749 . S
C292 C147 1.580 . S
C309 C30 1.543 . S
C328 C168 1.374 . S
C364 C189 1.463 . S
C345 N58 1.606 . S
C400 C218 1.345 . S
C381 N81 1.400 . S
C436 C231 1.480 . S
C417 C99 1.631 . S
C472 C255 1.371 . S
C453 N127 1.420 . S
C489 N25 1.583 . S
C508 C199 1.478 . S
C525 C62 1.533 1_556 S
C544 C213 1.487 . S
C580 C241 1.538 . S
C561 C85 1.688 . S
C616 C260 1.417 . S
C597 N94 1.441 . S
C633 C131 1.664 . S
C652 C157 1.568 . S
C688 C178 1.332 . S
C669 N2 1.394 . S
C724 C220 1.639 . S
C705 C16 1.729 . S
C741 C39 1.543 . S
C760 C234 1.380 . S
C796 C252 1.580 . S
C777 N48 1.621 . S
C813 N71 1.425 . S
C832 C150 1.307 . S
C849 C108 1.673 . S
C868 C171 1.486 . S
C885 N117 1.443 . S
C904 C192 1.265 . S
C921 N35 1.612 . S
C940 C262 1.568 . S
C976 C155 1.378 . S
C957 C53 1.577 . S
C993 C76 1.765 . S
C1012 C176 1.601 . S
C1029 N104 1.457 . S
C1048 C197 1.374 . S
C1065 C122 1.660 . S
C1084 C210 1.611 . S
C1101 N12 1.399 . S
C1120 C239 1.270 . S
