# Generated by pormake.
# Topology zzz, (3,6)-cn, num edge types: 1
# Building blocks:
#     Node 0, Type 0, BuildingBlock: PAMTOO_clean_linker_0, # of connection points: 3
#     Node 1, Type 0, BuildingBlock: PAMTOO_clean_linker_0, # of connection points: 3
#     Node 2, Type 0, BuildingBlock: PAMTOO_clean_linker_0, # of connection points: 3
#     Node 3, Type 0, BuildingBlock: PAMTOO_clean_linker_0, # of connection points: 3
#     Node 4, Type 0, BuildingBlock: PAMTOO_clean_linker_0, # of connection points: 3
#     Node 5, Type 0, BuildingBlock: PAMTOO_clean_linker_0, # of connection points: 3
#     Node 6, Type 0, BuildingBlock: PAMTOO_clean_linker_0, # of connection points: 3
#     Node 7, Type 0, BuildingBlock: PAMTOO_clean_linker_0, # of connection points: 3
#     Node 8, Type 1, BuildingBlock: CUKXOW_clean_sbu_0, # of connection points: 6
#     Node 9, Type 1, BuildingBlock: CUKXOW_clean_sbu_0, # of connection points: 6
#     Node 10, Type 1, BuildingBlock: CUKXOW_clean_sbu_0, # of connection points: 6
#     Node 11, Type 1, BuildingBlock: CUKXOW_clean_sbu_0, # of connection points: 6
#     Edge 12, Type (0, 1), BuildingBlock: OJICUG_clean_linker_0, # of connection points: 2
#     Edge 13, Type (0, 1), BuildingBlock: OJICUG_clean_linker_0, # of connection points: 2
#     Edge 14, Type (0, 1), BuildingBlock: OJICUG_clean_linker_0, # of connection points: 2
#     Edge 15, Type (0, 1), BuildingBlock: OJICUG_clean_linker_0, # of connection points: 2
#     Edge 16, Type (0, 1), BuildingBlock: OJICUG_clean_linker_0, # of connection points: 2
#     Edge 17, Type (0, 1), BuildingBlock: OJICUG_clean_linker_0, # of connection points: 2
#     Edge 18, Type (0, 1), BuildingBlock: OJICUG_clean_linker_0, # of connection points: 2
#     Edge 19, Type (0, 1), BuildingBlock: OJICUG_clean_linker_0, # of connection points: 2
#     Edge 20, Type (0, 1), BuildingBlock: OJICUG_clean_linker_0, # of connection points: 2
#     Edge 21, Type (0, 1), BuildingBlock: OJICUG_clean_linker_0, # of connection points: 2
#     Edge 22, Type (0, 1), BuildingBlock: OJICUG_clean_linker_0, # of connection points: 2
#     Edge 23, Type (0, 1), BuildingBlock: OJICUG_clean_linker_0, # of connection points: 2
#     Edge 24, Type (0, 1), BuildingBlock: OJICUG_clean_linker_0, # of connection points: 2
#     Edge 25, Type (0, 1), BuildingBlock: OJICUG_clean_linker_0, # of connection points: 2
#     Edge 26, Type (0, 1), BuildingBlock: OJICUG_clean_linker_0, # of connection points: 2
#     Edge 27, Type (0, 1), BuildingBlock: OJICUG_clean_linker_0, # of connection points: 2
#     Edge 28, Type (0, 1), BuildingBlock: OJICUG_clean_linker_0, # of connection points: 2
#     Edge 29, Type (0, 1), BuildingBlock: OJICUG_clean_linker_0, # of connection points: 2
#     Edge 30, Type (0, 1), BuildingBlock: OJICUG_clean_linker_0, # of connection points: 2
#     Edge 31, Type (0, 1), BuildingBlock: OJICUG_clean_linker_0, # of connection points: 2
#     Edge 32, Type (0, 1), BuildingBlock: OJICUG_clean_linker_0, # of connection points: 2
#     Edge 33, Type (0, 1), BuildingBlock: OJICUG_clean_linker_0, # of connection points: 2
#     Edge 34, Type (0, 1), BuildingBlock: OJICUG_clean_linker_0, # of connection points: 2
#     Edge 35, Type (0, 1), BuildingBlock: OJICUG_clean_linker_0, # of connection points: 2
# Relax obj value: 0.059
# Max RMSD: 0.120
# Mean RMSD: 0.077
data_MOF--net-zzz--node1-CUKXOW_clean_sbu_0--node2-PAMTOO_clean_linker_0--edge1-OJICUG_clean_linker_0
_symmetry_space_group_name_H-M    P1
_symmetry_Int_Tables_number       1
_symmetry_cell_setting            triclinic
loop_
_symmetry_equiv_pos_as_xyz
'x, y, z'
_cell_length_a     35.896921
_cell_length_b     38.331038
_cell_length_c     12.205397
_cell_angle_alpha  94.105099
_cell_angle_beta   86.399089
_cell_angle_gamma 93.712268
loop_
_atom_site_label
_atom_site_type_symbol
_atom_site_fract_x
_atom_site_fract_y
_atom_site_fract_z
_atom_type_partial_charge
H0 H 0.88468 0.53822 0.22557 0.0
H1 H 0.81349 0.5343 0.95429 0.0
H2 H 0.76592 0.5409 0.28873 0.0
H3 H 0.72669 0.49016 0.12498 0.0
C4 C 0.731 0.50551 0.05067 0.0
O5 O 0.75077 0.53674 0.07811 0.0
H6 H 0.74742 0.48993 -0.01347 0.0
C7 C 0.85701 0.53876 0.19463 0.0
C8 C 0.82622 0.54058 0.26977 0.0
C9 C 0.85312 0.53698 0.08143 0.0
C10 C 0.81709 0.53607 0.04202 0.0
C11 C 0.78547 0.53747 0.11667 0.0
C12 C 0.7901 0.53975 0.23114 0.0
H13 H 0.01977 0.88277 0.11241 0.0
H14 H 0.03301 0.80335 0.84874 0.0
H15 H 0.99186 0.77485 0.17221 0.0
H16 H 0.05385 0.73436 0.05634 0.0
C17 C 0.04337 0.73181 0.97195 0.0
O18 O 1.01198 0.75073 0.97079 0.0
H19 H 0.06565 0.74256 0.91405 0.0
C20 C 0.01814 0.85532 0.08285 0.0
C21 C 1.00415 0.83014 0.15412 0.0
C22 C 0.02871 0.84608 -0.02659 0.0
C23 C 0.02539 0.8108 0.9341 0.0
C24 C 1.01283 0.78495 0.00655 0.0
C25 C 1.00195 0.79468 0.1168 0.0
H26 H 0.64427 0.99778 0.19776 0.0
H27 H 0.74005 0.01808 -0.02344 0.0
H28 H 0.75456 1.00224 0.31694 0.0
H29 H 0.79413 0.96199 0.06278 0.0
C30 C 0.81105 0.98476 0.09973 0.0
O31 O 0.7893 0.01308 0.12388 0.0
H32 H 0.8214 0.9766 0.17735 0.0
C33 C 0.67439 0.99999 0.18134 0.0
C34 C 0.69749 0.9981 0.26822 0.0
C35 C 0.68918 0.00766 0.07651 0.0
C36 C 0.72812 0.01214 0.05735 0.0
C37 C 0.75178 0.0092 0.14331 0.0
C38 C 0.73639 1.00301 0.24967 0.0
H39 H 0.55494 0.64913 0.24304 0.0
H40 H 0.5375 0.71838 -0.00872 0.0
H41 H 0.56182 0.76018 0.31854 0.0
H42 H 0.59321 0.77938 0.01474 0.0
C43 C 0.5764 0.79575 0.07598 0.0
O44 O 0.54627 0.77592 0.11938 0.0
H45 H 0.59487 0.80538 0.14297 0.0
C46 C 0.55459 0.67539 0.21535 0.0
C47 C 0.56077 0.70378 0.29139 0.0
C48 C 0.54677 0.67994 0.10668 0.0
C49 C 0.54388 0.71413 0.07469 0.0
C50 C 0.54952 0.74313 0.15079 0.0
C51 C 0.5578 0.73792 0.25973 0.0
H52 H 0.17646 0.50266 0.19626 0.0
H53 H 0.24853 0.51381 0.46644 0.0
H54 H 0.29541 0.50766 0.13138 0.0
H55 H 0.34255 0.47505 0.26864 0.0
C56 C 0.33093 0.48452 0.35121 0.0
O57 O 0.31106 0.51372 0.34098 0.0
H58 H 0.31188 0.46308 0.3839 0.0
C59 C 0.20431 0.50425 0.22698 0.0
C60 C 0.23509 0.50383 0.15149 0.0
C61 C 0.20845 0.50743 0.34017 0.0
C62 C 0.24469 0.51112 0.37885 0.0
C63 C 0.27617 0.51098 0.30354 0.0
C64 C 0.2713 0.5077 0.18937 0.0
H65 H 1.00078 0.15606 0.29421 0.0
H66 H 0.98889 0.23604 0.55701 0.0
H67 H 0.02464 0.26404 0.22887 0.0
H68 H 0.06191 0.30536 0.38525 0.0
C69 C 0.0423 0.30506 0.45949 0.0
O70 O 1.00852 0.28846 0.43214 0.0
H71 H 0.05459 0.29035 0.52252 0.0
C72 C 1.00152 0.1836 0.32265 0.0
C73 C 1.0139 0.20878 0.24955 0.0
C74 C 0.99228 0.19297 0.43296 0.0
C75 C 0.99495 0.22847 0.47085 0.0
C76 C 1.00586 0.25423 0.39645 0.0
C77 C 1.01521 0.24432 0.28537 0.0
H78 H 0.39295 0.05112 0.25688 0.0
H79 H 0.30402 0.01106 0.47636 0.0
H80 H 0.28288 0.02935 0.14396 0.0
H81 H 0.2216 0.05428 0.2747 0.0
C82 C 0.22885 0.0464 0.35629 0.0
O83 O 0.25143 0.01836 0.34079 0.0
H84 H 0.24423 0.06942 0.39743 0.0
C85 C 0.36401 0.04241 0.27437 0.0
C86 C 0.33987 0.04053 0.18877 0.0
C87 C 0.35294 0.02811 0.37466 0.0
C88 C 0.31432 0.02056 0.3981 0.0
C89 C 0.28868 0.02345 0.31687 0.0
C90 C 0.30195 0.03089 0.20975 0.0
H91 H 0.50025 0.37849 0.22537 0.0
H92 H 0.51999 0.30657 0.46674 0.0
H93 H 0.47274 0.26851 0.16097 0.0
H94 H 0.44181 0.22846 0.34227 0.0
C95 C 0.46376 0.23482 0.40224 0.0
O96 O 0.49499 0.25045 0.34971 0.0
H97 H 0.45209 0.25313 0.46877 0.0
C98 C 0.49911 0.35193 0.25156 0.0
C99 C 0.4843 0.3245 0.18288 0.0
C100 C 0.51254 0.34591 0.35276 0.0
C101 C 0.51019 0.31163 0.38756 0.0
C102 C 0.49584 0.28363 0.31824 0.0
C103 C 0.4833 0.29006 0.21498 0.0
Tb104 Tb 0.99995 0.99211 0.61514 0.0
C105 C 0.08488 0.02443 0.59418 0.0
Tb106 Tb 0.02908 0.04709 0.79232 0.0
O107 O 0.96842 0.03133 0.54321 0.0
O108 O 1.01634 0.04586 0.62655 0.0
O109 O 0.05968 0.99943 0.56053 0.0
C110 C 0.03549 0.10931 0.90327 0.0
O111 O 0.07703 0.04866 0.67437 0.0
C112 C 0.04002 0.98161 0.82127 0.0
C113 C 0.94532 0.01297 0.82037 0.0
O114 O 0.05691 0.08363 0.91203 0.0
O115 O 1.01011 0.09948 0.83477 0.0
O116 O 0.06031 0.00768 0.86561 0.0
O117 O 1.01293 0.9936 0.77994 0.0
O118 O 0.97012 0.0386 0.85144 0.0
O119 O 0.95301 0.98928 0.73816 0.0
C120 C 0.99121 0.93059 0.50056 0.0
O121 O 0.96987 0.95661 0.49745 0.0
O122 O 0.018 0.93974 0.56496 0.0
C123 C 0.98888 0.05753 0.58572 0.0
Tb124 Tb 0.51826 0.05069 0.68691 0.0
C125 C 0.58185 1.00249 0.5978 0.0
Tb126 Tb 0.51867 0.97604 0.77472 0.0
O127 O 0.57118 0.06823 0.75766 0.0
O128 O 0.53699 0.02809 0.82584 0.0
O129 O 0.56185 0.029 0.57701 0.0
C130 C 0.53177 0.91719 0.86874 0.0
O131 O 0.57191 0.98036 0.67536 0.0
C132 C 0.46937 0.98388 0.63127 0.0
C133 C 0.45618 0.02596 0.86622 0.0
O134 O 0.53366 0.92113 0.7636 0.0
O135 O 0.52231 0.94631 0.92073 0.0
O136 O 0.46513 0.96038 0.70294 0.0
O137 O 0.50169 0.99846 0.63454 0.0
O138 O 0.4755 0.99881 0.8853 0.0
O139 O 0.46637 0.048 0.78944 0.0
C140 C 0.5019 0.10827 0.59329 0.0
O141 O 0.51195 0.10716 0.69327 0.0
O142 O 0.501 0.07679 0.54553 0.0
C143 C 0.56908 0.04393 0.82703 0.0
Tb144 Tb 0.54076 0.54383 0.66395 0.0
C145 C 0.46098 0.50822 0.61567 0.0
Tb146 Tb 0.50845 0.48245 0.80536 0.0
O147 O 0.54716 0.50854 0.51423 0.0
O148 O 0.54655 0.48976 0.67034 0.0
O149 O 0.48469 0.53599 0.60234 0.0
C150 C 0.48633 0.41961 0.87525 0.0
O151 O 0.46656 0.48342 0.68283 0.0
C152 C 0.50459 0.54614 0.89736 0.0
C153 C 0.59023 0.51481 0.84383 0.0
O154 O 0.46672 0.44715 0.88733 0.0
O155 O 0.51853 0.42784 0.82671 0.0
O156 O 0.50618 0.51857 0.95285 0.0
O157 O 0.5019 0.53632 0.7978 0.0
O158 O 0.56564 0.48771 0.85619 0.0
O159 O 0.58475 0.54093 0.78096 0.0
C160 C 0.55973 0.60885 0.60517 0.0
O161 O 0.57861 0.58138 0.57743 0.0
O162 O 0.53019 0.59948 0.66531 0.0
C163 C 0.5456 0.48058 0.56961 0.0
Tb164 Tb 0.99644 0.524 0.64242 0.0
C165 C 0.03185 0.4508 0.62209 0.0
Tb166 Tb 0.06405 0.51346 0.78276 0.0
O167 O 0.03285 0.51884 0.4912 0.0
O168 O 0.05415 0.538 0.63978 0.0
O169 O 1.00141 0.46773 0.60852 0.0
C170 C 0.13266 0.50382 0.84314 0.0
O171 O 0.06079 0.46541 0.67511 0.0
C172 C 0.99738 0.50915 0.88366 0.0
C173 C 0.02941 0.58641 0.80579 0.0
O174 O 0.1028 0.48407 0.86654 0.0
O175 O 0.12365 0.52947 0.78829 0.0
O176 O 0.02773 0.51841 0.93426 0.0
O177 O 1.00629 0.49973 0.78575 0.0
O178 O 0.05947 0.56903 0.8182 0.0
O179 O 1.00042 0.57276 0.75034 0.0
C180 C 0.92833 0.53484 0.57869 0.0
O181 O 0.9586 0.55437 0.55836 0.0
O182 O 0.93662 0.5087 0.63265 0.0
C183 C 0.06306 0.52857 0.5419 0.0
C184 C 0.16529 0.01394 0.37786 0.0
C185 C 0.19317 0.03713 0.4228 0.0
H186 H 0.10905 0.99152 0.39662 0.0
C187 C 0.18599 0.05408 0.52701 0.0
H188 H 0.17022 1.00063 0.29742 0.0
C189 C 0.15112 0.04924 0.58308 0.0
C190 C 0.12257 0.02713 0.53669 0.0
H191 H 0.207 0.07201 0.56378 0.0
H192 H 0.14641 0.06338 0.66229 0.0
C193 C 0.13032 0.00886 0.43448 0.0
C194 C 0.47132 0.16941 0.38975 0.0
C195 C 0.47397 0.20191 0.45076 0.0
H196 H 0.47786 0.11406 0.38753 0.0
C197 C 0.48695 0.20349 0.5572 0.0
H198 H 0.46185 0.16766 0.3069 0.0
C199 C 0.49607 0.17299 0.60319 0.0
C200 C 0.49275 0.14038 0.54315 0.0
H201 H 0.48972 0.22834 0.6051 0.0
H202 H 0.50566 0.17496 0.68593 0.0
C203 C 0.48051 0.13885 0.43573 0.0
C204 C 0.39013 0.52006 0.4033 0.0
C205 C 0.36295 0.493 0.42538 0.0
H206 H 0.44232 0.54641 0.44631 0.0
C207 C 0.36776 0.47181 0.51198 0.0
H208 H 0.38733 0.53643 0.3359 0.0
C209 C 0.39921 0.47722 0.57442 0.0
C210 C 0.42677 0.50398 0.55192 0.0
H211 H 0.3475 0.45051 0.53018 0.0
H212 H 0.40203 0.46002 0.63968 0.0
C213 C 0.42163 0.52564 0.46634 0.0
C214 C 1.00938 0.36238 0.47082 0.0
C215 C 0.03781 0.34245 0.50362 0.0
H216 H 0.98479 0.41219 0.48355 0.0
C217 C 0.06463 0.35873 0.57225 0.0
H218 H 0.9889 0.35084 0.4153 0.0
C219 C 0.06265 0.39383 0.60987 0.0
C220 C 0.0338 0.41369 0.57947 0.0
H221 H 0.08734 0.34423 0.59654 0.0
H222 H 0.08379 0.40529 0.66338 0.0
C223 C 1.00715 0.39758 0.50942 0.0
C224 C 0.84978 0.97559 0.92079 0.0
C225 C 0.84414 0.99437 0.02293 0.0
H226 H 0.8859 0.96684 0.77665 0.0
C227 C 0.87099 0.02073 0.05548 0.0
H228 H 0.82954 0.95511 0.89369 0.0
C229 C 0.90334 0.02762 -0.01174 0.0
C230 C 0.90962 0.00805 0.88746 0.0
H231 H 0.86728 0.03545 0.13413 0.0
H232 H 0.92386 0.04762 0.01685 0.0
C233 C 0.88215 0.98231 0.85389 0.0
C234 C 0.55256 0.85661 0.08645 0.0
C235 C 0.56308 0.82658 0.02219 0.0
H236 H 0.53448 0.90891 0.08801 0.0
C237 C 0.56143 0.8259 0.90729 0.0
H238 H 0.55331 0.85761 0.17522 0.0
C239 C 0.55078 0.8552 0.85731 0.0
C240 C 0.54121 0.88557 0.92142 0.0
H241 H 0.56901 0.8029 0.85603 0.0
H242 H 0.55042 0.85421 0.76846 0.0
C243 C 0.54179 0.88586 0.03654 0.0
C244 C 0.69073 0.53535 0.92475 0.0
C245 C 0.69369 0.51146 0.00568 0.0
H246 H 0.65563 0.5557 0.81111 0.0
C247 C 0.66211 0.48984 0.03514 0.0
H248 H 0.71486 0.55183 0.89875 0.0
C249 C 0.6285 0.49169 -0.01554 0.0
C250 C 0.6255 0.51513 0.90222 0.0
H251 H 0.66364 0.47076 0.09581 0.0
H252 H 0.605 0.47421 0.00881 0.0
C253 C 0.65686 0.53744 0.87432 0.0
C254 C 1.01099 0.68294 0.85354 0.0
C255 C 0.0353 0.69364 0.93735 0.0
H256 H 0.98928 0.64025 0.74751 0.0
C257 C 0.05593 0.66852 -0.01955 0.0
H258 H 0.99537 0.70192 0.81704 0.0
C259 C 0.05287 0.63357 0.93999 0.0
C260 C 0.02916 0.62284 0.85493 0.0
H261 H 0.07533 0.67612 0.04367 0.0
H262 H 0.06975 0.61506 -0.0259 0.0
C263 C 1.00757 0.6477 0.81365 0.0
C264 C 0.95421 0.13994 0.48631 0.0
C265 C 0.98471 0.16401 0.5058 0.0
H266 H 0.93164 0.08699 0.49662 0.0
C267 C 1.01396 0.15414 0.56547 0.0
H268 H 0.9318 0.14682 0.43798 0.0
C269 C 1.01443 0.11975 0.596 0.0
C270 C 0.98537 0.09486 0.56877 0.0
H271 H 0.03824 0.17193 0.57851 0.0
H272 H 0.03878 0.11213 0.63438 0.0
C273 C 0.95447 0.10561 0.51796 0.0
C274 C 0.41797 0.0091 0.3947 0.0
C275 C 0.38258 0.01732 0.44436 0.0
H276 H 0.47319 0.99379 0.41606 0.0
C277 C 0.37606 0.01333 0.5579 0.0
H278 H 0.42414 0.0093 0.30691 0.0
C279 C 0.40409 1.00169 0.61898 0.0
C280 C 0.43946 0.99524 0.56855 0.0
H281 H 0.34953 0.01918 0.59992 0.0
H282 H 0.39837 0.99842 0.70589 0.0
C283 C 0.44628 0.99935 0.45662 0.0
C284 C 0.55379 0.40059 0.37294 0.0
C285 C 0.52712 0.37669 0.42042 0.0
H286 H 0.58019 0.45251 0.38308 0.0
C287 C 0.50877 0.38629 0.52158 0.0
H288 H 0.5679 0.3939 0.29385 0.0
C289 C 0.51544 0.41991 0.57121 0.0
C290 C 0.54098 0.44424 0.52198 0.0
H291 H 0.48719 0.36886 0.55779 0.0
H292 H 0.49848 0.42755 0.64348 0.0
C293 C 0.5605 0.43416 0.42304 0.0
C294 C 0.14327 0.48483 0.38785 0.0
C295 C 0.17379 0.50844 0.41278 0.0
H296 H 0.08407 0.4736 0.40589 0.0
C297 C 0.16812 0.53679 0.49007 0.0
H298 H 0.14696 0.46245 0.3296 0.0
C299 C 0.13201 0.54284 0.53485 0.0
C300 C 0.10126 0.52095 0.50145 0.0
H301 H 0.19101 0.5555 0.5101 0.0
H302 H 0.12785 0.56558 0.59122 0.0
C303 C 0.10727 0.49138 0.43018 0.0
C304 C 1.01201 0.88553 0.83612 0.0
C305 C 0.03908 0.87501 0.90239 0.0
H306 H 0.9904 0.92814 0.76228 0.0
C307 C 0.06966 0.89833 0.92818 0.0
H308 H 0.98771 0.86831 0.81796 0.0
C309 C 0.07139 0.93272 0.896 0.0
C310 C 0.04236 0.94419 0.83861 0.0
H311 H 0.09039 0.89086 -0.01853 0.0
H312 H 0.09404 0.95085 0.92215 0.0
C313 C 1.01344 0.91996 0.80539 0.0
C314 C 0.66454 0.04612 0.94392 0.0
C315 C 0.66266 0.01402 -0.00672 0.0
H316 H 0.63579 0.08094 0.85315 0.0
C317 C 0.63121 0.99076 -0.02059 0.0
H318 H 0.6883 0.0647 0.95444 0.0
C319 C 0.60107 1.00048 0.9246 0.0
C320 C 0.60172 0.03325 0.88119 0.0
H321 H 0.62917 0.9657 0.01594 0.0
H322 H 0.57712 0.98256 0.91748 0.0
C323 C 0.63428 0.0556 0.88773 0.0
C324 C 0.50954 0.64411 0.96501 0.0
C325 C 0.54016 0.64799 0.03231 0.0
H326 H 0.47432 0.60815 0.86774 0.0
C327 C 0.56125 0.61879 0.04262 0.0
H328 H 0.49274 0.66604 0.95534 0.0
C329 C 0.54946 0.58579 -0.00137 0.0
C330 C 0.51773 0.58153 0.93714 0.0
H331 H 0.58575 0.62103 0.09078 0.0
H332 H 0.56489 0.56349 0.01438 0.0
C333 C 0.49869 0.61102 0.91637 0.0
C334 C 0.9193 0.55657 0.03565 0.0
C335 C 0.88775 0.5345 0.00941 0.0
H336 H 0.97887 0.56491 0.01975 0.0
C337 C 0.89215 0.50592 0.93215 0.0
H338 H 0.91661 0.57901 0.09425 0.0
C339 C 0.92794 0.49812 0.88851 0.0
C340 C 0.95959 0.51849 0.92304 0.0
H341 H 0.86841 0.48834 0.91137 0.0
H342 H 0.93107 0.4752 0.83219 0.0
C343 C 0.95493 0.54829 -0.00557 0.0
C344 C 1.0014 0.19065 0.05664 0.0
C345 C 0.0271 0.19574 0.13886 0.0
H346 H 0.98429 0.15885 0.91512 0.0
C347 C 0.05965 0.177 0.12919 0.0
H348 H 0.97582 0.20438 0.06394 0.0
C349 C 0.06402 0.15029 0.0464 0.0
C350 C 0.03606 0.14242 0.97184 0.0
H351 H 0.07947 0.18022 0.19312 0.0
H352 H 0.08767 0.13411 0.04624 0.0
C353 C 1.006 0.16421 -0.02714 0.0
C354 C 0.36593 1.0059 0.02968 0.0
C355 C 0.358 0.03922 0.0773 0.0
H356 H 0.40449 0.97556 0.92841 0.0
C357 C 0.37931 0.06878 0.04178 0.0
H358 H 0.35039 0.9827 0.05771 0.0
C359 C 0.41023 0.06471 0.96732 0.0
C360 C 0.4207 0.031 0.93053 0.0
H361 H 0.37424 0.0946 0.07967 0.0
H362 H 0.42759 0.08766 0.94562 0.0
C363 C 0.39742 1.00176 0.95822 0.0
C364 C 0.50068 0.33371 -0.01121 0.0
C365 C 0.47317 0.33389 0.0755 0.0
H366 H 0.52651 0.36163 0.85566 0.0
C367 C 0.44394 0.35659 0.07522 0.0
H368 H 0.52364 0.31666 -0.01194 0.0
C369 C 0.44595 0.38286 0.00105 0.0
C370 C 0.477 0.38627 0.92619 0.0
H371 H 0.42264 0.35733 0.14219 0.0
H372 H 0.42547 0.40258 0.01039 0.0
C373 C 0.50268 0.35992 0.91449 0.0
C374 C 0.20706 0.4686 -0.00102 0.0
C375 C 0.22646 0.49999 0.03467 0.0
H376 H 0.16057 0.44552 0.91204 0.0
C377 C 0.22137 0.53062 -0.01776 0.0
H378 H 0.21027 0.44474 0.03915 0.0
C379 C 0.19297 0.53105 0.90884 0.0
C380 C 0.16927 0.50094 0.88873 0.0
H381 H 0.2356 0.55521 0.00946 0.0
H382 H 0.18692 0.55578 0.87818 0.0
C383 C 0.17809 0.46921 0.9281 0.0
C384 C 0.01913 0.84714 0.34549 0.0
C385 C 0.99232 0.84315 0.26616 0.0
H386 H 0.03967 0.87853 0.48364 0.0
C387 C 0.96101 0.86356 0.27889 0.0
H388 H 0.04384 0.83214 0.33579 0.0
C389 C 0.95909 0.8907 0.36124 0.0
C390 C 0.98831 0.89744 0.43223 0.0
H391 H 0.94039 0.86127 0.21718 0.0
H392 H 0.93636 0.90805 0.36357 0.0
C393 C 0.01706 0.87411 0.42856 0.0
C394 C 0.65776 0.96529 0.40499 0.0
C395 C 0.67876 0.99613 0.37859 0.0
H396 H 0.61032 0.94302 0.49793 0.0
C397 C 0.67128 0.02776 0.43833 0.0
H398 H 0.6625 0.94081 0.35767 0.0
C399 C 0.64076 0.02926 0.5148 0.0
C400 C 0.61778 0.99902 0.53427 0.0
H401 H 0.68652 0.05195 0.41745 0.0
H402 H 0.63385 0.05445 0.55418 0.0
C403 C 0.62768 0.96664 0.48378 0.0
C404 C 0.5999 0.67633 0.41548 0.0
C405 C 0.56807 0.69499 0.4036 0.0
H406 H 0.62192 0.63341 0.4885 0.0
C407 C 0.53745 0.69122 0.48001 0.0
H408 H 0.62368 0.67851 0.35659 0.0
C409 C 0.5364 0.66533 0.55572 0.0
C410 C 0.56585 0.6428 0.55477 0.0
H411 H 0.5124 0.7049 0.47155 0.0
H412 H 0.51093 0.66051 0.60619 0.0
C413 C 0.59863 0.65008 0.48967 0.0
C414 C 0.83937 0.51143 0.43554 0.0
C415 C 0.8349 0.5429 0.38677 0.0
H416 H 0.87309 0.48419 0.53646 0.0
C417 C 0.85516 0.57346 0.42539 0.0
H418 H 0.82459 0.4874 0.40586 0.0
C419 C 0.88402 0.57136 0.4959 0.0
C420 C 0.89202 0.5389 0.53208 0.0
H421 H 0.85259 0.59793 0.38795 0.0
H422 H 0.90202 0.59454 0.51448 0.0
C423 C 0.8677 0.50948 0.50853 0.0
loop_
_geom_bond_atom_site_label_1
_geom_bond_atom_site_label_2
_geom_bond_distance
_geom_bond_site_symmetry_2
_ccdc_geom_bond_type
H0 C7 0.929 . S
H1 C10 0.930 . S
H2 C12 0.929 . S
H3 C4 0.969 . S
C4 H3 0.969 . S
C4 O5 1.550 1_556 S
C4 H6 0.973 . S
O5 C4 1.550 1_554 S
O5 C11 1.412 . S
H6 C4 0.973 . S
C7 H0 0.929 . S
C7 C8 1.400 . S
C7 C9 1.364 . S
C8 C7 1.400 . S
C8 C12 1.377 . S
C9 C7 1.364 . S
C9 C10 1.374 1_554 S
C10 H1 0.930 . S
C10 C9 1.374 1_556 S
C10 C11 1.383 1_556 S
C11 O5 1.412 . S
C11 C10 1.383 1_554 S
C11 C12 1.394 . S
C12 H2 0.929 . S
C12 C8 1.377 . S
C12 C11 1.394 . S
H13 C20 0.929 . S
H14 C23 0.930 . S
H15 C25 0.929 . S
H16 C17 0.969 . S
C17 H16 0.969 . S
C17 O18 1.550 1_556 S
C17 H19 0.973 . S
O18 C17 1.550 1_554 S
O18 C24 1.412 . S
H19 C17 0.973 . S
C20 H13 0.929 . S
C20 C21 1.400 . S
C20 C22 1.364 1_554 S
C21 C20 1.400 . S
C21 C25 1.377 . S
C22 C20 1.364 1_556 S
C22 C23 1.374 . S
C23 H14 0.930 . S
C23 C22 1.374 . S
C23 C24 1.383 1_556 S
C24 O18 1.412 . S
C24 C23 1.383 1_554 S
C24 C25 1.394 . S
C25 H15 0.929 . S
C25 C21 1.377 . S
C25 C24 1.394 . S
H26 C33 0.929 . S
H27 C36 0.930 1_556 S
H28 C38 0.929 . S
H29 C30 0.969 . S
C30 H29 0.969 . S
C30 O31 1.550 1_556 S
C30 H32 0.973 . S
O31 C30 1.550 1_554 S
O31 C37 1.412 . S
H32 C30 0.973 . S
C33 H26 0.929 . S
C33 C34 1.400 . S
C33 C35 1.364 . S
C34 C33 1.400 . S
C34 C38 1.377 . S
C35 C33 1.364 . S
C35 C36 1.374 . S
C36 H27 0.930 1_554 S
C36 C35 1.374 . S
C36 C37 1.383 . S
C37 O31 1.412 . S
C37 C36 1.383 . S
C37 C38 1.394 . S
C38 H28 0.929 . S
C38 C34 1.377 . S
C38 C37 1.394 . S
H39 C46 0.929 . S
H40 C49 0.930 1_556 S
H41 C51 0.929 . S
H42 C43 0.969 . S
C43 H42 0.969 . S
C43 O44 1.550 . S
C43 H45 0.973 1_554 S
O44 C43 1.550 . S
O44 C50 1.412 . S
H45 C43 0.973 1_556 S
C46 H39 0.929 . S
C46 C47 1.400 . S
C46 C48 1.364 . S
C47 C46 1.400 . S
C47 C51 1.377 . S
C48 C46 1.364 . S
C48 C49 1.374 . S
C49 H40 0.930 1_554 S
C49 C48 1.374 . S
C49 C50 1.383 . S
C50 O44 1.412 . S
C50 C49 1.383 . S
C50 C51 1.394 . S
C51 H41 0.929 . S
C51 C47 1.377 . S
C51 C50 1.394 . S
H52 C59 0.929 . S
H53 C62 0.930 . S
H54 C64 0.929 . S
H55 C56 0.969 . S
C56 H55 0.969 . S
C56 O57 1.550 . S
C56 H58 0.973 . S
O57 C56 1.550 . S
O57 C63 1.412 . S
H58 C56 0.973 . S
C59 H52 0.929 . S
C59 C60 1.400 . S
C59 C61 1.364 . S
C60 C59 1.400 . S
C60 C64 1.377 . S
C61 C59 1.364 . S
C61 C62 1.374 . S
C62 H53 0.930 . S
C62 C61 1.374 . S
C62 C63 1.383 . S
C63 O57 1.412 . S
C63 C62 1.383 . S
C63 C64 1.394 . S
C64 H54 0.929 . S
C64 C60 1.377 . S
C64 C63 1.394 . S
H65 C72 0.929 . S
H66 C75 0.930 . S
H67 C77 0.929 . S
H68 C69 0.969 . S
C69 H68 0.969 . S
C69 O70 1.550 . S
C69 H71 0.973 . S
O70 C69 1.550 . S
O70 C76 1.412 . S
H71 C69 0.973 . S
C72 H65 0.929 . S
C72 C73 1.400 . S
C72 C74 1.364 . S
C73 C72 1.400 . S
C73 C77 1.377 . S
C74 C72 1.364 . S
C74 C75 1.374 . S
C75 H66 0.930 . S
C75 C74 1.374 . S
C75 C76 1.383 . S
C76 O70 1.412 . S
C76 C75 1.383 . S
C76 C77 1.394 . S
C77 H67 0.929 . S
C77 C73 1.377 . S
C77 C76 1.394 . S
H78 C85 0.929 . S
H79 C88 0.930 . S
H80 C90 0.929 . S
H81 C82 0.969 . S
C82 H81 0.969 . S
C82 O83 1.550 . S
C82 H84 0.973 . S
O83 C82 1.550 . S
O83 C89 1.412 . S
H84 C82 0.973 . S
C85 H78 0.929 . S
C85 C86 1.400 . S
C85 C87 1.364 . S
C86 C85 1.400 . S
C86 C90 1.377 . S
C87 C85 1.364 . S
C87 C88 1.374 . S
C88 H79 0.930 . S
C88 C87 1.374 . S
C88 C89 1.383 . S
C89 O83 1.412 . S
C89 C88 1.383 . S
C89 C90 1.394 . S
C90 H80 0.929 . S
C90 C86 1.377 . S
C90 C89 1.394 . S
H91 C98 0.929 . S
H92 C101 0.930 . S
H93 C103 0.929 . S
H94 C95 0.969 . S
C95 H94 0.969 . S
C95 O96 1.550 . S
C95 H97 0.973 . S
O96 C95 1.550 . S
O96 C102 1.412 . S
H97 C95 0.973 . S
C98 H91 0.929 . S
C98 C99 1.400 . S
C98 C100 1.364 . S
C99 C98 1.400 . S
C99 C103 1.377 . S
C100 C98 1.364 . S
C100 C101 1.374 . S
C101 H92 0.930 . S
C101 C100 1.374 . S
C101 C102 1.383 . S
C102 O96 1.412 . S
C102 C101 1.383 . S
C102 C103 1.394 . S
C103 H93 0.929 . S
C103 C99 1.377 . S
C103 C102 1.394 . S
Tb104 O107 2.453 1_565 S
Tb104 O108 2.596 1_665 S
Tb104 O109 2.374 1_665 S
Tb104 O117 2.339 1_655 S
Tb104 O119 2.353 1_565 S
Tb104 O121 2.427 . S
Tb104 O122 2.513 1_655 S
C105 O109 1.251 . S
C105 O111 1.263 . S
Tb106 O108 2.343 . S
Tb106 O111 2.353 . S
Tb106 O114 2.427 . S
Tb106 O115 2.513 1_455 S
Tb106 O116 2.453 1_545 S
Tb106 O117 2.600 1_545 S
Tb106 O118 2.374 1_455 S
O107 Tb104 2.453 1_545 S
O107 C123 1.245 1_655 S
O108 Tb104 2.596 1_445 S
O108 Tb106 2.343 . S
O108 C123 1.259 . S
O109 Tb104 2.374 1_445 S
O109 C105 1.251 . S
C110 O114 1.275 . S
C110 O115 1.246 1_455 S
O111 C105 1.263 . S
O111 Tb106 2.353 . S
C112 O116 1.245 . S
C112 O117 1.262 . S
C113 O118 1.250 . S
C113 O119 1.263 . S
O114 Tb106 2.427 . S
O114 C110 1.275 . S
O115 Tb106 2.513 1_655 S
O115 C110 1.246 1_655 S
O116 Tb106 2.453 1_565 S
O116 C112 1.245 . S
O117 Tb104 2.339 1_455 S
O117 Tb106 2.600 1_565 S
O117 C112 1.262 . S
O118 Tb106 2.374 1_655 S
O118 C113 1.250 . S
O119 Tb104 2.353 1_545 S
O119 C113 1.263 . S
C120 O121 1.275 . S
C120 O122 1.246 1_655 S
O121 Tb104 2.427 . S
O121 C120 1.275 . S
O122 Tb104 2.513 1_455 S
O122 C120 1.246 1_455 S
C123 O107 1.245 1_455 S
C123 O108 1.259 . S
Tb124 O127 2.453 . S
Tb124 O128 2.596 1_545 S
Tb124 O129 2.374 . S
Tb124 O137 2.343 . S
Tb124 O139 2.353 . S
Tb124 O141 2.427 . S
Tb124 O142 2.513 . S
C125 O129 1.227 1_565 S
C125 O131 1.281 . S
Tb126 O128 2.343 . S
Tb126 O131 2.353 . S
Tb126 O134 2.427 . S
Tb126 O135 2.513 . S
Tb126 O136 2.453 . S
Tb126 O137 2.596 1_565 S
Tb126 O138 2.374 . S
O127 Tb124 2.453 . S
O127 C143 1.245 . S
O128 Tb124 2.596 1_565 S
O128 Tb126 2.343 . S
O128 C143 1.259 1_565 S
O129 Tb124 2.374 . S
O129 C125 1.227 1_545 S
C130 O134 1.275 . S
C130 O135 1.246 . S
O131 C125 1.281 . S
O131 Tb126 2.353 . S
C132 O136 1.245 1_545 S
C132 O137 1.259 . S
C133 O138 1.250 1_545 S
C133 O139 1.263 . S
O134 Tb126 2.427 . S
O134 C130 1.275 . S
O135 Tb126 2.513 . S
O135 C130 1.246 . S
O136 Tb126 2.453 . S
O136 C132 1.245 1_565 S
O137 Tb124 2.343 . S
O137 Tb126 2.596 1_545 S
O137 C132 1.259 . S
O138 Tb126 2.374 . S
O138 C133 1.250 1_565 S
O139 Tb124 2.353 . S
O139 C133 1.263 . S
C140 O141 1.275 . S
C140 O142 1.246 . S
O141 Tb124 2.427 . S
O141 C140 1.275 . S
O142 Tb124 2.513 . S
O142 C140 1.246 . S
C143 O127 1.245 . S
C143 O128 1.259 1_545 S
Tb144 O147 2.453 . S
Tb144 O148 2.596 . S
Tb144 O149 2.374 . S
Tb144 O157 2.343 . S
Tb144 O159 2.353 . S
Tb144 O161 2.427 . S
Tb144 O162 2.513 . S
C145 O149 1.251 . S
C145 O151 1.263 . S
Tb146 O148 2.343 . S
Tb146 O151 2.353 . S
Tb146 O154 2.427 . S
Tb146 O155 2.513 . S
Tb146 O156 2.453 . S
Tb146 O157 2.596 . S
Tb146 O158 2.374 . S
O147 Tb144 2.453 . S
O147 C163 1.245 . S
O148 Tb144 2.596 . S
O148 Tb146 2.343 . S
O148 C163 1.259 . S
O149 Tb144 2.374 . S
O149 C145 1.251 . S
C150 O154 1.275 . S
C150 O155 1.246 . S
O151 C145 1.263 . S
O151 Tb146 2.353 . S
C152 O156 1.245 . S
C152 O157 1.259 . S
C153 O158 1.250 . S
C153 O159 1.263 . S
O154 Tb146 2.427 . S
O154 C150 1.275 . S
O155 Tb146 2.513 . S
O155 C150 1.246 . S
O156 Tb146 2.453 . S
O156 C152 1.245 . S
O157 Tb144 2.343 . S
O157 Tb146 2.596 . S
O157 C152 1.259 . S
O158 Tb146 2.374 . S
O158 C153 1.250 . S
O159 Tb144 2.353 . S
O159 C153 1.263 . S
C160 O161 1.275 . S
C160 O162 1.246 . S
O161 Tb144 2.427 . S
O161 C160 1.275 . S
O162 Tb144 2.513 . S
O162 C160 1.246 . S
C163 O147 1.245 . S
C163 O148 1.259 . S
Tb164 O167 2.453 1_655 S
Tb164 O168 2.596 1_655 S
Tb164 O169 2.374 1_655 S
Tb164 O177 2.343 . S
Tb164 O179 2.353 1_655 S
Tb164 O181 2.427 . S
Tb164 O182 2.513 . S
C165 O169 1.251 . S
C165 O171 1.263 . S
Tb166 O168 2.343 . S
Tb166 O171 2.353 . S
Tb166 O174 2.427 . S
Tb166 O175 2.513 . S
Tb166 O176 2.453 1_455 S
Tb166 O177 2.596 1_455 S
Tb166 O178 2.374 . S
O167 Tb164 2.453 1_455 S
O167 C183 1.245 . S
O168 Tb164 2.596 1_455 S
O168 Tb166 2.343 . S
O168 C183 1.259 . S
O169 Tb164 2.374 1_455 S
O169 C165 1.251 . S
C170 O174 1.275 . S
C170 O175 1.246 . S
O171 C165 1.263 . S
O171 Tb166 2.353 . S
C172 O176 1.245 . S
C172 O177 1.259 . S
C173 O178 1.259 . S
C173 O179 1.263 . S
O174 Tb166 2.427 . S
O174 C170 1.275 . S
O175 Tb166 2.513 . S
O175 C170 1.246 . S
O176 Tb166 2.453 1_655 S
O176 C172 1.245 . S
O177 Tb164 2.343 . S
O177 Tb166 2.596 1_655 S
O177 C172 1.259 . S
O178 Tb166 2.374 . S
O178 C173 1.259 . S
O179 Tb164 2.353 1_455 S
O179 C173 1.263 . S
C180 O181 1.275 . S
C180 O182 1.246 . S
O181 Tb164 2.427 . S
O181 C180 1.275 . S
O182 Tb164 2.513 . S
O182 C180 1.246 . S
C183 O167 1.245 . S
C183 O168 1.259 . S
C184 C185 1.387 . S
C184 H188 0.950 1_545 S
C184 C193 1.390 . S
C185 C184 1.387 . S
C185 C187 1.387 . S
H186 C193 0.950 1_565 S
C187 C185 1.387 . S
C187 C189 1.390 . S
C187 H191 0.950 . S
H188 C184 0.950 1_565 S
C189 C187 1.390 . S
C189 C190 1.387 . S
C189 H192 0.950 . S
C190 C189 1.387 . S
C190 C193 1.387 . S
H191 C187 0.950 . S
H192 C189 0.950 . S
C193 C184 1.390 . S
C193 H186 0.950 1_545 S
C193 C190 1.387 . S
C194 C195 1.387 . S
C194 H198 0.950 . S
C194 C203 1.390 . S
C195 C194 1.387 . S
C195 C197 1.387 . S
H196 C203 0.950 . S
C197 C195 1.387 . S
C197 C199 1.390 . S
C197 H201 0.950 . S
H198 C194 0.950 . S
C199 C197 1.390 . S
C199 C200 1.387 . S
C199 H202 0.950 . S
C200 C199 1.387 . S
C200 C203 1.387 . S
H201 C197 0.950 . S
H202 C199 0.950 . S
C203 C194 1.390 . S
C203 H196 0.950 . S
C203 C200 1.387 . S
C204 C205 1.387 . S
C204 H208 0.950 . S
C204 C213 1.390 . S
C205 C204 1.387 . S
C205 C207 1.387 . S
H206 C213 0.950 . S
C207 C205 1.387 . S
C207 C209 1.390 . S
C207 H211 0.950 . S
H208 C204 0.950 . S
C209 C207 1.390 . S
C209 C210 1.387 . S
C209 H212 0.950 . S
C210 C209 1.387 . S
C210 C213 1.387 . S
H211 C207 0.950 . S
H212 C209 0.950 . S
C213 C204 1.390 . S
C213 H206 0.950 . S
C213 C210 1.387 . S
C214 C215 1.387 . S
C214 H218 0.950 . S
C214 C223 1.390 . S
C215 C214 1.387 . S
C215 C217 1.387 . S
H216 C223 0.951 . S
C217 C215 1.387 . S
C217 C219 1.390 . S
C217 H221 0.950 . S
H218 C214 0.950 . S
C219 C217 1.390 . S
C219 C220 1.387 . S
C219 H222 0.950 . S
C220 C219 1.387 . S
C220 C223 1.387 . S
H221 C217 0.950 . S
H222 C219 0.950 . S
C223 C214 1.390 . S
C223 H216 0.951 . S
C223 C220 1.387 . S
C224 C225 1.387 . S
C224 H228 0.950 . S
C224 C233 1.390 . S
C225 C224 1.387 . S
C225 C227 1.387 1_565 S
H226 C233 0.950 . S
C227 C225 1.387 1_545 S
C227 C229 1.390 . S
C227 H231 0.950 1_556 S
H228 C224 0.950 . S
C229 C227 1.390 . S
C229 C230 1.387 1_545 S
C229 H232 0.950 . S
C230 C229 1.387 1_565 S
C230 C233 1.387 . S
H231 C227 0.950 1_554 S
H232 C229 0.950 . S
C233 C224 1.390 . S
C233 H226 0.950 . S
C233 C230 1.387 . S
C234 C235 1.387 1_554 S
C234 H238 0.950 . S
C234 C243 1.390 . S
C235 C234 1.387 1_556 S
C235 C237 1.387 . S
H236 C243 0.950 . S
C237 C235 1.387 . S
C237 C239 1.390 . S
C237 H241 0.950 . S
H238 C234 0.950 . S
C239 C237 1.390 . S
C239 C240 1.387 . S
C239 H242 0.950 . S
C240 C239 1.387 . S
C240 C243 1.387 1_556 S
H241 C237 0.950 . S
H242 C239 0.950 . S
C243 C234 1.390 . S
C243 H236 0.950 . S
C243 C240 1.387 1_554 S
C244 C245 1.387 . S
C244 H248 0.950 . S
C244 C253 1.390 . S
C245 C244 1.387 . S
C245 C247 1.387 . S
H246 C253 0.950 . S
C247 C245 1.387 . S
C247 C249 1.390 . S
C247 H251 0.950 . S
H248 C244 0.950 . S
C249 C247 1.390 . S
C249 C250 1.387 . S
C249 H252 0.950 . S
C250 C249 1.387 . S
C250 C253 1.387 . S
H251 C247 0.950 . S
H252 C249 0.950 . S
C253 C244 1.390 . S
C253 H246 0.950 . S
C253 C250 1.387 . S
C254 C255 1.387 . S
C254 H258 0.950 . S
C254 C263 1.390 . S
C255 C254 1.387 . S
C255 C257 1.387 . S
H256 C263 0.950 . S
C257 C255 1.387 . S
C257 C259 1.390 1_655 S
C257 H261 0.950 1_656 S
H258 C254 0.950 . S
C259 C257 1.390 1_455 S
C259 C260 1.387 1_455 S
C259 H262 0.950 . S
C260 C259 1.387 1_655 S
C260 C263 1.387 . S
H261 C257 0.950 1_454 S
H262 C259 0.950 . S
C263 C254 1.390 . S
C263 H256 0.950 . S
C263 C260 1.387 . S
C264 C265 1.387 . S
C264 H268 0.950 . S
C264 C273 1.390 . S
C265 C264 1.387 . S
C265 C267 1.387 . S
H266 C273 0.950 . S
C267 C265 1.387 . S
C267 C269 1.390 . S
C267 H271 0.950 . S
H268 C264 0.950 . S
C269 C267 1.390 . S
C269 C270 1.387 . S
C269 H272 0.950 . S
C270 C269 1.387 . S
C270 C273 1.387 . S
H271 C267 0.950 . S
H272 C269 0.950 . S
C273 C264 1.390 . S
C273 H266 0.950 . S
C273 C270 1.387 . S
C274 C275 1.387 . S
C274 H278 0.950 . S
C274 C283 1.390 . S
C275 C274 1.387 . S
C275 C277 1.387 . S
H276 C283 0.950 . S
C277 C275 1.387 . S
C277 C279 1.390 . S
C277 H281 0.950 . S
H278 C274 0.950 . S
C279 C277 1.390 . S
C279 C280 1.387 . S
C279 H282 0.950 . S
C280 C279 1.387 . S
C280 C283 1.387 . S
H281 C277 0.950 . S
H282 C279 0.950 . S
C283 C274 1.390 . S
C283 H276 0.950 . S
C283 C280 1.387 . S
C284 C285 1.387 . S
C284 H288 0.950 . S
C284 C293 1.390 . S
C285 C284 1.387 . S
C285 C287 1.387 . S
H286 C293 0.950 . S
C287 C285 1.387 . S
C287 C289 1.390 . S
C287 H291 0.950 . S
H288 C284 0.950 . S
C289 C287 1.390 . S
C289 C290 1.387 . S
C289 H292 0.950 . S
C290 C289 1.387 . S
C290 C293 1.387 . S
H291 C287 0.950 . S
H292 C289 0.950 . S
C293 C284 1.390 . S
C293 H286 0.950 . S
C293 C290 1.387 . S
C294 C295 1.387 . S
C294 H298 0.950 . S
C294 C303 1.390 . S
C295 C294 1.387 . S
C295 C297 1.387 . S
H296 C303 0.950 . S
C297 C295 1.387 . S
C297 C299 1.390 . S
C297 H301 0.950 . S
H298 C294 0.950 . S
C299 C297 1.390 . S
C299 C300 1.387 . S
C299 H302 0.950 . S
C300 C299 1.387 . S
C300 C303 1.387 . S
H301 C297 0.950 . S
H302 C299 0.950 . S
C303 C294 1.390 . S
C303 H296 0.950 . S
C303 C300 1.387 . S
C304 C305 1.387 . S
C304 H308 0.950 1_556 S
C304 C313 1.390 . S
C305 C304 1.387 . S
C305 C307 1.387 . S
H306 C313 0.950 1_554 S
C307 C305 1.387 . S
C307 C309 1.390 . S
C307 H311 0.950 . S
H308 C304 0.950 1_554 S
C309 C307 1.390 . S
C309 C310 1.387 . S
C309 H312 0.950 . S
C310 C309 1.387 . S
C310 C313 1.387 . S
H311 C307 0.950 . S
H312 C309 0.950 . S
C313 C304 1.390 . S
C313 H306 0.950 1_556 S
C313 C310 1.387 . S
C314 C315 1.387 1_554 S
C314 H318 0.950 1_565 S
C314 C323 1.390 1_564 S
C315 C314 1.387 1_556 S
C315 C317 1.387 . S
H316 C323 0.950 1_554 S
C317 C315 1.387 . S
C317 C319 1.390 . S
C317 H321 0.950 . S
H318 C314 0.950 1_545 S
C319 C317 1.390 . S
C319 C320 1.387 . S
C319 H322 0.950 . S
C320 C319 1.387 . S
C320 C323 1.387 1_565 S
H321 C317 0.950 . S
H322 C319 0.950 . S
C323 C314 1.390 1_546 S
C323 H316 0.950 1_556 S
C323 C320 1.387 1_545 S
C324 C325 1.387 . S
C324 H328 0.950 . S
C324 C333 1.390 . S
C325 C324 1.387 . S
C325 C327 1.387 1_556 S
H326 C333 0.950 . S
C327 C325 1.387 1_554 S
C327 C329 1.390 1_554 S
C327 H331 0.950 . S
H328 C324 0.950 . S
C329 C327 1.390 1_556 S
C329 C330 1.387 . S
C329 H332 0.950 1_556 S
C330 C329 1.387 . S
C330 C333 1.387 . S
H331 C327 0.950 . S
H332 C329 0.950 1_554 S
C333 C324 1.390 . S
C333 H326 0.950 . S
C333 C330 1.387 . S
C334 C335 1.387 . S
C334 H338 0.950 . S
C334 C343 1.390 . S
C335 C334 1.387 . S
C335 C337 1.387 . S
H336 C343 0.950 . S
C337 C335 1.387 . S
C337 C339 1.390 . S
C337 H341 0.950 . S
H338 C334 0.950 . S
C339 C337 1.390 . S
C339 C340 1.387 . S
C339 H342 0.950 . S
C340 C339 1.387 . S
C340 C343 1.387 . S
H341 C337 0.950 . S
H342 C339 0.950 . S
C343 C334 1.390 . S
C343 H336 0.950 . S
C343 C340 1.387 . S
C344 C345 1.387 . S
C344 H348 0.950 . S
C344 C353 1.390 . S
C345 C344 1.387 . S
C345 C347 1.387 . S
H346 C353 0.950 . S
C347 C345 1.387 . S
C347 C349 1.390 . S
C347 H351 0.950 . S
H348 C344 0.950 . S
C349 C347 1.390 . S
C349 C350 1.387 . S
C349 H352 0.950 1_554 S
C350 C349 1.387 . S
C350 C353 1.387 . S
H351 C347 0.950 . S
H352 C349 0.950 1_556 S
C353 C344 1.390 . S
C353 H346 0.950 . S
C353 C350 1.387 . S
C354 C355 1.387 . S
C354 H358 0.950 . S
C354 C363 1.390 . S
C355 C354 1.387 . S
C355 C357 1.387 . S
H356 C363 0.950 1_565 S
C357 C355 1.387 . S
C357 C359 1.390 1_554 S
C357 H361 0.950 . S
H358 C354 0.950 . S
C359 C357 1.390 1_556 S
C359 C360 1.387 1_556 S
C359 H362 0.950 . S
C360 C359 1.387 1_554 S
C360 C363 1.387 . S
H361 C357 0.950 . S
H362 C359 0.950 . S
C363 C354 1.390 . S
C363 H356 0.950 1_545 S
C363 C360 1.387 . S
C364 C365 1.387 . S
C364 H368 0.950 . S
C364 C373 1.390 1_554 S
C365 C364 1.387 . S
C365 C367 1.387 . S
H366 C373 0.950 . S
C367 C365 1.387 . S
C367 C369 1.390 . S
C367 H371 0.950 . S
H368 C364 0.950 . S
C369 C367 1.390 . S
C369 C370 1.387 . S
C369 H372 0.950 . S
C370 C369 1.387 . S
C370 C373 1.387 1_554 S
H371 C367 0.950 . S
H372 C369 0.950 . S
C373 C364 1.390 1_556 S
C373 H366 0.950 . S
C373 C370 1.387 1_556 S
C374 C375 1.387 . S
C374 H378 0.950 . S
C374 C383 1.390 . S
C375 C374 1.387 . S
C375 C377 1.387 . S
H376 C383 0.950 1_556 S
C377 C375 1.387 . S
C377 C379 1.390 . S
C377 H381 0.950 . S
H378 C374 0.950 . S
C379 C377 1.390 . S
C379 C380 1.387 . S
C379 H382 0.950 . S
C380 C379 1.387 . S
C380 C383 1.387 . S
H381 C377 0.950 . S
H382 C379 0.950 . S
C383 C374 1.390 . S
C383 H376 0.950 1_554 S
C383 C380 1.387 . S
C384 C385 1.387 . S
C384 H388 0.950 1_655 S
C384 C393 1.386 1_655 S
C385 C384 1.387 . S
C385 C387 1.387 . S
H386 C393 0.967 . S
C387 C385 1.387 . S
C387 C389 1.390 . S
C387 H391 0.950 . S
H388 C384 0.950 1_455 S
C389 C387 1.390 . S
C389 C390 1.387 . S
C389 H392 0.950 . S
C390 C389 1.387 . S
C390 C393 1.374 1_655 S
H391 C387 0.950 . S
H392 C389 0.950 . S
C393 C384 1.386 1_455 S
C393 H386 0.967 . S
C393 C390 1.374 1_455 S
C394 C395 1.387 . S
C394 H398 0.950 . S
C394 C403 1.390 . S
C395 C394 1.387 . S
C395 C397 1.387 . S
H396 C403 0.950 . S
C397 C395 1.387 . S
C397 C399 1.390 . S
C397 H401 0.950 . S
H398 C394 0.950 . S
C399 C397 1.390 . S
C399 C400 1.387 . S
C399 H402 0.950 1_565 S
C400 C399 1.387 . S
C400 C403 1.387 . S
H401 C397 0.950 . S
H402 C399 0.950 1_545 S
C403 C394 1.390 . S
C403 H396 0.950 . S
C403 C400 1.387 . S
C404 C405 1.387 . S
C404 H408 0.950 . S
C404 C413 1.390 . S
C405 C404 1.387 . S
C405 C407 1.387 . S
H406 C413 0.950 . S
C407 C405 1.387 . S
C407 C409 1.390 . S
C407 H411 0.950 . S
H408 C404 0.950 . S
C409 C407 1.390 . S
C409 C410 1.387 . S
C409 H412 0.950 . S
C410 C409 1.387 . S
C410 C413 1.387 . S
H411 C407 0.950 . S
H412 C409 0.950 . S
C413 C404 1.390 . S
C413 H406 0.950 . S
C413 C410 1.387 . S
C414 C415 1.387 . S
C414 H418 0.950 . S
C414 C423 1.390 . S
C415 C414 1.387 . S
C415 C417 1.387 . S
H416 C423 0.950 . S
C417 C415 1.387 . S
C417 C419 1.390 . S
C417 H421 0.950 . S
H418 C414 0.950 . S
C419 C417 1.390 . S
C419 C420 1.387 . S
C419 H422 0.950 . S
C420 C419 1.387 . S
C420 C423 1.387 . S
H421 C417 0.950 . S
H422 C419 0.950 . S
C423 C414 1.390 . S
C423 H416 0.950 . S
C423 C420 1.387 . S
C185 C82 1.521 . S
C190 C105 1.598 . S
C200 C140 1.608 . S
C195 C95 1.517 . S
C210 C145 1.379 . S
C205 C56 1.297 . S
C220 C165 1.546 . S
C215 C69 1.504 . S
C230 C113 1.598 1_565 S
C225 C30 1.458 . S
C235 C43 1.408 1_556 S
C240 C130 1.608 . S
C245 C4 1.268 . S
C250 C153 1.380 . S
C255 C17 1.429 . S
C260 C173 1.537 1_655 S
C270 C123 1.432 . S
C265 C74 1.373 . S
C280 C132 1.207 . S
C275 C87 1.172 . S
C290 C163 1.464 . S
C285 C100 1.405 . S
C295 C61 1.115 . S
C300 C183 1.131 . S
C305 C22 1.369 . S
C310 C112 1.432 1_655 S
C320 C143 1.205 1_565 S
C315 C35 1.170 1_556 S
C330 C152 1.466 . S
C325 C48 1.397 1_556 S
C335 C9 1.118 1_556 S
C340 C172 1.128 . S
C345 C73 1.469 . S
C350 C110 1.475 1_554 S
C355 C86 1.504 . S
C360 C133 1.568 1_554 S
C370 C150 1.571 1_554 S
C365 C99 1.525 . S
C380 C170 1.560 1_554 S
C375 C60 1.543 . S
C385 C21 1.466 . S
C390 C120 1.473 . S
C400 C125 1.574 . S
C395 C34 1.498 . S
C410 C160 1.572 . S
C405 C47 1.516 . S
C415 C8 1.541 . S
C420 C180 1.561 . S
