# Generated by pormake.
# Topology eea, (3,6)-cn, num edge types: 1
# Building blocks:
#     Node 0, Type 0, BuildingBlock: KAKCAD_clean_linker_0, # of connection points: 3
#     Node 1, Type 0, BuildingBlock: KAKCAD_clean_linker_0, # of connection points: 3
#     Node 2, Type 0, BuildingBlock: KAKCAD_clean_linker_0, # of connection points: 3
#     Node 3, Type 0, BuildingBlock: KAKCAD_clean_linker_0, # of connection points: 3
#     Node 4, Type 0, BuildingBlock: KAKCAD_clean_linker_0, # of connection points: 3
#     Node 5, Type 0, BuildingBlock: KAKCAD_clean_linker_0, # of connection points: 3
#     Node 6, Type 0, BuildingBlock: KAKCAD_clean_linker_0, # of connection points: 3
#     Node 7, Type 0, BuildingBlock: KAKCAD_clean_linker_0, # of connection points: 3
#     Node 8, Type 0, BuildingBlock: KAKCAD_clean_linker_0, # of connection points: 3
#     Node 9, Type 0, BuildingBlock: KAKCAD_clean_linker_0, # of connection points: 3
#     Node 10, Type 0, BuildingBlock: KAKCAD_clean_linker_0, # of connection points: 3
#     Node 11, Type 0, BuildingBlock: KAKCAD_clean_linker_0, # of connection points: 3
#     Node 12, Type 0, BuildingBlock: KAKCAD_clean_linker_0, # of connection points: 3
#     Node 13, Type 0, BuildingBlock: KAKCAD_clean_linker_0, # of connection points: 3
#     Node 14, Type 0, BuildingBlock: KAKCAD_clean_linker_0, # of connection points: 3
#     Node 15, Type 0, BuildingBlock: KAKCAD_clean_linker_0, # of connection points: 3
#     Node 16, Type 0, BuildingBlock: KAKCAD_clean_linker_0, # of connection points: 3
#     Node 17, Type 0, BuildingBlock: KAKCAD_clean_linker_0, # of connection points: 3
#     Node 18, Type 1, BuildingBlock: KUMBUR_clean_sbu_0, # of connection points: 6
#     Node 19, Type 1, BuildingBlock: KUMBUR_clean_sbu_0, # of connection points: 6
#     Node 20, Type 1, BuildingBlock: KUMBUR_clean_sbu_0, # of connection points: 6
#     Node 21, Type 1, BuildingBlock: KUMBUR_clean_sbu_0, # of connection points: 6
#     Node 22, Type 1, BuildingBlock: KUMBUR_clean_sbu_0, # of connection points: 6
#     Node 23, Type 1, BuildingBlock: KUMBUR_clean_sbu_0, # of connection points: 6
#     Node 24, Type 1, BuildingBlock: KUMBUR_clean_sbu_0, # of connection points: 6
#     Node 25, Type 1, BuildingBlock: KUMBUR_clean_sbu_0, # of connection points: 6
#     Node 26, Type 1, BuildingBlock: KUMBUR_clean_sbu_0, # of connection points: 6
#     Edge 27, Type (0, 1), BuildingBlock: AJUNOK_clean_linker_0, # of connection points: 2
#     Edge 28, Type (0, 1), BuildingBlock: AJUNOK_clean_linker_0, # of connection points: 2
#     Edge 29, Type (0, 1), BuildingBlock: AJUNOK_clean_linker_0, # of connection points: 2
#     Edge 30, Type (0, 1), BuildingBlock: AJUNOK_clean_linker_0, # of connection points: 2
#     Edge 31, Type (0, 1), BuildingBlock: AJUNOK_clean_linker_0, # of connection points: 2
#     Edge 32, Type (0, 1), BuildingBlock: AJUNOK_clean_linker_0, # of connection points: 2
#     Edge 33, Type (0, 1), BuildingBlock: AJUNOK_clean_linker_0, # of connection points: 2
#     Edge 34, Type (0, 1), BuildingBlock: AJUNOK_clean_linker_0, # of connection points: 2
#     Edge 35, Type (0, 1), BuildingBlock: AJUNOK_clean_linker_0, # of connection points: 2
#     Edge 36, Type (0, 1), BuildingBlock: AJUNOK_clean_linker_0, # of connection points: 2
#     Edge 37, Type (0, 1), BuildingBlock: AJUNOK_clean_linker_0, # of connection points: 2
#     Edge 38, Type (0, 1), BuildingBlock: AJUNOK_clean_linker_0, # of connection points: 2
#     Edge 39, Type (0, 1), BuildingBlock: AJUNOK_clean_linker_0, # of connection points: 2
#     Edge 40, Type (0, 1), BuildingBlock: AJUNOK_clean_linker_0, # of connection points: 2
#     Edge 41, Type (0, 1), BuildingBlock: AJUNOK_clean_linker_0, # of connection points: 2
#     Edge 42, Type (0, 1), BuildingBlock: AJUNOK_clean_linker_0, # of connection points: 2
#     Edge 43, Type (0, 1), BuildingBlock: AJUNOK_clean_linker_0, # of connection points: 2
#     Edge 44, Type (0, 1), BuildingBlock: AJUNOK_clean_linker_0, # of connection points: 2
#     Edge 45, Type (0, 1), BuildingBlock: AJUNOK_clean_linker_0, # of connection points: 2
#     Edge 46, Type (0, 1), BuildingBlock: AJUNOK_clean_linker_0, # of connection points: 2
#     Edge 47, Type (0, 1), BuildingBlock: AJUNOK_clean_linker_0, # of connection points: 2
#     Edge 48, Type (0, 1), BuildingBlock: AJUNOK_clean_linker_0, # of connection points: 2
#     Edge 49, Type (0, 1), BuildingBlock: AJUNOK_clean_linker_0, # of connection points: 2
#     Edge 50, Type (0, 1), BuildingBlock: AJUNOK_clean_linker_0, # of connection points: 2
#     Edge 51, Type (0, 1), BuildingBlock: AJUNOK_clean_linker_0, # of connection points: 2
#     Edge 52, Type (0, 1), BuildingBlock: AJUNOK_clean_linker_0, # of connection points: 2
#     Edge 53, Type (0, 1), BuildingBlock: AJUNOK_clean_linker_0, # of connection points: 2
#     Edge 54, Type (0, 1), BuildingBlock: AJUNOK_clean_linker_0, # of connection points: 2
#     Edge 55, Type (0, 1), BuildingBlock: AJUNOK_clean_linker_0, # of connection points: 2
#     Edge 56, Type (0, 1), BuildingBlock: AJUNOK_clean_linker_0, # of connection points: 2
#     Edge 57, Type (0, 1), BuildingBlock: AJUNOK_clean_linker_0, # of connection points: 2
#     Edge 58, Type (0, 1), BuildingBlock: AJUNOK_clean_linker_0, # of connection points: 2
#     Edge 59, Type (0, 1), BuildingBlock: AJUNOK_clean_linker_0, # of connection points: 2
#     Edge 60, Type (0, 1), BuildingBlock: AJUNOK_clean_linker_0, # of connection points: 2
#     Edge 61, Type (0, 1), BuildingBlock: AJUNOK_clean_linker_0, # of connection points: 2
#     Edge 62, Type (0, 1), BuildingBlock: AJUNOK_clean_linker_0, # of connection points: 2
#     Edge 63, Type (0, 1), BuildingBlock: AJUNOK_clean_linker_0, # of connection points: 2
#     Edge 64, Type (0, 1), BuildingBlock: AJUNOK_clean_linker_0, # of connection points: 2
#     Edge 65, Type (0, 1), BuildingBlock: AJUNOK_clean_linker_0, # of connection points: 2
#     Edge 66, Type (0, 1), BuildingBlock: AJUNOK_clean_linker_0, # of connection points: 2
#     Edge 67, Type (0, 1), BuildingBlock: AJUNOK_clean_linker_0, # of connection points: 2
#     Edge 68, Type (0, 1), BuildingBlock: AJUNOK_clean_linker_0, # of connection points: 2
#     Edge 69, Type (0, 1), BuildingBlock: AJUNOK_clean_linker_0, # of connection points: 2
#     Edge 70, Type (0, 1), BuildingBlock: AJUNOK_clean_linker_0, # of connection points: 2
#     Edge 71, Type (0, 1), BuildingBlock: AJUNOK_clean_linker_0, # of connection points: 2
#     Edge 72, Type (0, 1), BuildingBlock: AJUNOK_clean_linker_0, # of connection points: 2
#     Edge 73, Type (0, 1), BuildingBlock: AJUNOK_clean_linker_0, # of connection points: 2
#     Edge 74, Type (0, 1), BuildingBlock: AJUNOK_clean_linker_0, # of connection points: 2
#     Edge 75, Type (0, 1), BuildingBlock: AJUNOK_clean_linker_0, # of connection points: 2
#     Edge 76, Type (0, 1), BuildingBlock: AJUNOK_clean_linker_0, # of connection points: 2
#     Edge 77, Type (0, 1), BuildingBlock: AJUNOK_clean_linker_0, # of connection points: 2
#     Edge 78, Type (0, 1), BuildingBlock: AJUNOK_clean_linker_0, # of connection points: 2
#     Edge 79, Type (0, 1), BuildingBlock: AJUNOK_clean_linker_0, # of connection points: 2
#     Edge 80, Type (0, 1), BuildingBlock: AJUNOK_clean_linker_0, # of connection points: 2
# Relax obj value: 0.008
# Max RMSD: 0.089
# Mean RMSD: 0.072
data_MOF--net-eea--node1-KUMBUR_clean_sbu_0--node2-KAKCAD_clean_linker_0--edge1-AJUNOK_clean_linker_0
_symmetry_space_group_name_H-M    P1
_symmetry_Int_Tables_number       1
_symmetry_cell_setting            triclinic
loop_
_symmetry_equiv_pos_as_xyz
'x, y, z'
_cell_length_a     48.434845
_cell_length_b     49.823655
_cell_length_c     71.499528
_cell_angle_alpha  89.881128
_cell_angle_beta   89.872913
_cell_angle_gamma 120.01873
loop_
_atom_site_label
_atom_site_type_symbol
_atom_site_fract_x
_atom_site_fract_y
_atom_site_fract_z
_atom_type_partial_charge
C0 C 0.28971 0.15169 0.5037 0.0
C1 C 0.31771 0.15023 0.50634 0.0
C2 C 0.27542 0.14624 0.48608 0.0
C3 C 0.28845 0.13859 0.47083 0.0
C4 C 0.31634 0.13703 0.47343 0.0
C5 C 0.33092 0.14298 0.49096 0.0
C6 C 0.27234 0.13116 0.45242 0.0
C7 C 0.26334 0.15122 0.44413 0.0
C8 C 0.24749 0.14396 0.4268 0.0
C9 C 0.23997 0.11577 0.41814 0.0
C10 C 0.24918 0.09574 0.42615 0.0
C11 C 0.26562 0.10371 0.44319 0.0
C12 C 0.24151 0.06638 0.41672 0.0
C13 C 0.21017 0.04565 0.41099 0.0
C14 C 0.26548 0.0589 0.41342 0.0
C15 C 0.25829 0.03129 0.40439 0.0
C16 C 0.22692 0.01051 0.39881 0.0
C17 C 0.2393 0.16592 0.41754 0.0
C18 C 0.22925 0.18335 0.42808 0.0
C19 C 0.24162 0.16969 0.39796 0.0
C20 C 0.23354 0.18986 0.38916 0.0
C21 C 0.22334 0.20699 0.39971 0.0
C22 C 0.22156 0.20385 0.41925 0.0
C23 C 0.20288 0.01779 0.40227 0.0
H24 H 0.27836 0.15632 0.51533 0.0
H25 H 0.25365 0.14713 0.48449 0.0
H26 H 0.32695 0.13135 0.46185 0.0
H27 H 0.35258 0.1419 0.49247 0.0
H28 H 0.26957 0.1729 0.45098 0.0
H29 H 0.27231 0.08803 0.44958 0.0
H30 H 0.2271 0.10939 0.40502 0.0
H31 H 0.19126 0.05082 0.4135 0.0
H32 H 0.28984 0.07459 0.41764 0.0
H33 H 0.27711 0.02596 0.40198 0.0
H34 H 0.2268 0.18082 0.44313 0.0
H35 H 0.25 0.15731 0.3894 0.0
H36 H 0.17852 0.002 0.39809 0.0
H37 H 0.21362 0.21679 0.42765 0.0
H38 H 0.23553 0.19228 0.37407 0.0
C39 C 0.87436 0.1714 0.49081 0.0
C40 C 0.86915 0.15129 0.50596 0.0
C41 C 0.88279 0.1656 0.47317 0.0
C42 C 0.88576 0.13932 0.47019 0.0
C43 C 0.88123 0.11951 0.48534 0.0
C44 C 0.87344 0.12565 0.50308 0.0
C45 C 0.89177 0.13179 0.45107 0.0
C46 C 0.91751 0.15389 0.44035 0.0
C47 C 0.92218 0.1475 0.42178 0.0
C48 C 0.90001 0.11873 0.41399 0.0
C49 C 0.87444 0.09602 0.42463 0.0
C50 C 0.87086 0.10275 0.44328 0.0
C51 C 0.85125 0.06557 0.41614 0.0
C52 C 0.81875 0.05045 0.42112 0.0
C53 C 0.86134 0.0514 0.40287 0.0
C54 C 0.83951 0.02326 0.39461 0.0
C55 C 0.80706 0.00827 0.39957 0.0
C56 C 0.95022 0.17059 0.41055 0.0
C57 C 0.96264 0.20264 0.41291 0.0
C58 C 0.96518 0.16076 0.39751 0.0
C59 C 0.9919 0.18229 0.38734 0.0
C60 C 1.00492 0.21426 0.39023 0.0
C61 C 0.98971 0.22414 0.403 0.0
C62 C 0.79706 0.02202 0.41313 0.0
H63 H 0.87112 0.19126 0.49243 0.0
H64 H 0.88591 0.1811 0.46168 0.0
H65 H 0.88374 0.09927 0.48343 0.0
H66 H 0.87077 0.11027 0.51453 0.0
H67 H 0.93418 0.17581 0.44672 0.0
H68 H 0.85147 0.08559 0.45177 0.0
H69 H 0.90223 0.11428 0.39942 0.0
H70 H 0.80984 0.06065 0.43108 0.0
H71 H 0.88621 0.06188 0.39891 0.0
H72 H 0.84806 0.01332 0.38423 0.0
H73 H 0.95153 0.21128 0.42245 0.0
H74 H 0.95669 0.13636 0.39535 0.0
H75 H 0.77244 0.01073 0.41771 0.0
H76 H 0.99911 0.24858 0.40564 0.0
H77 H 1.00246 0.17382 0.37728 0.0
C78 C 0.9014 0.74188 0.49686 0.0
C79 C 0.87004 0.72066 0.50247 0.0
C80 C 0.90767 0.75562 0.47906 0.0
C81 C 0.88275 0.74822 0.46627 0.0
C82 C 0.8513 0.72721 0.4721 0.0
C83 C 0.84504 0.71383 0.48999 0.0
C84 C 0.88948 0.76163 0.44684 0.0
C85 C 0.91725 0.76717 0.43713 0.0
C86 C 0.92308 0.77839 0.4186 0.0
C87 C 0.90047 0.78375 0.40958 0.0
C88 C 0.8729 0.77909 0.41907 0.0
C89 C 0.86778 0.76825 0.43768 0.0
C90 C 0.8492 0.78533 0.40962 0.0
C91 C 0.83692 0.80208 0.41883 0.0
C92 C 0.83789 0.7738 0.3916 0.0
C93 C 0.81411 0.77802 0.38328 0.0
C94 C 0.80145 0.79423 0.39269 0.0
C95 C 0.953 0.78468 0.40882 0.0
C96 C 0.98268 0.80195 0.4177 0.0
C97 C 0.95219 0.77315 0.39075 0.0
C98 C 0.98037 0.77821 0.38196 0.0
C99 C 0.00998 0.7955 0.39089 0.0
C100 C 0.01084 0.80747 0.40879 0.0
C101 C 0.81351 0.80667 0.4104 0.0
H102 H 0.92111 0.74788 0.50629 0.0
H103 H 0.93212 0.77213 0.47537 0.0
H104 H 0.83142 0.72035 0.46269 0.0
H105 H 0.82065 0.69737 0.49389 0.0
H106 H 0.93407 0.76188 0.44375 0.0
H107 H 0.8466 0.76473 0.44497 0.0
H108 H 0.90484 0.7925 0.39535 0.0
H109 H 0.84536 0.81155 0.43263 0.0
H110 H 0.84678 0.76073 0.38416 0.0
H111 H 0.8054 0.76839 0.36954 0.0
H112 H 0.98411 0.81127 0.43157 0.0
H113 H 0.92968 0.75963 0.38359 0.0
H114 H 0.80415 0.81922 0.41798 0.0
H115 H 0.03329 0.82056 0.41608 0.0
H116 H 0.97907 0.76863 0.36819 0.0
C117 C 0.15525 0.25445 0.53551 0.0
C118 C 0.14723 0.27674 0.5299 0.0
C119 C 0.14757 0.24145 0.55349 0.0
C120 C 0.13182 0.25052 0.56644 0.0
C121 C 0.1229 0.27213 0.56056 0.0
C122 C 0.13039 0.28495 0.5425 0.0
C123 C 0.12606 0.23858 0.58618 0.0
C124 C 0.14908 0.23411 0.59551 0.0
C125 C 0.14489 0.2243 0.61428 0.0
C126 C 0.1173 0.21907 0.62392 0.0
C127 C 0.09359 0.22274 0.61488 0.0
C128 C 0.09818 0.23244 0.59601 0.0
C129 C 0.06408 0.21656 0.62517 0.0
C130 C 0.03388 0.19915 0.61688 0.0
C131 C 0.0659 0.22831 0.6433 0.0
C132 C 0.03832 0.22357 0.65265 0.0
C133 C 1.00825 0.20663 0.64419 0.0
C134 C 0.16942 0.21934 0.62369 0.0
C135 C 0.18098 0.20163 0.61495 0.0
C136 C 0.1818 0.23257 0.64124 0.0
C137 C 0.20569 0.22865 0.64968 0.0
C138 C 0.2171 0.21087 0.64091 0.0
C139 C 0.20439 0.19726 0.62353 0.0
C140 C 1.00627 0.19406 0.62633 0.0
H141 H 0.1677 0.24721 0.52599 0.0
H142 H 0.15418 0.22437 0.55727 0.0
H143 H 0.11108 0.28001 0.5701 0.0
H144 H 0.12399 0.30215 0.53859 0.0
H145 H 0.17092 0.23919 0.58835 0.0
H146 H 0.08006 0.23542 0.58903 0.0
H147 H 0.11384 0.21123 0.63834 0.0
H148 H 0.0316 0.18946 0.60304 0.0
H149 H 0.08878 0.24189 0.65006 0.0
H150 H 0.0405 0.23344 0.66642 0.0
H151 H 0.17177 0.19102 0.60148 0.0
H152 H 0.17348 0.24647 0.64824 0.0
H153 H 0.98341 0.18106 0.61945 0.0
H154 H 0.21299 0.18366 0.61643 0.0
H155 H 0.21521 0.23942 0.66307 0.0
C156 C 0.69828 0.83283 0.5425 0.0
C157 C 0.70598 0.85714 0.52981 0.0
C158 C 0.7132 0.83878 0.55994 0.0
C159 C 0.73634 0.86915 0.56494 0.0
C160 C 0.74472 0.89325 0.55191 0.0
C161 C 0.72964 0.88731 0.53456 0.0
C162 C 0.75104 0.87594 0.58385 0.0
C163 C 0.75945 0.8557 0.59249 0.0
C164 C 0.77294 0.86188 0.61049 0.0
C165 C 0.77869 0.8892 0.61961 0.0
C166 C 0.77084 0.90996 0.61109 0.0
C167 C 0.75653 0.90278 0.59337 0.0
C168 C 0.77795 0.93938 0.62049 0.0
C169 C 0.77475 0.94059 0.64001 0.0
C170 C 0.78841 0.96673 0.60994 0.0
C171 C 0.79536 0.99445 0.61865 0.0
C172 C 0.79249 0.9955 0.63808 0.0
C173 C 0.78102 0.83981 0.61972 0.0
C174 C 0.76137 0.80762 0.6173 0.0
C175 C 0.80834 0.85063 0.63101 0.0
C176 C 0.81581 0.82981 0.63958 0.0
C177 C 0.79645 0.79785 0.63676 0.0
C178 C 0.76916 0.7869 0.62562 0.0
C179 C 0.7822 0.9685 0.64873 0.0
H180 H 0.68007 0.80936 0.53911 0.0
H181 H 0.70597 0.81973 0.56968 0.0
H182 H 0.76296 0.91678 0.55511 0.0
H183 H 0.73643 0.90633 0.52483 0.0
H184 H 0.7561 0.83543 0.58499 0.0
H185 H 0.74907 0.91791 0.58706 0.0
H186 H 0.78938 0.89437 0.63336 0.0
H187 H 0.76629 0.91997 0.64856 0.0
H188 H 0.7918 0.96691 0.59496 0.0
H189 H 0.80359 0.01524 0.61027 0.0
H190 H 0.73979 0.79833 0.60907 0.0
H191 H 0.82436 0.87521 0.63297 0.0
H192 H 0.77986 0.96902 0.66378 0.0
H193 H 0.75378 0.76224 0.62342 0.0
H194 H 0.83712 0.83869 0.64804 0.0
C195 C 0.12251 0.84254 0.53756 0.0
C196 C 0.15426 0.85596 0.53128 0.0
C197 C 0.1154 0.84983 0.55515 0.0
C198 C 0.13988 0.86983 0.56736 0.0
C199 C 0.17168 0.88267 0.56117 0.0
C200 C 0.17869 0.87624 0.54334 0.0
C201 C 0.13245 0.87716 0.58642 0.0
C202 C 0.10469 0.85575 0.59622 0.0
C203 C 0.09776 0.86263 0.6141 0.0
C204 C 0.11904 0.89103 0.62243 0.0
C205 C 0.14684 0.91244 0.61301 0.0
C206 C 0.15326 0.90565 0.59507 0.0
C207 C 0.16937 0.94204 0.62197 0.0
C208 C 0.16065 0.96454 0.62516 0.0
C209 C 0.19967 0.94784 0.62741 0.0
C210 C 0.22073 0.97553 0.63639 0.0
C211 C 0.21198 0.99808 0.63985 0.0
C212 C 0.06829 0.84006 0.62411 0.0
C213 C 0.03862 0.82702 0.61512 0.0
C214 C 0.06963 0.83125 0.64264 0.0
C215 C 0.04187 0.80924 0.65183 0.0
C216 C 0.01227 0.79623 0.64279 0.0
C217 C 0.01083 0.80546 0.62442 0.0
C218 C 0.18193 0.9925 0.63376 0.0
H219 H 0.10299 0.82593 0.52905 0.0
H220 H 0.09056 0.8397 0.55906 0.0
H221 H 0.19147 0.89748 0.57012 0.0
H222 H 0.20345 0.88715 0.53906 0.0
H223 H 0.08869 0.83326 0.59027 0.0
H224 H 0.17433 0.92308 0.58783 0.0
H225 H 0.11399 0.89653 0.63623 0.0
H226 H 0.13749 0.96058 0.6208 0.0
H227 H 0.20677 0.93067 0.625 0.0
H228 H 0.24365 0.97909 0.6409 0.0
H229 H 0.03693 0.83356 0.60089 0.0
H230 H 0.09225 0.84086 0.64984 0.0
H231 H 0.17487 0.00981 0.63554 0.0
H232 H 0.98829 0.79539 0.61709 0.0
H233 H 0.04349 0.80224 0.66596 0.0
C234 C 0.95331 0.49259 0.83333 0.0
C235 C 0.97227 0.4802 0.8391 0.0
C236 C 0.94102 0.48735 0.81516 0.0
C237 C 0.94807 0.47014 0.80234 0.0
C238 C 0.96731 0.45796 0.80831 0.0
C239 C 0.97901 0.4627 0.82654 0.0
C240 C 0.93629 0.46543 0.78268 0.0
C241 C 0.93368 0.48868 0.77307 0.0
C242 C 0.92432 0.48483 0.75426 0.0
C243 C 0.91876 0.45798 0.74474 0.0
C244 C 0.92041 0.43396 0.75414 0.0
C245 C 0.92839 0.43777 0.77326 0.0
C246 C 0.91357 0.40486 0.7442 0.0
C247 C 0.89222 0.39354 0.72905 0.0
C248 C 0.92803 0.38776 0.74999 0.0
C249 C 0.92054 0.35981 0.74142 0.0
C250 C 0.89956 0.34875 0.72615 0.0
C251 C 0.91875 0.50817 0.74479 0.0
C252 C 0.8995 0.51828 0.75343 0.0
C253 C 0.93111 0.5193 0.72682 0.0
C254 C 0.92413 0.54002 0.71763 0.0
C255 C 0.90433 0.54953 0.72618 0.0
C256 C 0.89218 0.53859 0.74416 0.0
C257 C 0.88572 0.36617 0.71998 0.0
H258 H 0.94788 0.50616 0.8429 0.0
H259 H 0.92592 0.4967 0.81123 0.0
H260 H 0.97398 0.44526 0.79881 0.0
H261 H 0.99398 0.4533 0.83071 0.0
H262 H 0.93948 0.51015 0.78004 0.0
H263 H 0.92807 0.41896 0.78102 0.0
H264 H 0.91264 0.45577 0.73006 0.0
H265 H 0.87993 0.40537 0.72428 0.0
H266 H 0.94517 0.39574 0.76126 0.0
H267 H 0.93083 0.34665 0.7471 0.0
H268 H 0.88939 0.50979 0.76718 0.0
H269 H 0.94606 0.51189 0.71989 0.0
H270 H 0.86956 0.35854 0.70821 0.0
H271 H 0.87688 0.54568 0.75099 0.0
H272 H 0.93357 0.54807 0.70371 0.0
C273 C 0.55194 0.50986 0.82531 0.0
C274 C 0.53648 0.48482 0.8378 0.0
C275 C 0.55938 0.50522 0.80709 0.0
C276 C 0.55176 0.47543 0.80098 0.0
C277 C 0.53726 0.45061 0.8138 0.0
C278 C 0.52946 0.45521 0.83192 0.0
C279 C 0.55735 0.47 0.7811 0.0
C280 C 0.58425 0.49226 0.77106 0.0
C281 C 0.58864 0.48798 0.75199 0.0
C282 C 0.56559 0.46072 0.7431 0.0
C283 C 0.5394 0.43774 0.75306 0.0
C284 C 0.53528 0.44264 0.77192 0.0
C285 C 0.51666 0.40817 0.74387 0.0
C286 C 0.50225 0.40807 0.7268 0.0
C287 C 0.50957 0.37978 0.7521 0.0
C288 C 0.48858 0.35179 0.74339 0.0
C289 C 0.47391 0.35173 0.7265 0.0
C290 C 0.61749 0.51151 0.74146 0.0
C291 C 0.63183 0.54332 0.74561 0.0
C292 C 0.63118 0.50237 0.72719 0.0
C293 C 0.65838 0.52423 0.71754 0.0
C294 C 0.67334 0.5558 0.72222 0.0
C295 C 0.65948 0.5651 0.73624 0.0
C296 C 0.48076 0.38001 0.71827 0.0
H297 H 0.55721 0.53286 0.82942 0.0
H298 H 0.57008 0.52484 0.79762 0.0
H299 H 0.53164 0.42746 0.80983 0.0
H300 H 0.51771 0.43555 0.84132 0.0
H301 H 0.60214 0.51261 0.77829 0.0
H302 H 0.51427 0.42527 0.77925 0.0
H303 H 0.56807 0.45698 0.72843 0.0
H304 H 0.50727 0.42966 0.72023 0.0
H305 H 0.52058 0.37927 0.76517 0.0
H306 H 0.48345 0.33016 0.74996 0.0
H307 H 0.62177 0.55155 0.75614 0.0
H308 H 0.62133 0.47819 0.72362 0.0
H309 H 0.46956 0.38034 0.70524 0.0
H310 H 0.67036 0.58922 0.74025 0.0
H311 H 0.66781 0.51629 0.70647 0.0
C312 C 0.56519 0.07386 0.83177 0.0
C313 C 0.53383 0.05465 0.83814 0.0
C314 C 0.57111 0.08641 0.81364 0.0
C315 C 0.54579 0.07948 0.80124 0.0
C316 C 0.51437 0.06009 0.80778 0.0
C317 C 0.5085 0.04808 0.82601 0.0
C318 C 0.55191 0.09168 0.7815 0.0
C319 C 0.57905 0.09617 0.77154 0.0
C320 C 0.58436 0.10656 0.75285 0.0
C321 C 0.56156 0.11166 0.7438 0.0
C322 C 0.53431 0.10775 0.75344 0.0
C323 C 0.53026 0.09836 0.77238 0.0
C324 C 0.50999 0.11343 0.74397 0.0
C325 C 0.51878 0.13652 0.73011 0.0
C326 C 0.47752 0.0959 0.74896 0.0
C327 C 0.45487 0.10197 0.74095 0.0
C328 C 0.46369 0.12537 0.72737 0.0
C329 C 0.61415 0.11256 0.74299 0.0
C330 C 0.64387 0.12996 0.7518 0.0
C331 C 0.61328 0.10089 0.72495 0.0
C332 C 0.64148 0.10613 0.71608 0.0
C333 C 0.67114 0.12371 0.72491 0.0
C334 C 0.67199 0.13559 0.74284 0.0
C335 C 0.49591 0.14219 0.72181 0.0
H336 H 0.58516 0.0793 0.84088 0.0
H337 H 0.59561 0.10163 0.80942 0.0
H338 H 0.49414 0.05346 0.79869 0.0
H339 H 0.4841 0.03289 0.83047 0.0
H340 H 0.59589 0.09088 0.77813 0.0
H341 H 0.51035 0.09676 0.78021 0.0
H342 H 0.5653 0.11889 0.72929 0.0
H343 H 0.54343 0.15071 0.72586 0.0
H344 H 0.46937 0.07732 0.75912 0.0
H345 H 0.43037 0.0885 0.74567 0.0
H346 H 0.64538 0.13943 0.76564 0.0
H347 H 0.59073 0.08724 0.71785 0.0
H348 H 0.50356 0.15978 0.71101 0.0
H349 H 0.69448 0.1489 0.75007 0.0
H350 H 0.64018 0.09662 0.70228 0.0
C351 C 0.81221 0.57984 0.86717 0.0
C352 C 0.80674 0.60396 0.86182 0.0
C353 C 0.80778 0.56951 0.8858 0.0
C354 C 0.79732 0.58278 0.89947 0.0
C355 C 0.79165 0.60675 0.89403 0.0
C356 C 0.79631 0.6172 0.87547 0.0
C357 C 0.79251 0.572 0.91938 0.0
C358 C 0.8148 0.56618 0.92837 0.0
C359 C 0.8114 0.55785 0.94741 0.0
C360 C 0.78518 0.55529 0.95752 0.0
C361 C 0.76192 0.56009 0.94875 0.0
C362 C 0.76593 0.5683 0.92961 0.0
C363 C 0.73341 0.55645 0.95939 0.0
C364 C 0.7195 0.53463 0.97403 0.0
C365 C 0.71941 0.57449 0.95479 0.0
C366 C 0.69185 0.57006 0.96394 0.0
C367 C 0.67762 0.54788 0.9783 0.0
C368 C 0.83554 0.5522 0.95674 0.0
C369 C 0.84568 0.5331 0.94829 0.0
C370 C 0.84908 0.56625 0.97394 0.0
C371 C 0.87271 0.56185 0.98228 0.0
C372 C 0.88283 0.54282 0.97378 0.0
C373 C 0.86891 0.52831 0.95678 0.0
C374 C 0.69227 0.53069 0.98348 0.0
H375 H 0.82009 0.56908 0.85694 0.0
H376 H 0.81211 0.55083 0.88945 0.0
H377 H 0.78387 0.61771 0.90417 0.0
H378 H 0.79128 0.6354 0.87174 0.0
H379 H 0.83551 0.56918 0.92071 0.0
H380 H 0.74801 0.5713 0.92242 0.0
H381 H 0.783 0.54946 0.97225 0.0
H382 H 0.72919 0.52006 0.97804 0.0
H383 H 0.72964 0.59217 0.94404 0.0
H384 H 0.68136 0.58375 0.95947 0.0
H385 H 0.83558 0.52182 0.93511 0.0
H386 H 0.84194 0.58126 0.98072 0.0
H387 H 0.6827 0.51406 0.99484 0.0
H388 H 0.87655 0.51382 0.94983 0.0
H389 H 0.88317 0.57336 0.99536 0.0
C390 C 0.37722 0.16931 0.8737 0.0
C391 C 0.38432 0.19462 0.86195 0.0
C392 C 0.39222 0.17403 0.89109 0.0
C393 C 0.41461 0.20414 0.89693 0.0
C394 C 0.42291 0.22914 0.88464 0.0
C395 C 0.40792 0.22442 0.86735 0.0
C396 C 0.42787 0.2101 0.91617 0.0
C397 C 0.43893 0.19161 0.92432 0.0
C398 C 0.45136 0.19744 0.94265 0.0
C399 C 0.45402 0.22344 0.9522 0.0
C400 C 0.44387 0.2428 0.94406 0.0
C401 C 0.42952 0.23485 0.92636 0.0
C402 C 0.44932 0.27194 0.95353 0.0
C403 C 0.45248 0.27547 0.97311 0.0
C404 C 0.45251 0.29718 0.94286 0.0
C405 C 0.45845 0.32468 0.95138 0.0
C406 C 0.46354 0.32881 0.97074 0.0
C407 C 0.46119 0.17639 0.95188 0.0
C408 C 0.44709 0.14496 0.94674 0.0
C409 C 0.4839 0.18706 0.96639 0.0
C410 C 0.49115 0.16683 0.97589 0.0
C411 C 0.47747 0.13564 0.9705 0.0
C412 C 0.45558 0.12514 0.95564 0.0
C413 C 0.46008 0.30367 0.98154 0.0
H414 H 0.35916 0.14608 0.86976 0.0
H415 H 0.38533 0.15434 0.90027 0.0
H416 H 0.44062 0.25252 0.88855 0.0
H417 H 0.41435 0.24421 0.85833 0.0
H418 H 0.43831 0.17308 0.91612 0.0
H419 H 0.41929 0.24782 0.92032 0.0
H420 H 0.4641 0.2287 0.96603 0.0
H421 H 0.44924 0.25665 0.98212 0.0
H422 H 0.45102 0.29628 0.92777 0.0
H423 H 0.45915 0.34273 0.94261 0.0
H424 H 0.42897 0.13518 0.93605 0.0
H425 H 0.49628 0.21106 0.97066 0.0
H426 H 0.46357 0.30578 0.99653 0.0
H427 H 0.44468 0.10139 0.95087 0.0
H428 H 0.50716 0.1758 0.98768 0.0
C429 C 0.78633 0.17647 0.8713 0.0
C430 C 0.81797 0.19177 0.86465 0.0
C431 C 0.77894 0.18293 0.88909 0.0
C432 C 0.8031 0.20415 0.90104 0.0
C433 C 0.83476 0.21923 0.89435 0.0
C434 C 0.84197 0.21348 0.8764 0.0
C435 C 0.79575 0.20999 0.92054 0.0
C436 C 0.77001 0.18668 0.93082 0.0
C437 C 0.76418 0.19168 0.94941 0.0
C438 C 0.78506 0.21998 0.95807 0.0
C439 C 0.81076 0.24382 0.9481 0.0
C440 C 0.8152 0.23878 0.92923 0.0
C441 C 0.83333 0.27383 0.95732 0.0
C442 C 0.82267 0.28701 0.97095 0.0
C443 C 0.86599 0.28958 0.95257 0.0
C444 C 0.88721 0.31779 0.96097 0.0
C445 C 0.87648 0.33065 0.9746 0.0
C446 C 0.73592 0.16737 0.95967 0.0
C447 C 0.70562 0.15371 0.95139 0.0
C448 C 0.73885 0.15783 0.97774 0.0
C449 C 0.71204 0.13465 0.98717 0.0
C450 C 0.6818 0.12106 0.97881 0.0
C451 C 0.67882 0.13098 0.96092 0.0
C452 C 0.84408 0.31501 0.97959 0.0
H453 H 0.76721 0.15889 0.86299 0.0
H454 H 0.75419 0.17105 0.89341 0.0
H455 H 0.85437 0.23512 0.90308 0.0
H456 H 0.8666 0.22591 0.8718 0.0
H457 H 0.75479 0.16417 0.92465 0.0
H458 H 0.83383 0.25762 0.92123 0.0
H459 H 0.78109 0.22336 0.97258 0.0
H460 H 0.79772 0.27598 0.97479 0.0
H461 H 0.87538 0.27997 0.9425 0.0
H462 H 0.91217 0.32936 0.95702 0.0
H463 H 0.70263 0.16082 0.93757 0.0
H464 H 0.76194 0.16794 0.98443 0.0
H465 H 0.83527 0.3247 0.98998 0.0
H466 H 0.65576 0.12074 0.95417 0.0
H467 H 0.71485 0.12739 1.00098 0.0
C468 C 0.63176 0.83073 0.16863 0.0
C469 C 0.64903 0.81628 0.17416 0.0
C470 C 0.61429 0.82234 0.15201 0.0
C471 C 0.61422 0.79978 0.14014 0.0
C472 C 0.63169 0.78546 0.14568 0.0
C473 C 0.64825 0.79312 0.1626 0.0
C474 C 0.59602 0.79113 0.12215 0.0
C475 C 0.5916 0.81299 0.11204 0.0
C476 C 0.57395 0.8049 0.09532 0.0
C477 C 0.56232 0.77489 0.08813 0.0
C478 C 0.56745 0.75299 0.09756 0.0
C479 C 0.58323 0.76102 0.11486 0.0
C480 C 0.55769 0.72227 0.08896 0.0
C481 C 0.52973 0.70667 0.07818 0.0
C482 C 0.57734 0.70901 0.0907 0.0
C483 C 0.56952 0.68126 0.08171 0.0
C484 C 0.54219 0.66643 0.07059 0.0
C485 C 0.56733 0.82762 0.08553 0.0
C486 C 0.5624 0.84894 0.09582 0.0
C487 C 0.56502 0.82776 0.06589 0.0
C488 C 0.55702 0.84789 0.0569 0.0
C489 C 0.55167 0.86883 0.06725 0.0
C490 C 0.55517 0.86954 0.08679 0.0
C491 C 0.52222 0.67913 0.06895 0.0
H492 H 0.63175 0.84868 0.17715 0.0
H493 H 0.60064 0.83349 0.14863 0.0
H494 H 0.63288 0.76835 0.13696 0.0
H495 H 0.66019 0.78057 0.16664 0.0
H496 H 0.60244 0.83662 0.11697 0.0
H497 H 0.58531 0.74351 0.12269 0.0
H498 H 0.54941 0.76857 0.07507 0.0
H499 H 0.5137 0.71579 0.07677 0.0
H500 H 0.59935 0.72053 0.09855 0.0
H501 H 0.58529 0.67181 0.083 0.0
H502 H 0.56361 0.8495 0.11094 0.0
H503 H 0.56942 0.81237 0.05736 0.0
H504 H 0.50094 0.66782 0.06042 0.0
H505 H 0.55242 0.88611 0.09519 0.0
H506 H 0.5547 0.84681 0.04182 0.0
C507 C 0.22107 0.84186 0.16002 0.0
C508 C 0.20411 0.81699 0.17244 0.0
C509 C 0.22966 0.83678 0.14222 0.0
C510 C 0.22172 0.80672 0.13652 0.0
C511 C 0.20595 0.78211 0.14935 0.0
C512 C 0.19716 0.78718 0.16707 0.0
C513 C 0.22836 0.80072 0.11703 0.0
C514 C 0.25664 0.82175 0.10768 0.0
C515 C 0.26225 0.81684 0.08895 0.0
C516 C 0.2394 0.78958 0.07993 0.0
C517 C 0.21118 0.76787 0.08915 0.0
C518 C 0.20576 0.77408 0.10754 0.0
C519 C 0.18722 0.73866 0.07971 0.0
C520 C 0.18128 0.73807 0.06038 0.0
C521 C 0.17006 0.71094 0.09004 0.0
C522 C 0.14757 0.68355 0.08135 0.0
C523 C 0.14217 0.68307 0.06208 0.0
C524 C 0.29149 0.84054 0.07875 0.0
C525 C 0.30463 0.8723 0.08263 0.0
C526 C 0.30634 0.8319 0.0649 0.0
C527 C 0.33314 0.85438 0.0551 0.0
C528 C 0.34608 0.88608 0.05902 0.0
C529 C 0.33173 0.89461 0.07315 0.0
C530 C 0.15918 0.71047 0.05165 0.0
H531 H 0.22667 0.86508 0.16384 0.0
H532 H 0.24153 0.85625 0.1327 0.0
H533 H 0.2001 0.75879 0.14565 0.0
H534 H 0.18464 0.7677 0.17653 0.0
H535 H 0.27449 0.84183 0.11515 0.0
H536 H 0.18337 0.75845 0.11438 0.0
H537 H 0.24346 0.78528 0.06564 0.0
H538 H 0.19347 0.75893 0.05198 0.0
H539 H 0.17434 0.71016 0.10483 0.0
H540 H 0.13495 0.66252 0.08959 0.0
H541 H 0.29388 0.88018 0.09293 0.0
H542 H 0.29753 0.80775 0.06169 0.0
H543 H 0.15526 0.71052 0.03674 0.0
H544 H 0.34163 0.91864 0.07712 0.0
H545 H 0.34369 0.84691 0.04441 0.0
C546 C 0.2366 0.41457 0.16517 0.0
C547 C 0.20535 0.39413 0.1713 0.0
C548 C 0.24232 0.4276 0.14717 0.0
C549 C 0.21694 0.42 0.1347 0.0
C550 C 0.18566 0.39941 0.14099 0.0
C551 C 0.17996 0.38686 0.15906 0.0
C552 C 0.22284 0.4326 0.11508 0.0
C553 C 0.25019 0.4379 0.10503 0.0
C554 C 0.25484 0.44798 0.08628 0.0
C555 C 0.23135 0.45211 0.07737 0.0
C556 C 0.20398 0.44751 0.08713 0.0
C557 C 0.20048 0.4384 0.10608 0.0
C558 C 0.17887 0.45192 0.07765 0.0
C559 C 0.18679 0.47434 0.06347 0.0
C560 C 0.14654 0.4337 0.08281 0.0
C561 C 0.12316 0.43849 0.07461 0.0
C562 C 0.13113 0.46121 0.06068 0.0
C563 C 0.28416 0.45378 0.07598 0.0
C564 C 0.31436 0.47118 0.08427 0.0
C565 C 0.2822 0.44164 0.05797 0.0
C566 C 0.30972 0.446 0.04871 0.0
C567 C 0.33979 0.46293 0.05718 0.0
C568 C 0.34188 0.4759 0.07491 0.0
C569 C 0.16321 0.47864 0.05495 0.0
H570 H 0.25661 0.42054 0.17434 0.0
H571 H 0.26669 0.44368 0.14308 0.0
H572 H 0.16544 0.39223 0.13181 0.0
H573 H 0.15568 0.37067 0.1633 0.0
H574 H 0.26753 0.43322 0.11153 0.0
H575 H 0.18036 0.43615 0.114 0.0
H576 H 0.23455 0.45895 0.06278 0.0
H577 H 0.21129 0.48904 0.05908 0.0
H578 H 0.13908 0.41557 0.09323 0.0
H579 H 0.09877 0.42459 0.07945 0.0
H580 H 0.31668 0.48111 0.09804 0.0
H581 H 0.2593 0.42804 0.05124 0.0
H582 H 0.17021 0.4957 0.04388 0.0
H583 H 0.36475 0.48891 0.08178 0.0
H584 H 0.3075 0.43584 0.03503 0.0
C585 C 0.49742 0.92363 0.20413 0.0
C586 C 0.48757 0.94441 0.19806 0.0
C587 C 0.48929 0.91016 0.222 0.0
C588 C 0.47164 0.91757 0.23457 0.0
C589 C 0.46162 0.93822 0.2284 0.0
C590 C 0.46926 0.95122 0.21042 0.0
C591 C 0.46481 0.90495 0.25422 0.0
C592 C 0.48682 0.89944 0.26391 0.0
C593 C 0.48149 0.88915 0.28261 0.0
C594 C 0.45395 0.88495 0.2919 0.0
C595 C 0.43131 0.89 0.28259 0.0
C596 C 0.43681 0.89941 0.26365 0.0
C597 C 0.40237 0.88629 0.29268 0.0
C598 C 0.38665 0.86323 0.30649 0.0
C599 C 0.39025 0.9061 0.28861 0.0
C600 C 0.36327 0.90285 0.29786 0.0
C601 C 0.34785 0.88016 0.31183 0.0
C602 C 0.50521 0.88344 0.29246 0.0
C603 C 0.51749 0.86631 0.28373 0.0
C604 C 0.51634 0.89562 0.31039 0.0
C605 C 0.53992 0.89156 0.31911 0.0
C606 C 0.55253 0.8749 0.3102 0.0
C607 C 0.5407 0.8619 0.29257 0.0
C608 C 0.35978 0.86024 0.31594 0.0
H609 H 0.51224 0.91834 0.19529 0.0
H610 H 0.49714 0.89408 0.22596 0.0
H611 H 0.44852 0.94513 0.2376 0.0
H612 H 0.4611 0.967 0.20628 0.0
H613 H 0.50886 0.90417 0.25716 0.0
H614 H 0.419 0.90216 0.25615 0.0
H615 H 0.45033 0.87789 0.30646 0.0
H616 H 0.39482 0.84717 0.30987 0.0
H617 H 0.40172 0.92443 0.27832 0.0
H618 H 0.35425 0.91799 0.29383 0.0
H619 H 0.50917 0.85638 0.27002 0.0
H620 H 0.50746 0.90902 0.31744 0.0
H621 H 0.3484 0.84237 0.32652 0.0
H622 H 0.55008 0.84903 0.28537 0.0
H623 H 0.54851 0.90165 0.33277 0.0
C624 C 0.03758 0.50524 0.20841 0.0
C625 C 0.04622 0.52958 0.19559 0.0
C626 C 0.05339 0.51068 0.22556 0.0
C627 C 0.07831 0.54052 0.23011 0.0
C628 C 0.08762 0.5645 0.21687 0.0
C629 C 0.07168 0.55911 0.19985 0.0
C630 C 0.09413 0.54714 0.24871 0.0
C631 C 0.10119 0.52596 0.2574 0.0
C632 C 0.11707 0.53298 0.27468 0.0
C633 C 0.12609 0.56153 0.28324 0.0
C634 C 0.11846 0.58267 0.27504 0.0
C635 C 0.10226 0.57505 0.25787 0.0
C636 C 0.1268 0.61248 0.28441 0.0
C637 C 0.12515 0.61412 0.30402 0.0
C638 C 0.1358 0.63947 0.27376 0.0
C639 C 0.14232 0.66711 0.28242 0.0
C640 C 0.1406 0.6685 0.30191 0.0
C641 C 0.12369 0.51021 0.28397 0.0
C642 C 0.09888 0.47977 0.28708 0.0
C643 C 0.15459 0.51878 0.29001 0.0
C644 C 0.1607 0.49702 0.29861 0.0
C645 C 0.13592 0.46637 0.30153 0.0
C646 C 0.10483 0.45821 0.29599 0.0
C647 C 0.13223 0.64197 0.31268 0.0
H648 H 0.01801 0.48224 0.20538 0.0
H649 H 0.04548 0.49173 0.23546 0.0
H650 H 0.10724 0.58757 0.21968 0.0
H651 H 0.07921 0.5781 0.19001 0.0
H652 H 0.09504 0.50428 0.25057 0.0
H653 H 0.09523 0.59062 0.25175 0.0
H654 H 0.13875 0.56702 0.29642 0.0
H655 H 0.11782 0.5938 0.31268 0.0
H656 H 0.13803 0.63936 0.25869 0.0
H657 H 0.14909 0.68754 0.27393 0.0
H658 H 0.07474 0.47279 0.28287 0.0
H659 H 0.17412 0.54217 0.28777 0.0
H660 H 0.13078 0.64272 0.32778 0.0
H661 H 0.08499 0.43515 0.29861 0.0
H662 H 0.1849 0.50404 0.30269 0.0
C663 C 0.44539 0.50815 0.20293 0.0
C664 C 0.47708 0.51896 0.19745 0.0
C665 C 0.43848 0.51513 0.22072 0.0
C666 C 0.46314 0.53261 0.23351 0.0
C667 C 0.49482 0.5427 0.22798 0.0
C668 C 0.50168 0.53621 0.21013 0.0
C669 C 0.45617 0.54069 0.25242 0.0
C670 C 0.42841 0.52 0.26245 0.0
C671 C 0.42244 0.52749 0.28046 0.0
C672 C 0.44442 0.55611 0.28838 0.0
C673 C 0.47214 0.5769 0.27861 0.0
C674 C 0.47775 0.5692 0.26071 0.0
C675 C 0.49583 0.60656 0.28719 0.0
C676 C 0.48733 0.62856 0.29248 0.0
C677 C 0.52729 0.61314 0.28985 0.0
C678 C 0.54995 0.64128 0.29773 0.0
C679 C 0.54184 0.66383 0.30261 0.0
C680 C 0.39381 0.50498 0.29125 0.0
C681 C 0.36353 0.49024 0.28289 0.0
C682 C 0.39668 0.49764 0.30989 0.0
C683 C 0.36999 0.47535 0.31978 0.0
C684 C 0.33986 0.46034 0.3113 0.0
C685 C 0.33677 0.46831 0.29288 0.0
C686 C 0.51018 0.65704 0.29996 0.0
H687 H 0.42603 0.49473 0.19334 0.0
H688 H 0.41385 0.50724 0.22429 0.0
H689 H 0.51447 0.5554 0.2375 0.0
H690 H 0.52628 0.54431 0.20629 0.0
H691 H 0.41192 0.49756 0.2566 0.0
H692 H 0.49891 0.58586 0.25318 0.0
H693 H 0.44015 0.56211 0.30223 0.0
H694 H 0.46318 0.62396 0.29047 0.0
H695 H 0.53422 0.59629 0.28606 0.0
H696 H 0.5737 0.64513 0.30019 0.0
H697 H 0.36058 0.49562 0.26861 0.0
H698 H 0.41975 0.50852 0.31666 0.0
H699 H 0.5031 0.67387 0.30348 0.0
H700 H 0.31378 0.45686 0.28602 0.0
H701 H 0.37292 0.46954 0.33397 0.0
Tb702 Tb 0.50122 0.9806 0.99652 0.0
C703 C 0.57262 0.09473 0.04639 0.0
C704 C 0.62731 0.10627 0.04512 0.0
C705 C 0.61565 0.14808 0.0489 0.0
C706 C 0.59434 0.08487 0.04435 0.0
C707 C 0.58286 0.12635 0.04906 0.0
C708 C 0.63787 0.13804 0.04693 0.0
C709 C 0.52769 0.11219 0.05321 0.0
N710 N 0.5413 0.07296 0.04655 0.0
C711 C 0.51879 0.08107 0.0506 0.0
C712 C 0.55985 0.135 0.05222 0.0
Tb713 Tb 0.52864 0.0229 0.0404 0.0
N714 N 0.58302 0.054 0.04275 0.0
C715 C 0.60364 0.04277 0.04351 0.0
C716 C 0.64855 0.09499 0.04463 0.0
C717 C 0.63661 0.06305 0.0442 0.0
H718 H 0.49384 0.06366 0.05115 0.0
H719 H 0.65279 0.05399 0.04424 0.0
H720 H 0.66311 0.1549 0.04733 0.0
H721 H 0.50973 0.11856 0.05593 0.0
H722 H 0.59509 0.01824 0.04303 0.0
H723 H 0.37573 0.94429 0.9932 0.0
H724 H 0.67408 0.11062 0.04513 0.0
H725 H 0.53907 0.9428 0.98488 0.0
H726 H 0.43308 0.98187 0.99463 0.0
H727 H 0.52558 0.88889 0.97908 0.0
H728 H 0.62406 0.17256 0.05074 0.0
H729 H 0.35686 0.88815 0.99138 0.0
H730 H 0.37039 0.8457 0.98817 0.0
H731 H 0.56671 0.15908 0.05428 0.0
H732 H 0.4113 0.83058 0.98409 0.0
N733 N 0.44717 0.94761 0.99426 0.0
C734 C 0.42548 0.95756 0.9938 0.0
C735 C 0.3822 0.9046 0.99203 0.0
C736 C 0.40454 0.89468 0.99121 0.0
C737 C 0.39276 0.93625 0.99299 0.0
C738 C 0.43721 0.91708 0.9922 0.0
H739 H 0.46932 0.84662 0.98036 0.0
N740 N 0.49099 0.93135 0.98997 0.0
C741 C 0.50687 0.89409 0.9822 0.0
C742 C 0.45999 0.90861 0.9899 0.0
C743 C 0.51442 0.9247 0.98546 0.0
C744 C 0.47511 0.87029 0.98298 0.0
C745 C 0.45112 0.87745 0.98657 0.0
O746 O 0.52713 0.99083 0.97128 0.0
O747 O 0.53922 0.01806 1.01182 0.0
O748 O 0.52608 0.05398 0.01971 0.0
O749 O 0.48901 0.01771 0.99902 0.0
O750 O 0.55194 0.99499 0.99361 0.0
O751 O 0.48441 0.99362 0.97293 0.0
O752 O 0.50625 0.01879 0.06648 0.0
O753 O 0.49047 0.98575 0.0251 0.0
O754 O 0.50393 0.94916 0.01681 0.0
O755 O 0.53958 0.98502 0.0384 0.0
O756 O 0.47807 0.00883 0.04353 0.0
O757 O 0.54081 0.00407 0.0631 0.0
C758 C 0.56313 0.01763 1.00521 0.0
C759 C 0.49817 0.98217 0.94336 0.0
C760 C 0.50122 0.9881 0.90928 0.0
C761 C 0.50794 1.00128 0.9273 0.0
C762 C 0.48445 0.95567 0.90756 0.0
C763 C 0.48109 0.94987 0.94128 0.0
C764 C 0.47428 0.93675 0.92346 0.0
C765 C 0.50494 0.0461 1.00609 0.0
C766 C 0.50724 0.99618 0.9621 0.0
C767 C 0.41865 0.85472 0.98644 0.0
C768 C 0.39537 0.86332 0.98878 0.0
C769 C 0.46672 0.98619 0.03193 0.0
C770 C 0.53555 0.01992 0.09327 0.0
C771 C 0.5215 0.00194 0.10947 0.0
C772 C 0.53528 0.01269 0.12726 0.0
C773 C 0.56309 0.04198 0.12842 0.0
C774 C 0.56309 0.04903 0.09488 0.0
C775 C 0.5767 0.05997 0.11239 0.0
C776 C 0.5241 0.95695 0.03093 0.0
C777 C 0.52203 0.00735 0.07476 0.0
H778 H 0.52128 0.02627 0.92882 0.0
H779 H 0.47896 0.94499 0.89387 0.0
H780 H 0.47331 0.93481 0.95339 0.0
H781 H 0.46122 0.91179 0.92196 0.0
H782 H 0.49982 0.97974 0.10815 0.0
H783 H 0.57462 0.0509 0.14174 0.0
H784 H 0.57422 0.06312 0.08261 0.0
H785 H 0.5981 0.0824 0.11353 0.0
Tb786 Tb 0.03241 0.5129 0.99689 0.0
C787 C 0.9118 0.46996 0.04347 0.0
C788 C 0.89811 0.5094 0.03695 0.0
C789 C 0.85624 0.45676 0.04386 0.0
C790 C 0.92097 0.49991 0.03864 0.0
C791 C 0.87947 0.44824 0.04692 0.0
C792 C 0.86556 0.48737 0.03884 0.0
C793 C 0.89622 0.41339 0.059 0.0
N794 N 0.93508 0.46307 0.04664 0.0
C795 C 0.92796 0.43588 0.05535 0.0
C796 C 0.87177 0.4193 0.05432 0.0
Tb797 Tb 0.98637 0.50029 0.03936 0.0
N798 N 0.95265 0.52037 0.03734 0.0
C799 C 0.96309 0.55146 0.03623 0.0
C800 C 0.90872 0.54089 0.03437 0.0
C801 C 0.94137 0.56209 0.03449 0.0
H802 H 0.94674 0.43114 0.05899 0.0
H803 H 0.94989 0.58664 0.03305 0.0
H804 H 0.84758 0.49407 0.03728 0.0
H805 H 0.89066 0.39156 0.06543 0.0
H806 H 0.98815 0.56834 0.03601 0.0
H807 H 0.07483 0.43117 1.00188 0.0
H808 H 0.89196 0.54918 0.03297 0.0
H809 H 0.06783 0.58395 0.97927 0.0
H810 H 0.0344 0.44711 1.00066 0.0
H811 H 0.12181 0.62382 0.96943 0.0
H812 H 0.83119 0.44029 0.04613 0.0
H813 H 0.13204 0.47032 0.99897 0.0
H814 H 0.1738 0.52546 0.9919 0.0
H815 H 0.84723 0.40194 0.05726 0.0
H816 H 0.18654 0.5779 0.98221 0.0
N817 N 0.06816 0.49536 0.99801 0.0
C818 C 0.05918 0.46465 0.99942 0.0
C819 C 0.11436 0.47756 0.99855 0.0
C820 C 0.12324 0.50856 0.99542 0.0
C821 C 0.0821 0.4554 1.00011 0.0
C822 C 0.09925 0.51673 0.99512 0.0
H823 H 0.167 0.61425 0.97281 0.0
N824 N 0.08219 0.55216 0.98867 0.0
C825 C 0.11788 0.60214 0.97529 0.0
C826 C 0.10651 0.54617 0.98997 0.0
C827 C 0.08728 0.57944 0.98094 0.0
C828 C 0.14333 0.59667 0.97724 0.0
C829 C 0.13781 0.56832 0.98456 0.0
O830 O 0.02222 0.52371 0.97024 0.0
O831 O 0.99078 0.51038 1.00982 0.0
O832 O 0.95753 0.45964 0.0219 0.0
O833 O 0.99549 0.46366 0.99988 0.0
O834 O 0.01507 0.54506 0.99091 0.0
O835 O 0.02294 0.4814 0.97494 0.0
O836 O 0.99371 0.48781 0.0663 0.0
O837 O 0.02742 0.50185 0.02635 0.0
O838 O 0.06276 0.55165 0.0152 0.0
O839 O 0.02425 0.54934 0.03591 0.0
O840 O 1.00307 0.46776 0.0457 0.0
O841 O 0.99829 0.53236 0.06122 0.0
C842 C 0.99026 0.53248 1.00147 0.0
C843 C 0.03684 0.50381 0.94477 0.0
C844 C 0.03567 0.50416 0.91073 0.0
C845 C 0.01986 0.49835 0.92803 0.0
C846 C 0.0687 0.51567 0.91032 0.0
C847 C 0.06971 0.51463 0.94415 0.0
C848 C 0.08556 0.52067 0.92699 0.0
C849 C 0.96711 0.44839 1.00812 0.0
C850 C 0.01992 0.49902 0.96262 0.0
C851 C 0.16222 0.56101 0.98597 0.0
C852 C 0.15497 0.53118 0.99152 0.0
C853 C 0.02746 0.47953 0.03478 0.0
C854 C 0.98047 0.51019 0.0911 0.0
C855 C 0.99541 0.5132 0.10838 0.0
C856 C 0.97926 0.51097 0.12517 0.0
C857 C 0.9477 0.50503 0.12451 0.0
C858 C 0.949 0.5044 0.09066 0.0
C859 C 0.93268 0.5017 0.10731 0.0
C860 C 0.05344 0.56382 0.02857 0.0
C861 C 0.99823 0.51341 0.07378 0.0
H862 H 0.99443 0.48994 0.92844 0.0
H863 H 0.08131 0.5203 0.89711 0.0
H864 H 0.0831 0.51845 0.95685 0.0
H865 H 0.11096 0.5292 0.9266 0.0
H866 H 0.01983 0.51792 0.10875 0.0
H867 H 0.93468 0.50291 0.13728 0.0
H868 H 0.93713 0.50217 0.0775 0.0
H869 H 0.90838 0.49718 0.10689 0.0
Tb870 Tb 0.5187 0.49131 0.0396 0.0
C871 C 0.45117 0.54079 0.98992 0.0
C872 C 0.39615 0.50027 0.99235 0.0
C873 C 0.40902 0.55352 0.98721 0.0
C874 C 0.42899 0.51019 0.99278 0.0
C875 C 0.44156 0.56274 0.98637 0.0
C876 C 0.3863 0.52227 0.99025 0.0
C877 C 0.49631 0.59977 0.97877 0.0
N878 N 0.48214 0.54842 0.98886 0.0
C879 C 0.50455 0.57705 0.98244 0.0
C880 C 0.46478 0.59279 0.98115 0.0
Tb881 Tb 0.49418 0.51056 0.99591 0.0
N882 N 0.43967 0.4898 0.99424 0.0
C883 C 0.41834 0.45863 0.99349 0.0
C884 C 0.37429 0.46849 0.99311 0.0
C885 C 0.38548 0.44757 0.99323 0.0
H886 H 0.529 0.58266 0.98062 0.0
H887 H 0.36881 0.42288 0.99326 0.0
H888 H 0.36119 0.51518 0.99015 0.0
H889 H 0.5143 0.62263 0.97411 0.0
H890 H 0.42616 0.44185 0.99375 0.0
H891 H 0.64493 0.57495 0.04228 0.0
H892 H 0.34885 0.45987 0.99288 0.0
H893 H 0.47988 0.4173 0.05241 0.0
H894 H 0.58781 0.55806 0.04138 0.0
H895 H 0.49216 0.37544 0.05784 0.0
H896 H 0.40113 0.5701 0.98479 0.0
H897 H 0.66252 0.53612 0.04329 0.0
H898 H 0.6477 0.48007 0.04596 0.0
H899 H 0.45842 0.61036 0.97822 0.0
H900 H 0.60594 0.42549 0.05029 0.0
N901 N 0.57261 0.5098 0.04136 0.0
C902 C 0.59487 0.5407 0.04194 0.0
C903 C 0.63729 0.52851 0.04293 0.0
C904 C 0.61439 0.497 0.04371 0.0
C905 C 0.62744 0.55047 0.04242 0.0
C906 C 0.5819 0.48838 0.04311 0.0
H907 H 0.54777 0.38625 0.0551 0.0
N908 N 0.52789 0.45126 0.04591 0.0
C909 C 0.51108 0.3985 0.05423 0.0
C910 C 0.55864 0.45791 0.04546 0.0
C911 C 0.50423 0.42231 0.05119 0.0
C912 C 0.54248 0.40468 0.05262 0.0
C913 C 0.56685 0.43485 0.04856 0.0
O914 O 0.49201 0.47576 0.06453 0.0
O915 O 0.48243 0.49553 0.02457 0.0
O916 O 0.50107 0.54695 0.01566 0.0
O917 O 0.53174 0.5405 0.03873 0.0
O918 O 0.46759 0.4583 0.04193 0.0
O919 O 0.53676 0.51843 0.0639 0.0
O920 O 0.51901 0.52781 0.97043 0.0
O921 O 0.53095 0.50704 1.01097 0.0
O922 O 0.51135 0.45493 0.02008 0.0
O923 O 0.48124 0.46146 0.99677 0.0
O924 O 0.54523 0.54424 0.99369 0.0
O925 O 0.47943 0.48136 0.97245 0.0
C926 C 0.45777 0.47218 0.03094 0.0
C927 C 0.52074 0.49119 0.09266 0.0
C928 C 0.51516 0.48985 0.12666 0.0
C929 C 0.50959 0.49854 0.10894 0.0
C930 C 0.53198 0.47372 0.12788 0.0
C931 C 0.53795 0.47554 0.09418 0.0
C932 C 0.54346 0.46681 0.11173 0.0
C933 C 0.51946 0.55623 0.03073 0.0
C934 C 0.513 0.49895 0.07428 0.0
C935 C 0.5991 0.44291 0.04816 0.0
C936 C 0.62287 0.47398 0.04571 0.0
C937 C 0.55548 0.53058 1.00456 0.0
C938 C 0.48873 0.50605 0.94312 0.0
C939 C 0.50186 0.50171 0.92661 0.0
C940 C 0.49002 0.50374 0.90901 0.0
C941 C 0.46501 0.51032 0.90817 0.0
C942 C 0.4639 0.51275 0.94197 0.0
C943 C 0.4522 0.51495 0.92455 0.0
C944 C 0.49274 0.44548 1.00522 0.0
C945 C 0.50046 0.50249 0.96138 0.0
H946 H 0.49617 0.51054 0.10781 0.0
H947 H 0.5366 0.46684 0.14137 0.0
H948 H 0.54694 0.4699 0.08187 0.0
H949 H 0.55663 0.45459 0.11281 0.0
H950 H 0.52077 0.49611 0.92748 0.0
H951 H 0.45551 0.51205 0.8948 0.0
H952 H 0.45337 0.51597 0.95449 0.0
H953 H 0.43298 0.52006 0.92375 0.0
Tb954 Tb 0.16481 0.31242 0.32824 0.0
C955 C 0.22369 0.42598 0.37958 0.0
C956 C 0.27983 0.44251 0.37932 0.0
C957 C 0.26283 0.48043 0.38382 0.0
C958 C 0.24765 0.41904 0.3777 0.0
C959 C 0.23083 0.4566 0.38314 0.0
C960 C 0.28733 0.47339 0.38188 0.0
C961 C 0.17437 0.43723 0.38678 0.0
N962 N 0.19323 0.40222 0.37903 0.0
C963 C 0.16857 0.40724 0.3832 0.0
C964 C 0.20562 0.4621 0.38649 0.0
Tb965 Tb 0.18573 0.35403 0.37227 0.0
N966 N 0.23924 0.38888 0.3756 0.0
C967 C 0.26203 0.38036 0.37663 0.0
C968 C 0.30335 0.43407 0.37905 0.0
C969 C 0.29434 0.40277 0.37805 0.0
H970 H 0.14429 0.38829 0.38332 0.0
H971 H 0.31227 0.39587 0.37827 0.0
H972 H 0.31192 0.49182 0.38297 0.0
H973 H 0.15472 0.44113 0.38968 0.0
H974 H 0.25576 0.3564 0.37571 0.0
H975 H 0.03737 0.2654 0.32349 0.0
H976 H 0.32837 0.45137 0.38019 0.0
H977 H 0.20943 0.28203 0.31572 0.0
H978 H 0.09332 0.30662 0.32634 0.0
H979 H 0.20149 0.23106 0.30666 0.0
H980 H 0.26886 0.50419 0.38635 0.0
H981 H 0.02396 0.21085 0.31975 0.0
H982 H 0.0431 0.17287 0.31466 0.0
H983 H 0.21007 0.4853 0.38931 0.0
H984 H 0.08795 0.16365 0.30938 0.0
N985 N 0.11186 0.27582 0.32532 0.0
C986 C 0.08805 0.28299 0.32486 0.0
C987 C 0.04866 0.22887 0.32118 0.0
C988 C 0.07327 0.22198 0.32007 0.0
C989 C 0.05614 0.25962 0.32321 0.0
C990 C 0.10499 0.24632 0.32211 0.0
H991 H 0.14709 0.18548 0.30565 0.0
N992 N 0.16001 0.26562 0.32047 0.0
C993 C 0.18115 0.23351 0.31029 0.0
C994 C 0.13 0.24108 0.31933 0.0
C995 C 0.18554 0.26243 0.31551 0.0
C996 C 0.15042 0.20783 0.30974 0.0
C997 C 0.12432 0.21145 0.31416 0.0
O998 O 0.19329 0.32788 0.30387 0.0
O999 O 0.19948 0.35155 0.34407 0.0
O1000 O 0.18124 0.38404 0.35142 0.0
O1001 O 0.14865 0.34669 0.32977 0.0
O1002 O 0.21637 0.33059 0.32694 0.0
O1003 O 0.14589 0.32076 0.30385 0.0
O1004 O 0.1598 0.34547 0.39748 0.0
O1005 O 0.15045 0.31487 0.35658 0.0
O1006 O 0.1708 0.28245 0.34817 0.0
O1007 O 0.20104 0.31899 0.37098 0.0
O1008 O 0.13454 0.3371 0.3735 0.0
O1009 O 0.2002 0.33879 0.39579 0.0
C1010 C 0.22492 0.35332 0.33829 0.0
C1011 C 0.16667 0.31571 0.2749 0.0
C1012 C 0.17352 0.32389 0.24104 0.0
C1013 C 0.17633 0.33571 0.25927 0.0
C1014 C 0.16086 0.29185 0.23869 0.0
C1015 C 0.15366 0.28378 0.27217 0.0
C1016 C 0.15083 0.27197 0.25415 0.0
C1017 C 0.16196 0.37516 0.33672 0.0
C1018 C 0.17133 0.32867 0.2939 0.0
C1019 C 0.09282 0.1867 0.31306 0.0
C1020 C 0.0673 0.19194 0.3161 0.0
C1021 C 0.12536 0.31399 0.36241 0.0
C1022 C 0.18866 0.35175 0.42537 0.0
C1023 C 0.17737 0.33275 0.44146 0.0
C1024 C 0.18852 0.34531 0.45936 0.0
C1025 C 0.21054 0.37715 0.46095 0.0
C1026 C 0.21062 0.38344 0.42734 0.0
C1027 C 0.22137 0.39604 0.44505 0.0
C1028 C 0.18931 0.29118 0.36319 0.0
C1029 C 0.17824 0.33808 0.40664 0.0
H1030 H 0.1865 0.36044 0.26131 0.0
H1031 H 0.15835 0.28214 0.22483 0.0
H1032 H 0.14585 0.268 0.28391 0.0
H1033 H 0.14088 0.2473 0.25216 0.0
H1034 H 0.16055 0.30818 0.44002 0.0
H1035 H 0.21929 0.38743 0.47455 0.0
H1036 H 0.21962 0.39837 0.4152 0.0
H1037 H 0.23834 0.42053 0.44646 0.0
Tb1038 Tb 0.70269 0.84549 0.33202 0.0
C1039 C 0.5759 0.78822 0.3758 0.0
C1040 C 0.558 0.82536 0.37255 0.0
C1041 C 0.5192 0.7707 0.37665 0.0
C1042 C 0.58272 0.81821 0.37303 0.0
C1043 C 0.54414 0.76412 0.37814 0.0
C1044 C 0.52614 0.80132 0.37382 0.0
C1045 C 0.56435 0.72961 0.38492 0.0
N1046 N 0.60073 0.78305 0.37734 0.0
C1047 C 0.59545 0.75434 0.38245 0.0
C1048 C 0.53853 0.73441 0.38251 0.0
Tb1049 Tb 0.65091 0.82475 0.37274 0.0
N1050 N 0.61381 0.84066 0.37232 0.0
C1051 C 0.62178 0.87114 0.37285 0.0
C1052 C 0.56613 0.8565 0.37161 0.0
C1053 C 0.59819 0.87951 0.37214 0.0
H1054 H 0.61509 0.75016 0.38422 0.0
H1055 H 0.60481 0.90373 0.37193 0.0
H1056 H 0.50677 0.80628 0.37327 0.0
H1057 H 0.56032 0.70685 0.38861 0.0
H1058 H 0.64634 0.88922 0.37321 0.0
H1059 H 0.7443 0.76294 0.33052 0.0
H1060 H 0.5479 0.86302 0.37113 0.0
H1061 H 0.74146 0.92159 0.32465 0.0
H1062 H 0.70408 0.77925 0.33006 0.0
H1063 H 0.7973 0.96417 0.32313 0.0
H1064 H 0.49459 0.75247 0.3782 0.0
H1065 H 0.80162 0.80215 0.33234 0.0
H1066 H 0.84425 0.85844 0.33258 0.0
H1067 H 0.51448 0.71525 0.38446 0.0
H1068 H 0.85874 0.91333 0.33054 0.0
N1069 N 0.73802 0.82752 0.33187 0.0
C1070 C 0.72894 0.79678 0.33068 0.0
C1071 C 0.78404 0.80953 0.33205 0.0
C1072 C 0.79329 0.84099 0.33222 0.0
C1073 C 0.75172 0.78734 0.33096 0.0
C1074 C 0.76942 0.8493 0.33194 0.0
H1075 H 0.84137 0.953 0.32679 0.0
N1076 N 0.75368 0.88664 0.32972 0.0
C1077 C 0.79208 0.9406 0.3254 0.0
C1078 C 0.77756 0.87999 0.33082 0.0
C1079 C 0.76044 0.91638 0.3262 0.0
C1080 C 0.81689 0.93421 0.32751 0.0
C1081 C 0.80981 0.90353 0.32994 0.0
O1082 O 0.69745 0.86317 0.30644 0.0
O1083 O 0.65983 0.84105 0.34425 0.0
O1084 O 0.62366 0.79106 0.35103 0.0
O1085 O 0.66499 0.79589 0.33175 0.0
O1086 O 0.68568 0.87843 0.32741 0.0
O1087 O 0.69788 0.82019 0.30746 0.0
O1088 O 0.6555 0.80929 0.39936 0.0
O1089 O 0.69285 0.82804 0.36011 0.0
O1090 O 0.72944 0.87727 0.35459 0.0
O1091 O 0.68723 0.87477 0.37174 0.0
O1092 O 0.66861 0.79242 0.37808 0.0
O1093 O 0.66122 0.85473 0.39556 0.0
C1094 C 0.65996 0.86429 0.33717 0.0
C1095 C 0.71587 0.8499 0.27958 0.0
C1096 C 0.71749 0.85101 0.24539 0.0
C1097 C 0.70048 0.83971 0.2623 0.0
C1098 C 0.75039 0.87258 0.2462 0.0
C1099 C 0.74879 0.87065 0.28005 0.0
C1100 C 0.76593 0.88186 0.2634 0.0
C1101 C 0.63467 0.7809 0.33738 0.0
C1102 C 0.69655 0.84068 0.29676 0.0
C1103 C 0.83379 0.89557 0.33102 0.0
C1104 C 0.82554 0.86433 0.33218 0.0
C1105 C 0.69331 0.80532 0.36747 0.0
C1106 C 0.64154 0.83032 0.42468 0.0
C1107 C 0.65674 0.83546 0.44205 0.0
C1108 C 0.64003 0.83281 0.45867 0.0
C1109 C 0.60772 0.82443 0.45775 0.0
C1110 C 0.60929 0.82199 0.42397 0.0
C1111 C 0.59246 0.81897 0.44047 0.0
C1112 C 0.71781 0.8889 0.36684 0.0
C1113 C 0.66002 0.83446 0.40755 0.0
H1114 H 0.67507 0.82337 0.26209 0.0
H1115 H 0.7641 0.88292 0.2336 0.0
H1116 H 0.7611 0.87877 0.29318 0.0
H1117 H 0.79124 0.89839 0.26384 0.0
H1118 H 0.68175 0.84213 0.44261 0.0
H1119 H 0.59429 0.82196 0.47041 0.0
H1120 H 0.5972 0.81801 0.41075 0.0
H1121 H 0.56756 0.81252 0.43985 0.0
Tb1122 Tb 0.19119 0.82704 0.3727 0.0
C1123 C 0.1273 0.88194 0.32479 0.0
C1124 C 0.07155 0.84318 0.32692 0.0
C1125 C 0.08715 0.89748 0.32324 0.0
C1126 C 0.104 0.85158 0.32711 0.0
C1127 C 0.11929 0.90527 0.32226 0.0
C1128 C 0.06326 0.86642 0.32557 0.0
C1129 C 0.17488 0.9412 0.31584 0.0
N1130 N 0.15784 0.88819 0.32364 0.0
C1131 C 0.18145 0.91707 0.31826 0.0
C1132 C 0.14371 0.93539 0.31816 0.0
Tb1133 Tb 0.16714 0.84809 0.32962 0.0
N1134 N 0.11319 0.83003 0.32815 0.0
C1135 C 0.09079 0.79922 0.32718 0.0
C1136 C 0.04854 0.8117 0.32734 0.0
C1137 C 0.05823 0.78962 0.32705 0.0
H1138 H 0.20559 0.92176 0.31643 0.0
H1139 H 0.04065 0.76518 0.32688 0.0
H1140 H 0.03848 0.86051 0.32567 0.0
H1141 H 0.19384 0.96421 0.31217 0.0
H1142 H 0.09766 0.78174 0.32718 0.0
H1143 H 0.31773 0.90828 0.37807 0.0
H1144 H 0.02333 0.80422 0.32726 0.0
H1145 H 0.14947 0.75118 0.38074 0.0
H1146 H 0.26114 0.89282 0.37565 0.0
H1147 H 0.16021 0.70845 0.38636 0.0
H1148 H 0.08045 0.91509 0.32158 0.0
H1149 H 0.33379 0.86839 0.37988 0.0
H1150 H 0.31741 0.81199 0.38239 0.0
H1151 H 0.13861 0.95403 0.31614 0.0
H1152 H 0.27448 0.75758 0.38511 0.0
N1153 N 0.24471 0.8443 0.37535 0.0
C1154 C 0.2675 0.87498 0.3764 0.0
C1155 C 0.30877 0.86138 0.37875 0.0
C1156 C 0.28526 0.83005 0.37892 0.0
C1157 C 0.29979 0.88394 0.37779 0.0
C1158 C 0.25306 0.82221 0.37729 0.0
H1159 H 0.21577 0.71882 0.38701 0.0
N1160 N 0.19849 0.78553 0.37765 0.0
C1161 C 0.17981 0.73177 0.38414 0.0
C1162 C 0.2291 0.79175 0.37868 0.0
C1163 C 0.17383 0.7561 0.38095 0.0
C1164 C 0.2112 0.73771 0.3845 0.0
C1165 C 0.23636 0.76805 0.38194 0.0
O1166 O 0.16394 0.81005 0.39727 0.0
O1167 O 0.155 0.83252 0.35824 0.0
O1168 O 0.17647 0.88479 0.34953 0.0
O1169 O 0.2057 0.87663 0.3728 0.0
O1170 O 0.13984 0.79411 0.37452 0.0
O1171 O 0.20932 0.85229 0.39771 0.0
O1172 O 0.19126 0.86463 0.30391 0.0
O1173 O 0.20359 0.84441 0.34458 0.0
O1174 O 0.1889 0.79512 0.35117 0.0
O1175 O 0.15313 0.79841 0.33093 0.0
O1176 O 0.21848 0.88062 0.32662 0.0
O1177 O 0.15079 0.81874 0.30623 0.0
C1178 C 0.13015 0.809 0.36432 0.0
C1179 C 0.19177 0.82257 0.4257 0.0
C1180 C 0.18685 0.82108 0.45982 0.0
C1181 C 0.18478 0.83305 0.4423 0.0
C1182 C 0.19719 0.79922 0.46034 0.0
C1183 C 0.20242 0.80113 0.42665 0.0
C1184 C 0.20525 0.78966 0.4439 0.0
C1185 C 0.19503 0.89348 0.36448 0.0
C1186 C 0.18508 0.83224 0.40761 0.0
C1187 C 0.26838 0.77549 0.38284 0.0
C1188 C 0.29281 0.80646 0.38127 0.0
C1189 C 0.22836 0.86744 0.3381 0.0
C1190 C 0.15981 0.84355 0.27696 0.0
C1191 C 0.17132 0.83779 0.26026 0.0
C1192 C 0.15913 0.8402 0.24289 0.0
C1193 C 0.13576 0.84904 0.24241 0.0
C1194 C 0.13646 0.8523 0.27622 0.0
C1195 C 0.12461 0.85513 0.25899 0.0
C1196 C 0.16853 0.78434 0.33711 0.0
C1197 C 0.17182 0.83949 0.29499 0.0
H1198 H 0.17758 0.85039 0.44144 0.0
H1199 H 0.19868 0.78912 0.47346 0.0
H1200 H 0.20803 0.79282 0.41412 0.0
H1201 H 0.21316 0.77284 0.4445 0.0
H1202 H 0.18922 0.83081 0.2608 0.0
H1203 H 0.12624 0.85134 0.22919 0.0
H1204 H 0.12726 0.85673 0.2889 0.0
H1205 H 0.10659 0.86191 0.2585 0.0
Tb1206 Tb 0.83398 0.64856 0.6604 0.0
C1207 C 0.89565 0.76219 0.70898 0.0
C1208 C 0.95163 0.77907 0.70529 0.0
C1209 C 0.9348 0.81719 0.70918 0.0
C1210 C 0.91944 0.75516 0.7059 0.0
C1211 C 0.90315 0.79316 0.71149 0.0
C1212 C 0.95904 0.81014 0.70604 0.0
C1213 C 0.84867 0.77398 0.72129 0.0
N1214 N 0.86548 0.73833 0.71136 0.0
C1215 C 0.84243 0.74364 0.71858 0.0
C1216 C 0.87895 0.7989 0.71723 0.0
Tb1217 Tb 0.85727 0.6901 0.70413 0.0
N1218 N 0.91128 0.72481 0.70559 0.0
C1219 C 0.93455 0.71712 0.70781 0.0
C1220 C 0.9754 0.77099 0.7051 0.0
C1221 C 0.96682 0.73992 0.70706 0.0
H1222 H 0.81887 0.7246 0.72162 0.0
H1223 H 0.98504 0.73347 0.70812 0.0
H1224 H 0.98357 0.82882 0.7052 0.0
H1225 H 0.83008 0.77812 0.72639 0.0
H1226 H 0.92886 0.6937 0.71027 0.0
H1227 H 0.70686 0.60433 0.65714 0.0
H1228 H 1.00041 0.7886 0.70461 0.0
H1229 H 0.876 0.61474 0.64946 0.0
H1230 H 0.76348 0.64485 0.65782 0.0
H1231 H 0.8662 0.56153 0.64511 0.0
H1232 H 0.94098 0.8412 0.71069 0.0
H1233 H 0.69173 0.54897 0.65706 0.0
H1234 H 0.70907 0.50904 0.65536 0.0
H1235 H 0.88373 0.82237 0.71937 0.0
H1236 H 0.75258 0.49733 0.65191 0.0
N1237 N 0.78061 0.61291 0.65871 0.0
C1238 C 0.75738 0.62084 0.6577 0.0
C1239 C 0.71669 0.56668 0.65735 0.0
C1240 C 0.74062 0.55877 0.65699 0.0
C1241 C 0.72515 0.5979 0.65733 0.0
C1242 C 0.7727 0.58276 0.65747 0.0
H1243 H 0.81135 0.51684 0.64773 0.0
N1244 N 0.82728 0.60029 0.65503 0.0
C1245 C 0.84651 0.56531 0.64814 0.0
C1246 C 0.79697 0.57619 0.65553 0.0
C1247 C 0.85196 0.59545 0.65053 0.0
C1248 C 0.81553 0.54014 0.64968 0.0
C1249 C 0.79018 0.54543 0.65308 0.0
O1250 O 0.85997 0.6583 0.63521 0.0
O1251 O 0.8696 0.6889 0.67525 0.0
O1252 O 0.84416 0.71741 0.68575 0.0
O1253 O 0.81989 0.6842 0.66031 0.0
O1254 O 0.88555 0.66779 0.65732 0.0
O1255 O 0.8146 0.65622 0.63596 0.0
O1256 O 0.83958 0.65353 0.72386 0.0
O1257 O 0.82019 0.65179 0.68883 0.0
O1258 O 0.84171 0.62068 0.68103 0.0
O1259 O 0.87801 0.65971 0.70061 0.0
O1260 O 0.80701 0.67685 0.70537 0.0
O1261 O 0.86468 0.70037 0.73301 0.0
C1262 C 0.89461 0.69098 0.66837 0.0
C1263 C 0.83127 0.64606 0.60691 0.0
C1264 C 0.83608 0.65157 0.57285 0.0
C1265 C 0.84096 0.66492 0.59075 0.0
C1266 C 0.82091 0.61915 0.57131 0.0
C1267 C 0.81597 0.61376 0.60505 0.0
C1268 C 0.81078 0.60043 0.58731 0.0
C1269 C 0.82857 0.71022 0.66962 0.0
C1270 C 0.83857 0.66062 0.62551 0.0
C1271 C 0.75834 0.52119 0.65356 0.0
C1272 C 0.73356 0.52785 0.65553 0.0
C1273 C 0.79615 0.65299 0.69468 0.0
C1274 C 0.82536 0.66353 0.7536 0.0
C1275 C 0.83031 0.65333 0.77107 0.0
C1276 C 0.8074 0.64458 0.78547 0.0
C1277 C 0.77962 0.64604 0.78227 0.0
C1278 C 0.79754 0.66519 0.75089 0.0
C1279 C 0.77482 0.65636 0.7651 0.0
C1280 C 0.86489 0.63136 0.6935 0.0
C1281 C 0.84889 0.6716 0.73828 0.0
H1282 H 0.85293 0.68992 0.59212 0.0
H1283 H 0.81675 0.60833 0.55769 0.0
H1284 H 0.80828 0.59891 0.61727 0.0
H1285 H 0.79904 0.57548 0.58596 0.0
H1286 H 0.85175 0.6521 0.77343 0.0
H1287 H 0.76178 0.63945 0.79317 0.0
H1288 H 0.79316 0.67328 0.73788 0.0
H1289 H 0.7534 0.65761 0.76281 0.0
Tb1290 Tb 0.36642 0.17996 0.66521 0.0
C1291 C 0.24523 0.13009 0.71561 0.0
C1292 C 0.22444 0.16415 0.70888 0.0
C1293 C 0.18888 0.11207 0.72044 0.0
C1294 C 0.24999 0.15816 0.70935 0.0
C1295 C 0.21483 0.10701 0.72186 0.0
C1296 C 0.19365 0.14059 0.71385 0.0
C1297 C 0.23846 0.07658 0.7315 0.0
N1298 N 0.27096 0.12625 0.71678 0.0
C1299 C 0.26806 0.10008 0.725 0.0
C1300 C 0.21167 0.07996 0.72983 0.0
Tb1301 Tb 0.31916 0.16698 0.70717 0.0
N1302 N 0.28027 0.18055 0.70539 0.0
C1303 C 0.28692 0.21036 0.70264 0.0
C1304 C 0.2309 0.19407 0.70441 0.0
C1305 C 0.26241 0.21744 0.70167 0.0
H1306 H 0.28836 0.09695 0.72659 0.0
H1307 H 0.26788 0.24093 0.69878 0.0
H1308 H 0.17366 0.14462 0.71339 0.0
H1309 H 0.23636 0.05587 0.73782 0.0
H1310 H 0.31101 0.2287 0.70039 0.0
H1311 H 0.40746 0.09693 0.66778 0.0
H1312 H 0.21197 0.19963 0.7038 0.0
H1313 H 0.40483 0.25354 0.65155 0.0
H1314 H 0.3675 0.11339 0.66614 0.0
H1315 H 0.46061 0.2955 0.6475 0.0
H1316 H 0.16524 0.09444 0.72489 0.0
H1317 H 0.46491 0.13602 0.66854 0.0
H1318 H 0.50777 0.19212 0.66628 0.0
H1319 H 0.18878 0.06174 0.7349 0.0
H1320 H 0.52235 0.24644 0.66058 0.0
N1321 N 0.40164 0.16177 0.66624 0.0
C1322 C 0.39237 0.13092 0.66628 0.0
C1323 C 0.44743 0.14348 0.66772 0.0
C1324 C 0.45685 0.17491 0.66638 0.0
C1325 C 0.41504 0.12137 0.66723 0.0
C1326 C 0.43308 0.18331 0.66539 0.0
H1327 H 0.50486 0.28517 0.65313 0.0
N1328 N 0.41734 0.21992 0.65986 0.0
C1329 C 0.45551 0.27257 0.65168 0.0
C1330 C 0.44125 0.21356 0.66205 0.0
C1331 C 0.42392 0.24869 0.65389 0.0
C1332 C 0.48042 0.26668 0.65494 0.0
C1333 C 0.47344 0.23671 0.65984 0.0
O1334 O 0.36324 0.19433 0.63795 0.0
O1335 O 0.32421 0.17718 0.67747 0.0
O1336 O 0.29011 0.12733 0.68918 0.0
O1337 O 0.32943 0.13053 0.66864 0.0
O1338 O 0.3483 0.21114 0.65808 0.0
O1339 O 0.35391 0.14795 0.64332 0.0
O1340 O 0.33185 0.16016 0.73419 0.0
O1341 O 0.36073 0.16894 0.69448 0.0
O1342 O 0.3945 0.21719 0.68497 0.0
O1343 O 0.35367 0.21666 0.70239 0.0
O1344 O 0.33763 0.13603 0.7144 0.0
O1345 O 0.32808 0.2004 0.72777 0.0
C1346 C 0.32338 0.19869 0.66854 0.0
C1347 C 0.37462 0.16941 0.61363 0.0
C1348 C 0.37656 0.16686 0.57963 0.0
C1349 C 0.36056 0.16677 0.59608 0.0
C1350 C 0.40687 0.16976 0.58092 0.0
C1351 C 0.40504 0.17261 0.61467 0.0
C1352 C 0.42107 0.17281 0.59837 0.0
C1353 C 0.3001 0.11558 0.67587 0.0
C1354 C 0.35675 0.16794 0.6306 0.0
C1355 C 0.49742 0.22894 0.662 0.0
C1356 C 0.48913 0.19803 0.66526 0.0
C1357 C 0.3615 0.14726 0.70318 0.0
C1358 C 0.31529 0.1804 0.75856 0.0
C1359 C 0.33096 0.18269 0.77547 0.0
C1360 C 0.31523 0.17888 0.79265 0.0
C1361 C 0.28334 0.17203 0.79271 0.0
C1362 C 0.28356 0.17389 0.75888 0.0
C1363 C 0.26764 0.16955 0.77589 0.0
C1364 C 0.38365 0.23067 0.69642 0.0
C1365 C 0.33247 0.18469 0.74084 0.0
H1366 H 0.33692 0.164 0.59524 0.0
H1367 H 0.41961 0.16985 0.56843 0.0
H1368 H 0.41627 0.17466 0.62802 0.0
H1369 H 0.44449 0.17517 0.59926 0.0
H1370 H 0.35559 0.188 0.77527 0.0
H1371 H 0.27058 0.16858 0.80577 0.0
H1372 H 0.27112 0.17229 0.74605 0.0
H1373 H 0.24312 0.16439 0.77604 0.0
Tb1374 Tb 0.85483 0.15943 0.70633 0.0
C1375 C 0.79192 0.21575 0.65885 0.0
C1376 C 0.73552 0.1789 0.661 0.0
C1377 C 0.75374 0.23381 0.65737 0.0
C1378 C 0.7675 0.18577 0.66111 0.0
C1379 C 0.78543 0.24015 0.6565 0.0
C1380 C 0.72879 0.20319 0.65962 0.0
C1381 C 0.84165 0.27447 0.65086 0.0
N1382 N 0.82205 0.22072 0.65794 0.0
C1383 C 0.84679 0.24941 0.65315 0.0
C1384 C 0.81089 0.26992 0.6528 0.0
Tb1385 Tb 0.82847 0.17874 0.66345 0.0
N1386 N 0.77513 0.1631 0.6623 0.0
C1387 C 0.75159 0.13267 0.66173 0.0
C1388 C 0.71135 0.14784 0.66167 0.0
C1389 C 0.71944 0.12461 0.66166 0.0
H1390 H 0.8707 0.25329 0.65177 0.0
H1391 H 0.70095 0.10047 0.66176 0.0
H1392 H 0.70439 0.19846 0.65975 0.0
H1393 H 0.86143 0.29727 0.64761 0.0
H1394 H 0.75731 0.11436 0.66194 0.0
H1395 H 0.98319 0.23182 0.7072 0.0
H1396 H 0.68646 0.14155 0.66167 0.0
H1397 H 0.80831 0.08436 0.71738 0.0
H1398 H 0.92776 0.22079 0.70644 0.0
H1399 H 0.81464 0.03937 0.72356 0.0
H1400 H 0.74823 0.25226 0.65581 0.0
H1401 H 0.99445 0.18868 0.70968 0.0
H1402 H 0.97336 0.13154 0.71397 0.0
H1403 H 0.80695 0.28933 0.65094 0.0
H1404 H 0.92743 0.07917 0.71888 0.0
N1405 N 0.90734 0.17194 0.70765 0.0
C1406 C 0.93215 0.20177 0.70749 0.0
C1407 C 0.96999 0.18374 0.70927 0.0
C1408 C 0.94454 0.15335 0.71074 0.0
C1409 C 0.96373 0.20812 0.70794 0.0
C1410 C 0.91316 0.14822 0.70999 0.0
H1411 H 0.8682 0.04469 0.72281 0.0
N1412 N 0.85793 0.11559 0.71255 0.0
C1413 C 0.83537 0.06163 0.72046 0.0
C1414 C 0.88753 0.11899 0.71272 0.0
C1415 C 0.83194 0.08744 0.71693 0.0
C1416 C 0.86562 0.06472 0.72002 0.0
C1417 C 0.89224 0.09372 0.71632 0.0
O1418 O 0.82955 0.14861 0.73175 0.0
O1419 O 0.81787 0.16425 0.69227 0.0
O1420 O 0.8372 0.21447 0.68389 0.0
O1421 O 0.87289 0.20998 0.7038 0.0
O1422 O 0.80353 0.12799 0.71023 0.0
O1423 O 0.87735 0.18709 0.72999 0.0
O1424 O 0.85314 0.19278 0.63784 0.0
O1425 O 0.8653 0.17441 0.67762 0.0
O1426 O 0.84872 0.12492 0.68555 0.0
O1427 O 0.81276 0.12876 0.66562 0.0
O1428 O 0.87976 0.20998 0.65911 0.0
O1429 O 0.80823 0.15031 0.63983 0.0
C1430 C 0.79328 0.14147 0.69928 0.0
C1431 C 0.85969 0.16122 0.75922 0.0
C1432 C 0.85366 0.15918 0.79332 0.0
C1433 C 0.85101 0.17058 0.77571 0.0
C1434 C 0.86586 0.13879 0.79403 0.0
C1435 C 0.87223 0.14132 0.76039 0.0
C1436 C 0.87533 0.13023 0.77771 0.0
C1437 C 0.85991 0.2258 0.69668 0.0
C1438 C 0.85314 0.17048 0.74095 0.0
C1439 C 0.92332 0.09835 0.71635 0.0
C1440 C 0.94946 0.12813 0.71352 0.0
C1441 C 0.88988 0.19664 0.6703 0.0
C1442 C 0.82231 0.17625 0.61057 0.0
C1443 C 0.83272 0.16861 0.5941 0.0
C1444 C 0.82675 0.17739 0.57655 0.0
C1445 C 0.81005 0.19364 0.5756 0.0
C1446 C 0.80528 0.19213 0.60939 0.0
C1447 C 0.79917 0.20073 0.59195 0.0
C1448 C 0.82735 0.11398 0.67197 0.0
C1449 C 0.83125 0.16916 0.62877 0.0
H1450 H 0.84224 0.1867 0.77471 0.0
H1451 H 0.86784 0.12915 0.80721 0.0
H1452 H 0.87921 0.134 0.74795 0.0
H1453 H 0.88472 0.11458 0.77848 0.0
H1454 H 0.84605 0.15648 0.59494 0.0
H1455 H 0.80527 0.20063 0.56219 0.0
H1456 H 0.79707 0.19817 0.62189 0.0
H1457 H 0.78618 0.21315 0.59111 0.0
C1458 C 0.40145 0.90574 0.04602 0.0
C1459 C 0.37525 0.91023 0.0491 0.0
C1460 C 0.43061 0.92978 0.03908 0.0
C1461 C 0.43468 0.9592 0.03517 0.0
H1462 H 0.40001 0.88404 0.04985 0.0
H1463 H 0.45047 0.92575 0.03772 0.0
S1464 S 0.37251 0.98159 0.03751 0.0
N1465 N 0.35428 0.94521 0.04478 0.0
N1466 N 0.40963 0.99071 0.03295 0.0
C1467 C 0.40838 0.96352 0.0372 0.0
C1468 C 0.37853 0.93895 0.04379 0.0
C1469 C 0.07535 0.44157 0.04876 0.0
C1470 C 0.10594 0.46677 0.05256 0.0
C1471 C 0.0505 0.44616 0.04264 0.0
C1472 C 0.05537 0.47608 0.0394 0.0
H1473 H 0.07037 0.418 0.05072 0.0
H1474 H 0.0272 0.42607 0.04032 0.0
S1475 S 0.12984 0.54993 0.04872 0.0
N1476 N 0.13885 0.52292 0.0538 0.0
N1477 N 0.09242 0.53132 0.04166 0.0
C1478 C 0.08571 0.5015 0.04307 0.0
C1479 C 0.11095 0.49689 0.04966 0.0
C1480 C 0.52359 0.60988 0.06934 0.0
C1481 C 0.53543 0.63842 0.06006 0.0
C1482 C 0.51839 0.58334 0.05961 0.0
C1483 C 0.52496 0.58461 0.04034 0.0
H1484 H 0.51842 0.60812 0.08419 0.0
H1485 H 0.50903 0.56164 0.06719 0.0
S1486 S 0.55982 0.6548 1.01037 0.0
N1487 N 0.55533 0.66701 0.031 0.0
N1488 N 0.54662 0.61734 1.01286 0.0
C1489 C 0.53746 0.61319 0.03107 0.0
C1490 C 0.54247 0.64011 0.04092 0.0
C1491 C 0.91688 0.38714 0.97253 0.0
C1492 C 0.89923 0.36043 0.98354 0.0
C1493 C 0.93891 0.41545 0.98068 0.0
C1494 C 0.94412 0.41799 1.0001 0.0
H1495 H 0.91343 0.38617 0.95752 0.0
H1496 H 0.95169 0.43561 0.97174 0.0
S1497 S 0.90707 0.35389 0.03462 0.0
N1498 N 0.89 0.3377 1.01459 0.0
N1499 N 0.93224 0.39071 0.02979 0.0
C1500 C 0.9273 0.39128 1.01117 0.0
C1501 C 0.90463 0.36252 1.00291 0.0
C1502 C 0.64278 0.56786 0.99115 0.0
C1503 C 0.64725 0.54254 0.9873 0.0
C1504 C 0.61335 0.5635 0.99748 0.0
C1505 C 0.58719 0.5337 1.00067 0.0
H1506 H 0.66203 0.59136 0.98888 0.0
H1507 H 0.61088 0.58372 0.99963 0.0
S1508 S 0.58608 0.45946 0.99326 0.0
N1509 N 0.62263 0.48632 0.98744 0.0
N1510 N 0.56776 0.47839 0.99964 0.0
C1511 C 0.59147 0.50817 0.99746 0.0
C1512 C 0.62141 0.51253 0.99084 0.0
C1513 C 0.46114 0.08265 0.98329 0.0
C1514 C 0.48517 0.11376 0.98048 0.0
C1515 C 0.46771 0.06111 0.99177 0.0
C1516 C 0.49836 0.06988 0.99834 0.0
H1517 H 0.43688 0.07469 0.97889 0.0
H1518 H 0.44849 0.0374 0.99328 0.0
S1519 S 0.56985 0.14826 0.99518 0.0
N1520 N 0.54141 0.15186 0.98488 0.0
N1521 N 0.55278 0.11191 1.0023 0.0
C1522 C 0.52238 0.10104 0.99642 0.0
C1523 C 0.51604 0.12283 0.98714 0.0
C1524 C 0.62627 0.09898 0.99129 0.0
C1525 C 0.65326 0.09589 0.98829 0.0
C1526 C 0.5976 0.07401 0.99794 0.0
C1527 C 0.5948 0.04509 1.00172 0.0
H1528 H 0.62707 0.12057 0.98792 0.0
H1529 H 0.57705 0.07686 0.99915 0.0
S1530 S 0.6586 0.0252 0.99672 0.0
N1531 N 0.67572 0.06196 0.99025 0.0
N1532 N 0.62148 0.01487 1.00236 0.0
C1533 C 0.62176 0.0419 0.99916 0.0
C1534 C 0.65113 0.06741 0.99267 0.0
C1535 C 0.9391 0.56578 0.985 0.0
C1536 C 0.90906 0.5394 0.98206 0.0
C1537 C 0.96495 0.56309 0.99152 0.0
C1538 C 0.96153 0.53404 0.99596 0.0
H1539 H 0.94288 0.58862 0.98174 0.0
H1540 H 0.98786 0.58398 0.99319 0.0
S1541 S 0.88783 0.45781 0.99045 0.0
N1542 N 0.87735 0.48327 0.9839 0.0
N1543 N 0.92585 0.47826 0.99619 0.0
C1544 C 0.93158 0.50748 0.99309 0.0
C1545 C 0.90535 0.51018 0.98622 0.0
C1546 C 0.45953 0.35982 0.99734 0.0
C1547 C 0.47213 0.35909 0.97964 0.0
C1548 C 0.4667 0.38795 1.00578 0.0
C1549 C 0.48597 0.4162 0.9966 0.0
H1550 H 0.44354 0.33852 1.00464 0.0
H1551 H 0.45649 0.38757 0.01935 0.0
S1552 S 0.52659 0.42809 0.95094 0.0
N1553 N 0.50741 0.39017 0.95414 0.0
N1554 N 0.51798 0.4425 0.96934 0.0
C1555 C 0.49867 0.4161 0.97904 0.0
C1556 C 0.49248 0.38768 0.97072 0.0
C1557 C 0.08717 0.6382 0.05715 0.0
C1558 C 0.11981 0.65356 0.0528 0.0
C1559 C 0.06595 0.6096 0.04895 0.0
C1560 C 0.0766 0.59502 0.03622 0.0
H1561 H 0.078 0.64836 0.06699 0.0
H1562 H 0.04103 0.5988 0.05283 0.0
S1563 S 0.16092 0.62555 0.0216 0.0
N1564 N 0.16231 0.65231 0.03573 0.0
N1565 N 0.12299 0.59839 0.02057 0.0
C1566 C 0.1095 0.61036 0.03197 0.0
C1567 C 0.13094 0.63963 0.0402 0.0
C1568 C 0.39615 0.49442 0.04519 0.0
C1569 C 0.36872 0.46531 0.04826 0.0
C1570 C 0.42465 0.4968 0.0385 0.0
C1571 C 0.42672 0.47011 0.03486 0.0
H1572 H 0.39571 0.51546 0.04834 0.0
H1573 H 0.44545 0.51959 0.03689 0.0
S1574 S 0.36181 0.38866 0.04038 0.0
N1575 N 0.34541 0.40941 0.04672 0.0
N1576 N 0.39902 0.4139 0.03461 0.0
C1577 C 0.3994 0.441 0.03767 0.0
C1578 C 0.37035 0.43858 0.04414 0.0
C1579 C 0.55878 0.9054 0.04096 0.0
C1580 C 0.54302 0.89017 0.05763 0.0
C1581 C 0.5519 0.92645 0.032 0.0
C1582 C 0.52918 0.93304 0.03946 0.0
H1583 H 0.57716 0.90165 0.03502 0.0
H1584 H 0.56494 0.93817 0.01942 0.0
S1585 S 0.47996 0.89881 0.08192 0.0
N1586 N 0.50205 0.88218 0.08044 0.0
N1587 N 0.4905 0.92287 0.06396 0.0
C1588 C 0.51298 0.91795 0.05586 0.0
C1589 C 0.51956 0.89621 0.06487 0.0
C1590 C 0.03776 0.26524 0.3737 0.0
C1591 C 0.03487 0.23744 0.38059 0.0
C1592 C 0.06691 0.28916 0.36685 0.0
C1593 C 0.09412 0.28597 0.36604 0.0
H1594 H 0.01757 0.26897 0.37414 0.0
H1595 H 0.0684 0.31072 0.36253 0.0
S1596 S 0.0997 0.21835 0.38264 0.0
N1597 N 0.06219 0.20849 0.38645 0.0
N1598 N 0.11653 0.25308 0.37292 0.0
C1599 C 0.09141 0.25798 0.37222 0.0
C1600 C 0.06185 0.23376 0.37956 0.0
C1601 C 0.7771 0.82624 0.38255 0.0
C1602 C 0.77466 0.797 0.38458 0.0
C1603 C 0.75116 0.82904 0.37623 0.0
C1604 C 0.72181 0.80271 0.37181 0.0
H1605 H 0.79911 0.84707 0.3861 0.0
H1606 H 0.75386 0.85189 0.37538 0.0
S1607 S 0.70286 0.72099 0.37496 0.0
N1608 N 0.74046 0.74126 0.38162 0.0
N1609 N 0.69169 0.74659 0.37012 0.0
C1610 C 0.71907 0.77343 0.37383 0.0
C1611 C 0.74555 0.77057 0.37997 0.0
C1612 C 0.19733 0.95265 0.39828 0.0
C1613 C 0.2191 0.98093 0.38972 0.0
C1614 C 0.18998 0.9243 0.39009 0.0
C1615 C 0.20357 0.92343 0.3729 0.0
H1616 H 0.18627 0.95249 0.4115 0.0
H1617 H 0.17336 0.90293 0.39714 0.0
S1618 S 0.26188 0.99075 0.34494 0.0
N1619 N 0.25439 0.00627 0.36328 0.0
N1620 N 0.23998 0.95282 0.34774 0.0
C1621 C 0.22523 0.95141 0.36419 0.0
C1622 C 0.23316 0.98026 0.37265 0.0
C1623 C 0.55763 0.70652 0.32601 0.0
C1624 C 0.56603 0.69402 0.31087 0.0
C1625 C 0.57982 0.73464 0.33418 0.0
C1626 C 0.61174 0.75129 0.328 0.0
H1627 H 0.5337 0.69437 0.33174 0.0
H1628 H 0.57161 0.74332 0.34543 0.0
S1629 S 0.64524 0.73014 0.28751 0.0
N1630 N 0.60779 0.70192 0.28883 0.0
N1631 N 0.64997 0.75384 0.30485 0.0
C1632 C 0.62037 0.73931 0.31262 0.0
C1633 C 0.59749 0.71092 0.30399 0.0
C1634 C 0.29137 0.84725 0.32369 0.0
C1635 C 0.31873 0.87675 0.32142 0.0
C1636 C 0.26243 0.84397 0.3303 0.0
C1637 C 0.25984 0.87003 0.33495 0.0
H1638 H 0.29179 0.82662 0.31941 0.0
H1639 H 0.24162 0.82109 0.33075 0.0
S1640 S 0.3251 0.95183 0.33431 0.0
N1641 N 0.34199 0.93214 0.32674 0.0
N1642 N 0.28738 0.92587 0.33832 0.0
C1643 C 0.28723 0.8994 0.33359 0.0
C1644 C 0.31674 0.90277 0.32716 0.0
C1645 C 0.16217 0.45035 0.32603 0.0
C1646 C 0.14248 0.44289 0.31019 0.0
C1647 C 0.16837 0.42843 0.33444 0.0
C1648 C 0.15476 0.39793 0.32758 0.0
H1649 H 0.17274 0.47329 0.33208 0.0
H1650 H 0.18413 0.43565 0.34636 0.0
S1651 S 0.10354 0.36752 0.28532 0.0
N1652 N 0.11152 0.40371 0.28701 0.0
N1653 N 0.12155 0.36209 0.30325 0.0
C1654 C 0.13528 0.39035 0.31155 0.0
C1655 C 0.1295 0.41286 0.3028 0.0
C1656 C 0.2838 0.43584 0.3236 0.0
C1657 C 0.31201 0.43469 0.321 0.0
C1658 C 0.25597 0.41009 0.33058 0.0
C1659 C 0.2554 0.38225 0.33492 0.0
H1660 H 0.28302 0.45646 0.31969 0.0
H1661 H 0.23445 0.41151 0.33159 0.0
S1662 S 0.32319 0.36783 0.33133 0.0
N1663 N 0.338 0.40401 0.32415 0.0
N1664 N 0.28553 0.35542 0.33673 0.0
C1665 C 0.28366 0.38119 0.33286 0.0
C1666 C 0.31206 0.4075 0.32612 0.0
C1667 C 0.57647 0.84308 0.32136 0.0
C1668 C 0.57912 0.87231 0.31871 0.0
C1669 C 0.60226 0.84038 0.32808 0.0
C1670 C 0.63168 0.86685 0.33222 0.0
H1671 H 0.55439 0.82217 0.31801 0.0
H1672 H 0.59937 0.81749 0.32949 0.0
S1673 S 0.65103 0.94855 0.32765 0.0
N1674 N 0.61347 0.92813 0.32094 0.0
N1675 N 0.662 0.92303 0.33314 0.0
C1676 C 0.63458 0.89611 0.32965 0.0
C1677 C 0.60825 0.89885 0.32312 0.0
C1678 C 0.12718 0.70962 0.30917 0.0
C1679 C 0.148 0.69786 0.31102 0.0
C1680 C 0.134 0.73762 0.31766 0.0
C1681 C 0.16201 0.7549 0.32818 0.0
H1682 H 0.10537 0.69695 0.30122 0.0
H1683 H 0.11706 0.74561 0.31604 0.0
S1684 S 0.22577 0.73507 0.33524 0.0
N1685 N 0.19828 0.70586 0.32303 0.0
N1686 N 0.21186 0.75893 0.33856 0.0
C1687 C 0.18337 0.74353 0.32966 0.0
C1688 C 0.17617 0.71488 0.32118 0.0
C1689 C 0.79218 0.95498 0.3883 0.0
C1690 C 0.78391 0.97812 0.39086 0.0
C1691 C 0.77074 0.92629 0.38034 0.0
C1692 C 0.73999 0.9194 0.375 0.0
H1693 H 0.81528 0.95886 0.3927 0.0
H1694 H 0.77814 0.9092 0.37866 0.0
S1695 S 0.7077 0.97288 0.37649 0.0
N1696 N 0.74368 0.99298 0.38561 0.0
N1697 N 0.70314 0.93862 0.37133 0.0
C1698 C 0.73155 0.94236 0.37711 0.0
C1699 C 0.75354 0.9718 0.38489 0.0
C1700 C 0.04282 0.7739 0.37763 0.0
C1701 C 0.03985 0.79983 0.38208 0.0
C1702 C 0.07195 0.77736 0.37134 0.0
C1703 C 0.09904 0.80686 0.36875 0.0
H1704 H 0.02281 0.75073 0.37972 0.0
H1705 H 0.07344 0.75672 0.36868 0.0
S1706 S 0.10321 0.88217 0.37771 0.0
N1707 N 0.06604 0.85597 0.38292 0.0
N1708 N 0.12065 0.86249 0.37112 0.0
C1709 C 0.0961 0.83298 0.37272 0.0
C1710 C 0.06652 0.82944 0.37931 0.0
C1711 C 0.22966 0.25952 0.39483 0.0
C1712 C 0.21429 0.22793 0.39026 0.0
C1713 C 0.22162 0.27971 0.38584 0.0
C1714 C 0.19772 0.26908 0.372 0.0
H1715 H 0.24826 0.26875 0.4053 0.0
H1716 H 0.23438 0.30387 0.38985 0.0
S1717 S 0.14849 0.18731 0.35644 0.0
N1718 N 0.17318 0.18635 0.37192 0.0
N1719 N 0.15761 0.22393 0.35514 0.0
C1720 C 0.18187 0.23724 0.36759 0.0
C1721 C 0.19025 0.21678 0.37669 0.0
C1722 C 0.70889 0.60839 0.70798 0.0
C1723 C 0.7039 0.57898 0.71311 0.0
C1724 C 0.73851 0.6316 0.70117 0.0
C1725 C 0.76419 0.62625 0.69888 0.0
H1726 H 0.68993 0.61375 0.70959 0.0
H1727 H 0.74157 0.65422 0.69801 0.0
S1728 S 0.76389 0.55355 0.71045 0.0
N1729 N 0.72749 0.54601 0.71556 0.0
N1730 N 0.78287 0.58952 0.70249 0.0
C1731 C 0.75942 0.59681 0.70351 0.0
C1732 C 0.72931 0.57319 0.7106 0.0
C1733 C 0.40824 0.10742 0.71541 0.0
C1734 C 0.43909 0.13204 0.7194 0.0
C1735 C 0.38377 0.11285 0.70965 0.0
C1736 C 0.38922 0.14308 0.707 0.0
H1737 H 0.40274 0.08362 0.71698 0.0
H1738 H 0.36024 0.09313 0.70725 0.0
S1739 S 0.46476 0.21578 0.71658 0.0
N1740 N 0.47307 0.18808 0.72107 0.0
N1741 N 0.42715 0.19802 0.70984 0.0
C1742 C 0.41982 0.16797 0.71082 0.0
C1743 C 0.44477 0.1625 0.71695 0.0
C1744 C 0.85914 0.29829 0.71171 0.0
C1745 C 0.8908 0.31838 0.71735 0.0
C1746 C 0.84981 0.26894 0.70441 0.0
C1747 C 0.87126 0.2578 0.70322 0.0
H1748 H 0.8411 0.30491 0.71326 0.0
H1749 H 0.82541 0.2547 0.69998 0.0
S1750 S 0.95809 0.30304 0.71252 0.0
N1751 N 0.94483 0.3267 0.71816 0.0
N1752 N 0.92645 0.27059 0.70578 0.0
C1753 C 0.90322 0.27798 0.70799 0.0
C1754 C 0.91313 0.3084 0.71479 0.0
C1755 C 0.26672 0.04374 0.64506 0.0
C1756 C 0.23415 0.02729 0.64978 0.0
C1757 C 0.2878 0.07173 0.65388 0.0
C1758 C 0.27728 0.08464 0.66779 0.0
H1759 H 0.27595 0.03527 0.63417 0.0
H1760 H 0.31251 0.08347 0.64945 0.0
S1761 S 0.19418 0.04954 0.68579 0.0
N1762 N 0.19256 0.02483 0.66996 0.0
N1763 N 0.23164 0.07785 0.68599 0.0
C1764 C 0.24474 0.06802 0.67282 0.0
C1765 C 0.22335 0.03935 0.66394 0.0
C1766 C 0.95175 0.17474 0.65606 0.0
C1767 C 0.97922 0.20394 0.65325 0.0
C1768 C 0.92316 0.17216 0.6628 0.0
C1769 C 0.92103 0.19873 0.66673 0.0
H1770 H 0.95219 0.15379 0.65262 0.0
H1771 H 0.90231 0.14938 0.66408 0.0
S1772 S 0.98601 0.28033 0.6621 0.0
N1773 N 1.00251 0.25978 0.6555 0.0
N1774 N 0.94874 0.2549 0.66761 0.0
C1775 C 0.94841 0.2279 0.66428 0.0
C1776 C 0.97755 0.23053 0.65778 0.0
C1777 C 0.80667 0.77332 0.66447 0.0
C1778 C 0.80516 0.77587 0.64498 0.0
C1779 C 0.81413 0.75194 0.6724 0.0
C1780 C 0.8207 0.7327 0.6611 0.0
H1781 H 0.80147 0.78753 0.67363 0.0
H1782 H 0.81402 0.75003 0.68743 0.0
S1783 S 0.82283 0.73295 0.60915 0.0
N1784 N 0.81231 0.75881 0.61453 0.0
N1785 N 0.82731 0.71938 0.6293 0.0
C1786 C 0.81998 0.73571 0.64154 0.0
C1787 C 0.81202 0.75716 0.63351 0.0
C1788 C 0.9816 0.74328 0.6567 0.0
C1789 C 0.98314 0.77135 0.65187 0.0
C1790 C 0.95296 0.71776 0.66285 0.0
C1791 C 0.92515 0.71972 0.66493 0.0
H1792 H 1.00229 0.74058 0.65487 0.0
H1793 H 0.95236 0.69609 0.66563 0.0
S1794 S 0.91715 0.78855 0.65484 0.0
N1795 N 0.95487 0.80006 0.65009 0.0
N1796 N 0.90108 0.75214 0.6618 0.0
C1797 C 0.92666 0.74798 0.6607 0.0
C1798 C 0.95571 0.77384 0.6542 0.0
C1799 C 0.27321 0.23329 0.65239 0.0
C1800 C 0.24297 0.20722 0.64949 0.0
C1801 C 0.29879 0.23008 0.65886 0.0
C1802 C 0.29487 0.20079 0.66323 0.0
H1803 H 0.27738 0.25625 0.64908 0.0
H1804 H 0.32192 0.25073 0.66046 0.0
S1805 S 0.22019 0.12534 0.65795 0.0
N1806 N 0.21038 0.15125 0.65141 0.0
N1807 N 0.25827 0.14518 0.66369 0.0
C1808 C 0.26458 0.17458 0.66057 0.0
C1809 C 0.23867 0.17783 0.65373 0.0
C1810 C 0.78128 0.0379 0.64579 0.0
C1811 C 0.80126 0.02514 0.64723 0.0
C1812 C 0.78984 0.06659 0.65393 0.0
C1813 C 0.81878 0.08356 0.66367 0.0
H1814 H 0.75891 0.02559 0.63832 0.0
H1815 H 0.77357 0.07543 0.65258 0.0
S1816 S 0.88052 0.06076 0.66967 0.0
N1817 N 0.85151 0.03159 0.65821 0.0
N1818 N 0.86831 0.08594 0.67307 0.0
C1819 C 0.83917 0.07104 0.66486 0.0
C1820 C 0.83023 0.04171 0.65673 0.0
C1821 C 0.46121 0.30277 0.70994 0.0
C1822 C 0.4508 0.32198 0.7178 0.0
C1823 C 0.43937 0.27374 0.7025 0.0
C1824 C 0.40625 0.26249 0.70314 0.0
H1825 H 0.4864 0.31021 0.70962 0.0
H1826 H 0.44856 0.2598 0.69658 0.0
S1827 S 0.36742 0.3052 0.72163 0.0
N1828 N 0.40587 0.32889 0.72509 0.0
N1829 N 0.3646 0.27408 0.71165 0.0
C1830 C 0.39576 0.28196 0.71073 0.0
C1831 C 0.41809 0.31176 0.71794 0.0
C1832 C 0.70523 0.10378 0.71117 0.0
C1833 C 0.70124 0.12901 0.71589 0.0
C1834 C 0.73492 0.10837 0.70506 0.0
C1835 C 0.76152 0.13834 0.70289 0.0
H1836 H 0.68568 0.0803 0.71303 0.0
H1837 H 0.73728 0.08823 0.70232 0.0
S1838 S 0.76285 0.212 0.71285 0.0
N1839 N 0.72582 0.18492 0.71744 0.0
N1840 N 0.78154 0.19357 0.70606 0.0
C1841 C 0.7575 0.16375 0.70707 0.0
C1842 C 0.72735 0.15905 0.71347 0.0
C1843 C 0.86291 0.56004 0.7133 0.0
C1844 C 0.89529 0.57007 0.71631 0.0
C1845 C 0.85346 0.57969 0.7051 0.0
C1846 C 0.87592 0.61032 0.7002 0.0
H1847 H 0.84475 0.53689 0.71744 0.0
H1848 H 0.82837 0.57111 0.70306 0.0
S1849 S 0.96381 0.64631 0.70284 0.0
N1850 N 0.95006 0.61147 0.7121 0.0
N1851 N 0.93211 0.64847 0.69674 0.0
C1852 C 0.90844 0.62013 0.7023 0.0
C1853 C 0.91816 0.59996 0.71037 0.0
C1854 C 0.50844 0.99244 0.17812 0.0
C1855 C 0.49789 0.96052 0.17945 0.0
C1856 C 0.51964 0.00869 0.16118 0.0
C1857 C 0.52112 0.99395 0.14472 0.0
H1858 H 0.50876 0.00529 0.19039 0.0
H1859 H 0.52743 0.03321 0.16106 0.0
S1860 S 0.49523 0.91035 0.14028 0.0
N1861 N 0.48808 0.91435 0.16239 0.0
N1862 N 0.51058 0.9452 0.13083 0.0
C1863 C 0.51019 0.96191 0.14572 0.0
C1864 C 0.4984 0.94521 0.16299 0.0
C1865 C 0.02529 0.50165 0.16524 0.0
C1866 C 0.02834 0.52451 0.17793 0.0
C1867 C 0.00944 0.49742 0.14814 0.0
C1868 C 0.99563 0.51552 0.14336 0.0
H1869 H 0.03571 0.48735 0.16842 0.0
H1870 H 1.0078 0.47977 0.13865 0.0
S1871 S 0.99651 0.57793 0.17194 0.0
N1872 N 0.01594 0.56511 0.18468 0.0
N1873 N 0.98601 0.55702 0.15264 0.0
C1874 C 0.9982 0.53815 0.15603 0.0
C1875 C 0.01462 0.54269 0.17329 0.0
C1876 C 0.47452 0.48101 0.17367 0.0
C1877 C 0.48476 0.51184 0.17868 0.0
C1878 C 0.48407 0.47402 0.15667 0.0
C1879 C 0.50365 0.4976 0.14396 0.0
H1880 H 0.45985 0.46226 0.18321 0.0
H1881 H 0.4763 0.45003 0.15349 0.0
S1882 S 0.53555 0.58189 0.1502 0.0
N1883 N 0.51474 0.56602 0.16946 0.0
N1884 N 0.53216 0.55288 0.13734 0.0
C1885 C 0.5132 0.52843 0.14858 0.0
C1886 C 0.50391 0.53556 0.166 0.0
C1887 C 0.01022 0.51632 0.86283 0.0
C1888 C 0.98618 0.48629 0.85801 0.0
C1889 C 0.02599 0.52203 0.88004 0.0
C1890 C 0.01775 0.49798 0.89306 0.0
H1891 H 0.01749 0.53528 0.853 0.0
H1892 H 0.04487 0.54534 0.88316 0.0
S1893 S 0.95561 0.41558 0.88727 0.0
N1894 N 0.95445 0.43244 0.86759 0.0
N1895 N 0.98358 0.44327 0.90017 0.0
C1896 C 0.99315 0.46804 0.88859 0.0
C1897 C 0.9775 0.46216 0.87097 0.0
C1898 C 0.49336 0.47147 0.86147 0.0
C1899 C 0.52576 0.48912 0.85648 0.0
C1900 C 0.48212 0.47616 0.87855 0.0
C1901 C 0.50295 0.49832 0.89145 0.0
H1902 H 0.47641 0.45439 0.85188 0.0
H1903 H 0.45689 0.46238 0.88169 0.0
S1904 S 0.59017 0.54963 0.88543 0.0
N1905 N 0.57868 0.52908 0.86598 0.0
N1906 N 0.55762 0.53763 0.89824 0.0
C1907 C 0.53553 0.51561 0.88684 0.0
C1908 C 0.5469 0.51114 0.86931 0.0
C1909 C 0.53937 0.02042 0.86181 0.0
C1910 C 0.52744 0.04012 0.85706 0.0
C1911 C 0.53137 0.00426 0.87892 0.0
C1912 C 0.51171 0.00769 0.89209 0.0
H1913 H 0.55414 0.01669 0.85197 0.0
H1914 H 0.54031 0.98861 0.88179 0.0
S1915 S 0.47581 0.0578 0.88685 0.0
N1916 N 0.49581 0.06293 0.86715 0.0
N1917 N 0.4814 0.03311 0.89947 0.0
C1918 C 0.50054 0.02813 0.88779 0.0
C1919 C 0.5082 0.04415 0.87022 0.0
C1920 C 0.13568 0.29405 0.49914 0.0
C1921 C 0.15768 0.29249 0.51133 0.0
C1922 C 0.14552 0.31007 0.48196 0.0
C1923 C 0.17781 0.3256 0.47651 0.0
H1924 H 0.11069 0.28293 0.50297 0.0
H1925 H 0.12793 0.31114 0.47315 0.0
S1926 S 0.24477 0.32834 0.50315 0.0
N1927 N 0.21316 0.30753 0.51646 0.0
N1928 N 0.23155 0.33776 0.48441 0.0
C1929 C 0.19991 0.32385 0.48843 0.0
C1930 C 0.18988 0.30727 0.50575 0.0
C1931 C 0.68789 0.8287 0.49944 0.0
C1932 C 0.68893 0.85114 0.51178 0.0
C1933 C 0.67216 0.82301 0.48221 0.0
C1934 C 0.65649 0.83916 0.47691 0.0
H1935 H 0.69964 0.81576 0.50305 0.0
H1936 H 0.672 0.80565 0.47303 0.0
S1937 S 0.65196 0.89991 0.50433 0.0
N1938 N 0.67282 0.8894 0.5176 0.0
N1939 N 0.64313 0.87856 0.48525 0.0
C1940 C 0.65719 0.86148 0.48917 0.0
C1941 C 0.67348 0.86752 0.50659 0.0
C1942 C 0.18867 0.84355 0.51088 0.0
C1943 C 0.16225 0.84798 0.51264 0.0
C1944 C 0.19666 0.83557 0.49376 0.0
C1945 C 0.17827 0.83099 0.4776 0.0
H1946 H 0.2032 0.84581 0.52292 0.0
H1947 H 0.21752 0.83293 0.49326 0.0
S1948 S 0.10671 0.83997 0.47445 0.0
N1949 N 0.1185 0.84865 0.49634 0.0
N1950 N 0.1319 0.83107 0.46456 0.0
C1951 C 0.1517 0.83528 0.4791 0.0
C1952 C 0.14401 0.84423 0.49649 0.0
C1953 C 0.65391 0.8306 0.20815 0.0
C1954 C 0.66714 0.82497 0.19211 0.0
C1955 C 0.6703 0.83893 0.22519 0.0
C1956 C 0.7005 0.84155 0.22709 0.0
H1957 H 0.63052 0.82839 0.20763 0.0
H1958 H 0.65925 0.84371 0.23692 0.0
S1959 S 0.74572 0.82888 0.18945 0.0
N1960 N 0.71292 0.82355 0.17913 0.0
N1961 N 0.74252 0.83673 0.21149 0.0
C1962 C 0.71387 0.83555 0.21124 0.0
C1963 C 0.69748 0.82777 0.19373 0.0
C1964 C 0.21379 0.84431 0.2033 0.0
C1965 C 0.1925 0.82194 0.19065 0.0
C1966 C 0.20298 0.84963 0.22039 0.0
C1967 C 0.17043 0.83321 0.22524 0.0
H1968 H 0.23898 0.85769 0.19997 0.0
H1969 H 0.22008 0.86715 0.22972 0.0
S1970 S 0.10511 0.7722 0.19705 0.0
N1971 N 0.13745 0.78317 0.18423 0.0
N1972 N 0.11718 0.79337 0.21622 0.0
C1973 C 0.14898 0.81074 0.21275 0.0
C1974 C 0.16001 0.80504 0.1955 0.0
C1975 C 0.21317 0.36092 0.19465 0.0
C1976 C 0.19918 0.3789 0.18999 0.0
C1977 C 0.20533 0.34382 0.2114 0.0
C1978 C 0.18367 0.34452 0.2243 0.0
H1979 H 0.22944 0.35919 0.18497 0.0
H1980 H 0.21596 0.32958 0.21418 0.0
S1981 S 0.14205 0.38952 0.21926 0.0
N1982 N 0.16363 0.39738 0.19996 0.0
N1983 N 0.14933 0.36566 0.23157 0.0
C1984 C 0.17044 0.36331 0.22013 0.0
C1985 C 0.17804 0.38033 0.20293 0.0
C1986 C 0.79525 0.59304 0.82749 0.0
C1987 C 0.81065 0.61462 0.84195 0.0
C1988 C 0.79566 0.60282 0.80896 0.0
C1989 C 0.81198 0.63446 0.80417 0.0
H1990 H 0.78159 0.56849 0.83066 0.0
H1991 H 0.78223 0.58559 0.79842 0.0
S1992 S 0.85821 0.70009 0.83629 0.0
N1993 N 0.84432 0.66905 0.84982 0.0
N1994 N 0.84507 0.68719 0.81502 0.0
C1995 C 0.82855 0.65615 0.81826 0.0
C1996 C 0.82791 0.64629 0.83713 0.0
C1997 C 0.3643 0.1693 0.83078 0.0
C1998 C 0.36617 0.19035 0.84448 0.0
C1999 C 0.34788 0.16577 0.81397 0.0
C2000 C 0.33235 0.18276 0.81049 0.0
H2001 H 0.37601 0.15587 0.83295 0.0
H2002 H 0.34712 0.14948 0.80368 0.0
S2003 S 0.32969 0.24034 0.84208 0.0
N2004 N 0.35073 0.22799 0.85361 0.0
N2005 N 0.31997 0.22137 0.82207 0.0
C2006 C 0.33382 0.20362 0.82417 0.0
C2007 C 0.35072 0.20741 0.84115 0.0
C2008 C 0.85422 0.18186 0.84425 0.0
C2009 C 0.82652 0.18419 0.84603 0.0
C2010 C 0.86293 0.17442 0.82717 0.0
C2011 C 0.84411 0.16839 0.81104 0.0
H2012 H 0.86925 0.18537 0.85625 0.0
H2013 H 0.88473 0.17339 0.82667 0.0
S2014 S 0.76922 0.17157 0.80794 0.0
N2015 N 0.78088 0.18107 0.82979 0.0
N2016 N 0.796 0.16488 0.79804 0.0
C2017 C 0.81627 0.17059 0.81255 0.0
C2018 C 0.80772 0.17884 0.82992 0.0
C2019 C 0.3432 0.13508 0.53161 0.0
C2020 C 0.33263 0.15515 0.52516 0.0
C2021 C 0.35745 0.13911 0.5492 0.0
C2022 C 0.36138 0.16314 0.56112 0.0
H2023 H 0.34015 0.11584 0.52308 0.0
H2024 H 0.36512 0.12305 0.55361 0.0
S2025 S 0.33963 0.2231 0.5507 0.0
N2026 N 0.32865 0.20098 0.5319 0.0
N2027 N 0.35464 0.20789 0.56519 0.0
C2028 C 0.35103 0.18341 0.55493 0.0
C2029 C 0.33683 0.17956 0.53692 0.0
C2030 C 0.87271 0.18752 0.53155 0.0
C2031 C 0.85889 0.15707 0.52454 0.0
C2032 C 0.8624 0.19388 0.54847 0.0
C2033 C 0.83823 0.17 0.55918 0.0
H2034 H 0.89165 0.20669 0.52389 0.0
H2035 H 0.8734 0.21766 0.55323 0.0
S2036 S 0.7934 0.08662 0.54721 0.0
N2037 N 0.81867 0.10292 0.52965 0.0
N2038 N 0.80044 0.115 0.56179 0.0
C2039 C 0.82446 0.1395 0.55261 0.0
C2040 C 0.83454 0.13299 0.53524 0.0
C2041 C 0.84119 0.70559 0.53346 0.0
C2042 C 0.86332 0.70472 0.521 0.0
C2043 C 0.83338 0.68934 0.55058 0.0
C2044 C 0.84691 0.67112 0.55565 0.0
H2045 H 0.82971 0.7188 0.52988 0.0
H2046 H 0.81593 0.69027 0.55965 0.0
S2047 S 0.90633 0.66141 0.52819 0.0
N2048 N 0.89909 0.68466 0.51522 0.0
N2049 N 0.88395 0.65374 0.54711 0.0
C2050 C 0.8693 0.67038 0.54345 0.0
C2051 C 0.87764 0.68728 0.52621 0.0
loop_
_geom_bond_atom_site_label_1
_geom_bond_atom_site_label_2
_geom_bond_distance
_geom_bond_site_symmetry_2
_ccdc_geom_bond_type
C0 C1 1.386 . S
C0 C2 1.397 . S
C0 H24 0.931 . S
C1 C0 1.386 . S
C1 C5 1.397 . S
C2 C0 1.397 . S
C2 C3 1.384 . S
C2 H25 0.930 . S
C3 C2 1.384 . S
C3 C4 1.377 . S
C3 C6 1.481 . S
C4 C3 1.377 . S
C4 C5 1.389 . S
C4 H26 0.929 . S
C5 C1 1.397 . S
C5 C4 1.389 . S
C5 H27 0.931 . S
C6 C3 1.481 . S
C6 C7 1.387 . S
C6 C11 1.390 . S
C7 C6 1.387 . S
C7 C8 1.401 . S
C7 H28 0.930 . S
C8 C7 1.401 . S
C8 C9 1.376 . S
C8 C17 1.511 . S
C9 C8 1.376 . S
C9 C10 1.392 . S
C9 H30 0.931 . S
C10 C9 1.392 . S
C10 C11 1.361 . S
C10 C12 1.500 . S
C11 C6 1.390 . S
C11 C10 1.361 . S
C11 H29 0.931 . S
C12 C10 1.500 . S
C12 C13 1.371 . S
C12 C14 1.365 . S
C13 C12 1.371 . S
C13 C23 1.386 . S
C13 H31 0.931 . S
C14 C12 1.365 . S
C14 C15 1.409 . S
C14 H32 0.929 . S
C15 C14 1.409 . S
C15 C16 1.380 . S
C15 H33 0.930 . S
C16 C15 1.380 . S
C16 C23 1.357 . S
C17 C8 1.511 . S
C17 C18 1.341 . S
C17 C19 1.371 . S
C18 C17 1.341 . S
C18 C22 1.394 . S
C18 H34 0.930 . S
C19 C17 1.371 . S
C19 C20 1.392 . S
C19 H35 0.931 . S
C20 C19 1.392 . S
C20 C21 1.331 . S
C20 H38 0.932 . S
C21 C20 1.331 . S
C21 C22 1.336 . S
C22 C18 1.394 . S
C22 C21 1.336 . S
C22 H37 0.929 . S
C23 C13 1.386 . S
C23 C16 1.357 . S
C23 H36 0.928 . S
H24 C0 0.931 . S
H25 C2 0.930 . S
H26 C4 0.929 . S
H27 C5 0.931 . S
H28 C7 0.930 . S
H29 C11 0.931 . S
H30 C9 0.931 . S
H31 C13 0.931 . S
H32 C14 0.929 . S
H33 C15 0.930 . S
H34 C18 0.930 . S
H35 C19 0.931 . S
H36 C23 0.928 . S
H37 C22 0.929 . S
H38 C20 0.932 . S
C39 C40 1.386 . S
C39 C41 1.397 . S
C39 H63 0.931 . S
C40 C39 1.386 . S
C40 C44 1.397 . S
C41 C39 1.397 . S
C41 C42 1.384 . S
C41 H64 0.930 . S
C42 C41 1.384 . S
C42 C43 1.377 . S
C42 C45 1.481 . S
C43 C42 1.377 . S
C43 C44 1.389 . S
C43 H65 0.929 . S
C44 C40 1.397 . S
C44 C43 1.389 . S
C44 H66 0.931 . S
C45 C42 1.481 . S
C45 C46 1.387 . S
C45 C50 1.390 . S
C46 C45 1.387 . S
C46 C47 1.401 . S
C46 H67 0.930 . S
C47 C46 1.401 . S
C47 C48 1.376 . S
C47 C56 1.511 . S
C48 C47 1.376 . S
C48 C49 1.392 . S
C48 H69 0.931 . S
C49 C48 1.392 . S
C49 C50 1.361 . S
C49 C51 1.500 . S
C50 C45 1.390 . S
C50 C49 1.361 . S
C50 H68 0.931 . S
C51 C49 1.500 . S
C51 C52 1.371 . S
C51 C53 1.365 . S
C52 C51 1.371 . S
C52 C62 1.386 . S
C52 H70 0.931 . S
C53 C51 1.365 . S
C53 C54 1.409 . S
C53 H71 0.929 . S
C54 C53 1.409 . S
C54 C55 1.380 . S
C54 H72 0.930 1_545 S
C55 C54 1.380 . S
C55 C62 1.357 . S
C56 C47 1.511 . S
C56 C57 1.341 . S
C56 C58 1.371 . S
C57 C56 1.341 . S
C57 C61 1.394 . S
C57 H73 0.930 . S
C58 C56 1.371 . S
C58 C59 1.392 . S
C58 H74 0.931 . S
C59 C58 1.392 . S
C59 C60 1.331 . S
C59 H77 0.932 . S
C60 C59 1.331 . S
C60 C61 1.336 . S
C61 C57 1.394 . S
C61 C60 1.336 . S
C61 H76 0.929 . S
C62 C52 1.386 . S
C62 C55 1.357 . S
C62 H75 0.928 . S
H63 C39 0.931 . S
H64 C41 0.930 . S
H65 C43 0.929 . S
H66 C44 0.931 . S
H67 C46 0.930 . S
H68 C50 0.931 . S
H69 C48 0.931 . S
H70 C52 0.931 . S
H71 C53 0.929 . S
H72 C54 0.930 1_565 S
H73 C57 0.930 . S
H74 C58 0.931 . S
H75 C62 0.928 . S
H76 C61 0.929 . S
H77 C59 0.932 . S
C78 C79 1.386 . S
C78 C80 1.397 . S
C78 H102 0.931 . S
C79 C78 1.386 . S
C79 C83 1.397 . S
C80 C78 1.397 . S
C80 C81 1.384 . S
C80 H103 0.930 . S
C81 C80 1.384 . S
C81 C82 1.377 . S
C81 C84 1.481 . S
C82 C81 1.377 . S
C82 C83 1.389 . S
C82 H104 0.929 . S
C83 C79 1.397 . S
C83 C82 1.389 . S
C83 H105 0.931 . S
C84 C81 1.481 . S
C84 C85 1.387 . S
C84 C89 1.390 . S
C85 C84 1.387 . S
C85 C86 1.401 . S
C85 H106 0.930 . S
C86 C85 1.401 . S
C86 C87 1.376 . S
C86 C95 1.511 . S
C87 C86 1.376 . S
C87 C88 1.392 . S
C87 H108 0.931 . S
C88 C87 1.392 . S
C88 C89 1.361 . S
C88 C90 1.500 . S
C89 C84 1.390 . S
C89 C88 1.361 . S
C89 H107 0.931 . S
C90 C88 1.500 . S
C90 C91 1.371 . S
C90 C92 1.365 . S
C91 C90 1.371 . S
C91 C101 1.386 . S
C91 H109 0.931 . S
C92 C90 1.365 . S
C92 C93 1.409 . S
C92 H110 0.929 . S
C93 C92 1.409 . S
C93 C94 1.380 . S
C93 H111 0.930 . S
C94 C93 1.380 . S
C94 C101 1.357 . S
C95 C86 1.511 . S
C95 C96 1.341 . S
C95 C97 1.371 . S
C96 C95 1.341 . S
C96 C100 1.394 . S
C96 H112 0.930 . S
C97 C95 1.371 . S
C97 C98 1.392 . S
C97 H113 0.931 . S
C98 C97 1.392 . S
C98 C99 1.331 . S
C98 H116 0.932 . S
C99 C98 1.331 . S
C99 C100 1.336 . S
C100 C96 1.394 . S
C100 C99 1.336 . S
C100 H115 0.929 1_655 S
C101 C91 1.386 . S
C101 C94 1.357 . S
C101 H114 0.928 . S
H102 C78 0.931 . S
H103 C80 0.930 . S
H104 C82 0.929 . S
H105 C83 0.931 . S
H106 C85 0.930 . S
H107 C89 0.931 . S
H108 C87 0.931 . S
H109 C91 0.931 . S
H110 C92 0.929 . S
H111 C93 0.930 . S
H112 C96 0.930 . S
H113 C97 0.931 . S
H114 C101 0.928 . S
H115 C100 0.929 1_455 S
H116 C98 0.932 . S
C117 C118 1.386 . S
C117 C119 1.397 . S
C117 H141 0.931 . S
C118 C117 1.386 . S
C118 C122 1.397 . S
C119 C117 1.397 . S
C119 C120 1.384 . S
C119 H142 0.930 . S
C120 C119 1.384 . S
C120 C121 1.377 . S
C120 C123 1.481 . S
C121 C120 1.377 . S
C121 C122 1.389 . S
C121 H143 0.929 . S
C122 C118 1.397 . S
C122 C121 1.389 . S
C122 H144 0.931 . S
C123 C120 1.481 . S
C123 C124 1.387 . S
C123 C128 1.390 . S
C124 C123 1.387 . S
C124 C125 1.401 . S
C124 H145 0.930 . S
C125 C124 1.401 . S
C125 C126 1.376 . S
C125 C134 1.511 . S
C126 C125 1.376 . S
C126 C127 1.392 . S
C126 H147 0.931 . S
C127 C126 1.392 . S
C127 C128 1.361 . S
C127 C129 1.500 . S
C128 C123 1.390 . S
C128 C127 1.361 . S
C128 H146 0.931 . S
C129 C127 1.500 . S
C129 C130 1.371 . S
C129 C131 1.365 . S
C130 C129 1.371 . S
C130 C140 1.386 . S
C130 H148 0.931 . S
C131 C129 1.365 . S
C131 C132 1.409 . S
C131 H149 0.929 . S
C132 C131 1.409 . S
C132 C133 1.380 . S
C132 H150 0.930 . S
C133 C132 1.380 . S
C133 C140 1.357 . S
C134 C125 1.511 . S
C134 C135 1.341 . S
C134 C136 1.371 . S
C135 C134 1.341 . S
C135 C139 1.394 . S
C135 H151 0.930 . S
C136 C134 1.371 . S
C136 C137 1.392 . S
C136 H152 0.931 . S
C137 C136 1.392 . S
C137 C138 1.331 . S
C137 H155 0.932 . S
C138 C137 1.331 . S
C138 C139 1.336 . S
C139 C135 1.394 . S
C139 C138 1.336 . S
C139 H154 0.929 . S
C140 C130 1.386 . S
C140 C133 1.357 . S
C140 H153 0.928 . S
H141 C117 0.931 . S
H142 C119 0.930 . S
H143 C121 0.929 . S
H144 C122 0.931 . S
H145 C124 0.930 . S
H146 C128 0.931 . S
H147 C126 0.931 . S
H148 C130 0.931 . S
H149 C131 0.929 . S
H150 C132 0.930 . S
H151 C135 0.930 . S
H152 C136 0.931 . S
H153 C140 0.928 . S
H154 C139 0.929 . S
H155 C137 0.932 . S
C156 C157 1.386 . S
C156 C158 1.397 . S
C156 H180 0.931 . S
C157 C156 1.386 . S
C157 C161 1.397 . S
C158 C156 1.397 . S
C158 C159 1.384 . S
C158 H181 0.930 . S
C159 C158 1.384 . S
C159 C160 1.377 . S
C159 C162 1.481 . S
C160 C159 1.377 . S
C160 C161 1.389 . S
C160 H182 0.929 . S
C161 C157 1.397 . S
C161 C160 1.389 . S
C161 H183 0.931 . S
C162 C159 1.481 . S
C162 C163 1.387 . S
C162 C167 1.390 . S
C163 C162 1.387 . S
C163 C164 1.401 . S
C163 H184 0.930 . S
C164 C163 1.401 . S
C164 C165 1.376 . S
C164 C173 1.511 . S
C165 C164 1.376 . S
C165 C166 1.392 . S
C165 H186 0.931 . S
C166 C165 1.392 . S
C166 C167 1.361 . S
C166 C168 1.500 . S
C167 C162 1.390 . S
C167 C166 1.361 . S
C167 H185 0.931 . S
C168 C166 1.500 . S
C168 C169 1.371 . S
C168 C170 1.365 . S
C169 C168 1.371 . S
C169 C179 1.386 . S
C169 H187 0.931 . S
C170 C168 1.365 . S
C170 C171 1.409 . S
C170 H188 0.929 . S
C171 C170 1.409 . S
C171 C172 1.380 . S
C171 H189 0.930 1_565 S
C172 C171 1.380 . S
C172 C179 1.357 . S
C173 C164 1.511 . S
C173 C174 1.341 . S
C173 C175 1.371 . S
C174 C173 1.341 . S
C174 C178 1.394 . S
C174 H190 0.930 . S
C175 C173 1.371 . S
C175 C176 1.392 . S
C175 H191 0.931 . S
C176 C175 1.392 . S
C176 C177 1.331 . S
C176 H194 0.932 . S
C177 C176 1.331 . S
C177 C178 1.336 . S
C178 C174 1.394 . S
C178 C177 1.336 . S
C178 H193 0.929 . S
C179 C169 1.386 . S
C179 C172 1.357 . S
C179 H192 0.928 . S
H180 C156 0.931 . S
H181 C158 0.930 . S
H182 C160 0.929 . S
H183 C161 0.931 . S
H184 C163 0.930 . S
H185 C167 0.931 . S
H186 C165 0.931 . S
H187 C169 0.931 . S
H188 C170 0.929 . S
H189 C171 0.930 1_545 S
H190 C174 0.930 . S
H191 C175 0.931 . S
H192 C179 0.928 . S
H193 C178 0.929 . S
H194 C176 0.932 . S
C195 C196 1.386 . S
C195 C197 1.397 . S
C195 H219 0.931 . S
C196 C195 1.386 . S
C196 C200 1.397 . S
C197 C195 1.397 . S
C197 C198 1.384 . S
C197 H220 0.930 . S
C198 C197 1.384 . S
C198 C199 1.377 . S
C198 C201 1.481 . S
C199 C198 1.377 . S
C199 C200 1.389 . S
C199 H221 0.929 . S
C200 C196 1.397 . S
C200 C199 1.389 . S
C200 H222 0.931 . S
C201 C198 1.481 . S
C201 C202 1.387 . S
C201 C206 1.390 . S
C202 C201 1.387 . S
C202 C203 1.401 . S
C202 H223 0.930 . S
C203 C202 1.401 . S
C203 C204 1.376 . S
C203 C212 1.511 . S
C204 C203 1.376 . S
C204 C205 1.392 . S
C204 H225 0.931 . S
C205 C204 1.392 . S
C205 C206 1.361 . S
C205 C207 1.500 . S
C206 C201 1.390 . S
C206 C205 1.361 . S
C206 H224 0.931 . S
C207 C205 1.500 . S
C207 C208 1.371 . S
C207 C209 1.365 . S
C208 C207 1.371 . S
C208 C218 1.386 . S
C208 H226 0.931 . S
C209 C207 1.365 . S
C209 C210 1.409 . S
C209 H227 0.929 . S
C210 C209 1.409 . S
C210 C211 1.380 . S
C210 H228 0.930 . S
C211 C210 1.380 . S
C211 C218 1.357 . S
C212 C203 1.511 . S
C212 C213 1.341 . S
C212 C214 1.371 . S
C213 C212 1.341 . S
C213 C217 1.394 . S
C213 H229 0.930 . S
C214 C212 1.371 . S
C214 C215 1.392 . S
C214 H230 0.931 . S
C215 C214 1.392 . S
C215 C216 1.331 . S
C215 H233 0.932 . S
C216 C215 1.331 . S
C216 C217 1.336 . S
C217 C213 1.394 . S
C217 C216 1.336 . S
C217 H232 0.929 1_455 S
C218 C208 1.386 . S
C218 C211 1.357 . S
C218 H231 0.928 . S
H219 C195 0.931 . S
H220 C197 0.930 . S
H221 C199 0.929 . S
H222 C200 0.931 . S
H223 C202 0.930 . S
H224 C206 0.931 . S
H225 C204 0.931 . S
H226 C208 0.931 . S
H227 C209 0.929 . S
H228 C210 0.930 . S
H229 C213 0.930 . S
H230 C214 0.931 . S
H231 C218 0.928 . S
H232 C217 0.929 1_655 S
H233 C215 0.932 . S
C234 C235 1.386 . S
C234 C236 1.397 . S
C234 H258 0.931 . S
C235 C234 1.386 . S
C235 C239 1.397 . S
C236 C234 1.397 . S
C236 C237 1.384 . S
C236 H259 0.930 . S
C237 C236 1.384 . S
C237 C238 1.377 . S
C237 C240 1.481 . S
C238 C237 1.377 . S
C238 C239 1.389 . S
C238 H260 0.929 . S
C239 C235 1.397 . S
C239 C238 1.389 . S
C239 H261 0.931 . S
C240 C237 1.481 . S
C240 C241 1.387 . S
C240 C245 1.390 . S
C241 C240 1.387 . S
C241 C242 1.401 . S
C241 H262 0.930 . S
C242 C241 1.401 . S
C242 C243 1.376 . S
C242 C251 1.511 . S
C243 C242 1.376 . S
C243 C244 1.392 . S
C243 H264 0.931 . S
C244 C243 1.392 . S
C244 C245 1.361 . S
C244 C246 1.500 . S
C245 C240 1.390 . S
C245 C244 1.361 . S
C245 H263 0.931 . S
C246 C244 1.500 . S
C246 C247 1.371 . S
C246 C248 1.365 . S
C247 C246 1.371 . S
C247 C257 1.386 . S
C247 H265 0.931 . S
C248 C246 1.365 . S
C248 C249 1.409 . S
C248 H266 0.929 . S
C249 C248 1.409 . S
C249 C250 1.380 . S
C249 H267 0.930 . S
C250 C249 1.380 . S
C250 C257 1.357 . S
C251 C242 1.511 . S
C251 C252 1.341 . S
C251 C253 1.371 . S
C252 C251 1.341 . S
C252 C256 1.394 . S
C252 H268 0.930 . S
C253 C251 1.371 . S
C253 C254 1.392 . S
C253 H269 0.931 . S
C254 C253 1.392 . S
C254 C255 1.331 . S
C254 H272 0.932 . S
C255 C254 1.331 . S
C255 C256 1.336 . S
C256 C252 1.394 . S
C256 C255 1.336 . S
C256 H271 0.929 . S
C257 C247 1.386 . S
C257 C250 1.357 . S
C257 H270 0.928 . S
H258 C234 0.931 . S
H259 C236 0.930 . S
H260 C238 0.929 . S
H261 C239 0.931 . S
H262 C241 0.930 . S
H263 C245 0.931 . S
H264 C243 0.931 . S
H265 C247 0.931 . S
H266 C248 0.929 . S
H267 C249 0.930 . S
H268 C252 0.930 . S
H269 C253 0.931 . S
H270 C257 0.928 . S
H271 C256 0.929 . S
H272 C254 0.932 . S
C273 C274 1.386 . S
C273 C275 1.397 . S
C273 H297 0.931 . S
C274 C273 1.386 . S
C274 C278 1.397 . S
C275 C273 1.397 . S
C275 C276 1.384 . S
C275 H298 0.930 . S
C276 C275 1.384 . S
C276 C277 1.377 . S
C276 C279 1.481 . S
C277 C276 1.377 . S
C277 C278 1.389 . S
C277 H299 0.929 . S
C278 C274 1.397 . S
C278 C277 1.389 . S
C278 H300 0.931 . S
C279 C276 1.481 . S
C279 C280 1.387 . S
C279 C284 1.390 . S
C280 C279 1.387 . S
C280 C281 1.401 . S
C280 H301 0.930 . S
C281 C280 1.401 . S
C281 C282 1.376 . S
C281 C290 1.511 . S
C282 C281 1.376 . S
C282 C283 1.392 . S
C282 H303 0.931 . S
C283 C282 1.392 . S
C283 C284 1.361 . S
C283 C285 1.500 . S
C284 C279 1.390 . S
C284 C283 1.361 . S
C284 H302 0.931 . S
C285 C283 1.500 . S
C285 C286 1.371 . S
C285 C287 1.365 . S
C286 C285 1.371 . S
C286 C296 1.386 . S
C286 H304 0.931 . S
C287 C285 1.365 . S
C287 C288 1.409 . S
C287 H305 0.929 . S
C288 C287 1.409 . S
C288 C289 1.380 . S
C288 H306 0.930 . S
C289 C288 1.380 . S
C289 C296 1.357 . S
C290 C281 1.511 . S
C290 C291 1.341 . S
C290 C292 1.371 . S
C291 C290 1.341 . S
C291 C295 1.394 . S
C291 H307 0.930 . S
C292 C290 1.371 . S
C292 C293 1.392 . S
C292 H308 0.931 . S
C293 C292 1.392 . S
C293 C294 1.331 . S
C293 H311 0.932 . S
C294 C293 1.331 . S
C294 C295 1.336 . S
C295 C291 1.394 . S
C295 C294 1.336 . S
C295 H310 0.929 . S
C296 C286 1.386 . S
C296 C289 1.357 . S
C296 H309 0.928 . S
H297 C273 0.931 . S
H298 C275 0.930 . S
H299 C277 0.929 . S
H300 C278 0.931 . S
H301 C280 0.930 . S
H302 C284 0.931 . S
H303 C282 0.931 . S
H304 C286 0.931 . S
H305 C287 0.929 . S
H306 C288 0.930 . S
H307 C291 0.930 . S
H308 C292 0.931 . S
H309 C296 0.928 . S
H310 C295 0.929 . S
H311 C293 0.932 . S
C312 C313 1.386 . S
C312 C314 1.397 . S
C312 H336 0.931 . S
C313 C312 1.386 . S
C313 C317 1.397 . S
C314 C312 1.397 . S
C314 C315 1.384 . S
C314 H337 0.930 . S
C315 C314 1.384 . S
C315 C316 1.377 . S
C315 C318 1.481 . S
C316 C315 1.377 . S
C316 C317 1.389 . S
C316 H338 0.929 . S
C317 C313 1.397 . S
C317 C316 1.389 . S
C317 H339 0.931 . S
C318 C315 1.481 . S
C318 C319 1.387 . S
C318 C323 1.390 . S
C319 C318 1.387 . S
C319 C320 1.401 . S
C319 H340 0.930 . S
C320 C319 1.401 . S
C320 C321 1.376 . S
C320 C329 1.511 . S
C321 C320 1.376 . S
C321 C322 1.392 . S
C321 H342 0.931 . S
C322 C321 1.392 . S
C322 C323 1.361 . S
C322 C324 1.500 . S
C323 C318 1.390 . S
C323 C322 1.361 . S
C323 H341 0.931 . S
C324 C322 1.500 . S
C324 C325 1.371 . S
C324 C326 1.365 . S
C325 C324 1.371 . S
C325 C335 1.386 . S
C325 H343 0.931 . S
C326 C324 1.365 . S
C326 C327 1.409 . S
C326 H344 0.929 . S
C327 C326 1.409 . S
C327 C328 1.380 . S
C327 H345 0.930 . S
C328 C327 1.380 . S
C328 C335 1.357 . S
C329 C320 1.511 . S
C329 C330 1.341 . S
C329 C331 1.371 . S
C330 C329 1.341 . S
C330 C334 1.394 . S
C330 H346 0.930 . S
C331 C329 1.371 . S
C331 C332 1.392 . S
C331 H347 0.931 . S
C332 C331 1.392 . S
C332 C333 1.331 . S
C332 H350 0.932 . S
C333 C332 1.331 . S
C333 C334 1.336 . S
C334 C330 1.394 . S
C334 C333 1.336 . S
C334 H349 0.929 . S
C335 C325 1.386 . S
C335 C328 1.357 . S
C335 H348 0.928 . S
H336 C312 0.931 . S
H337 C314 0.930 . S
H338 C316 0.929 . S
H339 C317 0.931 . S
H340 C319 0.930 . S
H341 C323 0.931 . S
H342 C321 0.931 . S
H343 C325 0.931 . S
H344 C326 0.929 . S
H345 C327 0.930 . S
H346 C330 0.930 . S
H347 C331 0.931 . S
H348 C335 0.928 . S
H349 C334 0.929 . S
H350 C332 0.932 . S
C351 C352 1.386 . S
C351 C353 1.397 . S
C351 H375 0.931 . S
C352 C351 1.386 . S
C352 C356 1.397 . S
C353 C351 1.397 . S
C353 C354 1.384 . S
C353 H376 0.930 . S
C354 C353 1.384 . S
C354 C355 1.377 . S
C354 C357 1.481 . S
C355 C354 1.377 . S
C355 C356 1.389 . S
C355 H377 0.929 . S
C356 C352 1.397 . S
C356 C355 1.389 . S
C356 H378 0.931 . S
C357 C354 1.481 . S
C357 C358 1.387 . S
C357 C362 1.390 . S
C358 C357 1.387 . S
C358 C359 1.401 . S
C358 H379 0.930 . S
C359 C358 1.401 . S
C359 C360 1.376 . S
C359 C368 1.511 . S
C360 C359 1.376 . S
C360 C361 1.392 . S
C360 H381 0.931 . S
C361 C360 1.392 . S
C361 C362 1.361 . S
C361 C363 1.500 . S
C362 C357 1.390 . S
C362 C361 1.361 . S
C362 H380 0.931 . S
C363 C361 1.500 . S
C363 C364 1.371 . S
C363 C365 1.365 . S
C364 C363 1.371 . S
C364 C374 1.386 . S
C364 H382 0.931 . S
C365 C363 1.365 . S
C365 C366 1.409 . S
C365 H383 0.929 . S
C366 C365 1.409 . S
C366 C367 1.380 . S
C366 H384 0.930 . S
C367 C366 1.380 . S
C367 C374 1.357 . S
C368 C359 1.511 . S
C368 C369 1.341 . S
C368 C370 1.371 . S
C369 C368 1.341 . S
C369 C373 1.394 . S
C369 H385 0.930 . S
C370 C368 1.371 . S
C370 C371 1.392 . S
C370 H386 0.931 . S
C371 C370 1.392 . S
C371 C372 1.331 . S
C371 H389 0.932 . S
C372 C371 1.331 . S
C372 C373 1.336 . S
C373 C369 1.394 . S
C373 C372 1.336 . S
C373 H388 0.929 . S
C374 C364 1.386 . S
C374 C367 1.357 . S
C374 H387 0.928 . S
H375 C351 0.931 . S
H376 C353 0.930 . S
H377 C355 0.929 . S
H378 C356 0.931 . S
H379 C358 0.930 . S
H380 C362 0.931 . S
H381 C360 0.931 . S
H382 C364 0.931 . S
H383 C365 0.929 . S
H384 C366 0.930 . S
H385 C369 0.930 . S
H386 C370 0.931 . S
H387 C374 0.928 . S
H388 C373 0.929 . S
H389 C371 0.932 . S
C390 C391 1.386 . S
C390 C392 1.397 . S
C390 H414 0.931 . S
C391 C390 1.386 . S
C391 C395 1.397 . S
C392 C390 1.397 . S
C392 C393 1.384 . S
C392 H415 0.930 . S
C393 C392 1.384 . S
C393 C394 1.377 . S
C393 C396 1.481 . S
C394 C393 1.377 . S
C394 C395 1.389 . S
C394 H416 0.929 . S
C395 C391 1.397 . S
C395 C394 1.389 . S
C395 H417 0.931 . S
C396 C393 1.481 . S
C396 C397 1.387 . S
C396 C401 1.390 . S
C397 C396 1.387 . S
C397 C398 1.401 . S
C397 H418 0.930 . S
C398 C397 1.401 . S
C398 C399 1.376 . S
C398 C407 1.511 . S
C399 C398 1.376 . S
C399 C400 1.392 . S
C399 H420 0.931 . S
C400 C399 1.392 . S
C400 C401 1.361 . S
C400 C402 1.500 . S
C401 C396 1.390 . S
C401 C400 1.361 . S
C401 H419 0.931 . S
C402 C400 1.500 . S
C402 C403 1.371 . S
C402 C404 1.365 . S
C403 C402 1.371 . S
C403 C413 1.386 . S
C403 H421 0.931 . S
C404 C402 1.365 . S
C404 C405 1.409 . S
C404 H422 0.929 . S
C405 C404 1.409 . S
C405 C406 1.380 . S
C405 H423 0.930 . S
C406 C405 1.380 . S
C406 C413 1.357 . S
C407 C398 1.511 . S
C407 C408 1.341 . S
C407 C409 1.371 . S
C408 C407 1.341 . S
C408 C412 1.394 . S
C408 H424 0.930 . S
C409 C407 1.371 . S
C409 C410 1.392 . S
C409 H425 0.931 . S
C410 C409 1.392 . S
C410 C411 1.331 . S
C410 H428 0.932 . S
C411 C410 1.331 . S
C411 C412 1.336 . S
C412 C408 1.394 . S
C412 C411 1.336 . S
C412 H427 0.929 . S
C413 C403 1.386 . S
C413 C406 1.357 . S
C413 H426 0.928 . S
H414 C390 0.931 . S
H415 C392 0.930 . S
H416 C394 0.929 . S
H417 C395 0.931 . S
H418 C397 0.930 . S
H419 C401 0.931 . S
H420 C399 0.931 . S
H421 C403 0.931 . S
H422 C404 0.929 . S
H423 C405 0.930 . S
H424 C408 0.930 . S
H425 C409 0.931 . S
H426 C413 0.928 . S
H427 C412 0.929 . S
H428 C410 0.932 . S
C429 C430 1.386 . S
C429 C431 1.397 . S
C429 H453 0.931 . S
C430 C429 1.386 . S
C430 C434 1.397 . S
C431 C429 1.397 . S
C431 C432 1.384 . S
C431 H454 0.930 . S
C432 C431 1.384 . S
C432 C433 1.377 . S
C432 C435 1.481 . S
C433 C432 1.377 . S
C433 C434 1.389 . S
C433 H455 0.929 . S
C434 C430 1.397 . S
C434 C433 1.389 . S
C434 H456 0.931 . S
C435 C432 1.481 . S
C435 C436 1.387 . S
C435 C440 1.390 . S
C436 C435 1.387 . S
C436 C437 1.401 . S
C436 H457 0.930 . S
C437 C436 1.401 . S
C437 C438 1.376 . S
C437 C446 1.511 . S
C438 C437 1.376 . S
C438 C439 1.392 . S
C438 H459 0.931 . S
C439 C438 1.392 . S
C439 C440 1.361 . S
C439 C441 1.500 . S
C440 C435 1.390 . S
C440 C439 1.361 . S
C440 H458 0.931 . S
C441 C439 1.500 . S
C441 C442 1.371 . S
C441 C443 1.365 . S
C442 C441 1.371 . S
C442 C452 1.386 . S
C442 H460 0.931 . S
C443 C441 1.365 . S
C443 C444 1.409 . S
C443 H461 0.929 . S
C444 C443 1.409 . S
C444 C445 1.380 . S
C444 H462 0.930 . S
C445 C444 1.380 . S
C445 C452 1.357 . S
C446 C437 1.511 . S
C446 C447 1.341 . S
C446 C448 1.371 . S
C447 C446 1.341 . S
C447 C451 1.394 . S
C447 H463 0.930 . S
C448 C446 1.371 . S
C448 C449 1.392 . S
C448 H464 0.931 . S
C449 C448 1.392 . S
C449 C450 1.331 . S
C449 H467 0.932 . S
C450 C449 1.331 . S
C450 C451 1.336 . S
C451 C447 1.394 . S
C451 C450 1.336 . S
C451 H466 0.929 . S
C452 C442 1.386 . S
C452 C445 1.357 . S
C452 H465 0.928 . S
H453 C429 0.931 . S
H454 C431 0.930 . S
H455 C433 0.929 . S
H456 C434 0.931 . S
H457 C436 0.930 . S
H458 C440 0.931 . S
H459 C438 0.931 . S
H460 C442 0.931 . S
H461 C443 0.929 . S
H462 C444 0.930 . S
H463 C447 0.930 . S
H464 C448 0.931 . S
H465 C452 0.928 . S
H466 C451 0.929 . S
H467 C449 0.932 . S
C468 C469 1.386 . S
C468 C470 1.397 . S
C468 H492 0.931 . S
C469 C468 1.386 . S
C469 C473 1.397 . S
C470 C468 1.397 . S
C470 C471 1.384 . S
C470 H493 0.930 . S
C471 C470 1.384 . S
C471 C472 1.377 . S
C471 C474 1.481 . S
C472 C471 1.377 . S
C472 C473 1.389 . S
C472 H494 0.929 . S
C473 C469 1.397 . S
C473 C472 1.389 . S
C473 H495 0.931 . S
C474 C471 1.481 . S
C474 C475 1.387 . S
C474 C479 1.390 . S
C475 C474 1.387 . S
C475 C476 1.401 . S
C475 H496 0.930 . S
C476 C475 1.401 . S
C476 C477 1.376 . S
C476 C485 1.511 . S
C477 C476 1.376 . S
C477 C478 1.392 . S
C477 H498 0.931 . S
C478 C477 1.392 . S
C478 C479 1.361 . S
C478 C480 1.500 . S
C479 C474 1.390 . S
C479 C478 1.361 . S
C479 H497 0.931 . S
C480 C478 1.500 . S
C480 C481 1.371 . S
C480 C482 1.365 . S
C481 C480 1.371 . S
C481 C491 1.386 . S
C481 H499 0.931 . S
C482 C480 1.365 . S
C482 C483 1.409 . S
C482 H500 0.929 . S
C483 C482 1.409 . S
C483 C484 1.380 . S
C483 H501 0.930 . S
C484 C483 1.380 . S
C484 C491 1.357 . S
C485 C476 1.511 . S
C485 C486 1.341 . S
C485 C487 1.371 . S
C486 C485 1.341 . S
C486 C490 1.394 . S
C486 H502 0.930 . S
C487 C485 1.371 . S
C487 C488 1.392 . S
C487 H503 0.931 . S
C488 C487 1.392 . S
C488 C489 1.331 . S
C488 H506 0.932 . S
C489 C488 1.331 . S
C489 C490 1.336 . S
C490 C486 1.394 . S
C490 C489 1.336 . S
C490 H505 0.929 . S
C491 C481 1.386 . S
C491 C484 1.357 . S
C491 H504 0.928 . S
H492 C468 0.931 . S
H493 C470 0.930 . S
H494 C472 0.929 . S
H495 C473 0.931 . S
H496 C475 0.930 . S
H497 C479 0.931 . S
H498 C477 0.931 . S
H499 C481 0.931 . S
H500 C482 0.929 . S
H501 C483 0.930 . S
H502 C486 0.930 . S
H503 C487 0.931 . S
H504 C491 0.928 . S
H505 C490 0.929 . S
H506 C488 0.932 . S
C507 C508 1.386 . S
C507 C509 1.397 . S
C507 H531 0.931 . S
C508 C507 1.386 . S
C508 C512 1.397 . S
C509 C507 1.397 . S
C509 C510 1.384 . S
C509 H532 0.930 . S
C510 C509 1.384 . S
C510 C511 1.377 . S
C510 C513 1.481 . S
C511 C510 1.377 . S
C511 C512 1.389 . S
C511 H533 0.929 . S
C512 C508 1.397 . S
C512 C511 1.389 . S
C512 H534 0.931 . S
C513 C510 1.481 . S
C513 C514 1.387 . S
C513 C518 1.390 . S
C514 C513 1.387 . S
C514 C515 1.401 . S
C514 H535 0.930 . S
C515 C514 1.401 . S
C515 C516 1.376 . S
C515 C524 1.511 . S
C516 C515 1.376 . S
C516 C517 1.392 . S
C516 H537 0.931 . S
C517 C516 1.392 . S
C517 C518 1.361 . S
C517 C519 1.500 . S
C518 C513 1.390 . S
C518 C517 1.361 . S
C518 H536 0.931 . S
C519 C517 1.500 . S
C519 C520 1.371 . S
C519 C521 1.365 . S
C520 C519 1.371 . S
C520 C530 1.386 . S
C520 H538 0.931 . S
C521 C519 1.365 . S
C521 C522 1.409 . S
C521 H539 0.929 . S
C522 C521 1.409 . S
C522 C523 1.380 . S
C522 H540 0.930 . S
C523 C522 1.380 . S
C523 C530 1.357 . S
C524 C515 1.511 . S
C524 C525 1.341 . S
C524 C526 1.371 . S
C525 C524 1.341 . S
C525 C529 1.394 . S
C525 H541 0.930 . S
C526 C524 1.371 . S
C526 C527 1.392 . S
C526 H542 0.931 . S
C527 C526 1.392 . S
C527 C528 1.331 . S
C527 H545 0.932 . S
C528 C527 1.331 . S
C528 C529 1.336 . S
C529 C525 1.394 . S
C529 C528 1.336 . S
C529 H544 0.929 . S
C530 C520 1.386 . S
C530 C523 1.357 . S
C530 H543 0.928 . S
H531 C507 0.931 . S
H532 C509 0.930 . S
H533 C511 0.929 . S
H534 C512 0.931 . S
H535 C514 0.930 . S
H536 C518 0.931 . S
H537 C516 0.931 . S
H538 C520 0.931 . S
H539 C521 0.929 . S
H540 C522 0.930 . S
H541 C525 0.930 . S
H542 C526 0.931 . S
H543 C530 0.928 . S
H544 C529 0.929 . S
H545 C527 0.932 . S
C546 C547 1.386 . S
C546 C548 1.397 . S
C546 H570 0.931 . S
C547 C546 1.386 . S
C547 C551 1.397 . S
C548 C546 1.397 . S
C548 C549 1.384 . S
C548 H571 0.930 . S
C549 C548 1.384 . S
C549 C550 1.377 . S
C549 C552 1.481 . S
C550 C549 1.377 . S
C550 C551 1.389 . S
C550 H572 0.929 . S
C551 C547 1.397 . S
C551 C550 1.389 . S
C551 H573 0.931 . S
C552 C549 1.481 . S
C552 C553 1.387 . S
C552 C557 1.390 . S
C553 C552 1.387 . S
C553 C554 1.401 . S
C553 H574 0.930 . S
C554 C553 1.401 . S
C554 C555 1.376 . S
C554 C563 1.511 . S
C555 C554 1.376 . S
C555 C556 1.392 . S
C555 H576 0.931 . S
C556 C555 1.392 . S
C556 C557 1.361 . S
C556 C558 1.500 . S
C557 C552 1.390 . S
C557 C556 1.361 . S
C557 H575 0.931 . S
C558 C556 1.500 . S
C558 C559 1.371 . S
C558 C560 1.365 . S
C559 C558 1.371 . S
C559 C569 1.386 . S
C559 H577 0.931 . S
C560 C558 1.365 . S
C560 C561 1.409 . S
C560 H578 0.929 . S
C561 C560 1.409 . S
C561 C562 1.380 . S
C561 H579 0.930 . S
C562 C561 1.380 . S
C562 C569 1.357 . S
C563 C554 1.511 . S
C563 C564 1.341 . S
C563 C565 1.371 . S
C564 C563 1.341 . S
C564 C568 1.394 . S
C564 H580 0.930 . S
C565 C563 1.371 . S
C565 C566 1.392 . S
C565 H581 0.931 . S
C566 C565 1.392 . S
C566 C567 1.331 . S
C566 H584 0.932 . S
C567 C566 1.331 . S
C567 C568 1.336 . S
C568 C564 1.394 . S
C568 C567 1.336 . S
C568 H583 0.929 . S
C569 C559 1.386 . S
C569 C562 1.357 . S
C569 H582 0.928 . S
H570 C546 0.931 . S
H571 C548 0.930 . S
H572 C550 0.929 . S
H573 C551 0.931 . S
H574 C553 0.930 . S
H575 C557 0.931 . S
H576 C555 0.931 . S
H577 C559 0.931 . S
H578 C560 0.929 . S
H579 C561 0.930 . S
H580 C564 0.930 . S
H581 C565 0.931 . S
H582 C569 0.928 . S
H583 C568 0.929 . S
H584 C566 0.932 . S
C585 C586 1.386 . S
C585 C587 1.397 . S
C585 H609 0.931 . S
C586 C585 1.386 . S
C586 C590 1.397 . S
C587 C585 1.397 . S
C587 C588 1.384 . S
C587 H610 0.930 . S
C588 C587 1.384 . S
C588 C589 1.377 . S
C588 C591 1.481 . S
C589 C588 1.377 . S
C589 C590 1.389 . S
C589 H611 0.929 . S
C590 C586 1.397 . S
C590 C589 1.389 . S
C590 H612 0.931 . S
C591 C588 1.481 . S
C591 C592 1.387 . S
C591 C596 1.390 . S
C592 C591 1.387 . S
C592 C593 1.401 . S
C592 H613 0.930 . S
C593 C592 1.401 . S
C593 C594 1.376 . S
C593 C602 1.511 . S
C594 C593 1.376 . S
C594 C595 1.392 . S
C594 H615 0.931 . S
C595 C594 1.392 . S
C595 C596 1.361 . S
C595 C597 1.500 . S
C596 C591 1.390 . S
C596 C595 1.361 . S
C596 H614 0.931 . S
C597 C595 1.500 . S
C597 C598 1.371 . S
C597 C599 1.365 . S
C598 C597 1.371 . S
C598 C608 1.386 . S
C598 H616 0.931 . S
C599 C597 1.365 . S
C599 C600 1.409 . S
C599 H617 0.929 . S
C600 C599 1.409 . S
C600 C601 1.380 . S
C600 H618 0.930 . S
C601 C600 1.380 . S
C601 C608 1.357 . S
C602 C593 1.511 . S
C602 C603 1.341 . S
C602 C604 1.371 . S
C603 C602 1.341 . S
C603 C607 1.394 . S
C603 H619 0.930 . S
C604 C602 1.371 . S
C604 C605 1.392 . S
C604 H620 0.931 . S
C605 C604 1.392 . S
C605 C606 1.331 . S
C605 H623 0.932 . S
C606 C605 1.331 . S
C606 C607 1.336 . S
C607 C603 1.394 . S
C607 C606 1.336 . S
C607 H622 0.929 . S
C608 C598 1.386 . S
C608 C601 1.357 . S
C608 H621 0.928 . S
H609 C585 0.931 . S
H610 C587 0.930 . S
H611 C589 0.929 . S
H612 C590 0.931 . S
H613 C592 0.930 . S
H614 C596 0.931 . S
H615 C594 0.931 . S
H616 C598 0.931 . S
H617 C599 0.929 . S
H618 C600 0.930 . S
H619 C603 0.930 . S
H620 C604 0.931 . S
H621 C608 0.928 . S
H622 C607 0.929 . S
H623 C605 0.932 . S
C624 C625 1.386 . S
C624 C626 1.397 . S
C624 H648 0.931 . S
C625 C624 1.386 . S
C625 C629 1.397 . S
C626 C624 1.397 . S
C626 C627 1.384 . S
C626 H649 0.930 . S
C627 C626 1.384 . S
C627 C628 1.377 . S
C627 C630 1.481 . S
C628 C627 1.377 . S
C628 C629 1.389 . S
C628 H650 0.929 . S
C629 C625 1.397 . S
C629 C628 1.389 . S
C629 H651 0.931 . S
C630 C627 1.481 . S
C630 C631 1.387 . S
C630 C635 1.390 . S
C631 C630 1.387 . S
C631 C632 1.401 . S
C631 H652 0.930 . S
C632 C631 1.401 . S
C632 C633 1.376 . S
C632 C641 1.511 . S
C633 C632 1.376 . S
C633 C634 1.392 . S
C633 H654 0.931 . S
C634 C633 1.392 . S
C634 C635 1.361 . S
C634 C636 1.500 . S
C635 C630 1.390 . S
C635 C634 1.361 . S
C635 H653 0.931 . S
C636 C634 1.500 . S
C636 C637 1.371 . S
C636 C638 1.365 . S
C637 C636 1.371 . S
C637 C647 1.386 . S
C637 H655 0.931 . S
C638 C636 1.365 . S
C638 C639 1.409 . S
C638 H656 0.929 . S
C639 C638 1.409 . S
C639 C640 1.380 . S
C639 H657 0.930 . S
C640 C639 1.380 . S
C640 C647 1.357 . S
C641 C632 1.511 . S
C641 C642 1.341 . S
C641 C643 1.371 . S
C642 C641 1.341 . S
C642 C646 1.394 . S
C642 H658 0.930 . S
C643 C641 1.371 . S
C643 C644 1.392 . S
C643 H659 0.931 . S
C644 C643 1.392 . S
C644 C645 1.331 . S
C644 H662 0.932 . S
C645 C644 1.331 . S
C645 C646 1.336 . S
C646 C642 1.394 . S
C646 C645 1.336 . S
C646 H661 0.929 . S
C647 C637 1.386 . S
C647 C640 1.357 . S
C647 H660 0.928 . S
H648 C624 0.931 . S
H649 C626 0.930 . S
H650 C628 0.929 . S
H651 C629 0.931 . S
H652 C631 0.930 . S
H653 C635 0.931 . S
H654 C633 0.931 . S
H655 C637 0.931 . S
H656 C638 0.929 . S
H657 C639 0.930 . S
H658 C642 0.930 . S
H659 C643 0.931 . S
H660 C647 0.928 . S
H661 C646 0.929 . S
H662 C644 0.932 . S
C663 C664 1.386 . S
C663 C665 1.397 . S
C663 H687 0.931 . S
C664 C663 1.386 . S
C664 C668 1.397 . S
C665 C663 1.397 . S
C665 C666 1.384 . S
C665 H688 0.930 . S
C666 C665 1.384 . S
C666 C667 1.377 . S
C666 C669 1.481 . S
C667 C666 1.377 . S
C667 C668 1.389 . S
C667 H689 0.929 . S
C668 C664 1.397 . S
C668 C667 1.389 . S
C668 H690 0.931 . S
C669 C666 1.481 . S
C669 C670 1.387 . S
C669 C674 1.390 . S
C670 C669 1.387 . S
C670 C671 1.401 . S
C670 H691 0.930 . S
C671 C670 1.401 . S
C671 C672 1.376 . S
C671 C680 1.511 . S
C672 C671 1.376 . S
C672 C673 1.392 . S
C672 H693 0.931 . S
C673 C672 1.392 . S
C673 C674 1.361 . S
C673 C675 1.500 . S
C674 C669 1.390 . S
C674 C673 1.361 . S
C674 H692 0.931 . S
C675 C673 1.500 . S
C675 C676 1.371 . S
C675 C677 1.365 . S
C676 C675 1.371 . S
C676 C686 1.386 . S
C676 H694 0.931 . S
C677 C675 1.365 . S
C677 C678 1.409 . S
C677 H695 0.929 . S
C678 C677 1.409 . S
C678 C679 1.380 . S
C678 H696 0.930 . S
C679 C678 1.380 . S
C679 C686 1.357 . S
C680 C671 1.511 . S
C680 C681 1.341 . S
C680 C682 1.371 . S
C681 C680 1.341 . S
C681 C685 1.394 . S
C681 H697 0.930 . S
C682 C680 1.371 . S
C682 C683 1.392 . S
C682 H698 0.931 . S
C683 C682 1.392 . S
C683 C684 1.331 . S
C683 H701 0.932 . S
C684 C683 1.331 . S
C684 C685 1.336 . S
C685 C681 1.394 . S
C685 C684 1.336 . S
C685 H700 0.929 . S
C686 C676 1.386 . S
C686 C679 1.357 . S
C686 H699 0.928 . S
H687 C663 0.931 . S
H688 C665 0.930 . S
H689 C667 0.929 . S
H690 C668 0.931 . S
H691 C670 0.930 . S
H692 C674 0.931 . S
H693 C672 0.931 . S
H694 C676 0.931 . S
H695 C677 0.929 . S
H696 C678 0.930 . S
H697 C681 0.930 . S
H698 C682 0.931 . S
H699 C686 0.928 . S
H700 C685 0.929 . S
H701 C683 0.932 . S
Tb702 N733 2.660 . S
Tb702 N740 2.600 . S
Tb702 O746 2.546 . S
Tb702 O747 2.610 1_565 S
Tb702 O749 2.320 1_565 S
Tb702 O750 2.552 1_565 S
Tb702 O751 2.413 . S
Tb702 O753 2.362 1_556 S
Tb702 O754 2.421 . S
Tb702 C766 2.833 . S
C703 C706 1.432 . S
C703 C707 1.414 . S
C703 N710 1.359 . S
C704 C706 1.417 . S
C704 C708 1.432 . S
C704 C716 1.410 . S
C705 C707 1.444 . S
C705 C708 1.317 . S
C705 H728 0.929 . S
C706 C703 1.432 . S
C706 C704 1.417 . S
C706 N714 1.360 . S
C707 C703 1.414 . S
C707 C705 1.444 . S
C707 C712 1.385 . S
C708 C704 1.432 . S
C708 C705 1.317 . S
C708 H720 0.930 . S
C709 C711 1.392 . S
C709 C712 1.370 . S
C709 H721 0.931 . S
N710 C703 1.359 . S
N710 C711 1.327 . S
N710 Tb713 2.600 . S
C711 C709 1.392 . S
C711 N710 1.327 . S
C711 H718 0.930 . S
C712 C707 1.385 . S
C712 C709 1.370 . S
C712 H731 0.930 . S
Tb713 N710 2.600 . S
Tb713 N714 2.660 . S
Tb713 O747 2.362 1_554 S
Tb713 O748 2.421 . S
Tb713 O752 2.546 . S
Tb713 O753 2.610 1_545 S
Tb713 O755 2.320 1_545 S
Tb713 O756 2.552 1_545 S
Tb713 O757 2.413 . S
Tb713 C777 2.833 . S
N714 C706 1.360 . S
N714 Tb713 2.660 . S
N714 C715 1.305 . S
C715 N714 1.305 . S
C715 C717 1.407 . S
C715 H722 0.930 . S
C716 C704 1.410 . S
C716 C717 1.345 . S
C716 H724 0.930 . S
C717 C715 1.407 . S
C717 C716 1.345 . S
C717 H719 0.930 . S
H718 C711 0.930 . S
H719 C717 0.930 . S
H720 C708 0.930 . S
H721 C709 0.931 . S
H722 C715 0.930 . S
H723 C737 0.930 . S
H724 C716 0.930 . S
H725 C743 0.930 . S
H726 C734 0.930 . S
H727 C741 0.931 . S
H728 C705 0.929 . S
H729 C735 0.930 . S
H730 C768 0.930 . S
H731 C712 0.930 . S
H732 C767 0.929 . S
N733 Tb702 2.660 . S
N733 C734 1.305 . S
N733 C738 1.360 . S
C734 H726 0.930 . S
C734 N733 1.305 . S
C734 C737 1.407 . S
C735 H729 0.930 . S
C735 C736 1.410 . S
C735 C737 1.345 . S
C736 C735 1.410 . S
C736 C738 1.417 . S
C736 C768 1.432 . S
C737 H723 0.930 . S
C737 C734 1.407 . S
C737 C735 1.345 . S
C738 N733 1.360 . S
C738 C736 1.417 . S
C738 C742 1.432 . S
H739 C744 0.930 . S
N740 Tb702 2.600 . S
N740 C742 1.359 . S
N740 C743 1.327 . S
C741 H727 0.931 . S
C741 C743 1.392 . S
C741 C744 1.370 . S
C742 C738 1.432 . S
C742 N740 1.359 . S
C742 C745 1.414 . S
C743 H725 0.930 . S
C743 N740 1.327 . S
C743 C741 1.392 . S
C744 H739 0.930 . S
C744 C741 1.370 . S
C744 C745 1.385 . S
C745 C742 1.414 . S
C745 C744 1.385 . S
C745 C767 1.444 . S
O746 Tb702 2.546 . S
O746 C766 1.251 . S
O747 Tb702 2.610 1_545 S
O747 Tb713 2.362 1_556 S
O747 C758 1.283 . S
O748 Tb713 2.421 . S
O748 C765 1.262 1_554 S
O749 Tb702 2.320 1_545 S
O749 C765 1.260 . S
O750 Tb702 2.552 1_545 S
O750 C758 1.243 . S
O751 Tb702 2.413 . S
O751 C766 1.256 . S
O752 Tb713 2.546 . S
O752 C777 1.251 . S
O753 Tb702 2.362 1_554 S
O753 Tb713 2.610 1_565 S
O753 C769 1.283 . S
O754 Tb702 2.421 . S
O754 C776 1.262 1_556 S
O755 Tb713 2.320 1_565 S
O755 C776 1.260 . S
O756 Tb713 2.552 1_565 S
O756 C769 1.243 . S
O757 Tb713 2.413 . S
O757 C777 1.256 . S
C758 O747 1.283 . S
C758 O750 1.243 . S
C759 C761 1.382 1_565 S
C759 C763 1.393 . S
C759 C766 1.500 . S
C760 C761 1.400 . S
C760 C762 1.384 1_545 S
C761 C759 1.382 1_545 S
C761 C760 1.400 . S
C761 H778 0.930 . S
C762 C760 1.384 1_565 S
C762 C764 1.392 . S
C762 H779 0.931 . S
C763 C759 1.393 . S
C763 C764 1.401 . S
C763 H780 0.930 . S
C764 C762 1.392 . S
C764 C763 1.401 . S
C764 H781 0.930 . S
C765 O748 1.262 1_556 S
C765 O749 1.260 . S
C766 Tb702 2.833 . S
C766 O746 1.251 . S
C766 O751 1.256 . S
C766 C759 1.500 . S
C767 H732 0.929 . S
C767 C745 1.444 . S
C767 C768 1.317 . S
C768 H730 0.930 . S
C768 C736 1.432 . S
C768 C767 1.317 . S
C769 O753 1.283 . S
C769 O756 1.243 . S
C770 C771 1.382 1_545 S
C770 C774 1.393 . S
C770 C777 1.500 . S
C771 C770 1.382 1_565 S
C771 C772 1.400 . S
C771 H782 0.930 . S
C772 C771 1.400 . S
C772 C773 1.384 1_565 S
C773 C772 1.384 1_545 S
C773 C775 1.392 . S
C773 H783 0.931 . S
C774 C770 1.393 . S
C774 C775 1.401 . S
C774 H784 0.930 . S
C775 C773 1.392 . S
C775 C774 1.401 . S
C775 H785 0.930 . S
C776 O754 1.262 1_554 S
C776 O755 1.260 . S
C777 Tb713 2.833 . S
C777 O752 1.251 . S
C777 O757 1.256 . S
C777 C770 1.500 . S
H778 C761 0.930 . S
H779 C762 0.931 . S
H780 C763 0.930 . S
H781 C764 0.930 . S
H782 C771 0.930 . S
H783 C773 0.931 . S
H784 C774 0.930 . S
H785 C775 0.930 . S
Tb786 N817 2.660 . S
Tb786 N824 2.600 . S
Tb786 O830 2.546 . S
Tb786 O831 2.610 1_455 S
Tb786 O833 2.320 1_455 S
Tb786 O834 2.552 1_455 S
Tb786 O835 2.413 . S
Tb786 O837 2.362 1_556 S
Tb786 O838 2.421 . S
Tb786 C850 2.833 . S
C787 C790 1.432 . S
C787 C791 1.414 . S
C787 N794 1.359 . S
C788 C790 1.417 . S
C788 C792 1.432 . S
C788 C800 1.410 . S
C789 C791 1.444 . S
C789 C792 1.317 . S
C789 H812 0.929 . S
C790 C787 1.432 . S
C790 C788 1.417 . S
C790 N798 1.360 . S
C791 C787 1.414 . S
C791 C789 1.444 . S
C791 C796 1.385 . S
C792 C788 1.432 . S
C792 C789 1.317 . S
C792 H804 0.930 . S
C793 C795 1.392 . S
C793 C796 1.370 . S
C793 H805 0.931 . S
N794 C787 1.359 . S
N794 C795 1.327 . S
N794 Tb797 2.600 . S
C795 C793 1.392 . S
C795 N794 1.327 . S
C795 H802 0.930 . S
C796 C791 1.385 . S
C796 C793 1.370 . S
C796 H815 0.930 . S
Tb797 N794 2.600 . S
Tb797 N798 2.660 . S
Tb797 O831 2.362 1_554 S
Tb797 O832 2.421 . S
Tb797 O836 2.546 . S
Tb797 O837 2.610 1_655 S
Tb797 O839 2.320 1_655 S
Tb797 O840 2.552 1_655 S
Tb797 O841 2.413 . S
Tb797 C861 2.833 . S
N798 C790 1.360 . S
N798 Tb797 2.660 . S
N798 C799 1.305 . S
C799 N798 1.305 . S
C799 C801 1.407 . S
C799 H806 0.930 . S
C800 C788 1.410 . S
C800 C801 1.345 . S
C800 H808 0.930 . S
C801 C799 1.407 . S
C801 C800 1.345 . S
C801 H803 0.930 . S
H802 C795 0.930 . S
H803 C801 0.930 . S
H804 C792 0.930 . S
H805 C793 0.931 . S
H806 C799 0.930 . S
H807 C821 0.930 . S
H808 C800 0.930 . S
H809 C827 0.930 . S
H810 C818 0.930 . S
H811 C825 0.931 . S
H812 C789 0.929 . S
H813 C819 0.930 . S
H814 C852 0.930 . S
H815 C796 0.930 . S
H816 C851 0.929 . S
N817 Tb786 2.660 . S
N817 C818 1.305 . S
N817 C822 1.360 . S
C818 H810 0.930 . S
C818 N817 1.305 . S
C818 C821 1.407 . S
C819 H813 0.930 . S
C819 C820 1.410 . S
C819 C821 1.345 . S
C820 C819 1.410 . S
C820 C822 1.417 . S
C820 C852 1.432 . S
C821 H807 0.930 . S
C821 C818 1.407 . S
C821 C819 1.345 . S
C822 N817 1.360 . S
C822 C820 1.417 . S
C822 C826 1.432 . S
H823 C828 0.930 . S
N824 Tb786 2.600 . S
N824 C826 1.359 . S
N824 C827 1.327 . S
C825 H811 0.931 . S
C825 C827 1.392 . S
C825 C828 1.370 . S
C826 C822 1.432 . S
C826 N824 1.359 . S
C826 C829 1.414 . S
C827 H809 0.930 . S
C827 N824 1.327 . S
C827 C825 1.392 . S
C828 H823 0.930 . S
C828 C825 1.370 . S
C828 C829 1.385 . S
C829 C826 1.414 . S
C829 C828 1.385 . S
C829 C851 1.444 . S
O830 Tb786 2.546 . S
O830 C850 1.251 . S
O831 Tb786 2.610 1_655 S
O831 Tb797 2.362 1_556 S
O831 C842 1.283 . S
O832 Tb797 2.421 . S
O832 C849 1.262 1_554 S
O833 Tb786 2.320 1_655 S
O833 C849 1.260 . S
O834 Tb786 2.552 1_655 S
O834 C842 1.243 . S
O835 Tb786 2.413 . S
O835 C850 1.256 . S
O836 Tb797 2.546 . S
O836 C861 1.251 . S
O837 Tb786 2.362 1_554 S
O837 Tb797 2.610 1_455 S
O837 C853 1.283 . S
O838 Tb786 2.421 . S
O838 C860 1.262 1_556 S
O839 Tb797 2.320 1_455 S
O839 C860 1.260 . S
O840 Tb797 2.552 1_455 S
O840 C853 1.243 . S
O841 Tb797 2.413 . S
O841 C861 1.256 . S
C842 O831 1.283 . S
C842 O834 1.243 . S
C843 C845 1.382 1_455 S
C843 C847 1.393 . S
C843 C850 1.500 . S
C844 C845 1.400 . S
C844 C846 1.384 1_655 S
C845 C843 1.382 1_655 S
C845 C844 1.400 . S
C845 H862 0.930 . S
C846 C844 1.384 1_455 S
C846 C848 1.392 . S
C846 H863 0.931 . S
C847 C843 1.393 . S
C847 C848 1.401 . S
C847 H864 0.930 . S
C848 C846 1.392 . S
C848 C847 1.401 . S
C848 H865 0.930 . S
C849 O832 1.262 1_556 S
C849 O833 1.260 . S
C850 Tb786 2.833 . S
C850 O830 1.251 . S
C850 O835 1.256 . S
C850 C843 1.500 . S
C851 H816 0.929 . S
C851 C829 1.444 . S
C851 C852 1.317 . S
C852 H814 0.930 . S
C852 C820 1.432 . S
C852 C851 1.317 . S
C853 O837 1.283 . S
C853 O840 1.243 . S
C854 C855 1.382 1_655 S
C854 C858 1.393 . S
C854 C861 1.500 . S
C855 C854 1.382 1_455 S
C855 C856 1.400 . S
C855 H866 0.930 . S
C856 C855 1.400 . S
C856 C857 1.384 1_455 S
C857 C856 1.384 1_655 S
C857 C859 1.392 . S
C857 H867 0.931 . S
C858 C854 1.393 . S
C858 C859 1.401 . S
C858 H868 0.930 . S
C859 C857 1.392 . S
C859 C858 1.401 . S
C859 H869 0.930 . S
C860 O838 1.262 1_554 S
C860 O839 1.260 . S
C861 Tb797 2.833 . S
C861 O836 1.251 . S
C861 O841 1.256 . S
C861 C854 1.500 . S
H862 C845 0.930 . S
H863 C846 0.931 . S
H864 C847 0.930 . S
H865 C848 0.930 . S
H866 C855 0.930 . S
H867 C857 0.931 . S
H868 C858 0.930 . S
H869 C859 0.930 . S
Tb870 N901 2.660 . S
Tb870 N908 2.600 . S
Tb870 O914 2.546 . S
Tb870 O915 2.610 . S
Tb870 O917 2.320 . S
Tb870 O918 2.552 . S
Tb870 O919 2.413 . S
Tb870 O921 2.362 1_554 S
Tb870 O922 2.421 . S
Tb870 C934 2.833 . S
C871 C874 1.432 . S
C871 C875 1.414 . S
C871 N878 1.359 . S
C872 C874 1.417 . S
C872 C876 1.432 . S
C872 C884 1.410 . S
C873 C875 1.444 . S
C873 C876 1.317 . S
C873 H896 0.929 . S
C874 C871 1.432 . S
C874 C872 1.417 . S
C874 N882 1.360 . S
C875 C871 1.414 . S
C875 C873 1.444 . S
C875 C880 1.385 . S
C876 C872 1.432 . S
C876 C873 1.317 . S
C876 H888 0.930 . S
C877 C879 1.392 . S
C877 C880 1.370 . S
C877 H889 0.931 . S
N878 C871 1.359 . S
N878 C879 1.327 . S
N878 Tb881 2.600 . S
C879 C877 1.392 . S
C879 N878 1.327 . S
C879 H886 0.930 . S
C880 C875 1.385 . S
C880 C877 1.370 . S
C880 H899 0.930 . S
Tb881 N878 2.600 . S
Tb881 N882 2.660 . S
Tb881 O915 2.362 1_556 S
Tb881 O916 2.421 . S
Tb881 O920 2.546 . S
Tb881 O921 2.610 . S
Tb881 O923 2.320 . S
Tb881 O924 2.552 . S
Tb881 O925 2.413 . S
Tb881 C945 2.833 . S
N882 C874 1.360 . S
N882 Tb881 2.660 . S
N882 C883 1.305 . S
C883 N882 1.305 . S
C883 C885 1.407 . S
C883 H890 0.930 . S
C884 C872 1.410 . S
C884 C885 1.345 . S
C884 H892 0.930 . S
C885 C883 1.407 . S
C885 C884 1.345 . S
C885 H887 0.930 . S
H886 C879 0.930 . S
H887 C885 0.930 . S
H888 C876 0.930 . S
H889 C877 0.931 . S
H890 C883 0.930 . S
H891 C905 0.930 . S
H892 C884 0.930 . S
H893 C911 0.930 . S
H894 C902 0.930 . S
H895 C909 0.931 . S
H896 C873 0.929 . S
H897 C903 0.930 . S
H898 C936 0.930 . S
H899 C880 0.930 . S
H900 C935 0.929 . S
N901 Tb870 2.660 . S
N901 C902 1.305 . S
N901 C906 1.360 . S
C902 H894 0.930 . S
C902 N901 1.305 . S
C902 C905 1.407 . S
C903 H897 0.930 . S
C903 C904 1.410 . S
C903 C905 1.345 . S
C904 C903 1.410 . S
C904 C906 1.417 . S
C904 C936 1.432 . S
C905 H891 0.930 . S
C905 C902 1.407 . S
C905 C903 1.345 . S
C906 N901 1.360 . S
C906 C904 1.417 . S
C906 C910 1.432 . S
H907 C912 0.930 . S
N908 Tb870 2.600 . S
N908 C910 1.359 . S
N908 C911 1.327 . S
C909 H895 0.931 . S
C909 C911 1.392 . S
C909 C912 1.370 . S
C910 C906 1.432 . S
C910 N908 1.359 . S
C910 C913 1.414 . S
C911 H893 0.930 . S
C911 N908 1.327 . S
C911 C909 1.392 . S
C912 H907 0.930 . S
C912 C909 1.370 . S
C912 C913 1.385 . S
C913 C910 1.414 . S
C913 C912 1.385 . S
C913 C935 1.444 . S
O914 Tb870 2.546 . S
O914 C934 1.251 . S
O915 Tb870 2.610 . S
O915 Tb881 2.362 1_554 S
O915 C926 1.283 . S
O916 Tb881 2.421 . S
O916 C933 1.262 1_556 S
O917 Tb870 2.320 . S
O917 C933 1.260 . S
O918 Tb870 2.552 . S
O918 C926 1.243 . S
O919 Tb870 2.413 . S
O919 C934 1.256 . S
O920 Tb881 2.546 . S
O920 C945 1.251 . S
O921 Tb870 2.362 1_556 S
O921 Tb881 2.610 . S
O921 C937 1.283 . S
O922 Tb870 2.421 . S
O922 C944 1.262 1_554 S
O923 Tb881 2.320 . S
O923 C944 1.260 . S
O924 Tb881 2.552 . S
O924 C937 1.243 . S
O925 Tb881 2.413 . S
O925 C945 1.256 . S
C926 O915 1.283 . S
C926 O918 1.243 . S
C927 C929 1.382 . S
C927 C931 1.393 . S
C927 C934 1.500 . S
C928 C929 1.400 . S
C928 C930 1.384 . S
C929 C927 1.382 . S
C929 C928 1.400 . S
C929 H946 0.930 . S
C930 C928 1.384 . S
C930 C932 1.392 . S
C930 H947 0.931 . S
C931 C927 1.393 . S
C931 C932 1.401 . S
C931 H948 0.930 . S
C932 C930 1.392 . S
C932 C931 1.401 . S
C932 H949 0.930 . S
C933 O916 1.262 1_554 S
C933 O917 1.260 . S
C934 Tb870 2.833 . S
C934 O914 1.251 . S
C934 O919 1.256 . S
C934 C927 1.500 . S
C935 H900 0.929 . S
C935 C913 1.444 . S
C935 C936 1.317 . S
C936 H898 0.930 . S
C936 C904 1.432 . S
C936 C935 1.317 . S
C937 O921 1.283 . S
C937 O924 1.243 . S
C938 C939 1.382 . S
C938 C942 1.393 . S
C938 C945 1.500 . S
C939 C938 1.382 . S
C939 C940 1.400 . S
C939 H950 0.930 . S
C940 C939 1.400 . S
C940 C941 1.384 . S
C941 C940 1.384 . S
C941 C943 1.392 . S
C941 H951 0.931 . S
C942 C938 1.393 . S
C942 C943 1.401 . S
C942 H952 0.930 . S
C943 C941 1.392 . S
C943 C942 1.401 . S
C943 H953 0.930 . S
C944 O922 1.262 1_556 S
C944 O923 1.260 . S
C945 Tb881 2.833 . S
C945 O920 1.251 . S
C945 O925 1.256 . S
C945 C938 1.500 . S
H946 C929 0.930 . S
H947 C930 0.931 . S
H948 C931 0.930 . S
H949 C932 0.930 . S
H950 C939 0.930 . S
H951 C941 0.931 . S
H952 C942 0.930 . S
H953 C943 0.930 . S
Tb954 N985 2.660 . S
Tb954 N992 2.600 . S
Tb954 O998 2.546 . S
Tb954 O999 2.610 . S
Tb954 O1001 2.320 . S
Tb954 O1002 2.552 . S
Tb954 O1003 2.413 . S
Tb954 O1005 2.362 . S
Tb954 O1006 2.421 . S
Tb954 C1018 2.833 . S
C955 C958 1.432 . S
C955 C959 1.414 . S
C955 N962 1.359 . S
C956 C958 1.417 . S
C956 C960 1.432 . S
C956 C968 1.410 . S
C957 C959 1.444 . S
C957 C960 1.317 . S
C957 H980 0.929 . S
C958 C955 1.432 . S
C958 C956 1.417 . S
C958 N966 1.360 . S
C959 C955 1.414 . S
C959 C957 1.444 . S
C959 C964 1.385 . S
C960 C956 1.432 . S
C960 C957 1.317 . S
C960 H972 0.930 . S
C961 C963 1.392 . S
C961 C964 1.370 . S
C961 H973 0.931 . S
N962 C955 1.359 . S
N962 C963 1.327 . S
N962 Tb965 2.600 . S
C963 C961 1.392 . S
C963 N962 1.327 . S
C963 H970 0.930 . S
C964 C959 1.385 . S
C964 C961 1.370 . S
C964 H983 0.930 . S
Tb965 N962 2.600 . S
Tb965 N966 2.660 . S
Tb965 O999 2.362 . S
Tb965 O1000 2.421 . S
Tb965 O1004 2.546 . S
Tb965 O1005 2.610 . S
Tb965 O1007 2.320 . S
Tb965 O1008 2.552 . S
Tb965 O1009 2.413 . S
Tb965 C1029 2.833 . S
N966 C958 1.360 . S
N966 Tb965 2.660 . S
N966 C967 1.305 . S
C967 N966 1.305 . S
C967 C969 1.407 . S
C967 H974 0.930 . S
C968 C956 1.410 . S
C968 C969 1.345 . S
C968 H976 0.930 . S
C969 C967 1.407 . S
C969 C968 1.345 . S
C969 H971 0.930 . S
H970 C963 0.930 . S
H971 C969 0.930 . S
H972 C960 0.930 . S
H973 C961 0.931 . S
H974 C967 0.930 . S
H975 C989 0.930 . S
H976 C968 0.930 . S
H977 C995 0.930 . S
H978 C986 0.930 . S
H979 C993 0.931 . S
H980 C957 0.929 . S
H981 C987 0.930 . S
H982 C1020 0.930 . S
H983 C964 0.930 . S
H984 C1019 0.929 . S
N985 Tb954 2.660 . S
N985 C986 1.305 . S
N985 C990 1.360 . S
C986 H978 0.930 . S
C986 N985 1.305 . S
C986 C989 1.407 . S
C987 H981 0.930 . S
C987 C988 1.410 . S
C987 C989 1.345 . S
C988 C987 1.410 . S
C988 C990 1.417 . S
C988 C1020 1.432 . S
C989 H975 0.930 . S
C989 C986 1.407 . S
C989 C987 1.345 . S
C990 N985 1.360 . S
C990 C988 1.417 . S
C990 C994 1.432 . S
H991 C996 0.930 . S
N992 Tb954 2.600 . S
N992 C994 1.359 . S
N992 C995 1.327 . S
C993 H979 0.931 . S
C993 C995 1.392 . S
C993 C996 1.370 . S
C994 C990 1.432 . S
C994 N992 1.359 . S
C994 C997 1.414 . S
C995 H977 0.930 . S
C995 N992 1.327 . S
C995 C993 1.392 . S
C996 H991 0.930 . S
C996 C993 1.370 . S
C996 C997 1.385 . S
C997 C994 1.414 . S
C997 C996 1.385 . S
C997 C1019 1.444 . S
O998 Tb954 2.546 . S
O998 C1018 1.251 . S
O999 Tb954 2.610 . S
O999 Tb965 2.362 . S
O999 C1010 1.283 . S
O1000 Tb965 2.421 . S
O1000 C1017 1.262 . S
O1001 Tb954 2.320 . S
O1001 C1017 1.260 . S
O1002 Tb954 2.552 . S
O1002 C1010 1.243 . S
O1003 Tb954 2.413 . S
O1003 C1018 1.256 . S
O1004 Tb965 2.546 . S
O1004 C1029 1.251 . S
O1005 Tb954 2.362 . S
O1005 Tb965 2.610 . S
O1005 C1021 1.283 . S
O1006 Tb954 2.421 . S
O1006 C1028 1.262 . S
O1007 Tb965 2.320 . S
O1007 C1028 1.260 . S
O1008 Tb965 2.552 . S
O1008 C1021 1.243 . S
O1009 Tb965 2.413 . S
O1009 C1029 1.256 . S
C1010 O999 1.283 . S
C1010 O1002 1.243 . S
C1011 C1013 1.382 . S
C1011 C1015 1.393 . S
C1011 C1018 1.500 . S
C1012 C1013 1.400 . S
C1012 C1014 1.384 . S
C1013 C1011 1.382 . S
C1013 C1012 1.400 . S
C1013 H1030 0.930 . S
C1014 C1012 1.384 . S
C1014 C1016 1.392 . S
C1014 H1031 0.931 . S
C1015 C1011 1.393 . S
C1015 C1016 1.401 . S
C1015 H1032 0.930 . S
C1016 C1014 1.392 . S
C1016 C1015 1.401 . S
C1016 H1033 0.930 . S
C1017 O1000 1.262 . S
C1017 O1001 1.260 . S
C1018 Tb954 2.833 . S
C1018 O998 1.251 . S
C1018 O1003 1.256 . S
C1018 C1011 1.500 . S
C1019 H984 0.929 . S
C1019 C997 1.444 . S
C1019 C1020 1.317 . S
C1020 H982 0.930 . S
C1020 C988 1.432 . S
C1020 C1019 1.317 . S
C1021 O1005 1.283 . S
C1021 O1008 1.243 . S
C1022 C1023 1.382 . S
C1022 C1026 1.393 . S
C1022 C1029 1.500 . S
C1023 C1022 1.382 . S
C1023 C1024 1.400 . S
C1023 H1034 0.930 . S
C1024 C1023 1.400 . S
C1024 C1025 1.384 . S
C1025 C1024 1.384 . S
C1025 C1027 1.392 . S
C1025 H1035 0.931 . S
C1026 C1022 1.393 . S
C1026 C1027 1.401 . S
C1026 H1036 0.930 . S
C1027 C1025 1.392 . S
C1027 C1026 1.401 . S
C1027 H1037 0.930 . S
C1028 O1006 1.262 . S
C1028 O1007 1.260 . S
C1029 Tb965 2.833 . S
C1029 O1004 1.251 . S
C1029 O1009 1.256 . S
C1029 C1022 1.500 . S
H1030 C1013 0.930 . S
H1031 C1014 0.931 . S
H1032 C1015 0.930 . S
H1033 C1016 0.930 . S
H1034 C1023 0.930 . S
H1035 C1025 0.931 . S
H1036 C1026 0.930 . S
H1037 C1027 0.930 . S
Tb1038 N1069 2.660 . S
Tb1038 N1076 2.600 . S
Tb1038 O1082 2.546 . S
Tb1038 O1083 2.610 . S
Tb1038 O1085 2.320 . S
Tb1038 O1086 2.552 . S
Tb1038 O1087 2.413 . S
Tb1038 O1089 2.362 . S
Tb1038 O1090 2.421 . S
Tb1038 C1102 2.833 . S
C1039 C1042 1.432 . S
C1039 C1043 1.414 . S
C1039 N1046 1.359 . S
C1040 C1042 1.417 . S
C1040 C1044 1.432 . S
C1040 C1052 1.410 . S
C1041 C1043 1.444 . S
C1041 C1044 1.317 . S
C1041 H1064 0.929 . S
C1042 C1039 1.432 . S
C1042 C1040 1.417 . S
C1042 N1050 1.360 . S
C1043 C1039 1.414 . S
C1043 C1041 1.444 . S
C1043 C1048 1.385 . S
C1044 C1040 1.432 . S
C1044 C1041 1.317 . S
C1044 H1056 0.930 . S
C1045 C1047 1.392 . S
C1045 C1048 1.370 . S
C1045 H1057 0.931 . S
N1046 C1039 1.359 . S
N1046 C1047 1.327 . S
N1046 Tb1049 2.600 . S
C1047 C1045 1.392 . S
C1047 N1046 1.327 . S
C1047 H1054 0.930 . S
C1048 C1043 1.385 . S
C1048 C1045 1.370 . S
C1048 H1067 0.930 . S
Tb1049 N1046 2.600 . S
Tb1049 N1050 2.660 . S
Tb1049 O1083 2.362 . S
Tb1049 O1084 2.421 . S
Tb1049 O1088 2.546 . S
Tb1049 O1089 2.610 . S
Tb1049 O1091 2.320 . S
Tb1049 O1092 2.552 . S
Tb1049 O1093 2.413 . S
Tb1049 C1113 2.833 . S
N1050 C1042 1.360 . S
N1050 Tb1049 2.660 . S
N1050 C1051 1.305 . S
C1051 N1050 1.305 . S
C1051 C1053 1.407 . S
C1051 H1058 0.930 . S
C1052 C1040 1.410 . S
C1052 C1053 1.345 . S
C1052 H1060 0.930 . S
C1053 C1051 1.407 . S
C1053 C1052 1.345 . S
C1053 H1055 0.930 . S
H1054 C1047 0.930 . S
H1055 C1053 0.930 . S
H1056 C1044 0.930 . S
H1057 C1045 0.931 . S
H1058 C1051 0.930 . S
H1059 C1073 0.930 . S
H1060 C1052 0.930 . S
H1061 C1079 0.930 . S
H1062 C1070 0.930 . S
H1063 C1077 0.931 . S
H1064 C1041 0.929 . S
H1065 C1071 0.930 . S
H1066 C1104 0.930 . S
H1067 C1048 0.930 . S
H1068 C1103 0.929 . S
N1069 Tb1038 2.660 . S
N1069 C1070 1.305 . S
N1069 C1074 1.360 . S
C1070 H1062 0.930 . S
C1070 N1069 1.305 . S
C1070 C1073 1.407 . S
C1071 H1065 0.930 . S
C1071 C1072 1.410 . S
C1071 C1073 1.345 . S
C1072 C1071 1.410 . S
C1072 C1074 1.417 . S
C1072 C1104 1.432 . S
C1073 H1059 0.930 . S
C1073 C1070 1.407 . S
C1073 C1071 1.345 . S
C1074 N1069 1.360 . S
C1074 C1072 1.417 . S
C1074 C1078 1.432 . S
H1075 C1080 0.930 . S
N1076 Tb1038 2.600 . S
N1076 C1078 1.359 . S
N1076 C1079 1.327 . S
C1077 H1063 0.931 . S
C1077 C1079 1.392 . S
C1077 C1080 1.370 . S
C1078 C1074 1.432 . S
C1078 N1076 1.359 . S
C1078 C1081 1.414 . S
C1079 H1061 0.930 . S
C1079 N1076 1.327 . S
C1079 C1077 1.392 . S
C1080 H1075 0.930 . S
C1080 C1077 1.370 . S
C1080 C1081 1.385 . S
C1081 C1078 1.414 . S
C1081 C1080 1.385 . S
C1081 C1103 1.444 . S
O1082 Tb1038 2.546 . S
O1082 C1102 1.251 . S
O1083 Tb1038 2.610 . S
O1083 Tb1049 2.362 . S
O1083 C1094 1.283 . S
O1084 Tb1049 2.421 . S
O1084 C1101 1.262 . S
O1085 Tb1038 2.320 . S
O1085 C1101 1.260 . S
O1086 Tb1038 2.552 . S
O1086 C1094 1.243 . S
O1087 Tb1038 2.413 . S
O1087 C1102 1.256 . S
O1088 Tb1049 2.546 . S
O1088 C1113 1.251 . S
O1089 Tb1038 2.362 . S
O1089 Tb1049 2.610 . S
O1089 C1105 1.283 . S
O1090 Tb1038 2.421 . S
O1090 C1112 1.262 . S
O1091 Tb1049 2.320 . S
O1091 C1112 1.260 . S
O1092 Tb1049 2.552 . S
O1092 C1105 1.243 . S
O1093 Tb1049 2.413 . S
O1093 C1113 1.256 . S
C1094 O1083 1.283 . S
C1094 O1086 1.243 . S
C1095 C1097 1.382 . S
C1095 C1099 1.393 . S
C1095 C1102 1.500 . S
C1096 C1097 1.400 . S
C1096 C1098 1.384 . S
C1097 C1095 1.382 . S
C1097 C1096 1.400 . S
C1097 H1114 0.930 . S
C1098 C1096 1.384 . S
C1098 C1100 1.392 . S
C1098 H1115 0.931 . S
C1099 C1095 1.393 . S
C1099 C1100 1.401 . S
C1099 H1116 0.930 . S
C1100 C1098 1.392 . S
C1100 C1099 1.401 . S
C1100 H1117 0.930 . S
C1101 O1084 1.262 . S
C1101 O1085 1.260 . S
C1102 Tb1038 2.833 . S
C1102 O1082 1.251 . S
C1102 O1087 1.256 . S
C1102 C1095 1.500 . S
C1103 H1068 0.929 . S
C1103 C1081 1.444 . S
C1103 C1104 1.317 . S
C1104 H1066 0.930 . S
C1104 C1072 1.432 . S
C1104 C1103 1.317 . S
C1105 O1089 1.283 . S
C1105 O1092 1.243 . S
C1106 C1107 1.382 . S
C1106 C1110 1.393 . S
C1106 C1113 1.500 . S
C1107 C1106 1.382 . S
C1107 C1108 1.400 . S
C1107 H1118 0.930 . S
C1108 C1107 1.400 . S
C1108 C1109 1.384 . S
C1109 C1108 1.384 . S
C1109 C1111 1.392 . S
C1109 H1119 0.931 . S
C1110 C1106 1.393 . S
C1110 C1111 1.401 . S
C1110 H1120 0.930 . S
C1111 C1109 1.392 . S
C1111 C1110 1.401 . S
C1111 H1121 0.930 . S
C1112 O1090 1.262 . S
C1112 O1091 1.260 . S
C1113 Tb1049 2.833 . S
C1113 O1088 1.251 . S
C1113 O1093 1.256 . S
C1113 C1106 1.500 . S
H1114 C1097 0.930 . S
H1115 C1098 0.931 . S
H1116 C1099 0.930 . S
H1117 C1100 0.930 . S
H1118 C1107 0.930 . S
H1119 C1109 0.931 . S
H1120 C1110 0.930 . S
H1121 C1111 0.930 . S
Tb1122 N1153 2.660 . S
Tb1122 N1160 2.600 . S
Tb1122 O1166 2.546 . S
Tb1122 O1167 2.610 . S
Tb1122 O1169 2.320 . S
Tb1122 O1170 2.552 . S
Tb1122 O1171 2.413 . S
Tb1122 O1173 2.362 . S
Tb1122 O1174 2.421 . S
Tb1122 C1186 2.833 . S
C1123 C1126 1.432 . S
C1123 C1127 1.414 . S
C1123 N1130 1.359 . S
C1124 C1126 1.417 . S
C1124 C1128 1.432 . S
C1124 C1136 1.410 . S
C1125 C1127 1.444 . S
C1125 C1128 1.317 . S
C1125 H1148 0.929 . S
C1126 C1123 1.432 . S
C1126 C1124 1.417 . S
C1126 N1134 1.360 . S
C1127 C1123 1.414 . S
C1127 C1125 1.444 . S
C1127 C1132 1.385 . S
C1128 C1124 1.432 . S
C1128 C1125 1.317 . S
C1128 H1140 0.930 . S
C1129 C1131 1.392 . S
C1129 C1132 1.370 . S
C1129 H1141 0.931 . S
N1130 C1123 1.359 . S
N1130 C1131 1.327 . S
N1130 Tb1133 2.600 . S
C1131 C1129 1.392 . S
C1131 N1130 1.327 . S
C1131 H1138 0.930 . S
C1132 C1127 1.385 . S
C1132 C1129 1.370 . S
C1132 H1151 0.930 . S
Tb1133 N1130 2.600 . S
Tb1133 N1134 2.660 . S
Tb1133 O1167 2.362 . S
Tb1133 O1168 2.421 . S
Tb1133 O1172 2.546 . S
Tb1133 O1173 2.610 . S
Tb1133 O1175 2.320 . S
Tb1133 O1176 2.552 . S
Tb1133 O1177 2.413 . S
Tb1133 C1197 2.833 . S
N1134 C1126 1.360 . S
N1134 Tb1133 2.660 . S
N1134 C1135 1.305 . S
C1135 N1134 1.305 . S
C1135 C1137 1.407 . S
C1135 H1142 0.930 . S
C1136 C1124 1.410 . S
C1136 C1137 1.345 . S
C1136 H1144 0.930 . S
C1137 C1135 1.407 . S
C1137 C1136 1.345 . S
C1137 H1139 0.930 . S
H1138 C1131 0.930 . S
H1139 C1137 0.930 . S
H1140 C1128 0.930 . S
H1141 C1129 0.931 . S
H1142 C1135 0.930 . S
H1143 C1157 0.930 . S
H1144 C1136 0.930 . S
H1145 C1163 0.930 . S
H1146 C1154 0.930 . S
H1147 C1161 0.931 . S
H1148 C1125 0.929 . S
H1149 C1155 0.930 . S
H1150 C1188 0.930 . S
H1151 C1132 0.930 . S
H1152 C1187 0.929 . S
N1153 Tb1122 2.660 . S
N1153 C1154 1.305 . S
N1153 C1158 1.360 . S
C1154 H1146 0.930 . S
C1154 N1153 1.305 . S
C1154 C1157 1.407 . S
C1155 H1149 0.930 . S
C1155 C1156 1.410 . S
C1155 C1157 1.345 . S
C1156 C1155 1.410 . S
C1156 C1158 1.417 . S
C1156 C1188 1.432 . S
C1157 H1143 0.930 . S
C1157 C1154 1.407 . S
C1157 C1155 1.345 . S
C1158 N1153 1.360 . S
C1158 C1156 1.417 . S
C1158 C1162 1.432 . S
H1159 C1164 0.930 . S
N1160 Tb1122 2.600 . S
N1160 C1162 1.359 . S
N1160 C1163 1.327 . S
C1161 H1147 0.931 . S
C1161 C1163 1.392 . S
C1161 C1164 1.370 . S
C1162 C1158 1.432 . S
C1162 N1160 1.359 . S
C1162 C1165 1.414 . S
C1163 H1145 0.930 . S
C1163 N1160 1.327 . S
C1163 C1161 1.392 . S
C1164 H1159 0.930 . S
C1164 C1161 1.370 . S
C1164 C1165 1.385 . S
C1165 C1162 1.414 . S
C1165 C1164 1.385 . S
C1165 C1187 1.444 . S
O1166 Tb1122 2.546 . S
O1166 C1186 1.251 . S
O1167 Tb1122 2.610 . S
O1167 Tb1133 2.362 . S
O1167 C1178 1.283 . S
O1168 Tb1133 2.421 . S
O1168 C1185 1.262 . S
O1169 Tb1122 2.320 . S
O1169 C1185 1.260 . S
O1170 Tb1122 2.552 . S
O1170 C1178 1.243 . S
O1171 Tb1122 2.413 . S
O1171 C1186 1.256 . S
O1172 Tb1133 2.546 . S
O1172 C1197 1.251 . S
O1173 Tb1122 2.362 . S
O1173 Tb1133 2.610 . S
O1173 C1189 1.283 . S
O1174 Tb1122 2.421 . S
O1174 C1196 1.262 . S
O1175 Tb1133 2.320 . S
O1175 C1196 1.260 . S
O1176 Tb1133 2.552 . S
O1176 C1189 1.243 . S
O1177 Tb1133 2.413 . S
O1177 C1197 1.256 . S
C1178 O1167 1.283 . S
C1178 O1170 1.243 . S
C1179 C1181 1.382 . S
C1179 C1183 1.393 . S
C1179 C1186 1.500 . S
C1180 C1181 1.400 . S
C1180 C1182 1.384 . S
C1181 C1179 1.382 . S
C1181 C1180 1.400 . S
C1181 H1198 0.930 . S
C1182 C1180 1.384 . S
C1182 C1184 1.392 . S
C1182 H1199 0.931 . S
C1183 C1179 1.393 . S
C1183 C1184 1.401 . S
C1183 H1200 0.930 . S
C1184 C1182 1.392 . S
C1184 C1183 1.401 . S
C1184 H1201 0.930 . S
C1185 O1168 1.262 . S
C1185 O1169 1.260 . S
C1186 Tb1122 2.833 . S
C1186 O1166 1.251 . S
C1186 O1171 1.256 . S
C1186 C1179 1.500 . S
C1187 H1152 0.929 . S
C1187 C1165 1.444 . S
C1187 C1188 1.317 . S
C1188 H1150 0.930 . S
C1188 C1156 1.432 . S
C1188 C1187 1.317 . S
C1189 O1173 1.283 . S
C1189 O1176 1.243 . S
C1190 C1191 1.382 . S
C1190 C1194 1.393 . S
C1190 C1197 1.500 . S
C1191 C1190 1.382 . S
C1191 C1192 1.400 . S
C1191 H1202 0.930 . S
C1192 C1191 1.400 . S
C1192 C1193 1.384 . S
C1193 C1192 1.384 . S
C1193 C1195 1.392 . S
C1193 H1203 0.931 . S
C1194 C1190 1.393 . S
C1194 C1195 1.401 . S
C1194 H1204 0.930 . S
C1195 C1193 1.392 . S
C1195 C1194 1.401 . S
C1195 H1205 0.930 . S
C1196 O1174 1.262 . S
C1196 O1175 1.260 . S
C1197 Tb1133 2.833 . S
C1197 O1172 1.251 . S
C1197 O1177 1.256 . S
C1197 C1190 1.500 . S
H1198 C1181 0.930 . S
H1199 C1182 0.931 . S
H1200 C1183 0.930 . S
H1201 C1184 0.930 . S
H1202 C1191 0.930 . S
H1203 C1193 0.931 . S
H1204 C1194 0.930 . S
H1205 C1195 0.930 . S
Tb1206 N1237 2.660 . S
Tb1206 N1244 2.600 . S
Tb1206 O1250 2.546 . S
Tb1206 O1251 2.610 . S
Tb1206 O1253 2.320 . S
Tb1206 O1254 2.552 . S
Tb1206 O1255 2.413 . S
Tb1206 O1257 2.362 . S
Tb1206 O1258 2.421 . S
Tb1206 C1270 2.833 . S
C1207 C1210 1.432 . S
C1207 C1211 1.414 . S
C1207 N1214 1.359 . S
C1208 C1210 1.417 . S
C1208 C1212 1.432 . S
C1208 C1220 1.410 . S
C1209 C1211 1.444 . S
C1209 C1212 1.317 . S
C1209 H1232 0.929 . S
C1210 C1207 1.432 . S
C1210 C1208 1.417 . S
C1210 N1218 1.360 . S
C1211 C1207 1.414 . S
C1211 C1209 1.444 . S
C1211 C1216 1.385 . S
C1212 C1208 1.432 . S
C1212 C1209 1.317 . S
C1212 H1224 0.930 . S
C1213 C1215 1.392 . S
C1213 C1216 1.370 . S
C1213 H1225 0.931 . S
N1214 C1207 1.359 . S
N1214 C1215 1.327 . S
N1214 Tb1217 2.600 . S
C1215 C1213 1.392 . S
C1215 N1214 1.327 . S
C1215 H1222 0.930 . S
C1216 C1211 1.385 . S
C1216 C1213 1.370 . S
C1216 H1235 0.930 . S
Tb1217 N1214 2.600 . S
Tb1217 N1218 2.660 . S
Tb1217 O1251 2.362 . S
Tb1217 O1252 2.421 . S
Tb1217 O1256 2.546 . S
Tb1217 O1257 2.610 . S
Tb1217 O1259 2.320 . S
Tb1217 O1260 2.552 . S
Tb1217 O1261 2.413 . S
Tb1217 C1281 2.833 . S
N1218 C1210 1.360 . S
N1218 Tb1217 2.660 . S
N1218 C1219 1.305 . S
C1219 N1218 1.305 . S
C1219 C1221 1.407 . S
C1219 H1226 0.930 . S
C1220 C1208 1.410 . S
C1220 C1221 1.345 . S
C1220 H1228 0.930 . S
C1221 C1219 1.407 . S
C1221 C1220 1.345 . S
C1221 H1223 0.930 . S
H1222 C1215 0.930 . S
H1223 C1221 0.930 . S
H1224 C1212 0.930 . S
H1225 C1213 0.931 . S
H1226 C1219 0.930 . S
H1227 C1241 0.930 . S
H1228 C1220 0.930 . S
H1229 C1247 0.930 . S
H1230 C1238 0.930 . S
H1231 C1245 0.931 . S
H1232 C1209 0.929 . S
H1233 C1239 0.930 . S
H1234 C1272 0.930 . S
H1235 C1216 0.930 . S
H1236 C1271 0.929 . S
N1237 Tb1206 2.660 . S
N1237 C1238 1.305 . S
N1237 C1242 1.360 . S
C1238 H1230 0.930 . S
C1238 N1237 1.305 . S
C1238 C1241 1.407 . S
C1239 H1233 0.930 . S
C1239 C1240 1.410 . S
C1239 C1241 1.345 . S
C1240 C1239 1.410 . S
C1240 C1242 1.417 . S
C1240 C1272 1.432 . S
C1241 H1227 0.930 . S
C1241 C1238 1.407 . S
C1241 C1239 1.345 . S
C1242 N1237 1.360 . S
C1242 C1240 1.417 . S
C1242 C1246 1.432 . S
H1243 C1248 0.930 . S
N1244 Tb1206 2.600 . S
N1244 C1246 1.359 . S
N1244 C1247 1.327 . S
C1245 H1231 0.931 . S
C1245 C1247 1.392 . S
C1245 C1248 1.370 . S
C1246 C1242 1.432 . S
C1246 N1244 1.359 . S
C1246 C1249 1.414 . S
C1247 H1229 0.930 . S
C1247 N1244 1.327 . S
C1247 C1245 1.392 . S
C1248 H1243 0.930 . S
C1248 C1245 1.370 . S
C1248 C1249 1.385 . S
C1249 C1246 1.414 . S
C1249 C1248 1.385 . S
C1249 C1271 1.444 . S
O1250 Tb1206 2.546 . S
O1250 C1270 1.251 . S
O1251 Tb1206 2.610 . S
O1251 Tb1217 2.362 . S
O1251 C1262 1.283 . S
O1252 Tb1217 2.421 . S
O1252 C1269 1.262 . S
O1253 Tb1206 2.320 . S
O1253 C1269 1.260 . S
O1254 Tb1206 2.552 . S
O1254 C1262 1.243 . S
O1255 Tb1206 2.413 . S
O1255 C1270 1.256 . S
O1256 Tb1217 2.546 . S
O1256 C1281 1.251 . S
O1257 Tb1206 2.362 . S
O1257 Tb1217 2.610 . S
O1257 C1273 1.283 . S
O1258 Tb1206 2.421 . S
O1258 C1280 1.262 . S
O1259 Tb1217 2.320 . S
O1259 C1280 1.260 . S
O1260 Tb1217 2.552 . S
O1260 C1273 1.243 . S
O1261 Tb1217 2.413 . S
O1261 C1281 1.256 . S
C1262 O1251 1.283 . S
C1262 O1254 1.243 . S
C1263 C1265 1.382 . S
C1263 C1267 1.393 . S
C1263 C1270 1.500 . S
C1264 C1265 1.400 . S
C1264 C1266 1.384 . S
C1265 C1263 1.382 . S
C1265 C1264 1.400 . S
C1265 H1282 0.930 . S
C1266 C1264 1.384 . S
C1266 C1268 1.392 . S
C1266 H1283 0.931 . S
C1267 C1263 1.393 . S
C1267 C1268 1.401 . S
C1267 H1284 0.930 . S
C1268 C1266 1.392 . S
C1268 C1267 1.401 . S
C1268 H1285 0.930 . S
C1269 O1252 1.262 . S
C1269 O1253 1.260 . S
C1270 Tb1206 2.833 . S
C1270 O1250 1.251 . S
C1270 O1255 1.256 . S
C1270 C1263 1.500 . S
C1271 H1236 0.929 . S
C1271 C1249 1.444 . S
C1271 C1272 1.317 . S
C1272 H1234 0.930 . S
C1272 C1240 1.432 . S
C1272 C1271 1.317 . S
C1273 O1257 1.283 . S
C1273 O1260 1.243 . S
C1274 C1275 1.382 . S
C1274 C1278 1.393 . S
C1274 C1281 1.500 . S
C1275 C1274 1.382 . S
C1275 C1276 1.400 . S
C1275 H1286 0.930 . S
C1276 C1275 1.400 . S
C1276 C1277 1.384 . S
C1277 C1276 1.384 . S
C1277 C1279 1.392 . S
C1277 H1287 0.931 . S
C1278 C1274 1.393 . S
C1278 C1279 1.401 . S
C1278 H1288 0.930 . S
C1279 C1277 1.392 . S
C1279 C1278 1.401 . S
C1279 H1289 0.930 . S
C1280 O1258 1.262 . S
C1280 O1259 1.260 . S
C1281 Tb1217 2.833 . S
C1281 O1256 1.251 . S
C1281 O1261 1.256 . S
C1281 C1274 1.500 . S
H1282 C1265 0.930 . S
H1283 C1266 0.931 . S
H1284 C1267 0.930 . S
H1285 C1268 0.930 . S
H1286 C1275 0.930 . S
H1287 C1277 0.931 . S
H1288 C1278 0.930 . S
H1289 C1279 0.930 . S
Tb1290 N1321 2.660 . S
Tb1290 N1328 2.600 . S
Tb1290 O1334 2.546 . S
Tb1290 O1335 2.610 . S
Tb1290 O1337 2.320 . S
Tb1290 O1338 2.552 . S
Tb1290 O1339 2.413 . S
Tb1290 O1341 2.362 . S
Tb1290 O1342 2.421 . S
Tb1290 C1354 2.833 . S
C1291 C1294 1.432 . S
C1291 C1295 1.414 . S
C1291 N1298 1.359 . S
C1292 C1294 1.417 . S
C1292 C1296 1.432 . S
C1292 C1304 1.410 . S
C1293 C1295 1.444 . S
C1293 C1296 1.317 . S
C1293 H1316 0.929 . S
C1294 C1291 1.432 . S
C1294 C1292 1.417 . S
C1294 N1302 1.360 . S
C1295 C1291 1.414 . S
C1295 C1293 1.444 . S
C1295 C1300 1.385 . S
C1296 C1292 1.432 . S
C1296 C1293 1.317 . S
C1296 H1308 0.930 . S
C1297 C1299 1.392 . S
C1297 C1300 1.370 . S
C1297 H1309 0.931 . S
N1298 C1291 1.359 . S
N1298 C1299 1.327 . S
N1298 Tb1301 2.600 . S
C1299 C1297 1.392 . S
C1299 N1298 1.327 . S
C1299 H1306 0.930 . S
C1300 C1295 1.385 . S
C1300 C1297 1.370 . S
C1300 H1319 0.930 . S
Tb1301 N1298 2.600 . S
Tb1301 N1302 2.660 . S
Tb1301 O1335 2.362 . S
Tb1301 O1336 2.421 . S
Tb1301 O1340 2.546 . S
Tb1301 O1341 2.610 . S
Tb1301 O1343 2.320 . S
Tb1301 O1344 2.552 . S
Tb1301 O1345 2.413 . S
Tb1301 C1365 2.833 . S
N1302 C1294 1.360 . S
N1302 Tb1301 2.660 . S
N1302 C1303 1.305 . S
C1303 N1302 1.305 . S
C1303 C1305 1.407 . S
C1303 H1310 0.930 . S
C1304 C1292 1.410 . S
C1304 C1305 1.345 . S
C1304 H1312 0.930 . S
C1305 C1303 1.407 . S
C1305 C1304 1.345 . S
C1305 H1307 0.930 . S
H1306 C1299 0.930 . S
H1307 C1305 0.930 . S
H1308 C1296 0.930 . S
H1309 C1297 0.931 . S
H1310 C1303 0.930 . S
H1311 C1325 0.930 . S
H1312 C1304 0.930 . S
H1313 C1331 0.930 . S
H1314 C1322 0.930 . S
H1315 C1329 0.931 . S
H1316 C1293 0.929 . S
H1317 C1323 0.930 . S
H1318 C1356 0.930 . S
H1319 C1300 0.930 . S
H1320 C1355 0.929 . S
N1321 Tb1290 2.660 . S
N1321 C1322 1.305 . S
N1321 C1326 1.360 . S
C1322 H1314 0.930 . S
C1322 N1321 1.305 . S
C1322 C1325 1.407 . S
C1323 H1317 0.930 . S
C1323 C1324 1.410 . S
C1323 C1325 1.345 . S
C1324 C1323 1.410 . S
C1324 C1326 1.417 . S
C1324 C1356 1.432 . S
C1325 H1311 0.930 . S
C1325 C1322 1.407 . S
C1325 C1323 1.345 . S
C1326 N1321 1.360 . S
C1326 C1324 1.417 . S
C1326 C1330 1.432 . S
H1327 C1332 0.930 . S
N1328 Tb1290 2.600 . S
N1328 C1330 1.359 . S
N1328 C1331 1.327 . S
C1329 H1315 0.931 . S
C1329 C1331 1.392 . S
C1329 C1332 1.370 . S
C1330 C1326 1.432 . S
C1330 N1328 1.359 . S
C1330 C1333 1.414 . S
C1331 H1313 0.930 . S
C1331 N1328 1.327 . S
C1331 C1329 1.392 . S
C1332 H1327 0.930 . S
C1332 C1329 1.370 . S
C1332 C1333 1.385 . S
C1333 C1330 1.414 . S
C1333 C1332 1.385 . S
C1333 C1355 1.444 . S
O1334 Tb1290 2.546 . S
O1334 C1354 1.251 . S
O1335 Tb1290 2.610 . S
O1335 Tb1301 2.362 . S
O1335 C1346 1.283 . S
O1336 Tb1301 2.421 . S
O1336 C1353 1.262 . S
O1337 Tb1290 2.320 . S
O1337 C1353 1.260 . S
O1338 Tb1290 2.552 . S
O1338 C1346 1.243 . S
O1339 Tb1290 2.413 . S
O1339 C1354 1.256 . S
O1340 Tb1301 2.546 . S
O1340 C1365 1.251 . S
O1341 Tb1290 2.362 . S
O1341 Tb1301 2.610 . S
O1341 C1357 1.283 . S
O1342 Tb1290 2.421 . S
O1342 C1364 1.262 . S
O1343 Tb1301 2.320 . S
O1343 C1364 1.260 . S
O1344 Tb1301 2.552 . S
O1344 C1357 1.243 . S
O1345 Tb1301 2.413 . S
O1345 C1365 1.256 . S
C1346 O1335 1.283 . S
C1346 O1338 1.243 . S
C1347 C1349 1.382 . S
C1347 C1351 1.393 . S
C1347 C1354 1.500 . S
C1348 C1349 1.400 . S
C1348 C1350 1.384 . S
C1349 C1347 1.382 . S
C1349 C1348 1.400 . S
C1349 H1366 0.930 . S
C1350 C1348 1.384 . S
C1350 C1352 1.392 . S
C1350 H1367 0.931 . S
C1351 C1347 1.393 . S
C1351 C1352 1.401 . S
C1351 H1368 0.930 . S
C1352 C1350 1.392 . S
C1352 C1351 1.401 . S
C1352 H1369 0.930 . S
C1353 O1336 1.262 . S
C1353 O1337 1.260 . S
C1354 Tb1290 2.833 . S
C1354 O1334 1.251 . S
C1354 O1339 1.256 . S
C1354 C1347 1.500 . S
C1355 H1320 0.929 . S
C1355 C1333 1.444 . S
C1355 C1356 1.317 . S
C1356 H1318 0.930 . S
C1356 C1324 1.432 . S
C1356 C1355 1.317 . S
C1357 O1341 1.283 . S
C1357 O1344 1.243 . S
C1358 C1359 1.382 . S
C1358 C1362 1.393 . S
C1358 C1365 1.500 . S
C1359 C1358 1.382 . S
C1359 C1360 1.400 . S
C1359 H1370 0.930 . S
C1360 C1359 1.400 . S
C1360 C1361 1.384 . S
C1361 C1360 1.384 . S
C1361 C1363 1.392 . S
C1361 H1371 0.931 . S
C1362 C1358 1.393 . S
C1362 C1363 1.401 . S
C1362 H1372 0.930 . S
C1363 C1361 1.392 . S
C1363 C1362 1.401 . S
C1363 H1373 0.930 . S
C1364 O1342 1.262 . S
C1364 O1343 1.260 . S
C1365 Tb1301 2.833 . S
C1365 O1340 1.251 . S
C1365 O1345 1.256 . S
C1365 C1358 1.500 . S
H1366 C1349 0.930 . S
H1367 C1350 0.931 . S
H1368 C1351 0.930 . S
H1369 C1352 0.930 . S
H1370 C1359 0.930 . S
H1371 C1361 0.931 . S
H1372 C1362 0.930 . S
H1373 C1363 0.930 . S
Tb1374 N1405 2.660 . S
Tb1374 N1412 2.600 . S
Tb1374 O1418 2.546 . S
Tb1374 O1419 2.610 . S
Tb1374 O1421 2.320 . S
Tb1374 O1422 2.552 . S
Tb1374 O1423 2.413 . S
Tb1374 O1425 2.362 . S
Tb1374 O1426 2.421 . S
Tb1374 C1438 2.833 . S
C1375 C1378 1.432 . S
C1375 C1379 1.414 . S
C1375 N1382 1.359 . S
C1376 C1378 1.417 . S
C1376 C1380 1.432 . S
C1376 C1388 1.410 . S
C1377 C1379 1.444 . S
C1377 C1380 1.317 . S
C1377 H1400 0.929 . S
C1378 C1375 1.432 . S
C1378 C1376 1.417 . S
C1378 N1386 1.360 . S
C1379 C1375 1.414 . S
C1379 C1377 1.444 . S
C1379 C1384 1.385 . S
C1380 C1376 1.432 . S
C1380 C1377 1.317 . S
C1380 H1392 0.930 . S
C1381 C1383 1.392 . S
C1381 C1384 1.370 . S
C1381 H1393 0.931 . S
N1382 C1375 1.359 . S
N1382 C1383 1.327 . S
N1382 Tb1385 2.600 . S
C1383 C1381 1.392 . S
C1383 N1382 1.327 . S
C1383 H1390 0.930 . S
C1384 C1379 1.385 . S
C1384 C1381 1.370 . S
C1384 H1403 0.930 . S
Tb1385 N1382 2.600 . S
Tb1385 N1386 2.660 . S
Tb1385 O1419 2.362 . S
Tb1385 O1420 2.421 . S
Tb1385 O1424 2.546 . S
Tb1385 O1425 2.610 . S
Tb1385 O1427 2.320 . S
Tb1385 O1428 2.552 . S
Tb1385 O1429 2.413 . S
Tb1385 C1449 2.833 . S
N1386 C1378 1.360 . S
N1386 Tb1385 2.660 . S
N1386 C1387 1.305 . S
C1387 N1386 1.305 . S
C1387 C1389 1.407 . S
C1387 H1394 0.930 . S
C1388 C1376 1.410 . S
C1388 C1389 1.345 . S
C1388 H1396 0.930 . S
C1389 C1387 1.407 . S
C1389 C1388 1.345 . S
C1389 H1391 0.930 . S
H1390 C1383 0.930 . S
H1391 C1389 0.930 . S
H1392 C1380 0.930 . S
H1393 C1381 0.931 . S
H1394 C1387 0.930 . S
H1395 C1409 0.930 . S
H1396 C1388 0.930 . S
H1397 C1415 0.930 . S
H1398 C1406 0.930 . S
H1399 C1413 0.931 . S
H1400 C1377 0.929 . S
H1401 C1407 0.930 . S
H1402 C1440 0.930 . S
H1403 C1384 0.930 . S
H1404 C1439 0.929 . S
N1405 Tb1374 2.660 . S
N1405 C1406 1.305 . S
N1405 C1410 1.360 . S
C1406 H1398 0.930 . S
C1406 N1405 1.305 . S
C1406 C1409 1.407 . S
C1407 H1401 0.930 . S
C1407 C1408 1.410 . S
C1407 C1409 1.345 . S
C1408 C1407 1.410 . S
C1408 C1410 1.417 . S
C1408 C1440 1.432 . S
C1409 H1395 0.930 . S
C1409 C1406 1.407 . S
C1409 C1407 1.345 . S
C1410 N1405 1.360 . S
C1410 C1408 1.417 . S
C1410 C1414 1.432 . S
H1411 C1416 0.930 . S
N1412 Tb1374 2.600 . S
N1412 C1414 1.359 . S
N1412 C1415 1.327 . S
C1413 H1399 0.931 . S
C1413 C1415 1.392 . S
C1413 C1416 1.370 . S
C1414 C1410 1.432 . S
C1414 N1412 1.359 . S
C1414 C1417 1.414 . S
C1415 H1397 0.930 . S
C1415 N1412 1.327 . S
C1415 C1413 1.392 . S
C1416 H1411 0.930 . S
C1416 C1413 1.370 . S
C1416 C1417 1.385 . S
C1417 C1414 1.414 . S
C1417 C1416 1.385 . S
C1417 C1439 1.444 . S
O1418 Tb1374 2.546 . S
O1418 C1438 1.251 . S
O1419 Tb1374 2.610 . S
O1419 Tb1385 2.362 . S
O1419 C1430 1.283 . S
O1420 Tb1385 2.421 . S
O1420 C1437 1.262 . S
O1421 Tb1374 2.320 . S
O1421 C1437 1.260 . S
O1422 Tb1374 2.552 . S
O1422 C1430 1.243 . S
O1423 Tb1374 2.413 . S
O1423 C1438 1.256 . S
O1424 Tb1385 2.546 . S
O1424 C1449 1.251 . S
O1425 Tb1374 2.362 . S
O1425 Tb1385 2.610 . S
O1425 C1441 1.283 . S
O1426 Tb1374 2.421 . S
O1426 C1448 1.262 . S
O1427 Tb1385 2.320 . S
O1427 C1448 1.260 . S
O1428 Tb1385 2.552 . S
O1428 C1441 1.243 . S
O1429 Tb1385 2.413 . S
O1429 C1449 1.256 . S
C1430 O1419 1.283 . S
C1430 O1422 1.243 . S
C1431 C1433 1.382 . S
C1431 C1435 1.393 . S
C1431 C1438 1.500 . S
C1432 C1433 1.400 . S
C1432 C1434 1.384 . S
C1433 C1431 1.382 . S
C1433 C1432 1.400 . S
C1433 H1450 0.930 . S
C1434 C1432 1.384 . S
C1434 C1436 1.392 . S
C1434 H1451 0.931 . S
C1435 C1431 1.393 . S
C1435 C1436 1.401 . S
C1435 H1452 0.930 . S
C1436 C1434 1.392 . S
C1436 C1435 1.401 . S
C1436 H1453 0.930 . S
C1437 O1420 1.262 . S
C1437 O1421 1.260 . S
C1438 Tb1374 2.833 . S
C1438 O1418 1.251 . S
C1438 O1423 1.256 . S
C1438 C1431 1.500 . S
C1439 H1404 0.929 . S
C1439 C1417 1.444 . S
C1439 C1440 1.317 . S
C1440 H1402 0.930 . S
C1440 C1408 1.432 . S
C1440 C1439 1.317 . S
C1441 O1425 1.283 . S
C1441 O1428 1.243 . S
C1442 C1443 1.382 . S
C1442 C1446 1.393 . S
C1442 C1449 1.500 . S
C1443 C1442 1.382 . S
C1443 C1444 1.400 . S
C1443 H1454 0.930 . S
C1444 C1443 1.400 . S
C1444 C1445 1.384 . S
C1445 C1444 1.384 . S
C1445 C1447 1.392 . S
C1445 H1455 0.931 . S
C1446 C1442 1.393 . S
C1446 C1447 1.401 . S
C1446 H1456 0.930 . S
C1447 C1445 1.392 . S
C1447 C1446 1.401 . S
C1447 H1457 0.930 . S
C1448 O1426 1.262 . S
C1448 O1427 1.260 . S
C1449 Tb1385 2.833 . S
C1449 O1424 1.251 . S
C1449 O1429 1.256 . S
C1449 C1442 1.500 . S
H1450 C1433 0.930 . S
H1451 C1434 0.931 . S
H1452 C1435 0.930 . S
H1453 C1436 0.930 . S
H1454 C1443 0.930 . S
H1455 C1445 0.931 . S
H1456 C1446 0.930 . S
H1457 C1447 0.930 . S
C1458 C1459 1.369 . S
C1458 C1460 1.419 . S
C1458 H1462 0.930 . S
C1459 C1458 1.369 . S
C1459 C1468 1.429 . S
C1460 C1458 1.419 . S
C1460 C1461 1.363 . S
C1460 H1463 0.929 . S
C1461 C1460 1.363 . S
C1461 C1467 1.428 . S
H1462 C1458 0.930 . S
H1463 C1460 0.929 . S
S1464 N1465 1.613 . S
S1464 N1466 1.610 . S
N1465 S1464 1.613 . S
N1465 C1468 1.350 . S
N1466 S1464 1.610 . S
N1466 C1467 1.351 . S
C1467 C1461 1.428 . S
C1467 N1466 1.351 . S
C1467 C1468 1.434 . S
C1468 C1459 1.429 . S
C1468 N1465 1.350 . S
C1468 C1467 1.434 . S
C1469 C1470 1.369 . S
C1469 C1471 1.419 . S
C1469 H1473 0.930 . S
C1470 C1469 1.369 . S
C1470 C1479 1.429 . S
C1471 C1469 1.419 . S
C1471 C1472 1.363 . S
C1471 H1474 0.929 . S
C1472 C1471 1.363 . S
C1472 C1478 1.428 . S
H1473 C1469 0.930 . S
H1474 C1471 0.929 . S
S1475 N1476 1.613 . S
S1475 N1477 1.610 . S
N1476 S1475 1.613 . S
N1476 C1479 1.350 . S
N1477 S1475 1.610 . S
N1477 C1478 1.351 . S
C1478 C1472 1.428 . S
C1478 N1477 1.351 . S
C1478 C1479 1.434 . S
C1479 C1470 1.429 . S
C1479 N1476 1.350 . S
C1479 C1478 1.434 . S
C1480 C1481 1.369 . S
C1480 C1482 1.419 . S
C1480 H1484 0.930 . S
C1481 C1480 1.369 . S
C1481 C1490 1.429 . S
C1482 C1480 1.419 . S
C1482 C1483 1.363 . S
C1482 H1485 0.929 . S
C1483 C1482 1.363 . S
C1483 C1489 1.428 . S
H1484 C1480 0.930 . S
H1485 C1482 0.929 . S
S1486 N1487 1.613 1_556 S
S1486 N1488 1.610 . S
N1487 S1486 1.613 1_554 S
N1487 C1490 1.350 . S
N1488 S1486 1.610 . S
N1488 C1489 1.351 1_556 S
C1489 C1483 1.428 . S
C1489 N1488 1.351 1_554 S
C1489 C1490 1.434 . S
C1490 C1481 1.429 . S
C1490 N1487 1.350 . S
C1490 C1489 1.434 . S
C1491 C1492 1.369 . S
C1491 C1493 1.419 . S
C1491 H1495 0.930 . S
C1492 C1491 1.369 . S
C1492 C1501 1.429 . S
C1493 C1491 1.419 . S
C1493 C1494 1.363 . S
C1493 H1496 0.929 . S
C1494 C1493 1.363 . S
C1494 C1500 1.428 . S
H1495 C1491 0.930 . S
H1496 C1493 0.929 . S
S1497 N1498 1.613 1_554 S
S1497 N1499 1.610 . S
N1498 S1497 1.613 1_556 S
N1498 C1501 1.350 . S
N1499 S1497 1.610 . S
N1499 C1500 1.351 1_554 S
C1500 C1494 1.428 . S
C1500 N1499 1.351 1_556 S
C1500 C1501 1.434 . S
C1501 C1492 1.429 . S
C1501 N1498 1.350 . S
C1501 C1500 1.434 . S
C1502 C1503 1.369 . S
C1502 C1504 1.419 . S
C1502 H1506 0.930 . S
C1503 C1502 1.369 . S
C1503 C1512 1.429 . S
C1504 C1502 1.419 . S
C1504 C1505 1.363 . S
C1504 H1507 0.929 . S
C1505 C1504 1.363 . S
C1505 C1511 1.428 . S
H1506 C1502 0.930 . S
H1507 C1504 0.929 . S
S1508 N1509 1.613 . S
S1508 N1510 1.610 . S
N1509 S1508 1.613 . S
N1509 C1512 1.350 . S
N1510 S1508 1.610 . S
N1510 C1511 1.351 . S
C1511 C1505 1.428 . S
C1511 N1510 1.351 . S
C1511 C1512 1.434 . S
C1512 C1503 1.429 . S
C1512 N1509 1.350 . S
C1512 C1511 1.434 . S
C1513 C1514 1.369 . S
C1513 C1515 1.419 . S
C1513 H1517 0.930 . S
C1514 C1513 1.369 . S
C1514 C1523 1.429 . S
C1515 C1513 1.419 . S
C1515 C1516 1.363 . S
C1515 H1518 0.929 . S
C1516 C1515 1.363 . S
C1516 C1522 1.428 . S
H1517 C1513 0.930 . S
H1518 C1515 0.929 . S
S1519 N1520 1.613 . S
S1519 N1521 1.610 . S
N1520 S1519 1.613 . S
N1520 C1523 1.350 . S
N1521 S1519 1.610 . S
N1521 C1522 1.351 . S
C1522 C1516 1.428 . S
C1522 N1521 1.351 . S
C1522 C1523 1.434 . S
C1523 C1514 1.429 . S
C1523 N1520 1.350 . S
C1523 C1522 1.434 . S
C1524 C1525 1.369 . S
C1524 C1526 1.419 . S
C1524 H1528 0.930 . S
C1525 C1524 1.369 . S
C1525 C1534 1.429 . S
C1526 C1524 1.419 . S
C1526 C1527 1.363 . S
C1526 H1529 0.929 . S
C1527 C1526 1.363 . S
C1527 C1533 1.428 . S
H1528 C1524 0.930 . S
H1529 C1526 0.929 . S
S1530 N1531 1.613 1_554 S
S1530 N1532 1.610 . S
N1531 S1530 1.613 1_556 S
N1531 C1534 1.350 . S
N1532 S1530 1.610 . S
N1532 C1533 1.351 1_554 S
C1533 C1527 1.428 . S
C1533 N1532 1.351 1_556 S
C1533 C1534 1.434 . S
C1534 C1525 1.429 . S
C1534 N1531 1.350 . S
C1534 C1533 1.434 . S
C1535 C1536 1.369 . S
C1535 C1537 1.419 . S
C1535 H1539 0.930 . S
C1536 C1535 1.369 . S
C1536 C1545 1.429 . S
C1537 C1535 1.419 . S
C1537 C1538 1.363 . S
C1537 H1540 0.945 . S
C1538 C1537 1.363 . S
C1538 C1544 1.428 . S
H1539 C1535 0.930 . S
H1540 C1537 0.945 . S
S1541 N1542 1.613 . S
S1541 N1543 1.610 . S
N1542 S1541 1.613 . S
N1542 C1545 1.350 . S
N1543 S1541 1.610 . S
N1543 C1544 1.351 . S
C1544 C1538 1.428 . S
C1544 N1543 1.351 . S
C1544 C1545 1.434 . S
C1545 C1536 1.429 . S
C1545 N1542 1.350 . S
C1545 C1544 1.434 . S
C1546 C1547 1.369 . S
C1546 C1548 1.419 . S
C1546 H1550 0.930 . S
C1547 C1546 1.369 . S
C1547 C1556 1.429 . S
C1548 C1546 1.419 . S
C1548 C1549 1.363 . S
C1548 H1551 0.929 1_556 S
C1549 C1548 1.363 . S
C1549 C1555 1.428 . S
H1550 C1546 0.930 . S
H1551 C1548 0.929 1_554 S
S1552 N1553 1.613 . S
S1552 N1554 1.610 . S
N1553 S1552 1.613 . S
N1553 C1556 1.350 . S
N1554 S1552 1.610 . S
N1554 C1555 1.351 . S
C1555 C1549 1.428 . S
C1555 N1554 1.351 . S
C1555 C1556 1.434 . S
C1556 C1547 1.429 . S
C1556 N1553 1.350 . S
C1556 C1555 1.434 . S
C1557 C1558 1.369 . S
C1557 C1559 1.419 . S
C1557 H1561 0.930 . S
C1558 C1557 1.369 . S
C1558 C1567 1.429 . S
C1559 C1557 1.419 . S
C1559 C1560 1.363 . S
C1559 H1562 0.929 . S
C1560 C1559 1.363 . S
C1560 C1566 1.428 . S
H1561 C1557 0.930 . S
H1562 C1559 0.929 . S
S1563 N1564 1.613 1_556 S
S1563 N1565 1.610 . S
N1564 S1563 1.613 1_554 S
N1564 C1567 1.350 . S
N1565 S1563 1.610 . S
N1565 C1566 1.351 1_556 S
C1566 C1560 1.428 . S
C1566 N1565 1.351 1_554 S
C1566 C1567 1.434 . S
C1567 C1558 1.429 . S
C1567 N1564 1.350 . S
C1567 C1566 1.434 . S
C1568 C1569 1.369 . S
C1568 C1570 1.419 . S
C1568 H1572 0.930 . S
C1569 C1568 1.369 . S
C1569 C1578 1.429 . S
C1570 C1568 1.419 . S
C1570 C1571 1.363 . S
C1570 H1573 0.929 . S
C1571 C1570 1.363 . S
C1571 C1577 1.428 . S
H1572 C1568 0.930 . S
H1573 C1570 0.929 . S
S1574 N1575 1.613 1_556 S
S1574 N1576 1.610 . S
N1575 S1574 1.613 1_554 S
N1575 C1578 1.350 . S
N1576 S1574 1.610 . S
N1576 C1577 1.351 1_556 S
C1577 C1571 1.428 . S
C1577 N1576 1.351 1_554 S
C1577 C1578 1.434 . S
C1578 C1569 1.429 . S
C1578 N1575 1.350 . S
C1578 C1577 1.434 . S
C1579 C1580 1.369 . S
C1579 C1581 1.419 . S
C1579 H1583 0.930 . S
C1580 C1579 1.369 . S
C1580 C1589 1.429 . S
C1581 C1579 1.419 . S
C1581 C1582 1.363 . S
C1581 H1584 0.929 1_554 S
C1582 C1581 1.363 . S
C1582 C1588 1.428 . S
H1583 C1579 0.930 . S
H1584 C1581 0.929 1_556 S
S1585 N1586 1.613 . S
S1585 N1587 1.610 . S
N1586 S1585 1.613 . S
N1586 C1589 1.350 . S
N1587 S1585 1.610 . S
N1587 C1588 1.351 . S
C1588 C1582 1.428 . S
C1588 N1587 1.351 . S
C1588 C1589 1.434 . S
C1589 C1580 1.429 . S
C1589 N1586 1.350 . S
C1589 C1588 1.434 . S
C1590 C1591 1.369 . S
C1590 C1592 1.419 . S
C1590 H1594 0.930 . S
C1591 C1590 1.369 . S
C1591 C1600 1.429 . S
C1592 C1590 1.419 . S
C1592 C1593 1.363 . S
C1592 H1595 0.929 . S
C1593 C1592 1.363 . S
C1593 C1599 1.428 . S
H1594 C1590 0.930 . S
H1595 C1592 0.929 . S
S1596 N1597 1.613 . S
S1596 N1598 1.610 . S
N1597 S1596 1.613 . S
N1597 C1600 1.350 . S
N1598 S1596 1.610 . S
N1598 C1599 1.351 . S
C1599 C1593 1.428 . S
C1599 N1598 1.351 . S
C1599 C1600 1.434 . S
C1600 C1591 1.429 . S
C1600 N1597 1.350 . S
C1600 C1599 1.434 . S
C1601 C1602 1.369 . S
C1601 C1603 1.419 . S
C1601 H1605 0.930 . S
C1602 C1601 1.369 . S
C1602 C1611 1.429 . S
C1603 C1601 1.419 . S
C1603 C1604 1.363 . S
C1603 H1606 0.929 . S
C1604 C1603 1.363 . S
C1604 C1610 1.428 . S
H1605 C1601 0.930 . S
H1606 C1603 0.929 . S
S1607 N1608 1.613 . S
S1607 N1609 1.610 . S
N1608 S1607 1.613 . S
N1608 C1611 1.350 . S
N1609 S1607 1.610 . S
N1609 C1610 1.351 . S
C1610 C1604 1.428 . S
C1610 N1609 1.351 . S
C1610 C1611 1.434 . S
C1611 C1602 1.429 . S
C1611 N1608 1.350 . S
C1611 C1610 1.434 . S
C1612 C1613 1.369 . S
C1612 C1614 1.419 . S
C1612 H1616 0.930 . S
C1613 C1612 1.369 . S
C1613 C1622 1.429 . S
C1614 C1612 1.419 . S
C1614 C1615 1.363 . S
C1614 H1617 0.929 . S
C1615 C1614 1.363 . S
C1615 C1621 1.428 . S
H1616 C1612 0.930 . S
H1617 C1614 0.929 . S
S1618 N1619 1.613 . S
S1618 N1620 1.610 . S
N1619 S1618 1.613 . S
N1619 C1622 1.350 . S
N1620 S1618 1.610 . S
N1620 C1621 1.351 . S
C1621 C1615 1.428 . S
C1621 N1620 1.351 . S
C1621 C1622 1.434 . S
C1622 C1613 1.429 . S
C1622 N1619 1.350 . S
C1622 C1621 1.434 . S
C1623 C1624 1.369 . S
C1623 C1625 1.419 . S
C1623 H1627 0.930 . S
C1624 C1623 1.369 . S
C1624 C1633 1.429 . S
C1625 C1623 1.419 . S
C1625 C1626 1.363 . S
C1625 H1628 0.929 . S
C1626 C1625 1.363 . S
C1626 C1632 1.428 . S
H1627 C1623 0.930 . S
H1628 C1625 0.929 . S
S1629 N1630 1.613 . S
S1629 N1631 1.610 . S
N1630 S1629 1.613 . S
N1630 C1633 1.350 . S
N1631 S1629 1.610 . S
N1631 C1632 1.351 . S
C1632 C1626 1.428 . S
C1632 N1631 1.351 . S
C1632 C1633 1.434 . S
C1633 C1624 1.429 . S
C1633 N1630 1.350 . S
C1633 C1632 1.434 . S
C1634 C1635 1.369 . S
C1634 C1636 1.419 . S
C1634 H1638 0.930 . S
C1635 C1634 1.369 . S
C1635 C1644 1.429 . S
C1636 C1634 1.419 . S
C1636 C1637 1.363 . S
C1636 H1639 0.929 . S
C1637 C1636 1.363 . S
C1637 C1643 1.428 . S
H1638 C1634 0.930 . S
H1639 C1636 0.929 . S
S1640 N1641 1.613 . S
S1640 N1642 1.610 . S
N1641 S1640 1.613 . S
N1641 C1644 1.350 . S
N1642 S1640 1.610 . S
N1642 C1643 1.351 . S
C1643 C1637 1.428 . S
C1643 N1642 1.351 . S
C1643 C1644 1.434 . S
C1644 C1635 1.429 . S
C1644 N1641 1.350 . S
C1644 C1643 1.434 . S
C1645 C1646 1.369 . S
C1645 C1647 1.419 . S
C1645 H1649 0.930 . S
C1646 C1645 1.369 . S
C1646 C1655 1.429 . S
C1647 C1645 1.419 . S
C1647 C1648 1.363 . S
C1647 H1650 0.929 . S
C1648 C1647 1.363 . S
C1648 C1654 1.428 . S
H1649 C1645 0.930 . S
H1650 C1647 0.929 . S
S1651 N1652 1.613 . S
S1651 N1653 1.610 . S
N1652 S1651 1.613 . S
N1652 C1655 1.350 . S
N1653 S1651 1.610 . S
N1653 C1654 1.351 . S
C1654 C1648 1.428 . S
C1654 N1653 1.351 . S
C1654 C1655 1.434 . S
C1655 C1646 1.429 . S
C1655 N1652 1.350 . S
C1655 C1654 1.434 . S
C1656 C1657 1.369 . S
C1656 C1658 1.419 . S
C1656 H1660 0.930 . S
C1657 C1656 1.369 . S
C1657 C1666 1.429 . S
C1658 C1656 1.419 . S
C1658 C1659 1.363 . S
C1658 H1661 0.929 . S
C1659 C1658 1.363 . S
C1659 C1665 1.428 . S
H1660 C1656 0.930 . S
H1661 C1658 0.929 . S
S1662 N1663 1.613 . S
S1662 N1664 1.610 . S
N1663 S1662 1.613 . S
N1663 C1666 1.350 . S
N1664 S1662 1.610 . S
N1664 C1665 1.351 . S
C1665 C1659 1.428 . S
C1665 N1664 1.351 . S
C1665 C1666 1.434 . S
C1666 C1657 1.429 . S
C1666 N1663 1.350 . S
C1666 C1665 1.434 . S
C1667 C1668 1.369 . S
C1667 C1669 1.419 . S
C1667 H1671 0.930 . S
C1668 C1667 1.369 . S
C1668 C1677 1.429 . S
C1669 C1667 1.419 . S
C1669 C1670 1.363 . S
C1669 H1672 0.929 . S
C1670 C1669 1.363 . S
C1670 C1676 1.428 . S
H1671 C1667 0.930 . S
H1672 C1669 0.929 . S
S1673 N1674 1.613 . S
S1673 N1675 1.610 . S
N1674 S1673 1.613 . S
N1674 C1677 1.350 . S
N1675 S1673 1.610 . S
N1675 C1676 1.351 . S
C1676 C1670 1.428 . S
C1676 N1675 1.351 . S
C1676 C1677 1.434 . S
C1677 C1668 1.429 . S
C1677 N1674 1.350 . S
C1677 C1676 1.434 . S
C1678 C1679 1.369 . S
C1678 C1680 1.419 . S
C1678 H1682 0.930 . S
C1679 C1678 1.369 . S
C1679 C1688 1.429 . S
C1680 C1678 1.419 . S
C1680 C1681 1.363 . S
C1680 H1683 0.929 . S
C1681 C1680 1.363 . S
C1681 C1687 1.428 . S
H1682 C1678 0.930 . S
H1683 C1680 0.929 . S
S1684 N1685 1.613 . S
S1684 N1686 1.610 . S
N1685 S1684 1.613 . S
N1685 C1688 1.350 . S
N1686 S1684 1.610 . S
N1686 C1687 1.351 . S
C1687 C1681 1.428 . S
C1687 N1686 1.351 . S
C1687 C1688 1.434 . S
C1688 C1679 1.429 . S
C1688 N1685 1.350 . S
C1688 C1687 1.434 . S
C1689 C1690 1.369 . S
C1689 C1691 1.419 . S
C1689 H1693 0.930 . S
C1690 C1689 1.369 . S
C1690 C1699 1.429 . S
C1691 C1689 1.419 . S
C1691 C1692 1.363 . S
C1691 H1694 0.929 . S
C1692 C1691 1.363 . S
C1692 C1698 1.428 . S
H1693 C1689 0.930 . S
H1694 C1691 0.929 . S
S1695 N1696 1.613 . S
S1695 N1697 1.610 . S
N1696 S1695 1.613 . S
N1696 C1699 1.350 . S
N1697 S1695 1.610 . S
N1697 C1698 1.351 . S
C1698 C1692 1.428 . S
C1698 N1697 1.351 . S
C1698 C1699 1.434 . S
C1699 C1690 1.429 . S
C1699 N1696 1.350 . S
C1699 C1698 1.434 . S
C1700 C1701 1.369 . S
C1700 C1702 1.419 . S
C1700 H1704 0.930 . S
C1701 C1700 1.369 . S
C1701 C1710 1.429 . S
C1702 C1700 1.419 . S
C1702 C1703 1.363 . S
C1702 H1705 0.929 . S
C1703 C1702 1.363 . S
C1703 C1709 1.428 . S
H1704 C1700 0.930 . S
H1705 C1702 0.929 . S
S1706 N1707 1.613 . S
S1706 N1708 1.610 . S
N1707 S1706 1.613 . S
N1707 C1710 1.350 . S
N1708 S1706 1.610 . S
N1708 C1709 1.351 . S
C1709 C1703 1.428 . S
C1709 N1708 1.351 . S
C1709 C1710 1.434 . S
C1710 C1701 1.429 . S
C1710 N1707 1.350 . S
C1710 C1709 1.434 . S
C1711 C1712 1.369 . S
C1711 C1713 1.419 . S
C1711 H1715 0.930 . S
C1712 C1711 1.369 . S
C1712 C1721 1.429 . S
C1713 C1711 1.419 . S
C1713 C1714 1.363 . S
C1713 H1716 0.929 . S
C1714 C1713 1.363 . S
C1714 C1720 1.428 . S
H1715 C1711 0.930 . S
H1716 C1713 0.929 . S
S1717 N1718 1.613 . S
S1717 N1719 1.610 . S
N1718 S1717 1.613 . S
N1718 C1721 1.350 . S
N1719 S1717 1.610 . S
N1719 C1720 1.351 . S
C1720 C1714 1.428 . S
C1720 N1719 1.351 . S
C1720 C1721 1.434 . S
C1721 C1712 1.429 . S
C1721 N1718 1.350 . S
C1721 C1720 1.434 . S
C1722 C1723 1.369 . S
C1722 C1724 1.419 . S
C1722 H1726 0.930 . S
C1723 C1722 1.369 . S
C1723 C1732 1.429 . S
C1724 C1722 1.419 . S
C1724 C1725 1.363 . S
C1724 H1727 0.929 . S
C1725 C1724 1.363 . S
C1725 C1731 1.428 . S
H1726 C1722 0.930 . S
H1727 C1724 0.929 . S
S1728 N1729 1.613 . S
S1728 N1730 1.610 . S
N1729 S1728 1.613 . S
N1729 C1732 1.350 . S
N1730 S1728 1.610 . S
N1730 C1731 1.351 . S
C1731 C1725 1.428 . S
C1731 N1730 1.351 . S
C1731 C1732 1.434 . S
C1732 C1723 1.429 . S
C1732 N1729 1.350 . S
C1732 C1731 1.434 . S
C1733 C1734 1.369 . S
C1733 C1735 1.419 . S
C1733 H1737 0.930 . S
C1734 C1733 1.369 . S
C1734 C1743 1.429 . S
C1735 C1733 1.419 . S
C1735 C1736 1.363 . S
C1735 H1738 0.929 . S
C1736 C1735 1.363 . S
C1736 C1742 1.428 . S
H1737 C1733 0.930 . S
H1738 C1735 0.929 . S
S1739 N1740 1.613 . S
S1739 N1741 1.610 . S
N1740 S1739 1.613 . S
N1740 C1743 1.350 . S
N1741 S1739 1.610 . S
N1741 C1742 1.351 . S
C1742 C1736 1.428 . S
C1742 N1741 1.351 . S
C1742 C1743 1.434 . S
C1743 C1734 1.429 . S
C1743 N1740 1.350 . S
C1743 C1742 1.434 . S
C1744 C1745 1.369 . S
C1744 C1746 1.419 . S
C1744 H1748 0.930 . S
C1745 C1744 1.369 . S
C1745 C1754 1.429 . S
C1746 C1744 1.419 . S
C1746 C1747 1.363 . S
C1746 H1749 0.929 . S
C1747 C1746 1.363 . S
C1747 C1753 1.428 . S
H1748 C1744 0.930 . S
H1749 C1746 0.929 . S
S1750 N1751 1.613 . S
S1750 N1752 1.610 . S
N1751 S1750 1.613 . S
N1751 C1754 1.350 . S
N1752 S1750 1.610 . S
N1752 C1753 1.351 . S
C1753 C1747 1.428 . S
C1753 N1752 1.351 . S
C1753 C1754 1.434 . S
C1754 C1745 1.429 . S
C1754 N1751 1.350 . S
C1754 C1753 1.434 . S
C1755 C1756 1.369 . S
C1755 C1757 1.419 . S
C1755 H1759 0.930 . S
C1756 C1755 1.369 . S
C1756 C1765 1.429 . S
C1757 C1755 1.419 . S
C1757 C1758 1.363 . S
C1757 H1760 0.929 . S
C1758 C1757 1.363 . S
C1758 C1764 1.428 . S
H1759 C1755 0.930 . S
H1760 C1757 0.929 . S
S1761 N1762 1.613 . S
S1761 N1763 1.610 . S
N1762 S1761 1.613 . S
N1762 C1765 1.350 . S
N1763 S1761 1.610 . S
N1763 C1764 1.351 . S
C1764 C1758 1.428 . S
C1764 N1763 1.351 . S
C1764 C1765 1.434 . S
C1765 C1756 1.429 . S
C1765 N1762 1.350 . S
C1765 C1764 1.434 . S
C1766 C1767 1.369 . S
C1766 C1768 1.419 . S
C1766 H1770 0.930 . S
C1767 C1766 1.369 . S
C1767 C1776 1.429 . S
C1768 C1766 1.419 . S
C1768 C1769 1.363 . S
C1768 H1771 0.929 . S
C1769 C1768 1.363 . S
C1769 C1775 1.428 . S
H1770 C1766 0.930 . S
H1771 C1768 0.929 . S
S1772 N1773 1.613 . S
S1772 N1774 1.610 . S
N1773 S1772 1.613 . S
N1773 C1776 1.350 . S
N1774 S1772 1.610 . S
N1774 C1775 1.351 . S
C1775 C1769 1.428 . S
C1775 N1774 1.351 . S
C1775 C1776 1.434 . S
C1776 C1767 1.429 . S
C1776 N1773 1.350 . S
C1776 C1775 1.434 . S
C1777 C1778 1.369 . S
C1777 C1779 1.419 . S
C1777 H1781 0.930 . S
C1778 C1777 1.369 . S
C1778 C1787 1.429 . S
C1779 C1777 1.419 . S
C1779 C1780 1.363 . S
C1779 H1782 0.929 . S
C1780 C1779 1.363 . S
C1780 C1786 1.428 . S
H1781 C1777 0.930 . S
H1782 C1779 0.929 . S
S1783 N1784 1.613 . S
S1783 N1785 1.610 . S
N1784 S1783 1.613 . S
N1784 C1787 1.350 . S
N1785 S1783 1.610 . S
N1785 C1786 1.351 . S
C1786 C1780 1.428 . S
C1786 N1785 1.351 . S
C1786 C1787 1.434 . S
C1787 C1778 1.429 . S
C1787 N1784 1.350 . S
C1787 C1786 1.434 . S
C1788 C1789 1.369 . S
C1788 C1790 1.419 . S
C1788 H1792 0.930 . S
C1789 C1788 1.369 . S
C1789 C1798 1.429 . S
C1790 C1788 1.419 . S
C1790 C1791 1.363 . S
C1790 H1793 0.929 . S
C1791 C1790 1.363 . S
C1791 C1797 1.428 . S
H1792 C1788 0.930 . S
H1793 C1790 0.929 . S
S1794 N1795 1.613 . S
S1794 N1796 1.610 . S
N1795 S1794 1.613 . S
N1795 C1798 1.350 . S
N1796 S1794 1.610 . S
N1796 C1797 1.351 . S
C1797 C1791 1.428 . S
C1797 N1796 1.351 . S
C1797 C1798 1.434 . S
C1798 C1789 1.429 . S
C1798 N1795 1.350 . S
C1798 C1797 1.434 . S
C1799 C1800 1.369 . S
C1799 C1801 1.419 . S
C1799 H1803 0.930 . S
C1800 C1799 1.369 . S
C1800 C1809 1.429 . S
C1801 C1799 1.419 . S
C1801 C1802 1.363 . S
C1801 H1804 0.929 . S
C1802 C1801 1.363 . S
C1802 C1808 1.428 . S
H1803 C1799 0.930 . S
H1804 C1801 0.929 . S
S1805 N1806 1.613 . S
S1805 N1807 1.610 . S
N1806 S1805 1.613 . S
N1806 C1809 1.350 . S
N1807 S1805 1.610 . S
N1807 C1808 1.351 . S
C1808 C1802 1.428 . S
C1808 N1807 1.351 . S
C1808 C1809 1.434 . S
C1809 C1800 1.429 . S
C1809 N1806 1.350 . S
C1809 C1808 1.434 . S
C1810 C1811 1.369 . S
C1810 C1812 1.419 . S
C1810 H1814 0.930 . S
C1811 C1810 1.369 . S
C1811 C1820 1.429 . S
C1812 C1810 1.419 . S
C1812 C1813 1.363 . S
C1812 H1815 0.929 . S
C1813 C1812 1.363 . S
C1813 C1819 1.428 . S
H1814 C1810 0.930 . S
H1815 C1812 0.929 . S
S1816 N1817 1.613 . S
S1816 N1818 1.610 . S
N1817 S1816 1.613 . S
N1817 C1820 1.350 . S
N1818 S1816 1.610 . S
N1818 C1819 1.351 . S
C1819 C1813 1.428 . S
C1819 N1818 1.351 . S
C1819 C1820 1.434 . S
C1820 C1811 1.429 . S
C1820 N1817 1.350 . S
C1820 C1819 1.434 . S
C1821 C1822 1.369 . S
C1821 C1823 1.419 . S
C1821 H1825 0.930 . S
C1822 C1821 1.369 . S
C1822 C1831 1.429 . S
C1823 C1821 1.419 . S
C1823 C1824 1.363 . S
C1823 H1826 0.929 . S
C1824 C1823 1.363 . S
C1824 C1830 1.428 . S
H1825 C1821 0.930 . S
H1826 C1823 0.929 . S
S1827 N1828 1.613 . S
S1827 N1829 1.610 . S
N1828 S1827 1.613 . S
N1828 C1831 1.350 . S
N1829 S1827 1.610 . S
N1829 C1830 1.351 . S
C1830 C1824 1.428 . S
C1830 N1829 1.351 . S
C1830 C1831 1.434 . S
C1831 C1822 1.429 . S
C1831 N1828 1.350 . S
C1831 C1830 1.434 . S
C1832 C1833 1.369 . S
C1832 C1834 1.419 . S
C1832 H1836 0.930 . S
C1833 C1832 1.369 . S
C1833 C1842 1.429 . S
C1834 C1832 1.419 . S
C1834 C1835 1.363 . S
C1834 H1837 0.929 . S
C1835 C1834 1.363 . S
C1835 C1841 1.428 . S
H1836 C1832 0.930 . S
H1837 C1834 0.929 . S
S1838 N1839 1.613 . S
S1838 N1840 1.610 . S
N1839 S1838 1.613 . S
N1839 C1842 1.350 . S
N1840 S1838 1.610 . S
N1840 C1841 1.351 . S
C1841 C1835 1.428 . S
C1841 N1840 1.351 . S
C1841 C1842 1.434 . S
C1842 C1833 1.429 . S
C1842 N1839 1.350 . S
C1842 C1841 1.434 . S
C1843 C1844 1.369 . S
C1843 C1845 1.419 . S
C1843 H1847 0.930 . S
C1844 C1843 1.369 . S
C1844 C1853 1.429 . S
C1845 C1843 1.419 . S
C1845 C1846 1.363 . S
C1845 H1848 0.929 . S
C1846 C1845 1.363 . S
C1846 C1852 1.428 . S
H1847 C1843 0.930 . S
H1848 C1845 0.929 . S
S1849 N1850 1.613 . S
S1849 N1851 1.610 . S
N1850 S1849 1.613 . S
N1850 C1853 1.350 . S
N1851 S1849 1.610 . S
N1851 C1852 1.351 . S
C1852 C1846 1.428 . S
C1852 N1851 1.351 . S
C1852 C1853 1.434 . S
C1853 C1844 1.429 . S
C1853 N1850 1.350 . S
C1853 C1852 1.434 . S
C1854 C1855 1.369 . S
C1854 C1856 1.419 . S
C1854 H1858 0.930 . S
C1855 C1854 1.369 . S
C1855 C1864 1.429 . S
C1856 C1854 1.419 . S
C1856 C1857 1.363 . S
C1856 H1859 0.929 1_565 S
C1857 C1856 1.363 . S
C1857 C1863 1.428 . S
H1858 C1854 0.930 . S
H1859 C1856 0.929 1_545 S
S1860 N1861 1.613 . S
S1860 N1862 1.610 . S
N1861 S1860 1.613 . S
N1861 C1864 1.350 . S
N1862 S1860 1.610 . S
N1862 C1863 1.351 . S
C1863 C1857 1.428 . S
C1863 N1862 1.351 . S
C1863 C1864 1.434 . S
C1864 C1855 1.429 . S
C1864 N1861 1.350 . S
C1864 C1863 1.434 . S
C1865 C1866 1.369 . S
C1865 C1867 1.419 . S
C1865 H1869 0.930 . S
C1866 C1865 1.369 . S
C1866 C1875 1.429 . S
C1867 C1865 1.419 . S
C1867 C1868 1.363 . S
C1867 H1870 0.929 . S
C1868 C1867 1.363 . S
C1868 C1874 1.428 . S
H1869 C1865 0.930 . S
H1870 C1867 0.929 . S
S1871 N1872 1.613 . S
S1871 N1873 1.610 . S
N1872 S1871 1.613 . S
N1872 C1875 1.350 . S
N1873 S1871 1.610 . S
N1873 C1874 1.351 . S
C1874 C1868 1.428 . S
C1874 N1873 1.351 . S
C1874 C1875 1.434 . S
C1875 C1866 1.429 . S
C1875 N1872 1.350 . S
C1875 C1874 1.434 . S
C1876 C1877 1.369 . S
C1876 C1878 1.419 . S
C1876 H1880 0.930 . S
C1877 C1876 1.369 . S
C1877 C1886 1.429 . S
C1878 C1876 1.419 . S
C1878 C1879 1.363 . S
C1878 H1881 0.929 . S
C1879 C1878 1.363 . S
C1879 C1885 1.428 . S
H1880 C1876 0.930 . S
H1881 C1878 0.929 . S
S1882 N1883 1.613 . S
S1882 N1884 1.610 . S
N1883 S1882 1.613 . S
N1883 C1886 1.350 . S
N1884 S1882 1.610 . S
N1884 C1885 1.351 . S
C1885 C1879 1.428 . S
C1885 N1884 1.351 . S
C1885 C1886 1.434 . S
C1886 C1877 1.429 . S
C1886 N1883 1.350 . S
C1886 C1885 1.434 . S
C1887 C1888 1.369 . S
C1887 C1889 1.419 . S
C1887 H1891 0.930 . S
C1888 C1887 1.369 . S
C1888 C1897 1.429 . S
C1889 C1887 1.419 . S
C1889 C1890 1.363 . S
C1889 H1892 0.929 . S
C1890 C1889 1.363 . S
C1890 C1896 1.428 . S
H1891 C1887 0.930 . S
H1892 C1889 0.929 . S
S1893 N1894 1.613 . S
S1893 N1895 1.610 . S
N1894 S1893 1.613 . S
N1894 C1897 1.350 . S
N1895 S1893 1.610 . S
N1895 C1896 1.351 . S
C1896 C1890 1.428 . S
C1896 N1895 1.351 . S
C1896 C1897 1.434 . S
C1897 C1888 1.429 . S
C1897 N1894 1.350 . S
C1897 C1896 1.434 . S
C1898 C1899 1.369 . S
C1898 C1900 1.419 . S
C1898 H1902 0.930 . S
C1899 C1898 1.369 . S
C1899 C1908 1.429 . S
C1900 C1898 1.419 . S
C1900 C1901 1.363 . S
C1900 H1903 0.929 . S
C1901 C1900 1.363 . S
C1901 C1907 1.428 . S
H1902 C1898 0.930 . S
H1903 C1900 0.929 . S
S1904 N1905 1.613 . S
S1904 N1906 1.610 . S
N1905 S1904 1.613 . S
N1905 C1908 1.350 . S
N1906 S1904 1.610 . S
N1906 C1907 1.351 . S
C1907 C1901 1.428 . S
C1907 N1906 1.351 . S
C1907 C1908 1.434 . S
C1908 C1899 1.429 . S
C1908 N1905 1.350 . S
C1908 C1907 1.434 . S
C1909 C1910 1.369 . S
C1909 C1911 1.419 . S
C1909 H1913 0.930 . S
C1910 C1909 1.369 . S
C1910 C1919 1.429 . S
C1911 C1909 1.419 . S
C1911 C1912 1.363 . S
C1911 H1914 0.929 . S
C1912 C1911 1.363 . S
C1912 C1918 1.428 . S
H1913 C1909 0.930 . S
H1914 C1911 0.929 . S
S1915 N1916 1.613 . S
S1915 N1917 1.610 . S
N1916 S1915 1.613 . S
N1916 C1919 1.350 . S
N1917 S1915 1.610 . S
N1917 C1918 1.351 . S
C1918 C1912 1.428 . S
C1918 N1917 1.351 . S
C1918 C1919 1.434 . S
C1919 C1910 1.429 . S
C1919 N1916 1.350 . S
C1919 C1918 1.434 . S
C1920 C1921 1.369 . S
C1920 C1922 1.419 . S
C1920 H1924 0.930 . S
C1921 C1920 1.369 . S
C1921 C1930 1.429 . S
C1922 C1920 1.419 . S
C1922 C1923 1.363 . S
C1922 H1925 0.929 . S
C1923 C1922 1.363 . S
C1923 C1929 1.428 . S
H1924 C1920 0.930 . S
H1925 C1922 0.929 . S
S1926 N1927 1.613 . S
S1926 N1928 1.610 . S
N1927 S1926 1.613 . S
N1927 C1930 1.350 . S
N1928 S1926 1.610 . S
N1928 C1929 1.351 . S
C1929 C1923 1.428 . S
C1929 N1928 1.351 . S
C1929 C1930 1.434 . S
C1930 C1921 1.429 . S
C1930 N1927 1.350 . S
C1930 C1929 1.434 . S
C1931 C1932 1.369 . S
C1931 C1933 1.419 . S
C1931 H1935 0.930 . S
C1932 C1931 1.369 . S
C1932 C1941 1.429 . S
C1933 C1931 1.419 . S
C1933 C1934 1.363 . S
C1933 H1936 0.929 . S
C1934 C1933 1.363 . S
C1934 C1940 1.428 . S
H1935 C1931 0.930 . S
H1936 C1933 0.929 . S
S1937 N1938 1.613 . S
S1937 N1939 1.610 . S
N1938 S1937 1.613 . S
N1938 C1941 1.350 . S
N1939 S1937 1.610 . S
N1939 C1940 1.351 . S
C1940 C1934 1.428 . S
C1940 N1939 1.351 . S
C1940 C1941 1.434 . S
C1941 C1932 1.429 . S
C1941 N1938 1.350 . S
C1941 C1940 1.434 . S
C1942 C1943 1.369 . S
C1942 C1944 1.419 . S
C1942 H1946 0.930 . S
C1943 C1942 1.369 . S
C1943 C1952 1.429 . S
C1944 C1942 1.419 . S
C1944 C1945 1.363 . S
C1944 H1947 0.929 . S
C1945 C1944 1.363 . S
C1945 C1951 1.428 . S
H1946 C1942 0.930 . S
H1947 C1944 0.929 . S
S1948 N1949 1.613 . S
S1948 N1950 1.610 . S
N1949 S1948 1.613 . S
N1949 C1952 1.350 . S
N1950 S1948 1.610 . S
N1950 C1951 1.351 . S
C1951 C1945 1.428 . S
C1951 N1950 1.351 . S
C1951 C1952 1.434 . S
C1952 C1943 1.429 . S
C1952 N1949 1.350 . S
C1952 C1951 1.434 . S
C1953 C1954 1.369 . S
C1953 C1955 1.419 . S
C1953 H1957 0.930 . S
C1954 C1953 1.369 . S
C1954 C1963 1.429 . S
C1955 C1953 1.419 . S
C1955 C1956 1.363 . S
C1955 H1958 0.929 . S
C1956 C1955 1.363 . S
C1956 C1962 1.428 . S
H1957 C1953 0.930 . S
H1958 C1955 0.929 . S
S1959 N1960 1.613 . S
S1959 N1961 1.610 . S
N1960 S1959 1.613 . S
N1960 C1963 1.350 . S
N1961 S1959 1.610 . S
N1961 C1962 1.351 . S
C1962 C1956 1.428 . S
C1962 N1961 1.351 . S
C1962 C1963 1.434 . S
C1963 C1954 1.429 . S
C1963 N1960 1.350 . S
C1963 C1962 1.434 . S
C1964 C1965 1.369 . S
C1964 C1966 1.419 . S
C1964 H1968 0.930 . S
C1965 C1964 1.369 . S
C1965 C1974 1.429 . S
C1966 C1964 1.419 . S
C1966 C1967 1.363 . S
C1966 H1969 0.929 . S
C1967 C1966 1.363 . S
C1967 C1973 1.428 . S
H1968 C1964 0.930 . S
H1969 C1966 0.929 . S
S1970 N1971 1.613 . S
S1970 N1972 1.610 . S
N1971 S1970 1.613 . S
N1971 C1974 1.350 . S
N1972 S1970 1.610 . S
N1972 C1973 1.351 . S
C1973 C1967 1.428 . S
C1973 N1972 1.351 . S
C1973 C1974 1.434 . S
C1974 C1965 1.429 . S
C1974 N1971 1.350 . S
C1974 C1973 1.434 . S
C1975 C1976 1.369 . S
C1975 C1977 1.419 . S
C1975 H1979 0.930 . S
C1976 C1975 1.369 . S
C1976 C1985 1.429 . S
C1977 C1975 1.419 . S
C1977 C1978 1.363 . S
C1977 H1980 0.929 . S
C1978 C1977 1.363 . S
C1978 C1984 1.428 . S
H1979 C1975 0.930 . S
H1980 C1977 0.929 . S
S1981 N1982 1.613 . S
S1981 N1983 1.610 . S
N1982 S1981 1.613 . S
N1982 C1985 1.350 . S
N1983 S1981 1.610 . S
N1983 C1984 1.351 . S
C1984 C1978 1.428 . S
C1984 N1983 1.351 . S
C1984 C1985 1.434 . S
C1985 C1976 1.429 . S
C1985 N1982 1.350 . S
C1985 C1984 1.434 . S
C1986 C1987 1.369 . S
C1986 C1988 1.419 . S
C1986 H1990 0.930 . S
C1987 C1986 1.369 . S
C1987 C1996 1.429 . S
C1988 C1986 1.419 . S
C1988 C1989 1.363 . S
C1988 H1991 0.929 . S
C1989 C1988 1.363 . S
C1989 C1995 1.428 . S
H1990 C1986 0.930 . S
H1991 C1988 0.929 . S
S1992 N1993 1.613 . S
S1992 N1994 1.610 . S
N1993 S1992 1.613 . S
N1993 C1996 1.350 . S
N1994 S1992 1.610 . S
N1994 C1995 1.351 . S
C1995 C1989 1.428 . S
C1995 N1994 1.351 . S
C1995 C1996 1.434 . S
C1996 C1987 1.429 . S
C1996 N1993 1.350 . S
C1996 C1995 1.434 . S
C1997 C1998 1.369 . S
C1997 C1999 1.419 . S
C1997 H2001 0.930 . S
C1998 C1997 1.369 . S
C1998 C2007 1.429 . S
C1999 C1997 1.419 . S
C1999 C2000 1.363 . S
C1999 H2002 0.929 . S
C2000 C1999 1.363 . S
C2000 C2006 1.428 . S
H2001 C1997 0.930 . S
H2002 C1999 0.929 . S
S2003 N2004 1.613 . S
S2003 N2005 1.610 . S
N2004 S2003 1.613 . S
N2004 C2007 1.350 . S
N2005 S2003 1.610 . S
N2005 C2006 1.351 . S
C2006 C2000 1.428 . S
C2006 N2005 1.351 . S
C2006 C2007 1.434 . S
C2007 C1998 1.429 . S
C2007 N2004 1.350 . S
C2007 C2006 1.434 . S
C2008 C2009 1.369 . S
C2008 C2010 1.419 . S
C2008 H2012 0.930 . S
C2009 C2008 1.369 . S
C2009 C2018 1.429 . S
C2010 C2008 1.419 . S
C2010 C2011 1.363 . S
C2010 H2013 0.929 . S
C2011 C2010 1.363 . S
C2011 C2017 1.428 . S
H2012 C2008 0.930 . S
H2013 C2010 0.929 . S
S2014 N2015 1.613 . S
S2014 N2016 1.610 . S
N2015 S2014 1.613 . S
N2015 C2018 1.350 . S
N2016 S2014 1.610 . S
N2016 C2017 1.351 . S
C2017 C2011 1.428 . S
C2017 N2016 1.351 . S
C2017 C2018 1.434 . S
C2018 C2009 1.429 . S
C2018 N2015 1.350 . S
C2018 C2017 1.434 . S
C2019 C2020 1.369 . S
C2019 C2021 1.419 . S
C2019 H2023 0.930 . S
C2020 C2019 1.369 . S
C2020 C2029 1.429 . S
C2021 C2019 1.419 . S
C2021 C2022 1.363 . S
C2021 H2024 0.929 . S
C2022 C2021 1.363 . S
C2022 C2028 1.428 . S
H2023 C2019 0.930 . S
H2024 C2021 0.929 . S
S2025 N2026 1.613 . S
S2025 N2027 1.610 . S
N2026 S2025 1.613 . S
N2026 C2029 1.350 . S
N2027 S2025 1.610 . S
N2027 C2028 1.351 . S
C2028 C2022 1.428 . S
C2028 N2027 1.351 . S
C2028 C2029 1.434 . S
C2029 C2020 1.429 . S
C2029 N2026 1.350 . S
C2029 C2028 1.434 . S
C2030 C2031 1.369 . S
C2030 C2032 1.419 . S
C2030 H2034 0.930 . S
C2031 C2030 1.369 . S
C2031 C2040 1.429 . S
C2032 C2030 1.419 . S
C2032 C2033 1.363 . S
C2032 H2035 0.929 . S
C2033 C2032 1.363 . S
C2033 C2039 1.428 . S
H2034 C2030 0.930 . S
H2035 C2032 0.929 . S
S2036 N2037 1.613 . S
S2036 N2038 1.610 . S
N2037 S2036 1.613 . S
N2037 C2040 1.350 . S
N2038 S2036 1.610 . S
N2038 C2039 1.351 . S
C2039 C2033 1.428 . S
C2039 N2038 1.351 . S
C2039 C2040 1.434 . S
C2040 C2031 1.429 . S
C2040 N2037 1.350 . S
C2040 C2039 1.434 . S
C2041 C2042 1.369 . S
C2041 C2043 1.419 . S
C2041 H2045 0.930 . S
C2042 C2041 1.369 . S
C2042 C2051 1.429 . S
C2043 C2041 1.419 . S
C2043 C2044 1.363 . S
C2043 H2046 0.929 . S
C2044 C2043 1.363 . S
C2044 C2050 1.428 . S
H2045 C2041 0.930 . S
H2046 C2043 0.929 . S
S2047 N2048 1.613 . S
S2047 N2049 1.610 . S
N2048 S2047 1.613 . S
N2048 C2051 1.350 . S
N2049 S2047 1.610 . S
N2049 C2050 1.351 . S
C2050 C2044 1.428 . S
C2050 N2049 1.351 . S
C2050 C2051 1.434 . S
C2051 C2042 1.429 . S
C2051 N2048 1.350 . S
C2051 C2050 1.434 . S
C1459 C528 1.463 . S
C1461 C769 1.384 . S
C1470 C562 1.510 . S
C1472 C853 1.441 . S
C1481 C484 1.511 . S
C1483 C933 1.456 . S
C1492 C445 1.467 . S
C1494 C849 1.411 . S
C1505 C937 1.378 . S
C1503 C367 1.457 . S
C1514 C411 1.443 . S
C1516 C765 1.391 . S
C1527 C758 1.399 . S
C1525 C450 1.474 . S
C1538 C842 1.429 . S
C1536 C372 1.491 . S
C1547 C406 1.505 . S
C1549 C944 1.457 . S
C1558 C523 1.464 . S
C1560 C860 1.413 . S
C1569 C567 1.442 . S
C1571 C926 1.368 . S
C1582 C776 1.407 . S
C1580 C489 1.451 . S
C1593 C1021 1.382 . S
C1591 C60 1.460 1_455 S
C1602 C94 1.511 . S
C1604 C1105 1.436 . S
C1613 C16 1.514 1_565 S
C1615 C1185 1.451 . S
C1624 C679 1.464 . S
C1626 C1101 1.417 . S
C1635 C601 1.458 . S
C1637 C1189 1.383 . S
C1646 C645 1.446 . S
C1648 C1017 1.386 . S
C1657 C684 1.474 . S
C1659 C1010 1.397 . S
C1668 C606 1.496 . S
C1670 C1094 1.428 . S
C1681 C1196 1.455 . S
C1679 C640 1.508 . S
C1690 C55 1.465 1_565 S
C1692 C1112 1.411 . S
C1703 C1178 1.369 . S
C1701 C99 1.441 1_455 S
C1712 C21 1.451 . S
C1714 C1028 1.408 . S
C1725 C1273 1.390 . S
C1723 C294 1.460 . S
C1734 C328 1.510 . S
C1736 C1357 1.443 . S
C1747 C1437 1.452 . S
C1745 C250 1.514 . S
C1758 C1353 1.416 . S
C1756 C211 1.465 1_545 S
C1769 C1441 1.374 . S
C1767 C133 1.459 1_655 S
C1778 C177 1.447 . S
C1780 C1269 1.385 . S
C1789 C216 1.469 1_655 S
C1791 C1262 1.405 . S
C1800 C138 1.496 . S
C1802 C1346 1.430 . S
C1813 C1448 1.454 . S
C1811 C172 1.510 1_545 S
C1822 C289 1.465 . S
C1824 C1364 1.410 . S
C1833 C333 1.438 . S
C1835 C1430 1.371 . S
C1844 C255 1.456 . S
C1846 C1280 1.401 . S
C1855 C586 1.489 . S
C1857 C772 1.385 . S
C1868 C856 1.360 . S
C1866 C625 1.509 . S
C1877 C664 1.495 . S
C1879 C928 1.361 . S
C1888 C235 1.519 . S
C1890 C844 1.369 . S
C1899 C274 1.483 . S
C1901 C940 1.357 . S
C1912 C760 1.387 . S
C1910 C313 1.489 . S
C1921 C118 1.489 . S
C1923 C1024 1.384 . S
C1932 C157 1.509 . S
C1934 C1108 1.360 . S
C1943 C196 1.495 . S
C1945 C1180 1.364 . S
C1954 C469 1.520 . S
C1956 C1096 1.361 . S
C1967 C1192 1.355 . S
C1965 C508 1.483 . S
C1976 C547 1.489 . S
C1978 C1012 1.385 . S
C1987 C352 1.489 . S
C1989 C1276 1.375 . S
C1998 C391 1.509 . S
C2000 C1360 1.353 . S
C2011 C1432 1.364 . S
C2009 C430 1.495 . S
C2020 C1 1.518 . S
C2022 C1348 1.365 . S
C2031 C40 1.484 . S
C2033 C1444 1.355 . S
C2042 C79 1.489 . S
C2044 C1264 1.379 . S
