# Generated by pormake.
# Topology zzz, (3,6)-cn, num edge types: 1
# Building blocks:
#     Node 0, Type 0, BuildingBlock: QEWDON_clean_linker_0, # of connection points: 3
#     Node 1, Type 0, BuildingBlock: QEWDON_clean_linker_0, # of connection points: 3
#     Node 2, Type 0, BuildingBlock: QEWDON_clean_linker_0, # of connection points: 3
#     Node 3, Type 0, BuildingBlock: QEWDON_clean_linker_0, # of connection points: 3
#     Node 4, Type 0, BuildingBlock: QEWDON_clean_linker_0, # of connection points: 3
#     Node 5, Type 0, BuildingBlock: QEWDON_clean_linker_0, # of connection points: 3
#     Node 6, Type 0, BuildingBlock: QEWDON_clean_linker_0, # of connection points: 3
#     Node 7, Type 0, BuildingBlock: QEWDON_clean_linker_0, # of connection points: 3
#     Node 8, Type 1, BuildingBlock: INOVEN_clean_sbu_0, # of connection points: 6
#     Node 9, Type 1, BuildingBlock: INOVEN_clean_sbu_0, # of connection points: 6
#     Node 10, Type 1, BuildingBlock: INOVEN_clean_sbu_0, # of connection points: 6
#     Node 11, Type 1, BuildingBlock: INOVEN_clean_sbu_0, # of connection points: 6
#     Edge 12, Type (0, 1), BuildingBlock: TEMPAE_clean_linker_10, # of connection points: 2
#     Edge 13, Type (0, 1), BuildingBlock: TEMPAE_clean_linker_10, # of connection points: 2
#     Edge 14, Type (0, 1), BuildingBlock: TEMPAE_clean_linker_10, # of connection points: 2
#     Edge 15, Type (0, 1), BuildingBlock: TEMPAE_clean_linker_10, # of connection points: 2
#     Edge 16, Type (0, 1), BuildingBlock: TEMPAE_clean_linker_10, # of connection points: 2
#     Edge 17, Type (0, 1), BuildingBlock: TEMPAE_clean_linker_10, # of connection points: 2
#     Edge 18, Type (0, 1), BuildingBlock: TEMPAE_clean_linker_10, # of connection points: 2
#     Edge 19, Type (0, 1), BuildingBlock: TEMPAE_clean_linker_10, # of connection points: 2
#     Edge 20, Type (0, 1), BuildingBlock: TEMPAE_clean_linker_10, # of connection points: 2
#     Edge 21, Type (0, 1), BuildingBlock: TEMPAE_clean_linker_10, # of connection points: 2
#     Edge 22, Type (0, 1), BuildingBlock: TEMPAE_clean_linker_10, # of connection points: 2
#     Edge 23, Type (0, 1), BuildingBlock: TEMPAE_clean_linker_10, # of connection points: 2
#     Edge 24, Type (0, 1), BuildingBlock: TEMPAE_clean_linker_10, # of connection points: 2
#     Edge 25, Type (0, 1), BuildingBlock: TEMPAE_clean_linker_10, # of connection points: 2
#     Edge 26, Type (0, 1), BuildingBlock: TEMPAE_clean_linker_10, # of connection points: 2
#     Edge 27, Type (0, 1), BuildingBlock: TEMPAE_clean_linker_10, # of connection points: 2
#     Edge 28, Type (0, 1), BuildingBlock: TEMPAE_clean_linker_10, # of connection points: 2
#     Edge 29, Type (0, 1), BuildingBlock: TEMPAE_clean_linker_10, # of connection points: 2
#     Edge 30, Type (0, 1), BuildingBlock: TEMPAE_clean_linker_10, # of connection points: 2
#     Edge 31, Type (0, 1), BuildingBlock: TEMPAE_clean_linker_10, # of connection points: 2
#     Edge 32, Type (0, 1), BuildingBlock: TEMPAE_clean_linker_10, # of connection points: 2
#     Edge 33, Type (0, 1), BuildingBlock: TEMPAE_clean_linker_10, # of connection points: 2
#     Edge 34, Type (0, 1), BuildingBlock: TEMPAE_clean_linker_10, # of connection points: 2
#     Edge 35, Type (0, 1), BuildingBlock: TEMPAE_clean_linker_10, # of connection points: 2
# Relax obj value: 0.165
# Max RMSD: 0.168
# Mean RMSD: 0.121
data_MOF--net-zzz--node1-INOVEN_clean_sbu_0--node2-QEWDON_clean_linker_0--edge1-TEMPAE_clean_linker_10
_symmetry_space_group_name_H-M    P1
_symmetry_Int_Tables_number       1
_symmetry_cell_setting            triclinic
loop_
_symmetry_equiv_pos_as_xyz
'x, y, z'
_cell_length_a     56.704594
_cell_length_b     56.761308
_cell_length_c     12.931542
_cell_angle_alpha  89.963969
_cell_angle_beta   89.969715
_cell_angle_gamma 90.086211
loop_
_atom_site_label
_atom_site_type_symbol
_atom_site_fract_x
_atom_site_fract_y
_atom_site_fract_z
_atom_type_partial_charge
H0 H 0.7577 0.49775 0.22175 0.0
C1 C 0.77067 0.50347 0.27777 0.0
C2 C 0.79438 0.4981 0.25989 0.0
C3 C 0.76387 0.51561 0.36858 0.0
H4 H 0.82967 0.49952 0.31863 0.0
C5 C 0.81142 0.50406 0.33313 0.0
C6 C 0.80567 0.51539 0.4249 0.0
C7 C 0.78185 0.52175 0.44198 0.0
C8 C 0.73802 0.52031 0.38877 0.0
H9 H 0.77749 0.53107 0.51234 0.0
C10 C 0.72128 0.52333 0.30724 0.0
C11 C 0.69689 0.52651 0.32845 0.0
C12 C 0.72961 0.5206 0.4912 0.0
H13 H 0.74131 0.51761 0.55591 0.0
C14 C 0.70575 0.52392 0.51237 0.0
H15 H 0.7271 0.52357 0.22755 0.0
C16 C 0.68957 0.52677 0.43232 0.0
H17 H 0.67111 0.52869 0.45206 0.0
H18 H 0.69966 0.52389 0.59174 0.0
H19 H 0.05011 0.76191 0.20406 0.0
C20 C 0.0434 0.77427 0.26059 0.0
C21 C 0.0457 0.79838 0.2406 0.0
C22 C 0.03338 0.76629 0.35449 0.0
H23 H 0.04099 0.83343 0.29941 0.0
C24 C 0.03856 0.81479 0.31463 0.0
C25 C 0.02965 0.80793 0.4101 0.0
C26 C 0.02657 0.78355 0.42985 0.0
C27 C 0.03222 0.74011 0.37587 0.0
H28 H 0.01929 0.77823 0.50361 0.0
C29 C 0.0297 0.72308 0.2952 0.0
C30 C 0.03141 0.69859 0.31606 0.0
C31 C 0.03549 0.7318 0.47746 0.0
H32 H 0.03807 0.74386 0.54121 0.0
C33 C 0.03653 0.7077 0.49837 0.0
H34 H 0.02696 0.72872 0.21614 0.0
C35 C 0.03475 0.69127 0.41864 0.0
H36 H 0.03603 0.6727 0.4372 0.0
H37 H 0.03923 0.70171 0.57697 0.0
H38 H 0.79067 0.99579 0.23372 0.0
C39 C 0.77763 1.0001 0.29159 0.0
C40 C 0.75529 0.98974 0.28225 0.0
C41 C 0.78281 1.01576 0.37372 0.0
H42 H 0.72098 0.98599 0.3515 0.0
C43 C 0.73827 0.99398 0.35845 0.0
C44 C 0.74173 1.01041 0.43671 0.0
C45 C 0.76401 0.02167 0.4436 0.0
C46 C 0.80772 0.02532 0.38681 0.0
H47 H 0.76646 0.03481 0.50311 0.0
C48 C 0.82461 0.0259 0.30436 0.0
C49 C 0.84818 0.03359 0.32085 0.0
C50 C 0.81534 0.03279 0.4852 0.0
H51 H 0.80384 0.03197 0.55179 0.0
C52 C 0.83832 0.0408 0.50114 0.0
H53 H 0.81966 0.02079 0.22689 0.0
C54 C 0.85456 0.04118 0.4203 0.0
H55 H 0.87241 0.04692 0.43647 0.0
H56 H 0.84373 0.04635 0.57762 0.0
H57 H 0.49066 0.78839 0.19124 0.0
C58 C 0.49711 0.77602 0.24829 0.0
C59 C 0.49451 0.75194 0.22871 0.0
C60 C 0.50721 0.78393 0.34202 0.0
H61 H 0.49859 0.71686 0.28838 0.0
C62 C 0.50125 0.73547 0.30332 0.0
C63 C 0.51032 0.74228 0.39849 0.0
C64 C 0.51381 0.76662 0.41762 0.0
C65 C 0.50888 0.81013 0.36256 0.0
H66 H 0.52129 0.77187 0.49103 0.0
C67 C 0.51128 0.82701 0.28113 0.0
C68 C 0.51016 0.85158 0.30122 0.0
C69 C 0.50633 0.81862 0.46419 0.0
H70 H 0.50385 0.80671 0.52861 0.0
C71 C 0.50599 0.84275 0.48451 0.0
H72 H 0.51349 0.82122 0.20202 0.0
C73 C 0.5077 0.85905 0.40415 0.0
H74 H 0.50711 0.87765 0.42271 0.0
H75 H 0.50394 0.84889 0.56324 0.0
H76 H 0.29049 0.55789 0.20778 0.0
C77 C 0.27722 0.55291 0.15197 0.0
C78 C 0.25441 0.56151 0.16647 0.0
C79 C 0.28258 0.5383 0.06643 0.0
H80 H 0.21927 0.56328 0.1078 0.0
C81 C 0.23684 0.55654 0.09447 0.0
C82 C 0.2408 0.54183 0.0102 0.0
C83 C 0.26369 0.53221 0.99722 0.0
C84 C 0.30779 0.53018 0.04907 0.0
H85 H 0.26654 0.52023 0.9335 0.0
C86 C 0.32495 0.52959 0.13014 0.0
C87 C 0.3487 0.52314 0.1107 0.0
C88 C 0.31535 0.52401 0.94884 0.0
H89 H 0.30358 0.52493 0.88327 0.0
C90 C 0.33859 0.51716 0.93002 0.0
H91 H 0.3201 0.53371 0.20889 0.0
C92 C 0.35509 0.5167 0.00981 0.0
H93 H 0.3731 0.51179 0.99203 0.0
H94 H 0.34396 0.51254 0.85229 0.0
H95 H 0.98902 0.28515 0.23677 0.0
C96 C 0.99586 0.27285 0.18035 0.0
C97 C 0.9925 0.24874 0.1974 0.0
C98 C 1.00725 0.2809 0.08951 0.0
H99 H 0.99663 0.21384 0.1365 0.0
C100 C 0.99981 0.23244 0.1233 0.0
C101 C 1.01018 0.23938 0.03082 0.0
C102 C 1.01446 0.26371 0.01444 0.0
C103 C 1.00958 0.30713 0.07051 0.0
H104 H 0.02296 0.26904 0.94326 0.0
C105 C 1.01128 0.32387 0.15287 0.0
C106 C 1.01095 0.3485 0.13304 0.0
C107 C 1.00842 0.31583 0.96867 0.0
H108 H 1.00646 0.30409 0.90342 0.0
C109 C 1.00882 0.33998 0.94887 0.0
H110 H 1.01238 0.31792 0.23223 0.0
C111 C 1.00991 0.35613 0.02983 0.0
H112 H 1.00996 0.37476 0.01153 0.0
H113 H 1.00785 0.34626 0.86992 0.0
H114 H 0.2582 0.99486 0.2187 0.0
C115 C 0.27059 1.00162 0.16221 0.0
C116 C 0.29471 0.99911 0.18168 0.0
C117 C 0.26263 1.01195 0.069 0.0
H118 H 0.3298 1.00374 0.12281 0.0
C119 C 0.31117 1.0063 0.10776 0.0
C120 C 0.30438 1.01552 0.01285 0.0
C121 C 0.27998 0.01886 0.99372 0.0
C122 C 0.23638 1.01334 0.04827 0.0
H123 H 0.2747 0.02641 0.92051 0.0
C124 C 0.21937 1.01544 0.1295 0.0
C125 C 0.19479 1.01396 0.10892 0.0
C126 C 0.22798 1.01072 0.94651 0.0
H127 H 0.23998 1.00846 0.88226 0.0
C128 C 0.20384 1.00995 0.92584 0.0
H129 H 0.22507 0.01769 0.20873 0.0
C130 C 0.18744 1.01133 0.00594 0.0
H131 H 0.16884 1.01037 0.98721 0.0
H132 H 0.19779 1.0078 0.84702 0.0
H133 H 0.54891 0.25824 0.20724 0.0
C134 C 0.54469 0.27161 0.15063 0.0
C135 C 0.554 0.29411 0.16531 0.0
C136 C 0.53052 0.26655 0.06349 0.0
H137 H 0.55737 0.32907 0.10575 0.0
C138 C 0.55007 0.31172 0.09222 0.0
C139 C 0.53599 0.30799 0.00548 0.0
C140 C 0.5257 0.28537 0.99211 0.0
C141 C 0.52194 0.24155 0.04617 0.0
H142 H 0.51428 0.2826 0.92628 0.0
C143 C 0.51962 0.22488 0.12863 0.0
C144 C 0.51353 0.201 0.10959 0.0
C145 C 0.51745 0.23359 0.94496 0.0
H146 H 0.51962 0.24508 0.87892 0.0
C147 C 0.51094 0.21028 0.92608 0.0
H148 H 0.52225 0.23029 0.20792 0.0
C149 C 0.50913 0.19414 0.00699 0.0
H150 H 0.5048 0.17604 0.98852 0.0
H151 H 0.50777 0.20452 0.8475 0.0
Gd152 Gd 0.03429 0.01853 0.82478 0.0
Gd153 Gd 1.00898 0.02972 0.60598 0.0
C154 C 0.02066 0.97509 0.67086 0.0
C155 C 0.0445 1.00753 0.01197 0.0
C156 C 0.06041 0.98932 0.05251 0.0
C157 C 0.08164 0.98402 0.00135 0.0
C158 C 0.05217 0.97422 0.12996 0.0
C159 C 0.08369 0.94646 0.09105 0.0
C160 C 0.06363 0.95294 0.14892 0.0
C161 C 0.09326 0.96279 0.02091 0.0
C162 C 0.06647 0.01914 0.66455 0.0
C163 C 0.02235 0.07316 0.76075 0.0
C164 C 0.99871 0.04038 0.4184 0.0
C165 C 0.98235 0.05803 0.37655 0.0
C166 C 0.96055 0.06236 0.42487 0.0
C167 C 0.99041 0.0735 0.30015 0.0
C168 C 0.95746 0.09984 0.33503 0.0
C169 C 0.97816 0.09425 0.27976 0.0
C170 C 0.94812 0.08306 0.40374 0.0
C171 C 0.97676 0.02899 0.76593 0.0
O172 O 0.02511 0.9818 0.76745 0.0
O173 O 1.01662 0.99049 0.59536 0.0
O174 O 0.05444 0.02534 0.96377 0.0
O175 O 0.02591 0.99917 0.96378 0.0
O176 O 0.07171 1.01493 0.76029 0.0
O177 O 0.04458 0.02286 0.66207 0.0
O178 O 1.01786 0.06651 0.66403 0.0
O179 O 0.02663 0.05772 0.83586 0.0
O180 O 0.98919 0.02235 0.46661 0.0
O181 O 1.01698 0.0493 0.46707 0.0
O182 O 0.97152 0.03304 0.67005 0.0
O183 O 0.99868 0.02543 0.76866 0.0
H184 H 0.08842 0.99547 0.94128 0.0
H185 H 0.03577 0.97794 0.16983 0.0
H186 H 0.05549 0.94081 0.20281 0.0
H187 H 0.10893 0.9586 0.97674 0.0
H188 H 0.95386 0.0506 0.48397 0.0
H189 H 1.0072 0.0705 0.26227 0.0
H190 H 0.98614 0.10675 0.22701 0.0
H191 H 0.93199 0.08654 0.44584 0.0
Gd192 Gd 0.52584 0.03842 0.80125 0.0
Gd193 Gd 0.51591 1.01356 0.59454 0.0
C194 C 0.57038 0.02279 0.65448 0.0
C195 C 0.54375 0.04947 0.97687 0.0
C196 C 0.56672 0.04158 0.01822 0.0
C197 C 0.58662 0.05626 0.00943 0.0
C198 C 0.56987 0.01799 0.04869 0.0
C199 C 0.61223 0.02293 0.04286 0.0
C200 C 0.59246 1.00863 0.05908 0.0
C201 C 0.60923 0.04701 0.02231 0.0
C202 C 0.51462 0.06774 0.64233 0.0
C203 C 0.47185 0.02632 0.75032 0.0
C204 C 0.50388 1.0037 0.40809 0.0
C205 C 0.4855 0.98783 0.36842 0.0
C206 C 0.48068 0.96628 0.41794 0.0
C207 C 0.47003 0.99613 0.29265 0.0
C208 C 0.44299 0.96379 0.32949 0.0
C209 C 0.44894 0.98429 0.27347 0.0
C210 C 0.45962 0.9543 0.39827 0.0
C211 C 0.51741 0.98007 0.74799 0.0
O212 O 0.56278 0.02785 0.74887 0.0
O213 O 0.55532 0.01871 0.57833 0.0
O214 O 0.54498 0.06337 0.89617 0.0
O215 O 0.5275 0.03317 0.96694 0.0
O216 O 0.50782 0.07072 0.73744 0.0
O217 O 0.52757 0.0496 0.63651 0.0
O218 O 0.47887 0.02235 0.65369 0.0
O219 O 0.48724 0.03058 0.8251 0.0
O220 O 0.52188 0.99371 0.45419 0.0
O221 O 0.4958 0.02218 0.45779 0.0
O222 O 0.51335 0.97559 0.65166 0.0
O223 O 0.52038 1.00199 0.75589 0.0
H224 H 0.58476 0.07455 0.98696 0.0
H225 H 0.55492 1.00644 0.05961 0.0
H226 H 0.59451 0.99015 0.07808 0.0
H227 H 0.6244 0.05838 0.0115 0.0
H228 H 0.49242 0.95941 0.47659 0.0
H229 H 0.47338 1.01275 0.254 0.0
H230 H 0.43652 0.99238 0.22081 0.0
H231 H 0.4558 0.93834 0.44111 0.0
Gd232 Gd 0.50956 0.5309 0.81873 0.0
Gd233 Gd 0.53815 0.5232 0.62543 0.0
C234 C 0.52121 0.57554 0.66552 0.0
C235 C 0.497 0.54373 0.00108 0.0
C236 C 0.48092 0.56242 0.03523 0.0
C237 C 0.46033 0.56759 0.97913 0.0
C238 C 0.48833 0.57778 0.11315 0.0
C239 C 0.45697 0.60518 0.06766 0.0
C240 C 0.47653 0.59896 0.1292 0.0
C241 C 0.44837 0.58876 0.99561 0.0
C242 C 0.47816 0.52836 0.65833 0.0
C243 C 0.52286 0.47721 0.76597 0.0
C244 C 0.55846 0.50768 0.46065 0.0
C245 C 0.5665 0.48371 0.43667 0.0
C246 C 0.58974 0.47984 0.40298 0.0
C247 C 0.55205 0.46434 0.46043 0.0
C248 C 0.58412 0.43771 0.42195 0.0
C249 C 0.56086 0.44156 0.45375 0.0
C250 C 0.59845 0.45686 0.3944 0.0
C251 C 0.56379 0.5344 0.79669 0.0
O252 O 0.51739 0.5684 0.76196 0.0
O253 O 0.52647 0.56024 0.59216 0.0
O254 O 0.48743 0.52572 0.95334 0.0
O255 O 0.51628 0.55143 0.95616 0.0
O256 O 0.4724 0.53076 0.75439 0.0
O257 O 0.50033 0.52668 0.65268 0.0
O258 O 0.53077 0.48523 0.67595 0.0
O259 O 0.51545 0.49185 0.83846 0.0
O260 O 0.56995 0.51783 0.53575 0.0
O261 O 0.53563 0.51081 0.46724 0.0
O262 O 0.56688 0.54373 0.70613 0.0
O263 O 0.54662 0.52015 0.79286 0.0
H264 H 0.45426 0.55599 0.91824 0.0
H265 H 0.50426 0.57418 0.15665 0.0
H266 H 0.48399 0.61122 0.18437 0.0
H267 H 0.43319 0.59282 0.94808 0.0
H268 H 0.60123 0.49457 0.38531 0.0
H269 H 0.53405 0.46678 0.48598 0.0
H270 H 0.54939 0.42684 0.472 0.0
H271 H 0.61628 0.45402 0.36709 0.0
Gd272 Gd 1.01659 0.51046 0.84072 0.0
Gd273 Gd 0.02806 0.53454 0.61913 0.0
C274 C 0.97334 0.5244 0.68236 0.0
C275 C 1.00441 0.50145 0.02769 0.0
C276 C 0.98572 0.48597 0.06769 0.0
C277 C 0.98029 0.46465 0.01762 0.0
C278 C 0.97047 0.49461 0.14362 0.0
C279 C 0.94256 0.46303 0.10651 0.0
C280 C 0.94907 0.48331 0.16274 0.0
C281 C 0.95891 0.45321 0.03724 0.0
C282 C 1.01709 0.47751 0.68407 0.0
C283 C 0.07135 0.52199 0.77751 0.0
C284 C 0.04354 0.54313 0.43771 0.0
C285 C 0.0663 0.55468 0.41472 0.0
C286 C 0.06702 0.57761 0.37343 0.0
C287 C 0.0874 0.54424 0.44886 0.0
C288 C 0.10912 0.57961 0.4062 0.0
C289 C 0.10851 0.55666 0.44549 0.0
C290 C 0.08841 0.58993 0.36825 0.0
C291 C 0.0272 0.56757 0.77513 0.0
O292 O 0.98006 0.51958 0.77889 0.0
O293 O 0.98869 0.52858 0.60659 0.0
O294 O 0.02237 0.49107 0.98263 0.0
O295 O 0.99662 0.51987 0.97668 0.0
O296 O 1.01267 0.47275 0.78012 0.0
O297 O 0.02106 0.49934 0.67974 0.0
O298 O 0.06457 0.52624 0.68099 0.0
O299 O 0.05598 0.51777 0.85313 0.0
O300 O 0.02765 0.55659 0.48186 0.0
O301 O 0.04497 0.52216 0.48001 0.0
O302 O 0.03104 0.57229 0.67857 0.0
O303 O 0.02388 0.54563 0.7809 0.0
H304 H 0.99182 0.45758 0.95863 0.0
H305 H 0.97427 0.5111 0.18245 0.0
H306 H 0.93689 0.49167 0.21571 0.0
H307 H 0.95469 0.4374 0.99422 0.0
H308 H 0.051 0.58615 0.34767 0.0
H309 H 0.08764 0.5266 0.4807 0.0
H310 H 0.12451 0.54817 0.47206 0.0
H311 H 0.08881 0.60751 0.33589 0.0
C312 C 0.15888 0.99679 0.19641 0.0
C313 C 0.17637 1.01439 0.1927 0.0
C314 C 0.14036 0.99748 0.26936 0.0
C315 C 0.13871 1.01658 0.33967 0.0
C316 C 0.15624 0.0345 0.33586 0.0
C317 C 0.17495 0.03305 0.26356 0.0
C318 C 0.12264 0.9776 0.27143 0.0
C319 C 0.15509 0.05541 0.40765 0.0
C320 C 0.07942 0.02728 0.47896 0.0
C321 C 0.08395 0.01808 0.57773 0.0
C322 C 0.097 0.02707 0.40078 0.0
C323 C 0.11953 1.01705 0.42101 0.0
C324 C 0.12383 1.00724 0.51999 0.0
C325 C 0.10621 1.0081 0.59672 0.0
C326 C 0.09154 0.03785 0.29689 0.0
C327 C 0.1471 0.99567 0.54511 0.0
H328 H 0.15978 0.98229 0.14203 0.0
H329 H 0.18812 0.0469 0.26041 0.0
H330 H 0.12149 0.96999 0.35032 0.0
H331 H 0.10489 0.98441 0.25152 0.0
H332 H 0.1272 0.96331 0.21633 0.0
H333 H 0.16923 0.06848 0.39167 0.0
H334 H 0.13772 0.06424 0.40003 0.0
H335 H 0.15673 0.04945 0.48902 0.0
H336 H 0.06237 0.03505 0.46343 0.0
H337 H 0.10991 1.00077 0.67242 0.0
H338 H 0.09231 0.02413 0.23596 0.0
H339 H 0.10499 0.05138 0.27739 0.0
H340 H 0.07381 0.04614 0.29495 0.0
H341 H 0.15076 0.98137 0.48885 0.0
H342 H 0.14742 0.9881 0.62435 0.0
H343 H 0.16162 1.0087 0.53837 0.0
C344 C 0.52997 0.18148 0.27106 0.0
C345 C 0.51249 0.18271 0.19424 0.0
C346 C 0.53038 0.1629 0.34408 0.0
C347 C 0.51284 0.14501 0.34122 0.0
C348 C 0.49484 0.1465 0.26548 0.0
C349 C 0.49487 0.1652 0.19354 0.0
C350 C 0.5499 0.16216 0.42325 0.0
C351 C 0.47561 0.12813 0.25954 0.0
C352 C 0.52518 0.08486 0.46736 0.0
C353 C 0.51347 0.08688 0.56267 0.0
C354 C 0.52516 0.10354 0.39485 0.0
C355 C 0.51313 0.12488 0.41767 0.0
C356 C 0.50107 0.12682 0.51339 0.0
C357 C 0.50138 0.1079 0.58423 0.0
C358 C 0.53817 0.10051 0.29392 0.0
C359 C 0.48789 0.14901 0.54144 0.0
H360 H 0.54383 0.19464 0.27213 0.0
H361 H 0.48104 0.16603 0.13585 0.0
H362 H 0.54233 0.16181 0.50236 0.0
H363 H 0.56033 0.14579 0.41351 0.0
H364 H 0.56198 0.17752 0.41684 0.0
H365 H 0.46271 0.13187 0.19703 0.0
H366 H 0.48347 0.11053 0.24555 0.0
H367 H 0.46601 0.12719 0.33421 0.0
H368 H 0.53459 0.06874 0.44982 0.0
H369 H 0.49225 0.1097 0.65747 0.0
H370 H 0.55198 0.11427 0.28643 0.0
H371 H 0.52582 0.10279 0.22815 0.0
H372 H 0.54662 0.08292 0.28741 0.0
H373 H 0.50018 0.16424 0.54178 0.0
H374 H 0.47931 0.14778 0.61851 0.0
H375 H 0.47415 0.15271 0.48262 0.0
C376 C 0.38241 0.50411 0.20675 0.0
C377 C 0.36731 0.5235 0.19335 0.0
C378 C 0.40116 0.50466 0.27839 0.0
C379 C 0.40544 0.52528 0.33741 0.0
C380 C 0.39036 0.545 0.32356 0.0
C381 C 0.37138 0.54378 0.2528 0.0
C382 C 0.41633 0.48303 0.29145 0.0
C383 C 0.39444 0.56753 0.38283 0.0
C384 C 0.43723 0.52009 0.59723 0.0
C385 C 0.46051 0.52653 0.57294 0.0
C386 C 0.41945 0.51927 0.52139 0.0
C387 C 0.4247 0.52566 0.41795 0.0
C388 C 0.44826 0.53218 0.39256 0.0
C389 C 0.46593 0.5323 0.4701 0.0
C390 C 0.39493 0.51158 0.55237 0.0
C391 C 0.45467 0.53967 0.28418 0.0
H392 H 0.37945 0.48837 0.16112 0.0
H393 H 0.36012 0.55899 0.24172 0.0
H394 H 0.43504 0.48742 0.27509 0.0
H395 H 0.4154 0.47679 0.3727 0.0
H396 H 0.41084 0.46842 0.23963 0.0
H397 H 0.38182 0.5816 0.36059 0.0
H398 H 0.3927 0.5642 0.46701 0.0
H399 H 0.41266 0.57398 0.36895 0.0
H400 H 0.43286 0.51555 0.67642 0.0
H401 H 0.48378 0.53759 0.45091 0.0
H402 H 0.38923 0.49645 0.5041 0.0
H403 H 0.38224 0.5261 0.53875 0.0
H404 H 0.39388 0.50633 0.63504 0.0
H405 H 0.44848 0.52647 0.22708 0.0
H406 H 0.47399 0.54211 0.27458 0.0
H407 H 0.44575 0.55656 0.26577 0.0
C408 C 0.99494 0.38552 0.21494 0.0
C409 C 1.01109 0.36672 0.21759 0.0
C410 C 0.99567 0.40393 0.28817 0.0
C411 C 1.01332 0.40403 0.36585 0.0
C412 C 0.02964 0.38504 0.36929 0.0
C413 C 0.02819 0.36656 0.29604 0.0
C414 C 0.97755 0.42335 0.28174 0.0
C415 C 0.04892 0.38445 0.44959 0.0
C416 C 0.0273 0.46261 0.50381 0.0
C417 C 1.01563 0.45976 0.59865 0.0
C418 C 0.02681 0.4447 0.42748 0.0
C419 C 1.0141 0.42347 0.44564 0.0
C420 C 1.00192 0.42082 0.54066 0.0
C421 C 1.00304 0.43877 0.61578 0.0
C422 C 0.04022 0.44835 0.32797 0.0
C423 C 0.98756 0.39898 0.56312 0.0
H424 H 0.98158 0.38583 0.15501 0.0
H425 H 0.04092 0.35235 0.29817 0.0
H426 H 0.96923 0.42629 0.35834 0.0
H427 H 0.98626 0.44007 0.25878 0.0
H428 H 0.96347 0.41937 0.22467 0.0
H429 H 0.06068 0.36895 0.44037 0.0
H430 H 0.05972 0.40073 0.44437 0.0
H431 H 0.04108 0.38395 0.52817 0.0
H432 H 0.03739 0.47847 0.4904 0.0
H433 H 0.99388 0.43634 0.68864 0.0
H434 H 0.02787 0.44792 0.26151 0.0
H435 H 0.05305 0.43382 0.3168 0.0
H436 H 0.04988 0.46539 0.32671 0.0
H437 H 0.97403 0.39648 0.50208 0.0
H438 H 0.97856 0.39985 0.63934 0.0
H439 H 0.99911 0.38322 0.56211 0.0
C440 C 0.87012 1.0133 0.17489 0.0
C441 C 0.86671 0.03327 0.23716 0.0
C442 C 0.88895 1.01205 0.10322 0.0
C443 C 0.90469 0.03138 0.09152 0.0
C444 C 0.90114 0.0517 0.15338 0.0
C445 C 0.88241 0.05233 0.22533 0.0
C446 C 0.89213 0.98988 0.04043 0.0
C447 C 0.917 0.07297 0.14285 0.0
C448 C 0.96457 0.02301 0.95418 0.0
C449 C 0.9592 0.02981 0.85251 0.0
C450 C 0.94713 0.02336 0.03291 0.0
C451 C 0.92379 0.03097 0.00993 0.0
C452 C 0.91857 0.03828 0.90772 0.0
C453 C 0.93615 0.03744 0.83087 0.0
C454 C 0.9536 1.01537 0.14047 0.0
C455 C 0.8943 0.0471 0.87917 0.0
H456 H 0.85843 0.99832 0.18432 0.0
H457 H 0.87998 0.06792 0.27248 0.0
H458 H 0.89004 0.9939 0.95698 0.0
H459 H 0.91023 0.98291 0.05141 0.0
H460 H 0.87924 0.97596 0.06195 0.0
H461 H 0.91223 0.08725 0.19772 0.0
H462 H 0.93562 0.06791 0.15668 0.0
H463 H 0.91594 0.08001 0.06292 0.0
H464 H 0.98228 1.01718 0.97195 0.0
H465 H 0.93176 0.04291 0.75289 0.0
H466 H 0.94192 1.00065 0.16453 0.0
H467 H 0.95088 0.02995 0.1963 0.0
H468 H 0.97224 1.00947 0.14568 0.0
H469 H 0.88105 0.03301 0.89212 0.0
H470 H 0.89323 0.05284 0.79717 0.0
H471 H 0.88941 0.06216 0.92939 0.0
C472 C 0.52878 0.86987 0.14166 0.0
C473 C 0.5109 0.86981 0.21677 0.0
C474 C 0.53056 0.88821 0.06787 0.0
C475 C 0.51372 0.90674 0.06692 0.0
C476 C 0.49546 0.90655 0.14181 0.0
C477 C 0.49439 0.8883 0.21579 0.0
C478 C 0.55089 0.88815 0.99259 0.0
C479 C 0.47712 0.92579 0.14468 0.0
C480 C 0.52655 0.96566 0.92942 0.0
C481 C 0.51632 0.96201 0.83211 0.0
C482 C 0.52629 0.94782 0.00607 0.0
C483 C 0.51484 0.92595 0.98619 0.0
C484 C 0.50401 0.92251 0.88856 0.0
C485 C 0.50519 0.94033 0.81277 0.0
C486 C 0.53812 0.95276 0.10829 0.0
C487 C 0.4908 0.90006 0.86444 0.0
H488 H 0.54185 0.85595 0.14271 0.0
H489 H 0.48048 0.88848 0.27334 0.0
H490 H 0.54417 0.88742 0.91213 0.0
H491 H 0.5611 0.90476 0.00049 0.0
H492 H 0.56296 0.87302 0.00509 0.0
H493 H 0.46269 0.92185 0.20023 0.0
H494 H 0.48557 0.94263 0.16768 0.0
H495 H 0.46932 0.92839 0.0668 0.0
H496 H 0.53518 0.98229 0.94475 0.0
H497 H 0.49705 0.93735 0.73805 0.0
H498 H 0.54399 0.93644 0.14783 0.0
H499 H 0.52548 0.96203 0.15963 0.0
H500 H 0.55368 0.9644 0.09767 0.0
H501 H 0.50289 0.88477 0.86924 0.0
H502 H 0.48271 0.90035 0.78621 0.0
H503 H 0.47664 0.89726 0.92252 0.0
C504 C 0.65995 0.5452 0.2562 0.0
C505 C 0.67859 0.52904 0.24468 0.0
C506 C 0.64119 0.54631 0.18483 0.0
C507 C 0.6408 0.53094 0.09853 0.0
C508 C 0.65979 0.51493 0.08495 0.0
C509 C 0.67842 0.51422 0.15771 0.0
C510 C 0.6216 0.56384 0.2026 0.0
C511 C 0.6602 0.49819 0.9944 0.0
C512 C 0.58139 0.51932 0.9641 0.0
C513 C 0.58271 0.5342 0.87746 0.0
C514 C 0.60009 0.51801 0.03631 0.0
C515 C 0.6207 0.53192 0.02207 0.0
C516 C 0.62191 0.54718 0.93534 0.0
C517 C 0.603 0.54813 0.86459 0.0
C518 C 0.5978 0.50167 0.12789 0.0
C519 C 0.6433 0.56248 0.91678 0.0
H520 H 0.65994 0.557 0.32206 0.0
H521 H 0.69249 0.50149 0.14822 0.0
H522 H 0.6199 0.57564 0.13462 0.0
H523 H 0.60456 0.55443 0.2116 0.0
H524 H 0.62462 0.57481 0.27248 0.0
H525 H 0.67627 0.48702 0.99364 0.0
H526 H 0.64446 0.48656 0.99709 0.0
H527 H 0.65937 0.50821 0.92082 0.0
H528 H 0.56584 0.50845 0.97483 0.0
H529 H 0.60427 0.55969 0.79806 0.0
H530 H 0.59846 0.51201 0.20056 0.0
H531 H 0.61281 0.48916 0.12958 0.0
H532 H 0.58108 0.49145 0.12655 0.0
H533 H 0.64619 0.57428 0.98395 0.0
H534 H 0.64156 0.57345 0.84605 0.0
H535 H 0.65924 0.5513 0.909 0.0
C536 C 0.04948 0.6643 0.22186 0.0
C537 C 0.03067 0.68021 0.23274 0.0
C538 C 0.04863 0.64561 0.15009 0.0
C539 C 0.02817 0.6421 0.08896 0.0
C540 C 1.00905 0.65808 0.09994 0.0
C541 C 1.01063 0.67705 0.17067 0.0
C542 C 0.06975 0.62963 0.13944 0.0
C543 C 0.98679 0.65499 0.03756 0.0
C544 C 0.03478 0.60879 0.83352 0.0
C545 C 0.02731 0.58585 0.8586 0.0
C546 C 0.03509 0.62703 0.90721 0.0
C547 C 0.02743 0.62258 0.00965 0.0
C548 C 0.01982 0.59942 0.03587 0.0
C549 C 0.01997 0.58131 0.96029 0.0
C550 C 0.0439 0.65109 0.87533 0.0
C551 C 1.01124 0.59385 0.14354 0.0
H552 H 0.065 0.66655 0.26984 0.0
H553 H 0.99589 0.68902 0.17971 0.0
H554 H 0.06483 0.61141 0.16187 0.0
H555 H 0.07566 0.62905 0.05768 0.0
H556 H 0.0848 0.63547 0.18807 0.0
H557 H 0.97316 0.66827 0.05759 0.0
H558 H 0.99083 0.65648 0.95387 0.0
H559 H 0.9794 0.63712 0.05074 0.0
H560 H 0.04062 0.61256 0.75539 0.0
H561 H 1.01413 0.56374 0.98053 0.0
H562 H 0.05917 0.65623 0.92404 0.0
H563 H 0.02992 0.66444 0.88767 0.0
H564 H 0.0494 0.65169 0.7929 0.0
H565 H 0.02477 0.5989 0.20129 0.0
H566 H 1.00699 0.57486 0.1535 0.0
H567 H 0.9952 0.60435 0.16048 0.0
C568 C 0.9918 0.22261 0.34729 0.0
C569 C 0.97968 0.23911 0.28709 0.0
C570 C 0.9806 0.2018 0.37853 0.0
C571 C 0.95644 0.19847 0.35444 0.0
C572 C 0.9431 0.21771 0.31697 0.0
C573 C 0.95503 0.23787 0.28135 0.0
C574 C 0.99558 0.18207 0.42106 0.0
C575 C 0.9169 0.21562 0.29982 0.0
C576 C 0.95043 0.13779 0.24242 0.0
C577 C 0.94841 0.12443 0.33298 0.0
C578 C 0.9506 0.16242 0.24618 0.0
C579 C 0.94753 0.17395 0.34276 0.0
C580 C 0.94118 0.16056 0.43073 0.0
C581 C 0.94216 0.13587 0.42547 0.0
C582 C 0.95758 0.17545 0.14894 0.0
C583 C 0.93571 0.17199 0.53323 0.0
H584 H 1.01085 0.22392 0.35299 0.0
H585 H 0.94553 0.25089 0.23639 0.0
H586 H 0.98705 0.17405 0.48959 0.0
H587 H 0.99753 0.1681 0.36161 0.0
H588 H 1.01346 0.18822 0.44362 0.0
H589 H 0.90838 0.23323 0.29999 0.0
H590 H 0.91353 0.20732 0.22358 0.0
H591 H 0.90862 0.20442 0.36024 0.0
H592 H 0.95422 0.12902 0.16979 0.0
H593 H 0.94005 0.12582 0.49614 0.0
H594 H 0.97697 0.17798 0.14938 0.0
H595 H 0.94912 0.19295 0.14309 0.0
H596 H 0.95302 0.16522 0.07848 0.0
H597 H 0.9515 0.17126 0.58373 0.0
H598 H 0.9214 0.1622 0.57337 0.0
H599 H 0.93029 0.19067 0.52431 0.0
C600 C 0.305 0.96226 0.2714 0.0
C601 C 0.30415 0.98693 0.27326 0.0
C602 C 0.32492 0.95038 0.30948 0.0
C603 C 0.34429 0.96377 0.34566 0.0
C604 C 0.34129 0.98813 0.36582 0.0
C605 C 0.32071 0.99931 0.33216 0.0
C606 C 0.32667 0.92408 0.29575 0.0
C607 C 0.36125 1.00325 0.4056 0.0
C608 C 0.40659 0.94933 0.42017 0.0
C609 C 0.41827 0.95505 0.3275 0.0
C610 C 0.38186 0.94854 0.42465 0.0
C611 C 0.36871 0.95455 0.33561 0.0
C612 C 0.38047 0.95706 0.23917 0.0
C613 C 0.40512 0.95677 0.23631 0.0
C614 C 0.37008 0.9438 0.52722 0.0
C615 C 0.36763 0.96354 0.14085 0.0
H616 H 0.2919 0.95258 0.22746 0.0
H617 H 0.31971 0.01839 0.33474 0.0
H618 H 0.33787 0.91609 0.35673 0.0
H619 H 0.30893 0.91575 0.2977 0.0
H620 H 0.33477 0.92013 0.21962 0.0
H621 H 0.35507 0.02098 0.42985 0.0
H622 H 0.37004 0.99475 0.47218 0.0
H623 H 0.37462 1.00553 0.3436 0.0
H624 H 0.4165 0.9475 0.49132 0.0
H625 H 0.41408 0.9602 0.16372 0.0
H626 H 0.35179 0.93718 0.51732 0.0
H627 H 0.36943 0.9603 0.57305 0.0
H628 H 0.38034 0.93074 0.57261 0.0
H629 H 0.37805 0.95878 0.07117 0.0
H630 H 0.36498 0.98289 0.13965 0.0
H631 H 0.35018 0.95491 0.1351 0.0
C632 C 0.55189 0.31341 0.33318 0.0
C633 C 0.56576 0.30129 0.26146 0.0
C634 C 0.5612 0.33268 0.387 0.0
C635 C 0.58508 0.33905 0.37076 0.0
C636 C 0.60019 0.32344 0.31721 0.0
C637 C 0.59019 0.30489 0.26031 0.0
C638 C 0.54465 0.3481 0.44846 0.0
C639 C 0.62617 0.32849 0.30678 0.0
C640 C 0.58894 0.40371 0.3079 0.0
C641 C 0.59178 0.41335 0.40603 0.0
C642 C 0.58848 0.37933 0.29414 0.0
C643 C 0.59176 0.36426 0.38093 0.0
C644 C 0.59726 0.37414 0.47857 0.0
C645 C 0.59661 0.39872 0.49058 0.0
C646 C 0.58127 0.37011 0.18921 0.0
C647 C 0.60215 0.35908 0.57221 0.0
H648 H 0.53301 0.31028 0.33453 0.0
H649 H 0.60097 0.29527 0.20544 0.0
H650 H 0.55144 0.35022 0.52818 0.0
H651 H 0.54356 0.36588 0.41293 0.0
H652 H 0.52656 0.34062 0.45306 0.0
H653 H 0.63619 0.31215 0.28955 0.0
H654 H 0.62908 0.34107 0.24229 0.0
H655 H 0.6332 0.33658 0.37863 0.0
H656 H 0.58476 0.41526 0.24355 0.0
H657 H 0.59862 0.4064 0.56686 0.0
H658 H 0.56262 0.36427 0.19335 0.0
H659 H 0.59225 0.35494 0.16541 0.0
H660 H 0.5826 0.38382 0.12805 0.0
H661 H 0.58614 0.35825 0.62137 0.0
H662 H 0.61634 0.36713 0.61975 0.0
H663 H 0.60743 0.34088 0.55117 0.0
C664 C 0.23459 0.55858 0.33252 0.0
C665 C 0.24669 0.573 0.26253 0.0
C666 C 0.21416 0.56677 0.38144 0.0
C667 C 0.20681 0.59029 0.36393 0.0
C668 C 0.22229 0.6062 0.31391 0.0
C669 C 0.24191 0.5972 0.26064 0.0
C670 C 0.19879 0.5493 0.43857 0.0
C671 C 0.21622 0.63192 0.30333 0.0
C672 C 0.14241 0.59008 0.29473 0.0
C673 C 0.13224 0.59082 0.39265 0.0
C674 C 0.16681 0.59208 0.28275 0.0
C675 C 0.18124 0.5958 0.37135 0.0
C676 C 0.17049 0.59981 0.46867 0.0
C677 C 0.14604 0.59662 0.47876 0.0
C678 C 0.17688 0.58652 0.17742 0.0
C679 C 0.18467 0.6055 0.56411 0.0
H680 H 0.23864 0.53991 0.33471 0.0
H681 H 0.2515 0.60845 0.20742 0.0
H682 H 0.19526 0.55576 0.51784 0.0
H683 H 0.18157 0.54736 0.39858 0.0
H684 H 0.2071 0.53164 0.44447 0.0
H685 H 0.23229 0.64271 0.28974 0.0
H686 H 0.20421 0.6344 0.2365 0.0
H687 H 0.20707 0.6384 0.37373 0.0
H688 H 0.13157 0.58523 0.22889 0.0
H689 H 0.13798 0.59718 0.5548 0.0
H690 H 0.18198 0.56766 0.17613 0.0
H691 H 0.19259 0.59733 0.15932 0.0
H692 H 0.16371 0.58931 0.115 0.0
H693 H 0.18584 0.58963 0.61399 0.0
H694 H 0.17558 0.6193 0.61003 0.0
H695 H 0.20275 0.61169 0.5455 0.0
C696 C 0.08251 0.80844 0.14933 0.0
C697 C 0.05781 0.80789 0.14876 0.0
C698 C 0.09461 0.82822 0.11078 0.0
C699 C 0.08141 0.84776 0.0754 0.0
C700 C 0.05691 0.8451 0.05676 0.0
C701 C 0.0455 0.82466 0.0908 0.0
C702 C 0.121 0.82959 0.12296 0.0
C703 C 0.04194 0.86529 0.01852 0.0
C704 C 0.09 0.90842 0.18397 0.0
C705 C 0.09179 0.92155 0.09264 0.0
C706 C 0.0891 0.8838 0.18119 0.0
C707 C 0.09109 0.87202 0.0847 0.0
C708 C 0.09712 0.88504 0.99526 0.0
C709 C 0.09693 0.90976 0.99968 0.0
C710 C 0.08262 0.87104 0.27977 0.0
C711 C 0.10127 0.87316 0.89254 0.0
H712 H 0.09213 0.79519 0.19255 0.0
H713 H 0.02638 0.8239 0.08927 0.0
H714 H 0.129 0.84088 0.0622 0.0
H715 H 0.12533 0.83735 0.19935 0.0
H716 H 0.12904 0.81176 0.11943 0.0
H717 H 0.03984 0.87841 0.08151 0.0
H718 H 0.05047 0.8743 0.95245 0.0
H719 H 0.02412 0.85932 0.99417 0.0
H720 H 0.08703 0.91743 0.25675 0.0
H721 H 0.09877 0.91962 0.92837 0.0
H722 H 0.09157 0.85379 0.28618 0.0
H723 H 0.06331 0.86793 0.28024 0.0
H724 H 0.08707 0.88161 0.34938 0.0
H725 H 0.10821 0.85502 0.9025 0.0
H726 H 0.11386 0.88349 0.84472 0.0
H727 H 0.08443 0.87208 0.84926 0.0
C728 C 0.73011 0.96102 0.191 0.0
C729 C 0.74692 0.97913 0.184 0.0
C730 C 0.70845 0.96349 0.13993 0.0
C731 C 0.70532 0.98276 0.07179 0.0
C732 C 0.72524 0.99599 0.04014 0.0
C733 C 0.74613 0.9941 0.09779 0.0
C734 C 0.68797 0.94851 0.17517 0.0
C735 C 0.72314 1.01533 0.96078 0.0
C736 C 0.64312 0.99549 0.97708 0.0
C737 C 0.63601 1.01276 0.0479 0.0
C738 C 0.6659 0.98583 0.9818 0.0
C739 C 0.68148 0.99329 0.06067 0.0
C740 C 0.6741 1.01077 0.13251 0.0
C741 C 0.65154 0.02044 0.12414 0.0
C742 C 0.6734 0.96813 0.90133 0.0
C743 C 0.68931 0.01864 0.222 0.0
H744 H 0.73145 0.94848 0.25406 0.0
H745 H 0.75976 1.00733 0.08751 0.0
H746 H 0.67856 0.95782 0.23843 0.0
H747 H 0.67519 0.94539 0.11187 0.0
H748 H 0.69407 0.93125 0.20551 0.0
H749 H 0.74055 0.01952 0.92588 0.0
H750 H 0.71062 1.01033 0.89856 0.0
H751 H 0.71634 0.03149 0.99875 0.0
H752 H 0.63101 0.98992 0.91698 0.0
H753 H 0.64575 0.03371 0.17886 0.0
H754 H 0.68248 0.95289 0.93714 0.0
H755 H 0.68621 0.97659 0.8481 0.0
H756 H 0.65821 0.96153 0.85547 0.0
H757 H 0.683 0.03542 0.2564 0.0
H758 H 0.70795 0.02113 0.19894 0.0
H759 H 0.68854 1.00494 0.28301 0.0
C760 C 0.49541 0.72572 0.07908 0.0
C761 C 0.48291 0.74259 0.13549 0.0
C762 C 0.48392 0.70562 0.04206 0.0
C763 C 0.45918 0.70349 0.05564 0.0
C764 C 0.44608 0.72323 0.08964 0.0
C765 C 0.45822 0.74258 0.13171 0.0
C766 C 0.49892 0.68513 0.00725 0.0
C767 C 0.41957 0.72249 0.09675 0.0
C768 C 0.44418 0.64188 0.97488 0.0
C769 C 0.44844 0.62993 0.06836 0.0
C770 C 0.44387 0.66661 0.97144 0.0
C771 C 0.44897 0.67942 0.06245 0.0
C772 C 0.44991 0.66745 0.15882 0.0
C773 C 0.44905 0.64284 0.16049 0.0
C774 C 0.44079 0.67887 0.86878 0.0
C775 C 0.4554 0.68002 0.25896 0.0
H776 H 0.51454 0.72606 0.0811 0.0
H777 H 0.44848 0.75593 0.17378 0.0
H778 H 0.49074 0.67576 0.94146 0.0
H779 H 0.5169 0.69088 0.98403 0.0
H780 H 0.50065 0.67237 0.07193 0.0
H781 H 0.41203 0.74045 0.08824 0.0
H782 H 0.41189 0.7108 0.03676 0.0
H783 H 0.41427 0.71566 0.17374 0.0
H784 H 0.44321 0.63215 0.90296 0.0
H785 H 0.45128 0.63367 0.23343 0.0
H786 H 0.4583 0.68328 0.83574 0.0
H787 H 0.43092 0.6956 0.87839 0.0
H788 H 0.43134 0.6675 0.81246 0.0
H789 H 0.4746 0.68365 0.2621 0.0
H790 H 0.45077 0.66912 0.32747 0.0
H791 H 0.44594 0.697 0.26496 0.0
C792 C 0.81895 0.49787 0.10561 0.0
C793 C 0.80291 0.48554 0.16762 0.0
C794 C 0.83973 0.48697 0.07233 0.0
C795 C 0.84338 0.46284 0.09557 0.0
C796 C 0.82442 0.44925 0.13456 0.0
C797 C 0.80436 0.46092 0.17261 0.0
C798 C 0.85917 0.50224 0.02871 0.0
C799 C 0.82684 0.4231 0.1513 0.0
C800 C 0.90574 0.44887 0.01788 0.0
C801 C 0.91768 0.45471 0.10966 0.0
C802 C 0.88099 0.44803 0.01484 0.0
C803 C 0.86804 0.45415 0.10439 0.0
C804 C 0.8801 0.45696 0.19996 0.0
C805 C 0.90475 0.45668 0.20139 0.0
C806 C 0.86902 0.44281 0.91323 0.0
C807 C 0.8677 0.46362 0.29911 0.0
H808 H 0.81749 0.5169 0.10055 0.0
H809 H 0.79168 0.45125 0.21903 0.0
H810 H 0.87314 0.50461 0.08794 0.0
H811 H 0.86732 0.49373 0.96059 0.0
H812 H 0.85267 0.51992 0.00531 0.0
H813 H 0.80929 0.41438 0.15383 0.0
H814 H 0.83762 0.41498 0.08913 0.0
H815 H 0.83581 0.41981 0.22617 0.0
H816 H 0.91547 0.44684 0.94629 0.0
H817 H 0.9139 0.46017 0.27343 0.0
H818 H 0.86943 0.45875 0.86356 0.0
H819 H 0.8504 0.43726 0.92377 0.0
H820 H 0.87864 0.42871 0.87126 0.0
H821 H 0.86678 0.4831 0.30348 0.0
H822 H 0.87772 0.45744 0.36773 0.0
H823 H 0.84959 0.45645 0.30429 0.0
C824 C 0.9948 0.20808 0.91327 0.0
C825 C 1.01442 0.22013 0.95365 0.0
C826 C 0.99677 0.18519 0.87163 0.0
C827 C 0.019 0.1738 0.86923 0.0
C828 C 0.03918 0.18654 0.90318 0.0
C829 C 0.03663 0.20939 0.94582 0.0
C830 C 0.97468 0.17257 0.83711 0.0
C831 C 0.0633 0.1754 0.90104 0.0
C832 C 0.01932 0.10627 0.89087 0.0
C833 C 0.02197 0.09897 0.78758 0.0
C834 C 0.01845 0.13036 0.91802 0.0
C835 C 0.02066 0.14798 0.84057 0.0
C836 C 0.02358 0.14075 0.73622 0.0
C837 C 0.02402 0.11648 0.71098 0.0
C838 C 1.01454 0.13691 0.02989 0.0
C839 C 0.02646 0.15871 0.65109 0.0
H840 H 0.97747 0.21593 0.92168 0.0
H841 H 0.05177 0.21817 0.97952 0.0
H842 H 0.97711 0.16517 0.75845 0.0
H843 H 0.97105 0.15759 0.89 0.0
H844 H 0.95905 0.18434 0.8365 0.0
H845 H 0.07749 0.1884 0.9171 0.0
H846 H 0.06418 0.16126 0.96019 0.0
H847 H 0.06663 0.16715 0.82467 0.0
H848 H 1.01745 0.09308 0.95096 0.0
H849 H 0.0262 0.11121 0.631 0.0
H850 H 1.01485 0.12132 0.08182 0.0
H851 H 0.99718 0.14571 0.03806 0.0
H852 H 0.0282 0.14958 0.05602 0.0
H853 H 1.01193 0.17176 0.65382 0.0
H854 H 0.02678 0.15046 0.57321 0.0
H855 H 0.04318 0.16853 0.6626 0.0
C856 C 0.3359 0.99965 0.89748 0.0
C857 C 0.32391 0.01943 0.93635 0.0
C858 C 0.35901 1.00134 0.85728 0.0
C859 C 0.37074 0.02343 0.85508 0.0
C860 C 0.35813 0.04374 0.88779 0.0
C861 C 0.33504 0.04148 0.92889 0.0
C862 C 0.37147 0.9791 0.82418 0.0
C863 C 0.3696 0.06771 0.88595 0.0
C864 C 0.43836 0.02333 0.87924 0.0
C865 C 0.44593 0.02593 0.77623 0.0
C866 C 0.41417 0.02257 0.9055 0.0
C867 C 0.3967 0.02483 0.82741 0.0
C868 C 0.40421 0.02768 0.72333 0.0
C869 C 0.42859 0.02801 0.69899 0.0
C870 C 0.40732 0.01878 0.01715 0.0
C871 C 0.38647 0.03061 0.63752 0.0
H872 H 0.32781 0.98243 0.90597 0.0
H873 H 0.32635 0.05674 0.9617 0.0
H874 H 0.38577 0.97504 0.87992 0.0
H875 H 0.35933 0.96375 0.82054 0.0
H876 H 0.37978 0.98153 0.74723 0.0
H877 H 0.35675 0.08204 0.90133 0.0
H878 H 0.38363 0.06848 0.94567 0.0
H879 H 0.3781 0.07093 0.8099 0.0
H880 H 0.45143 0.02145 0.93984 0.0
H881 H 0.43405 0.03016 0.61921 0.0
H882 H 0.39837 1.00149 0.02527 0.0
H883 H 0.39468 0.03251 0.04257 0.0
H884 H 0.42281 0.01908 0.06967 0.0
H885 H 0.37689 0.04748 0.64801 0.0
H886 H 0.37316 1.01629 0.64045 0.0
H887 H 0.39488 0.03067 0.55992 0.0
C888 C 0.55208 0.34218 0.90407 0.0
C889 C 0.53233 0.32886 0.93524 0.0
C890 C 0.54987 0.36534 0.86592 0.0
C891 C 0.52725 0.3757 0.85656 0.0
C892 C 0.5071 0.36164 0.87924 0.0
C893 C 0.50986 0.33851 0.91902 0.0
C894 C 0.57193 0.37929 0.84282 0.0
C895 C 0.48261 0.37149 0.86617 0.0
C896 C 0.52324 0.44283 0.89053 0.0
C897 C 0.52322 0.45117 0.78814 0.0
C898 C 0.52437 0.41849 0.91326 0.0
C899 C 0.52495 0.40169 0.83191 0.0
C900 C 0.52447 0.40999 0.72824 0.0
C901 C 0.52386 0.43449 0.70786 0.0
C902 C 0.52557 0.41078 0.02494 0.0
C903 C 0.52531 0.3932 0.63791 0.0
H904 H 0.56956 0.33495 0.91621 0.0
H905 H 0.49448 0.32858 0.94345 0.0
H906 H 0.57068 0.38773 0.76566 0.0
H907 H 0.5739 0.39357 0.90083 0.0
H908 H 0.58803 0.36817 0.84479 0.0
H909 H 0.46881 0.35773 0.87533 0.0
H910 H 0.47952 0.38546 0.92455 0.0
H911 H 0.48079 0.37969 0.78862 0.0
H912 H 0.52295 0.4554 0.95354 0.0
H913 H 0.52364 0.44054 0.62853 0.0
H914 H 0.54212 0.40083 0.03862 0.0
H915 H 0.51068 0.39876 0.04285 0.0
H916 H 0.52499 0.4259 0.07938 0.0
H917 H 0.51702 0.40101 0.56808 0.0
H918 H 0.51639 0.37626 0.65564 0.0
H919 H 0.54401 0.38941 0.61893 0.0
C920 C 0.20592 0.55553 0.90723 0.0
C921 C 0.21978 0.53663 0.94287 0.0
C922 C 0.18261 0.55222 0.87222 0.0
C923 C 0.17264 0.52931 0.8709 0.0
C924 C 0.18715 0.5099 0.89902 0.0
C925 C 0.21044 0.51378 0.93529 0.0
C926 C 0.16814 0.57355 0.84362 0.0
C927 C 0.17763 0.4851 0.89578 0.0
C928 C 0.10538 0.52484 0.90433 0.0
C929 C 0.09733 0.5227 0.80193 0.0
C930 C 0.12969 0.52671 0.92757 0.0
C931 C 0.14672 0.52602 0.84693 0.0
C932 C 0.13872 0.52338 0.74358 0.0
C933 C 0.1143 0.52196 0.72249 0.0
C934 C 0.13713 0.5301 0.03869 0.0
C935 C 0.15589 0.52272 0.65436 0.0
H936 H 0.21287 0.57328 0.91342 0.0
H937 H 0.22075 0.49909 0.96385 0.0
H938 H 0.15935 0.57089 0.76795 0.0
H939 H 0.1541 0.57619 0.90228 0.0
H940 H 0.17899 0.58984 0.83942 0.0
H941 H 0.19163 0.47178 0.90921 0.0
H942 H 0.16385 0.48293 0.95599 0.0
H943 H 0.16923 0.48161 0.8198 0.0
H944 H 0.09262 0.52564 0.96663 0.0
H945 H 0.10852 0.52023 0.64311 0.0
H946 H 0.14645 0.54719 0.04707 0.0
H947 H 0.14966 0.51605 0.06173 0.0
H948 H 0.12191 0.52985 0.09282 0.0
H949 H 0.16212 0.54086 0.63766 0.0
H950 H 0.14763 0.5156 0.583 0.0
H951 H 0.17155 0.51187 0.67357 0.0
C952 C 0.04582 0.83911 0.52607 0.0
C953 C 0.02591 0.82737 0.48671 0.0
C954 C 0.04438 0.86221 0.56598 0.0
C955 C 0.02241 0.87415 0.56729 0.0
C956 C 1.00195 0.86176 0.53419 0.0
C957 C 1.00397 0.83869 0.49341 0.0
C958 C 0.06675 0.87445 0.59944 0.0
C959 C 0.97811 0.87348 0.53518 0.0
C960 C 0.01831 0.93195 0.7224 0.0
C961 C 0.02072 0.94922 0.64501 0.0
C962 C 0.01837 0.90761 0.69838 0.0
C963 C 0.02131 0.90007 0.5945 0.0
C964 C 0.02391 0.91745 0.51622 0.0
C965 C 0.02339 0.94163 0.54215 0.0
C966 C 1.0151 0.88993 0.78428 0.0
C967 C 0.02778 0.91052 0.40478 0.0
H968 H 0.06296 0.83085 0.51804 0.0
H969 H 0.98864 0.83016 0.46016 0.0
H970 H 0.0713 0.88838 0.54253 0.0
H971 H 0.06425 0.88317 0.67536 0.0
H972 H 0.08186 0.86207 0.60528 0.0
H973 H 0.96361 0.86077 0.51977 0.0
H974 H 0.9749 0.88208 0.61092 0.0
H975 H 0.9776 0.88743 0.47508 0.0
H976 H 1.0161 0.93744 0.80207 0.0
H977 H 0.02552 0.95464 0.48148 0.0
H978 H 0.99826 0.8803 0.77276 0.0
H979 H 1.01477 0.89838 0.86173 0.0
H980 H 0.02945 0.87668 0.78257 0.0
H981 H 0.02809 0.926 0.35218 0.0
H982 H 1.01372 0.89828 0.3788 0.0
H983 H 0.04482 0.9011 0.3975 0.0
C984 C 0.70876 0.03763 0.49202 0.0
C985 C 0.72048 1.01597 0.50213 0.0
C986 C 0.68502 0.04038 0.5245 0.0
C987 C 0.67242 0.02096 0.567 0.0
C988 C 0.68466 0.99946 0.58225 0.0
C989 C 0.70838 0.99733 0.55062 0.0
C990 C 0.67297 0.0637 0.50686 0.0
C991 C 0.6722 0.97792 0.62352 0.0
C992 C 0.61314 0.02834 0.70943 0.0
C993 C 0.59654 0.02241 0.63264 0.0
C994 C 0.63769 0.02849 0.68871 0.0
C995 C 0.64618 0.02239 0.58895 0.0
C996 C 0.62952 1.01639 0.51132 0.0
C997 C 0.60511 1.01656 0.53379 0.0
C998 C 0.65463 0.03499 0.77395 0.0
C999 C 0.6375 1.00967 0.40399 0.0
H1000 H 0.71758 0.05194 0.45206 0.0
H1001 H 0.717 0.98034 0.55659 0.0
H1002 H 0.6627 0.06893 0.57619 0.0
H1003 H 0.68577 0.07791 0.48808 0.0
H1004 H 0.66039 0.06201 0.44156 0.0
H1005 H 0.68487 0.96459 0.65297 0.0
H1006 H 0.65972 0.98257 0.68623 0.0
H1007 H 0.66183 0.96974 0.56023 0.0
H1008 H 0.60699 0.03295 0.78612 0.0
H1009 H 0.59269 1.012 0.47334 0.0
H1010 H 0.66622 0.04965 0.74835 0.0
H1011 H 0.6662 0.01976 0.79163 0.0
H1012 H 0.64541 0.04041 0.8458 0.0
H1013 H 0.64772 0.02439 0.36971 0.0
H1014 H 0.62251 1.00546 0.35187 0.0
H1015 H 0.64937 0.99417 0.40772 0.0
C1016 C 0.49426 0.71128 0.51609 0.0
C1017 C 0.51413 0.72284 0.47514 0.0
C1018 C 0.4957 0.68825 0.55701 0.0
C1019 C 0.5176 0.67618 0.55734 0.0
C1020 C 0.53802 0.68837 0.52227 0.0
C1021 C 0.53601 0.71139 0.48083 0.0
C1022 C 0.47335 0.67624 0.59236 0.0
C1023 C 0.56179 0.67651 0.52205 0.0
C1024 C 0.52254 0.61878 0.71524 0.0
C1025 C 0.52004 0.60132 0.6389 0.0
C1026 C 0.52214 0.64306 0.68996 0.0
C1027 C 0.51869 0.65032 0.58596 0.0
C1028 C 0.51578 0.63274 0.5089 0.0
C1029 C 0.51674 0.60863 0.53598 0.0
C1030 C 0.5257 0.66098 0.77454 0.0
C1031 C 0.51137 0.63939 0.39747 0.0
H1032 H 0.47715 0.71962 0.50881 0.0
H1033 H 0.55129 0.71979 0.44634 0.0
H1034 H 0.46789 0.6631 0.53349 0.0
H1035 H 0.47624 0.66664 0.66601 0.0
H1036 H 0.45867 0.68894 0.60328 0.0
H1037 H 0.5763 0.68908 0.50464 0.0
H1038 H 0.56525 0.66813 0.59806 0.0
H1039 H 0.56197 0.66238 0.46283 0.0
H1040 H 0.52525 0.61348 0.79488 0.0
H1041 H 0.51457 0.59543 0.4762 0.0
H1042 H 0.51139 0.67427 0.77279 0.0
H1043 H 0.54254 0.6705 0.76147 0.0
H1044 H 0.52623 0.65274 0.85244 0.0
H1045 H 0.50987 0.62374 0.34638 0.0
H1046 H 0.52589 0.65074 0.3685 0.0
H1047 H 0.49483 0.64972 0.39157 0.0
C1048 C 0.83638 0.54115 0.50991 0.0
C1049 C 0.82557 0.51903 0.49959 0.0
C1050 C 0.85946 0.54336 0.55077 0.0
C1051 C 0.87229 0.52294 0.58057 0.0
C1052 C 0.86082 0.50076 0.57602 0.0
C1053 C 0.83773 0.49912 0.5362 0.0
C1054 C 0.87072 0.56742 0.55548 0.0
C1055 C 0.87351 0.47845 0.60648 0.0
C1056 C 0.93975 0.52294 0.55397 0.0
C1057 C 0.94744 0.52467 0.65706 0.0
C1058 C 0.91554 0.52259 0.52841 0.0
C1059 C 0.89822 0.52434 0.60742 0.0
C1060 C 0.90585 0.52636 0.71161 0.0
C1061 C 0.93023 0.52636 0.73514 0.0
C1062 C 0.90853 0.5196 0.41653 0.0
C1063 C 0.88823 0.52867 0.79843 0.0
H1064 H 0.82745 0.55654 0.47947 0.0
H1065 H 0.82974 0.48189 0.52637 0.0
H1066 H 0.87921 0.57018 0.63181 0.0
H1067 H 0.88471 0.56871 0.49573 0.0
H1068 H 0.85773 0.58172 0.54204 0.0
H1069 H 0.86171 0.46281 0.60533 0.0
H1070 H 0.88836 0.47528 0.55232 0.0
H1071 H 0.88113 0.48024 0.68508 0.0
H1072 H 0.9527 0.52136 0.49273 0.0
H1073 H 0.9358 0.52784 0.81503 0.0
H1074 H 0.89543 0.53314 0.39384 0.0
H1075 H 0.90011 0.50211 0.40609 0.0
H1076 H 0.92389 0.5208 0.36341 0.0
H1077 H 0.89673 0.52785 0.87574 0.0
H1078 H 0.87473 0.51457 0.79336 0.0
H1079 H 0.87888 0.54575 0.79129 0.0
loop_
_geom_bond_atom_site_label_1
_geom_bond_atom_site_label_2
_geom_bond_distance
_geom_bond_site_symmetry_2
_ccdc_geom_bond_type
H0 C1 0.949 . S
C1 H0 0.949 . S
C1 C2 1.395 . S
C1 C3 1.391 . S
C2 C1 1.395 . S
C2 C5 1.390 . S
C3 C1 1.391 . S
C3 C7 1.387 . S
C3 C8 1.491 . S
H4 C5 0.950 . S
C5 C2 1.390 . S
C5 H4 0.950 . S
C5 C6 1.378 . S
C6 C5 1.378 . S
C6 C7 1.409 . S
C7 C3 1.387 . S
C7 C6 1.409 . S
C7 H9 0.951 . S
C8 C3 1.491 . S
C8 C10 1.382 . S
C8 C12 1.404 . S
H9 C7 0.951 . S
C10 C8 1.382 . S
C10 C11 1.390 . S
C10 H15 0.949 . S
C11 C10 1.390 . S
C11 C16 1.399 . S
C12 C8 1.404 . S
C12 H13 0.950 . S
C12 C14 1.375 . S
H13 C12 0.950 . S
C14 C12 1.375 . S
C14 C16 1.382 . S
C14 H18 0.950 . S
H15 C10 0.949 . S
C16 C11 1.399 . S
C16 C14 1.382 . S
C16 H17 0.952 . S
H17 C16 0.952 . S
H18 C14 0.950 . S
H19 C20 0.949 . S
C20 H19 0.949 . S
C20 C21 1.396 . S
C20 C22 1.391 . S
C21 C20 1.396 . S
C21 C24 1.390 1_655 S
C22 C20 1.391 . S
C22 C26 1.387 . S
C22 C27 1.491 . S
H23 C24 0.950 . S
C24 C21 1.390 1_455 S
C24 H23 0.950 . S
C24 C25 1.376 1_455 S
C25 C24 1.376 1_655 S
C25 C26 1.413 . S
C26 C22 1.387 . S
C26 C25 1.413 . S
C26 H28 0.951 . S
C27 C22 1.491 . S
C27 C29 1.382 . S
C27 C31 1.404 . S
H28 C26 0.951 . S
C29 C27 1.382 . S
C29 C30 1.390 . S
C29 H34 0.949 1_655 S
C30 C29 1.390 . S
C30 C35 1.399 . S
C31 C27 1.404 . S
C31 H32 0.950 . S
C31 C33 1.375 . S
H32 C31 0.950 . S
C33 C31 1.375 . S
C33 C35 1.382 . S
C33 H37 0.950 . S
H34 C29 0.949 1_455 S
C35 C30 1.399 . S
C35 C33 1.382 . S
C35 H36 0.952 . S
H36 C35 0.952 . S
H37 C33 0.950 . S
H38 C39 0.949 . S
C39 H38 0.949 . S
C39 C40 1.396 . S
C39 C41 1.391 . S
C40 C39 1.396 . S
C40 C43 1.390 1_565 S
C41 C39 1.391 . S
C41 C45 1.387 . S
C41 C46 1.491 . S
H42 C43 0.950 . S
C43 C40 1.390 1_545 S
C43 H42 0.950 . S
C43 C44 1.377 1_545 S
C44 C43 1.377 1_565 S
C44 C45 1.413 . S
C45 C41 1.387 . S
C45 C44 1.413 . S
C45 H47 0.951 . S
C46 C41 1.491 . S
C46 C48 1.382 . S
C46 C50 1.404 . S
H47 C45 0.951 . S
C48 C46 1.382 . S
C48 C49 1.390 . S
C48 H53 0.949 1_565 S
C49 C48 1.390 . S
C49 C54 1.399 . S
C50 C46 1.404 . S
C50 H51 0.950 . S
C50 C52 1.375 . S
H51 C50 0.950 . S
C52 C50 1.375 . S
C52 C54 1.382 . S
C52 H56 0.950 . S
H53 C48 0.949 1_545 S
C54 C49 1.399 . S
C54 C52 1.382 . S
C54 H55 0.952 . S
H55 C54 0.952 . S
H56 C52 0.950 . S
H57 C58 0.949 . S
C58 H57 0.949 . S
C58 C59 1.395 . S
C58 C60 1.391 . S
C59 C58 1.395 . S
C59 C62 1.390 . S
C60 C58 1.391 . S
C60 C64 1.387 . S
C60 C65 1.491 . S
H61 C62 0.950 . S
C62 C59 1.390 . S
C62 H61 0.950 . S
C62 C63 1.378 . S
C63 C62 1.378 . S
C63 C64 1.409 . S
C64 C60 1.387 . S
C64 C63 1.409 . S
C64 H66 0.951 . S
C65 C60 1.491 . S
C65 C67 1.382 . S
C65 C69 1.404 . S
H66 C64 0.951 . S
C67 C65 1.382 . S
C67 C68 1.390 . S
C67 H72 0.949 . S
C68 C67 1.390 . S
C68 C73 1.399 . S
C69 C65 1.404 . S
C69 H70 0.950 . S
C69 C71 1.375 . S
H70 C69 0.950 . S
C71 C69 1.375 . S
C71 C73 1.382 . S
C71 H75 0.950 . S
H72 C67 0.949 . S
C73 C68 1.399 . S
C73 C71 1.382 . S
C73 H74 0.952 . S
H74 C73 0.952 . S
H75 C71 0.950 . S
H76 C77 0.949 . S
C77 H76 0.949 . S
C77 C78 1.395 . S
C77 C79 1.391 1_554 S
C78 C77 1.395 . S
C78 C81 1.390 1_554 S
C79 C77 1.391 1_556 S
C79 C83 1.387 . S
C79 C84 1.491 . S
H80 C81 0.950 . S
C81 C78 1.390 1_556 S
C81 H80 0.950 . S
C81 C82 1.378 . S
C82 C81 1.378 . S
C82 C83 1.409 . S
C83 C79 1.387 . S
C83 C82 1.409 . S
C83 H85 0.951 . S
C84 C79 1.491 . S
C84 C86 1.382 1_556 S
C84 C88 1.404 . S
H85 C83 0.951 . S
C86 C84 1.382 1_554 S
C86 C87 1.390 . S
C86 H91 0.949 . S
C87 C86 1.390 . S
C87 C92 1.399 1_554 S
C88 C84 1.404 . S
C88 H89 0.950 . S
C88 C90 1.375 . S
H89 C88 0.950 . S
C90 C88 1.375 . S
C90 C92 1.382 . S
C90 H94 0.950 . S
H91 C86 0.949 . S
C92 C87 1.399 1_556 S
C92 C90 1.382 . S
C92 H93 0.952 . S
H93 C92 0.952 . S
H94 C90 0.950 . S
H95 C96 0.949 . S
C96 H95 0.949 . S
C96 C97 1.395 . S
C96 C98 1.391 1_554 S
C97 C96 1.395 . S
C97 C100 1.390 1_554 S
C98 C96 1.391 1_556 S
C98 C102 1.387 . S
C98 C103 1.491 1_455 S
H99 C100 0.950 . S
C100 C97 1.390 1_556 S
C100 H99 0.950 . S
C100 C101 1.378 . S
C101 C100 1.378 . S
C101 C102 1.409 . S
C102 C98 1.387 . S
C102 C101 1.409 . S
C102 H104 0.951 . S
C103 C98 1.491 1_655 S
C103 C105 1.382 1_656 S
C103 C107 1.404 . S
H104 C102 0.951 . S
C105 C103 1.382 1_454 S
C105 C106 1.390 . S
C105 H110 0.949 . S
C106 C105 1.390 . S
C106 C111 1.399 1_454 S
C107 C103 1.404 . S
C107 H108 0.950 . S
C107 C109 1.375 . S
H108 C107 0.950 . S
C109 C107 1.375 . S
C109 C111 1.382 . S
C109 H113 0.950 . S
H110 C105 0.949 . S
C111 C106 1.399 1_656 S
C111 C109 1.382 . S
C111 H112 0.952 . S
H112 C111 0.952 . S
H113 C109 0.950 . S
H114 C115 0.949 . S
C115 H114 0.949 . S
C115 C116 1.395 . S
C115 C117 1.391 1_554 S
C116 C115 1.395 . S
C116 C119 1.390 1_554 S
C117 C115 1.391 1_556 S
C117 C121 1.387 . S
C117 C122 1.491 1_545 S
H118 C119 0.950 . S
C119 C116 1.390 1_556 S
C119 H118 0.950 . S
C119 C120 1.378 . S
C120 C119 1.378 . S
C120 C121 1.409 . S
C121 C117 1.387 . S
C121 C120 1.409 . S
C121 H123 0.951 . S
C122 C117 1.491 1_565 S
C122 C124 1.382 1_566 S
C122 C126 1.404 . S
H123 C121 0.951 . S
C124 C122 1.382 1_544 S
C124 C125 1.390 . S
C124 H129 0.949 . S
C125 C124 1.390 . S
C125 C130 1.399 1_544 S
C126 C122 1.404 . S
C126 H127 0.950 . S
C126 C128 1.375 . S
H127 C126 0.950 . S
C128 C126 1.375 . S
C128 C130 1.382 . S
C128 H132 0.950 . S
H129 C124 0.949 . S
C130 C125 1.399 1_566 S
C130 C128 1.382 . S
C130 H131 0.952 . S
H131 C130 0.952 . S
H132 C128 0.950 . S
H133 C134 0.949 . S
C134 H133 0.949 . S
C134 C135 1.395 . S
C134 C136 1.391 1_554 S
C135 C134 1.395 . S
C135 C138 1.390 1_554 S
C136 C134 1.391 1_556 S
C136 C140 1.387 . S
C136 C141 1.491 . S
H137 C138 0.950 . S
C138 C135 1.390 1_556 S
C138 H137 0.950 . S
C138 C139 1.378 . S
C139 C138 1.378 . S
C139 C140 1.409 . S
C140 C136 1.387 . S
C140 C139 1.409 . S
C140 H142 0.951 . S
C141 C136 1.491 . S
C141 C143 1.382 1_556 S
C141 C145 1.404 . S
H142 C140 0.951 . S
C143 C141 1.382 1_554 S
C143 C144 1.390 . S
C143 H148 0.949 . S
C144 C143 1.390 . S
C144 C149 1.399 1_554 S
C145 C141 1.404 . S
C145 H146 0.950 . S
C145 C147 1.375 . S
H146 C145 0.950 . S
C147 C145 1.375 . S
C147 C149 1.382 . S
C147 H151 0.950 . S
H148 C143 0.949 . S
C149 C144 1.399 1_556 S
C149 C147 1.382 . S
C149 H150 0.952 . S
H150 C149 0.952 . S
H151 C147 0.950 . S
Gd152 C155 2.818 . S
Gd152 O172 2.377 . S
Gd152 O174 2.448 . S
Gd152 O175 2.506 . S
Gd152 O176 2.435 . S
Gd152 O177 2.717 1_565 S
Gd152 O179 2.395 1_565 S
Gd152 O183 2.327 1_455 S
Gd153 C164 2.818 . S
Gd153 O173 2.395 1_545 S
Gd153 O177 2.327 1_655 S
Gd153 O178 2.377 . S
Gd153 O180 2.448 . S
Gd153 O181 2.506 1_655 S
Gd153 O182 2.435 . S
Gd153 O183 2.717 1_545 S
C154 O172 1.240 1_655 S
C154 O173 1.240 . S
C155 Gd152 2.818 . S
C155 C156 1.510 . S
C155 O174 1.249 . S
C155 O175 1.252 . S
C156 C155 1.510 . S
C156 C157 1.404 1_556 S
C156 C158 1.352 1_556 S
C157 C156 1.404 1_554 S
C157 C161 1.389 . S
C157 H184 0.930 1_554 S
C158 C156 1.352 1_554 S
C158 C160 1.374 . S
C158 H185 0.931 1_455 S
C159 C160 1.359 . S
C159 C161 1.364 . S
C160 C158 1.374 . S
C160 C159 1.359 . S
C160 H186 0.931 1_455 S
C161 C157 1.389 . S
C161 C159 1.364 . S
C161 H187 0.931 . S
C162 O176 1.256 1_545 S
C162 O177 1.257 . S
C163 O178 1.240 1_455 S
C163 O179 1.240 . S
C164 Gd153 2.818 . S
C164 C165 1.510 . S
C164 O180 1.249 . S
C164 O181 1.252 1_655 S
C165 C164 1.510 . S
C165 C166 1.404 . S
C165 C167 1.352 1_655 S
C166 C165 1.404 . S
C166 C170 1.389 . S
C166 H188 0.930 . S
C167 C165 1.352 1_455 S
C167 C169 1.376 . S
C167 H189 0.931 . S
C168 C169 1.332 1_655 S
C168 C170 1.364 . S
C169 C167 1.376 . S
C169 C168 1.332 1_455 S
C169 H190 0.956 . S
C170 C166 1.389 . S
C170 C168 1.364 . S
C170 H191 0.931 . S
C171 O182 1.256 . S
C171 O183 1.257 1_545 S
O172 Gd152 2.377 . S
O172 C154 1.240 1_455 S
O173 Gd153 2.395 1_565 S
O173 C154 1.240 . S
O174 Gd152 2.448 . S
O174 C155 1.249 . S
O175 Gd152 2.506 . S
O175 C155 1.252 . S
O176 Gd152 2.435 . S
O176 C162 1.256 1_565 S
O177 Gd152 2.717 1_545 S
O177 Gd153 2.327 1_455 S
O177 C162 1.257 . S
O178 Gd153 2.377 . S
O178 C163 1.240 1_655 S
O179 Gd152 2.395 1_545 S
O179 C163 1.240 . S
O180 Gd153 2.448 . S
O180 C164 1.249 . S
O181 Gd153 2.506 1_455 S
O181 C164 1.252 1_455 S
O182 Gd153 2.435 . S
O182 C171 1.256 . S
O183 Gd152 2.327 1_655 S
O183 Gd153 2.717 1_565 S
O183 C171 1.257 1_565 S
H184 C157 0.930 1_556 S
H185 C158 0.931 1_655 S
H186 C160 0.931 1_655 S
H187 C161 0.931 . S
H188 C166 0.930 . S
H189 C167 0.931 . S
H190 C169 0.956 . S
H191 C170 0.931 . S
Gd192 C195 2.818 . S
Gd192 O212 2.377 . S
Gd192 O214 2.448 . S
Gd192 O215 2.506 . S
Gd192 O216 2.435 . S
Gd192 O217 2.717 . S
Gd192 O219 2.395 . S
Gd192 O223 2.327 1_545 S
Gd193 C204 2.818 . S
Gd193 O213 2.395 . S
Gd193 O217 2.327 1_565 S
Gd193 O218 2.377 . S
Gd193 O220 2.448 . S
Gd193 O221 2.506 1_565 S
Gd193 O222 2.435 . S
Gd193 O223 2.717 . S
C194 O212 1.240 1_565 S
C194 O213 1.240 . S
C195 Gd192 2.818 . S
C195 C196 1.510 . S
C195 O214 1.249 . S
C195 O215 1.252 . S
C196 C195 1.510 . S
C196 C197 1.404 1_556 S
C196 C198 1.352 1_556 S
C197 C196 1.404 1_554 S
C197 C201 1.389 . S
C197 H224 0.930 1_554 S
C198 C196 1.352 1_554 S
C198 C200 1.374 . S
C198 H225 0.931 1_545 S
C199 C200 1.359 . S
C199 C201 1.364 . S
C200 C198 1.374 . S
C200 C199 1.359 . S
C200 H226 0.931 1_545 S
C201 C197 1.389 . S
C201 C199 1.364 . S
C201 H227 0.931 . S
C202 O216 1.256 . S
C202 O217 1.257 . S
C203 O218 1.240 1_545 S
C203 O219 1.240 . S
C204 Gd193 2.818 . S
C204 C205 1.510 . S
C204 O220 1.249 . S
C204 O221 1.252 1_565 S
C205 C204 1.510 . S
C205 C206 1.404 . S
C205 C207 1.352 1_565 S
C206 C205 1.404 . S
C206 C210 1.389 . S
C206 H228 0.930 . S
C207 C205 1.352 1_545 S
C207 C209 1.376 . S
C207 H229 0.931 . S
C208 C209 1.331 1_565 S
C208 C210 1.364 . S
C209 C207 1.376 . S
C209 C208 1.331 1_545 S
C209 H230 0.957 . S
C210 C206 1.389 . S
C210 C208 1.364 . S
C210 H231 0.931 . S
C211 O222 1.256 . S
C211 O223 1.257 . S
O212 Gd192 2.377 . S
O212 C194 1.240 1_545 S
O213 Gd193 2.395 . S
O213 C194 1.240 . S
O214 Gd192 2.448 . S
O214 C195 1.249 . S
O215 Gd192 2.506 . S
O215 C195 1.252 . S
O216 Gd192 2.435 . S
O216 C202 1.256 . S
O217 Gd192 2.717 . S
O217 Gd193 2.327 1_545 S
O217 C202 1.257 . S
O218 Gd193 2.377 . S
O218 C203 1.240 1_565 S
O219 Gd192 2.395 . S
O219 C203 1.240 . S
O220 Gd193 2.448 . S
O220 C204 1.249 . S
O221 Gd193 2.506 1_545 S
O221 C204 1.252 1_545 S
O222 Gd193 2.435 . S
O222 C211 1.256 . S
O223 Gd192 2.327 1_565 S
O223 Gd193 2.717 . S
O223 C211 1.257 . S
H224 C197 0.930 1_556 S
H225 C198 0.931 1_565 S
H226 C200 0.931 1_565 S
H227 C201 0.931 . S
H228 C206 0.930 . S
H229 C207 0.931 . S
H230 C209 0.957 . S
H231 C210 0.931 . S
Gd232 C235 2.818 . S
Gd232 O252 2.377 . S
Gd232 O254 2.448 . S
Gd232 O255 2.506 . S
Gd232 O256 2.435 . S
Gd232 O257 2.717 . S
Gd232 O259 2.395 . S
Gd232 O263 2.327 . S
Gd233 C244 2.818 . S
Gd233 O253 2.395 . S
Gd233 O257 2.327 . S
Gd233 O258 2.377 . S
Gd233 O260 2.448 . S
Gd233 O261 2.506 . S
Gd233 O262 2.435 . S
Gd233 O263 2.717 . S
C234 O252 1.240 . S
C234 O253 1.240 . S
C235 Gd232 2.818 . S
C235 C236 1.510 . S
C235 O254 1.249 . S
C235 O255 1.252 . S
C236 C235 1.510 . S
C236 C237 1.404 1_556 S
C236 C238 1.352 1_556 S
C237 C236 1.404 1_554 S
C237 C241 1.389 . S
C237 H264 0.930 1_554 S
C238 C236 1.352 1_554 S
C238 C240 1.374 . S
C238 H265 0.931 . S
C239 C240 1.359 . S
C239 C241 1.364 . S
C240 C238 1.374 . S
C240 C239 1.359 . S
C240 H266 0.931 . S
C241 C237 1.389 . S
C241 C239 1.364 . S
C241 H267 0.931 . S
C242 O256 1.256 . S
C242 O257 1.257 . S
C243 O258 1.240 . S
C243 O259 1.240 . S
C244 Gd233 2.818 . S
C244 C245 1.510 . S
C244 O260 1.249 . S
C244 O261 1.252 . S
C245 C244 1.510 . S
C245 C246 1.404 . S
C245 C247 1.352 . S
C246 C245 1.404 . S
C246 C250 1.389 . S
C246 H268 0.930 . S
C247 C245 1.352 . S
C247 C249 1.374 . S
C247 H269 0.931 . S
C248 C249 1.359 . S
C248 C250 1.364 . S
C249 C247 1.374 . S
C249 C248 1.359 . S
C249 H270 0.931 . S
C250 C246 1.389 . S
C250 C248 1.364 . S
C250 H271 0.931 . S
C251 O262 1.256 . S
C251 O263 1.257 . S
O252 Gd232 2.377 . S
O252 C234 1.240 . S
O253 Gd233 2.395 . S
O253 C234 1.240 . S
O254 Gd232 2.448 . S
O254 C235 1.249 . S
O255 Gd232 2.506 . S
O255 C235 1.252 . S
O256 Gd232 2.435 . S
O256 C242 1.256 . S
O257 Gd232 2.717 . S
O257 Gd233 2.327 . S
O257 C242 1.257 . S
O258 Gd233 2.377 . S
O258 C243 1.240 . S
O259 Gd232 2.395 . S
O259 C243 1.240 . S
O260 Gd233 2.448 . S
O260 C244 1.249 . S
O261 Gd233 2.506 . S
O261 C244 1.252 . S
O262 Gd233 2.435 . S
O262 C251 1.256 . S
O263 Gd232 2.327 . S
O263 Gd233 2.717 . S
O263 C251 1.257 . S
H264 C237 0.930 1_556 S
H265 C238 0.931 . S
H266 C240 0.931 . S
H267 C241 0.931 . S
H268 C246 0.930 . S
H269 C247 0.931 . S
H270 C249 0.931 . S
H271 C250 0.931 . S
Gd272 C275 2.818 . S
Gd272 O292 2.377 . S
Gd272 O294 2.448 . S
Gd272 O295 2.506 . S
Gd272 O296 2.435 . S
Gd272 O297 2.717 1_655 S
Gd272 O299 2.395 1_655 S
Gd272 O303 2.327 . S
Gd273 C284 2.818 . S
Gd273 O293 2.395 1_455 S
Gd273 O297 2.327 . S
Gd273 O298 2.377 . S
Gd273 O300 2.448 . S
Gd273 O301 2.506 . S
Gd273 O302 2.435 . S
Gd273 O303 2.717 1_455 S
C274 O292 1.240 . S
C274 O293 1.240 . S
C275 Gd272 2.818 . S
C275 C276 1.510 . S
C275 O294 1.249 . S
C275 O295 1.252 . S
C276 C275 1.510 . S
C276 C277 1.404 1_556 S
C276 C278 1.352 1_556 S
C277 C276 1.404 1_554 S
C277 C281 1.389 . S
C277 H304 0.930 1_554 S
C278 C276 1.352 1_554 S
C278 C280 1.374 . S
C278 H305 0.931 . S
C279 C280 1.359 . S
C279 C281 1.364 . S
C280 C278 1.374 . S
C280 C279 1.359 . S
C280 H306 0.931 . S
C281 C277 1.389 . S
C281 C279 1.364 . S
C281 H307 0.931 . S
C282 O296 1.256 1_455 S
C282 O297 1.257 . S
C283 O298 1.240 . S
C283 O299 1.240 . S
C284 Gd273 2.818 . S
C284 C285 1.510 . S
C284 O300 1.249 . S
C284 O301 1.252 . S
C285 C284 1.510 . S
C285 C286 1.404 . S
C285 C287 1.352 . S
C286 C285 1.404 . S
C286 C290 1.389 . S
C286 H308 0.930 . S
C287 C285 1.352 . S
C287 C289 1.374 . S
C287 H309 0.931 . S
C288 C289 1.359 . S
C288 C290 1.364 . S
C289 C287 1.374 . S
C289 C288 1.359 . S
C289 H310 0.931 . S
C290 C286 1.389 . S
C290 C288 1.364 . S
C290 H311 0.931 . S
C291 O302 1.256 . S
C291 O303 1.257 1_455 S
O292 Gd272 2.377 . S
O292 C274 1.240 . S
O293 Gd273 2.395 1_655 S
O293 C274 1.240 . S
O294 Gd272 2.448 . S
O294 C275 1.249 . S
O295 Gd272 2.506 . S
O295 C275 1.252 . S
O296 Gd272 2.435 . S
O296 C282 1.256 1_655 S
O297 Gd272 2.717 1_455 S
O297 Gd273 2.327 . S
O297 C282 1.257 . S
O298 Gd273 2.377 . S
O298 C283 1.240 . S
O299 Gd272 2.395 1_455 S
O299 C283 1.240 . S
O300 Gd273 2.448 . S
O300 C284 1.249 . S
O301 Gd273 2.506 . S
O301 C284 1.252 . S
O302 Gd273 2.435 . S
O302 C291 1.256 . S
O303 Gd272 2.327 . S
O303 Gd273 2.717 1_655 S
O303 C291 1.257 1_655 S
H304 C277 0.930 1_556 S
H305 C278 0.931 . S
H306 C280 0.931 . S
H307 C281 0.931 . S
H308 C286 0.930 . S
H309 C287 0.931 . S
H310 C289 0.931 . S
H311 C290 0.931 . S
C312 C313 1.391 1_565 S
C312 C314 1.394 . S
C312 H328 0.931 . S
C313 C312 1.391 1_545 S
C313 C317 1.376 . S
C314 C312 1.394 . S
C314 C315 1.369 1_565 S
C314 C318 1.531 . S
C315 C314 1.369 1_545 S
C315 C316 1.410 . S
C315 C323 1.503 . S
C316 C315 1.410 . S
C316 C317 1.392 . S
C316 C319 1.511 . S
C317 C313 1.376 . S
C317 C316 1.392 . S
C317 H329 0.929 . S
C318 C314 1.531 . S
C318 H330 0.960 . S
C318 H331 0.962 . S
C318 H332 0.960 . S
C319 C316 1.511 . S
C319 H333 0.961 . S
C319 H334 0.961 . S
C319 H335 0.961 . S
C320 C321 1.370 . S
C320 C322 1.363 . S
C320 H336 0.931 . S
C321 C320 1.370 . S
C321 C325 1.408 1_545 S
C322 C320 1.363 . S
C322 C323 1.370 . S
C322 C326 1.524 . S
C323 C315 1.503 . S
C323 C322 1.370 . S
C323 C324 1.403 1_545 S
C324 C323 1.403 1_565 S
C324 C325 1.404 . S
C324 C327 1.539 . S
C325 C321 1.408 1_565 S
C325 C324 1.404 . S
C325 H337 0.930 . S
C326 C322 1.524 . S
C326 H338 0.956 . S
C326 H339 0.961 . S
C326 H340 0.961 . S
C327 C324 1.539 . S
C327 H341 0.958 . S
C327 H342 0.961 . S
C327 H343 0.960 . S
H328 C312 0.931 . S
H329 C317 0.929 . S
H330 C318 0.960 . S
H331 C318 0.962 . S
H332 C318 0.960 . S
H333 C319 0.961 . S
H334 C319 0.961 . S
H335 C319 0.961 . S
H336 C320 0.931 . S
H337 C325 0.930 . S
H338 C326 0.956 . S
H339 C326 0.961 . S
H340 C326 0.961 . S
H341 C327 0.958 . S
H342 C327 0.961 . S
H343 C327 0.960 . S
C344 C345 1.391 . S
C344 C346 1.394 . S
C344 H360 0.931 . S
C345 C344 1.391 . S
C345 C349 1.376 . S
C346 C344 1.394 . S
C346 C347 1.369 . S
C346 C350 1.531 . S
C347 C346 1.369 . S
C347 C348 1.410 . S
C347 C355 1.503 . S
C348 C347 1.410 . S
C348 C349 1.392 . S
C348 C351 1.511 . S
C349 C345 1.376 . S
C349 C348 1.392 . S
C349 H361 0.929 . S
C350 C346 1.531 . S
C350 H362 0.960 . S
C350 H363 0.962 . S
C350 H364 0.960 . S
C351 C348 1.511 . S
C351 H365 0.961 . S
C351 H366 0.961 . S
C351 H367 0.961 . S
C352 C353 1.370 . S
C352 C354 1.363 . S
C352 H368 0.931 . S
C353 C352 1.370 . S
C353 C357 1.408 . S
C354 C352 1.363 . S
C354 C355 1.370 . S
C354 C358 1.524 . S
C355 C347 1.503 . S
C355 C354 1.370 . S
C355 C356 1.403 . S
C356 C355 1.403 . S
C356 C357 1.404 . S
C356 C359 1.539 . S
C357 C353 1.408 . S
C357 C356 1.404 . S
C357 H369 0.930 . S
C358 C354 1.524 . S
C358 H370 0.956 . S
C358 H371 0.961 . S
C358 H372 0.961 . S
C359 C356 1.539 . S
C359 H373 0.958 . S
C359 H374 0.961 . S
C359 H375 0.960 . S
H360 C344 0.931 . S
H361 C349 0.929 . S
H362 C350 0.960 . S
H363 C350 0.962 . S
H364 C350 0.960 . S
H365 C351 0.961 . S
H366 C351 0.961 . S
H367 C351 0.961 . S
H368 C352 0.931 . S
H369 C357 0.930 . S
H370 C358 0.956 . S
H371 C358 0.961 . S
H372 C358 0.961 . S
H373 C359 0.958 . S
H374 C359 0.961 . S
H375 C359 0.960 . S
C376 C377 1.391 . S
C376 C378 1.394 . S
C376 H392 0.931 . S
C377 C376 1.391 . S
C377 C381 1.376 . S
C378 C376 1.394 . S
C378 C379 1.369 . S
C378 C382 1.531 . S
C379 C378 1.369 . S
C379 C380 1.410 . S
C379 C387 1.503 . S
C380 C379 1.410 . S
C380 C381 1.392 . S
C380 C383 1.511 . S
C381 C377 1.376 . S
C381 C380 1.392 . S
C381 H393 0.929 . S
C382 C378 1.531 . S
C382 H394 0.960 . S
C382 H395 0.962 . S
C382 H396 0.960 . S
C383 C380 1.511 . S
C383 H397 0.961 . S
C383 H398 0.961 . S
C383 H399 0.961 . S
C384 C385 1.370 . S
C384 C386 1.363 . S
C384 H400 0.931 . S
C385 C384 1.370 . S
C385 C389 1.408 . S
C386 C384 1.363 . S
C386 C387 1.370 . S
C386 C390 1.524 . S
C387 C379 1.503 . S
C387 C386 1.370 . S
C387 C388 1.403 . S
C388 C387 1.403 . S
C388 C389 1.404 . S
C388 C391 1.539 . S
C389 C385 1.408 . S
C389 C388 1.404 . S
C389 H401 0.930 . S
C390 C386 1.524 . S
C390 H402 0.956 . S
C390 H403 0.961 . S
C390 H404 0.961 . S
C391 C388 1.539 . S
C391 H405 0.958 . S
C391 H406 0.961 . S
C391 H407 0.960 . S
H392 C376 0.931 . S
H393 C381 0.929 . S
H394 C382 0.960 . S
H395 C382 0.962 . S
H396 C382 0.960 . S
H397 C383 0.961 . S
H398 C383 0.961 . S
H399 C383 0.961 . S
H400 C384 0.931 . S
H401 C389 0.930 . S
H402 C390 0.956 . S
H403 C390 0.961 . S
H404 C390 0.961 . S
H405 C391 0.958 . S
H406 C391 0.961 . S
H407 C391 0.960 . S
C408 C409 1.391 1_655 S
C408 C410 1.394 . S
C408 H424 0.931 . S
C409 C408 1.391 1_455 S
C409 C413 1.376 . S
C410 C408 1.394 . S
C410 C411 1.369 1_655 S
C410 C414 1.531 . S
C411 C410 1.369 1_455 S
C411 C412 1.410 . S
C411 C419 1.503 . S
C412 C411 1.410 . S
C412 C413 1.392 . S
C412 C415 1.511 . S
C413 C409 1.376 . S
C413 C412 1.392 . S
C413 H425 0.929 . S
C414 C410 1.531 . S
C414 H426 0.960 . S
C414 H427 0.962 . S
C414 H428 0.960 . S
C415 C412 1.511 . S
C415 H429 0.961 . S
C415 H430 0.961 . S
C415 H431 0.961 . S
C416 C417 1.370 . S
C416 C418 1.363 . S
C416 H432 0.931 . S
C417 C416 1.370 . S
C417 C421 1.408 1_455 S
C418 C416 1.363 . S
C418 C419 1.370 . S
C418 C422 1.524 . S
C419 C411 1.503 . S
C419 C418 1.370 . S
C419 C420 1.403 1_455 S
C420 C419 1.403 1_655 S
C420 C421 1.404 . S
C420 C423 1.539 . S
C421 C417 1.408 1_655 S
C421 C420 1.404 . S
C421 H433 0.930 . S
C422 C418 1.524 . S
C422 H434 0.956 . S
C422 H435 0.961 . S
C422 H436 0.961 . S
C423 C420 1.539 . S
C423 H437 0.958 . S
C423 H438 0.961 . S
C423 H439 0.960 . S
H424 C408 0.931 . S
H425 C413 0.929 . S
H426 C414 0.960 . S
H427 C414 0.962 . S
H428 C414 0.960 . S
H429 C415 0.961 . S
H430 C415 0.961 . S
H431 C415 0.961 . S
H432 C416 0.931 . S
H433 C421 0.930 . S
H434 C422 0.956 . S
H435 C422 0.961 . S
H436 C422 0.961 . S
H437 C423 0.958 . S
H438 C423 0.961 . S
H439 C423 0.960 . S
C440 C441 1.391 . S
C440 C442 1.394 . S
C440 H456 0.931 . S
C441 C440 1.391 . S
C441 C445 1.376 1_545 S
C442 C440 1.394 . S
C442 C443 1.369 . S
C442 C446 1.531 1_554 S
C443 C442 1.369 . S
C443 C444 1.410 1_545 S
C443 C451 1.503 . S
C444 C443 1.410 1_565 S
C444 C445 1.392 . S
C444 C447 1.511 . S
C445 C441 1.376 1_565 S
C445 C444 1.392 . S
C445 H457 0.929 . S
C446 C442 1.531 1_556 S
C446 H458 0.960 . S
C446 H459 0.962 . S
C446 H460 0.960 1_556 S
C447 C444 1.511 . S
C447 H461 0.961 . S
C447 H462 0.961 . S
C447 H463 0.961 1_565 S
C448 C449 1.370 1_565 S
C448 C450 1.363 . S
C448 H464 0.931 . S
C449 C448 1.370 1_545 S
C449 C453 1.408 . S
C450 C448 1.363 . S
C450 C451 1.370 1_566 S
C450 C454 1.524 1_556 S
C451 C443 1.503 . S
C451 C450 1.370 1_544 S
C451 C452 1.403 . S
C452 C451 1.403 . S
C452 C453 1.404 1_554 S
C452 C455 1.539 . S
C453 C449 1.408 . S
C453 C452 1.404 1_556 S
C453 H465 0.930 . S
C454 C450 1.524 1_554 S
C454 H466 0.956 . S
C454 H467 0.961 . S
C454 H468 0.961 1_554 S
C455 C452 1.539 . S
C455 H469 0.958 . S
C455 H470 0.961 . S
C455 H471 0.960 . S
H456 C440 0.931 . S
H457 C445 0.929 . S
H458 C446 0.960 . S
H459 C446 0.962 . S
H460 C446 0.960 1_554 S
H461 C447 0.961 . S
H462 C447 0.961 . S
H463 C447 0.961 1_545 S
H464 C448 0.931 . S
H465 C453 0.930 . S
H466 C454 0.956 . S
H467 C454 0.961 . S
H468 C454 0.961 1_556 S
H469 C455 0.958 . S
H470 C455 0.961 . S
H471 C455 0.960 . S
C472 C473 1.391 . S
C472 C474 1.394 . S
C472 H488 0.931 . S
C473 C472 1.391 . S
C473 C477 1.376 . S
C474 C472 1.394 . S
C474 C475 1.369 . S
C474 C478 1.531 . S
C475 C474 1.369 . S
C475 C476 1.410 . S
C475 C483 1.503 . S
C476 C475 1.410 . S
C476 C477 1.392 . S
C476 C479 1.511 . S
C477 C473 1.376 . S
C477 C476 1.392 . S
C477 H489 0.929 . S
C478 C474 1.531 . S
C478 H490 0.960 1_554 S
C478 H491 0.962 . S
C478 H492 0.960 . S
C479 C476 1.511 . S
C479 H493 0.961 . S
C479 H494 0.961 . S
C479 H495 0.961 . S
C480 C481 1.370 . S
C480 C482 1.363 1_556 S
C480 H496 0.931 . S
C481 C480 1.370 . S
C481 C485 1.408 . S
C482 C480 1.363 1_554 S
C482 C483 1.370 . S
C482 C486 1.524 . S
C483 C475 1.503 . S
C483 C482 1.370 . S
C483 C484 1.403 1_554 S
C484 C483 1.403 1_556 S
C484 C485 1.404 . S
C484 C487 1.539 . S
C485 C481 1.408 . S
C485 C484 1.404 . S
C485 H497 0.930 . S
C486 C482 1.524 . S
C486 H498 0.956 . S
C486 H499 0.961 . S
C486 H500 0.961 . S
C487 C484 1.539 . S
C487 H501 0.958 . S
C487 H502 0.961 . S
C487 H503 0.963 . S
H488 C472 0.931 . S
H489 C477 0.929 . S
H490 C478 0.960 1_556 S
H491 C478 0.962 . S
H492 C478 0.960 . S
H493 C479 0.961 . S
H494 C479 0.961 . S
H495 C479 0.961 . S
H496 C480 0.931 . S
H497 C485 0.930 . S
H498 C486 0.956 . S
H499 C486 0.961 . S
H500 C486 0.961 . S
H501 C487 0.958 . S
H502 C487 0.961 . S
H503 C487 0.963 . S
C504 C505 1.391 . S
C504 C506 1.394 . S
C504 H520 0.931 . S
C505 C504 1.391 . S
C505 C509 1.376 . S
C506 C504 1.394 . S
C506 C507 1.369 . S
C506 C510 1.531 . S
C507 C506 1.369 . S
C507 C508 1.410 . S
C507 C515 1.503 . S
C508 C507 1.410 . S
C508 C509 1.392 . S
C508 C511 1.501 1_554 S
C509 C505 1.376 . S
C509 C508 1.392 . S
C509 H521 0.929 . S
C510 C506 1.531 . S
C510 H522 0.960 . S
C510 H523 0.962 . S
C510 H524 0.960 . S
C511 C508 1.501 1_556 S
C511 H525 0.959 1_556 S
C511 H526 0.966 . S
C511 H527 0.967 . S
C512 C513 1.370 . S
C512 C514 1.363 1_556 S
C512 H528 0.931 . S
C513 C512 1.370 . S
C513 C517 1.408 . S
C514 C512 1.363 1_554 S
C514 C515 1.370 . S
C514 C518 1.524 . S
C515 C507 1.503 . S
C515 C514 1.370 . S
C515 C516 1.403 1_554 S
C516 C515 1.403 1_556 S
C516 C517 1.404 . S
C516 C519 1.539 . S
C517 C513 1.408 . S
C517 C516 1.404 . S
C517 H529 0.930 . S
C518 C514 1.524 . S
C518 H530 0.956 . S
C518 H531 0.961 . S
C518 H532 0.961 . S
C519 C516 1.539 . S
C519 H533 0.958 . S
C519 H534 0.961 . S
C519 H535 0.960 . S
H520 C504 0.931 . S
H521 C509 0.929 . S
H522 C510 0.960 . S
H523 C510 0.962 . S
H524 C510 0.960 . S
H525 C511 0.959 1_554 S
H526 C511 0.966 . S
H527 C511 0.967 . S
H528 C512 0.931 . S
H529 C517 0.930 . S
H530 C518 0.956 . S
H531 C518 0.961 . S
H532 C518 0.961 . S
H533 C519 0.958 . S
H534 C519 0.961 . S
H535 C519 0.960 . S
C536 C537 1.364 1_455 S
C536 C538 1.394 . S
C536 H552 0.931 . S
C537 C536 1.364 1_655 S
C537 C541 1.403 . S
C538 C536 1.394 . S
C538 C539 1.369 1_455 S
C538 C542 1.531 . S
C539 C538 1.369 1_655 S
C539 C540 1.410 . S
C539 C547 1.504 . S
C540 C539 1.410 . S
C540 C541 1.392 . S
C540 C543 1.511 . S
C541 C537 1.403 . S
C541 C540 1.392 . S
C541 H553 0.929 . S
C542 C538 1.531 . S
C542 H554 0.960 . S
C542 H555 0.962 . S
C542 H556 0.960 . S
C543 C540 1.511 . S
C543 H557 0.961 . S
C543 H558 0.961 . S
C543 H559 0.961 . S
C544 C545 1.382 . S
C544 C546 1.363 . S
C544 H560 0.931 . S
C545 C544 1.382 . S
C545 C549 1.397 1_455 S
C546 C544 1.363 . S
C546 C547 1.365 1_456 S
C546 C550 1.524 . S
C547 C539 1.504 . S
C547 C546 1.365 1_654 S
C547 C548 1.408 . S
C548 C547 1.408 . S
C548 C549 1.404 1_554 S
C548 C551 1.539 . S
C549 C545 1.397 1_655 S
C549 C548 1.404 1_556 S
C549 H561 0.930 1_556 S
C550 C546 1.524 . S
C550 H562 0.956 . S
C550 H563 0.961 . S
C550 H564 0.961 . S
C551 C548 1.539 . S
C551 H565 0.958 . S
C551 H566 0.961 . S
C551 H567 0.960 . S
H552 C536 0.931 . S
H553 C541 0.929 . S
H554 C542 0.960 . S
H555 C542 0.962 . S
H556 C542 0.960 . S
H557 C543 0.961 . S
H558 C543 0.961 . S
H559 C543 0.961 . S
H560 C544 0.931 . S
H561 C549 0.930 1_554 S
H562 C550 0.956 . S
H563 C550 0.961 . S
H564 C550 0.961 . S
H565 C551 0.958 . S
H566 C551 0.961 . S
H567 C551 0.960 . S
C568 C569 1.391 . S
C568 C570 1.394 . S
C568 H584 0.931 . S
C569 C568 1.391 . S
C569 C573 1.376 1_455 S
C570 C568 1.394 . S
C570 C571 1.369 1_455 S
C570 C574 1.531 . S
C571 C570 1.369 1_655 S
C571 C572 1.410 . S
C571 C579 1.503 . S
C572 C571 1.410 . S
C572 C573 1.392 . S
C572 C575 1.511 . S
C573 C569 1.376 1_655 S
C573 C572 1.392 . S
C573 H585 0.929 . S
C574 C570 1.531 . S
C574 H586 0.960 . S
C574 H587 0.962 . S
C574 H588 0.960 . S
C575 C572 1.511 . S
C575 H589 0.961 . S
C575 H590 0.961 . S
C575 H591 0.961 . S
C576 C577 1.370 . S
C576 C578 1.363 . S
C576 H592 0.931 . S
C577 C576 1.370 . S
C577 C581 1.408 . S
C578 C576 1.363 . S
C578 C579 1.370 . S
C578 C582 1.524 1_655 S
C579 C571 1.503 . S
C579 C578 1.370 . S
C579 C580 1.403 . S
C580 C579 1.403 . S
C580 C581 1.404 . S
C580 C583 1.539 . S
C581 C577 1.408 . S
C581 C580 1.404 . S
C581 H593 0.930 . S
C582 C578 1.524 1_455 S
C582 H594 0.956 . S
C582 H595 0.961 . S
C582 H596 0.961 . S
C583 C580 1.539 . S
C583 H597 0.958 . S
C583 H598 0.961 . S
C583 H599 0.960 . S
H584 C568 0.931 . S
H585 C573 0.929 . S
H586 C574 0.960 . S
H587 C574 0.962 . S
H588 C574 0.960 . S
H589 C575 0.961 . S
H590 C575 0.961 . S
H591 C575 0.961 . S
H592 C576 0.931 . S
H593 C581 0.930 . S
H594 C582 0.956 . S
H595 C582 0.961 . S
H596 C582 0.961 . S
H597 C583 0.958 . S
H598 C583 0.961 . S
H599 C583 0.960 . S
C600 C601 1.391 1_565 S
C600 C602 1.394 . S
C600 H616 0.931 1_554 S
C601 C600 1.391 1_545 S
C601 C605 1.376 . S
C602 C600 1.394 . S
C602 C603 1.373 . S
C602 C606 1.531 . S
C603 C602 1.373 . S
C603 C604 1.403 1_565 S
C603 C611 1.506 . S
C604 C603 1.403 1_545 S
C604 C605 1.392 . S
C604 C607 1.511 . S
C605 C601 1.376 . S
C605 C604 1.392 . S
C605 H617 0.929 . S
C606 C602 1.531 . S
C606 H618 0.960 . S
C606 H619 0.962 . S
C606 H620 0.960 1_554 S
C607 C604 1.511 . S
C607 H621 0.961 . S
C607 H622 0.961 . S
C607 H623 0.961 . S
C608 C609 1.370 . S
C608 C610 1.363 . S
C608 H624 0.931 . S
C609 C608 1.370 . S
C609 C613 1.408 . S
C610 C608 1.363 . S
C610 C611 1.370 . S
C610 C614 1.524 . S
C611 C603 1.506 . S
C611 C610 1.370 . S
C611 C612 1.403 1_565 S
C612 C611 1.403 1_545 S
C612 C613 1.404 1_545 S
C612 C615 1.539 . S
C613 C609 1.408 . S
C613 C612 1.404 1_565 S
C613 H625 0.930 1_565 S
C614 C610 1.524 . S
C614 H626 0.956 . S
C614 H627 0.961 . S
C614 H628 0.961 . S
C615 C612 1.539 . S
C615 H629 0.958 . S
C615 H630 0.961 . S
C615 H631 0.960 . S
H616 C600 0.931 1_556 S
H617 C605 0.929 . S
H618 C606 0.960 . S
H619 C606 0.962 . S
H620 C606 0.960 1_556 S
H621 C607 0.961 . S
H622 C607 0.961 . S
H623 C607 0.961 . S
H624 C608 0.931 . S
H625 C613 0.930 1_545 S
H626 C614 0.956 . S
H627 C614 0.961 . S
H628 C614 0.961 . S
H629 C615 0.958 . S
H630 C615 0.961 . S
H631 C615 0.960 . S
C632 C633 1.391 . S
C632 C634 1.394 . S
C632 H648 0.931 . S
C633 C632 1.391 . S
C633 C637 1.376 . S
C634 C632 1.394 . S
C634 C635 1.369 . S
C634 C638 1.531 . S
C635 C634 1.369 . S
C635 C636 1.410 . S
C635 C643 1.503 . S
C636 C635 1.410 . S
C636 C637 1.392 . S
C636 C639 1.511 . S
C637 C633 1.376 . S
C637 C636 1.392 . S
C637 H649 0.929 . S
C638 C634 1.531 . S
C638 H650 0.960 . S
C638 H651 0.962 . S
C638 H652 0.960 . S
C639 C636 1.511 . S
C639 H653 0.961 . S
C639 H654 0.961 . S
C639 H655 0.961 . S
C640 C641 1.370 . S
C640 C642 1.363 . S
C640 H656 0.931 . S
C641 C640 1.370 . S
C641 C645 1.408 . S
C642 C640 1.363 . S
C642 C643 1.370 . S
C642 C646 1.524 . S
C643 C635 1.503 . S
C643 C642 1.370 . S
C643 C644 1.403 . S
C644 C643 1.403 . S
C644 C645 1.404 . S
C644 C647 1.539 . S
C645 C641 1.408 . S
C645 C644 1.404 . S
C645 H657 0.930 . S
C646 C642 1.524 . S
C646 H658 0.956 . S
C646 H659 0.961 . S
C646 H660 0.961 . S
C647 C644 1.539 . S
C647 H661 0.958 . S
C647 H662 0.961 . S
C647 H663 0.960 . S
H648 C632 0.931 . S
H649 C637 0.929 . S
H650 C638 0.960 . S
H651 C638 0.962 . S
H652 C638 0.960 . S
H653 C639 0.961 . S
H654 C639 0.961 . S
H655 C639 0.961 . S
H656 C640 0.931 . S
H657 C645 0.930 . S
H658 C646 0.956 . S
H659 C646 0.961 . S
H660 C646 0.961 . S
H661 C647 0.958 . S
H662 C647 0.961 . S
H663 C647 0.960 . S
C664 C665 1.391 . S
C664 C666 1.394 . S
C664 H680 0.931 . S
C665 C664 1.391 . S
C665 C669 1.376 . S
C666 C664 1.394 . S
C666 C667 1.369 . S
C666 C670 1.531 . S
C667 C666 1.369 . S
C667 C668 1.410 . S
C667 C675 1.503 . S
C668 C667 1.410 . S
C668 C669 1.392 . S
C668 C671 1.511 . S
C669 C665 1.376 . S
C669 C668 1.392 . S
C669 H681 0.929 . S
C670 C666 1.531 . S
C670 H682 0.960 . S
C670 H683 0.962 . S
C670 H684 0.960 . S
C671 C668 1.511 . S
C671 H685 0.961 . S
C671 H686 0.961 . S
C671 H687 0.961 . S
C672 C673 1.370 . S
C672 C674 1.363 . S
C672 H688 0.931 . S
C673 C672 1.370 . S
C673 C677 1.408 . S
C674 C672 1.363 . S
C674 C675 1.370 . S
C674 C678 1.524 . S
C675 C667 1.503 . S
C675 C674 1.370 . S
C675 C676 1.403 . S
C676 C675 1.403 . S
C676 C677 1.404 . S
C676 C679 1.539 . S
C677 C673 1.408 . S
C677 C676 1.404 . S
C677 H689 0.930 . S
C678 C674 1.524 . S
C678 H690 0.956 . S
C678 H691 0.961 . S
C678 H692 0.961 . S
C679 C676 1.539 . S
C679 H693 0.958 . S
C679 H694 0.961 . S
C679 H695 0.960 . S
H680 C664 0.931 . S
H681 C669 0.929 . S
H682 C670 0.960 . S
H683 C670 0.962 . S
H684 C670 0.960 . S
H685 C671 0.961 . S
H686 C671 0.961 . S
H687 C671 0.961 . S
H688 C672 0.931 . S
H689 C677 0.930 . S
H690 C678 0.956 . S
H691 C678 0.961 . S
H692 C678 0.961 . S
H693 C679 0.958 . S
H694 C679 0.961 . S
H695 C679 0.960 . S
C696 C697 1.391 1_455 S
C696 C698 1.394 . S
C696 H712 0.931 . S
C697 C696 1.391 1_655 S
C697 C701 1.376 . S
C698 C696 1.394 . S
C698 C699 1.369 . S
C698 C702 1.531 . S
C699 C698 1.369 . S
C699 C700 1.410 1_455 S
C699 C707 1.503 . S
C700 C699 1.410 1_655 S
C700 C701 1.392 . S
C700 C703 1.511 . S
C701 C697 1.376 . S
C701 C700 1.392 . S
C701 H713 0.929 . S
C702 C698 1.531 . S
C702 H714 0.960 . S
C702 H715 0.962 . S
C702 H716 0.960 . S
C703 C700 1.511 . S
C703 H717 0.961 . S
C703 H718 0.961 . S
C703 H719 0.961 . S
C704 C705 1.370 . S
C704 C706 1.363 . S
C704 H720 0.931 . S
C705 C704 1.370 . S
C705 C709 1.408 . S
C706 C704 1.363 . S
C706 C707 1.370 . S
C706 C710 1.524 . S
C707 C699 1.503 . S
C707 C706 1.370 . S
C707 C708 1.403 . S
C708 C707 1.403 . S
C708 C709 1.404 . S
C708 C711 1.539 1_554 S
C709 C705 1.408 . S
C709 C708 1.404 . S
C709 H721 0.930 1_554 S
C710 C706 1.524 . S
C710 H722 0.956 . S
C710 H723 0.961 . S
C710 H724 0.961 . S
C711 C708 1.539 1_556 S
C711 H725 0.958 . S
C711 H726 0.961 1_455 S
C711 H727 0.960 1_456 S
H712 C696 0.931 . S
H713 C701 0.929 . S
H714 C702 0.960 . S
H715 C702 0.962 . S
H716 C702 0.960 . S
H717 C703 0.961 . S
H718 C703 0.961 . S
H719 C703 0.961 . S
H720 C704 0.931 . S
H721 C709 0.930 1_556 S
H722 C710 0.956 . S
H723 C710 0.961 . S
H724 C710 0.961 . S
H725 C711 0.958 . S
H726 C711 0.961 1_655 S
H727 C711 0.960 1_654 S
C728 C729 1.390 1_565 S
C728 C730 1.394 . S
C728 H744 0.931 . S
C729 C728 1.390 1_545 S
C729 C733 1.377 . S
C730 C728 1.394 . S
C730 C731 1.369 1_565 S
C730 C734 1.531 . S
C731 C730 1.369 1_545 S
C731 C732 1.410 . S
C731 C739 1.503 . S
C732 C731 1.410 . S
C732 C733 1.392 . S
C732 C735 1.511 . S
C733 C729 1.377 . S
C733 C732 1.392 . S
C733 H745 0.929 . S
C734 C730 1.531 . S
C734 H746 0.960 . S
C734 H747 0.962 . S
C734 H748 0.960 . S
C735 C732 1.511 . S
C735 H749 0.961 . S
C735 H750 0.961 . S
C735 H751 0.961 . S
C736 C737 1.370 . S
C736 C738 1.363 . S
C736 H752 0.931 . S
C737 C736 1.370 . S
C737 C741 1.408 . S
C738 C736 1.363 . S
C738 C739 1.370 . S
C738 C742 1.524 1_545 S
C739 C731 1.503 . S
C739 C738 1.370 . S
C739 C740 1.403 . S
C740 C739 1.403 . S
C740 C741 1.404 . S
C740 C743 1.539 . S
C741 C737 1.408 . S
C741 C740 1.404 . S
C741 H753 0.930 . S
C742 C738 1.524 1_565 S
C742 H754 0.956 . S
C742 H755 0.961 . S
C742 H756 0.961 . S
C743 C740 1.539 . S
C743 H757 0.958 . S
C743 H758 0.961 . S
C743 H759 0.960 . S
H744 C728 0.931 . S
H745 C733 0.929 . S
H746 C734 0.960 . S
H747 C734 0.962 . S
H748 C734 0.960 . S
H749 C735 0.961 . S
H750 C735 0.961 . S
H751 C735 0.961 . S
H752 C736 0.931 . S
H753 C741 0.930 . S
H754 C742 0.956 . S
H755 C742 0.961 . S
H756 C742 0.961 . S
H757 C743 0.958 . S
H758 C743 0.961 . S
H759 C743 0.960 . S
C760 C761 1.391 . S
C760 C762 1.394 . S
C760 H776 0.931 . S
C761 C760 1.391 . S
C761 C765 1.376 . S
C762 C760 1.394 . S
C762 C763 1.369 . S
C762 C766 1.531 . S
C763 C762 1.369 . S
C763 C764 1.410 . S
C763 C771 1.503 . S
C764 C763 1.410 . S
C764 C765 1.392 . S
C764 C767 1.511 . S
C765 C761 1.376 . S
C765 C764 1.392 . S
C765 H777 0.929 . S
C766 C762 1.531 . S
C766 H778 0.960 . S
C766 H779 0.962 . S
C766 H780 0.960 . S
C767 C764 1.511 . S
C767 H781 0.961 . S
C767 H782 0.961 . S
C767 H783 0.961 . S
C768 C769 1.370 . S
C768 C770 1.363 . S
C768 H784 0.931 1_554 S
C769 C768 1.370 . S
C769 C773 1.408 . S
C770 C768 1.363 . S
C770 C771 1.370 . S
C770 C774 1.524 . S
C771 C763 1.503 . S
C771 C770 1.370 . S
C771 C772 1.403 . S
C772 C771 1.403 . S
C772 C773 1.404 . S
C772 C775 1.539 . S
C773 C769 1.408 . S
C773 C772 1.404 . S
C773 H785 0.930 . S
C774 C770 1.524 . S
C774 H786 0.956 . S
C774 H787 0.961 . S
C774 H788 0.961 1_554 S
C775 C772 1.539 . S
C775 H789 0.958 . S
C775 H790 0.961 . S
C775 H791 0.960 . S
H776 C760 0.931 . S
H777 C765 0.929 . S
H778 C766 0.960 . S
H779 C766 0.962 . S
H780 C766 0.960 . S
H781 C767 0.961 . S
H782 C767 0.961 . S
H783 C767 0.961 . S
H784 C768 0.931 1_556 S
H785 C773 0.930 . S
H786 C774 0.956 . S
H787 C774 0.961 . S
H788 C774 0.961 1_556 S
H789 C775 0.958 . S
H790 C775 0.961 . S
H791 C775 0.960 . S
C792 C793 1.391 . S
C792 C794 1.394 . S
C792 H808 0.931 . S
C793 C792 1.391 . S
C793 C797 1.376 . S
C794 C792 1.394 . S
C794 C795 1.369 . S
C794 C798 1.531 . S
C795 C794 1.369 . S
C795 C796 1.410 . S
C795 C803 1.503 . S
C796 C795 1.410 . S
C796 C797 1.392 . S
C796 C799 1.511 . S
C797 C793 1.376 . S
C797 C796 1.392 . S
C797 H809 0.929 . S
C798 C794 1.531 . S
C798 H810 0.960 . S
C798 H811 0.962 . S
C798 H812 0.960 . S
C799 C796 1.511 . S
C799 H813 0.961 . S
C799 H814 0.961 . S
C799 H815 0.961 . S
C800 C801 1.370 . S
C800 C802 1.363 . S
C800 H816 0.931 . S
C801 C800 1.370 . S
C801 C805 1.408 . S
C802 C800 1.363 . S
C802 C803 1.370 . S
C802 C806 1.524 . S
C803 C795 1.503 . S
C803 C802 1.370 . S
C803 C804 1.403 . S
C804 C803 1.403 . S
C804 C805 1.404 . S
C804 C807 1.539 . S
C805 C801 1.408 . S
C805 C804 1.404 . S
C805 H817 0.930 . S
C806 C802 1.524 . S
C806 H818 0.956 . S
C806 H819 0.961 . S
C806 H820 0.961 . S
C807 C804 1.539 . S
C807 H821 0.958 . S
C807 H822 0.961 . S
C807 H823 0.960 . S
H808 C792 0.931 . S
H809 C797 0.929 . S
H810 C798 0.960 . S
H811 C798 0.962 . S
H812 C798 0.960 . S
H813 C799 0.961 . S
H814 C799 0.961 . S
H815 C799 0.961 . S
H816 C800 0.931 . S
H817 C805 0.930 . S
H818 C806 0.956 . S
H819 C806 0.961 . S
H820 C806 0.961 . S
H821 C807 0.958 . S
H822 C807 0.961 . S
H823 C807 0.960 . S
C824 C825 1.391 1_655 S
C824 C826 1.394 . S
C824 H840 0.931 . S
C825 C824 1.391 1_455 S
C825 C829 1.376 . S
C826 C824 1.394 . S
C826 C827 1.366 1_655 S
C826 C830 1.533 . S
C827 C826 1.366 1_455 S
C827 C828 1.410 . S
C827 C835 1.503 . S
C828 C827 1.410 . S
C828 C829 1.392 . S
C828 C831 1.511 . S
C829 C825 1.376 . S
C829 C828 1.392 . S
C829 H841 0.929 . S
C830 C826 1.533 . S
C830 H842 0.960 . S
C830 H843 0.962 . S
C830 H844 0.960 . S
C831 C828 1.511 . S
C831 H845 0.961 . S
C831 H846 0.961 . S
C831 H847 0.961 . S
C832 C833 1.341 1_655 S
C832 C834 1.363 . S
C832 H848 0.962 . S
C833 C832 1.341 1_455 S
C833 C837 1.408 . S
C834 C832 1.363 . S
C834 C835 1.348 1_655 S
C834 C838 1.547 . S
C835 C827 1.503 . S
C835 C834 1.348 1_455 S
C835 C836 1.403 . S
C836 C835 1.403 . S
C836 C837 1.404 . S
C836 C839 1.539 . S
C837 C833 1.408 . S
C837 C836 1.404 . S
C837 H849 0.930 . S
C838 C834 1.547 . S
C838 H850 0.956 . S
C838 H851 0.961 . S
C838 H852 0.961 . S
C839 C836 1.539 . S
C839 H853 0.958 . S
C839 H854 0.961 . S
C839 H855 0.960 . S
H840 C824 0.931 . S
H841 C829 0.929 . S
H842 C830 0.960 . S
H843 C830 0.962 . S
H844 C830 0.960 . S
H845 C831 0.961 . S
H846 C831 0.961 . S
H847 C831 0.961 . S
H848 C832 0.962 . S
H849 C837 0.930 . S
H850 C838 0.956 . S
H851 C838 0.961 . S
H852 C838 0.961 . S
H853 C839 0.958 . S
H854 C839 0.961 . S
H855 C839 0.960 . S
C856 C857 1.391 1_565 S
C856 C858 1.394 . S
C856 H872 0.931 . S
C857 C856 1.391 1_545 S
C857 C861 1.376 . S
C858 C856 1.394 . S
C858 C859 1.369 1_565 S
C858 C862 1.531 . S
C859 C858 1.369 1_545 S
C859 C860 1.410 . S
C859 C867 1.503 . S
C860 C859 1.410 . S
C860 C861 1.392 . S
C860 C863 1.511 . S
C861 C857 1.376 . S
C861 C860 1.392 . S
C861 H873 0.929 . S
C862 C858 1.531 . S
C862 H874 0.960 . S
C862 H875 0.962 1_566 S
C862 H876 0.960 1_556 S
C863 C860 1.511 . S
C863 H877 0.961 . S
C863 H878 0.961 . S
C863 H879 0.961 . S
C864 C865 1.370 . S
C864 C866 1.363 . S
C864 H880 0.931 . S
C865 C864 1.370 . S
C865 C869 1.408 1_545 S
C866 C864 1.363 . S
C866 C867 1.370 . S
C866 C870 1.524 . S
C867 C859 1.503 . S
C867 C866 1.370 . S
C867 C868 1.403 1_545 S
C868 C867 1.403 1_565 S
C868 C869 1.404 . S
C868 C871 1.539 . S
C869 C865 1.408 1_565 S
C869 C868 1.404 . S
C869 H881 0.930 . S
C870 C866 1.524 . S
C870 H882 0.956 . S
C870 H883 0.961 . S
C870 H884 0.961 . S
C871 C868 1.539 . S
C871 H885 0.958 . S
C871 H886 0.961 . S
C871 H887 0.960 . S
H872 C856 0.931 . S
H873 C861 0.929 . S
H874 C862 0.960 . S
H875 C862 0.962 1_544 S
H876 C862 0.960 1_554 S
H877 C863 0.961 . S
H878 C863 0.961 . S
H879 C863 0.961 . S
H880 C864 0.931 . S
H881 C869 0.930 . S
H882 C870 0.956 . S
H883 C870 0.961 . S
H884 C870 0.961 . S
H885 C871 0.958 . S
H886 C871 0.961 . S
H887 C871 0.960 . S
C888 C889 1.391 . S
C888 C890 1.394 . S
C888 H904 0.931 . S
C889 C888 1.391 . S
C889 C893 1.376 . S
C890 C888 1.394 . S
C890 C891 1.369 . S
C890 C894 1.531 . S
C891 C890 1.369 . S
C891 C892 1.410 . S
C891 C899 1.503 . S
C892 C891 1.410 . S
C892 C893 1.392 . S
C892 C895 1.511 . S
C893 C889 1.376 . S
C893 C892 1.392 . S
C893 H905 0.929 . S
C894 C890 1.531 . S
C894 H906 0.960 . S
C894 H907 0.962 . S
C894 H908 0.960 . S
C895 C892 1.511 . S
C895 H909 0.961 . S
C895 H910 0.961 . S
C895 H911 0.961 . S
C896 C897 1.370 . S
C896 C898 1.363 . S
C896 H912 0.931 . S
C897 C896 1.370 . S
C897 C901 1.408 . S
C898 C896 1.363 . S
C898 C899 1.370 . S
C898 C902 1.524 . S
C899 C891 1.503 . S
C899 C898 1.370 . S
C899 C900 1.403 . S
C900 C899 1.403 . S
C900 C901 1.404 . S
C900 C903 1.539 . S
C901 C897 1.408 . S
C901 C900 1.404 . S
C901 H913 0.930 . S
C902 C898 1.524 . S
C902 H914 0.956 . S
C902 H915 0.961 . S
C902 H916 0.961 1_556 S
C903 C900 1.539 . S
C903 H917 0.958 . S
C903 H918 0.961 . S
C903 H919 0.960 . S
H904 C888 0.931 . S
H905 C893 0.929 . S
H906 C894 0.960 . S
H907 C894 0.962 . S
H908 C894 0.960 . S
H909 C895 0.961 . S
H910 C895 0.961 . S
H911 C895 0.961 . S
H912 C896 0.931 . S
H913 C901 0.930 . S
H914 C902 0.956 . S
H915 C902 0.961 . S
H916 C902 0.961 1_554 S
H917 C903 0.958 . S
H918 C903 0.961 . S
H919 C903 0.960 . S
C920 C921 1.391 . S
C920 C922 1.394 . S
C920 H936 0.931 . S
C921 C920 1.391 . S
C921 C925 1.376 . S
C922 C920 1.394 . S
C922 C923 1.369 . S
C922 C926 1.531 . S
C923 C922 1.369 . S
C923 C924 1.410 . S
C923 C931 1.503 . S
C924 C923 1.410 . S
C924 C925 1.392 . S
C924 C927 1.511 . S
C925 C921 1.376 . S
C925 C924 1.392 . S
C925 H937 0.929 . S
C926 C922 1.531 . S
C926 H938 0.960 . S
C926 H939 0.962 . S
C926 H940 0.960 . S
C927 C924 1.511 . S
C927 H941 0.961 . S
C927 H942 0.961 . S
C927 H943 0.961 . S
C928 C929 1.370 . S
C928 C930 1.363 . S
C928 H944 0.931 . S
C929 C928 1.370 . S
C929 C933 1.408 . S
C930 C928 1.363 . S
C930 C931 1.370 . S
C930 C934 1.524 . S
C931 C923 1.503 . S
C931 C930 1.370 . S
C931 C932 1.403 . S
C932 C931 1.403 . S
C932 C933 1.404 . S
C932 C935 1.539 . S
C933 C929 1.408 . S
C933 C932 1.404 . S
C933 H945 0.930 . S
C934 C930 1.524 . S
C934 H946 0.956 . S
C934 H947 0.961 . S
C934 H948 0.961 . S
C935 C932 1.539 . S
C935 H949 0.958 . S
C935 H950 0.961 . S
C935 H951 0.960 . S
H936 C920 0.931 . S
H937 C925 0.929 . S
H938 C926 0.960 . S
H939 C926 0.962 . S
H940 C926 0.960 . S
H941 C927 0.961 . S
H942 C927 0.961 . S
H943 C927 0.961 . S
H944 C928 0.931 . S
H945 C933 0.930 . S
H946 C934 0.956 . S
H947 C934 0.961 . S
H948 C934 0.961 . S
H949 C935 0.958 . S
H950 C935 0.961 . S
H951 C935 0.960 . S
C952 C953 1.391 1_455 S
C952 C954 1.394 . S
C952 H968 0.931 . S
C953 C952 1.391 1_655 S
C953 C957 1.376 . S
C954 C952 1.394 . S
C954 C955 1.369 1_455 S
C954 C958 1.531 . S
C955 C954 1.369 1_655 S
C955 C956 1.410 . S
C955 C963 1.503 . S
C956 C955 1.410 . S
C956 C957 1.392 . S
C956 C959 1.511 . S
C957 C953 1.376 . S
C957 C956 1.392 . S
C957 H969 0.929 . S
C958 C954 1.531 . S
C958 H970 0.960 . S
C958 H971 0.962 . S
C958 H972 0.960 . S
C959 C956 1.511 . S
C959 H973 0.961 . S
C959 H974 0.961 . S
C959 H975 0.961 . S
C960 C961 1.370 1_455 S
C960 C962 1.363 . S
C960 H976 0.931 . S
C961 C960 1.370 1_655 S
C961 C965 1.408 . S
C962 C960 1.363 . S
C962 C963 1.370 1_455 S
C962 C966 1.524 . S
C963 C955 1.503 . S
C963 C962 1.370 1_655 S
C963 C964 1.403 . S
C964 C963 1.403 . S
C964 C965 1.404 . S
C964 C967 1.539 . S
C965 C961 1.408 . S
C965 C964 1.404 . S
C965 H977 0.930 . S
C966 C962 1.524 . S
C966 H978 0.956 . S
C966 H979 0.961 . S
C966 H980 0.961 . S
C967 C964 1.539 . S
C967 H981 0.958 . S
C967 H982 0.961 . S
C967 H983 0.960 . S
H968 C952 0.931 . S
H969 C957 0.929 . S
H970 C958 0.960 . S
H971 C958 0.962 . S
H972 C958 0.960 . S
H973 C959 0.961 . S
H974 C959 0.961 . S
H975 C959 0.961 . S
H976 C960 0.931 . S
H977 C965 0.930 . S
H978 C966 0.956 . S
H979 C966 0.961 . S
H980 C966 0.961 . S
H981 C967 0.958 . S
H982 C967 0.961 . S
H983 C967 0.960 . S
C984 C985 1.391 1_545 S
C984 C986 1.394 . S
C984 H1000 0.931 . S
C985 C984 1.391 1_565 S
C985 C989 1.376 . S
C986 C984 1.394 . S
C986 C987 1.369 1_545 S
C986 C990 1.531 . S
C987 C986 1.369 1_565 S
C987 C988 1.410 . S
C987 C995 1.503 . S
C988 C987 1.410 . S
C988 C989 1.392 . S
C988 C991 1.511 . S
C989 C985 1.376 . S
C989 C988 1.392 . S
C989 H1001 0.929 . S
C990 C986 1.531 . S
C990 H1002 0.960 . S
C990 H1003 0.962 . S
C990 H1004 0.960 . S
C991 C988 1.511 . S
C991 H1005 0.961 . S
C991 H1006 0.961 . S
C991 H1007 0.961 . S
C992 C993 1.370 1_545 S
C992 C994 1.363 . S
C992 H1008 0.931 . S
C993 C992 1.370 1_565 S
C993 C997 1.408 . S
C994 C992 1.363 . S
C994 C995 1.370 1_545 S
C994 C998 1.524 . S
C995 C987 1.503 . S
C995 C994 1.370 1_565 S
C995 C996 1.403 . S
C996 C995 1.403 . S
C996 C997 1.404 . S
C996 C999 1.539 . S
C997 C993 1.408 . S
C997 C996 1.404 . S
C997 H1009 0.930 . S
C998 C994 1.524 . S
C998 H1010 0.956 . S
C998 H1011 0.961 . S
C998 H1012 0.961 . S
C999 C996 1.539 . S
C999 H1013 0.958 . S
C999 H1014 0.961 . S
C999 H1015 0.960 . S
H1000 C984 0.931 . S
H1001 C989 0.929 . S
H1002 C990 0.960 . S
H1003 C990 0.962 . S
H1004 C990 0.960 . S
H1005 C991 0.961 . S
H1006 C991 0.961 . S
H1007 C991 0.961 . S
H1008 C992 0.931 . S
H1009 C997 0.930 . S
H1010 C998 0.956 . S
H1011 C998 0.961 . S
H1012 C998 0.961 . S
H1013 C999 0.958 . S
H1014 C999 0.961 . S
H1015 C999 0.960 . S
C1016 C1017 1.391 . S
C1016 C1018 1.394 . S
C1016 H1032 0.931 . S
C1017 C1016 1.391 . S
C1017 C1021 1.376 . S
C1018 C1016 1.394 . S
C1018 C1019 1.369 . S
C1018 C1022 1.531 . S
C1019 C1018 1.369 . S
C1019 C1020 1.410 . S
C1019 C1027 1.503 . S
C1020 C1019 1.410 . S
C1020 C1021 1.392 . S
C1020 C1023 1.511 . S
C1021 C1017 1.376 . S
C1021 C1020 1.392 . S
C1021 H1033 0.929 . S
C1022 C1018 1.531 . S
C1022 H1034 0.960 . S
C1022 H1035 0.962 . S
C1022 H1036 0.960 . S
C1023 C1020 1.511 . S
C1023 H1037 0.961 . S
C1023 H1038 0.961 . S
C1023 H1039 0.961 . S
C1024 C1025 1.370 . S
C1024 C1026 1.363 . S
C1024 H1040 0.931 . S
C1025 C1024 1.370 . S
C1025 C1029 1.408 . S
C1026 C1024 1.363 . S
C1026 C1027 1.370 . S
C1026 C1030 1.524 . S
C1027 C1019 1.503 . S
C1027 C1026 1.370 . S
C1027 C1028 1.403 . S
C1028 C1027 1.403 . S
C1028 C1029 1.404 . S
C1028 C1031 1.539 . S
C1029 C1025 1.408 . S
C1029 C1028 1.404 . S
C1029 H1041 0.930 . S
C1030 C1026 1.524 . S
C1030 H1042 0.956 . S
C1030 H1043 0.961 . S
C1030 H1044 0.961 . S
C1031 C1028 1.539 . S
C1031 H1045 0.958 . S
C1031 H1046 0.961 . S
C1031 H1047 0.960 . S
H1032 C1016 0.931 . S
H1033 C1021 0.929 . S
H1034 C1022 0.960 . S
H1035 C1022 0.962 . S
H1036 C1022 0.960 . S
H1037 C1023 0.961 . S
H1038 C1023 0.961 . S
H1039 C1023 0.961 . S
H1040 C1024 0.931 . S
H1041 C1029 0.930 . S
H1042 C1030 0.956 . S
H1043 C1030 0.961 . S
H1044 C1030 0.961 . S
H1045 C1031 0.958 . S
H1046 C1031 0.961 . S
H1047 C1031 0.960 . S
C1048 C1049 1.391 . S
C1048 C1050 1.394 . S
C1048 H1064 0.931 . S
C1049 C1048 1.391 . S
C1049 C1053 1.376 . S
C1050 C1048 1.394 . S
C1050 C1051 1.369 . S
C1050 C1054 1.531 . S
C1051 C1050 1.369 . S
C1051 C1052 1.410 . S
C1051 C1059 1.503 . S
C1052 C1051 1.410 . S
C1052 C1053 1.392 . S
C1052 C1055 1.511 . S
C1053 C1049 1.376 . S
C1053 C1052 1.392 . S
C1053 H1065 0.929 . S
C1054 C1050 1.531 . S
C1054 H1066 0.960 . S
C1054 H1067 0.962 . S
C1054 H1068 0.960 . S
C1055 C1052 1.511 . S
C1055 H1069 0.961 . S
C1055 H1070 0.961 . S
C1055 H1071 0.961 . S
C1056 C1057 1.370 . S
C1056 C1058 1.363 . S
C1056 H1072 0.931 . S
C1057 C1056 1.370 . S
C1057 C1061 1.408 . S
C1058 C1056 1.363 . S
C1058 C1059 1.370 . S
C1058 C1062 1.524 . S
C1059 C1051 1.503 . S
C1059 C1058 1.370 . S
C1059 C1060 1.403 . S
C1060 C1059 1.403 . S
C1060 C1061 1.404 . S
C1060 C1063 1.539 . S
C1061 C1057 1.408 . S
C1061 C1060 1.404 . S
C1061 H1073 0.930 . S
C1062 C1058 1.524 . S
C1062 H1074 0.956 . S
C1062 H1075 0.961 . S
C1062 H1076 0.961 . S
C1063 C1060 1.539 . S
C1063 H1077 0.958 . S
C1063 H1078 0.961 . S
C1063 H1079 0.960 . S
H1064 C1048 0.931 . S
H1065 C1053 0.929 . S
H1066 C1054 0.960 . S
H1067 C1054 0.962 . S
H1068 C1054 0.960 . S
H1069 C1055 0.961 . S
H1070 C1055 0.961 . S
H1071 C1055 0.961 . S
H1072 C1056 0.931 . S
H1073 C1061 0.930 . S
H1074 C1062 0.956 . S
H1075 C1062 0.961 . S
H1076 C1062 0.961 . S
H1077 C1063 0.958 . S
H1078 C1063 0.961 . S
H1079 C1063 0.960 . S
C313 C125 1.890 . S
C321 C162 1.946 . S
C353 C202 1.950 . S
C345 C144 1.912 . S
C385 C242 1.945 . S
C377 C87 1.882 . S
C417 C282 1.946 . S
C409 C106 1.896 . S
C449 C171 1.946 . S
C441 C49 1.926 1_545 S
C473 C68 1.923 . S
C481 C211 1.945 . S
C505 C11 1.890 . S
C513 C251 1.952 . S
C537 C30 1.904 . S
C545 C291 1.958 . S
C577 C168 0.567 . S
C569 C97 0.638 . S
C609 C208 0.529 . S
C601 C116 0.565 . S
C641 C248 0.548 . S
C633 C135 0.669 . S
C665 C78 0.671 . S
C673 C288 0.540 . S
C697 C21 0.671 . S
C705 C159 0.536 . S
C737 C199 0.578 . S
C729 C40 0.497 1_545 S
C769 C239 0.566 . S
C761 C59 0.491 . S
C793 C2 0.559 . S
C801 C279 0.536 . S
C825 C101 2.062 . S
C833 C163 2.273 . S
C857 C120 2.051 . S
C865 C203 2.265 . S
C897 C243 2.270 . S
C889 C139 2.074 . S
C929 C283 2.273 . S
C921 C82 2.064 . S
C953 C25 2.010 . S
C961 C154 2.276 . S
C993 C194 2.275 . S
C985 C44 2.018 . S
C1025 C234 2.273 . S
C1017 C63 1.998 . S
C1049 C6 2.070 . S
C1057 C274 2.265 . S
