# Generated by pormake.
# Topology nom, (4,4)-cn, num edge types: 1
# Building blocks:
#     Node 0, Type 0, BuildingBlock: MIFKUJ_clean_linker_1, # of connection points: 4
#     Node 1, Type 0, BuildingBlock: MIFKUJ_clean_linker_1, # of connection points: 4
#     Node 2, Type 0, BuildingBlock: MIFKUJ_clean_linker_1, # of connection points: 4
#     Node 3, Type 0, BuildingBlock: MIFKUJ_clean_linker_1, # of connection points: 4
#     Node 4, Type 0, BuildingBlock: MIFKUJ_clean_linker_1, # of connection points: 4
#     Node 5, Type 0, BuildingBlock: MIFKUJ_clean_linker_1, # of connection points: 4
#     Node 6, Type 1, BuildingBlock: CEKHIL_clean_sbu_0, # of connection points: 4
#     Node 7, Type 1, BuildingBlock: CEKHIL_clean_sbu_0, # of connection points: 4
#     Node 8, Type 1, BuildingBlock: CEKHIL_clean_sbu_0, # of connection points: 4
#     Node 9, Type 1, BuildingBlock: CEKHIL_clean_sbu_0, # of connection points: 4
#     Node 10, Type 1, BuildingBlock: CEKHIL_clean_sbu_0, # of connection points: 4
#     Node 11, Type 1, BuildingBlock: CEKHIL_clean_sbu_0, # of connection points: 4
#     Edge 12, Type (0, 1), BuildingBlock: CIFDUS_clean_linker_0, # of connection points: 2
#     Edge 13, Type (0, 1), BuildingBlock: CIFDUS_clean_linker_0, # of connection points: 2
#     Edge 14, Type (0, 1), BuildingBlock: CIFDUS_clean_linker_0, # of connection points: 2
#     Edge 15, Type (0, 1), BuildingBlock: CIFDUS_clean_linker_0, # of connection points: 2
#     Edge 16, Type (0, 1), BuildingBlock: CIFDUS_clean_linker_0, # of connection points: 2
#     Edge 17, Type (0, 1), BuildingBlock: CIFDUS_clean_linker_0, # of connection points: 2
#     Edge 18, Type (0, 1), BuildingBlock: CIFDUS_clean_linker_0, # of connection points: 2
#     Edge 19, Type (0, 1), BuildingBlock: CIFDUS_clean_linker_0, # of connection points: 2
#     Edge 20, Type (0, 1), BuildingBlock: CIFDUS_clean_linker_0, # of connection points: 2
#     Edge 21, Type (0, 1), BuildingBlock: CIFDUS_clean_linker_0, # of connection points: 2
#     Edge 22, Type (0, 1), BuildingBlock: CIFDUS_clean_linker_0, # of connection points: 2
#     Edge 23, Type (0, 1), BuildingBlock: CIFDUS_clean_linker_0, # of connection points: 2
#     Edge 24, Type (0, 1), BuildingBlock: CIFDUS_clean_linker_0, # of connection points: 2
#     Edge 25, Type (0, 1), BuildingBlock: CIFDUS_clean_linker_0, # of connection points: 2
#     Edge 26, Type (0, 1), BuildingBlock: CIFDUS_clean_linker_0, # of connection points: 2
#     Edge 27, Type (0, 1), BuildingBlock: CIFDUS_clean_linker_0, # of connection points: 2
#     Edge 28, Type (0, 1), BuildingBlock: CIFDUS_clean_linker_0, # of connection points: 2
#     Edge 29, Type (0, 1), BuildingBlock: CIFDUS_clean_linker_0, # of connection points: 2
#     Edge 30, Type (0, 1), BuildingBlock: CIFDUS_clean_linker_0, # of connection points: 2
#     Edge 31, Type (0, 1), BuildingBlock: CIFDUS_clean_linker_0, # of connection points: 2
#     Edge 32, Type (0, 1), BuildingBlock: CIFDUS_clean_linker_0, # of connection points: 2
#     Edge 33, Type (0, 1), BuildingBlock: CIFDUS_clean_linker_0, # of connection points: 2
#     Edge 34, Type (0, 1), BuildingBlock: CIFDUS_clean_linker_0, # of connection points: 2
#     Edge 35, Type (0, 1), BuildingBlock: CIFDUS_clean_linker_0, # of connection points: 2
# Relax obj value: 0.002
# Max RMSD: 0.100
# Mean RMSD: 0.066
data_MOF--net-nom--node1-CEKHIL_clean_sbu_0--node2-MIFKUJ_clean_linker_1--edge1-CIFDUS_clean_linker_0
_symmetry_space_group_name_H-M    P1
_symmetry_Int_Tables_number       1
_symmetry_cell_setting            triclinic
loop_
_symmetry_equiv_pos_as_xyz
'x, y, z'
_cell_length_a     48.058142
_cell_length_b     47.527707
_cell_length_c     50.404702
_cell_angle_alpha  89.998941
_cell_angle_beta   90.078574
_cell_angle_gamma 121.08846
loop_
_atom_site_label
_atom_site_type_symbol
_atom_site_fract_x
_atom_site_fract_y
_atom_site_fract_z
_atom_type_partial_charge
H0 H 0.98549 0.47488 0.29332 0.0
H1 H 0.95161 0.44929 0.2545 0.0
H2 H 0.92906 0.52637 0.2515 0.0
H3 H 0.96219 0.55109 0.29155 0.0
H4 H 0.04031 0.54316 0.2945 0.0
H5 H 0.93152 0.47313 0.32958 0.0
H6 H 0.87549 0.45719 0.33644 0.0
H7 H 0.90711 0.54569 0.38238 0.0
H8 H 0.96324 0.56349 0.37219 0.0
H9 H 0.05619 0.60056 0.39965 0.0
H10 H 0.09486 0.61632 0.43631 0.0
H11 H 0.11571 0.54176 0.41225 0.0
H12 H 0.0778 0.52697 0.37526 0.0
H13 H 1.00045 0.5424 0.38538 0.0
H14 H 0.09975 0.61893 0.34604 0.0
H15 H 0.15757 0.64766 0.33491 0.0
H16 H 0.14464 0.55862 0.30013 0.0
H17 H 0.0866 0.5299 0.31131 0.0
C18 C 0.97638 0.51486 0.29524 0.0
C19 C 0.97314 0.4862 0.28436 0.0
C20 C 0.95392 0.47176 0.26198 0.0
C21 C 0.93798 0.48604 0.24944 0.0
C22 C 0.94083 0.51459 0.26066 0.0
C23 C 0.95986 0.52886 0.28345 0.0
C24 C 0.99818 0.53016 0.31837 0.0
C25 C 0.03148 0.54279 0.31438 0.0
C26 C 0.98675 0.53123 0.3441 0.0
C27 C 0.952 0.52015 0.34953 0.0
C28 C 0.92654 0.48976 0.34031 0.0
C29 C 0.89414 0.48018 0.34496 0.0
C30 C 0.88613 0.49995 0.36015 0.0
C31 C 0.91181 0.52996 0.37005 0.0
C32 C 0.94419 0.54003 0.36458 0.0
C33 C 0.06423 0.56274 0.38464 0.0
C34 C 0.06898 0.58753 0.40241 0.0
C35 C 0.09107 0.59641 0.42343 0.0
C36 C 0.10856 0.58035 0.42733 0.0
C37 C 0.10323 0.55511 0.40967 0.0
C38 C 0.08136 0.54646 0.38858 0.0
C39 C 0.04217 0.55425 0.36144 0.0
C40 C 0.00907 0.543 0.3654 0.0
C41 C 0.05366 0.5556 0.33543 0.0
C42 C 0.08892 0.57226 0.32958 0.0
C43 C 0.10941 0.6055 0.33624 0.0
C44 C 0.14236 0.62193 0.32975 0.0
C45 C 0.15553 0.60536 0.31664 0.0
C46 C 0.13514 0.57189 0.31042 0.0
C47 C 0.10202 0.55555 0.31664 0.0
H48 H 0.41256 0.93524 0.49396 0.0
H49 H 0.38101 0.87719 0.50638 0.0
H50 H 0.46861 0.88248 0.53424 0.0
H51 H 0.50019 0.94079 0.52176 0.0
H52 H 0.49504 0.99343 0.53882 0.0
H53 H 0.43303 0.98211 0.43533 0.0
H54 H 0.41042 0.94351 0.39845 0.0
H55 H 0.46493 0.89886 0.4235 0.0
H56 H 0.489 0.93892 0.4594 0.0
H57 H 0.5681 0.09689 0.48854 0.0
H58 H 0.58765 0.15347 0.47445 0.0
H59 H 0.48886 0.12682 0.45698 0.0
H60 H 0.4698 0.07039 0.47035 0.0
H61 H 0.48909 0.02875 0.44746 0.0
H62 H 0.55762 0.04029 0.54346 0.0
H63 H 0.58746 0.07945 0.57883 0.0
H64 H 0.52923 0.12375 0.56719 0.0
H65 H 0.49827 0.08323 0.53263 0.0
C66 C 0.45873 0.94224 0.50681 0.0
C67 C 0.42499 0.92389 0.50268 0.0
C68 C 0.40698 0.89081 0.50989 0.0
C69 C 0.42238 0.87537 0.52124 0.0
C70 C 0.45619 0.89374 0.52532 0.0
C71 C 0.47419 0.92702 0.51838 0.0
C72 C 0.4775 0.97736 0.49905 0.0
C73 C 0.49417 1.00123 0.51876 0.0
C74 C 0.47665 0.98735 0.47276 0.0
C75 C 0.46247 0.9633 0.45047 0.0
C76 C 0.44032 0.96417 0.43281 0.0
C77 C 0.42709 0.94176 0.41184 0.0
C78 C 0.43553 0.91771 0.40804 0.0
C79 C 0.45799 0.9171 0.42561 0.0
C80 C 0.47145 0.93976 0.44645 0.0
C81 C 0.51752 0.0795 0.48044 0.0
C82 C 0.55072 0.1034 0.48182 0.0
C83 C 0.5618 0.13574 0.47387 0.0
C84 C 0.53984 0.1447 0.46441 0.0
C85 C 0.50653 0.12071 0.46364 0.0
C86 C 0.49556 0.08846 0.4714 0.0
C87 C 0.50536 0.04476 0.48745 0.0
C88 C 0.49007 0.02092 0.46748 0.0
C89 C 0.50835 0.03495 0.51332 0.0
C90 C 0.526 0.05904 0.53501 0.0
C91 C 0.55112 0.0583 0.5486 0.0
C92 C 0.56841 0.08099 0.56869 0.0
C93 C 0.56112 0.10516 0.57571 0.0
C94 C 0.53548 0.10547 0.56242 0.0
C95 C 0.518 0.08254 0.54239 0.0
H96 H 0.50349 0.52983 0.71368 0.0
H97 H 0.48852 0.55276 0.75049 0.0
H98 H 0.38695 0.4845 0.73428 0.0
H99 H 0.40218 0.46132 0.69737 0.0
H100 H 0.48999 0.46647 0.70501 0.0
H101 H 0.4606 0.54156 0.66838 0.0
H102 H 0.42392 0.56114 0.65919 0.0
H103 H 0.36569 0.47591 0.60968 0.0
H104 H 0.40049 0.45472 0.6216 0.0
H105 H 0.45033 0.41595 0.59789 0.0
H106 H 0.46983 0.39697 0.56137 0.0
H107 H 0.56833 0.4577 0.58985 0.0
H108 H 0.54874 0.4776 0.62583 0.0
H109 H 0.45944 0.47321 0.61223 0.0
H110 H 0.47582 0.39241 0.65397 0.0
H111 H 0.50518 0.36446 0.66515 0.0
H112 H 0.58148 0.45367 0.70118 0.0
H113 H 0.55195 0.48151 0.68998 0.0
C114 C 0.45398 0.49409 0.70262 0.0
C115 C 0.47799 0.51964 0.71812 0.0
C116 C 0.46939 0.53288 0.73902 0.0
C117 C 0.43654 0.52066 0.7451 0.0
C118 C 0.41244 0.49438 0.73007 0.0
C119 C 0.4211 0.48124 0.70894 0.0
C120 C 0.4638 0.48152 0.67971 0.0
C121 C 0.48349 0.4682 0.68471 0.0
C122 C 0.45432 0.48279 0.65324 0.0
C123 C 0.43299 0.49608 0.64639 0.0
C124 C 0.43946 0.52659 0.65612 0.0
C125 C 0.41865 0.53818 0.65029 0.0
C126 C 0.39143 0.52026 0.63359 0.0
C127 C 0.38571 0.49021 0.62314 0.0
C128 C 0.40601 0.47819 0.62964 0.0
C129 C 0.49795 0.44784 0.61488 0.0
C130 C 0.47615 0.42542 0.59616 0.0
C131 C 0.48734 0.41437 0.57541 0.0
C132 C 0.52064 0.42549 0.57284 0.0
C133 C 0.54258 0.4487 0.59116 0.0
C134 C 0.53134 0.45982 0.61192 0.0
C135 C 0.48568 0.45838 0.63761 0.0
C136 C 0.46567 0.47134 0.63258 0.0
C137 C 0.49392 0.45596 0.66413 0.0
C138 C 0.51181 0.43911 0.671 0.0
C139 C 0.4989 0.40596 0.66423 0.0
C140 C 0.51559 0.38997 0.67076 0.0
C141 C 0.54564 0.40689 0.68401 0.0
C142 C 0.55851 0.44009 0.69077 0.0
C143 C 0.54161 0.45596 0.68452 0.0
H144 H 0.04602 0.52731 0.78344 0.0
H145 H 0.08571 0.55187 0.74784 0.0
H146 H 0.12334 0.48926 0.76797 0.0
H147 H 0.08394 0.46547 0.80426 0.0
H148 H 0.99749 0.46273 0.79313 0.0
H149 H 0.09804 0.54616 0.83087 0.0
H150 H 0.15573 0.57282 0.84005 0.0
H151 H 0.13804 0.4907 0.88944 0.0
H152 H 0.08052 0.46267 0.87779 0.0
H153 H 0.98867 0.41577 0.90117 0.0
H154 H 0.95031 0.39544 0.93802 0.0
H155 H 0.90503 0.44708 0.90715 0.0
H156 H 0.94452 0.46858 0.87096 0.0
H157 H 0.03428 0.47444 0.88663 0.0
H158 H 0.94036 0.3868 0.84175 0.0
H159 H 0.88361 0.35368 0.82713 0.0
H160 H 0.88923 0.44051 0.79468 0.0
H161 H 0.94627 0.47349 0.80888 0.0
C162 C 0.06209 0.49467 0.79655 0.0
C163 C 0.06263 0.51867 0.78003 0.0
C164 C 0.08532 0.53259 0.75958 0.0
C165 C 0.10774 0.52247 0.75485 0.0
C166 C 0.10676 0.49796 0.7712 0.0
C167 C 0.08413 0.48418 0.79185 0.0
C168 C 0.03899 0.48152 0.81912 0.0
C169 C 1.00557 0.46559 0.81359 0.0
C170 C 0.04962 0.48454 0.8458 0.0
C171 C 0.0848 0.50192 0.85301 0.0
C172 C 0.10659 0.5335 0.84321 0.0
C173 C 0.13975 0.54908 0.84897 0.0
C174 C 0.15201 0.53412 0.86561 0.0
C175 C 0.12991 0.50286 0.8761 0.0
C176 C 0.09679 0.48691 0.86975 0.0
C177 C 0.96927 0.44334 0.88302 0.0
C178 C 0.97061 0.42288 0.90239 0.0
C179 C 0.94842 0.41102 0.92335 0.0
C180 C 0.92429 0.41932 0.92544 0.0
C181 C 0.92334 0.4403 0.90626 0.0
C182 C 0.94567 0.45228 0.88533 0.0
C183 C 0.99278 0.45557 0.8606 0.0
C184 C 0.02627 0.47146 0.86616 0.0
C185 C 0.98235 0.45212 0.83391 0.0
C186 C 0.94747 0.43259 0.82644 0.0
C187 C 0.9293 0.39874 0.83166 0.0
C188 C 0.89698 0.37985 0.82324 0.0
C189 C 0.88209 0.39458 0.80981 0.0
C190 C 0.90008 0.42862 0.80517 0.0
C191 C 0.93262 0.44741 0.81314 0.0
H192 H 0.62766 0.08546 0.99022 0.0
H193 H 0.65817 0.14386 1.0022 0.0
H194 H 0.57019 0.13559 0.0324 0.0
H195 H 0.53982 0.07712 0.02053 0.0
H196 H 0.54881 0.02585 0.03717 0.0
H197 H 0.6027 0.03574 0.9316 0.0
H198 H 0.62541 0.07466 0.89491 0.0
H199 H 0.57422 0.12184 0.92227 0.0
H200 H 0.55017 0.08165 0.95804 0.0
H201 H 0.48344 0.94168 0.94658 0.0
H202 H 0.4595 0.88447 0.93219 0.0
H203 H 0.51666 0.87018 0.99071 0.0
H204 H 0.5419 0.92776 1.00406 0.0
H205 H 0.54369 0.99033 0.94379 0.0
H206 H 0.4669 0.95365 0.02121 0.0
H207 H 0.43692 0.91397 0.05607 0.0
H208 H 0.52589 0.91999 0.08186 0.0
H209 H 0.55587 0.96206 0.04833 0.0
C210 C 0.5815 0.07706 1.00444 0.0
C211 C 0.61499 0.09625 0.99944 0.0
C212 C 0.63237 0.12951 0.00634 0.0
C213 C 0.61648 0.1442 0.01813 0.0
C214 C 0.58294 0.12492 0.0231 0.0
C215 C 0.56566 0.09155 0.01653 0.0
C216 C 0.563 0.04192 0.99679 0.0
C217 C 0.54777 0.01813 0.01675 0.0
C218 C 0.56103 0.03186 0.97006 0.0
C219 C 0.57504 0.05595 0.94788 0.0
C220 C 0.59621 0.05435 0.92962 0.0
C221 C 0.60946 0.07689 0.90877 0.0
C222 C 0.60193 0.10168 0.90567 0.0
C223 C 0.58041 0.103 0.92385 0.0
C224 C 0.56697 0.08026 0.94459 0.0
C225 C 0.51404 0.93897 0.9768 0.0
C226 C 0.49076 0.92624 0.9564 0.0
C227 C 0.47705 0.8936 0.94824 0.0
C228 C 0.48609 0.87298 0.96055 0.0
C229 C 0.5089 0.88547 0.98126 0.0
C230 C 0.5231 0.9183 0.98904 0.0
C231 C 0.53014 0.97427 0.9842 0.0
C232 C 0.5449 0.99813 0.96419 0.0
C233 C 0.53123 0.98449 0.01073 0.0
C234 C 0.51347 0.96054 0.03216 0.0
C235 C 0.47986 0.94653 0.03459 0.0
C236 C 0.46271 0.92342 0.05442 0.0
C237 C 0.47865 0.91302 0.07186 0.0
C238 C 0.51258 0.92747 0.0693 0.0
C239 C 0.52985 0.9514 0.04995 0.0
H240 H 0.52734 0.48723 0.21112 0.0
H241 H 0.54104 0.46192 0.24673 0.0
H242 H 0.64295 0.53465 0.23634 0.0
H243 H 0.62881 0.55866 0.1995 0.0
H244 H 0.54505 0.55657 0.20637 0.0
H245 H 0.5689 0.4772 0.16825 0.0
H246 H 0.60514 0.45717 0.15905 0.0
H247 H 0.66307 0.5417 0.1089 0.0
H248 H 0.62898 0.56353 0.12109 0.0
H249 H 0.57773 0.60685 0.0989 0.0
H250 H 0.55366 0.62062 0.06218 0.0
H251 H 0.4577 0.5503 0.09154 0.0
H252 H 0.48217 0.53821 0.12888 0.0
H253 H 0.56962 0.54568 0.11266 0.0
H254 H 0.56455 0.63141 0.15482 0.0
H255 H 0.54335 0.66615 0.16887 0.0
H256 H 0.46257 0.58265 0.20704 0.0
H257 H 0.4842 0.54799 0.19327 0.0
C258 C 0.57703 0.52477 0.20268 0.0
C259 C 0.55262 0.49778 0.21662 0.0
C260 C 0.56059 0.48347 0.23716 0.0
C261 C 0.5932 0.49632 0.24481 0.0
C262 C 0.61764 0.52374 0.23092 0.0
C263 C 0.60962 0.53773 0.20998 0.0
C264 C 0.56792 0.5386 0.18022 0.0
C265 C 0.55019 0.55389 0.18587 0.0
C266 C 0.57617 0.5366 0.15353 0.0
C267 C 0.59666 0.52256 0.1462 0.0
C268 C 0.58995 0.49197 0.15593 0.0
C269 C 0.61047 0.48008 0.15003 0.0
C270 C 0.63754 0.49772 0.13322 0.0
C271 C 0.64326 0.52767 0.12254 0.0
C272 C 0.62334 0.54004 0.12918 0.0
C273 C 0.53177 0.57167 0.11669 0.0
C274 C 0.55152 0.59458 0.09742 0.0
C275 C 0.5376 0.60219 0.07627 0.0
C276 C 0.50355 0.5865 0.07359 0.0
C277 C 0.48393 0.56342 0.09302 0.0
C278 C 0.49789 0.55629 0.11438 0.0
C279 C 0.54624 0.5629 0.1389 0.0
C280 C 0.56475 0.54846 0.13321 0.0
C281 C 0.5401 0.5669 0.1656 0.0
C282 C 0.52584 0.58709 0.17288 0.0
C283 C 0.54214 0.62052 0.16605 0.0
C284 C 0.53017 0.64038 0.17423 0.0
C285 C 0.5014 0.62709 0.1891 0.0
C286 C 0.48473 0.59346 0.1955 0.0
C287 C 0.49706 0.57369 0.18771 0.0
Co288 Co 0.64374 0.38498 0.4074 0.0
O289 O 0.67271 0.38198 0.38298 0.0
O290 O 0.68637 0.42507 0.40849 0.0
C291 C 0.6251 0.33457 0.42506 0.0
O292 O 0.62048 0.39565 0.4363 0.0
Co293 Co 0.56951 0.33612 0.40385 0.0
O294 O 0.57009 0.35164 0.44037 0.0
C295 C 0.60036 0.39349 0.3678 0.0
C296 C 0.69515 0.41061 0.39137 0.0
C297 C 0.59318 0.37921 0.44874 0.0
O298 O 0.62828 0.4038 0.37872 0.0
O299 O 0.57457 0.36664 0.3743 0.0
O300 O 0.65208 0.35972 0.43336 0.0
O301 O 0.61156 0.34011 0.40519 0.0
Co302 Co 0.27144 0.64265 0.59193 0.0
O303 O 0.30485 0.64447 0.6142 0.0
O304 O 0.27438 0.60364 0.5867 0.0
C305 C 0.30196 0.69501 0.57724 0.0
O306 O 0.23568 0.63341 0.56486 0.0
Co307 Co 0.24514 0.68931 0.6034 0.0
O308 O 0.22152 0.6716 0.56964 0.0
C309 C 0.22037 0.62812 0.6344 0.0
C310 C 0.29822 0.61679 0.60371 0.0
C311 C 0.21928 0.64679 0.55784 0.0
O312 O 0.23773 0.61982 0.62084 0.0
O313 O 0.22115 0.65524 0.63129 0.0
O314 O 0.30456 0.67171 0.56637 0.0
O315 O 0.28332 0.68651 0.59776 0.0
Co316 Co 0.64685 0.27341 0.74442 0.0
O317 O 0.6466 0.30602 0.72165 0.0
O318 O 0.60607 0.272 0.74775 0.0
C319 C 0.6971 0.30654 0.76151 0.0
O320 O 0.63833 0.23805 0.77174 0.0
Co321 Co 0.6958 0.25015 0.73706 0.0
O322 O 0.68017 0.22958 0.77242 0.0
C323 C 0.64059 0.22683 0.69994 0.0
C324 C 0.61769 0.29601 0.73077 0.0
C325 C 0.65368 0.2251 0.78206 0.0
O326 O 0.62833 0.2398 0.71477 0.0
O327 O 0.66855 0.2305 0.70432 0.0
O328 O 0.6723 0.30728 0.77087 0.0
O329 O 0.69128 0.28817 0.74087 0.0
Co330 Co 0.39307 0.63303 0.90933 0.0
O331 O 0.35808 0.63185 0.88975 0.0
O332 O 0.35346 0.59052 0.91353 0.0
C333 C 0.41079 0.68297 0.92751 0.0
O334 O 0.42315 0.62601 0.93369 0.0
Co335 Co 0.4647 0.68667 0.89812 0.0
O336 O 0.47465 0.66834 0.92951 0.0
C337 C 0.42921 0.63226 0.8601 0.0
C338 C 0.33963 0.60227 0.89869 0.0
C339 C 0.45337 0.64168 0.94052 0.0
O340 O 0.40598 0.61685 0.87698 0.0
O341 O 0.45295 0.66158 0.86396 0.0
O342 O 0.38676 0.65681 0.93819 0.0
O343 O 0.42164 0.67838 0.90556 0.0
Co344 Co 0.75899 0.37778 0.09002 0.0
O345 O 0.7255 0.37442 0.11307 0.0
O346 O 0.75429 0.41567 0.08544 0.0
C347 C 0.73009 0.32542 0.07528 0.0
O348 O 0.79397 0.38871 0.06188 0.0
Co349 Co 0.78988 0.33502 0.0985 0.0
O350 O 0.80475 0.34799 0.06152 0.0
C351 C 0.81099 0.39375 0.13205 0.0
C352 C 0.73107 0.40191 0.10286 0.0
C353 C 0.80696 0.37353 0.05119 0.0
O354 O 0.79288 0.40133 0.11872 0.0
O355 O 0.81196 0.3677 0.12782 0.0
O356 O 0.72575 0.34789 0.06489 0.0
O357 O 0.7496 0.33466 0.09535 0.0
Co358 Co 0.38524 0.74901 0.24229 0.0
O359 O 0.38108 0.71593 0.21788 0.0
O360 O 0.42267 0.74377 0.2451 0.0
C361 C 0.33391 0.71966 0.25796 0.0
O362 O 0.39683 0.78371 0.27115 0.0
Co363 Co 0.34256 0.78022 0.23511 0.0
O364 O 0.35854 0.79753 0.27133 0.0
C365 C 0.39729 0.79841 0.19887 0.0
C366 C 0.40852 0.72103 0.22708 0.0
C367 C 0.3833 0.7985 0.28158 0.0
O368 O 0.40775 0.78415 0.21421 0.0
O369 O 0.37008 0.79674 0.20229 0.0
O370 O 0.35625 0.71469 0.26725 0.0
O371 O 0.34261 0.73974 0.23822 0.0
H372 H 0.18799 0.66351 0.29081 0.0
H373 H 0.20047 0.5872 0.32414 0.0
H374 H 0.25748 0.61672 0.31018 0.0
H375 H 0.30345 0.66383 0.28752 0.0
H376 H 0.28951 0.73836 0.2522 0.0
H377 H 0.23358 0.71023 0.26817 0.0
C378 C 0.20331 0.65353 0.29521 0.0
C379 C 0.19018 0.62335 0.30857 0.0
C380 C 0.2358 0.67036 0.28679 0.0
C381 C 0.21007 0.61035 0.31376 0.0
C382 C 0.24265 0.62726 0.30586 0.0
C383 C 0.2882 0.67399 0.28353 0.0
C384 C 0.3006 0.70317 0.26879 0.0
C385 C 0.25574 0.65723 0.29224 0.0
C386 C 0.28051 0.7159 0.26347 0.0
C387 C 0.24851 0.69983 0.27258 0.0
H388 H 0.58786 0.20305 0.48512 0.0
H389 H 0.51822 0.16249 0.42107 0.0
H390 H 0.53703 0.21752 0.40434 0.0
H391 H 0.57438 0.27711 0.40685 0.0
H392 H 0.64579 0.31788 0.46951 0.0
H393 H 0.62535 0.26291 0.48764 0.0
C394 C 0.57695 0.20621 0.46739 0.0
C395 C 0.55153 0.17854 0.45449 0.0
C396 C 0.58823 0.23802 0.45756 0.0
C397 C 0.53742 0.18326 0.43173 0.0
C398 C 0.54831 0.21476 0.42199 0.0
C399 C 0.58534 0.27399 0.42457 0.0
C400 C 0.61156 0.30151 0.4368 0.0
C401 C 0.57377 0.2423 0.43467 0.0
C402 C 0.62559 0.29706 0.45969 0.0
C403 C 0.61395 0.26563 0.47005 0.0
H404 H 0.4069 0.58437 0.62942 0.0
H405 H 0.3255 0.48481 0.62287 0.0
H406 H 0.29003 0.50545 0.61139 0.0
H407 H 0.28148 0.55213 0.60416 0.0
H408 H 0.36193 0.65089 0.61622 0.0
H409 H 0.39792 0.63012 0.62532 0.0
C410 C 0.38133 0.56694 0.62606 0.0
C411 C 0.36933 0.5329 0.62701 0.0
C412 C 0.36062 0.57891 0.62052 0.0
C413 C 0.33601 0.51113 0.62176 0.0
C414 C 0.31545 0.52291 0.61542 0.0
C415 C 0.30689 0.56899 0.60877 0.0
C416 C 0.31903 0.60299 0.60946 0.0
C417 C 0.32744 0.55679 0.61477 0.0
C418 C 0.35193 0.62459 0.61572 0.0
C419 C 0.37259 0.61275 0.62085 0.0
H420 H 0.83115 0.40359 0.81768 0.0
H421 H 0.85773 0.33993 0.77903 0.0
H422 H 0.8029 0.307 0.76066 0.0
H423 H 0.74769 0.29694 0.75485 0.0
H424 H 0.71995 0.35868 0.79534 0.0
H425 H 0.77477 0.39165 0.81376 0.0
C426 C 0.82482 0.38248 0.80523 0.0
C427 C 0.8484 0.37422 0.7996 0.0
C428 C 0.79307 0.36336 0.79508 0.0
C429 C 0.83989 0.34663 0.78372 0.0
C430 C 0.80861 0.32788 0.77315 0.0
C431 C 0.75363 0.31758 0.76774 0.0
C432 C 0.72986 0.3255 0.77357 0.0
C433 C 0.78504 0.33609 0.77859 0.0
C434 C 0.73782 0.35208 0.79055 0.0
C435 C 0.76919 0.37099 0.80104 0.0
H436 H 0.45585 0.81598 0.98879 0.0
H437 H 0.48813 0.85461 0.91009 0.0
H438 H 0.46883 0.79929 0.89323 0.0
H439 H 0.44278 0.74014 0.90077 0.0
H440 H 0.40682 0.70024 0.97856 0.0
H441 H 0.42763 0.75582 0.99602 0.0
C442 C 0.45859 0.81212 0.96798 0.0
C443 C 0.47335 0.83917 0.95065 0.0
C444 C 0.44688 0.78013 0.95834 0.0
C445 C 0.4766 0.83404 0.92369 0.0
C446 C 0.46571 0.80249 0.91409 0.0
C447 C 0.43964 0.74362 0.92159 0.0
C448 C 0.42357 0.71626 0.93844 0.0
C449 C 0.45086 0.7754 0.93123 0.0
C450 C 0.41919 0.72102 0.96525 0.0
C451 C 0.43107 0.75275 0.9752 0.0
H452 H 0.6223 0.43352 0.13012 0.0
H453 H 0.70324 0.53315 0.12203 0.0
H454 H 0.73863 0.51256 0.11051 0.0
H455 H 0.74723 0.46609 0.10335 0.0
H456 H 0.6678 0.36732 0.11716 0.0
H457 H 0.63167 0.38788 0.12666 0.0
C458 C 0.64776 0.45099 0.12643 0.0
C459 C 0.6596 0.48502 0.12683 0.0
C460 C 0.66852 0.43909 0.12095 0.0
C461 C 0.69279 0.50682 0.12124 0.0
C462 C 0.71334 0.49509 0.1149 0.0
C463 C 0.72202 0.44917 0.10849 0.0
C464 C 0.71015 0.41526 0.10946 0.0
C465 C 0.7015 0.46126 0.11468 0.0
C466 C 0.67754 0.39357 0.11641 0.0
C467 C 0.65682 0.40529 0.12175 0.0
H468 H 0.36662 0.84549 0.54976 0.0
H469 H 0.43501 0.82677 0.5103 0.0
H470 H 0.40289 0.76879 0.52303 0.0
H471 H 0.35564 0.72358 0.54597 0.0
H472 H 0.28889 0.74328 0.58721 0.0
H473 H 0.31979 0.80058 0.57293 0.0
C474 C 0.37433 0.82862 0.54382 0.0
C475 C 0.40304 0.84029 0.52907 0.0
C476 C 0.35598 0.79551 0.55146 0.0
C477 C 0.41308 0.81835 0.52182 0.0
C478 C 0.39467 0.78521 0.52899 0.0
C479 C 0.34777 0.7404 0.55163 0.0
C480 C 0.31997 0.72922 0.56751 0.0
C481 C 0.3661 0.77352 0.54386 0.0
C482 C 0.31023 0.75132 0.57501 0.0
C483 C 0.32789 0.78408 0.56687 0.0
H484 H 0.52175 0.3469 0.70705 0.0
H485 H 0.60987 0.42916 0.67596 0.0
H486 H 0.6397 0.40175 0.68689 0.0
H487 H 0.64087 0.35459 0.70566 0.0
H488 H 0.55323 0.27321 0.73837 0.0
H489 H 0.52305 0.29989 0.72625 0.0
C490 C 0.54744 0.35869 0.70253 0.0
C491 C 0.56357 0.39 0.69068 0.0
C492 C 0.56451 0.34292 0.70913 0.0
C493 C 0.59697 0.4052 0.68527 0.0
C494 C 0.614 0.38947 0.69142 0.0
C495 C 0.61513 0.34261 0.71001 0.0
C496 C 0.5993 0.31188 0.7228 0.0
C497 C 0.59805 0.35836 0.7034 0.0
C498 C 0.56601 0.29686 0.72855 0.0
C499 C 0.54872 0.31211 0.72162 0.0
H500 H 0.18988 0.50706 0.87522 0.0
H501 H 0.19476 0.60042 0.87132 0.0
H502 H 0.25279 0.62902 0.87964 0.0
H503 H 0.30238 0.62812 0.88836 0.0
H504 H 0.29761 0.53553 0.89718 0.0
H505 H 0.23919 0.50608 0.88726 0.0
C506 C 0.20338 0.53363 0.87658 0.0
C507 C 0.18754 0.55133 0.87211 0.0
C508 C 0.23688 0.55015 0.88235 0.0
C509 C 0.20601 0.58588 0.87374 0.0
C510 C 0.23934 0.60241 0.87881 0.0
C511 C 0.28857 0.60147 0.88803 0.0
C512 C 0.30429 0.58398 0.89319 0.0
C513 C 0.25503 0.58484 0.88301 0.0
C514 C 0.28601 0.54949 0.8932 0.0
C515 C 0.25265 0.5327 0.8875 0.0
H516 H 0.67282 0.17638 0.04593 0.0
H517 H 0.60112 0.19078 0.00712 0.0
H518 H 0.63088 0.24873 0.02018 0.0
H519 H 0.67664 0.29496 0.04369 0.0
H520 H 0.74664 0.27949 0.08443 0.0
H521 H 0.71848 0.22248 0.06935 0.0
C522 C 0.66392 0.19233 0.04016 0.0
C523 C 0.63491 0.17944 0.02557 0.0
C524 C 0.68086 0.22541 0.04809 0.0
C525 C 0.62331 0.20017 0.01853 0.0
C526 C 0.64036 0.23329 0.02591 0.0
C527 C 0.68582 0.27914 0.04907 0.0
C528 C 0.7137 0.29141 0.06508 0.0
C529 C 0.66906 0.24613 0.04083 0.0
C530 C 0.72518 0.27059 0.07217 0.0
C531 C 0.70909 0.23798 0.06356 0.0
H532 H 0.44062 0.6165 0.18289 0.0
H533 H 0.53479 0.68561 0.21529 0.0
H534 H 0.51464 0.7209 0.23028 0.0
H535 H 0.46987 0.73201 0.23425 0.0
H536 H 0.37656 0.66368 0.19971 0.0
H537 H 0.39664 0.62836 0.18557 0.0
C538 C 0.45663 0.63923 0.19334 0.0
C539 C 0.48905 0.6484 0.1981 0.0
C540 C 0.44503 0.65962 0.20149 0.0
C541 C 0.50973 0.67814 0.21132 0.0
C542 C 0.4982 0.69826 0.21994 0.0
C543 C 0.454 0.70941 0.22361 0.0
C544 C 0.42175 0.70053 0.21811 0.0
C545 C 0.46586 0.68928 0.21513 0.0
C546 C 0.40153 0.67124 0.20414 0.0
C547 C 0.41295 0.6509 0.19608 0.0
H548 H 0.83433 0.43694 0.36501 0.0
H549 H 0.85863 0.53804 0.36879 0.0
H550 H 0.80253 0.51987 0.37996 0.0
H551 H 0.74569 0.47479 0.38839 0.0
H552 H 0.72162 0.37446 0.37863 0.0
H553 H 0.77812 0.39297 0.36912 0.0
C554 C 0.82758 0.45528 0.36756 0.0
C555 C 0.85134 0.48898 0.36607 0.0
C556 C 0.79494 0.44473 0.37281 0.0
C557 C 0.84149 0.51192 0.37037 0.0
C558 C 0.80915 0.50155 0.37652 0.0
C559 C 0.75292 0.45711 0.38405 0.0
C560 C 0.7295 0.42332 0.38426 0.0
C561 C 0.7856 0.46797 0.37785 0.0
C562 C 0.7391 0.40064 0.37841 0.0
C563 C 0.77148 0.41116 0.37309 0.0
H564 H 0.103 0.59825 0.47747 0.0
H565 H 0.16756 0.58382 0.42764 0.0
H566 H 0.20643 0.60019 0.46414 0.0
H567 H 0.22349 0.62146 0.51002 0.0
H568 H 0.15986 0.63939 0.55787 0.0
H569 H 0.1196 0.61917 0.52242 0.0
C570 C 0.1257 0.59899 0.4744 0.0
C571 C 0.13221 0.58988 0.44969 0.0
C572 C 0.14828 0.60915 0.49525 0.0
C573 C 0.16155 0.59029 0.44648 0.0
C574 C 0.18397 0.59987 0.46733 0.0
C575 C 0.20065 0.62057 0.51266 0.0
C576 C 0.19468 0.63197 0.53648 0.0
C577 C 0.17775 0.60962 0.4918 0.0
C578 C 0.16512 0.631 0.53962 0.0
C579 C 0.14206 0.61942 0.51937 0.0
H580 H 0.53971 0.13041 0.61422 0.0
H581 H 0.62662 0.1362 0.58411 0.0
H582 H 0.65851 0.1743 0.61942 0.0
H583 H 0.66184 0.20497 0.6594 0.0
H584 H 0.57578 0.20115 0.6892 0.0
H585 H 0.54372 0.1639 0.65316 0.0
C586 C 0.56569 0.14031 0.61515 0.0
C587 C 0.58054 0.12995 0.59661 0.0
C588 C 0.58413 0.16265 0.63547 0.0
C589 C 0.61427 0.14299 0.59838 0.0
C590 C 0.63265 0.16503 0.6185 0.0
C591 C 0.63608 0.1961 0.65806 0.0
C592 C 0.62129 0.20575 0.6772 0.0
C593 C 0.6178 0.17476 0.6373 0.0
C594 C 0.5879 0.19419 0.67482 0.0
C595 C 0.56949 0.17278 0.65423 0.0
H596 H 0.46153 0.58547 0.75378 0.0
H597 H 0.392 0.49009 0.78504 0.0
H598 H 0.38141 0.51597 0.82267 0.0
H599 H 0.39511 0.56615 0.84831 0.0
H600 H 0.46557 0.66103 0.81614 0.0
H601 H 0.4725 0.6349 0.77745 0.0
C602 C 0.44406 0.57033 0.76884 0.0
C603 C 0.42791 0.53595 0.76682 0.0
C604 C 0.43833 0.58532 0.79039 0.0
C605 C 0.40476 0.51665 0.78616 0.0
C606 C 0.39882 0.53145 0.80773 0.0
C607 C 0.41167 0.58109 0.83269 0.0
C608 C 0.43005 0.61555 0.83544 0.0
C609 C 0.41588 0.56583 0.8103 0.0
C610 C 0.45137 0.63447 0.81488 0.0
C611 C 0.4554 0.61957 0.79263 0.0
H612 H 0.89993 0.45046 0.95476 0.0
H613 H 0.89373 0.35706 0.94535 0.0
H614 H 0.85639 0.33479 0.98266 0.0
H615 H 0.82691 0.34198 0.01869 0.0
H616 H 0.83149 0.43451 0.02839 0.0
H617 H 0.86743 0.45667 0.98981 0.0
C618 C 0.89011 0.42512 0.96066 0.0
C619 C 0.90009 0.40566 0.9474 0.0
C620 C 0.86831 0.41226 0.98215 0.0
C621 C 0.88718 0.3729 0.9555 0.0
C622 C 0.8656 0.36002 0.97675 0.0
C623 C 0.83566 0.36702 0.01242 0.0
C624 C 0.82671 0.38663 0.02666 0.0
C625 C 0.85632 0.37957 0.99039 0.0
C626 C 0.83798 0.41884 0.01788 0.0
C627 C 0.85865 0.43157 0.99586 0.0
H628 H 0.49922 0.9057 0.12115 0.0
H629 H 0.41541 0.86132 0.06921 0.0
H630 H 0.38331 0.82244 0.10373 0.0
H631 H 0.37808 0.8019 0.14925 0.0
H632 H 0.46277 0.84143 0.19942 0.0
H633 H 0.49573 0.88052 0.16457 0.0
C634 C 0.47417 0.8872 0.11696 0.0
C635 C 0.45986 0.88739 0.09251 0.0
C636 C 0.45593 0.86379 0.13661 0.0
C637 C 0.42708 0.86303 0.08801 0.0
C638 C 0.40863 0.84033 0.10769 0.0
C639 C 0.40384 0.8189 0.1524 0.0
C640 C 0.41799 0.81909 0.17685 0.0
C641 C 0.42266 0.84078 0.13216 0.0
C642 C 0.45142 0.84084 0.18067 0.0
C643 C 0.47019 0.86329 0.16083 0.0
H644 H 0.55836 0.46839 0.28991 0.0
H645 H 0.64656 0.48938 0.25011 0.0
H646 H 0.65828 0.46212 0.28571 0.0
H647 H 0.64168 0.42913 0.32722 0.0
H648 H 0.55045 0.40386 0.36357 0.0
H649 H 0.54147 0.4353 0.33005 0.0
C650 C 0.57997 0.46671 0.28867 0.0
C651 C 0.60132 0.48088 0.26705 0.0
C652 C 0.58597 0.44996 0.30866 0.0
C653 C 0.62974 0.47916 0.26653 0.0
C654 C 0.63637 0.46327 0.28683 0.0
C655 C 0.62001 0.43079 0.32781 0.0
C656 C 0.59673 0.41417 0.34779 0.0
C657 C 0.61446 0.44821 0.30788 0.0
C658 C 0.56859 0.41623 0.34826 0.0
C659 C 0.56346 0.43425 0.32913 0.0
H660 H 0.46435 0.8926 0.37667 0.0
H661 H 0.37302 0.88752 0.38969 0.0
H662 H 0.34908 0.85009 0.3523 0.0
H663 H 0.35409 0.81984 0.31529 0.0
H664 H 0.44429 0.82262 0.30271 0.0
H665 H 0.46828 0.85918 0.341 0.0
C666 C 0.43908 0.88299 0.3716 0.0
C667 C 0.42075 0.89341 0.38591 0.0
C668 C 0.42517 0.86094 0.35018 0.0
C669 C 0.38808 0.88075 0.37875 0.0
C670 C 0.37421 0.85906 0.35745 0.0
C671 C 0.37901 0.82834 0.32089 0.0
C672 C 0.39742 0.81867 0.30592 0.0
C673 C 0.3926 0.84927 0.34287 0.0
C674 C 0.42952 0.82962 0.31382 0.0
C675 C 0.4433 0.85066 0.33566 0.0
H676 H 0.57498 0.45845 0.54147 0.0
H677 H 0.49208 0.36187 0.55665 0.0
H678 H 0.50821 0.33925 0.52062 0.0
H679 H 0.54422 0.34682 0.48395 0.0
H680 H 0.62766 0.44267 0.46794 0.0
H681 H 0.61336 0.46544 0.50558 0.0
C682 C 0.56065 0.4324 0.53706 0.0
C683 C 0.53202 0.41202 0.55156 0.0
C684 C 0.57018 0.41938 0.51623 0.0
C685 C 0.51374 0.37832 0.54547 0.0
C686 C 0.52308 0.36527 0.52497 0.0
C687 C 0.55946 0.37273 0.48863 0.0
C688 C 0.58684 0.39303 0.47288 0.0
C689 C 0.55096 0.38562 0.51003 0.0
C690 C 0.60644 0.42643 0.47965 0.0
C691 C 0.59817 0.43949 0.50111 0.0
H692 H 0.09903 0.54088 0.70593 0.0
H693 H 0.17178 0.53916 0.75502 0.0
H694 H 0.21268 0.5685 0.72071 0.0
H695 H 0.22887 0.59908 0.67801 0.0
H696 H 0.15641 0.60467 0.63173 0.0
H697 H 0.11447 0.56978 0.66366 0.0
C698 C 0.12386 0.54707 0.70929 0.0
C699 C 0.13224 0.53805 0.73322 0.0
C700 C 0.14743 0.56485 0.68991 0.0
C701 C 0.16444 0.54552 0.73676 0.0
C702 C 0.18797 0.56256 0.7172 0.0
C703 C 0.20379 0.59216 0.67489 0.0
C704 C 0.19554 0.60423 0.65267 0.0
C705 C 0.1799 0.5729 0.69387 0.0
C706 C 0.16314 0.59559 0.6488 0.0
C707 C 0.13922 0.57572 0.66704 0.0
H708 H 0.57318 0.12764 0.87539 0.0
H709 H 0.66393 0.13085 0.88633 0.0
H710 H 0.68766 0.16904 0.84936 0.0
H711 H 0.68273 0.20109 0.81362 0.0
H712 H 0.5928 0.19967 0.80336 0.0
H713 H 0.56904 0.16183 0.84072 0.0
C714 C 0.59828 0.13698 0.86995 0.0
C715 C 0.61655 0.126 0.88361 0.0
C716 C 0.61203 0.15937 0.84879 0.0
C717 C 0.64896 0.13821 0.87593 0.0
C718 C 0.66269 0.16029 0.85486 0.0
C719 C 0.65792 0.19258 0.81951 0.0
C720 C 0.63959 0.20317 0.80549 0.0
C721 C 0.64441 0.17087 0.84105 0.0
C722 C 0.60756 0.19201 0.8137 0.0
C723 C 0.59389 0.17027 0.83506 0.0
H724 H 0.52592 0.60171 0.02253 0.0
H725 H 0.44718 0.58838 0.07269 0.0
H726 H 0.42288 0.60062 0.03536 0.0
H727 H 0.4253 0.6181 0.98873 0.0
H728 H 0.50719 0.63714 0.94046 0.0
H729 H 0.52904 0.62013 0.97676 0.0
C730 C 0.50368 0.60188 0.02555 0.0
C731 C 0.4886 0.59404 0.05064 0.0
C732 C 0.49029 0.61001 1.00419 0.0
C733 C 0.45926 0.5937 0.05365 0.0
C734 C 0.44537 0.60097 0.0323 0.0
C735 C 0.44769 0.61807 0.98615 0.0
C736 C 0.46452 0.62858 0.96195 0.0
C737 C 0.46076 0.60938 0.00749 0.0
C738 C 0.49383 0.62908 0.95894 0.0
C739 C 0.50635 0.61943 0.97969 0.0
H740 H 0.88049 0.48044 0.23333 0.0
H741 H 0.95355 0.45868 0.20886 0.0
H742 H 0.92101 0.42906 0.17045 0.0
H743 H 0.87078 0.40665 0.14496 0.0
H744 H 0.79879 0.43072 0.16661 0.0
H745 H 0.83228 0.46278 0.20458 0.0
C746 C 0.88956 0.46969 0.2194 0.0
C747 C 0.91915 0.47113 0.22455 0.0
C748 C 0.87091 0.45306 0.19682 0.0
C749 C 0.93041 0.45706 0.20608 0.0
C750 C 0.91194 0.44029 0.1839 0.0
C751 C 0.86249 0.41907 0.15792 0.0
C752 C 0.83222 0.41599 0.15328 0.0
C753 C 0.88192 0.43759 0.17937 0.0
C754 C 0.82203 0.43272 0.16987 0.0
C755 C 0.84111 0.4509 0.19161 0.0
loop_
_geom_bond_atom_site_label_1
_geom_bond_atom_site_label_2
_geom_bond_distance
_geom_bond_site_symmetry_2
_ccdc_geom_bond_type
H0 C19 0.949 . S
H1 C20 0.950 . S
H2 C22 0.950 . S
H3 C23 0.950 . S
H4 C25 0.950 . S
H5 C28 0.950 . S
H6 C29 0.950 . S
H7 C31 0.951 . S
H8 C32 0.949 . S
H9 C34 0.949 . S
H10 C35 0.950 . S
H11 C37 0.950 . S
H12 C38 0.950 . S
H13 C40 0.950 1_655 S
H14 C43 0.950 . S
H15 C44 0.950 . S
H16 C46 0.951 . S
H17 C47 0.949 . S
C18 C19 1.376 . S
C18 C23 1.386 . S
C18 C24 1.483 . S
C19 H0 0.949 . S
C19 C18 1.376 . S
C19 C20 1.397 . S
C20 H1 0.950 . S
C20 C19 1.397 . S
C20 C21 1.391 . S
C21 C20 1.391 . S
C21 C22 1.405 . S
C22 H2 0.950 . S
C22 C21 1.405 . S
C22 C23 1.367 . S
C23 H3 0.950 . S
C23 C18 1.386 . S
C23 C22 1.367 . S
C24 C18 1.483 . S
C24 C25 1.382 1_655 S
C24 C26 1.403 . S
C25 H4 0.950 . S
C25 C24 1.382 1_455 S
C25 C41 1.411 . S
C26 C24 1.403 . S
C26 C27 1.489 . S
C26 C40 1.411 1_655 S
C27 C26 1.489 . S
C27 C28 1.383 . S
C27 C32 1.382 . S
C28 H5 0.950 . S
C28 C27 1.383 . S
C28 C29 1.395 . S
C29 H6 0.950 . S
C29 C28 1.395 . S
C29 C30 1.288 . S
C30 C29 1.288 . S
C30 C31 1.392 . S
C31 H7 0.951 . S
C31 C30 1.392 . S
C31 C32 1.392 . S
C32 H8 0.949 . S
C32 C27 1.382 . S
C32 C31 1.392 . S
C33 C34 1.376 . S
C33 C38 1.386 . S
C33 C39 1.483 . S
C34 H9 0.949 . S
C34 C33 1.376 . S
C34 C35 1.397 . S
C35 H10 0.950 . S
C35 C34 1.397 . S
C35 C36 1.391 . S
C36 C35 1.391 . S
C36 C37 1.405 . S
C37 H11 0.950 . S
C37 C36 1.405 . S
C37 C38 1.367 . S
C38 H12 0.950 . S
C38 C33 1.386 . S
C38 C37 1.367 . S
C39 C33 1.483 . S
C39 C40 1.382 . S
C39 C41 1.403 . S
C40 H13 0.950 1_455 S
C40 C26 1.411 1_455 S
C40 C39 1.382 . S
C41 C25 1.411 . S
C41 C39 1.403 . S
C41 C42 1.489 . S
C42 C41 1.489 . S
C42 C43 1.383 . S
C42 C47 1.382 . S
C43 H14 0.950 . S
C43 C42 1.383 . S
C43 C44 1.395 . S
C44 H15 0.950 . S
C44 C43 1.395 . S
C44 C45 1.288 . S
C45 C44 1.288 . S
C45 C46 1.392 . S
C46 H16 0.951 . S
C46 C45 1.392 . S
C46 C47 1.392 . S
C47 H17 0.949 . S
C47 C42 1.382 . S
C47 C46 1.392 . S
H48 C67 0.949 . S
H49 C68 0.950 . S
H50 C70 0.950 . S
H51 C71 0.950 . S
H52 C73 0.950 . S
H53 C76 0.950 . S
H54 C77 0.950 . S
H55 C79 0.951 . S
H56 C80 0.949 . S
H57 C82 0.949 . S
H58 C83 0.950 . S
H59 C85 0.950 . S
H60 C86 0.950 . S
H61 C88 0.950 . S
H62 C91 0.950 . S
H63 C92 0.950 . S
H64 C94 0.951 . S
H65 C95 0.949 . S
C66 C67 1.376 . S
C66 C71 1.386 . S
C66 C72 1.483 . S
C67 H48 0.949 . S
C67 C66 1.376 . S
C67 C68 1.397 . S
C68 H49 0.950 . S
C68 C67 1.397 . S
C68 C69 1.391 . S
C69 C68 1.391 . S
C69 C70 1.405 . S
C70 H50 0.950 . S
C70 C69 1.405 . S
C70 C71 1.367 . S
C71 H51 0.950 . S
C71 C66 1.386 . S
C71 C70 1.367 . S
C72 C66 1.483 . S
C72 C73 1.382 . S
C72 C74 1.403 . S
C73 H52 0.950 . S
C73 C72 1.382 . S
C73 C89 1.411 1_565 S
C74 C72 1.403 . S
C74 C75 1.489 . S
C74 C88 1.411 1_565 S
C75 C74 1.489 . S
C75 C76 1.383 . S
C75 C80 1.382 . S
C76 H53 0.950 . S
C76 C75 1.383 . S
C76 C77 1.395 . S
C77 H54 0.950 . S
C77 C76 1.395 . S
C77 C78 1.288 . S
C78 C77 1.288 . S
C78 C79 1.392 . S
C79 H55 0.951 . S
C79 C78 1.392 . S
C79 C80 1.392 . S
C80 H56 0.949 . S
C80 C75 1.382 . S
C80 C79 1.392 . S
C81 C82 1.376 . S
C81 C86 1.386 . S
C81 C87 1.483 . S
C82 H57 0.949 . S
C82 C81 1.376 . S
C82 C83 1.397 . S
C83 H58 0.950 . S
C83 C82 1.397 . S
C83 C84 1.391 . S
C84 C83 1.391 . S
C84 C85 1.405 . S
C85 H59 0.950 . S
C85 C84 1.405 . S
C85 C86 1.367 . S
C86 H60 0.950 . S
C86 C81 1.386 . S
C86 C85 1.367 . S
C87 C81 1.483 . S
C87 C88 1.382 . S
C87 C89 1.403 . S
C88 H61 0.950 . S
C88 C74 1.411 1_545 S
C88 C87 1.382 . S
C89 C73 1.411 1_545 S
C89 C87 1.403 . S
C89 C90 1.489 . S
C90 C89 1.489 . S
C90 C91 1.383 . S
C90 C95 1.382 . S
C91 H62 0.950 . S
C91 C90 1.383 . S
C91 C92 1.395 . S
C92 H63 0.950 . S
C92 C91 1.395 . S
C92 C93 1.288 . S
C93 C92 1.288 . S
C93 C94 1.392 . S
C94 H64 0.951 . S
C94 C93 1.392 . S
C94 C95 1.392 . S
C95 H65 0.949 . S
C95 C90 1.382 . S
C95 C94 1.392 . S
H96 C115 0.949 . S
H97 C116 0.950 . S
H98 C118 0.950 . S
H99 C119 0.950 . S
H100 C121 0.950 . S
H101 C124 0.950 . S
H102 C125 0.950 . S
H103 C127 0.951 . S
H104 C128 0.949 . S
H105 C130 0.949 . S
H106 C131 0.950 . S
H107 C133 0.950 . S
H108 C134 0.950 . S
H109 C136 0.950 . S
H110 C139 0.950 . S
H111 C140 0.950 . S
H112 C142 0.951 . S
H113 C143 0.949 . S
C114 C115 1.376 . S
C114 C119 1.386 . S
C114 C120 1.483 . S
C115 H96 0.949 . S
C115 C114 1.376 . S
C115 C116 1.397 . S
C116 H97 0.950 . S
C116 C115 1.397 . S
C116 C117 1.391 . S
C117 C116 1.391 . S
C117 C118 1.405 . S
C118 H98 0.950 . S
C118 C117 1.405 . S
C118 C119 1.367 . S
C119 H99 0.950 . S
C119 C114 1.386 . S
C119 C118 1.367 . S
C120 C114 1.483 . S
C120 C121 1.382 . S
C120 C122 1.403 . S
C121 H100 0.950 . S
C121 C120 1.382 . S
C121 C137 1.411 . S
C122 C120 1.403 . S
C122 C123 1.489 . S
C122 C136 1.411 . S
C123 C122 1.489 . S
C123 C124 1.383 . S
C123 C128 1.382 . S
C124 H101 0.950 . S
C124 C123 1.383 . S
C124 C125 1.395 . S
C125 H102 0.950 . S
C125 C124 1.395 . S
C125 C126 1.288 . S
C126 C125 1.288 . S
C126 C127 1.392 . S
C127 H103 0.951 . S
C127 C126 1.392 . S
C127 C128 1.392 . S
C128 H104 0.949 . S
C128 C123 1.382 . S
C128 C127 1.392 . S
C129 C130 1.376 . S
C129 C134 1.386 . S
C129 C135 1.483 . S
C130 H105 0.949 . S
C130 C129 1.376 . S
C130 C131 1.397 . S
C131 H106 0.950 . S
C131 C130 1.397 . S
C131 C132 1.391 . S
C132 C131 1.391 . S
C132 C133 1.405 . S
C133 H107 0.950 . S
C133 C132 1.405 . S
C133 C134 1.367 . S
C134 H108 0.950 . S
C134 C129 1.386 . S
C134 C133 1.367 . S
C135 C129 1.483 . S
C135 C136 1.382 . S
C135 C137 1.403 . S
C136 H109 0.950 . S
C136 C122 1.411 . S
C136 C135 1.382 . S
C137 C121 1.411 . S
C137 C135 1.403 . S
C137 C138 1.489 . S
C138 C137 1.489 . S
C138 C139 1.383 . S
C138 C143 1.382 . S
C139 H110 0.950 . S
C139 C138 1.383 . S
C139 C140 1.395 . S
C140 H111 0.950 . S
C140 C139 1.395 . S
C140 C141 1.288 . S
C141 C140 1.288 . S
C141 C142 1.392 . S
C142 H112 0.951 . S
C142 C141 1.392 . S
C142 C143 1.392 . S
C143 H113 0.949 . S
C143 C138 1.382 . S
C143 C142 1.392 . S
H144 C163 0.949 . S
H145 C164 0.950 . S
H146 C166 0.950 . S
H147 C167 0.950 . S
H148 C169 0.950 1_655 S
H149 C172 0.950 . S
H150 C173 0.950 . S
H151 C175 0.951 . S
H152 C176 0.949 . S
H153 C178 0.949 . S
H154 C179 0.950 . S
H155 C181 0.950 . S
H156 C182 0.950 . S
H157 C184 0.950 . S
H158 C187 0.950 . S
H159 C188 0.950 . S
H160 C190 0.951 . S
H161 C191 0.949 . S
C162 C163 1.376 . S
C162 C167 1.386 . S
C162 C168 1.483 . S
C163 H144 0.949 . S
C163 C162 1.376 . S
C163 C164 1.397 . S
C164 H145 0.950 . S
C164 C163 1.397 . S
C164 C165 1.391 . S
C165 C164 1.391 . S
C165 C166 1.405 . S
C166 H146 0.950 . S
C166 C165 1.405 . S
C166 C167 1.367 . S
C167 H147 0.950 . S
C167 C162 1.386 . S
C167 C166 1.367 . S
C168 C162 1.483 . S
C168 C169 1.382 . S
C168 C170 1.403 . S
C169 H148 0.950 1_455 S
C169 C168 1.382 . S
C169 C185 1.411 1_455 S
C170 C168 1.403 . S
C170 C171 1.489 . S
C170 C184 1.411 . S
C171 C170 1.489 . S
C171 C172 1.383 . S
C171 C176 1.382 . S
C172 H149 0.950 . S
C172 C171 1.383 . S
C172 C173 1.395 . S
C173 H150 0.950 . S
C173 C172 1.395 . S
C173 C174 1.288 . S
C174 C173 1.288 . S
C174 C175 1.392 . S
C175 H151 0.951 . S
C175 C174 1.392 . S
C175 C176 1.392 . S
C176 H152 0.949 . S
C176 C171 1.382 . S
C176 C175 1.392 . S
C177 C178 1.376 . S
C177 C182 1.386 . S
C177 C183 1.483 . S
C178 H153 0.949 . S
C178 C177 1.376 . S
C178 C179 1.397 . S
C179 H154 0.950 . S
C179 C178 1.397 . S
C179 C180 1.391 . S
C180 C179 1.391 . S
C180 C181 1.405 . S
C181 H155 0.950 . S
C181 C180 1.405 . S
C181 C182 1.367 . S
C182 H156 0.950 . S
C182 C177 1.386 . S
C182 C181 1.367 . S
C183 C177 1.483 . S
C183 C184 1.382 1_655 S
C183 C185 1.403 . S
C184 H157 0.950 . S
C184 C170 1.411 . S
C184 C183 1.382 1_455 S
C185 C169 1.411 1_655 S
C185 C183 1.403 . S
C185 C186 1.489 . S
C186 C185 1.489 . S
C186 C187 1.383 . S
C186 C191 1.382 . S
C187 H158 0.950 . S
C187 C186 1.383 . S
C187 C188 1.395 . S
C188 H159 0.950 . S
C188 C187 1.395 . S
C188 C189 1.288 . S
C189 C188 1.288 . S
C189 C190 1.392 . S
C190 H160 0.951 . S
C190 C189 1.392 . S
C190 C191 1.392 . S
C191 H161 0.949 . S
C191 C186 1.382 . S
C191 C190 1.392 . S
H192 C211 0.949 . S
H193 C212 0.950 . S
H194 C214 0.950 . S
H195 C215 0.952 1_556 S
H196 C217 0.950 . S
H197 C220 0.950 . S
H198 C221 0.950 . S
H199 C223 0.951 . S
H200 C224 0.949 . S
H201 C226 0.949 . S
H202 C227 0.950 . S
H203 C229 0.950 . S
H204 C230 0.950 . S
H205 C232 0.950 . S
H206 C235 0.950 . S
H207 C236 0.950 . S
H208 C238 0.951 . S
H209 C239 0.949 . S
C210 C211 1.376 . S
C210 C215 1.385 . S
C210 C216 1.483 1_554 S
C211 H192 0.949 . S
C211 C210 1.376 . S
C211 C212 1.397 . S
C212 H193 0.950 . S
C212 C211 1.397 . S
C212 C213 1.391 . S
C213 C212 1.391 . S
C213 C214 1.405 . S
C214 H194 0.950 . S
C214 C213 1.405 . S
C214 C215 1.366 . S
C215 H195 0.952 1_554 S
C215 C210 1.385 . S
C215 C214 1.366 . S
C216 C210 1.483 1_556 S
C216 C217 1.382 1_556 S
C216 C218 1.403 . S
C217 H196 0.950 . S
C217 C216 1.382 1_554 S
C217 C233 1.411 1_545 S
C218 C216 1.403 . S
C218 C219 1.489 . S
C218 C232 1.411 1_545 S
C219 C218 1.489 . S
C219 C220 1.383 . S
C219 C224 1.382 . S
C220 H197 0.950 . S
C220 C219 1.383 . S
C220 C221 1.395 . S
C221 H198 0.950 . S
C221 C220 1.395 . S
C221 C222 1.288 . S
C222 C221 1.288 . S
C222 C223 1.392 . S
C223 H199 0.951 . S
C223 C222 1.392 . S
C223 C224 1.392 . S
C224 H200 0.949 . S
C224 C219 1.382 . S
C224 C223 1.392 . S
C225 C226 1.376 . S
C225 C230 1.386 . S
C225 C231 1.483 . S
C226 H201 0.949 . S
C226 C225 1.376 . S
C226 C227 1.397 . S
C227 H202 0.950 . S
C227 C226 1.397 . S
C227 C228 1.391 . S
C228 C227 1.391 . S
C228 C229 1.405 . S
C229 H203 0.950 . S
C229 C228 1.405 . S
C229 C230 1.367 . S
C230 H204 0.950 . S
C230 C225 1.386 . S
C230 C229 1.367 . S
C231 C225 1.483 . S
C231 C232 1.382 . S
C231 C233 1.403 1_556 S
C232 H205 0.950 . S
C232 C218 1.411 1_565 S
C232 C231 1.382 . S
C233 C217 1.411 1_565 S
C233 C231 1.403 1_554 S
C233 C234 1.489 . S
C234 C233 1.489 . S
C234 C235 1.383 . S
C234 C239 1.382 . S
C235 H206 0.950 . S
C235 C234 1.383 . S
C235 C236 1.395 . S
C236 H207 0.950 . S
C236 C235 1.395 . S
C236 C237 1.288 . S
C237 C236 1.288 . S
C237 C238 1.392 . S
C238 H208 0.951 . S
C238 C237 1.392 . S
C238 C239 1.392 . S
C239 H209 0.949 . S
C239 C234 1.382 . S
C239 C238 1.392 . S
H240 C259 0.949 . S
H241 C260 0.950 . S
H242 C262 0.950 . S
H243 C263 0.950 . S
H244 C265 0.950 . S
H245 C268 0.950 . S
H246 C269 0.950 . S
H247 C271 0.951 . S
H248 C272 0.949 . S
H249 C274 0.949 . S
H250 C275 0.950 . S
H251 C277 0.950 . S
H252 C278 0.950 . S
H253 C280 0.950 . S
H254 C283 0.950 . S
H255 C284 0.950 . S
H256 C286 0.951 . S
H257 C287 0.949 . S
C258 C259 1.376 . S
C258 C263 1.386 . S
C258 C264 1.483 . S
C259 H240 0.949 . S
C259 C258 1.376 . S
C259 C260 1.397 . S
C260 H241 0.950 . S
C260 C259 1.397 . S
C260 C261 1.391 . S
C261 C260 1.391 . S
C261 C262 1.405 . S
C262 H242 0.950 . S
C262 C261 1.405 . S
C262 C263 1.367 . S
C263 H243 0.950 . S
C263 C258 1.386 . S
C263 C262 1.367 . S
C264 C258 1.483 . S
C264 C265 1.382 . S
C264 C266 1.403 . S
C265 H244 0.950 . S
C265 C264 1.382 . S
C265 C281 1.411 . S
C266 C264 1.403 . S
C266 C267 1.489 . S
C266 C280 1.411 . S
C267 C266 1.489 . S
C267 C268 1.383 . S
C267 C272 1.382 . S
C268 H245 0.950 . S
C268 C267 1.383 . S
C268 C269 1.395 . S
C269 H246 0.950 . S
C269 C268 1.395 . S
C269 C270 1.288 . S
C270 C269 1.288 . S
C270 C271 1.392 . S
C271 H247 0.951 . S
C271 C270 1.392 . S
C271 C272 1.392 . S
C272 H248 0.949 . S
C272 C267 1.382 . S
C272 C271 1.392 . S
C273 C274 1.376 . S
C273 C278 1.386 . S
C273 C279 1.483 . S
C274 H249 0.949 . S
C274 C273 1.376 . S
C274 C275 1.397 . S
C275 H250 0.950 . S
C275 C274 1.397 . S
C275 C276 1.391 . S
C276 C275 1.391 . S
C276 C277 1.405 . S
C277 H251 0.950 . S
C277 C276 1.405 . S
C277 C278 1.367 . S
C278 H252 0.950 . S
C278 C273 1.386 . S
C278 C277 1.367 . S
C279 C273 1.483 . S
C279 C280 1.382 . S
C279 C281 1.403 . S
C280 H253 0.950 . S
C280 C266 1.411 . S
C280 C279 1.382 . S
C281 C265 1.411 . S
C281 C279 1.403 . S
C281 C282 1.489 . S
C282 C281 1.489 . S
C282 C283 1.383 . S
C282 C287 1.382 . S
C283 H254 0.950 . S
C283 C282 1.383 . S
C283 C284 1.395 . S
C284 H255 0.950 . S
C284 C283 1.395 . S
C284 C285 1.288 . S
C285 C284 1.288 . S
C285 C286 1.392 . S
C286 H256 0.951 . S
C286 C285 1.392 . S
C286 C287 1.392 . S
C287 H257 0.949 . S
C287 C282 1.382 . S
C287 C286 1.392 . S
Co288 O289 2.216 . S
Co288 O290 2.091 . S
Co288 O292 2.004 . S
Co288 O298 2.021 . S
Co288 O300 2.137 . S
Co288 O301 2.244 . S
O289 Co288 2.216 . S
O289 C296 1.247 . S
O290 Co288 2.091 . S
O290 C296 1.261 . S
C291 O300 1.247 . S
C291 O301 1.272 . S
O292 Co288 2.004 . S
O292 C297 1.259 . S
Co293 O294 2.061 . S
Co293 O299 2.052 . S
Co293 O301 2.135 . S
O294 Co293 2.061 . S
O294 C297 1.235 . S
C295 O298 1.238 . S
C295 O299 1.241 . S
C296 O289 1.247 . S
C296 O290 1.261 . S
C297 O292 1.259 . S
C297 O294 1.235 . S
O298 Co288 2.021 . S
O298 C295 1.238 . S
O299 Co293 2.052 . S
O299 C295 1.241 . S
O300 Co288 2.137 . S
O300 C291 1.247 . S
O301 Co288 2.244 . S
O301 C291 1.272 . S
O301 Co293 2.135 . S
Co302 O303 2.216 . S
Co302 O304 2.091 . S
Co302 O306 2.004 . S
Co302 O312 2.021 . S
Co302 O314 2.137 . S
Co302 O315 2.244 . S
O303 Co302 2.216 . S
O303 C310 1.247 . S
O304 Co302 2.091 . S
O304 C310 1.261 . S
C305 O314 1.247 . S
C305 O315 1.272 . S
O306 Co302 2.004 . S
O306 C311 1.259 . S
Co307 O308 2.061 . S
Co307 O313 2.052 . S
Co307 O315 2.135 . S
O308 Co307 2.061 . S
O308 C311 1.235 . S
C309 O312 1.238 . S
C309 O313 1.241 . S
C310 O303 1.247 . S
C310 O304 1.261 . S
C311 O306 1.259 . S
C311 O308 1.235 . S
O312 Co302 2.021 . S
O312 C309 1.238 . S
O313 Co307 2.052 . S
O313 C309 1.241 . S
O314 Co302 2.137 . S
O314 C305 1.247 . S
O315 Co302 2.244 . S
O315 C305 1.272 . S
O315 Co307 2.135 . S
Co316 O317 2.216 . S
Co316 O318 2.091 . S
Co316 O320 2.004 . S
Co316 O326 2.021 . S
Co316 O328 2.137 . S
Co316 O329 2.244 . S
O317 Co316 2.216 . S
O317 C324 1.247 . S
O318 Co316 2.091 . S
O318 C324 1.261 . S
C319 O328 1.247 . S
C319 O329 1.272 . S
O320 Co316 2.004 . S
O320 C325 1.259 . S
Co321 O322 2.061 . S
Co321 O327 2.052 . S
Co321 O329 2.135 . S
O322 Co321 2.061 . S
O322 C325 1.235 . S
C323 O326 1.238 . S
C323 O327 1.241 . S
C324 O317 1.247 . S
C324 O318 1.261 . S
C325 O320 1.259 . S
C325 O322 1.235 . S
O326 Co316 2.021 . S
O326 C323 1.238 . S
O327 Co321 2.052 . S
O327 C323 1.241 . S
O328 Co316 2.137 . S
O328 C319 1.247 . S
O329 Co316 2.244 . S
O329 C319 1.272 . S
O329 Co321 2.135 . S
Co330 O331 2.216 . S
Co330 O332 2.091 . S
Co330 O334 2.004 . S
Co330 O340 2.021 . S
Co330 O342 2.137 . S
Co330 O343 2.244 . S
O331 Co330 2.216 . S
O331 C338 1.247 . S
O332 Co330 2.091 . S
O332 C338 1.261 . S
C333 O342 1.247 . S
C333 O343 1.272 . S
O334 Co330 2.004 . S
O334 C339 1.259 . S
Co335 O336 2.061 . S
Co335 O341 2.052 . S
Co335 O343 2.135 . S
O336 Co335 2.061 . S
O336 C339 1.235 . S
C337 O340 1.238 . S
C337 O341 1.241 . S
C338 O331 1.247 . S
C338 O332 1.261 . S
C339 O334 1.259 . S
C339 O336 1.235 . S
O340 Co330 2.021 . S
O340 C337 1.238 . S
O341 Co335 2.052 . S
O341 C337 1.241 . S
O342 Co330 2.137 . S
O342 C333 1.247 . S
O343 Co330 2.244 . S
O343 C333 1.272 . S
O343 Co335 2.135 . S
Co344 O345 2.216 . S
Co344 O346 2.091 . S
Co344 O348 2.004 . S
Co344 O354 2.021 . S
Co344 O356 2.137 . S
Co344 O357 2.244 . S
O345 Co344 2.216 . S
O345 C352 1.247 . S
O346 Co344 2.091 . S
O346 C352 1.261 . S
C347 O356 1.247 . S
C347 O357 1.272 . S
O348 Co344 2.004 . S
O348 C353 1.259 . S
Co349 O350 2.061 . S
Co349 O355 2.052 . S
Co349 O357 2.135 . S
O350 Co349 2.061 . S
O350 C353 1.235 . S
C351 O354 1.238 . S
C351 O355 1.241 . S
C352 O345 1.247 . S
C352 O346 1.261 . S
C353 O348 1.259 . S
C353 O350 1.235 . S
O354 Co344 2.021 . S
O354 C351 1.238 . S
O355 Co349 2.052 . S
O355 C351 1.241 . S
O356 Co344 2.137 . S
O356 C347 1.247 . S
O357 Co344 2.244 . S
O357 C347 1.272 . S
O357 Co349 2.135 . S
Co358 O359 2.216 . S
Co358 O360 2.091 . S
Co358 O362 2.004 . S
Co358 O368 2.021 . S
Co358 O370 2.137 . S
Co358 O371 2.244 . S
O359 Co358 2.216 . S
O359 C366 1.247 . S
O360 Co358 2.091 . S
O360 C366 1.261 . S
C361 O370 1.247 . S
C361 O371 1.272 . S
O362 Co358 2.004 . S
O362 C367 1.259 . S
Co363 O364 2.061 . S
Co363 O369 2.052 . S
Co363 O371 2.135 . S
O364 Co363 2.061 . S
O364 C367 1.235 . S
C365 O368 1.238 . S
C365 O369 1.241 . S
C366 O359 1.247 . S
C366 O360 1.261 . S
C367 O362 1.259 . S
C367 O364 1.235 . S
O368 Co358 2.021 . S
O368 C365 1.238 . S
O369 Co363 2.052 . S
O369 C365 1.241 . S
O370 Co358 2.137 . S
O370 C361 1.247 . S
O371 Co358 2.244 . S
O371 C361 1.272 . S
O371 Co363 2.135 . S
H372 C378 0.930 . S
H373 C381 0.930 . S
H374 C382 0.930 . S
H375 C383 0.930 . S
H376 C386 0.930 . S
H377 C387 0.930 . S
C378 H372 0.930 . S
C378 C379 1.355 . S
C378 C380 1.415 . S
C379 C378 1.355 . S
C379 C381 1.419 . S
C380 C378 1.415 . S
C380 C385 1.425 . S
C380 C387 1.409 . S
C381 H373 0.930 . S
C381 C379 1.419 . S
C381 C382 1.362 . S
C382 H374 0.930 . S
C382 C381 1.362 . S
C382 C385 1.409 . S
C383 H375 0.930 . S
C383 C384 1.355 . S
C383 C385 1.415 . S
C384 C383 1.355 . S
C384 C386 1.419 . S
C385 C380 1.425 . S
C385 C382 1.409 . S
C385 C383 1.415 . S
C386 H376 0.930 . S
C386 C384 1.419 . S
C386 C387 1.362 . S
C387 H377 0.930 . S
C387 C380 1.409 . S
C387 C386 1.362 . S
H388 C394 0.930 . S
H389 C397 0.930 . S
H390 C398 0.930 . S
H391 C399 0.930 . S
H392 C402 0.930 . S
H393 C403 0.930 . S
C394 H388 0.930 . S
C394 C395 1.355 . S
C394 C396 1.415 . S
C395 C394 1.355 . S
C395 C397 1.419 . S
C396 C394 1.415 . S
C396 C401 1.425 . S
C396 C403 1.409 . S
C397 H389 0.930 . S
C397 C395 1.419 . S
C397 C398 1.362 . S
C398 H390 0.930 . S
C398 C397 1.362 . S
C398 C401 1.409 . S
C399 H391 0.930 . S
C399 C400 1.355 . S
C399 C401 1.415 . S
C400 C399 1.355 . S
C400 C402 1.419 . S
C401 C396 1.425 . S
C401 C398 1.409 . S
C401 C399 1.415 . S
C402 H392 0.930 . S
C402 C400 1.419 . S
C402 C403 1.362 . S
C403 H393 0.930 . S
C403 C396 1.409 . S
C403 C402 1.362 . S
H404 C410 0.930 . S
H405 C413 0.930 . S
H406 C414 0.930 . S
H407 C415 0.930 . S
H408 C418 0.930 . S
H409 C419 0.930 . S
C410 H404 0.930 . S
C410 C411 1.355 . S
C410 C412 1.415 . S
C411 C410 1.355 . S
C411 C413 1.419 . S
C412 C410 1.415 . S
C412 C417 1.425 . S
C412 C419 1.409 . S
C413 H405 0.930 . S
C413 C411 1.419 . S
C413 C414 1.362 . S
C414 H406 0.930 . S
C414 C413 1.362 . S
C414 C417 1.409 . S
C415 H407 0.930 . S
C415 C416 1.355 . S
C415 C417 1.415 . S
C416 C415 1.355 . S
C416 C418 1.419 . S
C417 C412 1.425 . S
C417 C414 1.409 . S
C417 C415 1.415 . S
C418 H408 0.930 . S
C418 C416 1.419 . S
C418 C419 1.362 . S
C419 H409 0.930 . S
C419 C412 1.409 . S
C419 C418 1.362 . S
H420 C426 0.930 . S
H421 C429 0.930 . S
H422 C430 0.930 . S
H423 C431 0.930 . S
H424 C434 0.930 . S
H425 C435 0.930 . S
C426 H420 0.930 . S
C426 C427 1.355 . S
C426 C428 1.415 . S
C427 C426 1.355 . S
C427 C429 1.419 . S
C428 C426 1.415 . S
C428 C433 1.425 . S
C428 C435 1.409 . S
C429 H421 0.930 . S
C429 C427 1.419 . S
C429 C430 1.362 . S
C430 H422 0.930 . S
C430 C429 1.362 . S
C430 C433 1.409 . S
C431 H423 0.930 . S
C431 C432 1.355 . S
C431 C433 1.415 . S
C432 C431 1.355 . S
C432 C434 1.419 . S
C433 C428 1.425 . S
C433 C430 1.409 . S
C433 C431 1.415 . S
C434 H424 0.930 . S
C434 C432 1.419 . S
C434 C435 1.362 . S
C435 H425 0.930 . S
C435 C428 1.409 . S
C435 C434 1.362 . S
H436 C442 0.930 . S
H437 C445 0.930 . S
H438 C446 0.930 . S
H439 C447 0.930 . S
H440 C450 0.930 . S
H441 C451 0.930 . S
C442 H436 0.930 . S
C442 C443 1.355 . S
C442 C444 1.415 . S
C443 C442 1.355 . S
C443 C445 1.419 . S
C444 C442 1.415 . S
C444 C449 1.425 . S
C444 C451 1.409 . S
C445 H437 0.930 . S
C445 C443 1.419 . S
C445 C446 1.362 . S
C446 H438 0.930 . S
C446 C445 1.362 . S
C446 C449 1.409 . S
C447 H439 0.930 . S
C447 C448 1.355 . S
C447 C449 1.415 . S
C448 C447 1.355 . S
C448 C450 1.419 . S
C449 C444 1.425 . S
C449 C446 1.409 . S
C449 C447 1.415 . S
C450 H440 0.930 . S
C450 C448 1.419 . S
C450 C451 1.362 . S
C451 H441 0.930 . S
C451 C444 1.409 . S
C451 C450 1.362 . S
H452 C458 0.930 . S
H453 C461 0.930 . S
H454 C462 0.930 . S
H455 C463 0.930 . S
H456 C466 0.930 . S
H457 C467 0.930 . S
C458 H452 0.930 . S
C458 C459 1.355 . S
C458 C460 1.415 . S
C459 C458 1.355 . S
C459 C461 1.419 . S
C460 C458 1.415 . S
C460 C465 1.425 . S
C460 C467 1.409 . S
C461 H453 0.930 . S
C461 C459 1.419 . S
C461 C462 1.362 . S
C462 H454 0.930 . S
C462 C461 1.362 . S
C462 C465 1.409 . S
C463 H455 0.930 . S
C463 C464 1.355 . S
C463 C465 1.415 . S
C464 C463 1.355 . S
C464 C466 1.419 . S
C465 C460 1.425 . S
C465 C462 1.409 . S
C465 C463 1.415 . S
C466 H456 0.930 . S
C466 C464 1.419 . S
C466 C467 1.362 . S
C467 H457 0.930 . S
C467 C460 1.409 . S
C467 C466 1.362 . S
H468 C474 0.930 . S
H469 C477 0.930 . S
H470 C478 0.930 . S
H471 C479 0.930 . S
H472 C482 0.930 . S
H473 C483 0.930 . S
C474 H468 0.930 . S
C474 C475 1.355 . S
C474 C476 1.415 . S
C475 C474 1.355 . S
C475 C477 1.419 . S
C476 C474 1.415 . S
C476 C481 1.425 . S
C476 C483 1.409 . S
C477 H469 0.930 . S
C477 C475 1.419 . S
C477 C478 1.362 . S
C478 H470 0.930 . S
C478 C477 1.362 . S
C478 C481 1.409 . S
C479 H471 0.930 . S
C479 C480 1.355 . S
C479 C481 1.415 . S
C480 C479 1.355 . S
C480 C482 1.419 . S
C481 C476 1.425 . S
C481 C478 1.409 . S
C481 C479 1.415 . S
C482 H472 0.930 . S
C482 C480 1.419 . S
C482 C483 1.362 . S
C483 H473 0.930 . S
C483 C476 1.409 . S
C483 C482 1.362 . S
H484 C490 0.930 . S
H485 C493 0.930 . S
H486 C494 0.930 . S
H487 C495 0.930 . S
H488 C498 0.930 . S
H489 C499 0.930 . S
C490 H484 0.930 . S
C490 C491 1.355 . S
C490 C492 1.415 . S
C491 C490 1.355 . S
C491 C493 1.419 . S
C492 C490 1.415 . S
C492 C497 1.425 . S
C492 C499 1.409 . S
C493 H485 0.930 . S
C493 C491 1.419 . S
C493 C494 1.362 . S
C494 H486 0.930 . S
C494 C493 1.362 . S
C494 C497 1.409 . S
C495 H487 0.930 . S
C495 C496 1.355 . S
C495 C497 1.415 . S
C496 C495 1.355 . S
C496 C498 1.419 . S
C497 C492 1.425 . S
C497 C494 1.409 . S
C497 C495 1.415 . S
C498 H488 0.930 . S
C498 C496 1.419 . S
C498 C499 1.362 . S
C499 H489 0.930 . S
C499 C492 1.409 . S
C499 C498 1.362 . S
H500 C506 0.930 . S
H501 C509 0.930 . S
H502 C510 0.930 . S
H503 C511 0.930 . S
H504 C514 0.930 . S
H505 C515 0.930 . S
C506 H500 0.930 . S
C506 C507 1.355 . S
C506 C508 1.415 . S
C507 C506 1.355 . S
C507 C509 1.419 . S
C508 C506 1.415 . S
C508 C513 1.425 . S
C508 C515 1.409 . S
C509 H501 0.930 . S
C509 C507 1.419 . S
C509 C510 1.362 . S
C510 H502 0.930 . S
C510 C509 1.362 . S
C510 C513 1.409 . S
C511 H503 0.930 . S
C511 C512 1.355 . S
C511 C513 1.415 . S
C512 C511 1.355 . S
C512 C514 1.419 . S
C513 C508 1.425 . S
C513 C510 1.409 . S
C513 C511 1.415 . S
C514 H504 0.930 . S
C514 C512 1.419 . S
C514 C515 1.362 . S
C515 H505 0.930 . S
C515 C508 1.409 . S
C515 C514 1.362 . S
H516 C522 0.930 . S
H517 C525 0.930 1_556 S
H518 C526 0.930 1_556 S
H519 C527 0.930 . S
H520 C530 0.930 . S
H521 C531 0.930 . S
C522 H516 0.930 . S
C522 C523 1.355 . S
C522 C524 1.415 . S
C523 C522 1.355 . S
C523 C525 1.419 . S
C524 C522 1.415 . S
C524 C529 1.425 . S
C524 C531 1.409 . S
C525 H517 0.930 1_554 S
C525 C523 1.419 . S
C525 C526 1.362 . S
C526 H518 0.930 1_554 S
C526 C525 1.362 . S
C526 C529 1.409 . S
C527 H519 0.930 . S
C527 C528 1.355 . S
C527 C529 1.415 . S
C528 C527 1.355 . S
C528 C530 1.419 . S
C529 C524 1.425 . S
C529 C526 1.409 . S
C529 C527 1.415 . S
C530 H520 0.930 . S
C530 C528 1.419 . S
C530 C531 1.362 . S
C531 H521 0.930 . S
C531 C524 1.409 . S
C531 C530 1.362 . S
H532 C538 0.930 . S
H533 C541 0.930 . S
H534 C542 0.930 . S
H535 C543 0.930 . S
H536 C546 0.930 . S
H537 C547 0.930 . S
C538 H532 0.930 . S
C538 C539 1.355 . S
C538 C540 1.415 . S
C539 C538 1.355 . S
C539 C541 1.419 . S
C540 C538 1.415 . S
C540 C545 1.425 . S
C540 C547 1.409 . S
C541 H533 0.930 . S
C541 C539 1.419 . S
C541 C542 1.362 . S
C542 H534 0.930 . S
C542 C541 1.362 . S
C542 C545 1.409 . S
C543 H535 0.930 . S
C543 C544 1.355 . S
C543 C545 1.415 . S
C544 C543 1.355 . S
C544 C546 1.419 . S
C545 C540 1.425 . S
C545 C542 1.409 . S
C545 C543 1.415 . S
C546 H536 0.930 . S
C546 C544 1.419 . S
C546 C547 1.362 . S
C547 H537 0.930 . S
C547 C540 1.409 . S
C547 C546 1.362 . S
H548 C554 0.930 . S
H549 C557 0.930 . S
H550 C558 0.930 . S
H551 C559 0.930 . S
H552 C562 0.930 . S
H553 C563 0.930 . S
C554 H548 0.930 . S
C554 C555 1.355 . S
C554 C556 1.415 . S
C555 C554 1.355 . S
C555 C557 1.419 . S
C556 C554 1.415 . S
C556 C561 1.425 . S
C556 C563 1.409 . S
C557 H549 0.930 . S
C557 C555 1.419 . S
C557 C558 1.362 . S
C558 H550 0.930 . S
C558 C557 1.362 . S
C558 C561 1.409 . S
C559 H551 0.930 . S
C559 C560 1.355 . S
C559 C561 1.415 . S
C560 C559 1.355 . S
C560 C562 1.419 . S
C561 C556 1.425 . S
C561 C558 1.409 . S
C561 C559 1.415 . S
C562 H552 0.930 . S
C562 C560 1.419 . S
C562 C563 1.362 . S
C563 H553 0.930 . S
C563 C556 1.409 . S
C563 C562 1.362 . S
H564 C570 0.930 . S
H565 C573 0.930 . S
H566 C574 0.930 . S
H567 C575 0.930 . S
H568 C578 0.930 . S
H569 C579 0.930 . S
C570 H564 0.930 . S
C570 C571 1.355 . S
C570 C572 1.415 . S
C571 C570 1.355 . S
C571 C573 1.419 . S
C572 C570 1.415 . S
C572 C577 1.425 . S
C572 C579 1.409 . S
C573 H565 0.930 . S
C573 C571 1.419 . S
C573 C574 1.362 . S
C574 H566 0.930 . S
C574 C573 1.362 . S
C574 C577 1.409 . S
C575 H567 0.930 . S
C575 C576 1.355 . S
C575 C577 1.415 . S
C576 C575 1.355 . S
C576 C578 1.419 . S
C577 C572 1.425 . S
C577 C574 1.409 . S
C577 C575 1.415 . S
C578 H568 0.930 . S
C578 C576 1.419 . S
C578 C579 1.362 . S
C579 H569 0.930 . S
C579 C572 1.409 . S
C579 C578 1.362 . S
H580 C586 0.930 . S
H581 C589 0.930 . S
H582 C590 0.930 . S
H583 C591 0.930 . S
H584 C594 0.930 . S
H585 C595 0.930 . S
C586 H580 0.930 . S
C586 C587 1.355 . S
C586 C588 1.415 . S
C587 C586 1.355 . S
C587 C589 1.419 . S
C588 C586 1.415 . S
C588 C593 1.425 . S
C588 C595 1.409 . S
C589 H581 0.930 . S
C589 C587 1.419 . S
C589 C590 1.362 . S
C590 H582 0.930 . S
C590 C589 1.362 . S
C590 C593 1.409 . S
C591 H583 0.930 . S
C591 C592 1.355 . S
C591 C593 1.415 . S
C592 C591 1.355 . S
C592 C594 1.419 . S
C593 C588 1.425 . S
C593 C590 1.409 . S
C593 C591 1.415 . S
C594 H584 0.930 . S
C594 C592 1.419 . S
C594 C595 1.362 . S
C595 H585 0.930 . S
C595 C588 1.409 . S
C595 C594 1.362 . S
H596 C602 0.930 . S
H597 C605 0.930 . S
H598 C606 0.930 . S
H599 C607 0.930 . S
H600 C610 0.930 . S
H601 C611 0.930 . S
C602 H596 0.930 . S
C602 C603 1.355 . S
C602 C604 1.415 . S
C603 C602 1.355 . S
C603 C605 1.419 . S
C604 C602 1.415 . S
C604 C609 1.425 . S
C604 C611 1.409 . S
C605 H597 0.930 . S
C605 C603 1.419 . S
C605 C606 1.362 . S
C606 H598 0.930 . S
C606 C605 1.362 . S
C606 C609 1.409 . S
C607 H599 0.930 . S
C607 C608 1.355 . S
C607 C609 1.415 . S
C608 C607 1.355 . S
C608 C610 1.419 . S
C609 C604 1.425 . S
C609 C606 1.409 . S
C609 C607 1.415 . S
C610 H600 0.930 . S
C610 C608 1.419 . S
C610 C611 1.362 . S
C611 H601 0.930 . S
C611 C604 1.409 . S
C611 C610 1.362 . S
H612 C618 0.930 . S
H613 C621 0.930 . S
H614 C622 0.930 . S
H615 C623 0.930 1_554 S
H616 C626 0.930 1_554 S
H617 C627 0.930 . S
C618 H612 0.930 . S
C618 C619 1.355 . S
C618 C620 1.415 . S
C619 C618 1.355 . S
C619 C621 1.419 . S
C620 C618 1.415 . S
C620 C625 1.425 . S
C620 C627 1.409 . S
C621 H613 0.930 . S
C621 C619 1.419 . S
C621 C622 1.362 . S
C622 H614 0.930 . S
C622 C621 1.362 . S
C622 C625 1.409 . S
C623 H615 0.930 1_556 S
C623 C624 1.355 1_556 S
C623 C625 1.415 . S
C624 C623 1.355 1_554 S
C624 C626 1.419 1_554 S
C625 C620 1.425 . S
C625 C622 1.409 . S
C625 C623 1.415 . S
C626 H616 0.930 1_556 S
C626 C624 1.419 1_556 S
C626 C627 1.362 . S
C627 H617 0.930 . S
C627 C620 1.409 . S
C627 C626 1.362 . S
H628 C634 0.930 . S
H629 C637 0.930 . S
H630 C638 0.930 . S
H631 C639 0.930 . S
H632 C642 0.930 . S
H633 C643 0.930 . S
C634 H628 0.930 . S
C634 C635 1.355 . S
C634 C636 1.415 . S
C635 C634 1.355 . S
C635 C637 1.419 . S
C636 C634 1.415 . S
C636 C641 1.425 . S
C636 C643 1.409 . S
C637 H629 0.930 . S
C637 C635 1.419 . S
C637 C638 1.362 . S
C638 H630 0.930 . S
C638 C637 1.362 . S
C638 C641 1.409 . S
C639 H631 0.930 . S
C639 C640 1.355 . S
C639 C641 1.415 . S
C640 C639 1.355 . S
C640 C642 1.419 . S
C641 C636 1.425 . S
C641 C638 1.409 . S
C641 C639 1.415 . S
C642 H632 0.930 . S
C642 C640 1.419 . S
C642 C643 1.362 . S
C643 H633 0.930 . S
C643 C636 1.409 . S
C643 C642 1.362 . S
H644 C650 0.930 . S
H645 C653 0.930 . S
H646 C654 0.930 . S
H647 C655 0.930 . S
H648 C658 0.930 . S
H649 C659 0.930 . S
C650 H644 0.930 . S
C650 C651 1.355 . S
C650 C652 1.415 . S
C651 C650 1.355 . S
C651 C653 1.419 . S
C652 C650 1.415 . S
C652 C657 1.425 . S
C652 C659 1.409 . S
C653 H645 0.930 . S
C653 C651 1.419 . S
C653 C654 1.362 . S
C654 H646 0.930 . S
C654 C653 1.362 . S
C654 C657 1.409 . S
C655 H647 0.930 . S
C655 C656 1.355 . S
C655 C657 1.415 . S
C656 C655 1.355 . S
C656 C658 1.419 . S
C657 C652 1.425 . S
C657 C654 1.409 . S
C657 C655 1.415 . S
C658 H648 0.930 . S
C658 C656 1.419 . S
C658 C659 1.362 . S
C659 H649 0.930 . S
C659 C652 1.409 . S
C659 C658 1.362 . S
H660 C666 0.930 . S
H661 C669 0.930 . S
H662 C670 0.930 . S
H663 C671 0.930 . S
H664 C674 0.930 . S
H665 C675 0.930 . S
C666 H660 0.930 . S
C666 C667 1.355 . S
C666 C668 1.415 . S
C667 C666 1.355 . S
C667 C669 1.419 . S
C668 C666 1.415 . S
C668 C673 1.425 . S
C668 C675 1.409 . S
C669 H661 0.930 . S
C669 C667 1.419 . S
C669 C670 1.362 . S
C670 H662 0.930 . S
C670 C669 1.362 . S
C670 C673 1.409 . S
C671 H663 0.930 . S
C671 C672 1.355 . S
C671 C673 1.415 . S
C672 C671 1.355 . S
C672 C674 1.419 . S
C673 C668 1.425 . S
C673 C670 1.409 . S
C673 C671 1.415 . S
C674 H664 0.930 . S
C674 C672 1.419 . S
C674 C675 1.362 . S
C675 H665 0.930 . S
C675 C668 1.409 . S
C675 C674 1.362 . S
H676 C682 0.930 . S
H677 C685 0.930 . S
H678 C686 0.930 . S
H679 C687 0.930 . S
H680 C690 0.930 . S
H681 C691 0.930 . S
C682 H676 0.930 . S
C682 C683 1.355 . S
C682 C684 1.415 . S
C683 C682 1.355 . S
C683 C685 1.419 . S
C684 C682 1.415 . S
C684 C689 1.425 . S
C684 C691 1.409 . S
C685 H677 0.930 . S
C685 C683 1.419 . S
C685 C686 1.362 . S
C686 H678 0.930 . S
C686 C685 1.362 . S
C686 C689 1.409 . S
C687 H679 0.930 . S
C687 C688 1.355 . S
C687 C689 1.415 . S
C688 C687 1.355 . S
C688 C690 1.419 . S
C689 C684 1.425 . S
C689 C686 1.409 . S
C689 C687 1.415 . S
C690 H680 0.930 . S
C690 C688 1.419 . S
C690 C691 1.362 . S
C691 H681 0.930 . S
C691 C684 1.409 . S
C691 C690 1.362 . S
H692 C698 0.930 . S
H693 C701 0.930 . S
H694 C702 0.930 . S
H695 C703 0.930 . S
H696 C706 0.930 . S
H697 C707 0.930 . S
C698 H692 0.930 . S
C698 C699 1.355 . S
C698 C700 1.415 . S
C699 C698 1.355 . S
C699 C701 1.419 . S
C700 C698 1.415 . S
C700 C705 1.425 . S
C700 C707 1.409 . S
C701 H693 0.930 . S
C701 C699 1.419 . S
C701 C702 1.362 . S
C702 H694 0.930 . S
C702 C701 1.362 . S
C702 C705 1.409 . S
C703 H695 0.930 . S
C703 C704 1.355 . S
C703 C705 1.415 . S
C704 C703 1.355 . S
C704 C706 1.419 . S
C705 C700 1.425 . S
C705 C702 1.409 . S
C705 C703 1.415 . S
C706 H696 0.930 . S
C706 C704 1.419 . S
C706 C707 1.362 . S
C707 H697 0.930 . S
C707 C700 1.409 . S
C707 C706 1.362 . S
H708 C714 0.930 . S
H709 C717 0.930 . S
H710 C718 0.930 . S
H711 C719 0.930 . S
H712 C722 0.930 . S
H713 C723 0.930 . S
C714 H708 0.930 . S
C714 C715 1.355 . S
C714 C716 1.415 . S
C715 C714 1.355 . S
C715 C717 1.419 . S
C716 C714 1.415 . S
C716 C721 1.425 . S
C716 C723 1.409 . S
C717 H709 0.930 . S
C717 C715 1.419 . S
C717 C718 1.362 . S
C718 H710 0.930 . S
C718 C717 1.362 . S
C718 C721 1.409 . S
C719 H711 0.930 . S
C719 C720 1.355 . S
C719 C721 1.415 . S
C720 C719 1.355 . S
C720 C722 1.419 . S
C721 C716 1.425 . S
C721 C718 1.409 . S
C721 C719 1.415 . S
C722 H712 0.930 . S
C722 C720 1.419 . S
C722 C723 1.362 . S
C723 H713 0.930 . S
C723 C716 1.409 . S
C723 C722 1.362 . S
H724 C730 0.930 . S
H725 C733 0.930 . S
H726 C734 0.930 . S
H727 C735 0.930 . S
H728 C738 0.930 . S
H729 C739 0.930 . S
C730 H724 0.930 . S
C730 C731 1.355 . S
C730 C732 1.415 . S
C731 C730 1.355 . S
C731 C733 1.419 . S
C732 C730 1.415 . S
C732 C737 1.425 . S
C732 C739 1.409 1_554 S
C733 H725 0.930 . S
C733 C731 1.419 . S
C733 C734 1.362 . S
C734 H726 0.930 . S
C734 C733 1.362 . S
C734 C737 1.409 . S
C735 H727 0.930 . S
C735 C736 1.355 . S
C735 C737 1.415 1_556 S
C736 C735 1.355 . S
C736 C738 1.419 . S
C737 C732 1.425 . S
C737 C734 1.409 . S
C737 C735 1.415 1_554 S
C738 H728 0.930 . S
C738 C736 1.419 . S
C738 C739 1.362 . S
C739 H729 0.930 . S
C739 C732 1.409 1_556 S
C739 C738 1.362 . S
H740 C746 0.930 . S
H741 C749 0.930 . S
H742 C750 0.930 . S
H743 C751 0.930 . S
H744 C754 0.930 . S
H745 C755 0.930 . S
C746 H740 0.930 . S
C746 C747 1.355 . S
C746 C748 1.415 . S
C747 C746 1.355 . S
C747 C749 1.419 . S
C748 C746 1.415 . S
C748 C753 1.425 . S
C748 C755 1.409 . S
C749 H741 0.930 . S
C749 C747 1.419 . S
C749 C750 1.362 . S
C750 H742 0.930 . S
C750 C749 1.362 . S
C750 C753 1.409 . S
C751 H743 0.930 . S
C751 C752 1.355 . S
C751 C753 1.415 . S
C752 C751 1.355 . S
C752 C754 1.419 . S
C753 C748 1.425 . S
C753 C750 1.409 . S
C753 C751 1.415 . S
C754 H744 0.930 . S
C754 C752 1.419 . S
C754 C755 1.362 . S
C755 H745 0.930 . S
C755 C748 1.409 . S
C755 C754 1.362 . S
C384 C361 1.624 . S
C379 C45 1.623 . S
C395 C84 1.591 . S
C400 C291 1.592 . S
C411 C126 1.560 . S
C416 C310 1.623 . S
C427 C189 1.606 . S
C432 C319 1.599 . S
C448 C333 1.598 . S
C443 C228 1.604 . S
C459 C270 1.560 . S
C464 C352 1.622 . S
C475 C69 1.560 . S
C480 C305 1.587 . S
C491 C141 1.622 . S
C496 C324 1.621 . S
C507 C174 1.592 . S
C512 C338 1.618 . S
C528 C347 1.590 . S
C523 C213 1.564 . S
C544 C366 1.600 . S
C539 C285 1.602 . S
C560 C296 1.595 . S
C555 C30 1.543 . S
C571 C36 1.493 . S
C576 C311 1.489 . S
C587 C93 1.497 . S
C592 C323 1.460 . S
C608 C337 1.476 . S
C603 C117 1.504 . S
C619 C180 1.500 . S
C624 C353 1.502 . S
C640 C365 1.468 . S
C635 C237 1.499 . S
C656 C295 1.447 . S
C651 C261 1.502 . S
C672 C367 1.499 . S
C667 C78 1.505 . S
C683 C132 1.509 . S
C688 C297 1.516 . S
C704 C309 1.458 . S
C699 C165 1.510 . S
C715 C222 1.499 . S
C720 C325 1.492 . S
C731 C276 1.506 . S
C736 C339 1.488 . S
C747 C21 1.496 . S
C752 C351 1.505 . S
