# Generated by pormake.
# Topology eea, (3,6)-cn, num edge types: 1
# Building blocks:
#     Node 0, Type 0, BuildingBlock: PAMTOO_clean_linker_0, # of connection points: 3
#     Node 1, Type 0, BuildingBlock: PAMTOO_clean_linker_0, # of connection points: 3
#     Node 2, Type 0, BuildingBlock: PAMTOO_clean_linker_0, # of connection points: 3
#     Node 3, Type 0, BuildingBlock: PAMTOO_clean_linker_0, # of connection points: 3
#     Node 4, Type 0, BuildingBlock: PAMTOO_clean_linker_0, # of connection points: 3
#     Node 5, Type 0, BuildingBlock: PAMTOO_clean_linker_0, # of connection points: 3
#     Node 6, Type 0, BuildingBlock: PAMTOO_clean_linker_0, # of connection points: 3
#     Node 7, Type 0, BuildingBlock: PAMTOO_clean_linker_0, # of connection points: 3
#     Node 8, Type 0, BuildingBlock: PAMTOO_clean_linker_0, # of connection points: 3
#     Node 9, Type 0, BuildingBlock: PAMTOO_clean_linker_0, # of connection points: 3
#     Node 10, Type 0, BuildingBlock: PAMTOO_clean_linker_0, # of connection points: 3
#     Node 11, Type 0, BuildingBlock: PAMTOO_clean_linker_0, # of connection points: 3
#     Node 12, Type 0, BuildingBlock: PAMTOO_clean_linker_0, # of connection points: 3
#     Node 13, Type 0, BuildingBlock: PAMTOO_clean_linker_0, # of connection points: 3
#     Node 14, Type 0, BuildingBlock: PAMTOO_clean_linker_0, # of connection points: 3
#     Node 15, Type 0, BuildingBlock: PAMTOO_clean_linker_0, # of connection points: 3
#     Node 16, Type 0, BuildingBlock: PAMTOO_clean_linker_0, # of connection points: 3
#     Node 17, Type 0, BuildingBlock: PAMTOO_clean_linker_0, # of connection points: 3
#     Node 18, Type 1, BuildingBlock: KUMBOL_clean_sbu_0, # of connection points: 6
#     Node 19, Type 1, BuildingBlock: KUMBOL_clean_sbu_0, # of connection points: 6
#     Node 20, Type 1, BuildingBlock: KUMBOL_clean_sbu_0, # of connection points: 6
#     Node 21, Type 1, BuildingBlock: KUMBOL_clean_sbu_0, # of connection points: 6
#     Node 22, Type 1, BuildingBlock: KUMBOL_clean_sbu_0, # of connection points: 6
#     Node 23, Type 1, BuildingBlock: KUMBOL_clean_sbu_0, # of connection points: 6
#     Node 24, Type 1, BuildingBlock: KUMBOL_clean_sbu_0, # of connection points: 6
#     Node 25, Type 1, BuildingBlock: KUMBOL_clean_sbu_0, # of connection points: 6
#     Node 26, Type 1, BuildingBlock: KUMBOL_clean_sbu_0, # of connection points: 6
#     Edge 27, Type (0, 1), BuildingBlock: UVAHIK_clean_linker_0, # of connection points: 2
#     Edge 28, Type (0, 1), BuildingBlock: UVAHIK_clean_linker_0, # of connection points: 2
#     Edge 29, Type (0, 1), BuildingBlock: UVAHIK_clean_linker_0, # of connection points: 2
#     Edge 30, Type (0, 1), BuildingBlock: UVAHIK_clean_linker_0, # of connection points: 2
#     Edge 31, Type (0, 1), BuildingBlock: UVAHIK_clean_linker_0, # of connection points: 2
#     Edge 32, Type (0, 1), BuildingBlock: UVAHIK_clean_linker_0, # of connection points: 2
#     Edge 33, Type (0, 1), BuildingBlock: UVAHIK_clean_linker_0, # of connection points: 2
#     Edge 34, Type (0, 1), BuildingBlock: UVAHIK_clean_linker_0, # of connection points: 2
#     Edge 35, Type (0, 1), BuildingBlock: UVAHIK_clean_linker_0, # of connection points: 2
#     Edge 36, Type (0, 1), BuildingBlock: UVAHIK_clean_linker_0, # of connection points: 2
#     Edge 37, Type (0, 1), BuildingBlock: UVAHIK_clean_linker_0, # of connection points: 2
#     Edge 38, Type (0, 1), BuildingBlock: UVAHIK_clean_linker_0, # of connection points: 2
#     Edge 39, Type (0, 1), BuildingBlock: UVAHIK_clean_linker_0, # of connection points: 2
#     Edge 40, Type (0, 1), BuildingBlock: UVAHIK_clean_linker_0, # of connection points: 2
#     Edge 41, Type (0, 1), BuildingBlock: UVAHIK_clean_linker_0, # of connection points: 2
#     Edge 42, Type (0, 1), BuildingBlock: UVAHIK_clean_linker_0, # of connection points: 2
#     Edge 43, Type (0, 1), BuildingBlock: UVAHIK_clean_linker_0, # of connection points: 2
#     Edge 44, Type (0, 1), BuildingBlock: UVAHIK_clean_linker_0, # of connection points: 2
#     Edge 45, Type (0, 1), BuildingBlock: UVAHIK_clean_linker_0, # of connection points: 2
#     Edge 46, Type (0, 1), BuildingBlock: UVAHIK_clean_linker_0, # of connection points: 2
#     Edge 47, Type (0, 1), BuildingBlock: UVAHIK_clean_linker_0, # of connection points: 2
#     Edge 48, Type (0, 1), BuildingBlock: UVAHIK_clean_linker_0, # of connection points: 2
#     Edge 49, Type (0, 1), BuildingBlock: UVAHIK_clean_linker_0, # of connection points: 2
#     Edge 50, Type (0, 1), BuildingBlock: UVAHIK_clean_linker_0, # of connection points: 2
#     Edge 51, Type (0, 1), BuildingBlock: UVAHIK_clean_linker_0, # of connection points: 2
#     Edge 52, Type (0, 1), BuildingBlock: UVAHIK_clean_linker_0, # of connection points: 2
#     Edge 53, Type (0, 1), BuildingBlock: UVAHIK_clean_linker_0, # of connection points: 2
#     Edge 54, Type (0, 1), BuildingBlock: UVAHIK_clean_linker_0, # of connection points: 2
#     Edge 55, Type (0, 1), BuildingBlock: UVAHIK_clean_linker_0, # of connection points: 2
#     Edge 56, Type (0, 1), BuildingBlock: UVAHIK_clean_linker_0, # of connection points: 2
#     Edge 57, Type (0, 1), BuildingBlock: UVAHIK_clean_linker_0, # of connection points: 2
#     Edge 58, Type (0, 1), BuildingBlock: UVAHIK_clean_linker_0, # of connection points: 2
#     Edge 59, Type (0, 1), BuildingBlock: UVAHIK_clean_linker_0, # of connection points: 2
#     Edge 60, Type (0, 1), BuildingBlock: UVAHIK_clean_linker_0, # of connection points: 2
#     Edge 61, Type (0, 1), BuildingBlock: UVAHIK_clean_linker_0, # of connection points: 2
#     Edge 62, Type (0, 1), BuildingBlock: UVAHIK_clean_linker_0, # of connection points: 2
#     Edge 63, Type (0, 1), BuildingBlock: UVAHIK_clean_linker_0, # of connection points: 2
#     Edge 64, Type (0, 1), BuildingBlock: UVAHIK_clean_linker_0, # of connection points: 2
#     Edge 65, Type (0, 1), BuildingBlock: UVAHIK_clean_linker_0, # of connection points: 2
#     Edge 66, Type (0, 1), BuildingBlock: UVAHIK_clean_linker_0, # of connection points: 2
#     Edge 67, Type (0, 1), BuildingBlock: UVAHIK_clean_linker_0, # of connection points: 2
#     Edge 68, Type (0, 1), BuildingBlock: UVAHIK_clean_linker_0, # of connection points: 2
#     Edge 69, Type (0, 1), BuildingBlock: UVAHIK_clean_linker_0, # of connection points: 2
#     Edge 70, Type (0, 1), BuildingBlock: UVAHIK_clean_linker_0, # of connection points: 2
#     Edge 71, Type (0, 1), BuildingBlock: UVAHIK_clean_linker_0, # of connection points: 2
#     Edge 72, Type (0, 1), BuildingBlock: UVAHIK_clean_linker_0, # of connection points: 2
#     Edge 73, Type (0, 1), BuildingBlock: UVAHIK_clean_linker_0, # of connection points: 2
#     Edge 74, Type (0, 1), BuildingBlock: UVAHIK_clean_linker_0, # of connection points: 2
#     Edge 75, Type (0, 1), BuildingBlock: UVAHIK_clean_linker_0, # of connection points: 2
#     Edge 76, Type (0, 1), BuildingBlock: UVAHIK_clean_linker_0, # of connection points: 2
#     Edge 77, Type (0, 1), BuildingBlock: UVAHIK_clean_linker_0, # of connection points: 2
#     Edge 78, Type (0, 1), BuildingBlock: UVAHIK_clean_linker_0, # of connection points: 2
#     Edge 79, Type (0, 1), BuildingBlock: UVAHIK_clean_linker_0, # of connection points: 2
#     Edge 80, Type (0, 1), BuildingBlock: UVAHIK_clean_linker_0, # of connection points: 2
# Relax obj value: 0.022
# Max RMSD: 0.153
# Mean RMSD: 0.113
data_MOF--net-eea--node1-KUMBOL_clean_sbu_0--node2-PAMTOO_clean_linker_0--edge1-UVAHIK_clean_linker_0
_symmetry_space_group_name_H-M    P1
_symmetry_Int_Tables_number       1
_symmetry_cell_setting            triclinic
loop_
_symmetry_equiv_pos_as_xyz
'x, y, z'
_cell_length_a     70.902333
_cell_length_b     72.459966
_cell_length_c     81.995482
_cell_angle_alpha  90.079408
_cell_angle_beta   90.216128
_cell_angle_gamma 119.91584
loop_
_atom_site_label
_atom_site_type_symbol
_atom_site_fract_x
_atom_site_fract_y
_atom_site_fract_z
_atom_type_partial_charge
H0 H 0.25861 0.09133 0.4279 0.0
H1 H 0.2574 0.15031 0.42757 0.0
H2 H 0.234 0.10859 0.38616 0.0
H3 H 0.25775 0.15168 0.37616 0.0
C4 C 0.25679 0.15999 0.38726 0.0
O5 O 0.24193 0.1453 0.39798 0.0
H6 H 0.27318 0.16842 0.39311 0.0
C7 C 0.25489 0.10246 0.42192 0.0
C8 C 0.24568 0.09762 0.40622 0.0
C9 C 0.25893 0.12126 0.43001 0.0
C10 C 0.25453 0.13572 0.42173 0.0
C11 C 0.24583 0.13121 0.4059 0.0
C12 C 0.24098 0.11202 0.39832 0.0
H13 H 0.9291 0.16417 0.42783 0.0
H14 H 0.87375 0.10096 0.42457 0.0
H15 H 0.92028 0.12433 0.38597 0.0
H16 H 0.87572 0.09807 0.37318 0.0
C17 C 0.86777 0.09034 0.38485 0.0
O18 O 0.88348 0.09257 0.39594 0.0
H19 H 0.85894 0.09845 0.38937 0.0
C20 C 0.91998 0.14928 0.42126 0.0
C21 C 0.92739 0.14659 0.40598 0.0
C22 C 0.90088 0.13284 0.42826 0.0
C23 C 0.88877 0.11368 0.4196 0.0
C24 C 0.89563 0.11091 0.4043 0.0
C25 C 0.915 0.12712 0.39763 0.0
H26 H 0.85148 0.77302 0.42814 0.0
H27 H 0.91636 0.78208 0.42845 0.0
H28 H 0.89445 0.8038 0.38773 0.0
H29 H 0.9224 0.78645 0.37766 0.0
C30 C 0.9309 0.78783 0.38941 0.0
O31 O 0.92711 0.80055 0.39993 0.0
H32 H 0.92416 0.77154 0.39456 0.0
C33 C 0.86717 0.77884 0.42236 0.0
C34 C 0.87089 0.78861 0.40699 0.0
C35 C 0.88346 0.77651 0.43031 0.0
C36 C 0.9036 0.78376 0.42254 0.0
C37 C 0.90757 0.79356 0.40722 0.0
C38 C 0.89131 0.79622 0.39957 0.0
H39 H 0.08305 0.22937 0.59731 0.0
H40 H 0.13851 0.22018 0.6003 0.0
H41 H 0.09347 0.20093 0.64002 0.0
H42 H 0.13935 0.21798 0.65152 0.0
C43 C 0.14648 0.21699 0.63972 0.0
O44 O 0.12976 0.20354 0.62935 0.0
H45 H 0.15548 0.23333 0.63452 0.0
C46 C 0.09257 0.22386 0.6039 0.0
C47 C 0.08575 0.21485 0.61949 0.0
C48 C 0.11156 0.22592 0.59676 0.0
C49 C 0.1239 0.21891 0.60553 0.0
C50 C 0.11746 0.21001 0.62109 0.0
C51 C 0.09829 0.20777 0.62797 0.0
H52 H 0.77098 0.84888 0.5954 0.0
H53 H 0.77048 0.90795 0.5992 0.0
H54 H 0.79658 0.88818 0.63832 0.0
H55 H 0.77454 0.91008 0.65064 0.0
C56 C 0.77406 0.91805 0.63919 0.0
O57 O 0.78844 0.91766 0.62812 0.0
H58 H 0.75712 0.90924 0.63429 0.0
C59 C 0.77463 0.86316 0.60217 0.0
C60 C 0.7844 0.86665 0.61766 0.0
C61 C 0.76951 0.87793 0.59536 0.0
C62 C 0.77438 0.89641 0.60419 0.0
C63 C 0.78393 0.89991 0.61968 0.0
C64 C 0.78896 0.88513 0.62638 0.0
H65 H 0.16007 0.92342 0.59923 0.0
H66 H 0.09926 0.8642 0.59997 0.0
H67 H 0.11701 0.90768 0.64022 0.0
H68 H 0.09206 0.86478 0.65157 0.0
C69 C 0.08562 0.85654 0.63969 0.0
O70 O 0.08701 0.87114 0.62825 0.0
H71 H 0.09577 0.84951 0.6359 0.0
C72 C 0.14518 0.91237 0.6054 0.0
C73 C 0.14073 0.91784 0.6208 0.0
C74 C 0.13047 0.89308 0.59769 0.0
C75 C 0.11077 0.87927 0.60553 0.0
C76 C 0.10595 0.88464 0.62078 0.0
C77 C 0.12081 0.90392 0.62832 0.0
H78 H 0.90482 0.41398 0.76954 0.0
H79 H 0.90489 0.47326 0.76647 0.0
H80 H 0.87632 0.42738 0.72791 0.0
H81 H 0.89914 0.47031 0.71525 0.0
C82 C 0.89979 0.47922 0.72649 0.0
O83 O 0.88579 0.46522 0.73795 0.0
H84 H 0.91684 0.4873 0.73117 0.0
C85 C 0.90022 0.42423 0.76316 0.0
C86 C 0.88969 0.41792 0.74792 0.0
C87 C 0.90562 0.44403 0.77007 0.0
C88 C 0.90082 0.45788 0.7614 0.0
C89 C 0.89042 0.45183 0.74619 0.0
C90 C 0.88467 0.43188 0.73957 0.0
H91 H 0.60083 0.49456 0.76522 0.0
H92 H 0.54437 0.43214 0.7607 0.0
H93 H 0.59248 0.45546 0.72308 0.0
H94 H 0.54852 0.42788 0.70905 0.0
C95 C 0.54008 0.42148 0.72084 0.0
O96 O 0.55516 0.42362 0.73249 0.0
H97 H 0.53216 0.43089 0.72431 0.0
C98 C 0.59151 0.47984 0.75845 0.0
C99 C 0.59927 0.47718 0.74334 0.0
C100 C 0.57182 0.46369 0.76495 0.0
C101 C 0.55972 0.44471 0.75606 0.0
C102 C 0.5671 0.44192 0.74096 0.0
C103 C 0.58685 0.45803 0.73467 0.0
H104 H 0.52017 0.10541 0.76697 0.0
H105 H 0.58377 0.1119 0.7637 0.0
H106 H 0.56081 0.13615 0.72537 0.0
H107 H 0.59087 0.12276 0.71196 0.0
C108 C 0.59664 0.12005 0.72386 0.0
O109 O 0.59364 0.13187 0.73577 0.0
H110 H 0.58671 0.10273 0.72659 0.0
C111 C 0.53526 0.11079 0.7604 0.0
C112 C 0.53818 0.12094 0.74523 0.0
C113 C 0.55151 0.10742 0.76722 0.0
C114 C 0.57101 0.11428 0.75863 0.0
C115 C 0.57443 0.12478 0.74364 0.0
C116 C 0.5581 0.12822 0.73702 0.0
H117 H 0.75339 0.5651 0.93066 0.0
H118 H 0.80815 0.55476 0.93331 0.0
H119 H 0.76283 0.53513 0.97285 0.0
H120 H 0.8084 0.55119 0.98448 0.0
C121 C 0.81561 0.55038 0.97266 0.0
O122 O 0.79891 0.53739 0.9621 0.0
H123 H 0.82489 0.56684 0.96772 0.0
C124 C 0.76267 0.55921 0.93713 0.0
C125 C 0.75558 0.54983 0.95258 0.0
C126 C 0.7816 0.56116 0.92996 0.0
C127 C 0.79361 0.55362 0.93857 0.0
C128 C 0.78692 0.54435 0.95399 0.0
C129 C 0.76782 0.54226 0.9609 0.0
H130 H 0.43643 0.18404 0.93304 0.0
H131 H 0.44414 0.24659 0.93871 0.0
H132 H 0.46633 0.22109 0.97637 0.0
H133 H 0.44998 0.24829 0.99073 0.0
C134 C 0.44835 0.25488 0.97891 0.0
O135 O 0.46178 0.25327 0.96757 0.0
H136 H 0.43097 0.24542 0.97503 0.0
C137 C 0.44221 0.19861 0.94 0.0
C138 C 0.45198 0.20051 0.95535 0.0
C139 C 0.43925 0.21509 0.93376 0.0
C140 C 0.44598 0.23354 0.94324 0.0
C141 C 0.45545 0.23547 0.9586 0.0
C142 C 0.45858 0.21911 0.96459 0.0
H143 H 0.82724 0.25923 0.93003 0.0
H144 H 0.76495 0.20152 0.93067 0.0
H145 H 0.78442 0.24523 0.97097 0.0
H146 H 0.75912 0.2022 0.98255 0.0
C147 C 0.75226 0.19399 0.97073 0.0
O148 O 0.75378 0.20869 0.95935 0.0
H149 H 0.76194 0.18652 0.96673 0.0
C150 C 0.81194 0.24882 0.93602 0.0
C151 C 0.80779 0.25452 0.95141 0.0
C152 C 0.79656 0.22986 0.92829 0.0
C153 C 0.777 0.21627 0.93636 0.0
C154 C 0.77267 0.22185 0.9517 0.0
C155 C 0.78789 0.24109 0.95908 0.0
H156 H 0.58804 0.75789 0.10094 0.0
H157 H 0.58962 0.81771 0.09494 0.0
H158 H 0.56421 0.77127 0.05662 0.0
H159 H 0.58856 0.81446 0.04421 0.0
C160 C 0.58744 0.82329 0.05493 0.0
O161 O 0.57241 0.80906 0.06578 0.0
H162 H 0.60383 0.83199 0.06075 0.0
C163 C 0.58473 0.76843 0.09367 0.0
C164 C 0.57536 0.76189 0.07805 0.0
C165 C 0.59008 0.78858 0.09991 0.0
C166 C 0.5858 0.80218 0.09036 0.0
C167 C 0.57642 0.79583 0.07485 0.0
C168 C 0.57115 0.77576 0.06876 0.0
H169 H 0.26546 0.83221 0.09579 0.0
H170 H 0.21155 0.76801 0.09382 0.0
H171 H 0.25896 0.79047 0.05588 0.0
H172 H 0.21533 0.76189 0.04227 0.0
C173 C 0.20695 0.75574 0.05411 0.0
O174 O 0.22219 0.75877 0.06592 0.0
H175 H 0.19855 0.76481 0.0572 0.0
C176 C 0.25706 0.8168 0.08985 0.0
C177 C 0.26504 0.81358 0.07502 0.0
C178 C 0.23791 0.80048 0.09691 0.0
C179 C 0.22632 0.78089 0.08868 0.0
C180 C 0.23379 0.77756 0.07383 0.0
C181 C 0.25322 0.79367 0.06717 0.0
H182 H 0.18916 0.43834 0.10053 0.0
H183 H 0.25289 0.44516 0.09705 0.0
H184 H 0.22967 0.46942 0.0589 0.0
H185 H 0.25758 0.45255 0.04638 0.0
C186 C 0.26603 0.45298 0.05795 0.0
O187 O 0.26265 0.46529 0.06919 0.0
H188 H 0.25893 0.43634 0.06244 0.0
C189 C 0.20425 0.44385 0.09393 0.0
C190 C 0.20712 0.45411 0.0788 0.0
C191 C 0.22056 0.44045 0.10063 0.0
C192 C 0.2401 0.44755 0.09205 0.0
C193 C 0.24344 0.4581 0.07709 0.0
C194 C 0.22702 0.46145 0.07054 0.0
H195 H 0.41666 0.89822 0.2619 0.0
H196 H 0.47173 0.88844 0.26511 0.0
H197 H 0.42562 0.86801 0.30413 0.0
H198 H 0.46951 0.88011 0.31739 0.0
C199 C 0.47744 0.88287 0.30528 0.0
O200 O 0.4619 0.87056 0.29373 0.0
H201 H 0.48457 0.9001 0.30239 0.0
C202 C 0.42591 0.89238 0.26846 0.0
C203 C 0.41866 0.88289 0.28386 0.0
C204 C 0.445 0.8945 0.26147 0.0
C205 C 0.45703 0.88711 0.27022 0.0
C206 C 0.45005 0.87758 0.28553 0.0
C207 C 0.43078 0.87527 0.29224 0.0
H208 H 0.10167 0.516 0.2693 0.0
H209 H 0.10786 0.57822 0.27262 0.0
H210 H 0.13001 0.55508 0.31199 0.0
H211 H 0.11254 0.58128 0.3246 0.0
C212 C 0.11137 0.58804 0.31272 0.0
O213 O 0.12513 0.58649 0.30166 0.0
H214 H 0.09414 0.57874 0.30847 0.0
C215 C 0.10666 0.5307 0.27592 0.0
C216 C 0.11633 0.53357 0.29142 0.0
C217 C 0.10352 0.54669 0.26889 0.0
C218 C 0.1099 0.56555 0.27774 0.0
C219 C 0.11931 0.56841 0.29323 0.0
C220 C 0.12274 0.55261 0.29996 0.0
H221 H 0.48631 0.59157 0.25946 0.0
H222 H 0.42697 0.53167 0.26454 0.0
H223 H 0.44793 0.57815 0.30301 0.0
H224 H 0.42505 0.53509 0.31641 0.0
C225 C 0.41742 0.52625 0.30494 0.0
O226 O 0.41762 0.54024 0.29343 0.0
H227 H 0.42704 0.51891 0.30056 0.0
C228 C 0.47193 0.58109 0.26643 0.0
C229 C 0.469 0.58748 0.28195 0.0
C230 C 0.45693 0.56106 0.25998 0.0
C231 C 0.43881 0.54714 0.26934 0.0
C232 C 0.43561 0.55336 0.28481 0.0
C233 C 0.45068 0.57346 0.2911 0.0
Gd234 Gd 0.51163 0.01241 0.03138 0.0
Gd235 Gd 0.49379 0.99166 0.98969 0.0
C236 C 0.42418 0.9676 0.97162 0.0
C237 C 0.40526 0.93122 0.98155 0.0
C238 C 0.44406 0.95397 0.98665 0.0
C239 C 0.44362 0.97058 0.97883 0.0
C240 C 0.42498 0.93388 0.9877 0.0
C241 C 0.40486 0.94807 0.97352 0.0
C242 C 0.42501 0.98392 0.96201 0.0
C243 C 0.44508 0.00201 0.95896 0.0
N244 N 0.46262 0.98906 0.977 0.0
C245 C 0.46389 0.00399 0.96618 0.0
H246 H 0.4795 0.01762 0.96337 0.0
C247 C 0.46498 0.94042 0.99859 0.0
N248 N 0.46339 0.95714 0.99247 0.0
C249 C 0.44659 0.92015 0.99971 0.0
C250 C 0.42642 0.91693 0.99446 0.0
H251 H 0.48028 0.94251 0.00285 0.0
H252 H 0.38971 0.94557 0.96828 0.0
H253 H 0.55815 0.0117 0.02643 0.0
H254 H 0.41046 0.98225 0.95624 0.0
H255 H 0.44611 0.01428 0.95088 0.0
H256 H 0.39038 0.91601 0.98249 0.0
H257 H 0.4892 0.03802 0.0494 0.0
H258 H 0.6116 0.07473 0.03358 0.0
H259 H 0.59761 0.03662 0.02747 0.0
H260 H 0.57694 0.11428 0.04945 0.0
H261 H 0.44795 0.90708 0.00477 0.0
H262 H 0.41218 0.90124 0.99544 0.0
H263 H 0.60369 0.1038 0.04127 0.0
H264 H 0.49987 0.07449 0.05871 0.0
N265 N 0.54961 0.03532 0.03191 0.0
C266 C 0.5942 0.0638 0.03326 0.0
C267 C 0.58637 0.0423 0.02985 0.0
C268 C 0.57949 0.07084 0.0366 0.0
C269 C 0.55701 0.05595 0.03598 0.0
C270 C 0.56391 0.02819 0.02927 0.0
N271 N 0.52079 0.04662 0.04086 0.0
C272 C 0.54206 0.06187 0.04043 0.0
C273 C 0.51189 0.07122 0.05345 0.0
C274 C 0.53349 0.08749 0.05199 0.0
C275 C 0.5059 0.05064 0.04818 0.0
C276 C 0.54902 0.0828 0.04582 0.0
H277 H 0.53816 0.10337 0.05624 0.0
O278 O 0.49477 0.00283 0.05469 0.0
O279 O 0.48596 0.98622 0.01612 0.0
O280 O 0.48199 0.01484 0.99563 0.0
O281 O 0.50272 0.03462 0.01829 0.0
O282 O 0.47588 0.00041 0.03356 0.0
O283 O 0.52439 0.002 0.05128 0.0
O284 O 0.498 0.97079 0.97284 0.0
O285 O 0.52204 0.01277 0.00573 0.0
O286 O 0.5192 0.98612 0.0269 0.0
O287 O 0.51256 0.97633 0.99945 0.0
O288 O 0.51857 0.02539 0.98377 0.0
O289 O 0.50789 0.00297 0.96574 0.0
C290 C 0.46952 0.9859 0.02247 0.0
C291 C 0.57128 0.09804 0.04556 0.0
C292 C 0.58651 0.09206 0.04096 0.0
C293 C 0.50942 0.99961 0.06155 0.0
C294 C 0.517 0.009 0.07788 0.0
C295 C 0.53232 0.03069 0.0796 0.0
C296 C 0.50921 0.99615 0.09188 0.0
C297 C 0.51682 0.00491 0.10753 0.0
C298 C 0.53967 0.03953 0.09503 0.0
C299 C 0.53201 0.0268 0.1089 0.0
C300 C 0.48951 0.03137 0.00575 0.0
C301 C 0.53032 0.02912 0.99669 0.0
C302 C 0.5043 0.98443 0.96091 0.0
C303 C 0.49307 0.97699 0.94497 0.0
C304 C 0.47447 0.95678 0.94333 0.0
C305 C 0.50076 0.99049 0.93127 0.0
C306 C 0.49004 0.98393 0.91604 0.0
C307 C 0.46393 0.95009 0.92829 0.0
C308 C 0.47163 0.96345 0.91475 0.0
C309 C 0.51956 0.9751 0.01417 0.0
H310 H 0.53873 0.04076 0.06904 0.0
H311 H 0.49761 0.97931 0.09053 0.0
H312 H 0.55141 0.05632 0.09624 0.0
H313 H 0.5379 0.03415 0.12073 0.0
H314 H 0.46799 0.94613 0.95365 0.0
H315 H 0.51483 0.00625 0.93261 0.0
H316 H 0.44968 0.93444 0.92711 0.0
H317 H 0.46322 0.9576 0.90322 0.0
Gd318 Gd 0.99674 0.49541 0.03669 0.0
Gd319 Gd 0.02404 0.49894 0.99738 0.0
C320 C 0.0839 0.49101 0.99453 0.0
C321 C 0.11225 0.52665 0.98718 0.0
C322 C 0.07493 0.51887 0.99055 0.0
C323 C 0.06859 0.49805 0.99454 0.0
C324 C 0.09672 0.53328 0.98642 0.0
C325 C 0.10585 0.50556 0.99124 0.0
C326 C 0.07658 0.46946 0.99739 0.0
C327 C 0.0544 0.45541 0.9996 0.0
N328 N 0.04722 0.48439 0.99753 0.0
C329 C 0.03983 0.46313 0.99943 0.0
H330 H 0.02276 0.4521 1.00126 0.0
C331 C 0.06434 0.54412 0.98375 0.0
N332 N 0.05949 0.52466 0.98976 0.0
C333 C 0.08575 0.55904 0.97961 0.0
C334 C 0.10208 0.5537 0.98116 0.0
H335 H 0.05175 0.54832 0.98264 0.0
H336 H 0.11789 0.50051 0.99139 0.0
H337 H 0.99746 0.54199 0.03211 0.0
H338 H 0.08783 0.46344 0.99756 0.0
H339 H 0.04852 0.43864 1.00154 0.0
H340 H 0.12912 0.53756 0.98422 0.0
H341 H 0.97004 0.44796 0.05451 0.0
H342 H 0.93227 0.5303 0.0353 0.0
H343 H 0.97156 0.55518 0.03132 0.0
H344 H 0.89166 0.45684 0.0506 0.0
H345 H 0.08965 0.57463 0.97525 0.0
H346 H 0.11864 0.56524 0.97789 0.0
H347 H 0.90241 0.49335 0.04209 0.0
H348 H 0.93245 0.42188 0.06276 0.0
N349 N 0.97318 0.50966 0.03608 0.0
C350 C 0.9436 0.52437 0.03568 0.0
C351 C 0.96576 0.53847 0.03347 0.0
C352 C 0.93643 0.50294 0.03892 0.0
C353 C 0.95185 0.49605 0.03919 0.0
C354 C 0.98043 0.53087 0.03394 0.0
N355 N 0.96152 0.47027 0.04535 0.0
C356 C 0.9458 0.4756 0.04393 0.0
C357 C 0.93594 0.43687 0.05737 0.0
C358 C 0.91927 0.44157 0.055 0.0
C359 C 0.95718 0.45166 0.05272 0.0
C360 C 0.92417 0.46135 0.04856 0.0
H361 H 0.90285 0.43016 0.05872 0.0
O362 O 1.00362 0.48917 0.06128 0.0
O363 O 0.02359 0.494 0.02405 0.0
O364 O 0.99703 0.465 1.00234 0.0
O365 O 0.97393 0.46597 0.02236 0.0
O366 O 0.00894 0.47258 0.04266 0.0
O367 O 0.00881 0.52038 0.05505 0.0
O368 O 0.01819 0.50676 0.97303 0.0
O369 O 0.99672 0.49968 0.00988 0.0
O370 O 0.023 0.52938 0.03044 0.0
O371 O 0.04734 0.52636 0.01313 0.0
O372 O 0.01192 0.5219 0.99178 0.0
O373 O 0.01347 0.47532 0.97804 0.0
C374 C 0.02423 0.47942 0.03198 0.0
C375 C 0.90843 0.46765 0.04731 0.0
C376 C 0.91455 0.48844 0.04248 0.0
C377 C 0.00848 0.50795 0.06666 0.0
C378 C 0.99796 0.5084 0.08194 0.0
C379 C 0.97651 0.50452 0.08195 0.0
C380 C 0.00942 0.51253 0.09672 0.0
C381 C 0.99951 0.51271 0.11155 0.0
C382 C 0.96654 0.50458 0.09655 0.0
C383 C 0.97789 0.50858 0.11128 0.0
C384 C 0.97843 0.45631 0.01052 0.0
C385 C 0.99611 0.51434 1.00204 0.0
C386 C 0.01386 0.48841 0.96695 0.0
C387 C 0.0247 0.48916 0.95154 0.0
C388 C 0.04606 0.49281 0.95136 0.0
C389 C 0.01356 0.48646 0.93677 0.0
C390 C 0.02366 0.48745 0.92178 0.0
C391 C 0.05624 0.49392 0.93657 0.0
C392 C 0.04518 0.49129 0.92186 0.0
C393 C 0.04251 0.53715 0.02371 0.0
H394 H 0.96749 0.50147 0.07071 0.0
H395 H 0.02611 0.51585 0.09661 0.0
H396 H 0.94993 0.50143 0.09647 0.0
H397 H 0.96963 0.5082 0.12246 0.0
H398 H 0.05485 0.49478 0.96258 0.0
H399 H 0.99692 0.48329 0.93701 0.0
H400 H 0.07278 0.49685 0.93651 0.0
H401 H 0.05355 0.49247 0.91056 0.0
Gd402 Gd 0.50718 0.51669 0.99399 0.0
Gd403 Gd 0.52917 0.51209 0.0339 0.0
C404 C 0.59586 0.51732 0.03907 0.0
C405 C 0.58621 0.48137 0.04698 0.0
C406 C 0.558 0.49056 0.04242 0.0
C407 C 0.57358 0.5111 0.03847 0.0
C408 C 0.56412 0.47557 0.0471 0.0
C409 C 0.60206 0.50221 0.04295 0.0
C410 C 0.61124 0.53867 0.03619 0.0
C411 C 0.60425 0.55331 0.03341 0.0
N412 N 0.567 0.52531 0.03491 0.0
C413 C 0.58197 0.54638 0.03302 0.0
H414 H 0.57686 0.55789 0.03076 0.0
C415 C 0.52111 0.46634 0.04831 0.0
N416 N 0.53686 0.48558 0.04253 0.0
C417 C 0.52634 0.45088 0.053 0.0
C418 C 0.54792 0.45541 0.0522 0.0
H419 H 0.50438 0.46271 0.04885 0.0
H420 H 0.61908 0.50663 0.04328 0.0
H421 H 0.45944 0.47085 0.996 0.0
H422 H 0.62851 0.54407 0.03647 0.0
H423 H 0.61601 0.56993 0.03147 0.0
H424 H 0.59124 0.47001 0.05037 0.0
H425 H 0.5324 0.56664 0.98007 0.0
H426 H 0.40796 0.4849 0.99026 0.0
H427 H 0.4203 0.45883 0.99478 0.0
H428 H 0.44563 0.55952 0.97819 0.0
H429 H 0.51375 0.43547 0.05721 0.0
H430 H 0.55195 0.44343 0.05588 0.0
H431 H 0.41758 0.52263 0.98435 0.0
H432 H 0.52328 0.59426 0.97236 0.0
N433 N 0.4694 0.50357 0.99258 0.0
C434 C 0.42521 0.49029 0.99075 0.0
C435 C 0.43212 0.47553 0.99327 0.0
C436 C 0.44068 0.51174 0.98843 0.0
C437 C 0.46293 0.51793 0.98928 0.0
C438 C 0.45439 0.48244 0.99395 0.0
N439 N 0.49976 0.54355 0.98581 0.0
C440 C 0.47863 0.53861 0.98579 0.0
C441 C 0.51057 0.5787 0.97617 0.0
C442 C 0.48899 0.57416 0.97684 0.0
C443 C 0.51567 0.56302 0.98049 0.0
C444 C 0.47264 0.5538 0.98143 0.0
H445 H 0.48506 0.5863 0.97342 0.0
O446 O 0.52151 0.52385 0.96983 0.0
O447 O 0.53474 0.5172 0.0073 0.0
O448 O 0.53853 0.54628 0.02771 0.0
O449 O 0.51168 0.54396 0.00994 0.0
O450 O 0.54299 0.53931 0.98908 0.0
O451 O 0.49447 0.49242 0.97507 0.0
O452 O 0.51425 0.50535 0.05784 0.0
O453 O 0.50149 0.5113 0.02055 0.0
O454 O 0.49778 0.4824 1.00007 0.0
O455 O 0.52409 0.48439 0.01835 0.0
O456 O 0.49343 0.48924 0.03883 0.0
O457 O 0.54239 0.53621 0.05292 0.0
C458 C 0.55067 0.53178 0.99979 0.0
C459 C 0.45056 0.54802 0.98135 0.0
C460 C 0.43459 0.52702 0.98485 0.0
C461 C 0.50759 0.50518 0.96395 0.0
C462 C 0.49775 0.50507 0.94811 0.0
C463 C 0.48101 0.50998 0.94702 0.0
C464 C 0.50535 0.50017 0.93387 0.0
C465 C 0.4963 0.50017 0.91853 0.0
C466 C 0.47198 0.51005 0.9319 0.0
C467 C 0.47955 0.50522 0.91773 0.0
C468 C 0.52733 0.55441 0.02081 0.0
C469 C 0.48565 0.49654 0.02803 0.0
C470 C 0.52876 0.52365 0.06389 0.0
C471 C 0.53799 0.52289 0.07979 0.0
C472 C 0.55583 0.5196 0.08084 0.0
C473 C 0.52851 0.52508 0.09412 0.0
C474 C 0.53678 0.52404 0.10953 0.0
C475 C 0.56409 0.51847 0.09605 0.0
C476 C 0.55466 0.52066 0.11031 0.0
C477 C 0.50858 0.47406 0.00735 0.0
H478 H 0.47495 0.51377 0.95782 0.0
H479 H 0.51813 0.49615 0.93481 0.0
H480 H 0.45912 0.51396 0.93114 0.0
H481 H 0.47247 0.50573 0.90614 0.0
H482 H 0.56336 0.5179 0.06996 0.0
H483 H 0.51487 0.52787 0.09323 0.0
H484 H 0.57781 0.51584 0.09678 0.0
H485 H 0.56124 0.51947 0.12195 0.0
Gd486 Gd 0.17482 0.34459 0.36636 0.0
Gd487 Gd 0.15901 0.32592 0.32407 0.0
C488 C 0.08976 0.30205 0.30521 0.0
C489 C 0.07085 0.26531 0.31432 0.0
C490 C 0.10951 0.28807 0.31997 0.0
C491 C 0.1091 0.30491 0.31251 0.0
C492 C 0.0905 0.26788 0.32055 0.0
C493 C 0.07048 0.28239 0.30666 0.0
C494 C 0.09064 0.31867 0.29595 0.0
C495 C 0.11068 0.33698 0.29335 0.0
N496 N 0.12806 0.32354 0.31111 0.0
C497 C 0.12941 0.33886 0.30065 0.0
H498 H 0.14499 0.35276 0.29825 0.0
C499 C 0.1304 0.27426 0.33154 0.0
N500 N 0.12877 0.29115 0.3259 0.0
C501 C 0.11207 0.25389 0.3322 0.0
C502 C 0.09195 0.25074 0.32692 0.0
H503 H 0.1457 0.27624 0.33564 0.0
H504 H 0.05539 0.27998 0.30135 0.0
H505 H 0.21959 0.34049 0.36233 0.0
H506 H 0.07616 0.31711 0.29014 0.0
H507 H 0.11176 0.34954 0.28558 0.0
H508 H 0.05602 0.25001 0.31491 0.0
H509 H 0.15479 0.37262 0.38413 0.0
H510 H 0.27552 0.40187 0.36991 0.0
H511 H 0.25937 0.36345 0.36382 0.0
H512 H 0.24481 0.44527 0.38483 0.0
H513 H 0.11347 0.24067 0.33689 0.0
H514 H 0.07775 0.23498 0.32753 0.0
H515 H 0.26991 0.43251 0.3772 0.0
H516 H 0.16759 0.4096 0.39332 0.0
N517 N 0.21302 0.36554 0.36741 0.0
C518 C 0.25799 0.39181 0.36936 0.0
C519 C 0.24893 0.37013 0.36594 0.0
C520 C 0.24428 0.40014 0.37239 0.0
C521 C 0.22158 0.38635 0.37149 0.0
C522 C 0.2263 0.35715 0.36507 0.0
N523 N 0.18593 0.3793 0.37584 0.0
C524 C 0.20753 0.39355 0.37562 0.0
C525 C 0.17898 0.40537 0.38821 0.0
C526 C 0.20099 0.42067 0.38691 0.0
C527 C 0.17179 0.38451 0.383 0.0
C528 C 0.21568 0.41471 0.38097 0.0
H529 H 0.20659 0.43676 0.39113 0.0
O530 O 0.15788 0.33647 0.38967 0.0
O531 O 0.14964 0.31933 0.35022 0.0
O532 O 0.14727 0.3491 0.33003 0.0
O533 O 0.1665 0.36736 0.35361 0.0
O534 O 0.13909 0.33312 0.36765 0.0
O535 O 0.18563 0.33235 0.38633 0.0
O536 O 0.16448 0.30602 0.30705 0.0
O537 O 0.18661 0.34616 0.34095 0.0
O538 O 0.17967 0.31659 0.36198 0.0
O539 O 0.17812 0.31094 0.3339 0.0
O540 O 0.18407 0.3599 0.31929 0.0
O541 O 0.17327 0.33806 0.30028 0.0
C542 C 0.13304 0.31904 0.35624 0.0
C543 C 0.23823 0.42887 0.38097 0.0
C544 C 0.25253 0.42159 0.37669 0.0
C545 C 0.17125 0.33147 0.39656 0.0
C546 C 0.17943 0.3405 0.41291 0.0
C547 C 0.19515 0.36205 0.41471 0.0
C548 C 0.17186 0.32744 0.42681 0.0
C549 C 0.18008 0.33587 0.44245 0.0
C550 C 0.20309 0.37057 0.43013 0.0
C551 C 0.19564 0.35764 0.4439 0.0
C552 C 0.15415 0.36495 0.34072 0.0
C553 C 0.19532 0.36295 0.33239 0.0
C554 C 0.17068 0.31992 0.29531 0.0
C555 C 0.16022 0.31253 0.27914 0.0
C556 C 0.14139 0.29252 0.27723 0.0
C557 C 0.16912 0.32571 0.26538 0.0
C558 C 0.15963 0.31881 0.24983 0.0
C559 C 0.13192 0.28564 0.26185 0.0
C560 C 0.14101 0.29859 0.24822 0.0
C561 C 0.1823 0.3074 0.34895 0.0
H562 H 0.20141 0.37227 0.40422 0.0
H563 H 0.15997 0.31069 0.4254 0.0
H564 H 0.21513 0.38726 0.4314 0.0
H565 H 0.202 0.36476 0.45573 0.0
H566 H 0.13397 0.28216 0.28759 0.0
H567 H 0.18359 0.34121 0.26675 0.0
H568 H 0.11745 0.27019 0.26048 0.0
H569 H 0.1333 0.29294 0.23642 0.0
Gd570 Gd 0.66585 0.829 0.35964 0.0
Gd571 Gd 0.69006 0.83597 0.31909 0.0
C572 C 0.69248 0.78432 0.2883 0.0
C573 C 0.72555 0.78577 0.29818 0.0
C574 C 0.7143 0.81005 0.30898 0.0
C575 C 0.6961 0.80083 0.29921 0.0
C576 C 0.72973 0.80321 0.30815 0.0
C577 C 0.70691 0.77632 0.28825 0.0
C578 C 0.6751 0.77709 0.27726 0.0
C579 C 0.66258 0.78706 0.27679 0.0
N580 N 0.68288 0.80934 0.29941 0.0
C581 C 0.66702 0.80355 0.28778 0.0
H582 H 0.65734 0.81124 0.28723 0.0
C583 C 0.73775 0.83944 0.32534 0.0
N584 N 0.71792 0.8271 0.31811 0.0
C585 C 0.75363 0.83335 0.32492 0.0
C586 C 0.74938 0.81481 0.31665 0.0
H587 H 0.74126 0.85378 0.33183 0.0
H588 H 0.70428 0.76344 0.28011 0.0
H589 H 0.66361 0.87517 0.36122 0.0
H590 H 0.67177 0.76445 0.26866 0.0
H591 H 0.64957 0.78211 0.26794 0.0
H592 H 0.73705 0.78007 0.29754 0.0
H593 H 0.64123 0.7792 0.37489 0.0
H594 H 0.59709 0.8584 0.36524 0.0
H595 H 0.63591 0.88567 0.36282 0.0
H596 H 0.56015 0.78323 0.37377 0.0
H597 H 0.76907 0.84289 0.33108 0.0
H598 H 0.76169 0.81013 0.31634 0.0
H599 H 0.56889 0.8201 0.36879 0.0
H600 H 0.60416 0.75081 0.38162 0.0
N601 N 0.64101 0.84168 0.36199 0.0
C602 C 0.60926 0.85355 0.36451 0.0
C603 C 0.63114 0.86897 0.36315 0.0
C604 C 0.60341 0.8321 0.36558 0.0
C605 C 0.61989 0.82659 0.36454 0.0
C606 C 0.6469 0.86278 0.36208 0.0
N607 N 0.63136 0.80132 0.36761 0.0
C608 C 0.61491 0.80579 0.36734 0.0
C609 C 0.6069 0.76613 0.37746 0.0
C610 C 0.58949 0.76986 0.37588 0.0
C611 C 0.62792 0.78228 0.37364 0.0
C612 C 0.59343 0.79005 0.37122 0.0
H613 H 0.57323 0.75736 0.37895 0.0
O614 O 0.69262 0.83956 0.37705 0.0
O615 O 0.69258 0.82927 0.34521 0.0
O616 O 0.66417 0.80116 0.32112 0.0
O617 O 0.64416 0.79957 0.34448 0.0
O618 O 0.67483 0.80321 0.35996 0.0
O619 O 0.66142 0.83308 0.38546 0.0
O620 O 0.71869 0.86248 0.30833 0.0
O621 O 0.66811 0.84228 0.33501 0.0
O622 O 0.68743 0.86388 0.35375 0.0
O623 O 0.71215 0.86164 0.33698 0.0
O624 O 0.65757 0.83168 0.31141 0.0
O625 O 0.68702 0.85452 0.2994 0.0
C626 C 0.69125 0.81218 0.35029 0.0
C627 C 0.57679 0.79519 0.37108 0.0
C628 C 0.58177 0.81619 0.36827 0.0
C629 C 0.68083 0.83741 0.38969 0.0
C630 C 0.68231 0.82492 0.40332 0.0
C631 C 0.67905 0.8044 0.40058 0.0
C632 C 0.68686 0.8334 0.41922 0.0
C633 C 0.68794 0.82132 0.43229 0.0
C634 C 0.68022 0.79246 0.41342 0.0
C635 C 0.68463 0.80081 0.42917 0.0
C636 C 0.64712 0.79133 0.33091 0.0
C637 C 0.65255 0.83684 0.32502 0.0
C638 C 0.70784 0.8657 0.29703 0.0
C639 C 0.71592 0.86733 0.28018 0.0
C640 C 0.73839 0.87941 0.27736 0.0
C641 C 0.70171 0.85718 0.26691 0.0
C642 C 0.70995 0.859 0.25101 0.0
C643 C 0.74662 0.8812 0.26167 0.0
C644 C 0.73256 0.8711 0.24858 0.0
C645 C 0.70698 0.87247 0.34721 0.0
H646 H 0.67564 0.79748 0.38858 0.0
H647 H 0.68929 0.8492 0.42142 0.0
H648 H 0.67778 0.77669 0.41115 0.0
H649 H 0.68578 0.7913 0.43889 0.0
H650 H 0.74964 0.88749 0.28733 0.0
H651 H 0.68434 0.84774 0.26893 0.0
H652 H 0.76398 0.89056 0.25963 0.0
H653 H 0.7394 0.87312 0.23649 0.0
Gd654 Gd 0.171 0.84971 0.326 0.0
Gd655 Gd 0.19325 0.84588 0.36617 0.0
C656 C 0.26079 0.85303 0.37074 0.0
C657 C 0.2522 0.81732 0.37851 0.0
C658 C 0.22322 0.82553 0.37425 0.0
C659 C 0.23837 0.84625 0.3703 0.0
C660 C 0.22997 0.81096 0.37883 0.0
C661 C 0.26759 0.83832 0.37444 0.0
C662 C 0.2757 0.87451 0.36786 0.0
C663 C 0.26814 0.88874 0.36524 0.0
N664 N 0.23123 0.86007 0.36691 0.0
C665 C 0.24574 0.88127 0.36502 0.0
H666 H 0.24018 0.89245 0.36288 0.0
C667 C 0.18665 0.80067 0.38057 0.0
N668 N 0.20193 0.82 0.37458 0.0
C669 C 0.19251 0.78562 0.38518 0.0
C670 C 0.21423 0.79068 0.38408 0.0
H671 H 0.16982 0.79667 0.38133 0.0
H672 H 0.28473 0.84317 0.37463 0.0
H673 H 0.12386 0.80323 0.32955 0.0
H674 H 0.29306 0.88034 0.36801 0.0
H675 H 0.27954 0.90546 0.36331 0.0
H676 H 0.2577 0.8063 0.3818 0.0
H677 H 0.19348 0.89708 0.30799 0.0
H678 H 0.07104 0.81541 0.32473 0.0
H679 H 0.08457 0.7903 0.32935 0.0
H680 H 0.10629 0.88895 0.30952 0.0
H681 H 0.18028 0.77013 0.38953 0.0
H682 H 0.21875 0.77902 0.3877 0.0
H683 H 0.07935 0.85249 0.31773 0.0
H684 H 0.18306 0.92342 0.29911 0.0
N685 N 0.13291 0.83566 0.32553 0.0
C686 C 0.08839 0.82123 0.32478 0.0
C687 C 0.09597 0.807 0.32735 0.0
C688 C 0.10329 0.84265 0.32173 0.0
C689 C 0.12571 0.84939 0.32203 0.0
C690 C 0.11837 0.81446 0.32745 0.0
N691 N 0.1619 0.87498 0.31661 0.0
C692 C 0.14076 0.86981 0.31747 0.0
C693 C 0.17101 0.90846 0.30437 0.0
C694 C 0.14954 0.90393 0.30617 0.0
C695 C 0.17685 0.89353 0.30938 0.0
C696 C 0.13397 0.88419 0.31243 0.0
H697 H 0.145 0.91544 0.30217 0.0
O698 O 0.18538 0.856 0.30183 0.0
O699 O 0.19864 0.85078 0.33956 0.0
O700 O 0.20157 0.87988 0.36073 0.0
O701 O 0.17837 0.87937 0.33998 0.0
O702 O 0.2067 0.87232 0.32089 0.0
O703 O 0.15838 0.82486 0.30751 0.0
O704 O 0.17827 0.83831 0.39011 0.0
O705 O 0.16567 0.84538 0.35277 0.0
O706 O 0.16205 0.81574 0.33258 0.0
O707 O 0.18857 0.81821 0.35079 0.0
O708 O 0.15763 0.8229 0.37086 0.0
O709 O 0.20614 0.86947 0.38559 0.0
C710 C 0.21449 0.86528 0.33191 0.0
C711 C 0.11181 0.87804 0.31312 0.0
C712 C 0.09648 0.85728 0.31778 0.0
C713 C 0.17132 0.83728 0.29619 0.0
C714 C 0.16115 0.83695 0.28045 0.0
C715 C 0.14355 0.84064 0.2797 0.0
C716 C 0.16925 0.83313 0.266 0.0
C717 C 0.15981 0.83296 0.25079 0.0
C718 C 0.13419 0.84062 0.26471 0.0
C719 C 0.14224 0.83685 0.25034 0.0
C720 C 0.19251 0.88887 0.35202 0.0
C721 C 0.1499 0.83056 0.36029 0.0
C722 C 0.19253 0.85655 0.39642 0.0
C723 C 0.2018 0.85557 0.41226 0.0
C724 C 0.21879 0.851 0.41311 0.0
C725 C 0.19331 0.8589 0.42671 0.0
C726 C 0.20171 0.85764 0.44203 0.0
C727 C 0.22709 0.84956 0.42819 0.0
C728 C 0.21862 0.85279 0.44256 0.0
C729 C 0.17306 0.80766 0.33986 0.0
H730 H 0.13703 0.84351 0.29066 0.0
H731 H 0.18269 0.83002 0.26666 0.0
H732 H 0.12068 0.8436 0.26422 0.0
H733 H 0.13485 0.83724 0.23886 0.0
H734 H 0.22562 0.84852 0.40215 0.0
H735 H 0.18038 0.86274 0.42598 0.0
H736 H 0.24011 0.84587 0.42875 0.0
H737 H 0.2252 0.85127 0.4541 0.0
Gd738 Gd 0.84507 0.68339 0.70114 0.0
Gd739 Gd 0.82374 0.65882 0.66037 0.0
C740 C 0.7563 0.6003 0.65392 0.0
C741 C 0.76509 0.5732 0.6458 0.0
C742 C 0.79395 0.6095 0.651 0.0
C743 C 0.77871 0.61534 0.65485 0.0
C744 C 0.78733 0.58851 0.64601 0.0
C745 C 0.74959 0.57908 0.64977 0.0
C746 C 0.74133 0.60718 0.65675 0.0
C747 C 0.74887 0.62871 0.6598 0.0
N748 N 0.78579 0.63601 0.65867 0.0
C749 C 0.77127 0.64303 0.6605 0.0
H750 H 0.77682 0.65958 0.66297 0.0
C751 C 0.83074 0.62047 0.64541 0.0
N752 N 0.81525 0.62474 0.6512 0.0
C753 C 0.82501 0.59985 0.64042 0.0
C754 C 0.80324 0.58371 0.64093 0.0
H755 H 0.8476 0.63286 0.64509 0.0
H756 H 0.73245 0.56725 0.64918 0.0
H757 H 0.89178 0.68206 0.69974 0.0
H758 H 0.72398 0.59612 0.65622 0.0
H759 H 0.73744 0.63428 0.6617 0.0
H760 H 0.75967 0.55692 0.64217 0.0
H761 H 0.82116 0.7101 0.71486 0.0
H762 H 0.94485 0.74524 0.70707 0.0
H763 H 0.93116 0.707 0.70179 0.0
H764 H 0.90946 0.78534 0.71902 0.0
H765 H 0.83739 0.59641 0.63621 0.0
H766 H 0.79883 0.56777 0.63701 0.0
H767 H 0.93659 0.77447 0.71323 0.0
H768 H 0.8315 0.74683 0.72303 0.0
N769 N 0.88301 0.70589 0.70345 0.0
C770 C 0.92749 0.73433 0.70622 0.0
C771 C 0.91982 0.71276 0.70327 0.0
C772 C 0.91262 0.74147 0.70845 0.0
C773 C 0.89019 0.72662 0.70712 0.0
C774 C 0.89741 0.69864 0.70212 0.0
N775 N 0.85365 0.71769 0.70982 0.0
C776 C 0.87501 0.73274 0.71037 0.0
C777 C 0.8439 0.7431 0.71944 0.0
C778 C 0.86577 0.75901 0.71933 0.0
C779 C 0.83811 0.72232 0.71487 0.0
C780 C 0.88169 0.75387 0.71502 0.0
H781 H 0.87023 0.77508 0.72294 0.0
O782 O 0.82965 0.67615 0.72494 0.0
O783 O 0.8176 0.65829 0.68691 0.0
O784 O 0.81542 0.68454 0.66692 0.0
O785 O 0.84211 0.70725 0.68539 0.0
O786 O 0.80941 0.67227 0.70531 0.0
O787 O 0.85583 0.66972 0.72007 0.0
O788 O 0.83995 0.6678 0.6369 0.0
O789 O 0.85127 0.68378 0.67464 0.0
O790 O 0.85343 0.65768 0.69474 0.0
O791 O 0.82771 0.63509 0.67556 0.0
O792 O 0.85936 0.6699 0.65605 0.0
O793 O 0.81159 0.67093 0.64119 0.0
C794 C 0.80173 0.65774 0.69419 0.0
C795 C 0.90399 0.76897 0.71563 0.0
C796 C 0.91944 0.76278 0.71235 0.0
C797 C 0.84254 0.66986 0.73097 0.0
C798 C 0.85193 0.67842 0.74716 0.0
C799 C 0.8683 0.69972 0.74893 0.0
C800 C 0.84443 0.66523 0.761 0.0
C801 C 0.85335 0.67328 0.77658 0.0
C802 C 0.87711 0.70784 0.76427 0.0
C803 C 0.86973 0.69479 0.77799 0.0
C804 C 0.82692 0.70327 0.6743 0.0
C805 C 0.86709 0.68422 0.66733 0.0
C806 C 0.82587 0.67231 0.63056 0.0
C807 C 0.81758 0.66326 0.61425 0.0
C808 C 0.80124 0.64192 0.6125 0.0
C809 C 0.82668 0.67579 0.60025 0.0
C810 C 0.81978 0.6669 0.58457 0.0
C811 C 0.79425 0.63307 0.59701 0.0
C812 C 0.8035 0.6454 0.58312 0.0
C813 C 0.84253 0.63911 0.687 0.0
H814 H 0.87426 0.71009 0.73848 0.0
H815 H 0.8319 0.6487 0.75959 0.0
H816 H 0.88968 0.72435 0.76553 0.0
H817 H 0.87668 0.70165 0.78977 0.0
H818 H 0.79397 0.63207 0.62308 0.0
H819 H 0.83942 0.69227 0.60156 0.0
H820 H 0.78166 0.61656 0.59577 0.0
H821 H 0.79776 0.63818 0.57123 0.0
Gd822 Gd 0.32771 0.16269 0.70335 0.0
Gd823 Gd 0.35424 0.16388 0.66419 0.0
C824 C 0.41417 0.15601 0.66087 0.0
C825 C 0.44196 0.19107 0.65185 0.0
C826 C 0.4048 0.1834 0.65599 0.0
C827 C 0.3988 0.16298 0.66083 0.0
C828 C 0.42633 0.19758 0.65111 0.0
C829 C 0.43588 0.17032 0.65673 0.0
C830 C 0.40712 0.13473 0.66463 0.0
C831 C 0.38512 0.12085 0.6677 0.0
N832 N 0.37767 0.14957 0.66471 0.0
C833 C 0.37049 0.1285 0.66747 0.0
H834 H 0.35358 0.11756 0.66992 0.0
C835 C 0.39379 0.20821 0.64879 0.0
N836 N 0.38927 0.18909 0.65531 0.0
C837 C 0.41493 0.22288 0.64387 0.0
C838 C 0.43136 0.21764 0.64523 0.0
H839 H 0.38115 0.21236 0.64783 0.0
H840 H 0.44797 0.16533 0.65688 0.0
H841 H 0.32742 0.2086 0.69846 0.0
H842 H 0.41842 0.12877 0.66485 0.0
H843 H 0.37941 0.10426 0.67031 0.0
H844 H 0.45864 0.2018 0.64831 0.0
H845 H 0.30135 0.11376 0.71921 0.0
H846 H 0.26193 0.19584 0.70289 0.0
H847 H 0.30095 0.22117 0.69814 0.0
H848 H 0.22258 0.12216 0.71782 0.0
H849 H 0.41856 0.2382 0.63908 0.0
H850 H 0.44772 0.229 0.64137 0.0
H851 H 0.2327 0.15872 0.70992 0.0
H852 H 0.2639 0.08703 0.72716 0.0
N853 N 0.30368 0.17627 0.70301 0.0
C854 C 0.27351 0.19021 0.70308 0.0
C855 C 0.29552 0.20456 0.70043 0.0
C856 C 0.26679 0.16888 0.70638 0.0
C857 C 0.28251 0.16237 0.70641 0.0
C858 C 0.3105 0.19733 0.70062 0.0
N859 N 0.29271 0.13669 0.71178 0.0
C860 C 0.27683 0.14189 0.71092 0.0
C861 C 0.2673 0.10237 0.72255 0.0
C862 C 0.25055 0.10713 0.72101 0.0
C863 C 0.28848 0.11754 0.7181 0.0
C864 C 0.25526 0.12722 0.7154 0.0
H865 H 0.23417 0.09539 0.72455 0.0
O866 O 0.33457 0.15718 0.72814 0.0
O867 O 0.35453 0.16076 0.69105 0.0
O868 O 0.32807 0.13031 0.67147 0.0
O869 O 0.30405 0.13462 0.68823 0.0
O870 O 0.34002 0.14013 0.71013 0.0
O871 O 0.33959 0.18819 0.72126 0.0
O872 O 0.34897 0.16959 0.63898 0.0
O873 O 0.3279 0.16634 0.67655 0.0
O874 O 0.35367 0.19634 0.69617 0.0
O875 O 0.37771 0.19252 0.67899 0.0
O876 O 0.34184 0.18633 0.6571 0.0
O877 O 0.34013 0.13771 0.64695 0.0
C878 C 0.35529 0.14662 0.69947 0.0
C879 C 0.2393 0.13327 0.71459 0.0
C880 C 0.24505 0.15408 0.71009 0.0
C881 C 0.33946 0.17615 0.73313 0.0
C882 C 0.32927 0.17711 0.74844 0.0
C883 C 0.30777 0.17306 0.74863 0.0
C884 C 0.3411 0.18181 0.76309 0.0
C885 C 0.33151 0.18239 0.77798 0.0
C886 C 0.29813 0.17357 0.76329 0.0
C887 C 0.30985 0.17815 0.77788 0.0
C888 C 0.3086 0.12314 0.67812 0.0
C889 C 0.32692 0.18027 0.66801 0.0
C890 C 0.34216 0.14994 0.63462 0.0
C891 C 0.35164 0.14677 0.61968 0.0
C892 C 0.36886 0.14245 0.6204 0.0
C893 C 0.34278 0.14733 0.60447 0.0
C894 C 0.35062 0.14298 0.59011 0.0
C895 C 0.37685 0.13838 0.60612 0.0
C896 C 0.36767 0.13844 0.59104 0.0
C897 C 0.37302 0.20383 0.68921 0.0
H898 H 0.29843 0.16948 0.73751 0.0
H899 H 0.35781 0.1852 0.76284 0.0
H900 H 0.28148 0.1703 0.76335 0.0
H901 H 0.30182 0.17806 0.78911 0.0
H902 H 0.37593 0.14192 0.63195 0.0
H903 H 0.32939 0.15052 0.60385 0.0
H904 H 0.39004 0.13494 0.60677 0.0
H905 H 0.3739 0.13502 0.58009 0.0
Gd906 Gd 0.83607 0.17932 0.65929 0.0
Gd907 Gd 0.8582 0.17496 0.69929 0.0
C908 C 0.92584 0.18235 0.70384 0.0
C909 C 0.91737 0.14658 0.71129 0.0
C910 C 0.88829 0.15467 0.70711 0.0
C911 C 0.9034 0.17547 0.70334 0.0
C912 C 0.89511 0.14011 0.71156 0.0
C913 C 0.93271 0.16767 0.70741 0.0
C914 C 0.94069 0.2039 0.70115 0.0
C915 C 0.93305 0.21808 0.69865 0.0
N916 N 0.89619 0.18927 0.70006 0.0
C917 C 0.91063 0.21051 0.69835 0.0
H918 H 0.90499 0.22166 0.6963 0.0
C919 C 0.85172 0.12961 0.71328 0.0
N920 N 0.86697 0.14904 0.70742 0.0
C921 C 0.85765 0.11457 0.71775 0.0
C922 C 0.87941 0.11973 0.71666 0.0
H923 H 0.83487 0.12555 0.71403 0.0
H924 H 0.94987 0.17259 0.70765 0.0
H925 H 0.78863 0.13318 0.66301 0.0
H926 H 0.95806 0.2098 0.70135 0.0
H927 H 0.9444 0.23485 0.69686 0.0
H928 H 0.92292 0.13557 0.7145 0.0
H929 H 0.85932 0.22684 0.64154 0.0
H930 H 0.73634 0.14605 0.65764 0.0
H931 H 0.74942 0.12067 0.6627 0.0
H932 H 0.7724 0.2194 0.64184 0.0
H933 H 0.84545 0.09901 0.72199 0.0
H934 H 0.88398 0.10808 0.72018 0.0
H935 H 0.74512 0.18315 0.65023 0.0
H936 H 0.84927 0.2532 0.63203 0.0
N937 N 0.79807 0.16564 0.6587 0.0
C938 C 0.75365 0.15168 0.65778 0.0
C939 C 0.76098 0.13731 0.66058 0.0
C940 C 0.76876 0.17301 0.65459 0.0
C941 C 0.79112 0.17952 0.65502 0.0
C942 C 0.78333 0.14452 0.66074 0.0
N943 N 0.82749 0.20486 0.64978 0.0
C944 C 0.80637 0.19986 0.6504 0.0
C945 C 0.83705 0.23831 0.63728 0.0
C946 C 0.81561 0.23396 0.63882 0.0
C947 C 0.84268 0.22336 0.64264 0.0
C948 C 0.79984 0.21434 0.64513 0.0
H949 H 0.81126 0.24553 0.6346 0.0
O950 O 0.85059 0.18547 0.63517 0.0
O951 O 0.86374 0.18021 0.67272 0.0
O952 O 0.86624 0.20896 0.69408 0.0
O953 O 0.84247 0.20836 0.6738 0.0
O954 O 0.8718 0.20215 0.65437 0.0
O955 O 0.82316 0.15454 0.64076 0.0
O956 O 0.8434 0.16714 0.72329 0.0
O957 O 0.83057 0.17452 0.68603 0.0
O958 O 0.82683 0.14524 0.6657 0.0
O959 O 0.85342 0.14741 0.68368 0.0
O960 O 0.82258 0.15195 0.70402 0.0
O961 O 0.87114 0.19841 0.71879 0.0
C962 C 0.87959 0.1949 0.66522 0.0
C963 C 0.77773 0.20841 0.64564 0.0
C964 C 0.7622 0.18777 0.6504 0.0
C965 C 0.83632 0.16685 0.62949 0.0
C966 C 0.82639 0.16676 0.61368 0.0
C967 C 0.80888 0.17058 0.61284 0.0
C968 C 0.83459 0.16297 0.59927 0.0
C969 C 0.82535 0.16298 0.58401 0.0
C970 C 0.79974 0.17076 0.5978 0.0
C971 C 0.80789 0.16702 0.58347 0.0
C972 C 0.85651 0.21776 0.68593 0.0
C973 C 0.81479 0.15967 0.69355 0.0
C974 C 0.85761 0.18539 0.72961 0.0
C975 C 0.86698 0.18449 0.74541 0.0
C976 C 0.88381 0.17969 0.74627 0.0
C977 C 0.85878 0.18824 0.75984 0.0
C978 C 0.86729 0.18715 0.77515 0.0
C979 C 0.89225 0.17846 0.76136 0.0
C980 C 0.88406 0.18212 0.77571 0.0
C981 C 0.8378 0.137 0.6728 0.0
H982 H 0.80227 0.17341 0.62376 0.0
H983 H 0.84795 0.15976 0.59999 0.0
H984 H 0.7863 0.17384 0.59724 0.0
H985 H 0.80065 0.16753 0.57195 0.0
H986 H 0.89041 0.17688 0.73533 0.0
H987 H 0.84599 0.19227 0.75908 0.0
H988 H 0.90516 0.17462 0.76194 0.0
H989 H 0.89074 0.18078 0.78726 0.0
C990 C 0.28814 0.83347 0.05073 0.0
C991 C 0.28555 0.83101 0.06777 0.0
C992 C 0.30731 0.84991 0.04403 0.0
C993 C 0.35182 0.90326 0.05234 0.0
H994 H 0.38594 0.89117 0.02178 0.0
C995 C 0.44505 0.94818 0.03013 0.0
C996 C 0.44766 0.96718 0.02359 0.0
C997 C 0.42427 0.93116 0.03336 0.0
C998 C 0.37644 0.89474 0.03019 0.0
H999 H 0.3017 0.84393 0.09101 0.0
H1000 H 0.33454 0.87307 0.07926 0.0
H1001 H 0.35118 0.86202 0.03178 0.0
H1002 H 0.43102 0.98403 0.01625 0.0
H1003 H 0.39443 0.9542 0.02211 0.0
H1004 H 0.37702 0.93594 0.05079 0.0
C1005 C 0.32165 0.86217 0.07116 0.0
C1006 C 0.3566 0.87814 0.03586 0.0
C1007 C 0.30272 0.84551 0.07787 0.0
C1008 C 0.42925 0.96922 0.02081 0.0
C1009 C 0.40844 0.95227 0.02422 0.0
C1010 C 0.3714 0.91991 0.04641 0.0
C1011 C 0.32414 0.86452 0.05419 0.0
C1012 C 0.34432 0.88222 0.04722 0.0
C1013 C 0.4058 0.93312 0.03059 0.0
C1014 C 0.38406 0.91575 0.0355 0.0
H1015 H 0.27524 0.82294 0.0425 0.0
H1016 H 0.30882 0.85149 0.03089 0.0
H1017 H 0.34257 0.90681 0.06103 0.0
H1018 H 0.45913 0.94668 0.03308 0.0
H1019 H 0.42269 0.91673 0.03857 0.0
C1020 C 0.19314 0.47614 0.06482 0.0
C1021 C 0.18911 0.45678 0.0718 0.0
C1022 C 0.17586 0.47886 0.05938 0.0
C1023 C 0.11622 0.45609 0.06519 0.0
H1024 H 0.11989 0.4889 0.02681 0.0
C1025 C 0.04093 0.4575 0.03986 0.0
C1026 C 0.04365 0.47709 0.03457 0.0
C1027 C 0.05899 0.45525 0.04351 0.0
C1028 C 0.11869 0.47985 0.03765 0.0
H1029 H 0.16374 0.42472 0.0776 0.0
H1030 H 0.13385 0.42932 0.06802 0.0
H1031 H 0.15085 0.48454 0.03453 0.0
H1032 H 0.06746 0.51004 0.02982 0.0
H1033 H 0.09909 0.50614 0.03604 0.0
H1034 H 0.08417 0.45135 0.06835 0.0
C1035 C 0.15025 0.44269 0.06717 0.0
C1036 C 0.13646 0.47736 0.0421 0.0
C1037 C 0.16745 0.44001 0.07265 0.0
C1038 C 0.06486 0.49457 0.03335 0.0
C1039 C 0.08298 0.49232 0.03697 0.0
C1040 C 0.09852 0.45852 0.06074 0.0
C1041 C 0.15411 0.46226 0.06071 0.0
C1042 C 0.13543 0.46532 0.0559 0.0
C1043 C 0.08028 0.47265 0.04221 0.0
C1044 C 0.09942 0.47034 0.04687 0.0
H1045 H 0.2096 0.48942 0.06406 0.0
H1046 H 0.17952 0.49421 0.05459 0.0
H1047 H 0.11492 0.44715 0.07611 0.0
H1048 H 0.02476 0.44385 0.04114 0.0
H1049 H 0.05624 0.43982 0.04736 0.0
C1050 C 0.55118 0.72823 0.06238 0.0
C1051 C 0.57038 0.7408 0.07136 0.0
C1052 C 0.54654 0.70842 0.05613 0.0
C1053 C 0.57257 0.67638 0.04582 0.0
H1054 H 0.51355 0.62885 0.04785 0.0
C1055 C 0.55136 0.58935 0.03474 0.0
C1056 C 0.53256 0.57622 0.02553 0.0
C1057 C 0.55605 0.60974 0.03951 0.0
C1058 C 0.53006 0.64202 0.04701 0.0
H1059 H 0.59993 0.74246 0.08053 0.0
H1060 H 0.59157 0.70774 0.07006 0.0
H1061 H 0.52151 0.66375 0.05779 0.0
H1062 H 0.50386 0.57423 0.01425 0.0
H1063 H 0.51217 0.60987 0.02247 0.0
H1064 H 0.58114 0.65453 0.03525 0.0
C1065 C 0.58019 0.71328 0.06766 0.0
C1066 C 0.53464 0.66205 0.05269 0.0
C1067 C 0.58485 0.73309 0.07387 0.0
C1068 C 0.51858 0.58397 0.0212 0.0
C1069 C 0.52323 0.60434 0.02604 0.0
C1070 C 0.56801 0.65634 0.0402 0.0
C1071 C 0.56098 0.70067 0.05871 0.0
C1072 C 0.55598 0.67947 0.05225 0.0
C1073 C 0.54199 0.61744 0.03529 0.0
C1074 C 0.54672 0.6389 0.0408 0.0
H1075 H 0.53958 0.73358 0.06033 0.0
H1076 H 0.53171 0.69925 0.04915 0.0
H1077 H 0.58911 0.68951 0.045 0.0
H1078 H 0.56247 0.58389 0.03832 0.0
H1079 H 0.57049 0.61933 0.0468 0.0
C1080 C 0.8461 0.27883 0.96063 0.0
C1081 C 0.82448 0.27444 0.95938 0.0
C1082 C 0.86217 0.29803 0.96738 0.0
C1083 C 0.87646 0.35327 0.97297 0.0
H1084 H 0.91792 0.35532 0.00498 0.0
C1085 C 0.95694 0.43017 0.98867 0.0
C1086 C 0.96121 0.43495 0.00534 0.0
C1087 C 0.93984 0.41039 0.98362 0.0
C1088 C 0.9064 0.35497 0.99609 0.0
H1089 H 0.80262 0.28653 0.9643 0.0
H1090 H 0.83091 0.32043 0.97588 0.0
H1091 H 0.88825 0.32083 0.99559 0.0
H1092 H 0.95179 0.4225 0.02973 0.0
H1093 H 0.92197 0.38785 0.02096 0.0
H1094 H 0.89485 0.38739 0.97322 0.0
C1095 C 0.83533 0.3089 0.97171 0.0
C1096 C 0.88952 0.33527 0.99067 0.0
C1097 C 0.81916 0.28951 0.9652 0.0
C1098 C 0.9485 0.41942 0.01686 0.0
C1099 C 0.93161 0.39951 0.01182 0.0
C1100 C 0.89354 0.37296 0.97819 0.0
C1101 C 0.85701 0.31337 0.9728 0.0
C1102 C 0.8744 0.33423 0.97904 0.0
C1103 C 0.92696 0.3949 0.99515 0.0
C1104 C 0.9087 0.374 0.98978 0.0
H1105 H 0.85058 0.26741 0.95631 0.0
H1106 H 0.87876 0.30111 0.96797 0.0
H1107 H 0.86513 0.35292 0.96391 0.0
H1108 H 0.9665 0.4419 0.97954 0.0
H1109 H 0.93675 0.40717 0.97069 0.0
C1110 C 0.71963 0.52932 0.96729 0.0
C1111 C 0.73549 0.5482 0.95986 0.0
C1112 C 0.70007 0.52746 0.97295 0.0
C1113 C 0.66498 0.55175 0.96704 0.0
H1114 H 0.63565 0.52025 0.00592 0.0
C1115 C 0.58986 0.55299 0.99233 0.0
C1116 C 0.5723 0.53364 0.99762 0.0
C1117 C 0.60999 0.55471 0.98886 0.0
C1118 C 0.64355 0.52895 0.99496 0.0
H1119 H 0.74364 0.58034 0.95345 0.0
H1120 H 0.70993 0.57726 0.96343 0.0
H1121 H 0.67041 0.5234 0.998 0.0
H1122 H 0.56184 0.50061 0.0028 0.0
H1123 H 0.59708 0.5036 0.9969 0.0
H1124 H 0.63826 0.55733 0.96395 0.0
C1125 C 0.71218 0.56359 0.96448 0.0
C1126 C 0.66349 0.53075 0.99039 0.0
C1127 C 0.73161 0.5654 0.95878 0.0
C1128 C 0.57524 0.51591 0.99921 0.0
C1129 C 0.59544 0.51763 0.99578 0.0
C1130 C 0.64517 0.55002 0.97162 0.0
C1131 C 0.69591 0.54448 0.97138 0.0
C1132 C 0.67456 0.54227 0.97639 0.0
C1133 C 0.61303 0.53701 0.99038 0.0
C1134 C 0.63419 0.53868 0.98566 0.0
H1135 H 0.72202 0.51571 0.96824 0.0
H1136 H 0.68792 0.51243 0.97807 0.0
H1137 H 0.67262 0.5603 0.95597 0.0
H1138 H 0.58798 0.56684 0.99082 0.0
H1139 H 0.6232 0.56995 0.98491 0.0
C1140 C 0.46217 0.1723 0.95107 0.0
C1141 C 0.45529 0.18307 0.96162 0.0
C1142 C 0.46483 0.15559 0.95677 0.0
C1143 C 0.47344 0.13232 0.99405 0.0
H1144 H 0.45348 0.08236 0.96655 0.0
C1145 C 0.47742 0.05722 0.01386 0.0
C1146 C 0.48436 0.04819 1.00181 0.0
C1147 C 0.47277 0.07333 0.00982 0.0
C1148 C 0.4593 0.09626 0.97433 0.0
H1149 H 0.44588 0.18471 0.98649 0.0
H1150 H 0.45068 0.15554 0.99647 0.0
H1151 H 0.44762 0.11124 0.95789 0.0
H1152 H 0.49315 0.04967 0.97643 0.0
H1153 H 0.48478 0.07736 0.96926 0.0
H1154 H 0.48535 0.11735 0.0104 0.0
C1155 C 0.45415 0.16018 0.9838 0.0
C1156 C 0.45595 0.11282 0.96935 0.0
C1157 C 0.45143 0.1769 0.97808 0.0
C1158 C 0.48694 0.05572 0.98578 0.0
C1159 C 0.48228 0.07171 0.98172 0.0
C1160 C 0.47683 0.11572 0.99903 0.0
C1161 C 0.46073 0.14924 0.97317 0.0
C1162 C 0.46326 0.13118 0.97903 0.0
C1163 C 0.47502 0.08064 0.99365 0.0
C1164 C 0.47008 0.09764 0.98909 0.0
H1165 H 0.46571 0.17691 0.9384 0.0
H1166 H 0.47035 0.14778 0.94834 0.0
H1167 H 0.4794 0.14633 1.00172 0.0
H1168 H 0.47519 0.05158 0.02629 0.0
H1169 H 0.46709 0.0798 0.01927 0.0
C1170 C 0.7137 0.18288 0.97885 0.0
C1171 C 0.72879 0.17721 0.97318 0.0
C1172 C 0.69207 0.16725 0.98171 0.0
C1173 C 0.65154 0.11105 0.97174 0.0
H1174 H 0.62101 0.11549 0.00937 0.0
C1175 C 0.56935 0.0413 0.9925 0.0
C1176 C 0.55313 0.04614 0.99661 0.0
C1177 C 0.59075 0.0576 0.99012 0.0
C1178 C 0.62929 0.11414 0.99874 0.0
H1179 H 0.73323 0.1508 0.96621 0.0
H1180 H 0.69567 0.12348 0.97141 0.0
H1181 H 0.65842 0.14347 0.00411 0.0
H1182 H 0.54591 0.07149 1.0005 0.0
H1183 H 0.58362 0.10022 0.99672 0.0
H1184 H 0.62252 0.08164 0.96648 0.0
C1185 C 0.70031 0.14 0.97335 0.0
C1186 C 0.6507 0.13019 0.99569 0.0
C1187 C 0.72188 0.15563 0.97044 0.0
C1188 C 0.55843 0.06749 0.99789 0.0
C1189 C 0.57992 0.08384 0.99571 0.0
C1190 C 0.63023 0.095 0.97484 0.0
C1191 C 0.6851 0.14558 0.97904 0.0
C1192 C 0.66214 0.1288 0.98217 0.0
C1193 C 0.59628 0.07906 0.99163 0.0
C1194 C 0.61889 0.09631 0.9884 0.0
H1195 H 0.71871 0.19944 0.98111 0.0
H1196 H 0.68078 0.17217 0.98589 0.0
H1197 H 0.65964 0.10962 0.96104 0.0
H1198 H 0.56536 0.02489 0.99091 0.0
H1199 H 0.60299 0.05339 0.98706 0.0
C1200 C 0.83746 0.53968 0.99094 0.0
C1201 C 0.83142 0.54227 0.97513 0.0
C1202 C 0.85391 0.53457 0.99336 0.0
C1203 C 0.90206 0.5379 0.97273 0.0
H1204 H 0.9006 0.50251 0.00868 0.0
C1205 C 0.97883 0.53564 0.99376 0.0
C1206 C 0.97648 0.5162 0.99908 0.0
C1207 C 0.96053 0.53761 0.99043 0.0
C1208 C 0.90122 0.51227 0.99848 0.0
H1209 H 0.83783 0.54146 0.94946 0.0
H1210 H 0.86624 0.53206 0.95357 0.0
H1211 H 0.86926 0.50704 0.0034 0.0
H1212 H 0.95317 0.48316 0.00397 0.0
H1213 H 0.92111 0.4865 0.99816 0.0
H1214 H 0.93387 0.54291 0.96765 0.0
C1215 C 0.85843 0.53417 0.96417 0.0
C1216 C 0.8833 0.51508 0.99555 0.0
C1217 C 0.84199 0.53932 0.96177 0.0
C1218 C 0.95545 0.49851 1.00038 0.0
C1219 C 0.93709 0.50045 0.99702 0.0
C1220 C 0.91995 0.53509 0.97564 0.0
C1221 C 0.86486 0.53201 0.98002 0.0
C1222 C 0.8835 0.52807 0.9827 0.0
C1223 C 0.93937 0.52008 0.99206 0.0
C1224 C 0.91988 0.52238 0.98863 0.0
H1225 H 0.82986 0.54218 1.0015 0.0
H1226 H 0.85855 0.5334 0.00574 0.0
H1227 H 0.90303 0.54823 0.96284 0.0
H1228 H 0.99488 0.54944 0.99242 0.0
H1229 H 0.96301 0.55303 0.98682 0.0
C1230 C 0.44287 0.28615 0.9733 0.0
C1231 C 0.45473 0.27788 0.98105 0.0
C1232 C 0.44887 0.30755 0.97532 0.0
C1233 C 0.49511 0.35995 0.98676 0.0
H1234 H 0.45036 0.3743 0.99609 0.0
C1235 C 0.51567 0.44352 0.0089 0.0
C1236 C 0.50273 0.45191 0.00327 0.0
C1237 C 0.50994 0.42248 0.00547 0.0
C1238 C 0.46304 0.37063 0.99326 0.0
H1239 H 0.48256 0.28543 0.99639 0.0
H1240 H 0.49312 0.32293 1.00002 0.0
H1241 H 0.4402 0.33726 0.9913 0.0
H1242 H 0.47393 0.44485 0.98917 0.0
H1243 H 0.4642 0.40826 0.98288 0.0
H1244 H 0.51795 0.39329 0.98866 0.0
C1245 C 0.47914 0.3129 0.99243 0.0
C1246 C 0.45721 0.34938 0.99054 0.0
C1247 C 0.47305 0.29147 0.99047 0.0
C1248 C 0.48418 0.43888 0.99381 0.0
C1249 C 0.47851 0.41783 0.99029 0.0
C1250 C 0.50094 0.38121 0.9894 0.0
C1251 C 0.46703 0.32115 0.98496 0.0
C1252 C 0.47319 0.3438 0.98737 0.0
C1253 C 0.49125 0.40934 0.99616 0.0
C1254 C 0.48499 0.3868 0.99279 0.0
H1255 H 0.4289 0.27602 0.96574 0.0
H1256 H 0.43943 0.31352 0.9692 0.0
H1257 H 0.50777 0.35619 0.9841 0.0
H1258 H 0.53028 0.45318 0.01599 0.0
H1259 H 0.52003 0.41644 0.01034 0.0
C1260 C 0.16967 0.724 0.05915 0.0
C1261 C 0.19055 0.73239 0.05246 0.0
C1262 C 0.15415 0.70252 0.05693 0.0
C1263 C 0.14107 0.65677 0.02976 0.0
H1264 H 0.09972 0.62414 0.06358 0.0
C1265 C 0.08136 0.56662 0.02321 0.0
C1266 C 0.05969 0.55912 0.02795 0.0
C1267 C 0.09755 0.58746 0.02677 0.0
C1268 C 0.11104 0.63311 0.05397 0.0
H1269 H 0.21204 0.72488 0.03901 0.0
H1270 H 0.18508 0.68719 0.0353 0.0
H1271 H 0.12789 0.66087 0.06904 0.0
H1272 H 0.03823 0.56758 0.04059 0.0
H1273 H 0.06654 0.604 0.04684 0.0
H1274 H 0.12424 0.62901 0.01471 0.0
C1275 C 0.18044 0.69727 0.04188 0.0
C1276 C 0.12719 0.65417 0.05709 0.0
C1277 C 0.19592 0.71878 0.04406 0.0
C1278 C 0.05472 0.57283 0.0367 0.0
C1279 C 0.07097 0.59369 0.04035 0.0
C1280 C 0.12499 0.63572 0.02667 0.0
C1281 C 0.15925 0.68892 0.0481 0.0
C1282 C 0.14238 0.6663 0.045 0.0
C1283 C 0.09254 0.6013 0.0353 0.0
C1284 C 0.10974 0.62364 0.03872 0.0
H1285 H 0.16522 0.73417 0.06581 0.0
H1286 H 0.13798 0.69672 0.06178 0.0
H1287 H 0.1522 0.66573 0.02006 0.0
H1288 H 0.08592 0.55638 0.0168 0.0
H1289 H 0.11407 0.59269 0.02296 0.0
C1290 C 0.30421 0.4645 0.0681 0.0
C1291 C 0.2901 0.4616 0.05504 0.0
C1292 C 0.32597 0.47024 0.06525 0.0
C1293 C 0.36941 0.49112 0.03331 0.0
H1294 H 0.39343 0.46358 0.05992 0.0
C1295 C 0.45969 0.51081 0.02846 0.0
C1296 C 0.4635 0.49359 0.02965 0.0
C1297 C 0.43888 0.50791 0.03135 0.0
C1298 C 0.38697 0.47132 0.05227 0.0
H1299 H 0.28774 0.46237 0.02874 0.0
H1300 H 0.32551 0.47217 0.02371 0.0
H1301 H 0.35694 0.45709 0.06533 0.0
H1302 H 0.44881 0.46009 0.0353 0.0
H1303 H 0.41251 0.45487 0.04007 0.0
H1304 H 0.39935 0.50484 0.01994 0.0
C1305 C 0.32002 0.4705 0.03621 0.0
C1306 C 0.36607 0.46783 0.05555 0.0
C1307 C 0.2983 0.46481 0.03908 0.0
C1308 C 0.44624 0.47357 0.03408 0.0
C1309 C 0.42548 0.47064 0.03695 0.0
C1310 C 0.39037 0.49461 0.03003 0.0
C1311 C 0.33414 0.47304 0.04924 0.0
C1312 C 0.35689 0.47758 0.04608 0.0
C1313 C 0.42149 0.48778 0.03575 0.0
C1314 C 0.39939 0.48463 0.0394 0.0
H1315 H 0.29826 0.4619 0.08051 0.0
H1316 H 0.33634 0.47231 0.07563 0.0
H1317 H 0.36305 0.4991 0.02584 0.0
H1318 H 0.47286 0.52657 0.02555 0.0
H1319 H 0.43654 0.52155 0.0305 0.0
C1320 C 0.58399 0.85571 0.06024 0.0
C1321 C 0.58076 0.83912 0.0497 0.0
C1322 C 0.57794 0.87056 0.05547 0.0
C1323 C 0.5427 0.8788 0.02644 0.0
H1324 H 0.58042 0.93824 0.0377 0.0
C1325 C 0.52578 0.94545 0.00482 0.0
C1326 C 0.52811 0.96036 0.01681 0.0
C1327 C 0.53297 0.93093 0.00782 0.0
C1328 C 0.56964 0.92168 0.03455 0.0
H1329 H 0.56809 0.82449 0.02616 0.0
H1330 H 0.55775 0.85061 0.01765 0.0
H1331 H 0.59114 0.91217 0.04503 0.0
H1332 H 0.54027 0.97189 0.04126 0.0
H1333 H 0.55266 0.94667 0.04641 0.0
H1334 H 0.52116 0.88838 0.01603 0.0
C1335 C 0.56489 0.85217 0.02963 0.0
C1336 C 0.57575 0.90672 0.03879 0.0
C1337 C 0.57093 0.8373 0.03443 0.0
C1338 C 0.53815 0.96065 0.03172 0.0
C1339 C 0.54541 0.94625 0.03466 0.0
C1340 C 0.5366 0.8938 0.02217 0.0
C1341 C 0.56844 0.86906 0.04006 0.0
C1342 C 0.56225 0.88505 0.03496 0.0
C1343 C 0.5428 0.93113 0.02281 0.0
C1344 C 0.54989 0.91538 0.02635 0.0
H1345 H 0.59125 0.8572 0.07217 0.0
H1346 H 0.58051 0.8831 0.06394 0.0
H1347 H 0.5318 0.86222 0.02346 0.0
H1348 H 0.51813 0.94476 0.99321 0.0
H1349 H 0.5309 0.91958 0.99838 0.0
C1350 C 0.96556 0.17772 0.40898 0.0
C1351 C 0.94797 0.16405 0.39883 0.0
C1352 C 0.98456 0.19443 0.4024 0.0
C1353 C 0.01894 0.21161 0.36689 0.0
H1354 H 0.04045 0.26886 0.38356 0.0
C1355 C 0.09287 0.30286 0.35404 0.0
C1356 C 0.11105 0.30042 0.35672 0.0
C1357 C 0.07188 0.28594 0.35698 0.0
C1358 C 0.03452 0.25299 0.37869 0.0
H1359 H 0.93703 0.1575 0.37359 0.0
H1360 H 0.97073 0.18611 0.36215 0.0
H1361 H 0.0058 0.23966 0.39344 0.0
H1362 H 0.1219 0.27909 0.36547 0.0
H1363 H 0.08515 0.24919 0.3701 0.0
H1364 H 0.04821 0.22485 0.35269 0.0
C1365 C 0.96948 0.18386 0.37524 0.0
C1366 C 0.01482 0.2363 0.38441 0.0
C1367 C 0.95024 0.16738 0.38184 0.0
C1368 C 0.10801 0.28096 0.36259 0.0
C1369 C 0.08706 0.26396 0.36534 0.0
C1370 C 0.0389 0.22824 0.36143 0.0
C1371 C 0.9867 0.19766 0.38548 0.0
C1372 C 0.00694 0.21544 0.37866 0.0
C1373 C 0.06882 0.26637 0.36275 0.0
C1374 C 0.04691 0.24905 0.36737 0.0
H1375 H 0.96482 0.17544 0.42205 0.0
H1376 H 0.99776 0.2047 0.41053 0.0
H1377 H 0.01321 0.19563 0.36233 0.0
H1378 H 0.09496 0.318 0.34998 0.0
H1379 H 0.05806 0.28821 0.35503 0.0
C1380 C 0.83268 0.7725 0.39638 0.0
C1381 C 0.85321 0.79058 0.39882 0.0
C1382 C 0.81555 0.77432 0.38957 0.0
C1383 C 0.80277 0.81276 0.36809 0.0
H1384 H 0.74431 0.77338 0.38286 0.0
C1385 C 0.72904 0.82633 0.36091 0.0
C1386 C 0.71031 0.80963 0.35361 0.0
C1387 C 0.7466 0.8236 0.36522 0.0
C1388 C 0.76053 0.78437 0.37852 0.0
H1389 H 0.87199 0.82476 0.39603 0.0
H1390 H 0.84196 0.82825 0.38486 0.0
H1391 H 0.7747 0.76977 0.39281 0.0
H1392 H 0.69451 0.7766 0.34617 0.0
H1393 H 0.72524 0.77162 0.35398 0.0
H1394 H 0.78835 0.82793 0.35445 0.0
C1395 C 0.83908 0.81246 0.38764 0.0
C1396 C 0.77805 0.78227 0.38413 0.0
C1397 C 0.85636 0.81054 0.39414 0.0
C1398 C 0.70905 0.78985 0.35136 0.0
C1399 C 0.72653 0.787 0.35589 0.0
C1400 C 0.78527 0.8151 0.36274 0.0
C1401 C 0.81831 0.79438 0.38535 0.0
C1402 C 0.79951 0.79643 0.37903 0.0
C1403 C 0.74553 0.8039 0.36278 0.0
C1404 C 0.76398 0.80094 0.36792 0.0
H1405 H 0.82989 0.75688 0.39975 0.0
H1406 H 0.80013 0.7599 0.38765 0.0
H1407 H 0.81884 0.82376 0.36353 0.0
H1408 H 0.73011 0.84155 0.36324 0.0
H1409 H 0.76089 0.83677 0.37074 0.0
C1410 C 0.21962 0.06361 0.39209 0.0
C1411 C 0.24055 0.07723 0.39835 0.0
C1412 C 0.21426 0.0436 0.38586 0.0
C1413 C 0.23723 0.01237 0.36879 0.0
H1414 H 0.18569 0.9635 0.38611 0.0
C1415 C 0.20293 0.92619 0.34456 0.0
C1416 C 0.19814 0.91069 0.35654 0.0
C1417 C 0.20808 0.94683 0.34898 0.0
C1418 C 0.20011 0.97702 0.38118 0.0
H1419 H 0.27252 0.08109 0.40248 0.0
H1420 H 0.26326 0.04621 0.39133 0.0
H1421 H 0.19475 0.99943 0.39452 0.0
H1422 H 0.19514 0.90446 0.3825 0.0
H1423 H 0.20384 0.94052 0.39027 0.0
H1424 H 0.24258 0.98992 0.35546 0.0
C1425 C 0.25098 0.05095 0.39134 0.0
C1426 C 0.20519 0.99754 0.38588 0.0
C1427 C 0.25624 0.07081 0.39779 0.0
C1428 C 0.19874 0.91617 0.37304 0.0
C1429 C 0.20357 0.9367 0.37746 0.0
C1430 C 0.23196 0.99185 0.3639 0.0
C1431 C 0.22986 0.03703 0.38555 0.0
C1432 C 0.22391 0.01539 0.37984 0.0
C1433 C 0.20828 0.95222 0.36547 0.0
C1434 C 0.21348 0.97399 0.37018 0.0
H1435 H 0.20721 0.06817 0.39247 0.0
H1436 H 0.1979 0.03319 0.38138 0.0
H1437 H 0.25171 0.0259 0.36393 0.0
H1438 H 0.20318 0.92254 0.33183 0.0
H1439 H 0.21169 0.95852 0.3395 0.0
C1440 C 0.49412 0.62659 0.27811 0.0
C1441 C 0.48541 0.60873 0.28839 0.0
C1442 C 0.5112 0.64615 0.28342 0.0
C1443 C 0.54082 0.67732 0.3199 0.0
H1444 H 0.58742 0.70779 0.28891 0.0
C1445 C 0.62152 0.75318 0.33753 0.0
C1446 C 0.62978 0.76987 0.32621 0.0
C1447 C 0.6041 0.73316 0.33334 0.0
C1448 C 0.57446 0.69962 0.29766 0.0
H1449 H 0.48728 0.59762 0.31253 0.0
H1450 H 0.51723 0.63193 0.32188 0.0
H1451 H 0.55609 0.67386 0.28114 0.0
H1452 H 0.6262 0.77896 0.30179 0.0
H1453 H 0.59602 0.74403 0.29429 0.0
H1454 H 0.55925 0.70321 0.3364 0.0
C1455 C 0.51073 0.63076 0.30971 0.0
C1456 C 0.55648 0.68016 0.29321 0.0
C1457 C 0.49357 0.61112 0.30437 0.0
C1458 C 0.62053 0.76619 0.31057 0.0
C1459 C 0.60315 0.74619 0.30634 0.0
C1460 C 0.55885 0.69685 0.32437 0.0
C1461 C 0.52004 0.64838 0.29915 0.0
C1462 C 0.53934 0.66885 0.3042 0.0
C1463 C 0.59463 0.72944 0.3177 0.0
C1464 C 0.57581 0.70831 0.31324 0.0
H1465 H 0.48789 0.62537 0.26583 0.0
H1466 H 0.51762 0.65952 0.27512 0.0
H1467 H 0.52783 0.6691 0.32861 0.0
H1468 H 0.62869 0.75555 0.34956 0.0
H1469 H 0.59819 0.72054 0.34229 0.0
C1470 C 0.39479 0.89855 0.29004 0.0
C1471 C 0.39857 0.88128 0.29107 0.0
C1472 C 0.37546 0.89683 0.29585 0.0
C1473 C 0.32716 0.86428 0.32209 0.0
H1474 H 0.30162 0.89073 0.29582 0.0
C1475 C 0.23906 0.84946 0.33132 0.0
C1476 C 0.23613 0.86719 0.32981 0.0
C1477 C 0.25924 0.8512 0.32783 0.0
C1478 C 0.30863 0.88346 0.30344 0.0
H1479 H 0.38503 0.84877 0.29942 0.0
H1480 H 0.35109 0.84565 0.30943 0.0
H1481 H 0.33584 0.89357 0.28757 0.0
H1482 H 0.25174 0.90041 0.32304 0.0
H1483 H 0.28695 0.90355 0.31702 0.0
H1484 H 0.29956 0.85395 0.33785 0.0
C1485 C 0.36325 0.86065 0.30428 0.0
C1486 C 0.32834 0.88511 0.2987 0.0
C1487 C 0.38271 0.86242 0.29851 0.0
C1488 C 0.25365 0.88657 0.32452 0.0
C1489 C 0.27376 0.88831 0.32098 0.0
C1490 C 0.30732 0.86257 0.32682 0.0
C1491 C 0.35921 0.87776 0.30281 0.0
C1492 C 0.338 0.87567 0.30799 0.0
C1493 C 0.27679 0.8706 0.32242 0.0
C1494 C 0.29786 0.87224 0.31757 0.0
H1495 H 0.40684 0.91347 0.28471 0.0
H1496 H 0.37327 0.91055 0.29487 0.0
H1497 H 0.33416 0.85697 0.32965 0.0
H1498 H 0.22567 0.83414 0.33488 0.0
H1499 H 0.26088 0.83717 0.32888 0.0
C1500 C 0.1399 0.52204 0.30591 0.0
C1501 C 0.11987 0.51675 0.29859 0.0
C1502 C 0.14355 0.50613 0.31211 0.0
C1503 C 0.11588 0.45036 0.32605 0.0
H1504 H 0.16967 0.45249 0.31368 0.0
C1505 C 0.14187 0.39042 0.34925 0.0
C1506 C 0.14942 0.3821 0.3371 0.0
C1507 C 0.13816 0.40724 0.3457 0.0
C1508 C 0.15458 0.45169 0.31723 0.0
H1509 H 0.08773 0.49077 0.29248 0.0
H1510 H 0.09414 0.46293 0.30323 0.0
H1511 H 0.16319 0.48124 0.30558 0.0
H1512 H 0.15979 0.38514 0.31199 0.0
H1513 H 0.15305 0.41421 0.30566 0.0
H1514 H 0.10716 0.42056 0.33746 0.0
C1515 C 0.10699 0.47938 0.30421 0.0
C1516 C 0.15096 0.46824 0.31273 0.0
C1517 C 0.1034 0.49528 0.29791 0.0
C1518 C 0.15338 0.39089 0.32142 0.0
C1519 C 0.14987 0.40776 0.31789 0.0
C1520 C 0.11959 0.43387 0.33068 0.0
C1521 C 0.12718 0.48462 0.31122 0.0
C1522 C 0.13146 0.46763 0.31692 0.0
C1523 C 0.14228 0.41616 0.32999 0.0
C1524 C 0.13885 0.43424 0.3261 0.0
H1525 H 0.15293 0.53844 0.30653 0.0
H1526 H 0.15921 0.51065 0.31755 0.0
H1527 H 0.10078 0.44958 0.32956 0.0
H1528 H 0.13865 0.38381 0.36142 0.0
H1529 H 0.13241 0.41349 0.35527 0.0
C1530 C 0.37925 0.51495 0.31426 0.0
C1531 C 0.39429 0.5093 0.30842 0.0
C1532 C 0.35782 0.49926 0.31767 0.0
C1533 C 0.31745 0.44278 0.3086 0.0
H1534 H 0.28702 0.44831 0.34584 0.0
C1535 C 0.23427 0.37422 0.32897 0.0
C1536 C 0.21832 0.37955 0.33271 0.0
C1537 C 0.25591 0.39015 0.32688 0.0
C1538 C 0.29527 0.44665 0.33533 0.0
H1539 H 0.39891 0.48288 0.30186 0.0
H1540 H 0.36171 0.45545 0.30806 0.0
H1541 H 0.32453 0.47597 0.34047 0.0
H1542 H 0.21184 0.40544 0.33631 0.0
H1543 H 0.24992 0.43353 0.333 0.0
H1544 H 0.28828 0.41343 0.30353 0.0
C1545 C 0.36622 0.47199 0.30968 0.0
C1546 C 0.31675 0.4625 0.33222 0.0
C1547 C 0.38759 0.48768 0.30621 0.0
C1548 C 0.22413 0.40105 0.33397 0.0
C1549 C 0.24585 0.41704 0.33207 0.0
C1550 C 0.29608 0.42692 0.31177 0.0
C1551 C 0.35101 0.47755 0.3154 0.0
C1552 C 0.32813 0.46076 0.31881 0.0
C1553 C 0.26193 0.41175 0.32831 0.0
C1554 C 0.28474 0.42865 0.32516 0.0
H1555 H 0.3841 0.53154 0.31612 0.0
H1556 H 0.34653 0.50417 0.32187 0.0
H1557 H 0.32549 0.44108 0.29798 0.0
H1558 H 0.22992 0.3577 0.32739 0.0
H1559 H 0.26792 0.38556 0.32406 0.0
C1560 C 0.49023 0.85613 0.30953 0.0
C1561 C 0.49523 0.87712 0.30627 0.0
C1562 C 0.50686 0.85119 0.31171 0.0
C1563 C 0.56619 0.87266 0.30448 0.0
H1564 H 0.56009 0.83172 0.33744 0.0
C1565 C 0.63855 0.86217 0.32433 0.0
C1566 C 0.63445 0.84124 0.32601 0.0
C1567 C 0.62133 0.86625 0.32243 0.0
C1568 C 0.56196 0.84307 0.3281 0.0
H1569 H 0.52158 0.90944 0.30299 0.0
H1570 H 0.55051 0.90101 0.30696 0.0
H1571 H 0.53043 0.83911 0.33274 0.0
H1572 H 0.60944 0.80805 0.32608 0.0
H1573 H 0.57914 0.8151 0.32321 0.0
H1574 H 0.5978 0.87678 0.29998 0.0
C1575 C 0.5338 0.88816 0.30746 0.0
C1576 C 0.54492 0.84727 0.32535 0.0
C1577 C 0.5172 0.89305 0.30523 0.0
C1578 C 0.61288 0.82438 0.32542 0.0
C1579 C 0.5956 0.82843 0.32373 0.0
C1580 C 0.58324 0.86855 0.3073 0.0
C1581 C 0.52892 0.86718 0.3108 0.0
C1582 C 0.54681 0.86219 0.31352 0.0
C1583 C 0.59963 0.84942 0.32201 0.0
C1584 C 0.58139 0.85375 0.31916 0.0
H1585 H 0.47343 0.84359 0.31057 0.0
H1586 H 0.50241 0.83482 0.31408 0.0
H1587 H 0.56817 0.88392 0.29505 0.0
H1588 H 0.65513 0.87535 0.32417 0.0
H1589 H 0.62501 0.88259 0.32122 0.0
C1590 C 0.13632 0.62452 0.32429 0.0
C1591 C 0.11789 0.61104 0.31492 0.0
C1592 C 0.14264 0.646 0.32622 0.0
C1593 C 0.12126 0.68286 0.32446 0.0
H1594 H 0.18208 0.72641 0.32175 0.0
C1595 C 0.1486 0.7723 0.32669 0.0
C1596 C 0.16729 0.78551 0.33595 0.0
C1597 C 0.14288 0.75121 0.32339 0.0
C1598 C 0.16505 0.71443 0.32272 0.0
H1599 H 0.09207 0.6094 0.29971 0.0
H1600 H 0.103 0.647 0.30315 0.0
H1601 H 0.17151 0.68915 0.31748 0.0
H1602 H 0.19514 0.78711 0.34842 0.0
H1603 H 0.18478 0.75023 0.34317 0.0
H1604 H 0.11477 0.70801 0.32995 0.0
C1605 C 0.11236 0.64091 0.30922 0.0
C1606 C 0.15901 0.6931 0.32025 0.0
C1607 C 0.10612 0.61945 0.30723 0.0
C1608 C 0.18039 0.77728 0.34154 0.0
C1609 C 0.17461 0.75618 0.33832 0.0
C1610 C 0.1273 0.70417 0.32702 0.0
C1611 C 0.13064 0.65439 0.31878 0.0
C1612 C 0.13706 0.67709 0.32113 0.0
C1613 C 0.15571 0.74284 0.32928 0.0
C1614 C 0.14928 0.72022 0.32622 0.0
H1615 H 0.14575 0.61836 0.33016 0.0
H1616 H 0.15672 0.65597 0.33374 0.0
H1617 H 0.10424 0.67084 0.32544 0.0
H1618 H 0.13824 0.77815 0.32206 0.0
H1619 H 0.12843 0.7415 0.31614 0.0
C1620 C 0.83239 0.05671 0.39081 0.0
C1621 C 0.85184 0.06709 0.38195 0.0
C1622 C 0.81719 0.03535 0.38764 0.0
C1623 C 0.80072 0.99431 0.35538 0.0
H1624 H 0.76733 0.95542 0.39003 0.0
C1625 C 0.74404 0.90442 0.34385 0.0
C1626 C 0.72366 0.89457 0.35157 0.0
C1627 C 0.75985 0.92525 0.34789 0.0
C1628 C 0.77637 0.96614 0.3802 0.0
H1629 H 0.87136 0.06314 0.36358 0.0
H1630 H 0.84497 0.0257 0.3581 0.0
H1631 H 0.79497 0.99193 0.39672 0.0
H1632 H 0.70402 0.89894 0.36973 0.0
H1633 H 0.73158 0.93538 0.37668 0.0
H1634 H 0.78213 0.96855 0.33887 0.0
C1635 C 0.84111 0.03416 0.36718 0.0
C1636 C 0.79223 0.98708 0.38403 0.0
C1637 C 0.85627 0.05553 0.37035 0.0
C1638 C 0.71951 0.90604 0.3635 0.0
C1639 C 0.73538 0.92689 0.36758 0.0
C1640 C 0.78491 0.97338 0.35156 0.0
C1641 C 0.82123 0.02387 0.37563 0.0
C1642 C 0.8046 0.00144 0.37166 0.0
C1643 C 0.75571 0.93677 0.35978 0.0
C1644 C 0.77253 0.95904 0.36392 0.0
H1645 H 0.82876 0.06527 0.39997 0.0
H1646 H 0.80203 0.02801 0.39431 0.0
H1647 H 0.80962 0.00502 0.34551 0.0
H1648 H 0.74785 0.89606 0.33464 0.0
H1649 H 0.77543 0.93227 0.3418 0.0
C1650 C 0.96333 0.79931 0.37081 0.0
C1651 C 0.95504 0.7968 0.3867 0.0
C1652 C 0.98518 0.80532 0.36823 0.0
C1653 C 0.03141 0.80444 0.38872 0.0
H1654 H 0.0645 0.83967 0.35229 0.0
C1655 C 0.1108 0.80849 0.36753 0.0
C1656 C 0.12808 0.82817 0.3625 0.0
C1657 C 0.09028 0.80602 0.37059 0.0
C1658 C 0.05558 0.82997 0.36261 0.0
H1659 H 0.96312 0.79872 0.41233 0.0
H1660 H 1.00142 0.80967 0.40792 0.0
H1661 H 0.02813 0.83403 0.35774 0.0
H1662 H 0.13785 0.86109 0.35761 0.0
H1663 H 0.10188 0.85685 0.36293 0.0
H1664 H 0.05887 0.80055 0.39372 0.0
C1665 C 0.99103 0.80681 0.3974 0.0
C1666 C 0.0346 0.82653 0.36564 0.0
C1667 C 0.96916 0.80076 0.39997 0.0
C1668 C 0.12462 0.84558 0.36102 0.0
C1669 C 0.10403 0.84313 0.36411 0.0
C1670 C 0.05234 0.80787 0.38569 0.0
C1671 C 0.99929 0.80887 0.38148 0.0
C1672 C 0.02214 0.81357 0.37868 0.0
C1673 C 0.08659 0.8233 0.36898 0.0
C1674 C 0.06464 0.82051 0.37251 0.0
H1675 H 0.95276 0.79606 0.36034 0.0
H1676 H 0.99076 0.8064 0.35581 0.0
H1677 H 0.02231 0.79416 0.39873 0.0
H1678 H 0.11314 0.79489 0.36897 0.0
H1679 H 0.07724 0.79046 0.37411 0.0
C1680 C 0.26456 0.1976 0.3827 0.0
C1681 C 0.24974 0.17564 0.38227 0.0
C1682 C 0.2581 0.21211 0.37785 0.0
C1683 C 0.21523 0.21652 0.35485 0.0
H1684 H 0.23546 0.26777 0.38082 0.0
C1685 C 0.19548 0.28313 0.33848 0.0
C1686 C 0.19041 0.29233 0.35163 0.0
C1687 C 0.20337 0.26911 0.34129 0.0
C1688 C 0.22954 0.25348 0.37348 0.0
H1689 H 0.2169 0.1515 0.37586 0.0
H1690 H 0.20532 0.17683 0.36782 0.0
H1691 H 0.24755 0.24268 0.38754 0.0
H1692 H 0.18929 0.29363 0.37808 0.0
H1693 H 0.20256 0.26913 0.38289 0.0
H1694 H 0.19656 0.22705 0.34117 0.0
C1695 C 0.22199 0.18291 0.37176 0.0
C1696 C 0.23672 0.23921 0.37721 0.0
C1697 C 0.22851 0.1684 0.37652 0.0
C1698 C 0.19319 0.28704 0.36761 0.0
C1699 C 0.20096 0.27305 0.3704 0.0
C1700 C 0.20797 0.23079 0.35115 0.0
C1701 C 0.23668 0.20496 0.37246 0.0
C1702 C 0.22955 0.22046 0.36802 0.0
C1703 C 0.20631 0.26401 0.35731 0.0
C1704 C 0.21487 0.24934 0.36054 0.0
H1705 H 0.28115 0.20357 0.38679 0.0
H1706 H 0.26996 0.22894 0.37824 0.0
H1707 H 0.20961 0.20238 0.34738 0.0
H1708 H 0.19353 0.28685 0.32601 0.0
H1709 H 0.20748 0.26254 0.33093 0.0
C1710 C 0.63805 0.50637 0.74718 0.0
C1711 C 0.62022 0.49451 0.73673 0.0
C1712 C 0.6573 0.52344 0.74126 0.0
C1713 C 0.6892 0.5474 0.70397 0.0
H1714 H 0.71555 0.59893 0.73018 0.0
C1715 C 0.76252 0.6413 0.70112 0.0
C1716 C 0.77994 0.6388 0.69591 0.0
C1717 C 0.74231 0.62352 0.70451 0.0
C1718 C 0.70831 0.58474 0.72263 0.0
H1719 H 0.60896 0.49113 0.71168 0.0
H1720 H 0.64275 0.52088 0.70131 0.0
H1721 H 0.68196 0.56809 0.73922 0.0
H1722 H 0.79011 0.61577 0.69063 0.0
H1723 H 0.75472 0.58464 0.69636 0.0
H1724 H 0.71572 0.56424 0.68737 0.0
C1725 C 0.64176 0.51685 0.71411 0.0
C1726 C 0.68918 0.56697 0.72791 0.0
C1727 C 0.62241 0.49979 0.72006 0.0
C1728 C 0.7768 0.61816 0.69416 0.0
C1729 C 0.75653 0.60034 0.69748 0.0
C1730 C 0.70849 0.5652 0.69872 0.0
C1731 C 0.65931 0.52908 0.7247 0.0
C1732 C 0.67945 0.54803 0.71872 0.0
C1733 C 0.73915 0.60283 0.70294 0.0
C1734 C 0.71828 0.58406 0.70803 0.0
H1735 H 0.63716 0.50246 0.76001 0.0
H1736 H 0.67067 0.53225 0.74969 0.0
H1737 H 0.68214 0.53301 0.69665 0.0
H1738 H 0.76464 0.65707 0.70274 0.0
H1739 H 0.7292 0.62598 0.70856 0.0
C1740 C 0.52425 0.1429 0.73103 0.0
C1741 C 0.52019 0.1236 0.73816 0.0
C1742 C 0.50698 0.14566 0.72564 0.0
C1743 C 0.44774 0.12365 0.73228 0.0
H1744 H 0.4503 0.15496 0.69326 0.0
C1745 C 0.37194 0.12489 0.70804 0.0
C1746 C 0.37465 0.14421 0.7021 0.0
C1747 C 0.39 0.12261 0.71155 0.0
C1748 C 0.44941 0.14635 0.70428 0.0
H1749 H 0.49477 0.09166 0.74421 0.0
H1750 H 0.46489 0.09637 0.73478 0.0
H1751 H 0.48133 0.15059 0.70071 0.0
H1752 H 0.39848 0.17669 0.69595 0.0
H1753 H 0.43012 0.17275 0.702 0.0
H1754 H 0.41598 0.11943 0.73595 0.0
C1755 C 0.48132 0.10964 0.73376 0.0
C1756 C 0.46722 0.14384 0.70856 0.0
C1757 C 0.49851 0.10691 0.73916 0.0
C1758 C 0.39587 0.16141 0.70006 0.0
C1759 C 0.414 0.15914 0.70356 0.0
C1760 C 0.43001 0.12614 0.72802 0.0
C1761 C 0.48523 0.12916 0.7272 0.0
C1762 C 0.46656 0.13231 0.72258 0.0
C1763 C 0.41131 0.13973 0.70945 0.0
C1764 C 0.4305 0.13741 0.71392 0.0
H1765 H 0.54073 0.15612 0.73014 0.0
H1766 H 0.51064 0.16096 0.72073 0.0
H1767 H 0.44676 0.11511 0.74336 0.0
H1768 H 0.35576 0.11147 0.70991 0.0
H1769 H 0.38725 0.10735 0.71588 0.0
C1770 C 0.87813 0.37916 0.75078 0.0
C1771 C 0.88453 0.39702 0.74072 0.0
C1772 C 0.87494 0.35999 0.7443 0.0
C1773 C 0.86221 0.32819 0.70723 0.0
H1774 H 0.89291 0.3029 0.7283 0.0
C1775 C 0.86135 0.25392 0.68053 0.0
C1776 C 0.86078 0.23887 0.69154 0.0
C1777 C 0.86472 0.2736 0.68607 0.0
C1778 C 0.88393 0.30951 0.7224 0.0
H1779 H 0.89199 0.40836 0.71578 0.0
H1780 H 0.88565 0.37454 0.70442 0.0
H1781 H 0.89673 0.33602 0.73889 0.0
H1782 H 0.86312 0.23249 0.71706 0.0
H1783 H 0.86829 0.26639 0.72684 0.0
H1784 H 0.8488 0.30143 0.69104 0.0
C1785 C 0.88331 0.37559 0.71736 0.0
C1786 C 0.88623 0.32855 0.72844 0.0
C1787 C 0.88682 0.39492 0.72388 0.0
C1788 C 0.86375 0.24389 0.70823 0.0
C1789 C 0.8668 0.26341 0.71383 0.0
C1790 C 0.85962 0.30894 0.70132 0.0
C1791 C 0.87772 0.35809 0.72757 0.0
C1792 C 0.87536 0.33803 0.72094 0.0
C1793 C 0.86733 0.27856 0.70283 0.0
C1794 C 0.8704 0.2993 0.70886 0.0
H1795 H 0.87566 0.37998 0.76373 0.0
H1796 H 0.87029 0.3466 0.75239 0.0
H1797 H 0.85355 0.33514 0.70131 0.0
H1798 H 0.8596 0.25071 0.66761 0.0
H1799 H 0.8655 0.28499 0.67718 0.0
C1800 C 0.17944 0.94452 0.62797 0.0
C1801 C 0.15716 0.93796 0.62892 0.0
C1802 C 0.1951 0.96386 0.63477 0.0
C1803 C 0.20344 0.01628 0.64793 0.0
H1804 H 0.25603 0.02199 0.66742 0.0
C1805 C 0.26921 0.09479 0.67779 0.0
C1806 C 0.29098 0.10134 0.67393 0.0
C1807 C 0.25247 0.07447 0.67344 0.0
C1808 C 0.2415 0.02068 0.66191 0.0
H1809 H 0.13392 0.94651 0.63817 0.0
H1810 H 0.16129 0.98012 0.65043 0.0
H1811 H 0.22732 0.9871 0.65829 0.0
H1812 H 0.31215 0.09153 0.66253 0.0
H1813 H 0.28292 0.05611 0.65492 0.0
H1814 H 0.2177 0.04992 0.65156 0.0
C1815 C 0.16664 0.97041 0.64413 0.0
C1816 C 0.22503 0.00068 0.65666 0.0
C1817 C 0.15092 0.95102 0.63726 0.0
C1818 C 0.2956 0.08702 0.66572 0.0
C1819 C 0.27884 0.06665 0.66145 0.0
C1820 C 0.21988 0.03628 0.65327 0.0
C1821 C 0.18896 0.97717 0.64284 0.0
C1822 C 0.20588 0.99824 0.64942 0.0
C1823 C 0.25707 0.06018 0.66518 0.0
C1824 C 0.2392 0.03875 0.66016 0.0
H1825 H 0.18483 0.93471 0.62187 0.0
H1826 H 0.2121 0.96858 0.63336 0.0
H1827 H 0.1891 0.01511 0.6422 0.0
H1828 H 0.265 0.10545 0.68396 0.0
H1829 H 0.2359 0.06993 0.67662 0.0
C1830 C 0.04981 0.1942 0.63416 0.0
C1831 C 0.06558 0.2131 0.6267 0.0
C1832 C 0.03011 0.19217 0.63965 0.0
C1833 C 0.99465 0.21597 0.6332 0.0
H1834 H 0.96489 0.18422 0.67188 0.0
C1835 C 0.91882 0.21639 0.6579 0.0
C1836 C 0.9013 0.19691 0.66305 0.0
C1837 C 0.93906 0.2183 0.65453 0.0
C1838 C 0.97292 0.19299 0.66097 0.0
H1839 H 0.07349 0.24512 0.62011 0.0
H1840 H 0.03957 0.24178 0.62986 0.0
H1841 H 0.99994 0.18778 0.66436 0.0
H1842 H 0.89095 0.16385 0.66793 0.0
H1843 H 0.92639 0.16718 0.66224 0.0
H1844 H 0.96778 0.22124 0.62979 0.0
C1845 C 0.04198 0.22821 0.63103 0.0
C1846 C 0.99303 0.19502 0.65663 0.0
C1847 C 0.06153 0.23017 0.62547 0.0
C1848 C 0.90433 0.17923 0.66449 0.0
C1849 C 0.92464 0.18114 0.66118 0.0
C1850 C 0.97468 0.21402 0.63756 0.0
C1851 C 0.02576 0.20905 0.63792 0.0
C1852 C 1.00424 0.20663 0.6427 0.0
C1853 C 0.94223 0.20068 0.65601 0.0
C1854 C 0.96355 0.20258 0.65152 0.0
H1855 H 0.05236 0.18071 0.63522 0.0
H1856 H 0.01802 0.17712 0.64477 0.0
H1857 H 1.00242 0.22458 0.62217 0.0
H1858 H 0.91684 0.23019 0.65647 0.0
H1859 H 0.95225 0.23362 0.65073 0.0
C1860 C 0.7839 0.84376 0.64076 0.0
C1861 C 0.78975 0.85097 0.62467 0.0
C1862 C 0.78834 0.82844 0.64716 0.0
C1863 C 0.78681 0.7858 0.65227 0.0
H1864 H 0.84339 0.79086 0.64592 0.0
C1865 C 0.80343 0.71609 0.66148 0.0
C1866 C 0.82253 0.72058 0.66996 0.0
C1867 C 0.79952 0.73251 0.65709 0.0
C1868 C 0.82757 0.78932 0.64788 0.0
H1869 H 0.80527 0.84824 0.60281 0.0
H1870 H 0.81318 0.82157 0.61403 0.0
H1871 H 0.83678 0.81901 0.63615 0.0
H1872 H 0.85253 0.74586 0.68044 0.0
H1873 H 0.8457 0.77452 0.67264 0.0
H1874 H 0.77751 0.75595 0.6638 0.0
C1875 C 0.80512 0.82773 0.62166 0.0
C1876 C 0.82374 0.80533 0.64218 0.0
C1877 C 0.80044 0.84284 0.61521 0.0
C1878 C 0.83759 0.74184 0.674 0.0
C1879 C 0.83377 0.75827 0.66944 0.0
C1880 C 0.79056 0.76966 0.6578 0.0
C1881 C 0.79897 0.82027 0.63766 0.0
C1882 C 0.80329 0.80368 0.64426 0.0
C1883 C 0.81472 0.75377 0.66091 0.0
C1884 C 0.81095 0.77122 0.6556 0.0
H1885 H 0.77552 0.84968 0.64829 0.0
H1886 H 0.78354 0.82306 0.65956 0.0
H1887 H 0.77085 0.78405 0.65393 0.0
H1888 H 0.79149 0.6999 0.65821 0.0
H1889 H 0.78479 0.72861 0.65038 0.0
C1890 C 0.05589 0.81791 0.6387 0.0
C1891 C 0.06225 0.83928 0.64189 0.0
C1892 C 0.03451 0.80178 0.64156 0.0
C1893 C 0.98469 0.78991 0.66459 0.0
H1894 H 0.95767 0.74148 0.63519 0.0
C1895 C 0.8936 0.7235 0.6681 0.0
C1896 C 0.8894 0.7025 0.66633 0.0
C1897 C 0.9146 0.74071 0.66562 0.0
C1898 C 0.96506 0.75481 0.6436 0.0
H1899 H 0.05131 0.86061 0.65043 0.0
H1900 H 0.01369 0.83246 0.65512 0.0
H1901 H 0.99408 0.77064 0.62943 0.0
H1902 H 0.90346 0.68293 0.66008 0.0
H1903 H 0.94012 0.71289 0.65578 0.0
H1904 H 0.95538 0.77396 0.67866 0.0
C1905 C 0.02529 0.82809 0.65065 0.0
C1906 C 0.98597 0.77154 0.64031 0.0
C1907 C 0.04675 0.84423 0.64784 0.0
C1908 C 0.9064 0.69899 0.66176 0.0
C1909 C 0.92731 0.71613 0.6592 0.0
C1910 C 0.96366 0.77318 0.66783 0.0
C1911 C 0.01891 0.80661 0.64761 0.0
C1912 C 0.99619 0.78924 0.65083 0.0
C1913 C 0.93164 0.7372 0.66098 0.0
C1914 C 0.95371 0.75534 0.65744 0.0
H1915 H 0.06755 0.81362 0.63422 0.0
H1916 H 0.03035 0.78544 0.63932 0.0
H1917 H 0.99212 0.80314 0.67308 0.0
H1918 H 0.88063 0.72666 0.67108 0.0
H1919 H 0.91735 0.75675 0.6669 0.0
C1920 C 0.17322 0.20631 0.629 0.0
C1921 C 0.16261 0.2093 0.64231 0.0
C1922 C 0.18985 0.20145 0.63148 0.0
C1923 C 0.21502 0.183 0.66305 0.0
H1924 H 0.26536 0.2104 0.63488 0.0
C1925 C 0.2864 0.16537 0.66726 0.0
C1926 C 0.30758 0.18275 0.66563 0.0
C1927 C 0.26824 0.16772 0.6642 0.0
C1928 C 0.25152 0.20272 0.64296 0.0
H1929 H 0.16119 0.20963 0.66868 0.0
H1930 H 0.19021 0.20134 0.67307 0.0
H1931 H 0.23455 0.21578 0.63012 0.0
H1932 H 0.32639 0.21586 0.65872 0.0
H1933 H 0.29482 0.22019 0.65367 0.0
H1934 H 0.23234 0.17046 0.67618 0.0
C1935 C 0.18546 0.20226 0.66066 0.0
C1936 C 0.23364 0.20556 0.64007 0.0
C1937 C 0.16883 0.20709 0.65816 0.0
C1938 C 0.31023 0.20231 0.66033 0.0
C1939 C 0.29211 0.2047 0.65732 0.0
C1940 C 0.23293 0.18016 0.66594 0.0
C1941 C 0.19643 0.19962 0.64737 0.0
C1942 C 0.21514 0.19583 0.65011 0.0
C1943 C 0.27083 0.18746 0.65923 0.0
C1944 C 0.25149 0.19007 0.65599 0.0
H1945 H 0.16892 0.20817 0.61666 0.0
H1946 H 0.19767 0.19926 0.62092 0.0
H1947 H 0.20104 0.17505 0.67096 0.0
H1948 H 0.28384 0.14989 0.67076 0.0
H1949 H 0.25216 0.15397 0.66553 0.0
C1950 C 0.79875 0.95337 0.65259 0.0
C1951 C 0.78048 0.94077 0.64278 0.0
C1952 C 0.80519 0.9747 0.65563 0.0
C1953 C 0.78458 0.01227 0.65598 0.0
H1954 H 0.8456 0.05541 0.65375 0.0
C1955 C 0.81291 0.10181 0.65958 0.0
C1956 C 0.83174 0.11479 0.66879 0.0
C1957 C 0.80692 0.0807 0.65613 0.0
C1958 C 0.82852 0.04353 0.65462 0.0
H1959 H 0.75496 0.94054 0.62804 0.0
H1960 H 0.76609 0.97783 0.63342 0.0
H1961 H 0.83458 0.01823 0.64845 0.0
H1962 H 0.85949 0.11594 0.68106 0.0
H1963 H 0.84866 0.07897 0.67552 0.0
H1964 H 0.77848 0.03745 0.66232 0.0
C1965 C 0.77524 0.97117 0.63898 0.0
C1966 C 0.82222 0.02225 0.65156 0.0
C1967 C 0.7689 0.94988 0.63587 0.0
C1968 C 0.84465 0.10629 0.67421 0.0
C1969 C 0.8386 0.08514 0.67084 0.0
C1970 C 0.79088 0.03354 0.65912 0.0
C1971 C 0.79345 0.9838 0.6489 0.0
C1972 C 0.80018 0.0064 0.65219 0.0
C1973 C 0.81959 0.07205 0.66182 0.0
C1974 C 0.81293 0.04944 0.65845 0.0
H1975 H 0.80803 0.94667 0.65789 0.0
H1976 H 0.81919 0.98399 0.66341 0.0
H1977 H 0.7675 0.00037 0.65678 0.0
H1978 H 0.80267 0.10787 0.65508 0.0
H1979 H 0.79241 0.07119 0.64889 0.0
C1980 C 0.5277 0.38467 0.70966 0.0
C1981 C 0.52311 0.39835 0.71879 0.0
C1982 C 0.51171 0.36337 0.70723 0.0
C1983 C 0.45215 0.32817 0.70698 0.0
H1984 H 0.46597 0.28275 0.70858 0.0
C1985 C 0.38549 0.23957 0.70214 0.0
C1986 C 0.39025 0.22597 0.69302 0.0
C1987 C 0.40176 0.26041 0.70576 0.0
C1988 C 0.46186 0.29526 0.70789 0.0
H1989 H 0.49871 0.40038 0.73323 0.0
H1990 H 0.47071 0.36315 0.72901 0.0
H1991 H 0.49434 0.31931 0.7142 0.0
H1992 H 0.41613 0.22359 0.6809 0.0
H1993 H 0.44425 0.26001 0.68674 0.0
H1994 H 0.41978 0.30426 0.70046 0.0
C1995 C 0.48649 0.36894 0.72344 0.0
C1996 C 0.47814 0.31622 0.71115 0.0
C1997 C 0.50251 0.39021 0.72592 0.0
C1998 C 0.41174 0.23368 0.68773 0.0
C1999 C 0.42799 0.25454 0.69128 0.0
C2000 C 0.4359 0.30724 0.70365 0.0
C2001 C 0.49082 0.35531 0.71393 0.0
C2002 C 0.47348 0.33294 0.71073 0.0
C2003 C 0.42322 0.2682 0.70033 0.0
C2004 C 0.44053 0.29049 0.70404 0.0
H2005 H 0.54356 0.39059 0.70418 0.0
H2006 H 0.51556 0.35335 0.69978 0.0
H2007 H 0.44808 0.34071 0.70629 0.0
H2008 H 0.36917 0.23417 0.70652 0.0
H2009 H 0.39755 0.27034 0.71298 0.0
C2010 C 0.6275 0.11205 0.72645 0.0
C2011 C 0.62045 0.12647 0.72242 0.0
C2012 C 0.64911 0.11724 0.72386 0.0
C2013 C 0.69851 0.15371 0.69999 0.0
H2014 H 0.72626 0.13253 0.72939 0.0
C2015 C 0.78927 0.1745 0.69416 0.0
C2016 C 0.79295 0.15725 0.69589 0.0
C2017 C 0.76869 0.17201 0.69744 0.0
C2018 C 0.71871 0.13845 0.72099 0.0
H2019 H 0.63062 0.15786 0.71292 0.0
H2020 H 0.66859 0.16726 0.70869 0.0
H2021 H 0.69002 0.12638 0.73554 0.0
H2022 H 0.77836 0.12421 0.70301 0.0
H2023 H 0.74259 0.11983 0.70876 0.0
H2024 H 0.72748 0.1659 0.68551 0.0
C2025 C 0.65734 0.15171 0.71356 0.0
C2026 C 0.69784 0.13488 0.72449 0.0
C2027 C 0.63564 0.14645 0.71612 0.0
C2028 C 0.77588 0.13769 0.70137 0.0
C2029 C 0.75544 0.13523 0.70475 0.0
C2030 C 0.71951 0.15742 0.69654 0.0
C2031 C 0.66436 0.13709 0.71724 0.0
C2032 C 0.68725 0.14217 0.71394 0.0
C2033 C 0.75155 0.15235 0.70289 0.0
C2034 C 0.72974 0.14957 0.70689 0.0
H2035 H 0.61615 0.09649 0.73127 0.0
H2036 H 0.65367 0.10538 0.72664 0.0
H2037 H 0.69088 0.15938 0.69144 0.0
H2038 H 0.80232 0.18994 0.69041 0.0
H2039 H 0.76632 0.18558 0.69603 0.0
C2040 C 0.90387 0.51566 0.72979 0.0
C2041 C 0.89313 0.49541 0.72253 0.0
C2042 C 0.89756 0.53065 0.72616 0.0
C2043 C 0.86785 0.54364 0.69524 0.0
H2044 H 0.86809 0.58111 0.72916 0.0
C2045 C 0.83475 0.60138 0.68501 0.0
C2046 C 0.84755 0.62215 0.6912 0.0
C2047 C 0.83961 0.58543 0.68894 0.0
C2048 C 0.86811 0.57087 0.71953 0.0
H2049 H 0.86685 0.47447 0.7064 0.0
H2050 H 0.85553 0.50055 0.70013 0.0
H2051 H 0.87762 0.55402 0.73594 0.0
H2052 H 0.87534 0.6423 0.70661 0.0
H2053 H 0.88373 0.6145 0.71345 0.0
H2054 H 0.85827 0.56051 0.67886 0.0
C2055 C 0.86921 0.50511 0.70829 0.0
C2056 C 0.8736 0.55537 0.7234 0.0
C2057 C 0.87559 0.49016 0.7119 0.0
C2058 C 0.86513 0.62651 0.70159 0.0
C2059 C 0.8699 0.61055 0.70559 0.0
C2060 C 0.86227 0.5591 0.69138 0.0
C2061 C 0.88019 0.52558 0.71532 0.0
C2062 C 0.87369 0.54165 0.71129 0.0
C2063 C 0.85723 0.58985 0.69929 0.0
C2064 C 0.86249 0.57299 0.70346 0.0
H2065 H 0.91728 0.51996 0.73818 0.0
H2066 H 0.90651 0.54631 0.73166 0.0
H2067 H 0.86805 0.53356 0.68556 0.0
H2068 H 0.82082 0.59731 0.67726 0.0
H2069 H 0.82936 0.56956 0.68407 0.0
C2070 C 0.47452 0.91886 0.24214 0.0
C2071 C 0.45238 0.90457 0.24513 0.0
C2072 C 0.48134 0.92874 0.22695 0.0
C2073 C 0.46435 0.92478 0.18355 0.0
H2074 H 0.50846 0.98453 0.1827 0.0
C2075 C 0.48717 0.97627 0.12468 0.0
C2076 C 0.50924 0.99151 0.1225 0.0
C2077 C 0.48006 0.96477 0.13927 0.0
C2078 C 0.49632 0.96777 0.18267 0.0
H2079 H 0.42015 0.88909 0.23421 0.0
H2080 H 0.432 0.90661 0.20785 0.0
H2081 H 0.49658 0.96629 0.20872 0.0
H2082 H 0.54127 0.00575 0.13366 0.0
H2083 H 0.52895 0.98574 0.15894 0.0
H2084 H 0.46407 0.92636 0.15744 0.0
C2085 C 0.44413 0.91007 0.21723 0.0
C2086 C 0.4895 0.95729 0.19763 0.0
C2087 C 0.43729 0.90021 0.23243 0.0
C2088 C 0.52408 0.99448 0.13506 0.0
C2089 C 0.517 0.98301 0.14958 0.0
C2090 C 0.47118 0.93529 0.16855 0.0
C2091 C 0.46623 0.92459 0.21432 0.0
C2092 C 0.47346 0.93564 0.19829 0.0
C2093 C 0.49486 0.96822 0.15201 0.0
C2094 C 0.48733 0.95691 0.16791 0.0
H2095 H 0.48657 0.92273 0.25166 0.0
H2096 H 0.49853 0.93961 0.2251 0.0
H2097 H 0.45215 0.90805 0.18357 0.0
H2098 H 0.47528 0.97369 0.11531 0.0
H2099 H 0.46286 0.95363 0.14075 0.0
C2100 C 0.07888 0.55077 0.24889 0.0
C2101 C 0.0937 0.54372 0.25235 0.0
C2102 C 0.06969 0.548 0.23334 0.0
C2103 C 0.05683 0.51518 0.19638 0.0
H2104 H 0.05257 0.56122 0.17598 0.0
C2105 C 0.02541 0.50876 0.13035 0.0
C2106 C 0.01159 0.5171 0.12726 0.0
C2107 C 0.03639 0.51258 0.14526 0.0
C2108 C 0.0534 0.54811 0.18157 0.0
H2109 H 0.11075 0.52857 0.24201 0.0
H2110 H 0.09439 0.52344 0.21497 0.0
H2111 H 0.06964 0.56666 0.20276 0.0
H2112 H 0.99891 0.53641 0.13735 0.0
H2113 H 0.01744 0.54246 0.16349 0.0
H2114 H 0.04024 0.49647 0.17539 0.0
C2115 C 0.08978 0.53095 0.22436 0.0
C2116 C 0.06322 0.55126 0.1969 0.0
C2117 C 0.09909 0.53384 0.23987 0.0
C2118 C 0.00918 0.52949 0.13939 0.0
C2119 C 0.02007 0.53322 0.15432 0.0
C2120 C 0.04687 0.51198 0.1811 0.0
C2121 C 0.07499 0.53801 0.22093 0.0
C2122 C 0.06497 0.53481 0.2045 0.0
C2123 C 0.03376 0.52476 0.15747 0.0
C2124 C 0.04494 0.52837 0.17352 0.0
H2125 H 0.0741 0.55813 0.25827 0.0
H2126 H 0.05811 0.55335 0.23112 0.0
H2127 H 0.05771 0.50212 0.20202 0.0
H2128 H 0.02749 0.49898 0.12135 0.0
H2129 H 0.04701 0.50603 0.14719 0.0
C2130 C 0.45941 0.53527 0.24076 0.0
C2131 C 0.46065 0.55499 0.2435 0.0
C2132 C 0.46552 0.5308 0.22569 0.0
C2133 C 0.50033 0.559 0.19054 0.0
H2134 H 0.47216 0.50318 0.17019 0.0
C2135 C 0.54031 0.53878 0.13782 0.0
C2136 C 0.52697 0.5267 0.12474 0.0
C2137 C 0.53121 0.54149 0.15207 0.0
C2138 C 0.48011 0.51891 0.17566 0.0
H2139 H 0.46774 0.58484 0.23232 0.0
H2140 H 0.47805 0.57697 0.20604 0.0
H2141 H 0.45692 0.50901 0.19508 0.0
H2142 H 0.49351 0.5077 0.11652 0.0
H2143 H 0.47763 0.5128 0.1413 0.0
H2144 H 0.52332 0.56903 0.1711 0.0
C2145 C 0.473 0.56518 0.21561 0.0
C2146 C 0.4715 0.52218 0.19001 0.0
C2147 C 0.46702 0.56967 0.23065 0.0
C2148 C 0.50427 0.5173 0.12629 0.0
C2149 C 0.49515 0.52001 0.14057 0.0
C2150 C 0.50892 0.55573 0.17625 0.0
C2151 C 0.47287 0.54593 0.21306 0.0
C2152 C 0.48153 0.54228 0.19762 0.0
C2153 C 0.50853 0.53223 0.1536 0.0
C2154 C 0.499 0.53563 0.16867 0.0
H2155 H 0.45467 0.52371 0.25048 0.0
H2156 H 0.46534 0.51586 0.22417 0.0
H2157 H 0.50869 0.57461 0.19619 0.0
H2158 H 0.55786 0.54642 0.13699 0.0
H2159 H 0.54199 0.55078 0.16194 0.0
C2160 C 0.90893 0.43523 0.79905 0.0
C2161 C 0.91644 0.45006 0.78627 0.0
C2162 C 0.91991 0.44017 0.81398 0.0
C2163 C 0.96073 0.48475 0.83937 0.0
H2164 H 0.96763 0.43996 0.8593 0.0
C2165 C 0.99797 0.49282 0.90379 0.0
C2166 C 0.0117 0.4842 0.90614 0.0
C2167 C 0.98639 0.48934 0.8892 0.0
C2168 C 0.96603 0.45272 0.85384 0.0
H2169 H 0.94104 0.48189 0.77921 0.0
H2170 H 0.96047 0.49049 0.80529 0.0
H2171 H 0.9474 0.43295 0.8339 0.0
H2172 H 0.02398 0.46517 0.89492 0.0
H2173 H 1.00429 0.45961 0.86936 0.0
H2174 H 0.97994 0.50468 0.85915 0.0
C2175 C 0.9459 0.47512 0.80383 0.0
C2176 C 0.95415 0.44861 0.83938 0.0
C2177 C 0.93481 0.4702 0.78889 0.0
C2178 C 0.01373 0.47223 0.89347 0.0
C2179 C 1.00221 0.4688 0.87888 0.0
C2180 C 0.97269 0.48889 0.85385 0.0
C2181 C 0.93877 0.46002 0.81646 0.0
C2182 C 0.95131 0.46455 0.83196 0.0
C2183 C 0.98828 0.47719 0.8766 0.0
C2184 C 0.97552 0.47292 0.86124 0.0
H2185 H 0.89458 0.41971 0.79746 0.0
H2186 H 0.91367 0.42835 0.82356 0.0
H2187 H 0.95871 0.49734 0.83405 0.0
H2188 H 0.99623 0.50234 0.91322 0.0
H2189 H 0.97566 0.49588 0.88791 0.0
C2190 C 0.56523 0.48623 0.78489 0.0
C2191 C 0.56396 0.46674 0.78098 0.0
C2192 C 0.55818 0.48924 0.80004 0.0
C2193 C 0.52343 0.45987 0.83516 0.0
H2194 H 0.55595 0.5146 0.85686 0.0
C2195 C 0.48976 0.48287 0.89088 0.0
C2196 C 0.50437 0.49512 0.90336 0.0
C2197 C 0.49733 0.47875 0.87638 0.0
C2198 C 0.54679 0.49914 0.85107 0.0
H2199 H 0.5544 0.43518 0.79 0.0
H2200 H 0.54221 0.44047 0.8165 0.0
H2201 H 0.56877 0.50866 0.83095 0.0
H2202 H 0.53845 0.51248 0.91033 0.0
H2203 H 0.5516 0.50485 0.88521 0.0
H2204 H 0.50168 0.45023 0.85545 0.0
C2205 C 0.54835 0.45333 0.80775 0.0
C2206 C 0.55398 0.49582 0.83608 0.0
C2207 C 0.55535 0.45029 0.79256 0.0
C2208 C 0.52672 0.50284 0.90105 0.0
C2209 C 0.53429 0.49869 0.88655 0.0
C2210 C 0.51625 0.46318 0.85017 0.0
C2211 C 0.54972 0.47287 0.8117 0.0
C2212 C 0.54233 0.47619 0.82787 0.0
C2213 C 0.5197 0.48671 0.87398 0.0
C2214 C 0.52776 0.4829 0.85828 0.0
H2215 H 0.57145 0.4991 0.77614 0.0
H2216 H 0.55909 0.50435 0.80252 0.0
H2217 H 0.51393 0.44462 0.82914 0.0
H2218 H 0.47242 0.47643 0.89231 0.0
H2219 H 0.48563 0.46966 0.86692 0.0
C2220 C 0.53951 0.10283 0.79643 0.0
C2221 C 0.5479 0.09669 0.78333 0.0
C2222 C 0.53495 0.0921 0.81133 0.0
C2223 C 0.54435 0.05353 0.83543 0.0
H2224 H 0.4931 0.04533 0.85844 0.0
C2225 C 0.52008 0.01176 0.89852 0.0
C2226 C 0.49775 0.99831 0.90152 0.0
C2227 C 0.52711 0.02474 0.88463 0.0
C2228 C 0.50737 0.04725 0.85214 0.0
H2229 H 0.55835 0.07461 0.77565 0.0
H2230 H 0.54987 0.05544 0.8015 0.0
H2231 H 0.50352 0.06536 0.83323 0.0
H2232 H 0.46536 0.98858 0.89231 0.0
H2233 H 0.47751 0.01035 0.86799 0.0
H2234 H 0.54756 0.03454 0.85403 0.0
C2235 C 0.54723 0.06888 0.80044 0.0
C2236 C 0.51358 0.05911 0.83774 0.0
C2237 C 0.55204 0.07981 0.78557 0.0
C2238 C 0.48269 0.9984 0.89034 0.0
C2239 C 0.4897 0.01122 0.87644 0.0
C2240 C 0.53801 0.04149 0.8498 0.0
C2241 C 0.53839 0.07472 0.8135 0.0
C2242 C 0.53214 0.06241 0.82911 0.0
C2243 C 0.51201 0.02458 0.87334 0.0
C2244 C 0.51934 0.03807 0.85832 0.0
H2245 H 0.53648 0.11601 0.79516 0.0
H2246 H 0.52871 0.09749 0.82116 0.0
H2247 H 0.5589 0.05591 0.82931 0.0
H2248 H 0.5322 0.01203 0.90674 0.0
H2249 H 0.54442 0.03499 0.88282 0.0
C2250 C 0.10321 0.23116 0.56776 0.0
C2251 C 0.11857 0.23567 0.58027 0.0
C2252 C 0.1097 0.24088 0.55248 0.0
C2253 C 0.15474 0.28798 0.53241 0.0
H2254 H 0.12802 0.25707 0.49245 0.0
C2255 C 0.1879 0.32485 0.46953 0.0
C2256 C 0.17276 0.32226 0.45733 0.0
C2257 C 0.1811 0.31332 0.48405 0.0
C2258 C 0.1355 0.26599 0.5035 0.0
H2259 H 0.15291 0.25391 0.58636 0.0
H2260 H 0.16427 0.27046 0.55966 0.0
H2261 H 0.11671 0.23882 0.51865 0.0
H2262 H 0.13858 0.30498 0.45071 0.0
H2263 H 0.12666 0.28476 0.47613 0.0
H2264 H 0.17349 0.31512 0.51734 0.0
C2265 C 0.14713 0.25962 0.56172 0.0
C2266 C 0.12901 0.25552 0.51854 0.0
C2267 C 0.14064 0.24991 0.577 0.0
C2268 C 0.15068 0.30727 0.45981 0.0
C2269 C 0.14386 0.29569 0.47438 0.0
C2270 C 0.16123 0.2984 0.51741 0.0
C2271 C 0.13173 0.25538 0.54929 0.0
C2272 C 0.1386 0.26638 0.5332 0.0
C2273 C 0.15897 0.29883 0.4868 0.0
C2274 C 0.15177 0.28755 0.50274 0.0
H2275 H 0.08611 0.22007 0.56975 0.0
H2276 H 0.09735 0.23734 0.54327 0.0
H2277 H 0.16217 0.29699 0.54343 0.0
H2278 H 0.20509 0.3359 0.46789 0.0
H2279 H 0.19326 0.31579 0.49315 0.0
C2280 C 0.74119 0.8538 0.57533 0.0
C2281 C 0.75901 0.87388 0.57908 0.0
C2282 C 0.73189 0.8495 0.55977 0.0
C2283 C 0.72934 0.87476 0.52094 0.0
H2284 H 0.71261 0.81897 0.50329 0.0
C2285 C 0.71018 0.85056 0.45239 0.0
C2286 C 0.69294 0.82989 0.44918 0.0
C2287 C 0.71673 0.85734 0.46848 0.0
C2288 C 0.71694 0.83453 0.50811 0.0
H2289 H 0.78083 0.90536 0.56963 0.0
H2290 H 0.76491 0.89774 0.54225 0.0
H2291 H 0.72716 0.828 0.53081 0.0
H2292 H 0.66791 0.80082 0.46027 0.0
H2293 H 0.67935 0.8126 0.48823 0.0
H2294 H 0.71955 0.88131 0.49784 0.0
C2295 C 0.75784 0.88541 0.55141 0.0
C2296 C 0.72525 0.83971 0.52392 0.0
C2297 C 0.76702 0.88977 0.56707 0.0
C2298 C 0.68157 0.81666 0.46235 0.0
C2299 C 0.68811 0.8234 0.47836 0.0
C2300 C 0.72115 0.8696 0.50499 0.0
C2301 C 0.74034 0.86511 0.54751 0.0
C2302 C 0.73145 0.85984 0.53061 0.0
C2303 C 0.70615 0.84356 0.48158 0.0
C2304 C 0.71474 0.84936 0.49847 0.0
H2305 H 0.73444 0.84138 0.58446 0.0
H2306 H 0.71809 0.83387 0.55735 0.0
H2307 H 0.73377 0.89034 0.52574 0.0
H2308 H 0.7193 0.86107 0.44248 0.0
H2309 H 0.73072 0.87295 0.47061 0.0
C2310 C 0.15748 0.89252 0.57828 0.0
C2311 C 0.13601 0.88759 0.58155 0.0
C2312 C 0.16326 0.88887 0.56286 0.0
C2313 C 0.14198 0.85821 0.5249 0.0
H2314 H 0.19531 0.90366 0.50656 0.0
C2315 C 0.17066 0.85375 0.45945 0.0
C2316 C 0.19307 0.86146 0.45744 0.0
C2317 C 0.16266 0.85703 0.47412 0.0
C2318 C 0.1805 0.89069 0.51155 0.0
H2319 H 0.1036 0.8743 0.57118 0.0
H2320 H 0.11369 0.86758 0.54421 0.0
H2321 H 0.18317 0.90848 0.53313 0.0
H2322 H 0.22464 0.87911 0.46925 0.0
H2323 H 0.21073 0.88422 0.49484 0.0
H2324 H 0.13955 0.84024 0.50344 0.0
C2325 C 0.12603 0.87436 0.55366 0.0
C2326 C 0.17352 0.89349 0.52678 0.0
C2327 C 0.12025 0.87816 0.56912 0.0
C2328 C 0.20726 0.87268 0.47041 0.0
C2329 C 0.19929 0.87588 0.48505 0.0
C2330 C 0.14906 0.85533 0.50967 0.0
C2331 C 0.14769 0.88003 0.5503 0.0
C2332 C 0.15434 0.87721 0.53373 0.0
C2333 C 0.17689 0.86811 0.48713 0.0
C2334 C 0.16857 0.87146 0.50289 0.0
H2335 H 0.16994 0.8993 0.58766 0.0
H2336 H 0.17998 0.89298 0.56076 0.0
H2337 H 0.12719 0.84533 0.52999 0.0
H2338 H 0.15922 0.84487 0.44979 0.0
H2339 H 0.14534 0.85099 0.47523 0.0
C2340 C 0.59347 0.78147 0.1295 0.0
C2341 C 0.60065 0.79555 0.1162 0.0
C2342 C 0.60403 0.78779 0.14463 0.0
C2343 C 0.65691 0.82593 0.16283 0.0
H2344 H 0.62518 0.81118 0.2036 0.0
C2345 C 0.67593 0.8498 0.23505 0.0
C2346 C 0.69517 0.84885 0.2368 0.0
C2347 C 0.66321 0.84206 0.22089 0.0
C2348 C 0.63425 0.81549 0.19231 0.0
H2349 H 0.62444 0.82737 0.10843 0.0
H2350 H 0.64271 0.83846 0.13484 0.0
H2351 H 0.60521 0.80095 0.17771 0.0
H2352 H 0.71536 0.83779 0.22549 0.0
H2353 H 0.69325 0.82436 0.20085 0.0
H2354 H 0.68592 0.84066 0.17734 0.0
C2355 C 0.62902 0.82247 0.13354 0.0
C2356 C 0.62283 0.80948 0.17749 0.0
C2357 C 0.61841 0.81619 0.11845 0.0
C2358 C 0.7009 0.8392 0.22438 0.0
C2359 C 0.68824 0.83151 0.21025 0.0
C2360 C 0.66831 0.83182 0.17761 0.0
C2361 C 0.62208 0.80829 0.14677 0.0
C2362 C 0.63405 0.81469 0.16258 0.0
C2363 C 0.66948 0.83322 0.20818 0.0
C2364 C 0.65714 0.82666 0.19254 0.0
H2365 H 0.57969 0.76553 0.12821 0.0
H2366 H 0.59837 0.77644 0.15454 0.0
H2367 H 0.66606 0.82999 0.15158 0.0
H2368 H 0.67115 0.85729 0.24433 0.0
H2369 H 0.64893 0.84374 0.21964 0.0
C2370 C 0.24488 0.81507 0.12553 0.0
C2371 C 0.23008 0.80389 0.11285 0.0
C2372 C 0.23755 0.81814 0.14055 0.0
C2373 C 0.19027 0.81787 0.15995 0.0
H2374 H 0.21681 0.81345 0.20011 0.0
C2375 C 0.15372 0.81638 0.22292 0.0
C2376 C 0.1682 0.82884 0.23538 0.0
C2377 C 0.1615 0.81316 0.20818 0.0
C2378 C 0.20938 0.81494 0.18899 0.0
H2379 H 0.19592 0.78735 0.10606 0.0
H2380 H 0.1831 0.79222 0.13235 0.0
H2381 H 0.22986 0.80821 0.17397 0.0
H2382 H 0.2023 0.84755 0.24209 0.0
H2383 H 0.21588 0.84176 0.21638 0.0
H2384 H 0.1697 0.82446 0.17498 0.0
C2385 C 0.20043 0.79888 0.13062 0.0
C2386 C 0.21687 0.81196 0.174 0.0
C2387 C 0.20776 0.79585 0.11559 0.0
C2388 C 0.19068 0.83766 0.23284 0.0
C2389 C 0.19847 0.83437 0.2181 0.0
C2390 C 0.18274 0.82076 0.17493 0.0
C2391 C 0.21522 0.81008 0.1433 0.0
C2392 C 0.20738 0.81336 0.15928 0.0
C2393 C 0.18397 0.82224 0.20554 0.0
C2394 C 0.19216 0.81929 0.18963 0.0
H2395 H 0.26216 0.82127 0.12392 0.0
H2396 H 0.24943 0.82704 0.14996 0.0
H2397 H 0.18285 0.81947 0.14887 0.0
H2398 H 0.13629 0.80898 0.22457 0.0
H2399 H 0.14988 0.80341 0.19888 0.0
C2400 C 0.2091 0.43536 0.13002 0.0
C2401 C 0.21692 0.42926 0.11651 0.0
C2402 C 0.20483 0.42431 0.14478 0.0
C2403 C 0.18929 0.3719 0.16127 0.0
H2404 H 0.20954 0.40106 0.20278 0.0
C2405 C 0.17291 0.32433 0.22097 0.0
C2406 C 0.16886 0.33253 0.23522 0.0
C2407 C 0.18036 0.3367 0.20685 0.0
C2408 C 0.20343 0.39261 0.19135 0.0
H2409 H 0.22645 0.40683 0.10789 0.0
H2410 H 0.21856 0.38721 0.13363 0.0
H2411 H 0.21929 0.42158 0.17756 0.0
H2412 H 0.16954 0.36017 0.24591 0.0
H2413 H 0.18174 0.38159 0.22115 0.0
H2414 H 0.17268 0.34305 0.17484 0.0
C2415 C 0.2159 0.40066 0.1328 0.0
C2416 C 0.20916 0.40442 0.17688 0.0
C2417 C 0.22054 0.41196 0.11812 0.0
C2418 C 0.17272 0.35351 0.23513 0.0
C2419 C 0.17982 0.36581 0.22091 0.0
C2420 C 0.18325 0.36012 0.17572 0.0
C2421 C 0.20792 0.40667 0.14628 0.0
C2422 C 0.2022 0.39419 0.16168 0.0
C2423 C 0.18358 0.35753 0.20648 0.0
C2424 C 0.19026 0.37025 0.19102 0.0
H2425 H 0.20628 0.4487 0.12916 0.0
H2426 H 0.19858 0.42923 0.15492 0.0
H2427 H 0.18341 0.36359 0.14975 0.0
H2428 H 0.1703 0.30827 0.22075 0.0
H2429 H 0.18359 0.32985 0.19623 0.0
C2430 C 0.77374 0.56747 0.90108 0.0
C2431 C 0.78891 0.5713 0.91361 0.0
C2432 C 0.78054 0.57748 0.88592 0.0
C2433 C 0.82667 0.62423 0.86626 0.0
H2434 H 0.79932 0.59445 0.82606 0.0
C2435 C 0.86068 0.66145 0.80353 0.0
C2436 C 0.84571 0.65959 0.79141 0.0
C2437 C 0.85358 0.64979 0.81798 0.0
C2438 C 0.80699 0.60306 0.83718 0.0
H2439 H 0.82324 0.58872 0.91985 0.0
H2440 H 0.83513 0.60574 0.89336 0.0
H2441 H 0.78744 0.57585 0.85208 0.0
H2442 H 0.81146 0.64351 0.78496 0.0
H2443 H 0.79905 0.62307 0.81021 0.0
H2444 H 0.84621 0.65141 0.85142 0.0
C2445 C 0.8179 0.59521 0.89532 0.0
C2446 C 0.80017 0.59239 0.85213 0.0
C2447 C 0.8111 0.58521 0.91048 0.0
C2448 C 0.82346 0.64522 0.79395 0.0
C2449 C 0.81635 0.63351 0.80844 0.0
C2450 C 0.83351 0.63485 0.85135 0.0
C2451 C 0.80271 0.59161 0.88286 0.0
C2452 C 0.80995 0.60284 0.86688 0.0
C2453 C 0.83131 0.63589 0.82075 0.0
C2454 C 0.82381 0.62441 0.8366 0.0
H2455 H 0.75655 0.55664 0.90296 0.0
H2456 H 0.76834 0.57444 0.87671 0.0
H2457 H 0.83428 0.63296 0.87735 0.0
H2458 H 0.87797 0.67199 0.80186 0.0
H2459 H 0.86561 0.65168 0.82701 0.0
C2460 C 0.43386 0.20329 0.90442 0.0
C2461 C 0.42909 0.21294 0.91743 0.0
C2462 C 0.424 0.20087 0.88917 0.0
C2463 C 0.37634 0.19971 0.86938 0.0
H2464 H 0.40864 0.20627 0.82968 0.0
C2465 C 0.34155 0.19968 0.80567 0.0
C2466 C 0.34391 0.18718 0.79359 0.0
C2467 C 0.35254 0.20357 0.82056 0.0
C2468 C 0.39938 0.20423 0.84067 0.0
H2469 H 0.41018 0.22768 0.92451 0.0
H2470 H 0.39355 0.2241 0.8978 0.0
H2471 H 0.42679 0.21197 0.85607 0.0
H2472 H 0.35984 0.16906 0.78776 0.0
H2473 H 0.37927 0.17614 0.81369 0.0
H2474 H 0.349 0.19215 0.85394 0.0
C2475 C 0.40463 0.21804 0.89946 0.0
C2476 C 0.40975 0.20745 0.8558 0.0
C2477 C 0.4144 0.22036 0.91474 0.0
C2478 C 0.35787 0.179 0.79668 0.0
C2479 C 0.36898 0.18302 0.81155 0.0
C2480 C 0.36604 0.19664 0.85425 0.0
C2481 C 0.4092 0.20815 0.8865 0.0
C2482 C 0.39834 0.20515 0.87036 0.0
C2483 C 0.36628 0.19519 0.82371 0.0
C2484 C 0.37742 0.1988 0.83974 0.0
H2485 H 0.44532 0.19766 0.90597 0.0
H2486 H 0.42774 0.19297 0.87955 0.0
H2487 H 0.36692 0.1974 0.88032 0.0
H2488 H 0.33128 0.2066 0.80359 0.0
H2489 H 0.35041 0.21329 0.8296 0.0
C2490 C 0.80983 0.24023 0.89967 0.0
C2491 C 0.80113 0.22453 0.91181 0.0
C2492 C 0.81542 0.23578 0.88445 0.0
C2493 C 0.80797 0.19165 0.85708 0.0
H2494 H 0.86172 0.23569 0.8382 0.0
C2495 C 0.8365 0.18386 0.79252 0.0
C2496 C 0.85886 0.19137 0.79049 0.0
C2497 C 0.82867 0.18773 0.80702 0.0
C2498 C 0.84676 0.22314 0.84334 0.0
H2499 H 0.79105 0.19169 0.91741 0.0
H2500 H 0.80113 0.18392 0.89086 0.0
H2501 H 0.84936 0.24226 0.86401 0.0
H2502 H 0.89053 0.20912 0.80213 0.0
H2503 H 0.87689 0.21531 0.82749 0.0
H2504 H 0.8058 0.17229 0.8366 0.0
C2505 C 0.80333 0.19963 0.89302 0.0
C2506 C 0.83948 0.22702 0.85806 0.0
C2507 C 0.79759 0.20407 0.90825 0.0
C2508 C 0.87318 0.20287 0.80332 0.0
C2509 C 0.86537 0.20667 0.81781 0.0
C2510 C 0.81529 0.18774 0.84235 0.0
C2511 C 0.8126 0.21553 0.881 0.0
C2512 C 0.82001 0.21133 0.86515 0.0
C2513 C 0.84303 0.19919 0.81986 0.0
C2514 C 0.83485 0.20341 0.83533 0.0
H2515 H 0.81236 0.25604 0.90196 0.0
H2516 H 0.82202 0.24826 0.87538 0.0
H2517 H 0.79279 0.17928 0.8621 0.0
H2518 H 0.82496 0.17476 0.78296 0.0
H2519 H 0.81139 0.18191 0.80811 0.0
C2520 C 0.28204 0.14607 0.45263 0.0
C2521 C 0.26726 0.12536 0.44713 0.0
C2522 C 0.29005 0.14963 0.46865 0.0
C2523 C 0.28031 0.12283 0.50931 0.0
H2524 H 0.34049 0.16574 0.51727 0.0
C2525 C 0.33121 0.1237 0.56476 0.0
C2526 C 0.3405 0.14239 0.57419 0.0
C2527 C 0.32144 0.12294 0.54977 0.0
C2528 C 0.3236 0.15385 0.5152 0.0
H2529 H 0.24881 0.09224 0.45456 0.0
H2530 H 0.26372 0.09818 0.48183 0.0
H2531 H 0.32495 0.16192 0.49001 0.0
H2532 H 0.34717 0.17495 0.57546 0.0
H2533 H 0.33066 0.17383 0.54876 0.0
H2534 H 0.27955 0.11406 0.53437 0.0
C2535 C 0.2688 0.11186 0.47401 0.0
C2536 C 0.31461 0.1517 0.49962 0.0
C2537 C 0.26053 0.10837 0.45815 0.0
C2538 C 0.34005 0.16038 0.56836 0.0
C2539 C 0.33071 0.15976 0.55315 0.0
C2540 C 0.28946 0.1247 0.52476 0.0
C2541 C 0.28369 0.13253 0.47953 0.0
C2542 C 0.29289 0.13596 0.49639 0.0
C2543 C 0.32122 0.14098 0.54381 0.0
C2544 C 0.31121 0.14008 0.52778 0.0
H2545 H 0.28774 0.15956 0.44451 0.0
H2546 H 0.30122 0.16582 0.47247 0.0
H2547 H 0.26339 0.11093 0.5075 0.0
H2548 H 0.33132 0.10964 0.56909 0.0
H2549 H 0.3143 0.10833 0.5427 0.0
C2550 C 0.8943 0.15475 0.44885 0.0
C2551 C 0.89365 0.13564 0.44463 0.0
C2552 C 0.88756 0.15736 0.46427 0.0
C2553 C 0.85434 0.12669 0.49961 0.0
H2554 H 0.88512 0.18132 0.52165 0.0
C2555 C 0.85629 0.16759 0.56619 0.0
C2556 C 0.83381 0.15883 0.56865 0.0
C2557 C 0.86415 0.16426 0.55149 0.0
C2558 C 0.87647 0.16589 0.51576 0.0
H2559 H 0.88577 0.1044 0.45342 0.0
H2560 H 0.87416 0.10898 0.48035 0.0
H2561 H 0.89808 0.17655 0.49537 0.0
H2562 H 0.80196 0.13917 0.5577 0.0
H2563 H 0.81562 0.13382 0.53201 0.0
H2564 H 0.83297 0.1159 0.52012 0.0
C2565 C 0.87949 0.12184 0.47164 0.0
C2566 C 0.88373 0.16323 0.50057 0.0
C2567 C 0.88616 0.11921 0.45621 0.0
C2568 C 0.81939 0.1464 0.55615 0.0
C2569 C 0.82723 0.1431 0.54147 0.0
C2570 C 0.84711 0.12933 0.5148 0.0
C2571 C 0.88007 0.14094 0.47587 0.0
C2572 C 0.87268 0.14364 0.49224 0.0
C2573 C 0.84971 0.15207 0.5389 0.0
C2574 C 0.85797 0.14901 0.52303 0.0
H2575 H 0.8997 0.16761 0.44013 0.0
H2576 H 0.88787 0.17214 0.46699 0.0
H2577 H 0.8453 0.11144 0.4935 0.0
H2578 H 0.86787 0.17739 0.57549 0.0
H2579 H 0.88155 0.1712 0.55 0.0
C2580 C 0.88432 0.75041 0.45009 0.0
C2581 C 0.87932 0.76651 0.44672 0.0
C2582 C 0.87952 0.74042 0.46534 0.0
C2583 C 0.86907 0.74702 0.50832 0.0
H2584 H 0.83777 0.68534 0.50922 0.0
C2585 C 0.83076 0.69965 0.56768 0.0
C2586 C 0.8294 0.67977 0.56962 0.0
C2587 C 0.83824 0.7109 0.55303 0.0
C2588 C 0.84687 0.70257 0.5093 0.0
H2589 H 0.86602 0.78522 0.45686 0.0
H2590 H 0.85788 0.76794 0.48354 0.0
H2591 H 0.84874 0.70375 0.4832 0.0
H2592 H 0.8358 0.65656 0.55809 0.0
H2593 H 0.8496 0.67641 0.53285 0.0
H2594 H 0.86758 0.74597 0.53439 0.0
C2595 C 0.86539 0.76297 0.47437 0.0
C2596 C 0.85308 0.71311 0.49432 0.0
C2597 C 0.86989 0.77274 0.45905 0.0
C2598 C 0.83638 0.67172 0.55684 0.0
C2599 C 0.84416 0.68308 0.54231 0.0
C2600 C 0.86312 0.73649 0.52335 0.0
C2601 C 0.86994 0.74655 0.47763 0.0
C2602 C 0.86412 0.73545 0.49364 0.0
C2603 C 0.84484 0.70267 0.54004 0.0
C2604 C 0.85181 0.71407 0.52407 0.0
H2605 H 0.89151 0.74522 0.44081 0.0
H2606 H 0.88335 0.7279 0.46753 0.0
H2607 H 0.87775 0.76427 0.50819 0.0
H2608 H 0.82533 0.70615 0.57729 0.0
H2609 H 0.83822 0.72576 0.55175 0.0
loop_
_geom_bond_atom_site_label_1
_geom_bond_atom_site_label_2
_geom_bond_distance
_geom_bond_site_symmetry_2
_ccdc_geom_bond_type
H0 C7 0.929 . S
H1 C10 0.930 . S
H2 C12 0.929 . S
H3 C4 0.969 . S
C4 H3 0.969 . S
C4 O5 1.550 . S
C4 H6 0.973 . S
O5 C4 1.550 . S
O5 C11 1.412 . S
H6 C4 0.973 . S
C7 H0 0.929 . S
C7 C8 1.400 . S
C7 C9 1.364 . S
C8 C7 1.400 . S
C8 C12 1.377 . S
C9 C7 1.364 . S
C9 C10 1.374 . S
C10 H1 0.930 . S
C10 C9 1.374 . S
C10 C11 1.383 . S
C11 O5 1.412 . S
C11 C10 1.383 . S
C11 C12 1.394 . S
C12 H2 0.929 . S
C12 C8 1.377 . S
C12 C11 1.394 . S
H13 C20 0.929 . S
H14 C23 0.930 . S
H15 C25 0.929 . S
H16 C17 0.969 . S
C17 H16 0.969 . S
C17 O18 1.550 . S
C17 H19 0.973 . S
O18 C17 1.550 . S
O18 C24 1.412 . S
H19 C17 0.973 . S
C20 H13 0.929 . S
C20 C21 1.400 . S
C20 C22 1.364 . S
C21 C20 1.400 . S
C21 C25 1.377 . S
C22 C20 1.364 . S
C22 C23 1.374 . S
C23 H14 0.930 . S
C23 C22 1.374 . S
C23 C24 1.383 . S
C24 O18 1.412 . S
C24 C23 1.383 . S
C24 C25 1.394 . S
C25 H15 0.929 . S
C25 C21 1.377 . S
C25 C24 1.394 . S
H26 C33 0.929 . S
H27 C36 0.930 . S
H28 C38 0.929 . S
H29 C30 0.969 . S
C30 H29 0.969 . S
C30 O31 1.550 . S
C30 H32 0.973 . S
O31 C30 1.550 . S
O31 C37 1.412 . S
H32 C30 0.973 . S
C33 H26 0.929 . S
C33 C34 1.400 . S
C33 C35 1.364 . S
C34 C33 1.400 . S
C34 C38 1.377 . S
C35 C33 1.364 . S
C35 C36 1.374 . S
C36 H27 0.930 . S
C36 C35 1.374 . S
C36 C37 1.383 . S
C37 O31 1.412 . S
C37 C36 1.383 . S
C37 C38 1.394 . S
C38 H28 0.929 . S
C38 C34 1.377 . S
C38 C37 1.394 . S
H39 C46 0.929 . S
H40 C49 0.930 . S
H41 C51 0.929 . S
H42 C43 0.969 . S
C43 H42 0.969 . S
C43 O44 1.550 . S
C43 H45 0.973 . S
O44 C43 1.550 . S
O44 C50 1.412 . S
H45 C43 0.973 . S
C46 H39 0.929 . S
C46 C47 1.400 . S
C46 C48 1.364 . S
C47 C46 1.400 . S
C47 C51 1.377 . S
C48 C46 1.364 . S
C48 C49 1.374 . S
C49 H40 0.930 . S
C49 C48 1.374 . S
C49 C50 1.383 . S
C50 O44 1.412 . S
C50 C49 1.383 . S
C50 C51 1.394 . S
C51 H41 0.929 . S
C51 C47 1.377 . S
C51 C50 1.394 . S
H52 C59 0.929 . S
H53 C62 0.930 . S
H54 C64 0.929 . S
H55 C56 0.969 . S
C56 H55 0.969 . S
C56 O57 1.550 . S
C56 H58 0.973 . S
O57 C56 1.550 . S
O57 C63 1.412 . S
H58 C56 0.973 . S
C59 H52 0.929 . S
C59 C60 1.400 . S
C59 C61 1.364 . S
C60 C59 1.400 . S
C60 C64 1.377 . S
C61 C59 1.364 . S
C61 C62 1.374 . S
C62 H53 0.930 . S
C62 C61 1.374 . S
C62 C63 1.383 . S
C63 O57 1.412 . S
C63 C62 1.383 . S
C63 C64 1.394 . S
C64 H54 0.929 . S
C64 C60 1.377 . S
C64 C63 1.394 . S
H65 C72 0.929 . S
H66 C75 0.930 . S
H67 C77 0.929 . S
H68 C69 0.969 . S
C69 H68 0.969 . S
C69 O70 1.550 . S
C69 H71 0.973 . S
O70 C69 1.550 . S
O70 C76 1.412 . S
H71 C69 0.973 . S
C72 H65 0.929 . S
C72 C73 1.400 . S
C72 C74 1.364 . S
C73 C72 1.400 . S
C73 C77 1.377 . S
C74 C72 1.364 . S
C74 C75 1.374 . S
C75 H66 0.930 . S
C75 C74 1.374 . S
C75 C76 1.383 . S
C76 O70 1.412 . S
C76 C75 1.383 . S
C76 C77 1.394 . S
C77 H67 0.929 . S
C77 C73 1.377 . S
C77 C76 1.394 . S
H78 C85 0.929 . S
H79 C88 0.930 . S
H80 C90 0.929 . S
H81 C82 0.969 . S
C82 H81 0.969 . S
C82 O83 1.550 . S
C82 H84 0.973 . S
O83 C82 1.550 . S
O83 C89 1.412 . S
H84 C82 0.973 . S
C85 H78 0.929 . S
C85 C86 1.400 . S
C85 C87 1.364 . S
C86 C85 1.400 . S
C86 C90 1.377 . S
C87 C85 1.364 . S
C87 C88 1.374 . S
C88 H79 0.930 . S
C88 C87 1.374 . S
C88 C89 1.383 . S
C89 O83 1.412 . S
C89 C88 1.383 . S
C89 C90 1.394 . S
C90 H80 0.929 . S
C90 C86 1.377 . S
C90 C89 1.394 . S
H91 C98 0.929 . S
H92 C101 0.930 . S
H93 C103 0.929 . S
H94 C95 0.969 . S
C95 H94 0.969 . S
C95 O96 1.550 . S
C95 H97 0.973 . S
O96 C95 1.550 . S
O96 C102 1.412 . S
H97 C95 0.973 . S
C98 H91 0.929 . S
C98 C99 1.400 . S
C98 C100 1.364 . S
C99 C98 1.400 . S
C99 C103 1.377 . S
C100 C98 1.364 . S
C100 C101 1.374 . S
C101 H92 0.930 . S
C101 C100 1.374 . S
C101 C102 1.383 . S
C102 O96 1.412 . S
C102 C101 1.383 . S
C102 C103 1.394 . S
C103 H93 0.929 . S
C103 C99 1.377 . S
C103 C102 1.394 . S
H104 C111 0.929 . S
H105 C114 0.930 . S
H106 C116 0.929 . S
H107 C108 0.969 . S
C108 H107 0.969 . S
C108 O109 1.550 . S
C108 H110 0.973 . S
O109 C108 1.550 . S
O109 C115 1.412 . S
H110 C108 0.973 . S
C111 H104 0.929 . S
C111 C112 1.400 . S
C111 C113 1.364 . S
C112 C111 1.400 . S
C112 C116 1.377 . S
C113 C111 1.364 . S
C113 C114 1.374 . S
C114 H105 0.930 . S
C114 C113 1.374 . S
C114 C115 1.383 . S
C115 O109 1.412 . S
C115 C114 1.383 . S
C115 C116 1.394 . S
C116 H106 0.929 . S
C116 C112 1.377 . S
C116 C115 1.394 . S
H117 C124 0.929 . S
H118 C127 0.930 . S
H119 C129 0.929 . S
H120 C121 0.969 . S
C121 H120 0.969 . S
C121 O122 1.550 . S
C121 H123 0.973 . S
O122 C121 1.550 . S
O122 C128 1.412 . S
H123 C121 0.973 . S
C124 H117 0.929 . S
C124 C125 1.400 . S
C124 C126 1.364 . S
C125 C124 1.400 . S
C125 C129 1.377 . S
C126 C124 1.364 . S
C126 C127 1.374 . S
C127 H118 0.930 . S
C127 C126 1.374 . S
C127 C128 1.383 . S
C128 O122 1.412 . S
C128 C127 1.383 . S
C128 C129 1.394 . S
C129 H119 0.929 . S
C129 C125 1.377 . S
C129 C128 1.394 . S
H130 C137 0.929 . S
H131 C140 0.930 . S
H132 C142 0.929 . S
H133 C134 0.969 . S
C134 H133 0.969 . S
C134 O135 1.550 . S
C134 H136 0.973 . S
O135 C134 1.550 . S
O135 C141 1.412 . S
H136 C134 0.973 . S
C137 H130 0.929 . S
C137 C138 1.400 . S
C137 C139 1.364 . S
C138 C137 1.400 . S
C138 C142 1.377 . S
C139 C137 1.364 . S
C139 C140 1.374 . S
C140 H131 0.930 . S
C140 C139 1.374 . S
C140 C141 1.383 . S
C141 O135 1.412 . S
C141 C140 1.383 . S
C141 C142 1.394 . S
C142 H132 0.929 . S
C142 C138 1.377 . S
C142 C141 1.394 . S
H143 C150 0.929 . S
H144 C153 0.930 . S
H145 C155 0.929 . S
H146 C147 0.969 . S
C147 H146 0.969 . S
C147 O148 1.550 . S
C147 H149 0.973 . S
O148 C147 1.550 . S
O148 C154 1.412 . S
H149 C147 0.973 . S
C150 H143 0.929 . S
C150 C151 1.400 . S
C150 C152 1.364 . S
C151 C150 1.400 . S
C151 C155 1.377 . S
C152 C150 1.364 . S
C152 C153 1.374 . S
C153 H144 0.930 . S
C153 C152 1.374 . S
C153 C154 1.383 . S
C154 O148 1.412 . S
C154 C153 1.383 . S
C154 C155 1.394 . S
C155 H145 0.929 . S
C155 C151 1.377 . S
C155 C154 1.394 . S
H156 C163 0.929 . S
H157 C166 0.930 . S
H158 C168 0.929 . S
H159 C160 0.969 . S
C160 H159 0.969 . S
C160 O161 1.550 . S
C160 H162 0.973 . S
O161 C160 1.550 . S
O161 C167 1.412 . S
H162 C160 0.973 . S
C163 H156 0.929 . S
C163 C164 1.400 . S
C163 C165 1.364 . S
C164 C163 1.400 . S
C164 C168 1.377 . S
C165 C163 1.364 . S
C165 C166 1.374 . S
C166 H157 0.930 . S
C166 C165 1.374 . S
C166 C167 1.383 . S
C167 O161 1.412 . S
C167 C166 1.383 . S
C167 C168 1.394 . S
C168 H158 0.929 . S
C168 C164 1.377 . S
C168 C167 1.394 . S
H169 C176 0.929 . S
H170 C179 0.930 . S
H171 C181 0.929 . S
H172 C173 0.969 . S
C173 H172 0.969 . S
C173 O174 1.550 . S
C173 H175 0.973 . S
O174 C173 1.550 . S
O174 C180 1.412 . S
H175 C173 0.973 . S
C176 H169 0.929 . S
C176 C177 1.400 . S
C176 C178 1.364 . S
C177 C176 1.400 . S
C177 C181 1.377 . S
C178 C176 1.364 . S
C178 C179 1.374 . S
C179 H170 0.930 . S
C179 C178 1.374 . S
C179 C180 1.383 . S
C180 O174 1.412 . S
C180 C179 1.383 . S
C180 C181 1.394 . S
C181 H171 0.929 . S
C181 C177 1.377 . S
C181 C180 1.394 . S
H182 C189 0.929 . S
H183 C192 0.930 . S
H184 C194 0.929 . S
H185 C186 0.969 . S
C186 H185 0.969 . S
C186 O187 1.550 . S
C186 H188 0.973 . S
O187 C186 1.550 . S
O187 C193 1.412 . S
H188 C186 0.973 . S
C189 H182 0.929 . S
C189 C190 1.400 . S
C189 C191 1.364 . S
C190 C189 1.400 . S
C190 C194 1.377 . S
C191 C189 1.364 . S
C191 C192 1.374 . S
C192 H183 0.930 . S
C192 C191 1.374 . S
C192 C193 1.383 . S
C193 O187 1.412 . S
C193 C192 1.383 . S
C193 C194 1.394 . S
C194 H184 0.929 . S
C194 C190 1.377 . S
C194 C193 1.394 . S
H195 C202 0.929 . S
H196 C205 0.930 . S
H197 C207 0.929 . S
H198 C199 0.969 . S
C199 H198 0.969 . S
C199 O200 1.550 . S
C199 H201 0.973 . S
O200 C199 1.550 . S
O200 C206 1.412 . S
H201 C199 0.973 . S
C202 H195 0.929 . S
C202 C203 1.400 . S
C202 C204 1.364 . S
C203 C202 1.400 . S
C203 C207 1.377 . S
C204 C202 1.364 . S
C204 C205 1.374 . S
C205 H196 0.930 . S
C205 C204 1.374 . S
C205 C206 1.383 . S
C206 O200 1.412 . S
C206 C205 1.383 . S
C206 C207 1.394 . S
C207 H197 0.929 . S
C207 C203 1.377 . S
C207 C206 1.394 . S
H208 C215 0.929 . S
H209 C218 0.930 . S
H210 C220 0.929 . S
H211 C212 0.969 . S
C212 H211 0.969 . S
C212 O213 1.550 . S
C212 H214 0.973 . S
O213 C212 1.550 . S
O213 C219 1.412 . S
H214 C212 0.973 . S
C215 H208 0.929 . S
C215 C216 1.400 . S
C215 C217 1.364 . S
C216 C215 1.400 . S
C216 C220 1.377 . S
C217 C215 1.364 . S
C217 C218 1.374 . S
C218 H209 0.930 . S
C218 C217 1.374 . S
C218 C219 1.383 . S
C219 O213 1.412 . S
C219 C218 1.383 . S
C219 C220 1.394 . S
C220 H210 0.929 . S
C220 C216 1.377 . S
C220 C219 1.394 . S
H221 C228 0.929 . S
H222 C231 0.930 . S
H223 C233 0.929 . S
H224 C225 0.969 . S
C225 H224 0.969 . S
C225 O226 1.550 . S
C225 H227 0.973 . S
O226 C225 1.550 . S
O226 C232 1.412 . S
H227 C225 0.973 . S
C228 H221 0.929 . S
C228 C229 1.400 . S
C228 C230 1.364 . S
C229 C228 1.400 . S
C229 C233 1.377 . S
C230 C228 1.364 . S
C230 C231 1.374 . S
C231 H222 0.930 . S
C231 C230 1.374 . S
C231 C232 1.383 . S
C232 O226 1.412 . S
C232 C231 1.383 . S
C232 C233 1.394 . S
C233 H223 0.929 . S
C233 C229 1.377 . S
C233 C232 1.394 . S
Gd234 N265 2.661 . S
Gd234 N271 2.601 . S
Gd234 O278 2.545 . S
Gd234 O279 2.606 1_545 S
Gd234 O281 2.429 . S
Gd234 O282 2.545 1_545 S
Gd234 O283 2.412 1_545 S
Gd234 O285 2.362 . S
Gd234 O286 2.324 1_545 S
Gd234 C293 2.828 . S
Gd235 N244 2.661 . S
Gd235 N248 2.601 . S
Gd235 O279 2.362 1_556 S
Gd235 O280 2.324 1_565 S
Gd235 O284 2.545 . S
Gd235 O285 2.606 1_566 S
Gd235 O287 2.429 1_556 S
Gd235 O288 2.545 1_565 S
Gd235 O289 2.412 1_565 S
Gd235 C302 2.828 1_565 S
C236 C239 1.417 . S
C236 C241 1.431 . S
C236 C242 1.412 . S
C237 C240 1.437 . S
C237 C241 1.317 . S
C237 H256 0.929 . S
C238 C239 1.426 . S
C238 C240 1.413 . S
C238 N248 1.359 . S
C239 C236 1.417 . S
C239 C238 1.426 . S
C239 N244 1.350 . S
C240 C237 1.437 . S
C240 C238 1.413 . S
C240 C250 1.391 . S
C241 C236 1.431 . S
C241 C237 1.317 . S
C241 H252 0.930 . S
C242 C236 1.412 . S
C242 C243 1.355 . S
C242 H254 0.930 . S
C243 C242 1.355 . S
C243 C245 1.402 . S
C243 H255 0.930 . S
N244 Gd235 2.661 . S
N244 C239 1.350 . S
N244 C245 1.307 . S
C245 C243 1.402 . S
C245 N244 1.307 . S
C245 H246 0.939 . S
H246 C245 0.939 . S
C247 N248 1.334 . S
C247 C249 1.394 . S
C247 H251 0.930 . S
N248 Gd235 2.601 . S
N248 C238 1.359 . S
N248 C247 1.334 . S
C249 C247 1.394 . S
C249 C250 1.359 . S
C249 H261 0.930 . S
C250 C240 1.391 . S
C250 C249 1.359 . S
C250 H262 0.929 . S
H251 C247 0.930 . S
H252 C241 0.930 . S
H253 C270 0.930 . S
H254 C242 0.930 . S
H255 C243 0.930 . S
H256 C237 0.929 . S
H257 C275 0.930 . S
H258 C266 0.930 . S
H259 C267 0.930 . S
H260 C291 0.929 . S
H261 C249 0.930 . S
H262 C250 0.929 . S
H263 C292 0.930 . S
H264 C273 0.930 . S
N265 Gd234 2.661 . S
N265 C269 1.350 . S
N265 C270 1.307 . S
C266 H258 0.930 . S
C266 C267 1.355 . S
C266 C268 1.412 . S
C267 H259 0.930 . S
C267 C266 1.355 . S
C267 C270 1.402 . S
C268 C266 1.412 . S
C268 C269 1.417 . S
C268 C292 1.431 . S
C269 N265 1.350 . S
C269 C268 1.417 . S
C269 C272 1.426 . S
C270 H253 0.930 . S
C270 N265 1.307 . S
C270 C267 1.402 . S
N271 Gd234 2.601 . S
N271 C272 1.359 . S
N271 C275 1.334 . S
C272 C269 1.426 . S
C272 N271 1.359 . S
C272 C276 1.413 . S
C273 H264 0.930 . S
C273 C274 1.359 . S
C273 C275 1.394 . S
C274 C273 1.359 . S
C274 C276 1.391 . S
C274 H277 0.929 . S
C275 H257 0.930 . S
C275 N271 1.334 . S
C275 C273 1.394 . S
C276 C272 1.413 . S
C276 C274 1.391 . S
C276 C291 1.437 . S
H277 C274 0.929 . S
O278 Gd234 2.545 . S
O278 C293 1.258 . S
O279 Gd234 2.606 1_565 S
O279 Gd235 2.362 1_554 S
O279 C290 1.284 . S
O280 Gd235 2.324 1_545 S
O280 C300 1.254 1_556 S
O281 Gd234 2.429 . S
O281 C300 1.268 . S
O282 Gd234 2.545 1_565 S
O282 C290 1.250 . S
O283 Gd234 2.412 1_565 S
O283 C293 1.252 1_565 S
O284 Gd235 2.545 . S
O284 C302 1.258 1_565 S
O285 Gd234 2.362 . S
O285 Gd235 2.606 1_544 S
O285 C301 1.284 1_554 S
O286 Gd234 2.324 1_565 S
O286 C309 1.254 . S
O287 Gd235 2.429 1_554 S
O287 C309 1.268 . S
O288 Gd235 2.545 1_545 S
O288 C301 1.250 . S
O289 Gd235 2.412 1_545 S
O289 C302 1.252 . S
C290 O279 1.284 . S
C290 O282 1.250 . S
C291 H260 0.929 . S
C291 C276 1.437 . S
C291 C292 1.317 . S
C292 H263 0.930 . S
C292 C268 1.431 . S
C292 C291 1.317 . S
C293 Gd234 2.828 . S
C293 O278 1.258 . S
C293 O283 1.252 1_545 S
C293 C294 1.499 . S
C294 C293 1.499 . S
C294 C295 1.407 . S
C294 C296 1.366 1_545 S
C295 C294 1.407 . S
C295 C298 1.398 . S
C295 H310 0.930 . S
C296 C294 1.366 1_565 S
C296 C297 1.391 . S
C296 H311 0.930 . S
C297 C296 1.391 . S
C297 C299 1.387 . S
C298 C295 1.398 . S
C298 C299 1.380 1_545 S
C298 H312 0.930 . S
C299 C297 1.387 . S
C299 C298 1.380 1_565 S
C299 H313 0.930 . S
C300 O280 1.254 1_554 S
C300 O281 1.268 . S
C301 O285 1.284 1_556 S
C301 O288 1.250 . S
C302 Gd235 2.828 1_545 S
C302 O284 1.258 1_545 S
C302 O289 1.252 . S
C302 C303 1.497 . S
C303 C302 1.497 . S
C303 C304 1.395 1_545 S
C303 C305 1.380 . S
C304 C303 1.395 1_565 S
C304 C307 1.401 . S
C304 H314 0.930 . S
C305 C303 1.380 . S
C305 C306 1.391 . S
C305 H315 0.930 . S
C306 C305 1.391 . S
C306 C308 1.387 . S
C307 C304 1.401 . S
C307 C308 1.364 1_565 S
C307 H316 0.943 . S
C308 C306 1.387 . S
C308 C307 1.364 1_545 S
C308 H317 0.930 . S
C309 O286 1.254 . S
C309 O287 1.268 . S
H310 C295 0.930 . S
H311 C296 0.930 . S
H312 C298 0.930 . S
H313 C299 0.930 . S
H314 C304 0.930 . S
H315 C305 0.930 . S
H316 C307 0.943 . S
H317 C308 0.930 . S
Gd318 N349 2.661 . S
Gd318 N355 2.601 . S
Gd318 O362 2.545 . S
Gd318 O363 2.606 1_655 S
Gd318 O365 2.429 . S
Gd318 O366 2.545 1_655 S
Gd318 O367 2.412 1_655 S
Gd318 O369 2.362 . S
Gd318 O370 2.324 1_655 S
Gd318 C377 2.828 1_655 S
Gd319 N328 2.661 . S
Gd319 N332 2.601 . S
Gd319 O363 2.362 1_556 S
Gd319 O364 2.324 1_455 S
Gd319 O368 2.545 . S
Gd319 O369 2.606 1_456 S
Gd319 O371 2.429 1_556 S
Gd319 O372 2.545 1_455 S
Gd319 O373 2.417 . S
Gd319 C386 2.828 . S
C320 C323 1.417 . S
C320 C325 1.431 . S
C320 C326 1.412 . S
C321 C324 1.437 . S
C321 C325 1.317 . S
C321 H340 0.929 . S
C322 C323 1.426 . S
C322 C324 1.413 . S
C322 N332 1.359 . S
C323 C320 1.417 . S
C323 C322 1.426 . S
C323 N328 1.350 . S
C324 C321 1.437 . S
C324 C322 1.413 . S
C324 C334 1.391 . S
C325 C320 1.431 . S
C325 C321 1.317 . S
C325 H336 0.930 . S
C326 C320 1.412 . S
C326 C327 1.355 . S
C326 H338 0.930 . S
C327 C326 1.355 . S
C327 C329 1.402 . S
C327 H339 0.930 . S
N328 Gd319 2.661 . S
N328 C323 1.350 . S
N328 C329 1.307 . S
C329 C327 1.402 . S
C329 N328 1.307 . S
C329 H330 0.930 . S
H330 C329 0.930 . S
C331 N332 1.334 . S
C331 C333 1.394 . S
C331 H335 0.930 . S
N332 Gd319 2.601 . S
N332 C322 1.359 . S
N332 C331 1.334 . S
C333 C331 1.394 . S
C333 C334 1.359 . S
C333 H345 0.930 . S
C334 C324 1.391 . S
C334 C333 1.359 . S
C334 H346 0.929 . S
H335 C331 0.930 . S
H336 C325 0.930 . S
H337 C354 0.927 . S
H338 C326 0.930 . S
H339 C327 0.930 . S
H340 C321 0.929 . S
H341 C359 0.930 . S
H342 C350 0.930 . S
H343 C351 0.930 . S
H344 C375 0.929 . S
H345 C333 0.930 . S
H346 C334 0.929 . S
H347 C376 0.930 . S
H348 C357 0.930 . S
N349 Gd318 2.661 . S
N349 C353 1.350 . S
N349 C354 1.307 . S
C350 H342 0.930 . S
C350 C351 1.355 . S
C350 C352 1.412 . S
C351 H343 0.930 . S
C351 C350 1.355 . S
C351 C354 1.402 . S
C352 C350 1.412 . S
C352 C353 1.417 . S
C352 C376 1.431 . S
C353 N349 1.350 . S
C353 C352 1.417 . S
C353 C356 1.426 . S
C354 H337 0.927 . S
C354 N349 1.307 . S
C354 C351 1.402 . S
N355 Gd318 2.601 . S
N355 C356 1.359 . S
N355 C359 1.334 . S
C356 C353 1.426 . S
C356 N355 1.359 . S
C356 C360 1.413 . S
C357 H348 0.930 . S
C357 C358 1.359 . S
C357 C359 1.394 . S
C358 C357 1.359 . S
C358 C360 1.391 . S
C358 H361 0.929 . S
C359 H341 0.930 . S
C359 N355 1.334 . S
C359 C357 1.394 . S
C360 C356 1.413 . S
C360 C358 1.391 . S
C360 C375 1.437 . S
H361 C358 0.929 . S
O362 Gd318 2.545 . S
O362 C377 1.258 1_655 S
O363 Gd318 2.606 1_455 S
O363 Gd319 2.362 1_554 S
O363 C374 1.284 . S
O364 Gd319 2.324 1_655 S
O364 C384 1.254 1_556 S
O365 Gd318 2.429 . S
O365 C384 1.268 . S
O366 Gd318 2.545 1_455 S
O366 C374 1.250 . S
O367 Gd318 2.412 1_455 S
O367 C377 1.252 . S
O368 Gd319 2.545 . S
O368 C386 1.258 . S
O369 Gd318 2.362 . S
O369 Gd319 2.606 1_654 S
O369 C385 1.284 1_554 S
O370 Gd318 2.324 1_455 S
O370 C393 1.254 . S
O371 Gd319 2.429 1_554 S
O371 C393 1.268 . S
O372 Gd319 2.545 1_655 S
O372 C385 1.250 . S
O373 Gd319 2.417 . S
O373 C386 1.250 . S
C374 O363 1.284 . S
C374 O366 1.250 . S
C375 H344 0.929 . S
C375 C360 1.437 . S
C375 C376 1.317 . S
C376 H347 0.930 . S
C376 C352 1.431 . S
C376 C375 1.317 . S
C377 Gd318 2.828 1_455 S
C377 O362 1.258 1_455 S
C377 O367 1.252 . S
C377 C378 1.497 . S
C378 C377 1.497 . S
C378 C379 1.395 1_455 S
C378 C380 1.380 . S
C379 C378 1.395 1_655 S
C379 C382 1.398 . S
C379 H394 0.930 . S
C380 C378 1.380 . S
C380 C381 1.391 . S
C380 H395 0.930 . S
C381 C380 1.391 . S
C381 C383 1.387 . S
C382 C379 1.398 . S
C382 C383 1.380 1_655 S
C382 H396 0.930 . S
C383 C381 1.387 . S
C383 C382 1.380 1_455 S
C383 H397 0.930 . S
C384 O364 1.254 1_554 S
C384 O365 1.268 . S
C385 O369 1.284 1_556 S
C385 O372 1.250 . S
C386 Gd319 2.828 . S
C386 O368 1.258 . S
C386 O373 1.250 . S
C386 C387 1.497 . S
C387 C386 1.497 . S
C387 C388 1.395 . S
C387 C389 1.380 1_455 S
C388 C387 1.395 . S
C388 C391 1.398 . S
C388 H398 0.930 . S
C389 C387 1.380 1_655 S
C389 C390 1.391 . S
C389 H399 0.930 . S
C390 C389 1.391 . S
C390 C392 1.387 . S
C391 C388 1.398 . S
C391 C392 1.380 1_455 S
C391 H400 0.930 . S
C392 C390 1.387 . S
C392 C391 1.380 1_655 S
C392 H401 0.930 . S
C393 O370 1.254 . S
C393 O371 1.268 . S
H394 C379 0.930 . S
H395 C380 0.930 . S
H396 C382 0.930 . S
H397 C383 0.930 . S
H398 C388 0.930 . S
H399 C389 0.930 . S
H400 C391 0.930 . S
H401 C392 0.930 . S
Gd402 N433 2.661 . S
Gd402 N439 2.601 . S
Gd402 O446 2.545 . S
Gd402 O447 2.606 1_556 S
Gd402 O449 2.429 1_556 S
Gd402 O450 2.545 . S
Gd402 O451 2.412 . S
Gd402 O453 2.362 1_556 S
Gd402 O454 2.324 . S
Gd402 C461 2.828 . S
Gd403 N412 2.661 . S
Gd403 N416 2.601 . S
Gd403 O447 2.362 . S
Gd403 O448 2.324 . S
Gd403 O452 2.545 . S
Gd403 O453 2.606 . S
Gd403 O455 2.429 . S
Gd403 O456 2.545 . S
Gd403 O457 2.412 . S
Gd403 C470 2.828 . S
C404 C407 1.417 . S
C404 C409 1.431 . S
C404 C410 1.412 . S
C405 C408 1.437 . S
C405 C409 1.317 . S
C405 H424 0.929 . S
C406 C407 1.426 . S
C406 C408 1.413 . S
C406 N416 1.359 . S
C407 C404 1.417 . S
C407 C406 1.426 . S
C407 N412 1.350 . S
C408 C405 1.437 . S
C408 C406 1.413 . S
C408 C418 1.391 . S
C409 C404 1.431 . S
C409 C405 1.317 . S
C409 H420 0.930 . S
C410 C404 1.412 . S
C410 C411 1.355 . S
C410 H422 0.930 . S
C411 C410 1.355 . S
C411 C413 1.402 . S
C411 H423 0.930 . S
N412 Gd403 2.661 . S
N412 C407 1.350 . S
N412 C413 1.307 . S
C413 C411 1.402 . S
C413 N412 1.307 . S
C413 H414 0.930 . S
H414 C413 0.930 . S
C415 N416 1.334 . S
C415 C417 1.394 . S
C415 H419 0.930 . S
N416 Gd403 2.601 . S
N416 C406 1.359 . S
N416 C415 1.334 . S
C417 C415 1.394 . S
C417 C418 1.359 . S
C417 H429 0.930 . S
C418 C408 1.391 . S
C418 C417 1.359 . S
C418 H430 0.929 . S
H419 C415 0.930 . S
H420 C409 0.930 . S
H421 C438 0.930 . S
H422 C410 0.930 . S
H423 C411 0.930 . S
H424 C405 0.929 . S
H425 C443 0.930 . S
H426 C434 0.930 . S
H427 C435 0.930 . S
H428 C459 0.929 . S
H429 C417 0.930 . S
H430 C418 0.929 . S
H431 C460 0.930 . S
H432 C441 0.930 . S
N433 Gd402 2.661 . S
N433 C437 1.350 . S
N433 C438 1.307 . S
C434 H426 0.930 . S
C434 C435 1.355 . S
C434 C436 1.412 . S
C435 H427 0.930 . S
C435 C434 1.355 . S
C435 C438 1.402 . S
C436 C434 1.412 . S
C436 C437 1.417 . S
C436 C460 1.431 . S
C437 N433 1.350 . S
C437 C436 1.417 . S
C437 C440 1.426 . S
C438 H421 0.930 . S
C438 N433 1.307 . S
C438 C435 1.402 . S
N439 Gd402 2.601 . S
N439 C440 1.359 . S
N439 C443 1.334 . S
C440 C437 1.426 . S
C440 N439 1.359 . S
C440 C444 1.413 . S
C441 H432 0.930 . S
C441 C442 1.359 . S
C441 C443 1.394 . S
C442 C441 1.359 . S
C442 C444 1.391 . S
C442 H445 0.929 . S
C443 H425 0.930 . S
C443 N439 1.334 . S
C443 C441 1.394 . S
C444 C440 1.413 . S
C444 C442 1.391 . S
C444 C459 1.437 . S
H445 C442 0.929 . S
O446 Gd402 2.545 . S
O446 C461 1.258 . S
O447 Gd402 2.606 1_554 S
O447 Gd403 2.362 . S
O447 C458 1.284 1_554 S
O448 Gd403 2.324 . S
O448 C468 1.254 . S
O449 Gd402 2.429 1_554 S
O449 C468 1.268 . S
O450 Gd402 2.545 . S
O450 C458 1.250 . S
O451 Gd402 2.412 . S
O451 C461 1.252 . S
O452 Gd403 2.545 . S
O452 C470 1.258 . S
O453 Gd402 2.362 1_554 S
O453 Gd403 2.606 . S
O453 C469 1.284 . S
O454 Gd402 2.324 . S
O454 C477 1.254 1_556 S
O455 Gd403 2.429 . S
O455 C477 1.268 . S
O456 Gd403 2.545 . S
O456 C469 1.250 . S
O457 Gd403 2.412 . S
O457 C470 1.252 . S
C458 O447 1.284 1_556 S
C458 O450 1.250 . S
C459 H428 0.929 . S
C459 C444 1.437 . S
C459 C460 1.317 . S
C460 H431 0.930 . S
C460 C436 1.431 . S
C460 C459 1.317 . S
C461 Gd402 2.828 . S
C461 O446 1.258 . S
C461 O451 1.252 . S
C461 C462 1.497 . S
C462 C461 1.497 . S
C462 C463 1.395 . S
C462 C464 1.380 . S
C463 C462 1.395 . S
C463 C466 1.398 . S
C463 H478 0.930 . S
C464 C462 1.380 . S
C464 C465 1.391 . S
C464 H479 0.930 . S
C465 C464 1.391 . S
C465 C467 1.387 . S
C466 C463 1.398 . S
C466 C467 1.380 . S
C466 H480 0.930 . S
C467 C465 1.387 . S
C467 C466 1.380 . S
C467 H481 0.930 . S
C468 O448 1.254 . S
C468 O449 1.268 . S
C469 O453 1.284 . S
C469 O456 1.250 . S
C470 Gd403 2.828 . S
C470 O452 1.258 . S
C470 O457 1.252 . S
C470 C471 1.497 . S
C471 C470 1.497 . S
C471 C472 1.395 . S
C471 C473 1.380 . S
C472 C471 1.395 . S
C472 C475 1.398 . S
C472 H482 0.930 . S
C473 C471 1.380 . S
C473 C474 1.391 . S
C473 H483 0.930 . S
C474 C473 1.391 . S
C474 C476 1.387 . S
C475 C472 1.398 . S
C475 C476 1.380 . S
C475 H484 0.930 . S
C476 C474 1.387 . S
C476 C475 1.380 . S
C476 H485 0.930 . S
C477 O454 1.254 1_554 S
C477 O455 1.268 . S
H478 C463 0.930 . S
H479 C464 0.930 . S
H480 C466 0.930 . S
H481 C467 0.930 . S
H482 C472 0.930 . S
H483 C473 0.930 . S
H484 C475 0.930 . S
H485 C476 0.930 . S
Gd486 N517 2.661 . S
Gd486 N523 2.601 . S
Gd486 O530 2.545 . S
Gd486 O531 2.606 . S
Gd486 O533 2.429 . S
Gd486 O534 2.545 . S
Gd486 O535 2.412 . S
Gd486 O537 2.362 . S
Gd486 O538 2.324 . S
Gd486 C545 2.828 . S
Gd487 N496 2.661 . S
Gd487 N500 2.601 . S
Gd487 O531 2.362 . S
Gd487 O532 2.324 . S
Gd487 O536 2.545 . S
Gd487 O537 2.606 . S
Gd487 O539 2.429 . S
Gd487 O540 2.545 . S
Gd487 O541 2.412 . S
Gd487 C554 2.828 . S
C488 C491 1.417 . S
C488 C493 1.431 . S
C488 C494 1.412 . S
C489 C492 1.437 . S
C489 C493 1.317 . S
C489 H508 0.929 . S
C490 C491 1.426 . S
C490 C492 1.413 . S
C490 N500 1.359 . S
C491 C488 1.417 . S
C491 C490 1.426 . S
C491 N496 1.350 . S
C492 C489 1.437 . S
C492 C490 1.413 . S
C492 C502 1.391 . S
C493 C488 1.431 . S
C493 C489 1.317 . S
C493 H504 0.930 . S
C494 C488 1.412 . S
C494 C495 1.355 . S
C494 H506 0.930 . S
C495 C494 1.355 . S
C495 C497 1.402 . S
C495 H507 0.930 . S
N496 Gd487 2.661 . S
N496 C491 1.350 . S
N496 C497 1.307 . S
C497 C495 1.402 . S
C497 N496 1.307 . S
C497 H498 0.930 . S
H498 C497 0.930 . S
C499 N500 1.334 . S
C499 C501 1.394 . S
C499 H503 0.930 . S
N500 Gd487 2.601 . S
N500 C490 1.359 . S
N500 C499 1.334 . S
C501 C499 1.394 . S
C501 C502 1.359 . S
C501 H513 0.930 . S
C502 C492 1.391 . S
C502 C501 1.359 . S
C502 H514 0.929 . S
H503 C499 0.930 . S
H504 C493 0.930 . S
H505 C522 0.930 . S
H506 C494 0.930 . S
H507 C495 0.930 . S
H508 C489 0.929 . S
H509 C527 0.930 . S
H510 C518 0.930 . S
H511 C519 0.930 . S
H512 C543 0.929 . S
H513 C501 0.930 . S
H514 C502 0.929 . S
H515 C544 0.930 . S
H516 C525 0.930 . S
N517 Gd486 2.661 . S
N517 C521 1.350 . S
N517 C522 1.307 . S
C518 H510 0.930 . S
C518 C519 1.355 . S
C518 C520 1.412 . S
C519 H511 0.930 . S
C519 C518 1.355 . S
C519 C522 1.402 . S
C520 C518 1.412 . S
C520 C521 1.417 . S
C520 C544 1.431 . S
C521 N517 1.350 . S
C521 C520 1.417 . S
C521 C524 1.426 . S
C522 H505 0.930 . S
C522 N517 1.307 . S
C522 C519 1.402 . S
N523 Gd486 2.601 . S
N523 C524 1.359 . S
N523 C527 1.334 . S
C524 C521 1.426 . S
C524 N523 1.359 . S
C524 C528 1.413 . S
C525 H516 0.930 . S
C525 C526 1.359 . S
C525 C527 1.394 . S
C526 C525 1.359 . S
C526 C528 1.391 . S
C526 H529 0.929 . S
C527 H509 0.930 . S
C527 N523 1.334 . S
C527 C525 1.394 . S
C528 C524 1.413 . S
C528 C526 1.391 . S
C528 C543 1.437 . S
H529 C526 0.929 . S
O530 Gd486 2.545 . S
O530 C545 1.258 . S
O531 Gd486 2.606 . S
O531 Gd487 2.362 . S
O531 C542 1.284 . S
O532 Gd487 2.324 . S
O532 C552 1.254 . S
O533 Gd486 2.429 . S
O533 C552 1.268 . S
O534 Gd486 2.545 . S
O534 C542 1.250 . S
O535 Gd486 2.412 . S
O535 C545 1.252 . S
O536 Gd487 2.545 . S
O536 C554 1.258 . S
O537 Gd486 2.362 . S
O537 Gd487 2.606 . S
O537 C553 1.284 . S
O538 Gd486 2.324 . S
O538 C561 1.254 . S
O539 Gd487 2.429 . S
O539 C561 1.268 . S
O540 Gd487 2.545 . S
O540 C553 1.250 . S
O541 Gd487 2.412 . S
O541 C554 1.252 . S
C542 O531 1.284 . S
C542 O534 1.250 . S
C543 H512 0.929 . S
C543 C528 1.437 . S
C543 C544 1.317 . S
C544 H515 0.930 . S
C544 C520 1.431 . S
C544 C543 1.317 . S
C545 Gd486 2.828 . S
C545 O530 1.258 . S
C545 O535 1.252 . S
C545 C546 1.497 . S
C546 C545 1.497 . S
C546 C547 1.395 . S
C546 C548 1.380 . S
C547 C546 1.395 . S
C547 C550 1.398 . S
C547 H562 0.930 . S
C548 C546 1.380 . S
C548 C549 1.391 . S
C548 H563 0.930 . S
C549 C548 1.391 . S
C549 C551 1.387 . S
C550 C547 1.398 . S
C550 C551 1.380 . S
C550 H564 0.930 . S
C551 C549 1.387 . S
C551 C550 1.380 . S
C551 H565 0.930 . S
C552 O532 1.254 . S
C552 O533 1.268 . S
C553 O537 1.284 . S
C553 O540 1.250 . S
C554 Gd487 2.828 . S
C554 O536 1.258 . S
C554 O541 1.252 . S
C554 C555 1.497 . S
C555 C554 1.497 . S
C555 C556 1.395 . S
C555 C557 1.380 . S
C556 C555 1.395 . S
C556 C559 1.398 . S
C556 H566 0.930 . S
C557 C555 1.380 . S
C557 C558 1.391 . S
C557 H567 0.930 . S
C558 C557 1.391 . S
C558 C560 1.387 . S
C559 C556 1.398 . S
C559 C560 1.380 . S
C559 H568 0.930 . S
C560 C558 1.387 . S
C560 C559 1.380 . S
C560 H569 0.930 . S
C561 O538 1.254 . S
C561 O539 1.268 . S
H562 C547 0.930 . S
H563 C548 0.930 . S
H564 C550 0.930 . S
H565 C551 0.930 . S
H566 C556 0.930 . S
H567 C557 0.930 . S
H568 C559 0.930 . S
H569 C560 0.930 . S
Gd570 N601 2.661 . S
Gd570 N607 2.601 . S
Gd570 O614 2.545 . S
Gd570 O615 2.606 . S
Gd570 O617 2.429 . S
Gd570 O618 2.545 . S
Gd570 O619 2.412 . S
Gd570 O621 2.362 . S
Gd570 O622 2.324 . S
Gd570 C629 2.828 . S
Gd571 N580 2.661 . S
Gd571 N584 2.601 . S
Gd571 O615 2.362 . S
Gd571 O616 2.324 . S
Gd571 O620 2.545 . S
Gd571 O621 2.606 . S
Gd571 O623 2.429 . S
Gd571 O624 2.545 . S
Gd571 O625 2.412 . S
Gd571 C638 2.828 . S
C572 C575 1.417 . S
C572 C577 1.431 . S
C572 C578 1.412 . S
C573 C576 1.437 . S
C573 C577 1.317 . S
C573 H592 0.929 . S
C574 C575 1.426 . S
C574 C576 1.413 . S
C574 N584 1.359 . S
C575 C572 1.417 . S
C575 C574 1.426 . S
C575 N580 1.350 . S
C576 C573 1.437 . S
C576 C574 1.413 . S
C576 C586 1.391 . S
C577 C572 1.431 . S
C577 C573 1.317 . S
C577 H588 0.930 . S
C578 C572 1.412 . S
C578 C579 1.355 . S
C578 H590 0.930 . S
C579 C578 1.355 . S
C579 C581 1.402 . S
C579 H591 0.930 . S
N580 Gd571 2.661 . S
N580 C575 1.350 . S
N580 C581 1.307 . S
C581 C579 1.402 . S
C581 N580 1.307 . S
C581 H582 0.930 . S
H582 C581 0.930 . S
C583 N584 1.334 . S
C583 C585 1.394 . S
C583 H587 0.930 . S
N584 Gd571 2.601 . S
N584 C574 1.359 . S
N584 C583 1.334 . S
C585 C583 1.394 . S
C585 C586 1.359 . S
C585 H597 0.930 . S
C586 C576 1.391 . S
C586 C585 1.359 . S
C586 H598 0.929 . S
H587 C583 0.930 . S
H588 C577 0.930 . S
H589 C606 0.930 . S
H590 C578 0.930 . S
H591 C579 0.930 . S
H592 C573 0.929 . S
H593 C611 0.930 . S
H594 C602 0.930 . S
H595 C603 0.930 . S
H596 C627 0.929 . S
H597 C585 0.930 . S
H598 C586 0.929 . S
H599 C628 0.930 . S
H600 C609 0.930 . S
N601 Gd570 2.661 . S
N601 C605 1.350 . S
N601 C606 1.307 . S
C602 H594 0.930 . S
C602 C603 1.355 . S
C602 C604 1.412 . S
C603 H595 0.930 . S
C603 C602 1.355 . S
C603 C606 1.402 . S
C604 C602 1.412 . S
C604 C605 1.417 . S
C604 C628 1.431 . S
C605 N601 1.350 . S
C605 C604 1.417 . S
C605 C608 1.426 . S
C606 H589 0.930 . S
C606 N601 1.307 . S
C606 C603 1.402 . S
N607 Gd570 2.601 . S
N607 C608 1.359 . S
N607 C611 1.334 . S
C608 C605 1.426 . S
C608 N607 1.359 . S
C608 C612 1.413 . S
C609 H600 0.930 . S
C609 C610 1.359 . S
C609 C611 1.394 . S
C610 C609 1.359 . S
C610 C612 1.391 . S
C610 H613 0.929 . S
C611 H593 0.930 . S
C611 N607 1.334 . S
C611 C609 1.394 . S
C612 C608 1.413 . S
C612 C610 1.391 . S
C612 C627 1.437 . S
H613 C610 0.929 . S
O614 Gd570 2.545 . S
O614 C629 1.258 . S
O615 Gd570 2.606 . S
O615 Gd571 2.362 . S
O615 C626 1.284 . S
O616 Gd571 2.324 . S
O616 C636 1.254 . S
O617 Gd570 2.429 . S
O617 C636 1.268 . S
O618 Gd570 2.545 . S
O618 C626 1.250 . S
O619 Gd570 2.412 . S
O619 C629 1.252 . S
O620 Gd571 2.545 . S
O620 C638 1.258 . S
O621 Gd570 2.362 . S
O621 Gd571 2.606 . S
O621 C637 1.284 . S
O622 Gd570 2.324 . S
O622 C645 1.254 . S
O623 Gd571 2.429 . S
O623 C645 1.268 . S
O624 Gd571 2.545 . S
O624 C637 1.250 . S
O625 Gd571 2.412 . S
O625 C638 1.252 . S
C626 O615 1.284 . S
C626 O618 1.250 . S
C627 H596 0.929 . S
C627 C612 1.437 . S
C627 C628 1.317 . S
C628 H599 0.930 . S
C628 C604 1.431 . S
C628 C627 1.317 . S
C629 Gd570 2.828 . S
C629 O614 1.258 . S
C629 O619 1.252 . S
C629 C630 1.497 . S
C630 C629 1.497 . S
C630 C631 1.395 . S
C630 C632 1.380 . S
C631 C630 1.395 . S
C631 C634 1.398 . S
C631 H646 0.930 . S
C632 C630 1.380 . S
C632 C633 1.391 . S
C632 H647 0.930 . S
C633 C632 1.391 . S
C633 C635 1.387 . S
C634 C631 1.398 . S
C634 C635 1.380 . S
C634 H648 0.930 . S
C635 C633 1.387 . S
C635 C634 1.380 . S
C635 H649 0.930 . S
C636 O616 1.254 . S
C636 O617 1.268 . S
C637 O621 1.284 . S
C637 O624 1.250 . S
C638 Gd571 2.828 . S
C638 O620 1.258 . S
C638 O625 1.252 . S
C638 C639 1.497 . S
C639 C638 1.497 . S
C639 C640 1.395 . S
C639 C641 1.380 . S
C640 C639 1.395 . S
C640 C643 1.398 . S
C640 H650 0.930 . S
C641 C639 1.380 . S
C641 C642 1.391 . S
C641 H651 0.930 . S
C642 C641 1.391 . S
C642 C644 1.387 . S
C643 C640 1.398 . S
C643 C644 1.380 . S
C643 H652 0.930 . S
C644 C642 1.387 . S
C644 C643 1.380 . S
C644 H653 0.930 . S
C645 O622 1.254 . S
C645 O623 1.268 . S
H646 C631 0.930 . S
H647 C632 0.930 . S
H648 C634 0.930 . S
H649 C635 0.930 . S
H650 C640 0.930 . S
H651 C641 0.930 . S
H652 C643 0.930 . S
H653 C644 0.930 . S
Gd654 N685 2.661 . S
Gd654 N691 2.601 . S
Gd654 O698 2.545 . S
Gd654 O699 2.606 . S
Gd654 O701 2.429 . S
Gd654 O702 2.545 . S
Gd654 O703 2.412 . S
Gd654 O705 2.362 . S
Gd654 O706 2.324 . S
Gd654 C713 2.828 . S
Gd655 N664 2.661 . S
Gd655 N668 2.601 . S
Gd655 O699 2.362 . S
Gd655 O700 2.324 . S
Gd655 O704 2.545 . S
Gd655 O705 2.606 . S
Gd655 O707 2.429 . S
Gd655 O708 2.545 . S
Gd655 O709 2.412 . S
Gd655 C722 2.828 . S
C656 C659 1.417 . S
C656 C661 1.431 . S
C656 C662 1.412 . S
C657 C660 1.437 . S
C657 C661 1.317 . S
C657 H676 0.929 . S
C658 C659 1.426 . S
C658 C660 1.413 . S
C658 N668 1.359 . S
C659 C656 1.417 . S
C659 C658 1.426 . S
C659 N664 1.350 . S
C660 C657 1.437 . S
C660 C658 1.413 . S
C660 C670 1.391 . S
C661 C656 1.431 . S
C661 C657 1.317 . S
C661 H672 0.930 . S
C662 C656 1.412 . S
C662 C663 1.355 . S
C662 H674 0.930 . S
C663 C662 1.355 . S
C663 C665 1.402 . S
C663 H675 0.930 . S
N664 Gd655 2.661 . S
N664 C659 1.350 . S
N664 C665 1.307 . S
C665 C663 1.402 . S
C665 N664 1.307 . S
C665 H666 0.930 . S
H666 C665 0.930 . S
C667 N668 1.334 . S
C667 C669 1.394 . S
C667 H671 0.930 . S
N668 Gd655 2.601 . S
N668 C658 1.359 . S
N668 C667 1.334 . S
C669 C667 1.394 . S
C669 C670 1.359 . S
C669 H681 0.930 . S
C670 C660 1.391 . S
C670 C669 1.359 . S
C670 H682 0.929 . S
H671 C667 0.930 . S
H672 C661 0.930 . S
H673 C690 0.930 . S
H674 C662 0.930 . S
H675 C663 0.930 . S
H676 C657 0.929 . S
H677 C695 0.930 . S
H678 C686 0.930 . S
H679 C687 0.930 . S
H680 C711 0.929 . S
H681 C669 0.930 . S
H682 C670 0.929 . S
H683 C712 0.930 . S
H684 C693 0.930 . S
N685 Gd654 2.661 . S
N685 C689 1.350 . S
N685 C690 1.307 . S
C686 H678 0.930 . S
C686 C687 1.355 . S
C686 C688 1.412 . S
C687 H679 0.930 . S
C687 C686 1.355 . S
C687 C690 1.402 . S
C688 C686 1.412 . S
C688 C689 1.417 . S
C688 C712 1.431 . S
C689 N685 1.350 . S
C689 C688 1.417 . S
C689 C692 1.426 . S
C690 H673 0.930 . S
C690 N685 1.307 . S
C690 C687 1.402 . S
N691 Gd654 2.601 . S
N691 C692 1.359 . S
N691 C695 1.334 . S
C692 C689 1.426 . S
C692 N691 1.359 . S
C692 C696 1.413 . S
C693 H684 0.930 . S
C693 C694 1.359 . S
C693 C695 1.394 . S
C694 C693 1.359 . S
C694 C696 1.391 . S
C694 H697 0.929 . S
C695 H677 0.930 . S
C695 N691 1.334 . S
C695 C693 1.394 . S
C696 C692 1.413 . S
C696 C694 1.391 . S
C696 C711 1.437 . S
H697 C694 0.929 . S
O698 Gd654 2.545 . S
O698 C713 1.258 . S
O699 Gd654 2.606 . S
O699 Gd655 2.362 . S
O699 C710 1.284 . S
O700 Gd655 2.324 . S
O700 C720 1.254 . S
O701 Gd654 2.429 . S
O701 C720 1.268 . S
O702 Gd654 2.545 . S
O702 C710 1.250 . S
O703 Gd654 2.412 . S
O703 C713 1.252 . S
O704 Gd655 2.545 . S
O704 C722 1.258 . S
O705 Gd654 2.362 . S
O705 Gd655 2.606 . S
O705 C721 1.284 . S
O706 Gd654 2.324 . S
O706 C729 1.254 . S
O707 Gd655 2.429 . S
O707 C729 1.268 . S
O708 Gd655 2.545 . S
O708 C721 1.250 . S
O709 Gd655 2.412 . S
O709 C722 1.252 . S
C710 O699 1.284 . S
C710 O702 1.250 . S
C711 H680 0.929 . S
C711 C696 1.437 . S
C711 C712 1.317 . S
C712 H683 0.930 . S
C712 C688 1.431 . S
C712 C711 1.317 . S
C713 Gd654 2.828 . S
C713 O698 1.258 . S
C713 O703 1.252 . S
C713 C714 1.497 . S
C714 C713 1.497 . S
C714 C715 1.395 . S
C714 C716 1.380 . S
C715 C714 1.395 . S
C715 C718 1.398 . S
C715 H730 0.930 . S
C716 C714 1.380 . S
C716 C717 1.391 . S
C716 H731 0.930 . S
C717 C716 1.391 . S
C717 C719 1.387 . S
C718 C715 1.398 . S
C718 C719 1.380 . S
C718 H732 0.930 . S
C719 C717 1.387 . S
C719 C718 1.380 . S
C719 H733 0.930 . S
C720 O700 1.254 . S
C720 O701 1.268 . S
C721 O705 1.284 . S
C721 O708 1.250 . S
C722 Gd655 2.828 . S
C722 O704 1.258 . S
C722 O709 1.252 . S
C722 C723 1.497 . S
C723 C722 1.497 . S
C723 C724 1.395 . S
C723 C725 1.380 . S
C724 C723 1.395 . S
C724 C727 1.398 . S
C724 H734 0.930 . S
C725 C723 1.380 . S
C725 C726 1.391 . S
C725 H735 0.930 . S
C726 C725 1.391 . S
C726 C728 1.387 . S
C727 C724 1.398 . S
C727 C728 1.380 . S
C727 H736 0.930 . S
C728 C726 1.387 . S
C728 C727 1.380 . S
C728 H737 0.930 . S
C729 O706 1.254 . S
C729 O707 1.268 . S
H730 C715 0.930 . S
H731 C716 0.930 . S
H732 C718 0.930 . S
H733 C719 0.930 . S
H734 C724 0.930 . S
H735 C725 0.930 . S
H736 C727 0.930 . S
H737 C728 0.930 . S
Gd738 N769 2.661 . S
Gd738 N775 2.601 . S
Gd738 O782 2.545 . S
Gd738 O783 2.606 . S
Gd738 O785 2.429 . S
Gd738 O786 2.545 . S
Gd738 O787 2.412 . S
Gd738 O789 2.362 . S
Gd738 O790 2.324 . S
Gd738 C797 2.828 . S
Gd739 N748 2.661 . S
Gd739 N752 2.601 . S
Gd739 O783 2.362 . S
Gd739 O784 2.324 . S
Gd739 O788 2.545 . S
Gd739 O789 2.606 . S
Gd739 O791 2.429 . S
Gd739 O792 2.545 . S
Gd739 O793 2.412 . S
Gd739 C806 2.828 . S
C740 C743 1.417 . S
C740 C745 1.431 . S
C740 C746 1.412 . S
C741 C744 1.437 . S
C741 C745 1.317 . S
C741 H760 0.929 . S
C742 C743 1.426 . S
C742 C744 1.413 . S
C742 N752 1.359 . S
C743 C740 1.417 . S
C743 C742 1.426 . S
C743 N748 1.350 . S
C744 C741 1.437 . S
C744 C742 1.413 . S
C744 C754 1.391 . S
C745 C740 1.431 . S
C745 C741 1.317 . S
C745 H756 0.930 . S
C746 C740 1.412 . S
C746 C747 1.355 . S
C746 H758 0.930 . S
C747 C746 1.355 . S
C747 C749 1.402 . S
C747 H759 0.930 . S
N748 Gd739 2.661 . S
N748 C743 1.350 . S
N748 C749 1.307 . S
C749 C747 1.402 . S
C749 N748 1.307 . S
C749 H750 0.930 . S
H750 C749 0.930 . S
C751 N752 1.334 . S
C751 C753 1.394 . S
C751 H755 0.930 . S
N752 Gd739 2.601 . S
N752 C742 1.359 . S
N752 C751 1.334 . S
C753 C751 1.394 . S
C753 C754 1.359 . S
C753 H765 0.930 . S
C754 C744 1.391 . S
C754 C753 1.359 . S
C754 H766 0.929 . S
H755 C751 0.930 . S
H756 C745 0.930 . S
H757 C774 0.930 . S
H758 C746 0.930 . S
H759 C747 0.930 . S
H760 C741 0.929 . S
H761 C779 0.930 . S
H762 C770 0.930 . S
H763 C771 0.930 . S
H764 C795 0.929 . S
H765 C753 0.930 . S
H766 C754 0.929 . S
H767 C796 0.930 . S
H768 C777 0.930 . S
N769 Gd738 2.661 . S
N769 C773 1.350 . S
N769 C774 1.307 . S
C770 H762 0.930 . S
C770 C771 1.355 . S
C770 C772 1.412 . S
C771 H763 0.930 . S
C771 C770 1.355 . S
C771 C774 1.402 . S
C772 C770 1.412 . S
C772 C773 1.417 . S
C772 C796 1.431 . S
C773 N769 1.350 . S
C773 C772 1.417 . S
C773 C776 1.426 . S
C774 H757 0.930 . S
C774 N769 1.307 . S
C774 C771 1.402 . S
N775 Gd738 2.601 . S
N775 C776 1.359 . S
N775 C779 1.334 . S
C776 C773 1.426 . S
C776 N775 1.359 . S
C776 C780 1.413 . S
C777 H768 0.930 . S
C777 C778 1.359 . S
C777 C779 1.394 . S
C778 C777 1.359 . S
C778 C780 1.391 . S
C778 H781 0.929 . S
C779 H761 0.930 . S
C779 N775 1.334 . S
C779 C777 1.394 . S
C780 C776 1.413 . S
C780 C778 1.391 . S
C780 C795 1.437 . S
H781 C778 0.929 . S
O782 Gd738 2.545 . S
O782 C797 1.258 . S
O783 Gd738 2.606 . S
O783 Gd739 2.362 . S
O783 C794 1.284 . S
O784 Gd739 2.324 . S
O784 C804 1.254 . S
O785 Gd738 2.429 . S
O785 C804 1.268 . S
O786 Gd738 2.545 . S
O786 C794 1.250 . S
O787 Gd738 2.412 . S
O787 C797 1.252 . S
O788 Gd739 2.545 . S
O788 C806 1.258 . S
O789 Gd738 2.362 . S
O789 Gd739 2.606 . S
O789 C805 1.284 . S
O790 Gd738 2.324 . S
O790 C813 1.254 . S
O791 Gd739 2.429 . S
O791 C813 1.268 . S
O792 Gd739 2.545 . S
O792 C805 1.250 . S
O793 Gd739 2.412 . S
O793 C806 1.252 . S
C794 O783 1.284 . S
C794 O786 1.250 . S
C795 H764 0.929 . S
C795 C780 1.437 . S
C795 C796 1.317 . S
C796 H767 0.930 . S
C796 C772 1.431 . S
C796 C795 1.317 . S
C797 Gd738 2.828 . S
C797 O782 1.258 . S
C797 O787 1.252 . S
C797 C798 1.497 . S
C798 C797 1.497 . S
C798 C799 1.395 . S
C798 C800 1.380 . S
C799 C798 1.395 . S
C799 C802 1.398 . S
C799 H814 0.930 . S
C800 C798 1.380 . S
C800 C801 1.391 . S
C800 H815 0.930 . S
C801 C800 1.391 . S
C801 C803 1.387 . S
C802 C799 1.398 . S
C802 C803 1.380 . S
C802 H816 0.930 . S
C803 C801 1.387 . S
C803 C802 1.380 . S
C803 H817 0.930 . S
C804 O784 1.254 . S
C804 O785 1.268 . S
C805 O789 1.284 . S
C805 O792 1.250 . S
C806 Gd739 2.828 . S
C806 O788 1.258 . S
C806 O793 1.252 . S
C806 C807 1.497 . S
C807 C806 1.497 . S
C807 C808 1.395 . S
C807 C809 1.380 . S
C808 C807 1.395 . S
C808 C811 1.398 . S
C808 H818 0.930 . S
C809 C807 1.380 . S
C809 C810 1.391 . S
C809 H819 0.930 . S
C810 C809 1.391 . S
C810 C812 1.387 . S
C811 C808 1.398 . S
C811 C812 1.380 . S
C811 H820 0.930 . S
C812 C810 1.387 . S
C812 C811 1.380 . S
C812 H821 0.930 . S
C813 O790 1.254 . S
C813 O791 1.268 . S
H814 C799 0.930 . S
H815 C800 0.930 . S
H816 C802 0.930 . S
H817 C803 0.930 . S
H818 C808 0.930 . S
H819 C809 0.930 . S
H820 C811 0.930 . S
H821 C812 0.930 . S
Gd822 N853 2.661 . S
Gd822 N859 2.601 . S
Gd822 O866 2.545 . S
Gd822 O867 2.606 . S
Gd822 O869 2.429 . S
Gd822 O870 2.545 . S
Gd822 O871 2.412 . S
Gd822 O873 2.362 . S
Gd822 O874 2.324 . S
Gd822 C881 2.828 . S
Gd823 N832 2.661 . S
Gd823 N836 2.601 . S
Gd823 O867 2.362 . S
Gd823 O868 2.324 . S
Gd823 O872 2.545 . S
Gd823 O873 2.606 . S
Gd823 O875 2.429 . S
Gd823 O876 2.545 . S
Gd823 O877 2.412 . S
Gd823 C890 2.828 . S
C824 C827 1.417 . S
C824 C829 1.431 . S
C824 C830 1.412 . S
C825 C828 1.437 . S
C825 C829 1.317 . S
C825 H844 0.929 . S
C826 C827 1.426 . S
C826 C828 1.413 . S
C826 N836 1.359 . S
C827 C824 1.417 . S
C827 C826 1.426 . S
C827 N832 1.350 . S
C828 C825 1.437 . S
C828 C826 1.413 . S
C828 C838 1.391 . S
C829 C824 1.431 . S
C829 C825 1.317 . S
C829 H840 0.930 . S
C830 C824 1.412 . S
C830 C831 1.355 . S
C830 H842 0.930 . S
C831 C830 1.355 . S
C831 C833 1.402 . S
C831 H843 0.930 . S
N832 Gd823 2.661 . S
N832 C827 1.350 . S
N832 C833 1.307 . S
C833 C831 1.402 . S
C833 N832 1.307 . S
C833 H834 0.930 . S
H834 C833 0.930 . S
C835 N836 1.334 . S
C835 C837 1.394 . S
C835 H839 0.930 . S
N836 Gd823 2.601 . S
N836 C826 1.359 . S
N836 C835 1.334 . S
C837 C835 1.394 . S
C837 C838 1.359 . S
C837 H849 0.930 . S
C838 C828 1.391 . S
C838 C837 1.359 . S
C838 H850 0.929 . S
H839 C835 0.930 . S
H840 C829 0.930 . S
H841 C858 0.930 . S
H842 C830 0.930 . S
H843 C831 0.930 . S
H844 C825 0.929 . S
H845 C863 0.930 . S
H846 C854 0.930 . S
H847 C855 0.930 . S
H848 C879 0.929 . S
H849 C837 0.930 . S
H850 C838 0.929 . S
H851 C880 0.930 . S
H852 C861 0.930 . S
N853 Gd822 2.661 . S
N853 C857 1.350 . S
N853 C858 1.307 . S
C854 H846 0.930 . S
C854 C855 1.355 . S
C854 C856 1.412 . S
C855 H847 0.930 . S
C855 C854 1.355 . S
C855 C858 1.402 . S
C856 C854 1.412 . S
C856 C857 1.417 . S
C856 C880 1.431 . S
C857 N853 1.350 . S
C857 C856 1.417 . S
C857 C860 1.426 . S
C858 H841 0.930 . S
C858 N853 1.307 . S
C858 C855 1.402 . S
N859 Gd822 2.601 . S
N859 C860 1.359 . S
N859 C863 1.334 . S
C860 C857 1.426 . S
C860 N859 1.359 . S
C860 C864 1.413 . S
C861 H852 0.930 . S
C861 C862 1.359 . S
C861 C863 1.394 . S
C862 C861 1.359 . S
C862 C864 1.391 . S
C862 H865 0.929 . S
C863 H845 0.930 . S
C863 N859 1.334 . S
C863 C861 1.394 . S
C864 C860 1.413 . S
C864 C862 1.391 . S
C864 C879 1.437 . S
H865 C862 0.929 . S
O866 Gd822 2.545 . S
O866 C881 1.258 . S
O867 Gd822 2.606 . S
O867 Gd823 2.362 . S
O867 C878 1.284 . S
O868 Gd823 2.324 . S
O868 C888 1.254 . S
O869 Gd822 2.429 . S
O869 C888 1.268 . S
O870 Gd822 2.545 . S
O870 C878 1.250 . S
O871 Gd822 2.412 . S
O871 C881 1.252 . S
O872 Gd823 2.545 . S
O872 C890 1.258 . S
O873 Gd822 2.362 . S
O873 Gd823 2.606 . S
O873 C889 1.284 . S
O874 Gd822 2.324 . S
O874 C897 1.254 . S
O875 Gd823 2.429 . S
O875 C897 1.268 . S
O876 Gd823 2.545 . S
O876 C889 1.250 . S
O877 Gd823 2.412 . S
O877 C890 1.252 . S
C878 O867 1.284 . S
C878 O870 1.250 . S
C879 H848 0.929 . S
C879 C864 1.437 . S
C879 C880 1.317 . S
C880 H851 0.930 . S
C880 C856 1.431 . S
C880 C879 1.317 . S
C881 Gd822 2.828 . S
C881 O866 1.258 . S
C881 O871 1.252 . S
C881 C882 1.497 . S
C882 C881 1.497 . S
C882 C883 1.395 . S
C882 C884 1.380 . S
C883 C882 1.395 . S
C883 C886 1.398 . S
C883 H898 0.930 . S
C884 C882 1.380 . S
C884 C885 1.391 . S
C884 H899 0.930 . S
C885 C884 1.391 . S
C885 C887 1.387 . S
C886 C883 1.398 . S
C886 C887 1.380 . S
C886 H900 0.930 . S
C887 C885 1.387 . S
C887 C886 1.380 . S
C887 H901 0.930 . S
C888 O868 1.254 . S
C888 O869 1.268 . S
C889 O873 1.284 . S
C889 O876 1.250 . S
C890 Gd823 2.828 . S
C890 O872 1.258 . S
C890 O877 1.252 . S
C890 C891 1.497 . S
C891 C890 1.497 . S
C891 C892 1.395 . S
C891 C893 1.380 . S
C892 C891 1.395 . S
C892 C895 1.398 . S
C892 H902 0.930 . S
C893 C891 1.380 . S
C893 C894 1.391 . S
C893 H903 0.930 . S
C894 C893 1.391 . S
C894 C896 1.387 . S
C895 C892 1.398 . S
C895 C896 1.380 . S
C895 H904 0.930 . S
C896 C894 1.387 . S
C896 C895 1.380 . S
C896 H905 0.930 . S
C897 O874 1.254 . S
C897 O875 1.268 . S
H898 C883 0.930 . S
H899 C884 0.930 . S
H900 C886 0.930 . S
H901 C887 0.930 . S
H902 C892 0.930 . S
H903 C893 0.930 . S
H904 C895 0.930 . S
H905 C896 0.930 . S
Gd906 N937 2.661 . S
Gd906 N943 2.601 . S
Gd906 O950 2.545 . S
Gd906 O951 2.606 . S
Gd906 O953 2.429 . S
Gd906 O954 2.545 . S
Gd906 O955 2.412 . S
Gd906 O957 2.362 . S
Gd906 O958 2.324 . S
Gd906 C965 2.828 . S
Gd907 N916 2.661 . S
Gd907 N920 2.601 . S
Gd907 O951 2.362 . S
Gd907 O952 2.324 . S
Gd907 O956 2.545 . S
Gd907 O957 2.606 . S
Gd907 O959 2.429 . S
Gd907 O960 2.545 . S
Gd907 O961 2.412 . S
Gd907 C974 2.828 . S
C908 C911 1.417 . S
C908 C913 1.431 . S
C908 C914 1.412 . S
C909 C912 1.437 . S
C909 C913 1.317 . S
C909 H928 0.929 . S
C910 C911 1.426 . S
C910 C912 1.413 . S
C910 N920 1.359 . S
C911 C908 1.417 . S
C911 C910 1.426 . S
C911 N916 1.350 . S
C912 C909 1.437 . S
C912 C910 1.413 . S
C912 C922 1.391 . S
C913 C908 1.431 . S
C913 C909 1.317 . S
C913 H924 0.930 . S
C914 C908 1.412 . S
C914 C915 1.355 . S
C914 H926 0.930 . S
C915 C914 1.355 . S
C915 C917 1.402 . S
C915 H927 0.930 . S
N916 Gd907 2.661 . S
N916 C911 1.350 . S
N916 C917 1.307 . S
C917 C915 1.402 . S
C917 N916 1.307 . S
C917 H918 0.930 . S
H918 C917 0.930 . S
C919 N920 1.334 . S
C919 C921 1.394 . S
C919 H923 0.930 . S
N920 Gd907 2.601 . S
N920 C910 1.359 . S
N920 C919 1.334 . S
C921 C919 1.394 . S
C921 C922 1.359 . S
C921 H933 0.930 . S
C922 C912 1.391 . S
C922 C921 1.359 . S
C922 H934 0.929 . S
H923 C919 0.930 . S
H924 C913 0.930 . S
H925 C942 0.930 . S
H926 C914 0.930 . S
H927 C915 0.930 . S
H928 C909 0.929 . S
H929 C947 0.930 . S
H930 C938 0.930 . S
H931 C939 0.930 . S
H932 C963 0.929 . S
H933 C921 0.930 . S
H934 C922 0.929 . S
H935 C964 0.930 . S
H936 C945 0.930 . S
N937 Gd906 2.661 . S
N937 C941 1.350 . S
N937 C942 1.307 . S
C938 H930 0.930 . S
C938 C939 1.355 . S
C938 C940 1.412 . S
C939 H931 0.930 . S
C939 C938 1.355 . S
C939 C942 1.402 . S
C940 C938 1.412 . S
C940 C941 1.417 . S
C940 C964 1.431 . S
C941 N937 1.350 . S
C941 C940 1.417 . S
C941 C944 1.426 . S
C942 H925 0.930 . S
C942 N937 1.307 . S
C942 C939 1.402 . S
N943 Gd906 2.601 . S
N943 C944 1.359 . S
N943 C947 1.334 . S
C944 C941 1.426 . S
C944 N943 1.359 . S
C944 C948 1.413 . S
C945 H936 0.930 . S
C945 C946 1.359 . S
C945 C947 1.394 . S
C946 C945 1.359 . S
C946 C948 1.391 . S
C946 H949 0.929 . S
C947 H929 0.930 . S
C947 N943 1.334 . S
C947 C945 1.394 . S
C948 C944 1.413 . S
C948 C946 1.391 . S
C948 C963 1.437 . S
H949 C946 0.929 . S
O950 Gd906 2.545 . S
O950 C965 1.258 . S
O951 Gd906 2.606 . S
O951 Gd907 2.362 . S
O951 C962 1.284 . S
O952 Gd907 2.324 . S
O952 C972 1.254 . S
O953 Gd906 2.429 . S
O953 C972 1.268 . S
O954 Gd906 2.545 . S
O954 C962 1.250 . S
O955 Gd906 2.412 . S
O955 C965 1.252 . S
O956 Gd907 2.545 . S
O956 C974 1.258 . S
O957 Gd906 2.362 . S
O957 Gd907 2.606 . S
O957 C973 1.284 . S
O958 Gd906 2.324 . S
O958 C981 1.254 . S
O959 Gd907 2.429 . S
O959 C981 1.268 . S
O960 Gd907 2.545 . S
O960 C973 1.250 . S
O961 Gd907 2.412 . S
O961 C974 1.252 . S
C962 O951 1.284 . S
C962 O954 1.250 . S
C963 H932 0.929 . S
C963 C948 1.437 . S
C963 C964 1.317 . S
C964 H935 0.930 . S
C964 C940 1.431 . S
C964 C963 1.317 . S
C965 Gd906 2.828 . S
C965 O950 1.258 . S
C965 O955 1.252 . S
C965 C966 1.497 . S
C966 C965 1.497 . S
C966 C967 1.395 . S
C966 C968 1.380 . S
C967 C966 1.395 . S
C967 C970 1.398 . S
C967 H982 0.930 . S
C968 C966 1.380 . S
C968 C969 1.391 . S
C968 H983 0.930 . S
C969 C968 1.391 . S
C969 C971 1.387 . S
C970 C967 1.398 . S
C970 C971 1.380 . S
C970 H984 0.930 . S
C971 C969 1.387 . S
C971 C970 1.380 . S
C971 H985 0.930 . S
C972 O952 1.254 . S
C972 O953 1.268 . S
C973 O957 1.284 . S
C973 O960 1.250 . S
C974 Gd907 2.828 . S
C974 O956 1.258 . S
C974 O961 1.252 . S
C974 C975 1.497 . S
C975 C974 1.497 . S
C975 C976 1.395 . S
C975 C977 1.380 . S
C976 C975 1.395 . S
C976 C979 1.398 . S
C976 H986 0.930 . S
C977 C975 1.380 . S
C977 C978 1.391 . S
C977 H987 0.930 . S
C978 C977 1.391 . S
C978 C980 1.387 . S
C979 C976 1.398 . S
C979 C980 1.380 . S
C979 H988 0.930 . S
C980 C978 1.387 . S
C980 C979 1.380 . S
C980 H989 0.930 . S
C981 O958 1.254 . S
C981 O959 1.268 . S
H982 C967 0.930 . S
H983 C968 0.930 . S
H984 C970 0.930 . S
H985 C971 0.930 . S
H986 C976 0.930 . S
H987 C977 0.930 . S
H988 C979 0.930 . S
H989 C980 0.930 . S
C990 C991 1.349 . S
C990 C992 1.327 . S
C990 H1015 0.950 . S
C991 C990 1.349 . S
C991 C1007 1.349 . S
C992 C990 1.327 . S
C992 C1011 1.429 . S
C992 H1016 0.950 . S
C993 C1010 1.574 . S
C993 C1012 1.368 . S
C993 H1017 0.949 . S
H994 C998 0.949 . S
C995 C996 1.349 . S
C995 C997 1.327 . S
C995 H1018 0.950 . S
C996 C995 1.349 . S
C996 C1008 1.349 . S
C997 C995 1.327 . S
C997 C1013 1.429 . S
C997 H1019 0.950 . S
C998 H994 0.949 . S
C998 C1006 1.574 . S
C998 C1014 1.368 . S
H999 C1007 0.950 . S
H1000 C1005 0.950 . S
H1001 C1006 0.949 . S
H1002 C1008 0.950 . S
H1003 C1009 0.950 . S
H1004 C1010 0.949 . S
C1005 H1000 0.950 . S
C1005 C1007 1.327 . S
C1005 C1011 1.429 . S
C1006 C998 1.574 . S
C1006 H1001 0.949 . S
C1006 C1012 1.368 . S
C1007 C991 1.349 . S
C1007 H999 0.950 . S
C1007 C1005 1.327 . S
C1008 C996 1.349 . S
C1008 H1002 0.950 . S
C1008 C1009 1.327 . S
C1009 H1003 0.950 . S
C1009 C1008 1.327 . S
C1009 C1013 1.429 . S
C1010 C993 1.574 . S
C1010 H1004 0.949 . S
C1010 C1014 1.368 . S
C1011 C992 1.429 . S
C1011 C1005 1.429 . S
C1011 C1012 1.523 . S
C1012 C993 1.368 . S
C1012 C1006 1.368 . S
C1012 C1011 1.523 . S
C1013 C997 1.429 . S
C1013 C1009 1.429 . S
C1013 C1014 1.523 . S
C1014 C998 1.368 . S
C1014 C1010 1.368 . S
C1014 C1013 1.523 . S
H1015 C990 0.950 . S
H1016 C992 0.950 . S
H1017 C993 0.949 . S
H1018 C995 0.950 . S
H1019 C997 0.950 . S
C1020 C1021 1.349 . S
C1020 C1022 1.327 . S
C1020 H1045 0.950 . S
C1021 C1020 1.349 . S
C1021 C1037 1.349 . S
C1022 C1020 1.327 . S
C1022 C1041 1.429 . S
C1022 H1046 0.950 . S
C1023 C1040 1.574 . S
C1023 C1042 1.368 . S
C1023 H1047 0.949 . S
H1024 C1028 0.949 . S
C1025 C1026 1.349 . S
C1025 C1027 1.327 . S
C1025 H1048 0.950 . S
C1026 C1025 1.349 . S
C1026 C1038 1.349 . S
C1027 C1025 1.327 . S
C1027 C1043 1.429 . S
C1027 H1049 0.950 . S
C1028 H1024 0.949 . S
C1028 C1036 1.574 . S
C1028 C1044 1.368 . S
H1029 C1037 0.950 . S
H1030 C1035 0.950 . S
H1031 C1036 0.949 . S
H1032 C1038 0.950 . S
H1033 C1039 0.950 . S
H1034 C1040 0.949 . S
C1035 H1030 0.950 . S
C1035 C1037 1.327 . S
C1035 C1041 1.429 . S
C1036 C1028 1.574 . S
C1036 H1031 0.949 . S
C1036 C1042 1.368 . S
C1037 C1021 1.349 . S
C1037 H1029 0.950 . S
C1037 C1035 1.327 . S
C1038 C1026 1.349 . S
C1038 H1032 0.950 . S
C1038 C1039 1.327 . S
C1039 H1033 0.950 . S
C1039 C1038 1.327 . S
C1039 C1043 1.429 . S
C1040 C1023 1.574 . S
C1040 H1034 0.949 . S
C1040 C1044 1.368 . S
C1041 C1022 1.429 . S
C1041 C1035 1.429 . S
C1041 C1042 1.523 . S
C1042 C1023 1.368 . S
C1042 C1036 1.368 . S
C1042 C1041 1.523 . S
C1043 C1027 1.429 . S
C1043 C1039 1.429 . S
C1043 C1044 1.523 . S
C1044 C1028 1.368 . S
C1044 C1040 1.368 . S
C1044 C1043 1.523 . S
H1045 C1020 0.950 . S
H1046 C1022 0.950 . S
H1047 C1023 0.949 . S
H1048 C1025 0.950 . S
H1049 C1027 0.950 . S
C1050 C1051 1.349 . S
C1050 C1052 1.327 . S
C1050 H1075 0.950 . S
C1051 C1050 1.349 . S
C1051 C1067 1.349 . S
C1052 C1050 1.327 . S
C1052 C1071 1.429 . S
C1052 H1076 0.950 . S
C1053 C1070 1.574 . S
C1053 C1072 1.368 . S
C1053 H1077 0.949 . S
H1054 C1058 0.949 . S
C1055 C1056 1.349 . S
C1055 C1057 1.327 . S
C1055 H1078 0.950 . S
C1056 C1055 1.349 . S
C1056 C1068 1.349 . S
C1057 C1055 1.327 . S
C1057 C1073 1.429 . S
C1057 H1079 0.950 . S
C1058 H1054 0.949 . S
C1058 C1066 1.574 . S
C1058 C1074 1.368 . S
H1059 C1067 0.950 . S
H1060 C1065 0.950 . S
H1061 C1066 0.949 . S
H1062 C1068 0.950 . S
H1063 C1069 0.950 . S
H1064 C1070 0.949 . S
C1065 H1060 0.950 . S
C1065 C1067 1.327 . S
C1065 C1071 1.429 . S
C1066 C1058 1.574 . S
C1066 H1061 0.949 . S
C1066 C1072 1.368 . S
C1067 C1051 1.349 . S
C1067 H1059 0.950 . S
C1067 C1065 1.327 . S
C1068 C1056 1.349 . S
C1068 H1062 0.950 . S
C1068 C1069 1.327 . S
C1069 H1063 0.950 . S
C1069 C1068 1.327 . S
C1069 C1073 1.429 . S
C1070 C1053 1.574 . S
C1070 H1064 0.949 . S
C1070 C1074 1.368 . S
C1071 C1052 1.429 . S
C1071 C1065 1.429 . S
C1071 C1072 1.523 . S
C1072 C1053 1.368 . S
C1072 C1066 1.368 . S
C1072 C1071 1.523 . S
C1073 C1057 1.429 . S
C1073 C1069 1.429 . S
C1073 C1074 1.523 . S
C1074 C1058 1.368 . S
C1074 C1070 1.368 . S
C1074 C1073 1.523 . S
H1075 C1050 0.950 . S
H1076 C1052 0.950 . S
H1077 C1053 0.949 . S
H1078 C1055 0.950 . S
H1079 C1057 0.950 . S
C1080 C1081 1.349 . S
C1080 C1082 1.327 . S
C1080 H1105 0.950 . S
C1081 C1080 1.349 . S
C1081 C1097 1.349 . S
C1082 C1080 1.327 . S
C1082 C1101 1.429 . S
C1082 H1106 0.950 . S
C1083 C1100 1.574 . S
C1083 C1102 1.368 . S
C1083 H1107 0.949 . S
H1084 C1088 0.949 1_554 S
C1085 C1086 1.349 . S
C1085 C1087 1.327 . S
C1085 H1108 0.950 . S
C1086 C1085 1.349 . S
C1086 C1098 1.349 1_556 S
C1087 C1085 1.327 . S
C1087 C1103 1.429 . S
C1087 H1109 0.950 . S
C1088 H1084 0.949 1_556 S
C1088 C1096 1.574 . S
C1088 C1104 1.368 . S
H1089 C1097 0.950 . S
H1090 C1095 0.950 . S
H1091 C1096 0.949 . S
H1092 C1098 0.950 . S
H1093 C1099 0.950 . S
H1094 C1100 0.949 . S
C1095 H1090 0.950 . S
C1095 C1097 1.327 . S
C1095 C1101 1.429 . S
C1096 C1088 1.574 . S
C1096 H1091 0.949 . S
C1096 C1102 1.368 . S
C1097 C1081 1.349 . S
C1097 H1089 0.950 . S
C1097 C1095 1.327 . S
C1098 C1086 1.349 1_554 S
C1098 H1092 0.950 . S
C1098 C1099 1.327 . S
C1099 H1093 0.950 . S
C1099 C1098 1.327 . S
C1099 C1103 1.429 1_554 S
C1100 C1083 1.574 . S
C1100 H1094 0.949 . S
C1100 C1104 1.368 . S
C1101 C1082 1.429 . S
C1101 C1095 1.429 . S
C1101 C1102 1.523 . S
C1102 C1083 1.368 . S
C1102 C1096 1.368 . S
C1102 C1101 1.523 . S
C1103 C1087 1.429 . S
C1103 C1099 1.429 1_556 S
C1103 C1104 1.523 . S
C1104 C1088 1.368 . S
C1104 C1100 1.368 . S
C1104 C1103 1.523 . S
H1105 C1080 0.950 . S
H1106 C1082 0.950 . S
H1107 C1083 0.949 . S
H1108 C1085 0.950 . S
H1109 C1087 0.950 . S
C1110 C1111 1.349 . S
C1110 C1112 1.327 . S
C1110 H1135 0.950 . S
C1111 C1110 1.349 . S
C1111 C1127 1.349 . S
C1112 C1110 1.327 . S
C1112 C1131 1.429 . S
C1112 H1136 0.950 . S
C1113 C1130 1.574 . S
C1113 C1132 1.368 . S
C1113 H1137 0.949 . S
H1114 C1118 0.949 . S
C1115 C1116 1.349 . S
C1115 C1117 1.327 . S
C1115 H1138 0.950 . S
C1116 C1115 1.349 . S
C1116 C1128 1.349 1_556 S
C1117 C1115 1.327 . S
C1117 C1133 1.429 . S
C1117 H1139 0.950 . S
C1118 H1114 0.949 . S
C1118 C1126 1.574 . S
C1118 C1134 1.368 . S
H1119 C1127 0.950 . S
H1120 C1125 0.950 . S
H1121 C1126 0.949 . S
H1122 C1128 0.950 . S
H1123 C1129 0.933 1_554 S
H1124 C1130 0.949 . S
C1125 H1120 0.950 . S
C1125 C1127 1.327 . S
C1125 C1131 1.429 . S
C1126 C1118 1.574 . S
C1126 H1121 0.949 . S
C1126 C1132 1.368 . S
C1127 C1111 1.349 . S
C1127 H1119 0.950 . S
C1127 C1125 1.327 . S
C1128 C1116 1.349 1_554 S
C1128 H1122 0.950 . S
C1128 C1129 1.327 1_554 S
C1129 H1123 0.933 1_556 S
C1129 C1128 1.327 1_556 S
C1129 C1133 1.429 . S
C1130 C1113 1.574 . S
C1130 H1124 0.949 . S
C1130 C1134 1.368 . S
C1131 C1112 1.429 . S
C1131 C1125 1.429 . S
C1131 C1132 1.523 . S
C1132 C1113 1.368 . S
C1132 C1126 1.368 . S
C1132 C1131 1.523 . S
C1133 C1117 1.429 . S
C1133 C1129 1.429 . S
C1133 C1134 1.523 . S
C1134 C1118 1.368 . S
C1134 C1130 1.368 . S
C1134 C1133 1.523 . S
H1135 C1110 0.950 . S
H1136 C1112 0.950 . S
H1137 C1113 0.949 . S
H1138 C1115 0.950 . S
H1139 C1117 0.950 . S
C1140 C1141 1.349 . S
C1140 C1142 1.327 . S
C1140 H1165 0.950 . S
C1141 C1140 1.349 . S
C1141 C1157 1.349 . S
C1142 C1140 1.327 . S
C1142 C1161 1.429 . S
C1142 H1166 0.950 . S
C1143 C1160 1.574 . S
C1143 C1162 1.368 . S
C1143 H1167 0.949 . S
H1144 C1148 0.949 . S
C1145 C1146 1.311 1_554 S
C1145 C1147 1.327 . S
C1145 H1168 0.950 . S
C1146 C1145 1.311 1_556 S
C1146 C1158 1.406 . S
C1147 C1145 1.327 . S
C1147 C1163 1.429 1_554 S
C1147 H1169 0.950 . S
C1148 H1144 0.949 . S
C1148 C1156 1.574 . S
C1148 C1164 1.368 . S
H1149 C1157 0.950 . S
H1150 C1155 0.950 . S
H1151 C1156 0.949 . S
H1152 C1158 0.950 . S
H1153 C1159 0.950 . S
H1154 C1160 0.949 1_554 S
C1155 H1150 0.950 . S
C1155 C1157 1.327 . S
C1155 C1161 1.429 . S
C1156 C1148 1.574 . S
C1156 H1151 0.949 . S
C1156 C1162 1.368 . S
C1157 C1141 1.349 . S
C1157 H1149 0.950 . S
C1157 C1155 1.327 . S
C1158 C1146 1.406 . S
C1158 H1152 0.950 . S
C1158 C1159 1.327 . S
C1159 H1153 0.950 . S
C1159 C1158 1.327 . S
C1159 C1163 1.429 . S
C1160 C1143 1.574 . S
C1160 H1154 0.949 1_556 S
C1160 C1164 1.368 . S
C1161 C1142 1.429 . S
C1161 C1155 1.429 . S
C1161 C1162 1.523 . S
C1162 C1143 1.368 . S
C1162 C1156 1.368 . S
C1162 C1161 1.523 . S
C1163 C1147 1.429 1_556 S
C1163 C1159 1.429 . S
C1163 C1164 1.523 . S
C1164 C1148 1.368 . S
C1164 C1160 1.368 . S
C1164 C1163 1.523 . S
H1165 C1140 0.950 . S
H1166 C1142 0.950 . S
H1167 C1143 0.949 . S
H1168 C1145 0.950 . S
H1169 C1147 0.950 . S
C1170 C1171 1.349 . S
C1170 C1172 1.327 . S
C1170 H1195 0.950 . S
C1171 C1170 1.349 . S
C1171 C1187 1.349 . S
C1172 C1170 1.327 . S
C1172 C1191 1.429 . S
C1172 H1196 0.950 . S
C1173 C1190 1.574 . S
C1173 C1192 1.368 . S
C1173 H1197 0.949 . S
H1174 C1178 0.949 1_554 S
C1175 C1176 1.349 . S
C1175 C1177 1.327 . S
C1175 H1198 0.950 . S
C1176 C1175 1.349 . S
C1176 C1188 1.349 1_556 S
C1177 C1175 1.327 . S
C1177 C1193 1.429 . S
C1177 H1199 0.950 . S
C1178 H1174 0.949 1_556 S
C1178 C1186 1.574 . S
C1178 C1194 1.368 . S
H1179 C1187 0.950 . S
H1180 C1185 0.950 . S
H1181 C1186 0.949 . S
H1182 C1188 0.950 . S
H1183 C1189 0.950 . S
H1184 C1190 0.949 . S
C1185 H1180 0.950 . S
C1185 C1187 1.327 . S
C1185 C1191 1.429 . S
C1186 C1178 1.574 . S
C1186 H1181 0.949 . S
C1186 C1192 1.368 . S
C1187 C1171 1.349 . S
C1187 H1179 0.950 . S
C1187 C1185 1.327 . S
C1188 C1176 1.349 1_554 S
C1188 H1182 0.950 . S
C1188 C1189 1.327 . S
C1189 H1183 0.950 . S
C1189 C1188 1.327 . S
C1189 C1193 1.429 1_554 S
C1190 C1173 1.574 . S
C1190 H1184 0.949 . S
C1190 C1194 1.368 . S
C1191 C1172 1.429 . S
C1191 C1185 1.429 . S
C1191 C1192 1.523 . S
C1192 C1173 1.368 . S
C1192 C1186 1.368 . S
C1192 C1191 1.523 . S
C1193 C1177 1.429 . S
C1193 C1189 1.429 1_556 S
C1193 C1194 1.523 . S
C1194 C1178 1.368 . S
C1194 C1190 1.368 . S
C1194 C1193 1.523 . S
H1195 C1170 0.950 . S
H1196 C1172 0.950 . S
H1197 C1173 0.949 . S
H1198 C1175 0.950 . S
H1199 C1177 0.950 . S
C1200 C1201 1.349 . S
C1200 C1202 1.327 . S
C1200 H1225 0.950 . S
C1201 C1200 1.349 . S
C1201 C1217 1.349 . S
C1202 C1200 1.327 . S
C1202 C1221 1.429 . S
C1202 H1226 0.950 . S
C1203 C1220 1.574 . S
C1203 C1222 1.368 . S
C1203 H1227 0.949 . S
H1204 C1208 0.949 1_554 S
C1205 C1206 1.349 . S
C1205 C1207 1.327 . S
C1205 H1228 0.950 . S
C1206 C1205 1.349 . S
C1206 C1218 1.349 1_556 S
C1207 C1205 1.327 . S
C1207 C1223 1.429 . S
C1207 H1229 0.950 . S
C1208 H1204 0.949 1_556 S
C1208 C1216 1.574 . S
C1208 C1224 1.368 . S
H1209 C1217 0.950 . S
H1210 C1215 0.950 . S
H1211 C1216 0.949 . S
H1212 C1218 0.950 . S
H1213 C1219 0.950 . S
H1214 C1220 0.949 . S
C1215 H1210 0.950 . S
C1215 C1217 1.327 . S
C1215 C1221 1.429 . S
C1216 C1208 1.574 . S
C1216 H1211 0.949 . S
C1216 C1222 1.368 . S
C1217 C1201 1.349 . S
C1217 H1209 0.950 . S
C1217 C1215 1.327 . S
C1218 C1206 1.349 1_554 S
C1218 H1212 0.950 . S
C1218 C1219 1.327 . S
C1219 H1213 0.950 . S
C1219 C1218 1.327 . S
C1219 C1223 1.429 1_554 S
C1220 C1203 1.574 . S
C1220 H1214 0.949 . S
C1220 C1224 1.368 . S
C1221 C1202 1.429 . S
C1221 C1215 1.429 . S
C1221 C1222 1.523 . S
C1222 C1203 1.368 . S
C1222 C1216 1.368 . S
C1222 C1221 1.523 . S
C1223 C1207 1.429 . S
C1223 C1219 1.429 1_556 S
C1223 C1224 1.523 . S
C1224 C1208 1.368 . S
C1224 C1220 1.368 . S
C1224 C1223 1.523 . S
H1225 C1200 0.950 . S
H1226 C1202 0.950 . S
H1227 C1203 0.949 . S
H1228 C1205 0.950 . S
H1229 C1207 0.950 . S
C1230 C1231 1.349 . S
C1230 C1232 1.327 . S
C1230 H1255 0.950 . S
C1231 C1230 1.349 . S
C1231 C1247 1.349 . S
C1232 C1230 1.327 . S
C1232 C1251 1.429 . S
C1232 H1256 0.950 . S
C1233 C1250 1.574 . S
C1233 C1252 1.368 . S
C1233 H1257 0.922 1_556 S
H1234 C1238 0.949 . S
C1235 C1236 1.330 1_554 S
C1235 C1237 1.327 . S
C1235 H1258 0.950 . S
C1236 C1235 1.330 1_556 S
C1236 C1248 1.375 . S
C1237 C1235 1.327 . S
C1237 C1253 1.429 1_554 S
C1237 H1259 0.950 . S
C1238 H1234 0.949 . S
C1238 C1246 1.574 . S
C1238 C1254 1.368 . S
H1239 C1247 0.950 . S
H1240 C1245 0.950 . S
H1241 C1246 0.949 . S
H1242 C1248 0.950 . S
H1243 C1249 0.950 . S
H1244 C1250 0.949 1_554 S
C1245 H1240 0.950 . S
C1245 C1247 1.327 . S
C1245 C1251 1.429 . S
C1246 C1238 1.574 . S
C1246 H1241 0.949 . S
C1246 C1252 1.368 . S
C1247 C1231 1.349 . S
C1247 H1239 0.950 . S
C1247 C1245 1.327 . S
C1248 C1236 1.375 . S
C1248 H1242 0.950 . S
C1248 C1249 1.327 . S
C1249 H1243 0.950 . S
C1249 C1248 1.327 . S
C1249 C1253 1.429 . S
C1250 C1233 1.574 . S
C1250 H1244 0.949 1_556 S
C1250 C1254 1.368 . S
C1251 C1232 1.429 . S
C1251 C1245 1.429 . S
C1251 C1252 1.523 . S
C1252 C1233 1.368 . S
C1252 C1246 1.368 . S
C1252 C1251 1.523 . S
C1253 C1237 1.429 1_556 S
C1253 C1249 1.429 . S
C1253 C1254 1.523 . S
C1254 C1238 1.368 . S
C1254 C1250 1.368 . S
C1254 C1253 1.523 . S
H1255 C1230 0.950 . S
H1256 C1232 0.950 . S
H1257 C1233 0.922 1_554 S
H1258 C1235 0.950 . S
H1259 C1237 0.950 . S
C1260 C1261 1.349 . S
C1260 C1262 1.327 . S
C1260 H1285 0.950 . S
C1261 C1260 1.349 . S
C1261 C1277 1.349 . S
C1262 C1260 1.327 . S
C1262 C1281 1.429 . S
C1262 H1286 0.950 . S
C1263 C1280 1.574 . S
C1263 C1282 1.368 . S
C1263 H1287 0.949 . S
H1264 C1268 0.949 . S
C1265 C1266 1.349 . S
C1265 C1267 1.327 . S
C1265 H1288 0.950 . S
C1266 C1265 1.349 . S
C1266 C1278 1.349 . S
C1267 C1265 1.327 . S
C1267 C1283 1.429 . S
C1267 H1289 0.950 . S
C1268 H1264 0.949 . S
C1268 C1276 1.574 . S
C1268 C1284 1.368 . S
H1269 C1277 0.950 . S
H1270 C1275 0.950 . S
H1271 C1276 0.949 . S
H1272 C1278 0.950 . S
H1273 C1279 0.950 . S
H1274 C1280 0.949 . S
C1275 H1270 0.950 . S
C1275 C1277 1.327 . S
C1275 C1281 1.429 . S
C1276 C1268 1.574 . S
C1276 H1271 0.949 . S
C1276 C1282 1.368 . S
C1277 C1261 1.349 . S
C1277 H1269 0.950 . S
C1277 C1275 1.327 . S
C1278 C1266 1.349 . S
C1278 H1272 0.950 . S
C1278 C1279 1.327 . S
C1279 H1273 0.950 . S
C1279 C1278 1.327 . S
C1279 C1283 1.429 . S
C1280 C1263 1.574 . S
C1280 H1274 0.949 . S
C1280 C1284 1.368 . S
C1281 C1262 1.429 . S
C1281 C1275 1.429 . S
C1281 C1282 1.523 . S
C1282 C1263 1.368 . S
C1282 C1276 1.368 . S
C1282 C1281 1.523 . S
C1283 C1267 1.429 . S
C1283 C1279 1.429 . S
C1283 C1284 1.523 . S
C1284 C1268 1.368 . S
C1284 C1280 1.368 . S
C1284 C1283 1.523 . S
H1285 C1260 0.950 . S
H1286 C1262 0.950 . S
H1287 C1263 0.949 . S
H1288 C1265 0.950 . S
H1289 C1267 0.950 . S
C1290 C1291 1.349 . S
C1290 C1292 1.327 . S
C1290 H1315 0.950 . S
C1291 C1290 1.349 . S
C1291 C1307 1.349 . S
C1292 C1290 1.327 . S
C1292 C1311 1.429 . S
C1292 H1316 0.950 . S
C1293 C1310 1.574 . S
C1293 C1312 1.368 . S
C1293 H1317 0.949 . S
H1294 C1298 0.949 . S
C1295 C1296 1.349 . S
C1295 C1297 1.327 . S
C1295 H1318 0.950 . S
C1296 C1295 1.349 . S
C1296 C1308 1.349 . S
C1297 C1295 1.327 . S
C1297 C1313 1.429 . S
C1297 H1319 0.950 . S
C1298 H1294 0.949 . S
C1298 C1306 1.574 . S
C1298 C1314 1.368 . S
H1299 C1307 0.950 . S
H1300 C1305 0.950 . S
H1301 C1306 0.949 . S
H1302 C1308 0.950 . S
H1303 C1309 0.950 . S
H1304 C1310 0.949 . S
C1305 H1300 0.950 . S
C1305 C1307 1.327 . S
C1305 C1311 1.429 . S
C1306 C1298 1.574 . S
C1306 H1301 0.949 . S
C1306 C1312 1.368 . S
C1307 C1291 1.349 . S
C1307 H1299 0.950 . S
C1307 C1305 1.327 . S
C1308 C1296 1.349 . S
C1308 H1302 0.950 . S
C1308 C1309 1.327 . S
C1309 H1303 0.950 . S
C1309 C1308 1.327 . S
C1309 C1313 1.429 . S
C1310 C1293 1.574 . S
C1310 H1304 0.949 . S
C1310 C1314 1.368 . S
C1311 C1292 1.429 . S
C1311 C1305 1.429 . S
C1311 C1312 1.523 . S
C1312 C1293 1.368 . S
C1312 C1306 1.368 . S
C1312 C1311 1.523 . S
C1313 C1297 1.429 . S
C1313 C1309 1.429 . S
C1313 C1314 1.523 . S
C1314 C1298 1.368 . S
C1314 C1310 1.368 . S
C1314 C1313 1.523 . S
H1315 C1290 0.950 . S
H1316 C1292 0.950 . S
H1317 C1293 0.949 . S
H1318 C1295 0.950 . S
H1319 C1297 0.950 . S
C1320 C1321 1.349 . S
C1320 C1322 1.327 . S
C1320 H1345 0.950 . S
C1321 C1320 1.349 . S
C1321 C1337 1.349 . S
C1322 C1320 1.327 . S
C1322 C1341 1.429 . S
C1322 H1346 0.950 . S
C1323 C1340 1.574 . S
C1323 C1342 1.368 . S
C1323 H1347 0.949 . S
H1324 C1328 0.949 . S
C1325 C1326 1.349 . S
C1325 C1327 1.327 . S
C1325 H1348 0.950 . S
C1326 C1325 1.349 . S
C1326 C1338 1.349 . S
C1327 C1325 1.327 . S
C1327 C1343 1.429 . S
C1327 H1349 0.950 . S
C1328 H1324 0.949 . S
C1328 C1336 1.574 . S
C1328 C1344 1.368 . S
H1329 C1337 0.950 . S
H1330 C1335 0.950 . S
H1331 C1336 0.949 . S
H1332 C1338 0.950 . S
H1333 C1339 0.950 . S
H1334 C1340 0.949 . S
C1335 H1330 0.950 . S
C1335 C1337 1.327 . S
C1335 C1341 1.429 . S
C1336 C1328 1.574 . S
C1336 H1331 0.949 . S
C1336 C1342 1.368 . S
C1337 C1321 1.349 . S
C1337 H1329 0.950 . S
C1337 C1335 1.327 . S
C1338 C1326 1.349 . S
C1338 H1332 0.950 . S
C1338 C1339 1.327 . S
C1339 H1333 0.950 . S
C1339 C1338 1.327 . S
C1339 C1343 1.429 . S
C1340 C1323 1.574 . S
C1340 H1334 0.949 . S
C1340 C1344 1.368 . S
C1341 C1322 1.429 . S
C1341 C1335 1.429 . S
C1341 C1342 1.523 . S
C1342 C1323 1.368 . S
C1342 C1336 1.368 . S
C1342 C1341 1.523 . S
C1343 C1327 1.429 . S
C1343 C1339 1.429 . S
C1343 C1344 1.523 . S
C1344 C1328 1.368 . S
C1344 C1340 1.368 . S
C1344 C1343 1.523 . S
H1345 C1320 0.950 . S
H1346 C1322 0.950 . S
H1347 C1323 0.949 . S
H1348 C1325 0.950 . S
H1349 C1327 0.950 . S
C1350 C1351 1.349 . S
C1350 C1352 1.327 . S
C1350 H1375 0.950 . S
C1351 C1350 1.349 . S
C1351 C1367 1.349 . S
C1352 C1350 1.327 . S
C1352 C1371 1.429 . S
C1352 H1376 0.950 . S
C1353 C1370 1.574 1_655 S
C1353 C1372 1.368 . S
C1353 H1377 0.949 . S
H1354 C1358 0.949 . S
C1355 C1356 1.349 . S
C1355 C1357 1.327 . S
C1355 H1378 0.950 . S
C1356 C1355 1.349 . S
C1356 C1368 1.349 . S
C1357 C1355 1.327 . S
C1357 C1373 1.429 . S
C1357 H1379 0.950 . S
C1358 H1354 0.949 . S
C1358 C1366 1.574 . S
C1358 C1374 1.368 . S
H1359 C1367 0.950 . S
H1360 C1365 0.950 . S
H1361 C1366 0.949 . S
H1362 C1368 0.950 . S
H1363 C1369 0.950 . S
H1364 C1370 0.949 . S
C1365 H1360 0.950 . S
C1365 C1367 1.327 . S
C1365 C1371 1.429 . S
C1366 C1358 1.574 . S
C1366 H1361 0.949 . S
C1366 C1372 1.368 1_455 S
C1367 C1351 1.349 . S
C1367 H1359 0.950 . S
C1367 C1365 1.327 . S
C1368 C1356 1.349 . S
C1368 H1362 0.950 . S
C1368 C1369 1.327 . S
C1369 H1363 0.950 . S
C1369 C1368 1.327 . S
C1369 C1373 1.429 . S
C1370 C1353 1.574 1_455 S
C1370 H1364 0.949 . S
C1370 C1374 1.368 . S
C1371 C1352 1.429 . S
C1371 C1365 1.429 . S
C1371 C1372 1.523 . S
C1372 C1353 1.368 . S
C1372 C1366 1.368 1_655 S
C1372 C1371 1.523 . S
C1373 C1357 1.429 . S
C1373 C1369 1.429 . S
C1373 C1374 1.523 . S
C1374 C1358 1.368 . S
C1374 C1370 1.368 . S
C1374 C1373 1.523 . S
H1375 C1350 0.950 . S
H1376 C1352 0.950 . S
H1377 C1353 0.949 . S
H1378 C1355 0.950 . S
H1379 C1357 0.950 . S
C1380 C1381 1.349 . S
C1380 C1382 1.327 . S
C1380 H1405 0.950 . S
C1381 C1380 1.349 . S
C1381 C1397 1.349 . S
C1382 C1380 1.327 . S
C1382 C1401 1.429 . S
C1382 H1406 0.950 . S
C1383 C1400 1.574 . S
C1383 C1402 1.368 . S
C1383 H1407 0.949 . S
H1384 C1388 0.949 . S
C1385 C1386 1.349 . S
C1385 C1387 1.327 . S
C1385 H1408 0.950 . S
C1386 C1385 1.349 . S
C1386 C1398 1.349 . S
C1387 C1385 1.327 . S
C1387 C1403 1.429 . S
C1387 H1409 0.950 . S
C1388 H1384 0.949 . S
C1388 C1396 1.574 . S
C1388 C1404 1.368 . S
H1389 C1397 0.950 . S
H1390 C1395 0.950 . S
H1391 C1396 0.949 . S
H1392 C1398 0.950 . S
H1393 C1399 0.950 . S
H1394 C1400 0.949 . S
C1395 H1390 0.950 . S
C1395 C1397 1.327 . S
C1395 C1401 1.429 . S
C1396 C1388 1.574 . S
C1396 H1391 0.949 . S
C1396 C1402 1.368 . S
C1397 C1381 1.349 . S
C1397 H1389 0.950 . S
C1397 C1395 1.327 . S
C1398 C1386 1.349 . S
C1398 H1392 0.950 . S
C1398 C1399 1.327 . S
C1399 H1393 0.950 . S
C1399 C1398 1.327 . S
C1399 C1403 1.429 . S
C1400 C1383 1.574 . S
C1400 H1394 0.949 . S
C1400 C1404 1.368 . S
C1401 C1382 1.429 . S
C1401 C1395 1.429 . S
C1401 C1402 1.523 . S
C1402 C1383 1.368 . S
C1402 C1396 1.368 . S
C1402 C1401 1.523 . S
C1403 C1387 1.429 . S
C1403 C1399 1.429 . S
C1403 C1404 1.523 . S
C1404 C1388 1.368 . S
C1404 C1400 1.368 . S
C1404 C1403 1.523 . S
H1405 C1380 0.950 . S
H1406 C1382 0.950 . S
H1407 C1383 0.949 . S
H1408 C1385 0.950 . S
H1409 C1387 0.950 . S
C1410 C1411 1.349 . S
C1410 C1412 1.327 . S
C1410 H1435 0.950 . S
C1411 C1410 1.349 . S
C1411 C1427 1.349 . S
C1412 C1410 1.327 . S
C1412 C1431 1.429 . S
C1412 H1436 0.950 . S
C1413 C1430 1.574 . S
C1413 C1432 1.368 . S
C1413 H1437 0.949 . S
H1414 C1418 0.949 . S
C1415 C1416 1.349 . S
C1415 C1417 1.327 . S
C1415 H1438 0.950 . S
C1416 C1415 1.349 . S
C1416 C1428 1.349 . S
C1417 C1415 1.327 . S
C1417 C1433 1.429 . S
C1417 H1439 0.950 . S
C1418 H1414 0.949 . S
C1418 C1426 1.574 1_565 S
C1418 C1434 1.368 . S
H1419 C1427 0.950 . S
H1420 C1425 0.950 . S
H1421 C1426 0.949 . S
H1422 C1428 0.950 . S
H1423 C1429 0.950 . S
H1424 C1430 0.962 . S
C1425 H1420 0.950 . S
C1425 C1427 1.327 . S
C1425 C1431 1.429 . S
C1426 C1418 1.574 1_545 S
C1426 H1421 0.949 . S
C1426 C1432 1.368 . S
C1427 C1411 1.349 . S
C1427 H1419 0.950 . S
C1427 C1425 1.327 . S
C1428 C1416 1.349 . S
C1428 H1422 0.950 . S
C1428 C1429 1.327 . S
C1429 H1423 0.950 . S
C1429 C1428 1.327 . S
C1429 C1433 1.429 . S
C1430 C1413 1.574 . S
C1430 H1424 0.962 . S
C1430 C1434 1.368 1_545 S
C1431 C1412 1.429 . S
C1431 C1425 1.429 . S
C1431 C1432 1.523 . S
C1432 C1413 1.368 . S
C1432 C1426 1.368 . S
C1432 C1431 1.523 . S
C1433 C1417 1.429 . S
C1433 C1429 1.429 . S
C1433 C1434 1.523 . S
C1434 C1418 1.368 . S
C1434 C1430 1.368 1_565 S
C1434 C1433 1.523 . S
H1435 C1410 0.950 . S
H1436 C1412 0.950 . S
H1437 C1413 0.949 . S
H1438 C1415 0.950 . S
H1439 C1417 0.950 . S
C1440 C1441 1.349 . S
C1440 C1442 1.327 . S
C1440 H1465 0.950 . S
C1441 C1440 1.349 . S
C1441 C1457 1.349 . S
C1442 C1440 1.327 . S
C1442 C1461 1.429 . S
C1442 H1466 0.950 . S
C1443 C1460 1.574 . S
C1443 C1462 1.368 . S
C1443 H1467 0.949 . S
H1444 C1448 0.949 . S
C1445 C1446 1.349 . S
C1445 C1447 1.327 . S
C1445 H1468 0.950 . S
C1446 C1445 1.349 . S
C1446 C1458 1.349 . S
C1447 C1445 1.327 . S
C1447 C1463 1.429 . S
C1447 H1469 0.950 . S
C1448 H1444 0.949 . S
C1448 C1456 1.574 . S
C1448 C1464 1.368 . S
H1449 C1457 0.950 . S
H1450 C1455 0.950 . S
H1451 C1456 0.949 . S
H1452 C1458 0.950 . S
H1453 C1459 0.950 . S
H1454 C1460 0.949 . S
C1455 H1450 0.950 . S
C1455 C1457 1.327 . S
C1455 C1461 1.429 . S
C1456 C1448 1.574 . S
C1456 H1451 0.949 . S
C1456 C1462 1.368 . S
C1457 C1441 1.349 . S
C1457 H1449 0.950 . S
C1457 C1455 1.327 . S
C1458 C1446 1.349 . S
C1458 H1452 0.950 . S
C1458 C1459 1.327 . S
C1459 H1453 0.950 . S
C1459 C1458 1.327 . S
C1459 C1463 1.429 . S
C1460 C1443 1.574 . S
C1460 H1454 0.949 . S
C1460 C1464 1.368 . S
C1461 C1442 1.429 . S
C1461 C1455 1.429 . S
C1461 C1462 1.523 . S
C1462 C1443 1.368 . S
C1462 C1456 1.368 . S
C1462 C1461 1.523 . S
C1463 C1447 1.429 . S
C1463 C1459 1.429 . S
C1463 C1464 1.523 . S
C1464 C1448 1.368 . S
C1464 C1460 1.368 . S
C1464 C1463 1.523 . S
H1465 C1440 0.950 . S
H1466 C1442 0.950 . S
H1467 C1443 0.949 . S
H1468 C1445 0.950 . S
H1469 C1447 0.950 . S
C1470 C1471 1.349 . S
C1470 C1472 1.327 . S
C1470 H1495 0.950 . S
C1471 C1470 1.349 . S
C1471 C1487 1.349 . S
C1472 C1470 1.327 . S
C1472 C1491 1.429 . S
C1472 H1496 0.950 . S
C1473 C1490 1.574 . S
C1473 C1492 1.368 . S
C1473 H1497 0.949 . S
H1474 C1478 0.949 . S
C1475 C1476 1.349 . S
C1475 C1477 1.327 . S
C1475 H1498 0.950 . S
C1476 C1475 1.349 . S
C1476 C1488 1.349 . S
C1477 C1475 1.327 . S
C1477 C1493 1.429 . S
C1477 H1499 0.950 . S
C1478 H1474 0.949 . S
C1478 C1486 1.574 . S
C1478 C1494 1.368 . S
H1479 C1487 0.950 . S
H1480 C1485 0.950 . S
H1481 C1486 0.949 . S
H1482 C1488 0.950 . S
H1483 C1489 0.950 . S
H1484 C1490 0.949 . S
C1485 H1480 0.950 . S
C1485 C1487 1.327 . S
C1485 C1491 1.429 . S
C1486 C1478 1.574 . S
C1486 H1481 0.949 . S
C1486 C1492 1.368 . S
C1487 C1471 1.349 . S
C1487 H1479 0.950 . S
C1487 C1485 1.327 . S
C1488 C1476 1.349 . S
C1488 H1482 0.950 . S
C1488 C1489 1.327 . S
C1489 H1483 0.950 . S
C1489 C1488 1.327 . S
C1489 C1493 1.429 . S
C1490 C1473 1.574 . S
C1490 H1484 0.949 . S
C1490 C1494 1.368 . S
C1491 C1472 1.429 . S
C1491 C1485 1.429 . S
C1491 C1492 1.523 . S
C1492 C1473 1.368 . S
C1492 C1486 1.368 . S
C1492 C1491 1.523 . S
C1493 C1477 1.429 . S
C1493 C1489 1.429 . S
C1493 C1494 1.523 . S
C1494 C1478 1.368 . S
C1494 C1490 1.368 . S
C1494 C1493 1.523 . S
H1495 C1470 0.950 . S
H1496 C1472 0.950 . S
H1497 C1473 0.949 . S
H1498 C1475 0.950 . S
H1499 C1477 0.950 . S
C1500 C1501 1.349 . S
C1500 C1502 1.327 . S
C1500 H1525 0.950 . S
C1501 C1500 1.349 . S
C1501 C1517 1.349 . S
C1502 C1500 1.327 . S
C1502 C1521 1.429 . S
C1502 H1526 0.950 . S
C1503 C1520 1.574 . S
C1503 C1522 1.368 . S
C1503 H1527 0.949 . S
H1504 C1508 0.949 . S
C1505 C1506 1.349 . S
C1505 C1507 1.327 . S
C1505 H1528 0.950 . S
C1506 C1505 1.349 . S
C1506 C1518 1.349 . S
C1507 C1505 1.327 . S
C1507 C1523 1.429 . S
C1507 H1529 0.950 . S
C1508 H1504 0.949 . S
C1508 C1516 1.574 . S
C1508 C1524 1.368 . S
H1509 C1517 0.950 . S
H1510 C1515 0.950 . S
H1511 C1516 0.949 . S
H1512 C1518 0.950 . S
H1513 C1519 0.950 . S
H1514 C1520 0.949 . S
C1515 H1510 0.950 . S
C1515 C1517 1.327 . S
C1515 C1521 1.429 . S
C1516 C1508 1.574 . S
C1516 H1511 0.949 . S
C1516 C1522 1.368 . S
C1517 C1501 1.349 . S
C1517 H1509 0.950 . S
C1517 C1515 1.327 . S
C1518 C1506 1.349 . S
C1518 H1512 0.950 . S
C1518 C1519 1.327 . S
C1519 H1513 0.950 . S
C1519 C1518 1.327 . S
C1519 C1523 1.429 . S
C1520 C1503 1.574 . S
C1520 H1514 0.949 . S
C1520 C1524 1.368 . S
C1521 C1502 1.429 . S
C1521 C1515 1.429 . S
C1521 C1522 1.523 . S
C1522 C1503 1.368 . S
C1522 C1516 1.368 . S
C1522 C1521 1.523 . S
C1523 C1507 1.429 . S
C1523 C1519 1.429 . S
C1523 C1524 1.523 . S
C1524 C1508 1.368 . S
C1524 C1520 1.368 . S
C1524 C1523 1.523 . S
H1525 C1500 0.950 . S
H1526 C1502 0.950 . S
H1527 C1503 0.949 . S
H1528 C1505 0.950 . S
H1529 C1507 0.950 . S
C1530 C1531 1.349 . S
C1530 C1532 1.327 . S
C1530 H1555 0.950 . S
C1531 C1530 1.349 . S
C1531 C1547 1.349 . S
C1532 C1530 1.327 . S
C1532 C1551 1.429 . S
C1532 H1556 0.950 . S
C1533 C1550 1.574 . S
C1533 C1552 1.368 . S
C1533 H1557 0.949 . S
H1534 C1538 0.949 . S
C1535 C1536 1.349 . S
C1535 C1537 1.327 . S
C1535 H1558 0.950 . S
C1536 C1535 1.349 . S
C1536 C1548 1.349 . S
C1537 C1535 1.327 . S
C1537 C1553 1.429 . S
C1537 H1559 0.950 . S
C1538 H1534 0.949 . S
C1538 C1546 1.574 . S
C1538 C1554 1.368 . S
H1539 C1547 0.950 . S
H1540 C1545 0.950 . S
H1541 C1546 0.949 . S
H1542 C1548 0.950 . S
H1543 C1549 0.950 . S
H1544 C1550 0.949 . S
C1545 H1540 0.950 . S
C1545 C1547 1.327 . S
C1545 C1551 1.429 . S
C1546 C1538 1.574 . S
C1546 H1541 0.949 . S
C1546 C1552 1.368 . S
C1547 C1531 1.349 . S
C1547 H1539 0.950 . S
C1547 C1545 1.327 . S
C1548 C1536 1.349 . S
C1548 H1542 0.950 . S
C1548 C1549 1.327 . S
C1549 H1543 0.950 . S
C1549 C1548 1.327 . S
C1549 C1553 1.429 . S
C1550 C1533 1.574 . S
C1550 H1544 0.949 . S
C1550 C1554 1.368 . S
C1551 C1532 1.429 . S
C1551 C1545 1.429 . S
C1551 C1552 1.523 . S
C1552 C1533 1.368 . S
C1552 C1546 1.368 . S
C1552 C1551 1.523 . S
C1553 C1537 1.429 . S
C1553 C1549 1.429 . S
C1553 C1554 1.523 . S
C1554 C1538 1.368 . S
C1554 C1550 1.368 . S
C1554 C1553 1.523 . S
H1555 C1530 0.950 . S
H1556 C1532 0.950 . S
H1557 C1533 0.949 . S
H1558 C1535 0.950 . S
H1559 C1537 0.950 . S
C1560 C1561 1.349 . S
C1560 C1562 1.327 . S
C1560 H1585 0.950 . S
C1561 C1560 1.349 . S
C1561 C1577 1.349 . S
C1562 C1560 1.327 . S
C1562 C1581 1.429 . S
C1562 H1586 0.950 . S
C1563 C1580 1.574 . S
C1563 C1582 1.368 . S
C1563 H1587 0.949 . S
H1564 C1568 0.949 . S
C1565 C1566 1.349 . S
C1565 C1567 1.327 . S
C1565 H1588 0.950 . S
C1566 C1565 1.349 . S
C1566 C1578 1.349 . S
C1567 C1565 1.327 . S
C1567 C1583 1.429 . S
C1567 H1589 0.950 . S
C1568 H1564 0.949 . S
C1568 C1576 1.574 . S
C1568 C1584 1.368 . S
H1569 C1577 0.950 . S
H1570 C1575 0.950 . S
H1571 C1576 0.949 . S
H1572 C1578 0.950 . S
H1573 C1579 0.950 . S
H1574 C1580 0.949 . S
C1575 H1570 0.950 . S
C1575 C1577 1.327 . S
C1575 C1581 1.429 . S
C1576 C1568 1.574 . S
C1576 H1571 0.949 . S
C1576 C1582 1.368 . S
C1577 C1561 1.349 . S
C1577 H1569 0.950 . S
C1577 C1575 1.327 . S
C1578 C1566 1.349 . S
C1578 H1572 0.950 . S
C1578 C1579 1.327 . S
C1579 H1573 0.950 . S
C1579 C1578 1.327 . S
C1579 C1583 1.429 . S
C1580 C1563 1.574 . S
C1580 H1574 0.949 . S
C1580 C1584 1.368 . S
C1581 C1562 1.429 . S
C1581 C1575 1.429 . S
C1581 C1582 1.523 . S
C1582 C1563 1.368 . S
C1582 C1576 1.368 . S
C1582 C1581 1.523 . S
C1583 C1567 1.429 . S
C1583 C1579 1.429 . S
C1583 C1584 1.523 . S
C1584 C1568 1.368 . S
C1584 C1580 1.368 . S
C1584 C1583 1.523 . S
H1585 C1560 0.950 . S
H1586 C1562 0.950 . S
H1587 C1563 0.949 . S
H1588 C1565 0.950 . S
H1589 C1567 0.950 . S
C1590 C1591 1.349 . S
C1590 C1592 1.327 . S
C1590 H1615 0.950 . S
C1591 C1590 1.349 . S
C1591 C1607 1.349 . S
C1592 C1590 1.327 . S
C1592 C1611 1.429 . S
C1592 H1616 0.950 . S
C1593 C1610 1.574 . S
C1593 C1612 1.368 . S
C1593 H1617 0.949 . S
H1594 C1598 0.949 . S
C1595 C1596 1.349 . S
C1595 C1597 1.327 . S
C1595 H1618 0.950 . S
C1596 C1595 1.349 . S
C1596 C1608 1.349 . S
C1597 C1595 1.327 . S
C1597 C1613 1.429 . S
C1597 H1619 0.950 . S
C1598 H1594 0.949 . S
C1598 C1606 1.574 . S
C1598 C1614 1.368 . S
H1599 C1607 0.950 . S
H1600 C1605 0.950 . S
H1601 C1606 0.949 . S
H1602 C1608 0.950 . S
H1603 C1609 0.950 . S
H1604 C1610 0.949 . S
C1605 H1600 0.950 . S
C1605 C1607 1.327 . S
C1605 C1611 1.429 . S
C1606 C1598 1.574 . S
C1606 H1601 0.949 . S
C1606 C1612 1.368 . S
C1607 C1591 1.349 . S
C1607 H1599 0.950 . S
C1607 C1605 1.327 . S
C1608 C1596 1.349 . S
C1608 H1602 0.950 . S
C1608 C1609 1.327 . S
C1609 H1603 0.950 . S
C1609 C1608 1.327 . S
C1609 C1613 1.429 . S
C1610 C1593 1.574 . S
C1610 H1604 0.949 . S
C1610 C1614 1.368 . S
C1611 C1592 1.429 . S
C1611 C1605 1.429 . S
C1611 C1612 1.523 . S
C1612 C1593 1.368 . S
C1612 C1606 1.368 . S
C1612 C1611 1.523 . S
C1613 C1597 1.429 . S
C1613 C1609 1.429 . S
C1613 C1614 1.523 . S
C1614 C1598 1.368 . S
C1614 C1610 1.368 . S
C1614 C1613 1.523 . S
H1615 C1590 0.950 . S
H1616 C1592 0.950 . S
H1617 C1593 0.949 . S
H1618 C1595 0.950 . S
H1619 C1597 0.950 . S
C1620 C1621 1.349 . S
C1620 C1622 1.327 . S
C1620 H1645 0.950 . S
C1621 C1620 1.349 . S
C1621 C1637 1.349 . S
C1622 C1620 1.327 . S
C1622 C1641 1.429 1_545 S
C1622 H1646 0.950 1_545 S
C1623 C1640 1.574 . S
C1623 C1642 1.368 . S
C1623 H1647 0.949 . S
H1624 C1628 0.949 . S
C1625 C1626 1.349 . S
C1625 C1627 1.327 . S
C1625 H1648 0.950 . S
C1626 C1625 1.349 . S
C1626 C1638 1.349 . S
C1627 C1625 1.327 . S
C1627 C1643 1.429 . S
C1627 H1649 0.950 . S
C1628 H1624 0.949 . S
C1628 C1636 1.574 . S
C1628 C1644 1.368 . S
H1629 C1637 0.950 . S
H1630 C1635 0.950 . S
H1631 C1636 0.949 . S
H1632 C1638 0.950 . S
H1633 C1639 0.950 . S
H1634 C1640 0.949 . S
C1635 H1630 0.950 . S
C1635 C1637 1.327 . S
C1635 C1641 1.429 1_545 S
C1636 C1628 1.574 . S
C1636 H1631 0.949 . S
C1636 C1642 1.368 . S
C1637 C1621 1.349 . S
C1637 H1629 0.950 . S
C1637 C1635 1.327 . S
C1638 C1626 1.349 . S
C1638 H1632 0.950 . S
C1638 C1639 1.327 . S
C1639 H1633 0.950 . S
C1639 C1638 1.327 . S
C1639 C1643 1.429 . S
C1640 C1623 1.574 . S
C1640 H1634 0.949 . S
C1640 C1644 1.368 . S
C1641 C1622 1.429 1_565 S
C1641 C1635 1.429 1_565 S
C1641 C1642 1.523 . S
C1642 C1623 1.368 . S
C1642 C1636 1.368 . S
C1642 C1641 1.523 . S
C1643 C1627 1.429 . S
C1643 C1639 1.429 . S
C1643 C1644 1.523 . S
C1644 C1628 1.368 . S
C1644 C1640 1.368 . S
C1644 C1643 1.523 . S
H1645 C1620 0.950 . S
H1646 C1622 0.950 1_565 S
H1647 C1623 0.949 . S
H1648 C1625 0.950 . S
H1649 C1627 0.950 . S
C1650 C1651 1.349 . S
C1650 C1652 1.327 1_655 S
C1650 H1675 0.950 . S
C1651 C1650 1.349 . S
C1651 C1667 1.349 . S
C1652 C1650 1.327 1_455 S
C1652 C1671 1.429 . S
C1652 H1676 0.950 . S
C1653 C1670 1.574 . S
C1653 C1672 1.368 . S
C1653 H1677 0.949 . S
H1654 C1658 0.949 . S
C1655 C1656 1.349 . S
C1655 C1657 1.327 . S
C1655 H1678 0.950 . S
C1656 C1655 1.349 . S
C1656 C1668 1.349 . S
C1657 C1655 1.327 . S
C1657 C1673 1.429 . S
C1657 H1679 0.950 . S
C1658 H1654 0.949 . S
C1658 C1666 1.574 . S
C1658 C1674 1.368 . S
H1659 C1667 0.950 . S
H1660 C1665 0.950 . S
H1661 C1666 0.949 . S
H1662 C1668 0.950 . S
H1663 C1669 0.950 . S
H1664 C1670 0.949 . S
C1665 H1660 0.950 . S
C1665 C1667 1.327 1_455 S
C1665 C1671 1.429 . S
C1666 C1658 1.574 . S
C1666 H1661 0.949 . S
C1666 C1672 1.368 . S
C1667 C1651 1.349 . S
C1667 H1659 0.950 . S
C1667 C1665 1.327 1_655 S
C1668 C1656 1.349 . S
C1668 H1662 0.950 . S
C1668 C1669 1.327 . S
C1669 H1663 0.950 . S
C1669 C1668 1.327 . S
C1669 C1673 1.429 . S
C1670 C1653 1.574 . S
C1670 H1664 0.949 . S
C1670 C1674 1.368 . S
C1671 C1652 1.429 . S
C1671 C1665 1.429 . S
C1671 C1672 1.523 . S
C1672 C1653 1.368 . S
C1672 C1666 1.368 . S
C1672 C1671 1.523 . S
C1673 C1657 1.429 . S
C1673 C1669 1.429 . S
C1673 C1674 1.523 . S
C1674 C1658 1.368 . S
C1674 C1670 1.368 . S
C1674 C1673 1.523 . S
H1675 C1650 0.950 . S
H1676 C1652 0.950 . S
H1677 C1653 0.949 . S
H1678 C1655 0.950 . S
H1679 C1657 0.950 . S
C1680 C1681 1.349 . S
C1680 C1682 1.327 . S
C1680 H1705 0.950 . S
C1681 C1680 1.349 . S
C1681 C1697 1.349 . S
C1682 C1680 1.327 . S
C1682 C1701 1.429 . S
C1682 H1706 0.950 . S
C1683 C1700 1.574 . S
C1683 C1702 1.368 . S
C1683 H1707 0.949 . S
H1684 C1688 0.949 . S
C1685 C1686 1.349 . S
C1685 C1687 1.327 . S
C1685 H1708 0.950 . S
C1686 C1685 1.349 . S
C1686 C1698 1.349 . S
C1687 C1685 1.327 . S
C1687 C1703 1.429 . S
C1687 H1709 0.950 . S
C1688 H1684 0.949 . S
C1688 C1696 1.574 . S
C1688 C1704 1.368 . S
H1689 C1697 0.950 . S
H1690 C1695 0.950 . S
H1691 C1696 0.949 . S
H1692 C1698 0.950 . S
H1693 C1699 0.950 . S
H1694 C1700 0.949 . S
C1695 H1690 0.950 . S
C1695 C1697 1.327 . S
C1695 C1701 1.429 . S
C1696 C1688 1.574 . S
C1696 H1691 0.949 . S
C1696 C1702 1.368 . S
C1697 C1681 1.349 . S
C1697 H1689 0.950 . S
C1697 C1695 1.327 . S
C1698 C1686 1.349 . S
C1698 H1692 0.950 . S
C1698 C1699 1.327 . S
C1699 H1693 0.950 . S
C1699 C1698 1.327 . S
C1699 C1703 1.429 . S
C1700 C1683 1.574 . S
C1700 H1694 0.949 . S
C1700 C1704 1.368 . S
C1701 C1682 1.429 . S
C1701 C1695 1.429 . S
C1701 C1702 1.523 . S
C1702 C1683 1.368 . S
C1702 C1696 1.368 . S
C1702 C1701 1.523 . S
C1703 C1687 1.429 . S
C1703 C1699 1.429 . S
C1703 C1704 1.523 . S
C1704 C1688 1.368 . S
C1704 C1700 1.368 . S
C1704 C1703 1.523 . S
H1705 C1680 0.950 . S
H1706 C1682 0.950 . S
H1707 C1683 0.949 . S
H1708 C1685 0.950 . S
H1709 C1687 0.950 . S
C1710 C1711 1.349 . S
C1710 C1712 1.327 . S
C1710 H1735 0.950 . S
C1711 C1710 1.349 . S
C1711 C1727 1.349 . S
C1712 C1710 1.327 . S
C1712 C1731 1.429 . S
C1712 H1736 0.950 . S
C1713 C1730 1.574 . S
C1713 C1732 1.368 . S
C1713 H1737 0.949 . S
H1714 C1718 0.949 . S
C1715 C1716 1.349 . S
C1715 C1717 1.327 . S
C1715 H1738 0.950 . S
C1716 C1715 1.349 . S
C1716 C1728 1.349 . S
C1717 C1715 1.327 . S
C1717 C1733 1.429 . S
C1717 H1739 0.950 . S
C1718 H1714 0.949 . S
C1718 C1726 1.574 . S
C1718 C1734 1.368 . S
H1719 C1727 0.950 . S
H1720 C1725 0.950 . S
H1721 C1726 0.949 . S
H1722 C1728 0.950 . S
H1723 C1729 0.950 . S
H1724 C1730 0.949 . S
C1725 H1720 0.950 . S
C1725 C1727 1.327 . S
C1725 C1731 1.429 . S
C1726 C1718 1.574 . S
C1726 H1721 0.949 . S
C1726 C1732 1.368 . S
C1727 C1711 1.349 . S
C1727 H1719 0.950 . S
C1727 C1725 1.327 . S
C1728 C1716 1.349 . S
C1728 H1722 0.950 . S
C1728 C1729 1.327 . S
C1729 H1723 0.950 . S
C1729 C1728 1.327 . S
C1729 C1733 1.429 . S
C1730 C1713 1.574 . S
C1730 H1724 0.949 . S
C1730 C1734 1.368 . S
C1731 C1712 1.429 . S
C1731 C1725 1.429 . S
C1731 C1732 1.523 . S
C1732 C1713 1.368 . S
C1732 C1726 1.368 . S
C1732 C1731 1.523 . S
C1733 C1717 1.429 . S
C1733 C1729 1.429 . S
C1733 C1734 1.523 . S
C1734 C1718 1.368 . S
C1734 C1730 1.368 . S
C1734 C1733 1.523 . S
H1735 C1710 0.950 . S
H1736 C1712 0.950 . S
H1737 C1713 0.949 . S
H1738 C1715 0.950 . S
H1739 C1717 0.950 . S
C1740 C1741 1.349 . S
C1740 C1742 1.327 . S
C1740 H1765 0.950 . S
C1741 C1740 1.349 . S
C1741 C1757 1.349 . S
C1742 C1740 1.327 . S
C1742 C1761 1.429 . S
C1742 H1766 0.950 . S
C1743 C1760 1.574 . S
C1743 C1762 1.368 . S
C1743 H1767 0.949 . S
H1744 C1748 0.949 . S
C1745 C1746 1.349 . S
C1745 C1747 1.327 . S
C1745 H1768 0.950 . S
C1746 C1745 1.349 . S
C1746 C1758 1.349 . S
C1747 C1745 1.327 . S
C1747 C1763 1.429 . S
C1747 H1769 0.950 . S
C1748 H1744 0.949 . S
C1748 C1756 1.574 . S
C1748 C1764 1.368 . S
H1749 C1757 0.950 . S
H1750 C1755 0.950 . S
H1751 C1756 0.949 . S
H1752 C1758 0.950 . S
H1753 C1759 0.950 . S
H1754 C1760 0.949 . S
C1755 H1750 0.950 . S
C1755 C1757 1.327 . S
C1755 C1761 1.429 . S
C1756 C1748 1.574 . S
C1756 H1751 0.949 . S
C1756 C1762 1.368 . S
C1757 C1741 1.349 . S
C1757 H1749 0.950 . S
C1757 C1755 1.327 . S
C1758 C1746 1.349 . S
C1758 H1752 0.950 . S
C1758 C1759 1.327 . S
C1759 H1753 0.950 . S
C1759 C1758 1.327 . S
C1759 C1763 1.429 . S
C1760 C1743 1.574 . S
C1760 H1754 0.949 . S
C1760 C1764 1.368 . S
C1761 C1742 1.429 . S
C1761 C1755 1.429 . S
C1761 C1762 1.523 . S
C1762 C1743 1.368 . S
C1762 C1756 1.368 . S
C1762 C1761 1.523 . S
C1763 C1747 1.429 . S
C1763 C1759 1.429 . S
C1763 C1764 1.523 . S
C1764 C1748 1.368 . S
C1764 C1760 1.368 . S
C1764 C1763 1.523 . S
H1765 C1740 0.950 . S
H1766 C1742 0.950 . S
H1767 C1743 0.949 . S
H1768 C1745 0.950 . S
H1769 C1747 0.950 . S
C1770 C1771 1.349 . S
C1770 C1772 1.327 . S
C1770 H1795 0.950 . S
C1771 C1770 1.349 . S
C1771 C1787 1.349 . S
C1772 C1770 1.327 . S
C1772 C1791 1.429 . S
C1772 H1796 0.950 . S
C1773 C1790 1.574 . S
C1773 C1792 1.368 . S
C1773 H1797 0.949 . S
H1774 C1778 0.949 . S
C1775 C1776 1.349 . S
C1775 C1777 1.327 . S
C1775 H1798 0.950 . S
C1776 C1775 1.349 . S
C1776 C1788 1.349 . S
C1777 C1775 1.327 . S
C1777 C1793 1.429 . S
C1777 H1799 0.950 . S
C1778 H1774 0.949 . S
C1778 C1786 1.574 . S
C1778 C1794 1.368 . S
H1779 C1787 0.950 . S
H1780 C1785 0.950 . S
H1781 C1786 0.949 . S
H1782 C1788 0.950 . S
H1783 C1789 0.950 . S
H1784 C1790 0.949 . S
C1785 H1780 0.950 . S
C1785 C1787 1.327 . S
C1785 C1791 1.429 . S
C1786 C1778 1.574 . S
C1786 H1781 0.949 . S
C1786 C1792 1.368 . S
C1787 C1771 1.349 . S
C1787 H1779 0.950 . S
C1787 C1785 1.327 . S
C1788 C1776 1.349 . S
C1788 H1782 0.950 . S
C1788 C1789 1.327 . S
C1789 H1783 0.950 . S
C1789 C1788 1.327 . S
C1789 C1793 1.429 . S
C1790 C1773 1.574 . S
C1790 H1784 0.949 . S
C1790 C1794 1.368 . S
C1791 C1772 1.429 . S
C1791 C1785 1.429 . S
C1791 C1792 1.523 . S
C1792 C1773 1.368 . S
C1792 C1786 1.368 . S
C1792 C1791 1.523 . S
C1793 C1777 1.429 . S
C1793 C1789 1.429 . S
C1793 C1794 1.523 . S
C1794 C1778 1.368 . S
C1794 C1790 1.368 . S
C1794 C1793 1.523 . S
H1795 C1770 0.950 . S
H1796 C1772 0.950 . S
H1797 C1773 0.949 . S
H1798 C1775 0.950 . S
H1799 C1777 0.950 . S
C1800 C1801 1.349 . S
C1800 C1802 1.327 . S
C1800 H1825 0.950 . S
C1801 C1800 1.349 . S
C1801 C1817 1.349 . S
C1802 C1800 1.327 . S
C1802 C1821 1.429 . S
C1802 H1826 0.950 . S
C1803 C1820 1.574 . S
C1803 C1822 1.368 1_545 S
C1803 H1827 0.949 . S
H1804 C1808 0.949 . S
C1805 C1806 1.349 . S
C1805 C1807 1.327 . S
C1805 H1828 0.950 . S
C1806 C1805 1.349 . S
C1806 C1818 1.349 . S
C1807 C1805 1.327 . S
C1807 C1823 1.429 . S
C1807 H1829 0.950 . S
C1808 H1804 0.949 . S
C1808 C1816 1.574 1_545 S
C1808 C1824 1.368 . S
H1809 C1817 0.950 . S
H1810 C1815 0.950 . S
H1811 C1816 0.949 . S
H1812 C1818 0.950 . S
H1813 C1819 0.950 . S
H1814 C1820 0.949 . S
C1815 H1810 0.950 . S
C1815 C1817 1.327 . S
C1815 C1821 1.429 . S
C1816 C1808 1.574 1_565 S
C1816 H1811 0.949 . S
C1816 C1822 1.368 . S
C1817 C1801 1.349 . S
C1817 H1809 0.950 . S
C1817 C1815 1.327 . S
C1818 C1806 1.349 . S
C1818 H1812 0.950 . S
C1818 C1819 1.327 . S
C1819 H1813 0.950 . S
C1819 C1818 1.327 . S
C1819 C1823 1.429 . S
C1820 C1803 1.574 . S
C1820 H1814 0.949 . S
C1820 C1824 1.368 . S
C1821 C1802 1.429 . S
C1821 C1815 1.429 . S
C1821 C1822 1.523 . S
C1822 C1803 1.368 1_565 S
C1822 C1816 1.368 . S
C1822 C1821 1.523 . S
C1823 C1807 1.429 . S
C1823 C1819 1.429 . S
C1823 C1824 1.523 . S
C1824 C1808 1.368 . S
C1824 C1820 1.368 . S
C1824 C1823 1.523 . S
H1825 C1800 0.950 . S
H1826 C1802 0.950 . S
H1827 C1803 0.949 . S
H1828 C1805 0.950 . S
H1829 C1807 0.950 . S
C1830 C1831 1.349 . S
C1830 C1832 1.327 . S
C1830 H1855 0.950 . S
C1831 C1830 1.349 . S
C1831 C1847 1.349 . S
C1832 C1830 1.327 . S
C1832 C1851 1.429 . S
C1832 H1856 0.950 . S
C1833 C1850 1.574 1_455 S
C1833 C1852 1.368 . S
C1833 H1857 0.949 . S
H1834 C1838 0.949 . S
C1835 C1836 1.349 . S
C1835 C1837 1.327 . S
C1835 H1858 0.950 . S
C1836 C1835 1.349 . S
C1836 C1848 1.349 . S
C1837 C1835 1.327 . S
C1837 C1853 1.429 . S
C1837 H1859 0.950 . S
C1838 H1834 0.949 . S
C1838 C1846 1.574 1_655 S
C1838 C1854 1.368 . S
H1839 C1847 0.950 . S
H1840 C1845 0.950 . S
H1841 C1846 0.949 . S
H1842 C1848 0.950 . S
H1843 C1849 0.950 . S
H1844 C1850 0.949 . S
C1845 H1840 0.950 . S
C1845 C1847 1.327 . S
C1845 C1851 1.429 . S
C1846 C1838 1.574 1_455 S
C1846 H1841 0.949 . S
C1846 C1852 1.368 . S
C1847 C1831 1.349 . S
C1847 H1839 0.950 . S
C1847 C1845 1.327 . S
C1848 C1836 1.349 . S
C1848 H1842 0.950 . S
C1848 C1849 1.327 . S
C1849 H1843 0.950 . S
C1849 C1848 1.327 . S
C1849 C1853 1.429 . S
C1850 C1833 1.574 1_655 S
C1850 H1844 0.949 . S
C1850 C1854 1.368 . S
C1851 C1832 1.429 . S
C1851 C1845 1.429 . S
C1851 C1852 1.523 . S
C1852 C1833 1.368 . S
C1852 C1846 1.368 . S
C1852 C1851 1.523 . S
C1853 C1837 1.429 . S
C1853 C1849 1.429 . S
C1853 C1854 1.523 . S
C1854 C1838 1.368 . S
C1854 C1850 1.368 . S
C1854 C1853 1.523 . S
H1855 C1830 0.950 . S
H1856 C1832 0.950 . S
H1857 C1833 0.949 . S
H1858 C1835 0.950 . S
H1859 C1837 0.950 . S
C1860 C1861 1.349 . S
C1860 C1862 1.327 . S
C1860 H1885 0.950 . S
C1861 C1860 1.349 . S
C1861 C1877 1.349 . S
C1862 C1860 1.327 . S
C1862 C1881 1.429 . S
C1862 H1886 0.950 . S
C1863 C1880 1.574 . S
C1863 C1882 1.368 . S
C1863 H1887 0.949 . S
H1864 C1868 0.949 . S
C1865 C1866 1.349 . S
C1865 C1867 1.327 . S
C1865 H1888 0.950 . S
C1866 C1865 1.349 . S
C1866 C1878 1.349 . S
C1867 C1865 1.327 . S
C1867 C1883 1.429 . S
C1867 H1889 0.950 . S
C1868 H1864 0.949 . S
C1868 C1876 1.574 . S
C1868 C1884 1.368 . S
H1869 C1877 0.950 . S
H1870 C1875 0.950 . S
H1871 C1876 0.949 . S
H1872 C1878 0.950 . S
H1873 C1879 0.950 . S
H1874 C1880 0.949 . S
C1875 H1870 0.950 . S
C1875 C1877 1.327 . S
C1875 C1881 1.429 . S
C1876 C1868 1.574 . S
C1876 H1871 0.949 . S
C1876 C1882 1.368 . S
C1877 C1861 1.349 . S
C1877 H1869 0.950 . S
C1877 C1875 1.327 . S
C1878 C1866 1.349 . S
C1878 H1872 0.950 . S
C1878 C1879 1.327 . S
C1879 H1873 0.950 . S
C1879 C1878 1.327 . S
C1879 C1883 1.429 . S
C1880 C1863 1.574 . S
C1880 H1874 0.949 . S
C1880 C1884 1.368 . S
C1881 C1862 1.429 . S
C1881 C1875 1.429 . S
C1881 C1882 1.523 . S
C1882 C1863 1.368 . S
C1882 C1876 1.368 . S
C1882 C1881 1.523 . S
C1883 C1867 1.429 . S
C1883 C1879 1.429 . S
C1883 C1884 1.523 . S
C1884 C1868 1.368 . S
C1884 C1880 1.368 . S
C1884 C1883 1.523 . S
H1885 C1860 0.950 . S
H1886 C1862 0.950 . S
H1887 C1863 0.949 . S
H1888 C1865 0.950 . S
H1889 C1867 0.950 . S
C1890 C1891 1.349 . S
C1890 C1892 1.327 . S
C1890 H1915 0.950 . S
C1891 C1890 1.349 . S
C1891 C1907 1.349 . S
C1892 C1890 1.327 . S
C1892 C1911 1.429 1_455 S
C1892 H1916 0.950 . S
C1893 C1910 1.574 . S
C1893 C1912 1.368 . S
C1893 H1917 0.949 . S
H1894 C1898 0.949 . S
C1895 C1896 1.349 . S
C1895 C1897 1.327 . S
C1895 H1918 0.950 . S
C1896 C1895 1.349 . S
C1896 C1908 1.349 . S
C1897 C1895 1.327 . S
C1897 C1913 1.429 . S
C1897 H1919 0.950 . S
C1898 H1894 0.949 . S
C1898 C1906 1.574 . S
C1898 C1914 1.368 . S
H1899 C1907 0.950 . S
H1900 C1905 0.942 1_655 S
H1901 C1906 0.949 . S
H1902 C1908 0.950 . S
H1903 C1909 0.950 . S
H1904 C1910 0.949 . S
C1905 H1900 0.942 1_455 S
C1905 C1907 1.333 . S
C1905 C1911 1.430 1_455 S
C1906 C1898 1.574 . S
C1906 H1901 0.949 . S
C1906 C1912 1.368 . S
C1907 C1891 1.349 . S
C1907 H1899 0.950 . S
C1907 C1905 1.333 . S
C1908 C1896 1.349 . S
C1908 H1902 0.950 . S
C1908 C1909 1.327 . S
C1909 H1903 0.950 . S
C1909 C1908 1.327 . S
C1909 C1913 1.429 . S
C1910 C1893 1.574 . S
C1910 H1904 0.949 . S
C1910 C1914 1.368 . S
C1911 C1892 1.429 1_655 S
C1911 C1905 1.430 1_655 S
C1911 C1912 1.523 . S
C1912 C1893 1.368 . S
C1912 C1906 1.368 . S
C1912 C1911 1.523 . S
C1913 C1897 1.429 . S
C1913 C1909 1.429 . S
C1913 C1914 1.523 . S
C1914 C1898 1.368 . S
C1914 C1910 1.368 . S
C1914 C1913 1.523 . S
H1915 C1890 0.950 . S
H1916 C1892 0.950 . S
H1917 C1893 0.949 . S
H1918 C1895 0.950 . S
H1919 C1897 0.950 . S
C1920 C1921 1.349 . S
C1920 C1922 1.327 . S
C1920 H1945 0.950 . S
C1921 C1920 1.349 . S
C1921 C1937 1.349 . S
C1922 C1920 1.327 . S
C1922 C1941 1.429 . S
C1922 H1946 0.950 . S
C1923 C1940 1.574 . S
C1923 C1942 1.368 . S
C1923 H1947 0.949 . S
H1924 C1928 0.949 . S
C1925 C1926 1.349 . S
C1925 C1927 1.327 . S
C1925 H1948 0.950 . S
C1926 C1925 1.349 . S
C1926 C1938 1.349 . S
C1927 C1925 1.327 . S
C1927 C1943 1.429 . S
C1927 H1949 0.950 . S
C1928 H1924 0.949 . S
C1928 C1936 1.574 . S
C1928 C1944 1.368 . S
H1929 C1937 0.950 . S
H1930 C1935 0.950 . S
H1931 C1936 0.949 . S
H1932 C1938 0.950 . S
H1933 C1939 0.950 . S
H1934 C1940 0.949 . S
C1935 H1930 0.950 . S
C1935 C1937 1.327 . S
C1935 C1941 1.429 . S
C1936 C1928 1.574 . S
C1936 H1931 0.949 . S
C1936 C1942 1.368 . S
C1937 C1921 1.349 . S
C1937 H1929 0.950 . S
C1937 C1935 1.327 . S
C1938 C1926 1.349 . S
C1938 H1932 0.950 . S
C1938 C1939 1.327 . S
C1939 H1933 0.950 . S
C1939 C1938 1.327 . S
C1939 C1943 1.429 . S
C1940 C1923 1.574 . S
C1940 H1934 0.949 . S
C1940 C1944 1.368 . S
C1941 C1922 1.429 . S
C1941 C1935 1.429 . S
C1941 C1942 1.523 . S
C1942 C1923 1.368 . S
C1942 C1936 1.368 . S
C1942 C1941 1.523 . S
C1943 C1927 1.429 . S
C1943 C1939 1.429 . S
C1943 C1944 1.523 . S
C1944 C1928 1.368 . S
C1944 C1940 1.368 . S
C1944 C1943 1.523 . S
H1945 C1920 0.950 . S
H1946 C1922 0.950 . S
H1947 C1923 0.949 . S
H1948 C1925 0.950 . S
H1949 C1927 0.950 . S
C1950 C1951 1.349 . S
C1950 C1952 1.327 . S
C1950 H1975 0.950 . S
C1951 C1950 1.349 . S
C1951 C1967 1.349 . S
C1952 C1950 1.327 . S
C1952 C1971 1.429 1_565 S
C1952 H1976 0.950 1_565 S
C1953 C1970 1.574 . S
C1953 C1972 1.368 . S
C1953 H1977 0.949 . S
H1954 C1958 0.949 . S
C1955 C1956 1.349 . S
C1955 C1957 1.327 . S
C1955 H1978 0.950 . S
C1956 C1955 1.349 . S
C1956 C1968 1.349 . S
C1957 C1955 1.327 . S
C1957 C1973 1.429 . S
C1957 H1979 0.950 . S
C1958 H1954 0.949 . S
C1958 C1966 1.574 . S
C1958 C1974 1.368 . S
H1959 C1967 0.950 . S
H1960 C1965 0.964 . S
H1961 C1966 0.949 . S
H1962 C1968 0.950 . S
H1963 C1969 0.950 . S
H1964 C1970 0.949 . S
C1965 H1960 0.964 . S
C1965 C1967 1.308 1_545 S
C1965 C1971 1.433 . S
C1966 C1958 1.574 . S
C1966 H1961 0.949 . S
C1966 C1972 1.368 . S
C1967 C1951 1.349 . S
C1967 H1959 0.950 . S
C1967 C1965 1.308 1_565 S
C1968 C1956 1.349 . S
C1968 H1962 0.950 . S
C1968 C1969 1.327 . S
C1969 H1963 0.950 . S
C1969 C1968 1.327 . S
C1969 C1973 1.429 . S
C1970 C1953 1.574 . S
C1970 H1964 0.949 . S
C1970 C1974 1.368 . S
C1971 C1952 1.429 1_545 S
C1971 C1965 1.433 . S
C1971 C1972 1.523 . S
C1972 C1953 1.368 . S
C1972 C1966 1.368 . S
C1972 C1971 1.523 . S
C1973 C1957 1.429 . S
C1973 C1969 1.429 . S
C1973 C1974 1.523 . S
C1974 C1958 1.368 . S
C1974 C1970 1.368 . S
C1974 C1973 1.523 . S
H1975 C1950 0.950 . S
H1976 C1952 0.950 1_545 S
H1977 C1953 0.949 . S
H1978 C1955 0.950 . S
H1979 C1957 0.950 . S
C1980 C1981 1.349 . S
C1980 C1982 1.327 . S
C1980 H2005 0.950 . S
C1981 C1980 1.349 . S
C1981 C1997 1.349 . S
C1982 C1980 1.327 . S
C1982 C2001 1.429 . S
C1982 H2006 0.950 . S
C1983 C2000 1.574 . S
C1983 C2002 1.368 . S
C1983 H2007 0.949 . S
H1984 C1988 0.949 . S
C1985 C1986 1.349 . S
C1985 C1987 1.327 . S
C1985 H2008 0.950 . S
C1986 C1985 1.349 . S
C1986 C1998 1.349 . S
C1987 C1985 1.327 . S
C1987 C2003 1.429 . S
C1987 H2009 0.950 . S
C1988 H1984 0.949 . S
C1988 C1996 1.574 . S
C1988 C2004 1.368 . S
H1989 C1997 0.950 . S
H1990 C1995 0.950 . S
H1991 C1996 0.949 . S
H1992 C1998 0.950 . S
H1993 C1999 0.950 . S
H1994 C2000 0.949 . S
C1995 H1990 0.950 . S
C1995 C1997 1.327 . S
C1995 C2001 1.429 . S
C1996 C1988 1.574 . S
C1996 H1991 0.949 . S
C1996 C2002 1.368 . S
C1997 C1981 1.349 . S
C1997 H1989 0.950 . S
C1997 C1995 1.327 . S
C1998 C1986 1.349 . S
C1998 H1992 0.950 . S
C1998 C1999 1.327 . S
C1999 H1993 0.950 . S
C1999 C1998 1.327 . S
C1999 C2003 1.429 . S
C2000 C1983 1.574 . S
C2000 H1994 0.949 . S
C2000 C2004 1.368 . S
C2001 C1982 1.429 . S
C2001 C1995 1.429 . S
C2001 C2002 1.523 . S
C2002 C1983 1.368 . S
C2002 C1996 1.368 . S
C2002 C2001 1.523 . S
C2003 C1987 1.429 . S
C2003 C1999 1.429 . S
C2003 C2004 1.523 . S
C2004 C1988 1.368 . S
C2004 C2000 1.368 . S
C2004 C2003 1.523 . S
H2005 C1980 0.950 . S
H2006 C1982 0.950 . S
H2007 C1983 0.949 . S
H2008 C1985 0.950 . S
H2009 C1987 0.950 . S
C2010 C2011 1.349 . S
C2010 C2012 1.327 . S
C2010 H2035 0.950 . S
C2011 C2010 1.349 . S
C2011 C2027 1.349 . S
C2012 C2010 1.327 . S
C2012 C2031 1.429 . S
C2012 H2036 0.950 . S
C2013 C2030 1.574 . S
C2013 C2032 1.368 . S
C2013 H2037 0.949 . S
H2014 C2018 0.949 . S
C2015 C2016 1.349 . S
C2015 C2017 1.327 . S
C2015 H2038 0.950 . S
C2016 C2015 1.349 . S
C2016 C2028 1.349 . S
C2017 C2015 1.327 . S
C2017 C2033 1.429 . S
C2017 H2039 0.950 . S
C2018 H2014 0.949 . S
C2018 C2026 1.574 . S
C2018 C2034 1.368 . S
H2019 C2027 0.950 . S
H2020 C2025 0.950 . S
H2021 C2026 0.949 . S
H2022 C2028 0.950 . S
H2023 C2029 0.950 . S
H2024 C2030 0.949 . S
C2025 H2020 0.950 . S
C2025 C2027 1.327 . S
C2025 C2031 1.429 . S
C2026 C2018 1.574 . S
C2026 H2021 0.949 . S
C2026 C2032 1.368 . S
C2027 C2011 1.349 . S
C2027 H2019 0.950 . S
C2027 C2025 1.327 . S
C2028 C2016 1.349 . S
C2028 H2022 0.950 . S
C2028 C2029 1.327 . S
C2029 H2023 0.950 . S
C2029 C2028 1.327 . S
C2029 C2033 1.429 . S
C2030 C2013 1.574 . S
C2030 H2024 0.949 . S
C2030 C2034 1.368 . S
C2031 C2012 1.429 . S
C2031 C2025 1.429 . S
C2031 C2032 1.523 . S
C2032 C2013 1.368 . S
C2032 C2026 1.368 . S
C2032 C2031 1.523 . S
C2033 C2017 1.429 . S
C2033 C2029 1.429 . S
C2033 C2034 1.523 . S
C2034 C2018 1.368 . S
C2034 C2030 1.368 . S
C2034 C2033 1.523 . S
H2035 C2010 0.950 . S
H2036 C2012 0.950 . S
H2037 C2013 0.949 . S
H2038 C2015 0.950 . S
H2039 C2017 0.950 . S
C2040 C2041 1.349 . S
C2040 C2042 1.327 . S
C2040 H2065 0.950 . S
C2041 C2040 1.349 . S
C2041 C2057 1.349 . S
C2042 C2040 1.327 . S
C2042 C2061 1.429 . S
C2042 H2066 0.950 . S
C2043 C2060 1.574 . S
C2043 C2062 1.368 . S
C2043 H2067 0.949 . S
H2044 C2048 0.949 . S
C2045 C2046 1.349 . S
C2045 C2047 1.327 . S
C2045 H2068 0.950 . S
C2046 C2045 1.349 . S
C2046 C2058 1.349 . S
C2047 C2045 1.327 . S
C2047 C2063 1.429 . S
C2047 H2069 0.950 . S
C2048 H2044 0.949 . S
C2048 C2056 1.574 . S
C2048 C2064 1.368 . S
H2049 C2057 0.950 . S
H2050 C2055 0.950 . S
H2051 C2056 0.949 . S
H2052 C2058 0.950 . S
H2053 C2059 0.950 . S
H2054 C2060 0.949 . S
C2055 H2050 0.950 . S
C2055 C2057 1.327 . S
C2055 C2061 1.429 . S
C2056 C2048 1.574 . S
C2056 H2051 0.949 . S
C2056 C2062 1.368 . S
C2057 C2041 1.349 . S
C2057 H2049 0.950 . S
C2057 C2055 1.327 . S
C2058 C2046 1.349 . S
C2058 H2052 0.950 . S
C2058 C2059 1.327 . S
C2059 H2053 0.950 . S
C2059 C2058 1.327 . S
C2059 C2063 1.429 . S
C2060 C2043 1.574 . S
C2060 H2054 0.949 . S
C2060 C2064 1.368 . S
C2061 C2042 1.429 . S
C2061 C2055 1.429 . S
C2061 C2062 1.523 . S
C2062 C2043 1.368 . S
C2062 C2056 1.368 . S
C2062 C2061 1.523 . S
C2063 C2047 1.429 . S
C2063 C2059 1.429 . S
C2063 C2064 1.523 . S
C2064 C2048 1.368 . S
C2064 C2060 1.368 . S
C2064 C2063 1.523 . S
H2065 C2040 0.950 . S
H2066 C2042 0.950 . S
H2067 C2043 0.949 . S
H2068 C2045 0.950 . S
H2069 C2047 0.950 . S
C2070 C2071 1.349 . S
C2070 C2072 1.327 . S
C2070 H2095 0.950 . S
C2071 C2070 1.349 . S
C2071 C2087 1.349 . S
C2072 C2070 1.327 . S
C2072 C2091 1.429 . S
C2072 H2096 0.950 . S
C2073 C2090 1.574 . S
C2073 C2092 1.368 . S
C2073 H2097 0.949 . S
H2074 C2078 0.949 . S
C2075 C2076 1.349 . S
C2075 C2077 1.327 . S
C2075 H2098 0.950 . S
C2076 C2075 1.349 . S
C2076 C2088 1.349 . S
C2077 C2075 1.327 . S
C2077 C2093 1.429 . S
C2077 H2099 0.950 . S
C2078 H2074 0.949 . S
C2078 C2086 1.574 . S
C2078 C2094 1.368 . S
H2079 C2087 0.950 . S
H2080 C2085 0.950 . S
H2081 C2086 0.949 . S
H2082 C2088 0.950 . S
H2083 C2089 0.950 . S
H2084 C2090 0.949 . S
C2085 H2080 0.950 . S
C2085 C2087 1.327 . S
C2085 C2091 1.429 . S
C2086 C2078 1.574 . S
C2086 H2081 0.949 . S
C2086 C2092 1.368 . S
C2087 C2071 1.349 . S
C2087 H2079 0.950 . S
C2087 C2085 1.327 . S
C2088 C2076 1.349 . S
C2088 H2082 0.950 . S
C2088 C2089 1.327 . S
C2089 H2083 0.950 . S
C2089 C2088 1.327 . S
C2089 C2093 1.429 . S
C2090 C2073 1.574 . S
C2090 H2084 0.949 . S
C2090 C2094 1.368 . S
C2091 C2072 1.429 . S
C2091 C2085 1.429 . S
C2091 C2092 1.523 . S
C2092 C2073 1.368 . S
C2092 C2086 1.368 . S
C2092 C2091 1.523 . S
C2093 C2077 1.429 . S
C2093 C2089 1.429 . S
C2093 C2094 1.523 . S
C2094 C2078 1.368 . S
C2094 C2090 1.368 . S
C2094 C2093 1.523 . S
H2095 C2070 0.950 . S
H2096 C2072 0.950 . S
H2097 C2073 0.949 . S
H2098 C2075 0.950 . S
H2099 C2077 0.950 . S
C2100 C2101 1.349 . S
C2100 C2102 1.327 . S
C2100 H2125 0.950 . S
C2101 C2100 1.349 . S
C2101 C2117 1.349 . S
C2102 C2100 1.327 . S
C2102 C2121 1.429 . S
C2102 H2126 0.950 . S
C2103 C2120 1.574 . S
C2103 C2122 1.368 . S
C2103 H2127 0.949 . S
H2104 C2108 0.949 . S
C2105 C2106 1.349 . S
C2105 C2107 1.327 . S
C2105 H2128 0.950 . S
C2106 C2105 1.349 . S
C2106 C2118 1.349 . S
C2107 C2105 1.327 . S
C2107 C2123 1.429 . S
C2107 H2129 0.950 . S
C2108 H2104 0.949 . S
C2108 C2116 1.574 . S
C2108 C2124 1.368 . S
H2109 C2117 0.950 . S
H2110 C2115 0.950 . S
H2111 C2116 0.949 . S
H2112 C2118 0.950 . S
H2113 C2119 0.950 . S
H2114 C2120 0.949 . S
C2115 H2110 0.950 . S
C2115 C2117 1.327 . S
C2115 C2121 1.429 . S
C2116 C2108 1.574 . S
C2116 H2111 0.949 . S
C2116 C2122 1.368 . S
C2117 C2101 1.349 . S
C2117 H2109 0.950 . S
C2117 C2115 1.327 . S
C2118 C2106 1.349 . S
C2118 H2112 0.950 . S
C2118 C2119 1.327 . S
C2119 H2113 0.950 . S
C2119 C2118 1.327 . S
C2119 C2123 1.429 . S
C2120 C2103 1.574 . S
C2120 H2114 0.949 . S
C2120 C2124 1.368 . S
C2121 C2102 1.429 . S
C2121 C2115 1.429 . S
C2121 C2122 1.523 . S
C2122 C2103 1.368 . S
C2122 C2116 1.368 . S
C2122 C2121 1.523 . S
C2123 C2107 1.429 . S
C2123 C2119 1.429 . S
C2123 C2124 1.523 . S
C2124 C2108 1.368 . S
C2124 C2120 1.368 . S
C2124 C2123 1.523 . S
H2125 C2100 0.950 . S
H2126 C2102 0.950 . S
H2127 C2103 0.949 . S
H2128 C2105 0.950 . S
H2129 C2107 0.950 . S
C2130 C2131 1.349 . S
C2130 C2132 1.327 . S
C2130 H2155 0.950 . S
C2131 C2130 1.349 . S
C2131 C2147 1.349 . S
C2132 C2130 1.327 . S
C2132 C2151 1.429 . S
C2132 H2156 0.950 . S
C2133 C2150 1.574 . S
C2133 C2152 1.368 . S
C2133 H2157 0.949 . S
H2134 C2138 0.949 . S
C2135 C2136 1.349 . S
C2135 C2137 1.327 . S
C2135 H2158 0.950 . S
C2136 C2135 1.349 . S
C2136 C2148 1.349 . S
C2137 C2135 1.327 . S
C2137 C2153 1.429 . S
C2137 H2159 0.950 . S
C2138 H2134 0.949 . S
C2138 C2146 1.574 . S
C2138 C2154 1.368 . S
H2139 C2147 0.950 . S
H2140 C2145 0.950 . S
H2141 C2146 0.949 . S
H2142 C2148 0.950 . S
H2143 C2149 0.950 . S
H2144 C2150 0.949 . S
C2145 H2140 0.950 . S
C2145 C2147 1.327 . S
C2145 C2151 1.429 . S
C2146 C2138 1.574 . S
C2146 H2141 0.949 . S
C2146 C2152 1.368 . S
C2147 C2131 1.349 . S
C2147 H2139 0.950 . S
C2147 C2145 1.327 . S
C2148 C2136 1.349 . S
C2148 H2142 0.950 . S
C2148 C2149 1.327 . S
C2149 H2143 0.950 . S
C2149 C2148 1.327 . S
C2149 C2153 1.429 . S
C2150 C2133 1.574 . S
C2150 H2144 0.949 . S
C2150 C2154 1.368 . S
C2151 C2132 1.429 . S
C2151 C2145 1.429 . S
C2151 C2152 1.523 . S
C2152 C2133 1.368 . S
C2152 C2146 1.368 . S
C2152 C2151 1.523 . S
C2153 C2137 1.429 . S
C2153 C2149 1.429 . S
C2153 C2154 1.523 . S
C2154 C2138 1.368 . S
C2154 C2150 1.368 . S
C2154 C2153 1.523 . S
H2155 C2130 0.950 . S
H2156 C2132 0.950 . S
H2157 C2133 0.949 . S
H2158 C2135 0.950 . S
H2159 C2137 0.950 . S
C2160 C2161 1.349 . S
C2160 C2162 1.327 . S
C2160 H2185 0.950 . S
C2161 C2160 1.349 . S
C2161 C2177 1.349 . S
C2162 C2160 1.327 . S
C2162 C2181 1.429 . S
C2162 H2186 0.950 . S
C2163 C2180 1.574 . S
C2163 C2182 1.368 . S
C2163 H2187 0.949 . S
H2164 C2168 0.949 . S
C2165 C2166 1.349 . S
C2165 C2167 1.327 . S
C2165 H2188 0.950 . S
C2166 C2165 1.349 . S
C2166 C2178 1.349 . S
C2167 C2165 1.327 . S
C2167 C2183 1.429 . S
C2167 H2189 0.950 . S
C2168 H2164 0.949 . S
C2168 C2176 1.574 . S
C2168 C2184 1.368 . S
H2169 C2177 0.950 . S
H2170 C2175 0.950 . S
H2171 C2176 0.949 . S
H2172 C2178 0.950 . S
H2173 C2179 0.950 . S
H2174 C2180 0.949 . S
C2175 H2170 0.950 . S
C2175 C2177 1.327 . S
C2175 C2181 1.429 . S
C2176 C2168 1.574 . S
C2176 H2171 0.949 . S
C2176 C2182 1.368 . S
C2177 C2161 1.349 . S
C2177 H2169 0.950 . S
C2177 C2175 1.327 . S
C2178 C2166 1.349 . S
C2178 H2172 0.950 . S
C2178 C2179 1.327 . S
C2179 H2173 0.950 . S
C2179 C2178 1.327 . S
C2179 C2183 1.429 . S
C2180 C2163 1.574 . S
C2180 H2174 0.949 . S
C2180 C2184 1.368 . S
C2181 C2162 1.429 . S
C2181 C2175 1.429 . S
C2181 C2182 1.523 . S
C2182 C2163 1.368 . S
C2182 C2176 1.368 . S
C2182 C2181 1.523 . S
C2183 C2167 1.429 . S
C2183 C2179 1.429 . S
C2183 C2184 1.523 . S
C2184 C2168 1.368 . S
C2184 C2180 1.368 . S
C2184 C2183 1.523 . S
H2185 C2160 0.950 . S
H2186 C2162 0.950 . S
H2187 C2163 0.949 . S
H2188 C2165 0.950 . S
H2189 C2167 0.950 . S
C2190 C2191 1.349 . S
C2190 C2192 1.327 . S
C2190 H2215 0.950 . S
C2191 C2190 1.349 . S
C2191 C2207 1.349 . S
C2192 C2190 1.327 . S
C2192 C2211 1.429 . S
C2192 H2216 0.950 . S
C2193 C2210 1.574 . S
C2193 C2212 1.368 . S
C2193 H2217 0.949 . S
H2194 C2198 0.949 . S
C2195 C2196 1.349 . S
C2195 C2197 1.327 . S
C2195 H2218 0.950 . S
C2196 C2195 1.349 . S
C2196 C2208 1.349 . S
C2197 C2195 1.327 . S
C2197 C2213 1.429 . S
C2197 H2219 0.950 . S
C2198 H2194 0.949 . S
C2198 C2206 1.574 . S
C2198 C2214 1.368 . S
H2199 C2207 0.950 . S
H2200 C2205 0.950 . S
H2201 C2206 0.949 . S
H2202 C2208 0.950 . S
H2203 C2209 0.950 . S
H2204 C2210 0.949 . S
C2205 H2200 0.950 . S
C2205 C2207 1.327 . S
C2205 C2211 1.429 . S
C2206 C2198 1.574 . S
C2206 H2201 0.949 . S
C2206 C2212 1.368 . S
C2207 C2191 1.349 . S
C2207 H2199 0.950 . S
C2207 C2205 1.327 . S
C2208 C2196 1.349 . S
C2208 H2202 0.950 . S
C2208 C2209 1.327 . S
C2209 H2203 0.950 . S
C2209 C2208 1.327 . S
C2209 C2213 1.429 . S
C2210 C2193 1.574 . S
C2210 H2204 0.949 . S
C2210 C2214 1.368 . S
C2211 C2192 1.429 . S
C2211 C2205 1.429 . S
C2211 C2212 1.523 . S
C2212 C2193 1.368 . S
C2212 C2206 1.368 . S
C2212 C2211 1.523 . S
C2213 C2197 1.429 . S
C2213 C2209 1.429 . S
C2213 C2214 1.523 . S
C2214 C2198 1.368 . S
C2214 C2210 1.368 . S
C2214 C2213 1.523 . S
H2215 C2190 0.950 . S
H2216 C2192 0.950 . S
H2217 C2193 0.949 . S
H2218 C2195 0.950 . S
H2219 C2197 0.950 . S
C2220 C2221 1.349 . S
C2220 C2222 1.327 . S
C2220 H2245 0.950 . S
C2221 C2220 1.349 . S
C2221 C2237 1.349 . S
C2222 C2220 1.327 . S
C2222 C2241 1.429 . S
C2222 H2246 0.950 . S
C2223 C2240 1.574 . S
C2223 C2242 1.368 . S
C2223 H2247 0.949 . S
H2224 C2228 0.949 . S
C2225 C2226 1.349 . S
C2225 C2227 1.327 . S
C2225 H2248 0.950 . S
C2226 C2225 1.349 . S
C2226 C2238 1.349 . S
C2227 C2225 1.327 . S
C2227 C2243 1.429 . S
C2227 H2249 0.950 . S
C2228 H2224 0.949 . S
C2228 C2236 1.574 . S
C2228 C2244 1.368 . S
H2229 C2237 0.950 . S
H2230 C2235 0.950 . S
H2231 C2236 0.949 . S
H2232 C2238 0.950 . S
H2233 C2239 0.950 . S
H2234 C2240 0.949 . S
C2235 H2230 0.950 . S
C2235 C2237 1.327 . S
C2235 C2241 1.429 . S
C2236 C2228 1.574 . S
C2236 H2231 0.949 . S
C2236 C2242 1.368 . S
C2237 C2221 1.349 . S
C2237 H2229 0.950 . S
C2237 C2235 1.327 . S
C2238 C2226 1.349 . S
C2238 H2232 0.950 . S
C2238 C2239 1.327 . S
C2239 H2233 0.950 . S
C2239 C2238 1.327 . S
C2239 C2243 1.429 . S
C2240 C2223 1.574 . S
C2240 H2234 0.949 . S
C2240 C2244 1.368 . S
C2241 C2222 1.429 . S
C2241 C2235 1.429 . S
C2241 C2242 1.523 . S
C2242 C2223 1.368 . S
C2242 C2236 1.368 . S
C2242 C2241 1.523 . S
C2243 C2227 1.429 . S
C2243 C2239 1.429 . S
C2243 C2244 1.523 . S
C2244 C2228 1.368 . S
C2244 C2240 1.368 . S
C2244 C2243 1.523 . S
H2245 C2220 0.950 . S
H2246 C2222 0.950 . S
H2247 C2223 0.949 . S
H2248 C2225 0.950 . S
H2249 C2227 0.950 . S
C2250 C2251 1.349 . S
C2250 C2252 1.327 . S
C2250 H2275 0.950 . S
C2251 C2250 1.349 . S
C2251 C2267 1.349 . S
C2252 C2250 1.327 . S
C2252 C2271 1.429 . S
C2252 H2276 0.950 . S
C2253 C2270 1.574 . S
C2253 C2272 1.368 . S
C2253 H2277 0.949 . S
H2254 C2258 0.949 . S
C2255 C2256 1.349 . S
C2255 C2257 1.327 . S
C2255 H2278 0.950 . S
C2256 C2255 1.349 . S
C2256 C2268 1.349 . S
C2257 C2255 1.327 . S
C2257 C2273 1.429 . S
C2257 H2279 0.950 . S
C2258 H2254 0.949 . S
C2258 C2266 1.574 . S
C2258 C2274 1.368 . S
H2259 C2267 0.950 . S
H2260 C2265 0.950 . S
H2261 C2266 0.949 . S
H2262 C2268 0.950 . S
H2263 C2269 0.950 . S
H2264 C2270 0.949 . S
C2265 H2260 0.950 . S
C2265 C2267 1.327 . S
C2265 C2271 1.429 . S
C2266 C2258 1.574 . S
C2266 H2261 0.949 . S
C2266 C2272 1.368 . S
C2267 C2251 1.349 . S
C2267 H2259 0.950 . S
C2267 C2265 1.327 . S
C2268 C2256 1.349 . S
C2268 H2262 0.950 . S
C2268 C2269 1.327 . S
C2269 H2263 0.950 . S
C2269 C2268 1.327 . S
C2269 C2273 1.429 . S
C2270 C2253 1.574 . S
C2270 H2264 0.949 . S
C2270 C2274 1.368 . S
C2271 C2252 1.429 . S
C2271 C2265 1.429 . S
C2271 C2272 1.523 . S
C2272 C2253 1.368 . S
C2272 C2266 1.368 . S
C2272 C2271 1.523 . S
C2273 C2257 1.429 . S
C2273 C2269 1.429 . S
C2273 C2274 1.523 . S
C2274 C2258 1.368 . S
C2274 C2270 1.368 . S
C2274 C2273 1.523 . S
H2275 C2250 0.950 . S
H2276 C2252 0.950 . S
H2277 C2253 0.949 . S
H2278 C2255 0.950 . S
H2279 C2257 0.950 . S
C2280 C2281 1.349 . S
C2280 C2282 1.327 . S
C2280 H2305 0.950 . S
C2281 C2280 1.349 . S
C2281 C2297 1.349 . S
C2282 C2280 1.327 . S
C2282 C2301 1.429 . S
C2282 H2306 0.950 . S
C2283 C2300 1.574 . S
C2283 C2302 1.368 . S
C2283 H2307 0.949 . S
H2284 C2288 0.949 . S
C2285 C2286 1.349 . S
C2285 C2287 1.327 . S
C2285 H2308 0.950 . S
C2286 C2285 1.349 . S
C2286 C2298 1.349 . S
C2287 C2285 1.327 . S
C2287 C2303 1.429 . S
C2287 H2309 0.950 . S
C2288 H2284 0.949 . S
C2288 C2296 1.574 . S
C2288 C2304 1.368 . S
H2289 C2297 0.950 . S
H2290 C2295 0.950 . S
H2291 C2296 0.949 . S
H2292 C2298 0.950 . S
H2293 C2299 0.950 . S
H2294 C2300 0.949 . S
C2295 H2290 0.950 . S
C2295 C2297 1.327 . S
C2295 C2301 1.429 . S
C2296 C2288 1.574 . S
C2296 H2291 0.949 . S
C2296 C2302 1.368 . S
C2297 C2281 1.349 . S
C2297 H2289 0.950 . S
C2297 C2295 1.327 . S
C2298 C2286 1.349 . S
C2298 H2292 0.950 . S
C2298 C2299 1.327 . S
C2299 H2293 0.950 . S
C2299 C2298 1.327 . S
C2299 C2303 1.429 . S
C2300 C2283 1.574 . S
C2300 H2294 0.949 . S
C2300 C2304 1.368 . S
C2301 C2282 1.429 . S
C2301 C2295 1.429 . S
C2301 C2302 1.523 . S
C2302 C2283 1.368 . S
C2302 C2296 1.368 . S
C2302 C2301 1.523 . S
C2303 C2287 1.429 . S
C2303 C2299 1.429 . S
C2303 C2304 1.523 . S
C2304 C2288 1.368 . S
C2304 C2300 1.368 . S
C2304 C2303 1.523 . S
H2305 C2280 0.950 . S
H2306 C2282 0.950 . S
H2307 C2283 0.949 . S
H2308 C2285 0.950 . S
H2309 C2287 0.950 . S
C2310 C2311 1.349 . S
C2310 C2312 1.327 . S
C2310 H2335 0.950 . S
C2311 C2310 1.349 . S
C2311 C2327 1.349 . S
C2312 C2310 1.327 . S
C2312 C2331 1.429 . S
C2312 H2336 0.950 . S
C2313 C2330 1.574 . S
C2313 C2332 1.368 . S
C2313 H2337 0.949 . S
H2314 C2318 0.949 . S
C2315 C2316 1.349 . S
C2315 C2317 1.327 . S
C2315 H2338 0.950 . S
C2316 C2315 1.349 . S
C2316 C2328 1.349 . S
C2317 C2315 1.327 . S
C2317 C2333 1.429 . S
C2317 H2339 0.950 . S
C2318 H2314 0.949 . S
C2318 C2326 1.574 . S
C2318 C2334 1.368 . S
H2319 C2327 0.950 . S
H2320 C2325 0.950 . S
H2321 C2326 0.949 . S
H2322 C2328 0.950 . S
H2323 C2329 0.950 . S
H2324 C2330 0.949 . S
C2325 H2320 0.950 . S
C2325 C2327 1.327 . S
C2325 C2331 1.429 . S
C2326 C2318 1.574 . S
C2326 H2321 0.949 . S
C2326 C2332 1.368 . S
C2327 C2311 1.349 . S
C2327 H2319 0.950 . S
C2327 C2325 1.327 . S
C2328 C2316 1.349 . S
C2328 H2322 0.950 . S
C2328 C2329 1.327 . S
C2329 H2323 0.950 . S
C2329 C2328 1.327 . S
C2329 C2333 1.429 . S
C2330 C2313 1.574 . S
C2330 H2324 0.949 . S
C2330 C2334 1.368 . S
C2331 C2312 1.429 . S
C2331 C2325 1.429 . S
C2331 C2332 1.523 . S
C2332 C2313 1.368 . S
C2332 C2326 1.368 . S
C2332 C2331 1.523 . S
C2333 C2317 1.429 . S
C2333 C2329 1.429 . S
C2333 C2334 1.523 . S
C2334 C2318 1.368 . S
C2334 C2330 1.368 . S
C2334 C2333 1.523 . S
H2335 C2310 0.950 . S
H2336 C2312 0.950 . S
H2337 C2313 0.949 . S
H2338 C2315 0.950 . S
H2339 C2317 0.950 . S
C2340 C2341 1.349 . S
C2340 C2342 1.327 . S
C2340 H2365 0.950 . S
C2341 C2340 1.349 . S
C2341 C2357 1.349 . S
C2342 C2340 1.327 . S
C2342 C2361 1.429 . S
C2342 H2366 0.950 . S
C2343 C2360 1.574 . S
C2343 C2362 1.368 . S
C2343 H2367 0.949 . S
H2344 C2348 0.949 . S
C2345 C2346 1.349 . S
C2345 C2347 1.327 . S
C2345 H2368 0.950 . S
C2346 C2345 1.349 . S
C2346 C2358 1.349 . S
C2347 C2345 1.327 . S
C2347 C2363 1.429 . S
C2347 H2369 0.950 . S
C2348 H2344 0.949 . S
C2348 C2356 1.574 . S
C2348 C2364 1.368 . S
H2349 C2357 0.950 . S
H2350 C2355 0.950 . S
H2351 C2356 0.949 . S
H2352 C2358 0.950 . S
H2353 C2359 0.950 . S
H2354 C2360 0.949 . S
C2355 H2350 0.950 . S
C2355 C2357 1.327 . S
C2355 C2361 1.429 . S
C2356 C2348 1.574 . S
C2356 H2351 0.949 . S
C2356 C2362 1.368 . S
C2357 C2341 1.349 . S
C2357 H2349 0.950 . S
C2357 C2355 1.327 . S
C2358 C2346 1.349 . S
C2358 H2352 0.950 . S
C2358 C2359 1.327 . S
C2359 H2353 0.950 . S
C2359 C2358 1.327 . S
C2359 C2363 1.429 . S
C2360 C2343 1.574 . S
C2360 H2354 0.949 . S
C2360 C2364 1.368 . S
C2361 C2342 1.429 . S
C2361 C2355 1.429 . S
C2361 C2362 1.523 . S
C2362 C2343 1.368 . S
C2362 C2356 1.368 . S
C2362 C2361 1.523 . S
C2363 C2347 1.429 . S
C2363 C2359 1.429 . S
C2363 C2364 1.523 . S
C2364 C2348 1.368 . S
C2364 C2360 1.368 . S
C2364 C2363 1.523 . S
H2365 C2340 0.950 . S
H2366 C2342 0.950 . S
H2367 C2343 0.949 . S
H2368 C2345 0.950 . S
H2369 C2347 0.950 . S
C2370 C2371 1.349 . S
C2370 C2372 1.327 . S
C2370 H2395 0.950 . S
C2371 C2370 1.349 . S
C2371 C2387 1.349 . S
C2372 C2370 1.327 . S
C2372 C2391 1.429 . S
C2372 H2396 0.950 . S
C2373 C2390 1.574 . S
C2373 C2392 1.368 . S
C2373 H2397 0.949 . S
H2374 C2378 0.949 . S
C2375 C2376 1.349 . S
C2375 C2377 1.327 . S
C2375 H2398 0.950 . S
C2376 C2375 1.349 . S
C2376 C2388 1.349 . S
C2377 C2375 1.327 . S
C2377 C2393 1.429 . S
C2377 H2399 0.950 . S
C2378 H2374 0.949 . S
C2378 C2386 1.574 . S
C2378 C2394 1.368 . S
H2379 C2387 0.950 . S
H2380 C2385 0.950 . S
H2381 C2386 0.949 . S
H2382 C2388 0.950 . S
H2383 C2389 0.950 . S
H2384 C2390 0.949 . S
C2385 H2380 0.950 . S
C2385 C2387 1.327 . S
C2385 C2391 1.429 . S
C2386 C2378 1.574 . S
C2386 H2381 0.949 . S
C2386 C2392 1.368 . S
C2387 C2371 1.349 . S
C2387 H2379 0.950 . S
C2387 C2385 1.327 . S
C2388 C2376 1.349 . S
C2388 H2382 0.950 . S
C2388 C2389 1.327 . S
C2389 H2383 0.950 . S
C2389 C2388 1.327 . S
C2389 C2393 1.429 . S
C2390 C2373 1.574 . S
C2390 H2384 0.949 . S
C2390 C2394 1.368 . S
C2391 C2372 1.429 . S
C2391 C2385 1.429 . S
C2391 C2392 1.523 . S
C2392 C2373 1.368 . S
C2392 C2386 1.368 . S
C2392 C2391 1.523 . S
C2393 C2377 1.429 . S
C2393 C2389 1.429 . S
C2393 C2394 1.523 . S
C2394 C2378 1.368 . S
C2394 C2390 1.368 . S
C2394 C2393 1.523 . S
H2395 C2370 0.950 . S
H2396 C2372 0.950 . S
H2397 C2373 0.949 . S
H2398 C2375 0.950 . S
H2399 C2377 0.950 . S
C2400 C2401 1.349 . S
C2400 C2402 1.327 . S
C2400 H2425 0.950 . S
C2401 C2400 1.349 . S
C2401 C2417 1.349 . S
C2402 C2400 1.327 . S
C2402 C2421 1.429 . S
C2402 H2426 0.950 . S
C2403 C2420 1.574 . S
C2403 C2422 1.368 . S
C2403 H2427 0.949 . S
H2404 C2408 0.949 . S
C2405 C2406 1.349 . S
C2405 C2407 1.327 . S
C2405 H2428 0.950 . S
C2406 C2405 1.349 . S
C2406 C2418 1.349 . S
C2407 C2405 1.327 . S
C2407 C2423 1.429 . S
C2407 H2429 0.950 . S
C2408 H2404 0.949 . S
C2408 C2416 1.574 . S
C2408 C2424 1.368 . S
H2409 C2417 0.950 . S
H2410 C2415 0.950 . S
H2411 C2416 0.949 . S
H2412 C2418 0.950 . S
H2413 C2419 0.950 . S
H2414 C2420 0.949 . S
C2415 H2410 0.950 . S
C2415 C2417 1.327 . S
C2415 C2421 1.429 . S
C2416 C2408 1.574 . S
C2416 H2411 0.949 . S
C2416 C2422 1.368 . S
C2417 C2401 1.349 . S
C2417 H2409 0.950 . S
C2417 C2415 1.327 . S
C2418 C2406 1.349 . S
C2418 H2412 0.950 . S
C2418 C2419 1.327 . S
C2419 H2413 0.950 . S
C2419 C2418 1.327 . S
C2419 C2423 1.429 . S
C2420 C2403 1.574 . S
C2420 H2414 0.949 . S
C2420 C2424 1.368 . S
C2421 C2402 1.429 . S
C2421 C2415 1.429 . S
C2421 C2422 1.523 . S
C2422 C2403 1.368 . S
C2422 C2416 1.368 . S
C2422 C2421 1.523 . S
C2423 C2407 1.429 . S
C2423 C2419 1.429 . S
C2423 C2424 1.523 . S
C2424 C2408 1.368 . S
C2424 C2420 1.368 . S
C2424 C2423 1.523 . S
H2425 C2400 0.950 . S
H2426 C2402 0.950 . S
H2427 C2403 0.949 . S
H2428 C2405 0.950 . S
H2429 C2407 0.950 . S
C2430 C2431 1.349 . S
C2430 C2432 1.327 . S
C2430 H2455 0.950 . S
C2431 C2430 1.349 . S
C2431 C2447 1.349 . S
C2432 C2430 1.327 . S
C2432 C2451 1.429 . S
C2432 H2456 0.950 . S
C2433 C2450 1.574 . S
C2433 C2452 1.368 . S
C2433 H2457 0.949 . S
H2434 C2438 0.949 . S
C2435 C2436 1.349 . S
C2435 C2437 1.327 . S
C2435 H2458 0.950 . S
C2436 C2435 1.349 . S
C2436 C2448 1.349 . S
C2437 C2435 1.327 . S
C2437 C2453 1.429 . S
C2437 H2459 0.950 . S
C2438 H2434 0.949 . S
C2438 C2446 1.574 . S
C2438 C2454 1.368 . S
H2439 C2447 0.950 . S
H2440 C2445 0.950 . S
H2441 C2446 0.949 . S
H2442 C2448 0.950 . S
H2443 C2449 0.950 . S
H2444 C2450 0.949 . S
C2445 H2440 0.950 . S
C2445 C2447 1.327 . S
C2445 C2451 1.429 . S
C2446 C2438 1.574 . S
C2446 H2441 0.949 . S
C2446 C2452 1.368 . S
C2447 C2431 1.349 . S
C2447 H2439 0.950 . S
C2447 C2445 1.327 . S
C2448 C2436 1.349 . S
C2448 H2442 0.950 . S
C2448 C2449 1.327 . S
C2449 H2443 0.950 . S
C2449 C2448 1.327 . S
C2449 C2453 1.429 . S
C2450 C2433 1.574 . S
C2450 H2444 0.949 . S
C2450 C2454 1.368 . S
C2451 C2432 1.429 . S
C2451 C2445 1.429 . S
C2451 C2452 1.523 . S
C2452 C2433 1.368 . S
C2452 C2446 1.368 . S
C2452 C2451 1.523 . S
C2453 C2437 1.429 . S
C2453 C2449 1.429 . S
C2453 C2454 1.523 . S
C2454 C2438 1.368 . S
C2454 C2450 1.368 . S
C2454 C2453 1.523 . S
H2455 C2430 0.950 . S
H2456 C2432 0.950 . S
H2457 C2433 0.949 . S
H2458 C2435 0.950 . S
H2459 C2437 0.950 . S
C2460 C2461 1.349 . S
C2460 C2462 1.327 . S
C2460 H2485 0.950 . S
C2461 C2460 1.349 . S
C2461 C2477 1.349 . S
C2462 C2460 1.327 . S
C2462 C2481 1.429 . S
C2462 H2486 0.950 . S
C2463 C2480 1.574 . S
C2463 C2482 1.368 . S
C2463 H2487 0.949 . S
H2464 C2468 0.949 . S
C2465 C2466 1.349 . S
C2465 C2467 1.327 . S
C2465 H2488 0.950 . S
C2466 C2465 1.349 . S
C2466 C2478 1.349 . S
C2467 C2465 1.327 . S
C2467 C2483 1.429 . S
C2467 H2489 0.950 . S
C2468 H2464 0.949 . S
C2468 C2476 1.574 . S
C2468 C2484 1.368 . S
H2469 C2477 0.950 . S
H2470 C2475 0.950 . S
H2471 C2476 0.949 . S
H2472 C2478 0.950 . S
H2473 C2479 0.950 . S
H2474 C2480 0.949 . S
C2475 H2470 0.950 . S
C2475 C2477 1.327 . S
C2475 C2481 1.429 . S
C2476 C2468 1.574 . S
C2476 H2471 0.949 . S
C2476 C2482 1.368 . S
C2477 C2461 1.349 . S
C2477 H2469 0.950 . S
C2477 C2475 1.327 . S
C2478 C2466 1.349 . S
C2478 H2472 0.950 . S
C2478 C2479 1.327 . S
C2479 H2473 0.950 . S
C2479 C2478 1.327 . S
C2479 C2483 1.429 . S
C2480 C2463 1.574 . S
C2480 H2474 0.949 . S
C2480 C2484 1.368 . S
C2481 C2462 1.429 . S
C2481 C2475 1.429 . S
C2481 C2482 1.523 . S
C2482 C2463 1.368 . S
C2482 C2476 1.368 . S
C2482 C2481 1.523 . S
C2483 C2467 1.429 . S
C2483 C2479 1.429 . S
C2483 C2484 1.523 . S
C2484 C2468 1.368 . S
C2484 C2480 1.368 . S
C2484 C2483 1.523 . S
H2485 C2460 0.950 . S
H2486 C2462 0.950 . S
H2487 C2463 0.949 . S
H2488 C2465 0.950 . S
H2489 C2467 0.950 . S
C2490 C2491 1.349 . S
C2490 C2492 1.327 . S
C2490 H2515 0.950 . S
C2491 C2490 1.349 . S
C2491 C2507 1.349 . S
C2492 C2490 1.327 . S
C2492 C2511 1.429 . S
C2492 H2516 0.950 . S
C2493 C2510 1.574 . S
C2493 C2512 1.368 . S
C2493 H2517 0.949 . S
H2494 C2498 0.949 . S
C2495 C2496 1.349 . S
C2495 C2497 1.327 . S
C2495 H2518 0.950 . S
C2496 C2495 1.349 . S
C2496 C2508 1.349 . S
C2497 C2495 1.327 . S
C2497 C2513 1.429 . S
C2497 H2519 0.950 . S
C2498 H2494 0.949 . S
C2498 C2506 1.574 . S
C2498 C2514 1.368 . S
H2499 C2507 0.950 . S
H2500 C2505 0.950 . S
H2501 C2506 0.949 . S
H2502 C2508 0.950 . S
H2503 C2509 0.950 . S
H2504 C2510 0.949 . S
C2505 H2500 0.950 . S
C2505 C2507 1.327 . S
C2505 C2511 1.429 . S
C2506 C2498 1.574 . S
C2506 H2501 0.949 . S
C2506 C2512 1.368 . S
C2507 C2491 1.349 . S
C2507 H2499 0.950 . S
C2507 C2505 1.327 . S
C2508 C2496 1.349 . S
C2508 H2502 0.950 . S
C2508 C2509 1.327 . S
C2509 H2503 0.950 . S
C2509 C2508 1.327 . S
C2509 C2513 1.429 . S
C2510 C2493 1.574 . S
C2510 H2504 0.949 . S
C2510 C2514 1.368 . S
C2511 C2492 1.429 . S
C2511 C2505 1.429 . S
C2511 C2512 1.523 . S
C2512 C2493 1.368 . S
C2512 C2506 1.368 . S
C2512 C2511 1.523 . S
C2513 C2497 1.429 . S
C2513 C2509 1.429 . S
C2513 C2514 1.523 . S
C2514 C2498 1.368 . S
C2514 C2510 1.368 . S
C2514 C2513 1.523 . S
H2515 C2490 0.950 . S
H2516 C2492 0.950 . S
H2517 C2493 0.949 . S
H2518 C2495 0.950 . S
H2519 C2497 0.950 . S
C2520 C2521 1.349 . S
C2520 C2522 1.327 . S
C2520 H2545 0.950 . S
C2521 C2520 1.349 . S
C2521 C2537 1.349 . S
C2522 C2520 1.327 . S
C2522 C2541 1.429 . S
C2522 H2546 0.950 . S
C2523 C2540 1.574 . S
C2523 C2542 1.368 . S
C2523 H2547 0.949 . S
H2524 C2528 0.949 . S
C2525 C2526 1.349 . S
C2525 C2527 1.327 . S
C2525 H2548 0.950 . S
C2526 C2525 1.349 . S
C2526 C2538 1.349 . S
C2527 C2525 1.327 . S
C2527 C2543 1.429 . S
C2527 H2549 0.950 . S
C2528 H2524 0.949 . S
C2528 C2536 1.574 . S
C2528 C2544 1.368 . S
H2529 C2537 0.950 . S
H2530 C2535 0.950 . S
H2531 C2536 0.949 . S
H2532 C2538 0.950 . S
H2533 C2539 0.950 . S
H2534 C2540 0.949 . S
C2535 H2530 0.950 . S
C2535 C2537 1.327 . S
C2535 C2541 1.429 . S
C2536 C2528 1.574 . S
C2536 H2531 0.949 . S
C2536 C2542 1.368 . S
C2537 C2521 1.349 . S
C2537 H2529 0.950 . S
C2537 C2535 1.327 . S
C2538 C2526 1.349 . S
C2538 H2532 0.950 . S
C2538 C2539 1.327 . S
C2539 H2533 0.950 . S
C2539 C2538 1.327 . S
C2539 C2543 1.429 . S
C2540 C2523 1.574 . S
C2540 H2534 0.949 . S
C2540 C2544 1.368 . S
C2541 C2522 1.429 . S
C2541 C2535 1.429 . S
C2541 C2542 1.523 . S
C2542 C2523 1.368 . S
C2542 C2536 1.368 . S
C2542 C2541 1.523 . S
C2543 C2527 1.429 . S
C2543 C2539 1.429 . S
C2543 C2544 1.523 . S
C2544 C2528 1.368 . S
C2544 C2540 1.368 . S
C2544 C2543 1.523 . S
H2545 C2520 0.950 . S
H2546 C2522 0.950 . S
H2547 C2523 0.949 . S
H2548 C2525 0.950 . S
H2549 C2527 0.950 . S
C2550 C2551 1.349 . S
C2550 C2552 1.327 . S
C2550 H2575 0.950 . S
C2551 C2550 1.349 . S
C2551 C2567 1.349 . S
C2552 C2550 1.327 . S
C2552 C2571 1.429 . S
C2552 H2576 0.950 . S
C2553 C2570 1.574 . S
C2553 C2572 1.368 . S
C2553 H2577 0.949 . S
H2554 C2558 0.949 . S
C2555 C2556 1.349 . S
C2555 C2557 1.327 . S
C2555 H2578 0.950 . S
C2556 C2555 1.349 . S
C2556 C2568 1.349 . S
C2557 C2555 1.327 . S
C2557 C2573 1.429 . S
C2557 H2579 0.950 . S
C2558 H2554 0.949 . S
C2558 C2566 1.574 . S
C2558 C2574 1.368 . S
H2559 C2567 0.950 . S
H2560 C2565 0.950 . S
H2561 C2566 0.949 . S
H2562 C2568 0.950 . S
H2563 C2569 0.950 . S
H2564 C2570 0.949 . S
C2565 H2560 0.950 . S
C2565 C2567 1.327 . S
C2565 C2571 1.429 . S
C2566 C2558 1.574 . S
C2566 H2561 0.949 . S
C2566 C2572 1.368 . S
C2567 C2551 1.349 . S
C2567 H2559 0.950 . S
C2567 C2565 1.327 . S
C2568 C2556 1.349 . S
C2568 H2562 0.950 . S
C2568 C2569 1.327 . S
C2569 H2563 0.950 . S
C2569 C2568 1.327 . S
C2569 C2573 1.429 . S
C2570 C2553 1.574 . S
C2570 H2564 0.949 . S
C2570 C2574 1.368 . S
C2571 C2552 1.429 . S
C2571 C2565 1.429 . S
C2571 C2572 1.523 . S
C2572 C2553 1.368 . S
C2572 C2566 1.368 . S
C2572 C2571 1.523 . S
C2573 C2557 1.429 . S
C2573 C2569 1.429 . S
C2573 C2574 1.523 . S
C2574 C2558 1.368 . S
C2574 C2570 1.368 . S
C2574 C2573 1.523 . S
H2575 C2550 0.950 . S
H2576 C2552 0.950 . S
H2577 C2553 0.949 . S
H2578 C2555 0.950 . S
H2579 C2557 0.950 . S
C2580 C2581 1.349 . S
C2580 C2582 1.327 . S
C2580 H2605 0.950 . S
C2581 C2580 1.349 . S
C2581 C2597 1.349 . S
C2582 C2580 1.327 . S
C2582 C2601 1.429 . S
C2582 H2606 0.950 . S
C2583 C2600 1.574 . S
C2583 C2602 1.368 . S
C2583 H2607 0.949 . S
H2584 C2588 0.949 . S
C2585 C2586 1.349 . S
C2585 C2587 1.327 . S
C2585 H2608 0.950 . S
C2586 C2585 1.349 . S
C2586 C2598 1.349 . S
C2587 C2585 1.327 . S
C2587 C2603 1.429 . S
C2587 H2609 0.950 . S
C2588 H2584 0.949 . S
C2588 C2596 1.574 . S
C2588 C2604 1.368 . S
H2589 C2597 0.950 . S
H2590 C2595 0.950 . S
H2591 C2596 0.949 . S
H2592 C2598 0.950 . S
H2593 C2599 0.950 . S
H2594 C2600 0.949 . S
C2595 H2590 0.950 . S
C2595 C2597 1.327 . S
C2595 C2601 1.429 . S
C2596 C2588 1.574 . S
C2596 H2591 0.949 . S
C2596 C2602 1.368 . S
C2597 C2581 1.349 . S
C2597 H2589 0.950 . S
C2597 C2595 1.327 . S
C2598 C2586 1.349 . S
C2598 H2592 0.950 . S
C2598 C2599 1.327 . S
C2599 H2593 0.950 . S
C2599 C2598 1.327 . S
C2599 C2603 1.429 . S
C2600 C2583 1.574 . S
C2600 H2594 0.949 . S
C2600 C2604 1.368 . S
C2601 C2582 1.429 . S
C2601 C2595 1.429 . S
C2601 C2602 1.523 . S
C2602 C2583 1.368 . S
C2602 C2596 1.368 . S
C2602 C2601 1.523 . S
C2603 C2587 1.429 . S
C2603 C2599 1.429 . S
C2603 C2604 1.523 . S
C2604 C2588 1.368 . S
C2604 C2600 1.368 . S
C2604 C2603 1.523 . S
H2605 C2580 0.950 . S
H2606 C2582 0.950 . S
H2607 C2583 0.949 . S
H2608 C2585 0.950 . S
H2609 C2587 0.950 . S
C991 C177 1.434 . S
C996 C290 1.375 . S
C1021 C190 1.462 . S
C1026 C374 1.406 . S
C1051 C164 1.429 . S
C1056 C468 1.420 . S
C1081 C151 1.406 . S
C1086 C384 1.398 1_556 S
C1116 C458 1.355 . S
C1111 C125 1.414 . S
C1141 C138 1.381 . S
C1146 C300 1.353 1_556 S
C1176 C301 1.431 . S
C1171 C147 1.439 . S
C1206 C385 1.459 . S
C1201 C121 1.460 . S
C1231 C134 1.457 . S
C1236 C477 1.468 1_556 S
C1261 C173 1.424 . S
C1266 C393 1.445 . S
C1291 C186 1.408 . S
C1296 C469 1.402 . S
C1326 C309 1.423 . S
C1321 C160 1.405 . S
C1356 C542 1.376 . S
C1351 C21 1.434 . S
C1381 C34 1.462 . S
C1386 C626 1.406 . S
C1411 C8 1.429 . S
C1416 C720 1.420 . S
C1441 C229 1.406 . S
C1446 C636 1.398 . S
C1471 C203 1.413 . S
C1476 C710 1.354 . S
C1501 C216 1.382 . S
C1506 C552 1.373 . S
C1531 C225 1.439 . S
C1536 C553 1.431 . S
C1561 C199 1.460 . S
C1566 C637 1.459 . S
C1596 C729 1.477 . S
C1591 C212 1.457 . S
C1621 C17 1.424 . S
C1626 C645 1.446 . S
C1656 C721 1.402 . S
C1651 C30 1.408 . S
C1681 C4 1.405 . S
C1686 C561 1.422 . S
C1716 C794 1.375 . S
C1711 C99 1.434 . S
C1741 C112 1.462 . S
C1746 C878 1.406 . S
C1776 C972 1.420 . S
C1771 C86 1.429 . S
C1806 C888 1.398 . S
C1801 C73 1.406 . S
C1836 C962 1.355 . S
C1831 C47 1.414 . S
C1861 C60 1.381 . S
C1866 C804 1.373 . S
C1891 C69 1.439 . S
C1896 C805 1.431 . S
C1921 C43 1.460 . S
C1926 C889 1.459 . S
C1956 C981 1.477 . S
C1951 C56 1.457 . S
C1981 C95 1.424 . S
C1986 C897 1.445 . S
C2011 C108 1.408 . S
C2016 C973 1.402 . S
C2041 C82 1.405 . S
C2046 C813 1.422 . S
C2071 C204 1.550 . S
C2076 C297 1.424 . S
C2106 C381 1.477 . S
C2101 C217 1.623 . S
C2131 C230 1.565 . S
C2136 C474 1.386 . S
C2161 C87 1.596 . S
C2166 C390 1.407 . S
C2191 C100 1.580 . S
C2196 C465 1.441 . S
C2226 C306 1.357 . S
C2221 C113 1.522 . S
C2251 C48 1.550 . S
C2256 C549 1.424 . S
C2281 C61 1.624 . S
C2286 C633 1.477 . S
C2311 C74 1.565 . S
C2316 C726 1.386 . S
C2341 C165 1.596 . S
C2346 C642 1.407 . S
C2376 C717 1.440 . S
C2371 C178 1.579 . S
C2401 C191 1.523 . S
C2406 C558 1.357 . S
C2431 C126 1.550 . S
C2436 C801 1.424 . S
C2461 C139 1.623 . S
C2466 C885 1.477 . S
C2496 C978 1.386 . S
C2491 C152 1.565 . S
C2521 C9 1.596 . S
C2526 C894 1.407 . S
C2551 C22 1.580 . S
C2556 C969 1.441 . S
C2581 C35 1.522 . S
C2586 C810 1.357 . S
