# Generated by pormake.
# Topology rtl, (3,6)-cn, num edge types: 1
# Building blocks:
#     Node 0, Type 0, BuildingBlock: ESEHIV_clean_linker_0, # of connection points: 3
#     Node 1, Type 0, BuildingBlock: ESEHIV_clean_linker_0, # of connection points: 3
#     Node 2, Type 0, BuildingBlock: ESEHIV_clean_linker_0, # of connection points: 3
#     Node 3, Type 0, BuildingBlock: ESEHIV_clean_linker_0, # of connection points: 3
#     Node 4, Type 1, BuildingBlock: KUMJIN_clean_sbu_1, # of connection points: 6
#     Node 5, Type 1, BuildingBlock: KUMJIN_clean_sbu_1, # of connection points: 6
#     Edge 6, Type (0, 1), BuildingBlock: UVAHIK_clean_linker_0, # of connection points: 2
#     Edge 7, Type (0, 1), BuildingBlock: UVAHIK_clean_linker_0, # of connection points: 2
#     Edge 8, Type (0, 1), BuildingBlock: UVAHIK_clean_linker_0, # of connection points: 2
#     Edge 9, Type (0, 1), BuildingBlock: UVAHIK_clean_linker_0, # of connection points: 2
#     Edge 10, Type (0, 1), BuildingBlock: UVAHIK_clean_linker_0, # of connection points: 2
#     Edge 11, Type (0, 1), BuildingBlock: UVAHIK_clean_linker_0, # of connection points: 2
#     Edge 12, Type (0, 1), BuildingBlock: UVAHIK_clean_linker_0, # of connection points: 2
#     Edge 13, Type (0, 1), BuildingBlock: UVAHIK_clean_linker_0, # of connection points: 2
#     Edge 14, Type (0, 1), BuildingBlock: UVAHIK_clean_linker_0, # of connection points: 2
#     Edge 15, Type (0, 1), BuildingBlock: UVAHIK_clean_linker_0, # of connection points: 2
#     Edge 16, Type (0, 1), BuildingBlock: UVAHIK_clean_linker_0, # of connection points: 2
#     Edge 17, Type (0, 1), BuildingBlock: UVAHIK_clean_linker_0, # of connection points: 2
# Relax obj value: 0.017
# Max RMSD: 0.099
# Mean RMSD: 0.059
data_MOF--net-rtl--node1-KUMJIN_clean_sbu_1--node2-ESEHIV_clean_linker_0--edge1-UVAHIK_clean_linker_0
_symmetry_space_group_name_H-M    P1
_symmetry_Int_Tables_number       1
_symmetry_cell_setting            triclinic
loop_
_symmetry_equiv_pos_as_xyz
'x, y, z'
_cell_length_a     40.118301
_cell_length_b     40.666481
_cell_length_c     35.486607
_cell_angle_alpha  80.221052
_cell_angle_beta   99.970163
_cell_angle_gamma 90.505719
loop_
_atom_site_label
_atom_site_type_symbol
_atom_site_fract_x
_atom_site_fract_y
_atom_site_fract_z
_atom_type_partial_charge
H0 H 0.18818 0.90678 0.01209 0.0
H1 H 0.2596 0.83945 0.09283 0.0
H2 H 0.25152 0.84249 0.96964 0.0
C3 C 0.20831 0.88805 0.01784 0.0
C4 C 0.2187 0.87654 0.98661 0.0
C5 C 0.22241 0.87436 0.05636 0.0
C6 C 0.24861 0.85011 0.06325 0.0
C7 C 0.25975 0.83866 0.03214 0.0
C8 C 0.24427 0.85188 0.99394 0.0
H9 H 0.61645 0.66615 0.60102 0.0
H10 H 0.6825 0.72753 0.53709 0.0
H11 H 0.68322 0.73307 0.65741 0.0
C12 C 0.63561 0.68508 0.59972 0.0
C13 C 0.64888 0.69801 0.63334 0.0
C14 C 0.64737 0.69587 0.56472 0.0
C15 C 0.6724 0.72023 0.56362 0.0
C16 C 0.68553 0.73413 0.59672 0.0
C17 C 0.67367 0.7226 0.63162 0.0
H18 H 0.82917 0.10592 0.04133 0.0
H19 H 0.77674 0.17525 0.09041 0.0
H20 H 0.75445 0.1749 0.96774 0.0
C21 C 0.81 0.12536 0.03768 0.0
C22 C 0.7925 0.13863 1.00028 0.0
C23 C 0.80445 0.13846 0.07028 0.0
C24 C 0.78112 0.16499 0.06536 0.0
C25 C 0.76301 0.17813 0.02849 0.0
C26 C 0.76839 0.16455 0.99621 0.0
H27 H 0.39189 0.33732 0.46245 0.0
H28 H 0.3237 0.27757 0.52511 0.0
H29 H 0.32081 0.27537 0.40366 0.0
C30 C 0.37189 0.31925 0.46331 0.0
C31 C 0.35813 0.30716 0.42929 0.0
C32 C 0.35925 0.30919 0.49793 0.0
C33 C 0.33345 0.28556 0.49849 0.0
C34 C 0.31943 0.27294 0.46474 0.0
C35 C 0.33185 0.28415 0.43014 0.0
Eu36 Eu 0.02501 0.96181 0.51513 0.0
C37 C 0.93881 0.09224 0.47788 0.0
N38 N 0.97122 0.08812 0.49735 0.0
C39 C 0.98714 0.13852 0.45962 0.0
C40 C 0.92959 0.11945 0.44746 0.0
C41 C 0.99523 0.11096 0.48925 0.0
C42 C 0.95424 0.14267 0.43845 0.0
C43 C 0.88109 0.07288 0.46858 0.0
C44 C 0.91496 0.0689 0.48816 0.0
C45 C 0.87208 0.09935 0.43746 0.0
C46 C 0.89624 0.12257 0.42696 0.0
Eu47 Eu 0.98273 0.04093 0.54673 0.0
N48 N 0.92436 0.04341 0.51844 0.0
C49 C 0.85696 0.05085 0.48172 0.0
C50 C 0.90013 0.02438 0.53382 0.0
C51 C 0.8664 0.027 0.51504 0.0
H52 H 0.02063 0.10771 0.50562 0.0
H53 H 0.84756 0.01111 0.5268 0.0
H54 H 0.97879 0.89837 0.54921 0.0
H55 H 0.16079 0.98449 0.555 0.0
H56 H 0.90627 0.00767 0.56118 0.0
H57 H 0.83071 0.05309 0.46748 0.0
H58 H 0.10425 0.99402 0.51563 0.0
H59 H 0.0063 0.15644 0.45302 0.0
H60 H 0.84627 0.10251 0.42188 0.0
H61 H 0.88878 0.1431 0.40322 0.0
H62 H 0.98654 0.84721 0.59895 0.0
H63 H 0.94812 0.16391 0.41529 0.0
H64 H 0.17178 0.93667 0.60898 0.0
N65 N 0.02989 0.91289 0.56218 0.0
C66 C 0.06129 0.90507 0.58335 0.0
C67 C 0.0077 0.86334 0.59499 0.0
C68 C 0.06685 0.87611 0.612 0.0
C69 C 0.0033 0.89242 0.56713 0.0
C70 C 0.03958 0.85518 0.6176 0.0
N71 N 0.08147 0.9549 0.54974 0.0
C72 C 0.1077 0.97446 0.54047 0.0
C73 C 0.12015 0.91975 0.59991 0.0
C74 C 0.08758 0.92694 0.57748 0.0
C75 C 0.14644 0.94134 0.59241 0.0
C76 C 0.14028 0.96849 0.56216 0.0
H77 H 0.04286 0.83273 0.63934 0.0
H78 H 0.10382 0.84727 0.65692 0.0
H79 H 0.15048 0.88532 0.64621 0.0
O80 O 0.05128 0.95285 0.46747 0.0
O81 O 0.02333 0.96101 0.57912 0.0
O82 O 0.02951 0.01588 0.58556 0.0
O83 O 0.01464 0.91764 0.48897 0.0
O84 O 0.047 0.01301 0.49679 0.0
O85 O 0.03882 0.04231 0.54502 0.0
O86 O 0.96051 0.04913 0.59735 0.0
O87 O 0.98546 0.04277 0.48278 0.0
O88 O 0.9796 0.98814 0.4747 0.0
O89 O 0.99301 0.08633 0.57102 0.0
O90 O 0.96284 0.98889 0.56518 0.0
O91 O 0.96854 0.96232 0.51412 0.0
C92 C 0.03378 0.98403 0.59993 0.0
C93 C 0.04062 0.90213 0.43798 0.0
C94 C 0.06047 0.89051 0.3803 0.0
C95 C 0.04589 0.85889 0.38543 0.0
C96 C 0.02647 0.87021 0.44266 0.0
C97 C 0.02922 0.84877 0.4166 0.0
C98 C 0.05817 0.91205 0.40694 0.0
C99 C 0.0539 0.03808 0.51602 0.0
C100 C 0.03573 0.92479 0.46505 0.0
C101 C 0.09913 0.86929 0.63463 0.0
C102 C 0.12567 0.89105 0.62864 0.0
C103 C 0.97603 0.02017 0.46096 0.0
C104 C 0.97127 0.09994 0.62615 0.0
C105 C 0.95119 0.11073 0.68416 0.0
C106 C 0.96792 0.14134 0.68116 0.0
C107 C 0.98765 0.13075 0.62373 0.0
C108 C 0.9527 0.09017 0.65629 0.0
C109 C 0.98587 0.15129 0.65103 0.0
C110 C 0.95378 0.96593 0.54347 0.0
C111 C 0.97486 0.07796 0.59791 0.0
H112 H 0.04757 0.84195 0.36529 0.0
H113 H 0.01305 0.8618 0.46642 0.0
H114 H 0.01816 0.82431 0.4204 0.0
H115 H 0.06909 0.9366 0.40282 0.0
H116 H 0.96679 0.15779 0.70196 0.0
H117 H 0.00208 0.13897 0.60084 0.0
H118 H 0.94011 0.06639 0.65861 0.0
H119 H 0.99859 0.17495 0.64892 0.0
Eu120 Eu 0.46397 0.49196 0.9932 0.0
C121 C 0.6072 0.54966 0.03794 0.0
N122 N 0.5964 0.51819 0.04854 0.0
C123 C 0.64646 0.49498 0.0342 0.0
C124 C 0.63809 0.55491 0.02418 0.0
C125 C 0.61556 0.49096 0.0474 0.0
C126 C 0.65774 0.52707 0.02243 0.0
C127 C 0.59725 0.60952 0.02839 0.0
C128 C 0.58668 0.57665 0.03965 0.0
C129 C 0.62779 0.6148 0.01419 0.0
C130 C 0.64814 0.58759 0.01211 0.0
Eu131 Eu 0.54438 0.51374 0.07097 0.0
N132 N 0.557 0.57086 0.05326 0.0
C133 C 0.57724 0.63619 0.03261 0.0
C134 C 0.53919 0.5968 0.06069 0.0
C135 C 0.54843 0.62977 0.04951 0.0
H136 H 0.60702 0.46616 0.05689 0.0
H137 H 0.53373 0.6502 0.05474 0.0
H138 H 0.40156 0.53946 0.00795 0.0
H139 H 0.47535 0.35542 0.01078 0.0
H140 H 0.51854 0.59249 0.07648 0.0
H141 H 0.5845 0.66177 0.02433 0.0
H142 H 0.4903 0.41307 0.98854 0.0
H143 H 0.66155 0.47334 0.03312 0.0
H144 H 0.63612 0.63988 0.0052 0.0
H145 H 0.67169 0.5921 1.00123 0.0
H146 H 0.34723 0.5322 0.03218 0.0
H147 H 0.6816 0.53009 0.012 0.0
H148 H 0.42472 0.34385 0.04144 0.0
N149 N 0.41224 0.48743 0.01627 0.0
C150 C 0.40157 0.45594 0.02709 0.0
C151 C 0.36232 0.51058 0.03102 0.0
C152 C 0.37084 0.45066 0.04118 0.0
C153 C 0.39308 0.51465 0.01752 0.0
C154 C 0.35118 0.47847 0.043 0.0
N155 N 0.4517 0.4348 0.0115 0.0
C156 C 0.46964 0.40883 0.00435 0.0
C157 C 0.41175 0.3961 0.03698 0.0
C158 C 0.42213 0.42898 0.02536 0.0
C159 C 0.43184 0.36944 0.03288 0.0
C160 C 0.46057 0.37586 0.01585 0.0
H161 H 0.32743 0.47542 0.05368 0.0
H162 H 0.33754 0.41343 0.06469 0.0
H163 H 0.37317 0.3657 0.06073 0.0
O164 O 0.45654 0.47623 0.93552 0.0
O165 O 0.45853 0.4853 0.05706 0.0
O166 O 0.51229 0.4694 0.08745 0.0
O167 O 0.42272 0.51326 0.9479 0.0
O168 O 0.51456 0.46586 0.99476 0.0
O169 O 0.53951 0.46087 0.05922 0.0
O170 O 0.55084 0.52898 0.12876 0.0
O171 O 0.55004 0.52077 0.00718 0.0
O172 O 0.49622 0.53604 0.97598 0.0
O173 O 0.5855 0.49252 0.11667 0.0
O174 O 0.49381 0.54004 0.06892 0.0
O175 O 0.46863 0.545 0.00446 0.0
C176 C 0.47969 0.47037 0.08744 0.0
C177 C 0.41009 0.49994 0.88314 0.0
C178 C 0.39819 0.48555 0.81808 0.0
C179 C 0.37227 0.51012 0.80766 0.0
C180 C 0.38393 0.52426 0.87192 0.0
C181 C 0.36517 0.52921 0.83447 0.0
C182 C 0.41696 0.48031 0.85612 0.0
C183 C 0.53655 0.45161 0.02509 0.0
C184 C 0.43025 0.49615 0.92271 0.0
C185 C 0.36096 0.41797 0.05355 0.0
C186 C 0.38135 0.39079 0.05147 0.0
C187 C 0.52894 0.53536 0.97652 0.0
C188 C 0.59688 0.5056 0.18167 0.0
C189 C 0.60803 0.52086 0.24637 0.0
C190 C 0.63409 0.49641 0.25745 0.0
C191 C 0.62307 0.48137 0.19356 0.0
C192 C 0.58954 0.52548 0.2082 0.0
C193 C 0.64151 0.47689 0.23117 0.0
C194 C 0.47212 0.55457 0.03848 0.0
C195 C 0.5773 0.50932 0.14183 0.0
H196 H 0.35719 0.51434 0.77877 0.0
H197 H 0.37801 0.5397 0.89203 0.0
H198 H 0.34509 0.548 0.82616 0.0
H199 H 0.4371 0.46154 0.86432 0.0
H200 H 0.6491 0.49268 0.28637 0.0
H201 H 0.62931 0.46571 0.17383 0.0
H202 H 0.56929 0.54412 0.1994 0.0
H203 H 0.66168 0.45822 0.24 0.0
C204 C 0.28927 0.22239 0.44442 0.0
C205 C 0.29111 0.24896 0.46541 0.0
C206 C 0.26272 0.19985 0.44537 0.0
C207 C 0.17677 0.18961 0.47202 0.0
H208 H 0.1951 0.09535 0.47686 0.0
C209 C 0.08994 0.08693 0.52863 0.0
C210 C 0.0807 0.06182 0.50622 0.0
C211 C 0.1146 0.10984 0.5195 0.0
C212 C 0.18957 0.12166 0.47504 0.0
H213 H 0.26577 0.27291 0.50319 0.0
H214 H 0.2207 0.23299 0.50634 0.0
H215 H 0.24026 0.13534 0.46906 0.0
H216 H 0.0905 0.04115 0.45659 0.0
H217 H 0.13461 0.08086 0.44142 0.0
H218 H 0.12647 0.17561 0.47969 0.0
C219 C 0.23932 0.22981 0.48844 0.0
C220 C 0.21538 0.14463 0.47047 0.0
C221 C 0.26562 0.25247 0.48719 0.0
C222 C 0.0971 0.06004 0.47459 0.0
C223 C 0.12232 0.08272 0.46587 0.0
C224 C 0.15119 0.16663 0.4771 0.0
C225 C 0.23743 0.2032 0.46752 0.0
C226 C 0.20946 0.17889 0.46952 0.0
C227 C 0.13106 0.10799 0.48811 0.0
C228 C 0.15745 0.13241 0.47921 0.0
H229 H 0.30859 0.21872 0.42759 0.0
H230 H 0.26196 0.17992 0.42855 0.0
H231 H 0.17093 0.21582 0.47038 0.0
H232 H 0.07805 0.08909 0.55329 0.0
H233 H 0.12114 0.12883 0.53741 0.0
C234 C 0.28662 0.78416 0.06941 0.0
C235 C 0.28596 0.81152 0.03901 0.0
C236 C 0.309 0.75711 0.0731 0.0
C237 C 0.34866 0.71202 0.01344 0.0
H238 H 0.41201 0.6748 0.10601 0.0
C239 C 0.44375 0.60929 0.00875 0.0
C240 C 0.45259 0.58432 0.04144 0.0
C241 C 0.42473 0.63727 0.01076 0.0
C242 C 0.39408 0.6845 0.0801 0.0
H243 H 0.31005 0.83265 0.99032 0.0
H244 H 0.34797 0.78489 0.99596 0.0
H245 H 0.37656 0.72338 0.10651 0.0
H246 H 0.44867 0.56887 0.10193 0.0
H247 H 0.41401 0.61716 0.10518 0.0
H248 H 0.36465 0.67289 0.98719 0.0
C249 C 0.33107 0.78448 0.01677 0.0
C250 C 0.37397 0.71243 0.0804 0.0
C251 C 0.30918 0.8117 0.01345 0.0
C252 C 0.44226 0.58792 0.07636 0.0
C253 C 0.42257 0.61569 0.0782 0.0
C254 C 0.36817 0.68385 0.01332 0.0
C255 C 0.33075 0.75672 0.04617 0.0
C256 C 0.35146 0.72665 0.04686 0.0
C257 C 0.41334 0.64067 0.04529 0.0
C258 C 0.39157 0.66994 0.04642 0.0
H259 H 0.2689 0.78291 0.08938 0.0
H260 H 0.30823 0.73586 0.0959 0.0
H261 H 0.33101 0.72223 0.98742 0.0
H262 H 0.45187 0.60739 0.98161 0.0
H263 H 0.41912 0.65632 0.98511 0.0
C264 C 0.71162 0.78349 0.56036 0.0
C265 C 0.71202 0.7601 0.59463 0.0
C266 C 0.73759 0.80632 0.55713 0.0
C267 C 0.80169 0.85264 0.60912 0.0
H268 H 0.85031 0.8496 0.52436 0.0
C269 C 0.91992 0.93294 0.58927 0.0
C270 C 0.92541 0.94397 0.55122 0.0
C271 C 0.89398 0.91065 0.5963 0.0
C272 C 0.83671 0.85136 0.54778 0.0
H273 H 0.73999 0.74343 0.65286 0.0
H274 H 0.78459 0.78448 0.64753 0.0
H275 H 0.80409 0.81164 0.53348 0.0
H276 H 0.90747 0.94173 0.49059 0.0
H277 H 0.86133 0.90448 0.50238 0.0
H278 H 0.83321 0.89325 0.62263 0.0
C279 C 0.76416 0.78458 0.62315 0.0
C280 C 0.81038 0.82935 0.55312 0.0
C281 C 0.73848 0.76121 0.62618 0.0
C282 C 0.90404 0.93318 0.52028 0.0
C283 C 0.87773 0.91156 0.52716 0.0
C284 C 0.82764 0.87523 0.60332 0.0
C285 C 0.76421 0.80688 0.58834 0.0
C286 C 0.79258 0.82986 0.5837 0.0
C287 C 0.87262 0.89947 0.5653 0.0
C288 C 0.84541 0.87503 0.57238 0.0
H289 H 0.69128 0.78415 0.5358 0.0
H290 H 0.73691 0.8236 0.53014 0.0
H291 H 0.78815 0.85352 0.63284 0.0
H292 H 0.93628 0.94079 0.61363 0.0
H293 H 0.89125 0.90166 0.62608 0.0
C294 C 0.70611 0.20634 0.00416 0.0
C295 C 0.73958 0.20704 0.02376 0.0
C296 C 0.68375 0.2332 1.00153 0.0
C297 C 0.67305 0.30593 0.0494 0.0
H298 H 0.60211 0.3322 0.9603 0.0
C299 C 0.56865 0.39887 0.05514 0.0
C300 C 0.55722 0.42267 0.02194 0.0
C301 C 0.58963 0.37228 0.05327 0.0
C302 C 0.62199 0.32542 0.98524 0.0
H303 H 0.77654 0.23678 0.0542 0.0
H304 H 0.73813 0.28405 0.04854 0.0
H305 H 0.64226 0.28765 0.95976 0.0
H306 H 0.55823 0.43715 0.96056 0.0
H307 H 0.59598 0.39109 0.9574 0.0
H308 H 0.65388 0.34437 0.07433 0.0
C309 C 0.72854 0.26242 0.03641 0.0
C310 C 0.64477 0.29953 0.98516 0.0
C311 C 0.75065 0.23543 0.03953 0.0
C312 C 0.56663 0.41903 0.98655 0.0
C313 C 0.58813 0.39257 0.98477 0.0
C314 C 0.65062 0.33194 0.0493 0.0
C315 C 0.6946 0.26147 0.018 0.0
C316 C 0.67054 0.28938 0.01734 0.0
C317 C 0.60024 0.36909 0.01829 0.0
C318 C 0.62457 0.34186 0.01743 0.0
H319 H 0.69699 0.18463 0.99186 0.0
H320 H 0.65775 0.23136 0.98752 0.0
H321 H 0.69214 0.29855 0.075 0.0
H322 H 0.56136 0.40075 0.08272 0.0
H323 H 0.59758 0.35423 0.07943 0.0
C324 C 0.17208 0.88566 0.08555 0.0
C325 C 0.20744 0.88304 0.08904 0.0
C326 C 0.15742 0.8915 0.1167 0.0
C327 C 0.173 0.92042 0.2112 0.0
H328 H 0.0968 0.86436 0.2296 0.0
C329 C 0.1123 0.90565 0.35119 0.0
C330 C 0.07729 0.90047 0.34639 0.0
C331 C 0.12901 0.90846 0.31925 0.0
C332 C 0.11767 0.88065 0.22459 0.0
H333 H 0.25516 0.88559 0.12785 0.0
H334 H 0.2293 0.89528 0.18284 0.0
H335 H 0.12479 0.85943 0.17546 0.0
H336 H 0.03181 0.89672 0.3047 0.0
H337 H 0.06056 0.90275 0.24883 0.0
H338 H 0.16575 0.94144 0.26085 0.0
C339 C 0.21306 0.89307 0.15567 0.0
C340 C 0.1338 0.87774 0.19354 0.0
C341 C 0.22783 0.88719 0.12434 0.0
C342 C 0.0589 0.90046 0.30902 0.0
C343 C 0.07543 0.90362 0.27718 0.0
C344 C 0.15671 0.92341 0.24242 0.0
C345 C 0.17765 0.89467 0.15234 0.0
C346 C 0.16143 0.89775 0.18621 0.0
C347 C 0.11084 0.90628 0.2821 0.0
C348 C 0.12862 0.90374 0.2492 0.0
H349 H 0.15554 0.88214 0.05906 0.0
H350 H 0.13007 0.89304 0.11302 0.0
H351 H 0.1942 0.93624 0.20618 0.0
H352 H 0.12694 0.90551 0.3799 0.0
H353 H 0.1563 0.91043 0.32404 0.0
C354 C 0.6613 0.67339 0.70411 0.0
C355 C 0.63751 0.68487 0.67053 0.0
C356 C 0.65062 0.65876 0.7385 0.0
C357 C 0.57934 0.65393 0.79099 0.0
H358 H 0.61674 0.56664 0.84097 0.0
C359 C 0.5209 0.57383 0.91236 0.0
C360 C 0.54237 0.55325 0.94248 0.0
C361 C 0.5334 0.59079 0.88021 0.0
C362 C 0.60642 0.59126 0.82794 0.0
H363 H 0.58401 0.69105 0.64679 0.0
H364 H 0.56529 0.66606 0.70721 0.0
H365 H 0.63738 0.59565 0.78385 0.0
H366 H 0.59356 0.53339 0.96151 0.0
H367 H 0.61593 0.56449 0.90693 0.0
H368 H 0.5489 0.65013 0.8353 0.0
C369 C 0.59216 0.66817 0.70681 0.0
C370 C 0.6182 0.6078 0.79506 0.0
C371 C 0.60284 0.68228 0.67225 0.0
C372 C 0.57657 0.5498 0.93949 0.0
C373 C 0.58924 0.56721 0.90767 0.0
C374 C 0.56792 0.63766 0.82423 0.0
C375 C 0.61595 0.65587 0.74012 0.0
C376 C 0.60454 0.63914 0.77605 0.0
C377 C 0.56781 0.5879 0.87748 0.0
C378 C 0.58102 0.6059 0.84296 0.0
H379 H 0.68818 0.67489 0.70345 0.0
H380 H 0.66946 0.64964 0.76383 0.0
H381 H 0.56865 0.67826 0.77711 0.0
H382 H 0.4943 0.57684 0.91346 0.0
H383 H 0.51586 0.60579 0.85725 0.0
C384 C 0.83924 0.1473 0.13331 0.0
C385 C 0.82369 0.12529 0.10947 0.0
C386 C 0.8564 0.13518 0.17076 0.0
C387 C 0.89403 0.05775 0.23521 0.0
H388 H 0.88794 0.10945 0.31621 0.0
C389 C 0.94017 0.00898 0.39941 0.0
C390 C 0.9597 0.03113 0.42009 0.0
C391 C 0.92391 0.01974 0.36116 0.0
C392 C 0.89003 0.09488 0.29381 0.0
H393 H 0.81395 0.07336 0.10592 0.0
H394 H 0.84315 0.05206 0.17179 0.0
H395 H 0.85861 0.12933 0.25028 0.0
H396 H 0.97904 0.08126 0.41608 0.0
H397 H 0.94961 0.10044 0.34994 0.0
H398 H 0.92491 0.02292 0.27936 0.0
C399 C 0.84279 0.07868 0.16134 0.0
C400 C 0.87336 0.10631 0.25595 0.0
C401 C 0.82596 0.09084 0.12364 0.0
C402 C 0.96323 0.06398 0.40143 0.0
C403 C 0.94657 0.07489 0.36347 0.0
C404 C 0.91038 0.04612 0.27324 0.0
C405 C 0.85807 0.10073 0.18551 0.0
C406 C 0.87535 0.08805 0.22603 0.0
C407 C 0.92666 0.05291 0.34298 0.0
C408 C 0.90874 0.06471 0.30282 0.0
H409 H 0.83832 0.17396 0.12287 0.0
H410 H 0.86851 0.15288 0.18805 0.0
H411 H 0.89658 0.04324 0.21292 0.0
H412 H 0.93701 0.98345 0.41294 0.0
H413 H 0.90861 0.00232 0.34605 0.0
C414 C 0.37646 0.35984 0.5277 0.0
C415 C 0.37103 0.32528 0.53248 0.0
C416 C 0.38469 0.37574 0.55987 0.0
C417 C 0.41436 0.36215 0.66653 0.0
H418 H 0.3664 0.44621 0.65774 0.0
C419 C 0.40532 0.43063 0.79652 0.0
C420 C 0.4049 0.46568 0.7887 0.0
C421 C 0.40602 0.41227 0.76658 0.0
C422 C 0.38044 0.42303 0.66056 0.0
H423 H 0.37151 0.28017 0.57518 0.0
H424 H 0.38502 0.3082 0.63148 0.0
H425 H 0.35835 0.41651 0.60322 0.0
H426 H 0.40779 0.50895 0.74452 0.0
H427 H 0.40965 0.47713 0.69262 0.0
H428 H 0.43599 0.36873 0.72445 0.0
C429 C 0.38321 0.32289 0.6027 0.0
C430 C 0.37581 0.40596 0.62922 0.0
C431 C 0.37508 0.30689 0.57041 0.0
C432 C 0.4075 0.48195 0.75116 0.0
C433 C 0.4084 0.46372 0.72144 0.0
C434 C 0.41898 0.37931 0.6981 0.0
C435 C 0.38745 0.35763 0.59776 0.0
C436 C 0.39283 0.37542 0.63163 0.0
C437 C 0.40646 0.42873 0.72842 0.0
C438 C 0.40221 0.41009 0.69532 0.0
H439 H 0.37321 0.37494 0.49903 0.0
H440 H 0.38835 0.40245 0.55498 0.0
H441 H 0.42798 0.33875 0.66927 0.0
H442 H 0.40322 0.41751 0.82523 0.0
H443 H 0.40444 0.38536 0.7729 0.0
C444 C 0.62833 0.70078 0.49256 0.0
C445 C 0.63468 0.68084 0.52964 0.0
C446 C 0.6185 0.68635 0.45939 0.0
C447 C 0.58479 0.60884 0.42613 0.0
H448 H 0.63225 0.63735 0.34022 0.0
C449 C 0.60024 0.52657 0.31346 0.0
C450 C 0.60097 0.54155 0.2749 0.0
C451 C 0.59769 0.54606 0.34167 0.0
C452 C 0.61822 0.6295 0.36355 0.0
H453 H 0.63525 0.63007 0.56084 0.0
H454 H 0.61808 0.60494 0.50309 0.0
H455 H 0.64041 0.66688 0.39523 0.0
H456 H 0.59807 0.58868 0.23529 0.0
H457 H 0.59327 0.62291 0.28467 0.0
H458 H 0.5633 0.57089 0.39485 0.0
C459 C 0.62023 0.63181 0.49966 0.0
C460 C 0.62295 0.64642 0.39517 0.0
C461 C 0.6301 0.64623 0.53281 0.0
C462 C 0.59749 0.57644 0.26476 0.0
C463 C 0.59507 0.59602 0.2931 0.0
C464 C 0.58005 0.59193 0.3945 0.0
C465 C 0.61472 0.65164 0.46251 0.0
C466 C 0.60685 0.63585 0.42721 0.0
C467 C 0.59583 0.58106 0.33205 0.0
C468 C 0.59729 0.6016 0.36321 0.0
H469 H 0.63109 0.72759 0.48916 0.0
H470 H 0.61399 0.70238 0.43125 0.0
H471 H 0.57153 0.60045 0.45002 0.0
H472 H 0.60246 0.49971 0.32204 0.0
H473 H 0.59867 0.53368 0.37139 0.0
C474 C 0.80336 0.15077 0.93176 0.0
C475 C 0.80138 0.12738 0.96536 0.0
C476 C 0.81427 0.14103 0.89998 0.0
C477 C 0.86892 0.07928 0.87657 0.0
H478 H 0.83163 0.11908 0.77051 0.0
C479 C 0.9473 0.10369 0.75455 0.0
C480 C 0.93225 0.10083 0.7165 0.0
C481 C 0.92849 0.09843 0.78454 0.0
C482 C 0.84204 0.10723 0.79985 0.0
H483 H 0.8082 0.07498 0.99107 0.0
H484 H 0.82803 0.05811 0.93564 0.0
H485 H 0.80166 0.12622 0.82293 0.0
H486 H 0.88619 0.08879 0.68017 0.0
H487 H 0.85298 0.07975 0.73281 0.0
H488 H 0.90988 0.06123 0.85361 0.0
C489 C 0.82112 0.08405 0.93415 0.0
C490 C 0.82504 0.11161 0.82991 0.0
C491 C 0.80989 0.09376 0.96592 0.0
C492 C 0.89839 0.09108 0.7093 0.0
C493 C 0.87938 0.08613 0.73932 0.0
C494 C 0.88603 0.07506 0.84652 0.0
C495 C 0.82378 0.10768 0.90101 0.0
C496 C 0.8388 0.09851 0.8687 0.0
C497 C 0.89409 0.09041 0.77711 0.0
C498 C 0.87327 0.08981 0.80798 0.0
H499 H 0.79777 0.17698 0.93047 0.0
H500 H 0.81665 0.15996 0.87519 0.0
H501 H 0.88026 0.069 0.90616 0.0
H502 H 0.97347 0.1109 0.76092 0.0
H503 H 0.9405 0.10226 0.81319 0.0
C504 C 0.3471 0.33333 0.35898 0.0
C505 C 0.37018 0.32012 0.39249 0.0
C506 C 0.35862 0.34808 0.32515 0.0
C507 C 0.43596 0.38516 0.29207 0.0
H508 H 0.38503 0.38089 0.18969 0.0
C509 C 0.48818 0.43138 0.15116 0.0
C510 C 0.46654 0.4524 0.12159 0.0
C511 C 0.47608 0.41449 0.18358 0.0
C512 C 0.39936 0.38241 0.21814 0.0
H513 H 0.42325 0.31065 0.41658 0.0
H514 H 0.44346 0.33518 0.35726 0.0
H515 H 0.36498 0.35136 0.24715 0.0
H516 H 0.4155 0.47298 0.10378 0.0
H517 H 0.39399 0.44236 0.15969 0.0
H518 H 0.47069 0.41562 0.26282 0.0
C519 C 0.41648 0.33528 0.35726 0.0
C520 C 0.38787 0.36561 0.25112 0.0
C521 C 0.40495 0.32098 0.39121 0.0
C522 C 0.43254 0.45619 0.12532 0.0
C523 C 0.42027 0.43884 0.15748 0.0
C524 C 0.44765 0.40154 0.25912 0.0
C525 C 0.39351 0.34957 0.32394 0.0
C526 C 0.40597 0.36682 0.28858 0.0
C527 C 0.442 0.41797 0.18703 0.0
C528 C 0.42945 0.40041 0.22185 0.0
H529 H 0.32015 0.33331 0.35936 0.0
H530 H 0.34014 0.35921 0.30038 0.0
H531 H 0.45022 0.38741 0.32031 0.0
H532 H 0.51456 0.42789 0.14933 0.0
H533 H 0.49333 0.39841 0.20584 0.0
C534 C 0.19652 0.92278 0.93185 0.0
C535 C 0.20106 0.88848 0.94641 0.0
C536 C 0.17899 0.93381 0.8942 0.0
C537 C 0.11363 0.90898 0.82031 0.0
H538 H 0.15162 0.97407 0.74719 0.0
C539 C 0.05017 0.94108 0.65972 0.0
C540 C 0.05207 0.97387 0.64012 0.0
C541 C 0.06862 0.93103 0.69701 0.0
C542 C 0.14033 0.9563 0.76739 0.0
H543 H 0.19064 0.83884 0.93347 0.0
H544 H 0.15953 0.85813 0.86787 0.0
H545 H 0.18335 0.95644 0.81265 0.0
H546 H 0.07367 0.02236 0.64497 0.0
H547 H 0.10448 0.00542 0.71077 0.0
H548 H 0.07023 0.90934 0.7759 0.0
C549 C 0.16976 0.87642 0.88543 0.0
C550 C 0.15863 0.94612 0.80481 0.0
C551 C 0.18774 0.86542 0.92276 0.0
C552 C 0.07187 0.9968 0.65918 0.0
C553 C 0.08988 0.98694 0.69679 0.0
C554 C 0.09509 0.91952 0.78315 0.0
C555 C 0.16517 0.9107 0.87082 0.0
C556 C 0.14555 0.92219 0.83148 0.0
C557 C 0.08874 0.95383 0.71612 0.0
C558 C 0.10827 0.94314 0.75604 0.0
H559 H 0.20662 0.94101 0.94956 0.0
H560 H 0.17563 0.96038 0.88363 0.0
H561 H 0.1028 0.89079 0.84056 0.0
H562 H 0.03428 0.92313 0.64633 0.0
H563 H 0.0673 0.90525 0.71064 0.0
loop_
_geom_bond_atom_site_label_1
_geom_bond_atom_site_label_2
_geom_bond_distance
_geom_bond_site_symmetry_2
_ccdc_geom_bond_type
H0 C3 0.931 . S
H1 C6 0.928 . S
H2 C8 0.930 . S
C3 H0 0.931 . S
C3 C4 1.413 1_554 S
C3 C5 1.360 . S
C4 C3 1.413 1_556 S
C4 C8 1.429 . S
C5 C3 1.360 . S
C5 C6 1.372 . S
C6 H1 0.928 . S
C6 C5 1.372 . S
C6 C7 1.404 . S
C7 C6 1.404 . S
C7 C8 1.391 1_554 S
C8 H2 0.930 . S
C8 C4 1.429 . S
C8 C7 1.391 1_556 S
H9 C12 0.931 . S
H10 C15 0.928 . S
H11 C17 0.930 . S
C12 H9 0.931 . S
C12 C13 1.413 . S
C12 C14 1.360 . S
C13 C12 1.413 . S
C13 C17 1.429 . S
C14 C12 1.360 . S
C14 C15 1.372 . S
C15 H10 0.928 . S
C15 C14 1.372 . S
C15 C16 1.404 . S
C16 C15 1.404 . S
C16 C17 1.391 . S
C17 H11 0.930 . S
C17 C13 1.429 . S
C17 C16 1.391 . S
H18 C21 0.931 . S
H19 C24 0.928 . S
H20 C26 0.930 1_556 S
C21 H18 0.931 . S
C21 C22 1.413 . S
C21 C23 1.360 . S
C22 C21 1.413 . S
C22 C26 1.429 . S
C23 C21 1.360 . S
C23 C24 1.372 . S
C24 H19 0.928 . S
C24 C23 1.372 . S
C24 C25 1.404 . S
C25 C24 1.404 . S
C25 C26 1.391 . S
C26 H20 0.930 1_554 S
C26 C22 1.429 . S
C26 C25 1.391 . S
H27 C30 0.931 . S
H28 C33 0.928 . S
H29 C35 0.930 . S
C30 H27 0.931 . S
C30 C31 1.413 . S
C30 C32 1.360 . S
C31 C30 1.413 . S
C31 C35 1.429 . S
C32 C30 1.360 . S
C32 C33 1.372 . S
C33 H28 0.928 . S
C33 C32 1.372 . S
C33 C34 1.404 . S
C34 C33 1.404 . S
C34 C35 1.391 . S
C35 H29 0.930 . S
C35 C31 1.429 . S
C35 C34 1.391 . S
Eu36 N65 2.600 . S
Eu36 N71 2.562 . S
Eu36 O80 2.462 . S
Eu36 O81 2.373 . S
Eu36 O83 2.432 . S
Eu36 O84 2.291 1_565 S
Eu36 O88 2.335 1_455 S
Eu36 O91 2.372 1_455 S
Eu36 C100 2.787 . S
C37 N38 1.365 . S
C37 C40 1.405 . S
C37 C44 1.448 . S
N38 C37 1.365 . S
N38 C41 1.299 1_655 S
N38 Eu47 2.600 . S
C39 C41 1.398 1_655 S
C39 C42 1.367 . S
C39 H59 0.931 1_655 S
C40 C37 1.405 . S
C40 C42 1.403 . S
C40 C46 1.439 . S
C41 N38 1.299 1_455 S
C41 C39 1.398 1_455 S
C41 H52 0.950 . S
C42 C39 1.367 . S
C42 C40 1.403 . S
C42 H63 0.929 . S
C43 C44 1.430 . S
C43 C45 1.387 . S
C43 C49 1.404 . S
C44 C37 1.448 . S
C44 C43 1.430 . S
C44 N48 1.351 . S
C45 C43 1.387 . S
C45 C46 1.374 . S
C45 H60 0.931 . S
C46 C40 1.439 . S
C46 C45 1.374 . S
C46 H61 0.931 . S
Eu47 N38 2.600 . S
Eu47 N48 2.562 . S
Eu47 O82 2.335 1_655 S
Eu47 O85 2.372 1_655 S
Eu47 O86 2.462 . S
Eu47 O87 2.373 . S
Eu47 O89 2.432 . S
Eu47 O90 2.291 1_545 S
Eu47 C111 2.787 . S
N48 C44 1.351 . S
N48 Eu47 2.562 . S
N48 C50 1.325 . S
C49 C43 1.404 . S
C49 C51 1.366 . S
C49 H57 0.930 . S
C50 N48 1.325 . S
C50 C51 1.416 . S
C50 H56 0.929 . S
C51 C49 1.366 . S
C51 C50 1.416 . S
C51 H53 0.930 . S
H52 C41 0.950 . S
H53 C51 0.930 . S
H54 C69 0.930 1_655 S
H55 C76 0.930 . S
H56 C50 0.929 . S
H57 C49 0.930 . S
H58 C72 0.929 . S
H59 C39 0.931 1_455 S
H60 C45 0.931 . S
H61 C46 0.931 . S
H62 C67 0.931 1_655 S
H63 C42 0.929 . S
H64 C75 0.930 . S
N65 Eu36 2.600 . S
N65 C66 1.365 . S
N65 C69 1.319 . S
C66 N65 1.365 . S
C66 C68 1.405 . S
C66 C74 1.448 . S
C67 H62 0.931 1_455 S
C67 C69 1.397 . S
C67 C70 1.367 . S
C68 C66 1.405 . S
C68 C70 1.403 . S
C68 C101 1.439 . S
C69 H54 0.930 1_455 S
C69 N65 1.319 . S
C69 C67 1.397 . S
C70 C67 1.367 . S
C70 C68 1.403 . S
C70 H77 0.929 . S
N71 Eu36 2.562 . S
N71 C72 1.325 . S
N71 C74 1.351 . S
C72 H58 0.929 . S
C72 N71 1.325 . S
C72 C76 1.416 . S
C73 C74 1.430 . S
C73 C75 1.404 . S
C73 C102 1.387 . S
C74 C66 1.448 . S
C74 N71 1.351 . S
C74 C73 1.430 . S
C75 H64 0.930 . S
C75 C73 1.404 . S
C75 C76 1.366 . S
C76 H55 0.930 . S
C76 C72 1.416 . S
C76 C75 1.366 . S
H77 C70 0.929 . S
H78 C101 0.931 . S
H79 C102 0.931 . S
O80 Eu36 2.462 . S
O80 C100 1.252 . S
O81 Eu36 2.373 . S
O81 C92 1.249 . S
O82 Eu47 2.335 1_455 S
O82 C92 1.264 1_545 S
O83 Eu36 2.432 . S
O83 C100 1.268 . S
O84 Eu36 2.291 1_545 S
O84 C99 1.255 . S
O85 Eu47 2.372 1_455 S
O85 C99 1.257 . S
O86 Eu47 2.462 . S
O86 C111 1.252 . S
O87 Eu47 2.373 . S
O87 C103 1.249 . S
O88 Eu36 2.335 1_655 S
O88 C103 1.264 1_565 S
O89 Eu47 2.432 . S
O89 C111 1.268 . S
O90 Eu47 2.291 1_565 S
O90 C110 1.255 . S
O91 Eu36 2.372 1_655 S
O91 C110 1.257 . S
C92 O81 1.249 . S
C92 O82 1.264 1_565 S
C93 C96 1.382 . S
C93 C98 1.390 . S
C93 C100 1.506 . S
C94 C95 1.398 . S
C94 C98 1.392 . S
C95 C94 1.398 . S
C95 C97 1.372 . S
C95 H112 0.931 . S
C96 C93 1.382 . S
C96 C97 1.390 . S
C96 H113 0.931 . S
C97 C95 1.372 . S
C97 C96 1.390 . S
C97 H114 0.929 . S
C98 C93 1.390 . S
C98 C94 1.392 . S
C98 H115 0.930 . S
C99 O84 1.255 . S
C99 O85 1.257 . S
C100 Eu36 2.787 . S
C100 O80 1.252 . S
C100 O83 1.268 . S
C100 C93 1.506 . S
C101 C68 1.439 . S
C101 H78 0.931 . S
C101 C102 1.374 . S
C102 C73 1.387 . S
C102 H79 0.931 . S
C102 C101 1.374 . S
C103 O87 1.249 . S
C103 O88 1.264 1_545 S
C104 C107 1.382 . S
C104 C108 1.390 . S
C104 C111 1.506 . S
C105 C106 1.398 . S
C105 C108 1.392 . S
C106 C105 1.398 . S
C106 C109 1.372 . S
C106 H116 0.931 . S
C107 C104 1.382 . S
C107 C109 1.390 . S
C107 H117 0.931 . S
C108 C104 1.390 . S
C108 C105 1.392 . S
C108 H118 0.930 . S
C109 C106 1.372 . S
C109 C107 1.390 . S
C109 H119 0.929 . S
C110 O90 1.255 . S
C110 O91 1.257 . S
C111 Eu47 2.787 . S
C111 O86 1.252 . S
C111 O89 1.268 . S
C111 C104 1.506 . S
H112 C95 0.931 . S
H113 C96 0.931 . S
H114 C97 0.929 . S
H115 C98 0.930 . S
H116 C106 0.931 . S
H117 C107 0.931 . S
H118 C108 0.930 . S
H119 C109 0.929 . S
Eu120 N149 2.600 . S
Eu120 N155 2.562 1_556 S
Eu120 O164 2.462 . S
Eu120 O165 2.373 1_556 S
Eu120 O167 2.432 . S
Eu120 O168 2.291 1_556 S
Eu120 O172 2.335 . S
Eu120 O175 2.379 . S
Eu120 C184 2.787 . S
C121 N122 1.365 . S
C121 C124 1.405 . S
C121 C128 1.448 . S
N122 C121 1.365 . S
N122 C125 1.319 . S
N122 Eu131 2.600 . S
C123 C125 1.397 . S
C123 C126 1.367 . S
C123 H143 0.931 . S
C124 C121 1.405 . S
C124 C126 1.403 . S
C124 C130 1.439 . S
C125 N122 1.319 . S
C125 C123 1.397 . S
C125 H136 0.930 . S
C126 C123 1.367 . S
C126 C124 1.403 . S
C126 H147 0.929 . S
C127 C128 1.430 . S
C127 C129 1.387 . S
C127 C133 1.404 . S
C128 C121 1.448 . S
C128 C127 1.430 . S
C128 N132 1.351 . S
C129 C127 1.387 . S
C129 C130 1.374 . S
C129 H144 0.931 . S
C130 C124 1.439 . S
C130 C129 1.374 . S
C130 H145 0.931 . S
Eu131 N122 2.600 . S
Eu131 N132 2.562 . S
Eu131 O166 2.335 . S
Eu131 O169 2.372 . S
Eu131 O170 2.462 . S
Eu131 O171 2.373 1_554 S
Eu131 O173 2.432 . S
Eu131 O174 2.291 . S
Eu131 C195 2.787 . S
N132 C128 1.351 . S
N132 Eu131 2.562 . S
N132 C134 1.325 . S
C133 C127 1.404 . S
C133 C135 1.366 . S
C133 H141 0.930 . S
C134 N132 1.325 . S
C134 C135 1.416 . S
C134 H140 0.929 . S
C135 C133 1.366 . S
C135 C134 1.416 . S
C135 H137 0.930 . S
H136 C125 0.930 . S
H137 C135 0.930 . S
H138 C153 0.930 . S
H139 C160 0.930 . S
H140 C134 0.929 . S
H141 C133 0.930 . S
H142 C156 0.929 . S
H143 C123 0.931 . S
H144 C129 0.931 . S
H145 C130 0.931 . S
H146 C151 0.931 . S
H147 C126 0.929 . S
H148 C159 0.930 . S
N149 Eu120 2.600 . S
N149 C150 1.365 1_556 S
N149 C153 1.319 . S
C150 N149 1.365 1_554 S
C150 C152 1.405 . S
C150 C158 1.448 . S
C151 H146 0.931 . S
C151 C153 1.397 . S
C151 C154 1.367 1_556 S
C152 C150 1.405 . S
C152 C154 1.403 . S
C152 C185 1.439 . S
C153 H138 0.930 . S
C153 N149 1.319 . S
C153 C151 1.397 . S
C154 C151 1.367 1_554 S
C154 C152 1.403 . S
C154 H161 0.929 . S
N155 Eu120 2.562 1_554 S
N155 C156 1.325 . S
N155 C158 1.351 . S
C156 H142 0.929 . S
C156 N155 1.325 . S
C156 C160 1.416 . S
C157 C158 1.430 . S
C157 C159 1.404 . S
C157 C186 1.387 . S
C158 C150 1.448 . S
C158 N155 1.351 . S
C158 C157 1.430 . S
C159 H148 0.930 . S
C159 C157 1.404 . S
C159 C160 1.366 . S
C160 H139 0.930 . S
C160 C156 1.416 . S
C160 C159 1.366 . S
H161 C154 0.929 . S
H162 C185 0.931 . S
H163 C186 0.931 . S
O164 Eu120 2.462 . S
O164 C184 1.252 . S
O165 Eu120 2.373 1_554 S
O165 C176 1.249 . S
O166 Eu131 2.335 . S
O166 C176 1.264 . S
O167 Eu120 2.432 . S
O167 C184 1.268 . S
O168 Eu120 2.291 1_554 S
O168 C183 1.255 . S
O169 Eu131 2.372 . S
O169 C183 1.257 . S
O170 Eu131 2.462 . S
O170 C195 1.252 . S
O171 Eu131 2.373 1_556 S
O171 C187 1.249 . S
O172 Eu120 2.335 . S
O172 C187 1.264 . S
O173 Eu131 2.432 . S
O173 C195 1.268 . S
O174 Eu131 2.291 . S
O174 C194 1.255 . S
O175 Eu120 2.379 . S
O175 C194 1.241 1_556 S
C176 O165 1.249 . S
C176 O166 1.264 . S
C177 C180 1.382 . S
C177 C182 1.390 . S
C177 C184 1.506 . S
C178 C179 1.398 . S
C178 C182 1.392 . S
C179 C178 1.398 . S
C179 C181 1.372 . S
C179 H196 0.931 . S
C180 C177 1.382 . S
C180 C181 1.390 . S
C180 H197 0.931 . S
C181 C179 1.372 . S
C181 C180 1.390 . S
C181 H198 0.929 . S
C182 C177 1.390 . S
C182 C178 1.392 . S
C182 H199 0.930 . S
C183 O168 1.255 . S
C183 O169 1.257 . S
C184 Eu120 2.787 . S
C184 O164 1.252 . S
C184 O167 1.268 . S
C184 C177 1.506 . S
C185 C152 1.439 . S
C185 H162 0.931 . S
C185 C186 1.374 . S
C186 C157 1.387 . S
C186 H163 0.931 . S
C186 C185 1.374 . S
C187 O171 1.249 . S
C187 O172 1.264 . S
C188 C191 1.382 . S
C188 C192 1.390 . S
C188 C195 1.506 . S
C189 C190 1.398 . S
C189 C192 1.392 . S
C190 C189 1.398 . S
C190 C193 1.372 . S
C190 H200 0.931 . S
C191 C188 1.382 . S
C191 C193 1.390 . S
C191 H201 0.931 . S
C192 C188 1.390 . S
C192 C189 1.392 . S
C192 H202 0.930 . S
C193 C190 1.372 . S
C193 C191 1.390 . S
C193 H203 0.929 . S
C194 O174 1.255 . S
C194 O175 1.241 1_554 S
C195 Eu131 2.787 . S
C195 O170 1.252 . S
C195 O173 1.268 . S
C195 C188 1.506 . S
H196 C179 0.931 . S
H197 C180 0.931 . S
H198 C181 0.929 . S
H199 C182 0.930 . S
H200 C190 0.931 . S
H201 C191 0.931 . S
H202 C192 0.930 . S
H203 C193 0.929 . S
C204 C205 1.349 . S
C204 C206 1.327 . S
C204 H229 0.950 . S
C205 C204 1.349 . S
C205 C221 1.349 . S
C206 C204 1.327 . S
C206 C225 1.429 . S
C206 H230 0.950 . S
C207 C224 1.574 . S
C207 C226 1.368 . S
C207 H231 0.949 . S
H208 C212 0.949 . S
C209 C210 1.349 . S
C209 C211 1.327 . S
C209 H232 0.950 . S
C210 C209 1.349 . S
C210 C222 1.349 . S
C211 C209 1.327 . S
C211 C227 1.429 . S
C211 H233 0.950 . S
C212 H208 0.949 . S
C212 C220 1.574 . S
C212 C228 1.368 . S
H213 C221 0.950 . S
H214 C219 0.950 . S
H215 C220 0.949 . S
H216 C222 0.950 . S
H217 C223 0.950 . S
H218 C224 0.949 . S
C219 H214 0.950 . S
C219 C221 1.327 . S
C219 C225 1.429 . S
C220 C212 1.574 . S
C220 H215 0.949 . S
C220 C226 1.368 . S
C221 C205 1.349 . S
C221 H213 0.950 . S
C221 C219 1.327 . S
C222 C210 1.349 . S
C222 H216 0.950 . S
C222 C223 1.327 . S
C223 H217 0.950 . S
C223 C222 1.327 . S
C223 C227 1.429 . S
C224 C207 1.574 . S
C224 H218 0.949 . S
C224 C228 1.368 . S
C225 C206 1.429 . S
C225 C219 1.429 . S
C225 C226 1.523 . S
C226 C207 1.368 . S
C226 C220 1.368 . S
C226 C225 1.523 . S
C227 C211 1.429 . S
C227 C223 1.429 . S
C227 C228 1.523 . S
C228 C212 1.368 . S
C228 C224 1.368 . S
C228 C227 1.523 . S
H229 C204 0.950 . S
H230 C206 0.950 . S
H231 C207 0.949 . S
H232 C209 0.950 . S
H233 C211 0.950 . S
C234 C235 1.349 . S
C234 C236 1.327 . S
C234 H259 0.950 . S
C235 C234 1.349 . S
C235 C251 1.349 1_554 S
C236 C234 1.327 . S
C236 C255 1.429 . S
C236 H260 0.950 . S
C237 C254 1.574 . S
C237 C256 1.368 1_556 S
C237 H261 0.949 . S
H238 C242 0.949 . S
C239 C240 1.355 . S
C239 C241 1.329 1_554 S
C239 H262 0.942 1_554 S
C240 C239 1.355 . S
C240 C252 1.349 . S
C241 C239 1.329 1_556 S
C241 C257 1.429 1_556 S
C241 H263 0.950 . S
C242 H238 0.949 . S
C242 C250 1.574 . S
C242 C258 1.368 . S
H243 C251 0.950 . S
H244 C249 0.950 . S
H245 C250 0.949 . S
H246 C252 0.950 . S
H247 C253 0.950 . S
H248 C254 0.949 . S
C249 H244 0.950 . S
C249 C251 1.327 . S
C249 C255 1.429 1_556 S
C250 C242 1.574 . S
C250 H245 0.949 . S
C250 C256 1.368 . S
C251 C235 1.349 1_556 S
C251 H243 0.950 . S
C251 C249 1.327 . S
C252 C240 1.349 . S
C252 H246 0.950 . S
C252 C253 1.327 . S
C253 H247 0.950 . S
C253 C252 1.327 . S
C253 C257 1.429 . S
C254 C237 1.574 . S
C254 H248 0.949 . S
C254 C258 1.368 1_556 S
C255 C236 1.429 . S
C255 C249 1.429 1_554 S
C255 C256 1.523 . S
C256 C237 1.368 1_554 S
C256 C250 1.368 . S
C256 C255 1.523 . S
C257 C241 1.429 1_554 S
C257 C253 1.429 . S
C257 C258 1.523 . S
C258 C242 1.368 . S
C258 C254 1.368 1_554 S
C258 C257 1.523 . S
H259 C234 0.950 . S
H260 C236 0.950 . S
H261 C237 0.949 . S
H262 C239 0.942 1_556 S
H263 C241 0.950 . S
C264 C265 1.349 . S
C264 C266 1.327 . S
C264 H289 0.950 . S
C265 C264 1.349 . S
C265 C281 1.349 . S
C266 C264 1.327 . S
C266 C285 1.429 . S
C266 H290 0.950 . S
C267 C284 1.574 . S
C267 C286 1.368 . S
C267 H291 0.949 . S
H268 C272 0.949 . S
C269 C270 1.349 . S
C269 C271 1.327 . S
C269 H292 0.950 . S
C270 C269 1.349 . S
C270 C282 1.349 . S
C271 C269 1.327 . S
C271 C287 1.429 . S
C271 H293 0.950 . S
C272 H268 0.949 . S
C272 C280 1.574 . S
C272 C288 1.368 . S
H273 C281 0.950 . S
H274 C279 0.950 . S
H275 C280 0.949 . S
H276 C282 0.950 . S
H277 C283 0.950 . S
H278 C284 0.949 . S
C279 H274 0.950 . S
C279 C281 1.327 . S
C279 C285 1.429 . S
C280 C272 1.574 . S
C280 H275 0.949 . S
C280 C286 1.368 . S
C281 C265 1.349 . S
C281 H273 0.950 . S
C281 C279 1.327 . S
C282 C270 1.349 . S
C282 H276 0.950 . S
C282 C283 1.327 . S
C283 H277 0.950 . S
C283 C282 1.327 . S
C283 C287 1.429 . S
C284 C267 1.574 . S
C284 H278 0.949 . S
C284 C288 1.368 . S
C285 C266 1.429 . S
C285 C279 1.429 . S
C285 C286 1.523 . S
C286 C267 1.368 . S
C286 C280 1.368 . S
C286 C285 1.523 . S
C287 C271 1.429 . S
C287 C283 1.429 . S
C287 C288 1.523 . S
C288 C272 1.368 . S
C288 C284 1.368 . S
C288 C287 1.523 . S
H289 C264 0.950 . S
H290 C266 0.950 . S
H291 C267 0.949 . S
H292 C269 0.950 . S
H293 C271 0.950 . S
C294 C295 1.352 . S
C294 C296 1.328 1_554 S
C294 H319 0.946 1_554 S
C295 C294 1.352 . S
C295 C311 1.349 . S
C296 C294 1.328 1_556 S
C296 C315 1.429 1_556 S
C296 H320 0.950 . S
C297 C314 1.574 . S
C297 C316 1.368 . S
C297 H321 0.949 . S
H298 C302 0.949 . S
C299 C300 1.349 . S
C299 C301 1.327 . S
C299 H322 0.950 . S
C300 C299 1.349 . S
C300 C312 1.349 1_554 S
C301 C299 1.327 . S
C301 C317 1.429 . S
C301 H323 0.950 . S
C302 H298 0.949 . S
C302 C310 1.574 . S
C302 C318 1.368 1_556 S
H303 C311 0.950 . S
H304 C309 0.950 . S
H305 C310 0.949 . S
H306 C312 0.950 . S
H307 C313 0.950 . S
H308 C314 0.949 . S
C309 H304 0.950 . S
C309 C311 1.327 . S
C309 C315 1.429 . S
C310 C302 1.574 . S
C310 H305 0.949 . S
C310 C316 1.368 1_556 S
C311 C295 1.349 . S
C311 H303 0.950 . S
C311 C309 1.327 . S
C312 C300 1.349 1_556 S
C312 H306 0.950 . S
C312 C313 1.327 . S
C313 H307 0.950 . S
C313 C312 1.327 . S
C313 C317 1.429 1_556 S
C314 C297 1.574 . S
C314 H308 0.949 . S
C314 C318 1.368 . S
C315 C296 1.429 1_554 S
C315 C309 1.429 . S
C315 C316 1.523 . S
C316 C297 1.368 . S
C316 C310 1.368 1_554 S
C316 C315 1.523 . S
C317 C301 1.429 . S
C317 C313 1.429 1_554 S
C317 C318 1.523 . S
C318 C302 1.368 1_554 S
C318 C314 1.368 . S
C318 C317 1.523 . S
H319 C294 0.946 1_556 S
H320 C296 0.950 . S
H321 C297 0.949 . S
H322 C299 0.950 . S
H323 C301 0.950 . S
C324 C325 1.349 . S
C324 C326 1.327 . S
C324 H349 0.950 . S
C325 C324 1.349 . S
C325 C341 1.349 . S
C326 C324 1.327 . S
C326 C345 1.429 . S
C326 H350 0.950 . S
C327 C344 1.574 . S
C327 C346 1.368 . S
C327 H351 0.949 . S
H328 C332 0.949 . S
C329 C330 1.349 . S
C329 C331 1.327 . S
C329 H352 0.950 . S
C330 C329 1.349 . S
C330 C342 1.349 . S
C331 C329 1.327 . S
C331 C347 1.429 . S
C331 H353 0.950 . S
C332 H328 0.949 . S
C332 C340 1.574 . S
C332 C348 1.368 . S
H333 C341 0.950 . S
H334 C339 0.950 . S
H335 C340 0.949 . S
H336 C342 0.950 . S
H337 C343 0.950 . S
H338 C344 0.949 . S
C339 H334 0.950 . S
C339 C341 1.327 . S
C339 C345 1.429 . S
C340 C332 1.574 . S
C340 H335 0.949 . S
C340 C346 1.368 . S
C341 C325 1.349 . S
C341 H333 0.950 . S
C341 C339 1.327 . S
C342 C330 1.349 . S
C342 H336 0.950 . S
C342 C343 1.327 . S
C343 H337 0.950 . S
C343 C342 1.327 . S
C343 C347 1.429 . S
C344 C327 1.574 . S
C344 H338 0.949 . S
C344 C348 1.368 . S
C345 C326 1.429 . S
C345 C339 1.429 . S
C345 C346 1.523 . S
C346 C327 1.368 . S
C346 C340 1.368 . S
C346 C345 1.523 . S
C347 C331 1.429 . S
C347 C343 1.429 . S
C347 C348 1.523 . S
C348 C332 1.368 . S
C348 C344 1.368 . S
C348 C347 1.523 . S
H349 C324 0.950 . S
H350 C326 0.950 . S
H351 C327 0.949 . S
H352 C329 0.950 . S
H353 C331 0.950 . S
C354 C355 1.349 . S
C354 C356 1.327 . S
C354 H379 0.950 . S
C355 C354 1.349 . S
C355 C371 1.349 . S
C356 C354 1.327 . S
C356 C375 1.429 . S
C356 H380 0.950 . S
C357 C374 1.574 . S
C357 C376 1.368 . S
C357 H381 0.949 . S
H358 C362 0.949 . S
C359 C360 1.349 . S
C359 C361 1.327 . S
C359 H382 0.950 . S
C360 C359 1.349 . S
C360 C372 1.349 . S
C361 C359 1.327 . S
C361 C377 1.429 . S
C361 H383 0.950 . S
C362 H358 0.949 . S
C362 C370 1.574 . S
C362 C378 1.368 . S
H363 C371 0.950 . S
H364 C369 0.950 . S
H365 C370 0.949 . S
H366 C372 0.950 . S
H367 C373 0.950 . S
H368 C374 0.949 . S
C369 H364 0.950 . S
C369 C371 1.327 . S
C369 C375 1.429 . S
C370 C362 1.574 . S
C370 H365 0.949 . S
C370 C376 1.368 . S
C371 C355 1.349 . S
C371 H363 0.950 . S
C371 C369 1.327 . S
C372 C360 1.349 . S
C372 H366 0.950 . S
C372 C373 1.327 . S
C373 H367 0.950 . S
C373 C372 1.327 . S
C373 C377 1.429 . S
C374 C357 1.574 . S
C374 H368 0.949 . S
C374 C378 1.368 . S
C375 C356 1.429 . S
C375 C369 1.429 . S
C375 C376 1.523 . S
C376 C357 1.368 . S
C376 C370 1.368 . S
C376 C375 1.523 . S
C377 C361 1.429 . S
C377 C373 1.429 . S
C377 C378 1.523 . S
C378 C362 1.368 . S
C378 C374 1.368 . S
C378 C377 1.523 . S
H379 C354 0.950 . S
H380 C356 0.950 . S
H381 C357 0.949 . S
H382 C359 0.950 . S
H383 C361 0.950 . S
C384 C385 1.349 . S
C384 C386 1.327 . S
C384 H409 0.950 . S
C385 C384 1.349 . S
C385 C401 1.349 . S
C386 C384 1.327 . S
C386 C405 1.429 . S
C386 H410 0.950 . S
C387 C404 1.574 . S
C387 C406 1.368 . S
C387 H411 0.949 . S
H388 C392 0.949 . S
C389 C390 1.349 . S
C389 C391 1.327 . S
C389 H412 0.950 1_545 S
C390 C389 1.349 . S
C390 C402 1.349 . S
C391 C389 1.327 . S
C391 C407 1.429 . S
C391 H413 0.950 . S
C392 H388 0.949 . S
C392 C400 1.574 . S
C392 C408 1.368 . S
H393 C401 0.950 . S
H394 C399 0.950 . S
H395 C400 0.949 . S
H396 C402 0.950 . S
H397 C403 0.950 . S
H398 C404 0.949 . S
C399 H394 0.950 . S
C399 C401 1.327 . S
C399 C405 1.429 . S
C400 C392 1.574 . S
C400 H395 0.949 . S
C400 C406 1.368 . S
C401 C385 1.349 . S
C401 H393 0.950 . S
C401 C399 1.327 . S
C402 C390 1.349 . S
C402 H396 0.950 . S
C402 C403 1.327 . S
C403 H397 0.950 . S
C403 C402 1.327 . S
C403 C407 1.429 . S
C404 C387 1.574 . S
C404 H398 0.949 . S
C404 C408 1.368 . S
C405 C386 1.429 . S
C405 C399 1.429 . S
C405 C406 1.523 . S
C406 C387 1.368 . S
C406 C400 1.368 . S
C406 C405 1.523 . S
C407 C391 1.429 . S
C407 C403 1.429 . S
C407 C408 1.523 . S
C408 C392 1.368 . S
C408 C404 1.368 . S
C408 C407 1.523 . S
H409 C384 0.950 . S
H410 C386 0.950 . S
H411 C387 0.949 . S
H412 C389 0.950 1_565 S
H413 C391 0.950 . S
C414 C415 1.349 . S
C414 C416 1.327 . S
C414 H439 0.950 . S
C415 C414 1.349 . S
C415 C431 1.349 . S
C416 C414 1.327 . S
C416 C435 1.429 . S
C416 H440 0.950 . S
C417 C434 1.574 . S
C417 C436 1.368 . S
C417 H441 0.949 . S
H418 C422 0.949 . S
C419 C420 1.349 . S
C419 C421 1.327 . S
C419 H442 0.950 . S
C420 C419 1.349 . S
C420 C432 1.349 . S
C421 C419 1.327 . S
C421 C437 1.429 . S
C421 H443 0.950 . S
C422 H418 0.949 . S
C422 C430 1.574 . S
C422 C438 1.368 . S
H423 C431 0.950 . S
H424 C429 0.950 . S
H425 C430 0.949 . S
H426 C432 0.950 . S
H427 C433 0.950 . S
H428 C434 0.949 . S
C429 H424 0.950 . S
C429 C431 1.327 . S
C429 C435 1.429 . S
C430 C422 1.574 . S
C430 H425 0.949 . S
C430 C436 1.368 . S
C431 C415 1.349 . S
C431 H423 0.950 . S
C431 C429 1.327 . S
C432 C420 1.349 . S
C432 H426 0.950 . S
C432 C433 1.327 . S
C433 H427 0.950 . S
C433 C432 1.327 . S
C433 C437 1.429 . S
C434 C417 1.574 . S
C434 H428 0.949 . S
C434 C438 1.368 . S
C435 C416 1.429 . S
C435 C429 1.429 . S
C435 C436 1.523 . S
C436 C417 1.368 . S
C436 C430 1.368 . S
C436 C435 1.523 . S
C437 C421 1.429 . S
C437 C433 1.429 . S
C437 C438 1.523 . S
C438 C422 1.368 . S
C438 C434 1.368 . S
C438 C437 1.523 . S
H439 C414 0.950 . S
H440 C416 0.950 . S
H441 C417 0.949 . S
H442 C419 0.950 . S
H443 C421 0.950 . S
C444 C445 1.349 . S
C444 C446 1.327 . S
C444 H469 0.950 . S
C445 C444 1.349 . S
C445 C461 1.349 . S
C446 C444 1.327 . S
C446 C465 1.429 . S
C446 H470 0.950 . S
C447 C464 1.574 . S
C447 C466 1.368 . S
C447 H471 0.949 . S
H448 C452 0.949 . S
C449 C450 1.349 . S
C449 C451 1.327 . S
C449 H472 0.950 . S
C450 C449 1.349 . S
C450 C462 1.349 . S
C451 C449 1.327 . S
C451 C467 1.429 . S
C451 H473 0.950 . S
C452 H448 0.949 . S
C452 C460 1.574 . S
C452 C468 1.368 . S
H453 C461 0.950 . S
H454 C459 0.950 . S
H455 C460 0.949 . S
H456 C462 0.950 . S
H457 C463 0.950 . S
H458 C464 0.949 . S
C459 H454 0.950 . S
C459 C461 1.327 . S
C459 C465 1.429 . S
C460 C452 1.574 . S
C460 H455 0.949 . S
C460 C466 1.368 . S
C461 C445 1.349 . S
C461 H453 0.950 . S
C461 C459 1.327 . S
C462 C450 1.349 . S
C462 H456 0.950 . S
C462 C463 1.327 . S
C463 H457 0.950 . S
C463 C462 1.327 . S
C463 C467 1.429 . S
C464 C447 1.574 . S
C464 H458 0.949 . S
C464 C468 1.368 . S
C465 C446 1.429 . S
C465 C459 1.429 . S
C465 C466 1.523 . S
C466 C447 1.368 . S
C466 C460 1.368 . S
C466 C465 1.523 . S
C467 C451 1.429 . S
C467 C463 1.429 . S
C467 C468 1.523 . S
C468 C452 1.368 . S
C468 C464 1.368 . S
C468 C467 1.523 . S
H469 C444 0.950 . S
H470 C446 0.950 . S
H471 C447 0.949 . S
H472 C449 0.950 . S
H473 C451 0.950 . S
C474 C475 1.349 . S
C474 C476 1.327 . S
C474 H499 0.950 . S
C475 C474 1.349 . S
C475 C491 1.349 . S
C476 C474 1.327 . S
C476 C495 1.429 . S
C476 H500 0.950 . S
C477 C494 1.574 . S
C477 C496 1.368 . S
C477 H501 0.949 . S
H478 C482 0.949 . S
C479 C480 1.349 . S
C479 C481 1.327 . S
C479 H502 0.950 . S
C480 C479 1.349 . S
C480 C492 1.349 . S
C481 C479 1.327 . S
C481 C497 1.429 . S
C481 H503 0.950 . S
C482 H478 0.949 . S
C482 C490 1.574 . S
C482 C498 1.368 . S
H483 C491 0.950 1_554 S
H484 C489 0.950 . S
H485 C490 0.949 . S
H486 C492 0.950 . S
H487 C493 0.950 . S
H488 C494 0.949 . S
C489 H484 0.950 . S
C489 C491 1.327 . S
C489 C495 1.429 . S
C490 C482 1.574 . S
C490 H485 0.949 . S
C490 C496 1.368 . S
C491 C475 1.349 . S
C491 H483 0.950 1_556 S
C491 C489 1.327 . S
C492 C480 1.349 . S
C492 H486 0.950 . S
C492 C493 1.327 . S
C493 H487 0.950 . S
C493 C492 1.327 . S
C493 C497 1.429 . S
C494 C477 1.574 . S
C494 H488 0.949 . S
C494 C498 1.368 . S
C495 C476 1.429 . S
C495 C489 1.429 . S
C495 C496 1.523 . S
C496 C477 1.368 . S
C496 C490 1.368 . S
C496 C495 1.523 . S
C497 C481 1.429 . S
C497 C493 1.429 . S
C497 C498 1.523 . S
C498 C482 1.368 . S
C498 C494 1.368 . S
C498 C497 1.523 . S
H499 C474 0.950 . S
H500 C476 0.950 . S
H501 C477 0.949 . S
H502 C479 0.950 . S
H503 C481 0.950 . S
C504 C505 1.349 . S
C504 C506 1.327 . S
C504 H529 0.950 . S
C505 C504 1.349 . S
C505 C521 1.349 . S
C506 C504 1.327 . S
C506 C525 1.429 . S
C506 H530 0.950 . S
C507 C524 1.574 . S
C507 C526 1.368 . S
C507 H531 0.949 . S
H508 C512 0.949 . S
C509 C510 1.349 . S
C509 C511 1.327 . S
C509 H532 0.950 . S
C510 C509 1.349 . S
C510 C522 1.349 . S
C511 C509 1.327 . S
C511 C527 1.429 . S
C511 H533 0.950 . S
C512 H508 0.949 . S
C512 C520 1.574 . S
C512 C528 1.368 . S
H513 C521 0.950 . S
H514 C519 0.950 . S
H515 C520 0.949 . S
H516 C522 0.950 . S
H517 C523 0.950 . S
H518 C524 0.949 . S
C519 H514 0.950 . S
C519 C521 1.327 . S
C519 C525 1.429 . S
C520 C512 1.574 . S
C520 H515 0.949 . S
C520 C526 1.368 . S
C521 C505 1.349 . S
C521 H513 0.950 . S
C521 C519 1.327 . S
C522 C510 1.349 . S
C522 H516 0.950 . S
C522 C523 1.327 . S
C523 H517 0.950 . S
C523 C522 1.327 . S
C523 C527 1.429 . S
C524 C507 1.574 . S
C524 H518 0.949 . S
C524 C528 1.368 . S
C525 C506 1.429 . S
C525 C519 1.429 . S
C525 C526 1.523 . S
C526 C507 1.368 . S
C526 C520 1.368 . S
C526 C525 1.523 . S
C527 C511 1.429 . S
C527 C523 1.429 . S
C527 C528 1.523 . S
C528 C512 1.368 . S
C528 C524 1.368 . S
C528 C527 1.523 . S
H529 C504 0.950 . S
H530 C506 0.950 . S
H531 C507 0.949 . S
H532 C509 0.950 . S
H533 C511 0.950 . S
C534 C535 1.349 . S
C534 C536 1.327 . S
C534 H559 0.950 . S
C535 C534 1.349 . S
C535 C551 1.349 . S
C536 C534 1.327 . S
C536 C555 1.429 . S
C536 H560 0.950 . S
C537 C554 1.574 . S
C537 C556 1.368 . S
C537 H561 0.949 . S
H538 C542 0.949 . S
C539 C540 1.349 . S
C539 C541 1.327 . S
C539 H562 0.950 . S
C540 C539 1.349 . S
C540 C552 1.349 . S
C541 C539 1.327 . S
C541 C557 1.429 . S
C541 H563 0.950 . S
C542 H538 0.949 . S
C542 C550 1.574 . S
C542 C558 1.368 . S
H543 C551 0.950 . S
H544 C549 0.950 . S
H545 C550 0.949 . S
H546 C552 0.950 1_545 S
H547 C553 0.950 . S
H548 C554 0.949 . S
C549 H544 0.950 . S
C549 C551 1.327 . S
C549 C555 1.429 . S
C550 C542 1.574 . S
C550 H545 0.949 . S
C550 C556 1.368 . S
C551 C535 1.349 . S
C551 H543 0.950 . S
C551 C549 1.327 . S
C552 C540 1.349 . S
C552 H546 0.950 1_565 S
C552 C553 1.327 . S
C553 H547 0.950 . S
C553 C552 1.327 . S
C553 C557 1.429 . S
C554 C537 1.574 . S
C554 H548 0.949 . S
C554 C558 1.368 . S
C555 C536 1.429 . S
C555 C549 1.429 . S
C555 C556 1.523 . S
C556 C537 1.368 . S
C556 C550 1.368 . S
C556 C555 1.523 . S
C557 C541 1.429 . S
C557 C553 1.429 . S
C557 C558 1.523 . S
C558 C542 1.368 . S
C558 C554 1.368 . S
C558 C557 1.523 . S
H559 C534 0.950 . S
H560 C536 0.950 . S
H561 C537 0.949 . S
H562 C539 0.950 . S
H563 C541 0.950 . S
C210 C99 1.551 . S
C205 C34 1.570 . S
C235 C7 1.554 . S
C240 C194 1.537 . S
C265 C16 1.568 . S
C270 C110 1.551 . S
C295 C25 1.552 . S
C300 C183 1.537 . S
C330 C94 1.374 . S
C325 C5 1.532 . S
C360 C187 1.567 . S
C355 C13 1.564 . S
C385 C23 1.541 . S
C390 C103 1.547 . S
C415 C32 1.525 . S
C420 C178 1.374 . S
C450 C189 1.372 . S
C445 C14 1.521 . S
C480 C105 1.372 . S
C475 C22 1.530 1_556 S
C510 C176 1.565 . S
C505 C31 1.563 . S
C535 C4 1.537 . S
C540 C92 1.545 . S
