# Generated by pormake.
# Topology ftw, (4,12)-cn, num edge types: 1
# Building blocks:
#     Node 0, Type 0, BuildingBlock: NAWXER_clean_linker_0, # of connection points: 4
#     Node 1, Type 0, BuildingBlock: NAWXER_clean_linker_0, # of connection points: 4
#     Node 2, Type 0, BuildingBlock: NAWXER_clean_linker_0, # of connection points: 4
#     Node 3, Type 1, BuildingBlock: EZIPEK_clean_sbu_0, # of connection points: 12
#     Edge 4, Type (0, 1), BuildingBlock: EZIPEK_clean_linker_0, # of connection points: 2
#     Edge 5, Type (0, 1), BuildingBlock: EZIPEK_clean_linker_0, # of connection points: 2
#     Edge 6, Type (0, 1), BuildingBlock: EZIPEK_clean_linker_0, # of connection points: 2
#     Edge 7, Type (0, 1), BuildingBlock: EZIPEK_clean_linker_0, # of connection points: 2
#     Edge 8, Type (0, 1), BuildingBlock: EZIPEK_clean_linker_0, # of connection points: 2
#     Edge 9, Type (0, 1), BuildingBlock: EZIPEK_clean_linker_0, # of connection points: 2
#     Edge 10, Type (0, 1), BuildingBlock: EZIPEK_clean_linker_0, # of connection points: 2
#     Edge 11, Type (0, 1), BuildingBlock: EZIPEK_clean_linker_0, # of connection points: 2
#     Edge 12, Type (0, 1), BuildingBlock: EZIPEK_clean_linker_0, # of connection points: 2
#     Edge 13, Type (0, 1), BuildingBlock: EZIPEK_clean_linker_0, # of connection points: 2
#     Edge 14, Type (0, 1), BuildingBlock: EZIPEK_clean_linker_0, # of connection points: 2
#     Edge 15, Type (0, 1), BuildingBlock: EZIPEK_clean_linker_0, # of connection points: 2
# Relax obj value: 0.032
# Max RMSD: 0.131
# Mean RMSD: 0.100
data_MOF--net-ftw--node1-EZIPEK_clean_sbu_0--node2-NAWXER_clean_linker_0--edge1-EZIPEK_clean_linker_0
_symmetry_space_group_name_H-M    P1
_symmetry_Int_Tables_number       1
_symmetry_cell_setting            triclinic
loop_
_symmetry_equiv_pos_as_xyz
'x, y, z'
_cell_length_a     22.04748
_cell_length_b     23.133167
_cell_length_c     22.555177
_cell_angle_alpha  89.897838
_cell_angle_beta   89.971891
_cell_angle_gamma 89.857604
loop_
_atom_site_label
_atom_site_type_symbol
_atom_site_fract_x
_atom_site_fract_y
_atom_site_fract_z
_atom_type_partial_charge
C0 C 0.04471 0.66136 0.65824 0.0
C1 C 0.99367 0.69646 0.66832 0.0
C2 C 0.04419 0.61957 0.61334 0.0
C3 C 0.99256 0.61166 0.57778 0.0
C4 C 0.94228 0.68931 0.63213 0.0
C5 C 0.94133 0.64651 0.58806 0.0
C6 C 0.98918 0.56008 0.53891 0.0
C7 C 0.96226 0.70262 0.39494 0.0
C8 C 0.01211 0.70734 0.35517 0.0
C9 C 0.95829 0.65787 0.43704 0.0
C10 C 0.00268 0.61458 0.43986 0.0
C11 C 0.05279 0.65978 0.35514 0.0
C12 C 0.04915 0.61557 0.39743 0.0
C13 C -0.0053 0.5615 0.47659 0.0
C14 C 0.97611 0.30679 0.40092 0.0
C15 C -0.00293 0.31827 0.34296 0.0
C16 C 0.97441 0.35066 0.44419 0.0
C17 C -0.00246 0.40625 0.43183 0.0
C18 C 0.01842 0.37388 0.33025 0.0
C19 C 0.02029 0.4163 0.37406 0.0
C20 C 0.99418 0.45702 0.47371 0.0
C21 C 0.03632 0.31912 0.61982 0.0
C22 C 0.9914 0.31649 0.66414 0.0
C23 C 0.03444 0.36255 0.57599 0.0
C24 C 0.98694 0.40334 0.57518 0.0
C25 C 0.94377 0.35672 0.66282 0.0
C26 C 0.94165 0.39961 0.61902 0.0
C27 C 0.98874 0.45581 0.53678 0.0
H28 H 0.08471 0.66587 0.6857 0.0
H29 H 0.08356 0.59202 0.60758 0.0
H30 H 0.90217 0.71545 0.63953 0.0
H31 H 0.89974 0.63913 0.5638 0.0
H32 H 0.92373 0.73129 0.39233 0.0
H33 H 0.91824 0.65525 0.4645 0.0
H34 H 0.08637 0.65379 0.32102 0.0
H35 H 0.08159 0.58035 0.39522 0.0
H36 H 0.95881 0.26434 0.41202 0.0
H37 H 0.95307 0.34086 0.48603 0.0
H38 H 0.03427 0.38455 0.28609 0.0
H39 H 0.03865 0.45795 0.36155 0.0
H40 H 0.07358 0.28853 0.62012 0.0
H41 H 0.07092 0.36537 0.54395 0.0
H42 H 0.90868 0.35553 0.69644 0.0
H43 H 0.90521 0.43109 0.62033 0.0
N44 N 0.98657 0.50746 0.56593 0.0
N45 N -0.00322 0.51017 0.44757 0.0
C46 C 0.60641 0.0945 0.70017 0.0
C47 C 0.6534 0.05352 0.69928 0.0
C48 C 0.56278 0.09453 0.65521 0.0
C49 C 0.56563 0.05294 0.60993 0.0
C50 C 0.65584 1.01195 0.65444 0.0
C51 C 0.61226 1.01157 0.61022 0.0
C52 C 0.52556 0.05547 0.55799 0.0
C53 C 0.39141 1.01137 0.70156 0.0
C54 C 0.33875 0.0454 0.70297 0.0
C55 C 0.43435 0.01987 0.65697 0.0
C56 C 0.42586 0.06371 0.61445 0.0
C57 C 0.33115 0.09029 0.66187 0.0
C58 C 0.37454 0.09956 0.61814 0.0
C59 C 0.46264 0.06528 0.55996 0.0
C60 C 0.37555 0.02367 0.31415 0.0
C61 C 0.33662 0.07201 0.30641 0.0
C62 C 0.41686 0.02095 0.36082 0.0
C63 C 0.41965 0.06583 0.40202 0.0
C64 C 0.33687 0.1142 0.35167 0.0
C65 C 0.37858 0.1117 0.39782 0.0
C66 C 0.45901 0.06215 0.45428 0.0
C67 C 0.59307 0.05989 0.30017 0.0
C68 C 0.64131 0.02058 0.307 0.0
C69 C 0.55205 0.06871 0.34655 0.0
C70 C 0.55702 0.03594 0.39885 0.0
C71 C 0.64529 0.98703 0.35847 0.0
C72 C 0.60303 0.99398 0.40348 0.0
C73 C 0.52141 0.049 0.45258 0.0
H74 H 0.60398 0.12646 0.73513 0.0
H75 H 0.52805 0.12771 0.65499 0.0
H76 H 0.6916 0.9797 0.65379 0.0
H77 H 0.61549 0.97925 0.57562 0.0
H78 H 0.39778 0.97663 0.73325 0.0
H79 H 0.47208 0.99001 0.65393 0.0
H80 H 0.29079 0.11711 0.66273 0.0
H81 H 0.36663 0.13313 0.58545 0.0
H82 H 0.37329 0.98637 0.28546 0.0
H83 H 0.44527 0.98296 0.36564 0.0
H84 H 0.30436 0.14866 0.3545 0.0
H85 H 0.37774 0.14526 0.43131 0.0
H86 H 0.58946 0.08607 0.26045 0.0
H87 H 0.51859 0.10275 0.34235 0.0
H88 H 0.68208 0.95641 0.36442 0.0
H89 H 0.60795 0.96805 0.44327 0.0
N90 N 0.55195 0.04731 0.50454 0.0
N91 N 0.4322 0.06933 0.50788 0.0
C92 C 0.37815 0.31835 0.97538 0.0
C93 C 0.33011 0.31821 0.01626 0.0
C94 C 0.42274 0.36127 0.97809 0.0
C95 C 0.41999 0.40426 0.02205 0.0
C96 C 0.32816 0.36013 0.06095 0.0
C97 C 0.37257 0.40289 0.06368 0.0
C98 C 0.46017 0.45541 0.02014 0.0
C99 C 0.59759 0.31199 0.05601 0.0
C100 C 0.64414 0.30813 0.0137 0.0
C101 C 0.55555 0.35747 0.05343 0.0
C102 C 0.55966 0.39939 0.00837 0.0
C103 C 0.64703 0.34882 0.96774 0.0
C104 C 0.60537 0.3942 0.96528 0.0
C105 C 0.52326 0.45317 0.01039 0.0
C106 C 0.6094 0.69694 0.04526 0.0
C107 C 0.65881 0.69312 1.00603 0.0
C108 C 0.56475 0.65388 0.04571 0.0
C109 C 0.56802 0.60742 1.00561 0.0
C110 C 0.6617 0.64709 0.96584 0.0
C111 C 0.61664 0.60504 0.96534 0.0
C112 C 0.52715 0.55674 0.00976 0.0
C113 C 0.3923 0.7043 0.98133 0.0
C114 C 0.34187 0.70412 0.01952 0.0
C115 C 0.4339 0.65835 0.9823 0.0
C116 C 0.42674 0.61261 0.02295 0.0
C117 C 0.33535 0.65902 0.06056 0.0
C118 C 0.37747 0.61408 0.06252 0.0
C119 C 0.46383 0.55904 0.01987 0.0
H120 H 0.38014 0.28621 0.94056 0.0
H121 H 0.45765 0.36226 0.94433 0.0
H122 H 0.29144 0.3605 0.09289 0.0
H123 H 0.36904 0.43589 0.09756 0.0
H124 H 0.5949 0.28081 0.09179 0.0
H125 H 0.52176 0.3613 0.08806 0.0
H126 H 0.68264 0.34631 0.93471 0.0
H127 H 0.60985 0.4263 0.93051 0.0
H128 H 0.60658 0.73215 0.07675 0.0
H129 H 0.52916 0.65591 0.07872 0.0
H130 H 0.69944 0.64332 0.93527 0.0
H131 H 0.62075 0.56952 0.93431 0.0
H132 H 0.39796 0.73873 0.94921 0.0
H133 H 0.46996 0.65758 0.94974 0.0
H134 H 0.2968 0.65801 0.09037 0.0
H135 H 0.37039 0.57927 0.09398 0.0
N136 N 0.43341 0.50817 0.02463 0.0
N137 N 0.55377 0.50384 1.00548 0.0
C138 C 0.99226 0.14651 0.85967 0.0
C139 C 0.99009 0.14722 0.15174 0.0
C140 C -0.00456 0.86682 0.86131 0.0
C141 C -0.00124 0.86669 0.15355 0.0
C142 C 0.14596 0.87139 0.01347 0.0
C143 C 0.135 0.151 1.00518 0.0
C144 C 0.85425 0.85958 1.00416 0.0
C145 C 0.83978 0.14033 0.01222 0.0
C146 C 0.8421 1.00211 0.14477 0.0
C147 C 0.13848 0.02335 0.14988 0.0
C148 C 0.84696 0.01922 0.86549 0.0
C149 C 0.14255 1.00823 0.86686 0.0
Eu150 Eu 0.98807 0.11753 1.00597 0.0
O151 O 0.04233 0.05965 0.059 0.0
O152 O 0.93857 0.05607 0.95346 0.0
Eu153 Eu 0.10607 1.01033 0.00795 0.0
Eu154 Eu 0.8806 1.00173 1.00577 0.0
O155 O 0.04458 0.06029 0.95453 0.0
O156 O 0.93758 0.05631 0.05892 0.0
Eu157 Eu -0.00548 1.00688 0.89394 0.0
Eu158 Eu 0.99199 1.00678 0.12 0.0
O159 O 0.04928 0.95644 0.95426 0.0
O160 O 0.04857 0.95629 0.06125 0.0
O161 O 0.9422 0.95243 0.05979 0.0
O162 O 0.94327 0.95219 0.95335 0.0
Eu163 Eu -0.00134 0.89569 1.00741 0.0
O164 O 0.97775 0.16244 0.91508 0.0
O165 O 0.98811 0.16546 0.0952 0.0
O166 O 0.00663 0.84971 0.91723 0.0
O167 O -0.00265 0.84803 0.09719 0.0
O168 O 0.16146 0.9272 0.01436 0.0
O169 O 0.15449 0.09637 1.00516 0.0
O170 O 0.83375 0.91399 1.00155 0.0
O171 O 0.82516 0.08432 0.01343 0.0
O172 O 0.89878 1.00724 0.16568 0.0
O173 O 0.08231 1.01298 0.16965 0.0
O174 O 0.90423 0.01901 0.84597 0.0
O175 O 0.08576 1.00488 0.84643 0.0
O176 O 0.91222 0.84338 1.00658 0.0
O177 O 0.08972 0.85069 0.01038 0.0
O178 O 0.89594 0.16152 0.00827 0.0
O179 O 0.07694 0.16817 1.0049 0.0
O180 O 0.99159 0.09209 0.16942 0.0
O181 O -0.00213 0.92209 0.17028 0.0
O182 O 0.00738 0.09241 0.84509 0.0
O183 O 0.98422 0.92147 0.8451 0.0
O184 O 0.15926 1.0107 0.92334 0.0
O185 O 0.15485 0.02544 0.09325 0.0
O186 O 0.82916 1.01112 0.92108 0.0
O187 O 0.82612 0.99693 0.08852 0.0
C188 C 0.04855 0.26162 0.26025 0.0
C189 C -0.00433 0.27329 0.29468 0.0
C190 C 0.94216 0.19743 0.23982 0.0
C191 C 0.99169 0.19172 0.19993 0.0
N192 N 0.09034 0.22443 0.1682 0.0
N193 N 0.88701 0.26225 0.30405 0.0
C194 C 0.04414 0.22629 0.20852 0.0
C195 C 0.94099 0.24394 0.28086 0.0
N196 N 0.1036 0.28187 0.27859 0.0
N197 N 0.89645 0.15791 0.23972 0.0
H198 H 0.88304 0.29858 0.33103 0.0
H199 H 0.84537 0.2454 0.29072 0.0
H200 H 0.8959 0.12269 0.21122 0.0
H201 H 0.8628 0.15693 0.2722 0.0
H202 H 0.14421 0.273 0.25696 0.0
H203 H 0.10967 0.30306 0.31891 0.0
H204 H 0.12689 0.25286 0.16873 0.0
H205 H 0.08997 0.19719 0.1315 0.0
C206 C 0.70312 0.96238 0.23515 0.0
C207 C 0.69025 1.01638 0.26232 0.0
C208 C 0.76957 0.06152 0.20332 0.0
C209 C 0.79064 1.00632 0.18608 0.0
N210 N 0.77593 0.90328 0.18213 0.0
N211 N 0.71974 0.11579 0.28004 0.0
C212 C 0.75698 0.95629 0.20115 0.0
C213 C 0.7257 0.06568 0.24856 0.0
N214 N 0.6625 0.91802 0.23958 0.0
N215 N 0.78825 0.10986 0.17392 0.0
H216 H 0.69072 0.12017 0.31624 0.0
H217 H 0.74844 0.15106 0.27386 0.0
H218 H 0.81895 0.10823 0.1388 0.0
H219 H 0.76895 0.15045 0.18111 0.0
H220 H 0.66661 0.87936 0.21634 0.0
H221 H 0.62132 0.92197 0.26204 0.0
H222 H 0.75766 0.86452 0.19733 0.0
H223 H 0.81238 0.89823 0.15323 0.0
C224 C 0.06257 0.75758 0.26477 0.0
C225 C 0.01672 0.75646 0.30916 0.0
C226 C 0.96189 0.83128 0.25296 0.0
C227 C 0.00141 0.82371 0.2036 0.0
N228 N 0.08764 0.77275 0.16195 0.0
N229 N 0.9552 0.82708 0.35941 0.0
C230 C 0.05082 0.78441 0.20905 0.0
C231 C 0.97459 0.80295 0.30762 0.0
N232 N 0.12089 0.74423 0.27967 0.0
N233 N 0.91111 0.8647 0.24761 0.0
H234 H 0.97364 0.81482 0.40019 0.0
H235 H 0.92885 0.86453 0.36111 0.0
H236 H 0.8993 0.88511 0.20808 0.0
H237 H 0.87806 0.86713 0.28063 0.0
H238 H 0.15734 0.7495 0.2507 0.0
H239 H 0.13354 0.73725 0.32373 0.0
H240 H 0.12059 0.74033 0.16333 0.0
H241 H 0.08233 0.79159 0.1204 0.0
C242 C 0.23793 0.106 0.2573 0.0
C243 C 0.29183 0.07302 0.25556 0.0
C244 C 0.24701 1.01155 0.17996 0.0
C245 C 0.18872 0.03592 0.19203 0.0
N246 N 0.12974 0.10758 0.24628 0.0
N247 N 0.35544 0.02631 0.18401 0.0
C248 C 0.18418 0.0829 0.2326 0.0
C249 C 0.29904 0.03493 0.20741 0.0
N250 N 0.24104 0.16367 0.26893 0.0
N251 N 0.25272 0.96466 0.14381 0.0
H252 H 0.39327 0.0483 0.20026 0.0
H253 H 0.36321 1.00353 0.1449 0.0
H254 H 0.21579 0.94564 0.12318 0.0
H255 H 0.29316 0.94173 0.13881 0.0
H256 H 0.20377 0.19118 0.26558 0.0
H257 H 0.28272 0.18496 0.27069 0.0
H258 H 0.12533 0.13851 0.27963 0.0
H259 H 0.08878 0.09457 0.22831 0.0
C260 C 0.02801 0.79136 0.7117 0.0
C261 C 0.99387 0.73984 0.71772 0.0
C262 C 0.96329 0.76894 0.81882 0.0
C263 C -0.00399 0.82195 0.81244 0.0
N264 N 0.05788 0.88427 0.75061 0.0
N265 N 0.92662 0.6796 0.77456 0.0
C266 C 0.02783 0.83318 0.75822 0.0
C267 C 0.96109 0.72862 0.77075 0.0
N268 N 0.06209 0.79968 0.66163 0.0
N269 N 0.93398 0.75684 0.87082 0.0
H270 H 0.92735 0.64711 0.74259 0.0
H271 H 0.89496 0.67161 0.80773 0.0
H272 H 0.92702 0.78688 0.90425 0.0
H273 H 0.91737 0.7163 0.88225 0.0
H274 H 0.09521 0.83134 0.65723 0.0
H275 H 0.05968 0.77284 0.62463 0.0
H276 H 0.0726 0.89988 0.7098 0.0
H277 H 0.06737 0.91256 0.78493 0.0
C278 C 0.2761 0.07637 0.78928 0.0
C279 C 0.2903 0.03373 0.74654 0.0
C280 C 0.21173 0.97075 0.78732 0.0
C281 C 0.19191 1.01669 0.82383 0.0
N282 N 0.19888 0.11682 0.85269 0.0
N283 N 0.2645 0.94414 0.6975 0.0
C284 C 0.22234 0.07058 0.82289 0.0
C285 C 0.25618 0.98182 0.74339 0.0
N286 N 0.31482 0.12146 0.79896 0.0
N287 N 0.1904 0.91615 0.79643 0.0
H288 H 0.29575 0.95115 0.66355 0.0
H289 H 0.23639 0.90868 0.69031 0.0
H290 H 0.1597 0.90655 0.83014 0.0
H291 H 0.20759 0.87997 0.77462 0.0
H292 H 0.30961 0.15053 0.83384 0.0
H293 H 0.35555 0.12637 0.77595 0.0
H294 H 0.21606 0.1585 0.84831 0.0
H295 H 0.15872 0.11451 0.87696 0.0
C296 C 0.96663 0.21778 0.70515 0.0
C297 C 0.99391 0.27239 0.71291 0.0
C298 C 0.01196 0.24941 0.81826 0.0
C299 C 0.99053 0.19131 0.80974 0.0
N300 N 0.95114 0.12055 0.73915 0.0
N301 N 0.05248 0.33672 0.77335 0.0
C302 C 0.96941 0.17562 0.75144 0.0
C303 C 0.01932 0.28706 0.76842 0.0
N304 N 0.93531 0.20676 0.65403 0.0
N305 N 0.02442 0.27041 0.87354 0.0
H306 H 0.05795 0.3659 0.73844 0.0
H307 H 0.07927 0.34627 0.81009 0.0
H308 H 0.02614 0.24624 0.91214 0.0
H309 H 0.03016 0.31432 0.88201 0.0
H310 H 0.90669 0.17138 0.64872 0.0
H311 H 0.93396 0.2354 0.61826 0.0
H312 H 0.94754 0.1046 0.69612 0.0
H313 H 0.93964 0.09013 0.77086 0.0
C314 C 0.69716 1.00299 0.78595 0.0
C315 C 0.69898 0.05065 0.74678 0.0
C316 C 0.79376 0.08285 0.79158 0.0
C317 C 0.79743 0.02968 0.8228 0.0
N318 N 0.75513 0.93612 0.84509 0.0
N319 N 0.7517 0.1336 0.70723 0.0
C320 C 0.74955 0.98903 0.81896 0.0
C321 C 0.74794 0.09018 0.74817 0.0
N322 N 0.64508 0.97149 0.79186 0.0
N323 N 0.83116 0.1276 0.80605 0.0
H324 H 0.71839 0.14094 0.67525 0.0
H325 H 0.79001 0.15953 0.7025 0.0
H326 H 0.86321 0.12472 0.83991 0.0
H327 H 0.82621 0.16909 0.78861 0.0
H328 H 0.63926 0.93967 0.82409 0.0
H329 H 0.60548 0.9812 0.76849 0.0
H330 H 0.72439 0.90259 0.83873 0.0
H331 H 0.79369 0.92428 0.86863 0.0
C332 C 0.23473 0.28134 0.96833 0.0
C333 C 0.28063 0.27502 0.012 0.0
C334 C 0.2255 0.19393 0.05583 0.0
C335 C 0.18306 0.19593 0.00847 0.0
N336 N 0.15332 0.23571 0.91397 0.0
N337 N 0.32564 0.21944 0.09112 0.0
C338 C 0.18911 0.23825 0.96322 0.0
C339 C 0.2778 0.22948 0.05389 0.0
N340 N 0.23382 0.32921 0.93272 0.0
N341 N 0.21435 0.16007 0.10421 0.0
H342 H 0.36472 0.24478 0.09107 0.0
H343 H 0.32895 0.183 0.11814 0.0
H344 H 0.1749 0.13586 0.10877 0.0
H345 H 0.24068 0.16118 0.14244 0.0
H346 H 0.19778 0.33936 0.9047 0.0
H347 H 0.26682 0.36138 0.93463 0.0
H348 H 0.1599 0.26152 0.87664 0.0
H349 H 0.12081 0.2037 0.90793 0.0
C350 C 0.2565 0.7539 0.96463 0.0
C351 C 0.29396 0.7495 0.01579 0.0
C352 C 0.22792 0.81791 0.06772 0.0
C353 C 0.19574 0.82832 0.01449 0.0
N354 N 0.18199 0.81009 0.91016 0.0
N355 N 0.32205 0.78626 0.11205 0.0
C356 C 0.21094 0.79754 0.96219 0.0
C357 C 0.28168 0.78427 0.06616 0.0
N358 N 0.26195 0.71444 0.91986 0.0
N359 N 0.20526 0.83721 0.12041 0.0
H360 H 0.36288 0.76336 0.11184 0.0
H361 H 0.31778 0.81508 0.14728 0.0
H362 H 0.16473 0.86042 0.12333 0.0
H363 H 0.22357 0.82559 0.16134 0.0
H364 H 0.23164 0.71182 0.88458 0.0
H365 H 0.29339 0.68073 0.9205 0.0
H366 H 0.19593 0.79411 0.86921 0.0
H367 H 0.14631 0.83964 0.9074 0.0
C368 C 0.68845 0.2143 0.97964 0.0
C369 C 0.69159 0.26267 0.01776 0.0
C370 C 0.78848 0.22744 0.05762 0.0
C371 C 0.78873 0.18258 0.01454 0.0
N372 N 0.74408 0.14069 0.92676 0.0
N373 N 0.74747 0.32014 0.08803 0.0
C374 C 0.73985 0.17771 0.97368 0.0
C375 C 0.74236 0.27056 0.05552 0.0
N376 N 0.63609 0.20312 0.94935 0.0
N377 N 0.83087 0.22782 0.10187 0.0
H378 H 0.71397 0.35206 0.08886 0.0
H379 H 0.78671 0.33164 0.11077 0.0
H380 H 0.86494 0.19678 0.10573 0.0
H381 H 0.82889 0.25554 0.13815 0.0
H382 H 0.62881 0.16509 0.92576 0.0
H383 H 0.59771 0.22946 0.95226 0.0
H384 H 0.71284 0.13958 0.89215 0.0
H385 H 0.78225 0.1154 0.91897 0.0
C386 C 0.72071 0.76955 0.95569 0.0
C387 C 0.70891 0.73611 1.00714 0.0
C388 C 0.79567 0.78153 0.05706 0.0
C389 C 0.80819 0.81304 1.00442 0.0
N390 N 0.79747 0.8186 0.89862 0.0
N391 N 0.74342 0.70026 0.10202 0.0
C392 C 0.775 0.80179 0.95221 0.0
C393 C 0.74867 0.7393 0.05673 0.0
N394 N 0.67933 0.77195 0.91067 0.0
N395 N 0.82859 0.79194 0.10721 0.0
H396 H 0.71056 0.66795 0.10281 0.0
H397 H 0.77473 0.69651 0.13635 0.0
H398 H 0.86554 0.81997 0.10804 0.0
H399 H 0.81732 0.77543 0.14873 0.0
H400 H 0.68376 0.79993 0.87464 0.0
H401 H 0.63785 0.7504 0.91221 0.0
H402 H 0.77857 0.8056 0.85844 0.0
H403 H 0.8386 0.84043 0.89452 0.0
loop_
_geom_bond_atom_site_label_1
_geom_bond_atom_site_label_2
_geom_bond_distance
_geom_bond_site_symmetry_2
_ccdc_geom_bond_type
C0 C1 1.384 1_455 S
C0 C2 1.384 . S
C0 H28 0.931 . S
C1 C0 1.384 1_655 S
C1 C4 1.382 . S
C2 C0 1.384 . S
C2 C3 1.381 1_455 S
C2 H29 0.930 . S
C3 C2 1.381 1_655 S
C3 C5 1.381 . S
C3 C6 1.487 . S
C4 C1 1.382 . S
C4 C5 1.387 . S
C4 H30 0.930 . S
C5 C3 1.381 . S
C5 C4 1.387 . S
C5 H31 0.931 . S
C6 C3 1.487 . S
C6 C13 1.399 1_655 S
C6 N44 1.343 . S
C7 C8 1.384 1_655 S
C7 C9 1.384 . S
C7 H32 0.931 . S
C8 C7 1.384 1_455 S
C8 C11 1.382 . S
C9 C7 1.384 . S
C9 C10 1.381 1_655 S
C9 H33 0.930 . S
C10 C9 1.381 1_455 S
C10 C12 1.381 . S
C10 C13 1.487 . S
C11 C8 1.382 . S
C11 C12 1.387 . S
C11 H34 0.930 . S
C12 C10 1.381 . S
C12 C11 1.387 . S
C12 H35 0.931 . S
C13 C6 1.399 1_455 S
C13 C10 1.487 . S
C13 N45 1.343 . S
C14 C15 1.384 1_655 S
C14 C16 1.384 . S
C14 H36 0.931 . S
C15 C14 1.384 1_455 S
C15 C18 1.382 . S
C16 C14 1.384 . S
C16 C17 1.381 1_655 S
C16 H37 0.930 . S
C17 C16 1.381 1_455 S
C17 C19 1.381 . S
C17 C20 1.487 . S
C18 C15 1.382 . S
C18 C19 1.387 . S
C18 H38 0.930 . S
C19 C17 1.381 . S
C19 C18 1.387 . S
C19 H39 0.931 . S
C20 C17 1.487 . S
C20 C27 1.399 1_455 S
C20 N45 1.343 . S
C21 C22 1.384 1_455 S
C21 C23 1.384 . S
C21 H40 0.931 . S
C22 C21 1.384 1_655 S
C22 C25 1.382 . S
C23 C21 1.384 . S
C23 C24 1.381 1_455 S
C23 H41 0.930 . S
C24 C23 1.381 1_655 S
C24 C26 1.381 . S
C24 C27 1.487 . S
C25 C22 1.382 . S
C25 C26 1.387 . S
C25 H42 0.930 . S
C26 C24 1.381 . S
C26 C25 1.387 . S
C26 H43 0.931 . S
C27 C20 1.399 1_655 S
C27 C24 1.487 . S
C27 N44 1.343 . S
H28 C0 0.931 . S
H29 C2 0.930 . S
H30 C4 0.930 . S
H31 C5 0.931 . S
H32 C7 0.931 . S
H33 C9 0.930 . S
H34 C11 0.930 . S
H35 C12 0.931 . S
H36 C14 0.931 . S
H37 C16 0.930 . S
H38 C18 0.930 . S
H39 C19 0.931 . S
H40 C21 0.931 . S
H41 C23 0.930 . S
H42 C25 0.930 . S
H43 C26 0.931 . S
N44 C6 1.343 . S
N44 C27 1.343 . S
N45 C13 1.343 . S
N45 C20 1.343 . S
C46 C47 1.384 1_545 S
C46 C48 1.384 . S
C46 H74 0.931 . S
C47 C46 1.384 1_565 S
C47 C50 1.382 . S
C48 C46 1.384 . S
C48 C49 1.381 1_545 S
C48 H75 0.930 . S
C49 C48 1.381 1_565 S
C49 C51 1.381 . S
C49 C52 1.487 . S
C50 C47 1.382 . S
C50 C51 1.387 . S
C50 H76 0.930 . S
C51 C49 1.381 . S
C51 C50 1.387 . S
C51 H77 0.931 . S
C52 C49 1.487 . S
C52 C59 1.399 1_565 S
C52 N90 1.343 . S
C53 C54 1.384 1_565 S
C53 C55 1.384 . S
C53 H78 0.931 . S
C54 C53 1.384 1_545 S
C54 C57 1.382 . S
C55 C53 1.384 . S
C55 C56 1.381 1_565 S
C55 H79 0.930 . S
C56 C55 1.381 1_545 S
C56 C58 1.381 . S
C56 C59 1.487 . S
C57 C54 1.382 . S
C57 C58 1.387 . S
C57 H80 0.930 . S
C58 C56 1.381 . S
C58 C57 1.387 . S
C58 H81 0.931 . S
C59 C52 1.399 1_545 S
C59 C56 1.487 . S
C59 N91 1.343 . S
C60 C61 1.384 1_565 S
C60 C62 1.384 . S
C60 H82 0.931 . S
C61 C60 1.384 1_545 S
C61 C64 1.382 . S
C62 C60 1.384 . S
C62 C63 1.381 1_565 S
C62 H83 0.930 . S
C63 C62 1.381 1_545 S
C63 C65 1.381 . S
C63 C66 1.487 . S
C64 C61 1.382 . S
C64 C65 1.387 . S
C64 H84 0.930 . S
C65 C63 1.381 . S
C65 C64 1.387 . S
C65 H85 0.931 . S
C66 C63 1.487 . S
C66 C73 1.399 1_545 S
C66 N91 1.343 . S
C67 C68 1.384 1_545 S
C67 C69 1.384 . S
C67 H86 0.931 . S
C68 C67 1.384 1_565 S
C68 C71 1.382 . S
C69 C67 1.384 . S
C69 C70 1.381 1_545 S
C69 H87 0.930 . S
C70 C69 1.381 1_565 S
C70 C72 1.381 . S
C70 C73 1.487 . S
C71 C68 1.382 . S
C71 C72 1.387 . S
C71 H88 0.930 . S
C72 C70 1.381 . S
C72 C71 1.387 . S
C72 H89 0.931 . S
C73 C66 1.399 1_565 S
C73 C70 1.487 . S
C73 N90 1.343 . S
H74 C46 0.931 . S
H75 C48 0.930 . S
H76 C50 0.930 . S
H77 C51 0.931 . S
H78 C53 0.931 . S
H79 C55 0.930 . S
H80 C57 0.930 . S
H81 C58 0.931 . S
H82 C60 0.931 . S
H83 C62 0.930 . S
H84 C64 0.930 . S
H85 C65 0.931 . S
H86 C67 0.931 . S
H87 C69 0.930 . S
H88 C71 0.930 . S
H89 C72 0.931 . S
N90 C52 1.343 . S
N90 C73 1.343 . S
N91 C59 1.343 . S
N91 C66 1.343 . S
C92 C93 1.384 1_556 S
C92 C94 1.384 . S
C92 H120 0.931 . S
C93 C92 1.384 1_554 S
C93 C96 1.382 . S
C94 C92 1.384 . S
C94 C95 1.381 1_556 S
C94 H121 0.930 . S
C95 C94 1.381 1_554 S
C95 C97 1.381 . S
C95 C98 1.487 . S
C96 C93 1.382 . S
C96 C97 1.387 . S
C96 H122 0.930 . S
C97 C95 1.381 . S
C97 C96 1.387 . S
C97 H123 0.931 . S
C98 C95 1.487 . S
C98 C105 1.399 1_554 S
C98 N136 1.343 . S
C99 C100 1.384 1_554 S
C99 C101 1.384 . S
C99 H124 0.931 . S
C100 C99 1.384 1_556 S
C100 C103 1.382 . S
C101 C99 1.384 . S
C101 C102 1.381 1_554 S
C101 H125 0.930 . S
C102 C101 1.381 1_556 S
C102 C104 1.381 . S
C102 C105 1.487 . S
C103 C100 1.382 . S
C103 C104 1.387 . S
C103 H126 0.930 . S
C104 C102 1.381 . S
C104 C103 1.387 . S
C104 H127 0.931 . S
C105 C98 1.399 1_556 S
C105 C102 1.487 . S
C105 N137 1.343 . S
C106 C107 1.384 1_554 S
C106 C108 1.384 . S
C106 H128 0.931 . S
C107 C106 1.384 1_556 S
C107 C110 1.382 . S
C108 C106 1.384 . S
C108 C109 1.381 1_554 S
C108 H129 0.930 . S
C109 C108 1.381 1_556 S
C109 C111 1.381 . S
C109 C112 1.487 . S
C110 C107 1.382 . S
C110 C111 1.387 . S
C110 H130 0.930 . S
C111 C109 1.381 . S
C111 C110 1.387 . S
C111 H131 0.931 . S
C112 C109 1.487 . S
C112 C119 1.399 1_556 S
C112 N137 1.343 . S
C113 C114 1.384 1_556 S
C113 C115 1.384 . S
C113 H132 0.931 . S
C114 C113 1.384 1_554 S
C114 C117 1.382 . S
C115 C113 1.384 . S
C115 C116 1.381 1_556 S
C115 H133 0.930 . S
C116 C115 1.381 1_554 S
C116 C118 1.381 . S
C116 C119 1.487 . S
C117 C114 1.382 . S
C117 C118 1.387 . S
C117 H134 0.930 . S
C118 C116 1.381 . S
C118 C117 1.387 . S
C118 H135 0.931 . S
C119 C112 1.399 1_554 S
C119 C116 1.487 . S
C119 N136 1.343 . S
H120 C92 0.931 . S
H121 C94 0.930 . S
H122 C96 0.930 . S
H123 C97 0.931 . S
H124 C99 0.931 . S
H125 C101 0.930 . S
H126 C103 0.930 . S
H127 C104 0.931 . S
H128 C106 0.931 . S
H129 C108 0.930 . S
H130 C110 0.930 . S
H131 C111 0.931 . S
H132 C113 0.931 . S
H133 C115 0.930 . S
H134 C117 0.930 . S
H135 C118 0.931 . S
N136 C98 1.343 . S
N136 C119 1.343 . S
N137 C105 1.343 . S
N137 C112 1.343 . S
C138 O164 1.283 . S
C138 O182 1.283 . S
C139 O165 1.283 . S
C139 O180 1.283 . S
C140 O166 1.283 . S
C140 O183 1.283 . S
C141 O167 1.283 . S
C141 O181 1.283 . S
C142 O168 1.283 . S
C142 O177 1.283 . S
C143 O169 1.283 . S
C143 O179 1.283 . S
C144 O170 1.283 . S
C144 O176 1.283 . S
C145 O171 1.283 . S
C145 O178 1.283 . S
C146 O172 1.283 . S
C146 O187 1.283 . S
C147 O173 1.283 . S
C147 O185 1.283 . S
C148 O174 1.283 . S
C148 O186 1.283 . S
C149 O175 1.283 . S
C149 O184 1.283 . S
Eu150 O151 2.370 . S
Eu150 O152 2.370 1_454 S
Eu150 O155 2.370 1_554 S
Eu150 O156 2.370 1_455 S
Eu150 O164 2.363 1_554 S
Eu150 O165 2.363 . S
Eu150 O178 2.363 1_455 S
Eu150 O179 2.363 . S
O151 Eu150 2.370 . S
O151 Eu153 2.370 . S
O151 Eu158 2.370 . S
O152 Eu150 2.370 1_656 S
O152 Eu154 2.370 1_556 S
O152 Eu157 2.370 1_655 S
Eu153 O151 2.370 . S
Eu153 O155 2.370 1_554 S
Eu153 O159 2.370 1_544 S
Eu153 O160 2.370 1_545 S
Eu153 O168 2.363 1_545 S
Eu153 O169 2.363 . S
Eu153 O184 2.363 1_554 S
Eu153 O185 2.363 . S
Eu154 O152 2.370 1_554 S
Eu154 O156 2.370 . S
Eu154 O161 2.370 1_545 S
Eu154 O162 2.370 1_544 S
Eu154 O170 2.363 1_545 S
Eu154 O171 2.363 . S
Eu154 O186 2.363 1_554 S
Eu154 O187 2.363 . S
O155 Eu150 2.370 1_556 S
O155 Eu153 2.370 1_556 S
O155 Eu157 2.370 . S
O156 Eu150 2.370 1_655 S
O156 Eu154 2.370 . S
O156 Eu158 2.370 1_655 S
Eu157 O152 2.370 1_455 S
Eu157 O155 2.370 . S
Eu157 O159 2.370 1_545 S
Eu157 O162 2.370 1_445 S
Eu157 O174 2.363 1_455 S
Eu157 O175 2.363 . S
Eu157 O182 2.363 . S
Eu157 O183 2.363 1_545 S
Eu158 O151 2.370 . S
Eu158 O156 2.370 1_455 S
Eu158 O160 2.370 1_545 S
Eu158 O161 2.370 1_445 S
Eu158 O172 2.363 1_455 S
Eu158 O173 2.363 . S
Eu158 O180 2.363 . S
Eu158 O181 2.363 1_545 S
O159 Eu153 2.370 1_566 S
O159 Eu157 2.370 1_565 S
O159 Eu163 2.370 1_556 S
O160 Eu153 2.370 1_565 S
O160 Eu158 2.370 1_565 S
O160 Eu163 2.370 . S
O161 Eu154 2.370 1_565 S
O161 Eu158 2.370 1_665 S
O161 Eu163 2.370 1_655 S
O162 Eu154 2.370 1_566 S
O162 Eu157 2.370 1_665 S
O162 Eu163 2.370 1_656 S
Eu163 O159 2.370 1_554 S
Eu163 O160 2.370 . S
Eu163 O161 2.370 1_455 S
Eu163 O162 2.370 1_454 S
Eu163 O166 2.363 1_554 S
Eu163 O167 2.363 . S
Eu163 O176 2.363 1_455 S
Eu163 O177 2.363 . S
O164 C138 1.283 . S
O164 Eu150 2.363 1_556 S
O165 C139 1.283 . S
O165 Eu150 2.363 . S
O166 C140 1.283 . S
O166 Eu163 2.363 1_556 S
O167 C141 1.283 . S
O167 Eu163 2.363 . S
O168 C142 1.283 . S
O168 Eu153 2.363 1_565 S
O169 C143 1.283 . S
O169 Eu153 2.363 . S
O170 C144 1.283 . S
O170 Eu154 2.363 1_565 S
O171 C145 1.283 . S
O171 Eu154 2.363 . S
O172 C146 1.283 . S
O172 Eu158 2.363 1_655 S
O173 C147 1.283 . S
O173 Eu158 2.363 . S
O174 C148 1.283 . S
O174 Eu157 2.363 1_655 S
O175 C149 1.283 . S
O175 Eu157 2.363 . S
O176 C144 1.283 . S
O176 Eu163 2.363 1_655 S
O177 C142 1.283 . S
O177 Eu163 2.363 . S
O178 C145 1.283 . S
O178 Eu150 2.363 1_655 S
O179 C143 1.283 . S
O179 Eu150 2.363 . S
O180 C139 1.283 . S
O180 Eu158 2.363 . S
O181 C141 1.283 . S
O181 Eu158 2.363 1_565 S
O182 C138 1.283 . S
O182 Eu157 2.363 . S
O183 C140 1.283 . S
O183 Eu157 2.363 1_565 S
O184 C149 1.283 . S
O184 Eu153 2.363 1_556 S
O185 C147 1.283 . S
O185 Eu153 2.363 . S
O186 C148 1.283 . S
O186 Eu154 2.363 1_556 S
O187 C146 1.283 . S
O187 Eu154 2.363 . S
C188 C189 1.363 . S
C188 C194 1.379 . S
C188 N196 1.356 . S
C189 C188 1.363 . S
C189 C195 1.363 1_455 S
C190 C191 1.363 1_655 S
C190 C195 1.379 . S
C190 N197 1.356 . S
C191 C190 1.363 1_455 S
C191 C194 1.363 . S
N192 C194 1.356 . S
N192 H204 0.984 . S
N192 H205 0.985 . S
N193 C195 1.356 . S
N193 H198 0.984 . S
N193 H199 0.985 . S
C194 C188 1.379 . S
C194 C191 1.363 . S
C194 N192 1.356 . S
C195 C189 1.363 1_655 S
C195 C190 1.379 . S
C195 N193 1.356 . S
N196 C188 1.356 . S
N196 H202 0.984 . S
N196 H203 0.984 . S
N197 C190 1.356 . S
N197 H200 0.984 . S
N197 H201 0.985 . S
H198 N193 0.984 . S
H199 N193 0.985 . S
H200 N197 0.984 . S
H201 N197 0.985 . S
H202 N196 0.984 . S
H203 N196 0.984 . S
H204 N192 0.984 . S
H205 N192 0.985 . S
C206 C207 1.363 1_565 S
C206 C212 1.379 . S
C206 N214 1.356 . S
C207 C206 1.363 1_545 S
C207 C213 1.363 . S
C208 C209 1.363 . S
C208 C213 1.379 . S
C208 N215 1.356 . S
C209 C208 1.363 . S
C209 C212 1.363 1_545 S
N210 C212 1.356 . S
N210 H222 0.984 . S
N210 H223 0.985 . S
N211 C213 1.356 . S
N211 H216 0.984 . S
N211 H217 0.985 . S
C212 C206 1.379 . S
C212 C209 1.363 1_565 S
C212 N210 1.356 . S
C213 C207 1.363 . S
C213 C208 1.379 . S
C213 N211 1.356 . S
N214 C206 1.356 . S
N214 H220 0.984 . S
N214 H221 0.984 . S
N215 C208 1.356 . S
N215 H218 0.984 . S
N215 H219 0.985 . S
H216 N211 0.984 . S
H217 N211 0.985 . S
H218 N215 0.984 . S
H219 N215 0.985 . S
H220 N214 0.984 . S
H221 N214 0.984 . S
H222 N210 0.984 . S
H223 N210 0.985 . S
C224 C225 1.363 . S
C224 C230 1.379 . S
C224 N232 1.356 . S
C225 C224 1.363 . S
C225 C231 1.363 1_455 S
C226 C227 1.363 1_655 S
C226 C231 1.379 . S
C226 N233 1.356 . S
C227 C226 1.363 1_455 S
C227 C230 1.363 . S
N228 C230 1.356 . S
N228 H240 0.984 . S
N228 H241 0.985 . S
N229 C231 1.356 . S
N229 H234 0.984 . S
N229 H235 0.985 . S
C230 C224 1.379 . S
C230 C227 1.363 . S
C230 N228 1.356 . S
C231 C225 1.363 1_655 S
C231 C226 1.379 . S
C231 N229 1.356 . S
N232 C224 1.356 . S
N232 H238 0.984 . S
N232 H239 0.984 . S
N233 C226 1.356 . S
N233 H236 0.984 . S
N233 H237 0.985 . S
H234 N229 0.984 . S
H235 N229 0.985 . S
H236 N233 0.984 . S
H237 N233 0.985 . S
H238 N232 0.984 . S
H239 N232 0.984 . S
H240 N228 0.984 . S
H241 N228 0.985 . S
C242 C243 1.363 . S
C242 C248 1.379 . S
C242 N250 1.356 . S
C243 C242 1.363 . S
C243 C249 1.363 1_545 S
C244 C245 1.363 1_565 S
C244 C249 1.379 . S
C244 N251 1.356 . S
C245 C244 1.363 1_545 S
C245 C248 1.363 . S
N246 C248 1.356 . S
N246 H258 0.984 . S
N246 H259 0.985 . S
N247 C249 1.356 . S
N247 H252 0.984 . S
N247 H253 0.985 . S
C248 C242 1.379 . S
C248 C245 1.363 . S
C248 N246 1.356 . S
C249 C243 1.363 1_565 S
C249 C244 1.379 . S
C249 N247 1.356 . S
N250 C242 1.356 . S
N250 H256 0.984 . S
N250 H257 0.984 . S
N251 C244 1.356 . S
N251 H254 0.984 . S
N251 H255 0.985 . S
H252 N247 0.984 . S
H253 N247 0.985 . S
H254 N251 0.984 . S
H255 N251 0.985 . S
H256 N250 0.984 . S
H257 N250 0.984 . S
H258 N246 0.984 . S
H259 N246 0.985 . S
C260 C261 1.363 . S
C260 C266 1.379 . S
C260 N268 1.356 . S
C261 C260 1.363 . S
C261 C267 1.363 1_455 S
C262 C263 1.363 1_655 S
C262 C267 1.379 . S
C262 N269 1.356 . S
C263 C262 1.363 1_455 S
C263 C266 1.363 . S
N264 C266 1.356 . S
N264 H276 0.984 . S
N264 H277 0.985 . S
N265 C267 1.356 . S
N265 H270 0.984 . S
N265 H271 0.985 . S
C266 C260 1.379 . S
C266 C263 1.363 . S
C266 N264 1.356 . S
C267 C261 1.363 1_655 S
C267 C262 1.379 . S
C267 N265 1.356 . S
N268 C260 1.356 . S
N268 H274 0.984 . S
N268 H275 0.984 . S
N269 C262 1.356 . S
N269 H272 0.984 . S
N269 H273 0.985 . S
H270 N265 0.984 . S
H271 N265 0.985 . S
H272 N269 0.984 . S
H273 N269 0.985 . S
H274 N268 0.984 . S
H275 N268 0.984 . S
H276 N264 0.984 . S
H277 N264 0.985 . S
C278 C279 1.363 . S
C278 C284 1.379 . S
C278 N286 1.356 . S
C279 C278 1.363 . S
C279 C285 1.363 1_545 S
C280 C281 1.363 1_565 S
C280 C285 1.379 . S
C280 N287 1.356 . S
C281 C280 1.363 1_545 S
C281 C284 1.363 . S
N282 C284 1.356 . S
N282 H294 0.984 . S
N282 H295 0.985 . S
N283 C285 1.356 . S
N283 H288 0.984 . S
N283 H289 0.985 . S
C284 C278 1.379 . S
C284 C281 1.363 . S
C284 N282 1.356 . S
C285 C279 1.363 1_565 S
C285 C280 1.379 . S
C285 N283 1.356 . S
N286 C278 1.356 . S
N286 H292 0.984 . S
N286 H293 0.984 . S
N287 C280 1.356 . S
N287 H290 0.984 . S
N287 H291 0.985 . S
H288 N283 0.984 . S
H289 N283 0.985 . S
H290 N287 0.984 . S
H291 N287 0.985 . S
H292 N286 0.984 . S
H293 N286 0.984 . S
H294 N282 0.984 . S
H295 N282 0.985 . S
C296 C297 1.363 1_655 S
C296 C302 1.379 . S
C296 N304 1.356 . S
C297 C296 1.363 1_455 S
C297 C303 1.363 . S
C298 C299 1.363 . S
C298 C303 1.379 . S
C298 N305 1.356 . S
C299 C298 1.363 . S
C299 C302 1.363 1_455 S
N300 C302 1.356 . S
N300 H312 0.984 . S
N300 H313 0.985 . S
N301 C303 1.356 . S
N301 H306 0.984 . S
N301 H307 0.985 . S
C302 C296 1.379 . S
C302 C299 1.363 1_655 S
C302 N300 1.356 . S
C303 C297 1.363 . S
C303 C298 1.379 . S
C303 N301 1.356 . S
N304 C296 1.356 . S
N304 H310 0.984 . S
N304 H311 0.984 . S
N305 C298 1.356 . S
N305 H308 0.984 . S
N305 H309 0.985 . S
H306 N301 0.984 . S
H307 N301 0.985 . S
H308 N305 0.984 . S
H309 N305 0.985 . S
H310 N304 0.984 . S
H311 N304 0.984 . S
H312 N300 0.984 . S
H313 N300 0.985 . S
C314 C315 1.363 1_565 S
C314 C320 1.379 . S
C314 N322 1.356 . S
C315 C314 1.363 1_545 S
C315 C321 1.363 . S
C316 C317 1.363 . S
C316 C321 1.379 . S
C316 N323 1.356 . S
C317 C316 1.363 . S
C317 C320 1.363 1_545 S
N318 C320 1.356 . S
N318 H330 0.984 . S
N318 H331 0.985 . S
N319 C321 1.356 . S
N319 H324 0.984 . S
N319 H325 0.985 . S
C320 C314 1.379 . S
C320 C317 1.363 1_565 S
C320 N318 1.356 . S
C321 C315 1.363 . S
C321 C316 1.379 . S
C321 N319 1.356 . S
N322 C314 1.356 . S
N322 H328 0.984 . S
N322 H329 0.984 . S
N323 C316 1.356 . S
N323 H326 0.984 . S
N323 H327 0.985 . S
H324 N319 0.984 . S
H325 N319 0.985 . S
H326 N323 0.984 . S
H327 N323 0.985 . S
H328 N322 0.984 . S
H329 N322 0.984 . S
H330 N318 0.984 . S
H331 N318 0.985 . S
C332 C333 1.363 1_556 S
C332 C338 1.379 . S
C332 N340 1.356 . S
C333 C332 1.363 1_554 S
C333 C339 1.363 . S
C334 C335 1.363 . S
C334 C339 1.379 . S
C334 N341 1.356 . S
C335 C334 1.363 . S
C335 C338 1.363 1_554 S
N336 C338 1.356 . S
N336 H348 0.984 . S
N336 H349 0.985 . S
N337 C339 1.356 . S
N337 H342 0.984 . S
N337 H343 0.985 . S
C338 C332 1.379 . S
C338 C335 1.363 1_556 S
C338 N336 1.356 . S
C339 C333 1.363 . S
C339 C334 1.379 . S
C339 N337 1.356 . S
N340 C332 1.356 . S
N340 H346 0.984 . S
N340 H347 0.984 . S
N341 C334 1.356 . S
N341 H344 0.984 . S
N341 H345 0.985 . S
H342 N337 0.984 . S
H343 N337 0.985 . S
H344 N341 0.984 . S
H345 N341 0.985 . S
H346 N340 0.984 . S
H347 N340 0.984 . S
H348 N336 0.984 . S
H349 N336 0.985 . S
C350 C351 1.363 1_556 S
C350 C356 1.379 . S
C350 N358 1.356 . S
C351 C350 1.363 1_554 S
C351 C357 1.363 . S
C352 C353 1.363 . S
C352 C357 1.379 . S
C352 N359 1.356 . S
C353 C352 1.363 . S
C353 C356 1.363 1_554 S
N354 C356 1.356 . S
N354 H366 0.984 . S
N354 H367 0.985 . S
N355 C357 1.356 . S
N355 H360 0.984 . S
N355 H361 0.985 . S
C356 C350 1.379 . S
C356 C353 1.363 1_556 S
C356 N354 1.356 . S
C357 C351 1.363 . S
C357 C352 1.379 . S
C357 N355 1.356 . S
N358 C350 1.356 . S
N358 H364 0.984 . S
N358 H365 0.984 . S
N359 C352 1.356 . S
N359 H362 0.984 . S
N359 H363 0.985 . S
H360 N355 0.984 . S
H361 N355 0.985 . S
H362 N359 0.984 . S
H363 N359 0.985 . S
H364 N358 0.984 . S
H365 N358 0.984 . S
H366 N354 0.984 . S
H367 N354 0.985 . S
C368 C369 1.363 1_556 S
C368 C374 1.379 . S
C368 N376 1.356 . S
C369 C368 1.363 1_554 S
C369 C375 1.363 . S
C370 C371 1.363 . S
C370 C375 1.379 . S
C370 N377 1.356 . S
C371 C370 1.363 . S
C371 C374 1.363 1_554 S
N372 C374 1.356 . S
N372 H384 0.984 . S
N372 H385 0.985 . S
N373 C375 1.356 . S
N373 H378 0.984 . S
N373 H379 0.985 . S
C374 C368 1.379 . S
C374 C371 1.363 1_556 S
C374 N372 1.356 . S
C375 C369 1.363 . S
C375 C370 1.379 . S
C375 N373 1.356 . S
N376 C368 1.356 . S
N376 H382 0.984 . S
N376 H383 0.984 . S
N377 C370 1.356 . S
N377 H380 0.984 . S
N377 H381 0.985 . S
H378 N373 0.984 . S
H379 N373 0.985 . S
H380 N377 0.984 . S
H381 N377 0.985 . S
H382 N376 0.984 . S
H383 N376 0.984 . S
H384 N372 0.984 . S
H385 N372 0.985 . S
C386 C387 1.363 1_556 S
C386 C392 1.379 . S
C386 N394 1.356 . S
C387 C386 1.363 1_554 S
C387 C393 1.363 . S
C388 C389 1.363 . S
C388 C393 1.379 . S
C388 N395 1.356 . S
C389 C388 1.363 . S
C389 C392 1.363 1_554 S
N390 C392 1.356 . S
N390 H402 0.984 . S
N390 H403 0.985 . S
N391 C393 1.356 . S
N391 H396 0.984 . S
N391 H397 0.985 . S
C392 C386 1.379 . S
C392 C389 1.363 1_556 S
C392 N390 1.356 . S
C393 C387 1.363 . S
C393 C388 1.379 . S
C393 N391 1.356 . S
N394 C386 1.356 . S
N394 H400 0.984 . S
N394 H401 0.984 . S
N395 C388 1.356 . S
N395 H398 0.984 . S
N395 H399 0.985 . S
H396 N391 0.984 . S
H397 N391 0.985 . S
H398 N395 0.984 . S
H399 N395 0.985 . S
H400 N394 0.984 . S
H401 N394 0.984 . S
H402 N390 0.984 . S
H403 N390 0.985 . S
C191 C139 1.738 . S
C189 C15 1.728 . S
C209 C146 1.362 . S
C207 C68 1.356 1_545 S
C227 C141 1.738 . S
C225 C8 1.731 . S
C245 C147 1.362 . S
C243 C61 1.353 . S
C261 C1 1.731 1_455 S
C263 C140 1.741 . S
C281 C149 1.362 . S
C279 C54 1.356 . S
C297 C22 1.731 1_455 S
C299 C138 1.739 . S
C315 C47 1.356 1_545 S
C317 C148 1.365 . S
C333 C93 1.527 . S
C335 C143 1.528 . S
C351 C114 1.527 . S
C353 C142 1.531 . S
C371 C145 1.531 . S
C369 C100 1.528 1_554 S
C389 C144 1.531 . S
C387 C107 1.530 1_554 S
