# Generated by pormake.
# Topology anh, (6,3)-cn, num edge types: 1
# Building blocks:
#     Node 0, Type 0, BuildingBlock: PAMTUU_clean_sbu_0, # of connection points: 6
#     Node 1, Type 0, BuildingBlock: PAMTUU_clean_sbu_0, # of connection points: 6
#     Node 2, Type 0, BuildingBlock: PAMTUU_clean_sbu_0, # of connection points: 6
#     Node 3, Type 1, BuildingBlock: BELTOD_clean_linker_0, # of connection points: 3
#     Node 4, Type 1, BuildingBlock: BELTOD_clean_linker_0, # of connection points: 3
#     Node 5, Type 1, BuildingBlock: BELTOD_clean_linker_0, # of connection points: 3
#     Node 6, Type 1, BuildingBlock: BELTOD_clean_linker_0, # of connection points: 3
#     Node 7, Type 1, BuildingBlock: BELTOD_clean_linker_0, # of connection points: 3
#     Node 8, Type 1, BuildingBlock: BELTOD_clean_linker_0, # of connection points: 3
#     Edge 9, Type (0, 1), BuildingBlock: MIFKUJ_clean_linker_0, # of connection points: 2
#     Edge 10, Type (0, 1), BuildingBlock: MIFKUJ_clean_linker_0, # of connection points: 2
#     Edge 11, Type (0, 1), BuildingBlock: MIFKUJ_clean_linker_0, # of connection points: 2
#     Edge 12, Type (0, 1), BuildingBlock: MIFKUJ_clean_linker_0, # of connection points: 2
#     Edge 13, Type (0, 1), BuildingBlock: MIFKUJ_clean_linker_0, # of connection points: 2
#     Edge 14, Type (0, 1), BuildingBlock: MIFKUJ_clean_linker_0, # of connection points: 2
#     Edge 15, Type (0, 1), BuildingBlock: MIFKUJ_clean_linker_0, # of connection points: 2
#     Edge 16, Type (0, 1), BuildingBlock: MIFKUJ_clean_linker_0, # of connection points: 2
#     Edge 17, Type (0, 1), BuildingBlock: MIFKUJ_clean_linker_0, # of connection points: 2
#     Edge 18, Type (0, 1), BuildingBlock: MIFKUJ_clean_linker_0, # of connection points: 2
#     Edge 19, Type (0, 1), BuildingBlock: MIFKUJ_clean_linker_0, # of connection points: 2
#     Edge 20, Type (0, 1), BuildingBlock: MIFKUJ_clean_linker_0, # of connection points: 2
#     Edge 21, Type (0, 1), BuildingBlock: MIFKUJ_clean_linker_0, # of connection points: 2
#     Edge 22, Type (0, 1), BuildingBlock: MIFKUJ_clean_linker_0, # of connection points: 2
#     Edge 23, Type (0, 1), BuildingBlock: MIFKUJ_clean_linker_0, # of connection points: 2
#     Edge 24, Type (0, 1), BuildingBlock: MIFKUJ_clean_linker_0, # of connection points: 2
#     Edge 25, Type (0, 1), BuildingBlock: MIFKUJ_clean_linker_0, # of connection points: 2
#     Edge 26, Type (0, 1), BuildingBlock: MIFKUJ_clean_linker_0, # of connection points: 2
# Relax obj value: 0.199
# Max RMSD: 0.177
# Mean RMSD: 0.141
data_MOF--net-anh--node1-PAMTUU_clean_sbu_0--node2-BELTOD_clean_linker_0--edge1-MIFKUJ_clean_linker_0
_symmetry_space_group_name_H-M    P1
_symmetry_Int_Tables_number       1
_symmetry_cell_setting            triclinic
loop_
_symmetry_equiv_pos_as_xyz
'x, y, z'
_cell_length_a     42.912692
_cell_length_b     43.100567
_cell_length_c     76.801394
_cell_angle_alpha  92.411067
_cell_angle_beta   91.656824
_cell_angle_gamma 119.90412
loop_
_atom_site_label
_atom_site_type_symbol
_atom_site_fract_x
_atom_site_fract_y
_atom_site_fract_z
_atom_type_partial_charge
Tb0 Tb 0.08476 0.6198 0.16237 0.0
Tb1 Tb 0.12876 0.57665 0.15822 0.0
C2 C 0.0997 0.59751 0.12602 0.0
C3 C 1.01049 0.63027 0.17486 0.0
C4 C 0.93889 0.58867 0.18423 0.0
C5 C 0.94967 0.62014 0.1754 0.0
C6 C 0.98524 0.64073 0.17067 0.0
C7 C 1.00029 0.60011 0.1846 0.0
C8 C 0.96483 0.57951 0.18927 0.0
C9 C 1.04561 0.64709 0.16707 0.0
O10 O 1.04266 0.56324 0.15828 0.0
O11 O 0.07486 0.53533 0.16472 0.0
O12 O 0.1392 0.59885 0.18491 0.0
O13 O 0.08586 0.5977 0.18712 0.0
O14 O 0.16213 0.56473 0.14337 0.0
O15 O 0.14154 0.53888 0.16732 0.0
O16 O 0.17045 0.63315 0.15692 0.0
O17 O 0.14101 0.66257 0.16658 0.0
O18 O 0.1016 0.62439 0.13562 0.0
O19 O 0.10009 0.57088 0.13343 0.0
C20 C 1.04393 0.53444 0.16226 0.0
O21 O 0.07306 0.65398 0.17758 0.0
O22 O 1.04598 0.63136 0.15225 0.0
C23 C 0.11384 0.59769 0.19438 0.0
C24 C 0.19902 0.54954 0.16043 0.0
C25 C 0.2663 0.55547 0.16831 0.0
C26 C 0.23432 0.52479 0.17231 0.0
C27 C 0.20101 0.52184 0.16835 0.0
C28 C 0.23096 0.5811 0.15725 0.0
C29 C 0.26438 0.58395 0.16109 0.0
C30 C 0.16337 0.54393 0.15492 0.0
C31 C 0.17068 0.66276 0.16234 0.0
H32 H 0.93013 0.62759 0.17114 0.0
H33 H 0.99255 0.66365 0.16299 0.0
H34 H 1.01931 0.59136 0.18784 0.0
H35 H 0.95735 0.55554 0.19614 0.0
H36 H 0.2349 0.50214 0.17757 0.0
H37 H 0.17669 0.49733 0.17092 0.0
H38 H 0.23013 0.60307 0.15133 0.0
H39 H 0.28866 0.60789 0.15792 0.0
Tb40 Tb 0.54515 0.06338 0.49163 0.0
Tb41 Tb 0.63237 0.10907 0.49636 0.0
C42 C 0.59333 0.08529 0.45941 0.0
C43 C 0.45353 0.99153 0.49681 0.0
C44 C 0.40807 0.92353 0.50915 0.0
C45 C 0.44493 0.93584 0.50754 0.0
C46 C 0.46743 0.96961 0.50161 0.0
C47 C 0.41712 0.98003 0.49879 0.0
C48 C 0.39454 0.94632 0.50499 0.0
C49 C 0.47745 1.02655 0.49012 0.0
O50 O 0.56063 1.02193 0.48955 0.0
O51 O 0.61989 0.05391 0.50003 0.0
O52 O 0.60915 0.11478 0.52011 0.0
O53 O 0.56141 0.0586 0.51795 0.0
O54 O 0.68329 0.14445 0.48767 0.0
O55 O 0.6776 0.12391 0.5133 0.0
O56 O 0.6175 0.1494 0.49049 0.0
O57 O 0.55803 0.11919 0.49701 0.0
O58 O 0.56449 0.08299 0.46617 0.0
O59 O 0.61986 0.08757 0.46939 0.0
C60 C 0.59058 1.0232 0.49525 0.0
O61 O 0.49621 0.05221 0.50207 0.0
O62 O 0.49721 1.02635 0.47755 0.0
C63 C 0.58499 0.08684 0.52757 0.0
C64 C 0.71928 0.18502 0.51126 0.0
C65 C 0.75725 0.25507 0.52739 0.0
C66 C 0.7596 0.2268 0.53467 0.0
C67 C 0.74087 0.19212 0.52662 0.0
C68 C 0.71579 0.2129 0.50438 0.0
C69 C 0.73467 0.24749 0.51229 0.0
C70 C 0.69883 0.14823 0.50311 0.0
C71 C 0.58755 0.14921 0.49399 0.0
H72 H 0.45632 0.91897 0.51028 0.0
H73 H 0.49565 0.97841 0.50048 0.0
H74 H 0.40613 0.99697 0.49543 0.0
H75 H 0.36643 0.93797 0.50633 0.0
H76 H 0.77643 0.23159 0.54639 0.0
H77 H 0.74336 0.17086 0.53235 0.0
H78 H 0.69885 0.2082 0.49271 0.0
H79 H 0.73265 0.26855 0.50607 0.0
Tb80 Tb 0.57263 0.52834 0.82061 0.0
Tb81 Tb 0.6123 0.61403 0.82978 0.0
C82 C 0.595 0.58122 0.79126 0.0
C83 C 0.55552 0.43694 0.82251 0.0
C84 C 0.58573 0.39561 0.8334 0.0
C85 C 0.57001 0.39007 0.81641 0.0
C86 C 0.55494 0.41053 0.81102 0.0
C87 C 0.57029 0.44179 0.83969 0.0
C88 C 0.58506 0.4211 0.84512 0.0
C89 C 0.54381 0.46138 0.81603 0.0
O90 O 0.63021 0.54648 0.81843 0.0
O91 O 0.65683 0.60322 0.83212 0.0
O92 O 0.58949 0.58605 0.85327 0.0
O93 O 0.5982 0.53951 0.84641 0.0
O94 O 0.62686 0.6657 0.82256 0.0
O95 O 0.64036 0.65717 0.84855 0.0
O96 O 0.55617 0.59833 0.8238 0.0
O97 O 0.52983 0.53882 0.82896 0.0
O98 O 0.56849 0.55188 0.79689 0.0
O99 O 0.61998 0.6059 0.80228 0.0
C100 C 0.65889 0.57561 0.8255 0.0
O101 O 0.53445 0.47733 0.82785 0.0
O102 O 0.56432 0.48352 0.8048 0.0
C103 C 0.59459 0.56006 0.85812 0.0
C104 C 0.61948 0.69801 0.84614 0.0
C105 C 0.58511 0.73332 0.86093 0.0
C106 C 0.61723 0.73774 0.86883 0.0
C107 C 0.63431 0.72034 0.86146 0.0
C108 C 0.58669 0.69242 0.83863 0.0
C109 C 0.56982 0.70999 0.84588 0.0
C110 C 0.63731 0.67932 0.83857 0.0
C111 C 0.52764 0.56795 0.82707 0.0
H112 H 0.56998 0.37034 0.80718 0.0
H113 H 0.54385 0.4065 0.79773 0.0
H114 H 0.57142 0.46227 0.84879 0.0
H115 H 0.5973 0.4261 0.85823 0.0
H116 H 0.62952 0.75514 0.88056 0.0
H117 H 0.65921 0.72447 0.86766 0.0
H118 H 0.57426 0.67489 0.82696 0.0
H119 H 0.54554 0.70633 0.8392 0.0
P120 P 0.62875 0.08852 0.21165 0.0
H121 H 0.60523 1.03137 0.18368 0.0
H122 H 0.54636 0.98131 0.17389 0.0
H123 H 0.49578 1.02683 0.20573 0.0
H124 H 0.55499 0.07803 0.21454 0.0
H125 H 0.68358 0.10941 0.18579 0.0
H126 H 0.73216 0.16709 0.17781 0.0
H127 H 0.69028 0.22138 0.20963 0.0
H128 H 0.64091 0.16304 0.21726 0.0
H129 H 0.57472 1.0416 0.23536 0.0
H130 H 0.67433 0.14267 0.23992 0.0
O131 O 0.65112 0.06606 0.21088 0.0
H132 H 0.56976 0.04464 0.26663 0.0
H133 H 0.6706 0.14497 0.27151 0.0
C134 C 0.58497 0.05842 0.2002 0.0
C135 C 0.58148 1.03117 0.18822 0.0
C136 C 0.54744 1.00191 0.18285 0.0
C137 C 0.5156 0.99864 0.18943 0.0
C138 C 0.51916 1.02769 0.2003 0.0
C139 C 0.55331 0.05735 0.2054 0.0
C140 C 0.65862 0.13149 0.20243 0.0
C141 C 0.68432 0.13361 0.19087 0.0
C142 C 0.7126 0.16691 0.18646 0.0
C143 C 0.71619 0.19943 0.19341 0.0
C144 C 0.68884 0.1972 0.20402 0.0
C145 C 0.66037 0.16367 0.2084 0.0
C146 C 0.62361 0.09316 0.23489 0.0
C147 C 0.59503 0.06517 0.24294 0.0
C148 C 0.59268 0.06648 0.26106 0.0
C149 C 0.61964 0.0952 0.27179 0.0
C150 C 0.64873 0.1229 0.26373 0.0
C151 C 0.65081 0.12171 0.24553 0.0
P152 P 0.62291 0.606 0.54379 0.0
H153 H 0.63109 0.57644 0.51006 0.0
H154 H 0.62234 0.51746 0.50047 0.0
H155 H 0.57169 0.47528 0.54831 0.0
H156 H 0.58037 0.53347 0.55771 0.0
H157 H 0.65062 0.65481 0.51532 0.0
H158 H 0.64241 0.7042 0.50654 0.0
H159 H 0.55719 0.67379 0.54204 0.0
H160 H 0.56515 0.62428 0.55056 0.0
H161 H 0.67605 0.63646 0.57367 0.0
H162 H 0.56026 0.57708 0.56602 0.0
O163 O 0.66709 0.62583 0.54111 0.0
H164 H 0.67117 0.63576 0.60507 0.0
H165 H 0.55514 0.57762 0.59763 0.0
C166 C 0.60598 0.56003 0.53456 0.0
C167 C 0.61707 0.55426 0.51827 0.0
C168 C 0.61254 0.52046 0.5129 0.0
C169 C 0.59652 0.49124 0.52363 0.0
C170 C 0.58379 0.49669 0.53952 0.0
C171 C 0.58866 0.53048 0.54493 0.0
C172 C 0.60893 0.63553 0.53386 0.0
C173 C 0.62962 0.65817 0.52102 0.0
C174 C 0.62517 0.68691 0.51612 0.0
C175 C 0.5996 0.69386 0.52379 0.0
C176 C 0.57722 0.66964 0.53578 0.0
C177 C 0.58183 0.64097 0.54073 0.0
C178 C 0.61851 0.60691 0.56729 0.0
C179 C 0.64945 0.62359 0.57867 0.0
C180 C 0.64664 0.62343 0.59677 0.0
C181 C 0.61275 0.60674 0.60403 0.0
C182 C 0.58172 0.59044 0.59259 0.0
C183 C 0.58461 0.59053 0.57444 0.0
P184 P 0.11729 0.61292 0.87799 0.0
H185 H 0.14666 0.61273 0.84393 0.0
H186 H 0.19444 0.60098 0.83509 0.0
H187 H 0.1946 0.55911 0.88514 0.0
H188 H 0.14698 0.57059 0.89377 0.0
H189 H 0.09084 0.65814 0.86393 0.0
H190 H 1.03171 0.64812 0.85521 0.0
H191 H 0.98594 0.53497 0.86196 0.0
H192 H 1.04636 0.54518 0.87033 0.0
H193 H 0.15212 0.66439 0.90826 0.0
H194 H 0.07304 0.55217 0.89938 0.0
O195 O 0.14499 0.65642 0.87542 0.0
H196 H 0.14641 0.65967 0.93956 0.0
H197 H 1.06656 0.5474 0.93091 0.0
C198 C 0.14235 0.5921 0.86944 0.0
C199 C 0.15602 0.59981 0.85278 0.0
C200 C 0.18396 0.59365 0.84785 0.0
C201 C 0.19906 0.57945 0.85944 0.0
C202 C 0.18377 0.56979 0.87573 0.0
C203 C 0.15607 0.57623 0.88069 0.0
C204 C 0.07368 0.60246 0.8678 0.0
C205 C 0.06848 0.6309 0.86325 0.0
C206 C 1.03418 0.6252 0.85845 0.0
C207 C 1.00347 0.59081 0.85817 0.0
C208 C 1.00876 0.56189 0.862 0.0
C209 C 1.04344 0.56769 0.86682 0.0
C210 C 0.11268 0.60871 0.90132 0.0
C211 C 0.13324 0.63869 0.91298 0.0
C212 C 0.12981 0.63602 0.93098 0.0
C213 C 0.10577 0.60324 0.93784 0.0
C214 C 0.08547 0.57305 0.92613 0.0
C215 C 0.08889 0.5758 0.90805 0.0
P216 P 0.11779 0.47085 0.42707 0.0
H217 H 0.15699 0.4779 0.45985 0.0
H218 H 0.19832 0.53076 0.47877 0.0
H219 H 0.20362 0.59893 0.43792 0.0
H220 H 0.16153 0.54641 0.41947 0.0
H221 H 1.05961 0.41101 0.4439 0.0
H222 H 1.01502 0.40838 0.4637 0.0
H223 H 1.05247 0.52076 0.45782 0.0
H224 H 0.09578 0.52259 0.43738 0.0
H225 H 0.16695 0.4912 0.399 0.0
H226 H 1.05776 0.46693 0.4056 0.0
O227 O 0.121 0.43394 0.42804 0.0
H228 H 0.16252 0.50545 0.36889 0.0
H229 H 1.05273 0.48016 0.37542 0.0
C230 C 0.15672 0.50814 0.43813 0.0
C231 C 0.16809 0.50421 0.45478 0.0
C232 C 0.19159 0.53442 0.4656 0.0
C233 C 0.20379 0.56898 0.45991 0.0
C234 C 0.19415 0.57264 0.44278 0.0
C235 C 0.17053 0.54251 0.43206 0.0
C236 C 0.08116 0.46705 0.43934 0.0
C237 C 1.05783 0.43489 0.44667 0.0
C238 C 1.03265 0.43361 0.45816 0.0
C239 C 1.03071 0.46461 0.46267 0.0
C240 C 1.05316 0.4964 0.45465 0.0
C241 C 0.07806 0.49752 0.44301 0.0
C242 C 0.11297 0.47866 0.40459 0.0
C243 C 0.14192 0.48867 0.39389 0.0
C244 C 0.13925 0.49658 0.37666 0.0
C245 C 0.10731 0.49415 0.36975 0.0
C246 C 0.07794 0.48299 0.38042 0.0
C247 C 0.08074 0.47526 0.39769 0.0
P248 P 0.70734 0.08728 0.76621 0.0
H249 H 0.74348 0.11669 0.80031 0.0
H250 H 0.74813 0.16538 0.81992 0.0
H251 H 0.69685 0.19401 0.77946 0.0
H252 H 0.6919 0.14533 0.76009 0.0
H253 H 0.70225 1.02191 0.77883 0.0
H254 H 0.66164 0.97845 0.79849 0.0
H255 H 0.59928 1.03203 0.80012 0.0
H256 H 0.63993 0.07535 0.7802 0.0
H257 H 0.74241 0.13054 0.73731 0.0
H258 H 0.63729 1.04248 0.74662 0.0
O259 O 0.7444 0.08395 0.76558 0.0
H260 H 0.72202 0.13047 0.70724 0.0
H261 H 0.6165 1.04277 0.71676 0.0
C262 C 0.718 0.12787 0.77866 0.0
C263 C 0.7342 0.13416 0.79553 0.0
C264 C 0.7366 0.16172 0.80675 0.0
C265 C 0.72304 0.18352 0.80116 0.0
C266 C 0.70814 0.17802 0.78399 0.0
C267 C 0.70534 0.15019 0.77288 0.0
C268 C 0.67423 0.05194 0.77822 0.0
C269 C 0.67962 1.02408 0.78322 0.0
C270 C 0.65655 0.99945 0.79456 0.0
C271 C 0.62772 1.00233 0.80108 0.0
C272 C 0.6213 1.02923 0.79532 0.0
C273 C 0.6445 0.05395 0.78399 0.0
C274 C 0.69145 0.08656 0.74418 0.0
C275 C 0.71491 0.11128 0.73288 0.0
C276 C 0.70313 0.11137 0.71575 0.0
C277 C 0.66759 0.08666 0.70962 0.0
C278 C 0.64413 0.06189 0.72103 0.0
C279 C 0.65597 0.06186 0.73817 0.0
P280 P 0.49979 0.34031 0.07357 0.0
H281 H 0.51495 0.30356 0.10074 0.0
H282 H 0.56779 0.32253 0.12078 0.0
H283 H 0.62593 0.41942 0.09362 0.0
H284 H 0.57346 0.40066 0.07393 0.0
H285 H 0.43253 0.31215 0.09189 0.0
H286 H 0.40921 0.34161 0.11127 0.0
H287 H 0.50362 0.44408 0.10454 0.0
H288 H 0.52644 0.41471 0.08506 0.0
H289 H 0.55327 0.35231 0.04775 0.0
H290 H 0.46188 0.36754 0.05259 0.0
O291 O 0.47197 0.29608 0.07101 0.0
H292 H 0.56677 0.38263 0.02057 0.0
H293 H 0.4737 0.3959 0.02491 0.0
C294 C 0.54069 0.35003 0.08543 0.0
C295 C 0.5395 0.32832 0.09879 0.0
C296 C 0.56951 0.33932 0.11032 0.0
C297 C 0.60106 0.37224 0.10863 0.0
C298 C 0.60232 0.39348 0.09498 0.0
C299 C 0.57231 0.38265 0.08362 0.0
C300 C 0.48117 0.3613 0.08708 0.0
C301 C 0.44807 0.34094 0.09453 0.0
C302 C 0.43484 0.35775 0.1056 0.0
C303 C 0.45484 0.39503 0.10951 0.0
C304 C 0.48798 0.41524 0.10198 0.0
C305 C 0.50091 0.39851 0.09079 0.0
C306 C 0.50749 0.35902 0.05253 0.0
C307 C 0.53601 0.36207 0.04291 0.0
C308 C 0.54343 0.37909 0.02722 0.0
C309 C 0.52169 0.39236 0.0206 0.0
C310 C 0.49177 0.38717 0.02984 0.0
C311 C 0.48478 0.37068 0.04565 0.0
H312 H 0.31472 0.57321 0.14327 0.0
H313 H 0.36008 0.55531 0.14099 0.0
H314 H 0.34043 0.51784 0.19294 0.0
H315 H 0.29426 0.53522 0.19518 0.0
H316 H 0.41987 0.56056 0.15583 0.0
H317 H 0.32953 0.43431 0.19081 0.0
H318 H 0.26728 0.40078 0.20025 0.0
H319 H 0.23049 0.43769 0.15751 0.0
H320 H 0.29237 0.47091 0.14769 0.0
H321 H 0.49033 0.44439 0.13686 0.0
H322 H 0.46814 0.47775 0.15413 0.0
H323 H 0.36608 0.42084 0.12442 0.0
H324 H 0.38782 0.38692 0.10755 0.0
H325 H 0.35467 0.42788 0.15688 0.0
H326 H 0.4356 0.50702 0.11529 0.0
H327 H 0.49399 0.54047 0.10189 0.0
H328 H 0.54379 0.59699 0.15126 0.0
H329 H 0.48573 0.56351 0.16499 0.0
C330 C 0.32104 0.56251 0.1545 0.0
C331 C 0.30051 0.55492 0.16927 0.0
C332 C 0.34705 0.55229 0.15318 0.0
C333 C 0.35297 0.53446 0.16663 0.0
C334 C 0.33575 0.53099 0.18229 0.0
C335 C 0.30939 0.54085 0.18354 0.0
C336 C 0.37144 0.51389 0.16278 0.0
C337 C 0.40597 0.53162 0.15636 0.0
C338 C 0.35301 0.47605 0.16318 0.0
C339 C 0.31558 0.4554 0.16868 0.0
C340 C 0.30809 0.43511 0.18341 0.0
C341 C 0.2729 0.41617 0.18882 0.0
C342 C 0.24497 0.41721 0.17952 0.0
C343 C 0.25214 0.43697 0.16472 0.0
C344 C 0.28725 0.45582 0.15922 0.0
C345 C 0.46307 0.4389 0.13416 0.0
C346 C 0.44077 0.41323 0.12086 0.0
C347 C 0.45046 0.45797 0.144 0.0
C348 C 0.41561 0.45214 0.14043 0.0
C349 C 0.39302 0.42571 0.12748 0.0
C350 C 0.40543 0.40633 0.11783 0.0
C351 C 0.40278 0.4744 0.14945 0.0
C352 C 0.36924 0.45692 0.15688 0.0
C353 C 0.42167 0.51233 0.14945 0.0
C354 C 0.45649 0.53247 0.14119 0.0
C355 C 0.45907 0.5264 0.1233 0.0
C356 C 0.49209 0.54538 0.11565 0.0
C357 C 0.52261 0.57075 0.12573 0.0
C358 C 0.52015 0.57727 0.14348 0.0
C359 C 0.48721 0.5583 0.1512 0.0
H360 H 0.54814 0.58543 0.11979 0.0
H361 H 0.21777 0.40263 0.18377 0.0
H362 H 0.82747 0.28565 0.53939 0.0
H363 H 0.87183 0.34867 0.54051 0.0
H364 H 0.78825 0.37452 0.53023 0.0
H365 H 0.74304 0.31079 0.52954 0.0
H366 H 0.83068 0.39016 0.50424 0.0
H367 H 0.8532 0.42369 0.56349 0.0
H368 H 0.86082 0.41905 0.59501 0.0
H369 H 0.955 0.41082 0.58672 0.0
H370 H 0.94772 0.41478 0.55512 0.0
H371 H 0.99037 0.49823 0.46312 0.0
H372 H 0.94582 0.49177 0.48401 0.0
H373 H 0.9699 0.42168 0.51282 0.0
H374 H 1.0158 0.42988 0.49282 0.0
H375 H 0.9516 0.45809 0.53474 0.0
H376 H 0.90301 0.39054 0.47683 0.0
H377 H 0.89286 0.38813 0.44487 0.0
H378 H 0.8458 0.45523 0.45135 0.0
H379 H 0.85599 0.45821 0.48336 0.0
C380 C 0.81806 0.30463 0.5383 0.0
C381 C 0.78175 0.293 0.53382 0.0
C382 C 0.84366 0.34101 0.53903 0.0
C383 C 0.83349 0.36646 0.53527 0.0
C384 C 0.79674 0.35535 0.53308 0.0
C385 C 0.771 0.31886 0.53248 0.0
C386 C 0.86104 0.40095 0.5288 0.0
C387 C 0.85678 0.40616 0.51117 0.0
C388 C 0.89506 0.42199 0.53778 0.0
C389 C 0.89996 0.41975 0.55685 0.0
C390 C 0.87549 0.42076 0.56835 0.0
C391 C 0.87975 0.41824 0.58626 0.0
C392 C 0.90841 0.41471 0.59287 0.0
C393 C 0.93288 0.41369 0.58158 0.0
C394 C 0.92876 0.4162 0.56366 0.0
C395 C 0.98684 0.48222 0.47418 0.0
C396 C 1.00598 0.46375 0.47603 0.0
C397 C 0.96128 0.4785 0.48608 0.0
C398 C 0.95401 0.45572 0.49981 0.0
C399 C 0.9749 0.43937 0.50233 0.0
C400 C 1.00069 0.44347 0.49064 0.0
C401 C 0.92152 0.44393 0.50997 0.0
C402 C 0.925 0.44352 0.5282 0.0
C403 C 0.88667 0.42669 0.50154 0.0
C404 C 0.8807 0.42502 0.48238 0.0
C405 C 0.89067 0.40491 0.47139 0.0
C406 C 0.88491 0.40343 0.4533 0.0
C407 C 0.86882 0.42164 0.44608 0.0
C408 C 0.85837 0.44126 0.45695 0.0
C409 C 0.86416 0.44287 0.47506 0.0
H410 H 0.86436 0.42045 0.43206 0.0
H411 H 0.91164 0.41274 0.60673 0.0
H412 H 0.62223 0.80359 0.87301 0.0
H413 H 0.59973 0.84487 0.87466 0.0
H414 H 0.49131 0.75754 0.86302 0.0
H415 H 0.51381 0.71536 0.86174 0.0
H416 H 0.51111 0.80264 0.83857 0.0
H417 H 0.50757 0.81844 0.8984 0.0
H418 H 0.52444 0.82358 0.92976 0.0
H419 H 0.62288 0.92138 0.92309 0.0
H420 H 0.60701 0.91663 0.89165 0.0
H421 H 0.554 0.96594 0.80246 0.0
H422 H 0.5183 0.92004 0.82265 0.0
H423 H 0.61638 0.93836 0.8495 0.0
H424 H 0.65171 0.98453 0.82989 0.0
H425 H 0.56366 0.92011 0.87219 0.0
H426 H 0.57622 0.87646 0.81249 0.0
H427 H 0.56371 0.86955 0.78054 0.0
H428 H 0.45055 0.82295 0.7878 0.0
H429 H 0.46255 0.8299 0.8198 0.0
C430 C 0.59338 0.79266 0.87166 0.0
C431 C 0.56999 0.75618 0.86682 0.0
C432 C 0.58039 0.81648 0.8727 0.0
C433 C 0.54374 0.80443 0.86892 0.0
C434 C 0.5197 0.76747 0.86596 0.0
C435 C 0.5327 0.74348 0.86503 0.0
C436 C 0.53345 0.83099 0.86367 0.0
C437 C 0.52107 0.82787 0.84621 0.0
C438 C 0.54597 0.86383 0.8736 0.0
C439 C 0.55588 0.86724 0.89259 0.0
C440 C 0.53288 0.84102 0.90358 0.0
C441 C 0.54229 0.84385 0.9214 0.0
C442 C 0.57467 0.87283 0.92842 0.0
C443 C 0.59773 0.89902 0.91764 0.0
C444 C 0.58846 0.89633 0.89982 0.0
C445 C 0.56777 0.9607 0.81297 0.0
C446 C 0.6056 0.97806 0.81437 0.0
C447 C 0.54739 0.93456 0.82449 0.0
C448 C 0.56466 0.92546 0.83746 0.0
C449 C 0.60237 0.9449 0.83964 0.0
C450 C 0.62261 0.97089 0.82823 0.0
C451 C 0.54516 0.89224 0.84684 0.0
C452 C 0.55155 0.89419 0.865 0.0
C453 C 0.52745 0.85825 0.83758 0.0
C454 C 0.52028 0.85408 0.81843 0.0
C455 C 0.54871 0.86488 0.80722 0.0
C456 C 0.54172 0.86097 0.78914 0.0
C457 C 0.50636 0.84593 0.78214 0.0
C458 C 0.47792 0.83469 0.79323 0.0
C459 C 0.48479 0.83863 0.81133 0.0
H460 H 0.50099 0.8429 0.76814 0.0
H461 H 0.58192 0.87495 0.94221 0.0
H462 H 0.88683 0.60323 0.19495 0.0
H463 H 0.82155 0.5623 0.19237 0.0
H464 H 0.83859 0.47609 0.17421 0.0
H465 H 0.90338 0.51657 0.17683 0.0
H466 H 0.78909 0.53585 0.16208 0.0
H467 H 0.7642 0.39333 0.18083 0.0
H468 H 0.78011 0.36752 0.20521 0.0
H469 H 0.80758 0.46105 0.2385 0.0
H470 H 0.79069 0.48704 0.21459 0.0
H471 H 0.67228 0.40359 0.10252 0.0
H472 H 0.72315 0.4365 0.12381 0.0
H473 H 0.6504 0.40613 0.16556 0.0
H474 H 0.59909 0.37318 0.14422 0.0
H475 H 0.71654 0.4074 0.17418 0.0
H476 H 0.67516 0.48302 0.15332 0.0
H477 H 0.65344 0.50879 0.13124 0.0
H478 H 0.7543 0.55193 0.10686 0.0
H479 H 0.77641 0.52586 0.12861 0.0
C480 C 0.87656 0.57532 0.19082 0.0
C481 C 0.90015 0.56313 0.186 0.0
C482 C 0.83934 0.55193 0.18946 0.0
C483 C 0.82516 0.51605 0.1832 0.0
C484 C 0.84881 0.50339 0.17944 0.0
C485 C 0.88593 0.52667 0.18086 0.0
C486 C 0.78663 0.49385 0.17732 0.0
C487 C 0.77311 0.50794 0.165 0.0
C488 C 0.7653 0.45758 0.18141 0.0
C489 C 0.7764 0.44236 0.19577 0.0
C490 C 0.7734 0.40838 0.19336 0.0
C491 C 0.78253 0.39365 0.20713 0.0
C492 C 0.79497 0.41267 0.22335 0.0
C493 C 0.79805 0.44638 0.2259 0.0
C494 C 0.78873 0.46116 0.21223 0.0
C495 C 0.66714 0.40347 0.11625 0.0
C496 C 0.63177 0.38624 0.12171 0.0
C497 C 0.69617 0.42218 0.12839 0.0
C498 C 0.69035 0.42416 0.14618 0.0
C499 C 0.65531 0.4049 0.15186 0.0
C500 C 0.62612 0.38606 0.13968 0.0
C501 C 0.72083 0.44913 0.15833 0.0
C502 C 0.73255 0.43554 0.1717 0.0
C503 C 0.74031 0.48612 0.15558 0.0
C504 C 0.72737 0.50231 0.14256 0.0
C505 C 0.69263 0.4978 0.14318 0.0
C506 C 0.68025 0.51248 0.13073 0.0
C507 C 0.70246 0.53195 0.11764 0.0
C508 C 0.73713 0.53684 0.117 0.0
C509 C 0.74961 0.52215 0.12941 0.0
H510 H 0.69283 0.5433 0.10801 0.0
H511 H 0.80222 0.40128 0.23395 0.0
H512 H 0.42131 0.88383 0.53233 0.0
H513 H 0.38597 0.81885 0.53454 0.0
H514 H 0.30407 0.81347 0.49862 0.0
H515 H 0.33956 0.87769 0.49571 0.0
H516 H 0.27656 0.76546 0.52584 0.0
H517 H 0.37287 0.8091 0.48459 0.0
H518 H 0.43634 0.84103 0.477 0.0
H519 H 0.45794 0.77299 0.50835 0.0
H520 H 0.39507 0.74195 0.51689 0.0
H521 H 0.19256 0.62551 0.46372 0.0
H522 H 0.2264 0.67991 0.48253 0.0
H523 H 0.2924 0.63918 0.50351 0.0
H524 H 0.25919 0.58471 0.484 0.0
H525 H 0.33284 0.70469 0.49446 0.0
H526 H 0.23446 0.65132 0.5298 0.0
H527 H 0.17111 0.61769 0.53748 0.0
H528 H 0.15289 0.69952 0.51795 0.0
H529 H 0.21595 0.73342 0.50989 0.0
C530 C 0.39559 0.86887 0.52503 0.0
C531 C 0.38365 0.88597 0.51355 0.0
C532 C 0.37533 0.83183 0.52647 0.0
C533 C 0.34268 0.81147 0.51661 0.0
C534 C 0.32919 0.82883 0.50639 0.0
C535 C 0.34956 0.86568 0.50477 0.0
C536 C 0.32473 0.77196 0.51474 0.0
C537 C 0.28879 0.75194 0.51912 0.0
C538 C 0.34139 0.75434 0.50661 0.0
C539 C 0.37942 0.77375 0.50172 0.0
C540 C 0.39132 0.80147 0.49019 0.0
C541 C 0.42725 0.81946 0.48573 0.0
C542 C 0.45133 0.8094 0.49238 0.0
C543 C 0.43949 0.78124 0.50346 0.0
C544 C 0.40375 0.76356 0.50818 0.0
C545 C 0.21437 0.6281 0.47227 0.0
C546 C 0.22363 0.6011 0.47216 0.0
C547 C 0.23326 0.65897 0.48329 0.0
C548 C 0.26153 0.66339 0.49469 0.0
C549 C 0.27043 0.63614 0.49494 0.0
C550 C 0.25148 0.6051 0.48381 0.0
C551 C 0.28389 0.69827 0.50471 0.0
C552 C 0.32075 0.71758 0.50185 0.0
C553 C 0.26814 0.71511 0.51437 0.0
C554 C 0.23006 0.69493 0.51921 0.0
C555 C 0.21692 0.66207 0.52704 0.0
C556 C 0.18104 0.64296 0.53148 0.0
C557 C 0.15799 0.65646 0.5282 0.0
C558 C 0.17079 0.68912 0.5205 0.0
C559 C 0.20665 0.70835 0.51603 0.0
H560 H 0.13022 0.64161 0.53164 0.0
H561 H 0.47909 0.82321 0.48884 0.0
H562 H 0.58023 0.36028 0.86308 0.0
H563 H 0.61177 0.32755 0.87051 0.0
H564 H 0.66671 0.35678 0.82265 0.0
H565 H 0.63519 0.38879 0.81507 0.0
H566 H 0.6065 0.26945 0.84487 0.0
H567 H 0.75825 0.38074 0.83775 0.0
H568 H 0.80067 0.44274 0.84903 0.0
H569 H 0.73156 0.4321 0.89042 0.0
H570 H 0.68904 0.3698 0.87965 0.0
H571 H 0.74209 0.25275 0.796 0.0
H572 H 0.72711 0.29132 0.8138 0.0
H573 H 0.68372 0.21149 0.85184 0.0
H574 H 0.69839 0.17257 0.83395 0.0
H575 H 0.73906 0.32121 0.84842 0.0
H576 H 0.60217 0.20543 0.86123 0.0
H577 H 0.56064 0.14216 0.85122 0.0
H578 H 0.59941 0.16364 0.79968 0.0
H579 H 0.64075 0.22706 0.80935 0.0
C580 C 0.59932 0.3599 0.85428 0.0
C581 C 0.60503 0.37663 0.83841 0.0
C582 C 0.61737 0.34145 0.85857 0.0
C583 C 0.64202 0.34048 0.84727 0.0
C584 C 0.64824 0.35783 0.83166 0.0
C585 C 0.62984 0.37562 0.82723 0.0
C586 C 0.65788 0.31749 0.85008 0.0
C587 C 0.63543 0.28055 0.84632 0.0
C588 C 0.69562 0.33219 0.85187 0.0
C589 C 0.72025 0.37043 0.85781 0.0
C590 C 0.75209 0.39149 0.8493 0.0
C591 C 0.77628 0.42669 0.85566 0.0
C592 C 0.76894 0.44127 0.8705 0.0
C593 C 0.73729 0.42073 0.87896 0.0
C594 C 0.71303 0.3855 0.87268 0.0
C595 C 0.73011 0.24382 0.80835 0.0
C596 C 0.721 0.2096 0.81352 0.0
C597 C 0.72186 0.26595 0.81858 0.0
C598 C 0.70403 0.25406 0.83404 0.0
C599 C 0.6974 0.22105 0.83992 0.0
C600 C 0.70588 0.19894 0.82972 0.0
C601 C 0.68774 0.27387 0.84218 0.0
C602 C 0.71011 0.31004 0.8478 0.0
C603 C 0.64992 0.25859 0.84215 0.0
C604 C 0.62483 0.22074 0.83608 0.0
C605 C 0.60174 0.19659 0.84776 0.0
C606 C 0.57824 0.16074 0.84214 0.0
C607 C 0.5775 0.14885 0.82484 0.0
C608 C 0.60011 0.17284 0.81309 0.0
C609 C 0.62357 0.20872 0.81863 0.0
H610 H 0.55934 0.12108 0.82053 0.0
H611 H 0.7876 0.46859 0.87534 0.0
H612 H 0.64879 1.01384 0.50193 0.0
H613 H 0.64914 0.95788 0.50583 0.0
H614 H 0.53372 0.89795 0.49712 0.0
H615 H 0.53319 0.95369 0.49285 0.0
H616 H 0.55809 0.87645 0.52617 0.0
H617 H 0.58463 0.89563 0.46592 0.0
H618 H 0.61796 0.93004 0.44136 0.0
H619 H 0.71535 0.93899 0.46352 0.0
H620 H 0.68269 0.90505 0.48836 0.0
H621 H 0.53942 0.70171 0.52018 0.0
H622 H 0.53682 0.75599 0.51481 0.0
H623 H 0.65248 0.81606 0.5136 0.0
H624 H 0.65521 0.76193 0.51878 0.0
H625 H 0.62701 0.83765 0.4893 0.0
H626 H 0.60238 0.81822 0.54915 0.0
H627 H 0.57121 0.78589 0.57459 0.0
H628 H 0.47378 0.78087 0.55529 0.0
H629 H 0.50434 0.81295 0.52966 0.0
C630 C 0.62342 0.98881 0.50073 0.0
C631 C 0.59095 0.98869 0.49705 0.0
C632 C 0.62368 0.95667 0.50296 0.0
C633 C 0.59147 0.92335 0.50176 0.0
C634 C 0.559 0.92311 0.49817 0.0
C635 C 0.55877 0.9552 0.49567 0.0
C636 C 0.59168 0.88895 0.50436 0.0
C637 C 0.57271 0.86766 0.51795 0.0
C638 C 0.61162 0.87779 0.49402 0.0
C639 C 0.63128 0.89811 0.47909 0.0
C640 C 0.61322 0.9052 0.46563 0.0
C641 C 0.63198 0.92457 0.45164 0.0
C642 C 0.66877 0.93678 0.4509 0.0
C643 C 0.68686 0.92956 0.46412 0.0
C644 C 0.66823 0.91023 0.47815 0.0
C645 C 0.56439 0.72646 0.51886 0.0
C646 C 0.59754 0.72699 0.51996 0.0
C647 C 0.56287 0.75772 0.51579 0.0
C648 C 0.59449 0.79078 0.514 0.0
C649 C 0.62754 0.79122 0.51486 0.0
C650 C 0.62905 0.75996 0.51779 0.0
C651 C 0.59335 0.82479 0.5112 0.0
C652 C 0.61223 0.84616 0.49757 0.0
C653 C 0.57371 0.83626 0.52169 0.0
C654 C 0.55541 0.81721 0.53721 0.0
C655 C 0.57419 0.80984 0.5502 0.0
C656 C 0.55667 0.79168 0.56471 0.0
C657 C 0.52046 0.7811 0.5665 0.0
C658 C 0.50176 0.78887 0.55384 0.0
C659 C 0.51916 0.807 0.53931 0.0
H660 H 0.50695 0.76705 0.57774 0.0
H661 H 0.68325 0.95176 0.44006 0.0
H662 H 0.67665 0.52634 0.81201 0.0
H663 H 0.73394 0.52724 0.81566 0.0
H664 H 0.77896 0.62731 0.84672 0.0
H665 H 0.72222 0.62719 0.84263 0.0
H666 H 0.82822 0.62964 0.82617 0.0
H667 H 0.75185 0.54229 0.86705 0.0
H668 H 0.69436 0.48903 0.87332 0.0
H669 H 0.70903 0.42705 0.83249 0.0
H670 H 0.76656 0.47972 0.82616 0.0
H671 H 0.97808 0.63518 0.86918 0.0
H672 H 0.9199 0.6301 0.86232 0.0
H673 H 0.88542 0.5305 0.8323 0.0
H674 H 0.94411 0.53544 0.83919 0.0
H675 H 0.83029 0.52542 0.85005 0.0
H676 H 0.91157 0.61033 0.81233 0.0
H677 H 0.96694 0.66376 0.80428 0.0
H678 H 0.94182 0.73137 0.83645 0.0
H679 H 0.88653 0.67827 0.84489 0.0
C680 C 0.69874 0.54868 0.81956 0.0
C681 C 0.69442 0.57664 0.82704 0.0
C682 C 0.73161 0.54902 0.82178 0.0
C683 C 0.76102 0.57699 0.83182 0.0
C684 C 0.75696 0.60529 0.83896 0.0
C685 C 0.72425 0.60514 0.83662 0.0
C686 C 0.79578 0.57674 0.83508 0.0
C687 C 0.82861 0.607 0.83159 0.0
C688 C 0.79678 0.54695 0.84166 0.0
C689 C 0.76339 0.51479 0.84617 0.0
C690 C 0.7428 0.51716 0.85951 0.0
C691 C 0.71018 0.48712 0.86305 0.0
C692 C 0.69791 0.45467 0.85328 0.0
C693 C 0.71832 0.45216 0.84001 0.0
C694 C 0.75111 0.482 0.83654 0.0
C695 C 0.95841 0.61226 0.86096 0.0
C696 C 0.96648 0.58608 0.85451 0.0
C697 C 0.92486 0.60935 0.85705 0.0
C698 C 0.89809 0.58031 0.84641 0.0
C699 C 0.90544 0.55336 0.84044 0.0
C700 C 0.93915 0.5562 0.84442 0.0
C701 C 0.86297 0.57874 0.84145 0.0
C702 C 0.83004 0.54812 0.84461 0.0
C703 C 0.8619 0.60823 0.83445 0.0
C704 C 0.89506 0.64027 0.82936 0.0
C705 C 0.91798 0.63657 0.81778 0.0
C706 C 0.94934 0.66679 0.81314 0.0
C707 C 0.95794 0.70093 0.81988 0.0
C708 C 0.93515 0.7049 0.83125 0.0
C709 C 0.90377 0.67475 0.83596 0.0
H710 H 0.98222 0.7243 0.81627 0.0
H711 H 0.67278 0.43144 0.85613 0.0
H712 H 0.23927 0.67432 0.15801 0.0
H713 H 0.29662 0.73078 0.16187 0.0
H714 H 0.24018 0.78717 0.17484 0.0
H715 H 0.18268 0.73085 0.17089 0.0
H716 H 0.29366 0.82561 0.15359 0.0
H717 H 0.28485 0.76633 0.20658 0.0
H718 H 0.27688 0.71595 0.22369 0.0
H719 H 0.37011 0.7205 0.20204 0.0
H720 H 0.37836 0.77062 0.18463 0.0
H721 H 0.44649 0.98959 0.18739 0.0
H722 H 0.38886 0.93406 0.18289 0.0
H723 H 0.44411 0.874 0.1775 0.0
H724 H 0.50158 0.92885 0.18333 0.0
H725 H 0.39047 0.83701 0.19477 0.0
H726 H 0.40012 0.89426 0.14152 0.0
H727 H 0.40832 0.9428 0.12294 0.0
H728 H 0.31489 0.94049 0.14303 0.0
H729 H 0.30638 0.89221 0.1619 0.0
C730 C 0.23889 0.69868 0.16163 0.0
C731 C 0.20595 0.69763 0.16416 0.0
C732 C 0.27192 0.73112 0.16394 0.0
C733 C 0.27317 0.7636 0.16889 0.0
C734 C 0.24029 0.76273 0.17107 0.0
C735 C 0.20725 0.73029 0.16884 0.0
C736 C 0.30857 0.79827 0.17195 0.0
C737 C 0.31463 0.82819 0.16277 0.0
C738 C 0.33667 0.80181 0.18355 0.0
C739 C 0.33203 0.77201 0.19419 0.0
C740 C 0.30353 0.75644 0.2054 0.0
C741 C 0.29897 0.72796 0.21516 0.0
C742 C 0.32293 0.71498 0.21392 0.0
C743 C 0.35156 0.73055 0.20297 0.0
C744 C 0.35621 0.75903 0.19317 0.0
C745 C 0.44667 0.96468 0.18543 0.0
C746 C 0.47952 0.96452 0.18567 0.0
C747 C 0.41332 0.93264 0.18255 0.0
C748 C 0.4115 0.89927 0.17946 0.0
C749 C 0.4442 0.89903 0.17973 0.0
C750 C 0.47747 0.93091 0.18284 0.0
C751 C 0.37586 0.86462 0.17633 0.0
C752 C 0.36966 0.83461 0.18554 0.0
C753 C 0.34781 0.86088 0.16457 0.0
C754 C 0.35285 0.88989 0.15325 0.0
C755 C 0.38148 0.90429 0.14207 0.0
C756 C 0.38616 0.93172 0.13147 0.0
C757 C 0.3622 0.94479 0.13184 0.0
C758 C 0.33346 0.93038 0.14278 0.0
C759 C 0.32868 0.90296 0.15342 0.0
H760 H 0.36587 0.96602 0.12363 0.0
H761 H 0.31934 0.6929 0.22148 0.0
H762 H 0.53337 0.16171 0.5041 0.0
H763 H 0.53485 0.21903 0.50797 0.0
H764 H 0.64349 0.27402 0.49123 0.0
H765 H 0.64248 0.21685 0.48776 0.0
H766 H 0.64056 0.31159 0.5174 0.0
H767 H 0.56666 0.25989 0.46493 0.0
H768 H 0.51633 0.21357 0.4458 0.0
H769 H 0.44047 0.21747 0.47978 0.0
H770 H 0.49038 0.2635 0.49926 0.0
H771 H 0.64714 0.47935 0.50792 0.0
H772 H 0.64554 0.42237 0.50171 0.0
H773 H 0.54084 0.36564 0.52272 0.0
H774 H 0.54191 0.42244 0.52863 0.0
H775 H 0.54253 0.32965 0.4936 0.0
H776 H 0.61922 0.38295 0.54594 0.0
H777 H 0.67104 0.42967 0.56417 0.0
H778 H 0.74377 0.42356 0.5288 0.0
H779 H 0.69235 0.37723 0.51018 0.0
C780 C 0.55756 0.18591 0.5011 0.0
C781 C 0.58772 0.18425 0.4955 0.0
C782 C 0.55833 0.2189 0.50326 0.0
C783 C 0.58912 0.25135 0.49968 0.0
C784 C 0.61928 0.24971 0.4941 0.0
C785 C 0.6186 0.21675 0.49203 0.0
C786 C 0.5902 0.2869 0.50212 0.0
C787 C 0.61932 0.31556 0.51192 0.0
C788 C 0.56237 0.29251 0.49533 0.0
C789 C 0.53227 0.26489 0.48364 0.0
C790 C 0.53925 0.25068 0.46839 0.0
C791 C 0.5108 0.22451 0.45748 0.0
C792 C 0.47523 0.21251 0.4616 0.0
C793 C 0.46804 0.22675 0.47662 0.0
C794 C 0.4964 0.25291 0.4876 0.0
C795 C 0.62349 0.45478 0.51104 0.0
C796 C 0.59469 0.45592 0.51887 0.0
C797 C 0.62279 0.42205 0.50763 0.0
C798 C 0.59327 0.38931 0.51194 0.0
C799 C 0.56408 0.39027 0.51931 0.0
C800 C 0.56485 0.42299 0.52281 0.0
C801 C 0.59283 0.35422 0.50891 0.0
C802 C 0.5638 0.32566 0.49901 0.0
C803 C 0.62098 0.34885 0.51543 0.0
C804 C 0.6519 0.37693 0.52655 0.0
C805 C 0.64625 0.39183 0.54195 0.0
C806 C 0.67556 0.4182 0.55237 0.0
C807 C 0.71067 0.42967 0.54762 0.0
C808 C 0.71656 0.41473 0.53244 0.0
C809 C 0.68734 0.38842 0.52195 0.0
H810 H 0.73333 0.45005 0.55572 0.0
H811 H 0.45323 0.19225 0.45313 0.0
H812 H 0.4647 0.51459 0.83955 0.0
H813 H 0.40906 0.51546 0.84463 0.0
H814 H 0.45517 0.62063 0.82478 0.0
H815 H 0.51105 0.62031 0.82018 0.0
H816 H 0.42176 0.62128 0.85146 0.0
H817 H 0.38686 0.53877 0.80142 0.0
H818 H 0.37871 0.48557 0.78402 0.0
H819 H 0.30967 0.41702 0.82184 0.0
H820 H 0.31779 0.46987 0.83959 0.0
H821 H 0.25828 0.62661 0.84213 0.0
H822 H 0.31247 0.62367 0.83619 0.0
H823 H 0.26958 0.52402 0.86127 0.0
H824 H 0.21489 0.52638 0.86695 0.0
H825 H 0.3009 0.52021 0.83206 0.0
H826 H 0.33529 0.60535 0.88137 0.0
H827 H 0.3445 0.65985 0.89789 0.0
H828 H 0.41566 0.72537 0.85987 0.0
H829 H 0.40634 0.67122 0.84292 0.0
C830 C 0.46296 0.53783 0.83613 0.0
C831 C 0.49263 0.56731 0.82937 0.0
C832 C 0.43087 0.53826 0.83899 0.0
C833 C 0.4272 0.56794 0.8349 0.0
C834 C 0.45686 0.59732 0.82811 0.0
C835 C 0.48899 0.59704 0.82541 0.0
C836 C 0.39304 0.5689 0.83803 0.0
C837 C 0.39543 0.59931 0.84694 0.0
C838 C 0.35822 0.54013 0.83257 0.0
C839 C 0.35323 0.5083 0.82192 0.0
C840 C 0.37015 0.51237 0.80609 0.0
C841 C 0.36551 0.48228 0.79615 0.0
C842 C 0.34377 0.44794 0.80184 0.0
C843 C 0.32655 0.44363 0.81746 0.0
C844 C 0.33114 0.47364 0.82746 0.0
C845 C 0.26001 0.60376 0.84622 0.0
C846 C 0.2318 0.57674 0.85507 0.0
C847 C 0.29141 0.60233 0.84297 0.0
C848 C 0.29574 0.57386 0.84846 0.0
C849 C 0.2673 0.54643 0.85693 0.0
C850 C 0.23596 0.54794 0.86029 0.0
C851 C 0.32973 0.57265 0.84539 0.0
C852 C 0.32727 0.54218 0.83652 0.0
C853 C 0.36455 0.60159 0.8507 0.0
C854 C 0.36972 0.63415 0.86075 0.0
C855 C 0.35256 0.63134 0.87641 0.0
C856 C 0.35786 0.66219 0.88588 0.0
C857 C 0.38054 0.69604 0.8799 0.0
C858 C 0.39801 0.69912 0.86445 0.0
C859 C 0.39271 0.66836 0.85491 0.0
H860 H 0.38466 0.71988 0.88727 0.0
H861 H 0.3402 0.42468 0.79413 0.0
H862 H 0.97487 0.52353 0.16302 0.0
H863 H 0.91912 0.46813 0.16794 0.0
H864 H 0.97833 0.41204 0.1723 0.0
H865 H 1.03423 0.46728 0.16736 0.0
H866 H 0.91542 0.37134 0.15264 0.0
H867 H 0.94852 0.43336 0.2095 0.0
H868 H 0.96814 0.48657 0.22978 0.0
H869 H 0.87272 0.48994 0.21496 0.0
H870 H 0.85302 0.43718 0.19427 0.0
H871 H 0.78648 0.21498 0.19115 0.0
H872 H 0.83964 0.27164 0.18556 0.0
H873 H 0.7751 0.32241 0.18286 0.0
H874 H 0.7214 0.26549 0.18855 0.0
H875 H 0.83943 0.36693 0.20103 0.0
H876 H 0.80404 0.29984 0.14571 0.0
H877 H 0.78675 0.2475 0.12522 0.0
H878 H 0.8886 0.2543 0.13668 0.0
H879 H 0.90631 0.3064 0.15743 0.0
C880 C 0.97617 0.49944 0.16494 0.0
C881 C 1.0094 0.50019 0.16471 0.0
C882 C 0.94411 0.46766 0.16788 0.0
C883 C 0.94419 0.4356 0.17066 0.0
C884 C 0.97724 0.43617 0.17019 0.0
C885 C 1.00935 0.46798 0.16738 0.0
C886 C 0.91 0.40164 0.17412 0.0
C887 C 0.89907 0.37035 0.16335 0.0
C888 C 0.8879 0.40011 0.18783 0.0
C889 C 0.89921 0.43131 0.20043 0.0
C890 C 0.93178 0.44552 0.21057 0.0
C891 C 0.94295 0.47562 0.22209 0.0
C892 C 0.92163 0.49158 0.22366 0.0
C893 C 0.88909 0.47743 0.21375 0.0
C894 C 0.87788 0.44742 0.20215 0.0
C895 C 0.78323 0.23795 0.1892 0.0
C896 C 0.74905 0.23501 0.19014 0.0
C897 C 0.81396 0.27064 0.18604 0.0
C898 C 0.81178 0.3017 0.18358 0.0
C899 C 0.77789 0.29916 0.18481 0.0
C900 C 0.74702 0.26637 0.18805 0.0
C901 C 0.84479 0.33637 0.17956 0.0
C902 C 0.85556 0.36787 0.19024 0.0
C903 C 0.86686 0.33807 0.16576 0.0
C904 C 0.85637 0.30683 0.15324 0.0
C905 C 0.82265 0.29001 0.14396 0.0
C906 C 0.81279 0.26041 0.13228 0.0
C907 C 0.83653 0.24753 0.12968 0.0
C908 C 0.87022 0.26429 0.13872 0.0
C909 C 0.8802 0.29387 0.15043 0.0
H910 H 0.82884 0.22461 0.12063 0.0
H911 H 0.93034 0.51494 0.23255 0.0
H912 H 0.09378 0.54517 0.10245 0.0
H913 H 0.09261 0.54516 0.07068 0.0
H914 H 0.10054 0.64902 0.07359 0.0
H915 H 0.10117 0.64902 0.10552 0.0
H916 H 1.05239 0.60586 0.04783 0.0
H917 H 0.17398 0.63986 0.06567 0.0
H918 H 0.22161 0.63363 0.08106 0.0
H919 H 0.18667 0.53322 0.05214 0.0
H920 H 0.13848 0.5386 0.03675 0.0
H921 H 0.10463 0.65209 0.96152 0.0
H922 H 0.10163 0.64965 0.99316 0.0
H923 H 0.0949 0.54634 0.98966 0.0
H924 H 0.09908 0.54912 0.95796 0.0
H925 H 0.14172 0.5884 0.01569 0.0
H926 H 1.02073 0.55457 0.99753 0.0
H927 H 0.97283 0.56042 0.98218 0.0
H928 H 1.00628 0.65998 0.01161 0.0
H929 H 1.05473 0.65498 0.02697 0.0
C930 C 0.09518 0.56804 0.09639 0.0
C931 C 0.09776 0.59721 0.10662 0.0
C932 C 0.09466 0.56804 0.07816 0.0
C933 C 0.09704 0.59732 0.06968 0.0
C934 C 0.09879 0.62615 0.07981 0.0
C935 C 0.09923 0.62614 0.09809 0.0
C936 C 0.09799 0.59791 0.05027 0.0
C937 C 0.07224 0.60254 0.04083 0.0
C938 C 0.12329 0.59266 0.04103 0.0
C939 C 0.1524 0.58948 0.05018 0.0
C940 C 0.17629 0.61633 0.06268 0.0
C941 C 0.20341 0.61297 0.07139 0.0
C942 C 0.20711 0.583 0.06761 0.0
C943 C 0.18375 0.55639 0.05507 0.0
C944 C 0.15654 0.5596 0.04634 0.0
C945 C 0.1027 0.62888 0.96745 0.0
C946 C 0.10219 0.60083 0.95712 0.0
C947 C 0.1006 0.62736 0.98557 0.0
C948 C 0.09766 0.59764 0.99385 0.0
C949 C 0.09705 0.56952 0.9836 0.0
C950 C 0.09912 0.57101 0.96544 0.0
C951 C 0.09612 0.59637 0.01323 0.0
C952 C 0.12181 0.59166 0.02268 0.0
C953 C 0.07075 0.60151 0.02246 0.0
C954 C 1.04158 0.60456 0.01328 0.0
C955 C 1.01806 0.57786 0.00063 0.0
C956 C 0.99077 0.58099 0.99195 0.0
C957 C 0.98657 0.6106 0.99589 0.0
C958 C 1.0096 0.63708 0.00856 0.0
C959 C 1.03695 0.6341 0.01727 0.0
H960 H 0.96543 0.61297 0.98915 0.0
H961 H 0.22812 0.58045 0.07437 0.0
H962 H 0.6535 0.10339 0.44129 0.0
H963 H 0.65946 0.10732 0.40982 0.0
H964 H 0.54646 0.07264 0.40234 0.0
H965 H 0.54061 0.06985 0.43389 0.0
H966 H 0.63404 0.06231 0.38332 0.0
H967 H 0.53024 0.10748 0.36703 0.0
H968 H 0.50551 0.14244 0.38111 0.0
H969 H 0.60179 0.20057 0.41447 0.0
H970 H 0.62728 0.16633 0.40044 0.0
H971 H 0.59458 1.0378 0.29248 0.0
H972 H 0.59083 1.03788 0.32403 0.0
H973 H 0.6392 0.15304 0.32728 0.0
H974 H 0.64096 0.15302 0.29549 0.0
H975 H 0.5883 0.1274 0.34871 0.0
H976 H 0.68726 0.10945 0.33835 0.0
H977 H 0.7194 0.08126 0.32498 0.0
H978 H 0.64631 0.98123 0.34603 0.0
H979 H 0.61341 1.0087 0.35934 0.0
C980 C 0.62987 0.09661 0.43297 0.0
C981 C 0.59659 0.08649 0.44018 0.0
C982 C 0.63332 0.0988 0.41492 0.0
C983 C 0.60356 0.09077 0.4036 0.0
C984 C 0.57009 0.07982 0.41075 0.0
C985 C 0.56671 0.07804 0.42883 0.0
C986 C 0.60761 0.09365 0.38437 0.0
C987 C 0.62399 0.07655 0.37578 0.0
C988 C 0.59536 0.11292 0.37445 0.0
C989 C 0.58049 0.13406 0.38279 0.0
C990 C 0.54619 0.12783 0.37732 0.0
C991 C 0.53203 0.14751 0.3853 0.0
C992 C 0.55202 0.17363 0.39871 0.0
C993 C 0.58628 0.18024 0.40412 0.0
C994 C 0.60058 0.16068 0.39617 0.0
C995 C 0.60394 0.0632 0.29979 0.0
C996 C 0.618 0.09543 0.29126 0.0
C997 C 0.60226 0.06323 0.31796 0.0
C998 C 0.61526 0.09552 0.32819 0.0
C999 C 0.6291 0.12774 0.31975 0.0
C1000 C 0.63045 0.12771 0.30152 0.0
C1001 C 0.61418 0.09555 0.34763 0.0
C1002 C 0.59834 0.11317 0.35625 0.0
C1003 C 0.62794 0.0777 0.35766 0.0
C1004 C 0.64768 0.06107 0.34971 0.0
C1005 C 0.67788 0.08138 0.34003 0.0
C1006 C 0.69626 0.06553 0.33247 0.0
C1007 C 0.68485 1.02945 0.33462 0.0
C1008 C 0.65509 1.00916 0.34436 0.0
C1009 C 0.63659 1.02486 0.35193 0.0
H1010 H 0.69911 1.01724 0.32877 0.0
H1011 H 0.54098 0.18879 0.40489 0.0
H1012 H 0.64472 0.63855 0.77406 0.0
H1013 H 0.64811 0.64459 0.74248 0.0
H1014 H 0.55327 0.54021 0.73358 0.0
H1015 H 0.54985 0.53381 0.76497 0.0
H1016 H 0.60443 0.54738 0.71215 0.0
H1017 H 0.54976 0.61725 0.72926 0.0
H1018 H 0.54559 0.66485 0.74617 0.0
H1019 H 0.6446 0.74462 0.72635 0.0
H1020 H 0.64962 0.69742 0.70951 0.0
H1021 H 0.56424 0.55159 0.62273 0.0
H1022 H 0.56119 0.54925 0.65437 0.0
H1023 H 0.65286 0.65623 0.66109 0.0
H1024 H 0.65502 0.65948 0.62943 0.0
H1025 H 0.60526 0.64905 0.68378 0.0
H1026 H 0.66036 0.58038 0.66658 0.0
H1027 H 0.66579 0.53341 0.6498 0.0
H1028 H 0.56806 0.45224 0.67 0.0
H1029 H 0.56177 0.49877 0.68672 0.0
C1030 C 0.62451 0.61692 0.76539 0.0
C1031 C 0.59698 0.58572 0.77213 0.0
C1032 C 0.62641 0.62047 0.74731 0.0
C1033 C 0.60078 0.59295 0.73559 0.0
C1034 C 0.57338 0.5618 0.74231 0.0
C1035 C 0.57141 0.55827 0.76033 0.0
C1036 C 0.60262 0.59615 0.71633 0.0
C1037 C 0.60416 0.56939 0.70594 0.0
C1038 C 0.60329 0.62536 0.7082 0.0
C1039 C 0.60025 0.65377 0.71827 0.0
C1040 C 0.57079 0.64491 0.72862 0.0
C1041 C 0.56825 0.67182 0.73817 0.0
C1042 C 0.59487 0.70773 0.73737 0.0
C1043 C 0.62404 0.71679 0.72698 0.0
C1044 C 0.62673 0.68998 0.71742 0.0
C1045 C 0.58345 0.57489 0.63088 0.0
C1046 C 0.61002 0.60566 0.62341 0.0
C1047 C 0.58195 0.57333 0.64904 0.0
C1048 C 0.60722 0.60231 0.66021 0.0
C1049 C 0.63319 0.6334 0.6528 0.0
C1050 C 0.6346 0.63506 0.63465 0.0
C1051 C 0.60678 0.60009 0.67957 0.0
C1052 C 0.60558 0.62705 0.68998 0.0
C1053 C 0.60664 0.57116 0.68775 0.0
C1054 C 0.61042 0.54309 0.67777 0.0
C1055 C 0.63988 0.55253 0.66734 0.0
C1056 C 0.64314 0.52598 0.65786 0.0
C1057 C 0.61724 0.48987 0.6588 0.0
C1058 C 0.58807 0.48022 0.66926 0.0
C1059 C 0.58467 0.50667 0.67876 0.0
H1060 H 0.61981 0.46936 0.65145 0.0
H1061 H 0.59285 0.72852 0.74477 0.0
H1062 H 0.61761 0.14446 0.55106 0.0
H1063 H 0.62631 0.14417 0.58259 0.0
H1064 H 0.56648 1.02842 0.57891 0.0
H1065 H 0.55649 1.02859 0.54735 0.0
H1066 H 0.55191 0.05371 0.60786 0.0
H1067 H 0.65947 0.07584 0.58004 0.0
H1068 H 0.7094 0.1073 0.56073 0.0
H1069 H 0.7469 0.20553 0.59208 0.0
H1070 H 0.69684 0.17478 0.61143 0.0
H1071 H 0.6258 1.02859 0.68691 0.0
H1072 H 0.60716 1.02863 0.65653 0.0
H1073 H 0.66309 0.14431 0.66052 0.0
H1074 H 0.68163 0.14449 0.69095 0.0
H1075 H 0.67891 0.11888 0.63154 0.0
H1076 H 0.57161 0.09575 0.6598 0.0
H1077 H 0.52109 0.06393 0.67873 0.0
H1078 H 0.48327 0.96668 0.64651 0.0
H1079 H 0.53388 0.99781 0.62751 0.0
C1080 C 0.60593 0.11895 0.557 0.0
C1081 C 0.58672 0.08652 0.54676 0.0
C1082 C 0.61103 0.11882 0.575 0.0
C1083 C 0.59783 0.08626 0.58304 0.0
C1084 C 0.57709 0.05385 0.57296 0.0
C1085 C 0.57144 0.05397 0.55494 0.0
C1086 C 0.60736 0.08609 0.60174 0.0
C1087 C 0.57969 0.06759 0.61301 0.0
C1088 C 0.64361 0.10471 0.6085 0.0
C1089 C 0.67424 0.12305 0.59711 0.0
C1090 C 0.67827 0.10418 0.58277 0.0
C1091 C 0.70658 0.12189 0.57182 0.0
C1092 C 0.73127 0.1584 0.57516 0.0
C1093 C 0.72774 0.17725 0.5895 0.0
C1094 C 0.69942 0.15969 0.60047 0.0
C1095 C 0.6337 0.05403 0.6814 0.0
C1096 C 0.65523 0.08655 0.69134 0.0
C1097 C 0.62306 0.054 0.66403 0.0
C1098 C 0.63352 0.08647 0.65631 0.0
C1099 C 0.6548 0.11895 0.66622 0.0
C1100 C 0.66547 0.11901 0.68358 0.0
C1101 C 0.62345 0.08667 0.6377 0.0
C1102 C 0.6511 0.10507 0.62641 0.0
C1103 C 0.58723 0.0678 0.63094 0.0
C1104 C 0.55675 0.04904 0.64233 0.0
C1105 C 0.5527 0.06751 0.65683 0.0
C1106 C 0.52401 0.04961 0.66756 0.0
C1107 C 0.49904 1.01329 0.66385 0.0
C1108 C 0.50266 0.99481 0.64938 0.0
C1109 C 0.53132 1.01257 0.63862 0.0
H1110 H 0.47684 0.99948 0.67217 0.0
H1111 H 0.75318 0.17206 0.56668 0.0
H1112 H 0.62193 0.52181 0.87252 0.0
H1113 H 0.61297 0.49909 0.90152 0.0
H1114 H 0.5555 0.55461 0.91435 0.0
H1115 H 0.56495 0.57818 0.88517 0.0
H1116 H 0.6009 0.55449 0.94251 0.0
H1117 H 0.50812 0.47005 0.90004 0.0
H1118 H 0.48841 0.43507 0.87166 0.0
H1119 H 0.54529 0.38037 0.88543 0.0
H1120 H 0.56577 0.4154 0.9138 0.0
H1121 H 0.51365 0.44981 0.01304 0.0
H1122 H 0.52743 0.48157 0.98635 0.0
H1123 H 0.5661 0.41357 0.96506 0.0
H1124 H 0.54976 0.3798 0.99115 0.0
H1125 H 0.52911 0.42159 0.94105 0.0
H1126 H 0.62353 0.50343 0.98206 0.0
H1127 H 0.65068 0.54075 0.00947 0.0
H1128 H 0.59877 0.60144 0.99825 0.0
H1129 H 0.5709 0.56415 0.97087 0.0
C1130 C 0.60782 0.52967 0.88157 0.0
C1131 C 0.5936 0.5513 0.87652 0.0
C1132 C 0.60277 0.51668 0.89814 0.0
C1133 C 0.58294 0.52458 0.90989 0.0
C1134 C 0.57072 0.5481 0.90537 0.0
C1135 C 0.57608 0.56148 0.88874 0.0
C1136 C 0.57248 0.50563 0.92619 0.0
C1137 C 0.58473 0.52549 0.94229 0.0
C1138 C 0.5523 0.46773 0.92574 0.0
C1139 C 0.53857 0.44544 0.90902 0.0
C1140 C 0.51643 0.45058 0.89701 0.0
C1141 C 0.50515 0.43077 0.88092 0.0
C1142 C 0.51557 0.4055 0.87675 0.0
C1143 C 0.53718 0.3999 0.88869 0.0
C1144 C 0.54858 0.41968 0.90479 0.0
C1145 C 0.52452 0.44112 0.00259 0.0
C1146 C 0.53051 0.41208 0.00433 0.0
C1147 C 0.53298 0.45979 0.98741 0.0
C1148 C 0.54845 0.45047 0.97377 0.0
C1149 C 0.55435 0.42144 0.97542 0.0
C1150 C 0.54535 0.40236 0.99048 0.0
C1151 C 0.55774 0.47035 0.95762 0.0
C1152 C 0.54515 0.45062 0.94144 0.0
C1153 C 0.5782 0.50834 0.95802 0.0
C1154 C 0.5948 0.53073 0.97451 0.0
C1155 C 0.61765 0.52454 0.98551 0.0
C1156 C 0.63322 0.54572 0.00103 0.0
C1157 C 0.62636 0.57338 0.00562 0.0
C1158 C 0.604 0.57997 0.99468 0.0
C1159 C 0.58833 0.55883 0.97916 0.0
H1160 H 0.63846 0.58977 0.01764 0.0
H1161 H 0.50692 0.39028 0.86426 0.0
H1162 H 0.15454 0.57519 0.21176 0.0
H1163 H 0.15073 0.55916 0.24209 0.0
H1164 H 0.07108 0.5908 0.2498 0.0
H1165 H 0.07416 0.60636 0.2193 0.0
H1166 H 0.12958 0.6142 0.27792 0.0
H1167 H 1.03842 0.51066 0.24404 0.0
H1168 H 1.01586 0.46596 0.21898 0.0
H1169 H 0.08827 0.42955 0.23499 0.0
H1170 H 0.11199 0.47473 0.25992 0.0
H1171 H 0.07541 0.53137 0.35796 0.0
H1172 H 0.07345 0.54932 0.3284 0.0
H1173 H 0.13337 0.49888 0.3112 0.0
H1174 H 0.13403 0.47939 0.34055 0.0
H1175 H 0.08074 0.4853 0.28768 0.0
H1176 H 0.17415 0.5902 0.32042 0.0
H1177 H 0.19971 0.63689 0.34465 0.0
H1178 H 0.12485 0.67154 0.33055 0.0
H1179 H 0.09852 0.6247 0.30636 0.0
C1180 C 0.13656 0.57923 0.21995 0.0
C1181 C 0.11454 0.59191 0.21315 0.0
C1182 C 0.13437 0.56996 0.23724 0.0
C1183 C 0.11048 0.57364 0.24805 0.0
C1184 C 0.08965 0.58782 0.24158 0.0
C1185 C 0.09139 0.59657 0.22419 0.0
C1186 C 0.10607 0.56083 0.26582 0.0
C1187 C 0.11838 0.586 0.28014 0.0
C1188 C 0.09199 0.52409 0.26853 0.0
C1189 C 0.07725 0.49635 0.25376 0.0
C1190 C 1.04978 0.49335 0.24214 0.0
C1191 C 1.03673 0.46789 0.22797 0.0
C1192 C 1.05062 0.44494 0.22539 0.0
C1193 C 0.07755 0.44737 0.237 0.0
C1194 C 0.09082 0.47292 0.25115 0.0
C1195 C 0.08768 0.52358 0.34784 0.0
C1196 C 0.10503 0.50406 0.35165 0.0
C1197 C 0.08687 0.53422 0.33098 0.0
C1198 C 0.10375 0.52592 0.31765 0.0
C1199 C 0.12032 0.50572 0.32131 0.0
C1200 C 0.12098 0.49491 0.33813 0.0
C1201 C 0.10471 0.53873 0.29995 0.0
C1202 C 0.0917 0.51351 0.28556 0.0
C1203 C 0.11826 0.57549 0.29719 0.0
C1204 C 0.13411 0.6037 0.31171 0.0
C1205 C 0.16295 0.60759 0.32257 0.0
C1206 C 0.17761 0.63411 0.33628 0.0
C1207 C 0.16384 0.6571 0.33917 0.0
C1208 C 0.13545 0.65367 0.32832 0.0
C1209 C 0.12066 0.62716 0.3146 0.0
H1210 H 0.17524 0.67762 0.34978 0.0
H1211 H 1.04048 0.42524 0.21441 0.0
loop_
_geom_bond_atom_site_label_1
_geom_bond_atom_site_label_2
_geom_bond_distance
_geom_bond_site_symmetry_2
_ccdc_geom_bond_type
Tb0 C9 2.764 1_455 S
Tb0 O10 2.325 1_455 S
Tb0 O13 2.303 . S
Tb0 O17 2.322 . S
Tb0 O18 2.349 . S
Tb0 O21 2.415 1_455 S
Tb0 O22 2.399 1_455 S
Tb1 O11 2.322 . S
Tb1 O12 2.349 . S
Tb1 O14 2.415 . S
Tb1 O15 2.399 . S
Tb1 O16 2.325 . S
Tb1 O19 2.303 . S
Tb1 C30 2.764 . S
C2 O18 1.261 . S
C2 O19 1.257 . S
C3 C6 1.358 . S
C3 C7 1.332 . S
C3 C9 1.504 . S
C4 C5 1.373 . S
C4 C8 1.308 . S
C5 C4 1.373 . S
C5 C6 1.429 . S
C5 H32 0.932 . S
C6 C3 1.358 . S
C6 C5 1.429 . S
C6 H33 0.930 . S
C7 C3 1.332 . S
C7 C8 1.394 . S
C7 H34 0.932 . S
C8 C4 1.308 . S
C8 C7 1.394 . S
C8 H35 0.929 . S
C9 Tb0 2.764 1_655 S
C9 C3 1.504 . S
C9 O21 1.239 . S
C9 O22 1.263 . S
O10 Tb0 2.325 1_655 S
O10 C20 1.236 . S
O11 Tb1 2.322 . S
O11 C20 1.257 1_455 S
O12 Tb1 2.349 . S
O12 C23 1.261 . S
O13 Tb0 2.303 . S
O13 C23 1.257 . S
O14 Tb1 2.415 . S
O14 C30 1.239 . S
O15 Tb1 2.399 . S
O15 C30 1.263 . S
O16 Tb1 2.325 . S
O16 C31 1.236 . S
O17 Tb0 2.322 . S
O17 C31 1.257 . S
O18 Tb0 2.349 . S
O18 C2 1.261 . S
O19 Tb1 2.303 . S
O19 C2 1.257 . S
C20 O10 1.236 . S
C20 O11 1.257 1_655 S
O21 Tb0 2.415 1_655 S
O21 C9 1.239 . S
O22 Tb0 2.399 1_655 S
O22 C9 1.263 . S
C23 O12 1.261 . S
C23 O13 1.257 . S
C24 C27 1.358 . S
C24 C28 1.332 . S
C24 C30 1.504 . S
C25 C26 1.373 . S
C25 C29 1.308 . S
C26 C25 1.373 . S
C26 C27 1.429 . S
C26 H36 0.932 . S
C27 C24 1.358 . S
C27 C26 1.429 . S
C27 H37 0.930 . S
C28 C24 1.332 . S
C28 C29 1.394 . S
C28 H38 0.932 . S
C29 C25 1.308 . S
C29 C28 1.394 . S
C29 H39 0.929 . S
C30 Tb1 2.764 . S
C30 O14 1.239 . S
C30 O15 1.263 . S
C30 C24 1.504 . S
C31 O16 1.236 . S
C31 O17 1.257 . S
H32 C5 0.932 . S
H33 C6 0.930 . S
H34 C7 0.932 . S
H35 C8 0.929 . S
H36 C26 0.932 . S
H37 C27 0.930 . S
H38 C28 0.932 . S
H39 C29 0.929 . S
Tb40 C49 2.764 1_545 S
Tb40 O50 2.325 1_545 S
Tb40 O53 2.303 . S
Tb40 O57 2.322 . S
Tb40 O58 2.349 . S
Tb40 O61 2.415 1_545 S
Tb40 O62 2.399 1_545 S
Tb41 O51 2.322 1_545 S
Tb41 O52 2.349 . S
Tb41 O54 2.415 . S
Tb41 O55 2.399 . S
Tb41 O56 2.325 . S
Tb41 O59 2.303 . S
Tb41 C70 2.764 . S
C42 O58 1.261 . S
C42 O59 1.257 . S
C43 C46 1.358 . S
C43 C47 1.332 . S
C43 C49 1.504 . S
C44 C45 1.373 . S
C44 C48 1.308 . S
C45 C44 1.373 . S
C45 C46 1.429 . S
C45 H72 0.932 . S
C46 C43 1.358 . S
C46 C45 1.429 . S
C46 H73 0.930 . S
C47 C43 1.332 . S
C47 C48 1.394 . S
C47 H74 0.932 . S
C48 C44 1.308 . S
C48 C47 1.394 . S
C48 H75 0.929 . S
C49 Tb40 2.764 1_565 S
C49 C43 1.504 . S
C49 O61 1.239 . S
C49 O62 1.263 . S
O50 Tb40 2.325 1_565 S
O50 C60 1.236 . S
O51 Tb41 2.322 1_565 S
O51 C60 1.257 . S
O52 Tb41 2.349 . S
O52 C63 1.261 . S
O53 Tb40 2.303 . S
O53 C63 1.257 . S
O54 Tb41 2.415 . S
O54 C70 1.239 . S
O55 Tb41 2.399 . S
O55 C70 1.263 . S
O56 Tb41 2.325 . S
O56 C71 1.236 . S
O57 Tb40 2.322 . S
O57 C71 1.257 . S
O58 Tb40 2.349 . S
O58 C42 1.261 . S
O59 Tb41 2.303 . S
O59 C42 1.257 . S
C60 O50 1.236 . S
C60 O51 1.257 . S
O61 Tb40 2.415 1_565 S
O61 C49 1.239 . S
O62 Tb40 2.399 1_565 S
O62 C49 1.263 . S
C63 O52 1.261 . S
C63 O53 1.257 . S
C64 C67 1.358 . S
C64 C68 1.332 . S
C64 C70 1.504 . S
C65 C66 1.373 . S
C65 C69 1.308 . S
C66 C65 1.373 . S
C66 C67 1.429 . S
C66 H76 0.932 . S
C67 C64 1.358 . S
C67 C66 1.429 . S
C67 H77 0.930 . S
C68 C64 1.332 . S
C68 C69 1.394 . S
C68 H78 0.932 . S
C69 C65 1.308 . S
C69 C68 1.394 . S
C69 H79 0.929 . S
C70 Tb41 2.764 . S
C70 O54 1.239 . S
C70 O55 1.263 . S
C70 C64 1.504 . S
C71 O56 1.236 . S
C71 O57 1.257 . S
H72 C45 0.932 . S
H73 C46 0.930 . S
H74 C47 0.932 . S
H75 C48 0.929 . S
H76 C66 0.932 . S
H77 C67 0.930 . S
H78 C68 0.932 . S
H79 C69 0.929 . S
Tb80 C89 2.764 . S
Tb80 O90 2.325 . S
Tb80 O93 2.303 . S
Tb80 O97 2.322 . S
Tb80 O98 2.349 . S
Tb80 O101 2.415 . S
Tb80 O102 2.399 . S
Tb81 O91 2.322 . S
Tb81 O92 2.349 . S
Tb81 O94 2.415 . S
Tb81 O95 2.399 . S
Tb81 O96 2.325 . S
Tb81 O99 2.303 . S
Tb81 C110 2.764 . S
C82 O98 1.261 . S
C82 O99 1.257 . S
C83 C86 1.358 . S
C83 C87 1.332 . S
C83 C89 1.504 . S
C84 C85 1.373 . S
C84 C88 1.308 . S
C85 C84 1.373 . S
C85 C86 1.429 . S
C85 H112 0.932 . S
C86 C83 1.358 . S
C86 C85 1.429 . S
C86 H113 0.930 . S
C87 C83 1.332 . S
C87 C88 1.394 . S
C87 H114 0.932 . S
C88 C84 1.308 . S
C88 C87 1.394 . S
C88 H115 0.929 . S
C89 Tb80 2.764 . S
C89 C83 1.504 . S
C89 O101 1.239 . S
C89 O102 1.263 . S
O90 Tb80 2.325 . S
O90 C100 1.236 . S
O91 Tb81 2.322 . S
O91 C100 1.257 . S
O92 Tb81 2.349 . S
O92 C103 1.261 . S
O93 Tb80 2.303 . S
O93 C103 1.257 . S
O94 Tb81 2.415 . S
O94 C110 1.239 . S
O95 Tb81 2.399 . S
O95 C110 1.263 . S
O96 Tb81 2.325 . S
O96 C111 1.236 . S
O97 Tb80 2.322 . S
O97 C111 1.257 . S
O98 Tb80 2.349 . S
O98 C82 1.261 . S
O99 Tb81 2.303 . S
O99 C82 1.257 . S
C100 O90 1.236 . S
C100 O91 1.257 . S
O101 Tb80 2.415 . S
O101 C89 1.239 . S
O102 Tb80 2.399 . S
O102 C89 1.263 . S
C103 O92 1.261 . S
C103 O93 1.257 . S
C104 C107 1.358 . S
C104 C108 1.332 . S
C104 C110 1.504 . S
C105 C106 1.373 . S
C105 C109 1.308 . S
C106 C105 1.373 . S
C106 C107 1.429 . S
C106 H116 0.932 . S
C107 C104 1.358 . S
C107 C106 1.429 . S
C107 H117 0.930 . S
C108 C104 1.332 . S
C108 C109 1.394 . S
C108 H118 0.932 . S
C109 C105 1.308 . S
C109 C108 1.394 . S
C109 H119 0.929 . S
C110 Tb81 2.764 . S
C110 O94 1.239 . S
C110 O95 1.263 . S
C110 C104 1.504 . S
C111 O96 1.236 . S
C111 O97 1.257 . S
H112 C85 0.932 . S
H113 C86 0.930 . S
H114 C87 0.932 . S
H115 C88 0.929 . S
H116 C106 0.932 . S
H117 C107 0.930 . S
H118 C108 0.932 . S
H119 C109 0.929 . S
P120 O131 1.490 1_545 S
P120 C134 1.812 1_545 S
P120 C140 1.803 . S
P120 C146 1.819 . S
H121 C135 0.941 . S
H122 C136 0.939 . S
H123 C138 0.940 . S
H124 C139 0.940 1_545 S
H125 C141 0.939 . S
H126 C142 0.942 . S
H127 C144 0.940 . S
H128 C145 0.939 . S
H129 C147 0.941 . S
H130 C151 0.939 . S
O131 P120 1.490 1_565 S
H132 C148 0.939 . S
H133 C150 0.940 . S
C134 P120 1.812 1_565 S
C134 C135 1.389 . S
C134 C139 1.391 . S
C135 H121 0.941 . S
C135 C134 1.389 . S
C135 C136 1.397 . S
C136 H122 0.939 . S
C136 C135 1.397 . S
C136 C137 1.378 . S
C137 C136 1.378 . S
C137 C138 1.378 . S
C138 H123 0.940 . S
C138 C137 1.378 . S
C138 C139 1.396 . S
C139 H124 0.940 1_565 S
C139 C134 1.391 . S
C139 C138 1.396 . S
C140 P120 1.803 . S
C140 C141 1.378 . S
C140 C145 1.400 . S
C141 H125 0.939 . S
C141 C140 1.378 . S
C141 C142 1.361 . S
C142 H126 0.942 . S
C142 C141 1.361 . S
C142 C143 1.369 . S
C143 C142 1.369 . S
C143 C144 1.404 . S
C144 H127 0.940 . S
C144 C143 1.404 . S
C144 C145 1.389 . S
C145 H128 0.939 . S
C145 C140 1.400 . S
C145 C144 1.389 . S
C146 P120 1.819 . S
C146 C147 1.391 1_545 S
C146 C151 1.391 . S
C147 H129 0.941 . S
C147 C146 1.391 1_565 S
C147 C148 1.396 . S
C148 H132 0.939 . S
C148 C147 1.396 . S
C148 C149 1.397 1_565 S
C149 C148 1.397 1_545 S
C149 C150 1.385 . S
C150 H133 0.940 . S
C150 C149 1.385 . S
C150 C151 1.388 . S
C151 H130 0.939 . S
C151 C146 1.391 . S
C151 C150 1.388 . S
P152 O163 1.490 . S
P152 C166 1.812 . S
P152 C172 1.803 . S
P152 C178 1.819 . S
H153 C167 0.941 . S
H154 C168 0.939 . S
H155 C170 0.940 . S
H156 C171 0.940 . S
H157 C173 0.939 . S
H158 C174 0.942 . S
H159 C176 0.940 . S
H160 C177 0.939 . S
H161 C179 0.941 . S
H162 C183 0.939 . S
O163 P152 1.490 . S
H164 C180 0.939 . S
H165 C182 0.940 . S
C166 P152 1.812 . S
C166 C167 1.389 . S
C166 C171 1.391 . S
C167 H153 0.941 . S
C167 C166 1.389 . S
C167 C168 1.397 . S
C168 H154 0.939 . S
C168 C167 1.397 . S
C168 C169 1.378 . S
C169 C168 1.378 . S
C169 C170 1.378 . S
C170 H155 0.940 . S
C170 C169 1.378 . S
C170 C171 1.396 . S
C171 H156 0.940 . S
C171 C166 1.391 . S
C171 C170 1.396 . S
C172 P152 1.803 . S
C172 C173 1.378 . S
C172 C177 1.400 . S
C173 H157 0.939 . S
C173 C172 1.378 . S
C173 C174 1.361 . S
C174 H158 0.942 . S
C174 C173 1.361 . S
C174 C175 1.369 . S
C175 C174 1.369 . S
C175 C176 1.404 . S
C176 H159 0.940 . S
C176 C175 1.404 . S
C176 C177 1.389 . S
C177 H160 0.939 . S
C177 C172 1.400 . S
C177 C176 1.389 . S
C178 P152 1.819 . S
C178 C179 1.391 . S
C178 C183 1.391 . S
C179 H161 0.941 . S
C179 C178 1.391 . S
C179 C180 1.396 . S
C180 H164 0.939 . S
C180 C179 1.396 . S
C180 C181 1.397 . S
C181 C180 1.397 . S
C181 C182 1.385 . S
C182 H165 0.940 . S
C182 C181 1.385 . S
C182 C183 1.388 . S
C183 H162 0.939 . S
C183 C178 1.391 . S
C183 C182 1.388 . S
P184 O195 1.490 . S
P184 C198 1.812 . S
P184 C204 1.803 . S
P184 C210 1.819 . S
H185 C199 0.941 . S
H186 C200 0.939 . S
H187 C202 0.940 . S
H188 C203 0.940 . S
H189 C205 0.939 . S
H190 C206 0.942 . S
H191 C208 0.940 . S
H192 C209 0.939 . S
H193 C211 0.941 . S
H194 C215 0.939 . S
O195 P184 1.490 . S
H196 C212 0.939 . S
H197 C214 0.940 . S
C198 P184 1.812 . S
C198 C199 1.389 . S
C198 C203 1.391 . S
C199 H185 0.941 . S
C199 C198 1.389 . S
C199 C200 1.397 . S
C200 H186 0.939 . S
C200 C199 1.397 . S
C200 C201 1.378 . S
C201 C200 1.378 . S
C201 C202 1.378 . S
C202 H187 0.940 . S
C202 C201 1.378 . S
C202 C203 1.396 . S
C203 H188 0.940 . S
C203 C198 1.391 . S
C203 C202 1.396 . S
C204 P184 1.803 . S
C204 C205 1.378 . S
C204 C209 1.400 . S
C205 H189 0.939 . S
C205 C204 1.378 . S
C205 C206 1.361 1_455 S
C206 H190 0.942 . S
C206 C205 1.361 1_655 S
C206 C207 1.369 . S
C207 C206 1.369 . S
C207 C208 1.404 . S
C208 H191 0.940 . S
C208 C207 1.404 . S
C208 C209 1.389 1_655 S
C209 H192 0.939 . S
C209 C204 1.400 . S
C209 C208 1.389 1_455 S
C210 P184 1.819 . S
C210 C211 1.391 . S
C210 C215 1.391 . S
C211 H193 0.941 . S
C211 C210 1.391 . S
C211 C212 1.396 . S
C212 H196 0.939 . S
C212 C211 1.396 . S
C212 C213 1.397 . S
C213 C212 1.397 . S
C213 C214 1.385 . S
C214 H197 0.940 . S
C214 C213 1.385 . S
C214 C215 1.388 . S
C215 H194 0.939 . S
C215 C210 1.391 . S
C215 C214 1.388 . S
P216 O227 1.490 . S
P216 C230 1.812 . S
P216 C236 1.803 1_455 S
P216 C242 1.819 . S
H217 C231 0.941 . S
H218 C232 0.939 . S
H219 C234 0.940 . S
H220 C235 0.940 . S
H221 C237 0.939 . S
H222 C238 0.942 . S
H223 C240 0.940 . S
H224 C241 0.939 . S
H225 C243 0.941 . S
H226 C247 0.939 . S
O227 P216 1.490 . S
H228 C244 0.939 . S
H229 C246 0.940 . S
C230 P216 1.812 . S
C230 C231 1.389 . S
C230 C235 1.391 . S
C231 H217 0.941 . S
C231 C230 1.389 . S
C231 C232 1.397 . S
C232 H218 0.939 . S
C232 C231 1.397 . S
C232 C233 1.378 . S
C233 C232 1.378 . S
C233 C234 1.378 . S
C234 H219 0.940 . S
C234 C233 1.378 . S
C234 C235 1.396 . S
C235 H220 0.940 . S
C235 C230 1.391 . S
C235 C234 1.396 . S
C236 P216 1.803 1_655 S
C236 C237 1.378 . S
C236 C241 1.400 . S
C237 H221 0.939 . S
C237 C236 1.378 . S
C237 C238 1.361 . S
C238 H222 0.942 . S
C238 C237 1.361 . S
C238 C239 1.369 . S
C239 C238 1.369 . S
C239 C240 1.404 . S
C240 H223 0.940 . S
C240 C239 1.404 . S
C240 C241 1.389 . S
C241 H224 0.939 . S
C241 C236 1.400 . S
C241 C240 1.389 . S
C242 P216 1.819 . S
C242 C243 1.391 . S
C242 C247 1.391 1_455 S
C243 H225 0.941 . S
C243 C242 1.391 . S
C243 C244 1.396 . S
C244 H228 0.939 . S
C244 C243 1.396 . S
C244 C245 1.397 . S
C245 C244 1.397 . S
C245 C246 1.385 1_455 S
C246 H229 0.940 . S
C246 C245 1.385 1_655 S
C246 C247 1.388 . S
C247 H226 0.939 . S
C247 C242 1.391 1_655 S
C247 C246 1.388 . S
P248 O259 1.490 . S
P248 C262 1.812 . S
P248 C268 1.803 1_545 S
P248 C274 1.819 . S
H249 C263 0.941 . S
H250 C264 0.939 . S
H251 C266 0.940 . S
H252 C267 0.940 . S
H253 C269 0.939 . S
H254 C270 0.942 . S
H255 C272 0.940 . S
H256 C273 0.939 . S
H257 C275 0.941 . S
H258 C279 0.939 . S
O259 P248 1.490 . S
H260 C276 0.939 . S
H261 C278 0.940 . S
C262 P248 1.812 . S
C262 C263 1.389 . S
C262 C267 1.391 . S
C263 H249 0.941 . S
C263 C262 1.389 . S
C263 C264 1.397 . S
C264 H250 0.939 . S
C264 C263 1.397 . S
C264 C265 1.378 . S
C265 C264 1.378 . S
C265 C266 1.378 . S
C266 H251 0.940 . S
C266 C265 1.378 . S
C266 C267 1.396 . S
C267 H252 0.940 . S
C267 C262 1.391 . S
C267 C266 1.396 . S
C268 P248 1.803 1_565 S
C268 C269 1.378 . S
C268 C273 1.400 . S
C269 H253 0.939 . S
C269 C268 1.378 . S
C269 C270 1.361 . S
C270 H254 0.942 . S
C270 C269 1.361 . S
C270 C271 1.369 . S
C271 C270 1.369 . S
C271 C272 1.404 . S
C272 H255 0.940 . S
C272 C271 1.404 . S
C272 C273 1.389 . S
C273 H256 0.939 . S
C273 C268 1.400 . S
C273 C272 1.389 . S
C274 P248 1.819 . S
C274 C275 1.391 . S
C274 C279 1.391 1_545 S
C275 H257 0.941 . S
C275 C274 1.391 . S
C275 C276 1.396 . S
C276 H260 0.939 . S
C276 C275 1.396 . S
C276 C277 1.397 . S
C277 C276 1.397 . S
C277 C278 1.385 1_545 S
C278 H261 0.940 . S
C278 C277 1.385 1_565 S
C278 C279 1.388 . S
C279 H258 0.939 . S
C279 C274 1.391 1_565 S
C279 C278 1.388 . S
P280 O291 1.490 . S
P280 C294 1.812 . S
P280 C300 1.803 . S
P280 C306 1.819 . S
H281 C295 0.941 . S
H282 C296 0.939 . S
H283 C298 0.940 . S
H284 C299 0.940 . S
H285 C301 0.939 . S
H286 C302 0.942 . S
H287 C304 0.940 . S
H288 C305 0.939 . S
H289 C307 0.941 . S
H290 C311 0.939 . S
O291 P280 1.490 . S
H292 C308 0.939 . S
H293 C310 0.940 . S
C294 P280 1.812 . S
C294 C295 1.389 . S
C294 C299 1.391 . S
C295 H281 0.941 . S
C295 C294 1.389 . S
C295 C296 1.397 . S
C296 H282 0.939 . S
C296 C295 1.397 . S
C296 C297 1.378 . S
C297 C296 1.378 . S
C297 C298 1.378 . S
C298 H283 0.940 . S
C298 C297 1.378 . S
C298 C299 1.396 . S
C299 H284 0.940 . S
C299 C294 1.391 . S
C299 C298 1.396 . S
C300 P280 1.803 . S
C300 C301 1.378 . S
C300 C305 1.400 . S
C301 H285 0.939 . S
C301 C300 1.378 . S
C301 C302 1.361 . S
C302 H286 0.942 . S
C302 C301 1.361 . S
C302 C303 1.369 . S
C303 C302 1.369 . S
C303 C304 1.404 . S
C304 H287 0.940 . S
C304 C303 1.404 . S
C304 C305 1.389 . S
C305 H288 0.939 . S
C305 C300 1.400 . S
C305 C304 1.389 . S
C306 P280 1.819 . S
C306 C307 1.391 . S
C306 C311 1.391 . S
C307 H289 0.941 . S
C307 C306 1.391 . S
C307 C308 1.396 . S
C308 H292 0.939 . S
C308 C307 1.396 . S
C308 C309 1.397 . S
C309 C308 1.397 . S
C309 C310 1.385 . S
C310 H293 0.940 . S
C310 C309 1.385 . S
C310 C311 1.388 . S
C311 H290 0.939 . S
C311 C306 1.391 . S
C311 C310 1.388 . S
H312 C330 0.951 . S
H313 C332 0.951 . S
H314 C334 0.950 . S
H315 C335 0.950 . S
H316 C337 0.950 . S
H317 C340 0.950 . S
H318 C341 0.950 . S
H319 C343 0.950 . S
H320 C344 0.950 . S
H321 C345 0.951 . S
H322 C347 0.951 . S
H323 C349 0.950 . S
H324 C350 0.950 . S
H325 C352 0.950 . S
H326 C355 0.950 . S
H327 C356 0.950 . S
H328 C358 0.950 . S
H329 C359 0.950 . S
C330 H312 0.951 . S
C330 C331 1.366 . S
C330 C332 1.388 . S
C331 C330 1.366 . S
C331 C335 1.385 . S
C332 H313 0.951 . S
C332 C330 1.388 . S
C332 C333 1.366 . S
C333 C332 1.366 . S
C333 C334 1.414 . S
C333 C336 1.499 . S
C334 H314 0.950 . S
C334 C333 1.414 . S
C334 C335 1.374 . S
C335 H315 0.950 . S
C335 C331 1.385 . S
C335 C334 1.374 . S
C336 C333 1.499 . S
C336 C337 1.373 . S
C336 C338 1.389 . S
C337 H316 0.950 . S
C337 C336 1.373 . S
C337 C353 1.377 . S
C338 C336 1.389 . S
C338 C339 1.524 . S
C338 C352 1.377 . S
C339 C338 1.524 . S
C339 C340 1.397 . S
C339 C344 1.363 . S
C340 H317 0.950 . S
C340 C339 1.397 . S
C340 C341 1.334 . S
C341 H318 0.950 . S
C341 C340 1.334 . S
C341 C342 1.287 . S
C342 C341 1.287 . S
C342 C343 1.524 . S
C342 H361 0.913 . S
C343 H319 0.950 . S
C343 C342 1.524 . S
C343 C344 1.415 . S
C344 H320 0.950 . S
C344 C339 1.363 . S
C344 C343 1.415 . S
C345 H321 0.951 . S
C345 C346 1.366 . S
C345 C347 1.388 . S
C346 C345 1.366 . S
C346 C350 1.385 . S
C347 H322 0.951 . S
C347 C345 1.388 . S
C347 C348 1.366 . S
C348 C347 1.366 . S
C348 C349 1.414 . S
C348 C351 1.499 . S
C349 H323 0.950 . S
C349 C348 1.414 . S
C349 C350 1.374 . S
C350 H324 0.950 . S
C350 C346 1.385 . S
C350 C349 1.374 . S
C351 C348 1.499 . S
C351 C352 1.373 . S
C351 C353 1.389 . S
C352 H325 0.950 . S
C352 C338 1.377 . S
C352 C351 1.373 . S
C353 C337 1.377 . S
C353 C351 1.389 . S
C353 C354 1.524 . S
C354 C353 1.524 . S
C354 C355 1.397 . S
C354 C359 1.363 . S
C355 H326 0.950 . S
C355 C354 1.397 . S
C355 C356 1.334 . S
C356 H327 0.950 . S
C356 C355 1.334 . S
C356 C357 1.287 . S
C357 C356 1.287 . S
C357 C358 1.524 . S
C357 H360 0.999 . S
C358 H328 0.950 . S
C358 C357 1.524 . S
C358 C359 1.415 . S
C359 H329 0.950 . S
C359 C354 1.363 . S
C359 C358 1.415 . S
H360 C357 0.999 . S
H361 C342 0.913 . S
H362 C380 0.951 . S
H363 C382 0.951 . S
H364 C384 0.950 . S
H365 C385 0.950 . S
H366 C387 0.950 . S
H367 C390 0.950 . S
H368 C391 0.950 . S
H369 C393 0.950 . S
H370 C394 0.950 . S
H371 C395 0.951 . S
H372 C397 0.951 . S
H373 C399 0.950 . S
H374 C400 0.950 . S
H375 C402 0.950 . S
H376 C405 0.950 . S
H377 C406 0.950 . S
H378 C408 0.950 . S
H379 C409 0.950 . S
C380 H362 0.951 . S
C380 C381 1.366 . S
C380 C382 1.388 . S
C381 C380 1.366 . S
C381 C385 1.385 . S
C382 H363 0.951 . S
C382 C380 1.388 . S
C382 C383 1.366 . S
C383 C382 1.366 . S
C383 C384 1.414 . S
C383 C386 1.499 . S
C384 H364 0.950 . S
C384 C383 1.414 . S
C384 C385 1.374 . S
C385 H365 0.950 . S
C385 C381 1.385 . S
C385 C384 1.374 . S
C386 C383 1.499 . S
C386 C387 1.373 . S
C386 C388 1.389 . S
C387 H366 0.950 . S
C387 C386 1.373 . S
C387 C403 1.377 . S
C388 C386 1.389 . S
C388 C389 1.524 . S
C388 C402 1.377 . S
C389 C388 1.524 . S
C389 C390 1.397 . S
C389 C394 1.363 . S
C390 H367 0.950 . S
C390 C389 1.397 . S
C390 C391 1.334 . S
C391 H368 0.950 . S
C391 C390 1.334 . S
C391 C392 1.287 . S
C392 C391 1.287 . S
C392 C393 1.524 . S
C392 H411 0.913 . S
C393 H369 0.950 . S
C393 C392 1.524 . S
C393 C394 1.415 . S
C394 H370 0.950 . S
C394 C389 1.363 . S
C394 C393 1.415 . S
C395 H371 0.951 . S
C395 C396 1.366 . S
C395 C397 1.388 . S
C396 C395 1.366 . S
C396 C400 1.385 . S
C397 H372 0.951 . S
C397 C395 1.388 . S
C397 C398 1.366 . S
C398 C397 1.366 . S
C398 C399 1.414 . S
C398 C401 1.499 . S
C399 H373 0.950 . S
C399 C398 1.414 . S
C399 C400 1.374 . S
C400 H374 0.950 . S
C400 C396 1.385 . S
C400 C399 1.374 . S
C401 C398 1.499 . S
C401 C402 1.373 . S
C401 C403 1.389 . S
C402 H375 0.950 . S
C402 C388 1.377 . S
C402 C401 1.373 . S
C403 C387 1.377 . S
C403 C401 1.389 . S
C403 C404 1.524 . S
C404 C403 1.524 . S
C404 C405 1.397 . S
C404 C409 1.363 . S
C405 H376 0.950 . S
C405 C404 1.397 . S
C405 C406 1.334 . S
C406 H377 0.950 . S
C406 C405 1.334 . S
C406 C407 1.287 . S
C407 C406 1.287 . S
C407 C408 1.524 . S
C407 H410 0.999 . S
C408 H378 0.950 . S
C408 C407 1.524 . S
C408 C409 1.415 . S
C409 H379 0.950 . S
C409 C404 1.363 . S
C409 C408 1.415 . S
H410 C407 0.999 . S
H411 C392 0.913 . S
H412 C430 0.951 . S
H413 C432 0.951 . S
H414 C434 0.950 . S
H415 C435 0.950 . S
H416 C437 0.950 . S
H417 C440 0.950 . S
H418 C441 0.950 . S
H419 C443 0.950 . S
H420 C444 0.950 . S
H421 C445 0.951 . S
H422 C447 0.951 . S
H423 C449 0.950 . S
H424 C450 0.950 . S
H425 C452 0.950 . S
H426 C455 0.950 . S
H427 C456 0.950 . S
H428 C458 0.950 . S
H429 C459 0.950 . S
C430 H412 0.951 . S
C430 C431 1.366 . S
C430 C432 1.388 . S
C431 C430 1.366 . S
C431 C435 1.385 . S
C432 H413 0.951 . S
C432 C430 1.388 . S
C432 C433 1.366 . S
C433 C432 1.366 . S
C433 C434 1.414 . S
C433 C436 1.499 . S
C434 H414 0.950 . S
C434 C433 1.414 . S
C434 C435 1.374 . S
C435 H415 0.950 . S
C435 C431 1.385 . S
C435 C434 1.374 . S
C436 C433 1.499 . S
C436 C437 1.373 . S
C436 C438 1.389 . S
C437 H416 0.950 . S
C437 C436 1.373 . S
C437 C453 1.377 . S
C438 C436 1.389 . S
C438 C439 1.524 . S
C438 C452 1.377 . S
C439 C438 1.524 . S
C439 C440 1.397 . S
C439 C444 1.363 . S
C440 H417 0.950 . S
C440 C439 1.397 . S
C440 C441 1.334 . S
C441 H418 0.950 . S
C441 C440 1.334 . S
C441 C442 1.287 . S
C442 C441 1.287 . S
C442 C443 1.524 . S
C442 H461 0.913 . S
C443 H419 0.950 . S
C443 C442 1.524 . S
C443 C444 1.415 . S
C444 H420 0.950 . S
C444 C439 1.363 . S
C444 C443 1.415 . S
C445 H421 0.951 . S
C445 C446 1.366 . S
C445 C447 1.388 . S
C446 C445 1.366 . S
C446 C450 1.385 . S
C447 H422 0.951 . S
C447 C445 1.388 . S
C447 C448 1.366 . S
C448 C447 1.366 . S
C448 C449 1.414 . S
C448 C451 1.499 . S
C449 H423 0.950 . S
C449 C448 1.414 . S
C449 C450 1.374 . S
C450 H424 0.950 . S
C450 C446 1.385 . S
C450 C449 1.374 . S
C451 C448 1.499 . S
C451 C452 1.373 . S
C451 C453 1.389 . S
C452 H425 0.950 . S
C452 C438 1.377 . S
C452 C451 1.373 . S
C453 C437 1.377 . S
C453 C451 1.389 . S
C453 C454 1.524 . S
C454 C453 1.524 . S
C454 C455 1.397 . S
C454 C459 1.363 . S
C455 H426 0.950 . S
C455 C454 1.397 . S
C455 C456 1.334 . S
C456 H427 0.950 . S
C456 C455 1.334 . S
C456 C457 1.287 . S
C457 C456 1.287 . S
C457 C458 1.524 . S
C457 H460 0.999 . S
C458 H428 0.950 . S
C458 C457 1.524 . S
C458 C459 1.415 . S
C459 H429 0.950 . S
C459 C454 1.363 . S
C459 C458 1.415 . S
H460 C457 0.999 . S
H461 C442 0.913 . S
H462 C480 0.951 . S
H463 C482 0.951 . S
H464 C484 0.950 . S
H465 C485 0.950 . S
H466 C487 0.950 . S
H467 C490 0.950 . S
H468 C491 0.950 . S
H469 C493 0.950 . S
H470 C494 0.950 . S
H471 C495 0.951 . S
H472 C497 0.951 . S
H473 C499 0.950 . S
H474 C500 0.950 . S
H475 C502 0.950 . S
H476 C505 0.950 . S
H477 C506 0.950 . S
H478 C508 0.950 . S
H479 C509 0.950 . S
C480 H462 0.951 . S
C480 C481 1.366 . S
C480 C482 1.388 . S
C481 C480 1.366 . S
C481 C485 1.385 . S
C482 H463 0.951 . S
C482 C480 1.388 . S
C482 C483 1.366 . S
C483 C482 1.366 . S
C483 C484 1.414 . S
C483 C486 1.499 . S
C484 H464 0.950 . S
C484 C483 1.414 . S
C484 C485 1.374 . S
C485 H465 0.950 . S
C485 C481 1.385 . S
C485 C484 1.374 . S
C486 C483 1.499 . S
C486 C487 1.373 . S
C486 C488 1.389 . S
C487 H466 0.950 . S
C487 C486 1.373 . S
C487 C503 1.377 . S
C488 C486 1.389 . S
C488 C489 1.524 . S
C488 C502 1.377 . S
C489 C488 1.524 . S
C489 C490 1.397 . S
C489 C494 1.363 . S
C490 H467 0.950 . S
C490 C489 1.397 . S
C490 C491 1.334 . S
C491 H468 0.950 . S
C491 C490 1.334 . S
C491 C492 1.287 . S
C492 C491 1.287 . S
C492 C493 1.524 . S
C492 H511 0.913 . S
C493 H469 0.950 . S
C493 C492 1.524 . S
C493 C494 1.415 . S
C494 H470 0.950 . S
C494 C489 1.363 . S
C494 C493 1.415 . S
C495 H471 0.951 . S
C495 C496 1.366 . S
C495 C497 1.388 . S
C496 C495 1.366 . S
C496 C500 1.385 . S
C497 H472 0.951 . S
C497 C495 1.388 . S
C497 C498 1.366 . S
C498 C497 1.366 . S
C498 C499 1.414 . S
C498 C501 1.499 . S
C499 H473 0.950 . S
C499 C498 1.414 . S
C499 C500 1.374 . S
C500 H474 0.950 . S
C500 C496 1.385 . S
C500 C499 1.374 . S
C501 C498 1.499 . S
C501 C502 1.373 . S
C501 C503 1.389 . S
C502 H475 0.950 . S
C502 C488 1.377 . S
C502 C501 1.373 . S
C503 C487 1.377 . S
C503 C501 1.389 . S
C503 C504 1.524 . S
C504 C503 1.524 . S
C504 C505 1.397 . S
C504 C509 1.363 . S
C505 H476 0.950 . S
C505 C504 1.397 . S
C505 C506 1.334 . S
C506 H477 0.950 . S
C506 C505 1.334 . S
C506 C507 1.287 . S
C507 C506 1.287 . S
C507 C508 1.524 . S
C507 H510 0.999 . S
C508 H478 0.950 . S
C508 C507 1.524 . S
C508 C509 1.415 . S
C509 H479 0.950 . S
C509 C504 1.363 . S
C509 C508 1.415 . S
H510 C507 0.999 . S
H511 C492 0.913 . S
H512 C530 0.951 . S
H513 C532 0.951 . S
H514 C534 0.950 . S
H515 C535 0.950 . S
H516 C537 0.950 . S
H517 C540 0.950 . S
H518 C541 0.950 . S
H519 C543 0.950 . S
H520 C544 0.950 . S
H521 C545 0.951 . S
H522 C547 0.951 . S
H523 C549 0.950 . S
H524 C550 0.950 . S
H525 C552 0.950 . S
H526 C555 0.950 . S
H527 C556 0.950 . S
H528 C558 0.950 . S
H529 C559 0.950 . S
C530 H512 0.951 . S
C530 C531 1.366 . S
C530 C532 1.388 . S
C531 C530 1.366 . S
C531 C535 1.385 . S
C532 H513 0.951 . S
C532 C530 1.388 . S
C532 C533 1.366 . S
C533 C532 1.366 . S
C533 C534 1.414 . S
C533 C536 1.499 . S
C534 H514 0.950 . S
C534 C533 1.414 . S
C534 C535 1.374 . S
C535 H515 0.950 . S
C535 C531 1.385 . S
C535 C534 1.374 . S
C536 C533 1.499 . S
C536 C537 1.373 . S
C536 C538 1.389 . S
C537 H516 0.950 . S
C537 C536 1.373 . S
C537 C553 1.377 . S
C538 C536 1.389 . S
C538 C539 1.524 . S
C538 C552 1.377 . S
C539 C538 1.524 . S
C539 C540 1.397 . S
C539 C544 1.363 . S
C540 H517 0.950 . S
C540 C539 1.397 . S
C540 C541 1.334 . S
C541 H518 0.950 . S
C541 C540 1.334 . S
C541 C542 1.287 . S
C542 C541 1.287 . S
C542 C543 1.524 . S
C542 H561 0.913 . S
C543 H519 0.950 . S
C543 C542 1.524 . S
C543 C544 1.415 . S
C544 H520 0.950 . S
C544 C539 1.363 . S
C544 C543 1.415 . S
C545 H521 0.951 . S
C545 C546 1.366 . S
C545 C547 1.388 . S
C546 C545 1.366 . S
C546 C550 1.385 . S
C547 H522 0.951 . S
C547 C545 1.388 . S
C547 C548 1.366 . S
C548 C547 1.366 . S
C548 C549 1.414 . S
C548 C551 1.499 . S
C549 H523 0.950 . S
C549 C548 1.414 . S
C549 C550 1.374 . S
C550 H524 0.950 . S
C550 C546 1.385 . S
C550 C549 1.374 . S
C551 C548 1.499 . S
C551 C552 1.373 . S
C551 C553 1.389 . S
C552 H525 0.950 . S
C552 C538 1.377 . S
C552 C551 1.373 . S
C553 C537 1.377 . S
C553 C551 1.389 . S
C553 C554 1.524 . S
C554 C553 1.524 . S
C554 C555 1.397 . S
C554 C559 1.363 . S
C555 H526 0.950 . S
C555 C554 1.397 . S
C555 C556 1.334 . S
C556 H527 0.950 . S
C556 C555 1.334 . S
C556 C557 1.287 . S
C557 C556 1.287 . S
C557 C558 1.524 . S
C557 H560 0.999 . S
C558 H528 0.950 . S
C558 C557 1.524 . S
C558 C559 1.415 . S
C559 H529 0.950 . S
C559 C554 1.363 . S
C559 C558 1.415 . S
H560 C557 0.999 . S
H561 C542 0.913 . S
H562 C580 0.951 . S
H563 C582 0.951 . S
H564 C584 0.950 . S
H565 C585 0.950 . S
H566 C587 0.950 . S
H567 C590 0.950 . S
H568 C591 0.950 . S
H569 C593 0.950 . S
H570 C594 0.950 . S
H571 C595 0.951 . S
H572 C597 0.951 . S
H573 C599 0.950 . S
H574 C600 0.950 . S
H575 C602 0.950 . S
H576 C605 0.950 . S
H577 C606 0.950 . S
H578 C608 0.950 . S
H579 C609 0.950 . S
C580 H562 0.951 . S
C580 C581 1.366 . S
C580 C582 1.388 . S
C581 C580 1.366 . S
C581 C585 1.385 . S
C582 H563 0.951 . S
C582 C580 1.388 . S
C582 C583 1.366 . S
C583 C582 1.366 . S
C583 C584 1.414 . S
C583 C586 1.499 . S
C584 H564 0.950 . S
C584 C583 1.414 . S
C584 C585 1.374 . S
C585 H565 0.950 . S
C585 C581 1.385 . S
C585 C584 1.374 . S
C586 C583 1.499 . S
C586 C587 1.373 . S
C586 C588 1.389 . S
C587 H566 0.950 . S
C587 C586 1.373 . S
C587 C603 1.377 . S
C588 C586 1.389 . S
C588 C589 1.524 . S
C588 C602 1.377 . S
C589 C588 1.524 . S
C589 C590 1.397 . S
C589 C594 1.363 . S
C590 H567 0.950 . S
C590 C589 1.397 . S
C590 C591 1.334 . S
C591 H568 0.950 . S
C591 C590 1.334 . S
C591 C592 1.287 . S
C592 C591 1.287 . S
C592 C593 1.524 . S
C592 H611 0.913 . S
C593 H569 0.950 . S
C593 C592 1.524 . S
C593 C594 1.415 . S
C594 H570 0.950 . S
C594 C589 1.363 . S
C594 C593 1.415 . S
C595 H571 0.951 . S
C595 C596 1.366 . S
C595 C597 1.388 . S
C596 C595 1.366 . S
C596 C600 1.385 . S
C597 H572 0.951 . S
C597 C595 1.388 . S
C597 C598 1.366 . S
C598 C597 1.366 . S
C598 C599 1.414 . S
C598 C601 1.499 . S
C599 H573 0.950 . S
C599 C598 1.414 . S
C599 C600 1.374 . S
C600 H574 0.950 . S
C600 C596 1.385 . S
C600 C599 1.374 . S
C601 C598 1.499 . S
C601 C602 1.373 . S
C601 C603 1.389 . S
C602 H575 0.950 . S
C602 C588 1.377 . S
C602 C601 1.373 . S
C603 C587 1.377 . S
C603 C601 1.389 . S
C603 C604 1.524 . S
C604 C603 1.524 . S
C604 C605 1.397 . S
C604 C609 1.363 . S
C605 H576 0.950 . S
C605 C604 1.397 . S
C605 C606 1.334 . S
C606 H577 0.950 . S
C606 C605 1.334 . S
C606 C607 1.287 . S
C607 C606 1.287 . S
C607 C608 1.524 . S
C607 H610 0.999 . S
C608 H578 0.950 . S
C608 C607 1.524 . S
C608 C609 1.415 . S
C609 H579 0.950 . S
C609 C604 1.363 . S
C609 C608 1.415 . S
H610 C607 0.999 . S
H611 C592 0.913 . S
H612 C630 0.951 . S
H613 C632 0.951 . S
H614 C634 0.950 . S
H615 C635 0.950 . S
H616 C637 0.950 . S
H617 C640 0.950 . S
H618 C641 0.950 . S
H619 C643 0.950 . S
H620 C644 0.950 . S
H621 C645 0.951 . S
H622 C647 0.951 . S
H623 C649 0.950 . S
H624 C650 0.950 . S
H625 C652 0.950 . S
H626 C655 0.950 . S
H627 C656 0.950 . S
H628 C658 0.950 . S
H629 C659 0.950 . S
C630 H612 0.951 . S
C630 C631 1.366 . S
C630 C632 1.388 . S
C631 C630 1.366 . S
C631 C635 1.385 . S
C632 H613 0.951 . S
C632 C630 1.388 . S
C632 C633 1.366 . S
C633 C632 1.366 . S
C633 C634 1.414 . S
C633 C636 1.499 . S
C634 H614 0.950 . S
C634 C633 1.414 . S
C634 C635 1.374 . S
C635 H615 0.950 . S
C635 C631 1.385 . S
C635 C634 1.374 . S
C636 C633 1.499 . S
C636 C637 1.373 . S
C636 C638 1.389 . S
C637 H616 0.950 . S
C637 C636 1.373 . S
C637 C653 1.377 . S
C638 C636 1.389 . S
C638 C639 1.524 . S
C638 C652 1.377 . S
C639 C638 1.524 . S
C639 C640 1.397 . S
C639 C644 1.363 . S
C640 H617 0.950 . S
C640 C639 1.397 . S
C640 C641 1.334 . S
C641 H618 0.950 . S
C641 C640 1.334 . S
C641 C642 1.287 . S
C642 C641 1.287 . S
C642 C643 1.524 . S
C642 H661 0.913 . S
C643 H619 0.950 . S
C643 C642 1.524 . S
C643 C644 1.415 . S
C644 H620 0.950 . S
C644 C639 1.363 . S
C644 C643 1.415 . S
C645 H621 0.951 . S
C645 C646 1.366 . S
C645 C647 1.388 . S
C646 C645 1.366 . S
C646 C650 1.385 . S
C647 H622 0.951 . S
C647 C645 1.388 . S
C647 C648 1.366 . S
C648 C647 1.366 . S
C648 C649 1.414 . S
C648 C651 1.499 . S
C649 H623 0.950 . S
C649 C648 1.414 . S
C649 C650 1.374 . S
C650 H624 0.950 . S
C650 C646 1.385 . S
C650 C649 1.374 . S
C651 C648 1.499 . S
C651 C652 1.373 . S
C651 C653 1.389 . S
C652 H625 0.950 . S
C652 C638 1.377 . S
C652 C651 1.373 . S
C653 C637 1.377 . S
C653 C651 1.389 . S
C653 C654 1.524 . S
C654 C653 1.524 . S
C654 C655 1.397 . S
C654 C659 1.363 . S
C655 H626 0.950 . S
C655 C654 1.397 . S
C655 C656 1.334 . S
C656 H627 0.950 . S
C656 C655 1.334 . S
C656 C657 1.287 . S
C657 C656 1.287 . S
C657 C658 1.524 . S
C657 H660 0.999 . S
C658 H628 0.950 . S
C658 C657 1.524 . S
C658 C659 1.415 . S
C659 H629 0.950 . S
C659 C654 1.363 . S
C659 C658 1.415 . S
H660 C657 0.999 . S
H661 C642 0.913 . S
H662 C680 0.951 . S
H663 C682 0.951 . S
H664 C684 0.950 . S
H665 C685 0.950 . S
H666 C687 0.950 . S
H667 C690 0.950 . S
H668 C691 0.950 . S
H669 C693 0.950 . S
H670 C694 0.950 . S
H671 C695 0.951 . S
H672 C697 0.951 . S
H673 C699 0.950 . S
H674 C700 0.950 . S
H675 C702 0.950 . S
H676 C705 0.950 . S
H677 C706 0.950 . S
H678 C708 0.950 . S
H679 C709 0.950 . S
C680 H662 0.951 . S
C680 C681 1.366 . S
C680 C682 1.388 . S
C681 C680 1.366 . S
C681 C685 1.385 . S
C682 H663 0.951 . S
C682 C680 1.388 . S
C682 C683 1.366 . S
C683 C682 1.366 . S
C683 C684 1.414 . S
C683 C686 1.499 . S
C684 H664 0.950 . S
C684 C683 1.414 . S
C684 C685 1.374 . S
C685 H665 0.950 . S
C685 C681 1.385 . S
C685 C684 1.374 . S
C686 C683 1.499 . S
C686 C687 1.373 . S
C686 C688 1.389 . S
C687 H666 0.950 . S
C687 C686 1.373 . S
C687 C703 1.377 . S
C688 C686 1.389 . S
C688 C689 1.524 . S
C688 C702 1.377 . S
C689 C688 1.524 . S
C689 C690 1.397 . S
C689 C694 1.363 . S
C690 H667 0.950 . S
C690 C689 1.397 . S
C690 C691 1.334 . S
C691 H668 0.950 . S
C691 C690 1.334 . S
C691 C692 1.287 . S
C692 C691 1.287 . S
C692 C693 1.524 . S
C692 H711 0.913 . S
C693 H669 0.950 . S
C693 C692 1.524 . S
C693 C694 1.415 . S
C694 H670 0.950 . S
C694 C689 1.363 . S
C694 C693 1.415 . S
C695 H671 0.951 . S
C695 C696 1.366 . S
C695 C697 1.388 . S
C696 C695 1.366 . S
C696 C700 1.385 . S
C697 H672 0.951 . S
C697 C695 1.388 . S
C697 C698 1.366 . S
C698 C697 1.366 . S
C698 C699 1.414 . S
C698 C701 1.499 . S
C699 H673 0.950 . S
C699 C698 1.414 . S
C699 C700 1.374 . S
C700 H674 0.950 . S
C700 C696 1.385 . S
C700 C699 1.374 . S
C701 C698 1.499 . S
C701 C702 1.373 . S
C701 C703 1.389 . S
C702 H675 0.950 . S
C702 C688 1.377 . S
C702 C701 1.373 . S
C703 C687 1.377 . S
C703 C701 1.389 . S
C703 C704 1.524 . S
C704 C703 1.524 . S
C704 C705 1.397 . S
C704 C709 1.363 . S
C705 H676 0.950 . S
C705 C704 1.397 . S
C705 C706 1.334 . S
C706 H677 0.950 . S
C706 C705 1.334 . S
C706 C707 1.287 . S
C707 C706 1.287 . S
C707 C708 1.524 . S
C707 H710 0.999 . S
C708 H678 0.950 . S
C708 C707 1.524 . S
C708 C709 1.415 . S
C709 H679 0.950 . S
C709 C704 1.363 . S
C709 C708 1.415 . S
H710 C707 0.999 . S
H711 C692 0.913 . S
H712 C730 0.951 . S
H713 C732 0.951 . S
H714 C734 0.950 . S
H715 C735 0.950 . S
H716 C737 0.950 . S
H717 C740 0.950 . S
H718 C741 0.950 . S
H719 C743 0.950 . S
H720 C744 0.950 . S
H721 C745 0.951 . S
H722 C747 0.951 . S
H723 C749 0.950 . S
H724 C750 0.950 . S
H725 C752 0.950 . S
H726 C755 0.950 . S
H727 C756 0.950 . S
H728 C758 0.950 . S
H729 C759 0.950 . S
C730 H712 0.951 . S
C730 C731 1.366 . S
C730 C732 1.388 . S
C731 C730 1.366 . S
C731 C735 1.385 . S
C732 H713 0.951 . S
C732 C730 1.388 . S
C732 C733 1.366 . S
C733 C732 1.366 . S
C733 C734 1.414 . S
C733 C736 1.499 . S
C734 H714 0.950 . S
C734 C733 1.414 . S
C734 C735 1.374 . S
C735 H715 0.950 . S
C735 C731 1.385 . S
C735 C734 1.374 . S
C736 C733 1.499 . S
C736 C737 1.373 . S
C736 C738 1.389 . S
C737 H716 0.950 . S
C737 C736 1.373 . S
C737 C753 1.377 . S
C738 C736 1.389 . S
C738 C739 1.524 . S
C738 C752 1.377 . S
C739 C738 1.524 . S
C739 C740 1.397 . S
C739 C744 1.363 . S
C740 H717 0.950 . S
C740 C739 1.397 . S
C740 C741 1.334 . S
C741 H718 0.950 . S
C741 C740 1.334 . S
C741 C742 1.287 . S
C742 C741 1.287 . S
C742 C743 1.524 . S
C742 H761 0.913 . S
C743 H719 0.950 . S
C743 C742 1.524 . S
C743 C744 1.415 . S
C744 H720 0.950 . S
C744 C739 1.363 . S
C744 C743 1.415 . S
C745 H721 0.951 . S
C745 C746 1.366 . S
C745 C747 1.388 . S
C746 C745 1.366 . S
C746 C750 1.385 . S
C747 H722 0.951 . S
C747 C745 1.388 . S
C747 C748 1.366 . S
C748 C747 1.366 . S
C748 C749 1.414 . S
C748 C751 1.499 . S
C749 H723 0.950 . S
C749 C748 1.414 . S
C749 C750 1.374 . S
C750 H724 0.950 . S
C750 C746 1.385 . S
C750 C749 1.374 . S
C751 C748 1.499 . S
C751 C752 1.373 . S
C751 C753 1.389 . S
C752 H725 0.950 . S
C752 C738 1.377 . S
C752 C751 1.373 . S
C753 C737 1.377 . S
C753 C751 1.389 . S
C753 C754 1.524 . S
C754 C753 1.524 . S
C754 C755 1.397 . S
C754 C759 1.363 . S
C755 H726 0.950 . S
C755 C754 1.397 . S
C755 C756 1.334 . S
C756 H727 0.950 . S
C756 C755 1.334 . S
C756 C757 1.287 . S
C757 C756 1.287 . S
C757 C758 1.524 . S
C757 H760 0.999 . S
C758 H728 0.950 . S
C758 C757 1.524 . S
C758 C759 1.415 . S
C759 H729 0.950 . S
C759 C754 1.363 . S
C759 C758 1.415 . S
H760 C757 0.999 . S
H761 C742 0.913 . S
H762 C780 0.951 . S
H763 C782 0.951 . S
H764 C784 0.950 . S
H765 C785 0.950 . S
H766 C787 0.950 . S
H767 C790 0.950 . S
H768 C791 0.950 . S
H769 C793 0.950 . S
H770 C794 0.950 . S
H771 C795 0.951 . S
H772 C797 0.951 . S
H773 C799 0.950 . S
H774 C800 0.950 . S
H775 C802 0.950 . S
H776 C805 0.950 . S
H777 C806 0.950 . S
H778 C808 0.950 . S
H779 C809 0.950 . S
C780 H762 0.951 . S
C780 C781 1.366 . S
C780 C782 1.388 . S
C781 C780 1.366 . S
C781 C785 1.385 . S
C782 H763 0.951 . S
C782 C780 1.388 . S
C782 C783 1.366 . S
C783 C782 1.366 . S
C783 C784 1.414 . S
C783 C786 1.499 . S
C784 H764 0.950 . S
C784 C783 1.414 . S
C784 C785 1.374 . S
C785 H765 0.950 . S
C785 C781 1.385 . S
C785 C784 1.374 . S
C786 C783 1.499 . S
C786 C787 1.373 . S
C786 C788 1.389 . S
C787 H766 0.950 . S
C787 C786 1.373 . S
C787 C803 1.377 . S
C788 C786 1.389 . S
C788 C789 1.524 . S
C788 C802 1.377 . S
C789 C788 1.524 . S
C789 C790 1.397 . S
C789 C794 1.363 . S
C790 H767 0.950 . S
C790 C789 1.397 . S
C790 C791 1.334 . S
C791 H768 0.950 . S
C791 C790 1.334 . S
C791 C792 1.287 . S
C792 C791 1.287 . S
C792 C793 1.524 . S
C792 H811 0.913 . S
C793 H769 0.950 . S
C793 C792 1.524 . S
C793 C794 1.415 . S
C794 H770 0.950 . S
C794 C789 1.363 . S
C794 C793 1.415 . S
C795 H771 0.951 . S
C795 C796 1.366 . S
C795 C797 1.388 . S
C796 C795 1.366 . S
C796 C800 1.385 . S
C797 H772 0.951 . S
C797 C795 1.388 . S
C797 C798 1.366 . S
C798 C797 1.366 . S
C798 C799 1.414 . S
C798 C801 1.499 . S
C799 H773 0.950 . S
C799 C798 1.414 . S
C799 C800 1.374 . S
C800 H774 0.950 . S
C800 C796 1.385 . S
C800 C799 1.374 . S
C801 C798 1.499 . S
C801 C802 1.373 . S
C801 C803 1.389 . S
C802 H775 0.950 . S
C802 C788 1.377 . S
C802 C801 1.373 . S
C803 C787 1.377 . S
C803 C801 1.389 . S
C803 C804 1.524 . S
C804 C803 1.524 . S
C804 C805 1.397 . S
C804 C809 1.363 . S
C805 H776 0.950 . S
C805 C804 1.397 . S
C805 C806 1.334 . S
C806 H777 0.950 . S
C806 C805 1.334 . S
C806 C807 1.287 . S
C807 C806 1.287 . S
C807 C808 1.524 . S
C807 H810 0.999 . S
C808 H778 0.950 . S
C808 C807 1.524 . S
C808 C809 1.415 . S
C809 H779 0.950 . S
C809 C804 1.363 . S
C809 C808 1.415 . S
H810 C807 0.999 . S
H811 C792 0.913 . S
H812 C830 0.951 . S
H813 C832 0.951 . S
H814 C834 0.950 . S
H815 C835 0.950 . S
H816 C837 0.950 . S
H817 C840 0.950 . S
H818 C841 0.950 . S
H819 C843 0.950 . S
H820 C844 0.950 . S
H821 C845 0.951 . S
H822 C847 0.951 . S
H823 C849 0.950 . S
H824 C850 0.950 . S
H825 C852 0.950 . S
H826 C855 0.950 . S
H827 C856 0.950 . S
H828 C858 0.950 . S
H829 C859 0.950 . S
C830 H812 0.951 . S
C830 C831 1.366 . S
C830 C832 1.388 . S
C831 C830 1.366 . S
C831 C835 1.385 . S
C832 H813 0.951 . S
C832 C830 1.388 . S
C832 C833 1.366 . S
C833 C832 1.366 . S
C833 C834 1.414 . S
C833 C836 1.499 . S
C834 H814 0.950 . S
C834 C833 1.414 . S
C834 C835 1.374 . S
C835 H815 0.950 . S
C835 C831 1.385 . S
C835 C834 1.374 . S
C836 C833 1.499 . S
C836 C837 1.373 . S
C836 C838 1.389 . S
C837 H816 0.950 . S
C837 C836 1.373 . S
C837 C853 1.377 . S
C838 C836 1.389 . S
C838 C839 1.524 . S
C838 C852 1.377 . S
C839 C838 1.524 . S
C839 C840 1.397 . S
C839 C844 1.363 . S
C840 H817 0.950 . S
C840 C839 1.397 . S
C840 C841 1.334 . S
C841 H818 0.950 . S
C841 C840 1.334 . S
C841 C842 1.287 . S
C842 C841 1.287 . S
C842 C843 1.524 . S
C842 H861 0.913 . S
C843 H819 0.950 . S
C843 C842 1.524 . S
C843 C844 1.415 . S
C844 H820 0.950 . S
C844 C839 1.363 . S
C844 C843 1.415 . S
C845 H821 0.951 . S
C845 C846 1.366 . S
C845 C847 1.388 . S
C846 C845 1.366 . S
C846 C850 1.385 . S
C847 H822 0.951 . S
C847 C845 1.388 . S
C847 C848 1.366 . S
C848 C847 1.366 . S
C848 C849 1.414 . S
C848 C851 1.499 . S
C849 H823 0.950 . S
C849 C848 1.414 . S
C849 C850 1.374 . S
C850 H824 0.950 . S
C850 C846 1.385 . S
C850 C849 1.374 . S
C851 C848 1.499 . S
C851 C852 1.373 . S
C851 C853 1.389 . S
C852 H825 0.950 . S
C852 C838 1.377 . S
C852 C851 1.373 . S
C853 C837 1.377 . S
C853 C851 1.389 . S
C853 C854 1.524 . S
C854 C853 1.524 . S
C854 C855 1.397 . S
C854 C859 1.363 . S
C855 H826 0.950 . S
C855 C854 1.397 . S
C855 C856 1.334 . S
C856 H827 0.950 . S
C856 C855 1.334 . S
C856 C857 1.287 . S
C857 C856 1.287 . S
C857 C858 1.524 . S
C857 H860 0.999 . S
C858 H828 0.950 . S
C858 C857 1.524 . S
C858 C859 1.415 . S
C859 H829 0.950 . S
C859 C854 1.363 . S
C859 C858 1.415 . S
H860 C857 0.999 . S
H861 C842 0.913 . S
H862 C880 0.951 . S
H863 C882 0.951 . S
H864 C884 0.950 . S
H865 C885 0.950 . S
H866 C887 0.950 . S
H867 C890 0.950 . S
H868 C891 0.950 . S
H869 C893 0.950 . S
H870 C894 0.950 . S
H871 C895 0.951 . S
H872 C897 0.951 . S
H873 C899 0.950 . S
H874 C900 0.950 . S
H875 C902 0.950 . S
H876 C905 0.950 . S
H877 C906 0.950 . S
H878 C908 0.950 . S
H879 C909 0.950 . S
C880 H862 0.951 . S
C880 C881 1.366 . S
C880 C882 1.388 . S
C881 C880 1.366 . S
C881 C885 1.385 . S
C882 H863 0.951 . S
C882 C880 1.388 . S
C882 C883 1.366 . S
C883 C882 1.366 . S
C883 C884 1.414 . S
C883 C886 1.499 . S
C884 H864 0.950 . S
C884 C883 1.414 . S
C884 C885 1.374 . S
C885 H865 0.950 . S
C885 C881 1.385 . S
C885 C884 1.374 . S
C886 C883 1.499 . S
C886 C887 1.373 . S
C886 C888 1.389 . S
C887 H866 0.950 . S
C887 C886 1.373 . S
C887 C903 1.377 . S
C888 C886 1.389 . S
C888 C889 1.524 . S
C888 C902 1.377 . S
C889 C888 1.524 . S
C889 C890 1.397 . S
C889 C894 1.363 . S
C890 H867 0.950 . S
C890 C889 1.397 . S
C890 C891 1.334 . S
C891 H868 0.950 . S
C891 C890 1.334 . S
C891 C892 1.287 . S
C892 C891 1.287 . S
C892 C893 1.524 . S
C892 H911 0.913 . S
C893 H869 0.950 . S
C893 C892 1.524 . S
C893 C894 1.415 . S
C894 H870 0.950 . S
C894 C889 1.363 . S
C894 C893 1.415 . S
C895 H871 0.951 . S
C895 C896 1.366 . S
C895 C897 1.388 . S
C896 C895 1.366 . S
C896 C900 1.385 . S
C897 H872 0.951 . S
C897 C895 1.388 . S
C897 C898 1.366 . S
C898 C897 1.366 . S
C898 C899 1.414 . S
C898 C901 1.499 . S
C899 H873 0.950 . S
C899 C898 1.414 . S
C899 C900 1.374 . S
C900 H874 0.950 . S
C900 C896 1.385 . S
C900 C899 1.374 . S
C901 C898 1.499 . S
C901 C902 1.373 . S
C901 C903 1.389 . S
C902 H875 0.950 . S
C902 C888 1.377 . S
C902 C901 1.373 . S
C903 C887 1.377 . S
C903 C901 1.389 . S
C903 C904 1.524 . S
C904 C903 1.524 . S
C904 C905 1.397 . S
C904 C909 1.363 . S
C905 H876 0.950 . S
C905 C904 1.397 . S
C905 C906 1.334 . S
C906 H877 0.950 . S
C906 C905 1.334 . S
C906 C907 1.287 . S
C907 C906 1.287 . S
C907 C908 1.524 . S
C907 H910 0.999 . S
C908 H878 0.950 . S
C908 C907 1.524 . S
C908 C909 1.415 . S
C909 H879 0.950 . S
C909 C904 1.363 . S
C909 C908 1.415 . S
H910 C907 0.999 . S
H911 C892 0.913 . S
H912 C930 0.951 . S
H913 C932 0.951 . S
H914 C934 0.950 . S
H915 C935 0.950 . S
H916 C937 0.950 . S
H917 C940 0.950 . S
H918 C941 0.950 . S
H919 C943 0.950 . S
H920 C944 0.950 . S
H921 C945 0.951 . S
H922 C947 0.951 1_554 S
H923 C949 0.950 . S
H924 C950 0.950 . S
H925 C952 0.950 . S
H926 C955 0.950 . S
H927 C956 0.950 . S
H928 C958 0.950 . S
H929 C959 0.950 . S
C930 H912 0.951 . S
C930 C931 1.366 . S
C930 C932 1.388 . S
C931 C930 1.366 . S
C931 C935 1.385 . S
C932 H913 0.951 . S
C932 C930 1.388 . S
C932 C933 1.366 . S
C933 C932 1.366 . S
C933 C934 1.414 . S
C933 C936 1.499 . S
C934 H914 0.950 . S
C934 C933 1.414 . S
C934 C935 1.374 . S
C935 H915 0.950 . S
C935 C931 1.385 . S
C935 C934 1.374 . S
C936 C933 1.499 . S
C936 C937 1.373 . S
C936 C938 1.389 . S
C937 H916 0.950 . S
C937 C936 1.373 . S
C937 C953 1.377 . S
C938 C936 1.389 . S
C938 C939 1.524 . S
C938 C952 1.377 . S
C939 C938 1.524 . S
C939 C940 1.397 . S
C939 C944 1.363 . S
C940 H917 0.950 . S
C940 C939 1.397 . S
C940 C941 1.334 . S
C941 H918 0.950 . S
C941 C940 1.334 . S
C941 C942 1.287 . S
C942 C941 1.287 . S
C942 C943 1.524 . S
C942 H961 0.913 . S
C943 H919 0.950 . S
C943 C942 1.524 . S
C943 C944 1.415 . S
C944 H920 0.950 . S
C944 C939 1.363 . S
C944 C943 1.415 . S
C945 H921 0.951 . S
C945 C946 1.366 . S
C945 C947 1.388 . S
C946 C945 1.366 . S
C946 C950 1.385 . S
C947 H922 0.951 1_556 S
C947 C945 1.388 . S
C947 C948 1.366 1_556 S
C948 C947 1.366 1_554 S
C948 C949 1.414 1_554 S
C948 C951 1.499 . S
C949 H923 0.950 . S
C949 C948 1.414 1_556 S
C949 C950 1.374 . S
C950 H924 0.950 . S
C950 C946 1.385 . S
C950 C949 1.374 . S
C951 C948 1.499 . S
C951 C952 1.373 . S
C951 C953 1.389 . S
C952 H925 0.950 . S
C952 C938 1.377 . S
C952 C951 1.373 . S
C953 C937 1.377 . S
C953 C951 1.389 . S
C953 C954 1.524 . S
C954 C953 1.524 . S
C954 C955 1.397 1_455 S
C954 C959 1.363 . S
C955 H926 0.950 . S
C955 C954 1.397 1_655 S
C955 C956 1.334 . S
C956 H927 0.950 . S
C956 C955 1.334 . S
C956 C957 1.287 . S
C957 C956 1.287 . S
C957 C958 1.524 1_655 S
C957 H960 0.999 . S
C958 H928 0.950 . S
C958 C957 1.524 1_455 S
C958 C959 1.415 . S
C959 H929 0.950 . S
C959 C954 1.363 . S
C959 C958 1.415 . S
H960 C957 0.999 . S
H961 C942 0.913 . S
H962 C980 0.951 . S
H963 C982 0.951 . S
H964 C984 0.950 1_565 S
H965 C985 0.950 1_565 S
H966 C987 0.950 . S
H967 C990 0.950 . S
H968 C991 0.950 . S
H969 C993 0.950 . S
H970 C994 0.950 . S
H971 C995 0.951 1_565 S
H972 C997 0.951 1_565 S
H973 C999 0.950 . S
H974 C1000 0.950 . S
H975 C1002 0.950 . S
H976 C1005 0.950 . S
H977 C1006 0.950 . S
H978 C1008 0.950 . S
H979 C1009 0.950 . S
C980 H962 0.951 . S
C980 C981 1.366 . S
C980 C982 1.388 . S
C981 C980 1.366 . S
C981 C985 1.385 . S
C982 H963 0.951 . S
C982 C980 1.388 . S
C982 C983 1.366 . S
C983 C982 1.366 . S
C983 C984 1.414 . S
C983 C986 1.499 . S
C984 H964 0.950 1_545 S
C984 C983 1.414 . S
C984 C985 1.374 . S
C985 H965 0.950 1_545 S
C985 C981 1.385 . S
C985 C984 1.374 . S
C986 C983 1.499 . S
C986 C987 1.373 . S
C986 C988 1.389 . S
C987 H966 0.950 . S
C987 C986 1.373 . S
C987 C1003 1.377 . S
C988 C986 1.389 . S
C988 C989 1.524 . S
C988 C1002 1.377 . S
C989 C988 1.524 . S
C989 C990 1.397 . S
C989 C994 1.363 . S
C990 H967 0.950 . S
C990 C989 1.397 . S
C990 C991 1.334 . S
C991 H968 0.950 . S
C991 C990 1.334 . S
C991 C992 1.287 . S
C992 C991 1.287 . S
C992 C993 1.524 . S
C992 H1011 0.913 . S
C993 H969 0.950 . S
C993 C992 1.524 . S
C993 C994 1.415 . S
C994 H970 0.950 . S
C994 C989 1.363 . S
C994 C993 1.415 . S
C995 H971 0.951 1_545 S
C995 C996 1.366 . S
C995 C997 1.388 . S
C996 C995 1.366 . S
C996 C1000 1.385 . S
C997 H972 0.951 1_545 S
C997 C995 1.388 . S
C997 C998 1.366 . S
C998 C997 1.366 . S
C998 C999 1.414 . S
C998 C1001 1.499 . S
C999 H973 0.950 . S
C999 C998 1.414 . S
C999 C1000 1.374 . S
C1000 H974 0.950 . S
C1000 C996 1.385 . S
C1000 C999 1.374 . S
C1001 C998 1.499 . S
C1001 C1002 1.373 . S
C1001 C1003 1.389 . S
C1002 H975 0.950 . S
C1002 C988 1.377 . S
C1002 C1001 1.373 . S
C1003 C987 1.377 . S
C1003 C1001 1.389 . S
C1003 C1004 1.524 . S
C1004 C1003 1.524 . S
C1004 C1005 1.397 . S
C1004 C1009 1.363 1_545 S
C1005 H976 0.950 . S
C1005 C1004 1.397 . S
C1005 C1006 1.334 . S
C1006 H977 0.950 . S
C1006 C1005 1.334 . S
C1006 C1007 1.287 1_545 S
C1007 C1006 1.287 1_565 S
C1007 C1008 1.524 . S
C1007 H1010 0.999 . S
C1008 H978 0.950 . S
C1008 C1007 1.524 . S
C1008 C1009 1.415 . S
C1009 H979 0.950 . S
C1009 C1004 1.363 1_565 S
C1009 C1008 1.415 . S
H1010 C1007 0.999 . S
H1011 C992 0.913 . S
H1012 C1030 0.951 . S
H1013 C1032 0.951 . S
H1014 C1034 0.950 . S
H1015 C1035 0.950 . S
H1016 C1037 0.950 . S
H1017 C1040 0.950 . S
H1018 C1041 0.950 . S
H1019 C1043 0.950 . S
H1020 C1044 0.950 . S
H1021 C1045 0.951 . S
H1022 C1047 0.951 . S
H1023 C1049 0.950 . S
H1024 C1050 0.950 . S
H1025 C1052 0.950 . S
H1026 C1055 0.950 . S
H1027 C1056 0.950 . S
H1028 C1058 0.950 . S
H1029 C1059 0.950 . S
C1030 H1012 0.951 . S
C1030 C1031 1.366 . S
C1030 C1032 1.388 . S
C1031 C1030 1.366 . S
C1031 C1035 1.385 . S
C1032 H1013 0.951 . S
C1032 C1030 1.388 . S
C1032 C1033 1.366 . S
C1033 C1032 1.366 . S
C1033 C1034 1.414 . S
C1033 C1036 1.499 . S
C1034 H1014 0.950 . S
C1034 C1033 1.414 . S
C1034 C1035 1.374 . S
C1035 H1015 0.950 . S
C1035 C1031 1.385 . S
C1035 C1034 1.374 . S
C1036 C1033 1.499 . S
C1036 C1037 1.373 . S
C1036 C1038 1.389 . S
C1037 H1016 0.950 . S
C1037 C1036 1.373 . S
C1037 C1053 1.377 . S
C1038 C1036 1.389 . S
C1038 C1039 1.524 . S
C1038 C1052 1.377 . S
C1039 C1038 1.524 . S
C1039 C1040 1.397 . S
C1039 C1044 1.363 . S
C1040 H1017 0.950 . S
C1040 C1039 1.397 . S
C1040 C1041 1.334 . S
C1041 H1018 0.950 . S
C1041 C1040 1.334 . S
C1041 C1042 1.287 . S
C1042 C1041 1.287 . S
C1042 C1043 1.524 . S
C1042 H1061 0.913 . S
C1043 H1019 0.950 . S
C1043 C1042 1.524 . S
C1043 C1044 1.415 . S
C1044 H1020 0.950 . S
C1044 C1039 1.363 . S
C1044 C1043 1.415 . S
C1045 H1021 0.951 . S
C1045 C1046 1.366 . S
C1045 C1047 1.388 . S
C1046 C1045 1.366 . S
C1046 C1050 1.385 . S
C1047 H1022 0.951 . S
C1047 C1045 1.388 . S
C1047 C1048 1.366 . S
C1048 C1047 1.366 . S
C1048 C1049 1.414 . S
C1048 C1051 1.499 . S
C1049 H1023 0.950 . S
C1049 C1048 1.414 . S
C1049 C1050 1.374 . S
C1050 H1024 0.950 . S
C1050 C1046 1.385 . S
C1050 C1049 1.374 . S
C1051 C1048 1.499 . S
C1051 C1052 1.373 . S
C1051 C1053 1.389 . S
C1052 H1025 0.950 . S
C1052 C1038 1.377 . S
C1052 C1051 1.373 . S
C1053 C1037 1.377 . S
C1053 C1051 1.389 . S
C1053 C1054 1.524 . S
C1054 C1053 1.524 . S
C1054 C1055 1.397 . S
C1054 C1059 1.363 . S
C1055 H1026 0.950 . S
C1055 C1054 1.397 . S
C1055 C1056 1.334 . S
C1056 H1027 0.950 . S
C1056 C1055 1.334 . S
C1056 C1057 1.287 . S
C1057 C1056 1.287 . S
C1057 C1058 1.524 . S
C1057 H1060 0.999 . S
C1058 H1028 0.950 . S
C1058 C1057 1.524 . S
C1058 C1059 1.415 . S
C1059 H1029 0.950 . S
C1059 C1054 1.363 . S
C1059 C1058 1.415 . S
H1060 C1057 0.999 . S
H1061 C1042 0.913 . S
H1062 C1080 0.951 . S
H1063 C1082 0.951 . S
H1064 C1084 0.950 1_565 S
H1065 C1085 0.950 1_565 S
H1066 C1087 0.950 . S
H1067 C1090 0.950 . S
H1068 C1091 0.950 . S
H1069 C1093 0.950 . S
H1070 C1094 0.950 . S
H1071 C1095 0.951 . S
H1072 C1097 0.951 . S
H1073 C1099 0.950 . S
H1074 C1100 0.950 . S
H1075 C1102 0.950 . S
H1076 C1105 0.950 . S
H1077 C1106 0.950 . S
H1078 C1108 0.950 . S
H1079 C1109 0.950 . S
C1080 H1062 0.951 . S
C1080 C1081 1.366 . S
C1080 C1082 1.388 . S
C1081 C1080 1.366 . S
C1081 C1085 1.385 . S
C1082 H1063 0.951 . S
C1082 C1080 1.388 . S
C1082 C1083 1.366 . S
C1083 C1082 1.366 . S
C1083 C1084 1.414 . S
C1083 C1086 1.499 . S
C1084 H1064 0.950 1_545 S
C1084 C1083 1.414 . S
C1084 C1085 1.374 . S
C1085 H1065 0.950 1_545 S
C1085 C1081 1.385 . S
C1085 C1084 1.374 . S
C1086 C1083 1.499 . S
C1086 C1087 1.373 1_545 S
C1086 C1088 1.389 . S
C1087 H1066 0.950 . S
C1087 C1086 1.373 1_565 S
C1087 C1103 1.377 . S
C1088 C1086 1.389 . S
C1088 C1089 1.524 . S
C1088 C1102 1.377 . S
C1089 C1088 1.524 . S
C1089 C1090 1.397 . S
C1089 C1094 1.363 . S
C1090 H1067 0.950 . S
C1090 C1089 1.397 . S
C1090 C1091 1.334 . S
C1091 H1068 0.950 . S
C1091 C1090 1.334 . S
C1091 C1092 1.287 . S
C1092 C1091 1.287 . S
C1092 C1093 1.524 . S
C1092 H1111 0.913 . S
C1093 H1069 0.950 . S
C1093 C1092 1.524 . S
C1093 C1094 1.415 . S
C1094 H1070 0.950 . S
C1094 C1089 1.363 . S
C1094 C1093 1.415 . S
C1095 H1071 0.951 . S
C1095 C1096 1.392 . S
C1095 C1097 1.388 . S
C1096 C1095 1.392 . S
C1096 C1100 1.354 1_565 S
C1097 H1072 0.951 . S
C1097 C1095 1.388 . S
C1097 C1098 1.366 1_565 S
C1098 C1097 1.366 1_545 S
C1098 C1099 1.414 . S
C1098 C1101 1.499 . S
C1099 H1073 0.950 . S
C1099 C1098 1.414 . S
C1099 C1100 1.374 . S
C1100 H1074 0.950 . S
C1100 C1096 1.354 1_545 S
C1100 C1099 1.374 . S
C1101 C1098 1.499 . S
C1101 C1102 1.373 . S
C1101 C1103 1.389 1_545 S
C1102 H1075 0.950 . S
C1102 C1088 1.377 . S
C1102 C1101 1.373 . S
C1103 C1087 1.377 . S
C1103 C1101 1.389 1_565 S
C1103 C1104 1.524 . S
C1104 C1103 1.524 . S
C1104 C1105 1.397 . S
C1104 C1109 1.363 . S
C1105 H1076 0.950 . S
C1105 C1104 1.397 . S
C1105 C1106 1.334 . S
C1106 H1077 0.950 . S
C1106 C1105 1.334 . S
C1106 C1107 1.287 . S
C1107 C1106 1.287 . S
C1107 C1108 1.524 . S
C1107 H1110 0.999 . S
C1108 H1078 0.950 . S
C1108 C1107 1.524 . S
C1108 C1109 1.415 . S
C1109 H1079 0.950 . S
C1109 C1104 1.363 . S
C1109 C1108 1.415 . S
H1110 C1107 0.999 . S
H1111 C1092 0.913 . S
H1112 C1130 0.951 . S
H1113 C1132 0.951 . S
H1114 C1134 0.950 . S
H1115 C1135 0.950 . S
H1116 C1137 0.950 . S
H1117 C1140 0.950 . S
H1118 C1141 0.950 . S
H1119 C1143 0.950 . S
H1120 C1144 0.950 . S
H1121 C1145 0.951 . S
H1122 C1147 0.951 . S
H1123 C1149 0.959 . S
H1124 C1150 0.950 . S
H1125 C1152 0.950 . S
H1126 C1155 0.950 . S
H1127 C1156 0.950 . S
H1128 C1158 0.950 . S
H1129 C1159 0.950 . S
C1130 H1112 0.951 . S
C1130 C1131 1.366 . S
C1130 C1132 1.388 . S
C1131 C1130 1.366 . S
C1131 C1135 1.385 . S
C1132 H1113 0.951 . S
C1132 C1130 1.388 . S
C1132 C1133 1.366 . S
C1133 C1132 1.366 . S
C1133 C1134 1.414 . S
C1133 C1136 1.499 . S
C1134 H1114 0.950 . S
C1134 C1133 1.414 . S
C1134 C1135 1.374 . S
C1135 H1115 0.950 . S
C1135 C1131 1.385 . S
C1135 C1134 1.374 . S
C1136 C1133 1.499 . S
C1136 C1137 1.373 . S
C1136 C1138 1.389 . S
C1137 H1116 0.950 . S
C1137 C1136 1.373 . S
C1137 C1153 1.377 . S
C1138 C1136 1.389 . S
C1138 C1139 1.524 . S
C1138 C1152 1.377 . S
C1139 C1138 1.524 . S
C1139 C1140 1.397 . S
C1139 C1144 1.363 . S
C1140 H1117 0.950 . S
C1140 C1139 1.397 . S
C1140 C1141 1.334 . S
C1141 H1118 0.950 . S
C1141 C1140 1.334 . S
C1141 C1142 1.287 . S
C1142 C1141 1.287 . S
C1142 C1143 1.524 . S
C1142 H1161 0.913 . S
C1143 H1119 0.950 . S
C1143 C1142 1.524 . S
C1143 C1144 1.415 . S
C1144 H1120 0.950 . S
C1144 C1139 1.363 . S
C1144 C1143 1.415 . S
C1145 H1121 0.951 . S
C1145 C1146 1.366 . S
C1145 C1147 1.388 . S
C1146 C1145 1.366 . S
C1146 C1150 1.385 . S
C1147 H1122 0.951 . S
C1147 C1145 1.388 . S
C1147 C1148 1.366 1_554 S
C1148 C1147 1.366 1_556 S
C1148 C1149 1.419 . S
C1148 C1151 1.499 . S
C1149 H1123 0.959 . S
C1149 C1148 1.419 . S
C1149 C1150 1.360 1_556 S
C1150 H1124 0.950 . S
C1150 C1146 1.385 . S
C1150 C1149 1.360 1_554 S
C1151 C1148 1.499 . S
C1151 C1152 1.373 . S
C1151 C1153 1.389 . S
C1152 H1125 0.950 . S
C1152 C1138 1.377 . S
C1152 C1151 1.373 . S
C1153 C1137 1.377 . S
C1153 C1151 1.389 . S
C1153 C1154 1.524 . S
C1154 C1153 1.524 . S
C1154 C1155 1.397 . S
C1154 C1159 1.363 . S
C1155 H1126 0.950 . S
C1155 C1154 1.397 . S
C1155 C1156 1.334 1_556 S
C1156 H1127 0.950 . S
C1156 C1155 1.334 1_554 S
C1156 C1157 1.287 . S
C1157 C1156 1.287 . S
C1157 C1158 1.524 1_554 S
C1157 H1160 0.999 . S
C1158 H1128 0.950 . S
C1158 C1157 1.524 1_556 S
C1158 C1159 1.415 . S
C1159 H1129 0.950 . S
C1159 C1154 1.363 . S
C1159 C1158 1.415 . S
H1160 C1157 0.999 . S
H1161 C1142 0.913 . S
H1162 C1180 0.951 . S
H1163 C1182 0.951 . S
H1164 C1184 0.950 1_655 S
H1165 C1185 0.950 . S
H1166 C1187 0.950 . S
H1167 C1190 0.950 . S
H1168 C1191 0.950 . S
H1169 C1193 0.950 . S
H1170 C1194 0.965 . S
H1171 C1195 0.951 . S
H1172 C1197 0.951 . S
H1173 C1199 0.950 . S
H1174 C1200 0.950 . S
H1175 C1202 0.950 1_655 S
H1176 C1205 0.950 . S
H1177 C1206 0.950 . S
H1178 C1208 0.950 . S
H1179 C1209 0.950 . S
C1180 H1162 0.951 . S
C1180 C1181 1.366 . S
C1180 C1182 1.388 . S
C1181 C1180 1.366 . S
C1181 C1185 1.385 . S
C1182 H1163 0.951 . S
C1182 C1180 1.388 . S
C1182 C1183 1.366 . S
C1183 C1182 1.366 . S
C1183 C1184 1.414 . S
C1183 C1186 1.499 . S
C1184 H1164 0.950 1_455 S
C1184 C1183 1.414 . S
C1184 C1185 1.374 . S
C1185 H1165 0.950 . S
C1185 C1181 1.385 . S
C1185 C1184 1.374 . S
C1186 C1183 1.499 . S
C1186 C1187 1.373 . S
C1186 C1188 1.389 . S
C1187 H1166 0.950 . S
C1187 C1186 1.373 . S
C1187 C1203 1.377 . S
C1188 C1186 1.389 . S
C1188 C1189 1.524 1_455 S
C1188 C1202 1.377 . S
C1189 C1188 1.524 1_655 S
C1189 C1190 1.397 . S
C1189 C1194 1.346 1_655 S
C1190 H1167 0.950 . S
C1190 C1189 1.397 . S
C1190 C1191 1.334 . S
C1191 H1168 0.950 . S
C1191 C1190 1.334 . S
C1191 C1192 1.287 . S
C1192 C1191 1.287 . S
C1192 C1193 1.524 . S
C1192 H1211 0.913 . S
C1193 H1169 0.950 . S
C1193 C1192 1.524 . S
C1193 C1194 1.417 1_655 S
C1194 H1170 0.965 . S
C1194 C1189 1.346 1_455 S
C1194 C1193 1.417 1_455 S
C1195 H1171 0.951 . S
C1195 C1196 1.350 1_655 S
C1195 C1197 1.388 . S
C1196 C1195 1.350 1_455 S
C1196 C1200 1.405 . S
C1197 H1172 0.951 . S
C1197 C1195 1.388 . S
C1197 C1198 1.366 1_655 S
C1198 C1197 1.366 1_455 S
C1198 C1199 1.414 . S
C1198 C1201 1.499 . S
C1199 H1173 0.950 . S
C1199 C1198 1.414 . S
C1199 C1200 1.374 . S
C1200 H1174 0.950 . S
C1200 C1196 1.405 . S
C1200 C1199 1.374 . S
C1201 C1198 1.499 . S
C1201 C1202 1.373 . S
C1201 C1203 1.389 . S
C1202 H1175 0.950 1_455 S
C1202 C1188 1.377 . S
C1202 C1201 1.373 . S
C1203 C1187 1.377 . S
C1203 C1201 1.389 . S
C1203 C1204 1.524 . S
C1204 C1203 1.524 . S
C1204 C1205 1.397 . S
C1204 C1209 1.363 . S
C1205 H1176 0.950 . S
C1205 C1204 1.397 . S
C1205 C1206 1.334 . S
C1206 H1177 0.950 . S
C1206 C1205 1.334 . S
C1206 C1207 1.287 . S
C1207 C1206 1.287 . S
C1207 C1208 1.524 . S
C1207 H1210 0.999 . S
C1208 H1178 0.950 . S
C1208 C1207 1.524 . S
C1208 C1209 1.415 . S
C1209 H1179 0.950 . S
C1209 C1204 1.363 . S
C1209 C1208 1.415 . S
H1210 C1207 0.999 . S
H1211 C1192 0.913 . S
C331 C25 0.280 . S
C346 C303 0.281 . S
C381 C65 0.266 . S
C396 C239 0.351 . S
C431 C105 0.321 . S
C446 C271 0.392 . S
C481 C4 0.312 . S
C496 C297 0.170 . S
C546 C233 0.350 . S
C531 C44 0.275 . S
C596 C265 0.398 . S
C581 C84 0.301 . S
C631 C60 2.830 . S
C646 C175 2.767 . S
C681 C100 2.984 . S
C696 C207 2.917 . S
C731 C31 2.990 . S
C746 C137 2.932 . S
C796 C169 2.929 . S
C781 C71 2.976 . S
C846 C201 2.798 . S
C831 C111 2.823 . S
C881 C20 2.828 . S
C896 C143 2.761 . S
C946 C213 1.759 . S
C931 C2 1.727 . S
C981 C42 1.737 . S
C996 C149 1.741 . S
C1031 C82 1.734 . S
C1046 C181 1.748 . S
C1096 C277 1.066 1_565 S
C1081 C63 1.074 . S
C1146 C309 1.113 . S
C1131 C103 1.108 . S
C1181 C23 1.076 . S
C1196 C245 1.069 . S
