# Generated by pormake.
# Topology zzz, (3,6)-cn, num edge types: 1
# Building blocks:
#     Node 0, Type 0, BuildingBlock: MIDCAF_clean_linker_0, # of connection points: 3
#     Node 1, Type 0, BuildingBlock: MIDCAF_clean_linker_0, # of connection points: 3
#     Node 2, Type 0, BuildingBlock: MIDCAF_clean_linker_0, # of connection points: 3
#     Node 3, Type 0, BuildingBlock: MIDCAF_clean_linker_0, # of connection points: 3
#     Node 4, Type 0, BuildingBlock: MIDCAF_clean_linker_0, # of connection points: 3
#     Node 5, Type 0, BuildingBlock: MIDCAF_clean_linker_0, # of connection points: 3
#     Node 6, Type 0, BuildingBlock: MIDCAF_clean_linker_0, # of connection points: 3
#     Node 7, Type 0, BuildingBlock: MIDCAF_clean_linker_0, # of connection points: 3
#     Node 8, Type 1, BuildingBlock: JUFBIX_clean_sbu_0, # of connection points: 6
#     Node 9, Type 1, BuildingBlock: JUFBIX_clean_sbu_0, # of connection points: 6
#     Node 10, Type 1, BuildingBlock: JUFBIX_clean_sbu_0, # of connection points: 6
#     Node 11, Type 1, BuildingBlock: JUFBIX_clean_sbu_0, # of connection points: 6
#     Edge 12, Type (0, 1), BuildingBlock: XIVTED_clean_linker_0, # of connection points: 2
#     Edge 13, Type (0, 1), BuildingBlock: XIVTED_clean_linker_0, # of connection points: 2
#     Edge 14, Type (0, 1), BuildingBlock: XIVTED_clean_linker_0, # of connection points: 2
#     Edge 15, Type (0, 1), BuildingBlock: XIVTED_clean_linker_0, # of connection points: 2
#     Edge 16, Type (0, 1), BuildingBlock: XIVTED_clean_linker_0, # of connection points: 2
#     Edge 17, Type (0, 1), BuildingBlock: XIVTED_clean_linker_0, # of connection points: 2
#     Edge 18, Type (0, 1), BuildingBlock: XIVTED_clean_linker_0, # of connection points: 2
#     Edge 19, Type (0, 1), BuildingBlock: XIVTED_clean_linker_0, # of connection points: 2
#     Edge 20, Type (0, 1), BuildingBlock: XIVTED_clean_linker_0, # of connection points: 2
#     Edge 21, Type (0, 1), BuildingBlock: XIVTED_clean_linker_0, # of connection points: 2
#     Edge 22, Type (0, 1), BuildingBlock: XIVTED_clean_linker_0, # of connection points: 2
#     Edge 23, Type (0, 1), BuildingBlock: XIVTED_clean_linker_0, # of connection points: 2
#     Edge 24, Type (0, 1), BuildingBlock: XIVTED_clean_linker_0, # of connection points: 2
#     Edge 25, Type (0, 1), BuildingBlock: XIVTED_clean_linker_0, # of connection points: 2
#     Edge 26, Type (0, 1), BuildingBlock: XIVTED_clean_linker_0, # of connection points: 2
#     Edge 27, Type (0, 1), BuildingBlock: XIVTED_clean_linker_0, # of connection points: 2
#     Edge 28, Type (0, 1), BuildingBlock: XIVTED_clean_linker_0, # of connection points: 2
#     Edge 29, Type (0, 1), BuildingBlock: XIVTED_clean_linker_0, # of connection points: 2
#     Edge 30, Type (0, 1), BuildingBlock: XIVTED_clean_linker_0, # of connection points: 2
#     Edge 31, Type (0, 1), BuildingBlock: XIVTED_clean_linker_0, # of connection points: 2
#     Edge 32, Type (0, 1), BuildingBlock: XIVTED_clean_linker_0, # of connection points: 2
#     Edge 33, Type (0, 1), BuildingBlock: XIVTED_clean_linker_0, # of connection points: 2
#     Edge 34, Type (0, 1), BuildingBlock: XIVTED_clean_linker_0, # of connection points: 2
#     Edge 35, Type (0, 1), BuildingBlock: XIVTED_clean_linker_0, # of connection points: 2
# Relax obj value: 0.292
# Max RMSD: 0.226
# Mean RMSD: 0.189
data_MOF--net-zzz--node1-JUFBIX_clean_sbu_0--node2-MIDCAF_clean_linker_0--edge1-XIVTED_clean_linker_0
_symmetry_space_group_name_H-M    P1
_symmetry_Int_Tables_number       1
_symmetry_cell_setting            triclinic
loop_
_symmetry_equiv_pos_as_xyz
'x, y, z'
_cell_length_a     57.375752
_cell_length_b     59.087577
_cell_length_c     22.856731
_cell_angle_alpha  82.730251
_cell_angle_beta   90.074445
_cell_angle_gamma 86.41212
loop_
_atom_site_label
_atom_site_type_symbol
_atom_site_fract_x
_atom_site_fract_y
_atom_site_fract_z
_atom_type_partial_charge
C0 C 0.81654 0.5906 0.44418 0.0
C1 C 0.81309 0.57266 0.48928 0.0
C2 C 0.7936 0.55952 0.48553 0.0
C3 C 0.77932 0.56277 0.43498 0.0
H4 H 0.71471 0.60049 0.20287 0.0
H5 H 0.68001 0.59096 0.15116 0.0
H6 H 0.69107 0.52054 0.22879 0.0
H7 H 0.72576 0.5303 0.2807 0.0
H8 H 0.78166 0.55262 0.1285 0.0
H9 H 0.81335 0.54093 0.06556 0.0
H10 H 0.8626 0.57156 0.16986 0.0
H11 H 0.83106 0.58351 0.23225 0.0
H12 H 0.8068 0.60635 0.35753 0.0
H13 H 0.8314 0.60098 0.44521 0.0
H14 H 0.79029 0.54578 0.51999 0.0
H15 H 0.76568 0.55117 0.43093 0.0
N16 N 0.75307 0.57358 0.31656 0.0
N17 N 0.76287 0.5696 0.2181 0.0
N18 N 0.79172 0.57674 0.28414 0.0
C19 C 0.74659 0.57033 0.26098 0.0
C20 C 0.78554 0.57273 0.22946 0.0
C21 C 0.77577 0.57727 0.32772 0.0
C22 C 0.72251 0.56616 0.24622 0.0
C23 C 0.70903 0.58323 0.21082 0.0
C24 C 0.68925 0.57773 0.18116 0.0
C25 C 0.68296 0.55496 0.18557 0.0
C26 C 0.69561 0.5382 0.22433 0.0
C27 C 0.71526 0.54378 0.25451 0.0
C28 C 0.80385 0.56883 0.18575 0.0
C29 C 0.79917 0.55725 0.13737 0.0
C30 C 0.81733 0.55035 0.10165 0.0
C31 C 0.84046 0.55509 0.11329 0.0
C32 C 0.84494 0.56773 0.15967 0.0
C33 C 0.82685 0.57449 0.19557 0.0
C34 C 0.7845 0.57907 0.38745 0.0
C35 C 0.80245 0.59368 0.39374 0.0
C36 C 0.96719 0.81844 0.39048 0.0
C37 C 0.97985 0.81064 0.44262 0.0
C38 C 0.99422 0.79028 0.44449 0.0
C39 C 0.99832 0.7799 0.39325 0.0
H40 H 0.99793 0.72382 0.23873 0.0
H41 H 0.99828 0.69178 0.18016 0.0
H42 H 0.01964 0.7363 0.02761 0.0
H43 H 0.02003 0.76767 0.08582 0.0
H44 H 0.04044 0.81495 0.09783 0.0
H45 H 0.05628 0.8507 0.05589 0.0
H46 H 0.05339 0.87465 0.22685 0.0
H47 H 0.03714 0.8392 0.26853 0.0
H48 H 0.96332 0.81603 0.29836 0.0
H49 H 0.95605 0.83404 0.38699 0.0
H50 H 0.00387 0.78349 0.48426 0.0
H51 H 0.01155 0.76594 0.39427 0.0
N52 N 0.99913 0.76835 0.2549 0.0
N53 N 0.02294 0.78592 0.1806 0.0
N54 N 0.01283 0.80462 0.26171 0.0
C55 C 0.0105 0.76785 0.20237 0.0
C56 C 0.02436 0.80425 0.21037 0.0
C57 C 0.00025 0.787 0.28422 0.0
C58 C 0.00923 0.74831 0.16738 0.0
C59 C 0.00266 0.7267 0.19266 0.0
C60 C 0.0028 0.70835 0.15895 0.0
C61 C 0.00935 0.71125 0.09913 0.0
C62 C 0.01519 0.73308 0.07381 0.0
C63 C 0.01526 0.75123 0.10736 0.0
C64 C 0.0371 0.82436 0.18625 0.0
C65 C 0.04354 0.82767 0.12667 0.0
C66 C 0.05278 0.84814 0.10273 0.0
C67 C 0.05589 0.86564 0.13796 0.0
C68 C 0.05081 0.8617 0.19831 0.0
C69 C 0.0415 0.84133 0.22215 0.0
C70 C 0.9879 0.78956 0.33961 0.0
C71 C 0.97124 0.80801 0.33951 0.0
C72 C 0.72142 0.93578 0.44529 0.0
C73 C 0.71555 0.95856 0.45377 0.0
C74 C 0.7274 0.97607 0.42134 0.0
C75 C 0.74284 0.97109 0.37667 0.0
H76 H 0.81984 0.93666 0.25576 0.0
H77 H 0.85597 0.94356 0.19955 0.0
H78 H 0.815 0.9781 0.05264 0.0
H79 H 0.77938 0.97103 0.10731 0.0
H80 H 0.73098 0.93752 0.09179 0.0
H81 H 0.69673 0.94585 0.02774 0.0
H82 H 0.65571 0.96287 0.17661 0.0
H83 H 0.6894 0.95342 0.2406 0.0
H84 H 0.73846 0.91348 0.38933 0.0
H85 H 0.71243 0.92197 0.46933 0.0
H86 H 0.7232 0.99378 0.42715 0.0
H87 H 0.74973 0.98512 0.34809 0.0
N88 N 0.77237 0.94849 0.27618 0.0
N89 N 0.75541 0.94623 0.18337 0.0
N90 N 0.7323 0.94312 0.26739 0.0
C91 C 0.77458 0.9485 0.21663 0.0
C92 C 0.73424 0.94353 0.20838 0.0
C93 C 0.7511 0.94536 0.30157 0.0
C94 C 0.7968 0.95325 0.18593 0.0
C95 C 0.81868 0.94579 0.21158 0.0
C96 C 0.83926 0.94957 0.1794 0.0
C97 C 0.83817 0.96136 0.12188 0.0
C98 C 0.81632 0.96906 0.09695 0.0
C99 C 0.79593 0.96492 0.12832 0.0
C100 C 0.71299 0.94499 0.17116 0.0
C101 C 0.71451 0.94261 0.1109 0.0
C102 C 0.6949 0.9476 0.07412 0.0
C103 C 0.67348 0.95544 0.09667 0.0
C104 C 0.67176 0.95666 0.15755 0.0
C105 C 0.69122 0.95131 0.1944 0.0
C106 C 0.74631 0.94862 0.36318 0.0
C107 C 0.7365 0.93087 0.39985 0.0
C108 C 0.43119 0.66915 0.10624 0.0
C109 C 0.4389 0.67279 0.04777 0.0
C110 C 0.445 0.69474 0.02423 0.0
C111 C 0.44528 0.71221 0.05992 0.0
H112 H 0.48749 0.76837 0.08415 0.0
H113 H 0.49474 0.80514 0.02907 0.0
H114 H 0.45285 0.83917 0.15313 0.0
H115 H 0.44678 0.80203 0.21011 0.0
H116 H 0.48908 0.735 0.33347 0.0
H117 H 0.49786 0.70936 0.42498 0.0
H118 H 0.43125 0.67999 0.41059 0.0
H119 H 0.42253 0.70572 0.32119 0.0
H120 H 0.42676 0.68283 0.18791 0.0
H121 H 0.42644 0.65239 0.12557 0.0
H122 H 0.45068 0.69806 0.97894 0.0
H123 H 0.4513 0.72856 0.0412 0.0
N124 N 0.45191 0.74552 0.13977 0.0
N125 N 0.45968 0.75308 0.23645 0.0
N126 N 0.44512 0.71812 0.21954 0.0
C127 C 0.45905 0.75992 0.17707 0.0
C128 C 0.45254 0.73201 0.25769 0.0
C129 C 0.44475 0.72466 0.16067 0.0
C130 C 0.46656 0.78243 0.15122 0.0
C131 C 0.48027 0.78378 0.10027 0.0
C132 C 0.48414 0.80489 0.06828 0.0
C133 C 0.47388 0.82524 0.0855 0.0
C134 C 0.46112 0.82393 0.13845 0.0
C135 C 0.45764 0.80269 0.17127 0.0
C136 C 0.45514 0.72231 0.32033 0.0
C137 C 0.476 0.7237 0.35151 0.0
C138 C 0.48115 0.70874 0.40336 0.0
C139 C 0.46543 0.69231 0.42496 0.0
C140 C 0.44375 0.69245 0.39605 0.0
C141 C 0.43872 0.70722 0.34449 0.0
C142 C 0.43962 0.70799 0.11997 0.0
C143 C 0.43157 0.68658 0.14206 0.0
C144 C 0.19622 0.47991 0.06659 0.0
C145 C 0.18735 0.46031 0.04772 0.0
C146 C 0.19592 0.43867 0.07499 0.0
C147 C 0.21077 0.43678 0.12422 0.0
H148 H 0.28429 0.48337 0.24712 0.0
H149 H 0.32011 0.48961 0.30045 0.0
H150 H 0.3069 0.43246 0.43073 0.0
H151 H 0.27087 0.42679 0.37875 0.0
H152 H 0.2127 0.46698 0.41912 0.0
H153 H 0.18001 0.47745 0.48062 0.0
H154 H 0.13166 0.46645 0.34347 0.0
H155 H 0.16406 0.4556 0.28261 0.0
H156 H 0.21587 0.49337 0.13257 0.0
H157 H 0.18994 0.49689 0.04742 0.0
H158 H 0.18991 0.42319 0.0609 0.0
H159 H 0.21518 0.42003 0.14814 0.0
N160 N 0.24653 0.45458 0.22758 0.0
N161 N 0.23311 0.45545 0.32475 0.0
N162 N 0.20633 0.45635 0.24746 0.0
C163 C 0.25106 0.45428 0.28627 0.0
C164 C 0.21066 0.45662 0.30553 0.0
C165 C 0.22399 0.45514 0.20857 0.0
C166 C 0.27501 0.45458 0.30897 0.0
C167 C 0.28951 0.47176 0.28611 0.0
C168 C 0.30984 0.4754 0.31669 0.0
C169 C 0.31617 0.46149 0.36954 0.0
C170 C 0.30251 0.44325 0.38978 0.0
C171 C 0.28193 0.44003 0.36018 0.0
C172 C 0.19104 0.46055 0.34576 0.0
C173 C 0.19509 0.46649 0.4024 0.0
C174 C 0.17639 0.47271 0.43742 0.0
C175 C 0.15329 0.47296 0.41666 0.0
C176 C 0.14925 0.46628 0.36091 0.0
C177 C 0.16788 0.46015 0.32589 0.0
C178 C 0.21766 0.45646 0.14612 0.0
C179 C 0.21123 0.47796 0.11536 0.0
C180 C 0.99212 0.22495 0.10196 0.0
C181 C 0.01463 0.21411 0.10022 0.0
C182 C 0.03062 0.21641 0.14561 0.0
C183 C 0.02351 0.22728 0.1943 0.0
H184 H 0.99388 0.29964 0.30611 0.0
H185 H 0.99438 0.33129 0.36575 0.0
H186 H 0.98171 0.28458 0.52203 0.0
H187 H 0.98052 0.25348 0.46288 0.0
H188 H 0.95852 0.20687 0.45227 0.0
H189 H 0.94595 0.1702 0.49771 0.0
H190 H 0.94378 0.14651 0.32664 0.0
H191 H 0.95677 0.18297 0.28121 0.0
H192 H 0.96691 0.24171 0.15362 0.0
H193 H 0.97921 0.22337 0.06835 0.0
H194 H 0.04817 0.20854 0.14534 0.0
H195 H 0.03545 0.22686 0.23125 0.0
N196 N 0.99329 0.25535 0.28816 0.0
N197 N 0.97301 0.23635 0.36749 0.0
N198 N 0.97868 0.21946 0.28131 0.0
C199 C 0.9844 0.25486 0.34379 0.0
C200 C 0.97 0.21864 0.33641 0.0
C201 C 0.99028 0.23751 0.25697 0.0
C202 C 0.98686 0.27403 0.37943 0.0
C203 C 0.99134 0.29617 0.35326 0.0
C204 C 0.99167 0.31431 0.38754 0.0
C205 C 0.98768 0.31066 0.44878 0.0
C206 C 0.98414 0.2883 0.4749 0.0
C207 C 0.98361 0.27034 0.44081 0.0
C208 C 0.95904 0.19778 0.36322 0.0
C209 C 0.95499 0.19401 0.42417 0.0
C210 C 0.94763 0.17299 0.45019 0.0
C211 C 0.94405 0.15532 0.41582 0.0
C212 C 0.94677 0.1596 0.35446 0.0
C213 C 0.95418 0.18057 0.32847 0.0
C214 C 0.00034 0.23603 0.19837 0.0
C215 C 0.98504 0.23564 0.1507 0.0
C216 C 0.27781 0.08401 0.09743 0.0
C217 C 0.28538 0.06117 0.09351 0.0
C218 C 0.27481 0.04366 0.1294 0.0
C219 C 0.2591 0.04893 0.17319 0.0
H220 H 0.18473 0.06204 0.28797 0.0
H221 H 0.14879 0.0565 0.34424 0.0
H222 H 0.17781 0.08867 0.48498 0.0
H223 H 0.21316 0.09459 0.42886 0.0
H224 H 0.26893 0.08701 0.45135 0.0
H225 H 0.30308 0.07899 0.51596 0.0
H226 H 0.34429 0.06077 0.36863 0.0
H227 H 0.31081 0.06979 0.30414 0.0
H228 H 0.25912 0.10698 0.14882 0.0
H229 H 0.28577 0.09785 0.07064 0.0
H230 H 0.28026 0.02591 0.12705 0.0
H231 H 0.25331 0.03516 0.2046 0.0
N232 N 0.22758 0.07652 0.26667 0.0
N233 N 0.24429 0.08107 0.35836 0.0
N234 N 0.26816 0.07828 0.27687 0.0
C235 C 0.22501 0.07931 0.32485 0.0
C236 C 0.26592 0.08046 0.33473 0.0
C237 C 0.2493 0.07652 0.24258 0.0
C238 C 0.20194 0.07854 0.35409 0.0
C239 C 0.18321 0.06831 0.3304 0.0
C240 C 0.1627 0.06497 0.36288 0.0
C241 C 0.16045 0.07199 0.41938 0.0
C242 C 0.17876 0.08324 0.4415 0.0
C243 C 0.19919 0.08645 0.40936 0.0
C244 C 0.28702 0.07885 0.37266 0.0
C245 C 0.28541 0.0817 0.43266 0.0
C246 C 0.30496 0.0769 0.46979 0.0
C247 C 0.32644 0.06891 0.4478 0.0
C248 C 0.32821 0.06714 0.38722 0.0
C249 C 0.30883 0.07221 0.3501 0.0
C250 C 0.25396 0.07176 0.18209 0.0
C251 C 0.26236 0.08926 0.14182 0.0
C252 C 0.5779 0.355 0.44024 0.0
C253 C 0.5707 0.35112 0.49911 0.0
C254 C 0.56579 0.32888 0.52327 0.0
C255 C 0.56605 0.31128 0.48778 0.0
H256 H 0.5797 0.23636 0.45395 0.0
H257 H 0.57187 0.19887 0.50472 0.0
H258 H 0.50949 0.19857 0.39914 0.0
H259 H 0.51763 0.23629 0.34702 0.0
H260 H 0.51365 0.29014 0.225 0.0
H261 H 0.5026 0.31515 0.13358 0.0
H262 H 0.57005 0.34397 0.13319 0.0
H263 H 0.58088 0.31902 0.22255 0.0
H264 H 0.58217 0.34139 0.3584 0.0
H265 H 0.58175 0.37199 0.42044 0.0
H266 H 0.56049 0.32539 0.56883 0.0
H267 H 0.56074 0.29469 0.50683 0.0
N268 N 0.56138 0.27729 0.40762 0.0
N269 N 0.54835 0.27089 0.31359 0.0
N270 N 0.56138 0.30661 0.32911 0.0
C271 C 0.55312 0.26298 0.37143 0.0
C272 C 0.55294 0.29277 0.29225 0.0
C273 C 0.56543 0.29916 0.38681 0.0
C274 C 0.54925 0.23922 0.39657 0.0
C275 C 0.56446 0.22819 0.44094 0.0
C276 C 0.56004 0.20669 0.46989 0.0
C277 C 0.54006 0.19585 0.45596 0.0
C278 C 0.52498 0.20664 0.41081 0.0
C279 C 0.52971 0.22807 0.38077 0.0
C280 C 0.54811 0.30268 0.23058 0.0
C281 C 0.5263 0.30126 0.20381 0.0
C282 C 0.51991 0.3158 0.15201 0.0
C283 C 0.53535 0.33176 0.12608 0.0
C284 C 0.55775 0.3318 0.15106 0.0
C285 C 0.56399 0.31751 0.20259 0.0
C286 C 0.57096 0.31574 0.42735 0.0
C287 C 0.57797 0.33749 0.40462 0.0
Co288 Co 0.00275 0.02758 0.79713 0.0
C289 C 0.97037 0.99667 0.84498 0.0
Co290 Co 0.00432 0.9942 0.761 0.0
C291 C 0.01137 0.07036 0.84558 0.0
C292 C 0.97588 0.06757 0.8198 0.0
N293 N 0.9971 0.05624 0.82262 0.0
N294 N 0.9998 0.09013 0.85597 0.0
C295 C 0.97751 0.08833 0.83977 0.0
H296 H 0.02986 0.06639 0.85377 0.0
H297 H 0.96008 0.06111 0.80429 0.0
C298 C 0.03648 0.0254 0.7128 0.0
N299 N 0.0104 0.9655 0.73496 0.0
C300 C 0.99784 0.95227 0.70384 0.0
C301 C 0.03161 0.95422 0.74196 0.0
N302 N 0.0106 0.93334 0.69141 0.0
C303 C 0.0317 0.93461 0.71619 0.0
C304 C 0.97486 0.02433 0.69577 0.0
O305 O 0.02758 0.03853 0.74808 0.0
O306 O 0.02896 0.00562 0.71267 0.0
O307 O 0.98301 0.00375 0.69762 0.0
O308 O 0.98143 0.03653 0.73388 0.0
O309 O 0.97932 0.98319 0.81048 0.0
H310 H 0.04654 0.96017 0.76298 0.0
H311 H 0.98008 0.95686 0.68875 0.0
O312 O 0.97814 0.01636 0.84488 0.0
O313 O 0.02399 0.01812 0.86065 0.0
O314 O 0.02557 0.98539 0.82455 0.0
C315 C 0.03212 0.99755 0.86271 0.0
H316 H 0.96327 0.10099 0.84328 0.0
H317 H 0.04647 0.92233 0.71532 0.0
Co318 Co 0.4907 0.02169 0.8037 0.0
C319 C 0.48965 0.97432 0.82635 0.0
Co320 Co 0.51005 0.00312 0.73866 0.0
C321 C 0.45007 0.03455 0.8684 0.0
C322 C 0.47995 0.05101 0.89408 0.0
N323 N 0.47301 0.03661 0.85708 0.0
N324 N 0.44245 0.04699 0.91088 0.0
C325 C 0.4612 0.05729 0.92755 0.0
H326 H 0.43922 0.02364 0.84701 0.0
H327 H 0.49752 0.05646 0.8969 0.0
C328 C 0.51128 0.05045 0.71629 0.0
N329 N 0.52769 0.98813 0.68527 0.0
C330 C 0.5507 0.98981 0.6741 0.0
C331 C 0.52045 0.97405 0.64777 0.0
N332 N 0.55804 0.97748 0.6311 0.0
C333 C 0.53905 0.96763 0.61408 0.0
C334 C 0.46447 0.01464 0.70571 0.0
O335 O 0.49862 0.05034 0.76208 0.0
O336 O 0.51856 0.03157 0.69957 0.0
O337 O 0.48325 0.00505 0.68877 0.0
O338 O 0.46412 0.02252 0.75478 0.0
O339 O 0.50135 0.97453 0.77897 0.0
H340 H 0.50275 0.96897 0.64468 0.0
H341 H 0.56178 1.00039 0.6959 0.0
O342 O 0.48303 0.99318 0.84426 0.0
O343 O 0.51767 0.0205 0.85257 0.0
O344 O 0.53642 1.00158 0.78861 0.0
C345 C 0.53624 0.01018 0.83671 0.0
H346 H 0.46129 0.06864 0.9612 0.0
H347 H 0.5387 0.9565 0.57996 0.0
Co348 Co 0.51826 0.5148 0.78089 0.0
C349 C 0.50301 0.47598 0.85032 0.0
Co350 Co 0.48186 0.50712 0.76403 0.0
C351 C 0.5561 0.52321 0.85537 0.0
C352 C 0.56706 0.52365 0.76578 0.0
N353 N 0.54828 0.52097 0.80081 0.0
N354 N 0.57898 0.52713 0.85594 0.0
C355 C 0.58603 0.52732 0.79968 0.0
H356 H 0.5453 0.52153 0.89428 0.0
H357 H 0.56699 0.52289 0.71874 0.0
C358 C 0.49704 0.54599 0.69466 0.0
N359 N 0.45178 0.50097 0.74436 0.0
C360 C 0.44397 0.49767 0.69052 0.0
C361 C 0.43277 0.49979 0.77907 0.0
N362 N 0.42091 0.49462 0.69016 0.0
C363 C 0.4137 0.49604 0.74569 0.0
C364 C 0.48459 0.53657 0.84649 0.0
O365 O 0.51629 0.54087 0.72228 0.0
O366 O 0.48019 0.5331 0.70529 0.0
O367 O 0.47009 0.52612 0.81959 0.0
O368 O 0.50623 0.53346 0.83658 0.0
O369 O 0.48369 0.48124 0.82315 0.0
H370 H 0.43272 0.50174 0.82549 0.0
H371 H 0.45487 0.49809 0.65182 0.0
O372 O 0.51998 0.48866 0.83911 0.0
O373 O 0.53005 0.49611 0.725 0.0
O374 O 0.49401 0.48815 0.70872 0.0
C375 C 0.51569 0.48534 0.69857 0.0
H376 H 0.60354 0.53017 0.78411 0.0
H377 H 0.39598 0.49432 0.76102 0.0
Co378 Co 0.00198 0.52944 0.77441 0.0
C379 C 0.03514 0.49884 0.83377 0.0
Co380 Co 0.99483 0.49308 0.77135 0.0
C381 C 0.00789 0.56977 0.83182 0.0
C382 C 0.00964 0.57713 0.73788 0.0
N383 N 0.00698 0.55991 0.78156 0.0
N384 N 0.01095 0.59241 0.82126 0.0
C385 C 0.01218 0.59706 0.7621 0.0
H386 H 0.0064 0.5605 0.87547 0.0
H387 H 0.00936 0.5754 0.69135 0.0
C388 C 0.96174 0.52381 0.71175 0.0
N389 N 0.98986 0.46262 0.76443 0.0
C390 C 0.98863 0.45269 0.71436 0.0
C391 C 0.98776 0.4454 0.80842 0.0
N392 N 0.98591 0.42999 0.72534 0.0
C393 C 0.98524 0.42539 0.78459 0.0
C394 C 0.97336 0.5103 0.86423 0.0
O395 O 0.97461 0.5387 0.72807 0.0
O396 O 0.96776 0.50269 0.725 0.0
O397 O 0.97617 0.49213 0.84 0.0
O398 O 0.98349 0.52795 0.84294 0.0
O399 O 0.02226 0.48383 0.81813 0.0
H400 H 0.98846 0.44718 0.8549 0.0
H401 H 0.98972 0.46196 0.67057 0.0
O402 O 0.02904 0.51991 0.8202 0.0
O403 O 0.02063 0.53038 0.70525 0.0
O404 O 0.01322 0.49451 0.70305 0.0
C405 C 0.02321 0.51215 0.68112 0.0
H406 H 0.01415 0.61379 0.73792 0.0
H407 H 0.98373 0.40864 0.8091 0.0
H408 H 0.13797 0.0321 0.43291 0.0
H409 H 0.05563 0.06731 0.69441 0.0
H410 H 0.13672 0.09842 0.49365 0.0
H411 H 0.05848 1.00109 0.63272 0.0
H412 H 0.0845 0.07962 0.6199 0.0
H413 H 0.10727 0.02135 0.50278 0.0
C414 C 0.13101 0.04455 0.46027 0.0
C415 C 0.14005 0.06619 0.45736 0.0
C416 C 0.07878 0.0624 0.62277 0.0
C417 C 0.10509 0.05378 0.53872 0.0
C418 C 0.06237 0.05534 0.66544 0.0
C419 C 0.05463 0.03312 0.66999 0.0
C420 C 0.08749 0.04713 0.58438 0.0
C421 C 0.06391 0.01837 0.63103 0.0
C422 C 0.1136 0.03831 0.50068 0.0
C423 C 0.13054 0.08143 0.49488 0.0
N424 N 0.07979 0.02564 0.59 0.0
N425 N 0.11367 0.07491 0.53413 0.0
H426 H 0.49911 0.18443 0.51013 0.0
H427 H 0.54576 0.05737 0.63512 0.0
H428 H 0.56921 0.15751 0.48189 0.0
H429 H 0.48815 0.09271 0.71382 0.0
H430 H 0.55233 0.09246 0.57001 0.0
H431 H 0.49208 0.14913 0.57505 0.0
C432 C 0.51289 0.17095 0.51701 0.0
C433 C 0.53476 0.17384 0.49065 0.0
C434 C 0.53833 0.09258 0.60172 0.0
C435 C 0.52693 0.13361 0.56482 0.0
C436 C 0.53456 0.07257 0.63893 0.0
C437 C 0.51642 0.07214 0.68014 0.0
C438 C 0.52361 0.11227 0.6049 0.0
C439 C 0.50245 0.09234 0.68302 0.0
C440 C 0.50896 0.15096 0.55446 0.0
C441 C 0.55214 0.15599 0.50161 0.0
N442 N 0.50621 0.11156 0.64554 0.0
N443 N 0.54784 0.13663 0.53769 0.0
H444 H 0.35371 0.43441 0.4171 0.0
H445 H 0.37732 0.5127 0.66235 0.0
H446 H 0.32033 0.50209 0.41129 0.0
H447 H 0.43273 0.46821 0.60512 0.0
H448 H 0.35355 0.50599 0.57756 0.0
H449 H 0.38113 0.44358 0.49223 0.0
C450 C 0.35244 0.45129 0.43106 0.0
C451 C 0.33493 0.4676 0.40791 0.0
C452 C 0.37097 0.4978 0.58344 0.0
C453 C 0.36552 0.47788 0.4945 0.0
C454 C 0.38439 0.50148 0.6319 0.0
C455 C 0.40691 0.49095 0.64047 0.0
C456 C 0.37994 0.48306 0.5442 0.0
C457 C 0.41546 0.47671 0.59961 0.0
C458 C 0.36801 0.45649 0.47377 0.0
C459 C 0.3338 0.48917 0.42765 0.0
N460 N 0.40185 0.47293 0.55349 0.0
N461 N 0.34866 0.49359 0.47053 0.0
H462 H 0.01425 0.34847 0.44067 0.0
H463 H 0.96306 0.39092 0.73656 0.0
H464 H 0.95854 0.31701 0.5413 0.0
H465 H 0.00666 0.43187 0.61779 0.0
H466 H 0.9628 0.36283 0.6669 0.0
H467 H 0.01295 0.37866 0.50528 0.0
C468 C 0.00165 0.34793 0.47595 0.0
C469 C 0.98668 0.32989 0.48571 0.0
C470 C 0.97236 0.37799 0.65582 0.0
C471 C 0.98534 0.36431 0.5604 0.0
C472 C 0.97261 0.39399 0.69582 0.0
C473 C 0.98493 0.41378 0.68316 0.0
C474 C 0.98474 0.38157 0.60276 0.0
C475 C 0.99676 0.41697 0.62916 0.0
C476 C 0.001 0.36515 0.51301 0.0
C477 C 0.97087 0.33014 0.53267 0.0
N478 N 0.99651 0.40097 0.59114 0.0
N479 N 0.97073 0.34691 0.56824 0.0
H480 H 0.85088 0.00263 0.07078 0.0
H481 H 0.95474 0.9537 0.88029 0.0
H482 H 0.87323 0.93104 0.09239 0.0
H483 H 0.94247 0.02482 0.90363 0.0
H484 H 0.92363 0.94423 0.9519 0.0
H485 H 0.88338 0.01047 0.00419 0.0
C486 C 0.86284 0.98858 0.06178 0.0
C487 C 0.85946 0.96619 0.08709 0.0
C488 C 0.92787 0.96187 0.94124 0.0
C489 C 0.8966 0.97492 0.01001 0.0
C490 C 0.94547 0.96729 0.90016 0.0
C491 C 0.95122 0.99008 0.8859 0.0
C492 C 0.91583 0.97942 0.96743 0.0
C493 C 0.93875 0.007 0.91327 0.0
C494 C 0.88139 0.99303 0.02373 0.0
C495 C 0.87542 0.94857 0.07401 0.0
N496 N 0.92168 1.00134 0.95235 0.0
N497 N 0.89324 0.95326 0.03582 0.0
H498 H 0.47408 0.83259 0.96425 0.0
H499 H 0.47379 0.96838 0.93963 0.0
H500 H 0.47689 0.86871 0.11683 0.0
H501 H 0.49601 0.93054 0.79771 0.0
H502 H 0.46937 0.93233 0.00265 0.0
H503 H 0.47722 0.86857 0.90078 0.0
C504 C 0.47561 0.84799 0.98469 0.0
C505 C 0.47554 0.84738 0.04647 0.0
C506 C 0.47515 0.93192 0.95769 0.0
C507 C 0.47839 0.88896 0.97317 0.0
C508 C 0.47755 0.9525 0.92147 0.0
C509 C 0.48531 0.95251 0.86317 0.0
C510 C 0.48025 0.91114 0.93538 0.0
C511 C 0.49002 0.93136 0.84233 0.0
C512 C 0.47722 0.8686 0.94815 0.0
C513 C 0.47671 0.86821 0.06968 0.0
N514 N 0.48737 0.91152 0.87837 0.0
N515 N 0.47806 0.88813 0.03305 0.0
H516 H 0.68733 0.51978 0.11918 0.0
H517 H 0.56512 0.54809 0.94994 0.0
H518 H 0.63957 0.5756 0.15498 0.0
H519 H 0.62442 0.51332 0.877 0.0
H520 H 0.58917 0.55338 0.03548 0.0
H521 H 0.66101 0.51176 0.0413 0.0
C522 C 0.67107 0.53007 0.11142 0.0
C523 C 0.66559 0.54835 0.14371 0.0
C524 C 0.59687 0.54457 0.00075 0.0
C525 C 0.63556 0.53944 0.05406 0.0
C526 C 0.58317 0.54146 0.95219 0.0
C527 C 0.59287 0.5303 0.90638 0.0
C528 C 0.62031 0.53611 0.00392 0.0
C529 C 0.61638 0.52222 0.91108 0.0
C530 C 0.6562 0.52564 0.06652 0.0
C531 C 0.64448 0.56141 0.13092 0.0
N532 N 0.62928 0.52518 0.95913 0.0
N533 N 0.6302 0.5567 0.08703 0.0
H534 H 0.98025 0.67546 0.10143 0.0
H535 H 0.03515 0.6306 0.81283 0.0
H536 H 0.04101 0.70245 0.01344 0.0
H537 H 0.9887 0.5911 0.9267 0.0
H538 H 0.0355 0.65844 0.8833 0.0
H539 H 0.98144 0.6453 0.03673 0.0
C540 C 0.99395 0.67501 0.069 0.0
C541 C 0.01037 0.69184 0.0627 0.0
C542 C 0.02529 0.64364 0.89312 0.0
C543 C 0.01156 0.6575 0.98772 0.0
C544 C 0.02499 0.62781 0.85267 0.0
C545 C 0.01187 0.60849 0.86377 0.0
C546 C 0.01211 0.6404 0.94497 0.0
C547 C 0.99923 0.60563 0.91661 0.0
C548 C 0.99453 0.65782 0.03184 0.0
C549 C 0.02756 0.69034 0.01923 0.0
N550 N 0.99952 0.62148 0.95502 0.0
N551 N 0.02758 0.67367 0.98334 0.0
H552 H 0.96308 0.11444 0.3875 0.0
H553 H 0.93694 0.05325 0.70339 0.0
H554 H 0.91605 0.14281 0.51044 0.0
H555 H 0.98026 0.02221 0.57783 0.0
H556 H 0.92107 0.08151 0.62413 0.0
H557 H 0.96197 0.07706 0.44592 0.0
C558 C 0.95203 0.11274 0.42598 0.0
C559 C 0.93998 0.13195 0.4447 0.0
C560 C 0.93357 0.06821 0.61332 0.0
C561 C 0.93904 0.08915 0.51255 0.0
C562 C 0.9425 0.05198 0.65856 0.0
C563 C 0.96003 0.03562 0.64691 0.0
C564 C 0.94278 0.06844 0.55637 0.0
C565 C 0.96673 0.03462 0.58836 0.0
C566 C 0.95151 0.09134 0.45955 0.0
C567 C 0.92613 0.12862 0.49522 0.0
N568 N 0.95853 0.05125 0.54531 0.0
N569 N 0.92634 0.10774 0.52788 0.0
H570 H 0.32539 0.04663 0.56072 0.0
H571 H 0.46262 0.01756 0.58545 0.0
H572 H 0.37337 0.07249 0.42648 0.0
H573 H 0.41933 0.02194 0.73841 0.0
H574 H 0.42853 0.03029 0.52211 0.0
H575 H 0.35864 0.03135 0.62337 0.0
C576 C 0.34284 0.04937 0.54453 0.0
C577 C 0.34648 0.06094 0.48801 0.0
C578 C 0.42654 0.02825 0.56957 0.0
C579 C 0.38454 0.04268 0.55888 0.0
C580 C 0.44586 0.02079 0.6056 0.0
C581 C 0.44372 0.01881 0.66709 0.0
C582 C 0.40496 0.03335 0.59539 0.0
C583 C 0.42169 0.02339 0.69111 0.0
C584 C 0.36179 0.04041 0.58017 0.0
C585 C 0.36962 0.06337 0.46917 0.0
N586 N 0.40312 0.03047 0.65517 0.0
N587 N 0.38776 0.05419 0.50437 0.0
H588 H 0.59643 0.38815 0.51061 0.0
H589 H 0.48978 0.4556 0.64871 0.0
H590 H 0.53098 0.35912 0.55942 0.0
H591 H 0.56075 0.47446 0.6664 0.0
H592 H 0.50419 0.42315 0.60026 0.0
H593 H 0.58347 0.42242 0.55563 0.0
C594 C 0.57948 0.38892 0.53132 0.0
C595 C 0.56482 0.37074 0.53182 0.0
C596 C 0.51661 0.43445 0.61453 0.0
C597 C 0.54979 0.40981 0.58171 0.0
C598 C 0.50839 0.45309 0.64179 0.0
C599 C 0.52411 0.46767 0.66206 0.0
C600 C 0.54071 0.4304 0.60694 0.0
C601 C 0.54805 0.46356 0.65169 0.0
C602 C 0.57211 0.40841 0.55683 0.0
C603 C 0.54299 0.37256 0.55894 0.0
N604 N 0.55567 0.44521 0.62492 0.0
N605 N 0.53607 0.39182 0.58234 0.0
H606 H 0.15005 0.50939 0.4803 0.0
H607 H 0.02379 0.48079 0.60398 0.0
H608 H 0.11118 0.45399 0.43345 0.0
H609 H 0.05992 0.5384 0.6477 0.0
H610 H 0.05445 0.47298 0.53462 0.0
H611 H 0.11668 0.5218 0.53764 0.0
C612 C 0.13454 0.49978 0.48232 0.0
C613 C 0.13341 0.48057 0.45225 0.0
C614 C 0.05563 0.4875 0.55879 0.0
C615 C 0.09512 0.49485 0.51691 0.0
C616 C 0.03806 0.49201 0.59831 0.0
C617 C 0.03945 0.51016 0.63193 0.0
C618 C 0.07492 0.50107 0.55322 0.0
C619 C 0.05823 0.52424 0.62254 0.0
C620 C 0.11544 0.507 0.51456 0.0
C621 C 0.11275 0.469 0.45548 0.0
N622 N 0.07545 0.51921 0.58452 0.0
N623 N 0.09449 0.47628 0.48738 0.0
H624 H 0.08764 0.87671 0.05055 0.0
H625 H 0.02716 1.0015 0.97994 0.0
H626 H 0.03733 0.90723 0.16227 0.0
H627 H 0.06873 0.96671 0.85775 0.0
H628 H 0.04159 0.97252 0.06037 0.0
H629 H 0.09106 0.91421 0.99346 0.0
C630 C 0.07758 0.89134 0.06362 0.0
C631 C 0.0618 0.8887 0.11046 0.0
C632 C 0.04811 0.97162 0.01623 0.0
C633 C 0.06562 0.93166 0.0454 0.0
C634 C 0.04008 0.9883 0.97053 0.0
C635 C 0.04652 0.98615 0.91232 0.0
C636 C 0.06259 0.95284 0.00311 0.0
C637 C 0.0631 0.96867 0.90213 0.0
C638 C 0.07963 0.91278 0.03123 0.0
C639 C 0.04966 0.90838 0.12639 0.0
N640 N 0.07024 0.95242 0.9469 0.0
N641 N 0.0515 0.92894 0.09325 0.0
H642 H 0.67477 0.97835 0.9845 0.0
H643 H 0.53778 0.00802 0.95679 0.0
H644 H 0.62641 0.95233 0.11765 0.0
H645 H 0.58138 1.00226 0.80498 0.0
H646 H 0.57167 0.99541 0.02104 0.0
H647 H 0.64173 0.99385 0.92155 0.0
C648 C 0.65728 0.97561 0.00041 0.0
C649 C 0.65348 0.96386 0.05665 0.0
C650 C 0.57377 0.99714 0.97363 0.0
C651 C 0.61565 0.98242 0.98541 0.0
C652 C 0.55457 0.00453 0.93707 0.0
C653 C 0.55687 0.00608 0.87568 0.0
C654 C 0.59537 0.99171 0.94837 0.0
C655 C 0.57891 1.00115 0.8522 0.0
C656 C 0.63845 0.98471 0.96459 0.0
C657 C 0.63029 0.96154 0.07517 0.0
N658 N 0.59736 0.99417 0.88863 0.0
N659 N 0.61225 0.97086 0.03976 0.0
H660 H 0.47824 0.66335 0.98743 0.0
H661 H 0.43956 0.54934 0.87578 0.0
H662 H 0.41137 0.63712 0.03493 0.0
H663 H 0.51137 0.5646 0.89961 0.0
H664 H 0.42704 0.58259 0.92518 0.0
H665 H 0.48854 0.62913 0.94167 0.0
C666 C 0.46554 0.65053 0.98732 0.0
C667 C 0.44386 0.65312 0.01466 0.0
C668 C 0.44551 0.57842 0.91997 0.0
C669 C 0.45576 0.61363 0.96338 0.0
C670 C 0.45268 0.55947 0.89201 0.0
C671 C 0.47654 0.55429 0.88321 0.0
C672 C 0.46235 0.59234 0.93824 0.0
C673 C 0.49279 0.56798 0.90508 0.0
C674 C 0.47156 0.63086 0.96191 0.0
C675 C 0.4283 0.6357 0.01436 0.0
N676 N 0.48537 0.5865 0.93094 0.0
N677 N 0.43452 0.61662 0.9889 0.0
H678 H 0.84724 0.51221 0.08071 0.0
H679 H 0.93924 0.48128 0.90011 0.0
H680 H 0.87851 0.5771 0.06976 0.0
H681 H 0.96773 0.54431 0.93398 0.0
H682 H 0.90661 0.48893 0.96398 0.0
H683 H 0.88034 0.49701 0.02837 0.0
C684 C 0.86098 0.52335 0.06641 0.0
C685 C 0.86003 0.54601 0.07914 0.0
C686 C 0.92012 0.50093 0.95884 0.0
C687 C 0.89821 0.5288 0.01868 0.0
C688 C 0.93889 0.49647 0.92225 0.0
C689 C 0.95612 0.51225 0.91139 0.0
C690 C 0.91871 0.52133 0.98493 0.0
C691 C 0.95473 0.53174 0.94072 0.0
C692 C 0.88002 0.51464 0.03648 0.0
C693 C 0.87857 0.55951 0.06106 0.0
N694 N 0.93625 0.5358 0.97562 0.0
N695 N 0.89682 0.55071 0.03169 0.0
H696 H 0.03832 0.17189 0.11818 0.0
H697 H 0.98792 0.13476 0.82316 0.0
H698 H 0.00229 0.21869 0.98254 0.0
H699 H 0.03068 0.08899 0.94686 0.0
H700 H 0.99716 0.16663 0.87559 0.0
H701 H 0.04029 0.14267 0.05147 0.0
C702 C 0.03132 0.17627 0.07389 0.0
C703 C 0.01989 0.19784 0.05633 0.0
C704 C 0.00483 0.14972 0.89105 0.0
C705 C 0.02162 0.16407 0.98001 0.0
C706 C 0.99952 0.13152 0.86112 0.0
C707 C 0.00837 0.10922 0.88113 0.0
C708 C 0.01884 0.14561 0.94219 0.0
C709 C 0.02354 0.10595 0.93006 0.0
C710 C 0.03229 0.15944 0.03593 0.0
C711 C 0.01086 0.20223 0.99856 0.0
N712 N 0.02801 0.12391 0.95957 0.0
N713 N 0.01166 0.18545 0.96288 0.0
H714 H 0.32363 0.03522 0.13745 0.0
H715 H 0.40163 0.04983 0.85004 0.0
H716 H 0.29737 0.0764 0.979 0.0
H717 H 0.43045 0.04713 0.02511 0.0
H718 H 0.36205 0.05195 0.89151 0.0
H719 H 0.36174 0.03093 0.09104 0.0
C720 C 0.32574 0.04293 0.09234 0.0
C721 C 0.30726 0.05604 0.06179 0.0
C722 C 0.37708 0.0509 0.92066 0.0
C723 C 0.35091 0.05133 0.00875 0.0
C724 C 0.39956 0.0496 0.89719 0.0
C725 C 0.41922 0.04839 0.93436 0.0
C726 C 0.37435 0.05033 0.98181 0.0
C727 C 0.41571 0.04826 0.99507 0.0
C728 C 0.34756 0.04069 0.06622 0.0
C729 C 0.31117 0.06611 0.00391 0.0
N730 N 0.39371 0.049 0.01701 0.0
N731 N 0.3326 0.06348 0.97905 0.0
H732 H 0.49272 0.35603 0.10973 0.0
H733 H 0.54442 0.45441 0.89005 0.0
H734 H 0.56091 0.34957 0.0316 0.0
H735 H 0.46998 0.4479 0.90117 0.0
H736 H 0.55071 0.41761 0.95113 0.0
H737 H 0.48343 0.39038 0.03962 0.0
C738 C 0.50558 0.36149 0.07718 0.0
C739 C 0.5278 0.34997 0.07729 0.0
C740 C 0.53298 0.42419 0.94018 0.0
C741 C 0.51745 0.38967 0.99832 0.0
C742 C 0.52935 0.44532 0.90573 0.0
C743 C 0.50662 0.45431 0.89056 0.0
C744 C 0.51377 0.41198 0.96062 0.0
C745 C 0.4878 0.4416 0.91186 0.0
C746 C 0.5003 0.38123 0.03753 0.0
C747 C 0.54378 0.35814 0.03435 0.0
N748 N 0.49178 0.42112 0.94623 0.0
N749 N 0.53843 0.37762 0.99733 0.0
H750 H 0.14974 0.43353 0.05095 0.0
H751 H 0.07099 0.52601 0.84652 0.0
H752 H 0.17747 0.49296 0.95201 0.0
H753 H 0.05149 0.4564 0.88686 0.0
H754 H 0.10926 0.51476 0.89113 0.0
H755 H 0.11343 0.44139 0.99458 0.0
C756 C 0.14851 0.44794 0.01652 0.0
C757 C 0.16684 0.46269 0.00673 0.0
C758 C 0.09665 0.50192 0.89008 0.0
C759 C 0.12475 0.47218 0.94347 0.0
C760 C 0.0747 0.50836 0.86511 0.0
C761 C 0.05794 0.49213 0.86326 0.0
C762 C 0.10188 0.47914 0.91428 0.0
C763 C 0.06387 0.46946 0.88751 0.0
C764 C 0.12759 0.45252 0.98474 0.0
C765 C 0.16375 0.48136 0.96219 0.0
N766 N 0.08532 0.46365 0.91248 0.0
N767 N 0.14302 0.48574 0.93285 0.0
H768 H 0.94536 0.83884 0.48681 0.0
H769 H 0.0402 0.90815 0.62952 0.0
H770 H 0.01892 0.81854 0.50324 0.0
H771 H 0.96722 0.91871 0.67041 0.0
H772 H 0.03115 0.87691 0.57659 0.0
H773 H 0.95131 0.86887 0.5498 0.0
C774 C 0.96265 0.84041 0.50426 0.0
C775 C 0.98166 0.82601 0.4894 0.0
C776 C 0.01702 0.88586 0.59736 0.0
C777 C 0.98855 0.8605 0.5607 0.0
C778 C 0.0222 0.90379 0.62801 0.0
C779 C 0.00454 0.9159 0.65594 0.0
C780 C 0.99388 0.87986 0.59337 0.0
C781 C 0.98141 0.90983 0.64981 0.0
C782 C 0.966 0.85755 0.54021 0.0
C783 C 0.00361 0.82884 0.51378 0.0
N784 N 0.97671 0.89217 0.61916 0.0
N785 N 0.00644 0.84582 0.54744 0.0
H786 H 0.70326 0.94175 0.56683 0.0
H787 H 0.56954 0.97831 0.51642 0.0
H788 H 0.67846 0.98699 0.4135 0.0
H789 H 0.59911 0.97287 0.69135 0.0
H790 H 0.60911 0.97559 0.47609 0.0
H791 H 0.66494 0.94767 0.61322 0.0
C792 C 0.68989 0.95317 0.54344 0.0
C793 C 0.69407 0.96412 0.48661 0.0
C794 C 0.60692 0.97505 0.5233 0.0
C795 C 0.65028 0.97026 0.53815 0.0
C796 C 0.58442 0.97644 0.54623 0.0
C797 C 0.58118 0.97582 0.60714 0.0
C798 C 0.62631 0.97243 0.56169 0.0
C799 C 0.60099 0.97355 0.64407 0.0
C800 C 0.66811 0.95651 0.56977 0.0
C801 C 0.67608 0.97853 0.45775 0.0
N802 N 0.62278 0.97166 0.62085 0.0
N803 N 0.65489 0.98092 0.48344 0.0
H804 H 0.50834 0.66896 0.44606 0.0
H805 H 0.45562 0.56665 0.65162 0.0
H806 H 0.43794 0.67195 0.51253 0.0
H807 H 0.5298 0.57522 0.64792 0.0
H808 H 0.44908 0.6037 0.5918 0.0
H809 H 0.51715 0.63401 0.51414 0.0
C810 C 0.49484 0.66261 0.47565 0.0
C811 C 0.47223 0.67342 0.47284 0.0
C812 C 0.4668 0.59751 0.60407 0.0
C813 C 0.48209 0.63295 0.5495 0.0
C814 C 0.47059 0.57623 0.63782 0.0
C815 C 0.49332 0.56775 0.65476 0.0
C816 C 0.48586 0.61039 0.58617 0.0
C817 C 0.51199 0.5811 0.63583 0.0
C818 C 0.49986 0.64251 0.51414 0.0
C819 C 0.45544 0.66402 0.5119 0.0
N820 N 0.50786 0.60173 0.60222 0.0
N821 N 0.46062 0.64422 0.5479 0.0
H822 H 0.8393 0.59997 0.54914 0.0
H823 H 0.93021 0.49638 0.67152 0.0
H824 H 0.8304 0.52931 0.52955 0.0
H825 H 0.94158 0.56721 0.68349 0.0
H826 H 0.89222 0.50805 0.62566 0.0
H827 H 0.87493 0.58812 0.6068 0.0
C828 C 0.84464 0.58194 0.55764 0.0
C829 C 0.83185 0.56564 0.53408 0.0
C830 C 0.903 0.52106 0.6383 0.0
C831 C 0.87273 0.55197 0.59969 0.0
C832 C 0.92477 0.51442 0.66429 0.0
C833 C 0.9392 0.53085 0.68114 0.0
C834 C 0.89549 0.54433 0.62902 0.0
C835 C 0.93112 0.55396 0.67092 0.0
C836 C 0.86502 0.57519 0.59045 0.0
C837 C 0.83948 0.54249 0.54719 0.0
N838 N 0.90981 0.56001 0.64549 0.0
N839 N 0.85952 0.53639 0.57855 0.0
loop_
_geom_bond_atom_site_label_1
_geom_bond_atom_site_label_2
_geom_bond_distance
_geom_bond_site_symmetry_2
_ccdc_geom_bond_type
C0 C1 1.384 . S
C0 H13 0.947 . S
C0 C35 1.382 . S
C1 C0 1.384 . S
C1 C2 1.378 . S
C2 C1 1.378 . S
C2 C3 1.378 . S
C2 H14 0.952 . S
C3 C2 1.378 . S
C3 H15 0.950 . S
C3 C34 1.383 . S
H4 C23 0.947 . S
H5 C24 0.946 . S
H6 C26 0.953 1_556 S
H7 C27 0.945 . S
H8 C29 0.952 . S
H9 C30 0.949 . S
H10 C32 0.950 . S
H11 C33 0.948 . S
H12 C35 0.951 . S
H13 C0 0.947 . S
H14 C2 0.952 . S
H15 C3 0.950 . S
N16 C19 1.382 . S
N16 C21 1.363 . S
N17 C19 1.371 . S
N17 C20 1.372 . S
N18 C20 1.361 . S
N18 C21 1.377 . S
C19 N16 1.382 . S
C19 N17 1.371 . S
C19 C22 1.480 . S
C20 N17 1.372 . S
C20 N18 1.361 . S
C20 C28 1.457 . S
C21 N16 1.363 . S
C21 N18 1.377 . S
C21 C34 1.479 . S
C22 C19 1.480 . S
C22 C23 1.383 . S
C22 C27 1.385 . S
C23 H4 0.947 . S
C23 C22 1.383 . S
C23 C24 1.388 . S
C24 H5 0.946 . S
C24 C23 1.388 . S
C24 C25 1.384 . S
C25 C24 1.384 . S
C25 C26 1.377 . S
C26 H6 0.953 1_554 S
C26 C25 1.377 . S
C26 C27 1.369 . S
C27 H7 0.945 . S
C27 C22 1.385 . S
C27 C26 1.369 . S
C28 C20 1.457 . S
C28 C29 1.372 1_554 S
C28 C33 1.364 . S
C29 H8 0.952 . S
C29 C28 1.372 1_556 S
C29 C30 1.389 . S
C30 H9 0.949 . S
C30 C29 1.389 . S
C30 C31 1.387 . S
C31 C30 1.387 . S
C31 C32 1.372 1_556 S
C32 H10 0.950 . S
C32 C31 1.372 1_554 S
C32 C33 1.379 . S
C33 H11 0.948 . S
C33 C28 1.364 . S
C33 C32 1.379 . S
C34 C3 1.383 . S
C34 C21 1.479 . S
C34 C35 1.398 . S
C35 C0 1.382 . S
C35 H12 0.951 . S
C35 C34 1.398 . S
C36 C37 1.384 1_655 S
C36 H49 0.947 . S
C36 C71 1.382 1_655 S
C37 C36 1.384 1_455 S
C37 C38 1.378 . S
C38 C37 1.378 . S
C38 C39 1.378 . S
C38 H50 0.952 . S
C39 C38 1.378 . S
C39 H51 0.950 . S
C39 C70 1.383 . S
H40 C59 0.947 . S
H41 C60 0.953 . S
H42 C62 0.953 1_556 S
H43 C63 0.945 . S
H44 C65 0.948 1_655 S
H45 C66 0.957 . S
H46 C68 0.950 . S
H47 C69 0.948 . S
H48 C71 0.951 1_655 S
H49 C36 0.947 . S
H50 C38 0.952 . S
H51 C39 0.950 . S
N52 C55 1.382 . S
N52 C57 1.363 . S
N53 C55 1.371 . S
N53 C56 1.372 . S
N54 C56 1.361 . S
N54 C57 1.377 . S
C55 N52 1.382 . S
C55 N53 1.371 . S
C55 C58 1.480 . S
C56 N53 1.372 . S
C56 N54 1.361 . S
C56 C64 1.457 . S
C57 N52 1.363 . S
C57 N54 1.377 . S
C57 C70 1.479 . S
C58 C55 1.480 . S
C58 C59 1.383 . S
C58 C63 1.385 . S
C59 H40 0.947 . S
C59 C58 1.383 . S
C59 C60 1.384 1_455 S
C60 H41 0.953 . S
C60 C59 1.384 1_655 S
C60 C61 1.382 1_655 S
C61 C60 1.382 1_455 S
C61 C62 1.377 . S
C62 H42 0.953 1_554 S
C62 C61 1.377 . S
C62 C63 1.369 . S
C63 H43 0.945 . S
C63 C58 1.385 . S
C63 C62 1.369 . S
C64 C56 1.457 . S
C64 C65 1.377 1_554 S
C64 C69 1.364 . S
C65 H44 0.948 1_455 S
C65 C64 1.377 1_556 S
C65 C66 1.390 1_455 S
C66 H45 0.957 . S
C66 C65 1.390 1_655 S
C66 C67 1.380 1_655 S
C67 C66 1.380 1_455 S
C67 C68 1.372 1_556 S
C68 H46 0.950 . S
C68 C67 1.372 1_554 S
C68 C69 1.379 . S
C69 H47 0.948 . S
C69 C64 1.364 . S
C69 C68 1.379 . S
C70 C39 1.383 . S
C70 C57 1.479 . S
C70 C71 1.398 . S
C71 C36 1.382 1_455 S
C71 H48 0.951 1_455 S
C71 C70 1.398 . S
C72 C73 1.384 . S
C72 H85 0.947 . S
C72 C107 1.382 . S
C73 C72 1.384 . S
C73 C74 1.378 . S
C74 C73 1.378 . S
C74 C75 1.378 . S
C74 H86 0.952 . S
C75 C74 1.378 . S
C75 H87 0.950 . S
C75 C106 1.383 . S
H76 C95 0.947 . S
H77 C96 0.946 . S
H78 C98 0.953 1_556 S
H79 C99 0.945 1_556 S
H80 C101 0.952 . S
H81 C102 0.949 . S
H82 C104 0.950 . S
H83 C105 0.948 . S
H84 C107 0.951 . S
H85 C72 0.947 . S
H86 C74 0.952 . S
H87 C75 0.950 . S
N88 C91 1.382 . S
N88 C93 1.363 . S
N89 C91 1.371 . S
N89 C92 1.372 . S
N90 C92 1.361 . S
N90 C93 1.377 . S
C91 N88 1.382 . S
C91 N89 1.371 . S
C91 C94 1.480 . S
C92 N89 1.372 . S
C92 N90 1.361 . S
C92 C100 1.457 . S
C93 N88 1.363 . S
C93 N90 1.377 . S
C93 C106 1.479 . S
C94 C91 1.480 . S
C94 C95 1.383 . S
C94 C99 1.385 . S
C95 H76 0.947 . S
C95 C94 1.383 . S
C95 C96 1.388 . S
C96 H77 0.946 . S
C96 C95 1.388 . S
C96 C97 1.384 . S
C97 C96 1.384 . S
C97 C98 1.377 . S
C98 H78 0.953 1_554 S
C98 C97 1.377 . S
C98 C99 1.369 . S
C99 H79 0.945 1_554 S
C99 C94 1.385 . S
C99 C98 1.369 . S
C100 C92 1.457 . S
C100 C101 1.372 1_554 S
C100 C105 1.364 . S
C101 H80 0.952 . S
C101 C100 1.372 1_556 S
C101 C102 1.389 . S
C102 H81 0.949 . S
C102 C101 1.389 . S
C102 C103 1.387 . S
C103 C102 1.387 . S
C103 C104 1.372 . S
C104 H82 0.950 . S
C104 C103 1.372 . S
C104 C105 1.379 1_556 S
C105 H83 0.948 . S
C105 C100 1.364 . S
C105 C104 1.379 1_554 S
C106 C75 1.383 . S
C106 C93 1.479 . S
C106 C107 1.398 . S
C107 C72 1.382 . S
C107 H84 0.951 . S
C107 C106 1.398 . S
C108 C109 1.384 1_554 S
C108 H121 0.947 . S
C108 C143 1.382 . S
C109 C108 1.384 1_556 S
C109 C110 1.378 . S
C110 C109 1.378 . S
C110 C111 1.378 . S
C110 H122 0.952 . S
C111 C110 1.378 . S
C111 H123 0.950 . S
C111 C142 1.383 1_556 S
H112 C131 0.947 . S
H113 C132 0.946 1_556 S
H114 C134 0.953 . S
H115 C135 0.945 . S
H116 C137 0.952 . S
H117 C138 0.949 . S
H118 C140 0.950 . S
H119 C141 0.948 . S
H120 C143 0.951 . S
H121 C108 0.947 . S
H122 C110 0.952 . S
H123 C111 0.950 . S
N124 C127 1.382 . S
N124 C129 1.363 . S
N125 C127 1.371 . S
N125 C128 1.372 . S
N126 C128 1.361 . S
N126 C129 1.377 . S
C127 N124 1.382 . S
C127 N125 1.371 . S
C127 C130 1.480 . S
C128 N125 1.372 . S
C128 N126 1.361 . S
C128 C136 1.457 . S
C129 N124 1.363 . S
C129 N126 1.377 . S
C129 C142 1.479 . S
C130 C127 1.480 . S
C130 C131 1.383 . S
C130 C135 1.385 . S
C131 H112 0.947 . S
C131 C130 1.383 . S
C131 C132 1.388 . S
C132 H113 0.946 1_554 S
C132 C131 1.388 . S
C132 C133 1.384 . S
C133 C132 1.384 . S
C133 C134 1.377 . S
C134 H114 0.953 . S
C134 C133 1.377 . S
C134 C135 1.369 . S
C135 H115 0.945 . S
C135 C130 1.385 . S
C135 C134 1.369 . S
C136 C128 1.457 . S
C136 C137 1.372 . S
C136 C141 1.364 . S
C137 H116 0.952 . S
C137 C136 1.372 . S
C137 C138 1.389 . S
C138 H117 0.949 . S
C138 C137 1.389 . S
C138 C139 1.387 . S
C139 C138 1.387 . S
C139 C140 1.372 . S
C140 H118 0.950 . S
C140 C139 1.372 . S
C140 C141 1.379 . S
C141 H119 0.948 . S
C141 C136 1.364 . S
C141 C140 1.379 . S
C142 C111 1.383 1_554 S
C142 C129 1.479 . S
C142 C143 1.398 . S
C143 C108 1.382 . S
C143 H120 0.951 . S
C143 C142 1.398 . S
C144 C145 1.384 . S
C144 H157 0.947 . S
C144 C179 1.382 . S
C145 C144 1.384 . S
C145 C146 1.378 . S
C146 C145 1.378 . S
C146 C147 1.378 . S
C146 H158 0.952 . S
C147 C146 1.378 . S
C147 H159 0.950 . S
C147 C178 1.383 . S
H148 C167 0.947 . S
H149 C168 0.946 . S
H150 C170 0.953 . S
H151 C171 0.945 . S
H152 C173 0.952 . S
H153 C174 0.949 . S
H154 C176 0.950 . S
H155 C177 0.948 . S
H156 C179 0.951 . S
H157 C144 0.947 . S
H158 C146 0.952 . S
H159 C147 0.950 . S
N160 C163 1.382 . S
N160 C165 1.363 . S
N161 C163 1.371 . S
N161 C164 1.372 . S
N162 C164 1.361 . S
N162 C165 1.377 . S
C163 N160 1.382 . S
C163 N161 1.371 . S
C163 C166 1.480 . S
C164 N161 1.372 . S
C164 N162 1.361 . S
C164 C172 1.457 . S
C165 N160 1.363 . S
C165 N162 1.377 . S
C165 C178 1.479 . S
C166 C163 1.480 . S
C166 C167 1.383 . S
C166 C171 1.385 . S
C167 H148 0.947 . S
C167 C166 1.383 . S
C167 C168 1.388 . S
C168 H149 0.946 . S
C168 C167 1.388 . S
C168 C169 1.384 . S
C169 C168 1.384 . S
C169 C170 1.377 . S
C170 H150 0.953 . S
C170 C169 1.377 . S
C170 C171 1.369 . S
C171 H151 0.945 . S
C171 C166 1.385 . S
C171 C170 1.369 . S
C172 C164 1.457 . S
C172 C173 1.372 . S
C172 C177 1.364 . S
C173 H152 0.952 . S
C173 C172 1.372 . S
C173 C174 1.389 . S
C174 H153 0.949 . S
C174 C173 1.389 . S
C174 C175 1.387 . S
C175 C174 1.387 . S
C175 C176 1.372 . S
C176 H154 0.950 . S
C176 C175 1.372 . S
C176 C177 1.379 . S
C177 H155 0.948 . S
C177 C172 1.364 . S
C177 C176 1.379 . S
C178 C147 1.383 . S
C178 C165 1.479 . S
C178 C179 1.398 . S
C179 C144 1.382 . S
C179 H156 0.951 . S
C179 C178 1.398 . S
C180 C181 1.383 . S
C180 H193 0.948 1_455 S
C180 C215 1.382 . S
C181 C180 1.383 . S
C181 C182 1.378 . S
C182 C181 1.378 . S
C182 C183 1.378 . S
C182 H194 0.952 . S
C183 C182 1.378 . S
C183 H195 0.950 . S
C183 C214 1.383 . S
H184 C203 0.947 . S
H185 C204 0.948 . S
H186 C206 0.953 . S
H187 C207 0.945 . S
H188 C209 0.949 1_655 S
H189 C210 0.954 . S
H190 C212 0.950 . S
H191 C213 0.948 . S
H192 C215 0.950 1_655 S
H193 C180 0.948 1_655 S
H194 C182 0.952 . S
H195 C183 0.950 . S
N196 C199 1.382 . S
N196 C201 1.363 . S
N197 C199 1.371 . S
N197 C200 1.372 . S
N198 C200 1.361 . S
N198 C201 1.377 . S
C199 N196 1.382 . S
C199 N197 1.371 . S
C199 C202 1.480 . S
C200 N197 1.372 . S
C200 N198 1.361 . S
C200 C208 1.457 . S
C201 N196 1.363 . S
C201 N198 1.377 . S
C201 C214 1.479 . S
C202 C199 1.480 . S
C202 C203 1.383 . S
C202 C207 1.385 . S
C203 H184 0.947 . S
C203 C202 1.383 . S
C203 C204 1.388 1_455 S
C204 H185 0.948 . S
C204 C203 1.388 1_655 S
C204 C205 1.382 1_655 S
C205 C204 1.382 1_455 S
C205 C206 1.377 . S
C206 H186 0.953 . S
C206 C205 1.377 . S
C206 C207 1.369 . S
C207 H187 0.945 . S
C207 C202 1.385 . S
C207 C206 1.369 . S
C208 C200 1.457 . S
C208 C209 1.379 . S
C208 C213 1.364 . S
C209 H188 0.949 1_455 S
C209 C208 1.379 . S
C209 C210 1.383 1_455 S
C210 H189 0.954 . S
C210 C209 1.383 1_655 S
C210 C211 1.385 1_655 S
C211 C210 1.385 1_455 S
C211 C212 1.372 . S
C212 H190 0.950 . S
C212 C211 1.372 . S
C212 C213 1.379 . S
C213 H191 0.948 . S
C213 C208 1.364 . S
C213 C212 1.379 . S
C214 C183 1.383 . S
C214 C201 1.479 . S
C214 C215 1.400 . S
C215 C180 1.382 . S
C215 H192 0.950 1_455 S
C215 C214 1.400 . S
C216 C217 1.384 . S
C216 H229 0.947 . S
C216 C251 1.382 . S
C217 C216 1.384 . S
C217 C218 1.378 . S
C218 C217 1.378 . S
C218 C219 1.378 . S
C218 H230 0.952 . S
C219 C218 1.378 . S
C219 H231 0.950 . S
C219 C250 1.383 . S
H220 C239 0.947 . S
H221 C240 0.946 . S
H222 C242 0.953 . S
H223 C243 0.945 . S
H224 C245 0.952 . S
H225 C246 0.949 . S
H226 C248 0.950 . S
H227 C249 0.948 . S
H228 C251 0.951 . S
H229 C216 0.947 . S
H230 C218 0.952 . S
H231 C219 0.950 . S
N232 C235 1.382 . S
N232 C237 1.363 . S
N233 C235 1.371 . S
N233 C236 1.372 . S
N234 C236 1.361 . S
N234 C237 1.377 . S
C235 N232 1.382 . S
C235 N233 1.371 . S
C235 C238 1.480 . S
C236 N233 1.372 . S
C236 N234 1.361 . S
C236 C244 1.457 . S
C237 N232 1.363 . S
C237 N234 1.377 . S
C237 C250 1.479 . S
C238 C235 1.480 . S
C238 C239 1.383 . S
C238 C243 1.385 . S
C239 H220 0.947 . S
C239 C238 1.383 . S
C239 C240 1.388 . S
C240 H221 0.946 . S
C240 C239 1.388 . S
C240 C241 1.384 . S
C241 C240 1.384 . S
C241 C242 1.377 . S
C242 H222 0.953 . S
C242 C241 1.377 . S
C242 C243 1.369 . S
C243 H223 0.945 . S
C243 C238 1.385 . S
C243 C242 1.369 . S
C244 C236 1.457 . S
C244 C245 1.372 . S
C244 C249 1.364 . S
C245 H224 0.952 . S
C245 C244 1.372 . S
C245 C246 1.389 . S
C246 H225 0.949 . S
C246 C245 1.389 . S
C246 C247 1.387 . S
C247 C246 1.387 . S
C247 C248 1.372 . S
C248 H226 0.950 . S
C248 C247 1.372 . S
C248 C249 1.379 . S
C249 H227 0.948 . S
C249 C244 1.364 . S
C249 C248 1.379 . S
C250 C219 1.383 . S
C250 C237 1.479 . S
C250 C251 1.398 . S
C251 C216 1.382 . S
C251 H228 0.951 . S
C251 C250 1.398 . S
C252 C253 1.384 . S
C252 H265 0.947 . S
C252 C287 1.382 . S
C253 C252 1.384 . S
C253 C254 1.378 . S
C254 C253 1.378 . S
C254 C255 1.378 . S
C254 H266 0.952 . S
C255 C254 1.378 . S
C255 H267 0.950 . S
C255 C286 1.383 . S
H256 C275 0.947 . S
H257 C276 0.946 . S
H258 C278 0.953 . S
H259 C279 0.945 . S
H260 C281 0.952 . S
H261 C282 0.949 . S
H262 C284 0.950 . S
H263 C285 0.948 . S
H264 C287 0.951 . S
H265 C252 0.947 . S
H266 C254 0.952 . S
H267 C255 0.950 . S
N268 C271 1.382 . S
N268 C273 1.363 . S
N269 C271 1.371 . S
N269 C272 1.372 . S
N270 C272 1.361 . S
N270 C273 1.377 . S
C271 N268 1.382 . S
C271 N269 1.371 . S
C271 C274 1.480 . S
C272 N269 1.372 . S
C272 N270 1.361 . S
C272 C280 1.457 . S
C273 N268 1.363 . S
C273 N270 1.377 . S
C273 C286 1.479 . S
C274 C271 1.480 . S
C274 C275 1.383 . S
C274 C279 1.385 . S
C275 H256 0.947 . S
C275 C274 1.383 . S
C275 C276 1.388 . S
C276 H257 0.946 . S
C276 C275 1.388 . S
C276 C277 1.384 . S
C277 C276 1.384 . S
C277 C278 1.377 . S
C278 H258 0.953 . S
C278 C277 1.377 . S
C278 C279 1.369 . S
C279 H259 0.945 . S
C279 C274 1.385 . S
C279 C278 1.369 . S
C280 C272 1.457 . S
C280 C281 1.372 . S
C280 C285 1.364 . S
C281 H260 0.952 . S
C281 C280 1.372 . S
C281 C282 1.389 . S
C282 H261 0.949 . S
C282 C281 1.389 . S
C282 C283 1.387 . S
C283 C282 1.387 . S
C283 C284 1.372 . S
C284 H262 0.950 . S
C284 C283 1.372 . S
C284 C285 1.379 . S
C285 H263 0.948 . S
C285 C280 1.364 . S
C285 C284 1.379 . S
C286 C255 1.383 . S
C286 C273 1.479 . S
C286 C287 1.398 . S
C287 C252 1.382 . S
C287 H264 0.951 . S
C287 C286 1.398 . S
Co288 N293 2.057 . S
Co288 O305 2.021 . S
Co288 O308 2.062 1_455 S
Co288 O312 2.117 1_455 S
Co288 O313 2.020 1_545 S
C289 O309 1.259 1_545 S
C289 O312 1.258 . S
Co290 N299 2.057 . S
Co290 O306 2.117 1_665 S
Co290 O307 2.020 1_565 S
Co290 O309 2.021 . S
Co290 O314 2.062 1_655 S
C291 N293 1.316 . S
C291 N294 1.347 . S
C291 H296 0.931 . S
C292 N293 1.375 1_655 S
C292 C295 1.350 . S
C292 H297 0.930 . S
N293 Co288 2.057 . S
N293 C291 1.316 . S
N293 C292 1.375 1_455 S
N294 C291 1.347 . S
N294 C295 1.373 1_455 S
C295 C292 1.350 . S
C295 N294 1.373 1_655 S
C295 H316 0.931 . S
H296 C291 0.931 . S
H297 C292 0.930 . S
C298 O305 1.259 . S
C298 O306 1.258 . S
N299 Co290 2.057 . S
N299 C300 1.316 . S
N299 C301 1.375 1_655 S
C300 N299 1.316 . S
C300 N302 1.347 . S
C300 H311 0.931 . S
C301 N299 1.375 1_455 S
C301 C303 1.350 . S
C301 H310 0.930 . S
N302 C300 1.347 . S
N302 C303 1.373 1_655 S
C303 C301 1.350 . S
C303 N302 1.373 1_455 S
C303 H317 0.931 . S
C304 O307 1.256 . S
C304 O308 1.255 . S
O305 Co288 2.021 . S
O305 C298 1.259 . S
O306 Co290 2.117 1_445 S
O306 C298 1.258 . S
O307 Co290 2.020 1_545 S
O307 C304 1.256 . S
O308 Co288 2.062 1_655 S
O308 C304 1.255 . S
O309 C289 1.259 1_565 S
O309 Co290 2.021 . S
H310 C301 0.930 . S
H311 C300 0.931 . S
O312 Co288 2.117 1_655 S
O312 C289 1.258 . S
O313 Co288 2.020 1_565 S
O313 C315 1.256 . S
O314 Co290 2.062 1_455 S
O314 C315 1.255 . S
C315 O313 1.256 . S
C315 O314 1.255 . S
H316 C295 0.931 . S
H317 C303 0.931 . S
Co318 N323 2.057 . S
Co318 O335 2.021 . S
Co318 O338 2.062 . S
Co318 O342 2.117 1_545 S
Co318 O343 2.020 . S
C319 O339 1.259 . S
C319 O342 1.258 . S
Co320 N329 2.054 1_545 S
Co320 O336 2.139 . S
Co320 O337 2.022 . S
Co320 O339 2.000 1_545 S
Co320 O344 2.062 1_545 S
C321 N323 1.316 . S
C321 N324 1.347 . S
C321 H326 0.931 . S
C322 N323 1.375 . S
C322 C325 1.350 . S
C322 H327 0.930 1_545 S
N323 Co318 2.057 . S
N323 C321 1.316 . S
N323 C322 1.375 . S
N324 C321 1.347 . S
N324 C325 1.373 . S
C325 C322 1.350 . S
C325 N324 1.373 . S
C325 H346 0.931 1_556 S
H326 C321 0.931 . S
H327 C322 0.930 1_565 S
C328 O335 1.259 . S
C328 O336 1.258 . S
N329 Co320 2.054 1_565 S
N329 C330 1.316 . S
N329 C331 1.375 1_565 S
C330 N329 1.316 . S
C330 N332 1.347 . S
C330 H341 0.931 . S
C331 N329 1.375 1_545 S
C331 C333 1.350 . S
C331 H340 0.930 . S
N332 C330 1.347 . S
N332 C333 1.373 1_565 S
C333 C331 1.350 . S
C333 N332 1.373 1_545 S
C333 H347 0.931 . S
C334 O337 1.256 . S
C334 O338 1.255 . S
O335 Co318 2.021 . S
O335 C328 1.259 . S
O336 Co320 2.139 . S
O336 C328 1.258 . S
O337 Co320 2.022 . S
O337 C334 1.256 . S
O338 Co318 2.062 . S
O338 C334 1.255 . S
O339 C319 1.259 . S
O339 Co320 2.000 1_565 S
H340 C331 0.930 . S
H341 C330 0.931 . S
O342 Co318 2.117 1_565 S
O342 C319 1.258 . S
O343 Co318 2.020 . S
O343 C345 1.256 . S
O344 Co320 2.062 1_565 S
O344 C345 1.255 1_565 S
C345 O343 1.256 . S
C345 O344 1.255 1_545 S
H346 C325 0.931 1_554 S
H347 C333 0.931 . S
Co348 N353 2.057 . S
Co348 O365 2.021 . S
Co348 O368 2.062 . S
Co348 O372 2.117 . S
Co348 O373 2.020 . S
C349 O369 1.259 . S
C349 O372 1.258 . S
Co350 N359 2.057 . S
Co350 O366 2.117 . S
Co350 O367 2.020 . S
Co350 O369 2.021 . S
Co350 O374 2.062 . S
C351 N353 1.316 . S
C351 N354 1.347 . S
C351 H356 0.931 . S
C352 N353 1.375 . S
C352 C355 1.350 . S
C352 H357 0.930 . S
N353 Co348 2.057 . S
N353 C351 1.316 . S
N353 C352 1.375 . S
N354 C351 1.347 . S
N354 C355 1.373 . S
C355 C352 1.350 . S
C355 N354 1.373 . S
C355 H376 0.931 . S
H356 C351 0.931 . S
H357 C352 0.930 . S
C358 O365 1.259 . S
C358 O366 1.258 . S
N359 Co350 2.057 . S
N359 C360 1.316 . S
N359 C361 1.375 . S
C360 N359 1.316 . S
C360 N362 1.347 . S
C360 H371 0.931 . S
C361 N359 1.375 . S
C361 C363 1.350 . S
C361 H370 0.930 . S
N362 C360 1.347 . S
N362 C363 1.373 . S
C363 C361 1.350 . S
C363 N362 1.373 . S
C363 H377 0.931 . S
C364 O367 1.256 . S
C364 O368 1.255 . S
O365 Co348 2.021 . S
O365 C358 1.259 . S
O366 Co350 2.117 . S
O366 C358 1.258 . S
O367 Co350 2.020 . S
O367 C364 1.256 . S
O368 Co348 2.062 . S
O368 C364 1.255 . S
O369 C349 1.259 . S
O369 Co350 2.021 . S
H370 C361 0.930 . S
H371 C360 0.931 . S
O372 Co348 2.117 . S
O372 C349 1.258 . S
O373 Co348 2.020 . S
O373 C375 1.256 . S
O374 Co350 2.062 . S
O374 C375 1.255 . S
C375 O373 1.256 . S
C375 O374 1.255 . S
H376 C355 0.931 . S
H377 C363 0.931 . S
Co378 N383 2.057 . S
Co378 O395 2.021 1_455 S
Co378 O398 2.062 1_455 S
Co378 O402 2.117 . S
Co378 O403 2.020 . S
C379 O399 1.259 . S
C379 O402 1.258 . S
Co380 N389 2.057 . S
Co380 O396 2.117 . S
Co380 O397 2.020 . S
Co380 O399 2.021 1_655 S
Co380 O404 2.062 1_655 S
C381 N383 1.316 . S
C381 N384 1.347 . S
C381 H386 0.931 1_455 S
C382 N383 1.375 . S
C382 C385 1.350 . S
C382 H387 0.930 . S
N383 Co378 2.057 . S
N383 C381 1.316 . S
N383 C382 1.375 . S
N384 C381 1.347 . S
N384 C385 1.373 . S
C385 C382 1.350 . S
C385 N384 1.373 . S
C385 H406 0.931 . S
H386 C381 0.931 1_655 S
H387 C382 0.930 . S
C388 O395 1.259 . S
C388 O396 1.258 . S
N389 Co380 2.057 . S
N389 C390 1.316 . S
N389 C391 1.375 . S
C390 N389 1.316 . S
C390 N392 1.347 . S
C390 H401 0.931 1_655 S
C391 N389 1.375 . S
C391 C393 1.350 . S
C391 H400 0.930 . S
N392 C390 1.347 . S
N392 C393 1.373 . S
C393 C391 1.350 . S
C393 N392 1.373 . S
C393 H407 0.931 . S
C394 O397 1.256 . S
C394 O398 1.255 . S
O395 Co378 2.021 1_655 S
O395 C388 1.259 . S
O396 Co380 2.117 . S
O396 C388 1.258 . S
O397 Co380 2.020 . S
O397 C394 1.256 . S
O398 Co378 2.062 1_655 S
O398 C394 1.255 . S
O399 C379 1.259 . S
O399 Co380 2.021 1_455 S
H400 C391 0.930 . S
H401 C390 0.931 1_455 S
O402 Co378 2.117 . S
O402 C379 1.258 . S
O403 Co378 2.020 . S
O403 C405 1.256 . S
O404 Co380 2.062 1_455 S
O404 C405 1.255 . S
C405 O403 1.256 . S
C405 O404 1.255 . S
H406 C385 0.931 . S
H407 C393 0.931 . S
H408 C414 0.930 . S
H409 C418 0.930 . S
H410 C423 0.929 . S
H411 C421 0.929 1_565 S
H412 C416 0.929 . S
H413 C422 0.929 . S
C414 H408 0.930 . S
C414 C415 1.367 . S
C414 C422 1.378 . S
C415 C414 1.367 . S
C415 C423 1.433 . S
C416 H412 0.929 . S
C416 C418 1.378 . S
C416 C420 1.350 . S
C417 C420 1.463 . S
C417 C422 1.350 . S
C417 N425 1.427 . S
C418 H409 0.930 . S
C418 C416 1.378 . S
C418 C419 1.367 . S
C419 C418 1.367 . S
C419 C421 1.433 . S
C420 C416 1.350 . S
C420 C417 1.463 . S
C420 N424 1.427 . S
C421 H411 0.929 1_545 S
C421 C419 1.433 . S
C421 N424 1.384 . S
C422 H413 0.929 . S
C422 C414 1.378 . S
C422 C417 1.350 . S
C423 H410 0.929 . S
C423 C415 1.433 . S
C423 N425 1.384 . S
N424 C420 1.427 . S
N424 C421 1.384 . S
N425 C417 1.427 . S
N425 C423 1.384 . S
H426 C432 0.930 . S
H427 C436 0.930 . S
H428 C441 0.929 . S
H429 C439 0.929 . S
H430 C434 0.929 . S
H431 C440 0.929 . S
C432 H426 0.930 . S
C432 C433 1.367 . S
C432 C440 1.378 . S
C433 C432 1.367 . S
C433 C441 1.433 . S
C434 H430 0.929 . S
C434 C436 1.378 . S
C434 C438 1.350 . S
C435 C438 1.463 . S
C435 C440 1.350 . S
C435 N443 1.427 . S
C436 H427 0.930 . S
C436 C434 1.378 . S
C436 C437 1.367 . S
C437 C436 1.367 . S
C437 C439 1.433 . S
C438 C434 1.350 . S
C438 C435 1.463 . S
C438 N442 1.427 . S
C439 H429 0.929 . S
C439 C437 1.433 . S
C439 N442 1.384 . S
C440 H431 0.929 . S
C440 C432 1.378 . S
C440 C435 1.350 . S
C441 H428 0.929 . S
C441 C433 1.433 . S
C441 N443 1.384 . S
N442 C438 1.427 . S
N442 C439 1.384 . S
N443 C435 1.427 . S
N443 C441 1.384 . S
H444 C450 0.930 . S
H445 C454 0.930 . S
H446 C459 0.929 . S
H447 C457 0.929 . S
H448 C452 0.929 . S
H449 C458 0.929 . S
C450 H444 0.930 . S
C450 C451 1.367 . S
C450 C458 1.378 . S
C451 C450 1.367 . S
C451 C459 1.433 . S
C452 H448 0.929 . S
C452 C454 1.378 . S
C452 C456 1.350 . S
C453 C456 1.463 . S
C453 C458 1.350 . S
C453 N461 1.427 . S
C454 H445 0.930 . S
C454 C452 1.378 . S
C454 C455 1.367 . S
C455 C454 1.367 . S
C455 C457 1.433 . S
C456 C452 1.350 . S
C456 C453 1.463 . S
C456 N460 1.427 . S
C457 H447 0.929 . S
C457 C455 1.433 . S
C457 N460 1.384 . S
C458 H449 0.929 . S
C458 C450 1.378 . S
C458 C453 1.350 . S
C459 H446 0.929 . S
C459 C451 1.433 . S
C459 N461 1.384 . S
N460 C456 1.427 . S
N460 C457 1.384 . S
N461 C453 1.427 . S
N461 C459 1.384 . S
H462 C468 0.930 . S
H463 C472 0.930 . S
H464 C477 0.929 . S
H465 C475 0.929 . S
H466 C470 0.929 . S
H467 C476 0.929 . S
C468 H462 0.930 . S
C468 C469 1.348 1_455 S
C468 C476 1.378 . S
C469 C468 1.348 1_655 S
C469 C477 1.455 . S
C470 H466 0.929 . S
C470 C472 1.378 . S
C470 C474 1.350 . S
C471 C474 1.463 . S
C471 C476 1.350 1_655 S
C471 N479 1.427 . S
C472 H463 0.930 . S
C472 C470 1.378 . S
C472 C473 1.367 . S
C473 C472 1.367 . S
C473 C475 1.433 1_655 S
C474 C470 1.350 . S
C474 C471 1.463 . S
C474 N478 1.427 1_655 S
C475 H465 0.929 . S
C475 C473 1.433 1_455 S
C475 N478 1.384 . S
C476 H467 0.929 . S
C476 C468 1.378 . S
C476 C471 1.350 1_455 S
C477 H464 0.929 . S
C477 C469 1.455 . S
C477 N479 1.384 . S
N478 C474 1.427 1_455 S
N478 C475 1.384 . S
N479 C471 1.427 . S
N479 C477 1.384 . S
H480 C486 0.930 . S
H481 C490 0.930 . S
H482 C495 0.929 . S
H483 C493 0.929 . S
H484 C488 0.929 . S
H485 C494 0.929 . S
C486 H480 0.930 . S
C486 C487 1.367 1_556 S
C486 C494 1.378 . S
C487 C486 1.367 1_554 S
C487 C495 1.433 . S
C488 H484 0.929 . S
C488 C490 1.378 . S
C488 C492 1.350 . S
C489 C492 1.463 . S
C489 C494 1.350 . S
C489 N497 1.427 . S
C490 H481 0.930 . S
C490 C488 1.378 . S
C490 C491 1.367 . S
C491 C490 1.367 . S
C491 C493 1.433 1_565 S
C492 C488 1.350 . S
C492 C489 1.463 . S
C492 N496 1.427 . S
C493 H483 0.929 . S
C493 C491 1.433 1_545 S
C493 N496 1.384 1_545 S
C494 H485 0.929 . S
C494 C486 1.378 . S
C494 C489 1.350 . S
C495 H482 0.929 . S
C495 C487 1.433 . S
C495 N497 1.384 1_554 S
N496 C492 1.427 . S
N496 C493 1.384 1_565 S
N497 C489 1.427 . S
N497 C495 1.384 1_556 S
H498 C504 0.930 . S
H499 C508 0.930 . S
H500 C513 0.929 . S
H501 C511 0.929 . S
H502 C506 0.929 . S
H503 C512 0.929 . S
C504 H498 0.930 . S
C504 C505 1.367 1_556 S
C504 C512 1.378 . S
C505 C504 1.367 1_554 S
C505 C513 1.433 . S
C506 H502 0.929 . S
C506 C508 1.378 . S
C506 C510 1.350 . S
C507 C510 1.463 . S
C507 C512 1.350 . S
C507 N515 1.427 1_556 S
C508 H499 0.930 . S
C508 C506 1.378 . S
C508 C509 1.367 . S
C509 C508 1.367 . S
C509 C511 1.433 . S
C510 C506 1.350 . S
C510 C507 1.463 . S
C510 N514 1.427 . S
C511 H501 0.929 . S
C511 C509 1.433 . S
C511 N514 1.384 . S
C512 H503 0.929 . S
C512 C504 1.378 . S
C512 C507 1.350 . S
C513 H500 0.929 . S
C513 C505 1.433 . S
C513 N515 1.384 . S
N514 C510 1.427 . S
N514 C511 1.384 . S
N515 C507 1.427 1_554 S
N515 C513 1.384 . S
H516 C522 0.930 . S
H517 C526 0.930 . S
H518 C531 0.929 . S
H519 C529 0.929 . S
H520 C524 0.929 . S
H521 C530 0.929 . S
C522 H516 0.930 . S
C522 C523 1.367 1_556 S
C522 C530 1.378 . S
C523 C522 1.367 1_554 S
C523 C531 1.433 . S
C524 H520 0.929 . S
C524 C526 1.378 . S
C524 C528 1.350 . S
C525 C528 1.463 . S
C525 C530 1.350 . S
C525 N533 1.427 1_556 S
C526 H517 0.930 . S
C526 C524 1.378 . S
C526 C527 1.367 . S
C527 C526 1.367 . S
C527 C529 1.433 . S
C528 C524 1.350 . S
C528 C525 1.463 . S
C528 N532 1.427 . S
C529 H519 0.929 . S
C529 C527 1.433 . S
C529 N532 1.384 . S
C530 H521 0.929 . S
C530 C522 1.378 . S
C530 C525 1.350 . S
C531 H518 0.929 . S
C531 C523 1.433 . S
C531 N533 1.384 . S
N532 C528 1.427 . S
N532 C529 1.384 . S
N533 C525 1.427 1_554 S
N533 C531 1.384 . S
H534 C540 0.930 . S
H535 C544 0.930 . S
H536 C549 0.929 . S
H537 C547 0.929 . S
H538 C542 0.929 . S
H539 C548 0.929 . S
C540 H534 0.930 . S
C540 C541 1.346 1_655 S
C540 C548 1.378 . S
C541 C540 1.346 1_455 S
C541 C549 1.457 . S
C542 H538 0.929 . S
C542 C544 1.378 . S
C542 C546 1.350 . S
C543 C546 1.463 . S
C543 C548 1.350 1_456 S
C543 N551 1.427 . S
C544 H535 0.930 . S
C544 C542 1.378 . S
C544 C545 1.367 . S
C545 C544 1.367 . S
C545 C547 1.433 1_455 S
C546 C542 1.350 . S
C546 C543 1.463 . S
C546 N550 1.427 1_455 S
C547 H537 0.929 . S
C547 C545 1.433 1_655 S
C547 N550 1.384 . S
C548 H539 0.929 . S
C548 C540 1.378 . S
C548 C543 1.350 1_654 S
C549 H536 0.929 . S
C549 C541 1.457 . S
C549 N551 1.384 1_554 S
N550 C546 1.427 1_655 S
N550 C547 1.384 . S
N551 C543 1.427 . S
N551 C549 1.384 1_556 S
H552 C558 0.930 . S
H553 C562 0.930 . S
H554 C567 0.929 . S
H555 C565 0.929 . S
H556 C560 0.929 . S
H557 C566 0.929 . S
C558 H552 0.930 . S
C558 C559 1.367 . S
C558 C566 1.378 . S
C559 C558 1.367 . S
C559 C567 1.433 1_455 S
C560 H556 0.929 . S
C560 C562 1.378 . S
C560 C564 1.350 . S
C561 C564 1.463 . S
C561 C566 1.350 1_655 S
C561 N569 1.427 . S
C562 H553 0.930 . S
C562 C560 1.378 . S
C562 C563 1.367 . S
C563 C562 1.367 . S
C563 C565 1.433 1_655 S
C564 C560 1.350 . S
C564 C561 1.463 . S
C564 N568 1.427 1_655 S
C565 H555 0.929 . S
C565 C563 1.433 1_455 S
C565 N568 1.384 . S
C566 H557 0.929 . S
C566 C558 1.378 . S
C566 C561 1.350 1_455 S
C567 H554 0.929 . S
C567 C559 1.433 1_655 S
C567 N569 1.384 . S
N568 C564 1.427 1_455 S
N568 C565 1.384 . S
N569 C561 1.427 . S
N569 C567 1.384 . S
H570 C576 0.930 . S
H571 C580 0.930 . S
H572 C585 0.929 . S
H573 C583 0.929 1_565 S
H574 C578 0.929 . S
H575 C584 0.929 . S
C576 H570 0.930 . S
C576 C577 1.367 . S
C576 C584 1.378 . S
C577 C576 1.367 . S
C577 C585 1.433 . S
C578 H574 0.929 . S
C578 C580 1.378 . S
C578 C582 1.350 . S
C579 C582 1.463 . S
C579 C584 1.350 . S
C579 N587 1.427 . S
C580 H571 0.930 . S
C580 C578 1.378 . S
C580 C581 1.367 . S
C581 C580 1.367 . S
C581 C583 1.433 . S
C582 C578 1.350 . S
C582 C579 1.463 . S
C582 N586 1.427 . S
C583 H573 0.929 1_545 S
C583 C581 1.433 . S
C583 N586 1.384 . S
C584 H575 0.929 . S
C584 C576 1.378 . S
C584 C579 1.350 . S
C585 H572 0.929 . S
C585 C577 1.433 . S
C585 N587 1.384 . S
N586 C582 1.427 . S
N586 C583 1.384 . S
N587 C579 1.427 . S
N587 C585 1.384 . S
H588 C594 0.930 . S
H589 C598 0.930 . S
H590 C603 0.929 . S
H591 C601 0.929 . S
H592 C596 0.929 . S
H593 C602 0.929 . S
C594 H588 0.930 . S
C594 C595 1.367 . S
C594 C602 1.378 . S
C595 C594 1.367 . S
C595 C603 1.433 . S
C596 H592 0.929 . S
C596 C598 1.378 . S
C596 C600 1.350 . S
C597 C600 1.463 . S
C597 C602 1.350 . S
C597 N605 1.427 . S
C598 H589 0.930 . S
C598 C596 1.378 . S
C598 C599 1.367 . S
C599 C598 1.367 . S
C599 C601 1.433 . S
C600 C596 1.350 . S
C600 C597 1.463 . S
C600 N604 1.427 . S
C601 H591 0.929 . S
C601 C599 1.433 . S
C601 N604 1.384 . S
C602 H593 0.929 . S
C602 C594 1.378 . S
C602 C597 1.350 . S
C603 H590 0.929 . S
C603 C595 1.433 . S
C603 N605 1.384 . S
N604 C600 1.427 . S
N604 C601 1.384 . S
N605 C597 1.427 . S
N605 C603 1.384 . S
H606 C612 0.930 . S
H607 C616 0.930 . S
H608 C621 0.929 . S
H609 C619 0.929 . S
H610 C614 0.929 . S
H611 C620 0.929 . S
C612 H606 0.930 . S
C612 C613 1.367 . S
C612 C620 1.378 . S
C613 C612 1.367 . S
C613 C621 1.433 . S
C614 H610 0.929 . S
C614 C616 1.378 . S
C614 C618 1.350 . S
C615 C618 1.463 . S
C615 C620 1.350 . S
C615 N623 1.427 . S
C616 H607 0.930 . S
C616 C614 1.378 . S
C616 C617 1.367 . S
C617 C616 1.367 . S
C617 C619 1.433 . S
C618 C614 1.350 . S
C618 C615 1.463 . S
C618 N622 1.427 . S
C619 H609 0.929 . S
C619 C617 1.433 . S
C619 N622 1.384 . S
C620 H611 0.929 . S
C620 C612 1.378 . S
C620 C615 1.350 . S
C621 H608 0.929 . S
C621 C613 1.433 . S
C621 N623 1.384 . S
N622 C618 1.427 . S
N622 C619 1.384 . S
N623 C615 1.427 . S
N623 C621 1.384 . S
H624 C630 0.930 . S
H625 C634 0.930 . S
H626 C639 0.929 . S
H627 C637 0.929 . S
H628 C632 0.929 . S
H629 C638 0.929 . S
C630 H624 0.930 . S
C630 C631 1.367 1_455 S
C630 C638 1.378 . S
C631 C630 1.367 1_655 S
C631 C639 1.433 . S
C632 H628 0.929 . S
C632 C634 1.378 . S
C632 C636 1.350 1_655 S
C633 C636 1.463 . S
C633 C638 1.350 . S
C633 N641 1.427 1_455 S
C634 H625 0.930 . S
C634 C632 1.378 . S
C634 C635 1.367 1_655 S
C635 C634 1.367 1_455 S
C635 C637 1.433 . S
C636 C632 1.350 1_455 S
C636 C633 1.463 . S
C636 N640 1.427 . S
C637 H627 0.929 . S
C637 C635 1.433 . S
C637 N640 1.384 . S
C638 H629 0.929 . S
C638 C630 1.378 . S
C638 C633 1.350 . S
C639 H626 0.929 . S
C639 C631 1.433 . S
C639 N641 1.384 . S
N640 C636 1.427 . S
N640 C637 1.384 . S
N641 C633 1.427 1_655 S
N641 C639 1.384 . S
H642 C648 0.930 . S
H643 C652 0.930 . S
H644 C657 0.929 . S
H645 C655 0.929 . S
H646 C650 0.929 . S
H647 C656 0.929 . S
C648 H642 0.930 . S
C648 C649 1.367 . S
C648 C656 1.378 . S
C649 C648 1.367 . S
C649 C657 1.433 . S
C650 H646 0.929 . S
C650 C652 1.378 . S
C650 C654 1.350 . S
C651 C654 1.463 . S
C651 C656 1.350 . S
C651 N659 1.427 . S
C652 H643 0.930 . S
C652 C650 1.378 . S
C652 C653 1.367 1_565 S
C653 C652 1.367 1_545 S
C653 C655 1.433 . S
C654 C650 1.350 . S
C654 C651 1.463 . S
C654 N658 1.427 . S
C655 H645 0.929 . S
C655 C653 1.433 . S
C655 N658 1.384 1_545 S
C656 H647 0.929 . S
C656 C648 1.378 . S
C656 C651 1.350 . S
C657 H644 0.929 . S
C657 C649 1.433 . S
C657 N659 1.384 . S
N658 C654 1.427 . S
N658 C655 1.384 1_565 S
N659 C651 1.427 . S
N659 C657 1.384 . S
H660 C666 0.930 1_554 S
H661 C670 0.930 . S
H662 C675 0.929 . S
H663 C673 0.929 . S
H664 C668 0.929 . S
H665 C674 0.929 . S
C666 H660 0.930 1_556 S
C666 C667 1.367 . S
C666 C674 1.378 . S
C667 C666 1.367 . S
C667 C675 1.433 . S
C668 H664 0.929 . S
C668 C670 1.378 . S
C668 C672 1.350 . S
C669 C672 1.463 . S
C669 C674 1.350 . S
C669 N677 1.427 . S
C670 H661 0.930 . S
C670 C668 1.378 . S
C670 C671 1.367 . S
C671 C670 1.367 . S
C671 C673 1.433 . S
C672 C668 1.350 . S
C672 C669 1.463 . S
C672 N676 1.427 . S
C673 H663 0.929 . S
C673 C671 1.433 . S
C673 N676 1.384 . S
C674 H665 0.929 . S
C674 C666 1.378 . S
C674 C669 1.350 . S
C675 H662 0.929 . S
C675 C667 1.433 . S
C675 N677 1.384 . S
N676 C672 1.427 . S
N676 C673 1.384 . S
N677 C669 1.427 . S
N677 C675 1.384 . S
H678 C684 0.930 . S
H679 C688 0.930 . S
H680 C693 0.929 . S
H681 C691 0.929 . S
H682 C686 0.929 . S
H683 C692 0.929 . S
C684 H678 0.930 . S
C684 C685 1.367 . S
C684 C692 1.378 . S
C685 C684 1.367 . S
C685 C693 1.433 . S
C686 H682 0.929 . S
C686 C688 1.378 . S
C686 C690 1.350 . S
C687 C690 1.463 . S
C687 C692 1.350 . S
C687 N695 1.427 . S
C688 H679 0.930 . S
C688 C686 1.378 . S
C688 C689 1.367 . S
C689 C688 1.367 . S
C689 C691 1.433 . S
C690 C686 1.350 . S
C690 C687 1.463 . S
C690 N694 1.427 . S
C691 H681 0.929 . S
C691 C689 1.433 . S
C691 N694 1.384 . S
C692 H683 0.929 . S
C692 C684 1.378 . S
C692 C687 1.350 . S
C693 H680 0.929 . S
C693 C685 1.433 . S
C693 N695 1.384 . S
N694 C690 1.427 . S
N694 C691 1.384 . S
N695 C687 1.427 . S
N695 C693 1.384 . S
H696 C702 0.930 . S
H697 C706 0.930 . S
H698 C711 0.928 1_655 S
H699 C709 0.929 . S
H700 C704 0.929 . S
H701 C710 0.929 . S
C702 H696 0.930 . S
C702 C703 1.367 . S
C702 C710 1.378 . S
C703 C702 1.367 . S
C703 C711 1.434 . S
C704 H700 0.929 . S
C704 C706 1.378 . S
C704 C708 1.350 1_556 S
C705 C708 1.463 . S
C705 C710 1.350 . S
C705 N713 1.427 . S
C706 H697 0.930 . S
C706 C704 1.378 . S
C706 C707 1.367 . S
C707 C706 1.367 . S
C707 C709 1.433 1_556 S
C708 C704 1.350 1_554 S
C708 C705 1.463 . S
C708 N712 1.427 . S
C709 H699 0.929 . S
C709 C707 1.433 1_554 S
C709 N712 1.384 . S
C710 H701 0.929 . S
C710 C702 1.378 . S
C710 C705 1.350 . S
C711 H698 0.928 1_455 S
C711 C703 1.434 . S
C711 N713 1.384 . S
N712 C708 1.427 . S
N712 C709 1.384 . S
N713 C705 1.427 . S
N713 C711 1.384 . S
H714 C720 0.930 . S
H715 C724 0.930 . S
H716 C729 0.929 . S
H717 C727 0.929 . S
H718 C722 0.929 . S
H719 C728 0.929 . S
C720 H714 0.930 . S
C720 C721 1.367 . S
C720 C728 1.378 . S
C721 C720 1.367 . S
C721 C729 1.433 . S
C722 H718 0.929 . S
C722 C724 1.378 1_554 S
C722 C726 1.350 . S
C723 C726 1.463 . S
C723 C728 1.350 . S
C723 N731 1.427 . S
C724 H715 0.930 . S
C724 C722 1.378 1_556 S
C724 C725 1.367 . S
C725 C724 1.367 . S
C725 C727 1.433 1_556 S
C726 C722 1.350 . S
C726 C723 1.463 . S
C726 N730 1.427 . S
C727 H717 0.929 . S
C727 C725 1.433 1_554 S
C727 N730 1.384 . S
C728 H719 0.929 . S
C728 C720 1.378 . S
C728 C723 1.350 . S
C729 H716 0.929 . S
C729 C721 1.433 . S
C729 N731 1.384 . S
N730 C726 1.427 . S
N730 C727 1.384 . S
N731 C723 1.427 . S
N731 C729 1.384 . S
H732 C738 0.930 . S
H733 C742 0.930 . S
H734 C747 0.929 . S
H735 C745 0.929 . S
H736 C740 0.929 . S
H737 C746 0.929 1_556 S
C738 H732 0.930 . S
C738 C739 1.367 . S
C738 C746 1.378 . S
C739 C738 1.367 . S
C739 C747 1.433 . S
C740 H736 0.929 . S
C740 C742 1.378 1_554 S
C740 C744 1.351 . S
C741 C744 1.465 . S
C741 C746 1.350 . S
C741 N749 1.427 . S
C742 H733 0.930 . S
C742 C740 1.378 1_556 S
C742 C743 1.367 . S
C743 C742 1.367 . S
C743 C745 1.433 . S
C744 C740 1.351 . S
C744 C741 1.465 . S
C744 N748 1.424 1_554 S
C745 H735 0.929 . S
C745 C743 1.433 . S
C745 N748 1.384 . S
C746 H737 0.929 1_554 S
C746 C738 1.378 . S
C746 C741 1.350 . S
C747 H734 0.929 . S
C747 C739 1.433 . S
C747 N749 1.384 . S
N748 C744 1.424 1_556 S
N748 C745 1.384 . S
N749 C741 1.427 . S
N749 C747 1.384 . S
H750 C756 0.930 . S
H751 C760 0.930 . S
H752 C765 0.929 . S
H753 C763 0.929 . S
H754 C758 0.929 . S
H755 C764 0.929 1_556 S
C756 H750 0.930 . S
C756 C757 1.367 . S
C756 C764 1.378 . S
C757 C756 1.367 . S
C757 C765 1.433 . S
C758 H754 0.929 . S
C758 C760 1.378 1_554 S
C758 C762 1.348 1_554 S
C759 C762 1.458 1_554 S
C759 C764 1.350 . S
C759 N767 1.427 . S
C760 H751 0.930 . S
C760 C758 1.378 1_556 S
C760 C761 1.367 . S
C761 C760 1.367 . S
C761 C763 1.433 . S
C762 C758 1.348 1_556 S
C762 C759 1.458 1_556 S
C762 N766 1.435 . S
C763 H753 0.929 . S
C763 C761 1.433 . S
C763 N766 1.384 . S
C764 H755 0.929 1_554 S
C764 C756 1.378 . S
C764 C759 1.350 . S
C765 H752 0.929 . S
C765 C757 1.433 . S
C765 N767 1.384 . S
N766 C762 1.435 . S
N766 C763 1.384 . S
N767 C759 1.427 . S
N767 C765 1.384 . S
H768 C774 0.930 . S
H769 C778 0.930 . S
H770 C783 0.929 . S
H771 C781 0.929 . S
H772 C776 0.929 . S
H773 C782 0.929 . S
C774 H768 0.930 . S
C774 C775 1.367 . S
C774 C782 1.378 . S
C775 C774 1.367 . S
C775 C783 1.433 1_655 S
C776 H772 0.929 . S
C776 C778 1.378 . S
C776 C780 1.350 1_455 S
C777 C780 1.463 . S
C777 C782 1.350 . S
C777 N785 1.427 1_655 S
C778 H769 0.930 . S
C778 C776 1.378 . S
C778 C779 1.367 1_455 S
C779 C778 1.367 1_655 S
C779 C781 1.433 . S
C780 C776 1.350 1_655 S
C780 C777 1.463 . S
C780 N784 1.427 . S
C781 H771 0.929 . S
C781 C779 1.433 . S
C781 N784 1.384 . S
C782 H773 0.929 . S
C782 C774 1.378 . S
C782 C777 1.350 . S
C783 H770 0.929 . S
C783 C775 1.433 1_455 S
C783 N785 1.384 . S
N784 C780 1.427 . S
N784 C781 1.384 . S
N785 C777 1.427 1_455 S
N785 C783 1.384 . S
H786 C792 0.930 . S
H787 C796 0.930 1_545 S
H788 C801 0.929 . S
H789 C799 0.929 . S
H790 C794 0.929 . S
H791 C800 0.929 . S
C792 H786 0.930 . S
C792 C793 1.367 . S
C792 C800 1.378 . S
C793 C792 1.367 . S
C793 C801 1.433 . S
C794 H790 0.929 . S
C794 C796 1.378 . S
C794 C798 1.350 . S
C795 C798 1.463 . S
C795 C800 1.350 . S
C795 N803 1.427 . S
C796 H787 0.930 1_565 S
C796 C794 1.378 . S
C796 C797 1.367 . S
C797 C796 1.367 . S
C797 C799 1.433 . S
C798 C794 1.350 . S
C798 C795 1.463 . S
C798 N802 1.427 . S
C799 H789 0.929 . S
C799 C797 1.433 . S
C799 N802 1.384 . S
C800 H791 0.929 . S
C800 C792 1.378 . S
C800 C795 1.350 . S
C801 H788 0.929 . S
C801 C793 1.433 . S
C801 N803 1.384 . S
N802 C798 1.427 . S
N802 C799 1.384 . S
N803 C795 1.427 . S
N803 C801 1.384 . S
H804 C810 0.930 . S
H805 C814 0.930 . S
H806 C819 0.929 . S
H807 C817 0.929 . S
H808 C812 0.929 . S
H809 C818 0.929 . S
C810 H804 0.930 . S
C810 C811 1.367 . S
C810 C818 1.378 . S
C811 C810 1.367 . S
C811 C819 1.433 . S
C812 H808 0.929 . S
C812 C814 1.378 . S
C812 C816 1.350 . S
C813 C816 1.463 . S
C813 C818 1.350 . S
C813 N821 1.427 . S
C814 H805 0.930 . S
C814 C812 1.378 . S
C814 C815 1.367 . S
C815 C814 1.367 . S
C815 C817 1.433 . S
C816 C812 1.350 . S
C816 C813 1.463 . S
C816 N820 1.427 . S
C817 H807 0.929 . S
C817 C815 1.433 . S
C817 N820 1.384 . S
C818 H809 0.929 . S
C818 C810 1.378 . S
C818 C813 1.350 . S
C819 H806 0.929 . S
C819 C811 1.433 . S
C819 N821 1.384 . S
N820 C816 1.427 . S
N820 C817 1.384 . S
N821 C813 1.427 . S
N821 C819 1.384 . S
H822 C828 0.930 . S
H823 C832 0.930 . S
H824 C837 0.929 . S
H825 C835 0.929 . S
H826 C830 0.929 . S
H827 C836 0.929 . S
C828 H822 0.930 . S
C828 C829 1.367 . S
C828 C836 1.378 . S
C829 C828 1.367 . S
C829 C837 1.433 . S
C830 H826 0.929 . S
C830 C832 1.378 . S
C830 C834 1.350 . S
C831 C834 1.463 . S
C831 C836 1.350 . S
C831 N839 1.427 . S
C832 H823 0.930 . S
C832 C830 1.378 . S
C832 C833 1.367 . S
C833 C832 1.367 . S
C833 C835 1.433 . S
C834 C830 1.350 . S
C834 C831 1.463 . S
C834 N838 1.427 . S
C835 H825 0.929 . S
C835 C833 1.433 . S
C835 N838 1.384 . S
C836 H827 0.929 . S
C836 C828 1.378 . S
C836 C831 1.350 . S
C837 H824 0.929 . S
C837 C829 1.433 . S
C837 N839 1.384 . S
N838 C834 1.427 . S
N838 C835 1.384 . S
N839 C831 1.427 . S
N839 C837 1.384 . S
C415 C241 1.836 . S
C419 C298 1.853 . S
C437 C328 1.744 . S
C433 C277 1.733 . S
C455 N362 1.750 . S
C451 C169 1.744 . S
C473 N392 1.348 . S
C469 C205 1.381 1_655 S
C491 C289 1.857 1_565 S
C487 C97 1.779 . S
C505 C133 1.718 . S
C509 C319 1.743 . S
C523 C25 1.679 . S
C527 N354 1.745 . S
C541 C61 1.393 . S
C545 N384 1.366 . S
C563 C304 0.482 . S
C559 C211 0.553 . S
C581 C334 0.651 . S
C577 C247 0.669 . S
C599 C375 0.535 . S
C595 C253 0.542 . S
C613 C175 0.625 . S
C617 C405 0.612 . S
C631 C67 0.572 1_655 S
C635 C315 0.432 . S
C653 C345 0.648 . S
C649 C103 0.674 . S
C671 C364 0.540 . S
C667 C109 0.543 . S
C685 C31 0.645 . S
C689 C394 0.613 . S
C703 C181 1.639 . S
C707 N294 1.697 . S
C721 C217 1.788 . S
C725 N324 1.841 . S
C743 C349 1.899 . S
C739 C283 1.811 . S
C761 C379 2.141 . S
C757 C145 2.062 . S
C775 C37 1.658 1_655 S
C779 N302 1.693 . S
C797 N332 1.832 . S
C793 C73 1.767 . S
C815 C358 1.899 . S
C811 C139 1.786 . S
C829 C1 2.019 . S
C833 C388 2.144 . S
