# Generated by pormake.
# Topology dag, (6,3)-cn, num edge types: 1
# Building blocks:
#     Node 0, Type 0, BuildingBlock: IZENUY_clean_sbu_0, # of connection points: 6
#     Node 1, Type 0, BuildingBlock: IZENUY_clean_sbu_0, # of connection points: 6
#     Node 2, Type 0, BuildingBlock: IZENUY_clean_sbu_0, # of connection points: 6
#     Node 3, Type 0, BuildingBlock: IZENUY_clean_sbu_0, # of connection points: 6
#     Node 4, Type 1, BuildingBlock: PAMTOO_clean_linker_0, # of connection points: 3
#     Node 5, Type 1, BuildingBlock: PAMTOO_clean_linker_0, # of connection points: 3
#     Node 6, Type 1, BuildingBlock: PAMTOO_clean_linker_0, # of connection points: 3
#     Node 7, Type 1, BuildingBlock: PAMTOO_clean_linker_0, # of connection points: 3
#     Node 8, Type 1, BuildingBlock: PAMTOO_clean_linker_0, # of connection points: 3
#     Node 9, Type 1, BuildingBlock: PAMTOO_clean_linker_0, # of connection points: 3
#     Node 10, Type 1, BuildingBlock: PAMTOO_clean_linker_0, # of connection points: 3
#     Node 11, Type 1, BuildingBlock: PAMTOO_clean_linker_0, # of connection points: 3
#     Edge 12, Type (0, 1), BuildingBlock: MIFKUJ_clean_linker_0, # of connection points: 2
#     Edge 13, Type (0, 1), BuildingBlock: MIFKUJ_clean_linker_0, # of connection points: 2
#     Edge 14, Type (0, 1), BuildingBlock: MIFKUJ_clean_linker_0, # of connection points: 2
#     Edge 15, Type (0, 1), BuildingBlock: MIFKUJ_clean_linker_0, # of connection points: 2
#     Edge 16, Type (0, 1), BuildingBlock: MIFKUJ_clean_linker_0, # of connection points: 2
#     Edge 17, Type (0, 1), BuildingBlock: MIFKUJ_clean_linker_0, # of connection points: 2
#     Edge 18, Type (0, 1), BuildingBlock: MIFKUJ_clean_linker_0, # of connection points: 2
#     Edge 19, Type (0, 1), BuildingBlock: MIFKUJ_clean_linker_0, # of connection points: 2
#     Edge 20, Type (0, 1), BuildingBlock: MIFKUJ_clean_linker_0, # of connection points: 2
#     Edge 21, Type (0, 1), BuildingBlock: MIFKUJ_clean_linker_0, # of connection points: 2
#     Edge 22, Type (0, 1), BuildingBlock: MIFKUJ_clean_linker_0, # of connection points: 2
#     Edge 23, Type (0, 1), BuildingBlock: MIFKUJ_clean_linker_0, # of connection points: 2
#     Edge 24, Type (0, 1), BuildingBlock: MIFKUJ_clean_linker_0, # of connection points: 2
#     Edge 25, Type (0, 1), BuildingBlock: MIFKUJ_clean_linker_0, # of connection points: 2
#     Edge 26, Type (0, 1), BuildingBlock: MIFKUJ_clean_linker_0, # of connection points: 2
#     Edge 27, Type (0, 1), BuildingBlock: MIFKUJ_clean_linker_0, # of connection points: 2
#     Edge 28, Type (0, 1), BuildingBlock: MIFKUJ_clean_linker_0, # of connection points: 2
#     Edge 29, Type (0, 1), BuildingBlock: MIFKUJ_clean_linker_0, # of connection points: 2
#     Edge 30, Type (0, 1), BuildingBlock: MIFKUJ_clean_linker_0, # of connection points: 2
#     Edge 31, Type (0, 1), BuildingBlock: MIFKUJ_clean_linker_0, # of connection points: 2
#     Edge 32, Type (0, 1), BuildingBlock: MIFKUJ_clean_linker_0, # of connection points: 2
#     Edge 33, Type (0, 1), BuildingBlock: MIFKUJ_clean_linker_0, # of connection points: 2
#     Edge 34, Type (0, 1), BuildingBlock: MIFKUJ_clean_linker_0, # of connection points: 2
#     Edge 35, Type (0, 1), BuildingBlock: MIFKUJ_clean_linker_0, # of connection points: 2
# Relax obj value: 0.095
# Max RMSD: 0.105
# Mean RMSD: 0.084
data_MOF--net-dag--node1-IZENUY_clean_sbu_0--node2-PAMTOO_clean_linker_0--edge1-MIFKUJ_clean_linker_0
_symmetry_space_group_name_H-M    P1
_symmetry_Int_Tables_number       1
_symmetry_cell_setting            triclinic
loop_
_symmetry_equiv_pos_as_xyz
'x, y, z'
_cell_length_a     50.94456
_cell_length_b     52.278553
_cell_length_c     46.215159
_cell_angle_alpha  89.993202
_cell_angle_beta   94.219822
_cell_angle_gamma 90.0937
loop_
_atom_site_label
_atom_site_type_symbol
_atom_site_fract_x
_atom_site_fract_y
_atom_site_fract_z
_atom_type_partial_charge
Fe0 Fe 0.18526 0.85026 0.00669 0.0
Fe1 Fe 0.12982 0.87183 0.01079 0.0
O2 O 0.15071 0.84572 0.00482 0.0
Fe3 Fe 0.13692 0.81514 0.99693 0.0
O4 O 0.15446 0.80134 0.02864 0.0
O5 O 0.19301 0.81818 0.02128 0.0
O6 O 0.18591 0.86125 0.04407 0.0
C7 C 0.17295 0.8802 0.05195 0.0
C8 C 0.17858 0.81838 0.95976 0.0
O9 O 0.15326 0.88834 0.03642 0.0
C10 C 0.1027 0.84559 0.96444 0.0
O11 O 0.18355 0.88326 0.99237 0.0
O12 O 0.14144 0.88903 0.98034 0.0
O13 O 0.16252 0.8053 0.97332 0.0
O14 O 0.18699 0.83962 0.96955 0.0
C15 C 0.10573 0.83445 0.04029 0.0
O16 O 0.10261 0.86045 0.98602 0.0
O17 O 0.11843 0.82698 0.96457 0.0
C18 C 0.16515 0.89497 0.97787 0.0
O19 O 0.11688 0.85604 0.04165 0.0
O20 O 0.10884 0.81948 0.01924 0.0
C21 C 0.17907 0.80223 0.03408 0.0
Fe22 Fe 0.67908 0.65621 0.4993 0.0
Fe23 Fe 0.63531 0.6965 0.4889 0.0
O24 O 0.6453 0.66465 0.49671 0.0
Fe25 Fe 0.62128 0.64109 0.50188 0.0
O26 O 0.64213 0.62186 0.52731 0.0
O27 O 0.67773 0.64491 0.53643 0.0
O28 O 0.69047 0.68713 0.51468 0.0
C29 C 0.67816 0.70453 0.52718 0.0
C30 C 0.65402 0.61449 0.46898 0.0
O31 O 0.65396 0.70823 0.52094 0.0
C32 C 0.59724 0.67079 0.4563 0.0
O33 O 0.68282 0.66672 0.46252 0.0
O34 O 0.66222 0.70341 0.46573 0.0
O35 O 0.63109 0.62299 0.47118 0.0
O36 O 0.67349 0.62379 0.48423 0.0
C37 C 0.60134 0.6805 0.53157 0.0
O38 O 0.61578 0.68677 0.45609 0.0
O39 O 0.5957 0.65571 0.47747 0.0
C40 C 0.67691 0.68856 0.45254 0.0
O41 O 0.60661 0.69528 0.51097 0.0
O42 O 0.61019 0.65798 0.53284 0.0
C43 C 0.66218 0.62767 0.54373 0.0
Fe44 Fe 0.8655 0.19279 0.05444 0.0
Fe45 Fe 0.87836 0.13941 0.03288 0.0
O46 O 0.85478 0.16217 0.04193 0.0
Fe47 Fe 0.82079 0.15439 0.03859 0.0
O48 O 0.81031 0.18691 0.02773 0.0
O49 O 0.84736 0.20816 0.02415 0.0
O50 O 0.89463 0.19383 0.03299 0.0
C51 C 0.89929 0.18197 0.01 0.0
C52 C 0.82334 0.18174 0.08914 0.0
O53 O 0.8898 0.16003 0.005 0.0
C54 C 0.84511 0.10916 0.06163 0.0
O55 O 0.88422 0.17898 0.08562 0.0
O56 O 0.90397 0.15058 0.05987 0.0
O57 O 0.81746 0.16085 0.07667 0.0
O58 O 0.83847 0.19755 0.07798 0.0
C59 C 0.83691 0.13169 0.98967 0.0
O60 O 0.86822 0.11745 0.06013 0.0
O61 O 0.82562 0.12052 0.0487 0.0
C62 C 0.9021 0.16257 0.08343 0.0
O63 O 0.85727 0.12396 0.00432 0.0
O64 O 0.82132 0.14722 0.00021 0.0
C65 C 0.82307 0.20525 0.01741 0.0
Fe66 Fe 0.37514 0.35757 0.53647 0.0
Fe67 Fe 0.31774 0.34258 0.54375 0.0
O68 O 0.35168 0.33459 0.54568 0.0
Fe69 Fe 0.36234 0.30365 0.5569 0.0
O70 O 0.38265 0.31652 0.58749 0.0
O71 O 0.40167 0.34573 0.56203 0.0
O72 O 0.36596 0.37901 0.56484 0.0
C73 C 0.34295 0.38739 0.56694 0.0
C74 C 0.39431 0.31522 0.51099 0.0
O75 O 0.32324 0.37625 0.55412 0.0
C76 C 0.31833 0.29179 0.52203 0.0
O77 O 0.35324 0.37353 0.50907 0.0
O78 O 0.31726 0.35014 0.50533 0.0
O79 O 0.39024 0.30268 0.53372 0.0
O80 O 0.38554 0.33761 0.50752 0.0
C81 C 0.3221 0.31476 0.59407 0.0
O82 O 0.30636 0.31032 0.53291 0.0
O83 O 0.34277 0.2888 0.52728 0.0
C84 C 0.33278 0.36569 0.49459 0.0
O85 O 0.31567 0.3357 0.58201 0.0
O86 O 0.33643 0.29891 0.58185 0.0
C87 C 0.40091 0.33246 0.58486 0.0
H88 H 0.12682 0.06055 0.23466 0.0
H89 H 0.12996 0.12033 0.29908 0.0
H90 H 0.19396 0.06735 0.2961 0.0
H91 H 0.18023 0.08153 0.3564 0.0
C92 C 0.17267 0.10113 0.35148 0.0
O93 O 0.17591 0.10703 0.32291 0.0
H94 H 0.15141 0.10155 0.35558 0.0
C95 C 0.13693 0.07043 0.25286 0.0
C96 C 0.16185 0.06174 0.26347 0.0
C97 C 0.12506 0.09161 0.2653 0.0
C98 C 0.13829 0.10361 0.28939 0.0
C99 C 0.16286 0.09459 0.30066 0.0
C100 C 0.1746 0.07366 0.28777 0.0
H101 H 0.36997 0.63823 0.65116 0.0
H102 H 0.307 0.64657 0.70734 0.0
H103 H 0.35295 0.71212 0.68663 0.0
H104 H 0.34449 0.70859 0.7469 0.0
C105 C 0.32543 0.69806 0.74609 0.0
O106 O 0.3157 0.69531 0.71762 0.0
H107 H 0.32925 0.67893 0.75614 0.0
C108 C 0.35814 0.65041 0.66401 0.0
C109 C 0.3638 0.67668 0.6664 0.0
C110 C 0.33761 0.63943 0.67839 0.0
C111 C 0.32262 0.65487 0.69566 0.0
C112 C 0.32856 0.68095 0.69894 0.0
C113 C 0.34879 0.69189 0.68402 0.0
H114 H 0.87844 0.85386 0.15474 0.0
H115 H 0.80666 0.85013 0.1982 0.0
H116 H 0.85661 0.78396 0.19574 0.0
H117 H 0.79908 0.77383 0.18608 0.0
C118 C 0.79181 0.78848 0.20103 0.0
O119 O 0.81269 0.80217 0.21384 0.0
H120 H 0.77826 0.80152 0.18811 0.0
C121 C 0.86471 0.84317 0.16697 0.0
C122 C 0.87003 0.81755 0.17392 0.0
C123 C 0.84212 0.85525 0.17582 0.0
C124 C 0.82425 0.84113 0.19118 0.0
C125 C 0.82946 0.81541 0.19822 0.0
C126 C 0.85252 0.80371 0.18992 0.0
H127 H 0.62573 0.43658 0.72854 0.0
H128 H 0.64034 0.37253 0.78599 0.0
H129 H 0.69789 0.43236 0.783 0.0
H130 H 0.72131 0.38185 0.78743 0.0
C131 C 0.7051 0.37117 0.79692 0.0
O132 O 0.68688 0.38827 0.80615 0.0
H133 H 0.69584 0.35846 0.7797 0.0
C134 C 0.63809 0.42696 0.74527 0.0
C135 C 0.66252 0.43765 0.75478 0.0
C136 C 0.62988 0.40345 0.75626 0.0
C137 C 0.64611 0.3909 0.77761 0.0
C138 C 0.67063 0.4013 0.78705 0.0
C139 C 0.67878 0.42464 0.77574 0.0
H140 H 0.6086 0.35946 0.37809 0.0
H141 H 0.62927 0.28945 0.33669 0.0
H142 H 0.67816 0.356 0.33058 0.0
H143 H 0.66826 0.32887 0.27645 0.0
C144 C 0.66538 0.30908 0.28454 0.0
O145 O 0.67081 0.30839 0.31421 0.0
H146 H 0.64445 0.30371 0.27894 0.0
C147 C 0.62174 0.34889 0.36507 0.0
C148 C 0.64407 0.361 0.35531 0.0
C149 C 0.61629 0.32314 0.3586 0.0
C150 C 0.63351 0.30923 0.34233 0.0
C151 C 0.65563 0.32121 0.33205 0.0
C152 C 0.66114 0.3469 0.33892 0.0
H153 H 0.13038 0.15428 0.90343 0.0
H154 H 0.15114 0.22315 0.85972 0.0
H155 H 0.20189 0.15766 0.8591 0.0
H156 H 0.23004 0.20787 0.8653 0.0
C157 C 0.21532 0.21988 0.85259 0.0
O158 O 0.19477 0.20485 0.84142 0.0
H159 H 0.20797 0.23463 0.86737 0.0
C160 C 0.14406 0.16474 0.89093 0.0
C161 C 0.16686 0.15267 0.88239 0.0
C162 C 0.13839 0.19009 0.88295 0.0
C163 C 0.15568 0.20371 0.8665 0.0
C164 C 0.17876 0.19207 0.85838 0.0
C165 C 0.18438 0.16666 0.86633 0.0
H166 H 0.37371 0.56802 0.31814 0.0
H167 H 0.35408 0.63119 0.26085 0.0
H168 H 0.30067 0.56791 0.26512 0.0
H169 H 0.30008 0.58827 0.20615 0.0
C170 C 0.3097 0.60701 0.21125 0.0
O171 O 0.30903 0.612 0.24049 0.0
H172 H 0.33042 0.60573 0.20516 0.0
C173 C 0.36031 0.57716 0.30204 0.0
C174 C 0.33654 0.56491 0.29303 0.0
C175 C 0.36689 0.60115 0.29088 0.0
C176 C 0.34952 0.61268 0.26977 0.0
C177 C 0.32574 0.60062 0.26055 0.0
C178 C 0.31913 0.57697 0.27239 0.0
H179 H 0.882 0.93829 0.808 0.0
H180 H 0.86593 0.87387 0.75133 0.0
H181 H 0.80618 0.93019 0.76137 0.0
H182 H 0.78564 0.87738 0.7595 0.0
C183 C 0.80145 0.86814 0.74782 0.0
O184 O 0.81726 0.88676 0.737 0.0
H185 H 0.81314 0.85577 0.76359 0.0
C186 C 0.869 0.92818 0.79226 0.0
C187 C 0.84342 0.93753 0.78563 0.0
C188 C 0.87752 0.90529 0.78004 0.0
C189 C 0.85993 0.8916 0.76099 0.0
C190 C 0.83426 0.90054 0.75456 0.0
C191 C 0.82606 0.92347 0.76669 0.0
H192 H 0.17062 0.93157 0.05817 0.0
H193 H 0.18329 0.95685 0.10131 0.0
H194 H 0.20876 0.88834 0.14719 0.0
H195 H 0.19659 0.86278 0.1034 0.0
H196 H 0.17201 0.91987 0.17563 0.0
H197 H 0.25361 0.92703 0.13481 0.0
H198 H 0.28485 0.93394 0.09735 0.0
H199 H 0.25953 0.01195 0.0878 0.0
H200 H 0.22739 0.00531 0.12432 0.0
H201 H 0.18384 0.01716 0.28532 0.0
H202 H 0.19978 0.98105 0.25723 0.0
H203 H 0.18412 0.02421 0.17823 0.0
H204 H 0.16856 0.06001 0.20603 0.0
H205 H 0.22923 0.99679 0.17696 0.0
H206 H 0.13847 0.98331 0.20261 0.0
H207 H 0.10473 0.97736 0.23769 0.0
H208 H 0.14674 0.91234 0.27402 0.0
H209 H 0.1809 0.91814 0.23932 0.0
C210 C 0.17917 0.92189 0.07734 0.0
C211 C 0.1825 0.89523 0.0776 0.0
C212 C 0.18658 0.93637 0.10189 0.0
C213 C 0.19711 0.92446 0.12734 0.0
C214 C 0.20083 0.89784 0.12764 0.0
C215 C 0.19392 0.88333 0.10272 0.0
C216 C 0.20184 0.94002 0.15397 0.0
C217 C 0.18516 0.93625 0.17643 0.0
C218 C 0.2188 0.9615 0.15476 0.0
C219 C 0.23791 0.96559 0.13233 0.0
C220 C 0.25441 0.94558 0.12447 0.0
C221 C 0.27229 0.94945 0.10335 0.0
C222 C 0.27411 0.97334 0.0901 0.0
C223 C 0.25805 0.99342 0.09799 0.0
C224 C 0.23996 0.9896 0.11889 0.0
C225 C 0.18436 0.01898 0.26203 0.0
C226 C 0.17468 0.04113 0.24772 0.0
C227 C 0.19337 0.9984 0.24603 0.0
C228 C 0.19292 0.99989 0.21561 0.0
C229 C 0.1847 0.02263 0.20165 0.0
C230 C 0.17561 0.04299 0.21751 0.0
C231 C 0.19837 0.97735 0.19754 0.0
C232 C 0.21691 0.97984 0.1767 0.0
C233 C 0.1829 0.95486 0.19796 0.0
C234 C 0.16238 0.95136 0.2187 0.0
C235 C 0.14059 0.96787 0.21824 0.0
C236 C 0.12139 0.96451 0.23801 0.0
C237 C 0.12364 0.94454 0.25814 0.0
C238 C 0.14506 0.92784 0.25847 0.0
C239 C 0.16435 0.93116 0.23877 0.0
H240 H 0.10875 0.94196 0.27343 0.0
H241 H 0.288 0.97632 0.0738 0.0
H242 H 0.57964 0.65083 0.57225 0.0
H243 H 0.54084 0.66023 0.59802 0.0
H244 H 0.5374 0.73607 0.5611 0.0
H245 H 0.57598 0.72656 0.53445 0.0
H246 H 0.52547 0.69236 0.63649 0.0
H247 H 0.47282 0.75071 0.5435 0.0
H248 H 0.47408 0.75626 0.49055 0.0
H249 H 0.50361 0.67983 0.48308 0.0
H250 H 0.50216 0.67373 0.53587 0.0
H251 H 0.40035 0.71219 0.6872 0.0
H252 H 0.44098 0.72436 0.66565 0.0
H253 H 0.41962 0.67618 0.59177 0.0
H254 H 0.3783 0.66552 0.61207 0.0
H255 H 0.44527 0.71401 0.57386 0.0
H256 H 0.45856 0.65486 0.65403 0.0
H257 H 0.45658 0.64066 0.70473 0.0
H258 H 0.50444 0.70458 0.73413 0.0
H259 H 0.50641 0.71932 0.68357 0.0
C260 C 0.57092 0.66966 0.56986 0.0
C261 C 0.58063 0.68778 0.55084 0.0
C262 C 0.54876 0.67505 0.58477 0.0
C263 C 0.53594 0.6987 0.58111 0.0
C264 C 0.54672 0.71753 0.56382 0.0
C265 C 0.5688 0.71207 0.54866 0.0
C266 C 0.51012 0.70246 0.59334 0.0
C267 C 0.50798 0.69746 0.6229 0.0
C268 C 0.48721 0.70861 0.57549 0.0
C269 C 0.48772 0.71193 0.54366 0.0
C270 C 0.47951 0.73509 0.53052 0.0
C271 C 0.48026 0.73832 0.50055 0.0
C272 C 0.48903 0.71845 0.48349 0.0
C273 C 0.49693 0.69525 0.49633 0.0
C274 C 0.49615 0.6919 0.52627 0.0
C275 C 0.40392 0.70484 0.66594 0.0
C276 C 0.38633 0.68741 0.65165 0.0
C277 C 0.42731 0.7116 0.65378 0.0
C278 C 0.43375 0.70063 0.62746 0.0
C279 C 0.41529 0.68477 0.61221 0.0
C280 C 0.39177 0.67839 0.62406 0.0
C281 C 0.46048 0.70338 0.61695 0.0
C282 C 0.46283 0.70965 0.58769 0.0
C283 C 0.48344 0.69722 0.63476 0.0
C284 C 0.48235 0.68836 0.66511 0.0
C285 C 0.46851 0.66597 0.67134 0.0
C286 C 0.46741 0.65781 0.70003 0.0
C287 C 0.4803 0.67176 0.72265 0.0
C288 C 0.4944 0.69384 0.7166 0.0
C289 C 0.49552 0.70211 0.68794 0.0
H290 H 0.47943 0.66542 0.74485 0.0
H291 H 0.48964 0.72101 0.4603 0.0
H292 H 0.87974 0.08435 0.09964 0.0
H293 H 0.87495 0.04197 0.1207 0.0
H294 H 0.79758 0.03485 0.07684 0.0
H295 H 0.80197 0.07763 0.05602 0.0
H296 H 0.79921 0.01591 0.13236 0.0
H297 H 0.84889 0.00603 0.04872 0.0
H298 H 0.88461 0.01579 0.01716 0.0
H299 H 0.94218 0.99616 0.08607 0.0
H300 H 0.90683 0.98645 0.11812 0.0
H301 H 0.79814 0.87829 0.15 0.0
H302 H 0.79446 0.92262 0.1325 0.0
H303 H 0.87342 0.9379 0.16884 0.0
H304 H 0.87716 0.89382 0.18599 0.0
H305 H 0.86792 0.95201 0.11392 0.0
H306 H 0.81858 0.96309 0.1981 0.0
H307 H 0.78313 0.95374 0.23011 0.0
H308 H 0.72508 0.97111 0.16082 0.0
H309 H 0.76021 0.98025 0.12826 0.0
C310 C 0.86162 0.07387 0.09457 0.0
C311 C 0.84131 0.08426 0.07595 0.0
C312 C 0.85894 0.04963 0.1066 0.0
C313 C 0.83609 0.03511 0.09993 0.0
C314 C 0.81538 0.04574 0.08219 0.0
C315 C 0.81795 0.07015 0.0703 0.0
C316 C 0.83444 0.0085 0.11071 0.0
C317 C 0.81398 0.00178 0.12802 0.0
C318 C 0.85392 0.99021 0.10529 0.0
C319 C 0.87521 0.99569 0.08589 0.0
C320 C 0.86916 0.00392 0.05719 0.0
C321 C 0.88934 0.00941 0.0392 0.0
C322 C 0.91563 0.00665 0.04963 0.0
C323 C 0.92181 0.99827 0.07802 0.0
C324 C 0.90171 0.9927 0.09608 0.0
C325 C 0.81443 0.89134 0.15472 0.0
C326 C 0.83801 0.88268 0.16908 0.0
C327 C 0.81234 0.91661 0.14473 0.0
C328 C 0.83371 0.93356 0.14931 0.0
C329 C 0.85677 0.92513 0.16486 0.0
C330 C 0.85889 0.89998 0.17465 0.0
C331 C 0.83305 0.9595 0.13627 0.0
C332 C 0.85304 0.96605 0.11826 0.0
C333 C 0.81315 0.97753 0.14109 0.0
C334 C 0.79203 0.97207 0.16065 0.0
C335 C 0.79826 0.9647 0.18961 0.0
C336 C 0.77822 0.95948 0.20787 0.0
C337 C 0.75187 0.96175 0.19748 0.0
C338 C 0.7455 0.96932 0.16883 0.0
C339 C 0.76547 0.97454 0.15047 0.0
H340 H 0.73639 0.95771 0.21166 0.0
H341 H 0.93122 0.01096 0.03568 0.0
H342 H 0.45147 0.34529 0.57648 0.0
H343 H 0.48845 0.34919 0.61289 0.0
H344 H 0.43817 0.32722 0.67983 0.0
H345 H 0.40091 0.32273 0.64314 0.0
H346 H 0.46815 0.37226 0.69235 0.0
H347 H 0.48074 0.28721 0.66376 0.0
H348 H 0.48547 0.24986 0.63215 0.0
H349 H 0.55554 0.28236 0.60107 0.0
H350 H 0.55061 0.32047 0.63143 0.0
H351 H 0.58946 0.38277 0.78476 0.0
H352 H 0.54841 0.36379 0.76282 0.0
H353 H 0.57464 0.37761 0.67754 0.0
H354 H 0.61533 0.39648 0.6992 0.0
H355 H 0.55366 0.32854 0.68436 0.0
H356 H 0.53286 0.41763 0.7045 0.0
H357 H 0.52853 0.45459 0.73697 0.0
H358 H 0.47456 0.41219 0.78572 0.0
H359 H 0.47886 0.37484 0.75374 0.0
C360 C 0.44827 0.34116 0.59892 0.0
C361 C 0.42329 0.33381 0.60703 0.0
C362 C 0.46946 0.34324 0.61967 0.0
C363 C 0.46606 0.33835 0.64901 0.0
C364 C 0.44117 0.33096 0.65726 0.0
C365 C 0.41999 0.32836 0.63633 0.0
C366 C 0.48843 0.34243 0.67087 0.0
C367 C 0.48668 0.36226 0.6911 0.0
C368 C 0.51262 0.32944 0.66908 0.0
C369 C 0.51514 0.30692 0.6498 0.0
C370 C 0.49689 0.28667 0.6498 0.0
C371 C 0.49962 0.26532 0.63208 0.0
C372 C 0.52074 0.26376 0.61453 0.0
C373 C 0.53914 0.2836 0.61462 0.0
C374 C 0.53632 0.30515 0.63199 0.0
C375 C 0.58641 0.38158 0.76135 0.0
C376 C 0.60538 0.39128 0.74362 0.0
C377 C 0.56301 0.37083 0.74889 0.0
C378 C 0.55851 0.36939 0.71858 0.0
C379 C 0.57775 0.37852 0.70097 0.0
C380 C 0.60087 0.38947 0.71335 0.0
C381 C 0.53361 0.35908 0.70464 0.0
C382 C 0.53492 0.33806 0.68597 0.0
C383 C 0.50905 0.37091 0.70786 0.0
C384 C 0.50646 0.39335 0.727 0.0
C385 C 0.52026 0.41612 0.72231 0.0
C386 C 0.51777 0.43715 0.74059 0.0
C387 C 0.50135 0.43571 0.76346 0.0
C388 C 0.48732 0.41325 0.76804 0.0
C389 C 0.48978 0.39215 0.74985 0.0
H390 H 0.49944 0.45201 0.77757 0.0
H391 H 0.52288 0.24717 0.60091 0.0
H392 H 0.61704 0.59048 0.43283 0.0
H393 H 0.62047 0.54875 0.40987 0.0
H394 H 0.70136 0.54279 0.44377 0.0
H395 H 0.69827 0.58482 0.46676 0.0
H396 H 0.69146 0.52271 0.38603 0.0
H397 H 0.65989 0.51407 0.4806 0.0
H398 H 0.63182 0.52518 0.51999 0.0
H399 H 0.56285 0.50532 0.46553 0.0
H400 H 0.59054 0.49434 0.4257 0.0
H401 H 0.6905 0.38427 0.3744 0.0
H402 H 0.69676 0.42885 0.39018 0.0
H403 H 0.61463 0.44395 0.36726 0.0
H404 H 0.60832 0.39973 0.35138 0.0
H405 H 0.62931 0.45897 0.42207 0.0
H406 H 0.66203 0.46756 0.32707 0.0
H407 H 0.6909 0.45712 0.28819 0.0
H408 H 0.75889 0.47688 0.34422 0.0
H409 H 0.73043 0.48711 0.38359 0.0
C410 C 0.63571 0.58053 0.43512 0.0
C411 C 0.65727 0.59083 0.452 0.0
C412 C 0.63763 0.55669 0.42194 0.0
C413 C 0.66105 0.5426 0.42551 0.0
C414 C 0.68312 0.55341 0.44083 0.0
C415 C 0.68125 0.57737 0.45403 0.0
C416 C 0.66143 0.51572 0.41551 0.0
C417 C 0.67818 0.50861 0.39414 0.0
C418 C 0.644 0.49747 0.42608 0.0
C419 C 0.62728 0.50349 0.45015 0.0
C420 C 0.63873 0.51215 0.47701 0.0
C421 C 0.6229 0.51841 0.49942 0.0
C422 C 0.59556 0.51596 0.49526 0.0
C423 C 0.58402 0.50718 0.46872 0.0
C424 C 0.59979 0.50088 0.44624 0.0
C425 C 0.67393 0.39726 0.37227 0.0
C426 C 0.64886 0.38846 0.362 0.0
C427 C 0.67751 0.42268 0.38131 0.0
C428 C 0.65611 0.43967 0.37999 0.0
C429 C 0.63134 0.43111 0.36871 0.0
C430 C 0.62776 0.40582 0.35972 0.0
C431 C 0.65885 0.46594 0.39191 0.0
C432 C 0.64273 0.47294 0.41394 0.0
C433 C 0.67701 0.48391 0.38204 0.0
C434 C 0.69412 0.47782 0.35838 0.0
C435 C 0.68315 0.46946 0.33119 0.0
C436 C 0.69944 0.46363 0.30904 0.0
C437 C 0.72671 0.46626 0.31376 0.0
C438 C 0.73776 0.47481 0.34061 0.0
C439 C 0.72156 0.48064 0.36284 0.0
H440 H 0.73929 0.46174 0.29659 0.0
H441 H 0.58332 0.52085 0.51261 0.0
H442 H 0.93961 0.21488 0.02538 0.0
H443 H 0.97739 0.22474 0.9978 0.0
H444 H 0.94312 0.1805 0.92566 0.0
H445 H 0.90583 0.16965 0.95373 0.0
H446 H 0.99032 0.16605 0.93655 0.0
H447 H 0.95098 0.24823 0.92387 0.0
H448 H 0.93027 0.28838 0.93832 0.0
H449 H 0.00018 0.30825 0.99116 0.0
H450 H 0.0212 0.26803 0.97736 0.0
H451 H 0.09302 0.19194 0.84898 0.0
H452 H 0.04901 0.20051 0.86501 0.0
H453 H 0.08345 0.2205 0.95008 0.0
H454 H 0.12747 0.21158 0.9341 0.0
H455 H 0.03468 0.25002 0.92776 0.0
H456 H 0.07018 0.16404 0.94448 0.0
H457 H 0.09122 0.12493 0.92739 0.0
H458 H 0.0265 0.11345 0.86378 0.0
H459 H 0.00535 0.15284 0.88013 0.0
C460 C 0.93988 0.20768 0.00342 0.0
C461 C 0.91988 0.19135 0.99176 0.0
C462 C 0.96146 0.21345 0.98757 0.0
C463 C 0.9631 0.20352 0.9595 0.0
C464 C 0.94239 0.18831 0.9473 0.0
C465 C 0.92107 0.18216 0.96332 0.0
C466 C 0.98755 0.20669 0.94417 0.0
C467 C 0.99958 0.18456 0.93412 0.0
C468 C 0.00012 0.23071 0.94144 0.0
C469 C 0.9876 0.25499 0.94973 0.0
C470 C 0.96188 0.26106 0.93874 0.0
C471 C 0.95009 0.28385 0.94679 0.0
C472 C 0.96388 0.30083 0.96569 0.0
C473 C 0.98951 0.29507 0.97653 0.0
C474 C 0.00139 0.27229 0.96857 0.0
C475 C 0.09114 0.19908 0.87074 0.0
C476 C 0.11333 0.20125 0.89039 0.0
C477 C 0.06611 0.20397 0.87985 0.0
C478 C 0.06309 0.21108 0.9087 0.0
C479 C 0.08547 0.21528 0.92767 0.0
C480 C 0.11051 0.21012 0.91862 0.0
C481 C 0.03693 0.2095 0.92038 0.0
C482 C 0.02488 0.23174 0.92987 0.0
C483 C 0.02411 0.18566 0.92243 0.0
C484 C 0.03633 0.1615 0.91331 0.0
C485 C 0.06053 0.15326 0.92673 0.0
C486 C 0.07247 0.13105 0.91718 0.0
C487 C 0.06024 0.11675 0.89446 0.0
C488 C 0.03597 0.12457 0.88134 0.0
C489 C 0.024 0.14684 0.89074 0.0
H490 H 0.06954 0.09959 0.88707 0.0
H491 H 0.95471 0.31846 0.9719 0.0
H492 H 0.36532 0.37347 0.45215 0.0
H493 H 0.35807 0.40203 0.41054 0.0
H494 H 0.27837 0.41514 0.43259 0.0
H495 H 0.28534 0.38558 0.4739 0.0
H496 H 0.28522 0.41873 0.37099 0.0
H497 H 0.32196 0.45128 0.46172 0.0
H498 H 0.35263 0.44908 0.50538 0.0
H499 H 0.4181 0.45934 0.45309 0.0
H500 H 0.38791 0.46009 0.40886 0.0
H501 H 0.28979 0.54953 0.3136 0.0
H502 H 0.28203 0.51087 0.342 0.0
H503 H 0.36127 0.48577 0.33099 0.0
H504 H 0.36896 0.52387 0.3023 0.0
H505 H 0.34916 0.48978 0.38889 0.0
H506 H 0.31189 0.45446 0.29809 0.0
H507 H 0.281 0.45347 0.25445 0.0
H508 H 0.21561 0.45075 0.30793 0.0
H509 H 0.24612 0.45209 0.35193 0.0
C510 C 0.34598 0.38176 0.4475 0.0
C511 C 0.32597 0.37769 0.46627 0.0
C512 C 0.34183 0.398 0.42373 0.0
C513 C 0.31788 0.4111 0.41889 0.0
C514 C 0.29699 0.40522 0.436 0.0
C515 C 0.301 0.38844 0.45959 0.0
C516 C 0.31668 0.43384 0.3997 0.0
C517 C 0.2989 0.43447 0.37503 0.0
C518 C 0.3345 0.45441 0.40517 0.0
C519 C 0.35263 0.45549 0.43188 0.0
C520 C 0.3429 0.45285 0.45946 0.0
C521 C 0.36022 0.45175 0.48431 0.0
C522 C 0.3873 0.45416 0.48202 0.0
C523 C 0.39712 0.4575 0.45483 0.0
C524 C 0.37991 0.45811 0.42982 0.0
C525 C 0.30529 0.53542 0.31662 0.0
C526 C 0.33012 0.5399 0.3061 0.0
C527 C 0.30086 0.5134 0.33289 0.0
C528 C 0.32117 0.4956 0.33877 0.0
C529 C 0.34542 0.49939 0.32689 0.0
C530 C 0.34981 0.52121 0.3106 0.0
C531 C 0.31837 0.47433 0.3595 0.0
C532 C 0.3353 0.47417 0.38483 0.0
C533 C 0.2996 0.4545 0.35472 0.0
C534 C 0.28128 0.45369 0.32829 0.0
C535 C 0.29092 0.45391 0.30055 0.0
C536 C 0.27348 0.45323 0.27575 0.0
C537 C 0.24636 0.45213 0.27841 0.0
C538 C 0.23662 0.45165 0.3059 0.0
C539 C 0.25398 0.45235 0.33077 0.0
H540 H 0.23289 0.45159 0.25918 0.0
H541 H 0.40066 0.45344 0.50132 0.0
H542 H 0.08143 0.80982 0.92587 0.0
H543 H 0.04554 0.81643 0.88822 0.0
H544 H 0.04397 0.89672 0.90993 0.0
H545 H 0.07886 0.89001 0.94805 0.0
H546 H 0.99706 0.87991 0.90702 0.0
H547 H 0.06844 0.87317 0.84584 0.0
H548 H 0.10726 0.85342 0.82618 0.0
H549 H 0.06069 0.78837 0.79771 0.0
H550 H 0.0216 0.80765 0.81752 0.0
H551 H 0.92359 0.93215 0.78815 0.0
H552 H 0.96498 0.91728 0.81243 0.0
H553 H 0.93373 0.8408 0.81583 0.0
H554 H 0.89176 0.85563 0.79252 0.0
H555 H 0.99601 0.8523 0.80417 0.0
H556 H 0.92452 0.8623 0.87028 0.0
H557 H 0.88728 0.88716 0.88675 0.0
H558 H 0.93802 0.95203 0.90318 0.0
H559 H 0.97545 0.92764 0.88631 0.0
C560 C 0.0735 0.82888 0.92238 0.0
C561 C 0.08268 0.84934 0.94008 0.0
C562 C 0.05309 0.83267 0.90079 0.0
C563 C 0.04203 0.8571 0.89618 0.0
C564 C 0.05195 0.87765 0.91323 0.0
C565 C 0.07191 0.87379 0.93502 0.0
C566 C 0.01912 0.86131 0.87489 0.0
C567 C 0.99706 0.87392 0.88455 0.0
C568 C 0.01879 0.85332 0.84554 0.0
C569 C 0.04217 0.84172 0.83346 0.0
C570 C 0.06652 0.85456 0.83559 0.0
C571 C 0.08857 0.84347 0.82439 0.0
C572 C 0.08648 0.8196 0.81081 0.0
C573 C 0.06229 0.80683 0.80829 0.0
C574 C 0.04018 0.81785 0.81948 0.0
C575 C 0.92559 0.91208 0.79368 0.0
C576 C 0.90417 0.89519 0.78895 0.0
C577 C 0.94936 0.90358 0.8072 0.0
C578 C 0.95227 0.87801 0.81589 0.0
C579 C 0.93184 0.86057 0.80898 0.0
C580 C 0.90787 0.86912 0.7957 0.0
C581 C 0.97453 0.87089 0.83656 0.0
C582 C 0.99623 0.85787 0.82679 0.0
C583 C 0.97493 0.87891 0.86574 0.0
C584 C 0.95267 0.89324 0.87683 0.0
C585 C 0.92767 0.88192 0.87725 0.0
C586 C 0.90654 0.89591 0.88666 0.0
C587 C 0.91026 0.92118 0.89595 0.0
C588 C 0.93515 0.93247 0.89596 0.0
C589 C 0.95633 0.91856 0.8865 0.0
H590 H 0.89388 0.932 0.90318 0.0
H591 H 0.10359 0.81104 0.80217 0.0
H592 H 0.78843 0.11538 0.9678 0.0
H593 H 0.77933 0.08721 0.9256 0.0
H594 H 0.86075 0.09224 0.90637 0.0
H595 H 0.87004 0.11964 0.9488 0.0
H596 H 0.82184 0.09199 0.85567 0.0
H597 H 0.84771 0.04726 0.94621 0.0
H598 H 0.84202 0.03732 0.99754 0.0
H599 H 0.76411 0.0091 0.97444 0.0
H600 H 0.76908 0.01956 0.923 0.0
H601 H 0.87099 0.98207 0.79314 0.0
H602 H 0.85969 0.01944 0.82113 0.0
H603 H 0.78523 0.98488 0.83745 0.0
H604 H 0.7969 0.94685 0.81012 0.0
H605 H 0.80925 0.00208 0.88636 0.0
H606 H 0.78778 0.03808 0.79359 0.0
H607 H 0.79342 0.04909 0.74256 0.0
H608 H 0.86184 0.09379 0.76881 0.0
H609 H 0.85687 0.08276 0.81999 0.0
C610 C 0.80415 0.11099 0.95405 0.0
C611 C 0.82996 0.11941 0.96152 0.0
C612 C 0.79896 0.09494 0.93006 0.0
C613 C 0.81942 0.08764 0.91304 0.0
C614 C 0.84471 0.09776 0.91919 0.0
C615 C 0.85002 0.11326 0.94347 0.0
C616 C 0.81573 0.06689 0.89141 0.0
C617 C 0.81897 0.07231 0.8622 0.0
C618 C 0.81137 0.04138 0.90005 0.0
C619 C 0.80862 0.03452 0.93084 0.0
C620 C 0.82927 0.03916 0.95211 0.0
C621 C 0.8262 0.0334 0.98122 0.0
C622 C 0.80272 0.02261 0.98926 0.0
C623 C 0.78227 0.01751 0.96819 0.0
C624 C 0.78519 0.02339 0.93906 0.0
C625 C 0.85212 0.98247 0.80251 0.0
C626 C 0.83492 0.96144 0.79957 0.0
C627 C 0.84554 0.00399 0.81825 0.0
C628 C 0.82146 0.00513 0.83115 0.0
C629 C 0.80385 0.98448 0.82755 0.0
C630 C 0.81047 0.96285 0.81178 0.0
C631 C 0.816 0.02696 0.85038 0.0
C632 C 0.81125 0.02175 0.87936 0.0
C633 C 0.81891 0.05268 0.84145 0.0
C634 C 0.822 0.05948 0.81067 0.0
C635 C 0.80414 0.05012 0.78849 0.0
C636 C 0.8072 0.05639 0.75952 0.0
C637 C 0.82799 0.07211 0.75244 0.0
C638 C 0.84574 0.08163 0.77433 0.0
C639 C 0.84277 0.07541 0.80333 0.0
H640 H 0.83033 0.07693 0.73 0.0
H641 H 0.80039 0.01817 0.01181 0.0
H642 H 0.42651 0.27334 0.51754 0.0
H643 H 0.4618 0.2613 0.48706 0.0
H644 H 0.43974 0.32294 0.4282 0.0
H645 H 0.40438 0.33498 0.45828 0.0
H646 H 0.45658 0.27977 0.39949 0.0
H647 H 0.48479 0.33394 0.48165 0.0
H648 H 0.48871 0.3438 0.534 0.0
H649 H 0.53264 0.27463 0.55065 0.0
H650 H 0.52861 0.26423 0.49849 0.0
H651 H 0.56645 0.3403 0.34793 0.0
H652 H 0.52691 0.32513 0.36944 0.0
H653 H 0.57196 0.26505 0.41357 0.0
H654 H 0.6118 0.28026 0.39175 0.0
H655 H 0.54448 0.29498 0.4503 0.0
H656 H 0.52507 0.24815 0.36358 0.0
H657 H 0.52017 0.24049 0.31084 0.0
H658 H 0.45968 0.2976 0.30154 0.0
H659 H 0.46447 0.30592 0.35417 0.0
C660 C 0.42882 0.28401 0.4978 0.0
C661 C 0.41298 0.30543 0.49062 0.0
C662 C 0.44896 0.27707 0.4804 0.0
C663 C 0.45353 0.29143 0.45559 0.0
C664 C 0.43653 0.31161 0.44726 0.0
C665 C 0.41647 0.31861 0.46464 0.0
C666 C 0.47786 0.28786 0.44043 0.0
C667 C 0.47585 0.28295 0.41051 0.0
C668 C 0.50297 0.29151 0.45505 0.0
C669 C 0.50616 0.29817 0.48628 0.0
C670 C 0.49519 0.32081 0.49653 0.0
C671 C 0.49741 0.32649 0.52617 0.0
C672 C 0.51083 0.30984 0.5457 0.0
C673 C 0.52219 0.28753 0.53559 0.0
C674 C 0.51995 0.28172 0.50598 0.0
C675 C 0.56777 0.32355 0.36177 0.0
C676 C 0.59205 0.31146 0.36835 0.0
C677 C 0.54518 0.31479 0.37389 0.0
C678 C 0.54648 0.29384 0.39293 0.0
C679 C 0.57056 0.28114 0.39876 0.0
C680 C 0.5932 0.28974 0.38628 0.0
C681 C 0.52327 0.28752 0.40907 0.0
C682 C 0.52541 0.29083 0.43928 0.0
C683 C 0.4983 0.28268 0.3946 0.0
C684 C 0.49522 0.27772 0.36288 0.0
C685 C 0.51084 0.25922 0.35028 0.0
C686 C 0.50806 0.25473 0.32039 0.0
C687 C 0.48964 0.26856 0.30285 0.0
C688 C 0.47393 0.28689 0.31516 0.0
C689 C 0.47664 0.29146 0.34504 0.0
H690 H 0.48752 0.26507 0.27971 0.0
H691 H 0.51243 0.31428 0.56862 0.0
H692 H 0.21188 0.9212 0.97796 0.0
H693 H 0.21909 0.96329 0.95666 0.0
H694 H 0.13853 0.96438 0.9207 0.0
H695 H 0.13123 0.92233 0.94147 0.0
H696 H 0.17137 0.98544 0.88351 0.0
H697 H 0.15472 0.99245 0.98488 0.0
H698 H 0.16347 0.98199 0.03674 0.0
H699 H 0.24161 0.01268 0.0353 0.0
H700 H 0.23341 0.023 0.98333 0.0
H701 H 0.13116 0.11382 0.87672 0.0
H702 H 0.13788 0.06878 0.88889 0.0
H703 H 0.21943 0.08402 0.91504 0.0
H704 H 0.21274 0.12948 0.90313 0.0
H705 H 0.19387 0.05428 0.95512 0.0
H706 H 0.206 0.05359 0.85358 0.0
H707 H 0.19501 0.06349 0.80195 0.0
H708 H 0.12298 0.02096 0.80385 0.0
H709 H 0.13334 0.01112 0.85562 0.0
C710 C 0.19584 0.93019 0.96507 0.0
C711 C 0.17087 0.91857 0.96177 0.0
C712 C 0.19998 0.95427 0.95299 0.0
C713 C 0.17922 0.96711 0.93749 0.0
C714 C 0.15479 0.95485 0.93265 0.0
C715 C 0.15063 0.93085 0.9447 0.0
C716 C 0.18202 0.99411 0.92838 0.0
C717 C 0.17628 0.00051 0.89913 0.0
C718 C 0.18886 0.0137 0.94873 0.0
C719 C 0.19355 0.00826 0.98018 0.0
C720 C 0.1738 0.99687 0.99562 0.0
C721 C 0.17866 0.99096 0.02503 0.0
C722 C 0.2031 0.9966 0.03931 0.0
C723 C 0.22269 0.00828 0.02424 0.0
C724 C 0.21795 0.01419 0.9948 0.0
C725 C 0.15053 0.10764 0.88515 0.0
C726 C 0.17142 0.1252 0.88908 0.0
C727 C 0.15439 0.08185 0.89186 0.0
C728 C 0.17921 0.07303 0.90261 0.0
C729 C 0.20015 0.09046 0.90664 0.0
C730 C 0.19635 0.11634 0.8997 0.0
C731 C 0.18278 0.04567 0.91028 0.0
C732 C 0.18958 0.0392 0.93933 0.0
C733 C 0.17662 0.02604 0.88978 0.0
C734 C 0.17039 0.03175 0.85856 0.0
C735 C 0.18773 0.04649 0.84305 0.0
C736 C 0.18162 0.05207 0.81375 0.0
C737 C 0.15829 0.04289 0.79964 0.0
C738 C 0.14104 0.02806 0.81481 0.0
C739 C 0.14705 0.02245 0.84412 0.0
H740 H 0.15359 0.04724 0.77695 0.0
H741 H 0.20679 0.99195 0.06205 0.0
H742 H 0.54732 0.65509 0.46166 0.0
H743 H 0.51254 0.64896 0.42347 0.0
H744 H 0.56251 0.67965 0.36049 0.0
H745 H 0.59794 0.68611 0.3992 0.0
H746 H 0.50428 0.69442 0.35485 0.0
H747 H 0.56066 0.62161 0.35755 0.0
H748 H 0.58878 0.58829 0.38141 0.0
H749 H 0.52228 0.55782 0.4219 0.0
H750 H 0.4938 0.59118 0.39859 0.0
H751 H 0.40276 0.62727 0.26007 0.0
H752 H 0.44565 0.64459 0.27881 0.0
H753 H 0.42998 0.62055 0.36512 0.0
H754 H 0.38718 0.60408 0.34696 0.0
H755 H 0.47882 0.60293 0.34546 0.0
H756 H 0.42561 0.68047 0.34987 0.0
H757 H 0.39751 0.71476 0.32796 0.0
H758 H 0.45869 0.73617 0.27351 0.0
H759 H 0.48703 0.70174 0.29486 0.0
C760 C 0.55095 0.66082 0.43977 0.0
C761 C 0.57552 0.67068 0.43331 0.0
C762 C 0.53099 0.65738 0.41799 0.0
C763 C 0.53515 0.66347 0.38917 0.0
C764 C 0.55905 0.67478 0.38267 0.0
C765 C 0.5792 0.67842 0.40472 0.0
C766 C 0.51492 0.65567 0.36627 0.0
C767 C 0.4991 0.6744 0.35199 0.0
C768 C 0.5082 0.62953 0.36276 0.0
C769 C 0.52509 0.60898 0.37634 0.0
C770 C 0.55204 0.60788 0.37164 0.0
C771 C 0.56806 0.58898 0.38507 0.0
C772 C 0.55734 0.57097 0.4032 0.0
C773 C 0.53055 0.57178 0.40783 0.0
C774 C 0.51445 0.59065 0.39445 0.0
C775 C 0.40831 0.62611 0.28311 0.0
C776 C 0.39175 0.61391 0.30196 0.0
C777 C 0.43283 0.63588 0.29372 0.0
C778 C 0.44103 0.63352 0.32326 0.0
C779 C 0.42413 0.62223 0.34217 0.0
C780 C 0.39971 0.61272 0.33171 0.0
C781 C 0.46755 0.64171 0.33496 0.0
C782 C 0.48451 0.62291 0.34727 0.0
C783 C 0.47532 0.6677 0.33641 0.0
C784 C 0.45827 0.68832 0.32363 0.0
C785 C 0.43296 0.69231 0.333 0.0
C786 C 0.41702 0.71181 0.32074 0.0
C787 C 0.42627 0.72757 0.29927 0.0
C788 C 0.45152 0.72391 0.29008 0.0
C789 C 0.46753 0.70441 0.30225 0.0
H790 H 0.41391 0.74266 0.28981 0.0
H791 H 0.56977 0.55638 0.41365 0.0
H792 H 0.29831 0.41647 0.56574 0.0
H793 H 0.29244 0.45774 0.58915 0.0
H794 H 0.37285 0.45551 0.62541 0.0
H795 H 0.37898 0.41413 0.60205 0.0
H796 H 0.33775 0.47104 0.66551 0.0
H797 H 0.36137 0.49823 0.56985 0.0
H798 H 0.35838 0.49848 0.51634 0.0
H799 H 0.27538 0.5132 0.51484 0.0
H800 H 0.27814 0.51395 0.56847 0.0
H801 H 0.3724 0.60085 0.68956 0.0
H802 H 0.36661 0.55575 0.67663 0.0
H803 H 0.28597 0.57049 0.64608 0.0
H804 H 0.29177 0.61585 0.6592 0.0
H805 H 0.31483 0.54741 0.60511 0.0
H806 H 0.29764 0.53283 0.70353 0.0
H807 H 0.30496 0.53597 0.75673 0.0
H808 H 0.37896 0.49722 0.75377 0.0
H809 H 0.37229 0.49418 0.70049 0.0
C810 C 0.31476 0.42466 0.57878 0.0
C811 C 0.33917 0.41201 0.58194 0.0
C812 C 0.31137 0.44831 0.59205 0.0
C813 C 0.33226 0.45974 0.60883 0.0
C814 C 0.35649 0.44698 0.61253 0.0
C815 C 0.35997 0.42339 0.59908 0.0
C816 C 0.32894 0.48521 0.62214 0.0
C817 C 0.33288 0.48781 0.65237 0.0
C818 C 0.32191 0.50689 0.60505 0.0
C819 C 0.3199 0.50584 0.573 0.0
C820 C 0.34247 0.50136 0.55805 0.0
C821 C 0.34084 0.50143 0.52774 0.0
C822 C 0.31664 0.5055 0.51217 0.0
C823 C 0.29409 0.50992 0.52692 0.0
C824 C 0.29571 0.51031 0.55727 0.0
C825 C 0.35328 0.5943 0.68069 0.0
C826 C 0.33253 0.6117 0.67525 0.0
C827 C 0.34994 0.56855 0.67345 0.0
C828 C 0.32582 0.55976 0.66051 0.0
C829 C 0.30469 0.57691 0.65617 0.0
C830 C 0.30796 0.6027 0.66376 0.0
C831 C 0.32394 0.53346 0.64858 0.0
C832 C 0.31911 0.53064 0.61847 0.0
C833 C 0.33042 0.51169 0.66586 0.0
C834 C 0.33453 0.51343 0.69795 0.0
C835 C 0.31558 0.52516 0.71418 0.0
C836 C 0.31959 0.52689 0.74437 0.0
C837 C 0.34243 0.51684 0.75862 0.0
C838 C 0.36128 0.505 0.74271 0.0
C839 C 0.35737 0.50324 0.71251 0.0
H840 H 0.3455 0.5182 0.78199 0.0
H841 H 0.31541 0.50538 0.48868 0.0
H842 H 0.09208 0.86241 0.08709 0.0
H843 H 0.05641 0.85354 0.11828 0.0
H844 H 0.03843 0.78367 0.07119 0.0
H845 H 0.07427 0.79207 0.04038 0.0
H846 H 0.00636 0.85171 0.10221 0.0
H847 H 0.00989 0.74037 0.11332 0.0
H848 H 0.04334 0.70633 0.11877 0.0
H849 H 0.10011 0.76038 0.15507 0.0
H850 H 0.06694 0.79466 0.15033 0.0
H851 H 0.88239 0.80899 0.11899 0.0
H852 H 0.92682 0.80421 0.10302 0.0
H853 H 0.95789 0.79846 0.19214 0.0
H854 H 0.91315 0.80298 0.2082 0.0
H855 H 0.98692 0.7692 0.14949 0.0
H856 H 0.95681 0.85376 0.17025 0.0
H857 H 0.92399 0.88845 0.16819 0.0
H858 H 0.92419 0.89043 0.07533 0.0
H859 H 0.9568 0.85548 0.07684 0.0
C860 C 0.08078 0.84497 0.08363 0.0
C861 C 0.08589 0.82807 0.06105 0.0
C862 C 0.0604 0.83993 0.10149 0.0
C863 C 0.04481 0.81788 0.09719 0.0
C864 C 0.05044 0.80058 0.07528 0.0
C865 C 0.07086 0.80554 0.0575 0.0
C866 C 0.02114 0.81411 0.11361 0.0
C867 C 0.00235 0.83374 0.11278 0.0
C868 C 0.01595 0.7908 0.12782 0.0
C869 C 0.03592 0.77015 0.13124 0.0
C870 C 0.02946 0.74498 0.12264 0.0
C871 C 0.0484 0.72563 0.12558 0.0
C872 C 0.07387 0.7312 0.1372 0.0
C873 C 0.08042 0.75611 0.146 0.0
C874 C 0.06156 0.77551 0.14315 0.0
C875 C 0.89858 0.80553 0.13505 0.0
C876 C 0.89457 0.80635 0.16473 0.0
C877 C 0.92391 0.80289 0.12597 0.0
C878 C 0.94557 0.80137 0.14646 0.0
C879 C 0.94135 0.79954 0.17606 0.0
C880 C 0.91587 0.80207 0.18519 0.0
C881 C 0.97221 0.80645 0.13707 0.0
C882 C 0.99134 0.78719 0.13921 0.0
C883 C 0.97811 0.83032 0.12466 0.0
C884 C 0.9591 0.85188 0.12365 0.0
C885 C 0.94976 0.86151 0.14938 0.0
C886 C 0.9312 0.88123 0.14832 0.0
C887 C 0.92194 0.89159 0.12164 0.0
C888 C 0.93136 0.88236 0.09598 0.0
C889 C 0.94992 0.86263 0.09693 0.0
H890 H 0.9075 0.9068 0.12086 0.0
H891 H 0.08851 0.71621 0.13942 0.0
H892 H 0.70502 0.63119 0.58381 0.0
H893 H 0.71595 0.60231 0.62501 0.0
H894 H 0.64484 0.55946 0.60331 0.0
H895 H 0.63379 0.58776 0.56263 0.0
H896 H 0.68617 0.58806 0.67399 0.0
H897 H 0.65975 0.49761 0.60591 0.0
H898 H 0.66061 0.48337 0.5551 0.0
H899 H 0.72464 0.53474 0.5427 0.0
H900 H 0.72441 0.54907 0.59352 0.0
H901 H 0.63543 0.48223 0.74628 0.0
H902 H 0.64713 0.51867 0.71661 0.0
H903 H 0.72114 0.48281 0.70171 0.0
H904 H 0.70943 0.44618 0.73141 0.0
H905 H 0.69296 0.49556 0.65151 0.0
H906 H 0.72219 0.53759 0.73889 0.0
H907 H 0.72018 0.55255 0.78926 0.0
H908 H 0.6523 0.59805 0.76375 0.0
H909 H 0.65363 0.58308 0.7133 0.0
C910 C 0.69169 0.61568 0.58796 0.0
C911 C 0.66867 0.61166 0.56973 0.0
C912 C 0.69793 0.59928 0.6115 0.0
C913 C 0.68136 0.5786 0.61686 0.0
C914 C 0.65806 0.5751 0.59926 0.0
C915 C 0.65179 0.59139 0.57599 0.0
C916 C 0.68818 0.55992 0.64026 0.0
C917 C 0.68805 0.56786 0.66923 0.0
C918 C 0.69108 0.53366 0.63388 0.0
C919 C 0.69202 0.52445 0.60355 0.0
C920 C 0.67418 0.5057 0.59244 0.0
C921 C 0.67452 0.49765 0.56361 0.0
C922 C 0.69267 0.50814 0.54569 0.0
C923 C 0.71057 0.52666 0.55659 0.0
C924 C 0.71033 0.53476 0.5854 0.0
C925 C 0.65441 0.48238 0.73714 0.0
C926 C 0.67149 0.46139 0.74101 0.0
C927 C 0.66117 0.50327 0.72038 0.0
C928 C 0.68507 0.50351 0.70708 0.0
C929 C 0.70267 0.48305 0.71193 0.0
C930 C 0.69602 0.46223 0.72897 0.0
C931 C 0.68989 0.52352 0.68536 0.0
C932 C 0.69195 0.5158 0.65654 0.0
C933 C 0.68884 0.54993 0.69196 0.0
C934 C 0.68797 0.55911 0.72228 0.0
C935 C 0.70672 0.55065 0.74404 0.0
C936 C 0.70572 0.55916 0.77261 0.0
C937 C 0.68611 0.57622 0.77971 0.0
C938 C 0.66749 0.58485 0.75822 0.0
C939 C 0.66839 0.57639 0.72961 0.0
H940 H 0.68537 0.58278 0.80184 0.0
H941 H 0.69289 0.5019 0.52339 0.0
H942 H 0.94798 0.13658 0.08109 0.0
H943 H 0.98034 0.12668 0.12062 0.0
H944 H 0.93486 0.16801 0.18031 0.0
H945 H 0.9021 0.17851 0.14028 0.0
H946 H 0.98837 0.17715 0.1899 0.0
H947 H 0.93271 0.105 0.18224 0.0
H948 H 0.90577 0.07126 0.15738 0.0
H949 H 0.97497 0.03861 0.12469 0.0
H950 H 0.00233 0.07243 0.14892 0.0
H951 H 0.08342 0.11147 0.293 0.0
H952 H 0.04074 0.12587 0.27061 0.0
H953 H 0.06585 0.10749 0.18605 0.0
H954 H 0.10867 0.09443 0.20774 0.0
H955 H 0.01446 0.08604 0.20127 0.0
H956 H 0.06671 0.1652 0.20157 0.0
H957 H 0.09262 0.19967 0.22647 0.0
H958 H 0.02716 0.21824 0.27603 0.0
H959 H 0.00099 0.18359 0.25166 0.0
C960 C 0.94474 0.1437 0.10255 0.0
C961 C 0.9223 0.15817 0.10756 0.0
C962 C 0.96328 0.13792 0.12518 0.0
C963 C 0.95971 0.14613 0.1535 0.0
C964 C 0.93783 0.16134 0.15861 0.0
C965 C 0.91918 0.1673 0.13576 0.0
C966 C 0.97908 0.13829 0.17733 0.0
C967 C 0.99363 0.15718 0.19301 0.0
C968 C 0.98582 0.1122 0.1815 0.0
C969 C 0.96959 0.09135 0.16738 0.0
C970 C 0.9422 0.0907 0.16965 0.0
C971 C 0.92684 0.07156 0.15566 0.0
C972 C 0.93865 0.05282 0.13946 0.0
C973 C 0.96586 0.05314 0.13728 0.0
C974 C 0.98132 0.07227 0.15119 0.0
C975 C 0.07999 0.11085 0.26961 0.0
C976 C 0.09942 0.1014 0.25224 0.0
C977 C 0.05555 0.1189 0.25693 0.0
C978 C 0.05016 0.1174 0.22677 0.0
C979 C 0.06957 0.10842 0.20942 0.0
C980 C 0.094 0.1008 0.22194 0.0
C981 C 0.02436 0.12497 0.21268 0.0
C982 C 0.00861 0.10592 0.19886 0.0
C983 C 0.01633 0.1508 0.21061 0.0
C984 C 0.03205 0.1716 0.22513 0.0
C985 C 0.05795 0.17646 0.218 0.0
C986 C 0.07266 0.19606 0.23196 0.0
C987 C 0.06158 0.21107 0.2529 0.0
C988 C 0.03574 0.20655 0.25986 0.0
C989 C 0.02097 0.18695 0.24598 0.0
H990 H 0.07299 0.22625 0.26368 0.0
H991 H 0.92673 0.03805 0.12862 0.0
H992 H 0.15642 0.76147 0.06005 0.0
H993 H 0.17818 0.72918 0.09151 0.0
H994 H 0.25269 0.76726 0.08481 0.0
H995 H 0.23119 0.79935 0.05282 0.0
H996 H 0.25787 0.71736 0.07777 0.0
H997 H 0.21911 0.77117 0.14713 0.0
H998 H 0.18312 0.79472 0.16806 0.0
H999 H 0.14095 0.72443 0.17778 0.0
H1000 H 0.17662 0.70046 0.15667 0.0
H1001 H 0.33047 0.65117 0.1908 0.0
H1002 H 0.30764 0.68508 0.16224 0.0
H1003 H 0.2343 0.64415 0.16562 0.0
H1004 H 0.25715 0.61031 0.19442 0.0
H1005 H 0.22821 0.69532 0.1746 0.0
H1006 H 0.2673 0.64167 0.10524 0.0
H1007 H 0.30333 0.61837 0.08409 0.0
H1008 H 0.3449 0.68897 0.07402 0.0
H1009 H 0.30925 0.71266 0.09551 0.0
C1010 C 0.17743 0.76305 0.06532 0.0
C1011 C 0.19206 0.78299 0.05383 0.0
C1012 C 0.18982 0.74462 0.08345 0.0
C1013 C 0.21703 0.74594 0.09078 0.0
C1014 C 0.23167 0.76586 0.07944 0.0
C1015 C 0.21933 0.78422 0.06118 0.0
C1016 C 0.2304 0.72615 0.10961 0.0
C1017 C 0.25163 0.71283 0.09913 0.0
C1018 C 0.22183 0.71976 0.13717 0.0
C1019 C 0.20045 0.73406 0.15012 0.0
C1020 C 0.2021 0.76075 0.15358 0.0
C1021 C 0.18178 0.77417 0.16552 0.0
C1022 C 0.15977 0.76108 0.17424 0.0
C1023 C 0.15803 0.73453 0.17106 0.0
C1024 C 0.17832 0.72102 0.15915 0.0
C1025 C 0.3095 0.64945 0.18531 0.0
C1026 C 0.2956 0.62794 0.19409 0.0
C1027 C 0.29649 0.66876 0.16904 0.0
C1028 C 0.26935 0.66691 0.16139 0.0
C1029 C 0.25527 0.64586 0.17111 0.0
C1030 C 0.26831 0.62653 0.18738 0.0
C1031 C 0.25578 0.68671 0.1428 0.0
C1032 C 0.23448 0.69995 0.15328 0.0
C1033 C 0.2643 0.69309 0.11524 0.0
C1034 C 0.28573 0.6789 0.10225 0.0
C1035 C 0.28422 0.6522 0.09874 0.0
C1036 C 0.30456 0.63893 0.08665 0.0
C1037 C 0.32642 0.65217 0.07779 0.0
C1038 C 0.32797 0.67873 0.08094 0.0
C1039 C 0.30769 0.69209 0.09305 0.0
H1040 H 0.34214 0.64187 0.06843 0.0
H1041 H 0.14408 0.77151 0.18351 0.0
H1042 H 0.65792 0.74327 0.55835 0.0
H1043 H 0.6813 0.77133 0.59362 0.0
H1044 H 0.75427 0.73321 0.5794 0.0
H1045 H 0.73092 0.70466 0.54424 0.0
H1046 H 0.74886 0.74019 0.63633 0.0
H1047 H 0.74136 0.79242 0.5512 0.0
H1048 H 0.71847 0.81323 0.50863 0.0
H1049 H 0.6699 0.85481 0.56434 0.0
H1050 H 0.69224 0.83397 0.60724 0.0
H1051 H 0.82676 0.83285 0.71656 0.0
H1052 H 0.80815 0.80554 0.67696 0.0
H1053 H 0.73185 0.8396 0.68463 0.0
H1054 H 0.75058 0.8672 0.72378 0.0
H1055 H 0.74186 0.83467 0.62895 0.0
H1056 H 0.74734 0.78045 0.71357 0.0
H1057 H 0.7697 0.75928 0.75623 0.0
H1058 H 0.82184 0.72132 0.70134 0.0
H1059 H 0.8 0.74254 0.65837 0.0
C1060 C 0.67896 0.74087 0.56256 0.0
C1061 C 0.69256 0.72178 0.5483 0.0
C1062 C 0.69232 0.75702 0.58268 0.0
C1063 C 0.71959 0.75462 0.58883 0.0
C1064 C 0.73323 0.73546 0.57487 0.0
C1065 C 0.71986 0.71921 0.55473 0.0
C1066 C 0.73364 0.77179 0.61034 0.0
C1067 C 0.74773 0.76086 0.63446 0.0
C1068 C 0.73171 0.79875 0.60818 0.0
C1069 C 0.71835 0.81147 0.58243 0.0
C1070 C 0.72567 0.80586 0.55436 0.0
C1071 C 0.71282 0.81769 0.53018 0.0
C1072 C 0.69271 0.83529 0.53378 0.0
C1073 C 0.68546 0.84116 0.56159 0.0
C1074 C 0.69824 0.82937 0.58585 0.0
C1075 C 0.80603 0.8344 0.70969 0.0
C1076 C 0.78997 0.85176 0.72336 0.0
C1077 C 0.79541 0.81881 0.6872 0.0
C1078 C 0.76851 0.82025 0.67815 0.0
C1079 C 0.75262 0.83809 0.69134 0.0
C1080 C 0.76326 0.85375 0.71374 0.0
C1081 C 0.75681 0.80307 0.65511 0.0
C1082 C 0.74317 0.81401 0.63069 0.0
C1083 C 0.75913 0.77612 0.65701 0.0
C1084 C 0.77222 0.76329 0.68281 0.0
C1085 C 0.76371 0.76774 0.71063 0.0
C1086 C 0.77626 0.75571 0.73486 0.0
C1087 C 0.79723 0.73902 0.73151 0.0
C1088 C 0.80563 0.73428 0.70391 0.0
C1089 C 0.79316 0.74629 0.67961 0.0
H1090 H 0.80692 0.72972 0.75029 0.0
H1091 H 0.68277 0.84442 0.51502 0.0
H1092 H 0.78194 0.15781 0.11272 0.0
H1093 H 0.75658 0.1735 0.15201 0.0
H1094 H 0.80825 0.23875 0.16305 0.0
H1095 H 0.83378 0.22323 0.12398 0.0
H1096 H 0.79392 0.21939 0.21558 0.0
H1097 H 0.75258 0.24448 0.12228 0.0
H1098 H 0.73292 0.23648 0.07274 0.0
H1099 H 0.67385 0.18875 0.10686 0.0
H1100 H 0.69343 0.19618 0.15661 0.0
H1101 H 0.71626 0.31738 0.27212 0.0
H1102 H 0.74448 0.28953 0.24516 0.0
H1103 H 0.68309 0.23239 0.23819 0.0
H1104 H 0.65479 0.26039 0.26495 0.0
H1105 H 0.70119 0.24221 0.18652 0.0
H1106 H 0.73927 0.222 0.28081 0.0
H1107 H 0.75904 0.23037 0.33019 0.0
H1108 H 0.82399 0.26893 0.29495 0.0
H1109 H 0.80442 0.26113 0.24532 0.0
C1110 C 0.78814 0.17532 0.12376 0.0
C1111 C 0.80967 0.18947 0.11493 0.0
C1112 C 0.77361 0.18425 0.14618 0.0
C1113 C 0.78038 0.20743 0.16016 0.0
C1114 C 0.80269 0.22083 0.15249 0.0
C1115 C 0.81715 0.212 0.13002 0.0
C1116 C 0.76312 0.21886 0.1811 0.0
C1117 C 0.77367 0.2245 0.20928 0.0
C1118 C 0.73655 0.22496 0.17297 0.0
C1119 C 0.72465 0.22063 0.14311 0.0
C1120 C 0.73553 0.23212 0.11919 0.0
C1121 C 0.72438 0.22771 0.09108 0.0
C1122 C 0.7022 0.21205 0.08665 0.0
C1123 C 0.69107 0.20083 0.11033 0.0
C1124 C 0.70218 0.20513 0.13848 0.0
C1125 C 0.70898 0.29877 0.26501 0.0
C1126 C 0.6833 0.29112 0.27005 0.0
C1127 C 0.72511 0.28281 0.24981 0.0
C1128 C 0.71591 0.25883 0.23974 0.0
C1129 C 0.69055 0.25083 0.2457 0.0
C1130 C 0.67442 0.26678 0.26093 0.0
C1131 C 0.732 0.24308 0.22107 0.0
C1132 C 0.72127 0.23672 0.19316 0.0
C1133 C 0.75838 0.23638 0.2295 0.0
C1134 C 0.77025 0.24114 0.25932 0.0
C1135 C 0.75766 0.23245 0.28357 0.0
C1136 C 0.76885 0.23706 0.31162 0.0
C1137 C 0.79273 0.25022 0.31571 0.0
C1138 C 0.80549 0.25875 0.29175 0.0
C1139 C 0.79436 0.25421 0.26365 0.0
H1140 H 0.80137 0.25376 0.33744 0.0
H1141 H 0.69359 0.20867 0.06487 0.0
H1142 H 0.33045 0.27045 0.62446 0.0
H1143 H 0.3114 0.25744 0.66895 0.0
H1144 H 0.26965 0.32904 0.67105 0.0
H1145 H 0.28889 0.34247 0.62635 0.0
H1146 H 0.292 0.31494 0.72503 0.0
H1147 H 0.23673 0.27722 0.64883 0.0
H1148 H 0.22645 0.25267 0.60386 0.0
H1149 H 0.26112 0.18554 0.64413 0.0
H1150 H 0.27198 0.20979 0.68923 0.0
H1151 H 0.20645 0.26795 0.83024 0.0
H1152 H 0.22435 0.28679 0.78718 0.0
H1153 H 0.26911 0.21803 0.77544 0.0
H1154 H 0.25111 0.19919 0.8184 0.0
H1155 H 0.24223 0.23328 0.72559 0.0
H1156 H 0.29923 0.27206 0.80116 0.0
H1157 H 0.30954 0.29701 0.84584 0.0
H1158 H 0.27076 0.36256 0.80656 0.0
H1159 H 0.25989 0.33788 0.76175 0.0
C1160 C 0.31725 0.28353 0.6343 0.0
C1161 C 0.311 0.30743 0.62163 0.0
C1162 C 0.30633 0.276 0.65974 0.0
C1163 C 0.28882 0.29212 0.67304 0.0
C1164 C 0.28304 0.31629 0.661 0.0
C1165 C 0.29398 0.32387 0.63543 0.0
C1166 C 0.2764 0.28332 0.69928 0.0
C1167 C 0.28072 0.29732 0.72509 0.0
C1168 C 0.26203 0.26014 0.69937 0.0
C1169 C 0.25536 0.2454 0.67235 0.0
C1170 C 0.24234 0.25727 0.64804 0.0
C1171 C 0.23638 0.2434 0.62253 0.0
C1172 C 0.24318 0.21757 0.62112 0.0
C1173 C 0.25589 0.20555 0.64525 0.0
C1174 C 0.26192 0.21935 0.6708 0.0
C1175 C 0.22046 0.25711 0.81867 0.0
C1176 C 0.22791 0.23238 0.82784 0.0
C1177 C 0.23064 0.26784 0.79414 0.0
C1178 C 0.24826 0.2539 0.7783 0.0
C1179 C 0.25563 0.22915 0.78744 0.0
C1180 C 0.24552 0.21847 0.81199 0.0
C1181 C 0.25826 0.26461 0.75152 0.0
C1182 C 0.25337 0.25099 0.72553 0.0
C1183 C 0.27198 0.28817 0.7513 0.0
C1184 C 0.27849 0.30303 0.77822 0.0
C1185 C 0.29269 0.29172 0.80214 0.0
C1186 C 0.29868 0.30583 0.82747 0.0
C1187 C 0.29074 0.33133 0.82907 0.0
C1188 C 0.27685 0.3428 0.8053 0.0
C1189 C 0.27079 0.32876 0.77993 0.0
H1190 H 0.2954 0.34223 0.84869 0.0
H1191 H 0.23856 0.20687 0.60135 0.0
H1192 H 0.66862 0.73431 0.42467 0.0
H1193 H 0.68711 0.74884 0.38028 0.0
H1194 H 0.72928 0.6777 0.3751 0.0
H1195 H 0.71109 0.66304 0.41973 0.0
H1196 H 0.76021 0.71866 0.36514 0.0
H1197 H 0.67496 0.68801 0.33141 0.0
H1198 H 0.62668 0.68449 0.33119 0.0
H1199 H 0.61897 0.76444 0.31111 0.0
H1200 H 0.66726 0.76856 0.31174 0.0
H1201 H 0.79877 0.74013 0.22299 0.0
H1202 H 0.77777 0.7208 0.26381 0.0
H1203 H 0.73292 0.78984 0.27351 0.0
H1204 H 0.75362 0.80899 0.23237 0.0
H1205 H 0.70287 0.74745 0.2799 0.0
H1206 H 0.788 0.77848 0.31678 0.0
H1207 H 0.83633 0.78234 0.31826 0.0
H1208 H 0.84405 0.7015 0.3329 0.0
H1209 H 0.79572 0.6971 0.33109 0.0
C1210 C 0.68185 0.72173 0.41416 0.0
C1211 C 0.68837 0.6975 0.42579 0.0
C1212 C 0.6923 0.73003 0.38869 0.0
C1213 C 0.70932 0.71422 0.37424 0.0
C1214 C 0.71612 0.69016 0.38591 0.0
C1215 C 0.70567 0.68181 0.41139 0.0
C1216 C 0.72027 0.723 0.34711 0.0
C1217 C 0.74769 0.72455 0.34631 0.0
C1218 C 0.70387 0.73114 0.3228 0.0
C1219 C 0.67477 0.72864 0.32187 0.0
C1220 C 0.66299 0.70489 0.32714 0.0
C1221 C 0.63561 0.70278 0.32693 0.0
C1222 C 0.61977 0.72423 0.3212 0.0
C1223 C 0.63127 0.74783 0.31557 0.0
C1224 C 0.65865 0.75007 0.31583 0.0
C1225 C 0.78411 0.75094 0.23361 0.0
C1226 C 0.77743 0.77584 0.2244 0.0
C1227 C 0.77226 0.74 0.25697 0.0
C1228 C 0.75392 0.75396 0.27181 0.0
C1229 C 0.74692 0.77869 0.26228 0.0
C1230 C 0.75872 0.78961 0.23887 0.0
C1231 C 0.74282 0.74325 0.29801 0.0
C1232 C 0.71538 0.74137 0.29865 0.0
C1233 C 0.75918 0.73479 0.32221 0.0
C1234 C 0.78825 0.73742 0.32349 0.0
C1235 C 0.8 0.7615 0.32009 0.0
C1236 C 0.82739 0.76379 0.32103 0.0
C1237 C 0.84325 0.74217 0.32559 0.0
C1238 C 0.83174 0.71822 0.32932 0.0
C1239 C 0.80435 0.71582 0.32836 0.0
H1240 H 0.86446 0.74398 0.32631 0.0
H1241 H 0.59858 0.72256 0.32107 0.0
H1242 H 0.77193 0.20337 0.99476 0.0
H1243 H 0.74984 0.23282 0.95989 0.0
H1244 H 0.82031 0.2787 0.96049 0.0
H1245 H 0.8426 0.24944 0.99544 0.0
H1246 H 0.77483 0.30795 0.96168 0.0
H1247 H 0.80756 0.23784 0.90717 0.0
H1248 H 0.81296 0.19226 0.89525 0.0
H1249 H 0.72945 0.18484 0.87683 0.0
H1250 H 0.72351 0.2303 0.88913 0.0
H1251 H 0.75165 0.37683 0.83001 0.0
H1252 H 0.76932 0.34968 0.87003 0.0
H1253 H 0.69941 0.30275 0.86091 0.0
H1254 H 0.68193 0.32974 0.82049 0.0
H1255 H 0.74264 0.27377 0.86532 0.0
H1256 H 0.70979 0.34428 0.9176 0.0
H1257 H 0.70406 0.38956 0.93061 0.0
H1258 H 0.78696 0.39623 0.9538 0.0
H1259 H 0.79326 0.35106 0.94053 0.0
C1260 C 0.7827 0.21983 0.9877 0.0
C1261 C 0.8091 0.22396 0.9978 0.0
C1262 C 0.77005 0.2366 0.96772 0.0
C1263 C 0.78355 0.25777 0.95744 0.0
C1264 C 0.80958 0.26245 0.96817 0.0
C1265 C 0.8223 0.24563 0.98806 0.0
C1266 C 0.77091 0.27447 0.9346 0.0
C1267 C 0.76801 0.30058 0.9405 0.0
C1268 C 0.7615 0.26464 0.90725 0.0
C1269 C 0.76507 0.23741 0.89936 0.0
C1270 C 0.79033 0.22644 0.90078 0.0
C1271 C 0.79349 0.20064 0.89394 0.0
C1272 C 0.77155 0.18564 0.88537 0.0
C1273 C 0.74642 0.19646 0.88352 0.0
C1274 C 0.74314 0.22226 0.89041 0.0
C1275 C 0.74012 0.36072 0.83663 0.0
C1276 C 0.71566 0.35505 0.82204 0.0
C1277 C 0.75011 0.34533 0.85956 0.0
C1278 C 0.73561 0.32426 0.86858 0.0
C1279 C 0.71095 0.31886 0.85426 0.0
C1280 C 0.70099 0.33423 0.83128 0.0
C1281 C 0.74659 0.3074 0.89229 0.0
C1282 C 0.74926 0.2812 0.88654 0.0
C1283 C 0.75574 0.31716 0.9198 0.0
C1284 C 0.75203 0.34434 0.92781 0.0
C1285 C 0.72684 0.35545 0.92525 0.0
C1286 C 0.72348 0.38109 0.93271 0.0
C1287 C 0.74514 0.39578 0.94296 0.0
C1288 C 0.7702 0.38484 0.94582 0.0
C1289 C 0.77368 0.35921 0.93836 0.0
H1290 H 0.7425 0.41562 0.94873 0.0
H1291 H 0.77404 0.16566 0.88011 0.0
H1292 H 0.33357 0.24327 0.50913 0.0
H1293 H 0.30841 0.21108 0.48065 0.0
H1294 H 0.24398 0.26419 0.46633 0.0
H1295 H 0.26871 0.29621 0.49577 0.0
H1296 H 0.22553 0.21925 0.47797 0.0
H1297 H 0.28771 0.25004 0.41306 0.0
H1298 H 0.33177 0.26103 0.39798 0.0
H1299 H 0.35585 0.18271 0.40858 0.0
H1300 H 0.31202 0.17131 0.42412 0.0
H1301 H 0.15771 0.14996 0.3627 0.0
H1302 H 0.18219 0.18259 0.39179 0.0
H1303 H 0.24511 0.12868 0.41122 0.0
H1304 H 0.22083 0.09625 0.38164 0.0
H1305 H 0.26399 0.1743 0.39658 0.0
H1306 H 0.20108 0.14409 0.46175 0.0
H1307 H 0.15669 0.1338 0.4764 0.0
H1308 H 0.13353 0.21221 0.46406 0.0
H1309 H 0.17769 0.2229 0.44897 0.0
C1310 C 0.31405 0.24813 0.49989 0.0
C1311 C 0.30315 0.27232 0.50463 0.0
C1312 C 0.29973 0.22973 0.48348 0.0
C1313 C 0.27446 0.23533 0.47088 0.0
C1314 C 0.26345 0.25942 0.47577 0.0
C1315 C 0.27762 0.27772 0.49257 0.0
C1316 C 0.25939 0.21598 0.4529 0.0
C1317 C 0.23382 0.2097 0.45991 0.0
C1318 C 0.27037 0.20311 0.42967 0.0
C1319 C 0.29664 0.20987 0.41999 0.0
C1320 C 0.30245 0.23519 0.41234 0.0
C1321 C 0.32738 0.24149 0.40369 0.0
C1322 C 0.34662 0.22259 0.40239 0.0
C1323 C 0.34094 0.19733 0.40963 0.0
C1324 C 0.31604 0.19093 0.41833 0.0
C1325 C 0.17666 0.14512 0.37348 0.0
C1326 C 0.18722 0.12055 0.37053 0.0
C1327 C 0.19059 0.16368 0.39007 0.0
C1328 C 0.2153 0.15794 0.40407 0.0
C1329 C 0.22602 0.13347 0.40076 0.0
C1330 C 0.21212 0.11494 0.38406 0.0
C1331 C 0.23019 0.17758 0.42172 0.0
C1332 C 0.25572 0.1839 0.41462 0.0
C1333 C 0.21912 0.19062 0.44473 0.0
C1334 C 0.19261 0.18424 0.45398 0.0
C1335 C 0.18646 0.1591 0.46196 0.0
C1336 C 0.16135 0.1532 0.47038 0.0
C1337 C 0.14228 0.17233 0.4711 0.0
C1338 C 0.14831 0.19741 0.46347 0.0
C1339 C 0.17338 0.2034 0.45501 0.0
H1340 H 0.12285 0.16772 0.47761 0.0
H1341 H 0.36592 0.22751 0.39571 0.0
H1342 H 0.21615 0.839 0.92709 0.0
H1343 H 0.23605 0.81933 0.88605 0.0
H1344 H 0.18576 0.75338 0.89224 0.0
H1345 H 0.16598 0.7727 0.93348 0.0
H1346 H 0.23564 0.73945 0.88928 0.0
H1347 H 0.17593 0.79503 0.83589 0.0
H1348 H 0.15397 0.83584 0.82288 0.0
H1349 H 0.22788 0.8684 0.80275 0.0
H1350 H 0.25037 0.82784 0.81598 0.0
H1351 H 0.27924 0.67989 0.76439 0.0
H1352 H 0.2492 0.70129 0.79576 0.0
H1353 H 0.29797 0.76892 0.7972 0.0
H1354 H 0.32772 0.74768 0.76548 0.0
H1355 H 0.24555 0.78099 0.79414 0.0
H1356 H 0.30518 0.72594 0.85167 0.0
H1357 H 0.32668 0.68491 0.86489 0.0
H1358 H 0.25143 0.65115 0.8773 0.0
H1359 H 0.22946 0.69192 0.86378 0.0
C1360 C 0.20916 0.82039 0.91961 0.0
C1361 C 0.1896 0.80735 0.93375 0.0
C1362 C 0.22046 0.80924 0.89601 0.0
C1363 C 0.21226 0.78495 0.88597 0.0
C1364 C 0.19238 0.77213 0.89965 0.0
C1365 C 0.1811 0.78323 0.92324 0.0
C1366 C 0.22562 0.77222 0.86245 0.0
C1367 C 0.23736 0.74833 0.86828 0.0
C1368 C 0.22831 0.78403 0.83526 0.0
C1369 C 0.21487 0.80845 0.82717 0.0
C1370 C 0.18754 0.81095 0.8289 0.0
C1371 C 0.17499 0.83403 0.82144 0.0
C1372 C 0.18952 0.85473 0.81207 0.0
C1373 C 0.21665 0.85236 0.81004 0.0
C1374 C 0.22931 0.82931 0.81747 0.0
C1375 C 0.28328 0.69941 0.77123 0.0
C1376 C 0.30593 0.71204 0.76308 0.0
C1377 C 0.26621 0.71159 0.7891 0.0
C1378 C 0.27162 0.73654 0.79919 0.0
C1379 C 0.29349 0.74964 0.78975 0.0
C1380 C 0.31052 0.73749 0.77181 0.0
C1381 C 0.2556 0.74834 0.82112 0.0
C1382 C 0.24351 0.77204 0.81504 0.0
C1383 C 0.25246 0.73634 0.84811 0.0
C1384 C 0.26567 0.71188 0.85642 0.0
C1385 C 0.29321 0.70971 0.85702 0.0
C1386 C 0.30548 0.68651 0.86459 0.0
C1387 C 0.29043 0.66541 0.87185 0.0
C1388 C 0.26307 0.66749 0.87163 0.0
C1389 C 0.2507 0.69064 0.86403 0.0
H1390 H 0.29996 0.64747 0.87771 0.0
H1391 H 0.17976 0.87259 0.80631 0.0
loop_
_geom_bond_atom_site_label_1
_geom_bond_atom_site_label_2
_geom_bond_distance
_geom_bond_site_symmetry_2
_ccdc_geom_bond_type
Fe0 O2 1.918 1_554 S
Fe0 O5 1.997 . S
Fe0 O6 2.002 . S
Fe0 O11 1.976 1_554 S
Fe0 O14 1.996 1_554 S
Fe1 O2 1.918 1_554 S
Fe1 O9 1.997 . S
Fe1 O12 1.996 1_554 S
Fe1 O16 1.976 1_554 S
Fe1 O19 2.002 . S
O2 Fe0 1.918 1_556 S
O2 Fe1 1.918 1_556 S
O2 Fe3 1.918 . S
Fe3 O2 1.918 . S
Fe3 O4 2.002 1_556 S
Fe3 O13 1.976 . S
Fe3 O17 1.996 . S
Fe3 O20 1.997 1_556 S
O4 Fe3 2.002 1_554 S
O4 C21 1.295 . S
O5 Fe0 1.997 . S
O5 C21 1.235 . S
O6 Fe0 2.002 . S
O6 C7 1.295 . S
C7 O6 1.295 . S
C7 O9 1.235 . S
C8 O13 1.287 . S
C8 O14 1.255 . S
O9 Fe1 1.997 . S
O9 C7 1.235 . S
C10 O16 1.287 . S
C10 O17 1.255 . S
O11 Fe0 1.976 1_556 S
O11 C18 1.287 . S
O12 Fe1 1.996 1_556 S
O12 C18 1.255 . S
O13 Fe3 1.976 . S
O13 C8 1.287 . S
O14 Fe0 1.996 1_556 S
O14 C8 1.255 . S
C15 O19 1.295 . S
C15 O20 1.235 . S
O16 Fe1 1.976 1_556 S
O16 C10 1.287 . S
O17 Fe3 1.996 . S
O17 C10 1.255 . S
C18 O11 1.287 . S
C18 O12 1.255 . S
O19 Fe1 2.002 . S
O19 C15 1.295 . S
O20 Fe3 1.997 1_554 S
O20 C15 1.235 . S
C21 O4 1.295 . S
C21 O5 1.235 . S
Fe22 O24 1.918 . S
Fe22 O27 1.997 . S
Fe22 O28 2.002 . S
Fe22 O33 1.976 . S
Fe22 O36 1.996 . S
Fe23 O24 1.918 . S
Fe23 O31 1.997 . S
Fe23 O34 1.996 . S
Fe23 O38 1.976 . S
Fe23 O41 2.002 . S
O24 Fe22 1.918 . S
O24 Fe23 1.918 . S
O24 Fe25 1.918 . S
Fe25 O24 1.918 . S
Fe25 O26 2.002 . S
Fe25 O35 1.976 . S
Fe25 O39 1.996 . S
Fe25 O42 1.997 . S
O26 Fe25 2.002 . S
O26 C43 1.295 . S
O27 Fe22 1.997 . S
O27 C43 1.235 . S
O28 Fe22 2.002 . S
O28 C29 1.295 . S
C29 O28 1.295 . S
C29 O31 1.235 . S
C30 O35 1.287 . S
C30 O36 1.255 . S
O31 Fe23 1.997 . S
O31 C29 1.235 . S
C32 O38 1.287 . S
C32 O39 1.255 . S
O33 Fe22 1.976 . S
O33 C40 1.287 . S
O34 Fe23 1.996 . S
O34 C40 1.255 . S
O35 Fe25 1.976 . S
O35 C30 1.287 . S
O36 Fe22 1.996 . S
O36 C30 1.255 . S
C37 O41 1.295 . S
C37 O42 1.235 . S
O38 Fe23 1.976 . S
O38 C32 1.287 . S
O39 Fe25 1.996 . S
O39 C32 1.255 . S
C40 O33 1.287 . S
C40 O34 1.255 . S
O41 Fe23 2.002 . S
O41 C37 1.295 . S
O42 Fe25 1.997 . S
O42 C37 1.235 . S
C43 O26 1.295 . S
C43 O27 1.235 . S
Fe44 O46 1.918 . S
Fe44 O49 1.997 . S
Fe44 O50 2.002 . S
Fe44 O55 1.976 . S
Fe44 O58 1.996 . S
Fe45 O46 1.918 . S
Fe45 O53 1.997 . S
Fe45 O56 1.996 . S
Fe45 O60 1.976 . S
Fe45 O63 2.002 . S
O46 Fe44 1.918 . S
O46 Fe45 1.918 . S
O46 Fe47 1.918 . S
Fe47 O46 1.918 . S
Fe47 O48 2.002 . S
Fe47 O57 1.976 . S
Fe47 O61 1.996 . S
Fe47 O64 1.997 . S
O48 Fe47 2.002 . S
O48 C65 1.295 . S
O49 Fe44 1.997 . S
O49 C65 1.235 . S
O50 Fe44 2.002 . S
O50 C51 1.295 . S
C51 O50 1.295 . S
C51 O53 1.235 . S
C52 O57 1.287 . S
C52 O58 1.255 . S
O53 Fe45 1.997 . S
O53 C51 1.235 . S
C54 O60 1.287 . S
C54 O61 1.255 . S
O55 Fe44 1.976 . S
O55 C62 1.287 . S
O56 Fe45 1.996 . S
O56 C62 1.255 . S
O57 Fe47 1.976 . S
O57 C52 1.287 . S
O58 Fe44 1.996 . S
O58 C52 1.255 . S
C59 O63 1.295 1_556 S
C59 O64 1.235 1_556 S
O60 Fe45 1.976 . S
O60 C54 1.287 . S
O61 Fe47 1.996 . S
O61 C54 1.255 . S
C62 O55 1.287 . S
C62 O56 1.255 . S
O63 Fe45 2.002 . S
O63 C59 1.295 1_554 S
O64 Fe47 1.997 . S
O64 C59 1.235 1_554 S
C65 O48 1.295 . S
C65 O49 1.235 . S
Fe66 O68 1.918 . S
Fe66 O71 1.997 . S
Fe66 O72 2.002 . S
Fe66 O77 1.976 . S
Fe66 O80 1.996 . S
Fe67 O68 1.918 . S
Fe67 O75 1.997 . S
Fe67 O78 1.996 . S
Fe67 O82 1.976 . S
Fe67 O85 2.002 . S
O68 Fe66 1.918 . S
O68 Fe67 1.918 . S
O68 Fe69 1.918 . S
Fe69 O68 1.918 . S
Fe69 O70 2.002 . S
Fe69 O79 1.976 . S
Fe69 O83 1.996 . S
Fe69 O86 1.997 . S
O70 Fe69 2.002 . S
O70 C87 1.295 . S
O71 Fe66 1.997 . S
O71 C87 1.235 . S
O72 Fe66 2.002 . S
O72 C73 1.295 . S
C73 O72 1.295 . S
C73 O75 1.235 . S
C74 O79 1.287 . S
C74 O80 1.255 . S
O75 Fe67 1.997 . S
O75 C73 1.235 . S
C76 O82 1.287 . S
C76 O83 1.255 . S
O77 Fe66 1.976 . S
O77 C84 1.287 . S
O78 Fe67 1.996 . S
O78 C84 1.255 . S
O79 Fe69 1.976 . S
O79 C74 1.287 . S
O80 Fe66 1.996 . S
O80 C74 1.255 . S
C81 O85 1.295 . S
C81 O86 1.235 . S
O82 Fe67 1.976 . S
O82 C76 1.287 . S
O83 Fe69 1.996 . S
O83 C76 1.255 . S
C84 O77 1.287 . S
C84 O78 1.255 . S
O85 Fe67 2.002 . S
O85 C81 1.295 . S
O86 Fe69 1.997 . S
O86 C81 1.235 . S
C87 O70 1.295 . S
C87 O71 1.235 . S
H88 C95 0.929 . S
H89 C98 0.930 . S
H90 C100 0.929 . S
H91 C92 0.969 . S
C92 H91 0.969 . S
C92 O93 1.550 . S
C92 H94 0.973 . S
O93 C92 1.550 . S
O93 C99 1.412 . S
H94 C92 0.973 . S
C95 H88 0.929 . S
C95 C96 1.400 . S
C95 C97 1.364 . S
C96 C95 1.400 . S
C96 C100 1.377 . S
C97 C95 1.364 . S
C97 C98 1.374 . S
C98 H89 0.930 . S
C98 C97 1.374 . S
C98 C99 1.383 . S
C99 O93 1.412 . S
C99 C98 1.383 . S
C99 C100 1.394 . S
C100 H90 0.929 . S
C100 C96 1.377 . S
C100 C99 1.394 . S
H101 C108 0.929 . S
H102 C111 0.930 . S
H103 C113 0.929 . S
H104 C105 0.969 . S
C105 H104 0.969 . S
C105 O106 1.550 . S
C105 H107 0.973 . S
O106 C105 1.550 . S
O106 C112 1.412 . S
H107 C105 0.973 . S
C108 H101 0.929 . S
C108 C109 1.400 . S
C108 C110 1.364 . S
C109 C108 1.400 . S
C109 C113 1.377 . S
C110 C108 1.364 . S
C110 C111 1.374 . S
C111 H102 0.930 . S
C111 C110 1.374 . S
C111 C112 1.383 . S
C112 O106 1.412 . S
C112 C111 1.383 . S
C112 C113 1.394 . S
C113 H103 0.929 . S
C113 C109 1.377 . S
C113 C112 1.394 . S
H114 C121 0.929 . S
H115 C124 0.930 . S
H116 C126 0.929 . S
H117 C118 0.969 . S
C118 H117 0.969 . S
C118 O119 1.550 . S
C118 H120 0.973 . S
O119 C118 1.550 . S
O119 C125 1.412 . S
H120 C118 0.973 . S
C121 H114 0.929 . S
C121 C122 1.400 . S
C121 C123 1.364 . S
C122 C121 1.400 . S
C122 C126 1.377 . S
C123 C121 1.364 . S
C123 C124 1.374 . S
C124 H115 0.930 . S
C124 C123 1.374 . S
C124 C125 1.383 . S
C125 O119 1.412 . S
C125 C124 1.383 . S
C125 C126 1.394 . S
C126 H116 0.929 . S
C126 C122 1.377 . S
C126 C125 1.394 . S
H127 C134 0.929 . S
H128 C137 0.930 . S
H129 C139 0.929 . S
H130 C131 0.969 . S
C131 H130 0.969 . S
C131 O132 1.550 . S
C131 H133 0.973 . S
O132 C131 1.550 . S
O132 C138 1.412 . S
H133 C131 0.973 . S
C134 H127 0.929 . S
C134 C135 1.400 . S
C134 C136 1.364 . S
C135 C134 1.400 . S
C135 C139 1.377 . S
C136 C134 1.364 . S
C136 C137 1.374 . S
C137 H128 0.930 . S
C137 C136 1.374 . S
C137 C138 1.383 . S
C138 O132 1.412 . S
C138 C137 1.383 . S
C138 C139 1.394 . S
C139 H129 0.929 . S
C139 C135 1.377 . S
C139 C138 1.394 . S
H140 C147 0.929 . S
H141 C150 0.930 . S
H142 C152 0.929 . S
H143 C144 0.969 . S
C144 H143 0.969 . S
C144 O145 1.550 . S
C144 H146 0.973 . S
O145 C144 1.550 . S
O145 C151 1.412 . S
H146 C144 0.973 . S
C147 H140 0.929 . S
C147 C148 1.400 . S
C147 C149 1.364 . S
C148 C147 1.400 . S
C148 C152 1.377 . S
C149 C147 1.364 . S
C149 C150 1.374 . S
C150 H141 0.930 . S
C150 C149 1.374 . S
C150 C151 1.383 . S
C151 O145 1.412 . S
C151 C150 1.383 . S
C151 C152 1.394 . S
C152 H142 0.929 . S
C152 C148 1.377 . S
C152 C151 1.394 . S
H153 C160 0.929 . S
H154 C163 0.930 . S
H155 C165 0.929 . S
H156 C157 0.969 . S
C157 H156 0.969 . S
C157 O158 1.550 . S
C157 H159 0.973 . S
O158 C157 1.550 . S
O158 C164 1.412 . S
H159 C157 0.973 . S
C160 H153 0.929 . S
C160 C161 1.400 . S
C160 C162 1.364 . S
C161 C160 1.400 . S
C161 C165 1.377 . S
C162 C160 1.364 . S
C162 C163 1.374 . S
C163 H154 0.930 . S
C163 C162 1.374 . S
C163 C164 1.383 . S
C164 O158 1.412 . S
C164 C163 1.383 . S
C164 C165 1.394 . S
C165 H155 0.929 . S
C165 C161 1.377 . S
C165 C164 1.394 . S
H166 C173 0.929 . S
H167 C176 0.930 . S
H168 C178 0.929 . S
H169 C170 0.969 . S
C170 H169 0.969 . S
C170 O171 1.550 . S
C170 H172 0.973 . S
O171 C170 1.550 . S
O171 C177 1.412 . S
H172 C170 0.973 . S
C173 H166 0.929 . S
C173 C174 1.400 . S
C173 C175 1.364 . S
C174 C173 1.400 . S
C174 C178 1.377 . S
C175 C173 1.364 . S
C175 C176 1.374 . S
C176 H167 0.930 . S
C176 C175 1.374 . S
C176 C177 1.383 . S
C177 O171 1.412 . S
C177 C176 1.383 . S
C177 C178 1.394 . S
C178 H168 0.929 . S
C178 C174 1.377 . S
C178 C177 1.394 . S
H179 C186 0.929 . S
H180 C189 0.930 . S
H181 C191 0.929 . S
H182 C183 0.969 . S
C183 H182 0.969 . S
C183 O184 1.550 . S
C183 H185 0.973 . S
O184 C183 1.550 . S
O184 C190 1.412 . S
H185 C183 0.973 . S
C186 H179 0.929 . S
C186 C187 1.400 . S
C186 C188 1.364 . S
C187 C186 1.400 . S
C187 C191 1.377 . S
C188 C186 1.364 . S
C188 C189 1.374 . S
C189 H180 0.930 . S
C189 C188 1.374 . S
C189 C190 1.383 . S
C190 O184 1.412 . S
C190 C189 1.383 . S
C190 C191 1.394 . S
C191 H181 0.929 . S
C191 C187 1.377 . S
C191 C190 1.394 . S
H192 C210 0.951 . S
H193 C212 0.951 . S
H194 C214 0.950 . S
H195 C215 0.950 . S
H196 C217 0.950 . S
H197 C220 0.950 . S
H198 C221 0.950 . S
H199 C223 0.950 . S
H200 C224 0.950 . S
H201 C225 0.951 . S
H202 C227 0.951 1_565 S
H203 C229 0.950 . S
H204 C230 0.950 . S
H205 C232 0.915 1_545 S
H206 C235 0.950 1_545 S
H207 C236 0.950 1_545 S
H208 C238 0.950 . S
H209 C239 0.950 . S
C210 H192 0.951 . S
C210 C211 1.366 . S
C210 C212 1.388 . S
C211 C210 1.366 . S
C211 C215 1.385 . S
C212 H193 0.951 . S
C212 C210 1.388 . S
C212 C213 1.366 . S
C213 C212 1.366 . S
C213 C214 1.414 . S
C213 C216 1.499 . S
C214 H194 0.950 . S
C214 C213 1.414 . S
C214 C215 1.374 . S
C215 H195 0.950 . S
C215 C211 1.385 . S
C215 C214 1.374 . S
C216 C213 1.499 . S
C216 C217 1.373 . S
C216 C218 1.389 . S
C217 H196 0.950 . S
C217 C216 1.373 . S
C217 C233 1.377 . S
C218 C216 1.389 . S
C218 C219 1.524 . S
C218 C232 1.408 . S
C219 C218 1.524 . S
C219 C220 1.397 . S
C219 C224 1.363 1_565 S
C220 H197 0.950 . S
C220 C219 1.397 . S
C220 C221 1.334 . S
C221 H198 0.950 . S
C221 C220 1.334 . S
C221 C222 1.287 . S
C222 C221 1.287 . S
C222 C223 1.524 1_565 S
C222 H241 0.913 . S
C223 H199 0.950 . S
C223 C222 1.524 1_545 S
C223 C224 1.415 . S
C224 H200 0.950 . S
C224 C219 1.363 1_545 S
C224 C223 1.415 . S
C225 H201 0.951 . S
C225 C226 1.366 . S
C225 C227 1.388 . S
C226 C225 1.366 . S
C226 C230 1.385 . S
C227 H202 0.951 1_545 S
C227 C225 1.388 . S
C227 C228 1.366 . S
C228 C227 1.366 . S
C228 C229 1.414 . S
C228 C231 1.499 1_545 S
C229 H203 0.950 . S
C229 C228 1.414 . S
C229 C230 1.374 . S
C230 H204 0.950 . S
C230 C226 1.385 . S
C230 C229 1.374 . S
C231 C228 1.499 1_565 S
C231 C232 1.378 . S
C231 C233 1.389 . S
C232 H205 0.915 1_565 S
C232 C218 1.408 . S
C232 C231 1.378 . S
C233 C217 1.377 . S
C233 C231 1.389 . S
C233 C234 1.524 . S
C234 C233 1.524 . S
C234 C235 1.397 . S
C234 C239 1.363 . S
C235 H206 0.950 1_565 S
C235 C234 1.397 . S
C235 C236 1.334 . S
C236 H207 0.950 1_565 S
C236 C235 1.334 . S
C236 C237 1.287 . S
C237 C236 1.287 . S
C237 C238 1.524 . S
C237 H240 0.999 . S
C238 H208 0.950 . S
C238 C237 1.524 . S
C238 C239 1.415 . S
C239 H209 0.950 . S
C239 C234 1.363 . S
C239 C238 1.415 . S
H240 C237 0.999 . S
H241 C222 0.913 . S
H242 C260 0.951 . S
H243 C262 0.951 . S
H244 C264 0.950 . S
H245 C265 0.950 . S
H246 C267 0.950 . S
H247 C270 0.950 . S
H248 C271 0.950 . S
H249 C273 0.950 . S
H250 C274 0.950 . S
H251 C275 0.951 . S
H252 C277 0.951 . S
H253 C279 0.950 . S
H254 C280 0.950 . S
H255 C282 0.950 . S
H256 C285 0.950 . S
H257 C286 0.950 . S
H258 C288 0.950 . S
H259 C289 0.950 . S
C260 H242 0.951 . S
C260 C261 1.366 . S
C260 C262 1.388 . S
C261 C260 1.366 . S
C261 C265 1.385 . S
C262 H243 0.951 . S
C262 C260 1.388 . S
C262 C263 1.366 . S
C263 C262 1.366 . S
C263 C264 1.414 . S
C263 C266 1.499 . S
C264 H244 0.950 . S
C264 C263 1.414 . S
C264 C265 1.374 . S
C265 H245 0.950 . S
C265 C261 1.385 . S
C265 C264 1.374 . S
C266 C263 1.499 . S
C266 C267 1.373 . S
C266 C268 1.389 . S
C267 H246 0.950 . S
C267 C266 1.373 . S
C267 C283 1.377 . S
C268 C266 1.389 . S
C268 C269 1.524 . S
C268 C282 1.377 . S
C269 C268 1.524 . S
C269 C270 1.397 . S
C269 C274 1.363 . S
C270 H247 0.950 . S
C270 C269 1.397 . S
C270 C271 1.334 . S
C271 H248 0.950 . S
C271 C270 1.334 . S
C271 C272 1.287 . S
C272 C271 1.287 . S
C272 C273 1.524 . S
C272 H291 0.913 . S
C273 H249 0.950 . S
C273 C272 1.524 . S
C273 C274 1.415 . S
C274 H250 0.950 . S
C274 C269 1.363 . S
C274 C273 1.415 . S
C275 H251 0.951 . S
C275 C276 1.366 . S
C275 C277 1.388 . S
C276 C275 1.366 . S
C276 C280 1.385 . S
C277 H252 0.951 . S
C277 C275 1.388 . S
C277 C278 1.366 . S
C278 C277 1.366 . S
C278 C279 1.414 . S
C278 C281 1.499 . S
C279 H253 0.950 . S
C279 C278 1.414 . S
C279 C280 1.374 . S
C280 H254 0.950 . S
C280 C276 1.385 . S
C280 C279 1.374 . S
C281 C278 1.499 . S
C281 C282 1.373 . S
C281 C283 1.389 . S
C282 H255 0.950 . S
C282 C268 1.377 . S
C282 C281 1.373 . S
C283 C267 1.377 . S
C283 C281 1.389 . S
C283 C284 1.524 . S
C284 C283 1.524 . S
C284 C285 1.397 . S
C284 C289 1.363 . S
C285 H256 0.950 . S
C285 C284 1.397 . S
C285 C286 1.334 . S
C286 H257 0.950 . S
C286 C285 1.334 . S
C286 C287 1.287 . S
C287 C286 1.287 . S
C287 C288 1.524 . S
C287 H290 0.999 . S
C288 H258 0.950 . S
C288 C287 1.524 . S
C288 C289 1.415 . S
C289 H259 0.950 . S
C289 C284 1.363 . S
C289 C288 1.415 . S
H290 C287 0.999 . S
H291 C272 0.913 . S
H292 C310 0.951 . S
H293 C312 0.951 . S
H294 C314 0.950 . S
H295 C315 0.950 . S
H296 C317 0.950 . S
H297 C320 0.950 . S
H298 C321 0.950 . S
H299 C323 0.950 . S
H300 C324 0.950 . S
H301 C325 0.951 . S
H302 C327 0.951 . S
H303 C329 0.950 . S
H304 C330 0.950 . S
H305 C332 0.950 . S
H306 C335 0.950 . S
H307 C336 0.950 . S
H308 C338 0.950 . S
H309 C339 0.950 . S
C310 H292 0.951 . S
C310 C311 1.366 . S
C310 C312 1.388 . S
C311 C310 1.366 . S
C311 C315 1.385 . S
C312 H293 0.951 . S
C312 C310 1.388 . S
C312 C313 1.366 . S
C313 C312 1.366 . S
C313 C314 1.414 . S
C313 C316 1.499 1_545 S
C314 H294 0.950 . S
C314 C313 1.414 . S
C314 C315 1.374 . S
C315 H295 0.950 . S
C315 C311 1.385 . S
C315 C314 1.374 . S
C316 C313 1.499 1_565 S
C316 C317 1.373 . S
C316 C318 1.389 . S
C317 H296 0.950 . S
C317 C316 1.373 . S
C317 C333 1.377 . S
C318 C316 1.389 . S
C318 C319 1.524 . S
C318 C332 1.377 . S
C319 C318 1.524 . S
C319 C320 1.397 . S
C319 C324 1.363 . S
C320 H297 0.950 . S
C320 C319 1.397 . S
C320 C321 1.334 . S
C321 H298 0.950 . S
C321 C320 1.334 . S
C321 C322 1.287 . S
C322 C321 1.287 . S
C322 C323 1.524 . S
C322 H341 0.913 . S
C323 H299 0.950 . S
C323 C322 1.524 . S
C323 C324 1.415 . S
C324 H300 0.950 . S
C324 C319 1.363 . S
C324 C323 1.415 . S
C325 H301 0.951 . S
C325 C326 1.366 . S
C325 C327 1.388 . S
C326 C325 1.366 . S
C326 C330 1.385 . S
C327 H302 0.951 . S
C327 C325 1.388 . S
C327 C328 1.366 . S
C328 C327 1.366 . S
C328 C329 1.414 . S
C328 C331 1.499 . S
C329 H303 0.950 . S
C329 C328 1.414 . S
C329 C330 1.374 . S
C330 H304 0.950 . S
C330 C326 1.385 . S
C330 C329 1.374 . S
C331 C328 1.499 . S
C331 C332 1.373 . S
C331 C333 1.389 . S
C332 H305 0.950 . S
C332 C318 1.377 . S
C332 C331 1.373 . S
C333 C317 1.377 . S
C333 C331 1.389 . S
C333 C334 1.524 . S
C334 C333 1.524 . S
C334 C335 1.397 . S
C334 C339 1.363 . S
C335 H306 0.950 . S
C335 C334 1.397 . S
C335 C336 1.334 . S
C336 H307 0.950 . S
C336 C335 1.334 . S
C336 C337 1.287 . S
C337 C336 1.287 . S
C337 C338 1.524 . S
C337 H340 0.999 . S
C338 H308 0.950 . S
C338 C337 1.524 . S
C338 C339 1.415 . S
C339 H309 0.950 . S
C339 C334 1.363 . S
C339 C338 1.415 . S
H340 C337 0.999 . S
H341 C322 0.913 . S
H342 C360 0.951 . S
H343 C362 0.951 . S
H344 C364 0.950 . S
H345 C365 0.950 . S
H346 C367 0.950 . S
H347 C370 0.950 . S
H348 C371 0.950 . S
H349 C373 0.950 . S
H350 C374 0.950 . S
H351 C375 0.951 . S
H352 C377 0.951 . S
H353 C379 0.950 . S
H354 C380 0.950 . S
H355 C382 0.950 . S
H356 C385 0.950 . S
H357 C386 0.950 . S
H358 C388 0.950 . S
H359 C389 0.950 . S
C360 H342 0.951 . S
C360 C361 1.366 . S
C360 C362 1.388 . S
C361 C360 1.366 . S
C361 C365 1.385 . S
C362 H343 0.951 . S
C362 C360 1.388 . S
C362 C363 1.366 . S
C363 C362 1.366 . S
C363 C364 1.414 . S
C363 C366 1.499 . S
C364 H344 0.950 . S
C364 C363 1.414 . S
C364 C365 1.374 . S
C365 H345 0.950 . S
C365 C361 1.385 . S
C365 C364 1.374 . S
C366 C363 1.499 . S
C366 C367 1.373 . S
C366 C368 1.389 . S
C367 H346 0.950 . S
C367 C366 1.373 . S
C367 C383 1.377 . S
C368 C366 1.389 . S
C368 C369 1.524 . S
C368 C382 1.377 . S
C369 C368 1.524 . S
C369 C370 1.397 . S
C369 C374 1.363 . S
C370 H347 0.950 . S
C370 C369 1.397 . S
C370 C371 1.334 . S
C371 H348 0.950 . S
C371 C370 1.334 . S
C371 C372 1.287 . S
C372 C371 1.287 . S
C372 C373 1.524 . S
C372 H391 0.913 . S
C373 H349 0.950 . S
C373 C372 1.524 . S
C373 C374 1.415 . S
C374 H350 0.950 . S
C374 C369 1.363 . S
C374 C373 1.415 . S
C375 H351 0.951 . S
C375 C376 1.366 . S
C375 C377 1.388 . S
C376 C375 1.366 . S
C376 C380 1.385 . S
C377 H352 0.951 . S
C377 C375 1.388 . S
C377 C378 1.366 . S
C378 C377 1.366 . S
C378 C379 1.414 . S
C378 C381 1.499 . S
C379 H353 0.950 . S
C379 C378 1.414 . S
C379 C380 1.374 . S
C380 H354 0.950 . S
C380 C376 1.385 . S
C380 C379 1.374 . S
C381 C378 1.499 . S
C381 C382 1.373 . S
C381 C383 1.389 . S
C382 H355 0.950 . S
C382 C368 1.377 . S
C382 C381 1.373 . S
C383 C367 1.377 . S
C383 C381 1.389 . S
C383 C384 1.524 . S
C384 C383 1.524 . S
C384 C385 1.397 . S
C384 C389 1.363 . S
C385 H356 0.950 . S
C385 C384 1.397 . S
C385 C386 1.334 . S
C386 H357 0.950 . S
C386 C385 1.334 . S
C386 C387 1.287 . S
C387 C386 1.287 . S
C387 C388 1.524 . S
C387 H390 0.999 . S
C388 H358 0.950 . S
C388 C387 1.524 . S
C388 C389 1.415 . S
C389 H359 0.950 . S
C389 C384 1.363 . S
C389 C388 1.415 . S
H390 C387 0.999 . S
H391 C372 0.913 . S
H392 C410 0.951 . S
H393 C412 0.951 . S
H394 C414 0.950 . S
H395 C415 0.950 . S
H396 C417 0.950 . S
H397 C420 0.950 . S
H398 C421 0.950 . S
H399 C423 0.950 . S
H400 C424 0.950 . S
H401 C425 0.951 . S
H402 C427 0.951 . S
H403 C429 0.950 . S
H404 C430 0.950 . S
H405 C432 0.950 . S
H406 C435 0.950 . S
H407 C436 0.950 . S
H408 C438 0.950 . S
H409 C439 0.950 . S
C410 H392 0.951 . S
C410 C411 1.366 . S
C410 C412 1.388 . S
C411 C410 1.366 . S
C411 C415 1.385 . S
C412 H393 0.951 . S
C412 C410 1.388 . S
C412 C413 1.366 . S
C413 C412 1.366 . S
C413 C414 1.414 . S
C413 C416 1.499 . S
C414 H394 0.950 . S
C414 C413 1.414 . S
C414 C415 1.374 . S
C415 H395 0.950 . S
C415 C411 1.385 . S
C415 C414 1.374 . S
C416 C413 1.499 . S
C416 C417 1.373 . S
C416 C418 1.389 . S
C417 H396 0.950 . S
C417 C416 1.373 . S
C417 C433 1.377 . S
C418 C416 1.389 . S
C418 C419 1.524 . S
C418 C432 1.377 . S
C419 C418 1.524 . S
C419 C420 1.397 . S
C419 C424 1.363 . S
C420 H397 0.950 . S
C420 C419 1.397 . S
C420 C421 1.334 . S
C421 H398 0.950 . S
C421 C420 1.334 . S
C421 C422 1.287 . S
C422 C421 1.287 . S
C422 C423 1.524 . S
C422 H441 0.913 . S
C423 H399 0.950 . S
C423 C422 1.524 . S
C423 C424 1.415 . S
C424 H400 0.950 . S
C424 C419 1.363 . S
C424 C423 1.415 . S
C425 H401 0.951 . S
C425 C426 1.366 . S
C425 C427 1.388 . S
C426 C425 1.366 . S
C426 C430 1.385 . S
C427 H402 0.951 . S
C427 C425 1.388 . S
C427 C428 1.366 . S
C428 C427 1.366 . S
C428 C429 1.414 . S
C428 C431 1.499 . S
C429 H403 0.950 . S
C429 C428 1.414 . S
C429 C430 1.374 . S
C430 H404 0.950 . S
C430 C426 1.385 . S
C430 C429 1.374 . S
C431 C428 1.499 . S
C431 C432 1.373 . S
C431 C433 1.389 . S
C432 H405 0.950 . S
C432 C418 1.377 . S
C432 C431 1.373 . S
C433 C417 1.377 . S
C433 C431 1.389 . S
C433 C434 1.524 . S
C434 C433 1.524 . S
C434 C435 1.397 . S
C434 C439 1.363 . S
C435 H406 0.950 . S
C435 C434 1.397 . S
C435 C436 1.334 . S
C436 H407 0.950 . S
C436 C435 1.334 . S
C436 C437 1.287 . S
C437 C436 1.287 . S
C437 C438 1.524 . S
C437 H440 0.999 . S
C438 H408 0.950 . S
C438 C437 1.524 . S
C438 C439 1.415 . S
C439 H409 0.950 . S
C439 C434 1.363 . S
C439 C438 1.415 . S
H440 C437 0.999 . S
H441 C422 0.913 . S
H442 C460 0.951 . S
H443 C462 0.944 1_454 S
H444 C464 0.950 . S
H445 C465 0.950 . S
H446 C467 0.950 . S
H447 C470 0.950 . S
H448 C471 0.950 . S
H449 C473 0.950 . S
H450 C474 0.955 . S
H451 C475 0.951 . S
H452 C477 0.951 . S
H453 C479 0.950 . S
H454 C480 0.950 . S
H455 C482 0.950 . S
H456 C485 0.950 . S
H457 C486 0.950 . S
H458 C488 0.950 . S
H459 C489 0.950 . S
C460 H442 0.951 . S
C460 C461 1.366 1_554 S
C460 C462 1.381 1_554 S
C461 C460 1.366 1_556 S
C461 C465 1.385 . S
C462 H443 0.944 1_656 S
C462 C460 1.381 1_556 S
C462 C463 1.379 . S
C463 C462 1.379 . S
C463 C464 1.414 . S
C463 C466 1.499 1_655 S
C464 H444 0.950 . S
C464 C463 1.414 . S
C464 C465 1.374 . S
C465 H445 0.950 . S
C465 C461 1.385 . S
C465 C464 1.374 . S
C466 C463 1.499 1_455 S
C466 C467 1.373 . S
C466 C468 1.389 . S
C467 H446 0.950 . S
C467 C466 1.373 . S
C467 C483 1.377 . S
C468 C466 1.389 . S
C468 C469 1.524 . S
C468 C482 1.377 . S
C469 C468 1.524 . S
C469 C470 1.397 1_455 S
C469 C474 1.346 1_556 S
C470 H447 0.950 . S
C470 C469 1.397 1_655 S
C470 C471 1.334 . S
C471 H448 0.950 . S
C471 C470 1.334 . S
C471 C472 1.287 1_556 S
C472 C471 1.287 1_554 S
C472 C473 1.524 1_655 S
C472 H491 0.913 . S
C473 H449 0.950 . S
C473 C472 1.524 1_455 S
C473 C474 1.428 . S
C474 H450 0.955 . S
C474 C469 1.346 1_554 S
C474 C473 1.428 . S
C475 H451 0.951 . S
C475 C476 1.366 . S
C475 C477 1.388 . S
C476 C475 1.366 . S
C476 C480 1.385 . S
C477 H452 0.951 . S
C477 C475 1.388 . S
C477 C478 1.366 . S
C478 C477 1.366 . S
C478 C479 1.414 . S
C478 C481 1.499 . S
C479 H453 0.950 . S
C479 C478 1.414 . S
C479 C480 1.374 . S
C480 H454 0.950 . S
C480 C476 1.385 . S
C480 C479 1.374 . S
C481 C478 1.499 . S
C481 C482 1.373 . S
C481 C483 1.389 . S
C482 H455 0.950 . S
C482 C468 1.377 . S
C482 C481 1.373 . S
C483 C467 1.377 . S
C483 C481 1.389 . S
C483 C484 1.524 . S
C484 C483 1.524 . S
C484 C485 1.397 . S
C484 C489 1.363 . S
C485 H456 0.950 . S
C485 C484 1.397 . S
C485 C486 1.334 . S
C486 H457 0.950 . S
C486 C485 1.334 . S
C486 C487 1.287 . S
C487 C486 1.287 . S
C487 C488 1.524 . S
C487 H490 0.999 . S
C488 H458 0.950 . S
C488 C487 1.524 . S
C488 C489 1.415 . S
C489 H459 0.950 . S
C489 C484 1.363 . S
C489 C488 1.415 . S
H490 C487 0.999 . S
H491 C472 0.913 . S
H492 C510 0.951 . S
H493 C512 0.951 . S
H494 C514 0.950 . S
H495 C515 0.950 . S
H496 C517 0.950 . S
H497 C520 0.950 . S
H498 C521 0.950 . S
H499 C523 0.950 . S
H500 C524 0.950 . S
H501 C525 0.951 . S
H502 C527 0.951 . S
H503 C529 0.950 . S
H504 C530 0.950 . S
H505 C532 0.950 . S
H506 C535 0.950 . S
H507 C536 0.950 . S
H508 C538 0.950 . S
H509 C539 0.950 . S
C510 H492 0.951 . S
C510 C511 1.366 . S
C510 C512 1.388 . S
C511 C510 1.366 . S
C511 C515 1.385 . S
C512 H493 0.951 . S
C512 C510 1.388 . S
C512 C513 1.366 . S
C513 C512 1.366 . S
C513 C514 1.414 . S
C513 C516 1.499 . S
C514 H494 0.950 . S
C514 C513 1.414 . S
C514 C515 1.374 . S
C515 H495 0.950 . S
C515 C511 1.385 . S
C515 C514 1.374 . S
C516 C513 1.499 . S
C516 C517 1.373 . S
C516 C518 1.389 . S
C517 H496 0.950 . S
C517 C516 1.373 . S
C517 C533 1.377 . S
C518 C516 1.389 . S
C518 C519 1.524 . S
C518 C532 1.377 . S
C519 C518 1.524 . S
C519 C520 1.397 . S
C519 C524 1.363 . S
C520 H497 0.950 . S
C520 C519 1.397 . S
C520 C521 1.334 . S
C521 H498 0.950 . S
C521 C520 1.334 . S
C521 C522 1.287 . S
C522 C521 1.287 . S
C522 C523 1.524 . S
C522 H541 0.913 . S
C523 H499 0.950 . S
C523 C522 1.524 . S
C523 C524 1.415 . S
C524 H500 0.950 . S
C524 C519 1.363 . S
C524 C523 1.415 . S
C525 H501 0.951 . S
C525 C526 1.366 . S
C525 C527 1.388 . S
C526 C525 1.366 . S
C526 C530 1.385 . S
C527 H502 0.951 . S
C527 C525 1.388 . S
C527 C528 1.366 . S
C528 C527 1.366 . S
C528 C529 1.414 . S
C528 C531 1.499 . S
C529 H503 0.950 . S
C529 C528 1.414 . S
C529 C530 1.374 . S
C530 H504 0.950 . S
C530 C526 1.385 . S
C530 C529 1.374 . S
C531 C528 1.499 . S
C531 C532 1.373 . S
C531 C533 1.389 . S
C532 H505 0.950 . S
C532 C518 1.377 . S
C532 C531 1.373 . S
C533 C517 1.377 . S
C533 C531 1.389 . S
C533 C534 1.524 . S
C534 C533 1.524 . S
C534 C535 1.397 . S
C534 C539 1.363 . S
C535 H506 0.950 . S
C535 C534 1.397 . S
C535 C536 1.334 . S
C536 H507 0.950 . S
C536 C535 1.334 . S
C536 C537 1.287 . S
C537 C536 1.287 . S
C537 C538 1.524 . S
C537 H540 0.999 . S
C538 H508 0.950 . S
C538 C537 1.524 . S
C538 C539 1.415 . S
C539 H509 0.950 . S
C539 C534 1.363 . S
C539 C538 1.415 . S
H540 C537 0.999 . S
H541 C522 0.913 . S
H542 C560 0.951 . S
H543 C562 0.951 . S
H544 C564 0.950 . S
H545 C565 0.950 . S
H546 C567 0.950 . S
H547 C570 0.950 . S
H548 C571 0.950 . S
H549 C573 0.950 . S
H550 C574 0.962 . S
H551 C575 0.951 . S
H552 C577 0.951 . S
H553 C579 0.950 . S
H554 C580 0.950 . S
H555 C582 0.950 . S
H556 C585 0.950 . S
H557 C586 0.950 . S
H558 C588 0.950 . S
H559 C589 0.950 . S
C560 H542 0.951 . S
C560 C561 1.366 . S
C560 C562 1.388 . S
C561 C560 1.366 . S
C561 C565 1.385 . S
C562 H543 0.951 . S
C562 C560 1.388 . S
C562 C563 1.366 . S
C563 C562 1.366 . S
C563 C564 1.414 . S
C563 C566 1.499 1_455 S
C564 H544 0.950 . S
C564 C563 1.414 . S
C564 C565 1.374 . S
C565 H545 0.950 . S
C565 C561 1.385 . S
C565 C564 1.374 . S
C566 C563 1.499 1_655 S
C566 C567 1.373 . S
C566 C568 1.389 . S
C567 H546 0.950 . S
C567 C566 1.373 . S
C567 C583 1.377 . S
C568 C566 1.389 . S
C568 C569 1.524 1_655 S
C568 C582 1.377 . S
C569 C568 1.524 1_455 S
C569 C570 1.397 . S
C569 C574 1.359 1_455 S
C570 H547 0.950 . S
C570 C569 1.397 . S
C570 C571 1.334 . S
C571 H548 0.950 . S
C571 C570 1.334 . S
C571 C572 1.287 . S
C572 C571 1.287 . S
C572 C573 1.524 . S
C572 H591 0.913 . S
C573 H549 0.950 . S
C573 C572 1.524 . S
C573 C574 1.407 1_455 S
C574 H550 0.962 . S
C574 C569 1.359 1_655 S
C574 C573 1.407 1_655 S
C575 H551 0.951 . S
C575 C576 1.366 . S
C575 C577 1.388 . S
C576 C575 1.366 . S
C576 C580 1.385 . S
C577 H552 0.951 . S
C577 C575 1.388 . S
C577 C578 1.366 . S
C578 C577 1.366 . S
C578 C579 1.414 . S
C578 C581 1.499 . S
C579 H553 0.950 . S
C579 C578 1.414 . S
C579 C580 1.374 . S
C580 H554 0.950 . S
C580 C576 1.385 . S
C580 C579 1.374 . S
C581 C578 1.499 . S
C581 C582 1.373 . S
C581 C583 1.389 . S
C582 H555 0.950 . S
C582 C568 1.377 . S
C582 C581 1.373 . S
C583 C567 1.377 . S
C583 C581 1.389 . S
C583 C584 1.524 . S
C584 C583 1.524 . S
C584 C585 1.397 . S
C584 C589 1.363 . S
C585 H556 0.950 . S
C585 C584 1.397 . S
C585 C586 1.334 . S
C586 H557 0.950 . S
C586 C585 1.334 . S
C586 C587 1.287 . S
C587 C586 1.287 . S
C587 C588 1.524 . S
C587 H590 0.999 . S
C588 H558 0.950 . S
C588 C587 1.524 . S
C588 C589 1.415 . S
C589 H559 0.950 . S
C589 C584 1.363 . S
C589 C588 1.415 . S
H590 C587 0.999 . S
H591 C572 0.913 . S
H592 C610 0.951 . S
H593 C612 0.951 . S
H594 C614 0.950 . S
H595 C615 0.950 . S
H596 C617 0.950 . S
H597 C620 0.955 . S
H598 C621 0.950 . S
H599 C623 0.950 . S
H600 C624 0.946 1_545 S
H601 C625 0.951 . S
H602 C627 0.951 . S
H603 C629 0.950 . S
H604 C630 0.950 . S
H605 C632 0.950 . S
H606 C635 0.950 . S
H607 C636 0.950 . S
H608 C638 0.950 . S
H609 C639 0.950 . S
C610 H592 0.951 . S
C610 C611 1.366 . S
C610 C612 1.388 . S
C611 C610 1.366 . S
C611 C615 1.385 . S
C612 H593 0.951 . S
C612 C610 1.388 . S
C612 C613 1.366 . S
C613 C612 1.366 . S
C613 C614 1.414 . S
C613 C616 1.499 . S
C614 H594 0.950 . S
C614 C613 1.414 . S
C614 C615 1.374 . S
C615 H595 0.950 . S
C615 C611 1.385 . S
C615 C614 1.374 . S
C616 C613 1.499 . S
C616 C617 1.373 . S
C616 C618 1.389 . S
C617 H596 0.950 . S
C617 C616 1.373 . S
C617 C633 1.377 . S
C618 C616 1.389 . S
C618 C619 1.524 . S
C618 C632 1.377 1_545 S
C619 C618 1.524 . S
C619 C620 1.402 . S
C619 C624 1.354 1_545 S
C620 H597 0.955 . S
C620 C619 1.402 . S
C620 C621 1.324 1_545 S
C621 H598 0.950 . S
C621 C620 1.324 1_565 S
C621 C622 1.287 . S
C622 C621 1.287 . S
C622 C623 1.524 . S
C622 H641 0.913 . S
C623 H599 0.950 . S
C623 C622 1.524 . S
C623 C624 1.431 . S
C624 H600 0.946 1_565 S
C624 C619 1.354 1_565 S
C624 C623 1.431 . S
C625 H601 0.951 . S
C625 C626 1.366 . S
C625 C627 1.388 . S
C626 C625 1.366 . S
C626 C630 1.385 . S
C627 H602 0.951 . S
C627 C625 1.388 . S
C627 C628 1.366 . S
C628 C627 1.366 . S
C628 C629 1.414 . S
C628 C631 1.499 1_565 S
C629 H603 0.950 . S
C629 C628 1.414 . S
C629 C630 1.374 . S
C630 H604 0.950 . S
C630 C626 1.385 . S
C630 C629 1.374 . S
C631 C628 1.499 1_545 S
C631 C632 1.373 1_545 S
C631 C633 1.389 . S
C632 H605 0.950 . S
C632 C618 1.377 1_565 S
C632 C631 1.373 1_565 S
C633 C617 1.377 . S
C633 C631 1.389 . S
C633 C634 1.524 . S
C634 C633 1.524 . S
C634 C635 1.397 . S
C634 C639 1.363 . S
C635 H606 0.950 . S
C635 C634 1.397 . S
C635 C636 1.334 . S
C636 H607 0.950 . S
C636 C635 1.334 . S
C636 C637 1.287 . S
C637 C636 1.287 . S
C637 C638 1.524 . S
C637 H640 0.999 . S
C638 H608 0.950 . S
C638 C637 1.524 . S
C638 C639 1.415 . S
C639 H609 0.950 . S
C639 C634 1.363 . S
C639 C638 1.415 . S
H640 C637 0.999 . S
H641 C622 0.913 . S
H642 C660 0.951 . S
H643 C662 0.951 . S
H644 C664 0.950 . S
H645 C665 0.950 . S
H646 C667 0.950 . S
H647 C670 0.950 . S
H648 C671 0.950 . S
H649 C673 0.950 . S
H650 C674 0.950 . S
H651 C675 0.951 . S
H652 C677 0.951 . S
H653 C679 0.950 . S
H654 C680 0.950 . S
H655 C682 0.950 . S
H656 C685 0.950 . S
H657 C686 0.950 . S
H658 C688 0.950 . S
H659 C689 0.950 . S
C660 H642 0.951 . S
C660 C661 1.366 . S
C660 C662 1.388 . S
C661 C660 1.366 . S
C661 C665 1.385 . S
C662 H643 0.951 . S
C662 C660 1.388 . S
C662 C663 1.366 . S
C663 C662 1.366 . S
C663 C664 1.414 . S
C663 C666 1.499 . S
C664 H644 0.950 . S
C664 C663 1.414 . S
C664 C665 1.374 . S
C665 H645 0.950 . S
C665 C661 1.385 . S
C665 C664 1.374 . S
C666 C663 1.499 . S
C666 C667 1.373 . S
C666 C668 1.389 . S
C667 H646 0.950 . S
C667 C666 1.373 . S
C667 C683 1.377 . S
C668 C666 1.389 . S
C668 C669 1.524 . S
C668 C682 1.377 . S
C669 C668 1.524 . S
C669 C670 1.397 . S
C669 C674 1.363 . S
C670 H647 0.950 . S
C670 C669 1.397 . S
C670 C671 1.334 . S
C671 H648 0.950 . S
C671 C670 1.334 . S
C671 C672 1.287 . S
C672 C671 1.287 . S
C672 C673 1.524 . S
C672 H691 0.913 . S
C673 H649 0.950 . S
C673 C672 1.524 . S
C673 C674 1.415 . S
C674 H650 0.950 . S
C674 C669 1.363 . S
C674 C673 1.415 . S
C675 H651 0.951 . S
C675 C676 1.366 . S
C675 C677 1.388 . S
C676 C675 1.366 . S
C676 C680 1.385 . S
C677 H652 0.951 . S
C677 C675 1.388 . S
C677 C678 1.366 . S
C678 C677 1.366 . S
C678 C679 1.414 . S
C678 C681 1.499 . S
C679 H653 0.950 . S
C679 C678 1.414 . S
C679 C680 1.374 . S
C680 H654 0.950 . S
C680 C676 1.385 . S
C680 C679 1.374 . S
C681 C678 1.499 . S
C681 C682 1.373 . S
C681 C683 1.389 . S
C682 H655 0.950 . S
C682 C668 1.377 . S
C682 C681 1.373 . S
C683 C667 1.377 . S
C683 C681 1.389 . S
C683 C684 1.524 . S
C684 C683 1.524 . S
C684 C685 1.397 . S
C684 C689 1.363 . S
C685 H656 0.950 . S
C685 C684 1.397 . S
C685 C686 1.334 . S
C686 H657 0.950 . S
C686 C685 1.334 . S
C686 C687 1.287 . S
C687 C686 1.287 . S
C687 C688 1.524 . S
C687 H690 0.999 . S
C688 H658 0.950 . S
C688 C687 1.524 . S
C688 C689 1.415 . S
C689 H659 0.950 . S
C689 C684 1.363 . S
C689 C688 1.415 . S
H690 C687 0.999 . S
H691 C672 0.913 . S
H692 C710 0.951 . S
H693 C712 0.951 . S
H694 C714 0.950 . S
H695 C715 0.950 . S
H696 C717 0.950 . S
H697 C720 0.950 . S
H698 C721 0.950 . S
H699 C723 0.950 . S
H700 C724 0.950 . S
H701 C725 0.951 . S
H702 C727 0.951 . S
H703 C729 0.950 . S
H704 C730 0.950 . S
H705 C732 0.950 . S
H706 C735 0.950 . S
H707 C736 0.950 . S
H708 C738 0.950 . S
H709 C739 0.950 . S
C710 H692 0.951 . S
C710 C711 1.366 . S
C710 C712 1.388 . S
C711 C710 1.366 . S
C711 C715 1.385 . S
C712 H693 0.951 . S
C712 C710 1.388 . S
C712 C713 1.366 . S
C713 C712 1.366 . S
C713 C714 1.414 . S
C713 C716 1.499 1_565 S
C714 H694 0.950 . S
C714 C713 1.414 . S
C714 C715 1.374 . S
C715 H695 0.950 . S
C715 C711 1.385 . S
C715 C714 1.374 . S
C716 C713 1.499 1_545 S
C716 C717 1.373 . S
C716 C718 1.389 . S
C717 H696 0.950 . S
C717 C716 1.373 . S
C717 C733 1.377 . S
C718 C716 1.389 . S
C718 C719 1.524 . S
C718 C732 1.377 . S
C719 C718 1.524 . S
C719 C720 1.397 . S
C719 C724 1.363 . S
C720 H697 0.950 . S
C720 C719 1.397 . S
C720 C721 1.334 1_546 S
C721 H698 0.950 . S
C721 C720 1.334 1_564 S
C721 C722 1.293 . S
C722 C721 1.293 . S
C722 C723 1.508 1_564 S
C722 H741 0.924 . S
C723 H699 0.950 . S
C723 C722 1.508 1_546 S
C723 C724 1.415 . S
C724 H700 0.950 . S
C724 C719 1.363 . S
C724 C723 1.415 . S
C725 H701 0.951 . S
C725 C726 1.366 . S
C725 C727 1.388 . S
C726 C725 1.366 . S
C726 C730 1.385 . S
C727 H702 0.951 . S
C727 C725 1.388 . S
C727 C728 1.366 . S
C728 C727 1.366 . S
C728 C729 1.414 . S
C728 C731 1.499 . S
C729 H703 0.950 . S
C729 C728 1.414 . S
C729 C730 1.374 . S
C730 H704 0.950 . S
C730 C726 1.385 . S
C730 C729 1.374 . S
C731 C728 1.499 . S
C731 C732 1.373 . S
C731 C733 1.389 . S
C732 H705 0.950 . S
C732 C718 1.377 . S
C732 C731 1.373 . S
C733 C717 1.377 . S
C733 C731 1.389 . S
C733 C734 1.524 . S
C734 C733 1.524 . S
C734 C735 1.397 . S
C734 C739 1.363 . S
C735 H706 0.950 . S
C735 C734 1.397 . S
C735 C736 1.334 . S
C736 H707 0.950 . S
C736 C735 1.334 . S
C736 C737 1.287 . S
C737 C736 1.287 . S
C737 C738 1.524 . S
C737 H740 0.999 . S
C738 H708 0.950 . S
C738 C737 1.524 . S
C738 C739 1.415 . S
C739 H709 0.950 . S
C739 C734 1.363 . S
C739 C738 1.415 . S
H740 C737 0.999 . S
H741 C722 0.924 . S
H742 C760 0.951 . S
H743 C762 0.951 . S
H744 C764 0.950 . S
H745 C765 0.950 . S
H746 C767 0.950 . S
H747 C770 0.950 . S
H748 C771 0.950 . S
H749 C773 0.950 . S
H750 C774 0.950 . S
H751 C775 0.951 . S
H752 C777 0.951 . S
H753 C779 0.950 . S
H754 C780 0.950 . S
H755 C782 0.950 . S
H756 C785 0.950 . S
H757 C786 0.950 . S
H758 C788 0.950 . S
H759 C789 0.950 . S
C760 H742 0.951 . S
C760 C761 1.366 . S
C760 C762 1.388 . S
C761 C760 1.366 . S
C761 C765 1.385 . S
C762 H743 0.951 . S
C762 C760 1.388 . S
C762 C763 1.366 . S
C763 C762 1.366 . S
C763 C764 1.414 . S
C763 C766 1.499 . S
C764 H744 0.950 . S
C764 C763 1.414 . S
C764 C765 1.374 . S
C765 H745 0.950 . S
C765 C761 1.385 . S
C765 C764 1.374 . S
C766 C763 1.499 . S
C766 C767 1.373 . S
C766 C768 1.389 . S
C767 H746 0.950 . S
C767 C766 1.373 . S
C767 C783 1.377 . S
C768 C766 1.389 . S
C768 C769 1.524 . S
C768 C782 1.377 . S
C769 C768 1.524 . S
C769 C770 1.397 . S
C769 C774 1.363 . S
C770 H747 0.950 . S
C770 C769 1.397 . S
C770 C771 1.334 . S
C771 H748 0.950 . S
C771 C770 1.334 . S
C771 C772 1.287 . S
C772 C771 1.287 . S
C772 C773 1.524 . S
C772 H791 0.913 . S
C773 H749 0.950 . S
C773 C772 1.524 . S
C773 C774 1.415 . S
C774 H750 0.950 . S
C774 C769 1.363 . S
C774 C773 1.415 . S
C775 H751 0.951 . S
C775 C776 1.366 . S
C775 C777 1.388 . S
C776 C775 1.366 . S
C776 C780 1.385 . S
C777 H752 0.951 . S
C777 C775 1.388 . S
C777 C778 1.366 . S
C778 C777 1.366 . S
C778 C779 1.414 . S
C778 C781 1.499 . S
C779 H753 0.950 . S
C779 C778 1.414 . S
C779 C780 1.374 . S
C780 H754 0.950 . S
C780 C776 1.385 . S
C780 C779 1.374 . S
C781 C778 1.499 . S
C781 C782 1.373 . S
C781 C783 1.389 . S
C782 H755 0.950 . S
C782 C768 1.377 . S
C782 C781 1.373 . S
C783 C767 1.377 . S
C783 C781 1.389 . S
C783 C784 1.524 . S
C784 C783 1.524 . S
C784 C785 1.397 . S
C784 C789 1.363 . S
C785 H756 0.950 . S
C785 C784 1.397 . S
C785 C786 1.334 . S
C786 H757 0.950 . S
C786 C785 1.334 . S
C786 C787 1.287 . S
C787 C786 1.287 . S
C787 C788 1.524 . S
C787 H790 0.999 . S
C788 H758 0.950 . S
C788 C787 1.524 . S
C788 C789 1.415 . S
C789 H759 0.950 . S
C789 C784 1.363 . S
C789 C788 1.415 . S
H790 C787 0.999 . S
H791 C772 0.913 . S
H792 C810 0.951 . S
H793 C812 0.951 . S
H794 C814 0.950 . S
H795 C815 0.950 . S
H796 C817 0.950 . S
H797 C820 0.950 . S
H798 C821 0.950 . S
H799 C823 0.950 . S
H800 C824 0.950 . S
H801 C825 0.951 . S
H802 C827 0.951 . S
H803 C829 0.950 . S
H804 C830 0.950 . S
H805 C832 0.950 . S
H806 C835 0.950 . S
H807 C836 0.950 . S
H808 C838 0.950 . S
H809 C839 0.950 . S
C810 H792 0.951 . S
C810 C811 1.366 . S
C810 C812 1.388 . S
C811 C810 1.366 . S
C811 C815 1.385 . S
C812 H793 0.951 . S
C812 C810 1.388 . S
C812 C813 1.366 . S
C813 C812 1.366 . S
C813 C814 1.414 . S
C813 C816 1.499 . S
C814 H794 0.950 . S
C814 C813 1.414 . S
C814 C815 1.374 . S
C815 H795 0.950 . S
C815 C811 1.385 . S
C815 C814 1.374 . S
C816 C813 1.499 . S
C816 C817 1.373 . S
C816 C818 1.389 . S
C817 H796 0.950 . S
C817 C816 1.373 . S
C817 C833 1.377 . S
C818 C816 1.389 . S
C818 C819 1.524 . S
C818 C832 1.377 . S
C819 C818 1.524 . S
C819 C820 1.397 . S
C819 C824 1.363 . S
C820 H797 0.950 . S
C820 C819 1.397 . S
C820 C821 1.334 . S
C821 H798 0.950 . S
C821 C820 1.334 . S
C821 C822 1.287 . S
C822 C821 1.287 . S
C822 C823 1.524 . S
C822 H841 0.913 . S
C823 H799 0.950 . S
C823 C822 1.524 . S
C823 C824 1.415 . S
C824 H800 0.950 . S
C824 C819 1.363 . S
C824 C823 1.415 . S
C825 H801 0.951 . S
C825 C826 1.366 . S
C825 C827 1.388 . S
C826 C825 1.366 . S
C826 C830 1.385 . S
C827 H802 0.951 . S
C827 C825 1.388 . S
C827 C828 1.366 . S
C828 C827 1.366 . S
C828 C829 1.414 . S
C828 C831 1.499 . S
C829 H803 0.950 . S
C829 C828 1.414 . S
C829 C830 1.374 . S
C830 H804 0.950 . S
C830 C826 1.385 . S
C830 C829 1.374 . S
C831 C828 1.499 . S
C831 C832 1.373 . S
C831 C833 1.389 . S
C832 H805 0.950 . S
C832 C818 1.377 . S
C832 C831 1.373 . S
C833 C817 1.377 . S
C833 C831 1.389 . S
C833 C834 1.524 . S
C834 C833 1.524 . S
C834 C835 1.397 . S
C834 C839 1.363 . S
C835 H806 0.950 . S
C835 C834 1.397 . S
C835 C836 1.334 . S
C836 H807 0.950 . S
C836 C835 1.334 . S
C836 C837 1.287 . S
C837 C836 1.287 . S
C837 C838 1.524 . S
C837 H840 0.999 . S
C838 H808 0.950 . S
C838 C837 1.524 . S
C838 C839 1.415 . S
C839 H809 0.950 . S
C839 C834 1.363 . S
C839 C838 1.415 . S
H840 C837 0.999 . S
H841 C822 0.913 . S
H842 C860 0.951 . S
H843 C862 0.951 . S
H844 C864 0.950 1_655 S
H845 C865 0.950 . S
H846 C867 0.950 . S
H847 C870 0.950 . S
H848 C871 0.950 . S
H849 C873 0.950 . S
H850 C874 0.950 . S
H851 C875 0.951 . S
H852 C877 0.951 . S
H853 C879 0.950 . S
H854 C880 0.950 . S
H855 C882 0.950 . S
H856 C885 0.950 . S
H857 C886 0.950 . S
H858 C888 0.950 . S
H859 C889 0.950 . S
C860 H842 0.951 . S
C860 C861 1.366 . S
C860 C862 1.388 . S
C861 C860 1.366 . S
C861 C865 1.385 . S
C862 H843 0.951 . S
C862 C860 1.388 . S
C862 C863 1.366 . S
C863 C862 1.366 . S
C863 C864 1.414 . S
C863 C866 1.499 1_455 S
C864 H844 0.950 1_455 S
C864 C863 1.414 . S
C864 C865 1.374 . S
C865 H845 0.950 . S
C865 C861 1.385 . S
C865 C864 1.374 . S
C866 C863 1.499 1_655 S
C866 C867 1.373 . S
C866 C868 1.389 . S
C867 H846 0.950 . S
C867 C866 1.373 . S
C867 C883 1.377 . S
C868 C866 1.389 . S
C868 C869 1.524 1_655 S
C868 C882 1.377 . S
C869 C868 1.524 1_455 S
C869 C870 1.397 . S
C869 C874 1.363 . S
C870 H847 0.950 . S
C870 C869 1.397 . S
C870 C871 1.334 . S
C871 H848 0.950 . S
C871 C870 1.334 . S
C871 C872 1.287 . S
C872 C871 1.287 . S
C872 C873 1.524 . S
C872 H891 0.913 . S
C873 H849 0.950 . S
C873 C872 1.524 . S
C873 C874 1.415 . S
C874 H850 0.950 . S
C874 C869 1.363 . S
C874 C873 1.415 . S
C875 H851 0.951 . S
C875 C876 1.366 . S
C875 C877 1.388 . S
C876 C875 1.366 . S
C876 C880 1.385 . S
C877 H852 0.951 . S
C877 C875 1.388 . S
C877 C878 1.366 . S
C878 C877 1.366 . S
C878 C879 1.414 . S
C878 C881 1.499 . S
C879 H853 0.950 . S
C879 C878 1.414 . S
C879 C880 1.374 . S
C880 H854 0.950 . S
C880 C876 1.385 . S
C880 C879 1.374 . S
C881 C878 1.499 . S
C881 C882 1.373 . S
C881 C883 1.389 . S
C882 H855 0.950 . S
C882 C868 1.377 . S
C882 C881 1.373 . S
C883 C867 1.377 . S
C883 C881 1.389 . S
C883 C884 1.524 . S
C884 C883 1.524 . S
C884 C885 1.397 . S
C884 C889 1.363 . S
C885 H856 0.950 . S
C885 C884 1.397 . S
C885 C886 1.334 . S
C886 H857 0.950 . S
C886 C885 1.334 . S
C886 C887 1.287 . S
C887 C886 1.287 . S
C887 C888 1.524 . S
C887 H890 0.999 . S
C888 H858 0.950 . S
C888 C887 1.524 . S
C888 C889 1.415 . S
C889 H859 0.950 . S
C889 C884 1.363 . S
C889 C888 1.415 . S
H890 C887 0.999 . S
H891 C872 0.913 . S
H892 C910 0.951 . S
H893 C912 0.951 . S
H894 C914 0.950 . S
H895 C915 0.950 . S
H896 C917 0.950 . S
H897 C920 0.950 . S
H898 C921 0.950 . S
H899 C923 0.950 . S
H900 C924 0.950 . S
H901 C925 0.951 . S
H902 C927 0.951 . S
H903 C929 0.950 . S
H904 C930 0.950 . S
H905 C932 0.950 . S
H906 C935 0.950 . S
H907 C936 0.950 . S
H908 C938 0.950 . S
H909 C939 0.950 . S
C910 H892 0.951 . S
C910 C911 1.366 . S
C910 C912 1.388 . S
C911 C910 1.366 . S
C911 C915 1.385 . S
C912 H893 0.951 . S
C912 C910 1.388 . S
C912 C913 1.366 . S
C913 C912 1.366 . S
C913 C914 1.414 . S
C913 C916 1.499 . S
C914 H894 0.950 . S
C914 C913 1.414 . S
C914 C915 1.374 . S
C915 H895 0.950 . S
C915 C911 1.385 . S
C915 C914 1.374 . S
C916 C913 1.499 . S
C916 C917 1.373 . S
C916 C918 1.389 . S
C917 H896 0.950 . S
C917 C916 1.373 . S
C917 C933 1.377 . S
C918 C916 1.389 . S
C918 C919 1.524 . S
C918 C932 1.377 . S
C919 C918 1.524 . S
C919 C920 1.397 . S
C919 C924 1.363 . S
C920 H897 0.950 . S
C920 C919 1.397 . S
C920 C921 1.334 . S
C921 H898 0.950 . S
C921 C920 1.334 . S
C921 C922 1.287 . S
C922 C921 1.287 . S
C922 C923 1.524 . S
C922 H941 0.913 . S
C923 H899 0.950 . S
C923 C922 1.524 . S
C923 C924 1.415 . S
C924 H900 0.950 . S
C924 C919 1.363 . S
C924 C923 1.415 . S
C925 H901 0.951 . S
C925 C926 1.366 . S
C925 C927 1.388 . S
C926 C925 1.366 . S
C926 C930 1.385 . S
C927 H902 0.951 . S
C927 C925 1.388 . S
C927 C928 1.366 . S
C928 C927 1.366 . S
C928 C929 1.414 . S
C928 C931 1.499 . S
C929 H903 0.950 . S
C929 C928 1.414 . S
C929 C930 1.374 . S
C930 H904 0.950 . S
C930 C926 1.385 . S
C930 C929 1.374 . S
C931 C928 1.499 . S
C931 C932 1.373 . S
C931 C933 1.389 . S
C932 H905 0.950 . S
C932 C918 1.377 . S
C932 C931 1.373 . S
C933 C917 1.377 . S
C933 C931 1.389 . S
C933 C934 1.524 . S
C934 C933 1.524 . S
C934 C935 1.397 . S
C934 C939 1.363 . S
C935 H906 0.950 . S
C935 C934 1.397 . S
C935 C936 1.334 . S
C936 H907 0.950 . S
C936 C935 1.334 . S
C936 C937 1.287 . S
C937 C936 1.287 . S
C937 C938 1.524 . S
C937 H940 0.999 . S
C938 H908 0.950 . S
C938 C937 1.524 . S
C938 C939 1.415 . S
C939 H909 0.950 . S
C939 C934 1.363 . S
C939 C938 1.415 . S
H940 C937 0.999 . S
H941 C922 0.913 . S
H942 C960 0.951 . S
H943 C962 0.951 1_455 S
H944 C964 0.950 . S
H945 C965 0.950 . S
H946 C967 0.950 1_655 S
H947 C970 0.950 . S
H948 C971 0.950 . S
H949 C973 0.950 . S
H950 C974 0.950 . S
H951 C975 0.951 . S
H952 C977 0.951 . S
H953 C979 0.950 . S
H954 C980 0.950 . S
H955 C982 0.950 . S
H956 C985 0.950 . S
H957 C986 0.950 . S
H958 C988 0.950 . S
H959 C989 0.930 1_655 S
C960 H942 0.951 . S
C960 C961 1.366 . S
C960 C962 1.388 . S
C961 C960 1.366 . S
C961 C965 1.385 . S
C962 H943 0.951 1_655 S
C962 C960 1.388 . S
C962 C963 1.366 . S
C963 C962 1.366 . S
C963 C964 1.414 . S
C963 C966 1.499 1_655 S
C964 H944 0.950 . S
C964 C963 1.414 . S
C964 C965 1.374 . S
C965 H945 0.950 . S
C965 C961 1.385 . S
C965 C964 1.374 . S
C966 C963 1.499 1_455 S
C966 C967 1.373 . S
C966 C968 1.389 . S
C967 H946 0.950 1_455 S
C967 C966 1.373 . S
C967 C983 1.377 . S
C968 C966 1.389 . S
C968 C969 1.524 . S
C968 C982 1.377 . S
C969 C968 1.524 . S
C969 C970 1.397 1_455 S
C969 C974 1.363 . S
C970 H947 0.950 . S
C970 C969 1.397 1_655 S
C970 C971 1.334 . S
C971 H948 0.950 . S
C971 C970 1.334 . S
C971 C972 1.287 1_655 S
C972 C971 1.287 1_455 S
C972 C973 1.524 . S
C972 H991 0.913 . S
C973 H949 0.950 . S
C973 C972 1.524 . S
C973 C974 1.415 . S
C974 H950 0.950 . S
C974 C969 1.363 . S
C974 C973 1.415 . S
C975 H951 0.951 . S
C975 C976 1.366 . S
C975 C977 1.388 . S
C976 C975 1.366 . S
C976 C980 1.385 . S
C977 H952 0.951 . S
C977 C975 1.388 . S
C977 C978 1.366 . S
C978 C977 1.366 . S
C978 C979 1.414 . S
C978 C981 1.499 . S
C979 H953 0.950 . S
C979 C978 1.414 . S
C979 C980 1.374 . S
C980 H954 0.950 . S
C980 C976 1.385 . S
C980 C979 1.374 . S
C981 C978 1.499 . S
C981 C982 1.373 . S
C981 C983 1.389 . S
C982 H955 0.950 . S
C982 C968 1.377 . S
C982 C981 1.373 . S
C983 C967 1.377 . S
C983 C981 1.389 . S
C983 C984 1.524 . S
C984 C983 1.524 . S
C984 C985 1.397 . S
C984 C989 1.363 . S
C985 H956 0.950 . S
C985 C984 1.397 . S
C985 C986 1.334 . S
C986 H957 0.950 . S
C986 C985 1.334 . S
C986 C987 1.287 . S
C987 C986 1.287 . S
C987 C988 1.524 . S
C987 H990 0.999 . S
C988 H958 0.950 . S
C988 C987 1.524 . S
C988 C989 1.415 . S
C989 H959 0.930 1_455 S
C989 C984 1.363 . S
C989 C988 1.415 . S
H990 C987 0.999 . S
H991 C972 0.913 . S
H992 C1010 0.951 . S
H993 C1012 0.951 . S
H994 C1014 0.950 . S
H995 C1015 0.950 . S
H996 C1017 0.950 . S
H997 C1020 0.950 . S
H998 C1021 0.950 . S
H999 C1023 0.950 . S
H1000 C1024 0.950 . S
H1001 C1025 0.951 . S
H1002 C1027 0.951 . S
H1003 C1029 0.950 . S
H1004 C1030 0.950 . S
H1005 C1032 0.950 . S
H1006 C1035 0.950 . S
H1007 C1036 0.950 . S
H1008 C1038 0.950 . S
H1009 C1039 0.950 . S
C1010 H992 0.951 . S
C1010 C1011 1.366 . S
C1010 C1012 1.388 . S
C1011 C1010 1.366 . S
C1011 C1015 1.385 . S
C1012 H993 0.951 . S
C1012 C1010 1.388 . S
C1012 C1013 1.366 . S
C1013 C1012 1.366 . S
C1013 C1014 1.414 . S
C1013 C1016 1.499 . S
C1014 H994 0.950 . S
C1014 C1013 1.414 . S
C1014 C1015 1.374 . S
C1015 H995 0.950 . S
C1015 C1011 1.385 . S
C1015 C1014 1.374 . S
C1016 C1013 1.499 . S
C1016 C1017 1.373 . S
C1016 C1018 1.389 . S
C1017 H996 0.950 . S
C1017 C1016 1.373 . S
C1017 C1033 1.377 . S
C1018 C1016 1.389 . S
C1018 C1019 1.524 . S
C1018 C1032 1.377 . S
C1019 C1018 1.524 . S
C1019 C1020 1.397 . S
C1019 C1024 1.363 . S
C1020 H997 0.950 . S
C1020 C1019 1.397 . S
C1020 C1021 1.334 . S
C1021 H998 0.950 . S
C1021 C1020 1.334 . S
C1021 C1022 1.287 . S
C1022 C1021 1.287 . S
C1022 C1023 1.524 . S
C1022 H1041 0.913 . S
C1023 H999 0.950 . S
C1023 C1022 1.524 . S
C1023 C1024 1.415 . S
C1024 H1000 0.950 . S
C1024 C1019 1.363 . S
C1024 C1023 1.415 . S
C1025 H1001 0.951 . S
C1025 C1026 1.366 . S
C1025 C1027 1.388 . S
C1026 C1025 1.366 . S
C1026 C1030 1.385 . S
C1027 H1002 0.951 . S
C1027 C1025 1.388 . S
C1027 C1028 1.366 . S
C1028 C1027 1.366 . S
C1028 C1029 1.414 . S
C1028 C1031 1.499 . S
C1029 H1003 0.950 . S
C1029 C1028 1.414 . S
C1029 C1030 1.374 . S
C1030 H1004 0.950 . S
C1030 C1026 1.385 . S
C1030 C1029 1.374 . S
C1031 C1028 1.499 . S
C1031 C1032 1.373 . S
C1031 C1033 1.389 . S
C1032 H1005 0.950 . S
C1032 C1018 1.377 . S
C1032 C1031 1.373 . S
C1033 C1017 1.377 . S
C1033 C1031 1.389 . S
C1033 C1034 1.524 . S
C1034 C1033 1.524 . S
C1034 C1035 1.397 . S
C1034 C1039 1.363 . S
C1035 H1006 0.950 . S
C1035 C1034 1.397 . S
C1035 C1036 1.334 . S
C1036 H1007 0.950 . S
C1036 C1035 1.334 . S
C1036 C1037 1.287 . S
C1037 C1036 1.287 . S
C1037 C1038 1.524 . S
C1037 H1040 0.999 . S
C1038 H1008 0.950 . S
C1038 C1037 1.524 . S
C1038 C1039 1.415 . S
C1039 H1009 0.950 . S
C1039 C1034 1.363 . S
C1039 C1038 1.415 . S
H1040 C1037 0.999 . S
H1041 C1022 0.913 . S
H1042 C1060 0.951 . S
H1043 C1062 0.951 . S
H1044 C1064 0.950 . S
H1045 C1065 0.950 . S
H1046 C1067 0.950 . S
H1047 C1070 0.950 . S
H1048 C1071 0.950 . S
H1049 C1073 0.950 . S
H1050 C1074 0.950 . S
H1051 C1075 0.951 . S
H1052 C1077 0.951 . S
H1053 C1079 0.950 . S
H1054 C1080 0.950 . S
H1055 C1082 0.950 . S
H1056 C1085 0.950 . S
H1057 C1086 0.950 . S
H1058 C1088 0.950 . S
H1059 C1089 0.950 . S
C1060 H1042 0.951 . S
C1060 C1061 1.366 . S
C1060 C1062 1.388 . S
C1061 C1060 1.366 . S
C1061 C1065 1.385 . S
C1062 H1043 0.951 . S
C1062 C1060 1.388 . S
C1062 C1063 1.366 . S
C1063 C1062 1.366 . S
C1063 C1064 1.414 . S
C1063 C1066 1.499 . S
C1064 H1044 0.950 . S
C1064 C1063 1.414 . S
C1064 C1065 1.374 . S
C1065 H1045 0.950 . S
C1065 C1061 1.385 . S
C1065 C1064 1.374 . S
C1066 C1063 1.499 . S
C1066 C1067 1.373 . S
C1066 C1068 1.389 . S
C1067 H1046 0.950 . S
C1067 C1066 1.373 . S
C1067 C1083 1.377 . S
C1068 C1066 1.389 . S
C1068 C1069 1.524 . S
C1068 C1082 1.377 . S
C1069 C1068 1.524 . S
C1069 C1070 1.397 . S
C1069 C1074 1.363 . S
C1070 H1047 0.950 . S
C1070 C1069 1.397 . S
C1070 C1071 1.334 . S
C1071 H1048 0.950 . S
C1071 C1070 1.334 . S
C1071 C1072 1.287 . S
C1072 C1071 1.287 . S
C1072 C1073 1.524 . S
C1072 H1091 0.913 . S
C1073 H1049 0.950 . S
C1073 C1072 1.524 . S
C1073 C1074 1.415 . S
C1074 H1050 0.950 . S
C1074 C1069 1.363 . S
C1074 C1073 1.415 . S
C1075 H1051 0.951 . S
C1075 C1076 1.366 . S
C1075 C1077 1.388 . S
C1076 C1075 1.366 . S
C1076 C1080 1.385 . S
C1077 H1052 0.951 . S
C1077 C1075 1.388 . S
C1077 C1078 1.366 . S
C1078 C1077 1.366 . S
C1078 C1079 1.414 . S
C1078 C1081 1.499 . S
C1079 H1053 0.950 . S
C1079 C1078 1.414 . S
C1079 C1080 1.374 . S
C1080 H1054 0.950 . S
C1080 C1076 1.385 . S
C1080 C1079 1.374 . S
C1081 C1078 1.499 . S
C1081 C1082 1.373 . S
C1081 C1083 1.389 . S
C1082 H1055 0.950 . S
C1082 C1068 1.377 . S
C1082 C1081 1.373 . S
C1083 C1067 1.377 . S
C1083 C1081 1.389 . S
C1083 C1084 1.524 . S
C1084 C1083 1.524 . S
C1084 C1085 1.397 . S
C1084 C1089 1.363 . S
C1085 H1056 0.950 . S
C1085 C1084 1.397 . S
C1085 C1086 1.334 . S
C1086 H1057 0.950 . S
C1086 C1085 1.334 . S
C1086 C1087 1.287 . S
C1087 C1086 1.287 . S
C1087 C1088 1.524 . S
C1087 H1090 0.999 . S
C1088 H1058 0.950 . S
C1088 C1087 1.524 . S
C1088 C1089 1.415 . S
C1089 H1059 0.950 . S
C1089 C1084 1.363 . S
C1089 C1088 1.415 . S
H1090 C1087 0.999 . S
H1091 C1072 0.913 . S
H1092 C1110 0.951 . S
H1093 C1112 0.951 . S
H1094 C1114 0.950 . S
H1095 C1115 0.950 . S
H1096 C1117 0.950 . S
H1097 C1120 0.950 . S
H1098 C1121 0.950 . S
H1099 C1123 0.950 . S
H1100 C1124 0.950 . S
H1101 C1125 0.951 . S
H1102 C1127 0.951 . S
H1103 C1129 0.950 . S
H1104 C1130 0.950 . S
H1105 C1132 0.950 . S
H1106 C1135 0.950 . S
H1107 C1136 0.950 . S
H1108 C1138 0.950 . S
H1109 C1139 0.950 . S
C1110 H1092 0.951 . S
C1110 C1111 1.366 . S
C1110 C1112 1.388 . S
C1111 C1110 1.366 . S
C1111 C1115 1.385 . S
C1112 H1093 0.951 . S
C1112 C1110 1.388 . S
C1112 C1113 1.366 . S
C1113 C1112 1.366 . S
C1113 C1114 1.414 . S
C1113 C1116 1.499 . S
C1114 H1094 0.950 . S
C1114 C1113 1.414 . S
C1114 C1115 1.374 . S
C1115 H1095 0.950 . S
C1115 C1111 1.385 . S
C1115 C1114 1.374 . S
C1116 C1113 1.499 . S
C1116 C1117 1.373 . S
C1116 C1118 1.389 . S
C1117 H1096 0.950 . S
C1117 C1116 1.373 . S
C1117 C1133 1.377 . S
C1118 C1116 1.389 . S
C1118 C1119 1.524 . S
C1118 C1132 1.377 . S
C1119 C1118 1.524 . S
C1119 C1120 1.397 . S
C1119 C1124 1.363 . S
C1120 H1097 0.950 . S
C1120 C1119 1.397 . S
C1120 C1121 1.334 . S
C1121 H1098 0.950 . S
C1121 C1120 1.334 . S
C1121 C1122 1.287 . S
C1122 C1121 1.287 . S
C1122 C1123 1.524 . S
C1122 H1141 0.913 . S
C1123 H1099 0.950 . S
C1123 C1122 1.524 . S
C1123 C1124 1.415 . S
C1124 H1100 0.950 . S
C1124 C1119 1.363 . S
C1124 C1123 1.415 . S
C1125 H1101 0.951 . S
C1125 C1126 1.366 . S
C1125 C1127 1.388 . S
C1126 C1125 1.366 . S
C1126 C1130 1.385 . S
C1127 H1102 0.951 . S
C1127 C1125 1.388 . S
C1127 C1128 1.366 . S
C1128 C1127 1.366 . S
C1128 C1129 1.414 . S
C1128 C1131 1.499 . S
C1129 H1103 0.950 . S
C1129 C1128 1.414 . S
C1129 C1130 1.374 . S
C1130 H1104 0.950 . S
C1130 C1126 1.385 . S
C1130 C1129 1.374 . S
C1131 C1128 1.499 . S
C1131 C1132 1.373 . S
C1131 C1133 1.389 . S
C1132 H1105 0.950 . S
C1132 C1118 1.377 . S
C1132 C1131 1.373 . S
C1133 C1117 1.377 . S
C1133 C1131 1.389 . S
C1133 C1134 1.524 . S
C1134 C1133 1.524 . S
C1134 C1135 1.397 . S
C1134 C1139 1.363 . S
C1135 H1106 0.950 . S
C1135 C1134 1.397 . S
C1135 C1136 1.334 . S
C1136 H1107 0.950 . S
C1136 C1135 1.334 . S
C1136 C1137 1.287 . S
C1137 C1136 1.287 . S
C1137 C1138 1.524 . S
C1137 H1140 0.999 . S
C1138 H1108 0.950 . S
C1138 C1137 1.524 . S
C1138 C1139 1.415 . S
C1139 H1109 0.950 . S
C1139 C1134 1.363 . S
C1139 C1138 1.415 . S
H1140 C1137 0.999 . S
H1141 C1122 0.913 . S
H1142 C1160 0.951 . S
H1143 C1162 0.951 . S
H1144 C1164 0.950 . S
H1145 C1165 0.950 . S
H1146 C1167 0.950 . S
H1147 C1170 0.950 . S
H1148 C1171 0.950 . S
H1149 C1173 0.950 . S
H1150 C1174 0.950 . S
H1151 C1175 0.951 . S
H1152 C1177 0.951 . S
H1153 C1179 0.950 . S
H1154 C1180 0.950 . S
H1155 C1182 0.950 . S
H1156 C1185 0.950 . S
H1157 C1186 0.950 . S
H1158 C1188 0.950 . S
H1159 C1189 0.950 . S
C1160 H1142 0.951 . S
C1160 C1161 1.366 . S
C1160 C1162 1.388 . S
C1161 C1160 1.366 . S
C1161 C1165 1.385 . S
C1162 H1143 0.951 . S
C1162 C1160 1.388 . S
C1162 C1163 1.366 . S
C1163 C1162 1.366 . S
C1163 C1164 1.414 . S
C1163 C1166 1.499 . S
C1164 H1144 0.950 . S
C1164 C1163 1.414 . S
C1164 C1165 1.374 . S
C1165 H1145 0.950 . S
C1165 C1161 1.385 . S
C1165 C1164 1.374 . S
C1166 C1163 1.499 . S
C1166 C1167 1.373 . S
C1166 C1168 1.389 . S
C1167 H1146 0.950 . S
C1167 C1166 1.373 . S
C1167 C1183 1.377 . S
C1168 C1166 1.389 . S
C1168 C1169 1.524 . S
C1168 C1182 1.377 . S
C1169 C1168 1.524 . S
C1169 C1170 1.397 . S
C1169 C1174 1.363 . S
C1170 H1147 0.950 . S
C1170 C1169 1.397 . S
C1170 C1171 1.334 . S
C1171 H1148 0.950 . S
C1171 C1170 1.334 . S
C1171 C1172 1.287 . S
C1172 C1171 1.287 . S
C1172 C1173 1.524 . S
C1172 H1191 0.913 . S
C1173 H1149 0.950 . S
C1173 C1172 1.524 . S
C1173 C1174 1.415 . S
C1174 H1150 0.950 . S
C1174 C1169 1.363 . S
C1174 C1173 1.415 . S
C1175 H1151 0.951 . S
C1175 C1176 1.366 . S
C1175 C1177 1.388 . S
C1176 C1175 1.366 . S
C1176 C1180 1.385 . S
C1177 H1152 0.951 . S
C1177 C1175 1.388 . S
C1177 C1178 1.366 . S
C1178 C1177 1.366 . S
C1178 C1179 1.414 . S
C1178 C1181 1.499 . S
C1179 H1153 0.950 . S
C1179 C1178 1.414 . S
C1179 C1180 1.374 . S
C1180 H1154 0.950 . S
C1180 C1176 1.385 . S
C1180 C1179 1.374 . S
C1181 C1178 1.499 . S
C1181 C1182 1.373 . S
C1181 C1183 1.389 . S
C1182 H1155 0.950 . S
C1182 C1168 1.377 . S
C1182 C1181 1.373 . S
C1183 C1167 1.377 . S
C1183 C1181 1.389 . S
C1183 C1184 1.524 . S
C1184 C1183 1.524 . S
C1184 C1185 1.397 . S
C1184 C1189 1.363 . S
C1185 H1156 0.950 . S
C1185 C1184 1.397 . S
C1185 C1186 1.334 . S
C1186 H1157 0.950 . S
C1186 C1185 1.334 . S
C1186 C1187 1.287 . S
C1187 C1186 1.287 . S
C1187 C1188 1.524 . S
C1187 H1190 0.999 . S
C1188 H1158 0.950 . S
C1188 C1187 1.524 . S
C1188 C1189 1.415 . S
C1189 H1159 0.950 . S
C1189 C1184 1.363 . S
C1189 C1188 1.415 . S
H1190 C1187 0.999 . S
H1191 C1172 0.913 . S
H1192 C1210 0.951 . S
H1193 C1212 0.951 . S
H1194 C1214 0.950 . S
H1195 C1215 0.950 . S
H1196 C1217 0.950 . S
H1197 C1220 0.950 . S
H1198 C1221 0.950 . S
H1199 C1223 0.950 . S
H1200 C1224 0.950 . S
H1201 C1225 0.951 . S
H1202 C1227 0.951 . S
H1203 C1229 0.950 . S
H1204 C1230 0.950 . S
H1205 C1232 0.950 . S
H1206 C1235 0.950 . S
H1207 C1236 0.950 . S
H1208 C1238 0.950 . S
H1209 C1239 0.950 . S
C1210 H1192 0.951 . S
C1210 C1211 1.366 . S
C1210 C1212 1.388 . S
C1211 C1210 1.366 . S
C1211 C1215 1.385 . S
C1212 H1193 0.951 . S
C1212 C1210 1.388 . S
C1212 C1213 1.366 . S
C1213 C1212 1.366 . S
C1213 C1214 1.414 . S
C1213 C1216 1.499 . S
C1214 H1194 0.950 . S
C1214 C1213 1.414 . S
C1214 C1215 1.374 . S
C1215 H1195 0.950 . S
C1215 C1211 1.385 . S
C1215 C1214 1.374 . S
C1216 C1213 1.499 . S
C1216 C1217 1.373 . S
C1216 C1218 1.389 . S
C1217 H1196 0.950 . S
C1217 C1216 1.373 . S
C1217 C1233 1.377 . S
C1218 C1216 1.389 . S
C1218 C1219 1.524 . S
C1218 C1232 1.377 . S
C1219 C1218 1.524 . S
C1219 C1220 1.397 . S
C1219 C1224 1.363 . S
C1220 H1197 0.950 . S
C1220 C1219 1.397 . S
C1220 C1221 1.334 . S
C1221 H1198 0.950 . S
C1221 C1220 1.334 . S
C1221 C1222 1.287 . S
C1222 C1221 1.287 . S
C1222 C1223 1.524 . S
C1222 H1241 0.913 . S
C1223 H1199 0.950 . S
C1223 C1222 1.524 . S
C1223 C1224 1.415 . S
C1224 H1200 0.950 . S
C1224 C1219 1.363 . S
C1224 C1223 1.415 . S
C1225 H1201 0.951 . S
C1225 C1226 1.366 . S
C1225 C1227 1.388 . S
C1226 C1225 1.366 . S
C1226 C1230 1.385 . S
C1227 H1202 0.951 . S
C1227 C1225 1.388 . S
C1227 C1228 1.366 . S
C1228 C1227 1.366 . S
C1228 C1229 1.414 . S
C1228 C1231 1.499 . S
C1229 H1203 0.950 . S
C1229 C1228 1.414 . S
C1229 C1230 1.374 . S
C1230 H1204 0.950 . S
C1230 C1226 1.385 . S
C1230 C1229 1.374 . S
C1231 C1228 1.499 . S
C1231 C1232 1.373 . S
C1231 C1233 1.389 . S
C1232 H1205 0.950 . S
C1232 C1218 1.377 . S
C1232 C1231 1.373 . S
C1233 C1217 1.377 . S
C1233 C1231 1.389 . S
C1233 C1234 1.524 . S
C1234 C1233 1.524 . S
C1234 C1235 1.397 . S
C1234 C1239 1.363 . S
C1235 H1206 0.950 . S
C1235 C1234 1.397 . S
C1235 C1236 1.334 . S
C1236 H1207 0.950 . S
C1236 C1235 1.334 . S
C1236 C1237 1.287 . S
C1237 C1236 1.287 . S
C1237 C1238 1.524 . S
C1237 H1240 0.999 . S
C1238 H1208 0.950 . S
C1238 C1237 1.524 . S
C1238 C1239 1.415 . S
C1239 H1209 0.950 . S
C1239 C1234 1.363 . S
C1239 C1238 1.415 . S
H1240 C1237 0.999 . S
H1241 C1222 0.913 . S
H1242 C1260 0.951 . S
H1243 C1262 0.951 . S
H1244 C1264 0.950 . S
H1245 C1265 0.950 1_554 S
H1246 C1267 0.950 . S
H1247 C1270 0.950 . S
H1248 C1271 0.950 . S
H1249 C1273 0.950 . S
H1250 C1274 0.950 . S
H1251 C1275 0.951 . S
H1252 C1277 0.951 . S
H1253 C1279 0.950 . S
H1254 C1280 0.950 . S
H1255 C1282 0.950 . S
H1256 C1285 0.950 . S
H1257 C1286 0.950 . S
H1258 C1288 0.950 1_554 S
H1259 C1289 0.950 . S
C1260 H1242 0.951 . S
C1260 C1261 1.366 . S
C1260 C1262 1.388 . S
C1261 C1260 1.366 . S
C1261 C1265 1.385 . S
C1262 H1243 0.951 . S
C1262 C1260 1.388 . S
C1262 C1263 1.366 . S
C1263 C1262 1.366 . S
C1263 C1264 1.414 . S
C1263 C1266 1.499 . S
C1264 H1244 0.950 . S
C1264 C1263 1.414 . S
C1264 C1265 1.374 . S
C1265 H1245 0.950 1_556 S
C1265 C1261 1.385 . S
C1265 C1264 1.374 . S
C1266 C1263 1.499 . S
C1266 C1267 1.373 . S
C1266 C1268 1.389 . S
C1267 H1246 0.950 . S
C1267 C1266 1.373 . S
C1267 C1283 1.377 . S
C1268 C1266 1.389 . S
C1268 C1269 1.524 . S
C1268 C1282 1.377 . S
C1269 C1268 1.524 . S
C1269 C1270 1.397 . S
C1269 C1274 1.363 . S
C1270 H1247 0.950 . S
C1270 C1269 1.397 . S
C1270 C1271 1.334 . S
C1271 H1248 0.950 . S
C1271 C1270 1.334 . S
C1271 C1272 1.287 . S
C1272 C1271 1.287 . S
C1272 C1273 1.524 . S
C1272 H1291 0.913 . S
C1273 H1249 0.950 . S
C1273 C1272 1.524 . S
C1273 C1274 1.415 . S
C1274 H1250 0.950 . S
C1274 C1269 1.363 . S
C1274 C1273 1.415 . S
C1275 H1251 0.951 . S
C1275 C1276 1.366 . S
C1275 C1277 1.388 . S
C1276 C1275 1.366 . S
C1276 C1280 1.385 . S
C1277 H1252 0.951 . S
C1277 C1275 1.388 . S
C1277 C1278 1.366 . S
C1278 C1277 1.366 . S
C1278 C1279 1.414 . S
C1278 C1281 1.499 . S
C1279 H1253 0.950 . S
C1279 C1278 1.414 . S
C1279 C1280 1.374 . S
C1280 H1254 0.950 . S
C1280 C1276 1.385 . S
C1280 C1279 1.374 . S
C1281 C1278 1.499 . S
C1281 C1282 1.373 . S
C1281 C1283 1.389 . S
C1282 H1255 0.950 . S
C1282 C1268 1.377 . S
C1282 C1281 1.373 . S
C1283 C1267 1.377 . S
C1283 C1281 1.389 . S
C1283 C1284 1.524 . S
C1284 C1283 1.524 . S
C1284 C1285 1.397 . S
C1284 C1289 1.363 . S
C1285 H1256 0.950 . S
C1285 C1284 1.397 . S
C1285 C1286 1.334 . S
C1286 H1257 0.950 . S
C1286 C1285 1.334 . S
C1286 C1287 1.287 . S
C1287 C1286 1.287 . S
C1287 C1288 1.524 . S
C1287 H1290 0.999 1_556 S
C1288 H1258 0.950 1_556 S
C1288 C1287 1.524 . S
C1288 C1289 1.415 . S
C1289 H1259 0.950 . S
C1289 C1284 1.363 . S
C1289 C1288 1.415 . S
H1290 C1287 0.999 1_554 S
H1291 C1272 0.913 . S
H1292 C1310 0.951 . S
H1293 C1312 0.951 . S
H1294 C1314 0.950 . S
H1295 C1315 0.950 . S
H1296 C1317 0.950 . S
H1297 C1320 0.950 . S
H1298 C1321 0.950 . S
H1299 C1323 0.950 . S
H1300 C1324 0.950 . S
H1301 C1325 0.951 . S
H1302 C1327 0.951 . S
H1303 C1329 0.950 . S
H1304 C1330 0.950 . S
H1305 C1332 0.950 . S
H1306 C1335 0.950 . S
H1307 C1336 0.950 . S
H1308 C1338 0.950 . S
H1309 C1339 0.950 . S
C1310 H1292 0.951 . S
C1310 C1311 1.366 . S
C1310 C1312 1.388 . S
C1311 C1310 1.366 . S
C1311 C1315 1.385 . S
C1312 H1293 0.951 . S
C1312 C1310 1.388 . S
C1312 C1313 1.366 . S
C1313 C1312 1.366 . S
C1313 C1314 1.414 . S
C1313 C1316 1.499 . S
C1314 H1294 0.950 . S
C1314 C1313 1.414 . S
C1314 C1315 1.374 . S
C1315 H1295 0.950 . S
C1315 C1311 1.385 . S
C1315 C1314 1.374 . S
C1316 C1313 1.499 . S
C1316 C1317 1.373 . S
C1316 C1318 1.389 . S
C1317 H1296 0.950 . S
C1317 C1316 1.373 . S
C1317 C1333 1.377 . S
C1318 C1316 1.389 . S
C1318 C1319 1.524 . S
C1318 C1332 1.377 . S
C1319 C1318 1.524 . S
C1319 C1320 1.397 . S
C1319 C1324 1.363 . S
C1320 H1297 0.950 . S
C1320 C1319 1.397 . S
C1320 C1321 1.334 . S
C1321 H1298 0.950 . S
C1321 C1320 1.334 . S
C1321 C1322 1.287 . S
C1322 C1321 1.287 . S
C1322 C1323 1.524 . S
C1322 H1341 0.913 . S
C1323 H1299 0.950 . S
C1323 C1322 1.524 . S
C1323 C1324 1.415 . S
C1324 H1300 0.950 . S
C1324 C1319 1.363 . S
C1324 C1323 1.415 . S
C1325 H1301 0.951 . S
C1325 C1326 1.366 . S
C1325 C1327 1.388 . S
C1326 C1325 1.366 . S
C1326 C1330 1.385 . S
C1327 H1302 0.951 . S
C1327 C1325 1.388 . S
C1327 C1328 1.366 . S
C1328 C1327 1.366 . S
C1328 C1329 1.414 . S
C1328 C1331 1.499 . S
C1329 H1303 0.950 . S
C1329 C1328 1.414 . S
C1329 C1330 1.374 . S
C1330 H1304 0.950 . S
C1330 C1326 1.385 . S
C1330 C1329 1.374 . S
C1331 C1328 1.499 . S
C1331 C1332 1.373 . S
C1331 C1333 1.389 . S
C1332 H1305 0.950 . S
C1332 C1318 1.377 . S
C1332 C1331 1.373 . S
C1333 C1317 1.377 . S
C1333 C1331 1.389 . S
C1333 C1334 1.524 . S
C1334 C1333 1.524 . S
C1334 C1335 1.397 . S
C1334 C1339 1.363 . S
C1335 H1306 0.950 . S
C1335 C1334 1.397 . S
C1335 C1336 1.334 . S
C1336 H1307 0.950 . S
C1336 C1335 1.334 . S
C1336 C1337 1.287 . S
C1337 C1336 1.287 . S
C1337 C1338 1.524 . S
C1337 H1340 0.999 . S
C1338 H1308 0.950 . S
C1338 C1337 1.524 . S
C1338 C1339 1.415 . S
C1339 H1309 0.950 . S
C1339 C1334 1.363 . S
C1339 C1338 1.415 . S
H1340 C1337 0.999 . S
H1341 C1322 0.913 . S
H1342 C1360 0.951 . S
H1343 C1362 0.951 . S
H1344 C1364 0.950 . S
H1345 C1365 0.950 . S
H1346 C1367 0.950 . S
H1347 C1370 0.950 . S
H1348 C1371 0.950 . S
H1349 C1373 0.950 . S
H1350 C1374 0.950 . S
H1351 C1375 0.951 . S
H1352 C1377 0.951 . S
H1353 C1379 0.950 . S
H1354 C1380 0.950 . S
H1355 C1382 0.950 . S
H1356 C1385 0.950 . S
H1357 C1386 0.950 . S
H1358 C1388 0.950 . S
H1359 C1389 0.950 . S
C1360 H1342 0.951 . S
C1360 C1361 1.366 . S
C1360 C1362 1.388 . S
C1361 C1360 1.366 . S
C1361 C1365 1.385 . S
C1362 H1343 0.951 . S
C1362 C1360 1.388 . S
C1362 C1363 1.366 . S
C1363 C1362 1.366 . S
C1363 C1364 1.414 . S
C1363 C1366 1.499 . S
C1364 H1344 0.950 . S
C1364 C1363 1.414 . S
C1364 C1365 1.374 . S
C1365 H1345 0.950 . S
C1365 C1361 1.385 . S
C1365 C1364 1.374 . S
C1366 C1363 1.499 . S
C1366 C1367 1.373 . S
C1366 C1368 1.389 . S
C1367 H1346 0.950 . S
C1367 C1366 1.373 . S
C1367 C1383 1.377 . S
C1368 C1366 1.389 . S
C1368 C1369 1.524 . S
C1368 C1382 1.377 . S
C1369 C1368 1.524 . S
C1369 C1370 1.397 . S
C1369 C1374 1.363 . S
C1370 H1347 0.950 . S
C1370 C1369 1.397 . S
C1370 C1371 1.334 . S
C1371 H1348 0.950 . S
C1371 C1370 1.334 . S
C1371 C1372 1.287 . S
C1372 C1371 1.287 . S
C1372 C1373 1.524 . S
C1372 H1391 0.913 . S
C1373 H1349 0.950 . S
C1373 C1372 1.524 . S
C1373 C1374 1.415 . S
C1374 H1350 0.950 . S
C1374 C1369 1.363 . S
C1374 C1373 1.415 . S
C1375 H1351 0.951 . S
C1375 C1376 1.366 . S
C1375 C1377 1.388 . S
C1376 C1375 1.366 . S
C1376 C1380 1.385 . S
C1377 H1352 0.951 . S
C1377 C1375 1.388 . S
C1377 C1378 1.366 . S
C1378 C1377 1.366 . S
C1378 C1379 1.414 . S
C1378 C1381 1.499 . S
C1379 H1353 0.950 . S
C1379 C1378 1.414 . S
C1379 C1380 1.374 . S
C1380 H1354 0.950 . S
C1380 C1376 1.385 . S
C1380 C1379 1.374 . S
C1381 C1378 1.499 . S
C1381 C1382 1.373 . S
C1381 C1383 1.389 . S
C1382 H1355 0.950 . S
C1382 C1368 1.377 . S
C1382 C1381 1.373 . S
C1383 C1367 1.377 . S
C1383 C1381 1.389 . S
C1383 C1384 1.524 . S
C1384 C1383 1.524 . S
C1384 C1385 1.397 . S
C1384 C1389 1.363 . S
C1385 H1356 0.950 . S
C1385 C1384 1.397 . S
C1385 C1386 1.334 . S
C1386 H1357 0.950 . S
C1386 C1385 1.334 . S
C1386 C1387 1.287 . S
C1387 C1386 1.287 . S
C1387 C1388 1.524 . S
C1387 H1390 0.999 . S
C1388 H1358 0.950 . S
C1388 C1387 1.524 . S
C1388 C1389 1.415 . S
C1389 H1359 0.950 . S
C1389 C1384 1.363 . S
C1389 C1388 1.415 . S
H1390 C1387 0.999 . S
H1391 C1372 0.913 . S
C211 C7 1.257 . S
C226 C96 1.224 . S
C261 C37 1.132 . S
C276 C109 1.115 . S
C311 C54 1.354 . S
C326 C123 1.311 . S
C376 C136 1.306 . S
C361 C87 1.336 . S
C426 C148 1.182 . S
C411 C30 1.198 . S
C461 C51 1.402 1_556 S
C476 C162 1.344 . S
C511 C84 1.167 . S
C526 C174 1.130 . S
C561 C10 1.302 . S
C576 C188 1.265 . S
C611 C59 1.225 . S
C626 C187 1.192 . S
C676 C149 1.287 . S
C661 C74 1.355 . S
C726 C161 1.221 . S
C711 C18 1.230 . S
C761 C32 1.322 . S
C776 C175 1.289 . S
C826 C110 1.364 . S
C811 C73 1.394 . S
C861 C15 1.174 . S
C876 C122 1.161 . S
C926 C135 1.231 . S
C911 C43 1.265 . S
C976 C97 1.275 . S
C961 C62 1.310 . S
C1026 C170 1.248 . S
C1011 C21 1.296 . S
C1076 C183 1.249 . S
C1061 C29 1.333 . S
C1111 C52 1.365 . S
C1126 C144 1.311 . S
C1176 C157 1.398 . S
C1161 C81 1.414 . S
C1226 C118 1.279 . S
C1211 C40 1.318 . S
C1261 C65 1.389 1_556 S
C1276 C131 1.301 . S
C1326 C92 1.313 . S
C1311 C76 1.369 . S
C1376 C105 1.236 . S
C1361 C8 1.307 . S
