# Generated by pormake.
# Topology pts, (4,4)-cn, num edge types: 1
# Building blocks:
#     Node 0, Type 0, BuildingBlock: MIFKUJ_clean_linker_1, # of connection points: 4
#     Node 1, Type 0, BuildingBlock: MIFKUJ_clean_linker_1, # of connection points: 4
#     Node 2, Type 1, BuildingBlock: UXUYUI_clean_sbu_0, # of connection points: 4
#     Node 3, Type 1, BuildingBlock: UXUYUI_clean_sbu_0, # of connection points: 4
#     Edge 4, Type (0, 1), BuildingBlock: EZIPEK_clean_linker_0, # of connection points: 2
#     Edge 5, Type (0, 1), BuildingBlock: EZIPEK_clean_linker_0, # of connection points: 2
#     Edge 6, Type (0, 1), BuildingBlock: EZIPEK_clean_linker_0, # of connection points: 2
#     Edge 7, Type (0, 1), BuildingBlock: EZIPEK_clean_linker_0, # of connection points: 2
#     Edge 8, Type (0, 1), BuildingBlock: EZIPEK_clean_linker_0, # of connection points: 2
#     Edge 9, Type (0, 1), BuildingBlock: EZIPEK_clean_linker_0, # of connection points: 2
#     Edge 10, Type (0, 1), BuildingBlock: EZIPEK_clean_linker_0, # of connection points: 2
#     Edge 11, Type (0, 1), BuildingBlock: EZIPEK_clean_linker_0, # of connection points: 2
# Relax obj value: 0.001
# Max RMSD: 0.016
# Mean RMSD: 0.014
data_MOF--net-pts--node1-UXUYUI_clean_sbu_0--node2-MIFKUJ_clean_linker_1--edge1-EZIPEK_clean_linker_0
_symmetry_space_group_name_H-M    P1
_symmetry_Int_Tables_number       1
_symmetry_cell_setting            triclinic
loop_
_symmetry_equiv_pos_as_xyz
'x, y, z'
_cell_length_a     29.171167
_cell_length_b     29.193532
_cell_length_c     39.808652
_cell_angle_alpha  90.076142
_cell_angle_beta   89.986656
_cell_angle_gamma 90.096995
loop_
_atom_site_label
_atom_site_type_symbol
_atom_site_fract_x
_atom_site_fract_y
_atom_site_fract_z
_atom_type_partial_charge
H0 H 0.59167 0.94315 0.06557 0.0
H1 H 0.66243 0.94486 0.09905 0.0
H2 H 0.69031 0.08189 0.06402 0.0
H3 H 0.62032 0.07955 0.02963 0.0
H4 H 0.51728 0.00704 0.07142 0.0
H5 H 0.62497 0.95065 0.99187 0.0
H6 H 0.68965 0.94491 0.95479 0.0
H7 H 0.64847 0.07036 0.90607 0.0
H8 H 0.58445 0.07627 0.94403 0.0
H9 H 0.44437 0.07637 0.94544 0.0
H10 H 0.37323 0.0754 0.91253 0.0
H11 H 0.33042 0.95231 0.96348 0.0
H12 H 0.40216 0.95227 0.99571 0.0
H13 H 0.51262 0.0181 0.94718 0.0
H14 H 0.40498 0.07492 0.02857 0.0
H15 H 0.33495 0.07424 0.06288 0.0
H16 H 0.37772 0.94766 0.10878 0.0
H17 H 0.44748 0.9478 0.07419 0.0
C18 C 0.60102 0.01114 0.04508 0.0
C19 C 0.61327 0.97336 0.06488 0.0
C20 C 0.65349 0.97433 0.08391 0.0
C21 C 0.68145 0.01354 0.08403 0.0
C22 C 0.66922 0.05132 0.06416 0.0
C23 C 0.62945 0.04996 0.04458 0.0
C24 C 0.55742 0.01079 0.02612 0.0
C25 C 0.51617 0.00894 0.04421 0.0
C26 C 0.55621 0.01434 0.99074 0.0
C27 C 0.59834 0.01277 0.9698 0.0
C28 C 0.62932 0.97642 0.97258 0.0
C29 C 0.6656 0.97204 0.94985 0.0
C30 C 0.67022 1.00199 0.92205 0.0
C31 C 0.64264 0.04191 0.9228 0.0
C32 C 0.60643 0.04645 0.94554 0.0
C33 C 0.42848 0.01467 0.97331 0.0
C34 C 0.41978 0.04909 0.94952 0.0
C35 C 0.37923 0.04867 0.93086 0.0
C36 C 0.34671 0.01385 0.93571 0.0
C37 C 0.35514 0.9795 0.95953 0.0
C38 C 0.39589 0.97969 0.978 0.0
C39 C 0.47225 0.0147 0.99241 0.0
C40 C 0.51361 0.01657 0.9744 0.0
C41 C 0.47357 0.01117 0.02788 0.0
C42 C 0.43128 0.01117 0.04861 0.0
C43 C 0.39916 0.04681 0.04579 0.0
C44 C 0.35938 0.04656 0.06537 0.0
C45 C 0.35137 0.01086 0.08819 0.0
C46 C 0.38346 0.9754 0.09122 0.0
C47 C 0.4232 0.97561 0.07162 0.0
H48 H 0.08045 0.44754 0.44558 0.0
H49 H 0.07984 0.37733 0.41151 0.0
H50 H 0.95541 0.33376 0.46048 0.0
H51 H 0.95526 0.40434 0.49413 0.0
H52 H 0.02152 0.51594 0.44781 0.0
H53 H 0.07892 0.40696 0.52788 0.0
H54 H 0.07994 0.33721 0.56238 0.0
H55 H 0.95207 0.37707 0.60812 0.0
H56 H 0.95069 0.44663 0.57351 0.0
H57 H 0.94993 0.5862 0.57336 0.0
H58 H 0.9504 0.65693 0.60691 0.0
H59 H 0.07675 0.69826 0.55952 0.0
H60 H 0.07687 0.6273 0.52633 0.0
H61 H 0.00977 0.51687 0.57212 0.0
H62 H 0.95021 0.62322 0.49063 0.0
H63 H 0.94897 0.69381 0.45709 0.0
H64 H 0.08094 0.65946 0.41528 0.0
H65 H 0.08211 0.58866 0.44861 0.0
C66 C 0.01816 0.43104 0.47265 0.0
C67 C 0.05302 0.42293 0.44903 0.0
C68 C 0.05279 0.38296 0.42969 0.0
C69 C 0.01767 0.35058 0.43368 0.0
C70 C 0.98286 0.35841 0.45728 0.0
C71 C 0.98297 0.39849 0.47653 0.0
C72 C 0.01786 0.47424 0.49239 0.0
C73 C 0.01961 0.51606 0.47503 0.0
C74 C 0.01416 0.47456 0.52785 0.0
C75 C 0.01452 0.43181 0.54795 0.0
C76 C 0.05085 0.40048 0.54505 0.0
C77 C 0.05156 0.36088 0.56474 0.0
C78 C 0.01604 0.3522 0.58764 0.0
C79 C 0.97969 0.38333 0.59051 0.0
C80 C 0.979 0.42293 0.57088 0.0
C81 C 0.01314 0.60164 0.54713 0.0
C82 C 0.97774 0.61045 0.57017 0.0
C83 C 0.97789 0.65072 0.58919 0.0
C84 C 0.01355 0.6826 0.58552 0.0
C85 C 0.04892 0.67399 0.56251 0.0
C86 C 0.04882 0.6337 0.54353 0.0
C87 C 0.01339 0.55837 0.52752 0.0
C88 C 0.01166 0.51662 0.5449 0.0
C89 C 0.01704 0.55805 0.4921 0.0
C90 C 0.01638 0.60088 0.4722 0.0
C91 C 0.97897 0.63099 0.47438 0.0
C92 C 0.9782 0.67109 0.45527 0.0
C93 C 0.01491 0.6817 0.43384 0.0
C94 C 0.05237 0.65174 0.43173 0.0
C95 C 0.05296 0.61144 0.45061 0.0
Li96 Li 0.01701 0.05646 0.28258 0.0
Li97 Li 0.01163 0.97708 0.28418 0.0
Li98 Li 0.05976 0.01396 0.24069 0.0
Li99 Li 0.97078 0.01674 0.23975 0.0
C100 C 0.09413 0.03315 0.314 0.0
N101 N 0.14541 0.07552 0.36346 0.0
C102 C 0.07905 0.03282 0.34732 0.0
C103 C 0.13561 0.05448 0.30589 0.0
C104 C 0.10533 0.05464 0.37194 0.0
C105 C 0.16099 0.0758 0.33126 0.0
C106 C 0.92876 1.00114 0.30903 0.0
C107 C 0.85741 0.96092 0.31757 0.0
N108 N 0.8655 0.96041 0.35121 0.0
C109 C 0.9361 1.00068 0.34373 0.0
C110 C 0.88892 0.98145 0.29582 0.0
C111 C 0.90384 0.97972 0.36462 0.0
C112 C 0.98027 0.12092 0.32808 0.0
N113 N 0.01822 0.11117 0.30955 0.0
C114 C 0.05606 0.17824 0.3303 0.0
C115 C 0.05556 0.13921 0.31003 0.0
C116 C 0.01754 0.18859 0.34984 0.0
C117 C 0.97917 0.15977 0.34855 0.0
H118 H 0.95075 0.0986 0.32692 0.0
H119 H 0.08498 0.13142 0.29463 0.0
C120 C 0.04869 0.91307 0.3297 0.0
N121 N 0.00984 0.92375 0.31251 0.0
C122 C 0.0502 0.87417 0.35003 0.0
C123 C 0.97176 0.85767 0.33457 0.0
C124 C 0.97189 0.89666 0.31434 0.0
C125 C 0.01132 0.84616 0.3526 0.0
H126 H 0.07879 0.93443 0.32729 0.0
H127 H 0.94192 0.90476 0.29967 0.0
C128 C 0.02336 0.1128 0.23093 0.0
N129 N 0.03502 0.20672 0.22944 0.0
C130 C 0.9859 0.14179 0.23601 0.0
C131 C 0.0667 0.13156 0.22488 0.0
C132 C 0.99254 0.18919 0.23528 0.0
C133 C 0.07188 0.17914 0.22421 0.0
C134 C 0.01569 0.91703 0.23507 0.0
C135 C 0.05801 0.89553 0.23953 0.0
C136 C 0.97592 0.89054 0.23214 0.0
C137 C 0.05983 0.84777 0.24115 0.0
C138 C 0.97919 0.84286 0.23383 0.0
N139 N 0.02071 0.82264 0.23828 0.0
C140 C 0.15173 0.99172 0.22449 0.0
C141 C 0.10937 0.02797 0.18116 0.0
C142 C 0.19081 0.99058 0.20422 0.0
N143 N 0.11228 0.01059 0.21276 0.0
C144 C 0.14763 0.02764 0.16007 0.0
C145 C 0.18889 0.00899 0.17174 0.0
H146 H 0.1529 0.97792 0.24968 0.0
H147 H 0.07744 0.04262 0.17254 0.0
C148 C 0.88627 0.05045 0.21529 0.0
N149 N 0.9192 0.01813 0.21068 0.0
C150 C 0.84785 0.0515 0.19437 0.0
C151 C 0.87758 0.98547 0.1648 0.0
C152 C 0.91587 0.9863 0.18583 0.0
C153 C 0.84308 0.0184 0.169 0.0
H154 H 0.88962 0.07506 0.23545 0.0
H155 H 0.94285 0.96138 0.18246 0.0
O156 O 0.06862 0.01234 0.2895 0.0
O157 O 0.95987 0.02166 0.28817 0.0
O158 O 0.01778 0.06632 0.23234 0.0
O159 O 0.01316 0.96379 0.23432 0.0
H160 H 0.04731 0.01603 0.35406 0.0
H161 H 0.1477 0.05528 0.28021 0.0
H162 H 0.09388 0.05495 0.39779 0.0
H163 H 0.19296 0.09277 0.3253 0.0
H164 H 0.82659 0.94527 0.30767 0.0
H165 H 0.96639 0.01632 0.35441 0.0
H166 H 0.88259 0.9815 0.26907 0.0
H167 H 0.90923 0.97886 0.39149 0.0
H168 H 0.086 0.20022 0.33065 0.0
H169 H 0.94885 0.16725 0.36327 0.0
H170 H 0.08138 0.86581 0.36344 0.0
H171 H 0.94139 0.83633 0.33579 0.0
H172 H 0.95225 0.12785 0.24102 0.0
H173 H 0.09616 0.10966 0.22125 0.0
H174 H 0.96394 0.21203 0.23948 0.0
H175 H 0.10527 0.19413 0.21975 0.0
H176 H 0.08904 0.91555 0.24213 0.0
H177 H 0.94277 0.90663 0.22926 0.0
H178 H 0.09232 0.83068 0.24479 0.0
H179 H 0.94867 0.82193 0.23184 0.0
H180 H 0.22228 0.97593 0.21381 0.0
H181 H 0.14525 0.04207 0.13508 0.0
H182 H 0.82175 0.07732 0.19823 0.0
H183 H 0.87488 0.95953 0.14542 0.0
Li184 Li 0.97101 0.01499 0.78127 0.0
Li185 Li 0.05504 0.01545 0.7822 0.0
Li186 Li 0.01331 0.05972 0.73894 0.0
Li187 Li 0.01634 0.97688 0.73632 0.0
C188 C 0.98898 0.10737 0.79666 0.0
N189 N 0.94167 0.18673 0.81156 0.0
C190 C 0.00871 0.14056 0.81746 0.0
C191 C 0.94521 0.11454 0.78341 0.0
C192 C 0.98424 0.18047 0.8247 0.0
C193 C 0.92183 0.15487 0.79126 0.0
C194 C 0.02637 0.93248 0.80899 0.0
C195 C 0.07285 0.86909 0.82747 0.0
N196 N 0.05407 0.87255 0.85864 0.0
C197 C 1.00705 0.93498 0.84107 0.0
C198 C 0.0591 0.89889 0.80197 0.0
C199 C 0.02169 0.90454 0.86588 0.0
C200 C 0.88218 0.98495 0.79471 0.0
N201 N 0.9168 0.01072 0.8076 0.0
C202 C 0.8716 0.02947 0.85584 0.0
C203 C 0.91257 0.03251 0.8377 0.0
C204 C 0.83524 1.00362 0.84274 0.0
C205 C 0.84076 0.98097 0.81196 0.0
H206 H 0.88681 0.96763 0.77093 0.0
H207 H 0.94088 0.05239 0.84751 0.0
C208 C 0.14938 0.02396 0.79797 0.0
N209 N 0.10721 0.01556 0.81123 0.0
C210 C 0.18818 0.02378 0.8185 0.0
C211 C 0.13945 0.00749 0.86616 0.0
C212 C 0.10152 0.00843 0.84475 0.0
C213 C 0.18334 0.01509 0.85293 0.0
H214 H 0.15294 0.03108 0.77149 0.0
H215 H 0.06754 1.00374 0.85492 0.0
C216 C 0.94514 0.01578 0.69931 0.0
N217 N 0.91283 0.01341 0.63408 0.0
C218 C 0.97452 0.02545 0.67251 0.0
C219 C 0.89925 1.00508 0.69294 0.0
C220 C 0.95758 0.02404 0.63972 0.0
C221 C 0.88358 1.004 0.65979 0.0
C222 C 0.10149 1.00232 0.71366 0.0
C223 C 0.11191 0.02192 0.68254 0.0
C224 C 0.12517 0.96338 0.72426 0.0
C225 C 0.14544 1.00173 0.66232 0.0
C226 C 0.15845 0.9442 0.70332 0.0
N227 N 0.16777 0.96358 0.67302 0.0
C228 C 0.05437 0.13484 0.70642 0.0
C229 C 0.97335 0.13217 0.70138 0.0
C230 C 0.05628 0.17386 0.6862 0.0
N231 N 0.01338 0.11469 0.71329 0.0
C232 C 0.97367 0.17117 0.68114 0.0
C233 C 0.01555 0.1921 0.67325 0.0
H234 H 0.0856 0.12021 0.71634 0.0
H235 H 0.94122 0.11548 0.70721 0.0
C236 C 0.99976 0.8847 0.72028 0.0
N237 N 0.01681 0.92438 0.70743 0.0
C238 C 0.99867 0.84496 0.70072 0.0
C239 C 0.03229 0.88766 0.65489 0.0
C240 C 0.03256 0.92658 0.67527 0.0
C241 C 0.01522 0.84636 0.66769 0.0
H242 H 0.98688 0.88398 0.74575 0.0
H243 H 0.04522 0.95847 0.66526 0.0
O244 O 0.01275 0.0683 0.78921 0.0
O245 O 0.01234 0.96191 0.78435 0.0
O246 O 0.96094 0.01709 0.73167 0.0
O247 O 0.06838 0.02129 0.73364 0.0
H248 H 0.04262 0.13551 0.82786 0.0
H249 H 0.92938 0.08925 0.76726 0.0
H250 H 0.99909 0.20646 0.84076 0.0
H251 H 0.88793 0.16085 0.78119 0.0
H252 H 0.09831 0.84307 0.82242 0.0
H253 H 0.98138 0.96048 0.84686 0.0
H254 H 0.07346 0.89556 0.77707 0.0
H255 H 0.00733 0.90637 0.8909 0.0
H256 H 0.86818 0.0472 0.87962 0.0
H257 H 0.81319 0.96068 0.80137 0.0
H258 H 0.22164 0.03025 0.80766 0.0
H259 H 0.13465 1.00119 0.89274 0.0
H260 H 0.01004 0.034 0.67698 0.0
H261 H 0.87593 0.99778 0.71339 0.0
H262 H 0.98001 0.03142 0.61876 0.0
H263 H 0.84814 0.99573 0.65449 0.0
H264 H 0.09404 0.05215 0.67394 0.0
H265 H 0.11802 0.94827 0.74844 0.0
H266 H 0.15365 0.01636 0.6381 0.0
H267 H 0.1769 0.91394 0.71118 0.0
H268 H 0.08909 0.18947 0.68052 0.0
H269 H 0.94171 0.18467 0.6715 0.0
H270 H 0.98514 0.81349 0.71119 0.0
H271 H 0.04513 0.8897 0.6294 0.0
C272 C 0.27237 0.98145 0.10093 0.0
C273 C 0.30946 0.0108 0.10932 0.0
C274 C 0.26569 0.04191 0.15669 0.0
C275 C 0.23038 0.00961 0.15015 0.0
N276 N 0.20242 0.94412 0.11933 0.0
N277 N 0.34488 0.06407 0.14776 0.0
C278 C 0.23432 0.97811 0.12312 0.0
C279 C 0.30709 0.03973 0.13793 0.0
N280 N 0.273 0.95777 0.07126 0.0
N281 N 0.25905 0.07556 0.18011 0.0
H282 H 0.37572 0.06369 0.13449 0.0
H283 H 0.34696 0.08172 0.17045 0.0
H284 H 0.22924 0.07821 0.19445 0.0
H285 H 0.28134 0.10309 0.18341 0.0
H286 H 0.24492 0.93972 0.06196 0.0
H287 H 0.30043 0.95918 0.05447 0.0
H288 H 0.20599 0.91712 0.10243 0.0
H289 H 0.17397 0.94073 0.13502 0.0
C290 C 1.00652 0.26734 0.59547 0.0
C291 C 0.01726 0.31088 0.60929 0.0
C292 C 0.02409 0.27696 0.66537 0.0
C293 C 0.01672 0.23298 0.65116 0.0
N294 N 0.00856 0.18481 0.60225 0.0
N295 N 0.04433 0.35645 0.65584 0.0
C296 C 0.01011 0.22772 0.61604 0.0
C297 C 0.02838 0.3155 0.64384 0.0
N298 N 0.99144 0.26407 0.56303 0.0
N299 N 0.02547 0.28209 0.69951 0.0
H300 H 0.04795 0.38548 0.64081 0.0
H301 H 0.0577 0.36067 0.6799 0.0
H302 H 0.02267 0.25462 0.71612 0.0
H303 H 0.0256 0.31383 0.71146 0.0
H304 H 0.97825 0.23407 0.55263 0.0
H305 H 0.98869 0.29229 0.54711 0.0
H306 H 0.00879 0.17869 0.57647 0.0
H307 H 0.01088 0.15497 0.61654 0.0
C308 C 0.71817 0.01356 0.14119 0.0
C309 C 0.72295 0.01542 0.10573 0.0
C310 C 0.80594 0.02529 0.11209 0.0
C311 C 0.80165 0.01771 0.14718 0.0
N312 N 0.75429 0.99493 0.19409 0.0
N313 N 0.77237 0.01411 0.05707 0.0
C314 C 0.7579 0.00911 0.16149 0.0
C315 C 0.76715 0.01879 0.09102 0.0
N316 N 0.67585 0.01768 0.15562 0.0
N317 N 0.8466 0.04025 0.09899 0.0
H318 H 0.74492 0.00831 0.04082 0.0
H319 H 0.80427 0.01158 0.04544 0.0
H320 H 0.87553 0.04652 0.1137 0.0
H321 H 0.85029 0.05072 0.07413 0.0
H322 H 0.67102 0.0212 0.18143 0.0
H323 H 0.64592 0.02225 0.14169 0.0
H324 H 0.72359 0.98371 0.20466 0.0
H325 H 0.78263 0.98994 0.20962 0.0
C326 C 0.9851 0.76188 0.59804 0.0
C327 C 0.01427 0.72477 0.60635 0.0
C328 C 0.04705 0.76913 0.65284 0.0
C329 C 0.01489 0.80448 0.6465 0.0
N330 N 0.94858 0.83206 0.61656 0.0
N331 N 0.06803 0.68964 0.64441 0.0
C332 C 0.98258 0.80023 0.62001 0.0
C333 C 0.04391 0.72742 0.63454 0.0
N334 N 0.96081 0.76101 0.56867 0.0
N335 N 0.08153 0.77601 0.67558 0.0
H336 H 0.06692 0.65855 0.63149 0.0
H337 H 0.0862 0.68789 0.66689 0.0
H338 H 0.08501 0.80614 0.68947 0.0
H339 H 0.10892 0.75358 0.67864 0.0
H340 H 0.94287 0.78908 0.5594 0.0
H341 H 0.96163 0.73336 0.55204 0.0
H342 H 0.92113 0.82827 0.60007 0.0
H343 H 0.94561 0.86062 0.63218 0.0
C344 C 0.26963 0.04651 0.92118 0.0
C345 C 0.30403 0.01314 0.91536 0.0
C346 C 0.25627 0.97756 0.87187 0.0
C347 C 0.22437 0.01396 0.87504 0.0
N348 N 0.20404 0.0872 0.89892 0.0
N349 N 0.33384 0.95128 0.88156 0.0
C350 C 0.23188 0.04958 0.89873 0.0
C351 C 0.29838 0.97976 0.88973 0.0
N352 N 0.27239 0.07444 0.94871 0.0
N353 N 0.24575 0.94023 0.85256 0.0
H354 H 0.36537 0.95195 0.89391 0.0
H355 H 0.33346 0.92976 0.86068 0.0
H356 H 0.21502 0.93716 0.83933 0.0
H357 H 0.26549 0.91055 0.8521 0.0
H358 H 0.24596 0.0961 0.95623 0.0
H359 H 0.29941 0.07298 0.96584 0.0
H360 H 0.21081 0.11644 0.9131 0.0
H361 H 0.17625 0.09095 0.88268 0.0
C362 C 0.99856 0.31109 0.37951 0.0
C363 C 0.01691 0.30877 0.41248 0.0
C364 C 0.03249 0.2268 0.40524 0.0
C365 C 0.01722 0.22996 0.37147 0.0
N366 N 0.99072 0.27521 0.32476 0.0
N367 N 0.05589 0.26677 0.45599 0.0
C368 C 1.00163 0.27217 0.35811 0.0
C369 C 0.03506 0.2672 0.4252 0.0
N370 N 0.97704 0.35015 0.36906 0.0
N371 N 0.04374 0.18499 0.41832 0.0
H372 H 0.0575 0.29548 0.47159 0.0
H373 H 0.07428 0.23903 0.46528 0.0
H374 H 0.04375 0.15493 0.40412 0.0
H375 H 0.05019 0.17935 0.44368 0.0
H376 H 0.95849 0.35253 0.3468 0.0
H377 H 0.97474 0.37958 0.38386 0.0
H378 H 0.98424 0.30599 0.31251 0.0
H379 H 0.99116 0.24711 0.30855 0.0
C380 C 0.73709 0.95694 0.8954 0.0
C381 C 0.70618 0.99444 0.89467 0.0
C382 C 0.75532 0.03187 0.853 0.0
C383 C 0.79081 1.00045 0.86066 0.0
N384 N 0.81539 0.93154 0.88888 0.0
N385 N 0.67337 0.04183 0.85149 0.0
C386 C 0.78168 0.96241 0.88173 0.0
C387 C 0.7113 0.02526 0.86736 0.0
N388 N 0.72137 0.91423 0.90313 0.0
N389 N 0.7635 0.06819 0.83224 0.0
H390 H 0.64051 0.0304 0.85772 0.0
H391 H 0.67488 0.0611 0.8295 0.0
H392 H 0.79507 0.07373 0.82058 0.0
H393 H 0.73979 0.09443 0.8287 0.0
H394 H 0.74148 0.88486 0.90117 0.0
H395 H 0.68642 0.90774 0.90631 0.0
H396 H 0.81122 0.90575 0.90673 0.0
H397 H 0.84837 0.93386 0.87886 0.0
C398 C 0.00844 0.72047 0.37778 0.0
C399 C 0.01382 0.72396 0.41312 0.0
C400 C 0.01308 0.80774 0.40907 0.0
C401 C 0.01236 0.8041 0.37351 0.0
N402 N 0.01786 0.75722 0.3237 0.0
N403 N 0.02909 0.77034 0.4621 0.0
C404 C 0.01244 0.76049 0.35774 0.0
C405 C 0.01832 0.76748 0.42873 0.0
N406 N 0.99793 0.67918 0.36345 0.0
N407 N 0.00726 0.84949 0.42407 0.0
H408 H 0.03349 0.74161 0.47731 0.0
H409 H 0.03759 0.80095 0.47404 0.0
H410 H 1.00308 0.87974 0.4105 0.0
H411 H 1.00254 0.85364 0.44982 0.0
H412 H 0.98878 0.67549 0.3383 0.0
H413 H 0.9942 0.64911 0.3773 0.0
H414 H 0.0231 0.72628 0.31124 0.0
H415 H 0.02135 0.78575 0.30816 0.0
loop_
_geom_bond_atom_site_label_1
_geom_bond_atom_site_label_2
_geom_bond_distance
_geom_bond_site_symmetry_2
_ccdc_geom_bond_type
H0 C19 0.949 . S
H1 C20 0.950 . S
H2 C22 0.950 . S
H3 C23 0.950 . S
H4 C25 0.950 1_565 S
H5 C28 0.950 . S
H6 C29 0.950 . S
H7 C31 0.951 . S
H8 C32 0.949 . S
H9 C34 0.949 . S
H10 C35 0.950 . S
H11 C37 0.950 . S
H12 C38 0.950 . S
H13 C40 0.950 . S
H14 C43 0.950 . S
H15 C44 0.950 . S
H16 C46 0.951 . S
H17 C47 0.949 . S
C18 C19 1.376 1_545 S
C18 C23 1.386 . S
C18 C24 1.483 . S
C19 H0 0.949 . S
C19 C18 1.376 1_565 S
C19 C20 1.397 . S
C20 H1 0.950 . S
C20 C19 1.397 . S
C20 C21 1.391 1_565 S
C21 C20 1.391 1_545 S
C21 C22 1.405 . S
C22 H2 0.950 . S
C22 C21 1.405 . S
C22 C23 1.367 . S
C23 H3 0.950 . S
C23 C18 1.386 . S
C23 C22 1.367 . S
C24 C18 1.483 . S
C24 C25 1.381 . S
C24 C26 1.403 1_554 S
C25 H4 0.950 1_545 S
C25 C24 1.381 . S
C25 C41 1.411 . S
C26 C24 1.403 1_556 S
C26 C27 1.489 . S
C26 C40 1.411 . S
C27 C26 1.489 . S
C27 C28 1.383 1_545 S
C27 C32 1.382 . S
C28 H5 0.950 . S
C28 C27 1.383 1_565 S
C28 C29 1.395 . S
C29 H6 0.950 . S
C29 C28 1.395 . S
C29 C30 1.288 1_565 S
C30 C29 1.288 1_545 S
C30 C31 1.392 . S
C31 H7 0.951 . S
C31 C30 1.392 . S
C31 C32 1.392 . S
C32 H8 0.949 . S
C32 C27 1.382 . S
C32 C31 1.392 . S
C33 C34 1.376 . S
C33 C38 1.386 1_545 S
C33 C39 1.483 . S
C34 H9 0.949 . S
C34 C33 1.376 . S
C34 C35 1.397 . S
C35 H10 0.950 . S
C35 C34 1.397 . S
C35 C36 1.391 . S
C36 C35 1.391 . S
C36 C37 1.405 1_545 S
C37 H11 0.950 . S
C37 C36 1.405 1_565 S
C37 C38 1.367 . S
C38 H12 0.950 . S
C38 C33 1.386 1_565 S
C38 C37 1.367 . S
C39 C33 1.483 . S
C39 C40 1.382 . S
C39 C41 1.403 1_556 S
C40 H13 0.950 . S
C40 C26 1.411 . S
C40 C39 1.382 . S
C41 C25 1.411 . S
C41 C39 1.403 1_554 S
C41 C42 1.489 . S
C42 C41 1.489 . S
C42 C43 1.383 . S
C42 C47 1.382 1_545 S
C43 H14 0.950 . S
C43 C42 1.383 . S
C43 C44 1.395 . S
C44 H15 0.950 . S
C44 C43 1.395 . S
C44 C45 1.288 . S
C45 C44 1.288 . S
C45 C46 1.392 1_545 S
C46 H16 0.951 . S
C46 C45 1.392 1_565 S
C46 C47 1.392 . S
C47 H17 0.949 . S
C47 C42 1.382 1_565 S
C47 C46 1.392 . S
H48 C67 0.949 . S
H49 C68 0.950 . S
H50 C70 0.950 . S
H51 C71 0.950 . S
H52 C73 0.950 . S
H53 C76 0.950 . S
H54 C77 0.950 . S
H55 C79 0.951 . S
H56 C80 0.949 . S
H57 C82 0.949 . S
H58 C83 0.950 . S
H59 C85 0.950 . S
H60 C86 0.950 . S
H61 C88 0.951 1_655 S
H62 C91 0.950 . S
H63 C92 0.950 . S
H64 C94 0.951 . S
H65 C95 0.949 . S
C66 C67 1.376 . S
C66 C71 1.386 1_455 S
C66 C72 1.483 . S
C67 H48 0.949 . S
C67 C66 1.376 . S
C67 C68 1.397 . S
C68 H49 0.950 . S
C68 C67 1.397 . S
C68 C69 1.391 . S
C69 C68 1.391 . S
C69 C70 1.405 1_455 S
C70 H50 0.950 . S
C70 C69 1.405 1_655 S
C70 C71 1.367 . S
C71 H51 0.950 . S
C71 C66 1.386 1_655 S
C71 C70 1.367 . S
C72 C66 1.483 . S
C72 C73 1.382 . S
C72 C74 1.403 . S
C73 H52 0.950 . S
C73 C72 1.382 . S
C73 C89 1.411 . S
C74 C72 1.403 . S
C74 C75 1.489 . S
C74 C88 1.411 . S
C75 C74 1.489 . S
C75 C76 1.383 . S
C75 C80 1.382 1_455 S
C76 H53 0.950 . S
C76 C75 1.383 . S
C76 C77 1.395 . S
C77 H54 0.950 . S
C77 C76 1.395 . S
C77 C78 1.288 . S
C78 C77 1.288 . S
C78 C79 1.392 1_455 S
C79 H55 0.951 . S
C79 C78 1.392 1_655 S
C79 C80 1.392 . S
C80 H56 0.949 . S
C80 C75 1.382 1_655 S
C80 C79 1.392 . S
C81 C82 1.376 1_455 S
C81 C86 1.386 . S
C81 C87 1.483 . S
C82 H57 0.949 . S
C82 C81 1.376 1_655 S
C82 C83 1.397 . S
C83 H58 0.950 . S
C83 C82 1.397 . S
C83 C84 1.391 1_655 S
C84 C83 1.391 1_455 S
C84 C85 1.405 . S
C85 H59 0.950 . S
C85 C84 1.405 . S
C85 C86 1.367 . S
C86 H60 0.950 . S
C86 C81 1.386 . S
C86 C85 1.367 . S
C87 C81 1.483 . S
C87 C88 1.381 . S
C87 C89 1.403 . S
C88 H61 0.951 1_455 S
C88 C74 1.411 . S
C88 C87 1.381 . S
C89 C73 1.411 . S
C89 C87 1.403 . S
C89 C90 1.489 . S
C90 C89 1.489 . S
C90 C91 1.383 1_455 S
C90 C95 1.382 . S
C91 H62 0.950 . S
C91 C90 1.383 1_655 S
C91 C92 1.395 . S
C92 H63 0.950 . S
C92 C91 1.395 . S
C92 C93 1.288 1_655 S
C93 C92 1.288 1_455 S
C93 C94 1.392 . S
C94 H64 0.951 . S
C94 C93 1.392 . S
C94 C95 1.392 . S
C95 H65 0.949 . S
C95 C90 1.382 . S
C95 C94 1.392 . S
Li96 N113 1.990 . S
Li96 O156 1.956 . S
Li96 O157 1.970 1_455 S
Li96 O158 1.961 . S
Li97 N121 1.990 . S
Li97 O156 1.970 1_565 S
Li97 O157 1.956 1_465 S
Li97 O159 1.961 . S
Li98 N143 1.990 . S
Li98 O156 1.961 . S
Li98 O158 1.956 . S
Li98 O159 1.970 1_545 S
Li99 N149 1.990 . S
Li99 O157 1.961 . S
Li99 O158 1.970 1_655 S
Li99 O159 1.956 1_645 S
C100 C102 1.348 1_545 S
C100 C103 1.356 . S
C100 O156 1.325 . S
N101 C104 1.314 1_545 S
N101 C105 1.279 . S
C102 C100 1.348 1_565 S
C102 C104 1.353 . S
C102 H160 0.929 . S
C103 C100 1.356 . S
C103 C105 1.358 . S
C103 H161 0.930 . S
C104 N101 1.314 1_565 S
C104 C102 1.353 . S
C104 H162 0.930 . S
C105 N101 1.279 . S
C105 C103 1.358 . S
C105 H163 0.930 . S
C106 C109 1.348 . S
C106 C110 1.356 1_545 S
C106 O157 1.325 . S
C107 N108 1.279 1_565 S
C107 C110 1.358 . S
C107 H164 0.930 . S
N108 C107 1.279 1_545 S
N108 C111 1.314 . S
C109 C106 1.348 . S
C109 C111 1.353 . S
C109 H165 0.929 . S
C110 C106 1.356 1_565 S
C110 C107 1.358 . S
C110 H166 0.930 . S
C111 N108 1.314 . S
C111 C109 1.353 . S
C111 H167 0.930 . S
C112 N113 1.314 1_655 S
C112 C117 1.353 . S
C112 H118 0.930 . S
N113 Li96 1.990 . S
N113 C112 1.314 1_455 S
N113 C115 1.279 . S
C114 C115 1.358 . S
C114 C116 1.356 . S
C114 H168 0.930 . S
C115 N113 1.279 . S
C115 C114 1.358 . S
C115 H119 0.930 . S
C116 C114 1.356 . S
C116 C117 1.348 1_455 S
C117 C112 1.353 . S
C117 C116 1.348 1_655 S
C117 H169 0.929 . S
H118 C112 0.930 . S
H119 C115 0.930 . S
C120 N121 1.314 . S
C120 C122 1.353 . S
C120 H126 0.930 . S
N121 Li97 1.990 . S
N121 C120 1.314 . S
N121 C124 1.279 1_455 S
C122 C120 1.353 . S
C122 C125 1.348 . S
C122 H170 0.929 . S
C123 C124 1.358 . S
C123 C125 1.356 1_655 S
C123 H171 0.930 . S
C124 N121 1.279 1_655 S
C124 C123 1.358 . S
C124 H127 0.930 . S
C125 C122 1.348 . S
C125 C123 1.356 1_455 S
H126 C120 0.930 . S
H127 C124 0.930 . S
C128 C130 1.348 1_455 S
C128 C131 1.356 . S
C128 O158 1.325 . S
N129 C132 1.314 1_455 S
N129 C133 1.279 . S
C130 C128 1.348 1_655 S
C130 C132 1.353 . S
C130 H172 0.929 . S
C131 C128 1.356 . S
C131 C133 1.358 . S
C131 H173 0.930 . S
C132 N129 1.314 1_655 S
C132 C130 1.353 . S
C132 H174 0.930 . S
C133 N129 1.279 . S
C133 C131 1.358 . S
C133 H175 0.930 . S
C134 C135 1.348 . S
C134 C136 1.356 1_455 S
C134 O159 1.325 . S
C135 C134 1.348 . S
C135 C137 1.353 . S
C135 H176 0.929 . S
C136 C134 1.356 1_655 S
C136 C138 1.358 . S
C136 H177 0.930 . S
C137 C135 1.353 . S
C137 N139 1.314 . S
C137 H178 0.930 . S
C138 C136 1.358 . S
C138 N139 1.279 1_655 S
C138 H179 0.930 . S
N139 C137 1.314 . S
N139 C138 1.279 1_455 S
C140 C142 1.353 . S
C140 N143 1.314 1_565 S
C140 H146 0.930 . S
C141 N143 1.279 . S
C141 C144 1.358 . S
C141 H147 0.930 . S
C142 C140 1.353 . S
C142 C145 1.348 1_565 S
C142 H180 0.929 . S
N143 Li98 1.990 . S
N143 C140 1.314 1_545 S
N143 C141 1.279 . S
C144 C141 1.358 . S
C144 C145 1.356 . S
C144 H181 0.930 . S
C145 C142 1.348 1_545 S
C145 C144 1.356 . S
H146 C140 0.930 . S
H147 C141 0.930 . S
C148 N149 1.314 . S
C148 C150 1.353 . S
C148 H154 0.930 . S
N149 Li99 1.990 . S
N149 C148 1.314 . S
N149 C152 1.279 1_545 S
C150 C148 1.353 . S
C150 C153 1.348 . S
C150 H182 0.929 . S
C151 C152 1.358 . S
C151 C153 1.356 1_565 S
C151 H183 0.930 . S
C152 N149 1.279 1_565 S
C152 C151 1.358 . S
C152 H155 0.930 . S
C153 C150 1.348 . S
C153 C151 1.356 1_545 S
H154 C148 0.930 . S
H155 C152 0.930 . S
O156 Li96 1.956 . S
O156 Li97 1.970 1_545 S
O156 Li98 1.961 . S
O156 C100 1.325 . S
O157 Li96 1.970 1_655 S
O157 Li97 1.956 1_645 S
O157 Li99 1.961 . S
O157 C106 1.325 . S
O158 Li96 1.961 . S
O158 Li98 1.956 . S
O158 Li99 1.970 1_455 S
O158 C128 1.325 . S
O159 Li97 1.961 . S
O159 Li98 1.970 1_565 S
O159 Li99 1.956 1_465 S
O159 C134 1.325 . S
H160 C102 0.929 . S
H161 C103 0.930 . S
H162 C104 0.930 . S
H163 C105 0.930 . S
H164 C107 0.930 . S
H165 C109 0.929 . S
H166 C110 0.930 . S
H167 C111 0.930 . S
H168 C114 0.930 . S
H169 C117 0.929 . S
H170 C122 0.929 . S
H171 C123 0.930 . S
H172 C130 0.929 . S
H173 C131 0.930 . S
H174 C132 0.930 . S
H175 C133 0.930 . S
H176 C135 0.929 . S
H177 C136 0.930 . S
H178 C137 0.930 . S
H179 C138 0.930 . S
H180 C142 0.929 . S
H181 C144 0.930 . S
H182 C150 0.929 . S
H183 C151 0.930 . S
Li184 N201 1.990 . S
Li184 O244 1.956 1_655 S
Li184 O245 1.970 1_645 S
Li184 O246 1.961 . S
Li185 N209 1.990 . S
Li185 O244 1.970 . S
Li185 O245 1.956 1_545 S
Li185 O247 1.961 . S
Li186 N231 1.990 . S
Li186 O244 1.961 . S
Li186 O246 1.956 1_455 S
Li186 O247 1.970 . S
Li187 N237 1.990 . S
Li187 O245 1.961 . S
Li187 O246 1.970 1_465 S
Li187 O247 1.956 1_565 S
C188 C190 1.348 . S
C188 C191 1.356 1_455 S
C188 O244 1.325 . S
N189 C192 1.314 . S
N189 C193 1.279 1_455 S
C190 C188 1.348 . S
C190 C192 1.353 . S
C190 H248 0.929 . S
C191 C188 1.356 1_655 S
C191 C193 1.358 . S
C191 H249 0.930 . S
C192 N189 1.314 . S
C192 C190 1.353 . S
C192 H250 0.930 . S
C193 N189 1.279 1_655 S
C193 C191 1.358 . S
C193 H251 0.930 . S
C194 C197 1.348 1_455 S
C194 C198 1.356 . S
C194 O245 1.325 . S
C195 N196 1.279 . S
C195 C198 1.358 . S
C195 H252 0.930 . S
N196 C195 1.279 . S
N196 C199 1.314 1_455 S
C197 C194 1.348 1_655 S
C197 C199 1.353 . S
C197 H253 0.929 . S
C198 C194 1.356 . S
C198 C195 1.358 . S
C198 H254 0.930 . S
C199 N196 1.314 1_655 S
C199 C197 1.353 . S
C199 H255 0.930 . S
C200 N201 1.314 1_565 S
C200 C205 1.353 . S
C200 H206 0.930 . S
N201 Li184 1.990 . S
N201 C200 1.314 1_545 S
N201 C203 1.279 . S
C202 C203 1.358 . S
C202 C204 1.356 . S
C202 H256 0.930 . S
C203 N201 1.279 . S
C203 C202 1.358 . S
C203 H207 0.930 . S
C204 C202 1.356 . S
C204 C205 1.348 1_545 S
C205 C200 1.353 . S
C205 C204 1.348 1_565 S
C205 H257 0.929 . S
H206 C200 0.930 . S
H207 C203 0.930 . S
C208 N209 1.314 . S
C208 C210 1.353 . S
C208 H214 0.930 . S
N209 Li185 1.990 . S
N209 C208 1.314 . S
N209 C212 1.279 1_545 S
C210 C208 1.353 . S
C210 C213 1.348 . S
C210 H258 0.929 . S
C211 C212 1.358 . S
C211 C213 1.356 1_565 S
C211 H259 0.930 . S
C212 N209 1.279 1_565 S
C212 C211 1.358 . S
C212 H215 0.930 . S
C213 C210 1.348 . S
C213 C211 1.356 1_545 S
H214 C208 0.930 . S
H215 C212 0.930 . S
C216 C218 1.348 1_545 S
C216 C219 1.356 . S
C216 O246 1.325 . S
N217 C220 1.314 1_545 S
N217 C221 1.279 . S
C218 C216 1.348 1_565 S
C218 C220 1.353 . S
C218 H260 0.929 . S
C219 C216 1.356 . S
C219 C221 1.358 . S
C219 H261 0.930 . S
C220 N217 1.314 1_565 S
C220 C218 1.353 . S
C220 H262 0.930 . S
C221 N217 1.279 . S
C221 C219 1.358 . S
C221 H263 0.930 . S
C222 C223 1.348 . S
C222 C224 1.356 1_545 S
C222 O247 1.325 . S
C223 C222 1.348 . S
C223 C225 1.353 . S
C223 H264 0.929 . S
C224 C222 1.356 1_565 S
C224 C226 1.358 . S
C224 H265 0.930 . S
C225 C223 1.353 . S
C225 N227 1.314 . S
C225 H266 0.930 . S
C226 C224 1.358 . S
C226 N227 1.279 1_565 S
C226 H267 0.930 . S
N227 C225 1.314 . S
N227 C226 1.279 1_545 S
C228 C230 1.353 . S
C228 N231 1.314 . S
C228 H234 0.930 . S
C229 N231 1.279 1_655 S
C229 C232 1.358 . S
C229 H235 0.930 . S
C230 C228 1.353 . S
C230 C233 1.348 . S
C230 H268 0.929 . S
N231 Li186 1.990 . S
N231 C228 1.314 . S
N231 C229 1.279 1_455 S
C232 C229 1.358 . S
C232 C233 1.356 1_655 S
C232 H269 0.930 . S
C233 C230 1.348 . S
C233 C232 1.356 1_455 S
H234 C228 0.930 . S
H235 C229 0.930 . S
C236 N237 1.314 1_655 S
C236 C238 1.353 . S
C236 H242 0.930 . S
N237 Li187 1.990 . S
N237 C236 1.314 1_455 S
N237 C240 1.279 . S
C238 C236 1.353 . S
C238 C241 1.348 1_655 S
C238 H270 0.929 . S
C239 C240 1.358 . S
C239 C241 1.356 . S
C239 H271 0.930 . S
C240 N237 1.279 . S
C240 C239 1.358 . S
C240 H243 0.930 . S
C241 C238 1.348 1_455 S
C241 C239 1.356 . S
H242 C236 0.930 . S
H243 C240 0.930 . S
O244 Li184 1.956 1_455 S
O244 Li185 1.970 . S
O244 Li186 1.961 . S
O244 C188 1.325 . S
O245 Li184 1.970 1_465 S
O245 Li185 1.956 1_565 S
O245 Li187 1.961 . S
O245 C194 1.325 . S
O246 Li184 1.961 . S
O246 Li186 1.956 1_655 S
O246 Li187 1.970 1_645 S
O246 C216 1.325 . S
O247 Li185 1.961 . S
O247 Li186 1.970 . S
O247 Li187 1.956 1_545 S
O247 C222 1.325 . S
H248 C190 0.929 . S
H249 C191 0.930 . S
H250 C192 0.930 . S
H251 C193 0.930 . S
H252 C195 0.930 . S
H253 C197 0.929 . S
H254 C198 0.930 . S
H255 C199 0.930 . S
H256 C202 0.930 . S
H257 C205 0.929 . S
H258 C210 0.929 . S
H259 C211 0.930 . S
H260 C218 0.929 . S
H261 C219 0.930 . S
H262 C220 0.930 . S
H263 C221 0.930 . S
H264 C223 0.929 . S
H265 C224 0.930 . S
H266 C225 0.930 . S
H267 C226 0.930 . S
H268 C230 0.929 . S
H269 C232 0.930 . S
H270 C238 0.929 . S
H271 C239 0.930 . S
C272 C273 1.363 1_565 S
C272 C278 1.379 . S
C272 N280 1.356 . S
C273 C272 1.363 1_545 S
C273 C279 1.363 . S
C274 C275 1.363 . S
C274 C279 1.379 . S
C274 N281 1.356 . S
C275 C274 1.363 . S
C275 C278 1.363 1_545 S
N276 C278 1.356 . S
N276 H288 0.984 . S
N276 H289 0.985 . S
N277 C279 1.356 . S
N277 H282 0.984 . S
N277 H283 0.985 . S
C278 C272 1.379 . S
C278 C275 1.363 1_565 S
C278 N276 1.356 . S
C279 C273 1.363 . S
C279 C274 1.379 . S
C279 N277 1.356 . S
N280 C272 1.356 . S
N280 H286 0.984 . S
N280 H287 0.984 . S
N281 C274 1.356 . S
N281 H284 0.984 . S
N281 H285 0.985 . S
H282 N277 0.984 . S
H283 N277 0.985 . S
H284 N281 0.984 . S
H285 N281 0.985 . S
H286 N280 0.984 . S
H287 N280 0.984 . S
H288 N276 0.984 . S
H289 N276 0.985 . S
C290 C291 1.363 1_655 S
C290 C296 1.379 . S
C290 N298 1.356 . S
C291 C290 1.363 1_455 S
C291 C297 1.363 . S
C292 C293 1.363 . S
C292 C297 1.379 . S
C292 N299 1.356 . S
C293 C292 1.363 . S
C293 C296 1.363 1_455 S
N294 C296 1.356 . S
N294 H306 0.984 . S
N294 H307 0.985 . S
N295 C297 1.356 . S
N295 H300 0.984 . S
N295 H301 0.985 . S
C296 C290 1.379 . S
C296 C293 1.363 1_655 S
C296 N294 1.356 . S
C297 C291 1.363 . S
C297 C292 1.379 . S
C297 N295 1.356 . S
N298 C290 1.356 . S
N298 H304 0.984 . S
N298 H305 0.984 . S
N299 C292 1.356 . S
N299 H302 0.984 . S
N299 H303 0.985 . S
H300 N295 0.984 . S
H301 N295 0.985 . S
H302 N299 0.984 . S
H303 N299 0.985 . S
H304 N298 0.984 . S
H305 N298 0.984 . S
H306 N294 0.984 . S
H307 N294 0.985 . S
C308 C309 1.363 1_565 S
C308 C314 1.379 . S
C308 N316 1.356 . S
C309 C308 1.363 1_545 S
C309 C315 1.363 . S
C310 C311 1.363 . S
C310 C315 1.379 . S
C310 N317 1.356 . S
C311 C310 1.363 . S
C311 C314 1.363 1_545 S
N312 C314 1.356 . S
N312 H324 0.984 . S
N312 H325 0.985 . S
N313 C315 1.356 . S
N313 H318 0.984 . S
N313 H319 0.985 . S
C314 C308 1.379 . S
C314 C311 1.363 1_565 S
C314 N312 1.356 . S
C315 C309 1.363 . S
C315 C310 1.379 . S
C315 N313 1.356 . S
N316 C308 1.356 . S
N316 H322 0.984 . S
N316 H323 0.984 . S
N317 C310 1.356 . S
N317 H320 0.984 . S
N317 H321 0.985 . S
H318 N313 0.984 . S
H319 N313 0.985 . S
H320 N317 0.984 . S
H321 N317 0.985 . S
H322 N316 0.984 . S
H323 N316 0.984 . S
H324 N312 0.984 . S
H325 N312 0.985 . S
C326 C327 1.360 1_655 S
C326 C332 1.379 . S
C326 N334 1.359 . S
C327 C326 1.360 1_455 S
C327 C333 1.363 . S
C328 C329 1.363 . S
C328 C333 1.379 . S
C328 N335 1.356 . S
C329 C328 1.363 . S
C329 C332 1.363 1_455 S
N330 C332 1.356 . S
N330 H342 0.984 . S
N330 H343 0.985 . S
N331 C333 1.356 . S
N331 H336 0.984 . S
N331 H337 0.985 . S
C332 C326 1.379 . S
C332 C329 1.363 1_655 S
C332 N330 1.356 . S
C333 C327 1.363 . S
C333 C328 1.379 . S
C333 N331 1.356 . S
N334 C326 1.359 . S
N334 H340 0.984 . S
N334 H341 0.984 . S
N335 C328 1.356 . S
N335 H338 0.984 . S
N335 H339 0.985 . S
H336 N331 0.984 . S
H337 N331 0.985 . S
H338 N335 0.984 . S
H339 N335 0.985 . S
H340 N334 0.984 . S
H341 N334 0.984 . S
H342 N330 0.984 . S
H343 N330 0.985 . S
C344 C345 1.363 . S
C344 C350 1.379 . S
C344 N352 1.356 . S
C345 C344 1.363 . S
C345 C351 1.363 1_545 S
C346 C347 1.363 1_565 S
C346 C351 1.379 . S
C346 N353 1.356 . S
C347 C346 1.363 1_545 S
C347 C350 1.363 . S
N348 C350 1.356 . S
N348 H360 0.984 . S
N348 H361 0.985 . S
N349 C351 1.356 . S
N349 H354 0.984 . S
N349 H355 0.985 . S
C350 C344 1.379 . S
C350 C347 1.363 . S
C350 N348 1.356 . S
C351 C345 1.363 1_565 S
C351 C346 1.379 . S
C351 N349 1.356 . S
N352 C344 1.356 . S
N352 H358 0.984 . S
N352 H359 0.984 . S
N353 C346 1.356 . S
N353 H356 0.984 . S
N353 H357 0.985 . S
H354 N349 0.984 . S
H355 N349 0.985 . S
H356 N353 0.984 . S
H357 N353 0.985 . S
H358 N352 0.984 . S
H359 N352 0.984 . S
H360 N348 0.984 . S
H361 N348 0.985 . S
C362 C363 1.363 1_655 S
C362 C368 1.379 . S
C362 N370 1.356 . S
C363 C362 1.363 1_455 S
C363 C369 1.363 . S
C364 C365 1.363 . S
C364 C369 1.379 . S
C364 N371 1.356 . S
C365 C364 1.363 . S
C365 C368 1.363 1_455 S
N366 C368 1.356 . S
N366 H378 0.984 . S
N366 H379 0.985 . S
N367 C369 1.356 . S
N367 H372 0.984 . S
N367 H373 0.985 . S
C368 C362 1.379 . S
C368 C365 1.363 1_655 S
C368 N366 1.356 . S
C369 C363 1.363 . S
C369 C364 1.379 . S
C369 N367 1.356 . S
N370 C362 1.356 . S
N370 H376 0.984 . S
N370 H377 0.984 . S
N371 C364 1.356 . S
N371 H374 0.984 . S
N371 H375 0.985 . S
H372 N367 0.984 . S
H373 N367 0.985 . S
H374 N371 0.984 . S
H375 N371 0.985 . S
H376 N370 0.984 . S
H377 N370 0.984 . S
H378 N366 0.984 . S
H379 N366 0.985 . S
C380 C381 1.363 1_565 S
C380 C386 1.379 . S
C380 N388 1.356 . S
C381 C380 1.363 1_545 S
C381 C387 1.363 . S
C382 C383 1.363 . S
C382 C387 1.379 . S
C382 N389 1.356 . S
C383 C382 1.363 . S
C383 C386 1.363 1_545 S
N384 C386 1.356 . S
N384 H396 0.984 . S
N384 H397 0.985 . S
N385 C387 1.356 . S
N385 H390 0.984 . S
N385 H391 0.985 . S
C386 C380 1.379 . S
C386 C383 1.363 1_565 S
C386 N384 1.356 . S
C387 C381 1.363 . S
C387 C382 1.379 . S
C387 N385 1.356 . S
N388 C380 1.356 . S
N388 H394 0.984 . S
N388 H395 0.984 . S
N389 C382 1.356 . S
N389 H392 0.984 . S
N389 H393 0.985 . S
H390 N385 0.984 . S
H391 N385 0.985 . S
H392 N389 0.984 . S
H393 N389 0.985 . S
H394 N388 0.984 . S
H395 N388 0.984 . S
H396 N384 0.984 . S
H397 N384 0.985 . S
C398 C399 1.363 . S
C398 C404 1.379 . S
C398 N406 1.356 . S
C399 C398 1.363 . S
C399 C405 1.363 1_455 S
C400 C401 1.363 1_655 S
C400 C405 1.379 . S
C400 N407 1.356 . S
C401 C400 1.363 1_455 S
C401 C404 1.363 . S
N402 C404 1.356 . S
N402 H414 0.984 . S
N402 H415 0.985 . S
N403 C405 1.356 . S
N403 H408 0.984 . S
N403 H409 0.985 . S
C404 C398 1.379 . S
C404 C401 1.363 . S
C404 N402 1.356 . S
C405 C399 1.363 1_655 S
C405 C400 1.379 . S
C405 N403 1.356 . S
N406 C398 1.356 . S
N406 H412 0.984 . S
N406 H413 0.984 . S
N407 C400 1.356 . S
N407 H410 0.984 . S
N407 H411 0.985 . S
H408 N403 0.984 . S
H409 N403 0.985 . S
H410 N407 0.984 . S
H411 N407 0.985 . S
H412 N406 0.984 . S
H413 N406 0.984 . S
H414 N402 0.984 . S
H415 N402 0.985 . S
C275 C145 1.512 . S
C273 C45 1.507 . S
C293 C233 1.512 . S
C291 C78 1.508 . S
C311 C153 1.512 . S
C309 C21 1.511 . S
C329 C241 1.512 . S
C327 C84 1.511 . S
C347 C213 1.512 . S
C345 C36 1.511 . S
C365 C116 1.512 . S
C363 C69 1.511 . S
C383 C204 1.512 . S
C381 C30 1.508 . S
C399 C93 1.507 . S
C401 C125 1.512 . S
