# Generated by pormake.
# Topology rtl, (3,6)-cn, num edge types: 1
# Building blocks:
#     Node 0, Type 0, BuildingBlock: CUQRIR_clean_linker_1, # of connection points: 3
#     Node 1, Type 0, BuildingBlock: CUQRIR_clean_linker_1, # of connection points: 3
#     Node 2, Type 0, BuildingBlock: CUQRIR_clean_linker_1, # of connection points: 3
#     Node 3, Type 0, BuildingBlock: CUQRIR_clean_linker_1, # of connection points: 3
#     Node 4, Type 1, BuildingBlock: FUNLAD_clean_sbu_0, # of connection points: 6
#     Node 5, Type 1, BuildingBlock: FUNLAD_clean_sbu_0, # of connection points: 6
#     Edge 6, Type (0, 1), BuildingBlock: ZUJKAS_clean_linker_0, # of connection points: 2
#     Edge 7, Type (0, 1), BuildingBlock: ZUJKAS_clean_linker_0, # of connection points: 2
#     Edge 8, Type (0, 1), BuildingBlock: ZUJKAS_clean_linker_0, # of connection points: 2
#     Edge 9, Type (0, 1), BuildingBlock: ZUJKAS_clean_linker_0, # of connection points: 2
#     Edge 10, Type (0, 1), BuildingBlock: ZUJKAS_clean_linker_0, # of connection points: 2
#     Edge 11, Type (0, 1), BuildingBlock: ZUJKAS_clean_linker_0, # of connection points: 2
#     Edge 12, Type (0, 1), BuildingBlock: ZUJKAS_clean_linker_0, # of connection points: 2
#     Edge 13, Type (0, 1), BuildingBlock: ZUJKAS_clean_linker_0, # of connection points: 2
#     Edge 14, Type (0, 1), BuildingBlock: ZUJKAS_clean_linker_0, # of connection points: 2
#     Edge 15, Type (0, 1), BuildingBlock: ZUJKAS_clean_linker_0, # of connection points: 2
#     Edge 16, Type (0, 1), BuildingBlock: ZUJKAS_clean_linker_0, # of connection points: 2
#     Edge 17, Type (0, 1), BuildingBlock: ZUJKAS_clean_linker_0, # of connection points: 2
# Relax obj value: 0.003
# Max RMSD: 0.054
# Mean RMSD: 0.042
data_MOF--net-rtl--node1-FUNLAD_clean_sbu_0--node2-CUQRIR_clean_linker_1--edge1-ZUJKAS_clean_linker_0
_symmetry_space_group_name_H-M    P1
_symmetry_Int_Tables_number       1
_symmetry_cell_setting            triclinic
loop_
_symmetry_equiv_pos_as_xyz
'x, y, z'
_cell_length_a     48.632742
_cell_length_b     48.59701
_cell_length_c     25.633279
_cell_angle_alpha  90.005867
_cell_angle_beta   91.007635
_cell_angle_gamma 90.004314
loop_
_atom_site_label
_atom_site_type_symbol
_atom_site_fract_x
_atom_site_fract_y
_atom_site_fract_z
_atom_type_partial_charge
C0 C 0.19927 0.81499 0.97628 0.0
N1 N 0.1796 0.83273 0.9919 0.0
N2 N 0.20883 0.79988 0.01714 0.0
C3 C 0.20752 0.81085 0.9205 0.0
C4 C 0.19409 0.80895 0.05809 0.0
N5 N 0.17613 0.82873 0.0426 0.0
C6 C 0.1987 0.8 0.11375 0.0
H7 H 0.21486 0.78953 0.91396 0.0
H8 H 0.22444 0.82531 0.91148 0.0
H9 H 0.19004 0.81515 0.89331 0.0
H10 H 0.22002 0.79247 0.12018 0.0
H11 H 0.18424 0.78304 0.12262 0.0
H12 H 0.19473 0.8172 0.14108 0.0
C13 C 0.69009 0.69917 0.55778 0.0
N14 N 0.67225 0.67931 0.54209 0.0
N15 N 0.70506 0.70813 0.51708 0.0
C16 C 0.69448 0.70825 0.61342 0.0
C17 C 0.6958 0.69291 0.47616 0.0
N18 N 0.67602 0.67522 0.49147 0.0
C19 C 0.7047 0.69671 0.42071 0.0
H20 H 0.67982 0.72507 0.62204 0.0
H21 H 0.71569 0.71606 0.62002 0.0
H22 H 0.69065 0.69105 0.64082 0.0
H23 H 0.72144 0.6819 0.41247 0.0
H24 H 0.71254 0.71785 0.41426 0.0
H25 H 0.6874 0.69264 0.39297 0.0
C26 C 0.80755 0.1942 0.04664 0.0
N27 N 0.82572 0.17492 0.03113 0.0
N28 N 0.79317 0.20423 0.00509 0.0
C29 C 0.80362 0.20307 0.10223 0.0
C30 C 0.80319 0.19024 0.96385 0.0
N31 N 0.82284 0.17227 0.97983 0.0
C32 C 0.79419 0.1946 0.90802 0.0
H33 H 0.78733 0.19019 0.11961 0.0
H34 H 0.79703 0.22491 0.10399 0.0
H35 H 0.82271 0.20039 0.12593 0.0
H36 H 0.80754 0.21048 0.89042 0.0
H37 H 0.77258 0.20188 0.90565 0.0
H38 H 0.79616 0.17546 0.88489 0.0
C39 C 0.31301 0.30451 0.46408 0.0
N40 N 0.33076 0.32443 0.47989 0.0
N41 N 0.29827 0.29519 0.50484 0.0
C42 C 0.30846 0.29581 0.40826 0.0
C43 C 0.30761 0.31028 0.54591 0.0
N44 N 0.32715 0.32823 0.53061 0.0
C45 C 0.29915 0.30608 0.60154 0.0
H46 H 0.28715 0.28825 0.40164 0.0
H47 H 0.32294 0.27891 0.39916 0.0
H48 H 0.3124 0.31313 0.38121 0.0
H49 H 0.2919 0.28471 0.60791 0.0
H50 H 0.28212 0.32044 0.61035 0.0
H51 H 0.31651 0.31047 0.62896 0.0
C52 C 0.02934 0.97376 0.43571 0.0
N53 N 0.04683 0.04839 0.51156 0.0
C54 C 0.07375 0.0408 0.51315 0.0
C55 C 0.09446 0.06069 0.51258 0.0
C56 C 0.08745 0.08872 0.51007 0.0
C57 C 0.05945 0.09594 0.50856 0.0
C58 C 0.0394 0.07536 0.50945 0.0
Zn59 Zn 0.01715 0.01858 0.51158 0.0
C60 C 0.97268 0.02985 0.43314 0.0
N61 N 0.95552 0.95599 0.5111 0.0
C62 C 0.96308 0.92904 0.51143 0.0
C63 C 0.92856 0.96346 0.51092 0.0
C64 C 0.90795 0.94345 0.51125 0.0
C65 C 0.91512 0.91543 0.51159 0.0
C66 C 0.94314 0.90835 0.51159 0.0
Zn67 Zn 0.98515 0.98584 0.51118 0.0
O68 O 0.03833 0.99666 0.45288 0.0
C69 C 0.02968 0.97465 0.58964 0.0
O70 O 0.00733 0.96389 0.4541 0.0
H71 H 0.923 0.985 0.51074 0.0
H72 H 0.07922 0.01925 0.51483 0.0
H73 H 0.98463 0.92355 0.51149 0.0
O74 O 0.03908 0.99683 0.57067 0.0
O75 O 0.00706 0.96505 0.57188 0.0
H76 H 0.01788 0.08095 0.50814 0.0
O77 O 0.96349 0.00823 0.56824 0.0
O78 O 0.99546 0.04009 0.57027 0.0
O79 O 0.96367 0.00712 0.45052 0.0
O80 O 0.99477 0.03982 0.45248 0.0
C81 C 0.97289 0.03061 0.58701 0.0
H82 H 0.11573 0.05414 0.51462 0.0
H83 H 0.05304 0.11723 0.5059 0.0
H84 H 0.88665 0.9499 0.51196 0.0
H85 H 0.94964 0.88705 0.51111 0.0
C86 C 0.47274 0.47486 0.93239 0.0
N87 N 0.54706 0.45618 0.01003 0.0
C88 C 0.53935 0.42927 0.00899 0.0
C89 C 0.55916 0.40848 0.00885 0.0
C90 C 0.58722 0.4154 0.00978 0.0
C91 C 0.59456 0.44337 0.01076 0.0
C92 C 0.57407 0.4635 0.01089 0.0
Zn93 Zn 0.51746 0.48605 0.01051 0.0
C94 C 0.52911 0.53118 0.93574 0.0
N95 N 0.4554 0.54821 0.01205 0.0
C96 C 0.42838 0.541 0.00965 0.0
C97 C 0.46318 0.57507 0.01476 0.0
C98 C 0.44343 0.59592 0.01526 0.0
C99 C 0.41535 0.58912 0.0127 0.0
C100 C 0.40794 0.56119 0.00981 0.0
Zn101 Zn 0.48497 0.51831 0.01155 0.0
O102 O 0.49531 0.46529 0.95033 0.0
C103 C 0.47322 0.47321 0.08625 0.0
O104 O 0.46324 0.49701 0.95136 0.0
H105 H 0.48477 0.58037 0.01667 0.0
H106 H 0.51777 0.4239 0.00817 0.0
H107 H 0.42264 0.51952 0.00745 0.0
O108 O 0.49558 0.46396 0.06815 0.0
O109 O 0.46367 0.49586 0.06903 0.0
H110 H 0.57975 0.48502 0.01186 0.0
O111 O 0.50707 0.53898 0.07172 0.0
O112 O 0.53929 0.50742 0.07065 0.0
O113 O 0.50681 0.54043 0.95405 0.0
O114 O 0.53869 0.5085 0.95284 0.0
C115 C 0.5297 0.52953 0.08961 0.0
H116 H 0.55255 0.38721 0.00737 0.0
H117 H 0.61593 0.44965 0.01214 0.0
H118 H 0.45014 0.61711 0.0183 0.0
H119 H 0.38659 0.55497 0.00704 0.0
H120 H 0.24706 0.29997 0.54205 0.0
H121 H 0.21145 0.26419 0.54357 0.0
H122 H 0.26617 0.2082 0.46598 0.0
H123 H 0.3021 0.24369 0.46656 0.0
H124 H 0.18606 0.23732 0.46292 0.0
H125 H 0.2421 0.16257 0.58913 0.0
H126 H 0.2533 0.19772 0.58153 0.0
H127 H 0.26076 0.17251 0.53237 0.0
C128 C 0.25146 0.27987 0.52598 0.0
C129 C 0.27724 0.27437 0.50458 0.0
C130 C 0.23115 0.25955 0.52654 0.0
C131 C 0.23631 0.23337 0.50569 0.0
C132 C 0.26194 0.22803 0.48337 0.0
H133 H 0.13644 0.08724 0.45872 0.0
H134 H 0.17231 0.1225 0.45757 0.0
C135 C 0.28231 0.24833 0.48314 0.0
C136 C 0.21464 0.21192 0.50636 0.0
H137 H 0.20065 0.14682 0.54864 0.0
C138 C 0.1892 0.21758 0.48188 0.0
C139 C 0.21878 0.18619 0.53119 0.0
C140 C 0.2451 0.17942 0.56048 0.0
C141 C 0.16793 0.19806 0.48089 0.0
C142 C 0.17218 0.17232 0.50537 0.0
C143 C 0.19757 0.16659 0.52977 0.0
C144 C 0.1504 0.15109 0.50633 0.0
C145 C 0.14122 0.20489 0.453 0.0
C146 C 0.12639 0.15543 0.53468 0.0
C147 C 0.10596 0.13522 0.53594 0.0
C148 C 0.10919 0.11026 0.50884 0.0
C149 C 0.13341 0.10602 0.48062 0.0
C150 C 0.15387 0.12619 0.47962 0.0
H151 H 0.14321 0.22313 0.42722 0.0
H152 H 0.13395 0.18714 0.42919 0.0
H153 H 0.1253 0.20944 0.48226 0.0
H154 H 0.12358 0.17436 0.55625 0.0
H155 H 0.08784 0.13899 0.55882 0.0
H156 H 0.26004 0.80396 0.97952 0.0
H157 H 0.29506 0.76758 0.97731 0.0
H158 H 0.23949 0.71222 0.05428 0.0
H159 H 0.20419 0.7483 0.05447 0.0
H160 H 0.31999 0.73983 0.05789 0.0
H161 H 0.26271 0.66679 0.93009 0.0
H162 H 0.25223 0.70213 0.93818 0.0
H163 H 0.24407 0.67685 0.9868 0.0
C164 C 0.25535 0.78389 0.99534 0.0
C165 C 0.22952 0.77872 0.01686 0.0
C166 C 0.27531 0.76322 0.99436 0.0
C167 C 0.26972 0.73705 0.01484 0.0
C168 C 0.24404 0.73204 0.03719 0.0
H169 H 0.36578 0.58856 0.06218 0.0
H170 H 0.3307 0.62464 0.06246 0.0
C171 C 0.22404 0.75268 0.03788 0.0
C172 C 0.29099 0.71521 0.01384 0.0
H173 H 0.30356 0.64987 0.97123 0.0
C174 C 0.31646 0.72022 0.03869 0.0
C175 C 0.28634 0.68964 0.98869 0.0
C176 C 0.25996 0.68356 0.95899 0.0
C177 C 0.33724 0.70018 0.03987 0.0
C178 C 0.33246 0.67457 0.01518 0.0
C179 C 0.30705 0.66952 0.99029 0.0
C180 C 0.35368 0.65278 0.01455 0.0
C181 C 0.36398 0.7063 0.06827 0.0
C182 C 0.378 0.65658 0.98689 0.0
C183 C 0.39796 0.63591 0.98614 0.0
C184 C 0.39397 0.61103 0.01309 0.0
C185 C 0.36941 0.60728 0.04047 0.0
C186 C 0.34941 0.62793 0.04096 0.0
H187 H 0.36231 0.72453 0.09419 0.0
H188 H 0.37071 0.68834 0.09204 0.0
H189 H 0.38015 0.71054 0.03933 0.0
H190 H 0.38143 0.67546 0.9655 0.0
H191 H 0.41636 0.63931 0.96384 0.0
H192 H 0.75704 0.70193 0.48496 0.0
H193 H 0.79336 0.73709 0.48524 0.0
H194 H 0.73673 0.79593 0.54941 0.0
H195 H 0.70059 0.76058 0.54949 0.0
H196 H 0.79468 0.7867 0.43468 0.0
H197 H 0.80255 0.80209 0.64885 0.0
H198 H 0.78449 0.77333 0.61976 0.0
H199 H 0.76837 0.80659 0.62266 0.0
C200 C 0.75253 0.72242 0.49906 0.0
C201 C 0.72627 0.72873 0.51739 0.0
C202 C 0.77317 0.74241 0.49933 0.0
C203 C 0.76786 0.769 0.51809 0.0
C204 C 0.74147 0.77538 0.53591 0.0
H205 H 0.86568 0.91493 0.45844 0.0
H206 H 0.83004 0.87952 0.46022 0.0
C207 C 0.72086 0.75532 0.53581 0.0
C208 C 0.78978 0.79019 0.51775 0.0
H209 H 0.82651 0.8341 0.59616 0.0
C210 C 0.80172 0.79701 0.46999 0.0
C211 C 0.79917 0.80335 0.56398 0.0
C212 C 0.7882 0.79582 0.61681 0.0
C213 C 0.82254 0.81692 0.46708 0.0
C214 C 0.83125 0.83076 0.51304 0.0
C215 C 0.8196 0.82366 0.56091 0.0
C216 C 0.85268 0.85245 0.51243 0.0
C217 C 0.83536 0.82257 0.41496 0.0
C218 C 0.8769 0.84937 0.54241 0.0
C219 C 0.89714 0.86978 0.54216 0.0
C220 C 0.89353 0.89375 0.51201 0.0
C221 C 0.86907 0.89686 0.48241 0.0
C222 C 0.84881 0.87647 0.48285 0.0
H223 H 0.83192 0.80529 0.3872 0.0
H224 H 0.82588 0.8413 0.39762 0.0
H225 H 0.85783 0.82616 0.41932 0.0
H226 H 0.8802 0.83108 0.56587 0.0
H227 H 0.91548 0.86691 0.56611 0.0
H228 H 0.7459 0.20377 0.0581 0.0
H229 H 0.71045 0.23984 0.05826 0.0
H230 H 0.75853 0.28805 0.95186 0.0
H231 H 0.79389 0.25195 0.95193 0.0
H232 H 0.71624 0.29532 0.08732 0.0
H233 H 0.6825 0.28534 0.88009 0.0
H234 H 0.70284 0.25937 0.91314 0.0
H235 H 0.71886 0.29017 0.88956 0.0
C236 C 0.74875 0.22214 0.0349 0.0
C237 C 0.77236 0.22523 0.00481 0.0
C238 C 0.72858 0.24262 0.03487 0.0
C239 C 0.73169 0.26641 0.00446 0.0
C240 C 0.75545 0.26959 0.9747 0.0
H241 H 0.63526 0.41464 0.9556 0.0
H242 H 0.67061 0.37878 0.9561 0.0
C243 C 0.7756 0.2491 0.97477 0.0
C244 C 0.71041 0.28821 0.00497 0.0
H245 H 0.66485 0.32333 0.92704 0.0
C246 C 0.70489 0.30138 0.05237 0.0
C247 C 0.69572 0.29607 0.95924 0.0
C248 C 0.70004 0.28187 0.90767 0.0
C249 C 0.68536 0.32258 0.05512 0.0
C250 C 0.67068 0.33045 0.00939 0.0
C251 C 0.6762 0.31727 0.96199 0.0
C252 C 0.64939 0.35225 0.00991 0.0
C253 C 0.68106 0.33678 0.10669 0.0
C254 C 0.62565 0.34907 0.03963 0.0
C255 C 0.60551 0.36957 0.03969 0.0
C256 C 0.60866 0.3936 0.00977 0.0
C257 C 0.6324 0.39659 0.97969 0.0
C258 C 0.65252 0.37605 0.97964 0.0
H259 H 0.69861 0.33332 0.13426 0.0
H260 H 0.67824 0.35928 0.10123 0.0
H261 H 0.66225 0.32846 0.12483 0.0
H262 H 0.62262 0.33063 0.06256 0.0
H263 H 0.5876 0.36671 0.0636 0.0
H264 H 0.17592 0.88356 0.05704 0.0
H265 H 0.14917 0.9091 0.1217 0.0
H266 H 0.10887 0.83374 0.16607 0.0
H267 H 0.13609 0.80833 0.10224 0.0
H268 H 0.09407 0.91657 0.13807 0.0
H269 H 0.14175 0.85951 0.30377 0.0
H270 H 0.15459 0.85736 0.23831 0.0
H271 H 0.12511 0.83747 0.25678 0.0
C272 C 0.16105 0.8727 0.08031 0.0
C273 C 0.15809 0.84412 0.0755 0.0
C274 C 0.14588 0.88718 0.1172 0.0
C275 C 0.12753 0.8732 0.14962 0.0
C276 C 0.12347 0.84481 0.14256 0.0
H277 H 0.01935 0.92191 0.39841 0.0
H278 H 0.04296 0.89812 0.32786 0.0
C279 C 0.13881 0.83036 0.10604 0.0
C280 C 0.11326 0.8881 0.19181 0.0
H281 H 0.10425 0.8888 0.32373 0.0
C282 C 0.09638 0.91059 0.17867 0.0
C283 C 0.11648 0.88038 0.24487 0.0
C284 C 0.13567 0.85754 0.26194 0.0
C285 C 0.08218 0.92518 0.21711 0.0
C286 C 0.08507 0.91711 0.26988 0.0
C287 C 0.10199 0.89475 0.28309 0.0
C288 C 0.07076 0.93171 0.31213 0.0
C289 C 0.06385 0.94887 0.20115 0.0
C290 C 0.0789 0.95831 0.32695 0.0
C291 C 0.06565 0.97188 0.36752 0.0
C292 C 0.04392 0.9591 0.39378 0.0
C293 C 0.03594 0.93236 0.3789 0.0
C294 C 0.04937 0.91873 0.33863 0.0
H295 H 0.06032 0.94967 0.15823 0.0
H296 H 0.04368 0.94731 0.22057 0.0
H297 H 0.07359 0.96849 0.21371 0.0
H298 H 0.09561 0.96849 0.30729 0.0
H299 H 0.07229 0.99245 0.37799 0.0
H300 H 0.63262 0.69842 0.60449 0.0
H301 H 0.60624 0.67163 0.66791 0.0
H302 H 0.64646 0.59745 0.61719 0.0
H303 H 0.67287 0.62434 0.55397 0.0
H304 H 0.57137 0.61946 0.64962 0.0
H305 H 0.66317 0.60789 0.78079 0.0
H306 H 0.66052 0.63484 0.73242 0.0
H307 H 0.66731 0.60013 0.71268 0.0
C308 C 0.63549 0.67636 0.60677 0.0
C309 C 0.6547 0.6633 0.57493 0.0
C310 C 0.62047 0.66112 0.64268 0.0
C311 C 0.62466 0.63266 0.6474 0.0
C312 C 0.64312 0.61943 0.61422 0.0
H313 H 0.57293 0.51386 0.87893 0.0
H314 H 0.59516 0.53798 0.80738 0.0
C315 C 0.65801 0.63468 0.57809 0.0
C316 C 0.61075 0.61709 0.68885 0.0
H317 H 0.62232 0.58634 0.80686 0.0
C318 C 0.58242 0.61216 0.68404 0.0
C319 C 0.62536 0.60761 0.73345 0.0
C320 C 0.65575 0.61294 0.74068 0.0
C321 C 0.56828 0.59764 0.72264 0.0
C322 C 0.5828 0.58851 0.76781 0.0
C323 C 0.61121 0.59337 0.77232 0.0
C324 C 0.569 0.57393 0.81099 0.0
C325 C 0.53807 0.59171 0.71409 0.0
C326 C 0.5472 0.58631 0.83743 0.0
C327 C 0.53432 0.57251 0.87815 0.0
C328 C 0.54328 0.54619 0.89372 0.0
C329 C 0.56552 0.53409 0.86792 0.0
C330 C 0.57824 0.54784 0.82696 0.0
H331 H 0.53215 0.5927 0.67207 0.0
H332 H 0.53255 0.57109 0.72932 0.0
H333 H 0.52583 0.60737 0.73496 0.0
H334 H 0.54022 0.60675 0.8268 0.0
H335 H 0.5174 0.5825 0.89749 0.0
H336 H 0.81866 0.12206 0.0575 0.0
H337 H 0.84561 0.09606 0.12314 0.0
H338 H 0.89974 0.16576 0.14367 0.0
H339 H 0.87232 0.19171 0.0788 0.0
H340 H 0.90085 0.08118 0.13241 0.0
H341 H 0.87152 0.15291 0.29055 0.0
H342 H 0.85487 0.15314 0.2271 0.0
H343 H 0.8878 0.1694 0.23658 0.0
C344 C 0.83654 0.13148 0.07583 0.0
C345 C 0.8435 0.15872 0.06411 0.0
C346 C 0.85186 0.11677 0.11316 0.0
C347 C 0.8743 0.12923 0.13911 0.0
C348 C 0.88212 0.15601 0.12504 0.0
H349 H 0.98502 0.07986 0.39064 0.0
H350 H 0.96143 0.10315 0.31808 0.0
C351 C 0.8667 0.17072 0.08794 0.0
C352 C 0.88884 0.11461 0.18222 0.0
H353 H 0.90471 0.1189 0.31231 0.0
C354 C 0.90165 0.08936 0.17178 0.0
C355 C 0.88968 0.12527 0.23363 0.0
C356 C 0.87502 0.15153 0.24791 0.0
C357 C 0.91578 0.07476 0.21124 0.0
C358 C 0.9168 0.08557 0.26246 0.0
C359 C 0.90396 0.11076 0.2729 0.0
C360 C 0.93112 0.07111 0.30594 0.0
C361 C 0.92992 0.04814 0.19769 0.0
C362 C 0.92161 0.04556 0.32359 0.0
C363 C 0.93495 0.03222 0.36522 0.0
C364 C 0.95805 0.04424 0.38996 0.0
C365 C 0.96734 0.06999 0.3724 0.0
C366 C 0.95391 0.08334 0.33093 0.0
H367 H 0.93243 0.04581 0.15492 0.0
H368 H 0.95049 0.04689 0.21708 0.0
H369 H 0.91741 0.03062 0.21167 0.0
H370 H 0.90373 0.03603 0.3054 0.0
H371 H 0.92722 0.01245 0.37785 0.0
H372 H 0.38193 0.3283 0.54684 0.0
H373 H 0.40755 0.35546 0.61257 0.0
H374 H 0.33247 0.39687 0.65373 0.0
H375 H 0.30698 0.36915 0.58901 0.0
H376 H 0.41572 0.4104 0.63 0.0
H377 H 0.35708 0.3648 0.79225 0.0
H378 H 0.35499 0.35155 0.72657 0.0
H379 H 0.33553 0.3815 0.74441 0.0
C380 C 0.37117 0.3435 0.56965 0.0
C381 C 0.34263 0.34663 0.56374 0.0
C382 C 0.38568 0.35891 0.60713 0.0
C383 C 0.37178 0.37768 0.63899 0.0
C384 C 0.34347 0.38194 0.63069 0.0
H385 H 0.42138 0.48611 0.89261 0.0
H386 H 0.39744 0.46298 0.82005 0.0
C387 C 0.32898 0.36634 0.59364 0.0
C388 C 0.38664 0.39207 0.68204 0.0
H389 H 0.38685 0.40197 0.81406 0.0
C390 C 0.40948 0.40848 0.67025 0.0
C391 C 0.3786 0.38935 0.73466 0.0
C392 C 0.35539 0.37063 0.75041 0.0
C393 C 0.42413 0.42268 0.70957 0.0
C394 C 0.41575 0.42029 0.76188 0.0
C395 C 0.39302 0.40386 0.77375 0.0
C396 C 0.4305 0.43445 0.80509 0.0
C397 C 0.44825 0.44043 0.69504 0.0
C398 C 0.45682 0.42575 0.82096 0.0
C399 C 0.47046 0.43872 0.86264 0.0
C400 C 0.45802 0.46071 0.88903 0.0
C401 C 0.43156 0.46929 0.87304 0.0
C402 C 0.41786 0.45614 0.83162 0.0
H403 H 0.44924 0.4438 0.65225 0.0
H404 H 0.44709 0.46072 0.71484 0.0
H405 H 0.4676 0.43029 0.70822 0.0
H406 H 0.46673 0.40879 0.8013 0.0
H407 H 0.49082 0.43161 0.87396 0.0
H408 H 0.62117 0.67581 0.47681 0.0
H409 H 0.59454 0.6485 0.41268 0.0
H410 H 0.66884 0.6072 0.36702 0.0
H411 H 0.69534 0.63458 0.43107 0.0
H412 H 0.60942 0.64881 0.29908 0.0
H413 H 0.60893 0.54483 0.38993 0.0
H414 H 0.61319 0.57598 0.42777 0.0
H415 H 0.64117 0.56305 0.39028 0.0
C416 C 0.63155 0.66049 0.45364 0.0
C417 C 0.66012 0.65714 0.45838 0.0
C418 C 0.61646 0.64504 0.41708 0.0
C419 C 0.62976 0.62578 0.38545 0.0
C420 C 0.65821 0.62177 0.39149 0.0
H421 H 0.58116 0.51869 0.12956 0.0
H422 H 0.60515 0.54252 0.20112 0.0
C423 C 0.67329 0.63739 0.4277 0.0
C424 C 0.61437 0.61146 0.34326 0.0
H425 H 0.5918 0.54829 0.30322 0.0
C426 C 0.60536 0.62687 0.30001 0.0
C427 C 0.60949 0.58283 0.34457 0.0
C428 C 0.6185 0.56559 0.39069 0.0
C429 C 0.59195 0.61429 0.25734 0.0
C430 C 0.58676 0.58563 0.25874 0.0
C431 C 0.59575 0.57024 0.30222 0.0
C432 C 0.57211 0.57123 0.21541 0.0
C433 C 0.58427 0.63172 0.21057 0.0
C434 C 0.54545 0.57925 0.20005 0.0
C435 C 0.53181 0.56588 0.15885 0.0
C436 C 0.5444 0.5439 0.13272 0.0
C437 C 0.57092 0.53559 0.14877 0.0
C438 C 0.58464 0.54914 0.18973 0.0
H439 H 0.59665 0.65092 0.20924 0.0
H440 H 0.58718 0.62024 0.17362 0.0
H441 H 0.56231 0.6377 0.21291 0.0
H442 H 0.53508 0.59577 0.22014 0.0
H443 H 0.51128 0.57261 0.14787 0.0
H444 H 0.8759 0.18007 0.95743 0.0
H445 H 0.90276 0.15436 0.89304 0.0
H446 H 0.83357 0.10032 0.86555 0.0
H447 H 0.80677 0.12649 0.92924 0.0
H448 H 0.91796 0.09939 0.88361 0.0
H449 H 0.84825 0.13082 0.72052 0.0
H450 H 0.84708 0.14649 0.78426 0.0
H451 H 0.8311 0.11362 0.77269 0.0
C452 C 0.86676 0.16248 0.93783 0.0
C453 C 0.83942 0.15522 0.94725 0.0
C454 C 0.88196 0.14788 0.9012 0.0
C455 C 0.86992 0.12583 0.87365 0.0
C456 C 0.84301 0.11768 0.88539 0.0
H457 H 0.92261 0.01775 0.62627 0.0
H458 H 0.89849 0.04078 0.69688 0.0
C459 C 0.82782 0.13239 0.92181 0.0
C460 C 0.88515 0.11201 0.83145 0.0
H461 H 0.88252 0.09787 0.7009 0.0
C462 C 0.91029 0.09912 0.84363 0.0
C463 C 0.87515 0.11186 0.77923 0.0
C464 C 0.84906 0.12665 0.76314 0.0
C465 C 0.92541 0.08556 0.80512 0.0
C466 C 0.91523 0.08518 0.75311 0.0
C467 C 0.89018 0.09814 0.7409 0.0
C468 C 0.93016 0.07129 0.71069 0.0
C469 C 0.95189 0.07129 0.82046 0.0
C470 C 0.95578 0.08112 0.6946 0.0
C471 C 0.9696 0.0681 0.65404 0.0
C472 C 0.95799 0.04501 0.62889 0.0
C473 C 0.93217 0.03542 0.64487 0.0
C474 C 0.91835 0.04854 0.68522 0.0
H475 H 0.95389 0.0685 0.86338 0.0
H476 H 0.95323 0.05083 0.80137 0.0
H477 H 0.96953 0.08385 0.80738 0.0
H478 H 0.96502 0.09896 0.71322 0.0
H479 H 0.98942 0.07603 0.64262 0.0
H480 H 0.37088 0.30541 0.41869 0.0
H481 H 0.39746 0.33214 0.35554 0.0
H482 H 0.35605 0.40616 0.40366 0.0
H483 H 0.32952 0.3793 0.46683 0.0
H484 H 0.35504 0.39171 0.28967 0.0
H485 H 0.45964 0.39221 0.38118 0.0
H486 H 0.44163 0.35984 0.37965 0.0
H487 H 0.42882 0.38753 0.41859 0.0
C488 C 0.36788 0.32745 0.41606 0.0
C489 C 0.34835 0.34048 0.44722 0.0
C490 C 0.38304 0.34267 0.38035 0.0
C491 C 0.37878 0.3711 0.37528 0.0
C492 C 0.3597 0.38425 0.40731 0.0
H493 H 0.42995 0.49097 0.14394 0.0
H494 H 0.40709 0.46661 0.21436 0.0
C495 C 0.34471 0.36903 0.44336 0.0
C496 C 0.39272 0.38668 0.33381 0.0
H497 H 0.45546 0.40971 0.2953 0.0
C498 C 0.37696 0.39584 0.29092 0.0
C499 C 0.42133 0.39166 0.33552 0.0
C500 C 0.43896 0.3825 0.38129 0.0
C501 C 0.38915 0.40952 0.249 0.0
C502 C 0.41779 0.41483 0.25083 0.0
C503 C 0.43353 0.40567 0.29395 0.0
C504 C 0.43182 0.42975 0.20834 0.0
C505 C 0.37135 0.41735 0.20251 0.0
C506 C 0.4539 0.41748 0.18252 0.0
C507 C 0.46729 0.43152 0.14267 0.0
C508 C 0.45881 0.45811 0.12785 0.0
C509 C 0.43679 0.4704 0.15398 0.0
C510 C 0.42359 0.45644 0.19411 0.0
H511 H 0.35223 0.40485 0.20039 0.0
H512 H 0.36526 0.43927 0.20601 0.0
H513 H 0.38256 0.41473 0.16548 0.0
H514 H 0.46068 0.39695 0.19301 0.0
H515 H 0.48422 0.4215 0.12341 0.0
H516 H 0.12474 0.83144 0.97694 0.0
H517 H 0.09811 0.85751 0.9111 0.0
H518 H 0.1719 0.90041 0.86727 0.0
H519 H 0.19842 0.87381 0.93225 0.0
H520 H 0.08866 0.91236 0.89221 0.0
H521 H 0.14717 0.86624 0.73028 0.0
H522 H 0.14984 0.85365 0.79637 0.0
H523 H 0.16864 0.88379 0.77717 0.0
C524 C 0.135 0.84677 0.9536 0.0
C525 C 0.16348 0.85063 0.95887 0.0
C526 C 0.11991 0.86155 0.91603 0.0
C527 C 0.13317 0.8804 0.88339 0.0
C528 C 0.1614 0.88542 0.891 0.0
H529 H 0.08115 0.9861 0.62835 0.0
H530 H 0.10548 0.96338 0.70079 0.0
C531 C 0.17647 0.87046 0.92819 0.0
C532 C 0.11773 0.89404 0.84016 0.0
H533 H 0.11657 0.90263 0.70781 0.0
C534 C 0.09467 0.91014 0.85189 0.0
C535 C 0.12549 0.89092 0.78746 0.0
C536 C 0.14896 0.8725 0.7719 0.0
C537 C 0.07955 0.9237 0.81239 0.0
C538 C 0.08766 0.92095 0.75998 0.0
C539 C 0.11057 0.90478 0.74818 0.0
C540 C 0.07264 0.93475 0.71667 0.0
C541 C 0.05526 0.94125 0.82684 0.0
C542 C 0.04629 0.92585 0.70131 0.0
C543 C 0.0324 0.93861 0.65964 0.0
C544 C 0.04462 0.96057 0.6328 0.0
C545 C 0.07112 0.96931 0.64826 0.0
C546 C 0.08505 0.95638 0.68963 0.0
H547 H 0.05436 0.94486 0.86958 0.0
H548 H 0.05612 0.96143 0.80661 0.0
H549 H 0.03599 0.93081 0.81408 0.0
H550 H 0.03655 0.90893 0.72137 0.0
H551 H 0.01202 0.93139 0.64873 0.0
loop_
_geom_bond_atom_site_label_1
_geom_bond_atom_site_label_2
_geom_bond_distance
_geom_bond_site_symmetry_2
_ccdc_geom_bond_type
C0 N1 1.317 . S
C0 N2 1.348 1_556 S
C0 C3 1.485 . S
N1 C0 1.317 . S
N1 N5 1.370 1_556 S
N2 C0 1.348 1_554 S
N2 C4 1.346 . S
C3 C0 1.485 . S
C3 H7 0.960 . S
C3 H8 0.961 . S
C3 H9 0.960 . S
C4 N2 1.346 . S
C4 N5 1.307 . S
C4 C6 1.486 . S
N5 N1 1.370 1_554 S
N5 C4 1.307 . S
C6 C4 1.486 . S
C6 H10 0.960 . S
C6 H11 0.960 . S
C6 H12 0.959 . S
H7 C3 0.960 . S
H8 C3 0.961 . S
H9 C3 0.960 . S
H10 C6 0.960 . S
H11 C6 0.960 . S
H12 C6 0.959 . S
C13 N14 1.317 . S
C13 N15 1.348 . S
C13 C16 1.485 . S
N14 C13 1.317 . S
N14 N18 1.370 . S
N15 C13 1.348 . S
N15 C17 1.346 . S
C16 C13 1.485 . S
C16 H20 0.960 . S
C16 H21 0.961 . S
C16 H22 0.960 . S
C17 N15 1.346 . S
C17 N18 1.307 . S
C17 C19 1.486 . S
N18 N14 1.370 . S
N18 C17 1.307 . S
C19 C17 1.486 . S
C19 H23 0.960 . S
C19 H24 0.960 . S
C19 H25 0.959 . S
H20 C16 0.960 . S
H21 C16 0.961 . S
H22 C16 0.960 . S
H23 C19 0.960 . S
H24 C19 0.960 . S
H25 C19 0.959 . S
C26 N27 1.317 . S
C26 N28 1.348 . S
C26 C29 1.485 . S
N27 C26 1.317 . S
N27 N31 1.370 1_554 S
N28 C26 1.348 . S
N28 C30 1.346 1_554 S
C29 C26 1.485 . S
C29 H33 0.960 . S
C29 H34 0.961 . S
C29 H35 0.960 . S
C30 N28 1.346 1_556 S
C30 N31 1.307 . S
C30 C32 1.486 . S
N31 N27 1.370 1_556 S
N31 C30 1.307 . S
C32 C30 1.486 . S
C32 H36 0.960 . S
C32 H37 0.960 . S
C32 H38 0.959 . S
H33 C29 0.960 . S
H34 C29 0.961 . S
H35 C29 0.960 . S
H36 C32 0.960 . S
H37 C32 0.960 . S
H38 C32 0.959 . S
C39 N40 1.317 . S
C39 N41 1.348 . S
C39 C42 1.485 . S
N40 C39 1.317 . S
N40 N44 1.370 . S
N41 C39 1.348 . S
N41 C43 1.346 . S
C42 C39 1.485 . S
C42 H46 0.960 . S
C42 H47 0.961 . S
C42 H48 0.960 . S
C43 N41 1.346 . S
C43 N44 1.307 . S
C43 C45 1.486 . S
N44 N40 1.370 . S
N44 C43 1.307 . S
C45 C43 1.486 . S
C45 H49 0.960 . S
C45 H50 0.960 . S
C45 H51 0.959 . S
H46 C42 0.960 . S
H47 C42 0.961 . S
H48 C42 0.960 . S
H49 C45 0.960 . S
H50 C45 0.960 . S
H51 C45 0.959 . S
C52 O68 1.251 . S
C52 O70 1.254 . S
N53 C54 1.333 . S
N53 C58 1.307 . S
N53 Zn59 2.020 . S
C54 N53 1.333 . S
C54 C55 1.379 . S
C54 H72 0.952 . S
C55 C54 1.379 . S
C55 C56 1.390 . S
C55 H82 0.949 . S
C56 C55 1.390 . S
C56 C57 1.357 . S
C57 C56 1.357 . S
C57 C58 1.370 . S
C57 H83 0.950 . S
C58 N53 1.307 . S
C58 C57 1.370 . S
C58 H76 0.948 . S
Zn59 N53 2.020 . S
Zn59 O68 2.039 1_545 S
Zn59 O74 2.034 1_545 S
Zn59 O78 2.025 1_455 S
Zn59 O80 2.024 1_455 S
C60 O79 1.246 . S
C60 O80 1.249 . S
N61 C62 1.307 . S
N61 C63 1.333 . S
N61 Zn67 2.020 . S
C62 N61 1.307 . S
C62 C66 1.370 . S
C62 H73 0.948 . S
C63 N61 1.333 . S
C63 C64 1.379 . S
C63 H71 0.952 . S
C64 C63 1.379 . S
C64 C65 1.390 . S
C64 H84 0.949 . S
C65 C64 1.390 . S
C65 C66 1.357 . S
C66 C62 1.370 . S
C66 C65 1.357 . S
C66 H85 0.950 . S
Zn67 N61 2.020 . S
Zn67 O70 2.025 1_655 S
Zn67 O75 2.024 1_655 S
Zn67 O77 2.039 1_565 S
Zn67 O79 2.034 1_565 S
O68 C52 1.251 . S
O68 Zn59 2.039 1_565 S
C69 O74 1.246 . S
C69 O75 1.249 . S
O70 C52 1.254 . S
O70 Zn67 2.025 1_455 S
H71 C63 0.952 . S
H72 C54 0.952 . S
H73 C62 0.948 . S
O74 Zn59 2.034 1_565 S
O74 C69 1.246 . S
O75 Zn67 2.024 1_455 S
O75 C69 1.249 . S
H76 C58 0.948 . S
O77 Zn67 2.039 1_545 S
O77 C81 1.251 . S
O78 Zn59 2.025 1_655 S
O78 C81 1.254 . S
O79 C60 1.246 . S
O79 Zn67 2.034 1_545 S
O80 Zn59 2.024 1_655 S
O80 C60 1.249 . S
C81 O77 1.251 . S
C81 O78 1.254 . S
H82 C55 0.949 . S
H83 C57 0.950 . S
H84 C64 0.949 . S
H85 C66 0.950 . S
C86 O102 1.251 . S
C86 O104 1.254 . S
N87 C88 1.333 1_554 S
N87 C92 1.307 . S
N87 Zn93 2.020 . S
C88 N87 1.333 1_556 S
C88 C89 1.379 . S
C88 H106 0.952 . S
C89 C88 1.379 . S
C89 C90 1.390 1_556 S
C89 H116 0.949 . S
C90 C89 1.390 1_554 S
C90 C91 1.357 . S
C91 C90 1.357 . S
C91 C92 1.370 . S
C91 H117 0.950 . S
C92 N87 1.307 . S
C92 C91 1.370 . S
C92 H110 0.948 . S
Zn93 N87 2.020 . S
Zn93 O102 2.039 1_554 S
Zn93 O108 2.034 . S
Zn93 O112 2.025 . S
Zn93 O114 2.024 1_554 S
C94 O113 1.246 . S
C94 O114 1.249 . S
N95 C96 1.307 1_554 S
N95 C97 1.333 . S
N95 Zn101 2.020 . S
C96 N95 1.307 1_556 S
C96 C100 1.370 . S
C96 H107 0.948 . S
C97 N95 1.333 . S
C97 C98 1.379 . S
C97 H105 0.952 . S
C98 C97 1.379 . S
C98 C99 1.390 . S
C98 H118 0.949 . S
C99 C98 1.390 . S
C99 C100 1.357 1_554 S
C100 C96 1.370 . S
C100 C99 1.357 1_556 S
C100 H119 0.950 . S
Zn101 N95 2.020 . S
Zn101 O104 2.025 1_554 S
Zn101 O109 2.024 . S
Zn101 O111 2.039 . S
Zn101 O113 2.034 1_554 S
O102 C86 1.251 . S
O102 Zn93 2.039 1_556 S
C103 O108 1.246 . S
C103 O109 1.249 . S
O104 C86 1.254 . S
O104 Zn101 2.025 1_556 S
H105 C97 0.952 . S
H106 C88 0.952 . S
H107 C96 0.948 . S
O108 Zn93 2.034 . S
O108 C103 1.246 . S
O109 Zn101 2.024 . S
O109 C103 1.249 . S
H110 C92 0.948 . S
O111 Zn101 2.039 . S
O111 C115 1.251 . S
O112 Zn93 2.025 . S
O112 C115 1.254 . S
O113 C94 1.246 . S
O113 Zn101 2.034 1_556 S
O114 Zn93 2.024 1_556 S
O114 C94 1.249 . S
C115 O111 1.251 . S
C115 O112 1.254 . S
H116 C89 0.949 . S
H117 C91 0.950 . S
H118 C98 0.949 . S
H119 C100 0.950 . S
H120 C128 0.929 . S
H121 C130 0.930 . S
H122 C132 0.930 . S
H123 C135 0.929 . S
H124 C138 0.930 . S
H125 C140 0.960 . S
H126 C140 0.960 . S
H127 C140 0.960 . S
C128 H120 0.929 . S
C128 C129 1.377 . S
C128 C130 1.384 . S
C129 C128 1.377 . S
C129 C135 1.390 . S
C130 H121 0.930 . S
C130 C128 1.384 . S
C130 C131 1.372 . S
C131 C130 1.372 . S
C131 C132 1.400 . S
C131 C136 1.490 . S
C132 H122 0.930 . S
C132 C131 1.400 . S
C132 C135 1.386 . S
H133 C149 0.930 . S
H134 C150 0.931 . S
C135 H123 0.929 . S
C135 C129 1.390 . S
C135 C132 1.386 . S
C136 C131 1.490 . S
C136 C138 1.395 . S
C136 C139 1.403 . S
H137 C143 0.930 . S
C138 H124 0.930 . S
C138 C136 1.395 . S
C138 C141 1.403 . S
C139 C136 1.403 . S
C139 C140 1.524 . S
C139 C143 1.400 . S
C140 H125 0.960 . S
C140 H126 0.960 . S
C140 H127 0.960 . S
C140 C139 1.524 . S
C141 C138 1.403 . S
C141 C142 1.392 . S
C141 C145 1.495 . S
C142 C141 1.392 . S
C142 C143 1.385 . S
C142 C144 1.478 . S
C143 H137 0.930 . S
C143 C139 1.400 . S
C143 C142 1.385 . S
C144 C142 1.478 . S
C144 C146 1.381 . S
C144 C150 1.383 . S
C145 C141 1.495 . S
C145 H151 0.959 . S
C145 H152 0.961 . S
C145 H153 0.960 . S
C146 C144 1.381 . S
C146 C147 1.394 . S
C146 H154 0.930 . S
C147 C146 1.394 . S
C147 C148 1.383 . S
C147 H155 0.929 . S
C148 C147 1.383 . S
C148 C149 1.377 . S
C149 H133 0.930 . S
C149 C148 1.377 . S
C149 C150 1.379 . S
C150 H134 0.931 . S
C150 C144 1.383 . S
C150 C149 1.379 . S
H151 C145 0.959 . S
H152 C145 0.961 . S
H153 C145 0.960 . S
H154 C146 0.930 . S
H155 C147 0.929 . S
H156 C164 0.929 . S
H157 C166 0.930 . S
H158 C168 0.930 . S
H159 C171 0.929 . S
H160 C174 0.930 . S
H161 C176 0.960 . S
H162 C176 0.960 . S
H163 C176 0.960 1_554 S
C164 H156 0.929 . S
C164 C165 1.377 1_556 S
C164 C166 1.384 . S
C165 C164 1.377 1_554 S
C165 C171 1.390 . S
C166 H157 0.930 . S
C166 C164 1.384 . S
C166 C167 1.372 1_556 S
C167 C166 1.372 1_554 S
C167 C168 1.400 . S
C167 C172 1.490 . S
C168 H158 0.930 . S
C168 C167 1.400 . S
C168 C171 1.386 . S
H169 C185 0.930 . S
H170 C186 0.931 . S
C171 H159 0.929 . S
C171 C165 1.390 . S
C171 C168 1.386 . S
C172 C167 1.490 . S
C172 C174 1.395 . S
C172 C175 1.403 1_554 S
H173 C179 0.929 1_556 S
C174 H160 0.930 . S
C174 C172 1.395 . S
C174 C177 1.403 . S
C175 C172 1.403 1_556 S
C175 C176 1.524 . S
C175 C179 1.400 1_556 S
C176 H161 0.960 . S
C176 H162 0.960 . S
C176 H163 0.960 1_556 S
C176 C175 1.524 . S
C177 C174 1.403 . S
C177 C178 1.392 . S
C177 C181 1.495 . S
C178 C177 1.392 . S
C178 C179 1.386 . S
C178 C180 1.478 . S
C179 H173 0.929 1_554 S
C179 C175 1.400 1_554 S
C179 C178 1.386 . S
C180 C178 1.478 . S
C180 C182 1.381 1_554 S
C180 C186 1.383 . S
C181 C177 1.495 . S
C181 H187 0.959 . S
C181 H188 0.961 . S
C181 H189 0.960 . S
C182 C180 1.381 1_556 S
C182 C183 1.394 . S
C182 H190 0.930 . S
C183 C182 1.394 . S
C183 C184 1.383 1_556 S
C183 H191 0.929 . S
C184 C183 1.383 1_554 S
C184 C185 1.377 . S
C185 H169 0.930 . S
C185 C184 1.377 . S
C185 C186 1.379 . S
C186 H170 0.931 . S
C186 C180 1.383 . S
C186 C185 1.379 . S
H187 C181 0.959 . S
H188 C181 0.961 . S
H189 C181 0.960 . S
H190 C182 0.930 . S
H191 C183 0.929 . S
H192 C200 0.929 . S
H193 C202 0.930 . S
H194 C204 0.930 . S
H195 C207 0.929 . S
H196 C210 0.930 . S
H197 C212 0.960 . S
H198 C212 0.960 . S
H199 C212 0.960 . S
C200 H192 0.929 . S
C200 C201 1.377 . S
C200 C202 1.384 . S
C201 C200 1.377 . S
C201 C207 1.390 . S
C202 H193 0.930 . S
C202 C200 1.384 . S
C202 C203 1.372 . S
C203 C202 1.372 . S
C203 C204 1.400 . S
C203 C208 1.490 . S
C204 H194 0.930 . S
C204 C203 1.400 . S
C204 C207 1.386 . S
H205 C221 0.930 . S
H206 C222 0.931 . S
C207 H195 0.929 . S
C207 C201 1.390 . S
C207 C204 1.386 . S
C208 C203 1.490 . S
C208 C210 1.395 . S
C208 C211 1.403 . S
H209 C215 0.930 . S
C210 H196 0.930 . S
C210 C208 1.395 . S
C210 C213 1.403 . S
C211 C208 1.403 . S
C211 C212 1.524 . S
C211 C215 1.400 . S
C212 H197 0.960 . S
C212 H198 0.960 . S
C212 H199 0.960 . S
C212 C211 1.524 . S
C213 C210 1.403 . S
C213 C214 1.392 . S
C213 C217 1.495 . S
C214 C213 1.392 . S
C214 C215 1.385 . S
C214 C216 1.478 . S
C215 H209 0.930 . S
C215 C211 1.400 . S
C215 C214 1.385 . S
C216 C214 1.478 . S
C216 C218 1.381 . S
C216 C222 1.383 . S
C217 C213 1.495 . S
C217 H223 0.959 . S
C217 H224 0.961 . S
C217 H225 0.960 . S
C218 C216 1.381 . S
C218 C219 1.394 . S
C218 H226 0.930 . S
C219 C218 1.394 . S
C219 C220 1.383 . S
C219 H227 0.929 . S
C220 C219 1.383 . S
C220 C221 1.377 . S
C221 H205 0.930 . S
C221 C220 1.377 . S
C221 C222 1.379 . S
C222 H206 0.931 . S
C222 C216 1.383 . S
C222 C221 1.379 . S
H223 C217 0.959 . S
H224 C217 0.961 . S
H225 C217 0.960 . S
H226 C218 0.930 . S
H227 C219 0.929 . S
H228 C236 0.929 . S
H229 C238 0.930 . S
H230 C240 0.930 . S
H231 C243 0.929 . S
H232 C246 0.930 . S
H233 C248 0.960 . S
H234 C248 0.960 . S
H235 C248 0.960 . S
C236 H228 0.929 . S
C236 C237 1.377 . S
C236 C238 1.384 . S
C237 C236 1.377 . S
C237 C243 1.390 1_554 S
C238 H229 0.930 . S
C238 C236 1.384 . S
C238 C239 1.372 . S
C239 C238 1.372 . S
C239 C240 1.400 1_554 S
C239 C244 1.490 . S
C240 H230 0.930 . S
C240 C239 1.400 1_556 S
C240 C243 1.386 . S
H241 C257 0.930 . S
H242 C258 0.931 . S
C243 H231 0.929 . S
C243 C237 1.390 1_556 S
C243 C240 1.386 . S
C244 C239 1.490 . S
C244 C246 1.395 . S
C244 C247 1.403 1_554 S
H245 C251 0.930 . S
C246 H232 0.930 . S
C246 C244 1.395 . S
C246 C249 1.403 . S
C247 C244 1.403 1_556 S
C247 C248 1.524 . S
C247 C251 1.400 . S
C248 H233 0.960 . S
C248 H234 0.960 . S
C248 H235 0.960 . S
C248 C247 1.524 . S
C249 C246 1.403 . S
C249 C250 1.392 . S
C249 C253 1.495 . S
C250 C249 1.392 . S
C250 C251 1.385 1_554 S
C250 C252 1.478 . S
C251 H245 0.930 . S
C251 C247 1.400 . S
C251 C250 1.385 1_556 S
C252 C250 1.478 . S
C252 C254 1.381 . S
C252 C258 1.383 1_554 S
C253 C249 1.495 . S
C253 H259 0.959 . S
C253 H260 0.961 . S
C253 H261 0.960 . S
C254 C252 1.381 . S
C254 C255 1.394 . S
C254 H262 0.930 . S
C255 C254 1.394 . S
C255 C256 1.383 . S
C255 H263 0.929 . S
C256 C255 1.383 . S
C256 C257 1.377 1_554 S
C257 H241 0.930 . S
C257 C256 1.377 1_556 S
C257 C258 1.379 . S
C258 H242 0.931 . S
C258 C252 1.383 1_556 S
C258 C257 1.379 . S
H259 C253 0.959 . S
H260 C253 0.961 . S
H261 C253 0.960 . S
H262 C254 0.930 . S
H263 C255 0.929 . S
H264 C272 0.929 . S
H265 C274 0.930 . S
H266 C276 0.930 . S
H267 C279 0.929 . S
H268 C282 0.930 . S
H269 C284 0.960 . S
H270 C284 0.960 . S
H271 C284 0.960 . S
C272 H264 0.929 . S
C272 C273 1.377 . S
C272 C274 1.384 . S
C273 C272 1.377 . S
C273 C279 1.390 . S
C274 H265 0.930 . S
C274 C272 1.384 . S
C274 C275 1.372 . S
C275 C274 1.372 . S
C275 C276 1.400 . S
C275 C280 1.490 . S
C276 H266 0.930 . S
C276 C275 1.400 . S
C276 C279 1.386 . S
H277 C293 0.930 . S
H278 C294 0.931 . S
C279 H267 0.929 . S
C279 C273 1.390 . S
C279 C276 1.386 . S
C280 C275 1.490 . S
C280 C282 1.395 . S
C280 C283 1.403 . S
H281 C287 0.930 . S
C282 H268 0.930 . S
C282 C280 1.395 . S
C282 C285 1.403 . S
C283 C280 1.403 . S
C283 C284 1.524 . S
C283 C287 1.400 . S
C284 H269 0.960 . S
C284 H270 0.960 . S
C284 H271 0.960 . S
C284 C283 1.524 . S
C285 C282 1.403 . S
C285 C286 1.392 . S
C285 C289 1.495 . S
C286 C285 1.392 . S
C286 C287 1.385 . S
C286 C288 1.478 . S
C287 H281 0.930 . S
C287 C283 1.400 . S
C287 C286 1.385 . S
C288 C286 1.478 . S
C288 C290 1.381 . S
C288 C294 1.383 . S
C289 C285 1.495 . S
C289 H295 0.959 . S
C289 H296 0.961 . S
C289 H297 0.960 . S
C290 C288 1.381 . S
C290 C291 1.394 . S
C290 H298 0.930 . S
C291 C290 1.394 . S
C291 C292 1.383 . S
C291 H299 0.929 . S
C292 C291 1.383 . S
C292 C293 1.377 . S
C293 H277 0.930 . S
C293 C292 1.377 . S
C293 C294 1.379 . S
C294 H278 0.931 . S
C294 C288 1.383 . S
C294 C293 1.379 . S
H295 C289 0.959 . S
H296 C289 0.961 . S
H297 C289 0.960 . S
H298 C290 0.930 . S
H299 C291 0.929 . S
H300 C308 0.929 . S
H301 C310 0.930 . S
H302 C312 0.930 . S
H303 C315 0.929 . S
H304 C318 0.930 . S
H305 C320 0.960 . S
H306 C320 0.960 . S
H307 C320 0.960 . S
C308 H300 0.929 . S
C308 C309 1.377 . S
C308 C310 1.384 . S
C309 C308 1.377 . S
C309 C315 1.390 . S
C310 H301 0.930 . S
C310 C308 1.384 . S
C310 C311 1.372 . S
C311 C310 1.372 . S
C311 C312 1.400 . S
C311 C316 1.490 . S
C312 H302 0.930 . S
C312 C311 1.400 . S
C312 C315 1.386 . S
H313 C329 0.930 . S
H314 C330 0.931 . S
C315 H303 0.929 . S
C315 C309 1.390 . S
C315 C312 1.386 . S
C316 C311 1.490 . S
C316 C318 1.395 . S
C316 C319 1.403 . S
H317 C323 0.930 . S
C318 H304 0.930 . S
C318 C316 1.395 . S
C318 C321 1.403 . S
C319 C316 1.403 . S
C319 C320 1.524 . S
C319 C323 1.400 . S
C320 H305 0.960 . S
C320 H306 0.960 . S
C320 H307 0.960 . S
C320 C319 1.524 . S
C321 C318 1.403 . S
C321 C322 1.392 . S
C321 C325 1.495 . S
C322 C321 1.392 . S
C322 C323 1.385 . S
C322 C324 1.478 . S
C323 H317 0.930 . S
C323 C319 1.400 . S
C323 C322 1.385 . S
C324 C322 1.478 . S
C324 C326 1.381 . S
C324 C330 1.383 . S
C325 C321 1.495 . S
C325 H331 0.959 . S
C325 H332 0.961 . S
C325 H333 0.960 . S
C326 C324 1.381 . S
C326 C327 1.394 . S
C326 H334 0.930 . S
C327 C326 1.394 . S
C327 C328 1.383 . S
C327 H335 0.929 . S
C328 C327 1.383 . S
C328 C329 1.377 . S
C329 H313 0.930 . S
C329 C328 1.377 . S
C329 C330 1.379 . S
C330 H314 0.931 . S
C330 C324 1.383 . S
C330 C329 1.379 . S
H331 C325 0.959 . S
H332 C325 0.961 . S
H333 C325 0.960 . S
H334 C326 0.930 . S
H335 C327 0.929 . S
H336 C344 0.929 . S
H337 C346 0.930 . S
H338 C348 0.930 . S
H339 C351 0.929 . S
H340 C354 0.930 . S
H341 C356 0.960 . S
H342 C356 0.960 . S
H343 C356 0.960 . S
C344 H336 0.929 . S
C344 C345 1.377 . S
C344 C346 1.384 . S
C345 C344 1.377 . S
C345 C351 1.390 . S
C346 H337 0.930 . S
C346 C344 1.384 . S
C346 C347 1.372 . S
C347 C346 1.372 . S
C347 C348 1.400 . S
C347 C352 1.490 . S
C348 H338 0.930 . S
C348 C347 1.400 . S
C348 C351 1.386 . S
H349 C365 0.930 . S
H350 C366 0.931 . S
C351 H339 0.929 . S
C351 C345 1.390 . S
C351 C348 1.386 . S
C352 C347 1.490 . S
C352 C354 1.395 . S
C352 C355 1.403 . S
H353 C359 0.930 . S
C354 H340 0.930 . S
C354 C352 1.395 . S
C354 C357 1.403 . S
C355 C352 1.403 . S
C355 C356 1.524 . S
C355 C359 1.400 . S
C356 H341 0.960 . S
C356 H342 0.960 . S
C356 H343 0.960 . S
C356 C355 1.524 . S
C357 C354 1.403 . S
C357 C358 1.392 . S
C357 C361 1.495 . S
C358 C357 1.392 . S
C358 C359 1.385 . S
C358 C360 1.478 . S
C359 H353 0.930 . S
C359 C355 1.400 . S
C359 C358 1.385 . S
C360 C358 1.478 . S
C360 C362 1.381 . S
C360 C366 1.383 . S
C361 C357 1.495 . S
C361 H367 0.959 . S
C361 H368 0.961 . S
C361 H369 0.960 . S
C362 C360 1.381 . S
C362 C363 1.394 . S
C362 H370 0.930 . S
C363 C362 1.394 . S
C363 C364 1.383 . S
C363 H371 0.929 . S
C364 C363 1.383 . S
C364 C365 1.377 . S
C365 H349 0.930 . S
C365 C364 1.377 . S
C365 C366 1.379 . S
C366 H350 0.931 . S
C366 C360 1.383 . S
C366 C365 1.379 . S
H367 C361 0.959 . S
H368 C361 0.961 . S
H369 C361 0.960 . S
H370 C362 0.930 . S
H371 C363 0.929 . S
H372 C380 0.929 . S
H373 C382 0.930 . S
H374 C384 0.930 . S
H375 C387 0.929 . S
H376 C390 0.930 . S
H377 C392 0.960 . S
H378 C392 0.960 . S
H379 C392 0.960 . S
C380 H372 0.929 . S
C380 C381 1.377 . S
C380 C382 1.384 . S
C381 C380 1.377 . S
C381 C387 1.390 . S
C382 H373 0.930 . S
C382 C380 1.384 . S
C382 C383 1.372 . S
C383 C382 1.372 . S
C383 C384 1.400 . S
C383 C388 1.490 . S
C384 H374 0.930 . S
C384 C383 1.400 . S
C384 C387 1.386 . S
H385 C401 0.930 . S
H386 C402 0.931 . S
C387 H375 0.929 . S
C387 C381 1.390 . S
C387 C384 1.386 . S
C388 C383 1.490 . S
C388 C390 1.395 . S
C388 C391 1.403 . S
H389 C395 0.930 . S
C390 H376 0.930 . S
C390 C388 1.395 . S
C390 C393 1.403 . S
C391 C388 1.403 . S
C391 C392 1.524 . S
C391 C395 1.400 . S
C392 H377 0.960 . S
C392 H378 0.960 . S
C392 H379 0.960 . S
C392 C391 1.524 . S
C393 C390 1.403 . S
C393 C394 1.392 . S
C393 C397 1.495 . S
C394 C393 1.392 . S
C394 C395 1.385 . S
C394 C396 1.478 . S
C395 H389 0.930 . S
C395 C391 1.400 . S
C395 C394 1.385 . S
C396 C394 1.478 . S
C396 C398 1.381 . S
C396 C402 1.383 . S
C397 C393 1.495 . S
C397 H403 0.959 . S
C397 H404 0.961 . S
C397 H405 0.960 . S
C398 C396 1.381 . S
C398 C399 1.394 . S
C398 H406 0.930 . S
C399 C398 1.394 . S
C399 C400 1.383 . S
C399 H407 0.929 . S
C400 C399 1.383 . S
C400 C401 1.377 . S
C401 H385 0.930 . S
C401 C400 1.377 . S
C401 C402 1.379 . S
C402 H386 0.931 . S
C402 C396 1.383 . S
C402 C401 1.379 . S
H403 C397 0.959 . S
H404 C397 0.961 . S
H405 C397 0.960 . S
H406 C398 0.930 . S
H407 C399 0.929 . S
H408 C416 0.929 . S
H409 C418 0.930 . S
H410 C420 0.930 . S
H411 C423 0.929 . S
H412 C426 0.930 . S
H413 C428 0.960 . S
H414 C428 0.960 . S
H415 C428 0.960 . S
C416 H408 0.929 . S
C416 C417 1.377 . S
C416 C418 1.384 . S
C417 C416 1.377 . S
C417 C423 1.390 . S
C418 H409 0.930 . S
C418 C416 1.384 . S
C418 C419 1.372 . S
C419 C418 1.372 . S
C419 C420 1.400 . S
C419 C424 1.490 . S
C420 H410 0.930 . S
C420 C419 1.400 . S
C420 C423 1.386 . S
H421 C437 0.930 . S
H422 C438 0.931 . S
C423 H411 0.929 . S
C423 C417 1.390 . S
C423 C420 1.386 . S
C424 C419 1.490 . S
C424 C426 1.395 . S
C424 C427 1.403 . S
H425 C431 0.930 . S
C426 H412 0.930 . S
C426 C424 1.395 . S
C426 C429 1.403 . S
C427 C424 1.403 . S
C427 C428 1.524 . S
C427 C431 1.400 . S
C428 H413 0.960 . S
C428 H414 0.960 . S
C428 H415 0.960 . S
C428 C427 1.524 . S
C429 C426 1.403 . S
C429 C430 1.392 . S
C429 C433 1.495 . S
C430 C429 1.392 . S
C430 C431 1.385 . S
C430 C432 1.478 . S
C431 H425 0.930 . S
C431 C427 1.400 . S
C431 C430 1.385 . S
C432 C430 1.478 . S
C432 C434 1.381 . S
C432 C438 1.383 . S
C433 C429 1.495 . S
C433 H439 0.959 . S
C433 H440 0.961 . S
C433 H441 0.960 . S
C434 C432 1.381 . S
C434 C435 1.394 . S
C434 H442 0.930 . S
C435 C434 1.394 . S
C435 C436 1.383 . S
C435 H443 0.929 . S
C436 C435 1.383 . S
C436 C437 1.377 . S
C437 H421 0.930 . S
C437 C436 1.377 . S
C437 C438 1.379 . S
C438 H422 0.931 . S
C438 C432 1.383 . S
C438 C437 1.379 . S
H439 C433 0.959 . S
H440 C433 0.961 . S
H441 C433 0.960 . S
H442 C434 0.930 . S
H443 C435 0.929 . S
H444 C452 0.929 . S
H445 C454 0.930 . S
H446 C456 0.930 . S
H447 C459 0.929 . S
H448 C462 0.930 . S
H449 C464 0.960 . S
H450 C464 0.960 . S
H451 C464 0.960 . S
C452 H444 0.929 . S
C452 C453 1.377 . S
C452 C454 1.384 . S
C453 C452 1.377 . S
C453 C459 1.390 . S
C454 H445 0.930 . S
C454 C452 1.384 . S
C454 C455 1.372 . S
C455 C454 1.372 . S
C455 C456 1.400 . S
C455 C460 1.490 . S
C456 H446 0.930 . S
C456 C455 1.400 . S
C456 C459 1.386 . S
H457 C473 0.930 . S
H458 C474 0.931 . S
C459 H447 0.929 . S
C459 C453 1.390 . S
C459 C456 1.386 . S
C460 C455 1.490 . S
C460 C462 1.395 . S
C460 C463 1.403 . S
H461 C467 0.930 . S
C462 H448 0.930 . S
C462 C460 1.395 . S
C462 C465 1.403 . S
C463 C460 1.403 . S
C463 C464 1.524 . S
C463 C467 1.400 . S
C464 H449 0.960 . S
C464 H450 0.960 . S
C464 H451 0.960 . S
C464 C463 1.524 . S
C465 C462 1.403 . S
C465 C466 1.392 . S
C465 C469 1.495 . S
C466 C465 1.392 . S
C466 C467 1.385 . S
C466 C468 1.478 . S
C467 H461 0.930 . S
C467 C463 1.400 . S
C467 C466 1.385 . S
C468 C466 1.478 . S
C468 C470 1.381 . S
C468 C474 1.383 . S
C469 C465 1.495 . S
C469 H475 0.959 . S
C469 H476 0.961 . S
C469 H477 0.960 . S
C470 C468 1.381 . S
C470 C471 1.394 . S
C470 H478 0.930 . S
C471 C470 1.394 . S
C471 C472 1.383 . S
C471 H479 0.929 . S
C472 C471 1.383 . S
C472 C473 1.377 . S
C473 H457 0.930 . S
C473 C472 1.377 . S
C473 C474 1.379 . S
C474 H458 0.931 . S
C474 C468 1.383 . S
C474 C473 1.379 . S
H475 C469 0.959 . S
H476 C469 0.961 . S
H477 C469 0.960 . S
H478 C470 0.930 . S
H479 C471 0.929 . S
H480 C488 0.929 . S
H481 C490 0.930 . S
H482 C492 0.930 . S
H483 C495 0.929 . S
H484 C498 0.930 . S
H485 C500 0.960 . S
H486 C500 0.960 . S
H487 C500 0.960 . S
C488 H480 0.929 . S
C488 C489 1.377 . S
C488 C490 1.384 . S
C489 C488 1.377 . S
C489 C495 1.390 . S
C490 H481 0.930 . S
C490 C488 1.384 . S
C490 C491 1.372 . S
C491 C490 1.372 . S
C491 C492 1.400 . S
C491 C496 1.490 . S
C492 H482 0.930 . S
C492 C491 1.400 . S
C492 C495 1.386 . S
H493 C509 0.930 . S
H494 C510 0.931 . S
C495 H483 0.929 . S
C495 C489 1.390 . S
C495 C492 1.386 . S
C496 C491 1.490 . S
C496 C498 1.395 . S
C496 C499 1.403 . S
H497 C503 0.930 . S
C498 H484 0.930 . S
C498 C496 1.395 . S
C498 C501 1.403 . S
C499 C496 1.403 . S
C499 C500 1.524 . S
C499 C503 1.400 . S
C500 H485 0.960 . S
C500 H486 0.960 . S
C500 H487 0.960 . S
C500 C499 1.524 . S
C501 C498 1.403 . S
C501 C502 1.392 . S
C501 C505 1.495 . S
C502 C501 1.392 . S
C502 C503 1.385 . S
C502 C504 1.478 . S
C503 H497 0.930 . S
C503 C499 1.400 . S
C503 C502 1.385 . S
C504 C502 1.478 . S
C504 C506 1.381 . S
C504 C510 1.383 . S
C505 C501 1.495 . S
C505 H511 0.959 . S
C505 H512 0.961 . S
C505 H513 0.960 . S
C506 C504 1.381 . S
C506 C507 1.394 . S
C506 H514 0.930 . S
C507 C506 1.394 . S
C507 C508 1.383 . S
C507 H515 0.929 . S
C508 C507 1.383 . S
C508 C509 1.377 . S
C509 H493 0.930 . S
C509 C508 1.377 . S
C509 C510 1.379 . S
C510 H494 0.931 . S
C510 C504 1.383 . S
C510 C509 1.379 . S
H511 C505 0.959 . S
H512 C505 0.961 . S
H513 C505 0.960 . S
H514 C506 0.930 . S
H515 C507 0.929 . S
H516 C524 0.929 . S
H517 C526 0.930 . S
H518 C528 0.930 . S
H519 C531 0.929 . S
H520 C534 0.930 . S
H521 C536 0.960 . S
H522 C536 0.960 . S
H523 C536 0.960 . S
C524 H516 0.929 . S
C524 C525 1.377 . S
C524 C526 1.384 . S
C525 C524 1.377 . S
C525 C531 1.390 . S
C526 H517 0.930 . S
C526 C524 1.384 . S
C526 C527 1.372 . S
C527 C526 1.372 . S
C527 C528 1.400 . S
C527 C532 1.490 . S
C528 H518 0.930 . S
C528 C527 1.400 . S
C528 C531 1.386 . S
H529 C545 0.930 . S
H530 C546 0.931 . S
C531 H519 0.929 . S
C531 C525 1.390 . S
C531 C528 1.386 . S
C532 C527 1.490 . S
C532 C534 1.395 . S
C532 C535 1.403 . S
H533 C539 0.930 . S
C534 H520 0.930 . S
C534 C532 1.395 . S
C534 C537 1.403 . S
C535 C532 1.403 . S
C535 C536 1.524 . S
C535 C539 1.400 . S
C536 H521 0.960 . S
C536 H522 0.960 . S
C536 H523 0.960 . S
C536 C535 1.524 . S
C537 C534 1.403 . S
C537 C538 1.392 . S
C537 C541 1.495 . S
C538 C537 1.392 . S
C538 C539 1.385 . S
C538 C540 1.478 . S
C539 H533 0.930 . S
C539 C535 1.400 . S
C539 C538 1.385 . S
C540 C538 1.478 . S
C540 C542 1.381 . S
C540 C546 1.383 . S
C541 C537 1.495 . S
C541 H547 0.959 . S
C541 H548 0.961 . S
C541 H549 0.960 . S
C542 C540 1.381 . S
C542 C543 1.394 . S
C542 H550 0.930 . S
C543 C542 1.394 . S
C543 C544 1.383 . S
C543 H551 0.929 . S
C544 C543 1.383 . S
C544 C545 1.377 . S
C545 H529 0.930 . S
C545 C544 1.377 . S
C545 C546 1.379 . S
C546 H530 0.931 . S
C546 C540 1.383 . S
C546 C545 1.379 . S
H547 C541 0.959 . S
H548 C541 0.961 . S
H549 C541 0.960 . S
H550 C542 0.930 . S
H551 C543 0.929 . S
C148 C56 1.513 . S
C129 N41 1.521 . S
C165 N2 1.520 . S
C184 C99 1.520 . S
C201 N15 1.520 . S
C220 C65 1.511 . S
C237 N28 1.521 . S
C256 C90 1.511 . S
C292 C52 1.522 . S
C273 N5 1.517 . S
C328 C94 1.522 . S
C309 N14 1.514 . S
C345 N27 1.512 . S
C364 C60 1.522 . S
C381 N44 1.514 . S
C400 C86 1.520 . S
C436 C115 1.516 . S
C417 N18 1.517 . S
C472 C81 1.522 . S
C453 N31 1.516 . S
C508 C103 1.510 . S
C489 N40 1.516 . S
C525 N1 1.514 . S
C544 C69 1.521 . S
