# Generated by pormake.
# Topology anh, (6,3)-cn, num edge types: 1
# Building blocks:
#     Node 0, Type 0, BuildingBlock: BETGAK_clean_sbu_0, # of connection points: 6
#     Node 1, Type 0, BuildingBlock: BETGAK_clean_sbu_0, # of connection points: 6
#     Node 2, Type 0, BuildingBlock: BETGAK_clean_sbu_0, # of connection points: 6
#     Node 3, Type 1, BuildingBlock: BELTOD_clean_linker_0, # of connection points: 3
#     Node 4, Type 1, BuildingBlock: BELTOD_clean_linker_0, # of connection points: 3
#     Node 5, Type 1, BuildingBlock: BELTOD_clean_linker_0, # of connection points: 3
#     Node 6, Type 1, BuildingBlock: BELTOD_clean_linker_0, # of connection points: 3
#     Node 7, Type 1, BuildingBlock: BELTOD_clean_linker_0, # of connection points: 3
#     Node 8, Type 1, BuildingBlock: BELTOD_clean_linker_0, # of connection points: 3
#     Edge 9, Type (0, 1), BuildingBlock: ZUJKAS_clean_linker_0, # of connection points: 2
#     Edge 10, Type (0, 1), BuildingBlock: ZUJKAS_clean_linker_0, # of connection points: 2
#     Edge 11, Type (0, 1), BuildingBlock: ZUJKAS_clean_linker_0, # of connection points: 2
#     Edge 12, Type (0, 1), BuildingBlock: ZUJKAS_clean_linker_0, # of connection points: 2
#     Edge 13, Type (0, 1), BuildingBlock: ZUJKAS_clean_linker_0, # of connection points: 2
#     Edge 14, Type (0, 1), BuildingBlock: ZUJKAS_clean_linker_0, # of connection points: 2
#     Edge 15, Type (0, 1), BuildingBlock: ZUJKAS_clean_linker_0, # of connection points: 2
#     Edge 16, Type (0, 1), BuildingBlock: ZUJKAS_clean_linker_0, # of connection points: 2
#     Edge 17, Type (0, 1), BuildingBlock: ZUJKAS_clean_linker_0, # of connection points: 2
#     Edge 18, Type (0, 1), BuildingBlock: ZUJKAS_clean_linker_0, # of connection points: 2
#     Edge 19, Type (0, 1), BuildingBlock: ZUJKAS_clean_linker_0, # of connection points: 2
#     Edge 20, Type (0, 1), BuildingBlock: ZUJKAS_clean_linker_0, # of connection points: 2
#     Edge 21, Type (0, 1), BuildingBlock: ZUJKAS_clean_linker_0, # of connection points: 2
#     Edge 22, Type (0, 1), BuildingBlock: ZUJKAS_clean_linker_0, # of connection points: 2
#     Edge 23, Type (0, 1), BuildingBlock: ZUJKAS_clean_linker_0, # of connection points: 2
#     Edge 24, Type (0, 1), BuildingBlock: ZUJKAS_clean_linker_0, # of connection points: 2
#     Edge 25, Type (0, 1), BuildingBlock: ZUJKAS_clean_linker_0, # of connection points: 2
#     Edge 26, Type (0, 1), BuildingBlock: ZUJKAS_clean_linker_0, # of connection points: 2
# Relax obj value: 0.159
# Max RMSD: 0.193
# Mean RMSD: 0.141
data_MOF--net-anh--node1-BETGAK_clean_sbu_0--node2-BELTOD_clean_linker_0--edge1-ZUJKAS_clean_linker_0
_symmetry_space_group_name_H-M    P1
_symmetry_Int_Tables_number       1
_symmetry_cell_setting            triclinic
loop_
_symmetry_equiv_pos_as_xyz
'x, y, z'
_cell_length_a     43.964448
_cell_length_b     49.943377
_cell_length_c     76.541935
_cell_angle_alpha  92.413799
_cell_angle_beta   89.576
_cell_angle_gamma 127.11383
loop_
_atom_site_label
_atom_site_type_symbol
_atom_site_fract_x
_atom_site_fract_y
_atom_site_fract_z
_atom_type_partial_charge
La0 La 0.08773 0.51997 0.14944 0.0
La1 La 0.04848 0.54821 0.16374 0.0
C2 C 0.12958 0.51139 0.13165 0.0
C3 C 0.17046 0.52762 0.13363 0.0
C4 C 0.18927 0.5435 0.14973 0.0
C5 C 0.2274 0.55662 0.15221 0.0
C6 C 0.24741 0.55454 0.13854 0.0
C7 C 0.22913 0.54034 0.12213 0.0
C8 C 0.19076 0.52681 0.11971 0.0
C9 C 0.08186 0.51926 0.18357 0.0
C10 C 0.13568 0.59977 0.15891 0.0
C11 C 1.00823 0.55867 0.18182 0.0
C12 C 0.96791 0.53711 0.18644 0.0
C13 C 0.94131 0.50854 0.17585 0.0
C14 C 0.90285 0.48835 0.18001 0.0
C15 C 0.89022 0.49632 0.19486 0.0
C16 C 0.91717 0.52456 0.20571 0.0
C17 C 0.95581 0.54478 0.20152 0.0
C18 C 0.05468 0.54787 0.12941 0.0
C19 C 1.0014 0.46881 0.15563 0.0
O20 O 0.1087 0.49239 0.14443 0.0
O21 O 0.12088 0.53105 0.12713 0.0
O22 O 0.08201 0.49719 0.17418 0.0
O23 O 0.08864 0.54217 0.17408 0.0
O24 O 0.13416 0.57473 0.15108 0.0
O25 O 0.10571 0.59463 0.16662 0.0
O26 O 1.01499 0.56515 0.16526 0.0
O27 O 1.02899 0.55072 0.18845 0.0
O28 O 0.05644 0.57121 0.13858 0.0
O29 O 0.0472 0.52527 0.13927 0.0
O30 O 1.0048 0.49343 0.16503 0.0
O31 O 1.02927 0.47489 0.1455 0.0
H32 H 0.1741 0.54481 0.16055 0.0
H33 H 0.24096 0.56751 0.16495 0.0
H34 H 0.24394 0.53814 0.11146 0.0
H35 H 0.17669 0.51491 0.10718 0.0
H36 H 0.95012 0.50216 0.16415 0.0
H37 H 0.88286 0.46722 0.17117 0.0
H38 H 0.90833 0.5312 0.21729 0.0
H39 H 0.97613 0.56661 0.20992 0.0
La40 La 0.58341 0.01689 0.48731 0.0
La41 La 0.5359 0.0396 0.47968 0.0
C42 C 0.61067 0.99004 0.50078 0.0
C43 C 0.59883 0.95621 0.50431 0.0
C44 C 0.57593 0.92871 0.49236 0.0
C45 C 0.56736 0.89744 0.49559 0.0
C46 C 0.58121 0.89306 0.51088 0.0
C47 C 0.60319 0.92046 0.52301 0.0
C48 C 0.61195 0.95171 0.51972 0.0
C49 C 0.58051 0.02748 0.45423 0.0
C50 C 0.4936 0.96272 0.47967 0.0
C51 C 0.50787 0.06781 0.46908 0.0
C52 C 0.51348 0.09959 0.47382 0.0
C53 C 0.48229 0.09838 0.47956 0.0
C54 C 0.48719 0.12777 0.48522 0.0
C55 C 0.52341 0.1591 0.48518 0.0
C56 C 0.5545 0.16039 0.47906 0.0
C57 C 0.54961 0.13093 0.47348 0.0
C58 C 0.54237 0.03174 0.51305 0.0
C59 C 0.62701 0.09379 0.48449 0.0
O60 O 0.61464 0.99784 0.48439 0.0
O61 O 0.59395 1.00051 0.50977 0.0
O62 O 0.60997 0.03284 0.46196 0.0
O63 O 0.55298 0.01415 0.46456 0.0
O64 O 0.52462 0.96989 0.48758 0.0
O65 O 0.49377 0.9865 0.47257 0.0
O66 O 0.49263 0.04562 0.48112 0.0
O67 O 0.53587 0.06985 0.46137 0.0
O68 O 0.51225 0.0259 0.50597 0.0
O69 O 0.56799 0.04387 0.50192 0.0
O70 O 0.59446 0.08652 0.47847 0.0
O71 O 0.62852 0.07056 0.49113 0.0
H72 H 0.56515 0.93151 0.48044 0.0
H73 H 0.55 0.87671 0.4861 0.0
H74 H 0.61466 0.91806 0.53481 0.0
H75 H 0.62965 0.9726 0.52909 0.0
H76 H 0.45412 0.07454 0.47989 0.0
H77 H 0.46256 0.12596 0.48963 0.0
H78 H 0.58283 0.18408 0.47899 0.0
H79 H 0.57422 0.13269 0.46917 0.0
La80 La 0.59157 0.55725 0.85336 0.0
La81 La 0.53818 0.48221 0.85345 0.0
C82 C 0.62615 0.61768 0.84568 0.0
C83 C 0.61693 0.64085 0.84222 0.0
C84 C 0.64417 0.67521 0.84641 0.0
C85 C 0.63665 0.69796 0.84295 0.0
C86 C 0.60163 0.68677 0.83521 0.0
C87 C 0.57419 0.65217 0.83114 0.0
C88 C 0.58177 0.62939 0.83463 0.0
C89 C 0.57761 0.53169 0.88427 0.0
C90 C 0.50031 0.51907 0.85482 0.0
C91 C 0.50445 0.42123 0.85965 0.0
C92 C 0.51061 0.39569 0.8554 0.0
C93 C 0.48293 0.36665 0.84533 0.0
C94 C 0.4887 0.34279 0.84041 0.0
C95 C 0.52224 0.34735 0.84556 0.0
C96 C 0.54964 0.37612 0.85597 0.0
C97 C 0.5439 0.40008 0.86084 0.0
C98 C 0.55239 0.50738 0.82232 0.0
C99 C 0.63005 0.52076 0.8538 0.0
O100 O 0.62166 0.60804 0.86173 0.0
O101 O 0.61374 0.59288 0.83411 0.0
O102 O 0.61035 0.55877 0.88011 0.0
O103 O 0.55402 0.52149 0.87185 0.0
O104 O 0.5344 0.54622 0.85039 0.0
O105 O 0.49632 0.4917 0.85926 0.0
O106 O 0.4959 0.43135 0.84635 0.0
O107 O 0.52871 0.44621 0.87061 0.0
O108 O 0.52008 0.48025 0.82663 0.0
O109 O 0.57601 0.5178 0.83479 0.0
O110 O 0.59502 0.49254 0.85585 0.0
O111 O 0.63543 0.54934 0.85087 0.0
H112 H 0.6715 0.68452 0.85222 0.0
H113 H 0.65863 0.72445 0.846 0.0
H114 H 0.54681 0.64268 0.82534 0.0
H115 H 0.5603 0.60292 0.8313 0.0
H116 H 0.45691 0.36257 0.84109 0.0
H117 H 0.46679 0.32066 0.83262 0.0
H118 H 0.57589 0.38047 0.86004 0.0
H119 H 0.56571 0.42214 0.86868 0.0
P120 P 0.60573 0.02137 0.20887 0.0
H121 H 0.5884 0.97357 0.18013 0.0
H122 H 0.52836 0.92358 0.16799 0.0
H123 H 0.46643 0.94855 0.19999 0.0
H124 H 0.52675 0.99946 0.21125 0.0
H125 H 0.67768 0.05561 0.19044 0.0
H126 H 0.72071 0.11177 0.1796 0.0
H127 H 0.63967 0.13112 0.19287 0.0
H128 H 0.59662 0.07445 0.20406 0.0
H129 H 0.55169 0.97324 0.23387 0.0
H130 H 0.6415 0.08 0.23385 0.0
O131 O 0.63123 0.00678 0.20989 0.0
H132 H 0.54223 0.97836 0.26492 0.0
H133 H 0.63201 0.08527 0.26492 0.0
C134 C 0.56201 0.98968 0.19697 0.0
C135 C 0.56188 0.96864 0.18424 0.0
C136 C 0.52741 0.93978 0.17745 0.0
C137 C 0.49226 0.93125 0.18336 0.0
C138 C 0.49272 0.95404 0.1951 0.0
C139 C 0.52731 0.98318 0.20167 0.0
C140 C 0.63406 0.06092 0.19824 0.0
C141 C 0.6688 0.07166 0.19085 0.0
C142 C 0.69342 0.10389 0.18453 0.0
C143 C 0.68386 0.12619 0.18542 0.0
C144 C 0.6482 0.1148 0.1922 0.0
C145 C 0.62341 0.08234 0.19846 0.0
C146 C 0.59625 0.0264 0.23129 0.0
C147 C 0.56864 0.99796 0.2404 0.0
C148 C 0.56327 1.0009 0.25819 0.0
C149 C 0.58608 0.03228 0.26736 0.0
C150 C 0.61391 0.06076 0.25822 0.0
C151 C 0.61909 0.0578 0.24037 0.0
P152 P 0.63409 0.56712 0.57936 0.0
H153 H 0.67077 0.54762 0.55571 0.0
H154 H 0.64968 0.49403 0.54186 0.0
H155 H 0.53772 0.44657 0.56338 0.0
H156 H 0.55952 0.50061 0.57755 0.0
H157 H 0.66688 0.61737 0.55291 0.0
H158 H 0.64757 0.64943 0.54061 0.0
H159 H 0.54337 0.59275 0.56965 0.0
H160 H 0.56303 0.5606 0.58195 0.0
H161 H 0.62119 0.51774 0.6038 0.0
H162 H 0.6243 0.60578 0.60553 0.0
O163 O 0.68166 0.59255 0.57887 0.0
H164 H 0.6117 0.51336 0.63528 0.0
H165 H 0.61345 0.60091 0.63691 0.0
C166 C 0.61687 0.52796 0.56788 0.0
C167 C 0.64163 0.52577 0.55741 0.0
C168 C 0.6294 0.49506 0.54936 0.0
C169 C 0.59201 0.46587 0.55154 0.0
C170 C 0.56686 0.46843 0.56164 0.0
C171 C 0.57917 0.4993 0.56966 0.0
C172 C 0.61686 0.58727 0.5687 0.0
C173 C 0.63972 0.61161 0.55653 0.0
C174 C 0.6285 0.62979 0.5494 0.0
C175 C 0.59409 0.62389 0.55429 0.0
C176 C 0.57032 0.59825 0.56585 0.0
C177 C 0.58146 0.57982 0.57285 0.0
C178 C 0.62205 0.56135 0.60216 0.0
C179 C 0.61874 0.53559 0.61086 0.0
C180 C 0.61331 0.53312 0.62891 0.0
C181 C 0.61154 0.55665 0.63868 0.0
C182 C 0.61493 0.58248 0.62986 0.0
C183 C 0.62056 0.58499 0.61183 0.0
P184 P 0.08733 0.55095 0.88166 0.0
H185 H 0.13561 0.56552 0.85109 0.0
H186 H 0.18381 0.55675 0.84513 0.0
H187 H 0.14361 0.49105 0.88829 0.0
H188 H 0.09499 0.49927 0.89383 0.0
H189 H 0.06609 0.59533 0.877 0.0
H190 H 1.00709 0.5872 0.87135 0.0
H191 H 0.94878 0.48041 0.86333 0.0
H192 H 1.00926 0.48898 0.86946 0.0
H193 H 0.14281 0.58315 0.91056 0.0
H194 H 1.02171 0.50536 0.90411 0.0
O195 O 0.12073 0.59219 0.87981 0.0
H196 H 0.13746 0.57778 0.9422 0.0
H197 H 1.01618 0.49967 0.93574 0.0
C198 C 0.11101 0.53306 0.8729 0.0
C199 C 0.1361 0.54819 0.8589 0.0
C200 C 0.16447 0.54367 0.85572 0.0
C201 C 0.16881 0.52375 0.86644 0.0
C202 C 0.14168 0.50658 0.87964 0.0
C203 C 0.11336 0.51117 0.8828 0.0
C204 C 0.04317 0.54299 0.87319 0.0
C205 C 1.04113 0.57009 0.87353 0.0
C206 C 1.00676 0.56535 0.87027 0.0
C207 C 0.97238 0.53312 0.86663 0.0
C208 C 0.97429 0.50573 0.86612 0.0
C209 C 1.00917 0.5106 0.86936 0.0
C210 C 0.08256 0.54532 0.90496 0.0
C211 C 0.11503 0.56492 0.91595 0.0
C212 C 0.11198 0.56162 0.93405 0.0
C213 C 0.07632 0.53846 0.94154 0.0
C214 C 0.04395 0.51817 0.93042 0.0
C215 C 0.0471 0.5214 0.91229 0.0
P216 P 0.09058 0.50807 0.42954 0.0
H217 H 0.13816 0.53724 0.46125 0.0
H218 H 0.18182 0.59518 0.47295 0.0
H219 H 0.13958 0.62632 0.43403 0.0
H220 H 0.0947 0.56814 0.42311 0.0
H221 H 0.0634 0.44044 0.43715 0.0
H222 H 1.00385 0.39212 0.4481 0.0
H223 H 0.96209 0.4511 0.45441 0.0
H224 H 1.02244 0.49985 0.44311 0.0
H225 H 0.14051 0.55401 0.40313 0.0
H226 H 1.0228 0.46706 0.40577 0.0
O227 O 0.12188 0.49951 0.42958 0.0
H228 H 0.13187 0.55663 0.37193 0.0
H229 H 1.01404 0.46953 0.37451 0.0
C230 C 0.11386 0.54846 0.44104 0.0
C231 C 0.1376 0.55644 0.45556 0.0
C232 C 0.16295 0.58973 0.46208 0.0
C233 C 0.16521 0.6158 0.45413 0.0
C234 C 0.1389 0.60713 0.44051 0.0
C235 C 0.11325 0.57372 0.43414 0.0
C236 C 0.04773 0.47401 0.43965 0.0
C237 C 1.04184 0.44333 0.44117 0.0
C238 C 1.00763 0.41559 0.4475 0.0
C239 C 0.97819 0.41769 0.45233 0.0
C240 C 0.98413 0.44857 0.45078 0.0
C241 C 1.01868 0.47652 0.44449 0.0
C242 C 0.08222 0.51072 0.40686 0.0
C243 C 0.11264 0.53578 0.39704 0.0
C244 C 0.10763 0.53732 0.37922 0.0
C245 C 0.0722 0.5134 0.37078 0.0
C246 C 1.04169 0.48825 0.38066 0.0
C247 C 0.04665 0.48694 0.39857 0.0
P248 P 0.62646 0.05145 0.75786 0.0
H249 H 0.65614 0.09999 0.78756 0.0
H250 H 0.63554 0.13149 0.80117 0.0
H251 H 0.53474 0.0764 0.76756 0.0
H252 H 0.55603 0.04536 0.75377 0.0
H253 H 0.62787 0.99775 0.74314 0.0
H254 H 0.61223 0.94624 0.75478 0.0
H255 H 0.57375 0.96588 0.80233 0.0
H256 H 0.58996 0.01783 0.79058 0.0
H257 H 0.66735 0.09716 0.72971 0.0
H258 H 0.5616 0.99856 0.73549 0.0
O259 O 0.67382 0.07645 0.7606 0.0
H260 H 0.65439 0.09256 0.69833 0.0
H261 H 0.54873 0.99336 0.70398 0.0
C262 C 0.60805 0.0709 0.7694 0.0
C263 C 0.62946 0.0945 0.7832 0.0
C264 C 0.61747 0.11235 0.79107 0.0
C265 C 0.58365 0.10676 0.78533 0.0
C266 C 0.56129 0.0818 0.77205 0.0
C267 C 0.57334 0.06392 0.7642 0.0
C268 C 0.60931 0.01125 0.76583 0.0
C269 C 0.61526 0.99061 0.75592 0.0
C270 C 0.60622 0.96108 0.76259 0.0
C271 C 0.5915 0.95177 0.77946 0.0
C272 C 0.58519 0.97239 0.78932 0.0
C273 C 0.59415 1.00197 0.78257 0.0
C274 C 0.6159 0.04788 0.73482 0.0
C275 C 0.64146 0.07438 0.72418 0.0
C276 C 0.63407 0.07165 0.70623 0.0
C277 C 0.60077 0.04239 0.69859 0.0
C278 C 0.57459 0.01626 0.70943 0.0
C279 C 0.58205 0.01907 0.72742 0.0
P280 P 0.42975 0.34429 0.10652 0.0
H281 H 0.42676 0.30899 0.13652 0.0
H282 H 0.47673 0.3123 0.15287 0.0
H283 H 0.55829 0.37593 0.11405 0.0
H284 H 0.50862 0.37261 0.09794 0.0
H285 H 0.37351 0.35037 0.12287 0.0
H286 H 0.37934 0.39836 0.13658 0.0
H287 H 0.50183 0.45956 0.13177 0.0
H288 H 0.49568 0.41165 0.11777 0.0
H289 H 0.44982 0.3202 0.07626 0.0
H290 H 0.42964 0.39371 0.08714 0.0
O291 O 0.38587 0.30836 0.10772 0.0
H292 H 0.46697 0.33892 0.04627 0.0
H293 H 0.44746 0.4129 0.05764 0.0
C294 C 0.46374 0.33979 0.11579 0.0
C295 C 0.45515 0.3227 0.13126 0.0
C296 C 0.48374 0.32485 0.14066 0.0
C297 C 0.52135 0.34425 0.1347 0.0
C298 C 0.52943 0.36019 0.11879 0.0
C299 C 0.50093 0.35821 0.1095 0.0
C300 C 0.43415 0.37738 0.11947 0.0
C301 C 0.40165 0.37387 0.12515 0.0
C302 C 0.40509 0.40132 0.13308 0.0
C303 C 0.44112 0.43276 0.13531 0.0
C304 C 0.47373 0.43573 0.13019 0.0
C305 C 0.47024 0.40828 0.12228 0.0
C306 C 0.43949 0.35614 0.0841 0.0
C307 C 0.44913 0.34035 0.07222 0.0
C308 C 0.45908 0.35117 0.05513 0.0
C309 C 0.45892 0.37762 0.04961 0.0
C310 C 0.44767 0.39234 0.06139 0.0
C311 C 0.43782 0.38156 0.07841 0.0
H312 H 0.313 0.5953 0.1203 0.0
H313 H 0.37154 0.59973 0.1231 0.0
H314 H 0.3236 0.53438 0.1665 0.0
H315 H 0.26642 0.53149 0.16433 0.0
H316 H 0.39972 0.57833 0.17043 0.0
H317 H 0.36091 0.5195 0.10281 0.0
H318 H 0.37304 0.56081 0.10508 0.0
H319 H 0.33059 0.52612 0.11493 0.0
C320 C 0.31561 0.58269 0.1307 0.0
C321 C 0.28522 0.56273 0.14197 0.0
C322 C 0.34887 0.5851 0.13226 0.0
C323 C 0.35143 0.56655 0.14467 0.0
C324 C 0.32227 0.54885 0.15679 0.0
H325 H 0.40332 0.43911 0.16176 0.0
H326 H 0.39633 0.48387 0.16601 0.0
C327 C 0.28953 0.54711 0.15551 0.0
C328 C 0.38092 0.561 0.14363 0.0
H329 H 0.40608 0.51975 0.11825 0.0
C330 C 0.40181 0.56618 0.15889 0.0
C331 C 0.38364 0.54512 0.12856 0.0
C332 C 0.36072 0.53728 0.11195 0.0
C333 C 0.42319 0.55385 0.15984 0.0
C334 C 0.42373 0.5361 0.14515 0.0
C335 C 0.40564 0.53351 0.12948 0.0
C336 C 0.43679 0.51501 0.14625 0.0
C337 C 0.44359 0.55857 0.17675 0.0
C338 C 0.46258 0.51807 0.13406 0.0
C339 C 0.46622 0.4923 0.13146 0.0
C340 C 0.44389 0.46295 0.14093 0.0
C341 C 0.42053 0.46126 0.15415 0.0
C342 C 0.41696 0.48708 0.15677 0.0
H343 H 0.45154 0.5815 0.18433 0.0
H344 H 0.42432 0.53666 0.18486 0.0
H345 H 0.46973 0.56042 0.17434 0.0
H346 H 0.47776 0.53923 0.12568 0.0
H347 H 0.48425 0.49426 0.12107 0.0
H348 H 0.63666 0.14633 0.4684 0.0
H349 H 0.69583 0.20255 0.46488 0.0
H350 H 0.75745 0.17687 0.49432 0.0
H351 H 0.69834 0.12037 0.4978 0.0
H352 H 0.74784 0.25348 0.48901 0.0
H353 H 0.81606 0.20871 0.44888 0.0
H354 H 0.76586 0.18197 0.45357 0.0
H355 H 0.80032 0.19008 0.46973 0.0
C356 C 0.66266 0.15263 0.47429 0.0
C357 C 0.66262 0.12867 0.48337 0.0
C358 C 0.69655 0.18485 0.47222 0.0
C359 C 0.73123 0.19381 0.47908 0.0
C360 C 0.73118 0.17032 0.48859 0.0
H361 H 0.96705 0.37067 0.47426 0.0
H362 H 0.90678 0.31774 0.48157 0.0
C363 C 0.69727 0.13804 0.49065 0.0
C364 C 0.76743 0.22753 0.47602 0.0
H365 H 0.85468 0.26662 0.45737 0.0
C366 C 0.77119 0.25638 0.48207 0.0
C367 C 0.79782 0.23132 0.46687 0.0
C368 C 0.79483 0.20142 0.45923 0.0
C369 C 0.80479 0.28886 0.47951 0.0
C370 C 0.83523 0.29259 0.47045 0.0
C371 C 0.83141 0.26374 0.46439 0.0
C372 C 0.87139 0.3261 0.46706 0.0
C373 C 0.80772 0.31888 0.48682 0.0
C374 C 0.87162 0.34864 0.45656 0.0
C375 C 0.90616 0.37897 0.45227 0.0
C376 C 0.9412 0.38724 0.4583 0.0
C377 C 0.94069 0.36494 0.46918 0.0
C378 C 0.90623 0.33469 0.47344 0.0
H379 H 0.78625 0.3118 0.49702 0.0
H380 H 0.83662 0.33837 0.49254 0.0
H381 H 0.80261 0.33011 0.4761 0.0
H382 H 0.84516 0.34228 0.4512 0.0
H383 H 0.90547 0.39527 0.44367 0.0
H384 H 0.61944 0.74142 0.85527 0.0
H385 H 0.61167 0.78401 0.84748 0.0
H386 H 0.56009 0.73065 0.79796 0.0
H387 H 0.56796 0.68805 0.80559 0.0
H388 H 0.64386 0.82444 0.81909 0.0
H389 H 0.48612 0.74922 0.81563 0.0
H390 H 0.51024 0.73495 0.82621 0.0
H391 H 0.5048 0.73144 0.80278 0.0
C392 C 0.60633 0.73867 0.84274 0.0
C393 C 0.59438 0.71133 0.83104 0.0
C394 C 0.60173 0.76294 0.83835 0.0
C395 C 0.58487 0.76029 0.82225 0.0
C396 C 0.57237 0.7328 0.81064 0.0
H397 H 0.56025 0.89007 0.76327 0.0
H398 H 0.55718 0.84341 0.77462 0.0
C399 C 0.57693 0.70847 0.81501 0.0
C400 C 0.58284 0.78751 0.81711 0.0
H401 H 0.52147 0.80382 0.8042 0.0
C402 C 0.61708 0.82002 0.816 0.0
C403 C 0.54787 0.78161 0.81299 0.0
C404 C 0.51011 0.74749 0.8146 0.0
C405 C 0.61743 0.84664 0.81049 0.0
C406 C 0.5825 0.84074 0.80628 0.0
C407 C 0.54819 0.80828 0.80749 0.0
C408 C 0.58131 0.86783 0.80007 0.0
C409 C 0.65531 0.88064 0.80869 0.0
C410 C 0.59484 0.89661 0.81081 0.0
C411 C 0.59687 0.9234 0.80433 0.0
C412 C 0.58523 0.92185 0.787 0.0
C413 C 0.57002 0.89229 0.77657 0.0
C414 C 0.56802 0.86552 0.78306 0.0
H415 H 0.67944 0.87903 0.80844 0.0
H416 H 0.65565 0.89227 0.79656 0.0
H417 H 0.66007 0.89749 0.82 0.0
H418 H 0.60466 0.89865 0.82408 0.0
H419 H 0.60894 0.94583 0.81268 0.0
H420 H 0.85117 0.52079 0.2049 0.0
H421 H 0.78226 0.49077 0.2034 0.0
H422 H 0.76662 0.39875 0.18875 0.0
H423 H 0.83532 0.42822 0.19107 0.0
H424 H 0.74816 0.46575 0.17225 0.0
H425 H 0.67463 0.36346 0.21853 0.0
H426 H 0.72472 0.39831 0.2209 0.0
H427 H 0.70908 0.36289 0.2062 0.0
C428 C 0.83301 0.49388 0.20212 0.0
C429 C 0.84873 0.47696 0.19785 0.0
C430 C 0.7936 0.47678 0.20119 0.0
C431 C 0.76928 0.44252 0.19599 0.0
C432 C 0.78469 0.42503 0.19309 0.0
H433 H 0.5814 0.3448 0.12452 0.0
H434 H 0.63944 0.36663 0.14165 0.0
C435 C 0.82407 0.44204 0.19415 0.0
C436 C 0.72951 0.42683 0.19032 0.0
H437 H 0.63771 0.35583 0.19274 0.0
C438 C 0.72395 0.44205 0.17701 0.0
C439 C 0.6979 0.39594 0.19653 0.0
C440 C 0.70182 0.3794 0.21146 0.0
C441 C 0.68802 0.4265 0.16916 0.0
C442 C 0.65698 0.3946 0.17455 0.0
C443 C 0.66189 0.38004 0.18846 0.0
C444 C 0.61964 0.37605 0.16539 0.0
C445 C 0.6837 0.444 0.15487 0.0
C446 C 0.58892 0.37288 0.17337 0.0
C447 C 0.55578 0.3605 0.16362 0.0
C448 C 0.55303 0.35113 0.14577 0.0
C449 C 0.58296 0.35225 0.13818 0.0
C450 C 0.616 0.36459 0.14794 0.0
H451 H 0.70773 0.47129 0.1551 0.0
H452 H 0.68316 0.4327 0.14197 0.0
H453 H 0.65654 0.44087 0.15611 0.0
H454 H 0.5914 0.38172 0.18684 0.0
H455 H 0.53333 0.36022 0.16978 0.0
H456 H 0.42228 0.93925 0.46821 0.0
H457 H 0.36488 0.88094 0.46562 0.0
H458 H 0.4288 0.84751 0.48409 0.0
H459 H 0.48606 0.9058 0.4872 0.0
H460 H 0.34988 0.82879 0.44576 0.0
H461 H 0.33841 0.7981 0.51532 0.0
H462 H 0.37024 0.8406 0.50828 0.0
H463 H 0.38372 0.81298 0.50648 0.0
C464 C 0.42412 0.91953 0.47182 0.0
C465 C 0.45878 0.92728 0.47801 0.0
C466 C 0.39123 0.88616 0.47033 0.0
C467 C 0.39221 0.85977 0.47497 0.0
C468 C 0.42694 0.86741 0.4809 0.0
H469 H 0.23939 0.64352 0.46308 0.0
H470 H 0.29233 0.70265 0.46889 0.0
C471 C 0.45979 0.90081 0.48255 0.0
C472 C 0.35724 0.82425 0.47299 0.0
H473 H 0.29911 0.75179 0.49482 0.0
C474 C 0.33859 0.81209 0.45654 0.0
C475 C 0.34234 0.80237 0.48707 0.0
C476 C 0.35948 0.81424 0.50532 0.0
C477 C 0.30622 0.77853 0.45368 0.0
C478 C 0.2919 0.75656 0.46765 0.0
C479 C 0.31021 0.76871 0.48413 0.0
C480 C 0.25879 0.72053 0.46519 0.0
C481 C 0.28814 0.76652 0.43561 0.0
C482 C 0.22206 0.71084 0.46157 0.0
C483 C 0.19138 0.67684 0.45848 0.0
C484 C 0.19685 0.65183 0.45892 0.0
C485 C 0.23369 0.66179 0.46295 0.0
C486 C 0.2642 0.6957 0.46614 0.0
H487 H 0.30641 0.78491 0.42561 0.0
H488 H 0.28234 0.7421 0.43179 0.0
H489 H 0.26047 0.76261 0.4356 0.0
H490 H 0.21718 0.72962 0.46102 0.0
H491 H 0.16343 0.67021 0.45569 0.0
H492 H 0.55039 0.32157 0.86501 0.0
H493 H 0.56064 0.28014 0.85539 0.0
H494 H 0.5183 0.27486 0.80374 0.0
H495 H 0.50863 0.31659 0.81313 0.0
H496 H 0.50445 0.21305 0.84057 0.0
H497 H 0.6226 0.29347 0.7953 0.0
H498 H 0.60856 0.3105 0.81196 0.0
H499 H 0.58099 0.29169 0.79196 0.0
C500 C 0.54364 0.31182 0.85156 0.0
C501 C 0.52873 0.32238 0.83983 0.0
C502 C 0.54929 0.28804 0.84612 0.0
C503 C 0.54059 0.27473 0.82882 0.0
C504 C 0.52566 0.28515 0.81709 0.0
H505 H 0.55539 0.13386 0.76734 0.0
H506 H 0.54263 0.17265 0.77858 0.0
C507 C 0.51982 0.30876 0.82253 0.0
C508 C 0.54641 0.24945 0.82303 0.0
H509 H 0.59584 0.2356 0.79431 0.0
C510 C 0.52458 0.21797 0.83054 0.0
C511 C 0.57263 0.25601 0.80992 0.0
C512 C 0.59782 0.28983 0.80189 0.0
C513 C 0.52761 0.19251 0.82495 0.0
C514 C 0.55369 0.199 0.81175 0.0
C515 C 0.57574 0.23062 0.80437 0.0
C516 C 0.55872 0.17346 0.80535 0.0
C517 C 0.50214 0.15863 0.83288 0.0
C518 C 0.57178 0.16084 0.81669 0.0
C519 C 0.57879 0.1384 0.81033 0.0
C520 C 0.57313 0.1283 0.79246 0.0
C521 C 0.55947 0.14063 0.78121 0.0
C522 C 0.55246 0.16304 0.78758 0.0
H523 H 0.47717 0.15496 0.83926 0.0
H524 H 0.49168 0.13799 0.82282 0.0
H525 H 0.51863 0.15672 0.84299 0.0
H526 H 0.57743 0.16896 0.83039 0.0
H527 H 0.58904 0.12923 0.81938 0.0
H528 H 0.58664 0.85342 0.48734 0.0
H529 H 0.58107 0.8027 0.49297 0.0
H530 H 0.55638 0.80934 0.54691 0.0
H531 H 0.56135 0.85976 0.54134 0.0
H532 H 0.62773 0.80123 0.51797 0.0
H533 H 0.47379 0.70926 0.53189 0.0
H534 H 0.49262 0.74708 0.52042 0.0
H535 H 0.49785 0.74912 0.54379 0.0
C536 C 0.57921 0.84367 0.50031 0.0
C537 C 0.57444 0.86062 0.5139 0.0
C538 C 0.57623 0.8148 0.50352 0.0
C539 C 0.56793 0.80207 0.52031 0.0
C540 C 0.56221 0.81842 0.5338 0.0
H541 H 0.56672 0.6523 0.57349 0.0
H542 H 0.55812 0.6937 0.56424 0.0
C543 C 0.56543 0.84741 0.53063 0.0
C544 C 0.56831 0.77336 0.52406 0.0
H545 H 0.51369 0.69358 0.53865 0.0
C546 C 0.60272 0.77755 0.52232 0.0
C547 C 0.53571 0.74264 0.52987 0.0
C548 C 0.49777 0.73649 0.53149 0.0
C549 C 0.60575 0.7522 0.52668 0.0
C550 C 0.57316 0.72142 0.53252 0.0
C551 C 0.5386 0.71711 0.53411 0.0
C552 C 0.57487 0.69394 0.53756 0.0
C553 C 0.64421 0.75914 0.52559 0.0
C554 C 0.58589 0.67945 0.52549 0.0
C555 C 0.59091 0.65585 0.53075 0.0
C556 C 0.58454 0.64594 0.54815 0.0
C557 C 0.57159 0.6592 0.55997 0.0
C558 C 0.56681 0.68298 0.55472 0.0
H559 H 0.66782 0.7865 0.52534 0.0
H560 H 0.6493 0.74884 0.53682 0.0
H561 H 0.64519 0.74694 0.51337 0.0
H562 H 0.5913 0.68688 0.51206 0.0
H563 H 0.60028 0.64567 0.52126 0.0
H564 H 0.70571 0.5717 0.84726 0.0
H565 H 0.76085 0.571 0.84885 0.0
H566 H 0.68788 0.46857 0.86457 0.0
H567 H 0.63258 0.46885 0.86249 0.0
H568 H 0.79538 0.56491 0.8743 0.0
H569 H 0.7436 0.457 0.82784 0.0
H570 H 0.71941 0.47589 0.83033 0.0
H571 H 0.71185 0.44604 0.84562 0.0
C572 C 0.70117 0.54881 0.85092 0.0
C573 C 0.66411 0.52021 0.8546 0.0
C574 C 0.73302 0.54849 0.85187 0.0
C575 C 0.72914 0.51953 0.85651 0.0
C576 C 0.69218 0.49106 0.86041 0.0
H577 H 0.89827 0.48044 0.87576 0.0
H578 H 0.83988 0.47634 0.87333 0.0
C579 C 0.66026 0.4913 0.85935 0.0
C580 C 0.76382 0.51969 0.85776 0.0
H581 H 0.79982 0.47734 0.84443 0.0
C582 C 0.79618 0.54576 0.86765 0.0
C583 C 0.76565 0.49482 0.84922 0.0
C584 C 0.73344 0.46705 0.83752 0.0
C585 C 0.8294 0.54745 0.86937 0.0
C586 C 0.83122 0.52265 0.86083 0.0
C587 C 0.79883 0.4964 0.85108 0.0
C588 C 0.86675 0.52418 0.86155 0.0
C589 C 0.86217 0.57565 0.88068 0.0
C590 C 0.90166 0.55186 0.85528 0.0
C591 C 0.93513 0.55412 0.85647 0.0
C592 C 0.93525 0.52882 0.86403 0.0
C593 C 0.89988 0.50049 0.86977 0.0
C594 C 0.86623 0.49818 0.86848 0.0
H595 H 0.85285 0.58694 0.88999 0.0
H596 H 0.87568 0.56669 0.88822 0.0
H597 H 0.88408 0.5957 0.87222 0.0
H598 H 0.90312 0.57195 0.84941 0.0
H599 H 0.96108 0.57596 0.85137 0.0
H600 H 0.2075 0.61852 0.15242 0.0
H601 H 0.26813 0.67505 0.15559 0.0
H602 H 0.20749 0.71516 0.17032 0.0
H603 H 0.14708 0.6588 0.16773 0.0
H604 H 0.29637 0.73254 0.13959 0.0
H605 H 0.2833 0.75209 0.21019 0.0
H606 H 0.25203 0.71162 0.19879 0.0
H607 H 0.24347 0.7425 0.19748 0.0
C608 C 0.20709 0.63937 0.15636 0.0
C609 C 0.17245 0.63406 0.16002 0.0
C610 C 0.24178 0.6717 0.15816 0.0
C611 C 0.24252 0.69933 0.16359 0.0
C612 C 0.20784 0.69417 0.16666 0.0
H613 H 0.4209 0.91516 0.17755 0.0
H614 H 0.36055 0.85919 0.17197 0.0
C615 C 0.17325 0.66189 0.16506 0.0
C616 C 0.27942 0.73357 0.16594 0.0
H617 H 0.33258 0.80035 0.19539 0.0
C618 C 0.30435 0.74726 0.15182 0.0
C619 C 0.29004 0.75282 0.18195 0.0
C620 C 0.266 0.73889 0.19801 0.0
C621 C 0.33911 0.77981 0.15318 0.0
C622 C 0.34919 0.79917 0.16904 0.0
C623 C 0.32447 0.78554 0.18317 0.0
C624 C 0.38595 0.83323 0.17148 0.0
C625 C 0.36475 0.79355 0.13763 0.0
C626 C 0.42015 0.8371 0.17309 0.0
C627 C 0.4546 0.86893 0.17656 0.0
C628 C 0.4557 0.89772 0.1784 0.0
C629 C 0.42127 0.89368 0.17644 0.0
C630 C 0.38673 0.86172 0.17314 0.0
H631 H 0.35021 0.77771 0.1255 0.0
H632 H 0.37474 0.81954 0.13547 0.0
H633 H 0.39028 0.79463 0.14024 0.0
H634 H 0.42005 0.81535 0.17211 0.0
H635 H 0.48016 0.8707 0.17837 0.0
H636 H 0.56563 0.22102 0.47096 0.0
H637 H 0.57489 0.27222 0.48223 0.0
H638 H 0.50229 0.21858 0.52546 0.0
H639 H 0.49337 0.16749 0.51446 0.0
H640 H 0.51645 0.28126 0.4893 0.0
H641 H 0.60213 0.3028 0.5486 0.0
H642 H 0.59548 0.27571 0.53024 0.0
H643 H 0.55791 0.26133 0.54552 0.0
C644 C 0.55189 0.2202 0.48294 0.0
C645 C 0.52882 0.19019 0.49183 0.0
C646 C 0.55704 0.24941 0.48931 0.0
C647 C 0.53959 0.24926 0.50477 0.0
C648 C 0.51637 0.21933 0.51362 0.0
H649 H 0.5489 0.40465 0.5665 0.0
H650 H 0.53317 0.35128 0.55462 0.0
C651 C 0.51103 0.19009 0.50722 0.0
C652 C 0.54534 0.28031 0.51156 0.0
H653 H 0.58384 0.33829 0.54588 0.0
C654 C 0.53125 0.29382 0.50164 0.0
C655 C 0.56448 0.29649 0.52771 0.0
C656 C 0.58119 0.2836 0.53862 0.0
C657 C 0.53539 0.32292 0.50756 0.0
C658 C 0.55489 0.33933 0.52364 0.0
C659 C 0.56881 0.32567 0.53358 0.0
C660 C 0.56207 0.37114 0.53024 0.0
C661 C 0.51818 0.33541 0.49669 0.0
C662 C 0.58342 0.40005 0.52046 0.0
C663 C 0.59216 0.43051 0.52715 0.0
C664 C 0.58006 0.43284 0.54384 0.0
C665 C 0.55822 0.40369 0.55351 0.0
C666 C 0.54945 0.37321 0.54679 0.0
H667 H 0.49507 0.31512 0.48777 0.0
H668 H 0.50641 0.34568 0.5051 0.0
H669 H 0.54062 0.35576 0.48853 0.0
H670 H 0.5941 0.39927 0.50781 0.0
H671 H 0.60875 0.45235 0.51928 0.0
H672 H 0.42601 0.46842 0.8634 0.0
H673 H 0.37102 0.46943 0.86475 0.0
H674 H 0.44201 0.57249 0.85002 0.0
H675 H 0.49697 0.57146 0.84836 0.0
H676 H 0.35529 0.50507 0.88462 0.0
H677 H 0.35501 0.53496 0.81586 0.0
H678 H 0.38382 0.52297 0.82342 0.0
H679 H 0.39947 0.5654 0.82723 0.0
C680 C 0.43007 0.49136 0.86032 0.0
C681 C 0.46637 0.5198 0.85562 0.0
C682 C 0.39834 0.4919 0.86115 0.0
C683 C 0.40155 0.52082 0.85719 0.0
C684 C 0.43792 0.54942 0.8527 0.0
H685 H 0.24297 0.57386 0.85683 0.0
H686 H 0.29752 0.5725 0.85473 0.0
C687 C 0.46971 0.5489 0.85186 0.0
C688 C 0.36718 0.52111 0.85818 0.0
H689 H 0.31348 0.53701 0.83489 0.0
C690 C 0.34615 0.5119 0.87366 0.0
C691 C 0.35468 0.53005 0.84402 0.0
C692 C 0.37415 0.53859 0.82663 0.0
C693 C 0.31411 0.51204 0.8755 0.0
C694 C 0.30156 0.52093 0.86133 0.0
C695 C 0.32261 0.53016 0.84585 0.0
C696 C 0.26715 0.52117 0.86234 0.0
C697 C 0.29476 0.50363 0.89291 0.0
C698 C 0.23089 0.49264 0.86698 0.0
C699 C 0.19922 0.49327 0.86813 0.0
C700 C 0.20241 0.52238 0.86451 0.0
C701 C 0.23863 0.55068 0.85951 0.0
C702 C 0.27026 0.55003 0.8584 0.0
H703 H 0.31399 0.50737 0.90367 0.0
H704 H 0.28509 0.51925 0.89611 0.0
H705 H 0.26946 0.47681 0.89239 0.0
H706 H 0.22685 0.46957 0.8696 0.0
H707 H 0.17204 0.47065 0.87171 0.0
H708 H 0.98146 0.41185 0.13711 0.0
H709 H 0.92422 0.35413 0.1402 0.0
H710 H 0.88431 0.38883 0.18019 0.0
H711 H 0.94091 0.4465 0.17698 0.0
H712 H 0.90181 0.31707 0.16882 0.0
H713 H 0.78936 0.3292 0.14987 0.0
H714 H 0.8392 0.36116 0.14579 0.0
H715 H 0.82046 0.35869 0.16714 0.0
C716 C 0.96029 0.40728 0.14641 0.0
C717 C 0.96579 0.43394 0.15672 0.0
C718 C 0.92756 0.37422 0.14817 0.0
C719 C 0.89956 0.36708 0.16023 0.0
C720 C 0.90491 0.39368 0.17047 0.0
H721 H 0.70089 0.18397 0.20171 0.0
H722 H 0.75186 0.24217 0.1948 0.0
C723 C 0.93752 0.42673 0.16868 0.0
C724 C 0.86603 0.33165 0.16286 0.0
H725 H 0.76846 0.27861 0.1634 0.0
C726 C 0.87267 0.30863 0.16747 0.0
C727 C 0.82792 0.3206 0.16122 0.0
C728 C 0.81871 0.34361 0.15557 0.0
C729 C 0.84244 0.27515 0.17078 0.0
C730 C 0.80439 0.26415 0.1692 0.0
C731 C 0.79764 0.28709 0.1646 0.0
C732 C 0.77137 0.22891 0.17242 0.0
C733 C 0.85151 0.25202 0.17638 0.0
C734 C 0.76461 0.20214 0.1618 0.0
C735 C 0.73535 0.16886 0.16564 0.0
C736 C 0.7121 0.16158 0.18017 0.0
C737 C 0.71794 0.18856 0.19034 0.0
C738 C 0.74723 0.22188 0.18647 0.0
H739 H 0.88169 0.26617 0.18091 0.0
H740 H 0.83266 0.23622 0.18706 0.0
H741 H 0.84669 0.23505 0.16511 0.0
H742 H 0.78237 0.20698 0.15068 0.0
H743 H 0.73123 0.14879 0.15731 0.0
H744 H 0.0484 0.49846 0.10919 0.0
H745 H 0.05348 0.49583 0.07739 0.0
H746 H 0.07141 0.59047 0.0744 0.0
H747 H 0.06735 0.59363 0.10629 0.0
H748 H 1.00998 0.49346 0.05166 0.0
H749 H 0.1593 0.60723 0.04631 0.0
H750 H 0.13894 0.58863 0.06694 0.0
H751 H 0.12968 0.61557 0.05757 0.0
C752 C 0.05374 0.51885 0.10175 0.0
C753 C 0.05777 0.5464 0.1102 0.0
C754 C 0.05654 0.51726 0.08358 0.0
C755 C 0.06343 0.54319 0.0735 0.0
C756 C 0.067 0.57055 0.08192 0.0
H757 H 1.0215 0.53298 0.96191 0.0
H758 H 1.01778 0.53222 0.99379 0.0
C759 C 0.06441 0.57224 0.10012 0.0
C760 C 0.06579 0.54108 0.05415 0.0
H761 H 0.12287 0.58315 0.01969 0.0
C762 C 1.03475 0.513 0.04468 0.0
C763 C 0.09836 0.56626 0.04504 0.0
C764 C 0.13363 0.59595 0.05449 0.0
C765 C 1.03502 0.50979 0.02636 0.0
C766 C 0.06687 0.53574 0.01719 0.0
C767 C 0.09827 0.56343 0.02669 0.0
C768 C 0.06822 0.53482 0.99777 0.0
C769 C 1.00143 0.47839 0.01703 0.0
C770 C 0.09816 0.53712 0.98936 0.0
C771 C 0.10048 0.53775 0.97112 0.0
C772 C 0.07292 0.53618 0.96089 0.0
C773 C 1.04281 0.53363 0.96935 0.0
C774 C 1.04062 0.53315 0.9876 0.0
H775 H 0.9853 0.4572 0.02593 0.0
H776 H 0.98166 0.48338 0.01215 0.0
H777 H 1.01072 0.47056 0.00568 0.0
H778 H 0.11983 0.53849 0.99692 0.0
H779 H 0.12383 0.5394 0.96501 0.0
H780 H 0.51686 1.00429 0.4342 0.0
H781 H 0.51324 0.00532 0.4022 0.0
H782 H 0.63505 0.05885 0.39987 0.0
H783 H 0.63869 0.05732 0.4316 0.0
H784 H 0.54909 0.05826 0.3789 0.0
H785 H 0.59334 0.97609 0.36744 0.0
H786 H 0.57849 0.98134 0.38853 0.0
H787 H 0.62627 0.01241 0.3814 0.0
C788 C 0.5428 0.01636 0.42681 0.0
C789 C 0.57798 0.03028 0.43528 0.0
C790 C 0.54072 0.01697 0.40858 0.0
C791 C 0.57378 0.03149 0.39864 0.0
C792 C 0.60908 0.04676 0.40724 0.0
H793 H 0.64343 0.06724 0.29204 0.0
H794 H 0.63761 0.06765 0.32384 0.0
C795 C 0.61114 0.04599 0.42537 0.0
C796 C 0.57169 0.03019 0.37926 0.0
H797 H 0.59499 1.00475 0.34285 0.0
C798 C 0.55871 0.04627 0.37098 0.0
C799 C 0.58398 0.01427 0.36897 0.0
C800 C 0.59593 0.99476 0.37702 0.0
C801 C 0.55925 0.04803 0.35268 0.0
C802 C 0.57293 0.03321 0.3425 0.0
C803 C 0.58491 0.0164 0.35075 0.0
C804 C 0.57592 0.03533 0.32326 0.0
C805 C 0.54635 0.06655 0.34433 0.0
C806 C 0.5431 0.01717 0.31243 0.0
C807 C 0.54632 0.01685 0.29423 0.0
C808 C 0.58244 0.03476 0.28657 0.0
C809 C 0.61522 0.05358 0.2975 0.0
C810 C 0.61196 0.0537 0.31567 0.0
H811 H 0.54198 0.08089 0.35416 0.0
H812 H 0.56761 0.08419 0.33479 0.0
H813 H 0.51899 0.04821 0.33708 0.0
H814 H 0.51503 1.00252 0.31806 0.0
H815 H 0.52055 1.00228 0.28615 0.0
H816 H 0.62309 0.55196 0.8087 0.0
H817 H 0.63787 0.56709 0.77801 0.0
H818 H 0.51765 0.50327 0.76477 0.0
H819 H 0.50278 0.4881 0.79528 0.0
H820 H 0.61449 0.51911 0.74899 0.0
H821 H 0.55974 0.59337 0.74199 0.0
H822 H 0.57138 0.58603 0.76298 0.0
H823 H 0.52712 0.55377 0.75189 0.0
C824 C 0.59988 0.54157 0.79926 0.0
C825 C 0.56181 0.51886 0.8043 0.0
C826 C 0.60834 0.55016 0.78177 0.0
C827 C 0.57882 0.53655 0.76918 0.0
C828 C 0.54081 0.51445 0.77432 0.0
H829 H 0.56718 0.50043 0.65784 0.0
H830 H 0.56213 0.49761 0.68965 0.0
C831 C 0.53237 0.50567 0.79172 0.0
C832 C 0.58745 0.54346 0.75045 0.0
H833 H 0.57192 0.57451 0.71554 0.0
C834 C 0.60558 0.53155 0.7417 0.0
C835 C 0.57599 0.55987 0.74102 0.0
C836 C 0.55777 0.5743 0.74994 0.0
C837 C 0.61132 0.53454 0.7236 0.0
C838 C 0.5983 0.54958 0.71403 0.0
C839 C 0.58148 0.56265 0.72289 0.0
C840 C 0.60132 0.55143 0.69476 0.0
C841 C 0.6311 0.52144 0.71482 0.0
C842 C 0.62447 0.58266 0.6871 0.0
C843 C 0.62766 0.58438 0.66892 0.0
C844 C 0.60742 0.55486 0.65803 0.0
C845 C 0.58371 0.52363 0.6658 0.0
C846 C 0.58071 0.52195 0.68399 0.0
H847 H 0.64722 0.51801 0.7244 0.0
H848 H 0.60943 0.49669 0.70812 0.0
H849 H 0.65106 0.53878 0.70484 0.0
H850 H 0.64054 0.6057 0.69522 0.0
H851 H 0.64659 0.60885 0.66344 0.0
H852 H 0.48894 0.00685 0.53826 0.0
H853 H 0.4987 0.00722 0.56979 0.0
H854 H 0.61795 0.05405 0.5618 0.0
H855 H 0.60852 0.05442 0.53033 0.0
H856 H 0.52619 0.97842 0.5884 0.0
H857 H 0.62044 0.11742 0.59844 0.0
H858 H 0.59218 0.09622 0.57868 0.0
H859 H 0.63617 0.10181 0.582 0.0
C860 C 0.51722 0.01722 0.54326 0.0
C861 C 0.54801 0.03071 0.53191 0.0
C862 C 0.52273 0.01735 0.56124 0.0
C863 C 0.55915 0.03112 0.56815 0.0
C864 C 0.58977 0.04389 0.55677 0.0
H865 H 0.65233 0.0614 0.67263 0.0
H866 H 0.64124 0.05726 0.64106 0.0
C867 C 0.58429 0.04384 0.53879 0.0
C868 C 0.56509 0.0323 0.58729 0.0
H869 H 0.61369 0.08624 0.62261 0.0
C870 C 0.5452 1.00197 0.59591 0.0
C871 C 0.58987 0.06308 0.59704 0.0
C872 C 0.61065 0.09652 0.58863 0.0
C873 C 0.55 1.00158 0.614 0.0
C874 C 0.57488 0.03237 0.62373 0.0
C875 C 0.5947 0.06267 0.6151 0.0
C876 C 0.58096 0.03384 0.64287 0.0
C877 C 0.52904 0.96823 0.6225 0.0
C878 C 0.55076 0.02227 0.65436 0.0
C879 C 0.55704 0.02478 0.67245 0.0
C880 C 0.59372 0.03914 0.67937 0.0
C881 C 0.62385 0.05065 0.66777 0.0
C882 C 0.61754 0.04813 0.64971 0.0
H883 H 0.51873 0.94717 0.61273 0.0
H884 H 0.54761 0.96844 0.63235 0.0
H885 H 0.50388 0.96337 0.6293 0.0
H886 H 0.52247 0.01181 0.64936 0.0
H887 H 0.53335 0.01613 0.68102 0.0
H888 H 0.50854 0.47771 0.89451 0.0
H889 H 0.49248 0.45148 0.92272 0.0
H890 H 0.60927 0.52379 0.94066 0.0
H891 H 0.62566 0.5502 0.9123 0.0
H892 H 0.52624 0.42398 0.93985 0.0
H893 H 0.54331 0.52993 0.97796 0.0
H894 H 0.53805 0.52533 0.95442 0.0
H895 H 0.58263 0.54027 0.96463 0.0
C896 C 0.53085 0.48796 0.90443 0.0
C897 C 0.56834 0.51597 0.90127 0.0
C898 C 0.52163 0.47294 0.92051 0.0
C899 C 0.54963 0.48586 0.93376 0.0
C900 C 0.58721 0.51371 0.93062 0.0
H901 H 0.51959 0.38885 0.03173 0.0
H902 H 0.54285 0.41424 0.00337 0.0
C903 C 0.59652 0.52869 0.91446 0.0
C904 C 0.53903 0.47019 0.95089 0.0
H905 H 0.526 0.48307 0.99355 0.0
C906 C 0.52642 0.43691 0.95164 0.0
C907 C 0.539 0.48714 0.96614 0.0
C908 C 0.55119 0.52257 0.96585 0.0
C909 C 0.51345 0.41996 0.9673 0.0
C910 C 0.51337 0.43689 0.98254 0.0
C911 C 0.52628 0.47027 0.98181 0.0
C912 C 0.4985 0.42002 0.99925 0.0
C913 C 0.49889 0.3838 0.96732 0.0
C914 C 0.46591 0.4149 0.00627 0.0
C915 C 0.45244 0.40026 0.02238 0.0
C916 C 0.47152 0.39071 0.03186 0.0
C917 C 0.5039 0.39544 0.02464 0.0
C918 C 0.51731 0.41004 0.00848 0.0
H919 H 0.49412 0.37254 0.95386 0.0
H920 H 0.52011 0.38247 0.97413 0.0
H921 H 0.47173 0.36848 0.97447 0.0
H922 H 0.45097 0.42238 0.99929 0.0
H923 H 0.42716 0.39657 0.02745 0.0
H924 H 0.09781 0.57055 0.206 0.0
H925 H 0.09384 0.57012 0.23803 0.0
H926 H 0.05277 0.46678 0.23608 0.0
H927 H 0.05753 0.46737 0.20423 0.0
H928 H 1.03373 0.53134 0.25988 0.0
H929 H 0.14263 0.51053 0.26991 0.0
H930 H 0.13533 0.52204 0.2492 0.0
H931 H 0.10429 0.47908 0.25546 0.0
C932 C 0.08793 0.54779 0.21246 0.0
C933 C 0.07831 0.51908 0.20273 0.0
C934 C 0.08565 0.54755 0.23071 0.0
C935 C 0.07375 0.51863 0.23947 0.0
C936 C 0.06301 0.48965 0.22966 0.0
H937 H 1.03808 0.46032 0.34687 0.0
H938 H 1.03591 0.46187 0.31497 0.0
C939 C 0.06557 0.48996 0.21147 0.0
C940 C 0.07264 0.51864 0.25884 0.0
H941 H 0.10599 0.50422 0.29463 0.0
C942 C 0.04971 0.52564 0.2675 0.0
C943 C 0.09369 0.51135 0.26877 0.0
C944 C 0.12067 0.50566 0.26038 0.0
C945 C 0.04654 0.52471 0.28578 0.0
C946 C 0.06694 0.51671 0.2956 0.0
C947 C 0.0901 0.51002 0.28699 0.0
C948 C 0.06518 0.51553 0.31489 0.0
C949 C 1.02091 0.53164 0.29449 0.0
C950 C 0.08217 0.54518 0.32535 0.0
C951 C 0.08356 0.5444 0.34356 0.0
C952 C 0.06788 0.5139 0.3516 0.0
C953 C 0.04999 0.48411 0.34107 0.0
C954 C 0.04889 0.48497 0.32287 0.0
H955 H 1.00188 0.53139 0.2849 0.0
H956 H 1.00311 0.51275 0.30436 0.0
H957 H 1.0387 0.55676 0.3014 0.0
H958 H 0.09529 0.56906 0.31941 0.0
H959 H 0.09732 0.56771 0.35134 0.0
loop_
_geom_bond_atom_site_label_1
_geom_bond_atom_site_label_2
_geom_bond_distance
_geom_bond_site_symmetry_2
_ccdc_geom_bond_type
La0 C2 2.928 . S
La0 O20 2.521 . S
La0 O21 2.628 . S
La0 O22 2.554 . S
La0 O23 2.757 . S
La0 O24 2.470 . S
La0 O29 2.482 . S
La0 O31 2.503 1_455 S
La1 C11 2.928 . S
La1 O23 2.482 1_655 S
La1 O25 2.503 1_655 S
La1 O26 2.521 . S
La1 O27 2.628 . S
La1 O28 2.554 1_655 S
La1 O29 2.757 1_655 S
La1 O30 2.470 . S
C2 La0 2.928 . S
C2 C3 1.503 . S
C2 O20 1.261 . S
C2 O21 1.243 . S
C3 C2 1.503 . S
C3 C4 1.394 . S
C3 C8 1.373 . S
C4 C3 1.394 . S
C4 C5 1.380 . S
C4 H32 0.930 . S
C5 C4 1.380 . S
C5 C6 1.376 . S
C5 H33 0.930 . S
C6 C5 1.376 . S
C6 C7 1.370 . S
C7 C6 1.370 . S
C7 C8 1.396 . S
C7 H34 0.929 . S
C8 C3 1.373 . S
C8 C7 1.396 . S
C8 H35 0.929 . S
C9 O22 1.240 . S
C9 O23 1.289 . S
C10 O24 1.258 . S
C10 O25 1.256 . S
C11 La1 2.928 . S
C11 C12 1.503 . S
C11 O26 1.261 . S
C11 O27 1.243 . S
C12 C11 1.503 . S
C12 C13 1.394 . S
C12 C17 1.373 . S
C13 C12 1.394 . S
C13 C14 1.380 . S
C13 H36 0.930 . S
C14 C13 1.380 . S
C14 C15 1.376 . S
C14 H37 0.930 . S
C15 C14 1.376 . S
C15 C16 1.370 . S
C16 C15 1.370 . S
C16 C17 1.396 . S
C16 H38 0.929 . S
C17 C12 1.373 . S
C17 C16 1.396 . S
C17 H39 0.929 . S
C18 O28 1.240 . S
C18 O29 1.289 . S
C19 O30 1.258 . S
C19 O31 1.256 . S
O20 La0 2.521 . S
O20 C2 1.261 . S
O21 La0 2.628 . S
O21 C2 1.243 . S
O22 La0 2.554 . S
O22 C9 1.240 . S
O23 La0 2.757 . S
O23 La1 2.482 1_455 S
O23 C9 1.289 . S
O24 La0 2.470 . S
O24 C10 1.258 . S
O25 La1 2.503 1_455 S
O25 C10 1.256 . S
O26 La1 2.521 . S
O26 C11 1.261 . S
O27 La1 2.628 . S
O27 C11 1.243 . S
O28 La1 2.554 1_455 S
O28 C18 1.240 . S
O29 La0 2.482 . S
O29 La1 2.757 1_455 S
O29 C18 1.289 . S
O30 La1 2.470 . S
O30 C19 1.258 . S
O31 La0 2.503 1_655 S
O31 C19 1.256 . S
H32 C4 0.930 . S
H33 C5 0.930 . S
H34 C7 0.929 . S
H35 C8 0.929 . S
H36 C13 0.930 . S
H37 C14 0.930 . S
H38 C16 0.929 . S
H39 C17 0.929 . S
La40 C42 2.928 . S
La40 O60 2.521 . S
La40 O61 2.628 . S
La40 O62 2.554 . S
La40 O63 2.757 1_565 S
La40 O64 2.470 . S
La40 O69 2.466 1_565 S
La40 O71 2.503 1_565 S
La41 C51 2.928 . S
La41 O63 2.482 . S
La41 O65 2.503 1_545 S
La41 O66 2.521 . S
La41 O67 2.628 . S
La41 O68 2.554 . S
La41 O69 2.783 . S
La41 O70 2.470 . S
C42 La40 2.928 . S
C42 C43 1.503 . S
C42 O60 1.261 . S
C42 O61 1.243 . S
C43 C42 1.503 . S
C43 C44 1.394 . S
C43 C48 1.373 . S
C44 C43 1.394 . S
C44 C45 1.380 . S
C44 H72 0.930 . S
C45 C44 1.380 . S
C45 C46 1.376 . S
C45 H73 0.930 . S
C46 C45 1.376 . S
C46 C47 1.370 . S
C47 C46 1.370 . S
C47 C48 1.396 . S
C47 H74 0.929 . S
C48 C43 1.373 . S
C48 C47 1.396 . S
C48 H75 0.929 . S
C49 O62 1.240 1_545 S
C49 O63 1.289 . S
C50 O64 1.258 . S
C50 O65 1.256 . S
C51 La41 2.928 . S
C51 C52 1.503 . S
C51 O66 1.261 . S
C51 O67 1.243 . S
C52 C51 1.503 . S
C52 C53 1.394 . S
C52 C57 1.373 . S
C53 C52 1.394 . S
C53 C54 1.380 . S
C53 H76 0.930 . S
C54 C53 1.380 . S
C54 C55 1.376 . S
C54 H77 0.930 . S
C55 C54 1.376 . S
C55 C56 1.370 . S
C56 C55 1.370 . S
C56 C57 1.396 . S
C56 H78 0.929 . S
C57 C52 1.373 . S
C57 C56 1.396 . S
C57 H79 0.929 . S
C58 O68 1.240 . S
C58 O69 1.305 . S
C59 O70 1.258 . S
C59 O71 1.256 . S
O60 La40 2.521 . S
O60 C42 1.261 . S
O61 La40 2.628 . S
O61 C42 1.243 . S
O62 La40 2.554 . S
O62 C49 1.240 1_565 S
O63 La40 2.757 1_545 S
O63 La41 2.482 . S
O63 C49 1.289 . S
O64 La40 2.470 . S
O64 C50 1.258 . S
O65 La41 2.503 1_565 S
O65 C50 1.256 . S
O66 La41 2.521 . S
O66 C51 1.261 . S
O67 La41 2.628 . S
O67 C51 1.243 . S
O68 La41 2.554 . S
O68 C58 1.240 . S
O69 La40 2.466 1_545 S
O69 La41 2.783 . S
O69 C58 1.305 . S
O70 La41 2.470 . S
O70 C59 1.258 . S
O71 La40 2.503 1_545 S
O71 C59 1.256 . S
H72 C44 0.930 . S
H73 C45 0.930 . S
H74 C47 0.929 . S
H75 C48 0.929 . S
H76 C53 0.930 . S
H77 C54 0.930 . S
H78 C56 0.929 . S
H79 C57 0.929 . S
La80 C82 2.928 . S
La80 O100 2.521 . S
La80 O101 2.628 . S
La80 O102 2.554 . S
La80 O103 2.757 . S
La80 O104 2.470 . S
La80 O109 2.482 . S
La80 O111 2.503 . S
La81 C91 2.928 . S
La81 O103 2.482 . S
La81 O105 2.503 . S
La81 O106 2.521 . S
La81 O107 2.628 . S
La81 O108 2.554 . S
La81 O109 2.757 . S
La81 O110 2.470 . S
C82 La80 2.928 . S
C82 C83 1.503 . S
C82 O100 1.261 . S
C82 O101 1.243 . S
C83 C82 1.503 . S
C83 C84 1.394 . S
C83 C88 1.373 . S
C84 C83 1.394 . S
C84 C85 1.380 . S
C84 H112 0.930 . S
C85 C84 1.380 . S
C85 C86 1.376 . S
C85 H113 0.930 . S
C86 C85 1.376 . S
C86 C87 1.370 . S
C87 C86 1.370 . S
C87 C88 1.396 . S
C87 H114 0.929 . S
C88 C83 1.373 . S
C88 C87 1.396 . S
C88 H115 0.929 . S
C89 O102 1.240 . S
C89 O103 1.289 . S
C90 O104 1.258 . S
C90 O105 1.256 . S
C91 La81 2.928 . S
C91 C92 1.503 . S
C91 O106 1.261 . S
C91 O107 1.243 . S
C92 C91 1.503 . S
C92 C93 1.394 . S
C92 C97 1.373 . S
C93 C92 1.394 . S
C93 C94 1.380 . S
C93 H116 0.930 . S
C94 C93 1.380 . S
C94 C95 1.376 . S
C94 H117 0.930 . S
C95 C94 1.376 . S
C95 C96 1.370 . S
C96 C95 1.370 . S
C96 C97 1.396 . S
C96 H118 0.929 . S
C97 C92 1.373 . S
C97 C96 1.396 . S
C97 H119 0.929 . S
C98 O108 1.240 . S
C98 O109 1.289 . S
C99 O110 1.258 . S
C99 O111 1.256 . S
O100 La80 2.521 . S
O100 C82 1.261 . S
O101 La80 2.628 . S
O101 C82 1.243 . S
O102 La80 2.554 . S
O102 C89 1.240 . S
O103 La80 2.757 . S
O103 La81 2.482 . S
O103 C89 1.289 . S
O104 La80 2.470 . S
O104 C90 1.258 . S
O105 La81 2.503 . S
O105 C90 1.256 . S
O106 La81 2.521 . S
O106 C91 1.261 . S
O107 La81 2.628 . S
O107 C91 1.243 . S
O108 La81 2.554 . S
O108 C98 1.240 . S
O109 La80 2.482 . S
O109 La81 2.757 . S
O109 C98 1.289 . S
O110 La81 2.470 . S
O110 C99 1.258 . S
O111 La80 2.503 . S
O111 C99 1.256 . S
H112 C84 0.930 . S
H113 C85 0.930 . S
H114 C87 0.929 . S
H115 C88 0.929 . S
H116 C93 0.930 . S
H117 C94 0.930 . S
H118 C96 0.929 . S
H119 C97 0.929 . S
P120 O131 1.456 1_545 S
P120 C134 1.809 1_545 S
P120 C140 1.832 . S
P120 C146 1.832 . S
H121 C135 0.941 . S
H122 C136 0.939 . S
H123 C138 0.940 . S
H124 C139 0.940 . S
H125 C141 0.939 . S
H126 C142 0.942 . S
H127 C144 0.940 . S
H128 C145 0.939 . S
H129 C147 0.941 . S
H130 C151 0.939 . S
O131 P120 1.456 1_565 S
H132 C148 0.939 . S
H133 C150 0.940 . S
C134 P120 1.809 1_565 S
C134 C135 1.389 . S
C134 C139 1.391 . S
C135 H121 0.941 . S
C135 C134 1.389 . S
C135 C136 1.397 . S
C136 H122 0.939 . S
C136 C135 1.397 . S
C136 C137 1.378 . S
C137 C136 1.378 . S
C137 C138 1.378 . S
C138 H123 0.940 . S
C138 C137 1.378 . S
C138 C139 1.396 . S
C139 H124 0.940 . S
C139 C134 1.391 . S
C139 C138 1.396 . S
C140 P120 1.832 . S
C140 C141 1.378 . S
C140 C145 1.400 . S
C141 H125 0.939 . S
C141 C140 1.378 . S
C141 C142 1.361 . S
C142 H126 0.942 . S
C142 C141 1.361 . S
C142 C143 1.369 . S
C143 C142 1.369 . S
C143 C144 1.404 . S
C144 H127 0.940 . S
C144 C143 1.404 . S
C144 C145 1.389 . S
C145 H128 0.939 . S
C145 C140 1.400 . S
C145 C144 1.389 . S
C146 P120 1.832 . S
C146 C147 1.391 1_545 S
C146 C151 1.391 . S
C147 H129 0.941 . S
C147 C146 1.391 1_565 S
C147 C148 1.396 . S
C148 H132 0.939 . S
C148 C147 1.396 . S
C148 C149 1.397 1_565 S
C149 C148 1.397 1_545 S
C149 C150 1.385 . S
C150 H133 0.940 . S
C150 C149 1.385 . S
C150 C151 1.388 . S
C151 H130 0.939 . S
C151 C146 1.391 . S
C151 C150 1.388 . S
P152 O163 1.490 . S
P152 C166 1.812 . S
P152 C172 1.803 . S
P152 C178 1.819 . S
H153 C167 0.941 . S
H154 C168 0.939 . S
H155 C170 0.940 . S
H156 C171 0.940 . S
H157 C173 0.939 . S
H158 C174 0.942 . S
H159 C176 0.940 . S
H160 C177 0.939 . S
H161 C179 0.941 . S
H162 C183 0.939 . S
O163 P152 1.490 . S
H164 C180 0.939 . S
H165 C182 0.940 . S
C166 P152 1.812 . S
C166 C167 1.389 . S
C166 C171 1.391 . S
C167 H153 0.941 . S
C167 C166 1.389 . S
C167 C168 1.397 . S
C168 H154 0.939 . S
C168 C167 1.397 . S
C168 C169 1.378 . S
C169 C168 1.378 . S
C169 C170 1.378 . S
C170 H155 0.940 . S
C170 C169 1.378 . S
C170 C171 1.396 . S
C171 H156 0.940 . S
C171 C166 1.391 . S
C171 C170 1.396 . S
C172 P152 1.803 . S
C172 C173 1.378 . S
C172 C177 1.400 . S
C173 H157 0.939 . S
C173 C172 1.378 . S
C173 C174 1.361 . S
C174 H158 0.942 . S
C174 C173 1.361 . S
C174 C175 1.369 . S
C175 C174 1.369 . S
C175 C176 1.404 . S
C176 H159 0.940 . S
C176 C175 1.404 . S
C176 C177 1.389 . S
C177 H160 0.939 . S
C177 C172 1.400 . S
C177 C176 1.389 . S
C178 P152 1.819 . S
C178 C179 1.391 . S
C178 C183 1.391 . S
C179 H161 0.941 . S
C179 C178 1.391 . S
C179 C180 1.396 . S
C180 H164 0.939 . S
C180 C179 1.396 . S
C180 C181 1.397 . S
C181 C180 1.397 . S
C181 C182 1.385 . S
C182 H165 0.940 . S
C182 C181 1.385 . S
C182 C183 1.388 . S
C183 H162 0.939 . S
C183 C178 1.391 . S
C183 C182 1.388 . S
P184 O195 1.490 . S
P184 C198 1.812 . S
P184 C204 1.803 . S
P184 C210 1.819 . S
H185 C199 0.941 . S
H186 C200 0.939 . S
H187 C202 0.940 . S
H188 C203 0.940 . S
H189 C205 0.939 . S
H190 C206 0.942 . S
H191 C208 0.940 . S
H192 C209 0.939 . S
H193 C211 0.941 . S
H194 C215 0.939 . S
O195 P184 1.490 . S
H196 C212 0.939 . S
H197 C214 0.940 1_655 S
C198 P184 1.812 . S
C198 C199 1.389 . S
C198 C203 1.391 . S
C199 H185 0.941 . S
C199 C198 1.389 . S
C199 C200 1.397 . S
C200 H186 0.939 . S
C200 C199 1.397 . S
C200 C201 1.378 . S
C201 C200 1.378 . S
C201 C202 1.378 . S
C202 H187 0.940 . S
C202 C201 1.378 . S
C202 C203 1.396 . S
C203 H188 0.940 . S
C203 C198 1.391 . S
C203 C202 1.396 . S
C204 P184 1.803 . S
C204 C205 1.378 . S
C204 C209 1.400 . S
C205 H189 0.939 . S
C205 C204 1.378 . S
C205 C206 1.361 1_455 S
C206 H190 0.942 . S
C206 C205 1.361 1_655 S
C206 C207 1.369 . S
C207 C206 1.369 . S
C207 C208 1.404 . S
C208 H191 0.940 . S
C208 C207 1.404 . S
C208 C209 1.389 1_655 S
C209 H192 0.939 . S
C209 C204 1.400 . S
C209 C208 1.389 1_455 S
C210 P184 1.819 . S
C210 C211 1.391 . S
C210 C215 1.391 . S
C211 H193 0.941 . S
C211 C210 1.391 . S
C211 C212 1.396 . S
C212 H196 0.939 . S
C212 C211 1.396 . S
C212 C213 1.397 . S
C213 C212 1.397 . S
C213 C214 1.385 . S
C214 H197 0.940 1_455 S
C214 C213 1.385 . S
C214 C215 1.388 . S
C215 H194 0.939 . S
C215 C210 1.391 . S
C215 C214 1.388 . S
P216 O227 1.490 . S
P216 C230 1.812 . S
P216 C236 1.803 1_455 S
P216 C242 1.819 . S
H217 C231 0.941 . S
H218 C232 0.939 . S
H219 C234 0.940 . S
H220 C235 0.940 . S
H221 C237 0.939 . S
H222 C238 0.942 . S
H223 C240 0.940 . S
H224 C241 0.939 . S
H225 C243 0.941 . S
H226 C247 0.939 . S
O227 P216 1.490 . S
H228 C244 0.939 . S
H229 C246 0.940 . S
C230 P216 1.812 . S
C230 C231 1.389 . S
C230 C235 1.391 . S
C231 H217 0.941 . S
C231 C230 1.389 . S
C231 C232 1.397 . S
C232 H218 0.939 . S
C232 C231 1.397 . S
C232 C233 1.378 . S
C233 C232 1.378 . S
C233 C234 1.378 . S
C234 H219 0.940 . S
C234 C233 1.378 . S
C234 C235 1.396 . S
C235 H220 0.940 . S
C235 C230 1.391 . S
C235 C234 1.396 . S
C236 P216 1.803 1_655 S
C236 C237 1.378 . S
C236 C241 1.400 . S
C237 H221 0.939 . S
C237 C236 1.378 . S
C237 C238 1.361 . S
C238 H222 0.942 . S
C238 C237 1.361 . S
C238 C239 1.369 . S
C239 C238 1.369 . S
C239 C240 1.404 . S
C240 H223 0.940 . S
C240 C239 1.404 . S
C240 C241 1.389 . S
C241 H224 0.939 . S
C241 C236 1.400 . S
C241 C240 1.389 . S
C242 P216 1.819 . S
C242 C243 1.391 . S
C242 C247 1.391 1_455 S
C243 H225 0.941 . S
C243 C242 1.391 . S
C243 C244 1.396 . S
C244 H228 0.939 . S
C244 C243 1.396 . S
C244 C245 1.397 . S
C245 C244 1.397 . S
C245 C246 1.385 1_455 S
C246 H229 0.940 . S
C246 C245 1.385 1_655 S
C246 C247 1.388 . S
C247 H226 0.939 . S
C247 C242 1.391 1_655 S
C247 C246 1.388 . S
P248 O259 1.490 . S
P248 C262 1.812 . S
P248 C268 1.803 1_545 S
P248 C274 1.819 . S
H249 C263 0.941 . S
H250 C264 0.939 . S
H251 C266 0.940 . S
H252 C267 0.940 . S
H253 C269 0.939 . S
H254 C270 0.942 . S
H255 C272 0.940 . S
H256 C273 0.939 . S
H257 C275 0.941 . S
H258 C279 0.939 . S
O259 P248 1.490 . S
H260 C276 0.939 . S
H261 C278 0.940 . S
C262 P248 1.812 . S
C262 C263 1.389 . S
C262 C267 1.391 . S
C263 H249 0.941 . S
C263 C262 1.389 . S
C263 C264 1.397 . S
C264 H250 0.939 . S
C264 C263 1.397 . S
C264 C265 1.378 . S
C265 C264 1.378 . S
C265 C266 1.378 . S
C266 H251 0.940 . S
C266 C265 1.378 . S
C266 C267 1.396 . S
C267 H252 0.940 . S
C267 C262 1.391 . S
C267 C266 1.396 . S
C268 P248 1.803 1_565 S
C268 C269 1.378 . S
C268 C273 1.400 . S
C269 H253 0.939 . S
C269 C268 1.378 . S
C269 C270 1.361 . S
C270 H254 0.942 . S
C270 C269 1.361 . S
C270 C271 1.369 . S
C271 C270 1.369 . S
C271 C272 1.404 . S
C272 H255 0.940 . S
C272 C271 1.404 . S
C272 C273 1.389 . S
C273 H256 0.939 . S
C273 C268 1.400 . S
C273 C272 1.389 . S
C274 P248 1.819 . S
C274 C275 1.391 . S
C274 C279 1.391 1_545 S
C275 H257 0.941 . S
C275 C274 1.391 . S
C275 C276 1.396 . S
C276 H260 0.939 . S
C276 C275 1.396 . S
C276 C277 1.397 . S
C277 C276 1.397 . S
C277 C278 1.385 1_545 S
C278 H261 0.940 . S
C278 C277 1.385 1_565 S
C278 C279 1.388 . S
C279 H258 0.939 . S
C279 C274 1.391 1_565 S
C279 C278 1.388 . S
P280 O291 1.490 . S
P280 C294 1.812 . S
P280 C300 1.803 . S
P280 C306 1.819 . S
H281 C295 0.941 . S
H282 C296 0.939 . S
H283 C298 0.940 . S
H284 C299 0.940 . S
H285 C301 0.939 . S
H286 C302 0.942 . S
H287 C304 0.940 . S
H288 C305 0.939 . S
H289 C307 0.941 . S
H290 C311 0.939 . S
O291 P280 1.490 . S
H292 C308 0.939 . S
H293 C310 0.940 . S
C294 P280 1.812 . S
C294 C295 1.389 . S
C294 C299 1.391 . S
C295 H281 0.941 . S
C295 C294 1.389 . S
C295 C296 1.397 . S
C296 H282 0.939 . S
C296 C295 1.397 . S
C296 C297 1.378 . S
C297 C296 1.378 . S
C297 C298 1.378 . S
C298 H283 0.940 . S
C298 C297 1.378 . S
C298 C299 1.396 . S
C299 H284 0.940 . S
C299 C294 1.391 . S
C299 C298 1.396 . S
C300 P280 1.803 . S
C300 C301 1.378 . S
C300 C305 1.400 . S
C301 H285 0.939 . S
C301 C300 1.378 . S
C301 C302 1.361 . S
C302 H286 0.942 . S
C302 C301 1.361 . S
C302 C303 1.369 . S
C303 C302 1.369 . S
C303 C304 1.404 . S
C304 H287 0.940 . S
C304 C303 1.404 . S
C304 C305 1.389 . S
C305 H288 0.939 . S
C305 C300 1.400 . S
C305 C304 1.389 . S
C306 P280 1.819 . S
C306 C307 1.391 . S
C306 C311 1.391 . S
C307 H289 0.941 . S
C307 C306 1.391 . S
C307 C308 1.396 . S
C308 H292 0.939 . S
C308 C307 1.396 . S
C308 C309 1.397 . S
C309 C308 1.397 . S
C309 C310 1.385 . S
C310 H293 0.940 . S
C310 C309 1.385 . S
C310 C311 1.388 . S
C311 H290 0.939 . S
C311 C306 1.391 . S
C311 C310 1.388 . S
H312 C320 0.929 . S
H313 C322 0.930 . S
H314 C324 0.930 . S
H315 C327 0.929 . S
H316 C330 0.930 . S
H317 C332 0.960 . S
H318 C332 0.960 . S
H319 C332 0.960 . S
C320 H312 0.929 . S
C320 C321 1.377 . S
C320 C322 1.384 . S
C321 C320 1.377 . S
C321 C327 1.390 . S
C322 H313 0.930 . S
C322 C320 1.384 . S
C322 C323 1.372 . S
C323 C322 1.372 . S
C323 C324 1.400 . S
C323 C328 1.490 . S
C324 H314 0.930 . S
C324 C323 1.400 . S
C324 C327 1.386 . S
H325 C341 0.930 . S
H326 C342 0.931 . S
C327 H315 0.929 . S
C327 C321 1.390 . S
C327 C324 1.386 . S
C328 C323 1.490 . S
C328 C330 1.395 . S
C328 C331 1.403 . S
H329 C335 0.930 . S
C330 H316 0.930 . S
C330 C328 1.395 . S
C330 C333 1.403 . S
C331 C328 1.403 . S
C331 C332 1.524 . S
C331 C335 1.400 . S
C332 H317 0.960 . S
C332 H318 0.960 . S
C332 H319 0.960 . S
C332 C331 1.524 . S
C333 C330 1.403 . S
C333 C334 1.392 . S
C333 C337 1.495 . S
C334 C333 1.392 . S
C334 C335 1.385 . S
C334 C336 1.478 . S
C335 H329 0.930 . S
C335 C331 1.400 . S
C335 C334 1.385 . S
C336 C334 1.478 . S
C336 C338 1.381 . S
C336 C342 1.383 . S
C337 C333 1.495 . S
C337 H343 0.959 . S
C337 H344 0.961 . S
C337 H345 0.960 . S
C338 C336 1.381 . S
C338 C339 1.394 . S
C338 H346 0.930 . S
C339 C338 1.394 . S
C339 C340 1.383 . S
C339 H347 0.929 . S
C340 C339 1.383 . S
C340 C341 1.377 . S
C341 H325 0.930 . S
C341 C340 1.377 . S
C341 C342 1.379 . S
C342 H326 0.931 . S
C342 C336 1.383 . S
C342 C341 1.379 . S
H343 C337 0.959 . S
H344 C337 0.961 . S
H345 C337 0.960 . S
H346 C338 0.930 . S
H347 C339 0.929 . S
H348 C356 0.929 . S
H349 C358 0.930 . S
H350 C360 0.930 . S
H351 C363 0.929 . S
H352 C366 0.930 . S
H353 C368 0.960 . S
H354 C368 0.960 . S
H355 C368 0.960 . S
C356 H348 0.929 . S
C356 C357 1.377 . S
C356 C358 1.384 . S
C357 C356 1.377 . S
C357 C363 1.390 . S
C358 H349 0.930 . S
C358 C356 1.384 . S
C358 C359 1.372 . S
C359 C358 1.372 . S
C359 C360 1.400 . S
C359 C364 1.490 . S
C360 H350 0.930 . S
C360 C359 1.400 . S
C360 C363 1.386 . S
H361 C377 0.930 . S
H362 C378 0.931 . S
C363 H351 0.929 . S
C363 C357 1.390 . S
C363 C360 1.386 . S
C364 C359 1.490 . S
C364 C366 1.395 . S
C364 C367 1.403 . S
H365 C371 0.930 . S
C366 H352 0.930 . S
C366 C364 1.395 . S
C366 C369 1.403 . S
C367 C364 1.403 . S
C367 C368 1.524 . S
C367 C371 1.400 . S
C368 H353 0.960 . S
C368 H354 0.960 . S
C368 H355 0.960 . S
C368 C367 1.524 . S
C369 C366 1.403 . S
C369 C370 1.392 . S
C369 C373 1.495 . S
C370 C369 1.392 . S
C370 C371 1.385 . S
C370 C372 1.478 . S
C371 H365 0.930 . S
C371 C367 1.400 . S
C371 C370 1.385 . S
C372 C370 1.478 . S
C372 C374 1.381 . S
C372 C378 1.383 . S
C373 C369 1.495 . S
C373 H379 0.959 . S
C373 H380 0.961 . S
C373 H381 0.960 . S
C374 C372 1.381 . S
C374 C375 1.394 . S
C374 H382 0.930 . S
C375 C374 1.394 . S
C375 C376 1.383 . S
C375 H383 0.929 . S
C376 C375 1.383 . S
C376 C377 1.377 . S
C377 H361 0.930 . S
C377 C376 1.377 . S
C377 C378 1.379 . S
C378 H362 0.931 . S
C378 C372 1.383 . S
C378 C377 1.379 . S
H379 C373 0.959 . S
H380 C373 0.961 . S
H381 C373 0.960 . S
H382 C374 0.930 . S
H383 C375 0.929 . S
H384 C392 0.929 . S
H385 C394 0.930 . S
H386 C396 0.930 . S
H387 C399 0.929 . S
H388 C402 0.930 . S
H389 C404 0.960 . S
H390 C404 0.960 . S
H391 C404 0.960 . S
C392 H384 0.929 . S
C392 C393 1.377 . S
C392 C394 1.384 . S
C393 C392 1.377 . S
C393 C399 1.390 . S
C394 H385 0.930 . S
C394 C392 1.384 . S
C394 C395 1.372 . S
C395 C394 1.372 . S
C395 C396 1.400 . S
C395 C400 1.490 . S
C396 H386 0.930 . S
C396 C395 1.400 . S
C396 C399 1.386 . S
H397 C413 0.930 . S
H398 C414 0.931 . S
C399 H387 0.929 . S
C399 C393 1.390 . S
C399 C396 1.386 . S
C400 C395 1.490 . S
C400 C402 1.395 . S
C400 C403 1.403 . S
H401 C407 0.930 . S
C402 H388 0.930 . S
C402 C400 1.395 . S
C402 C405 1.403 . S
C403 C400 1.403 . S
C403 C404 1.524 . S
C403 C407 1.400 . S
C404 H389 0.960 . S
C404 H390 0.960 . S
C404 H391 0.960 . S
C404 C403 1.524 . S
C405 C402 1.403 . S
C405 C406 1.392 . S
C405 C409 1.495 . S
C406 C405 1.392 . S
C406 C407 1.385 . S
C406 C408 1.478 . S
C407 H401 0.930 . S
C407 C403 1.400 . S
C407 C406 1.385 . S
C408 C406 1.478 . S
C408 C410 1.381 . S
C408 C414 1.383 . S
C409 C405 1.495 . S
C409 H415 0.959 . S
C409 H416 0.961 . S
C409 H417 0.960 . S
C410 C408 1.381 . S
C410 C411 1.394 . S
C410 H418 0.930 . S
C411 C410 1.394 . S
C411 C412 1.383 . S
C411 H419 0.929 . S
C412 C411 1.383 . S
C412 C413 1.377 . S
C413 H397 0.930 . S
C413 C412 1.377 . S
C413 C414 1.379 . S
C414 H398 0.931 . S
C414 C408 1.383 . S
C414 C413 1.379 . S
H415 C409 0.959 . S
H416 C409 0.961 . S
H417 C409 0.960 . S
H418 C410 0.930 . S
H419 C411 0.929 . S
H420 C428 0.929 . S
H421 C430 0.930 . S
H422 C432 0.930 . S
H423 C435 0.929 . S
H424 C438 0.930 . S
H425 C440 0.960 . S
H426 C440 0.960 . S
H427 C440 0.960 . S
C428 H420 0.929 . S
C428 C429 1.377 . S
C428 C430 1.384 . S
C429 C428 1.377 . S
C429 C435 1.390 . S
C430 H421 0.930 . S
C430 C428 1.384 . S
C430 C431 1.372 . S
C431 C430 1.372 . S
C431 C432 1.400 . S
C431 C436 1.490 . S
C432 H422 0.930 . S
C432 C431 1.400 . S
C432 C435 1.386 . S
H433 C449 0.930 . S
H434 C450 0.931 . S
C435 H423 0.929 . S
C435 C429 1.390 . S
C435 C432 1.386 . S
C436 C431 1.490 . S
C436 C438 1.395 . S
C436 C439 1.403 . S
H437 C443 0.930 . S
C438 H424 0.930 . S
C438 C436 1.395 . S
C438 C441 1.403 . S
C439 C436 1.403 . S
C439 C440 1.524 . S
C439 C443 1.400 . S
C440 H425 0.960 . S
C440 H426 0.960 . S
C440 H427 0.960 . S
C440 C439 1.524 . S
C441 C438 1.403 . S
C441 C442 1.392 . S
C441 C445 1.495 . S
C442 C441 1.392 . S
C442 C443 1.385 . S
C442 C444 1.478 . S
C443 H437 0.930 . S
C443 C439 1.400 . S
C443 C442 1.385 . S
C444 C442 1.478 . S
C444 C446 1.381 . S
C444 C450 1.383 . S
C445 C441 1.495 . S
C445 H451 0.959 . S
C445 H452 0.961 . S
C445 H453 0.960 . S
C446 C444 1.381 . S
C446 C447 1.394 . S
C446 H454 0.930 . S
C447 C446 1.394 . S
C447 C448 1.383 . S
C447 H455 0.929 . S
C448 C447 1.383 . S
C448 C449 1.377 . S
C449 H433 0.930 . S
C449 C448 1.377 . S
C449 C450 1.379 . S
C450 H434 0.931 . S
C450 C444 1.383 . S
C450 C449 1.379 . S
H451 C445 0.959 . S
H452 C445 0.961 . S
H453 C445 0.960 . S
H454 C446 0.930 . S
H455 C447 0.929 . S
H456 C464 0.929 . S
H457 C466 0.930 . S
H458 C468 0.930 . S
H459 C471 0.929 . S
H460 C474 0.930 . S
H461 C476 0.960 . S
H462 C476 0.960 . S
H463 C476 0.960 . S
C464 H456 0.929 . S
C464 C465 1.377 . S
C464 C466 1.384 . S
C465 C464 1.377 . S
C465 C471 1.390 . S
C466 H457 0.930 . S
C466 C464 1.384 . S
C466 C467 1.372 . S
C467 C466 1.372 . S
C467 C468 1.400 . S
C467 C472 1.490 . S
C468 H458 0.930 . S
C468 C467 1.400 . S
C468 C471 1.386 . S
H469 C485 0.930 . S
H470 C486 0.931 . S
C471 H459 0.929 . S
C471 C465 1.390 . S
C471 C468 1.386 . S
C472 C467 1.490 . S
C472 C474 1.395 . S
C472 C475 1.403 . S
H473 C479 0.930 . S
C474 H460 0.930 . S
C474 C472 1.395 . S
C474 C477 1.403 . S
C475 C472 1.403 . S
C475 C476 1.524 . S
C475 C479 1.400 . S
C476 H461 0.960 . S
C476 H462 0.960 . S
C476 H463 0.960 . S
C476 C475 1.524 . S
C477 C474 1.403 . S
C477 C478 1.392 . S
C477 C481 1.495 . S
C478 C477 1.392 . S
C478 C479 1.385 . S
C478 C480 1.478 . S
C479 H473 0.930 . S
C479 C475 1.400 . S
C479 C478 1.385 . S
C480 C478 1.478 . S
C480 C482 1.381 . S
C480 C486 1.383 . S
C481 C477 1.495 . S
C481 H487 0.959 . S
C481 H488 0.961 . S
C481 H489 0.960 . S
C482 C480 1.381 . S
C482 C483 1.394 . S
C482 H490 0.930 . S
C483 C482 1.394 . S
C483 C484 1.383 . S
C483 H491 0.929 . S
C484 C483 1.383 . S
C484 C485 1.377 . S
C485 H469 0.930 . S
C485 C484 1.377 . S
C485 C486 1.379 . S
C486 H470 0.931 . S
C486 C480 1.383 . S
C486 C485 1.379 . S
H487 C481 0.959 . S
H488 C481 0.961 . S
H489 C481 0.960 . S
H490 C482 0.930 . S
H491 C483 0.929 . S
H492 C500 0.929 . S
H493 C502 0.930 . S
H494 C504 0.930 . S
H495 C507 0.929 . S
H496 C510 0.930 . S
H497 C512 0.960 . S
H498 C512 0.960 . S
H499 C512 0.960 . S
C500 H492 0.929 . S
C500 C501 1.377 . S
C500 C502 1.384 . S
C501 C500 1.377 . S
C501 C507 1.390 . S
C502 H493 0.930 . S
C502 C500 1.384 . S
C502 C503 1.372 . S
C503 C502 1.372 . S
C503 C504 1.400 . S
C503 C508 1.490 . S
C504 H494 0.930 . S
C504 C503 1.400 . S
C504 C507 1.386 . S
H505 C521 0.930 . S
H506 C522 0.931 . S
C507 H495 0.929 . S
C507 C501 1.390 . S
C507 C504 1.386 . S
C508 C503 1.490 . S
C508 C510 1.395 . S
C508 C511 1.403 . S
H509 C515 0.930 . S
C510 H496 0.930 . S
C510 C508 1.395 . S
C510 C513 1.403 . S
C511 C508 1.403 . S
C511 C512 1.524 . S
C511 C515 1.400 . S
C512 H497 0.960 . S
C512 H498 0.960 . S
C512 H499 0.960 . S
C512 C511 1.524 . S
C513 C510 1.403 . S
C513 C514 1.392 . S
C513 C517 1.495 . S
C514 C513 1.392 . S
C514 C515 1.385 . S
C514 C516 1.478 . S
C515 H509 0.930 . S
C515 C511 1.400 . S
C515 C514 1.385 . S
C516 C514 1.478 . S
C516 C518 1.381 . S
C516 C522 1.383 . S
C517 C513 1.495 . S
C517 H523 0.959 . S
C517 H524 0.961 . S
C517 H525 0.960 . S
C518 C516 1.381 . S
C518 C519 1.394 . S
C518 H526 0.930 . S
C519 C518 1.394 . S
C519 C520 1.383 . S
C519 H527 0.929 . S
C520 C519 1.383 . S
C520 C521 1.377 . S
C521 H505 0.930 . S
C521 C520 1.377 . S
C521 C522 1.379 . S
C522 H506 0.931 . S
C522 C516 1.383 . S
C522 C521 1.379 . S
H523 C517 0.959 . S
H524 C517 0.961 . S
H525 C517 0.960 . S
H526 C518 0.930 . S
H527 C519 0.929 . S
H528 C536 0.929 . S
H529 C538 0.930 . S
H530 C540 0.930 . S
H531 C543 0.929 . S
H532 C546 0.930 . S
H533 C548 0.960 . S
H534 C548 0.960 . S
H535 C548 0.960 . S
C536 H528 0.929 . S
C536 C537 1.377 . S
C536 C538 1.384 . S
C537 C536 1.377 . S
C537 C543 1.390 . S
C538 H529 0.930 . S
C538 C536 1.384 . S
C538 C539 1.372 . S
C539 C538 1.372 . S
C539 C540 1.400 . S
C539 C544 1.490 . S
C540 H530 0.930 . S
C540 C539 1.400 . S
C540 C543 1.386 . S
H541 C557 0.930 . S
H542 C558 0.931 . S
C543 H531 0.929 . S
C543 C537 1.390 . S
C543 C540 1.386 . S
C544 C539 1.490 . S
C544 C546 1.395 . S
C544 C547 1.403 . S
H545 C551 0.930 . S
C546 H532 0.930 . S
C546 C544 1.395 . S
C546 C549 1.403 . S
C547 C544 1.403 . S
C547 C548 1.524 . S
C547 C551 1.400 . S
C548 H533 0.960 . S
C548 H534 0.960 . S
C548 H535 0.960 . S
C548 C547 1.524 . S
C549 C546 1.403 . S
C549 C550 1.392 . S
C549 C553 1.495 . S
C550 C549 1.392 . S
C550 C551 1.385 . S
C550 C552 1.478 . S
C551 H545 0.930 . S
C551 C547 1.400 . S
C551 C550 1.385 . S
C552 C550 1.478 . S
C552 C554 1.381 . S
C552 C558 1.383 . S
C553 C549 1.495 . S
C553 H559 0.959 . S
C553 H560 0.961 . S
C553 H561 0.960 . S
C554 C552 1.381 . S
C554 C555 1.394 . S
C554 H562 0.930 . S
C555 C554 1.394 . S
C555 C556 1.383 . S
C555 H563 0.929 . S
C556 C555 1.383 . S
C556 C557 1.377 . S
C557 H541 0.930 . S
C557 C556 1.377 . S
C557 C558 1.379 . S
C558 H542 0.931 . S
C558 C552 1.383 . S
C558 C557 1.379 . S
H559 C553 0.959 . S
H560 C553 0.961 . S
H561 C553 0.960 . S
H562 C554 0.930 . S
H563 C555 0.929 . S
H564 C572 0.929 . S
H565 C574 0.930 . S
H566 C576 0.930 . S
H567 C579 0.929 . S
H568 C582 0.930 . S
H569 C584 0.960 . S
H570 C584 0.960 . S
H571 C584 0.960 . S
C572 H564 0.929 . S
C572 C573 1.377 . S
C572 C574 1.384 . S
C573 C572 1.377 . S
C573 C579 1.390 . S
C574 H565 0.930 . S
C574 C572 1.384 . S
C574 C575 1.372 . S
C575 C574 1.372 . S
C575 C576 1.400 . S
C575 C580 1.490 . S
C576 H566 0.930 . S
C576 C575 1.400 . S
C576 C579 1.386 . S
H577 C593 0.930 . S
H578 C594 0.931 . S
C579 H567 0.929 . S
C579 C573 1.390 . S
C579 C576 1.386 . S
C580 C575 1.490 . S
C580 C582 1.395 . S
C580 C583 1.403 . S
H581 C587 0.930 . S
C582 H568 0.930 . S
C582 C580 1.395 . S
C582 C585 1.403 . S
C583 C580 1.403 . S
C583 C584 1.524 . S
C583 C587 1.400 . S
C584 H569 0.960 . S
C584 H570 0.960 . S
C584 H571 0.960 . S
C584 C583 1.524 . S
C585 C582 1.403 . S
C585 C586 1.392 . S
C585 C589 1.495 . S
C586 C585 1.392 . S
C586 C587 1.385 . S
C586 C588 1.478 . S
C587 H581 0.930 . S
C587 C583 1.400 . S
C587 C586 1.385 . S
C588 C586 1.478 . S
C588 C590 1.381 . S
C588 C594 1.383 . S
C589 C585 1.495 . S
C589 H595 0.959 . S
C589 H596 0.961 . S
C589 H597 0.960 . S
C590 C588 1.381 . S
C590 C591 1.394 . S
C590 H598 0.930 . S
C591 C590 1.394 . S
C591 C592 1.383 . S
C591 H599 0.929 . S
C592 C591 1.383 . S
C592 C593 1.377 . S
C593 H577 0.930 . S
C593 C592 1.377 . S
C593 C594 1.379 . S
C594 H578 0.931 . S
C594 C588 1.383 . S
C594 C593 1.379 . S
H595 C589 0.959 . S
H596 C589 0.961 . S
H597 C589 0.960 . S
H598 C590 0.930 . S
H599 C591 0.929 . S
H600 C608 0.929 . S
H601 C610 0.930 . S
H602 C612 0.930 . S
H603 C615 0.929 . S
H604 C618 0.930 . S
H605 C620 0.960 . S
H606 C620 0.960 . S
H607 C620 0.960 . S
C608 H600 0.929 . S
C608 C609 1.377 . S
C608 C610 1.384 . S
C609 C608 1.377 . S
C609 C615 1.390 . S
C610 H601 0.930 . S
C610 C608 1.384 . S
C610 C611 1.372 . S
C611 C610 1.372 . S
C611 C612 1.400 . S
C611 C616 1.490 . S
C612 H602 0.930 . S
C612 C611 1.400 . S
C612 C615 1.386 . S
H613 C629 0.930 . S
H614 C630 0.931 . S
C615 H603 0.929 . S
C615 C609 1.390 . S
C615 C612 1.386 . S
C616 C611 1.490 . S
C616 C618 1.395 . S
C616 C619 1.403 . S
H617 C623 0.930 . S
C618 H604 0.930 . S
C618 C616 1.395 . S
C618 C621 1.403 . S
C619 C616 1.403 . S
C619 C620 1.524 . S
C619 C623 1.400 . S
C620 H605 0.960 . S
C620 H606 0.960 . S
C620 H607 0.960 . S
C620 C619 1.524 . S
C621 C618 1.403 . S
C621 C622 1.392 . S
C621 C625 1.495 . S
C622 C621 1.392 . S
C622 C623 1.385 . S
C622 C624 1.478 . S
C623 H617 0.930 . S
C623 C619 1.400 . S
C623 C622 1.385 . S
C624 C622 1.478 . S
C624 C626 1.381 . S
C624 C630 1.383 . S
C625 C621 1.495 . S
C625 H631 0.959 . S
C625 H632 0.961 . S
C625 H633 0.960 . S
C626 C624 1.381 . S
C626 C627 1.394 . S
C626 H634 0.930 . S
C627 C626 1.394 . S
C627 C628 1.383 . S
C627 H635 0.929 . S
C628 C627 1.383 . S
C628 C629 1.377 . S
C629 H613 0.930 . S
C629 C628 1.377 . S
C629 C630 1.379 . S
C630 H614 0.931 . S
C630 C624 1.383 . S
C630 C629 1.379 . S
H631 C625 0.959 . S
H632 C625 0.961 . S
H633 C625 0.960 . S
H634 C626 0.930 . S
H635 C627 0.929 . S
H636 C644 0.929 . S
H637 C646 0.930 . S
H638 C648 0.930 . S
H639 C651 0.929 . S
H640 C654 0.930 . S
H641 C656 0.960 . S
H642 C656 0.960 . S
H643 C656 0.960 . S
C644 H636 0.929 . S
C644 C645 1.377 . S
C644 C646 1.384 . S
C645 C644 1.377 . S
C645 C651 1.390 . S
C646 H637 0.930 . S
C646 C644 1.384 . S
C646 C647 1.372 . S
C647 C646 1.372 . S
C647 C648 1.400 . S
C647 C652 1.490 . S
C648 H638 0.930 . S
C648 C647 1.400 . S
C648 C651 1.386 . S
H649 C665 0.930 . S
H650 C666 0.931 . S
C651 H639 0.929 . S
C651 C645 1.390 . S
C651 C648 1.386 . S
C652 C647 1.490 . S
C652 C654 1.395 . S
C652 C655 1.403 . S
H653 C659 0.930 . S
C654 H640 0.930 . S
C654 C652 1.395 . S
C654 C657 1.403 . S
C655 C652 1.403 . S
C655 C656 1.524 . S
C655 C659 1.400 . S
C656 H641 0.960 . S
C656 H642 0.960 . S
C656 H643 0.960 . S
C656 C655 1.524 . S
C657 C654 1.403 . S
C657 C658 1.392 . S
C657 C661 1.495 . S
C658 C657 1.392 . S
C658 C659 1.385 . S
C658 C660 1.478 . S
C659 H653 0.930 . S
C659 C655 1.400 . S
C659 C658 1.385 . S
C660 C658 1.478 . S
C660 C662 1.381 . S
C660 C666 1.383 . S
C661 C657 1.495 . S
C661 H667 0.959 . S
C661 H668 0.961 . S
C661 H669 0.960 . S
C662 C660 1.381 . S
C662 C663 1.394 . S
C662 H670 0.930 . S
C663 C662 1.394 . S
C663 C664 1.383 . S
C663 H671 0.929 . S
C664 C663 1.383 . S
C664 C665 1.377 . S
C665 H649 0.930 . S
C665 C664 1.377 . S
C665 C666 1.379 . S
C666 H650 0.931 . S
C666 C660 1.383 . S
C666 C665 1.379 . S
H667 C661 0.959 . S
H668 C661 0.961 . S
H669 C661 0.960 . S
H670 C662 0.930 . S
H671 C663 0.929 . S
H672 C680 0.929 . S
H673 C682 0.930 . S
H674 C684 0.930 . S
H675 C687 0.929 . S
H676 C690 0.930 . S
H677 C692 0.960 . S
H678 C692 0.960 . S
H679 C692 0.960 . S
C680 H672 0.929 . S
C680 C681 1.377 . S
C680 C682 1.384 . S
C681 C680 1.377 . S
C681 C687 1.390 . S
C682 H673 0.930 . S
C682 C680 1.384 . S
C682 C683 1.372 . S
C683 C682 1.372 . S
C683 C684 1.400 . S
C683 C688 1.490 . S
C684 H674 0.930 . S
C684 C683 1.400 . S
C684 C687 1.386 . S
H685 C701 0.930 . S
H686 C702 0.931 . S
C687 H675 0.929 . S
C687 C681 1.390 . S
C687 C684 1.386 . S
C688 C683 1.490 . S
C688 C690 1.395 . S
C688 C691 1.403 . S
H689 C695 0.930 . S
C690 H676 0.930 . S
C690 C688 1.395 . S
C690 C693 1.403 . S
C691 C688 1.403 . S
C691 C692 1.524 . S
C691 C695 1.400 . S
C692 H677 0.960 . S
C692 H678 0.960 . S
C692 H679 0.960 . S
C692 C691 1.524 . S
C693 C690 1.403 . S
C693 C694 1.392 . S
C693 C697 1.495 . S
C694 C693 1.392 . S
C694 C695 1.385 . S
C694 C696 1.478 . S
C695 H689 0.930 . S
C695 C691 1.400 . S
C695 C694 1.385 . S
C696 C694 1.478 . S
C696 C698 1.381 . S
C696 C702 1.383 . S
C697 C693 1.495 . S
C697 H703 0.959 . S
C697 H704 0.961 . S
C697 H705 0.960 . S
C698 C696 1.381 . S
C698 C699 1.394 . S
C698 H706 0.930 . S
C699 C698 1.394 . S
C699 C700 1.383 . S
C699 H707 0.929 . S
C700 C699 1.383 . S
C700 C701 1.377 . S
C701 H685 0.930 . S
C701 C700 1.377 . S
C701 C702 1.379 . S
C702 H686 0.931 . S
C702 C696 1.383 . S
C702 C701 1.379 . S
H703 C697 0.959 . S
H704 C697 0.961 . S
H705 C697 0.960 . S
H706 C698 0.930 . S
H707 C699 0.929 . S
H708 C716 0.929 . S
H709 C718 0.930 . S
H710 C720 0.930 . S
H711 C723 0.929 . S
H712 C726 0.930 . S
H713 C728 0.960 . S
H714 C728 0.960 . S
H715 C728 0.960 . S
C716 H708 0.929 . S
C716 C717 1.377 . S
C716 C718 1.384 . S
C717 C716 1.377 . S
C717 C723 1.390 . S
C718 H709 0.930 . S
C718 C716 1.384 . S
C718 C719 1.372 . S
C719 C718 1.372 . S
C719 C720 1.400 . S
C719 C724 1.490 . S
C720 H710 0.930 . S
C720 C719 1.400 . S
C720 C723 1.386 . S
H721 C737 0.930 . S
H722 C738 0.931 . S
C723 H711 0.929 . S
C723 C717 1.390 . S
C723 C720 1.386 . S
C724 C719 1.490 . S
C724 C726 1.395 . S
C724 C727 1.403 . S
H725 C731 0.930 . S
C726 H712 0.930 . S
C726 C724 1.395 . S
C726 C729 1.403 . S
C727 C724 1.403 . S
C727 C728 1.524 . S
C727 C731 1.400 . S
C728 H713 0.960 . S
C728 H714 0.960 . S
C728 H715 0.960 . S
C728 C727 1.524 . S
C729 C726 1.403 . S
C729 C730 1.392 . S
C729 C733 1.495 . S
C730 C729 1.392 . S
C730 C731 1.385 . S
C730 C732 1.478 . S
C731 H725 0.930 . S
C731 C727 1.400 . S
C731 C730 1.385 . S
C732 C730 1.478 . S
C732 C734 1.381 . S
C732 C738 1.383 . S
C733 C729 1.495 . S
C733 H739 0.959 . S
C733 H740 0.961 . S
C733 H741 0.960 . S
C734 C732 1.381 . S
C734 C735 1.394 . S
C734 H742 0.930 . S
C735 C734 1.394 . S
C735 C736 1.383 . S
C735 H743 0.929 . S
C736 C735 1.383 . S
C736 C737 1.377 . S
C737 H721 0.930 . S
C737 C736 1.377 . S
C737 C738 1.379 . S
C738 H722 0.931 . S
C738 C732 1.383 . S
C738 C737 1.379 . S
H739 C733 0.959 . S
H740 C733 0.961 . S
H741 C733 0.960 . S
H742 C734 0.930 . S
H743 C735 0.929 . S
H744 C752 0.929 . S
H745 C754 0.930 . S
H746 C756 0.930 . S
H747 C759 0.929 . S
H748 C762 0.930 1_655 S
H749 C764 0.960 . S
H750 C764 0.960 . S
H751 C764 0.960 . S
C752 H744 0.929 . S
C752 C753 1.377 . S
C752 C754 1.384 . S
C753 C752 1.377 . S
C753 C759 1.390 . S
C754 H745 0.930 . S
C754 C752 1.384 . S
C754 C755 1.372 . S
C755 C754 1.372 . S
C755 C756 1.400 . S
C755 C760 1.490 . S
C756 H746 0.930 . S
C756 C755 1.400 . S
C756 C759 1.386 . S
H757 C773 0.930 . S
H758 C774 0.931 1_554 S
C759 H747 0.929 . S
C759 C753 1.390 . S
C759 C756 1.386 . S
C760 C755 1.490 . S
C760 C762 1.395 . S
C760 C763 1.403 . S
H761 C767 0.930 . S
C762 H748 0.930 1_455 S
C762 C760 1.395 . S
C762 C765 1.405 . S
C763 C760 1.403 . S
C763 C764 1.524 . S
C763 C767 1.400 . S
C764 H749 0.960 . S
C764 H750 0.960 . S
C764 H751 0.960 . S
C764 C763 1.524 . S
C765 C762 1.405 . S
C765 C766 1.404 . S
C765 C769 1.483 1_455 S
C766 C765 1.404 . S
C766 C767 1.385 . S
C766 C768 1.478 . S
C767 H761 0.930 . S
C767 C763 1.400 . S
C767 C766 1.385 . S
C768 C766 1.478 . S
C768 C770 1.381 1_554 S
C768 C774 1.383 1_554 S
C769 C765 1.483 1_655 S
C769 H775 0.959 . S
C769 H776 0.961 . S
C769 H777 0.960 . S
C770 C768 1.381 1_556 S
C770 C771 1.394 . S
C770 H778 0.930 . S
C771 C770 1.394 . S
C771 C772 1.383 . S
C771 H779 0.929 . S
C772 C771 1.383 . S
C772 C773 1.377 . S
C773 H757 0.930 . S
C773 C772 1.377 . S
C773 C774 1.379 . S
C774 H758 0.931 1_556 S
C774 C768 1.383 1_556 S
C774 C773 1.379 . S
H775 C769 0.959 . S
H776 C769 0.961 . S
H777 C769 0.960 . S
H778 C770 0.930 . S
H779 C771 0.929 . S
H780 C788 0.929 . S
H781 C790 0.930 . S
H782 C792 0.930 . S
H783 C795 0.929 . S
H784 C798 0.930 1_565 S
H785 C800 0.960 . S
H786 C800 0.960 . S
H787 C800 0.960 . S
C788 H780 0.929 . S
C788 C789 1.377 1_565 S
C788 C790 1.384 . S
C789 C788 1.377 1_545 S
C789 C795 1.390 . S
C790 H781 0.930 . S
C790 C788 1.384 . S
C790 C791 1.372 1_565 S
C791 C790 1.372 1_545 S
C791 C792 1.400 . S
C791 C796 1.490 . S
C792 H782 0.930 . S
C792 C791 1.400 . S
C792 C795 1.386 . S
H793 C809 0.930 . S
H794 C810 0.931 . S
C795 H783 0.929 . S
C795 C789 1.390 . S
C795 C792 1.386 . S
C796 C791 1.490 . S
C796 C798 1.395 . S
C796 C799 1.403 . S
H797 C803 0.930 . S
C798 H784 0.930 1_545 S
C798 C796 1.395 . S
C798 C801 1.403 . S
C799 C796 1.403 . S
C799 C800 1.524 . S
C799 C803 1.400 . S
C800 H785 0.960 . S
C800 H786 0.960 . S
C800 H787 0.960 . S
C800 C799 1.524 . S
C801 C798 1.403 . S
C801 C802 1.392 . S
C801 C805 1.495 1_545 S
C802 C801 1.392 . S
C802 C803 1.385 . S
C802 C804 1.478 . S
C803 H797 0.930 . S
C803 C799 1.400 . S
C803 C802 1.385 . S
C804 C802 1.478 . S
C804 C806 1.381 1_545 S
C804 C810 1.383 . S
C805 C801 1.495 1_565 S
C805 H811 0.959 . S
C805 H812 0.961 1_565 S
C805 H813 0.960 . S
C806 C804 1.381 1_565 S
C806 C807 1.394 . S
C806 H814 0.930 . S
C807 C806 1.394 . S
C807 C808 1.383 1_565 S
C807 H815 0.929 . S
C808 C807 1.383 1_545 S
C808 C809 1.377 . S
C809 H793 0.930 . S
C809 C808 1.377 . S
C809 C810 1.379 . S
C810 H794 0.931 . S
C810 C804 1.383 . S
C810 C809 1.379 . S
H811 C805 0.959 . S
H812 C805 0.961 1_545 S
H813 C805 0.960 . S
H814 C806 0.930 . S
H815 C807 0.929 . S
H816 C824 0.929 . S
H817 C826 0.930 . S
H818 C828 0.930 . S
H819 C831 0.929 . S
H820 C834 0.930 . S
H821 C836 0.960 . S
H822 C836 0.960 . S
H823 C836 0.960 . S
C824 H816 0.929 . S
C824 C825 1.377 . S
C824 C826 1.384 . S
C825 C824 1.377 . S
C825 C831 1.390 . S
C826 H817 0.930 . S
C826 C824 1.384 . S
C826 C827 1.372 . S
C827 C826 1.372 . S
C827 C828 1.400 . S
C827 C832 1.490 . S
C828 H818 0.930 . S
C828 C827 1.400 . S
C828 C831 1.386 . S
H829 C845 0.930 . S
H830 C846 0.931 . S
C831 H819 0.929 . S
C831 C825 1.390 . S
C831 C828 1.386 . S
C832 C827 1.490 . S
C832 C834 1.395 . S
C832 C835 1.403 . S
H833 C839 0.930 . S
C834 H820 0.930 . S
C834 C832 1.395 . S
C834 C837 1.403 . S
C835 C832 1.403 . S
C835 C836 1.524 . S
C835 C839 1.400 . S
C836 H821 0.960 . S
C836 H822 0.960 . S
C836 H823 0.960 . S
C836 C835 1.524 . S
C837 C834 1.403 . S
C837 C838 1.392 . S
C837 C841 1.495 . S
C838 C837 1.392 . S
C838 C839 1.385 . S
C838 C840 1.478 . S
C839 H833 0.930 . S
C839 C835 1.400 . S
C839 C838 1.385 . S
C840 C838 1.478 . S
C840 C842 1.381 . S
C840 C846 1.383 . S
C841 C837 1.495 . S
C841 H847 0.959 . S
C841 H848 0.961 . S
C841 H849 0.960 . S
C842 C840 1.381 . S
C842 C843 1.394 . S
C842 H850 0.930 . S
C843 C842 1.394 . S
C843 C844 1.383 . S
C843 H851 0.929 . S
C844 C843 1.383 . S
C844 C845 1.377 . S
C845 H829 0.930 . S
C845 C844 1.377 . S
C845 C846 1.379 . S
C846 H830 0.931 . S
C846 C840 1.383 . S
C846 C845 1.379 . S
H847 C841 0.959 . S
H848 C841 0.961 . S
H849 C841 0.960 . S
H850 C842 0.930 . S
H851 C843 0.929 . S
H852 C860 0.932 . S
H853 C862 0.930 1_565 S
H854 C864 0.930 . S
H855 C867 0.929 . S
H856 C870 0.930 . S
H857 C872 0.960 . S
H858 C872 0.960 . S
H859 C872 0.960 . S
C860 H852 0.932 . S
C860 C861 1.377 . S
C860 C862 1.384 . S
C861 C860 1.377 . S
C861 C867 1.390 . S
C862 H853 0.930 1_545 S
C862 C860 1.384 . S
C862 C863 1.372 . S
C863 C862 1.372 . S
C863 C864 1.400 . S
C863 C868 1.490 . S
C864 H854 0.930 . S
C864 C863 1.400 . S
C864 C867 1.386 . S
H865 C881 0.925 . S
H866 C882 0.922 . S
C867 H855 0.929 . S
C867 C861 1.390 . S
C867 C864 1.386 . S
C868 C863 1.490 . S
C868 C870 1.395 1_545 S
C868 C871 1.403 . S
H869 C875 0.930 . S
C870 H856 0.930 . S
C870 C868 1.395 1_565 S
C870 C873 1.403 . S
C871 C868 1.403 . S
C871 C872 1.524 . S
C871 C875 1.400 . S
C872 H857 0.960 . S
C872 H858 0.960 . S
C872 H859 0.960 . S
C872 C871 1.524 . S
C873 C870 1.403 . S
C873 C874 1.392 . S
C873 C877 1.495 . S
C874 C873 1.392 . S
C874 C875 1.385 1_565 S
C874 C876 1.478 . S
C875 H869 0.930 . S
C875 C871 1.400 . S
C875 C874 1.385 1_545 S
C876 C874 1.478 . S
C876 C878 1.381 . S
C876 C882 1.383 . S
C877 C873 1.495 . S
C877 H883 0.959 . S
C877 H884 0.961 . S
C877 H885 0.960 . S
C878 C876 1.381 . S
C878 C879 1.394 . S
C878 H886 0.930 . S
C879 C878 1.394 . S
C879 C880 1.363 . S
C879 H887 0.929 . S
C880 C879 1.363 . S
C880 C881 1.400 1_565 S
C881 H865 0.925 . S
C881 C880 1.400 1_545 S
C881 C882 1.380 1_545 S
C882 H866 0.922 . S
C882 C876 1.383 . S
C882 C881 1.380 1_565 S
H883 C877 0.959 . S
H884 C877 0.961 . S
H885 C877 0.960 . S
H886 C878 0.930 . S
H887 C879 0.929 . S
H888 C896 0.929 . S
H889 C898 0.930 . S
H890 C900 0.930 . S
H891 C903 0.929 . S
H892 C906 0.930 . S
H893 C908 0.960 . S
H894 C908 0.960 . S
H895 C908 0.960 . S
C896 H888 0.929 . S
C896 C897 1.377 . S
C896 C898 1.384 . S
C897 C896 1.377 . S
C897 C903 1.390 . S
C898 H889 0.930 . S
C898 C896 1.384 . S
C898 C899 1.372 . S
C899 C898 1.372 . S
C899 C900 1.400 . S
C899 C904 1.490 . S
C900 H890 0.930 . S
C900 C899 1.400 . S
C900 C903 1.386 . S
H901 C917 0.930 . S
H902 C918 0.931 1_556 S
C903 H891 0.929 . S
C903 C897 1.390 . S
C903 C900 1.386 . S
C904 C899 1.490 . S
C904 C906 1.395 . S
C904 C907 1.403 . S
H905 C911 0.930 . S
C906 H892 0.930 . S
C906 C904 1.395 . S
C906 C909 1.403 . S
C907 C904 1.403 . S
C907 C908 1.524 . S
C907 C911 1.400 . S
C908 H893 0.960 . S
C908 H894 0.960 . S
C908 H895 0.960 . S
C908 C907 1.524 . S
C909 C906 1.403 . S
C909 C910 1.392 . S
C909 C913 1.495 . S
C910 C909 1.392 . S
C910 C911 1.385 . S
C910 C912 1.478 . S
C911 H905 0.930 . S
C911 C907 1.400 . S
C911 C910 1.385 . S
C912 C910 1.478 . S
C912 C914 1.381 1_556 S
C912 C918 1.383 1_556 S
C913 C909 1.495 . S
C913 H919 0.959 . S
C913 H920 0.961 . S
C913 H921 0.960 . S
C914 C912 1.381 1_554 S
C914 C915 1.394 . S
C914 H922 0.930 1_554 S
C915 C914 1.394 . S
C915 C916 1.383 . S
C915 H923 0.929 . S
C916 C915 1.383 . S
C916 C917 1.377 . S
C917 H901 0.930 . S
C917 C916 1.377 . S
C917 C918 1.379 . S
C918 H902 0.931 1_554 S
C918 C912 1.383 1_554 S
C918 C917 1.379 . S
H919 C913 0.959 . S
H920 C913 0.961 . S
H921 C913 0.960 . S
H922 C914 0.930 1_556 S
H923 C915 0.929 . S
H924 C932 0.929 . S
H925 C934 0.930 . S
H926 C936 0.930 . S
H927 C939 0.929 . S
H928 C942 0.930 . S
H929 C944 0.960 . S
H930 C944 0.960 . S
H931 C944 0.960 . S
C932 H924 0.929 . S
C932 C933 1.377 . S
C932 C934 1.384 . S
C933 C932 1.377 . S
C933 C939 1.390 . S
C934 H925 0.930 . S
C934 C932 1.384 . S
C934 C935 1.372 . S
C935 C934 1.372 . S
C935 C936 1.400 . S
C935 C940 1.490 . S
C936 H926 0.930 . S
C936 C935 1.400 . S
C936 C939 1.386 . S
H937 C953 0.930 . S
H938 C954 0.931 . S
C939 H927 0.929 . S
C939 C933 1.390 . S
C939 C936 1.386 . S
C940 C935 1.490 . S
C940 C942 1.395 1_455 S
C940 C943 1.403 . S
H941 C947 0.930 . S
C942 H928 0.930 . S
C942 C940 1.395 1_655 S
C942 C945 1.403 . S
C943 C940 1.403 . S
C943 C944 1.524 . S
C943 C947 1.400 . S
C944 H929 0.960 . S
C944 H930 0.960 . S
C944 H931 0.960 . S
C944 C943 1.524 . S
C945 C942 1.403 . S
C945 C946 1.392 1_655 S
C945 C949 1.495 . S
C946 C945 1.392 1_455 S
C946 C947 1.385 . S
C946 C948 1.476 1_455 S
C947 H941 0.930 . S
C947 C943 1.400 . S
C947 C946 1.385 . S
C948 C946 1.476 1_655 S
C948 C950 1.393 1_655 S
C948 C954 1.371 . S
C949 C945 1.495 . S
C949 H955 0.959 . S
C949 H956 0.961 . S
C949 H957 0.960 . S
C950 C948 1.393 1_455 S
C950 C951 1.394 . S
C950 H958 0.930 . S
C951 C950 1.394 . S
C951 C952 1.394 1_455 S
C951 H959 0.929 . S
C952 C951 1.394 1_655 S
C952 C953 1.367 . S
C953 H937 0.930 . S
C953 C952 1.367 . S
C953 C954 1.379 . S
C954 H938 0.931 . S
C954 C948 1.371 . S
C954 C953 1.379 . S
H955 C949 0.959 . S
H956 C949 0.961 . S
H957 C949 0.960 . S
H958 C950 0.930 . S
H959 C951 0.929 . S
C321 C6 0.414 . S
C340 C303 0.394 . S
C357 C59 1.834 . S
C376 C239 1.804 . S
C393 C86 1.152 . S
C412 C271 1.107 . S
C429 C15 0.364 . S
C448 C297 0.401 . S
C484 C233 1.848 . S
C465 C50 1.879 . S
C520 C265 1.232 . S
C501 C95 1.225 . S
C537 C46 1.150 . S
C556 C175 1.114 . S
C573 C99 3.008 . S
C592 C207 2.938 . S
C609 C10 1.904 . S
C628 C137 1.890 . S
C664 C169 1.220 . S
C645 C55 1.207 . S
C700 C201 2.915 . S
C681 C90 2.927 . S
C717 C19 1.822 . S
C736 C143 1.765 . S
C772 C213 1.738 . S
C753 C18 1.698 . S
C789 C49 1.332 . S
C808 C149 1.375 . S
C825 C98 1.455 . S
C844 C181 1.457 . S
C880 C277 1.471 1_565 S
C861 C58 1.437 . S
C916 C309 1.078 . S
C897 C89 1.087 . S
C933 C9 1.333 . S
C952 C245 1.356 1_655 S
