# Generated by pormake.
# Topology pts, (4,4)-cn, num edge types: 1
# Building blocks:
#     Node 0, Type 0, BuildingBlock: GIZVER_clean_linker_0, # of connection points: 4
#     Node 1, Type 0, BuildingBlock: GIZVER_clean_linker_0, # of connection points: 4
#     Node 2, Type 1, BuildingBlock: UXUYUI_clean_sbu_0, # of connection points: 4
#     Node 3, Type 1, BuildingBlock: UXUYUI_clean_sbu_0, # of connection points: 4
#     Edge 4, Type (0, 1), BuildingBlock: TEMPAE_clean_linker_10, # of connection points: 2
#     Edge 5, Type (0, 1), BuildingBlock: TEMPAE_clean_linker_10, # of connection points: 2
#     Edge 6, Type (0, 1), BuildingBlock: TEMPAE_clean_linker_10, # of connection points: 2
#     Edge 7, Type (0, 1), BuildingBlock: TEMPAE_clean_linker_10, # of connection points: 2
#     Edge 8, Type (0, 1), BuildingBlock: TEMPAE_clean_linker_10, # of connection points: 2
#     Edge 9, Type (0, 1), BuildingBlock: TEMPAE_clean_linker_10, # of connection points: 2
#     Edge 10, Type (0, 1), BuildingBlock: TEMPAE_clean_linker_10, # of connection points: 2
#     Edge 11, Type (0, 1), BuildingBlock: TEMPAE_clean_linker_10, # of connection points: 2
# Relax obj value: 0.010
# Max RMSD: 0.058
# Mean RMSD: 0.057
data_MOF--net-pts--node1-UXUYUI_clean_sbu_0--node2-GIZVER_clean_linker_0--edge1-TEMPAE_clean_linker_10
_symmetry_space_group_name_H-M    P1
_symmetry_Int_Tables_number       1
_symmetry_cell_setting            triclinic
loop_
_symmetry_equiv_pos_as_xyz
'x, y, z'
_cell_length_a     32.428585
_cell_length_b     32.556369
_cell_length_c     42.11207
_cell_angle_alpha  90.381563
_cell_angle_beta   89.730787
_cell_angle_gamma 90.076768
loop_
_atom_site_label
_atom_site_type_symbol
_atom_site_fract_x
_atom_site_fract_y
_atom_site_fract_z
_atom_type_partial_charge
H0 H 0.5708 0.06457 0.04776 0.0
H1 H 0.56885 0.05973 0.94548 0.0
H2 H 0.66988 1.00688 -0.00341 0.0
H3 H 0.52693 0.11111 0.01785 0.0
H4 H 0.52836 0.11139 0.97556 0.0
H5 H 0.48865 0.05325 0.04635 0.0
H6 H 0.37836 0.01672 -0.00243 0.0
H7 H 0.47454 0.07854 0.94652 0.0
C8 C 0.58407 0.05399 0.02549 0.0
C9 C 0.62179 0.03284 0.02556 0.0
C10 C 0.56447 0.0633 -0.00336 0.0
C11 C 0.58305 0.05128 0.96774 0.0
C12 C 0.62097 0.03037 0.96755 0.0
C13 C 0.6395 0.02078 -0.00342 0.0
C14 C 0.52698 0.09077 -0.00349 0.0
C15 C 0.48719 0.06657 -0.00391 0.0
C16 C 0.4713 0.05013 0.02454 0.0
C17 C 0.43213 0.03162 0.02513 0.0
C18 C 0.40927 0.0295 -0.00296 0.0
C19 C 0.42382 0.04691 0.96885 0.0
C20 C 0.46341 0.06436 0.96814 0.0
H21 H 0.07286 0.57835 0.44757 0.0
H22 H 0.06706 0.56177 0.54898 0.0
H23 H 0.01213 0.66788 0.50664 0.0
H24 H 0.11852 0.53009 0.47364 0.0
H25 H 0.11841 0.52519 0.51574 0.0
H26 H 0.0722 0.48849 0.4404 0.0
H27 H 0.02256 0.38013 0.48373 0.0
H28 H 0.07313 0.47593 0.54237 0.0
C29 C 0.06139 0.58791 0.47067 0.0
C30 C 0.04097 0.62571 0.47393 0.0
C31 C 0.07034 0.56422 0.49767 0.0
C32 C 0.0582 0.57854 0.52794 0.0
C33 C 0.03667 0.61571 0.53117 0.0
C34 C 0.02725 0.63832 0.50402 0.0
C35 C 0.09788 0.52708 0.49469 0.0
C36 C 0.07332 0.48785 0.49183 0.0
C37 C 0.06343 0.47188 0.46161 0.0
C38 C 0.04447 0.43329 0.45877 0.0
C39 C 0.03527 0.41087 0.48609 0.0
C40 C 0.04596 0.42572 0.51619 0.0
C41 C 0.06388 0.46479 0.51915 0.0
Li42 Li 0.02947 0.06117 0.26664 0.0
Li43 Li 0.02512 0.98494 0.26664 0.0
Li44 Li 0.06676 0.02266 0.22595 0.0
Li45 Li 0.99075 0.02268 0.22386 0.0
C46 C 0.098 0.03376 0.29763 0.0
N47 N 0.14534 0.06081 0.34802 0.0
C48 C 0.09647 0.01323 0.32666 0.0
C49 C 0.12376 0.06795 0.29419 0.0
C50 C 0.12061 0.02741 0.35186 0.0
C51 C 0.14741 0.08117 0.31996 0.0
C52 C 0.95261 0.0154 0.29387 0.0
C53 C 0.89309 0.97769 0.31217 0.0
N54 N 0.8977 0.99467 0.34153 0.0
C55 C 0.95652 0.03276 0.32415 0.0
C56 C 0.92042 0.98791 0.28772 0.0
C57 C 0.92853 0.02179 0.34796 0.0
C58 C 0.0126 0.14459 0.27451 0.0
N59 N 0.02812 0.11177 0.29024 0.0
C60 C 0.04179 0.15382 0.33576 0.0
C61 C 0.0417 0.11554 0.32061 0.0
C62 C 0.02632 0.18856 0.32003 0.0
C63 C 1.01109 0.18327 0.28904 0.0
H64 H 1.00126 0.14071 0.25057 0.0
H65 H 0.05267 0.08899 0.33318 0.0
C66 C 0.03896 0.90108 0.27553 0.0
N67 N 0.02345 0.93496 0.29039 0.0
C68 C 0.03852 0.86301 0.29057 0.0
C69 C 1.00717 0.89542 0.33643 0.0
C70 C 1.00809 0.93286 0.32043 0.0
C71 C 0.02241 0.85977 0.32145 0.0
H72 H 0.05177 0.90359 0.25189 0.0
H73 H 0.99722 0.96024 0.33228 0.0
C74 C 0.04916 0.09199 0.19706 0.0
N75 N 0.09138 0.1346 0.15066 0.0
C76 C 0.03768 0.088 0.16525 0.0
C77 C 0.08177 0.11794 0.20535 0.0
C78 C 0.05949 0.10975 0.14212 0.0
C79 C 0.10284 0.13913 0.18152 0.0
C80 C 1.0099 0.94546 0.2022 0.0
C81 C 0.02488 0.93518 0.17201 0.0
C82 C 0.97528 0.92517 0.21426 0.0
C83 C 1.00458 0.90504 0.15419 0.0
C84 C 0.95584 0.89522 0.19572 0.0
N85 N 0.97074 0.88588 0.16631 0.0
C86 C 0.15309 0.02103 0.2187 0.0
C87 C 0.11731 0.01745 0.16991 0.0
C88 C 0.19099 0.01986 0.20295 0.0
N89 N 0.11723 0.02041 0.20213 0.0
C90 C 0.15461 0.01564 0.15313 0.0
C91 C 0.19227 0.01708 0.16966 0.0
H92 H 0.15243 0.02224 0.24426 0.0
H93 H 0.08843 0.0163 0.15723 0.0
C94 C 0.90773 0.0401 0.21358 0.0
N95 N 0.94172 0.02428 0.19901 0.0
C96 C 0.86994 0.04096 0.19789 0.0
C97 C 0.90293 0.01015 0.15203 0.0
C98 C 0.94017 0.00996 0.16863 0.0
C99 C 0.86705 0.02558 0.16675 0.0
H100 H 0.90994 0.05202 0.23753 0.0
H101 H 0.96773 0.9982 0.15732 0.0
O102 O 0.07479 0.02009 0.27264 0.0
O103 O 0.97963 0.02595 0.27024 0.0
O104 O 0.02868 0.07041 0.21997 0.0
O105 O 0.02905 0.97528 0.21981 0.0
H106 H 0.07692 0.98663 0.3297 0.0
H107 H 0.12527 0.08426 0.27193 0.0
H108 H 0.11968 0.01186 0.37447 0.0
H109 H 0.16734 0.10766 0.31766 0.0
H110 H 0.86813 0.95635 0.30776 0.0
H111 H 0.98112 0.05414 0.32932 0.0
H112 H 0.91639 0.97479 0.26429 0.0
H113 H 0.93137 0.0348 0.37155 0.0
H114 H 0.05444 0.156 0.35944 0.0
H115 H 0.99782 0.20858 0.27608 0.0
H116 H 0.0505 0.83639 0.27807 0.0
H117 H 0.99545 0.8946 0.36054 0.0
H118 H 0.01246 0.06803 0.15849 0.0
H119 H 0.09078 0.12155 0.22991 0.0
H120 H 0.05114 0.10679 0.11737 0.0
H121 H 0.1283 0.15917 0.18755 0.0
H122 H 0.05177 0.95042 0.16238 0.0
H123 H 0.96364 0.93243 0.2377 0.0
H124 H 0.01571 0.8969 0.13073 0.0
H125 H 0.92893 0.87936 0.20473 0.0
H126 H 0.21897 0.02156 0.21682 0.0
H127 H 0.15384 0.01265 0.12753 0.0
H128 H 0.84336 0.05393 0.20994 0.0
H129 H 0.90215 0.99779 0.12811 0.0
Li130 Li 0.98533 0.02666 0.76138 0.0
Li131 Li 0.06124 0.02709 0.76293 0.0
Li132 Li 0.02105 0.06447 0.72095 0.0
Li133 Li 0.02552 0.98837 0.72047 0.0
C134 C 1.003 0.09317 0.79235 0.0
N135 N 0.96106 0.12874 0.84268 0.0
C136 C 0.01714 0.08799 0.82335 0.0
C137 C 0.96773 0.11667 0.78688 0.0
C138 C 0.99547 0.10621 0.84849 0.0
C139 C 0.94688 0.13431 0.81266 0.0
C140 C 0.04195 0.94687 0.78169 0.0
C141 C 0.0926 0.89266 0.78121 0.0
N142 N 0.08001 0.88122 0.81071 0.0
C143 C 0.02928 0.93434 0.81188 0.0
C144 C 0.07368 0.92569 0.76614 0.0
C145 C 0.049 0.90119 0.82621 0.0
C146 C 0.8994 0.03131 0.77056 0.0
N147 N 0.93555 0.02484 0.78591 0.0
C148 C 0.89967 0.01597 0.83511 0.0
C149 C 0.93636 0.01719 0.81758 0.0
C150 C 0.86174 0.02295 0.81992 0.0
C151 C 0.86207 0.0308 0.78716 0.0
H152 H 0.89946 0.03696 0.74536 0.0
H153 H 0.96551 0.0122 0.82926 0.0
C154 C 0.14287 0.0503 0.77368 0.0
N155 N 0.11072 0.02991 0.78718 0.0
C156 C 0.18097 0.05229 0.78887 0.0
C157 C 0.15169 0.01407 0.8325 0.0
C158 C 0.11426 0.01232 0.81621 0.0
C159 C 0.18593 0.03393 0.81872 0.0
H160 H 0.13905 0.06457 0.75077 0.0
H161 H 0.08801 0.99715 0.82683 0.0
C162 C 0.95674 0.03692 0.68808 0.0
N163 N 0.91857 0.06446 0.6337 0.0
C164 C 0.96196 0.01573 0.65937 0.0
C165 C 0.93195 0.07203 0.68916 0.0
C166 C 0.94242 0.03015 0.63214 0.0
C167 C 0.91298 0.08549 0.6614 0.0
C168 C 0.1026 0.01833 0.69648 0.0
C169 C 0.10404 0.03304 0.66539 0.0
C170 C 0.13418 0.99282 0.70729 0.0
C171 C 0.13669 0.02154 0.64549 0.0
C172 C 0.16629 0.98201 0.68667 0.0
N173 N 0.16686 0.99644 0.65644 0.0
C174 C 0.02425 0.14998 0.71373 0.0
C175 C 0.0179 0.11443 0.66474 0.0
C176 C 0.02418 0.18774 0.69822 0.0
N177 N 0.02091 0.11431 0.69694 0.0
C178 C 0.01758 0.15151 0.64825 0.0
C179 C 0.02074 0.18886 0.66502 0.0
H180 H 0.0271 0.14918 0.73926 0.0
H181 H 0.01563 0.0858 0.65178 0.0
C182 C 0.9989 0.90891 0.70769 0.0
N183 N 0.02577 0.93782 0.69698 0.0
C184 C 0.99765 0.86993 0.69367 0.0
C185 C 0.05161 0.8912 0.6576 0.0
C186 C 0.0516 0.92984 0.67219 0.0
C187 C 0.02445 0.8605 0.66834 0.0
H188 H 0.97862 0.91611 0.72742 0.0
H189 H 0.07247 0.95313 0.66376 0.0
O190 O 0.02323 0.0748 0.7675 0.0
O191 O 0.0231 0.9795 0.76747 0.0
O192 O 0.97558 0.02322 0.715 0.0
O193 O 0.07084 0.02944 0.71629 0.0
H194 H 0.04434 0.06982 0.82797 0.0
H195 H 0.95631 0.12079 0.763 0.0
H196 H 1.00593 0.10231 0.87264 0.0
H197 H 0.91937 0.15232 0.80882 0.0
H198 H 0.11723 0.87606 0.76943 0.0
H199 H 1.00461 0.95015 0.82422 0.0
H200 H 0.08342 0.93441 0.7426 0.0
H201 H 0.03964 0.89132 0.84964 0.0
H202 H 0.90105 1.0092 0.86022 0.0
H203 H 0.83385 0.03701 0.77443 0.0
H204 H 0.20636 0.06763 0.77709 0.0
H205 H 0.15356 1.00041 0.85582 0.0
H206 H 0.98098 0.98852 0.65807 0.0
H207 H 0.92792 0.08908 0.7111 0.0
H208 H 0.94627 0.01412 0.60974 0.0
H209 H 0.89396 0.11276 0.66185 0.0
H210 H 0.0801 0.0529 0.65661 0.0
H211 H 0.13417 0.98168 0.73139 0.0
H212 H 0.13802 0.03256 0.62133 0.0
H213 H 0.19084 0.96224 0.69474 0.0
H214 H 0.02648 0.21577 0.7121 0.0
H215 H 0.01557 0.1509 0.62258 0.0
H216 H 0.97571 0.84757 0.70244 0.0
H217 H 0.07319 0.88531 0.63841 0.0
C218 C 0.38635 0.98507 0.05627 0.0
C219 C 0.41091 0.02055 0.05521 0.0
C220 C 0.35486 0.98098 0.07895 0.0
C221 C 0.34848 0.01275 0.10153 0.0
C222 C 0.37659 0.04605 0.10308 0.0
C223 C 0.40743 0.04972 0.07971 0.0
C224 C 0.32571 0.94492 0.07637 0.0
C225 C 0.37162 0.07993 0.12741 0.0
C226 C 0.23706 0.03569 0.12308 0.0
C227 C 0.23257 0.01597 0.15241 0.0
C228 C 0.27463 0.03484 0.10646 0.0
C229 C 0.30901 0.01444 0.11971 0.0
C230 C 0.30507 0.99504 0.1495 0.0
C231 C 0.26681 0.99563 0.16533 0.0
C232 C 0.27742 0.05563 0.07453 0.0
C233 C 0.34115 0.97346 0.16455 0.0
H234 H 0.38938 0.9622 0.03757 0.0
H235 H 0.42628 0.07723 0.07904 0.0
H236 H 0.31859 0.93217 0.10011 0.0
H237 H 0.29622 0.95537 0.06588 0.0
H238 H 0.33847 0.92001 0.06109 0.0
H239 H 0.39999 0.09891 0.12949 0.0
H240 H 0.34585 0.10025 0.12033 0.0
H241 H 0.36391 0.06714 0.15107 0.0
H242 H 0.21125 0.05224 0.11313 0.0
H243 H 0.26369 0.97969 0.18771 0.0
H244 H 0.28692 0.03306 0.05604 0.0
H245 H 0.30123 0.0801 0.07521 0.0
H246 H 0.24767 0.06957 0.06732 0.0
H247 H 0.3506 0.94686 0.14964 0.0
H248 H 0.33379 0.96226 0.18879 0.0
H249 H 0.36801 0.99453 0.16599 0.0
C250 C 0.01879 0.40397 0.56944 0.0
C251 C 0.04446 0.39696 0.54316 0.0
C252 C 0.01378 0.37359 0.5928 0.0
C253 C 0.03521 0.3358 0.58965 0.0
C254 C 0.06265 0.32968 0.56383 0.0
C255 C 0.06683 0.36029 0.54091 0.0
C256 C 0.98433 0.38116 0.62004 0.0
C257 C 0.08639 0.29008 0.55966 0.0
C258 C 0.04986 0.25937 0.65624 0.0
C259 C 0.0215 0.2286 0.64785 0.0
C260 C 0.0531 0.29569 0.6386 0.0
C261 C 0.02741 0.30132 0.6119 0.0
C262 C 0.99742 0.27123 0.60422 0.0
C263 C 0.99486 0.23524 0.62226 0.0
C264 C 0.08551 0.32698 0.6475 0.0
C265 C 0.96933 0.27613 0.576 0.0
H266 H 1.00147 0.43237 0.571 0.0
H267 H 0.08692 0.35518 0.5206 0.0
H268 H 0.95727 0.36049 0.61768 0.0
H269 H 0.99932 0.37399 0.64297 0.0
H270 H 0.97322 0.41342 0.6208 0.0
H271 H 0.10833 0.29129 0.53934 0.0
H272 H 0.10391 0.28309 0.58152 0.0
H273 H 0.06459 0.26431 0.55555 0.0
H274 H 0.07074 0.25436 0.67586 0.0
H275 H 0.97233 0.21195 0.61604 0.0
H276 H 0.07217 0.35834 0.6479 0.0
H277 H 0.11049 0.32669 0.6294 0.0
H278 H 0.09931 0.32064 0.67106 0.0
H279 H 0.95418 0.30666 0.5767 0.0
H280 H 0.94511 0.25199 0.57505 0.0
H281 H 0.98776 0.27445 0.55376 0.0
C282 C 0.66747 0.99136 0.06051 0.0
C283 C 0.64668 0.02832 0.05482 0.0
C284 C 0.69972 0.98951 0.08253 0.0
C285 C 0.71132 0.02548 0.09932 0.0
C286 C 0.68795 0.06189 0.0958 0.0
C287 C 0.65584 0.0629 0.07353 0.0
C288 C 0.72356 0.94996 0.08573 0.0
C289 C 0.69901 0.10077 0.11355 0.0
C290 C 0.79011 0.01586 0.16558 0.0
C291 C 0.82693 0.02592 0.1497 0.0
C292 C 0.75209 0.01604 0.14969 0.0
C293 C 0.75088 0.02636 0.11713 0.0
C294 C 0.78788 0.03673 0.10103 0.0
C295 C 0.82538 0.03646 0.1175 0.0
C296 C 0.71332 1.0048 0.16763 0.0
C297 C 0.78793 0.04794 0.06627 0.0
H298 H 0.66019 0.9645 0.04623 0.0
H299 H 0.64008 0.09162 0.06905 0.0
H300 H 0.75418 0.95337 0.07414 0.0
H301 H 0.72897 0.94284 0.11108 0.0
H302 H 0.70734 0.92358 0.07448 0.0
H303 H 0.67431 0.12428 0.11198 0.0
H304 H 0.70493 0.09421 0.13894 0.0
H305 H 0.72775 0.11384 0.10336 0.0
H306 H 0.79107 1.00719 0.19037 0.0
H307 H 0.85352 0.04494 0.10519 0.0
H308 H 0.69944 0.97674 0.15707 0.0
H309 H 0.69022 0.02974 0.16561 0.0
H310 H 0.71926 0.99915 0.19319 0.0
H311 H 0.77557 0.02201 0.05195 0.0
H312 H 0.81928 0.05556 0.05732 0.0
H313 H 0.76752 0.07473 0.06235 0.0
C314 C 0.9925 0.65287 0.57038 0.0
C315 C 0.03099 0.63622 0.56231 0.0
C316 C 0.98918 0.68435 0.59316 0.0
C317 C 0.02535 0.69982 0.6077 0.0
C318 C 0.0636 0.68003 0.60208 0.0
C319 C 0.06591 0.64819 0.5795 0.0
C320 C 0.94764 0.7039 0.59901 0.0
C321 C 0.10292 0.69551 0.61703 0.0
C322 C 0.02907 0.81523 0.62008 0.0
C323 C 0.02399 0.8191 0.65305 0.0
C324 C 0.02966 0.77658 0.60523 0.0
C325 C 0.02446 0.74071 0.62371 0.0
C326 C 0.01868 0.74426 0.65693 0.0
C327 C 0.01876 0.78341 0.67124 0.0
C328 C 0.03596 0.7742 0.56967 0.0
C329 C 0.01264 0.70675 0.6773 0.0
H330 H 0.96552 0.64359 0.55699 0.0
H331 H 0.09577 0.63563 0.57301 0.0
H332 H 0.94326 0.71124 0.62456 0.0
H333 H 0.94582 0.73315 0.5857 0.0
H334 H 0.92202 0.68369 0.59104 0.0
H335 H 0.12831 0.67278 0.61479 0.0
H336 H 0.11269 0.7242 0.60503 0.0
H337 H 0.09812 0.70288 0.64252 0.0
H338 H 0.03226 0.84255 0.60571 0.0
H339 H 0.01531 0.78599 0.69678 0.0
H340 H 1.00895 0.75924 0.55837 0.0
H341 H 0.0634 0.75513 0.56403 0.0
H342 H 0.04032 0.80495 0.55887 0.0
H343 H 0.98619 0.68839 0.66844 0.0
H344 H 1.00696 0.71481 0.70262 0.0
H345 H 0.04033 0.68686 0.67581 0.0
C346 C 0.35508 0.06615 0.94796 0.0
C347 C 0.39475 0.05078 0.94195 0.0
C348 C 0.32442 0.06473 0.92475 0.0
C349 C 0.33376 0.04811 0.89445 0.0
C350 C 0.37453 0.03496 0.88748 0.0
C351 C 0.40469 0.03636 0.91145 0.0
C352 C 0.28146 0.07914 0.93328 0.0
C353 C 0.38578 0.01783 0.85523 0.0
C354 C 0.23971 1.00299 0.85406 0.0
C355 C 0.22624 0.03607 0.8356 0.0
C356 C 0.27593 1.00573 0.87205 0.0
C357 C 0.29976 0.04219 0.87123 0.0
C358 C 0.2877 0.07479 0.85128 0.0
C359 C 0.25092 0.07153 0.83397 0.0
C360 C 0.28753 0.97034 0.89322 0.0
C361 C 0.31255 0.11396 0.84942 0.0
H362 H 0.34761 0.07811 0.97138 0.0
H363 H 0.43541 0.02462 0.90677 0.0
H364 H 0.27081 0.10236 0.91603 0.0
H365 H 0.25969 0.05285 0.9321 0.0
H366 H 0.2798 0.09277 0.95751 0.0
H367 H 0.41963 0.01402 0.85231 0.0
H368 H 0.37087 0.98743 0.85191 0.0
H369 H 0.37427 0.03821 0.83621 0.0
H370 H 0.22158 0.97504 0.85487 0.0
H371 H 0.24082 0.09748 0.82005 0.0
H372 H 0.28464 0.97995 0.91847 0.0
H373 H 0.32013 0.96144 0.8891 0.0
H374 H 0.26766 0.94298 0.88929 0.0
H375 H 0.30866 0.13177 0.87177 0.0
H376 H 0.30279 0.13355 0.82931 0.0
H377 H 0.34588 0.10699 0.84674 0.0
C378 C 0.07662 0.39307 0.41544 0.0
C379 C 0.04124 0.41169 0.42802 0.0
C380 C 0.07349 0.36087 0.39329 0.0
C381 C 0.03399 0.34771 0.38314 0.0
C382 C 0.99845 0.36949 0.39332 0.0
C383 C 1.00245 0.40084 0.41617 0.0
C384 C 0.11212 0.33812 0.38356 0.0
C385 C 0.95592 0.35736 0.38227 0.0
C386 C 0.03171 0.26598 0.31812 0.0
C387 C 0.02625 0.22985 0.33583 0.0
C388 C 0.03268 0.30478 0.33296 0.0
C389 C 0.02957 0.30754 0.36641 0.0
C390 C 0.02377 0.27139 0.38442 0.0
C391 C 0.02141 0.23324 0.36891 0.0
C392 C 0.03765 0.34275 0.3129 0.0
C393 C 0.02085 0.27286 0.42025 0.0
H394 H 0.10651 0.40104 0.42519 0.0
H395 H 0.97511 0.41501 0.4263 0.0
H396 H 0.11278 0.3079 0.3956 0.0
H397 H 0.11253 0.33215 0.35762 0.0
H398 H 0.1405 0.35532 0.39005 0.0
H399 H 0.93299 0.38198 0.38706 0.0
H400 H 0.95607 0.35021 0.35647 0.0
H401 H 0.94584 0.3293 0.39495 0.0
H402 H 0.03604 0.26408 0.29264 0.0
H403 H 0.01587 0.20598 0.38291 0.0
H404 H 0.0682 0.35692 0.31737 0.0
H405 H 0.01391 0.36586 0.31945 0.0
H406 H 0.03511 0.33582 0.28712 0.0
H407 H 0.04887 0.28759 0.43023 0.0
H408 H 0.01754 0.24183 0.43079 0.0
H409 H 0.99401 0.29171 0.42772 0.0
C410 C 0.66846 0.9878 0.93392 0.0
C411 C 0.64516 0.02379 0.93786 0.0
C412 C 0.70021 0.98548 0.91127 0.0
C413 C 0.70833 0.01971 0.89166 0.0
C414 C 0.68215 0.05447 0.89328 0.0
C415 C 0.65096 0.05621 0.91652 0.0
C416 C 0.72733 0.94781 0.91037 0.0
C417 C 0.68918 0.09121 0.87227 0.0
C418 C 0.82028 0.03814 0.86913 0.0
C419 C 0.82215 0.02232 0.83809 0.0
C420 C 0.78341 0.03748 0.88667 0.0
C421 C 0.74717 0.02124 0.87271 0.0
C422 C 0.74854 1.00579 0.84126 0.0
C423 C 0.78606 1.00618 0.82442 0.0
C424 C 0.78334 0.054 0.92029 0.0
C425 C 0.71047 0.98863 0.82548 0.0
H426 H 0.66364 0.9624 0.95005 0.0
H427 H 0.63324 0.0842 0.91945 0.0
H428 H 0.73262 0.9374 0.88557 0.0
H429 H 0.75786 0.95551 0.92064 0.0
H430 H 0.71384 0.92201 0.92409 0.0
H431 H 0.66244 0.11251 0.87267 0.0
H432 H 0.71679 0.10828 0.88056 0.0
H433 H 0.69512 0.08138 0.84739 0.0
H434 H 0.84764 0.05144 0.87973 0.0
H435 H 0.78717 0.99331 0.80064 0.0
H436 H 0.77321 0.02967 0.93695 0.0
H437 H 0.76109 0.07972 0.92251 0.0
H438 H 0.81422 0.06516 0.92776 0.0
H439 H 0.69951 0.96116 0.83849 0.0
H440 H 0.71618 0.97981 0.80031 0.0
H441 H 0.68524 0.0116 0.82634 0.0
C442 C 0.02349 0.64465 0.41764 0.0
C443 C 0.03932 0.65546 0.44745 0.0
C444 C 0.01981 0.67425 0.39356 0.0
C445 C 0.03251 0.71526 0.39959 0.0
C446 C 0.04975 0.72578 0.42935 0.0
C447 C 0.05305 0.69578 0.45278 0.0
C448 C 1.0015 0.66196 0.36203 0.0
C449 C 0.06398 0.76901 0.43677 0.0
C450 C 0.05744 0.79406 0.33654 0.0
C451 C 0.02287 0.81987 0.33847 0.0
C452 C 0.05984 0.75817 0.35473 0.0
C453 C 0.02701 0.74799 0.37551 0.0
C454 C 0.99115 0.77275 0.37634 0.0
C455 C 0.9895 0.80836 0.35779 0.0
C456 C 0.09859 0.73257 0.35314 0.0
C457 C 0.95545 0.76294 0.39816 0.0
H458 H 0.01303 0.61344 0.41349 0.0
H459 H 0.0662 0.70398 0.47559 0.0
H460 H 0.972 0.67848 0.35847 0.0
H461 H 0.02249 0.67091 0.34237 0.0
H462 H 0.99554 0.62841 0.3604 0.0
H463 H 0.0775 0.77182 0.46088 0.0
H464 H 0.08743 0.7789 0.41913 0.0
H465 H 0.0376 0.79055 0.43514 0.0
H466 H 0.08351 0.8028 0.32186 0.0
H467 H 0.96233 0.82767 0.3589 0.0
H468 H 0.09086 0.69945 0.35121 0.0
H469 H 0.11645 0.73694 0.37532 0.0
H470 H 0.11857 0.74112 0.33271 0.0
H471 H 0.94641 0.73022 0.39562 0.0
H472 H 0.92811 0.78245 0.39341 0.0
H473 H 0.96493 0.76789 0.42318 0.0
loop_
_geom_bond_atom_site_label_1
_geom_bond_atom_site_label_2
_geom_bond_distance
_geom_bond_site_symmetry_2
_ccdc_geom_bond_type
H0 C8 0.930 . S
H1 C11 0.930 . S
H2 C13 0.930 1_565 S
H3 C14 0.970 . S
H4 C14 0.970 1_556 S
H5 C16 0.930 . S
H6 C18 0.930 1_565 S
H7 C20 0.930 . S
C8 H0 0.930 . S
C8 C9 1.382 . S
C8 C10 1.426 . S
C9 C8 1.382 . S
C9 C13 1.389 . S
C10 C8 1.426 . S
C10 C11 1.375 1_554 S
C10 C14 1.532 . S
C11 H1 0.930 . S
C11 C10 1.375 1_556 S
C11 C12 1.416 . S
C12 C11 1.416 . S
C12 C13 1.371 1_556 S
C13 H2 0.930 1_545 S
C13 C9 1.389 . S
C13 C12 1.371 1_554 S
C14 H3 0.970 . S
C14 H4 0.970 1_554 S
C14 C10 1.532 . S
C14 C15 1.499 . S
C15 C14 1.499 . S
C15 C16 1.370 . S
C15 C20 1.415 1_554 S
C16 H5 0.930 . S
C16 C15 1.370 . S
C16 C17 1.407 . S
C17 C16 1.407 . S
C17 C18 1.365 . S
C18 H6 0.930 1_545 S
C18 C17 1.365 . S
C18 C19 1.393 1_554 S
C19 C18 1.393 1_556 S
C19 C20 1.387 . S
C20 H7 0.930 . S
C20 C15 1.415 1_556 S
C20 C19 1.387 . S
H21 C29 0.930 . S
H22 C32 0.930 . S
H23 C34 0.930 1_655 S
H24 C35 0.970 . S
H25 C35 0.970 . S
H26 C37 0.930 . S
H27 C39 0.930 1_655 S
H28 C41 0.930 . S
C29 H21 0.930 . S
C29 C30 1.382 . S
C29 C31 1.426 . S
C30 C29 1.382 . S
C30 C34 1.389 . S
C31 C29 1.426 . S
C31 C32 1.375 . S
C31 C35 1.532 . S
C32 H22 0.930 . S
C32 C31 1.375 . S
C32 C33 1.416 . S
C33 C32 1.416 . S
C33 C34 1.371 . S
C34 H23 0.930 1_455 S
C34 C30 1.389 . S
C34 C33 1.371 . S
C35 H24 0.970 . S
C35 H25 0.970 . S
C35 C31 1.532 . S
C35 C36 1.499 . S
C36 C35 1.499 . S
C36 C37 1.370 . S
C36 C41 1.415 . S
C37 H26 0.930 . S
C37 C36 1.370 . S
C37 C38 1.407 . S
C38 C37 1.407 . S
C38 C39 1.365 . S
C39 H27 0.930 1_455 S
C39 C38 1.365 . S
C39 C40 1.393 . S
C40 C39 1.393 . S
C40 C41 1.387 . S
C41 H28 0.930 . S
C41 C36 1.415 . S
C41 C40 1.387 . S
Li42 N59 1.990 . S
Li42 O102 1.956 . S
Li42 O103 1.970 1_455 S
Li42 O104 1.961 . S
Li43 N67 1.990 . S
Li43 O102 1.970 1_565 S
Li43 O103 1.956 1_465 S
Li43 O105 1.961 . S
Li44 N89 1.990 . S
Li44 O102 1.961 . S
Li44 O104 1.956 . S
Li44 O105 1.970 1_545 S
Li45 N95 1.990 . S
Li45 O103 1.961 . S
Li45 O104 1.970 1_655 S
Li45 O105 1.956 1_645 S
C46 C48 1.348 1_545 S
C46 C49 1.356 . S
C46 O102 1.325 . S
N47 C50 1.314 1_545 S
N47 C51 1.279 . S
C48 C46 1.348 1_565 S
C48 C50 1.353 . S
C48 H106 0.929 . S
C49 C46 1.356 . S
C49 C51 1.358 . S
C49 H107 0.930 . S
C50 N47 1.314 1_565 S
C50 C48 1.353 . S
C50 H108 0.930 . S
C51 N47 1.279 . S
C51 C49 1.358 . S
C51 H109 0.930 . S
C52 C55 1.348 . S
C52 C56 1.356 1_545 S
C52 O103 1.325 . S
C53 N54 1.279 1_565 S
C53 C56 1.358 . S
C53 H110 0.930 . S
N54 C53 1.279 1_545 S
N54 C57 1.314 . S
C55 C52 1.348 . S
C55 C57 1.353 . S
C55 H111 0.929 . S
C56 C52 1.356 1_565 S
C56 C53 1.358 . S
C56 H112 0.930 . S
C57 N54 1.314 . S
C57 C55 1.353 . S
C57 H113 0.930 . S
C58 N59 1.314 1_655 S
C58 C63 1.353 . S
C58 H64 0.930 . S
N59 Li42 1.990 . S
N59 C58 1.314 1_455 S
N59 C61 1.279 . S
C60 C61 1.358 . S
C60 C62 1.356 . S
C60 H114 0.930 . S
C61 N59 1.279 . S
C61 C60 1.358 . S
C61 H65 0.930 . S
C62 C60 1.356 . S
C62 C63 1.348 1_455 S
C63 C58 1.353 . S
C63 C62 1.348 1_655 S
C63 H115 0.929 . S
H64 C58 0.930 . S
H65 C61 0.930 . S
C66 N67 1.314 . S
C66 C68 1.353 . S
C66 H72 0.930 . S
N67 Li43 1.990 . S
N67 C66 1.314 . S
N67 C70 1.279 1_455 S
C68 C66 1.353 . S
C68 C71 1.348 . S
C68 H116 0.929 . S
C69 C70 1.358 . S
C69 C71 1.356 1_655 S
C69 H117 0.930 . S
C70 N67 1.279 1_655 S
C70 C69 1.358 . S
C70 H73 0.930 . S
C71 C68 1.348 . S
C71 C69 1.356 1_455 S
H72 C66 0.930 . S
H73 C70 0.930 . S
C74 C76 1.348 1_455 S
C74 C77 1.356 . S
C74 O104 1.325 . S
N75 C78 1.314 1_455 S
N75 C79 1.279 . S
C76 C74 1.348 1_655 S
C76 C78 1.353 . S
C76 H118 0.929 . S
C77 C74 1.356 . S
C77 C79 1.358 . S
C77 H119 0.930 . S
C78 N75 1.314 1_655 S
C78 C76 1.353 . S
C78 H120 0.930 . S
C79 N75 1.279 . S
C79 C77 1.358 . S
C79 H121 0.930 . S
C80 C81 1.348 . S
C80 C82 1.356 1_455 S
C80 O105 1.325 . S
C81 C80 1.348 . S
C81 C83 1.353 . S
C81 H122 0.929 . S
C82 C80 1.356 1_655 S
C82 C84 1.358 . S
C82 H123 0.930 . S
C83 C81 1.353 . S
C83 N85 1.314 . S
C83 H124 0.930 . S
C84 C82 1.358 . S
C84 N85 1.279 1_655 S
C84 H125 0.930 . S
N85 C83 1.314 . S
N85 C84 1.279 1_455 S
C86 C88 1.353 . S
C86 N89 1.314 1_565 S
C86 H92 0.930 . S
C87 N89 1.279 . S
C87 C90 1.358 . S
C87 H93 0.930 . S
C88 C86 1.353 . S
C88 C91 1.348 1_565 S
C88 H126 0.929 . S
N89 Li44 1.990 . S
N89 C86 1.314 1_545 S
N89 C87 1.279 . S
C90 C87 1.358 . S
C90 C91 1.356 . S
C90 H127 0.930 . S
C91 C88 1.348 1_545 S
C91 C90 1.356 . S
H92 C86 0.930 . S
H93 C87 0.930 . S
C94 N95 1.314 . S
C94 C96 1.353 . S
C94 H100 0.930 . S
N95 Li45 1.990 . S
N95 C94 1.314 . S
N95 C98 1.279 1_545 S
C96 C94 1.353 . S
C96 C99 1.348 . S
C96 H128 0.929 . S
C97 C98 1.358 . S
C97 C99 1.356 1_565 S
C97 H129 0.930 . S
C98 N95 1.279 1_565 S
C98 C97 1.358 . S
C98 H101 0.930 . S
C99 C96 1.348 . S
C99 C97 1.356 1_545 S
H100 C94 0.930 . S
H101 C98 0.930 . S
O102 Li42 1.956 . S
O102 Li43 1.970 1_545 S
O102 Li44 1.961 . S
O102 C46 1.325 . S
O103 Li42 1.970 1_655 S
O103 Li43 1.956 1_645 S
O103 Li45 1.961 . S
O103 C52 1.325 . S
O104 Li42 1.961 . S
O104 Li44 1.956 . S
O104 Li45 1.970 1_455 S
O104 C74 1.325 . S
O105 Li43 1.961 . S
O105 Li44 1.970 1_565 S
O105 Li45 1.956 1_465 S
O105 C80 1.325 . S
H106 C48 0.929 . S
H107 C49 0.930 . S
H108 C50 0.930 . S
H109 C51 0.930 . S
H110 C53 0.930 . S
H111 C55 0.929 . S
H112 C56 0.930 . S
H113 C57 0.930 . S
H114 C60 0.930 . S
H115 C63 0.929 . S
H116 C68 0.929 . S
H117 C69 0.930 . S
H118 C76 0.929 . S
H119 C77 0.930 . S
H120 C78 0.930 . S
H121 C79 0.930 . S
H122 C81 0.929 . S
H123 C82 0.930 . S
H124 C83 0.930 . S
H125 C84 0.930 . S
H126 C88 0.929 . S
H127 C90 0.930 . S
H128 C96 0.929 . S
H129 C97 0.930 . S
Li130 N147 1.990 . S
Li130 O190 1.956 1_655 S
Li130 O191 1.970 1_645 S
Li130 O192 1.961 . S
Li131 N155 1.990 . S
Li131 O190 1.970 . S
Li131 O191 1.956 1_545 S
Li131 O193 1.961 . S
Li132 N177 1.990 . S
Li132 O190 1.961 . S
Li132 O192 1.956 1_455 S
Li132 O193 1.970 . S
Li133 N183 1.990 . S
Li133 O191 1.961 . S
Li133 O192 1.970 1_465 S
Li133 O193 1.956 1_565 S
C134 C136 1.348 . S
C134 C137 1.356 1_455 S
C134 O190 1.325 . S
N135 C138 1.314 . S
N135 C139 1.279 1_455 S
C136 C134 1.348 . S
C136 C138 1.353 . S
C136 H194 0.929 . S
C137 C134 1.356 1_655 S
C137 C139 1.358 . S
C137 H195 0.930 . S
C138 N135 1.314 . S
C138 C136 1.353 . S
C138 H196 0.930 . S
C139 N135 1.279 1_655 S
C139 C137 1.358 . S
C139 H197 0.930 . S
C140 C143 1.348 1_455 S
C140 C144 1.356 . S
C140 O191 1.325 . S
C141 N142 1.279 . S
C141 C144 1.358 . S
C141 H198 0.930 . S
N142 C141 1.279 . S
N142 C145 1.314 1_455 S
C143 C140 1.348 1_655 S
C143 C145 1.353 . S
C143 H199 0.929 . S
C144 C140 1.356 . S
C144 C141 1.358 . S
C144 H200 0.930 . S
C145 N142 1.314 1_655 S
C145 C143 1.353 . S
C145 H201 0.930 . S
C146 N147 1.314 1_565 S
C146 C151 1.353 . S
C146 H152 0.930 . S
N147 Li130 1.990 . S
N147 C146 1.314 1_545 S
N147 C149 1.279 . S
C148 C149 1.358 . S
C148 C150 1.356 . S
C148 H202 0.930 . S
C149 N147 1.279 . S
C149 C148 1.358 . S
C149 H153 0.930 . S
C150 C148 1.356 . S
C150 C151 1.348 1_545 S
C151 C146 1.353 . S
C151 C150 1.348 1_565 S
C151 H203 0.929 . S
H152 C146 0.930 . S
H153 C149 0.930 . S
C154 N155 1.314 . S
C154 C156 1.353 . S
C154 H160 0.930 . S
N155 Li131 1.990 . S
N155 C154 1.314 . S
N155 C158 1.279 1_545 S
C156 C154 1.353 . S
C156 C159 1.348 . S
C156 H204 0.929 . S
C157 C158 1.358 . S
C157 C159 1.356 1_565 S
C157 H205 0.930 . S
C158 N155 1.279 1_565 S
C158 C157 1.358 . S
C158 H161 0.930 . S
C159 C156 1.348 . S
C159 C157 1.356 1_545 S
H160 C154 0.930 . S
H161 C158 0.930 . S
C162 C164 1.348 1_545 S
C162 C165 1.356 . S
C162 O192 1.325 . S
N163 C166 1.314 1_545 S
N163 C167 1.279 . S
C164 C162 1.348 1_565 S
C164 C166 1.353 . S
C164 H206 0.929 . S
C165 C162 1.356 . S
C165 C167 1.358 . S
C165 H207 0.930 . S
C166 N163 1.314 1_565 S
C166 C164 1.353 . S
C166 H208 0.930 . S
C167 N163 1.279 . S
C167 C165 1.358 . S
C167 H209 0.930 . S
C168 C169 1.348 . S
C168 C170 1.356 1_545 S
C168 O193 1.325 . S
C169 C168 1.348 . S
C169 C171 1.353 . S
C169 H210 0.929 . S
C170 C168 1.356 1_565 S
C170 C172 1.358 . S
C170 H211 0.930 . S
C171 C169 1.353 . S
C171 N173 1.314 . S
C171 H212 0.930 . S
C172 C170 1.358 . S
C172 N173 1.279 1_565 S
C172 H213 0.930 . S
N173 C171 1.314 . S
N173 C172 1.279 1_545 S
C174 C176 1.353 . S
C174 N177 1.314 . S
C174 H180 0.930 . S
C175 N177 1.279 1_655 S
C175 C178 1.358 . S
C175 H181 0.930 . S
C176 C174 1.353 . S
C176 C179 1.348 . S
C176 H214 0.929 . S
N177 Li132 1.990 . S
N177 C174 1.314 . S
N177 C175 1.279 1_455 S
C178 C175 1.358 . S
C178 C179 1.356 1_655 S
C178 H215 0.930 . S
C179 C176 1.348 . S
C179 C178 1.356 1_455 S
H180 C174 0.930 . S
H181 C175 0.930 . S
C182 N183 1.314 1_655 S
C182 C184 1.353 . S
C182 H188 0.930 . S
N183 Li133 1.990 . S
N183 C182 1.314 1_455 S
N183 C186 1.279 . S
C184 C182 1.353 . S
C184 C187 1.348 1_655 S
C184 H216 0.929 . S
C185 C186 1.358 . S
C185 C187 1.356 . S
C185 H217 0.930 . S
C186 N183 1.279 . S
C186 C185 1.358 . S
C186 H189 0.930 . S
C187 C184 1.348 1_455 S
C187 C185 1.356 . S
H188 C182 0.930 . S
H189 C186 0.930 . S
O190 Li130 1.956 1_455 S
O190 Li131 1.970 . S
O190 Li132 1.961 . S
O190 C134 1.325 . S
O191 Li130 1.970 1_465 S
O191 Li131 1.956 1_565 S
O191 Li133 1.961 . S
O191 C140 1.325 . S
O192 Li130 1.961 . S
O192 Li132 1.956 1_655 S
O192 Li133 1.970 1_645 S
O192 C162 1.325 . S
O193 Li131 1.961 . S
O193 Li132 1.970 . S
O193 Li133 1.956 1_545 S
O193 C168 1.325 . S
H194 C136 0.929 . S
H195 C137 0.930 . S
H196 C138 0.930 . S
H197 C139 0.930 . S
H198 C141 0.930 . S
H199 C143 0.929 . S
H200 C144 0.930 . S
H201 C145 0.930 . S
H202 C148 0.930 . S
H203 C151 0.929 . S
H204 C156 0.929 . S
H205 C157 0.930 . S
H206 C164 0.929 . S
H207 C165 0.930 . S
H208 C166 0.930 . S
H209 C167 0.930 . S
H210 C169 0.929 . S
H211 C170 0.930 . S
H212 C171 0.930 . S
H213 C172 0.930 . S
H214 C176 0.929 . S
H215 C178 0.930 . S
H216 C184 0.929 . S
H217 C185 0.930 . S
C218 C219 1.391 1_565 S
C218 C220 1.394 . S
C218 H234 0.931 . S
C219 C218 1.391 1_545 S
C219 C223 1.376 . S
C220 C218 1.394 . S
C220 C221 1.369 1_565 S
C220 C224 1.531 . S
C221 C220 1.369 1_545 S
C221 C222 1.410 . S
C221 C229 1.503 . S
C222 C221 1.410 . S
C222 C223 1.392 . S
C222 C225 1.511 . S
C223 C219 1.376 . S
C223 C222 1.392 . S
C223 H235 0.929 . S
C224 C220 1.531 . S
C224 H236 0.960 . S
C224 H237 0.962 . S
C224 H238 0.960 . S
C225 C222 1.511 . S
C225 H239 0.961 . S
C225 H240 0.961 . S
C225 H241 0.961 . S
C226 C227 1.370 . S
C226 C228 1.363 . S
C226 H242 0.931 . S
C227 C226 1.370 . S
C227 C231 1.408 1_545 S
C228 C226 1.363 . S
C228 C229 1.370 . S
C228 C232 1.524 . S
C229 C221 1.503 . S
C229 C228 1.370 . S
C229 C230 1.403 1_545 S
C230 C229 1.403 1_565 S
C230 C231 1.404 . S
C230 C233 1.539 . S
C231 C227 1.408 1_565 S
C231 C230 1.404 . S
C231 H243 0.930 . S
C232 C228 1.524 . S
C232 H244 0.956 . S
C232 H245 0.961 . S
C232 H246 0.961 . S
C233 C230 1.539 . S
C233 H247 0.958 . S
C233 H248 0.961 . S
C233 H249 0.960 . S
H234 C218 0.931 . S
H235 C223 0.929 . S
H236 C224 0.960 . S
H237 C224 0.962 . S
H238 C224 0.960 . S
H239 C225 0.961 . S
H240 C225 0.961 . S
H241 C225 0.961 . S
H242 C226 0.931 . S
H243 C231 0.930 . S
H244 C232 0.956 . S
H245 C232 0.961 . S
H246 C232 0.961 . S
H247 C233 0.958 . S
H248 C233 0.961 . S
H249 C233 0.960 . S
C250 C251 1.391 1_655 S
C250 C252 1.394 . S
C250 H266 0.931 . S
C251 C250 1.391 1_455 S
C251 C255 1.376 . S
C252 C250 1.394 . S
C252 C253 1.369 1_655 S
C252 C256 1.531 . S
C253 C252 1.369 1_455 S
C253 C254 1.410 . S
C253 C261 1.503 . S
C254 C253 1.410 . S
C254 C255 1.392 . S
C254 C257 1.511 . S
C255 C251 1.376 . S
C255 C254 1.392 . S
C255 H267 0.929 . S
C256 C252 1.531 . S
C256 H268 0.960 . S
C256 H269 0.962 . S
C256 H270 0.960 . S
C257 C254 1.511 . S
C257 H271 0.961 . S
C257 H272 0.961 . S
C257 H273 0.961 . S
C258 C259 1.370 . S
C258 C260 1.363 . S
C258 H274 0.931 . S
C259 C258 1.370 . S
C259 C263 1.408 1_455 S
C260 C258 1.363 . S
C260 C261 1.370 . S
C260 C264 1.524 . S
C261 C253 1.503 . S
C261 C260 1.370 . S
C261 C262 1.403 1_455 S
C262 C261 1.403 1_655 S
C262 C263 1.404 . S
C262 C265 1.539 . S
C263 C259 1.408 1_655 S
C263 C262 1.404 . S
C263 H275 0.930 . S
C264 C260 1.524 . S
C264 H276 0.956 . S
C264 H277 0.961 . S
C264 H278 0.961 . S
C265 C262 1.539 . S
C265 H279 0.958 . S
C265 H280 0.961 . S
C265 H281 0.960 . S
H266 C250 0.931 . S
H267 C255 0.929 . S
H268 C256 0.960 . S
H269 C256 0.962 . S
H270 C256 0.960 . S
H271 C257 0.961 . S
H272 C257 0.961 . S
H273 C257 0.961 . S
H274 C258 0.931 . S
H275 C263 0.930 . S
H276 C264 0.956 . S
H277 C264 0.961 . S
H278 C264 0.961 . S
H279 C265 0.958 . S
H280 C265 0.961 . S
H281 C265 0.960 . S
C282 C283 1.391 1_565 S
C282 C284 1.394 . S
C282 H298 0.931 . S
C283 C282 1.391 1_545 S
C283 C287 1.376 . S
C284 C282 1.394 . S
C284 C285 1.369 1_565 S
C284 C288 1.531 . S
C285 C284 1.369 1_545 S
C285 C286 1.410 . S
C285 C293 1.503 . S
C286 C285 1.410 . S
C286 C287 1.392 . S
C286 C289 1.511 . S
C287 C283 1.376 . S
C287 C286 1.392 . S
C287 H299 0.929 . S
C288 C284 1.531 . S
C288 H300 0.960 . S
C288 H301 0.962 . S
C288 H302 0.960 . S
C289 C286 1.511 . S
C289 H303 0.961 . S
C289 H304 0.961 . S
C289 H305 0.961 . S
C290 C291 1.370 . S
C290 C292 1.363 . S
C290 H306 0.931 1_545 S
C291 C290 1.370 . S
C291 C295 1.408 . S
C292 C290 1.363 . S
C292 C293 1.370 . S
C292 C296 1.524 1_545 S
C293 C285 1.503 . S
C293 C292 1.370 . S
C293 C294 1.403 . S
C294 C293 1.403 . S
C294 C295 1.404 . S
C294 C297 1.539 . S
C295 C291 1.408 . S
C295 C294 1.404 . S
C295 H307 0.930 . S
C296 C292 1.524 1_565 S
C296 H308 0.956 . S
C296 H309 0.961 1_565 S
C296 H310 0.961 . S
C297 C294 1.539 . S
C297 H311 0.958 . S
C297 H312 0.961 . S
C297 H313 0.960 . S
H298 C282 0.931 . S
H299 C287 0.929 . S
H300 C288 0.960 . S
H301 C288 0.962 . S
H302 C288 0.960 . S
H303 C289 0.961 . S
H304 C289 0.961 . S
H305 C289 0.961 . S
H306 C290 0.931 1_565 S
H307 C295 0.930 . S
H308 C296 0.956 . S
H309 C296 0.961 1_545 S
H310 C296 0.961 . S
H311 C297 0.958 . S
H312 C297 0.961 . S
H313 C297 0.960 . S
C314 C315 1.391 1_655 S
C314 C316 1.394 . S
C314 H330 0.931 . S
C315 C314 1.391 1_455 S
C315 C319 1.376 . S
C316 C314 1.394 . S
C316 C317 1.369 1_655 S
C316 C320 1.531 . S
C317 C316 1.369 1_455 S
C317 C318 1.410 . S
C317 C325 1.503 . S
C318 C317 1.410 . S
C318 C319 1.392 . S
C318 C321 1.511 . S
C319 C315 1.376 . S
C319 C318 1.392 . S
C319 H331 0.929 . S
C320 C316 1.531 . S
C320 H332 0.960 . S
C320 H333 0.962 . S
C320 H334 0.960 . S
C321 C318 1.511 . S
C321 H335 0.961 . S
C321 H336 0.961 . S
C321 H337 0.961 . S
C322 C323 1.370 . S
C322 C324 1.363 . S
C322 H338 0.931 1_455 S
C323 C322 1.370 . S
C323 C327 1.408 . S
C324 C322 1.363 . S
C324 C325 1.370 . S
C324 C328 1.524 1_455 S
C325 C317 1.503 . S
C325 C324 1.370 . S
C325 C326 1.403 . S
C326 C325 1.403 . S
C326 C327 1.404 . S
C326 C329 1.539 . S
C327 C323 1.408 . S
C327 C326 1.404 . S
C327 H339 0.930 . S
C328 C324 1.524 1_655 S
C328 H340 0.956 . S
C328 H341 0.961 1_655 S
C328 H342 0.961 . S
C329 C326 1.539 . S
C329 H343 0.958 . S
C329 H344 0.961 . S
C329 H345 0.960 . S
H330 C314 0.931 . S
H331 C319 0.929 . S
H332 C320 0.960 . S
H333 C320 0.962 . S
H334 C320 0.960 . S
H335 C321 0.961 . S
H336 C321 0.961 . S
H337 C321 0.961 . S
H338 C322 0.931 1_655 S
H339 C327 0.930 . S
H340 C328 0.956 . S
H341 C328 0.961 1_455 S
H342 C328 0.961 . S
H343 C329 0.958 . S
H344 C329 0.961 . S
H345 C329 0.960 . S
C346 C347 1.391 . S
C346 C348 1.394 . S
C346 H362 0.931 . S
C347 C346 1.391 . S
C347 C351 1.376 . S
C348 C346 1.394 . S
C348 C349 1.369 . S
C348 C352 1.531 . S
C349 C348 1.369 . S
C349 C350 1.410 . S
C349 C357 1.503 . S
C350 C349 1.410 . S
C350 C351 1.392 . S
C350 C353 1.511 . S
C351 C347 1.376 . S
C351 C350 1.392 . S
C351 H363 0.929 . S
C352 C348 1.531 . S
C352 H364 0.960 . S
C352 H365 0.962 . S
C352 H366 0.960 . S
C353 C350 1.511 . S
C353 H367 0.961 1_545 S
C353 H368 0.961 1_545 S
C353 H369 0.961 . S
C354 C355 1.370 1_565 S
C354 C356 1.363 . S
C354 H370 0.931 . S
C355 C354 1.370 1_545 S
C355 C359 1.408 . S
C356 C354 1.363 . S
C356 C357 1.370 1_565 S
C356 C360 1.524 . S
C357 C349 1.503 . S
C357 C356 1.370 1_545 S
C357 C358 1.403 . S
C358 C357 1.403 . S
C358 C359 1.404 . S
C358 C361 1.539 . S
C359 C355 1.408 . S
C359 C358 1.404 . S
C359 H371 0.930 . S
C360 C356 1.524 . S
C360 H372 0.956 . S
C360 H373 0.961 . S
C360 H374 0.961 . S
C361 C358 1.539 . S
C361 H375 0.958 . S
C361 H376 0.961 . S
C361 H377 0.960 . S
H362 C346 0.931 . S
H363 C351 0.929 . S
H364 C352 0.960 . S
H365 C352 0.962 . S
H366 C352 0.960 . S
H367 C353 0.961 1_565 S
H368 C353 0.961 1_565 S
H369 C353 0.961 . S
H370 C354 0.931 . S
H371 C359 0.930 . S
H372 C360 0.956 . S
H373 C360 0.961 . S
H374 C360 0.961 . S
H375 C361 0.958 . S
H376 C361 0.961 . S
H377 C361 0.960 . S
C378 C379 1.391 . S
C378 C380 1.394 . S
C378 H394 0.931 . S
C379 C378 1.391 . S
C379 C383 1.376 1_455 S
C380 C378 1.394 . S
C380 C381 1.369 . S
C380 C384 1.531 . S
C381 C380 1.369 . S
C381 C382 1.410 1_455 S
C381 C389 1.503 . S
C382 C381 1.410 1_655 S
C382 C383 1.392 . S
C382 C385 1.511 . S
C383 C379 1.376 1_655 S
C383 C382 1.392 . S
C383 H395 0.929 . S
C384 C380 1.531 . S
C384 H396 0.960 . S
C384 H397 0.962 . S
C384 H398 0.960 . S
C385 C382 1.511 . S
C385 H399 0.961 . S
C385 H400 0.961 . S
C385 H401 0.961 . S
C386 C387 1.370 1_655 S
C386 C388 1.363 . S
C386 H402 0.931 . S
C387 C386 1.370 1_455 S
C387 C391 1.408 . S
C388 C386 1.363 . S
C388 C389 1.370 1_655 S
C388 C392 1.524 . S
C389 C381 1.503 . S
C389 C388 1.370 1_455 S
C389 C390 1.403 . S
C390 C389 1.403 . S
C390 C391 1.404 . S
C390 C393 1.539 . S
C391 C387 1.408 . S
C391 C390 1.404 . S
C391 H403 0.930 . S
C392 C388 1.524 . S
C392 H404 0.956 . S
C392 H405 0.961 . S
C392 H406 0.961 . S
C393 C390 1.539 . S
C393 H407 0.958 . S
C393 H408 0.961 . S
C393 H409 0.960 . S
H394 C378 0.931 . S
H395 C383 0.929 . S
H396 C384 0.960 . S
H397 C384 0.962 . S
H398 C384 0.960 . S
H399 C385 0.961 . S
H400 C385 0.961 . S
H401 C385 0.961 . S
H402 C386 0.931 . S
H403 C391 0.930 . S
H404 C392 0.956 . S
H405 C392 0.961 . S
H406 C392 0.961 . S
H407 C393 0.958 . S
H408 C393 0.961 . S
H409 C393 0.960 . S
C410 C411 1.391 1_565 S
C410 C412 1.394 . S
C410 H426 0.931 . S
C411 C410 1.391 1_545 S
C411 C415 1.376 . S
C412 C410 1.394 . S
C412 C413 1.369 1_565 S
C412 C416 1.531 . S
C413 C412 1.369 1_545 S
C413 C414 1.410 . S
C413 C421 1.503 . S
C414 C413 1.410 . S
C414 C415 1.392 . S
C414 C417 1.511 . S
C415 C411 1.376 . S
C415 C414 1.392 . S
C415 H427 0.929 . S
C416 C412 1.531 . S
C416 H428 0.960 . S
C416 H429 0.962 . S
C416 H430 0.960 . S
C417 C414 1.511 . S
C417 H431 0.961 . S
C417 H432 0.961 . S
C417 H433 0.961 . S
C418 C419 1.370 . S
C418 C420 1.363 . S
C418 H434 0.931 . S
C419 C418 1.370 . S
C419 C423 1.408 1_545 S
C420 C418 1.363 . S
C420 C421 1.370 . S
C420 C424 1.524 . S
C421 C413 1.503 . S
C421 C420 1.370 . S
C421 C422 1.403 1_545 S
C422 C421 1.403 1_565 S
C422 C423 1.404 . S
C422 C425 1.539 . S
C423 C419 1.408 1_565 S
C423 C422 1.404 . S
C423 H435 0.930 . S
C424 C420 1.524 . S
C424 H436 0.956 . S
C424 H437 0.961 . S
C424 H438 0.961 . S
C425 C422 1.539 . S
C425 H439 0.958 . S
C425 H440 0.961 . S
C425 H441 0.960 . S
H426 C410 0.931 . S
H427 C415 0.929 . S
H428 C416 0.960 . S
H429 C416 0.962 . S
H430 C416 0.960 . S
H431 C417 0.961 . S
H432 C417 0.961 . S
H433 C417 0.961 . S
H434 C418 0.931 . S
H435 C423 0.930 . S
H436 C424 0.956 . S
H437 C424 0.961 . S
H438 C424 0.961 . S
H439 C425 0.958 . S
H440 C425 0.961 . S
H441 C425 0.960 . S
C442 C443 1.391 . S
C442 C444 1.394 . S
C442 H458 0.931 . S
C443 C442 1.391 . S
C443 C447 1.376 . S
C444 C442 1.394 . S
C444 C445 1.369 . S
C444 C448 1.531 . S
C445 C444 1.369 . S
C445 C446 1.410 . S
C445 C453 1.503 . S
C446 C445 1.410 . S
C446 C447 1.392 . S
C446 C449 1.511 . S
C447 C443 1.376 . S
C447 C446 1.392 . S
C447 H459 0.929 . S
C448 C444 1.531 . S
C448 H460 0.960 1_455 S
C448 H461 0.962 . S
C448 H462 0.960 1_455 S
C449 C446 1.511 . S
C449 H463 0.961 . S
C449 H464 0.961 . S
C449 H465 0.961 1_455 S
C450 C451 1.370 . S
C450 C452 1.363 . S
C450 H466 0.931 . S
C451 C450 1.370 . S
C451 C455 1.408 1_455 S
C452 C450 1.363 . S
C452 C453 1.370 . S
C452 C456 1.524 . S
C453 C445 1.503 . S
C453 C452 1.370 . S
C453 C454 1.403 1_455 S
C454 C453 1.403 1_655 S
C454 C455 1.404 . S
C454 C457 1.539 . S
C455 C451 1.408 1_655 S
C455 C454 1.404 . S
C455 H467 0.930 . S
C456 C452 1.524 . S
C456 H468 0.956 . S
C456 H469 0.961 . S
C456 H470 0.961 . S
C457 C454 1.539 . S
C457 H471 0.958 . S
C457 H472 0.961 . S
C457 H473 0.960 . S
H458 C442 0.931 . S
H459 C447 0.929 . S
H460 C448 0.960 1_655 S
H461 C448 0.962 . S
H462 C448 0.960 1_655 S
H463 C449 0.961 . S
H464 C449 0.961 . S
H465 C449 0.961 1_655 S
H466 C450 0.931 . S
H467 C455 0.930 . S
H468 C456 0.956 . S
H469 C456 0.961 . S
H470 C456 0.961 . S
H471 C457 0.958 . S
H472 C457 0.961 . S
H473 C457 0.960 . S
C227 C91 1.558 . S
C219 C17 1.494 . S
C259 C179 1.549 . S
C251 C40 1.467 . S
C291 C99 1.564 . S
C283 C9 1.438 . S
C323 C187 1.550 . S
C315 C33 1.468 . S
C355 C159 1.548 . S
C347 C19 1.471 . S
C387 C62 1.561 . S
C379 C38 1.419 . S
C419 C150 1.552 . S
C411 C12 1.480 . S
C443 C30 1.492 . S
C451 C71 1.561 . S
