# Generated by pormake.
# Topology wbl, (4,4)-cn, num edge types: 1
# Building blocks:
#     Node 0, Type 0, BuildingBlock: MUDLON_clean_linker_0, # of connection points: 4
#     Node 1, Type 0, BuildingBlock: MUDLON_clean_linker_0, # of connection points: 4
#     Node 2, Type 0, BuildingBlock: MUDLON_clean_linker_0, # of connection points: 4
#     Node 3, Type 0, BuildingBlock: MUDLON_clean_linker_0, # of connection points: 4
#     Node 4, Type 0, BuildingBlock: MUDLON_clean_linker_0, # of connection points: 4
#     Node 5, Type 0, BuildingBlock: MUDLON_clean_linker_0, # of connection points: 4
#     Node 6, Type 0, BuildingBlock: MUDLON_clean_linker_0, # of connection points: 4
#     Node 7, Type 0, BuildingBlock: MUDLON_clean_linker_0, # of connection points: 4
#     Node 8, Type 1, BuildingBlock: KUFVIS_clean_sbu_0, # of connection points: 4
#     Node 9, Type 1, BuildingBlock: KUFVIS_clean_sbu_0, # of connection points: 4
#     Node 10, Type 1, BuildingBlock: KUFVIS_clean_sbu_0, # of connection points: 4
#     Node 11, Type 1, BuildingBlock: KUFVIS_clean_sbu_0, # of connection points: 4
#     Node 12, Type 1, BuildingBlock: KUFVIS_clean_sbu_0, # of connection points: 4
#     Node 13, Type 1, BuildingBlock: KUFVIS_clean_sbu_0, # of connection points: 4
#     Node 14, Type 1, BuildingBlock: KUFVIS_clean_sbu_0, # of connection points: 4
#     Node 15, Type 1, BuildingBlock: KUFVIS_clean_sbu_0, # of connection points: 4
#     Edge 16, Type (0, 1), BuildingBlock: TEMPAE_clean_linker_10, # of connection points: 2
#     Edge 17, Type (0, 1), BuildingBlock: TEMPAE_clean_linker_10, # of connection points: 2
#     Edge 18, Type (0, 1), BuildingBlock: TEMPAE_clean_linker_10, # of connection points: 2
#     Edge 19, Type (0, 1), BuildingBlock: TEMPAE_clean_linker_10, # of connection points: 2
#     Edge 20, Type (0, 1), BuildingBlock: TEMPAE_clean_linker_10, # of connection points: 2
#     Edge 21, Type (0, 1), BuildingBlock: TEMPAE_clean_linker_10, # of connection points: 2
#     Edge 22, Type (0, 1), BuildingBlock: TEMPAE_clean_linker_10, # of connection points: 2
#     Edge 23, Type (0, 1), BuildingBlock: TEMPAE_clean_linker_10, # of connection points: 2
#     Edge 24, Type (0, 1), BuildingBlock: TEMPAE_clean_linker_10, # of connection points: 2
#     Edge 25, Type (0, 1), BuildingBlock: TEMPAE_clean_linker_10, # of connection points: 2
#     Edge 26, Type (0, 1), BuildingBlock: TEMPAE_clean_linker_10, # of connection points: 2
#     Edge 27, Type (0, 1), BuildingBlock: TEMPAE_clean_linker_10, # of connection points: 2
#     Edge 28, Type (0, 1), BuildingBlock: TEMPAE_clean_linker_10, # of connection points: 2
#     Edge 29, Type (0, 1), BuildingBlock: TEMPAE_clean_linker_10, # of connection points: 2
#     Edge 30, Type (0, 1), BuildingBlock: TEMPAE_clean_linker_10, # of connection points: 2
#     Edge 31, Type (0, 1), BuildingBlock: TEMPAE_clean_linker_10, # of connection points: 2
#     Edge 32, Type (0, 1), BuildingBlock: TEMPAE_clean_linker_10, # of connection points: 2
#     Edge 33, Type (0, 1), BuildingBlock: TEMPAE_clean_linker_10, # of connection points: 2
#     Edge 34, Type (0, 1), BuildingBlock: TEMPAE_clean_linker_10, # of connection points: 2
#     Edge 35, Type (0, 1), BuildingBlock: TEMPAE_clean_linker_10, # of connection points: 2
#     Edge 36, Type (0, 1), BuildingBlock: TEMPAE_clean_linker_10, # of connection points: 2
#     Edge 37, Type (0, 1), BuildingBlock: TEMPAE_clean_linker_10, # of connection points: 2
#     Edge 38, Type (0, 1), BuildingBlock: TEMPAE_clean_linker_10, # of connection points: 2
#     Edge 39, Type (0, 1), BuildingBlock: TEMPAE_clean_linker_10, # of connection points: 2
#     Edge 40, Type (0, 1), BuildingBlock: TEMPAE_clean_linker_10, # of connection points: 2
#     Edge 41, Type (0, 1), BuildingBlock: TEMPAE_clean_linker_10, # of connection points: 2
#     Edge 42, Type (0, 1), BuildingBlock: TEMPAE_clean_linker_10, # of connection points: 2
#     Edge 43, Type (0, 1), BuildingBlock: TEMPAE_clean_linker_10, # of connection points: 2
#     Edge 44, Type (0, 1), BuildingBlock: TEMPAE_clean_linker_10, # of connection points: 2
#     Edge 45, Type (0, 1), BuildingBlock: TEMPAE_clean_linker_10, # of connection points: 2
#     Edge 46, Type (0, 1), BuildingBlock: TEMPAE_clean_linker_10, # of connection points: 2
#     Edge 47, Type (0, 1), BuildingBlock: TEMPAE_clean_linker_10, # of connection points: 2
# Relax obj value: 0.113
# Max RMSD: 0.125
# Mean RMSD: 0.123
data_MOF--net-wbl--node1-KUFVIS_clean_sbu_0--node2-MUDLON_clean_linker_0--edge1-TEMPAE_clean_linker_10
_symmetry_space_group_name_H-M    P1
_symmetry_Int_Tables_number       1
_symmetry_cell_setting            triclinic
loop_
_symmetry_equiv_pos_as_xyz
'x, y, z'
_cell_length_a     54.228163
_cell_length_b     54.236851
_cell_length_c     76.439665
_cell_angle_alpha  89.986509
_cell_angle_beta   90.668329
_cell_angle_gamma 90.050541
loop_
_atom_site_label
_atom_site_type_symbol
_atom_site_fract_x
_atom_site_fract_y
_atom_site_fract_z
_atom_type_partial_charge
H0 H 0.09963 0.9807 0.33312 0.0
N1 N 0.08673 0.95838 0.30207 0.0
H2 H 0.10483 0.96047 0.36138 0.0
H3 H 0.07569 0.91199 0.31013 0.0
H4 H 0.08036 0.89166 0.33873 0.0
H5 H 0.09637 0.93406 0.27277 0.0
H6 H 0.13712 0.92516 0.26066 0.0
H7 H 0.13041 0.98062 0.31191 0.0
H8 H 0.17073 0.97202 0.29987 0.0
H9 H 0.0981 0.0073 0.30799 0.0
H10 H 0.03995 0.95785 0.29169 0.0
H11 H 0.06912 0.0416 0.30772 0.0
H12 H 0.01074 0.99232 0.29126 0.0
H13 H 0.96818 0.14006 0.32477 0.0
H14 H 0.95032 0.14943 0.35341 0.0
H15 H 0.92653 0.07375 0.35802 0.0
H16 H 0.94484 0.06441 0.3297 0.0
H17 H 0.93257 0.06027 0.30006 0.0
H18 H 0.89173 0.06544 0.28661 0.0
H19 H 0.9077 0.14211 0.27695 0.0
H20 H 0.94892 0.13676 0.29 0.0
H21 H 0.0031 0.08539 0.32934 0.0
H22 H 0.03331 0.05279 0.32619 0.0
H23 H 1.00119 0.03296 0.27626 0.0
N24 N 0.96561 0.09759 0.30725 0.0
H25 H 0.97102 0.06574 0.27914 0.0
C26 C 0.08739 0.94776 0.31938 0.0
C27 C 0.09528 0.96132 0.33411 0.0
C28 C 0.09833 0.94973 0.3503 0.0
C29 C 0.0932 0.92449 0.35216 0.0
C30 C 0.0844 0.91116 0.33763 0.0
C31 C 0.0817 0.9227 0.32135 0.0
C32 C 0.11011 0.95796 0.29323 0.0
C33 C 0.11249 0.94296 0.2784 0.0
C34 C 0.13576 0.93788 0.27153 0.0
C35 C 0.15713 0.94766 0.27947 0.0
C36 C 0.15461 0.96395 0.29363 0.0
C37 C 0.13138 0.96908 0.30044 0.0
C38 C 0.07118 0.97978 0.29992 0.0
C39 C 0.07922 0.00375 0.30415 0.0
C40 C 0.06255 0.02343 0.30406 0.0
C41 C 0.03759 0.01964 0.2996 0.0
C42 C 0.02986 0.99589 0.29464 0.0
C43 C 0.04649 0.97619 0.2949 0.0
C44 C 0.95773 0.10167 0.32504 0.0
C45 C 0.95948 0.12546 0.33213 0.0
C46 C 0.94925 0.13077 0.34841 0.0
C47 C 0.93679 0.11237 0.35776 0.0
C48 C 0.93569 0.08835 0.35092 0.0
C49 C 0.94619 0.08298 0.33477 0.0
C50 C 0.94406 0.09817 0.29588 0.0
C51 C 0.9277 0.07799 0.29453 0.0
C52 C 0.90435 0.08094 0.28686 0.0
C53 C 0.89668 0.10418 0.28084 0.0
C54 C 0.91329 0.12401 0.28149 0.0
C55 C 0.93683 0.12094 0.2888 0.0
C56 C 0.98304 0.07728 0.30522 0.0
C57 C 0.00194 0.07378 0.31783 0.0
C58 C 0.01962 0.05531 0.31591 0.0
C59 C 0.01938 0.04001 0.30112 0.0
C60 C 1.00141 0.04404 0.28805 0.0
C61 C 0.98383 0.06276 0.28987 0.0
H62 H 0.97063 0.39934 0.57589 0.0
N63 N 0.94904 0.43088 0.55211 0.0
H64 H 0.95574 0.38927 0.60475 0.0
H65 H 0.91073 0.45069 0.56848 0.0
H66 H 0.8953 0.44025 0.59768 0.0
H67 H 0.91053 0.42055 0.5317 0.0
H68 H 0.90062 0.38055 0.51832 0.0
H69 H 0.98212 0.39287 0.54701 0.0
H70 H 0.97183 0.35287 0.53444 0.0
H71 H 0.99764 0.42462 0.56228 0.0
H72 H 0.94678 0.47557 0.53799 0.0
H73 H 0.02999 0.45527 0.56124 0.0
H74 H 0.97917 0.50714 0.5376 0.0
H75 H 0.13006 0.54931 0.56736 0.0
H76 H 0.14651 0.56016 0.59644 0.0
H77 H 0.07553 0.58982 0.61039 0.0
H78 H 0.05916 0.57852 0.58156 0.0
H79 H 0.04819 0.59237 0.55367 0.0
H80 H 0.05214 0.63385 0.54139 0.0
H81 H 0.12326 0.61445 0.52064 0.0
H82 H 0.11927 0.5731 0.53314 0.0
H83 H 0.07221 0.52195 0.57862 0.0
H84 H 0.03971 0.49188 0.5765 0.0
H85 H 0.01858 0.5203 0.52576 0.0
N86 N 0.08473 0.55731 0.55479 0.0
H87 H 0.05083 0.55144 0.52805 0.0
C88 C 0.94182 0.42596 0.56989 0.0
C89 C 0.95439 0.4087 0.58044 0.0
C90 C 0.94565 0.40268 0.59698 0.0
C91 C 0.92415 0.41371 0.60341 0.0
C92 C 0.91195 0.43148 0.59309 0.0
C93 C 0.92071 0.43746 0.57646 0.0
C94 C 0.94688 0.40985 0.54059 0.0
C95 C 0.92438 0.40618 0.53171 0.0
C96 C 0.91871 0.38335 0.52414 0.0
C97 C 0.93539 0.36367 0.52557 0.0
C98 C 0.95863 0.36779 0.5333 0.0
C99 C 0.96449 0.39078 0.54053 0.0
C100 C 0.96956 0.44759 0.55002 0.0
C101 C 0.99335 0.44221 0.55645 0.0
C102 C 0.01194 0.46007 0.55609 0.0
C103 C 0.00718 0.4839 0.54958 0.0
C104 C 0.98361 0.48898 0.54261 0.0
C105 C 0.96505 0.47098 0.54284 0.0
C106 C 0.09354 0.56324 0.57223 0.0
C107 C 0.1181 0.55805 0.57676 0.0
C108 C 0.1274 0.56421 0.59332 0.0
C109 C 0.11231 0.57596 0.60559 0.0
C110 C 0.08766 0.58111 0.60108 0.0
C111 C 0.0783 0.5747 0.5846 0.0
C112 C 0.0836 0.57961 0.54442 0.0
C113 C 0.06444 0.59689 0.54625 0.0
C114 C 0.06677 0.62064 0.53928 0.0
C115 C 0.08817 0.62753 0.53024 0.0
C116 C 0.1065 0.6097 0.52744 0.0
C117 C 0.10423 0.58605 0.53452 0.0
C118 C 0.06354 0.54063 0.55404 0.0
C119 C 0.06027 0.52263 0.56719 0.0
C120 C 0.0418 0.50481 0.56582 0.0
C121 C 0.0264 0.50357 0.55096 0.0
C122 C 0.02977 0.52101 0.53757 0.0
C123 C 0.04827 0.53906 0.53897 0.0
H124 H 0.65742 0.47714 0.82135 0.0
N125 N 0.61659 0.49142 0.80454 0.0
H126 H 0.66093 0.45142 0.84723 0.0
H127 H 0.57807 0.47449 0.8247 0.0
H128 H 0.58137 0.45127 0.85162 0.0
H129 H 0.60663 0.44508 0.79255 0.0
H130 H 0.63542 0.42002 0.77559 0.0
H131 H 0.65228 0.50899 0.78458 0.0
H132 H 0.68089 0.48429 0.76741 0.0
H133 H 0.61282 0.53839 0.81328 0.0
H134 H 0.57265 0.47899 0.78875 0.0
H135 H 0.57608 0.56439 0.81188 0.0
H136 H 0.53537 0.50486 0.78751 0.0
H137 H 0.46867 0.64355 0.82288 0.0
H138 H 0.44973 0.65212 0.85129 0.0
H139 H 0.42656 0.5761 0.8547 0.0
H140 H 0.44594 0.56757 0.82659 0.0
H141 H 0.43881 0.5618 0.79606 0.0
H142 H 0.3978 0.56524 0.78241 0.0
H143 H 0.40986 0.64296 0.77411 0.0
H144 H 0.45096 0.6394 0.78751 0.0
H145 H 0.50253 0.58988 0.83024 0.0
H146 H 0.53744 0.56268 0.82798 0.0
H147 H 0.51641 0.54465 0.77492 0.0
N148 N 0.46832 0.60113 0.80527 0.0
H149 H 0.48075 0.57188 0.77708 0.0
C150 C 0.6176 0.47796 0.82091 0.0
C151 C 0.64074 0.47147 0.8279 0.0
C152 C 0.64268 0.45688 0.84289 0.0
C153 C 0.62145 0.44911 0.8518 0.0
C154 C 0.59822 0.45621 0.84503 0.0
C155 C 0.59628 0.47002 0.82961 0.0
C156 C 0.62756 0.47886 0.78995 0.0
C157 C 0.62222 0.45395 0.78644 0.0
C158 C 0.6388 0.43962 0.7769 0.0
C159 C 0.66061 0.45013 0.77043 0.0
C160 C 0.66424 0.47568 0.77217 0.0
C161 C 0.64786 0.48987 0.78191 0.0
C162 C 0.59545 0.50688 0.80118 0.0
C163 C 0.59609 0.53114 0.80735 0.0
C164 C 0.57502 0.54584 0.80667 0.0
C165 C 0.55267 0.53653 0.79986 0.0
C166 C 0.55231 0.51255 0.79281 0.0
C167 C 0.57357 0.49777 0.79349 0.0
C168 C 0.45859 0.60506 0.82259 0.0
C169 C 0.4597 0.62874 0.82989 0.0
C170 C 0.44889 0.63358 0.84604 0.0
C171 C 0.43649 0.61481 0.85505 0.0
C172 C 0.43567 0.59098 0.84786 0.0
C173 C 0.44675 0.58608 0.83184 0.0
C174 C 0.44804 0.60045 0.79282 0.0
C175 C 0.43306 0.57937 0.79071 0.0
C176 C 0.40962 0.58135 0.78293 0.0
C177 C 0.40069 0.60442 0.77742 0.0
C178 C 0.41635 0.625 0.77833 0.0
C179 C 0.43986 0.62294 0.78581 0.0
C180 C 0.48751 0.58231 0.80424 0.0
C181 C 0.50457 0.57962 0.8182 0.0
C182 C 0.52503 0.56426 0.81683 0.0
C183 C 0.52975 0.55149 0.80127 0.0
C184 C 0.51303 0.55397 0.78719 0.0
C185 C 0.49241 0.56951 0.78853 0.0
H186 H 0.46927 0.9052 0.0736 0.0
N187 N 0.4489 0.93742 0.04974 0.0
H188 H 0.45445 0.89639 0.10268 0.0
H189 H 0.4114 0.95879 0.06607 0.0
H190 H 0.39593 0.94954 0.09545 0.0
H191 H 0.41023 0.92684 0.02954 0.0
H192 H 0.40051 0.88691 0.01599 0.0
H193 H 0.48199 0.89945 0.04471 0.0
H194 H 0.47191 0.85949 0.03193 0.0
H195 H 0.49702 0.93099 0.06093 0.0
H196 H 0.44776 0.98141 0.03449 0.0
H197 H 0.52993 0.96107 0.05958 0.0
H198 H 0.48067 0.0124 0.03375 0.0
H199 H 0.63205 0.05401 0.06252 0.0
H200 H 0.64941 0.06552 0.0912 0.0
H201 H 0.57898 0.09584 0.10583 0.0
H202 H 0.56177 0.08405 0.07736 0.0
H203 H 0.54957 0.0967 0.0493 0.0
H204 H 0.55272 0.13782 0.0363 0.0
H205 H 0.62387 0.11877 0.01541 0.0
H206 H 0.6206 0.07775 0.02853 0.0
H207 H 0.57306 0.02814 0.07532 0.0
H208 H 0.54017 0.99842 0.07376 0.0
H209 H 0.52046 0.02404 0.022 0.0
N210 N 0.58643 0.062 0.0505 0.0
H211 H 0.5531 0.05482 0.02369 0.0
C212 C 0.44149 0.93286 0.06753 0.0
C213 C 0.45346 0.91527 0.07816 0.0
C214 C 0.44474 0.90998 0.09483 0.0
C215 C 0.42381 0.92203 0.10131 0.0
C216 C 0.41215 0.94 0.09085 0.0
C217 C 0.42092 0.94529 0.0741 0.0
C218 C 0.44665 0.91626 0.03836 0.0
C219 C 0.42414 0.91252 0.02951 0.0
C220 C 0.41858 0.88974 0.02184 0.0
C221 C 0.43539 0.87014 0.02314 0.0
C222 C 0.45861 0.87433 0.03089 0.0
C223 C 0.46434 0.89727 0.03824 0.0
C224 C 0.46971 0.95376 0.04764 0.0
C225 C 0.49322 0.94835 0.05459 0.0
C226 C 0.51211 0.96588 0.05404 0.0
C227 C 0.50795 0.98939 0.04678 0.0
C228 C 0.48466 0.99447 0.03933 0.0
C229 C 0.4658 0.97681 0.03977 0.0
C230 C 0.59575 0.06824 0.06775 0.0
C231 C 0.62041 0.06304 0.07198 0.0
C232 C 0.63024 0.06959 0.08832 0.0
C233 C 0.61557 0.08171 0.10069 0.0
C234 C 0.59082 0.08688 0.09645 0.0
C235 C 0.58096 0.08015 0.08018 0.0
C236 C 0.585 0.08414 0.03996 0.0
C237 C 0.56565 0.10122 0.04169 0.0
C238 C 0.56752 0.12476 0.03431 0.0
C239 C 0.58868 0.13166 0.025 0.0
C240 C 0.60725 0.11402 0.02238 0.0
C241 C 0.60542 0.09056 0.02983 0.0
C242 C 0.56511 0.04546 0.05011 0.0
C243 C 0.56136 0.02831 0.06376 0.0
C244 C 0.54266 0.01067 0.06274 0.0
C245 C 0.52751 0.00877 0.04778 0.0
C246 C 0.53142 0.02531 0.0339 0.0
C247 C 0.55013 0.04315 0.03495 0.0
H248 H 0.06616 0.55393 0.92341 0.0
N249 N 0.05927 0.58449 0.95153 0.0
H250 H 0.0804 0.5662 0.89443 0.0
H251 H 0.06549 0.63015 0.93947 0.0
H252 H 0.08035 0.64247 0.91052 0.0
H253 H 0.07416 0.61542 0.97654 0.0
H254 H 0.1159 0.61943 0.98884 0.0
H255 H 0.09648 0.55077 0.9481 0.0
H256 H 0.13817 0.55457 0.96033 0.0
H257 H 0.06149 0.54262 0.97273 0.0
H258 H 0.01467 0.58209 0.93613 0.0
H259 H 0.03035 0.51095 0.97534 0.0
H260 H 0.98385 0.5497 0.93822 0.0
H261 H 0.94211 0.40106 0.94634 0.0
H262 H 0.93591 0.38213 0.91741 0.0
H263 H 0.91483 0.45294 0.89628 0.0
H264 H 0.92179 0.47186 0.92499 0.0
H265 H 0.89108 0.47178 0.94645 0.0
H266 H 0.85069 0.4639 0.95877 0.0
H267 H 0.88369 0.4152 0.99706 0.0
H268 H 0.92442 0.42319 0.98458 0.0
H269 H 0.98245 0.44441 0.95974 0.0
H270 H 0.01281 0.47764 0.95987 0.0
H271 H 0.95382 0.53098 0.95561 0.0
N272 N 0.93411 0.44771 0.95532 0.0
H273 H 0.92382 0.4976 0.95469 0.0
C274 C 0.06445 0.59124 0.93361 0.0
C275 C 0.0686 0.57334 0.92061 0.0
C276 C 0.07677 0.58035 0.90406 0.0
C277 C 0.08148 0.60526 0.9003 0.0
C278 C 0.0769 0.62314 0.91314 0.0
C279 C 0.06829 0.61618 0.92958 0.0
C280 C 0.08213 0.58289 0.96143 0.0
C281 C 0.08788 0.60167 0.97338 0.0
C282 C 0.11175 0.60396 0.98035 0.0
C283 C 0.13043 0.5875 0.97537 0.0
C284 C 0.12429 0.56779 0.96418 0.0
C285 C 0.10041 0.56548 0.95727 0.0
C286 C 0.04126 0.56469 0.95349 0.0
C287 C 0.0449 0.54447 0.96487 0.0
C288 C 0.02686 0.52611 0.96644 0.0
C289 C 0.00459 0.52742 0.95682 0.0
C290 C 1.00061 0.54799 0.94596 0.0
C291 C 0.01849 0.56645 0.94454 0.0
C292 C 0.93226 0.43773 0.93787 0.0
C293 C 0.93648 0.41249 0.93538 0.0
C294 C 0.93292 0.40175 0.91893 0.0
C295 C 0.92468 0.41608 0.90472 0.0
C296 C 0.92089 0.44147 0.90711 0.0
C297 C 0.92489 0.45228 0.92349 0.0
C298 C 0.91102 0.448 0.96458 0.0
C299 C 0.88994 0.45992 0.95776 0.0
C300 C 0.8667 0.45526 0.96475 0.0
C301 C 0.86397 0.43867 0.97873 0.0
C302 C 0.88521 0.42815 0.98634 0.0
C303 C 0.90848 0.43272 0.97926 0.0
C304 C 0.95084 0.4683 0.95733 0.0
C305 C 0.97611 0.46332 0.95904 0.0
C306 C 0.99344 0.48241 0.95919 0.0
C307 C 0.9859 0.50716 0.95773 0.0
C308 C 0.96043 0.51219 0.95646 0.0
C309 C 0.9431 0.493 0.95613 0.0
H310 H 0.50938 0.40367 0.16654 0.0
N311 N 0.53318 0.41418 0.19622 0.0
H312 H 0.52737 0.39617 0.13769 0.0
H313 H 0.58176 0.41945 0.18761 0.0
H314 H 0.59975 0.41232 0.15887 0.0
H315 H 0.57192 0.41726 0.21944 0.0
H316 H 0.59181 0.38178 0.23401 0.0
H317 H 0.51473 0.36938 0.19954 0.0
H318 H 0.53453 0.33404 0.21383 0.0
H319 H 0.4928 0.42659 0.21353 0.0
H320 H 0.56035 0.457 0.19362 0.0
H321 H 0.47824 0.46806 0.22024 0.0
H322 H 0.54527 0.49817 0.19859 0.0
H323 H 0.42387 0.5731 0.19047 0.0
H324 H 0.40429 0.58047 0.1622 0.0
H325 H 0.47235 0.61082 0.14285 0.0
H326 H 0.4922 0.60293 0.17139 0.0
H327 H 0.49721 0.6236 0.20994 0.0
H328 H 0.4818 0.65921 0.22625 0.0
H329 H 0.41294 0.62121 0.23441 0.0
H330 H 0.4291 0.58501 0.21898 0.0
H331 H 0.4446 0.54176 0.20296 0.0
H332 H 0.46125 0.50064 0.20603 0.0
H333 H 0.53412 0.53152 0.21434 0.0
N334 N 0.47148 0.58443 0.19994 0.0
H335 H 0.51729 0.57268 0.20937 0.0
C336 C 0.54409 0.41235 0.17915 0.0
C337 C 0.52906 0.40587 0.16486 0.0
C338 C 0.53937 0.40143 0.14849 0.0
C339 C 0.56495 0.40361 0.14612 0.0
C340 C 0.57997 0.4107 0.16033 0.0
C341 C 0.56968 0.4148 0.17675 0.0
C342 C 0.54183 0.39582 0.20842 0.0
C343 C 0.56324 0.3993 0.2187 0.0
C344 C 0.57457 0.37909 0.22697 0.0
C345 C 0.56471 0.35528 0.22486 0.0
C346 C 0.54245 0.35224 0.21559 0.0
C347 C 0.53108 0.37236 0.20754 0.0
C348 C 0.52735 0.43849 0.20269 0.0
C349 C 0.50456 0.44221 0.21071 0.0
C350 C 0.49613 0.46605 0.21429 0.0
C351 C 0.51012 0.48687 0.20952 0.0
C352 C 0.53379 0.48291 0.2026 0.0
C353 C 0.54245 0.45905 0.19948 0.0
C354 C 0.45979 0.58705 0.18301 0.0
C355 C 0.43488 0.58084 0.18017 0.0
C356 C 0.42359 0.58516 0.16396 0.0
C357 C 0.43681 0.59618 0.15034 0.0
C358 C 0.4617 0.60242 0.15317 0.0
C359 C 0.47309 0.59777 0.16935 0.0
C360 C 0.46418 0.60195 0.21299 0.0
C361 C 0.47918 0.62261 0.21585 0.0
C362 C 0.47034 0.64289 0.2251 0.0
C363 C 0.44612 0.64295 0.23138 0.0
C364 C 0.43164 0.62158 0.22957 0.0
C365 C 0.44079 0.601 0.22069 0.0
C366 C 0.47986 0.56036 0.2053 0.0
C367 C 0.46414 0.53979 0.20536 0.0
C368 C 0.4738 0.51604 0.20744 0.0
C369 C 0.49933 0.51232 0.2101 0.0
C370 C 0.51457 0.5333 0.21166 0.0
C371 C 0.50496 0.55696 0.20907 0.0
H372 H 0.39573 0.92244 0.44651 0.0
N373 N 0.42681 0.95877 0.45823 0.0
H374 H 0.3918 0.90598 0.41715 0.0
H375 H 0.45635 0.96851 0.42961 0.0
H376 H 0.45218 0.95167 0.40041 0.0
H377 H 0.41703 0.93591 0.48816 0.0
H378 H 0.37614 0.92699 0.49992 0.0
H379 H 0.38378 0.98168 0.44831 0.0
H380 H 0.34314 0.97347 0.46022 0.0
H381 H 0.41787 0.00461 0.44425 0.0
H382 H 0.46928 0.96278 0.47574 0.0
H383 H 0.44649 0.03923 0.44388 0.0
H384 H 0.49851 0.99726 0.47503 0.0
H385 H 0.54428 0.13768 0.42951 0.0
H386 H 0.56207 0.14619 0.40071 0.0
H387 H 0.5903 0.07184 0.39889 0.0
H388 H 0.57218 0.06337 0.42742 0.0
H389 H 0.57978 0.05871 0.45824 0.0
H390 H 0.62086 0.06353 0.4715 0.0
H391 H 0.60861 0.14178 0.47637 0.0
H392 H 0.5673 0.13685 0.46346 0.0
H393 H 0.51594 0.07745 0.42459 0.0
H394 H 0.48529 0.0459 0.4292 0.0
H395 H 0.50727 0.04056 0.48349 0.0
N396 N 0.54885 0.09661 0.44846 0.0
H397 H 0.53846 0.07218 0.47897 0.0
C398 C 0.42502 0.94859 0.44051 0.0
C399 C 0.40782 0.92969 0.43659 0.0
C400 C 0.40561 0.92001 0.41973 0.0
C401 C 0.42123 0.92804 0.40641 0.0
C402 C 0.43959 0.94545 0.41039 0.0
C403 C 0.44167 0.9554 0.42722 0.0
C404 C 0.40364 0.95952 0.46744 0.0
C405 C 0.40104 0.94487 0.48242 0.0
C406 C 0.37764 0.93975 0.48909 0.0
C407 C 0.35637 0.94923 0.48082 0.0
C408 C 0.35916 0.96563 0.46672 0.0
C409 C 0.38253 0.97076 0.46009 0.0
C410 C 0.44133 0.98102 0.46018 0.0
C411 C 0.43496 0.00309 0.45155 0.0
C412 C 0.45162 0.02278 0.45108 0.0
C413 C 0.47497 0.02091 0.45921 0.0
C414 C 0.48067 0.99939 0.4687 0.0
C415 C 0.464 0.97967 0.46913 0.0
C416 C 0.55697 0.10003 0.43065 0.0
C417 C 0.55397 0.12316 0.42273 0.0
C418 C 0.56415 0.12798 0.40635 0.0
C419 C 0.5778 0.10975 0.3977 0.0
C420 C 0.58022 0.08634 0.40541 0.0
C421 C 0.56982 0.08146 0.42168 0.0
C422 C 0.57029 0.0975 0.45993 0.0
C423 C 0.58554 0.07678 0.46269 0.0
C424 C 0.60903 0.07953 0.47024 0.0
C425 C 0.61787 0.10305 0.4748 0.0
C426 C 0.6022 0.12348 0.4729 0.0
C427 C 0.57858 0.12066 0.46568 0.0
C428 C 0.53138 0.07641 0.45105 0.0
C429 C 0.51499 0.06922 0.43746 0.0
C430 C 0.49689 0.05135 0.44017 0.0
C431 C 0.49393 0.04048 0.45668 0.0
C432 C 0.50945 0.04815 0.4705 0.0
C433 C 0.52757 0.06618 0.46781 0.0
H434 H 0.04534 0.89497 0.68283 0.0
N435 N 0.06512 0.92891 0.70577 0.0
H436 H 0.05966 0.88565 0.65371 0.0
H437 H 0.10113 0.95127 0.68838 0.0
H438 H 0.11599 0.9416 0.6589 0.0
H439 H 0.10449 0.91825 0.72521 0.0
H440 H 0.11438 0.87839 0.73875 0.0
H441 H 0.03177 0.89148 0.71189 0.0
H442 H 0.04203 0.85145 0.72461 0.0
H443 H 0.01738 0.92235 0.69386 0.0
H444 H 0.06547 0.97233 0.72184 0.0
H445 H 0.98431 0.95234 0.69492 0.0
H446 H 0.03232 0.00307 0.72252 0.0
H447 H 0.88271 0.04315 0.69016 0.0
H448 H 0.86645 0.0559 0.66148 0.0
H449 H 0.93648 0.08979 0.64977 0.0
H450 H 0.95251 0.07698 0.6784 0.0
H451 H 0.9647 0.08611 0.70824 0.0
H452 H 0.96031 0.12753 0.72081 0.0
H453 H 0.8854 0.11069 0.73483 0.0
H454 H 0.88996 0.06911 0.72266 0.0
H455 H 0.94305 0.02042 0.6785 0.0
H456 H 0.97588 0.99076 0.68062 0.0
H457 H 0.99106 0.01337 0.73378 0.0
N458 N 0.92715 0.05246 0.7038 0.0
H459 H 0.95823 0.04395 0.73166 0.0
C460 C 0.07216 0.92399 0.68794 0.0
C461 C 0.06059 0.90552 0.67784 0.0
C462 C 0.069 0.89996 0.66113 0.0
C463 C 0.08916 0.91266 0.65407 0.0
C464 C 0.10037 0.93153 0.66397 0.0
C465 C 0.09194 0.93707 0.68077 0.0
C466 C 0.06759 0.90793 0.7173 0.0
C467 C 0.09043 0.90409 0.72566 0.0
C468 C 0.09607 0.88133 0.73332 0.0
C469 C 0.07902 0.86189 0.73251 0.0
C470 C 0.0555 0.8662 0.72528 0.0
C471 C 0.04967 0.88915 0.71797 0.0
C472 C 0.04413 0.94498 0.70786 0.0
C473 C 0.02087 0.9396 0.70047 0.0
C474 C 0.0019 0.95701 0.7009 0.0
C475 C 0.00572 0.98031 0.70858 0.0
C476 C 0.02867 0.98529 0.71658 0.0
C477 C 0.04764 0.96778 0.71619 0.0
C478 C 0.91869 0.05911 0.68642 0.0
C479 C 0.89452 0.05319 0.68132 0.0
C480 C 0.88532 0.06046 0.66497 0.0
C481 C 0.90017 0.07394 0.65342 0.0
C482 C 0.92449 0.07975 0.6585 0.0
C483 C 0.9337 0.07239 0.67482 0.0
C484 C 0.92762 0.07436 0.71462 0.0
C485 C 0.94763 0.09098 0.71455 0.0
C486 C 0.94512 0.11462 0.72169 0.0
C487 C 0.9225 0.12212 0.72869 0.0
C488 C 0.90301 0.10519 0.72955 0.0
C489 C 0.90566 0.08147 0.72273 0.0
C490 C 0.94862 0.03618 0.70453 0.0
C491 C 0.95371 0.01996 0.69054 0.0
C492 C 0.97238 0.00237 0.69185 0.0
C493 C 0.98623 0.99965 0.70735 0.0
C494 C 0.98107 0.0153 0.72151 0.0
C495 C 0.9623 0.03303 0.72021 0.0
Mn496 Mn 0.35225 0.65917 0.00764 0.0
Mn497 Mn 0.35958 0.59735 0.00806 0.0
C498 C 0.35938 0.63879 0.0339 0.0
C499 C 0.36846 0.6989 0.00503 0.0
C500 C 0.30971 0.62226 0.00399 0.0
O501 O 0.35929 0.6514 0.98212 0.0
O502 O 0.36606 0.61057 0.98433 0.0
C503 C 0.41321 0.59488 0.00144 0.0
N504 N 0.39348 0.58895 0.01147 0.0
C505 C 0.41854 0.56331 0.03019 0.0
C506 C 0.43912 0.56902 0.02001 0.0
C507 C 0.43647 0.58501 0.00565 0.0
C508 C 0.3959 0.57391 0.02548 0.0
H509 H 0.4112 0.60699 0.9903 0.0
C510 C 0.36537 0.63068 0.97555 0.0
O511 O 0.34526 0.69443 0.00209 0.0
O512 O 0.38232 0.68025 0.00915 0.0
N513 N 0.35436 0.58194 0.03021 0.0
C514 C 0.33309 0.57981 0.03941 0.0
C515 C 0.3328 0.56518 0.05456 0.0
C516 C 0.35422 0.55256 0.05991 0.0
C517 C 0.3759 0.55511 0.05025 0.0
C518 C 0.37514 0.57011 0.03537 0.0
H519 H 0.31648 0.58913 0.03517 0.0
O520 O 0.34909 0.66038 0.03361 0.0
O521 O 0.36541 0.62975 0.01878 0.0
O522 O 0.31751 0.6444 0.00511 0.0
O523 O 0.32396 0.60356 0.00474 0.0
C524 C 0.39826 0.54339 0.05481 0.0
C525 C 0.41962 0.54767 0.04489 0.0
H526 H 0.45707 0.56136 0.02317 0.0
H527 H 0.45229 0.58959 0.99777 0.0
H528 H 0.31603 0.56339 0.06199 0.0
H529 H 0.35382 0.54106 0.07148 0.0
H530 H 0.39933 0.53124 0.06604 0.0
H531 H 0.43681 0.53897 0.04875 0.0
Mn532 Mn 0.36515 0.86201 0.2585 0.0
Mn533 Mn 0.42706 0.86799 0.25923 0.0
C534 C 0.38586 0.8669 0.28493 0.0
C535 C 0.32599 0.8796 0.25585 0.0
C536 C 0.40082 0.81909 0.25381 0.0
O537 O 0.37322 0.86989 0.23307 0.0
O538 O 0.414 0.87699 0.23576 0.0
C539 C 0.4306 0.92214 0.25511 0.0
N540 N 0.43603 0.9013 0.26431 0.0
C541 C 0.46069 0.92411 0.28506 0.0
C542 C 0.45545 0.94583 0.27579 0.0
C543 C 0.44023 0.94485 0.2608 0.0
C544 C 0.45036 0.90208 0.27888 0.0
H545 H 0.41905 0.9214 0.24351 0.0
C546 C 0.39393 0.87645 0.22676 0.0
O547 O 0.3297 0.85643 0.2525 0.0
O548 O 0.34514 0.89262 0.26032 0.0
N549 N 0.44226 0.86008 0.28122 0.0
C550 C 0.44439 0.83769 0.28919 0.0
C551 C 0.45867 0.83554 0.30455 0.0
C552 C 0.47092 0.85631 0.31137 0.0
C553 C 0.4684 0.87916 0.30296 0.0
C554 C 0.45384 0.8802 0.28775 0.0
H555 H 0.43535 0.82159 0.28383 0.0
O556 O 0.36379 0.85765 0.28441 0.0
O557 O 0.39494 0.87354 0.26998 0.0
O558 O 0.37891 0.82702 0.25583 0.0
O559 O 0.41986 0.83296 0.2542 0.0
C560 C 0.47981 0.90094 0.30902 0.0
C561 C 0.47571 0.92345 0.30022 0.0
H562 H 0.46293 0.96337 0.28009 0.0
H563 H 0.43605 0.96154 0.25359 0.0
H564 H 0.46045 0.81787 0.31101 0.0
H565 H 0.48215 0.85449 0.32311 0.0
H566 H 0.49169 0.9006 0.3205 0.0
H567 H 0.48421 0.94015 0.30521 0.0
Mn568 Mn 0.15197 0.85194 0.49811 0.0
Mn569 Mn 0.08981 0.85508 0.49601 0.0
C570 C 0.13208 0.85578 0.47125 0.0
C571 C 0.19034 0.87136 0.50101 0.0
C572 C 0.11764 0.80717 0.50154 0.0
O573 O 0.14296 0.86007 0.5232 0.0
O574 O 0.10175 0.86284 0.52009 0.0
C575 C 0.08411 0.90865 0.5022 0.0
N576 N 0.07971 0.88838 0.49213 0.0
C577 C 0.05417 0.9117 0.47223 0.0
C578 C 0.05834 0.93282 0.48242 0.0
C579 C 0.07349 0.93131 0.49742 0.0
C580 C 0.06542 0.88969 0.47756 0.0
H581 H 0.09558 0.90752 0.51382 0.0
C582 C 0.12158 0.86422 0.52933 0.0
O583 O 0.18758 0.84811 0.50461 0.0
O584 O 0.17076 0.88333 0.49612 0.0
N585 N 0.07548 0.84839 0.47353 0.0
C586 C 0.07473 0.82674 0.46451 0.0
C587 C 0.06096 0.8253 0.44887 0.0
C588 C 0.04784 0.84599 0.44283 0.0
C589 C 0.04895 0.8681 0.45232 0.0
C590 C 0.06305 0.86846 0.46777 0.0
H591 H 0.08455 0.81071 0.46922 0.0
O592 O 0.15429 0.84702 0.47233 0.0
O593 O 0.12213 0.86231 0.48595 0.0
O594 O 0.13933 0.81639 0.50129 0.0
O595 O 0.0981 0.82007 0.4997 0.0
C596 C 0.03672 0.88983 0.44703 0.0
C597 C 0.03948 0.91165 0.4569 0.0
H598 H 0.05012 0.95032 0.47879 0.0
H599 H 0.07685 0.94755 0.50532 0.0
H600 H 0.06029 0.80822 0.44157 0.0
H601 H 0.03703 0.84472 0.43087 0.0
H602 H 0.02535 0.89005 0.4353 0.0
H603 H 0.03037 0.92835 0.45252 0.0
Mn604 Mn 0.17242 0.65521 0.75003 0.0
Mn605 Mn 0.17001 0.59304 0.75267 0.0
C606 C 0.1688 0.632 0.72475 0.0
C607 C 0.15326 0.69372 0.75063 0.0
C608 C 0.21748 0.62217 0.75638 0.0
O609 O 0.16453 0.64922 0.77566 0.0
O610 O 0.16138 0.6078 0.77556 0.0
C611 C 0.11631 0.58731 0.75795 0.0
N612 N 0.13698 0.58193 0.74875 0.0
C613 C 0.11464 0.55364 0.73024 0.0
C614 C 0.09311 0.55877 0.73955 0.0
C615 C 0.09394 0.57579 0.7534 0.0
C616 C 0.13633 0.56586 0.73526 0.0
H617 H 0.11693 0.60023 0.7687 0.0
C618 C 0.16007 0.62874 0.78322 0.0
O619 O 0.17658 0.69121 0.75419 0.0
O620 O 0.14094 0.67381 0.74694 0.0
N621 N 0.17764 0.576 0.73152 0.0
C622 C 0.19968 0.57425 0.72324 0.0
C623 C 0.20188 0.5584 0.70882 0.0
C624 C 0.18154 0.54425 0.70327 0.0
C625 C 0.15903 0.54642 0.71197 0.0
C626 C 0.15793 0.56256 0.72622 0.0
H627 H 0.21547 0.58479 0.72764 0.0
O628 O 0.17695 0.65449 0.72424 0.0
O629 O 0.16239 0.62381 0.74007 0.0
O630 O 0.20807 0.64343 0.75377 0.0
O631 O 0.20484 0.60232 0.75664 0.0
C632 C 0.13763 0.53324 0.70708 0.0
C633 C 0.1154 0.537 0.7161 0.0
H634 H 0.07584 0.54986 0.73612 0.0
H635 H 0.07739 0.57991 0.76062 0.0
H636 H 0.21928 0.55689 0.70212 0.0
H637 H 0.18343 0.53179 0.6923 0.0
H638 H 0.13797 0.52033 0.69628 0.0
H639 H 0.09896 0.52711 0.712 0.0
Mn640 Mn 0.84394 0.15585 0.50846 0.0
Mn641 Mn 0.84738 0.09373 0.50662 0.0
C642 C 0.84683 0.13323 0.53415 0.0
C643 C 0.86274 0.19457 0.50768 0.0
C644 C 0.7998 0.1223 0.50104 0.0
O645 O 0.8527 0.14926 0.48297 0.0
O646 O 0.85826 0.10818 0.48419 0.0
C647 C 0.90151 0.08807 0.50394 0.0
N648 N 0.87998 0.0827 0.51212 0.0
C649 C 0.90032 0.05382 0.53129 0.0
C650 C 0.9227 0.0589 0.52301 0.0
C651 C 0.92332 0.07624 0.50936 0.0
C652 C 0.87926 0.06641 0.52547 0.0
H653 H 0.902 0.10122 0.49334 0.0
C654 C 0.85918 0.12883 0.47611 0.0
O655 O 0.83958 0.19168 0.50374 0.0
O656 O 0.87513 0.17491 0.51185 0.0
N657 N 0.83781 0.07703 0.5275 0.0
C658 C 0.81511 0.07554 0.53486 0.0
C659 C 0.81148 0.05954 0.54905 0.0
C660 C 0.83109 0.04495 0.55528 0.0
C661 C 0.85432 0.04689 0.54754 0.0
C662 C 0.85687 0.06328 0.53354 0.0
H663 H 0.79985 0.08633 0.52987 0.0
O664 O 0.83852 0.15566 0.53422 0.0
O665 O 0.85387 0.12482 0.51906 0.0
O666 O 0.80864 0.14363 0.50423 0.0
O667 O 0.81285 0.10272 0.50093 0.0
C668 C 0.87505 0.03319 0.55312 0.0
C669 C 0.89808 0.03685 0.54513 0.0
H670 H 0.93953 0.04971 0.52709 0.0
H671 H 0.94053 0.08035 0.50295 0.0
H672 H 0.79353 0.05821 0.55502 0.0
H673 H 0.8281 0.03237 0.56606 0.0
H674 H 0.87355 0.01996 0.56366 0.0
H675 H 0.91399 0.0266 0.54979 0.0
Mn676 Mn 0.86204 0.34695 0.7584 0.0
Mn677 Mn 0.92419 0.35084 0.75993 0.0
C678 C 0.88225 0.35042 0.78517 0.0
C679 C 0.82344 0.36582 0.75561 0.0
C680 C 0.89658 0.30294 0.75354 0.0
O681 O 0.87082 0.35574 0.7333 0.0
O682 O 0.91189 0.36032 0.73632 0.0
C683 C 0.92994 0.40478 0.75566 0.0
N684 N 0.93439 0.38381 0.76497 0.0
C685 C 0.96067 0.40553 0.78531 0.0
C686 C 0.95645 0.42737 0.77592 0.0
C687 C 0.94089 0.42701 0.76109 0.0
C688 C 0.94906 0.384 0.77937 0.0
H689 H 0.9182 0.40451 0.74415 0.0
C690 C 0.89193 0.36126 0.72721 0.0
O691 O 0.82656 0.34274 0.75171 0.0
O692 O 0.8428 0.37796 0.76081 0.0
N693 N 0.93876 0.34252 0.78204 0.0
C694 C 0.93943 0.32028 0.79032 0.0
C695 C 0.95341 0.31771 0.8058 0.0
C696 C 0.96686 0.33788 0.8124 0.0
C697 C 0.96585 0.36059 0.80366 0.0
C698 C 0.95144 0.3621 0.78839 0.0
H699 H 0.92943 0.30464 0.78513 0.0
O700 O 0.86003 0.34156 0.78416 0.0
O701 O 0.89195 0.3573 0.77045 0.0
O702 O 0.87485 0.31166 0.755 0.0
O703 O 0.91606 0.31608 0.75482 0.0
C704 C 0.9785 0.38181 0.80949 0.0
C705 C 0.97577 0.40431 0.80041 0.0
H706 H 0.96493 0.44453 0.78004 0.0
H707 H 0.93749 0.4438 0.7538 0.0
H708 H 0.95402 0.30015 0.81252 0.0
H709 H 0.97782 0.33574 0.82424 0.0
H710 H 0.99023 0.38111 0.82104 0.0
H711 H 0.9852 0.4206 0.80523 0.0
Mn712 Mn 0.65575 0.35449 0.99513 0.0
Mn713 Mn 0.59431 0.359 0.98813 0.0
C714 C 0.64027 0.36074 0.96707 0.0
C715 C 0.6942 0.37238 0.00109 0.0
C716 C 0.62038 0.31039 0.995 0.0
O717 O 0.64284 0.36146 0.01958 0.0
O718 O 0.6024 0.36592 0.01307 0.0
C719 C 0.58768 0.41238 0.99466 0.0
N720 N 0.58498 0.39245 0.98397 0.0
C721 C 0.56268 0.41642 0.96256 0.0
C722 C 0.56502 0.43717 0.9734 0.0
C723 C 0.57772 0.43517 0.98947 0.0
C724 C 0.57308 0.39425 0.96839 0.0
H725 H 0.59732 0.41088 0.00705 0.0
C726 C 0.62065 0.36621 0.02389 0.0
O727 O 0.69008 0.34916 0.00404 0.0
O728 O 0.67569 0.38536 0.99542 0.0
N729 N 0.58397 0.35315 0.96449 0.0
C730 C 0.58521 0.33196 0.95497 0.0
C731 C 0.5746 0.33122 0.93813 0.0
C732 C 0.56254 0.35213 0.93138 0.0
C733 C 0.56152 0.37373 0.94142 0.0
C734 C 0.57258 0.37342 0.95805 0.0
H735 H 0.59423 0.31577 0.9602 0.0
O736 O 0.66189 0.35105 0.96956 0.0
O737 O 0.62819 0.36636 0.98111 0.0
O738 O 0.64214 0.3192 0.99634 0.0
O739 O 0.60143 0.32373 0.99199 0.0
C740 C 0.55012 0.39561 0.93556 0.0
C741 C 0.55079 0.41697 0.94608 0.0
H742 H 0.55738 0.45478 0.96944 0.0
H743 H 0.57974 0.45113 0.99786 0.0
H744 H 0.57556 0.31452 0.93043 0.0
H745 H 0.55426 0.35145 0.91842 0.0
H746 H 0.54097 0.39629 0.9229 0.0
H747 H 0.54239 0.43381 0.94127 0.0
Mn748 Mn 0.67054 0.15659 0.24744 0.0
Mn749 Mn 0.66813 0.09439 0.24809 0.0
C750 C 0.66847 0.13497 0.22132 0.0
C751 C 0.65091 0.19481 0.24877 0.0
C752 C 0.7151 0.12365 0.25458 0.0
O753 O 0.66153 0.14883 0.2727 0.0
O754 O 0.65668 0.10771 0.27075 0.0
C755 C 0.61409 0.08749 0.25027 0.0
N756 N 0.63581 0.08297 0.2421 0.0
C757 C 0.61619 0.05483 0.222 0.0
C758 C 0.59361 0.05906 0.23024 0.0
C759 C 0.59254 0.0756 0.24437 0.0
C760 C 0.63698 0.06742 0.22834 0.0
H761 H 0.61325 0.10002 0.26122 0.0
C762 C 0.65534 0.12805 0.27918 0.0
O763 O 0.67406 0.19234 0.2529 0.0
O764 O 0.63907 0.17501 0.24411 0.0
N765 N 0.6783 0.07879 0.22694 0.0
C766 C 0.70112 0.07813 0.21969 0.0
C767 C 0.70516 0.0631 0.20505 0.0
C768 C 0.68585 0.04859 0.19824 0.0
C769 C 0.6625 0.04964 0.20589 0.0
C770 C 0.65953 0.0651 0.22036 0.0
H771 H 0.71614 0.0889 0.22509 0.0
O772 O 0.67638 0.15755 0.22175 0.0
O773 O 0.66134 0.12582 0.23618 0.0
O774 O 0.70598 0.14494 0.2517 0.0
O775 O 0.70239 0.10383 0.25424 0.0
C776 C 0.64204 0.03598 0.19975 0.0
C777 C 0.61885 0.03875 0.20768 0.0
H778 H 0.57697 0.04984 0.22577 0.0
H779 H 0.57517 0.07903 0.25076 0.0
H780 H 0.7232 0.06246 0.19916 0.0
H781 H 0.68913 0.03678 0.18709 0.0
H782 H 0.64386 0.02344 0.18882 0.0
H783 H 0.60316 0.02854 0.2026 0.0
C784 C 0.19903 0.93159 0.28708 0.0
C785 C 0.18198 0.93906 0.27421 0.0
C786 C 0.22223 0.92232 0.28257 0.0
C787 C 0.2287 0.92062 0.26472 0.0
C788 C 0.21169 0.92837 0.25163 0.0
C789 C 0.18843 0.93734 0.25653 0.0
C790 C 0.23968 0.91399 0.29694 0.0
C791 C 0.21806 0.92712 0.23249 0.0
C792 C 0.29771 0.91591 0.25758 0.0
C793 C 0.3009 0.89037 0.25585 0.0
C794 C 0.27413 0.92617 0.25951 0.0
C795 C 0.25326 0.91049 0.25996 0.0
C796 C 0.25628 0.88478 0.2575 0.0
C797 C 0.28006 0.87505 0.25537 0.0
C798 C 0.27167 0.9537 0.26184 0.0
C799 C 0.23454 0.8674 0.25804 0.0
H800 H 0.19398 0.93243 0.30075 0.0
H801 H 0.17532 0.94318 0.24655 0.0
H802 H 0.24427 0.89422 0.29517 0.0
H803 H 0.25719 0.92451 0.29628 0.0
H804 H 0.2318 0.91648 0.31018 0.0
H805 H 0.20303 0.9344 0.22394 0.0
H806 H 0.2351 0.93785 0.23003 0.0
H807 H 0.22183 0.90776 0.2287 0.0
H808 H 0.31372 0.92789 0.25783 0.0
H809 H 0.28238 0.85529 0.25404 0.0
H810 H 0.26604 0.9578 0.27544 0.0
H811 H 0.25712 0.96108 0.25297 0.0
H812 H 0.28922 0.96357 0.25924 0.0
H813 H 0.22682 0.86721 0.27143 0.0
H814 H 0.23967 0.84824 0.25446 0.0
H815 H 0.2197 0.87377 0.24902 0.0
C816 C 0.08758 0.67274 0.53684 0.0
C817 C 0.0923 0.65362 0.52499 0.0
C818 C 0.09257 0.69741 0.53257 0.0
C819 C 0.10235 0.7032 0.51597 0.0
C820 C 0.10701 0.68401 0.50388 0.0
C821 C 0.10205 0.65944 0.50857 0.0
C822 C 0.0875 0.71728 0.54589 0.0
C823 C 0.11713 0.68946 0.48598 0.0
C824 C 0.09177 0.76891 0.50041 0.0
C825 C 0.11454 0.78019 0.50426 0.0
C826 C 0.08785 0.74376 0.50367 0.0
C827 C 0.10703 0.72945 0.51117 0.0
C828 C 0.13022 0.74053 0.51479 0.0
C829 C 0.13375 0.76573 0.51119 0.0
C830 C 0.06294 0.73264 0.49943 0.0
C831 C 0.15109 0.72591 0.52291 0.0
H832 H 0.08048 0.66835 0.54967 0.0
H833 H 0.10563 0.64475 0.49934 0.0
H834 H 0.10465 0.72776 0.54879 0.0
H835 H 0.07382 0.73055 0.54053 0.0
H836 H 0.08034 0.70967 0.55834 0.0
H837 H 0.11986 0.67246 0.47813 0.0
H838 H 0.10436 0.70186 0.47873 0.0
H839 H 0.13506 0.69921 0.48724 0.0
H840 H 0.07683 0.77979 0.49491 0.0
H841 H 0.15137 0.77425 0.51425 0.0
H842 H 0.054 0.72645 0.51165 0.0
H843 H 0.06513 0.71616 0.49099 0.0
H844 H 0.05046 0.74589 0.49266 0.0
H845 H 0.14569 0.71937 0.53608 0.0
H846 H 0.16829 0.73692 0.52422 0.0
H847 H 0.15496 0.70934 0.51489 0.0
C848 C 0.36287 0.59423 0.75959 0.0
C849 C 0.37424 0.60776 0.77304 0.0
C850 C 0.33754 0.597 0.75592 0.0
C851 C 0.32322 0.6131 0.76631 0.0
C852 C 0.33471 0.62669 0.77996 0.0
C853 C 0.36012 0.62406 0.78302 0.0
C854 C 0.32605 0.58262 0.74101 0.0
C855 C 0.32006 0.64354 0.79164 0.0
C856 C 0.26057 0.6366 0.75074 0.0
C857 C 0.2445 0.62012 0.75898 0.0
C858 C 0.28627 0.63414 0.75262 0.0
C859 C 0.29608 0.61518 0.76338 0.0
C860 C 0.27989 0.59867 0.77187 0.0
C861 C 0.25433 0.60113 0.76937 0.0
C862 C 0.30293 0.65175 0.74303 0.0
C863 C 0.28955 0.57863 0.78384 0.0
H864 H 0.37385 0.58164 0.7519 0.0
H865 H 0.3689 0.63425 0.79359 0.0
H866 H 0.31219 0.56951 0.74613 0.0
H867 H 0.31624 0.59532 0.73193 0.0
H868 H 0.33996 0.57207 0.73353 0.0
H869 H 0.33181 0.65279 0.80168 0.0
H870 H 0.31061 0.65789 0.7837 0.0
H871 H 0.30556 0.63281 0.7984 0.0
H872 H 0.25304 0.65111 0.74251 0.0
H873 H 0.24197 0.58842 0.77583 0.0
H874 H 0.31605 0.64128 0.73485 0.0
H875 H 0.31402 0.66264 0.75256 0.0
H876 H 0.29244 0.66471 0.73451 0.0
H877 H 0.30195 0.56616 0.77655 0.0
H878 H 0.2745 0.56746 0.78959 0.0
H879 H 0.3006 0.58694 0.79464 0.0
C880 C 0.41865 0.83911 0.00171 0.0
C881 C 0.4275 0.84479 0.01852 0.0
C882 C 0.4098 0.81534 0.99774 0.0
C883 C 0.40907 0.79718 0.01108 0.0
C884 C 0.41805 0.80294 0.02807 0.0
C885 C 0.42743 0.82657 0.03151 0.0
C886 C 0.40103 0.80971 0.97937 0.0
C887 C 0.41706 0.78438 0.04278 0.0
C888 C 0.36301 0.74439 0.00817 0.0
C889 C 0.37844 0.72429 0.00478 0.0
C890 C 0.37265 0.76834 0.00984 0.0
C891 C 0.39824 0.77236 0.00757 0.0
C892 C 0.41368 0.75226 0.00326 0.0
C893 C 0.40366 0.7284 0.00219 0.0
C894 C 0.35563 0.78913 0.01488 0.0
C895 C 0.44091 0.75587 0.00025 0.0
H896 H 0.41871 0.85327 0.99169 0.0
H897 H 0.43396 0.83113 0.04458 0.0
H898 H 0.41048 0.79303 0.97438 0.0
H899 H 0.38097 0.80568 0.97934 0.0
H900 H 0.40445 0.82525 0.97024 0.0
H901 H 0.42466 0.79184 0.05526 0.0
H902 H 0.39769 0.7786 0.04491 0.0
H903 H 0.42763 0.76763 0.03929 0.0
H904 H 0.34352 0.74126 0.01029 0.0
H905 H 0.41562 0.7129 -0.00057 0.0
H906 H 0.35707 0.80452 0.0054 0.0
H907 H 0.3612 0.79643 0.02791 0.0
H908 H 0.33606 0.78315 0.01546 0.0
H909 H 0.44393 0.77117 0.99087 0.0
H910 H 0.44981 0.73894 0.99512 0.0
H911 H 0.45021 0.76102 0.01272 0.0
C912 C 0.17528 0.59039 0.96822 0.0
C913 C 0.15655 0.59205 0.98067 0.0
C914 C 0.19991 0.59569 0.97265 0.0
C915 C 0.20607 0.60274 0.98999 0.0
C916 C 0.18728 0.60431 0.00267 0.0
C917 C 0.16273 0.59904 0.99784 0.0
C918 C 0.21933 0.59396 0.9587 0.0
C919 C 0.19314 0.61154 0.02133 0.0
C920 C 0.27317 0.59388 0.00344 0.0
C921 C 0.28284 0.61774 0.00142 0.0
C922 C 0.2481 0.58892 0.00027 0.0
C923 C 0.23224 0.60821 0.99479 0.0
C924 C 0.24172 0.63243 0.99308 0.0
C925 C 0.26687 0.63693 0.99648 0.0
C926 C 0.2387 0.56288 0.0024 0.0
C927 C 0.22542 0.65348 0.98718 0.0
H928 H 0.1706 0.58546 0.95485 0.0
H929 H 0.14836 0.60024 0.00754 0.0
H930 H 0.22864 0.61204 0.95717 0.0
H931 H 0.23365 0.58039 0.96264 0.0
H932 H 0.21149 0.58834 0.94581 0.0
H933 H 0.17647 0.61182 0.02963 0.0
H934 H 0.20666 0.59844 0.02711 0.0
H935 H 0.20177 0.6301 0.02166 0.0
H936 H 0.28524 0.57892 0.00741 0.0
H937 H 0.27411 0.65542 0.99486 0.0
H938 H 0.23234 0.55563 0.98955 0.0
H939 H 0.22263 0.56263 0.01125 0.0
H940 H 0.25305 0.55027 0.00776 0.0
H941 H 0.21843 0.64989 0.97372 0.0
H942 H 0.23532 0.67142 0.98726 0.0
H943 H 0.20915 0.65495 0.99578 0.0
C944 C 0.41548 0.6768 0.22823 0.0
C945 C 0.43527 0.66636 0.23754 0.0
C946 C 0.40769 0.70098 0.23166 0.0
C947 C 0.41966 0.71479 0.245 0.0
C948 C 0.43862 0.70368 0.2552 0.0
C949 C 0.44649 0.6797 0.25115 0.0
C950 C 0.38784 0.71227 0.22021 0.0
C951 C 0.4514 0.71754 0.26983 0.0
C952 C 0.42379 0.78434 0.2403 0.0
C953 C 0.40473 0.7924 0.2511 0.0
C954 C 0.42844 0.75914 0.23795 0.0
C955 C 0.41417 0.74153 0.24706 0.0
C956 C 0.39493 0.74956 0.25807 0.0
C957 C 0.3902 0.77494 0.25976 0.0
C958 C 0.44869 0.75137 0.22572 0.0
C959 C 0.37977 0.73139 0.26834 0.0
H960 H 0.40707 0.66656 0.21753 0.0
H961 H 0.46183 0.67158 0.25831 0.0
H962 H 0.37342 0.72095 0.22831 0.0
H963 H 0.39601 0.72701 0.21203 0.0
H964 H 0.37896 0.69848 0.21142 0.0
H965 H 0.46331 0.70531 0.27795 0.0
H966 H 0.46306 0.73235 0.26428 0.0
H967 H 0.43764 0.72647 0.27839 0.0
H968 H 0.43495 0.79782 0.23351 0.0
H969 H 0.37563 0.78117 0.26829 0.0
H970 H 0.44124 0.73848 0.21569 0.0
H971 H 0.46331 0.74142 0.23313 0.0
H972 H 0.45723 0.76732 0.21896 0.0
H973 H 0.37059 0.71811 0.25936 0.0
H974 H 0.36545 0.7406 0.2763 0.0
H975 H 0.39199 0.72058 0.2772 0.0
C976 C 0.32467 0.93666 0.503 0.0
C977 C 0.3315 0.93977 0.48549 0.0
C978 C 0.30175 0.92621 0.50731 0.0
C979 C 0.28544 0.91843 0.49378 0.0
C980 C 0.2922 0.9217 0.4761 0.0
C981 C 0.31506 0.93237 0.47218 0.0
C982 C 0.29507 0.92331 0.52631 0.0
C983 C 0.27549 0.91347 0.46126 0.0
C984 C 0.23652 0.86935 0.50138 0.0
C985 C 0.21487 0.88347 0.50129 0.0
C986 C 0.25974 0.88057 0.49958 0.0
C987 C 0.26137 0.90655 0.49792 0.0
C988 C 0.23965 0.92095 0.49873 0.0
C989 C 0.21666 0.90924 0.50026 0.0
C990 C 0.28242 0.86452 0.49861 0.0
C991 C 0.24059 0.9487 0.49728 0.0
H992 H 0.33727 0.94241 0.51334 0.0
H993 H 0.32039 0.93423 0.45862 0.0
H994 H 0.27727 0.93263 0.52888 0.0
H995 H 0.29258 0.9035 0.52944 0.0
H996 H 0.30938 0.93107 0.53525 0.0
H997 H 0.28342 0.91747 0.44822 0.0
H998 H 0.27207 0.89335 0.46223 0.0
H999 H 0.25737 0.92283 0.46215 0.0
H1000 H 0.23526 0.84944 0.50213 0.0
H1001 H 0.20002 0.92028 0.50032 0.0
H1002 H 0.29669 0.87099 0.50805 0.0
H1003 H 0.2904 0.86586 0.48534 0.0
H1004 H 0.27828 0.84484 0.50137 0.0
H1005 H 0.25451 0.95633 0.50656 0.0
H1006 H 0.22246 0.95736 0.49996 0.0
H1007 H 0.24629 0.954 0.4839 0.0
C1008 C 0.08711 0.81849 0.72384 0.0
C1009 C 0.08698 0.83653 0.73695 0.0
C1010 C 0.09711 0.79504 0.72702 0.0
C1011 C 0.10663 0.78928 0.74386 0.0
C1012 C 0.10563 0.80717 0.75736 0.0
C1013 C 0.09619 0.83078 0.75365 0.0
C1014 C 0.09839 0.7768 0.71213 0.0
C1015 C 0.11495 0.80152 0.7756 0.0
C1016 C 0.11606 0.72082 0.75264 0.0
C1017 C 0.14148 0.7183 0.75008 0.0
C1018 C 0.1046 0.74402 0.75142 0.0
C1019 C 0.11879 0.765 0.74697 0.0
C1020 C 0.14453 0.76252 0.74451 0.0
C1021 C 0.15561 0.73926 0.74636 0.0
C1022 C 0.07726 0.74602 0.75465 0.0
C1023 C 0.16023 0.78426 0.73929 0.0
H1024 H 0.0803 0.82312 0.71086 0.0
H1025 H 0.09609 0.8448 0.76376 0.0
H1026 H 0.11794 0.77218 0.70952 0.0
H1027 H 0.08894 0.75941 0.7157 0.0
H1028 H 0.08985 0.78404 0.69989 0.0
H1029 H 0.11072 0.81654 0.78497 0.0
H1030 H 0.10661 0.78413 0.7804 0.0
H1031 H 0.13521 0.79879 0.77544 0.0
H1032 H 0.10513 0.70466 0.75566 0.0
H1033 H 0.17525 0.73733 0.74426 0.0
H1034 H 0.06752 0.75115 0.74235 0.0
H1035 H 0.07362 0.76078 0.76433 0.0
H1036 H 0.06932 0.72846 0.75953 0.0
H1037 H 0.15361 0.79167 0.72654 0.0
H1038 H 0.18002 0.77931 0.7381 0.0
H1039 H 0.15859 0.79928 0.74905 0.0
C1040 C 0.69535 0.44052 0.75002 0.0
C1041 C 0.68135 0.43429 0.76469 0.0
C1042 C 0.71744 0.42808 0.74634 0.0
C1043 C 0.72597 0.40935 0.75783 0.0
C1044 C 0.71131 0.40225 0.7722 0.0
C1045 C 0.68913 0.41468 0.77537 0.0
C1046 C 0.73225 0.43583 0.73067 0.0
C1047 C 0.71983 0.38264 0.78493 0.0
C1048 C 0.77878 0.36606 0.74655 0.0
C1049 C 0.79878 0.37756 0.75504 0.0
C1050 C 0.75508 0.37662 0.74677 0.0
C1051 C 0.75125 0.39892 0.75598 0.0
C1052 C 0.77148 0.41076 0.76434 0.0
C1053 C 0.795 0.40006 0.76363 0.0
C1054 C 0.73409 0.36371 0.73741 0.0
C1055 C 0.76817 0.43436 0.77454 0.0
H1056 H 0.68936 0.45562 0.7417 0.0
H1057 H 0.67861 0.41004 0.78689 0.0
H1058 H 0.74909 0.44572 0.73513 0.0
H1059 H 0.73828 0.41942 0.72319 0.0
H1060 H 0.72161 0.44818 0.72179 0.0
H1061 H 0.70545 0.37791 0.7946 0.0
H1062 H 0.72509 0.36563 0.77785 0.0
H1063 H 0.73646 0.38925 0.79213 0.0
H1064 H 0.78161 0.34874 0.7398 0.0
H1065 H 0.81034 0.40902 0.77027 0.0
H1066 H 0.72437 0.37675 0.72853 0.0
H1067 H 0.72046 0.35714 0.74708 0.0
H1068 H 0.74047 0.34766 0.72966 0.0
H1069 H 0.75988 0.44877 0.76602 0.0
H1070 H 0.78585 0.44148 0.78001 0.0
H1071 H 0.75529 0.43118 0.78549 0.0
C1072 C 0.58723 0.17709 0.03075 0.0
C1073 C 0.59236 0.15762 0.01927 0.0
C1074 C 0.59208 0.20166 0.02611 0.0
C1075 C 0.60221 0.20697 0.00953 0.0
C1076 C 0.60712 0.18744 0.99778 0.0
C1077 C 0.60223 0.163 0.00281 0.0
C1078 C 0.58671 0.22191 0.03907 0.0
C1079 C 0.61768 0.19238 0.97993 0.0
C1080 C 0.59369 0.27266 0.99324 0.0
C1081 C 0.61652 0.28348 0.99755 0.0
C1082 C 0.58905 0.24765 0.9966 0.0
C1083 C 0.6076 0.23301 0.00459 0.0
C1084 C 0.63089 0.2436 0.0086 0.0
C1085 C 0.6351 0.26866 0.00497 0.0
C1086 C 0.56405 0.23703 0.99198 0.0
C1087 C 0.65112 0.22862 0.01719 0.0
H1088 H 0.58002 0.17307 0.0436 0.0
H1089 H 0.60609 0.14805 0.99384 0.0
H1090 H 0.60393 0.23205 0.04233 0.0
H1091 H 0.57362 0.23538 0.03322 0.0
H1092 H 0.57872 0.21471 0.05138 0.0
H1093 H 0.62006 0.17521 0.97221 0.0
H1094 H 0.60541 0.20506 0.97249 0.0
H1095 H 0.63586 0.20161 0.98131 0.0
H1096 H 0.57924 0.28382 0.98736 0.0
H1097 H 0.65278 0.27679 0.00839 0.0
H1098 H 0.55452 0.2313 0.00409 0.0
H1099 H 0.56616 0.22034 0.98375 0.0
H1100 H 0.55215 0.25044 0.98487 0.0
H1101 H 0.64512 0.22243 0.03031 0.0
H1102 H 0.66854 0.23924 0.01873 0.0
H1103 H 0.65488 0.21184 0.00937 0.0
C1104 C 0.85643 0.12512 0.28518 0.0
C1105 C 0.87063 0.10831 0.27573 0.0
C1106 C 0.8312 0.12813 0.28153 0.0
C1107 C 0.82008 0.1144 0.26779 0.0
C1108 C 0.83456 0.09788 0.25787 0.0
C1109 C 0.85964 0.09474 0.26215 0.0
C1110 C 0.81631 0.14544 0.2927 0.0
C1111 C 0.8235 0.08337 0.24286 0.0
C1112 C 0.75099 0.10286 0.26906 0.0
C1113 C 0.74189 0.12159 0.25812 0.0
C1114 C 0.77637 0.10046 0.27242 0.0
C1115 C 0.79311 0.11674 0.26425 0.0
C1116 C 0.78404 0.13547 0.25298 0.0
C1117 C 0.75849 0.1379 0.25025 0.0
C1118 C 0.78524 0.08068 0.28489 0.0
C1119 C 0.80134 0.15278 0.24369 0.0
H1120 H 0.86494 0.13535 0.29584 0.0
H1121 H 0.87072 0.08176 0.25486 0.0
H1122 H 0.80729 0.15966 0.28441 0.0
H1123 H 0.80147 0.13503 0.29933 0.0
H1124 H 0.8278 0.15484 0.30282 0.0
H1125 H 0.83759 0.07258 0.23573 0.0
H1126 H 0.80934 0.07046 0.24782 0.0
H1127 H 0.81414 0.09601 0.2335 0.0
H1128 H 0.73818 0.0903 0.27523 0.0
H1129 H 0.75152 0.15221 0.24162 0.0
H1130 H 0.79598 0.08915 0.29578 0.0
H1131 H 0.79773 0.0678 0.27805 0.0
H1132 H 0.76979 0.06991 0.29049 0.0
H1133 H 0.81218 0.16362 0.25338 0.0
H1134 H 0.79139 0.16578 0.23487 0.0
H1135 H 0.81467 0.14205 0.23584 0.0
C1136 C 0.92637 0.32059 0.53456 0.0
C1137 C 0.92727 0.33831 0.52125 0.0
C1138 C 0.91653 0.29706 0.5314 0.0
C1139 C 0.90797 0.29088 0.51438 0.0
C1140 C 0.90966 0.30848 0.50072 0.0
C1141 C 0.91892 0.33219 0.5044 0.0
C1142 C 0.91447 0.27913 0.54644 0.0
C1143 C 0.90136 0.30238 0.48231 0.0
C1144 C 0.89973 0.22212 0.50624 0.0
C1145 C 0.87421 0.21932 0.50816 0.0
C1146 C 0.91087 0.24549 0.50743 0.0
C1147 C 0.89621 0.2664 0.51119 0.0
C1148 C 0.87038 0.26365 0.51298 0.0
C1149 C 0.85966 0.2402 0.51118 0.0
C1150 C 0.93835 0.24775 0.50493 0.0
C1151 C 0.85416 0.28532 0.51747 0.0
H1152 H 0.93252 0.3255 0.54765 0.0
H1153 H 0.91963 0.34597 0.49414 0.0
H1154 H 0.89482 0.2743 0.54847 0.0
H1155 H 0.92435 0.2618 0.54338 0.0
H1156 H 0.92214 0.28675 0.55885 0.0
H1157 H 0.90585 0.31731 0.47292 0.0
H1158 H 0.9102 0.28505 0.4779 0.0
H1159 H 0.88114 0.29931 0.48197 0.0
H1160 H 0.911 0.20602 0.50375 0.0
H1161 H 0.83993 0.23807 0.51279 0.0
H1162 H 0.94736 0.25324 0.51744 0.0
H1163 H 0.94238 0.26238 0.49521 0.0
H1164 H 0.94673 0.2302 0.50046 0.0
H1165 H 0.85992 0.29304 0.53033 0.0
H1166 H 0.83436 0.28017 0.51809 0.0
H1167 H 0.85629 0.30017 0.50763 0.0
C1168 C 0.65876 0.12263 0.46986 0.0
C1169 C 0.64412 0.10664 0.47973 0.0
C1170 C 0.68401 0.1254 0.47354 0.0
C1171 C 0.69479 0.11227 0.48769 0.0
C1172 C 0.67993 0.09648 0.49795 0.0
C1173 C 0.6548 0.09358 0.49368 0.0
C1174 C 0.69928 0.14194 0.46201 0.0
C1175 C 0.69062 0.0826 0.51338 0.0
C1176 C 0.76391 0.1006 0.48711 0.0
C1177 C 0.77296 0.11988 0.49759 0.0
C1178 C 0.73853 0.09796 0.48375 0.0
C1179 C 0.72172 0.11463 0.49142 0.0
C1180 C 0.73073 0.13391 0.50225 0.0
C1181 C 0.75627 0.13649 0.50502 0.0
C1182 C 0.72973 0.07754 0.47178 0.0
C1183 C 0.71338 0.15171 0.51097 0.0
H1184 H 0.65053 0.13247 0.45891 0.0
H1185 H 0.64342 0.08125 0.50131 0.0
H1186 H 0.70821 0.1566 0.46997 0.0
H1187 H 0.7142 0.13107 0.45588 0.0
H1188 H 0.68809 0.15078 0.45149 0.0
H1189 H 0.67635 0.07211 0.52058 0.0
H1190 H 0.70489 0.06949 0.50887 0.0
H1191 H 0.69978 0.09563 0.52257 0.0
H1192 H 0.77674 0.08777 0.48127 0.0
H1193 H 0.76316 0.15126 0.5133 0.0
H1194 H 0.71937 0.08548 0.46051 0.0
H1195 H 0.71692 0.0652 0.47883 0.0
H1196 H 0.7452 0.06631 0.46669 0.0
H1197 H 0.70286 0.1622 0.50092 0.0
H1198 H 0.72326 0.16503 0.5196 0.0
H1199 H 0.69979 0.14142 0.5189 0.0
C1200 C 0.92995 0.15912 0.74762 0.0
C1201 C 0.91823 0.14825 0.73316 0.0
C1202 C 0.92585 0.18405 0.75173 0.0
C1203 C 0.9102 0.19847 0.74081 0.0
C1204 C 0.89847 0.18746 0.72612 0.0
C1205 C 0.90242 0.1624 0.7226 0.0
C1206 C 0.93827 0.19498 0.76771 0.0
C1207 C 0.88218 0.20227 0.71389 0.0
C1208 C 0.88299 0.259 0.75691 0.0
C1209 C 0.8997 0.27623 0.75022 0.0
C1210 C 0.88647 0.23357 0.7543 0.0
C1211 C 0.90673 0.22527 0.74435 0.0
C1212 C 0.92343 0.24267 0.73736 0.0
C1213 C 0.9199 0.26788 0.74058 0.0
C1214 C 0.86859 0.21557 0.7623 0.0
C1215 C 0.94486 0.23467 0.72627 0.0
H1216 H 0.94212 0.14804 0.75577 0.0
H1217 H 0.89352 0.15388 0.71134 0.0
H1218 H 0.95116 0.2098 0.76375 0.0
H1219 H 0.92429 0.20351 0.77631 0.0
H1220 H 0.94874 0.18099 0.77537 0.0
H1221 H 0.87449 0.19093 0.70302 0.0
H1222 H 0.86666 0.21046 0.72121 0.0
H1223 H 0.89287 0.21773 0.70823 0.0
H1224 H 0.86751 0.26537 0.76452 0.0
H1225 H 0.93277 0.28116 0.73528 0.0
H1226 H 0.87872 0.20226 0.77075 0.0
H1227 H 0.85918 0.20478 0.75186 0.0
H1228 H 0.85437 0.22492 0.77026 0.0
H1229 H 0.95716 0.22224 0.73388 0.0
H1230 H 0.95591 0.25055 0.72156 0.0
H1231 H 0.93799 0.22413 0.71476 0.0
C1232 C 0.82164 0.42348 0.97129 0.0
C1233 C 0.83897 0.43053 0.9841 0.0
C1234 C 0.79833 0.41451 0.97588 0.0
C1235 C 0.79199 0.41275 0.99376 0.0
C1236 C 0.80927 0.42014 0.00679 0.0
C1237 C 0.83267 0.42875 0.0018 0.0
C1238 C 0.78063 0.40652 0.96156 0.0
C1239 C 0.80306 0.41889 0.02596 0.0
C1240 C 0.72286 0.40857 0.00068 0.0
C1241 C 0.71937 0.38303 0.00215 0.0
C1242 C 0.7466 0.41867 0.99905 0.0
C1243 C 0.76732 0.40282 0.9986 0.0
C1244 C 0.764 0.37712 0.00094 0.0
C1245 C 0.74007 0.36755 0.00282 0.0
C1246 C 0.74936 0.4462 0.9969 0.0
C1247 C 0.78554 0.35954 0.00037 0.0
H1248 H 0.82657 0.42439 0.9576 0.0
H1249 H 0.846 0.43424 0.01174 0.0
H1250 H 0.77574 0.38681 0.9633 0.0
H1251 H 0.7633 0.4173 0.96232 0.0
H1252 H 0.78845 0.40897 0.9483 0.0
H1253 H 0.81822 0.42603 0.03444 0.0
H1254 H 0.78613 0.42972 0.0285 0.0
H1255 H 0.79916 0.39953 0.02973 0.0
H1256 H 0.70696 0.42067 0.00026 0.0
H1257 H 0.73753 0.34779 0.00391 0.0
H1258 H 0.75471 0.45044 0.98326 0.0
H1259 H 0.7642 0.45331 0.00565 0.0
H1260 H 0.73199 0.4562 -0.00024 0.0
H1261 H 0.79311 0.35919 0.98695 0.0
H1262 H 0.78022 0.34046 0.00404 0.0
H1263 H 0.80054 0.36582 0.0093 0.0
C1264 C 0.5864 0.31654 0.21737 0.0
C1265 C 0.57888 0.33321 0.23022 0.0
C1266 C 0.59899 0.29486 0.22185 0.0
C1267 C 0.60378 0.28948 0.2397 0.0
C1268 C 0.59645 0.30644 0.25276 0.0
C1269 C 0.58427 0.32833 0.24784 0.0
C1270 C 0.60688 0.27758 0.20747 0.0
C1271 C 0.60091 0.30114 0.27192 0.0
C1272 C 0.61305 0.22108 0.2479 0.0
C1273 C 0.63883 0.21927 0.24846 0.0
C1274 C 0.60136 0.24405 0.24611 0.0
C1275 C 0.61582 0.26568 0.24446 0.0
C1276 C 0.64185 0.26404 0.24561 0.0
C1277 C 0.65304 0.24086 0.24777 0.0
C1278 C 0.57355 0.24504 0.24527 0.0
C1279 C 0.65793 0.28658 0.24362 0.0
H1280 H 0.58236 0.32053 0.20372 0.0
H1281 H 0.57835 0.34128 0.25774 0.0
H1282 H 0.62694 0.27381 0.20861 0.0
H1283 H 0.59714 0.25969 0.20876 0.0
H1284 H 0.60292 0.28515 0.19423 0.0
H1285 H 0.59481 0.31653 0.28041 0.0
H1286 H 0.59082 0.28417 0.27569 0.0
H1287 H 0.62079 0.29768 0.27444 0.0
H1288 H 0.60198 0.20447 0.2486 0.0
H1289 H 0.67299 0.23957 0.24816 0.0
H1290 H 0.56745 0.25011 0.23184 0.0
H1291 H 0.56656 0.25942 0.25426 0.0
H1292 H 0.56499 0.2271 0.24873 0.0
H1293 H 0.65617 0.29371 0.23005 0.0
H1294 H 0.67769 0.28256 0.24636 0.0
H1295 H 0.65184 0.30146 0.25252 0.0
C1296 C 0.07919 0.89767 0.37678 0.0
C1297 C 0.09763 0.91208 0.36917 0.0
C1298 C 0.08294 0.88665 0.39322 0.0
C1299 C 0.10574 0.88995 0.40215 0.0
C1300 C 0.12472 0.9038 0.39418 0.0
C1301 C 0.12034 0.9149 0.37787 0.0
C1302 C 0.06212 0.87238 0.40129 0.0
C1303 C 0.1496 0.90709 0.40296 0.0
C1304 C 0.11256 0.88681 0.45154 0.0
C1305 C 0.1221 0.86309 0.454 0.0
C1306 C 0.1057 0.8952 0.43482 0.0
C1307 C 0.10963 0.8799 0.42011 0.0
C1308 C 0.11928 0.85586 0.42254 0.0
C1309 C 0.12536 0.84773 0.43949 0.0
C1310 C 0.09504 0.92077 0.43284 0.0
C1311 C 0.12433 0.83922 0.40717 0.0
H1312 H 0.06159 0.8956 0.37007 0.0
H1313 H 0.13475 0.92573 0.37183 0.0
H1314 H 0.06885 0.85482 0.40702 0.0
H1315 H 0.05427 0.88351 0.41199 0.0
H1316 H 0.04716 0.86823 0.39167 0.0
H1317 H 0.16291 0.91688 0.39447 0.0
H1318 H 0.14756 0.91779 0.41522 0.0
H1319 H 0.15745 0.88888 0.40657 0.0
H1320 H 0.11118 0.89911 0.46265 0.0
H1321 H 0.13333 0.82958 0.44139 0.0
H1322 H 0.07731 0.91989 0.42547 0.0
H1323 H 0.10776 0.93253 0.42523 0.0
H1324 H 0.09182 0.92975 0.44567 0.0
H1325 H 0.10756 0.8373 0.39883 0.0
H1326 H 0.13047 0.82056 0.41134 0.0
H1327 H 0.13889 0.84753 0.39896 0.0
C1328 C 0.13553 0.56563 0.63309 0.0
C1329 C 0.12218 0.58279 0.6231 0.0
C1330 C 0.14443 0.57164 0.64987 0.0
C1331 C 0.13998 0.59542 0.65678 0.0
C1332 C 0.12695 0.613 0.64655 0.0
C1333 C 0.11804 0.6064 0.62989 0.0
C1334 C 0.15793 0.55229 0.66036 0.0
C1335 C 0.12241 0.6388 0.65321 0.0
C1336 C 0.13941 0.60901 0.70551 0.0
C1337 C 0.16281 0.61933 0.70819 0.0
C1338 C 0.13228 0.59978 0.68905 0.0
C1339 C 0.14856 0.602 0.67477 0.0
C1340 C 0.17229 0.61234 0.67747 0.0
C1341 C 0.17913 0.62086 0.69418 0.0
C1342 C 0.10701 0.58846 0.6868 0.0
C1343 C 0.19 0.61552 0.66255 0.0
H1344 H 0.13855 0.54727 0.62792 0.0
H1345 H 0.108 0.61981 0.62207 0.0
H1346 H 0.14621 0.54658 0.6714 0.0
H1347 H 0.16229 0.5357 0.65245 0.0
H1348 H 0.17533 0.55984 0.66591 0.0
H1349 H 0.11294 0.65058 0.64332 0.0
H1350 H 0.11091 0.6381 0.6651 0.0
H1351 H 0.14017 0.64764 0.65695 0.0
H1352 H 0.12639 0.60888 0.71615 0.0
H1353 H 0.19703 0.6294 0.69621 0.0
H1354 H 0.1086 0.56987 0.68086 0.0
H1355 H 0.09566 0.59989 0.67777 0.0
H1356 H 0.09718 0.58678 0.69941 0.0
H1357 H 0.19276 0.59773 0.6557 0.0
H1358 H 0.20825 0.62259 0.66702 0.0
H1359 H 0.18213 0.62866 0.65285 0.0
C1360 C 0.43736 0.63211 0.88538 0.0
C1361 C 0.42442 0.61997 0.87195 0.0
C1362 C 0.42668 0.63566 0.90183 0.0
C1363 C 0.40237 0.62716 0.90478 0.0
C1364 C 0.38887 0.61581 0.89101 0.0
C1365 C 0.40015 0.61217 0.87479 0.0
C1366 C 0.4418 0.64753 0.91625 0.0
C1367 C 0.3628 0.60683 0.89358 0.0
C1368 C 0.38632 0.60886 0.9511 0.0
C1369 C 0.37362 0.62971 0.95712 0.0
C1370 C 0.39566 0.60787 0.93412 0.0
C1371 C 0.39196 0.62807 0.92269 0.0
C1372 C 0.37875 0.64899 0.92847 0.0
C1373 C 0.36987 0.64965 0.94569 0.0
C1374 C 0.4099 0.58531 0.92853 0.0
C1375 C 0.37416 0.67071 0.91653 0.0
H1376 H 0.45618 0.63804 0.88321 0.0
H1377 H 0.39001 0.60309 0.86431 0.0
H1378 H 0.43147 0.66303 0.92215 0.0
H1379 H 0.4454 0.63387 0.92678 0.0
H1380 H 0.45976 0.65458 0.91152 0.0
H1381 H 0.35405 0.6006 0.88113 0.0
H1382 H 0.36281 0.59119 0.90294 0.0
H1383 H 0.35135 0.62167 0.89928 0.0
H1384 H 0.3895 0.59338 0.95981 0.0
H1385 H 0.36004 0.6658 0.95019 0.0
H1386 H 0.42884 0.59068 0.92472 0.0
H1387 H 0.40091 0.5768 0.9169 0.0
H1388 H 0.41123 0.57122 0.93905 0.0
H1389 H 0.39198 0.67903 0.91268 0.0
H1390 H 0.36274 0.68516 0.92279 0.0
H1391 H 0.36471 0.6645 0.90435 0.0
C1392 C 0.40749 0.93424 0.13069 0.0
C1393 C 0.41445 0.91569 0.11895 0.0
C1394 C 0.40101 0.92847 0.14796 0.0
C1395 C 0.40155 0.90359 0.1536 0.0
C1396 C 0.40732 0.88471 0.14155 0.0
C1397 C 0.41364 0.89099 0.12438 0.0
C1398 C 0.39487 0.94911 0.16041 0.0
C1399 C 0.40807 0.85796 0.14702 0.0
C1400 C 0.41816 0.89043 0.20095 0.0
C1401 C 0.3953 0.8839 0.20808 0.0
C1402 C 0.42027 0.89715 0.18335 0.0
C1403 C 0.39898 0.89751 0.17248 0.0
C1404 C 0.37576 0.8913 0.17954 0.0
C1405 C 0.37418 0.88452 0.19727 0.0
C1406 C 0.44542 0.90355 0.17633 0.0
C1407 C 0.35267 0.8916 0.16833 0.0
H1408 H 0.40814 0.95336 0.1266 0.0
H1409 H 0.41846 0.87652 0.11526 0.0
H1410 H 0.37783 0.94476 0.16769 0.0
H1411 H 0.41001 0.95122 0.17018 0.0
H1412 H 0.39231 0.96699 0.15353 0.0
H1413 H 0.41055 0.84537 0.13571 0.0
H1414 H 0.42357 0.85504 0.15639 0.0
H1415 H 0.39084 0.85283 0.1538 0.0
H1416 H 0.43465 0.89012 0.2091 0.0
H1417 H 0.35641 0.87962 0.20262 0.0
H1418 H 0.44515 0.92232 0.17056 0.0
H1419 H 0.45036 0.8905 0.16576 0.0
H1420 H 0.46006 0.90288 0.1866 0.0
H1421 H 0.3503 0.90997 0.16216 0.0
H1422 H 0.33589 0.88725 0.17595 0.0
H1423 H 0.35431 0.87794 0.15761 0.0
C1424 C 0.11425 0.62631 0.88309 0.0
C1425 C 0.09252 0.61231 0.88338 0.0
C1426 C 0.12616 0.63136 0.86726 0.0
C1427 C 0.11581 0.62251 0.85137 0.0
C1428 C 0.09334 0.60916 0.85157 0.0
C1429 C 0.0821 0.60399 0.86761 0.0
C1430 C 0.1503 0.64523 0.86763 0.0
C1431 C 0.08149 0.59979 0.83488 0.0
C1432 C 0.13647 0.64814 0.80756 0.0
C1433 C 0.15129 0.62888 0.80145 0.0
C1434 C 0.12517 0.64664 0.82399 0.0
C1435 C 0.12926 0.62563 0.83464 0.0
C1436 C 0.14525 0.60676 0.82888 0.0
C1437 C 0.15584 0.60849 0.81228 0.0
C1438 C 0.10795 0.66695 0.82956 0.0
C1439 C 0.15056 0.58432 0.84001 0.0
H1440 H 0.12245 0.63253 0.89532 0.0
H1441 H 0.0652 0.59331 0.86785 0.0
H1442 H 0.16533 0.63291 0.86322 0.0
H1443 H 0.14956 0.66106 0.85846 0.0
H1444 H 0.15507 0.65219 0.88091 0.0
H1445 H 0.06305 0.59153 0.83714 0.0
H1446 H 0.07947 0.61504 0.82529 0.0
H1447 H 0.09346 0.5856 0.82889 0.0
H1448 H 0.13272 0.66382 0.79914 0.0
H1449 H 0.16743 0.59363 0.80765 0.0
H1450 H 0.11306 0.67366 0.84282 0.0
H1451 H 0.08887 0.65964 0.83026 0.0
H1452 H 0.10807 0.68281 0.82036 0.0
H1453 H 0.15661 0.58997 0.85333 0.0
H1454 H 0.16501 0.57238 0.83428 0.0
H1455 H 0.13349 0.57324 0.84142 0.0
C1456 C 0.42651 0.62466 0.12553 0.0
C1457 C 0.42445 0.60138 0.13334 0.0
C1458 C 0.41455 0.62988 0.10956 0.0
C1459 C 0.40059 0.61121 0.10105 0.0
C1460 C 0.39826 0.58777 0.10903 0.0
C1461 C 0.4102 0.58315 0.12507 0.0
C1462 C 0.4168 0.6554 0.10183 0.0
C1463 C 0.38394 0.56723 0.10039 0.0
C1464 C 0.35463 0.63109 0.06581 0.0
C1465 C 0.36874 0.62885 0.05067 0.0
C1466 C 0.36455 0.62492 0.0823 0.0
C1467 C 0.3891 0.61613 0.0836 0.0
C1468 C 0.40321 0.61336 0.06825 0.0
C1469 C 0.39305 0.62037 0.05203 0.0
C1470 C 0.3491 0.62866 0.09837 0.0
C1471 C 0.42925 0.60358 0.06902 0.0
H1472 H 0.43719 0.63892 0.13207 0.0
H1473 H 0.40875 0.56507 0.13102 0.0
H1474 H 0.42641 0.65444 0.08912 0.0
H1475 H 0.39819 0.66318 0.09924 0.0
H1476 H 0.42714 0.6682 0.11057 0.0
H1477 H 0.38013 0.55183 0.10956 0.0
H1478 H 0.36619 0.57399 0.09489 0.0
H1479 H 0.39497 0.55994 0.08947 0.0
H1480 H 0.33601 0.63826 0.06478 0.0
H1481 H 0.40439 0.61989 0.04047 0.0
H1482 H 0.35807 0.64246 0.10709 0.0
H1483 H 0.34776 0.6112 0.10586 0.0
H1484 H 0.33017 0.63511 0.09509 0.0
H1485 H 0.43741 0.60168 0.05583 0.0
H1486 H 0.4295 0.5853 0.07555 0.0
H1487 H 0.44112 0.6161 0.07692 0.0
C1488 C 0.43893 0.90987 0.37921 0.0
C1489 C 0.41836 0.91817 0.38842 0.0
C1490 C 0.43641 0.9004 0.3622 0.0
C1491 C 0.41284 0.89975 0.35404 0.0
C1492 C 0.392 0.90818 0.36331 0.0
C1493 C 0.395 0.91714 0.38042 0.0
C1494 C 0.4592 0.89177 0.35299 0.0
C1495 C 0.36653 0.90791 0.35511 0.0
C1496 C 0.40363 0.89876 0.30474 0.0
C1497 C 0.39668 0.87422 0.30189 0.0
C1498 C 0.41045 0.90701 0.32151 0.0
C1499 C 0.40964 0.89043 0.33581 0.0
C1500 C 0.40347 0.86539 0.33283 0.0
C1501 C 0.39679 0.85763 0.31591 0.0
C1502 C 0.41749 0.9337 0.32406 0.0
C1503 C 0.40305 0.84701 0.34765 0.0
H1504 H 0.45701 0.91052 0.3854 0.0
H1505 H 0.37909 0.92378 0.38747 0.0
H1506 H 0.45515 0.87613 0.34409 0.0
H1507 H 0.46648 0.90731 0.34518 0.0
H1508 H 0.47384 0.88605 0.36243 0.0
H1509 H 0.35226 0.9151 0.36408 0.0
H1510 H 0.36635 0.91928 0.34303 0.0
H1511 H 0.36145 0.88883 0.35127 0.0
H1512 H 0.4028 0.91173 0.29396 0.0
H1513 H 0.39112 0.83871 0.31366 0.0
H1514 H 0.43557 0.93498 0.33095 0.0
H1515 H 0.40364 0.94296 0.33237 0.0
H1516 H 0.41871 0.9438 0.31145 0.0
H1517 H 0.42083 0.84753 0.35498 0.0
H1518 H 0.39975 0.82789 0.34296 0.0
H1519 H 0.38829 0.85199 0.35694 0.0
C1520 C 0.10379 0.92431 0.62414 0.0
C1521 C 0.09826 0.90599 0.63644 0.0
C1522 C 0.11016 0.91806 0.60693 0.0
C1523 C 0.11102 0.89292 0.60196 0.0
C1524 C 0.10659 0.87436 0.61455 0.0
C1525 C 0.10029 0.88112 0.63163 0.0
C1526 C 0.11481 0.93838 0.59388 0.0
C1527 C 0.10743 0.84734 0.60981 0.0
C1528 C 0.09586 0.87649 0.55486 0.0
C1529 C 0.11925 0.87155 0.54797 0.0
C1530 C 0.09306 0.88366 0.57232 0.0
C1531 C 0.11414 0.88602 0.58328 0.0
C1532 C 0.13783 0.88122 0.57647 0.0
C1533 C 0.14012 0.87403 0.55889 0.0
C1534 C 0.06745 0.88855 0.57909 0.0
C1535 C 0.16071 0.88359 0.58779 0.0
H1536 H 0.10217 0.94356 0.62776 0.0
H1537 H 0.09653 0.86688 0.64119 0.0
H1538 H 0.13222 0.93494 0.5868 0.0
H1539 H 0.09967 0.9387 0.58399 0.0
H1540 H 0.11592 0.9568 0.6002 0.0
H1541 H 0.10561 0.83521 0.62143 0.0
H1542 H 0.0922 0.84301 0.60048 0.0
H1543 H 0.12498 0.84293 0.6032 0.0
H1544 H 0.07958 0.87475 0.5466 0.0
H1545 H 0.15827 0.87036 0.55372 0.0
H1546 H 0.06633 0.90759 0.58433 0.0
H1547 H 0.06335 0.87576 0.59 0.0
H1548 H 0.053 0.88626 0.56879 0.0
H1549 H 0.16195 0.90247 0.59331 0.0
H1550 H 0.17782 0.87971 0.58043 0.0
H1551 H 0.15968 0.87061 0.59897 0.0
C1552 C 0.64414 0.43601 0.87929 0.0
C1553 C 0.62356 0.43375 0.86804 0.0
C1554 C 0.64633 0.42181 0.89457 0.0
C1555 C 0.62692 0.40576 0.8993 0.0
C1556 C 0.60624 0.40309 0.888 0.0
C1557 C 0.60499 0.41681 0.87243 0.0
C1558 C 0.66933 0.42428 0.90579 0.0
C1559 C 0.58475 0.38673 0.89257 0.0
C1560 C 0.64009 0.35785 0.93453 0.0
C1561 C 0.63382 0.37079 0.94969 0.0
C1562 C 0.63741 0.36874 0.91794 0.0
C1563 C 0.62788 0.39299 0.91653 0.0
C1564 C 0.62094 0.40583 0.93181 0.0
C1565 C 0.62472 0.39485 0.94822 0.0
C1566 C 0.6457 0.35474 0.902 0.0
C1567 C 0.61008 0.43143 0.93084 0.0
H1568 H 0.65851 0.44922 0.87642 0.0
H1569 H 0.58926 0.41421 0.86378 0.0
H1570 H 0.66485 0.43364 0.91825 0.0
H1571 H 0.67678 0.40579 0.90912 0.0
H1572 H 0.68396 0.43506 0.89919 0.0
H1573 H 0.57452 0.38058 0.88067 0.0
H1574 H 0.59056 0.37025 0.90011 0.0
H1575 H 0.57187 0.39748 0.90071 0.0
H1576 H 0.64777 0.33946 0.93572 0.0
H1577 H 0.62123 0.40539 0.95996 0.0
H1578 H 0.66066 0.3651 0.89544 0.0
H1579 H 0.63023 0.35299 0.89245 0.0
H1580 H 0.65255 0.336 0.9053 0.0
H1581 H 0.62356 0.44445 0.92516 0.0
H1582 H 0.60471 0.43849 0.94389 0.0
H1583 H 0.59359 0.43133 0.9221 0.0
C1584 C 0.63978 0.07172 0.12785 0.0
C1585 C 0.62589 0.08869 0.11805 0.0
C1586 C 0.64869 0.07767 0.14464 0.0
C1587 C 0.64357 0.10115 0.15182 0.0
C1588 C 0.63025 0.11866 0.14172 0.0
C1589 C 0.62143 0.11216 0.12501 0.0
C1590 C 0.66261 0.05838 0.15489 0.0
C1591 C 0.62508 0.1442 0.14863 0.0
C1592 C 0.64043 0.1126 0.20075 0.0
C1593 C 0.66349 0.1232 0.20426 0.0
C1594 C 0.63427 0.10403 0.18393 0.0
C1595 C 0.65117 0.10725 0.17012 0.0
C1596 C 0.67453 0.11797 0.17362 0.0
C1597 C 0.68042 0.12579 0.19069 0.0
C1598 C 0.60938 0.09224 0.18082 0.0
C1599 C 0.69287 0.12217 0.15922 0.0
H1600 H 0.64308 0.05348 0.12258 0.0
H1601 H 0.61105 0.12548 0.11734 0.0
H1602 H 0.66918 0.04315 0.14643 0.0
H1603 H 0.67866 0.06651 0.16191 0.0
H1604 H 0.65009 0.05048 0.16475 0.0
H1605 H 0.61597 0.15616 0.13869 0.0
H1606 H 0.61298 0.14299 0.1602 0.0
H1607 H 0.64253 0.15314 0.15297 0.0
H1608 H 0.6269 0.11172 0.21105 0.0
H1609 H 0.69805 0.13454 0.19336 0.0
H1610 H 0.61173 0.07388 0.17466 0.0
H1611 H 0.59827 0.10369 0.17166 0.0
H1612 H 0.59891 0.08995 0.19312 0.0
H1613 H 0.69651 0.10468 0.15221 0.0
H1614 H 0.71066 0.12965 0.16425 0.0
H1615 H 0.68507 0.13535 0.14952 0.0
C1616 C 0.89992 0.11091 0.37701 0.0
C1617 C 0.92441 0.11822 0.37443 0.0
C1618 C 0.88823 0.11516 0.39299 0.0
C1619 C 0.90149 0.12664 0.40682 0.0
C1620 C 0.92599 0.13475 0.40411 0.0
C1621 C 0.93712 0.13059 0.38787 0.0
C1622 C 0.86197 0.10654 0.39528 0.0
C1623 C 0.94085 0.14674 0.4186 0.0
C1624 C 0.86685 0.14893 0.44694 0.0
C1625 C 0.86959 0.12869 0.45824 0.0
C1626 C 0.87707 0.1486 0.4301 0.0
C1627 C 0.89063 0.12773 0.42459 0.0
C1628 C 0.89364 0.10741 0.43601 0.0
C1629 C 0.88297 0.10807 0.45258 0.0
C1630 C 0.87323 0.17046 0.41816 0.0
C1631 C 0.90821 0.08491 0.43074 0.0
H1632 H 0.88995 0.1017 0.36651 0.0
H1633 H 0.95607 0.1362 0.38588 0.0
H1634 H 0.86156 0.09098 0.40469 0.0
H1635 H 0.85056 0.12157 0.40078 0.0
H1636 H 0.85344 0.10031 0.38276 0.0
H1637 H 0.95886 0.15382 0.41397 0.0
H1638 H 0.9304 0.16223 0.4244 0.0
H1639 H 0.94436 0.13313 0.42918 0.0
H1640 H 0.85654 0.16491 0.45119 0.0
H1641 H 0.88544 0.09239 0.46122 0.0
H1642 H 0.86358 0.16451 0.40599 0.0
H1643 H 0.89131 0.17819 0.41427 0.0
H1644 H 0.86227 0.18527 0.4244 0.0
H1645 H 0.89949 0.07614 0.41911 0.0
H1646 H 0.90944 0.07098 0.44138 0.0
H1647 H 0.92718 0.09035 0.42706 0.0
C1648 C 0.91426 0.3814 0.62561 0.0
C1649 C 0.91465 0.40636 0.6208 0.0
C1650 C 0.9077 0.37416 0.64253 0.0
C1651 C 0.90134 0.39232 0.65498 0.0
C1652 C 0.90046 0.41745 0.64996 0.0
C1653 C 0.90713 0.42419 0.6329 0.0
C1654 C 0.90876 0.34716 0.64732 0.0
C1655 C 0.89373 0.43734 0.66286 0.0
C1656 C 0.873 0.37059 0.69767 0.0
C1657 C 0.89383 0.36956 0.70874 0.0
C1658 C 0.875 0.37834 0.68018 0.0
C1659 C 0.89835 0.3852 0.67363 0.0
C1660 C 0.91934 0.38447 0.68478 0.0
C1661 C 0.91683 0.37669 0.70214 0.0
C1662 C 0.85222 0.37894 0.66865 0.0
C1663 C 0.94459 0.39162 0.67832 0.0
H1664 H 0.91955 0.3675 0.61618 0.0
H1665 H 0.90745 0.4435 0.62927 0.0
H1666 H 0.92405 0.34401 0.65683 0.0
H1667 H 0.89143 0.34141 0.65373 0.0
H1668 H 0.91175 0.3352 0.63574 0.0
H1669 H 0.89115 0.45554 0.65643 0.0
H1670 H 0.87654 0.4324 0.66976 0.0
H1671 H 0.90858 0.43909 0.67289 0.0
H1672 H 0.85514 0.36522 0.70262 0.0
H1673 H 0.93307 0.37616 0.71053 0.0
H1674 H 0.85436 0.36589 0.6576 0.0
H1675 H 0.84978 0.3976 0.66293 0.0
H1676 H 0.83529 0.37397 0.67589 0.0
H1677 H 0.95005 0.3792 0.6675 0.0
H1678 H 0.95893 0.39064 0.68879 0.0
H1679 H 0.94419 0.41066 0.67303 0.0
C1680 C 0.61469 0.10866 0.3784 0.0
C1681 C 0.58996 0.1152 0.38085 0.0
C1682 C 0.62628 0.1128 0.36235 0.0
C1683 C 0.6127 0.12344 0.34834 0.0
C1684 C 0.58789 0.13064 0.35087 0.0
C1685 C 0.57685 0.12657 0.36716 0.0
C1686 C 0.65284 0.10514 0.36024 0.0
C1687 C 0.57272 0.14176 0.33619 0.0
C1688 C 0.64679 0.14738 0.30845 0.0
C1689 C 0.64494 0.12716 0.29705 0.0
C1690 C 0.63649 0.14647 0.32525 0.0
C1691 C 0.62378 0.12499 0.33065 0.0
C1692 C 0.62174 0.10463 0.31916 0.0
C1693 C 0.63244 0.10591 0.3026 0.0
C1694 C 0.63927 0.16842 0.33725 0.0
C1695 C 0.60813 0.08147 0.32433 0.0
H1696 H 0.62498 0.10024 0.38908 0.0
H1697 H 0.55771 0.13156 0.36901 0.0
H1698 H 0.65394 0.0897 0.35077 0.0
H1699 H 0.6638 0.12063 0.35489 0.0
H1700 H 0.66141 0.09912 0.3728 0.0
H1701 H 0.55427 0.14789 0.34061 0.0
H1702 H 0.58248 0.15777 0.33047 0.0
H1703 H 0.57015 0.12796 0.32561 0.0
H1704 H 0.65642 0.16385 0.3043 0.0
H1705 H 0.63066 0.09022 0.29389 0.0
H1706 H 0.64886 0.16282 0.34952 0.0
H1707 H 0.62083 0.17545 0.34092 0.0
H1708 H 0.64981 0.18367 0.33114 0.0
H1709 H 0.61699 0.07316 0.33608 0.0
H1710 H 0.60777 0.06747 0.31372 0.0
H1711 H 0.58885 0.08602 0.3278 0.0
C1712 C 0.89472 0.1057 0.62985 0.0
C1713 C 0.89038 0.08178 0.63607 0.0
C1714 C 0.88604 0.11312 0.6133 0.0
C1715 C 0.87292 0.09613 0.60262 0.0
C1716 C 0.86799 0.07216 0.60904 0.0
C1717 C 0.87684 0.06525 0.62565 0.0
C1718 C 0.89104 0.13911 0.60719 0.0
C1719 C 0.85424 0.0534 0.59817 0.0
C1720 C 0.83546 0.12255 0.56466 0.0
C1721 C 0.85223 0.12084 0.55092 0.0
C1722 C 0.84165 0.11395 0.58148 0.0
C1723 C 0.86515 0.10332 0.58456 0.0
C1724 C 0.88191 0.10105 0.57058 0.0
C1725 C 0.87544 0.11038 0.55402 0.0
C1726 C 0.82343 0.11712 0.59608 0.0
C1727 C 0.90695 0.08942 0.57323 0.0
H1728 H 0.9048 0.11869 0.63801 0.0
H1729 H 0.87365 0.04665 0.63031 0.0
H1730 H 0.90298 0.13873 0.59551 0.0
H1731 H 0.87351 0.14821 0.60327 0.0
H1732 H 0.90025 0.15046 0.61745 0.0
H1733 H 0.83798 0.06178 0.59157 0.0
H1734 H 0.86674 0.0465 0.58796 0.0
H1735 H 0.84799 0.03744 0.60609 0.0
H1736 H 0.8177 0.13118 0.56231 0.0
H1737 H 0.88884 0.11017 0.54362 0.0
H1738 H 0.83127 0.12968 0.60617 0.0
H1739 H 0.81989 0.09916 0.60253 0.0
H1740 H 0.80557 0.12482 0.59137 0.0
H1741 H 0.91801 0.10044 0.58271 0.0
H1742 H 0.91736 0.08804 0.56084 0.0
H1743 H 0.90485 0.07067 0.57884 0.0
C1744 C 0.93744 0.38988 0.87949 0.0
C1745 C 0.91957 0.40451 0.88751 0.0
C1746 C 0.93303 0.37934 0.86298 0.0
C1747 C 0.9101 0.38335 0.85437 0.0
C1748 C 0.89168 0.39745 0.86275 0.0
C1749 C 0.89676 0.40811 0.87912 0.0
C1750 C 0.95335 0.36486 0.8545 0.0
C1751 C 0.86662 0.40138 0.85437 0.0
C1752 C 0.90214 0.38113 0.805 0.0
C1753 C 0.89247 0.35746 0.80242 0.0
C1754 C 0.90932 0.38922 0.82174 0.0
C1755 C 0.90551 0.37372 0.83637 0.0
C1756 C 0.89559 0.34979 0.83383 0.0
C1757 C 0.88928 0.34192 0.81685 0.0
C1758 C 0.92032 0.41465 0.82382 0.0
C1759 C 0.89066 0.33295 0.84912 0.0
H1760 H 0.95514 0.38721 0.88596 0.0
H1761 H 0.88279 0.41912 0.88548 0.0
H1762 H 0.94605 0.3482 0.84783 0.0
H1763 H 0.96208 0.37667 0.84452 0.0
H1764 H 0.96779 0.35917 0.8641 0.0
H1765 H 0.85377 0.41121 0.86317 0.0
H1766 H 0.86851 0.4123 0.84219 0.0
H1767 H 0.85832 0.38338 0.85069 0.0
H1768 H 0.90338 0.39362 0.79399 0.0
H1769 H 0.88119 0.32382 0.81488 0.0
H1770 H 0.93831 0.4134 0.83084 0.0
H1771 H 0.90806 0.42634 0.83183 0.0
H1772 H 0.92316 0.42393 0.81105 0.0
H1773 H 0.90774 0.33029 0.85702 0.0
H1774 H 0.8837 0.3146 0.84489 0.0
H1775 H 0.87681 0.34153 0.85778 0.0
C1776 C 0.59252 0.41426 0.12116 0.0
C1777 C 0.57594 0.39785 0.12894 0.0
C1778 C 0.60213 0.40944 0.10452 0.0
C1779 C 0.59523 0.38754 0.09563 0.0
C1780 C 0.5792 0.3705 0.10375 0.0
C1781 C 0.56961 0.37596 0.12026 0.0
C1782 C 0.61889 0.4282 0.09619 0.0
C1783 C 0.57165 0.34681 0.0948 0.0
C1784 C 0.59369 0.38582 0.04611 0.0
C1785 C 0.61526 0.37271 0.04228 0.0
C1786 C 0.58745 0.39141 0.06338 0.0
C1787 C 0.60294 0.38336 0.07726 0.0
C1788 C 0.62497 0.37047 0.07353 0.0
C1789 C 0.631 0.36546 0.05603 0.0
C1790 C 0.56398 0.40554 0.06678 0.0
C1791 C 0.64178 0.36137 0.08802 0.0
H1792 H 0.59736 0.43123 0.12786 0.0
H1793 H 0.5571 0.36308 0.1264 0.0
H1794 H 0.63605 0.41925 0.09166 0.0
H1795 H 0.60959 0.43626 0.08451 0.0
H1796 H 0.62389 0.4434 0.10531 0.0
H1797 H 0.56075 0.33462 0.10347 0.0
H1798 H 0.56037 0.35104 0.08298 0.0
H1799 H 0.5882 0.3366 0.09042 0.0
H1800 H 0.58153 0.39174 0.03557 0.0
H1801 H 0.64766 0.35527 0.05317 0.0
H1802 H 0.56799 0.42193 0.07502 0.0
H1803 H 0.55091 0.39375 0.07406 0.0
H1804 H 0.55479 0.41178 0.05449 0.0
H1805 H 0.64708 0.37683 0.09679 0.0
H1806 H 0.6588 0.3527 0.08293 0.0
H1807 H 0.63187 0.34762 0.09608 0.0
loop_
_geom_bond_atom_site_label_1
_geom_bond_atom_site_label_2
_geom_bond_distance
_geom_bond_site_symmetry_2
_ccdc_geom_bond_type
H0 C27 0.929 . S
N1 C26 1.433 . S
N1 C32 1.435 . S
N1 C38 1.423 . S
H2 C28 0.930 . S
H3 C31 0.931 . S
H4 C30 0.929 . S
H5 C33 0.930 . S
H6 C34 0.932 . S
H7 C37 0.929 . S
H8 C36 0.931 . S
H9 C39 0.929 . S
H10 C43 0.932 . S
H11 C40 0.931 . S
H12 C42 0.929 . S
H13 C45 0.929 . S
H14 C46 0.930 . S
H15 C48 0.929 . S
H16 C49 0.931 . S
H17 C51 0.930 . S
H18 C52 0.932 . S
H19 C54 0.931 . S
H20 C55 0.929 . S
H21 C57 0.929 . S
H22 C58 0.931 . S
H23 C60 0.929 . S
N24 C44 1.433 . S
N24 C50 1.435 . S
N24 C56 1.423 . S
H25 C61 0.932 . S
C26 N1 1.433 . S
C26 C27 1.363 . S
C26 C31 1.370 . S
C27 H0 0.929 . S
C27 C26 1.363 . S
C27 C28 1.385 . S
C28 H2 0.930 . S
C28 C27 1.385 . S
C28 C29 1.357 . S
C29 C28 1.357 . S
C29 C30 1.406 . S
C30 H4 0.929 . S
C30 C29 1.406 . S
C30 C31 1.391 . S
C31 H3 0.931 . S
C31 C26 1.370 . S
C31 C30 1.391 . S
C32 N1 1.435 . S
C32 C33 1.358 . S
C32 C37 1.371 . S
C33 H5 0.930 . S
C33 C32 1.358 . S
C33 C34 1.405 . S
C34 H6 0.932 . S
C34 C33 1.405 . S
C34 C35 1.383 . S
C35 C34 1.383 . S
C35 C36 1.393 . S
C36 H8 0.931 . S
C36 C35 1.393 . S
C36 C37 1.382 . S
C37 H7 0.929 . S
C37 C32 1.371 . S
C37 C36 1.382 . S
C38 N1 1.423 . S
C38 C39 1.362 . S
C38 C43 1.388 . S
C39 H9 0.929 . S
C39 C38 1.362 . S
C39 C40 1.376 1_565 S
C40 H11 0.931 . S
C40 C39 1.376 1_545 S
C40 C41 1.396 . S
C41 C40 1.396 . S
C41 C42 1.348 1_545 S
C41 C59 1.472 . S
C42 H12 0.929 . S
C42 C41 1.348 1_565 S
C42 C43 1.443 . S
C43 H10 0.932 . S
C43 C38 1.388 . S
C43 C42 1.443 . S
C44 N24 1.433 . S
C44 C45 1.363 . S
C44 C49 1.370 . S
C45 H13 0.929 . S
C45 C44 1.363 . S
C45 C46 1.385 . S
C46 H14 0.930 . S
C46 C45 1.385 . S
C46 C47 1.357 . S
C47 C46 1.357 . S
C47 C48 1.406 . S
C48 H15 0.929 . S
C48 C47 1.406 . S
C48 C49 1.391 . S
C49 H16 0.931 . S
C49 C44 1.370 . S
C49 C48 1.391 . S
C50 N24 1.435 . S
C50 C51 1.358 . S
C50 C55 1.371 . S
C51 H17 0.930 . S
C51 C50 1.358 . S
C51 C52 1.405 . S
C52 H18 0.932 . S
C52 C51 1.405 . S
C52 C53 1.383 . S
C53 C52 1.383 . S
C53 C54 1.393 . S
C54 H19 0.931 . S
C54 C53 1.393 . S
C54 C55 1.382 . S
C55 H20 0.929 . S
C55 C50 1.371 . S
C55 C54 1.382 . S
C56 N24 1.423 . S
C56 C57 1.362 . S
C56 C61 1.388 . S
C57 H21 0.929 . S
C57 C56 1.362 . S
C57 C58 1.376 1_655 S
C58 H22 0.931 . S
C58 C57 1.376 1_455 S
C58 C59 1.396 . S
C59 C41 1.472 . S
C59 C58 1.396 . S
C59 C60 1.348 1_455 S
C60 H23 0.929 . S
C60 C59 1.348 1_655 S
C60 C61 1.443 . S
C61 H25 0.932 . S
C61 C56 1.388 . S
C61 C60 1.443 . S
H62 C89 0.929 . S
N63 C88 1.433 . S
N63 C94 1.435 . S
N63 C100 1.423 . S
H64 C90 0.930 . S
H65 C93 0.931 . S
H66 C92 0.929 . S
H67 C95 0.930 . S
H68 C96 0.932 . S
H69 C99 0.929 . S
H70 C98 0.931 . S
H71 C101 0.925 1_455 S
H72 C105 0.932 . S
H73 C102 0.931 . S
H74 C104 0.929 . S
H75 C107 0.929 . S
H76 C108 0.930 . S
H77 C110 0.929 . S
H78 C111 0.931 . S
H79 C113 0.930 . S
H80 C114 0.932 . S
H81 C116 0.931 . S
H82 C117 0.929 . S
H83 C119 0.929 . S
H84 C120 0.931 . S
H85 C122 0.929 . S
N86 C106 1.433 . S
N86 C112 1.435 . S
N86 C118 1.423 . S
H87 C123 0.932 . S
C88 N63 1.433 . S
C88 C89 1.363 . S
C88 C93 1.370 . S
C89 H62 0.929 . S
C89 C88 1.363 . S
C89 C90 1.385 . S
C90 H64 0.930 . S
C90 C89 1.385 . S
C90 C91 1.357 . S
C91 C90 1.357 . S
C91 C92 1.406 . S
C92 H66 0.929 . S
C92 C91 1.406 . S
C92 C93 1.391 . S
C93 H65 0.931 . S
C93 C88 1.370 . S
C93 C92 1.391 . S
C94 N63 1.435 . S
C94 C95 1.358 . S
C94 C99 1.371 . S
C95 H67 0.930 . S
C95 C94 1.358 . S
C95 C96 1.405 . S
C96 H68 0.932 . S
C96 C95 1.405 . S
C96 C97 1.383 . S
C97 C96 1.383 . S
C97 C98 1.393 . S
C98 H70 0.931 . S
C98 C97 1.393 . S
C98 C99 1.382 . S
C99 H69 0.929 . S
C99 C94 1.371 . S
C99 C98 1.382 . S
C100 N63 1.423 . S
C100 C101 1.362 . S
C100 C105 1.388 . S
C101 H71 0.925 1_655 S
C101 C100 1.362 . S
C101 C102 1.376 1_655 S
C102 H73 0.931 . S
C102 C101 1.376 1_455 S
C102 C103 1.396 . S
C103 C102 1.396 . S
C103 C104 1.348 1_455 S
C103 C121 1.472 . S
C104 H74 0.929 . S
C104 C103 1.348 1_655 S
C104 C105 1.443 . S
C105 H72 0.932 . S
C105 C100 1.388 . S
C105 C104 1.443 . S
C106 N86 1.433 . S
C106 C107 1.363 . S
C106 C111 1.370 . S
C107 H75 0.929 . S
C107 C106 1.363 . S
C107 C108 1.385 . S
C108 H76 0.930 . S
C108 C107 1.385 . S
C108 C109 1.357 . S
C109 C108 1.357 . S
C109 C110 1.406 . S
C110 H77 0.929 . S
C110 C109 1.406 . S
C110 C111 1.391 . S
C111 H78 0.931 . S
C111 C106 1.370 . S
C111 C110 1.391 . S
C112 N86 1.435 . S
C112 C113 1.358 . S
C112 C117 1.371 . S
C113 H79 0.930 . S
C113 C112 1.358 . S
C113 C114 1.405 . S
C114 H80 0.932 . S
C114 C113 1.405 . S
C114 C115 1.383 . S
C115 C114 1.383 . S
C115 C116 1.393 . S
C116 H81 0.931 . S
C116 C115 1.393 . S
C116 C117 1.382 . S
C117 H82 0.929 . S
C117 C112 1.371 . S
C117 C116 1.382 . S
C118 N86 1.423 . S
C118 C119 1.362 . S
C118 C123 1.388 . S
C119 H83 0.929 . S
C119 C118 1.362 . S
C119 C120 1.376 . S
C120 H84 0.931 . S
C120 C119 1.376 . S
C120 C121 1.396 . S
C121 C103 1.472 . S
C121 C120 1.396 . S
C121 C122 1.348 . S
C122 H85 0.929 . S
C122 C121 1.348 . S
C122 C123 1.443 . S
C123 H87 0.932 . S
C123 C118 1.388 . S
C123 C122 1.443 . S
H124 C151 0.929 . S
N125 C150 1.433 . S
N125 C156 1.435 . S
N125 C162 1.423 . S
H126 C152 0.930 . S
H127 C155 0.931 . S
H128 C154 0.929 . S
H129 C157 0.930 . S
H130 C158 0.932 . S
H131 C161 0.929 . S
H132 C160 0.931 . S
H133 C163 0.929 . S
H134 C167 0.932 . S
H135 C164 0.931 . S
H136 C166 0.929 . S
H137 C169 0.929 . S
H138 C170 0.930 . S
H139 C172 0.929 . S
H140 C173 0.931 . S
H141 C175 0.930 . S
H142 C176 0.932 . S
H143 C178 0.931 . S
H144 C179 0.929 . S
H145 C181 0.929 . S
H146 C182 0.931 . S
H147 C184 0.929 . S
N148 C168 1.433 . S
N148 C174 1.435 . S
N148 C180 1.423 . S
H149 C185 0.932 . S
C150 N125 1.433 . S
C150 C151 1.363 . S
C150 C155 1.370 . S
C151 H124 0.929 . S
C151 C150 1.363 . S
C151 C152 1.385 . S
C152 H126 0.930 . S
C152 C151 1.385 . S
C152 C153 1.357 . S
C153 C152 1.357 . S
C153 C154 1.406 . S
C154 H128 0.929 . S
C154 C153 1.406 . S
C154 C155 1.391 . S
C155 H127 0.931 . S
C155 C150 1.370 . S
C155 C154 1.391 . S
C156 N125 1.435 . S
C156 C157 1.358 . S
C156 C161 1.371 . S
C157 H129 0.930 . S
C157 C156 1.358 . S
C157 C158 1.405 . S
C158 H130 0.932 . S
C158 C157 1.405 . S
C158 C159 1.383 . S
C159 C158 1.383 . S
C159 C160 1.393 . S
C160 H132 0.931 . S
C160 C159 1.393 . S
C160 C161 1.382 . S
C161 H131 0.929 . S
C161 C156 1.371 . S
C161 C160 1.382 . S
C162 N125 1.423 . S
C162 C163 1.362 . S
C162 C167 1.388 . S
C163 H133 0.929 . S
C163 C162 1.362 . S
C163 C164 1.376 . S
C164 H135 0.931 . S
C164 C163 1.376 . S
C164 C165 1.396 . S
C165 C164 1.396 . S
C165 C166 1.348 . S
C165 C183 1.472 . S
C166 H136 0.929 . S
C166 C165 1.348 . S
C166 C167 1.443 . S
C167 H134 0.932 . S
C167 C162 1.388 . S
C167 C166 1.443 . S
C168 N148 1.433 . S
C168 C169 1.363 . S
C168 C173 1.370 . S
C169 H137 0.929 . S
C169 C168 1.363 . S
C169 C170 1.385 . S
C170 H138 0.930 . S
C170 C169 1.385 . S
C170 C171 1.357 . S
C171 C170 1.357 . S
C171 C172 1.406 . S
C172 H139 0.929 . S
C172 C171 1.406 . S
C172 C173 1.391 . S
C173 H140 0.931 . S
C173 C168 1.370 . S
C173 C172 1.391 . S
C174 N148 1.435 . S
C174 C175 1.358 . S
C174 C179 1.371 . S
C175 H141 0.930 . S
C175 C174 1.358 . S
C175 C176 1.405 . S
C176 H142 0.932 . S
C176 C175 1.405 . S
C176 C177 1.383 . S
C177 C176 1.383 . S
C177 C178 1.393 . S
C178 H143 0.931 . S
C178 C177 1.393 . S
C178 C179 1.382 . S
C179 H144 0.929 . S
C179 C174 1.371 . S
C179 C178 1.382 . S
C180 N148 1.423 . S
C180 C181 1.362 . S
C180 C185 1.388 . S
C181 H145 0.929 . S
C181 C180 1.362 . S
C181 C182 1.376 . S
C182 H146 0.931 . S
C182 C181 1.376 . S
C182 C183 1.396 . S
C183 C165 1.472 . S
C183 C182 1.396 . S
C183 C184 1.348 . S
C184 H147 0.929 . S
C184 C183 1.348 . S
C184 C185 1.443 . S
C185 H149 0.932 . S
C185 C180 1.388 . S
C185 C184 1.443 . S
H186 C213 0.929 . S
N187 C212 1.433 . S
N187 C218 1.435 . S
N187 C224 1.423 . S
H188 C214 0.930 . S
H189 C217 0.931 . S
H190 C216 0.929 . S
H191 C219 0.930 . S
H192 C220 0.932 . S
H193 C223 0.929 . S
H194 C222 0.931 . S
H195 C225 0.929 . S
H196 C229 0.932 . S
H197 C226 0.931 . S
H198 C228 0.929 . S
H199 C231 0.929 . S
H200 C232 0.930 . S
H201 C234 0.929 . S
H202 C235 0.931 . S
H203 C237 0.930 . S
H204 C238 0.932 . S
H205 C240 0.931 . S
H206 C241 0.929 . S
H207 C243 0.929 . S
H208 C244 0.931 1_565 S
H209 C246 0.929 . S
N210 C230 1.433 . S
N210 C236 1.435 . S
N210 C242 1.423 . S
H211 C247 0.932 . S
C212 N187 1.433 . S
C212 C213 1.363 . S
C212 C217 1.370 . S
C213 H186 0.929 . S
C213 C212 1.363 . S
C213 C214 1.385 . S
C214 H188 0.930 . S
C214 C213 1.385 . S
C214 C215 1.357 . S
C215 C214 1.357 . S
C215 C216 1.406 . S
C216 H190 0.929 . S
C216 C215 1.406 . S
C216 C217 1.391 . S
C217 H189 0.931 . S
C217 C212 1.370 . S
C217 C216 1.391 . S
C218 N187 1.435 . S
C218 C219 1.358 . S
C218 C223 1.371 . S
C219 H191 0.930 . S
C219 C218 1.358 . S
C219 C220 1.405 . S
C220 H192 0.932 . S
C220 C219 1.405 . S
C220 C221 1.383 . S
C221 C220 1.383 . S
C221 C222 1.393 . S
C222 H194 0.931 . S
C222 C221 1.393 . S
C222 C223 1.382 . S
C223 H193 0.929 . S
C223 C218 1.371 . S
C223 C222 1.382 . S
C224 N187 1.423 . S
C224 C225 1.362 . S
C224 C229 1.388 . S
C225 H195 0.929 . S
C225 C224 1.362 . S
C225 C226 1.376 . S
C226 H197 0.931 . S
C226 C225 1.376 . S
C226 C227 1.396 . S
C227 C226 1.396 . S
C227 C228 1.348 . S
C227 C245 1.472 1_565 S
C228 H198 0.929 . S
C228 C227 1.348 . S
C228 C229 1.443 . S
C229 H196 0.932 . S
C229 C224 1.388 . S
C229 C228 1.443 . S
C230 N210 1.433 . S
C230 C231 1.363 . S
C230 C235 1.370 . S
C231 H199 0.929 . S
C231 C230 1.363 . S
C231 C232 1.385 . S
C232 H200 0.930 . S
C232 C231 1.385 . S
C232 C233 1.357 . S
C233 C232 1.357 . S
C233 C234 1.406 . S
C234 H201 0.929 . S
C234 C233 1.406 . S
C234 C235 1.391 . S
C235 H202 0.931 . S
C235 C230 1.370 . S
C235 C234 1.391 . S
C236 N210 1.435 . S
C236 C237 1.358 . S
C236 C241 1.371 . S
C237 H203 0.930 . S
C237 C236 1.358 . S
C237 C238 1.405 . S
C238 H204 0.932 . S
C238 C237 1.405 . S
C238 C239 1.383 . S
C239 C238 1.383 . S
C239 C240 1.393 . S
C240 H205 0.931 . S
C240 C239 1.393 . S
C240 C241 1.382 . S
C241 H206 0.929 . S
C241 C236 1.371 . S
C241 C240 1.382 . S
C242 N210 1.423 . S
C242 C243 1.362 . S
C242 C247 1.388 . S
C243 H207 0.929 . S
C243 C242 1.362 . S
C243 C244 1.376 . S
C244 H208 0.931 1_545 S
C244 C243 1.376 . S
C244 C245 1.396 . S
C245 C227 1.472 1_545 S
C245 C244 1.396 . S
C245 C246 1.348 . S
C246 H209 0.929 . S
C246 C245 1.348 . S
C246 C247 1.443 . S
C247 H211 0.932 . S
C247 C242 1.388 . S
C247 C246 1.443 . S
H248 C275 0.929 . S
N249 C274 1.433 . S
N249 C280 1.435 . S
N249 C286 1.423 . S
H250 C276 0.930 . S
H251 C279 0.931 . S
H252 C278 0.929 . S
H253 C281 0.930 . S
H254 C282 0.932 . S
H255 C285 0.929 . S
H256 C284 0.931 . S
H257 C287 0.929 . S
H258 C291 0.932 . S
H259 C288 0.931 . S
H260 C290 0.929 . S
H261 C293 0.929 . S
H262 C294 0.930 . S
H263 C296 0.929 . S
H264 C297 0.931 . S
H265 C299 0.930 . S
H266 C300 0.932 . S
H267 C302 0.931 . S
H268 C303 0.929 . S
H269 C305 0.929 . S
H270 C306 0.931 . S
H271 C308 0.929 . S
N272 C292 1.433 . S
N272 C298 1.435 . S
N272 C304 1.423 . S
H273 C309 0.932 . S
C274 N249 1.433 . S
C274 C275 1.363 . S
C274 C279 1.370 . S
C275 H248 0.929 . S
C275 C274 1.363 . S
C275 C276 1.385 . S
C276 H250 0.930 . S
C276 C275 1.385 . S
C276 C277 1.357 . S
C277 C276 1.357 . S
C277 C278 1.406 . S
C278 H252 0.929 . S
C278 C277 1.406 . S
C278 C279 1.391 . S
C279 H251 0.931 . S
C279 C274 1.370 . S
C279 C278 1.391 . S
C280 N249 1.435 . S
C280 C281 1.358 . S
C280 C285 1.371 . S
C281 H253 0.930 . S
C281 C280 1.358 . S
C281 C282 1.405 . S
C282 H254 0.932 . S
C282 C281 1.405 . S
C282 C283 1.383 . S
C283 C282 1.383 . S
C283 C284 1.393 . S
C284 H256 0.931 . S
C284 C283 1.393 . S
C284 C285 1.382 . S
C285 H255 0.929 . S
C285 C280 1.371 . S
C285 C284 1.382 . S
C286 N249 1.423 . S
C286 C287 1.362 . S
C286 C291 1.388 . S
C287 H257 0.929 . S
C287 C286 1.362 . S
C287 C288 1.376 . S
C288 H259 0.931 . S
C288 C287 1.376 . S
C288 C289 1.396 . S
C289 C288 1.396 . S
C289 C290 1.348 . S
C289 C307 1.472 . S
C290 H260 0.929 . S
C290 C289 1.348 . S
C290 C291 1.443 . S
C291 H258 0.932 . S
C291 C286 1.388 . S
C291 C290 1.443 . S
C292 N272 1.433 . S
C292 C293 1.363 . S
C292 C297 1.370 . S
C293 H261 0.929 . S
C293 C292 1.363 . S
C293 C294 1.385 . S
C294 H262 0.930 . S
C294 C293 1.385 . S
C294 C295 1.357 . S
C295 C294 1.357 . S
C295 C296 1.406 . S
C296 H263 0.929 . S
C296 C295 1.406 . S
C296 C297 1.391 . S
C297 H264 0.931 . S
C297 C292 1.370 . S
C297 C296 1.391 . S
C298 N272 1.435 . S
C298 C299 1.358 . S
C298 C303 1.371 . S
C299 H265 0.930 . S
C299 C298 1.358 . S
C299 C300 1.405 . S
C300 H266 0.932 . S
C300 C299 1.405 . S
C300 C301 1.383 . S
C301 C300 1.383 . S
C301 C302 1.393 . S
C302 H267 0.931 . S
C302 C301 1.393 . S
C302 C303 1.382 . S
C303 H268 0.929 . S
C303 C298 1.371 . S
C303 C302 1.382 . S
C304 N272 1.423 . S
C304 C305 1.362 . S
C304 C309 1.388 . S
C305 H269 0.929 . S
C305 C304 1.362 . S
C305 C306 1.376 1_655 S
C306 H270 0.931 . S
C306 C305 1.376 1_455 S
C306 C307 1.396 . S
C307 C289 1.472 . S
C307 C306 1.396 . S
C307 C308 1.348 1_455 S
C308 H271 0.929 . S
C308 C307 1.348 1_655 S
C308 C309 1.443 . S
C309 H273 0.932 . S
C309 C304 1.388 . S
C309 C308 1.443 . S
H310 C337 0.929 . S
N311 C336 1.433 . S
N311 C342 1.435 . S
N311 C348 1.423 . S
H312 C338 0.930 . S
H313 C341 0.931 . S
H314 C340 0.929 . S
H315 C343 0.930 . S
H316 C344 0.932 . S
H317 C347 0.929 . S
H318 C346 0.931 . S
H319 C349 0.929 . S
H320 C353 0.932 . S
H321 C350 0.931 . S
H322 C352 0.929 . S
H323 C355 0.929 . S
H324 C356 0.930 . S
H325 C358 0.929 . S
H326 C359 0.931 . S
H327 C361 0.930 . S
H328 C362 0.932 . S
H329 C364 0.931 . S
H330 C365 0.929 . S
H331 C367 0.929 . S
H332 C368 0.931 . S
H333 C370 0.929 . S
N334 C354 1.433 . S
N334 C360 1.435 . S
N334 C366 1.423 . S
H335 C371 0.932 . S
C336 N311 1.433 . S
C336 C337 1.363 . S
C336 C341 1.370 . S
C337 H310 0.929 . S
C337 C336 1.363 . S
C337 C338 1.385 . S
C338 H312 0.930 . S
C338 C337 1.385 . S
C338 C339 1.357 . S
C339 C338 1.357 . S
C339 C340 1.406 . S
C340 H314 0.929 . S
C340 C339 1.406 . S
C340 C341 1.391 . S
C341 H313 0.931 . S
C341 C336 1.370 . S
C341 C340 1.391 . S
C342 N311 1.435 . S
C342 C343 1.358 . S
C342 C347 1.371 . S
C343 H315 0.930 . S
C343 C342 1.358 . S
C343 C344 1.405 . S
C344 H316 0.932 . S
C344 C343 1.405 . S
C344 C345 1.383 . S
C345 C344 1.383 . S
C345 C346 1.393 . S
C346 H318 0.931 . S
C346 C345 1.393 . S
C346 C347 1.382 . S
C347 H317 0.929 . S
C347 C342 1.371 . S
C347 C346 1.382 . S
C348 N311 1.423 . S
C348 C349 1.362 . S
C348 C353 1.388 . S
C349 H319 0.929 . S
C349 C348 1.362 . S
C349 C350 1.376 . S
C350 H321 0.931 . S
C350 C349 1.376 . S
C350 C351 1.396 . S
C351 C350 1.396 . S
C351 C352 1.348 . S
C351 C369 1.472 . S
C352 H322 0.929 . S
C352 C351 1.348 . S
C352 C353 1.443 . S
C353 H320 0.932 . S
C353 C348 1.388 . S
C353 C352 1.443 . S
C354 N334 1.433 . S
C354 C355 1.363 . S
C354 C359 1.370 . S
C355 H323 0.929 . S
C355 C354 1.363 . S
C355 C356 1.385 . S
C356 H324 0.930 . S
C356 C355 1.385 . S
C356 C357 1.357 . S
C357 C356 1.357 . S
C357 C358 1.406 . S
C358 H325 0.929 . S
C358 C357 1.406 . S
C358 C359 1.391 . S
C359 H326 0.931 . S
C359 C354 1.370 . S
C359 C358 1.391 . S
C360 N334 1.435 . S
C360 C361 1.358 . S
C360 C365 1.371 . S
C361 H327 0.930 . S
C361 C360 1.358 . S
C361 C362 1.405 . S
C362 H328 0.932 . S
C362 C361 1.405 . S
C362 C363 1.383 . S
C363 C362 1.383 . S
C363 C364 1.393 . S
C364 H329 0.931 . S
C364 C363 1.393 . S
C364 C365 1.382 . S
C365 H330 0.929 . S
C365 C360 1.371 . S
C365 C364 1.382 . S
C366 N334 1.423 . S
C366 C367 1.362 . S
C366 C371 1.388 . S
C367 H331 0.929 . S
C367 C366 1.362 . S
C367 C368 1.376 . S
C368 H332 0.931 . S
C368 C367 1.376 . S
C368 C369 1.396 . S
C369 C351 1.472 . S
C369 C368 1.396 . S
C369 C370 1.348 . S
C370 H333 0.929 . S
C370 C369 1.348 . S
C370 C371 1.443 . S
C371 H335 0.932 . S
C371 C366 1.388 . S
C371 C370 1.443 . S
H372 C399 0.929 . S
N373 C398 1.433 . S
N373 C404 1.435 . S
N373 C410 1.423 . S
H374 C400 0.930 . S
H375 C403 0.931 . S
H376 C402 0.929 . S
H377 C405 0.930 . S
H378 C406 0.932 . S
H379 C409 0.929 . S
H380 C408 0.931 . S
H381 C411 0.929 . S
H382 C415 0.932 . S
H383 C412 0.931 . S
H384 C414 0.929 . S
H385 C417 0.929 . S
H386 C418 0.930 . S
H387 C420 0.929 . S
H388 C421 0.931 . S
H389 C423 0.930 . S
H390 C424 0.932 . S
H391 C426 0.931 . S
H392 C427 0.929 . S
H393 C429 0.929 . S
H394 C430 0.931 . S
H395 C432 0.929 . S
N396 C416 1.433 . S
N396 C422 1.435 . S
N396 C428 1.423 . S
H397 C433 0.932 . S
C398 N373 1.433 . S
C398 C399 1.363 . S
C398 C403 1.370 . S
C399 H372 0.929 . S
C399 C398 1.363 . S
C399 C400 1.385 . S
C400 H374 0.930 . S
C400 C399 1.385 . S
C400 C401 1.357 . S
C401 C400 1.357 . S
C401 C402 1.406 . S
C402 H376 0.929 . S
C402 C401 1.406 . S
C402 C403 1.391 . S
C403 H375 0.931 . S
C403 C398 1.370 . S
C403 C402 1.391 . S
C404 N373 1.435 . S
C404 C405 1.358 . S
C404 C409 1.371 . S
C405 H377 0.930 . S
C405 C404 1.358 . S
C405 C406 1.405 . S
C406 H378 0.932 . S
C406 C405 1.405 . S
C406 C407 1.383 . S
C407 C406 1.383 . S
C407 C408 1.393 . S
C408 H380 0.931 . S
C408 C407 1.393 . S
C408 C409 1.382 . S
C409 H379 0.929 . S
C409 C404 1.371 . S
C409 C408 1.382 . S
C410 N373 1.423 . S
C410 C411 1.362 . S
C410 C415 1.388 . S
C411 H381 0.929 . S
C411 C410 1.362 . S
C411 C412 1.376 1_565 S
C412 H383 0.931 . S
C412 C411 1.376 1_545 S
C412 C413 1.396 . S
C413 C412 1.396 . S
C413 C414 1.348 1_545 S
C413 C431 1.472 . S
C414 H384 0.929 . S
C414 C413 1.348 1_565 S
C414 C415 1.443 . S
C415 H382 0.932 . S
C415 C410 1.388 . S
C415 C414 1.443 . S
C416 N396 1.433 . S
C416 C417 1.363 . S
C416 C421 1.370 . S
C417 H385 0.929 . S
C417 C416 1.363 . S
C417 C418 1.385 . S
C418 H386 0.930 . S
C418 C417 1.385 . S
C418 C419 1.357 . S
C419 C418 1.357 . S
C419 C420 1.406 . S
C420 H387 0.929 . S
C420 C419 1.406 . S
C420 C421 1.391 . S
C421 H388 0.931 . S
C421 C416 1.370 . S
C421 C420 1.391 . S
C422 N396 1.435 . S
C422 C423 1.358 . S
C422 C427 1.371 . S
C423 H389 0.930 . S
C423 C422 1.358 . S
C423 C424 1.405 . S
C424 H390 0.932 . S
C424 C423 1.405 . S
C424 C425 1.383 . S
C425 C424 1.383 . S
C425 C426 1.393 . S
C426 H391 0.931 . S
C426 C425 1.393 . S
C426 C427 1.382 . S
C427 H392 0.929 . S
C427 C422 1.371 . S
C427 C426 1.382 . S
C428 N396 1.423 . S
C428 C429 1.362 . S
C428 C433 1.388 . S
C429 H393 0.929 . S
C429 C428 1.362 . S
C429 C430 1.376 . S
C430 H394 0.931 . S
C430 C429 1.376 . S
C430 C431 1.396 . S
C431 C413 1.472 . S
C431 C430 1.396 . S
C431 C432 1.348 . S
C432 H395 0.929 . S
C432 C431 1.348 . S
C432 C433 1.443 . S
C433 H397 0.932 . S
C433 C428 1.388 . S
C433 C432 1.443 . S
H434 C461 0.929 . S
N435 C460 1.433 . S
N435 C466 1.435 . S
N435 C472 1.423 . S
H436 C462 0.930 . S
H437 C465 0.931 . S
H438 C464 0.929 . S
H439 C467 0.930 . S
H440 C468 0.932 . S
H441 C471 0.929 . S
H442 C470 0.931 . S
H443 C473 0.929 . S
H444 C477 0.932 . S
H445 C474 0.933 . S
H446 C476 0.929 . S
H447 C479 0.929 . S
H448 C480 0.930 . S
H449 C482 0.929 . S
H450 C483 0.931 . S
H451 C485 0.930 . S
H452 C486 0.932 . S
H453 C488 0.931 . S
H454 C489 0.929 . S
H455 C491 0.929 . S
H456 C492 0.931 1_565 S
H457 C494 0.911 1_455 S
N458 C478 1.433 . S
N458 C484 1.435 . S
N458 C490 1.423 . S
H459 C495 0.932 . S
C460 N435 1.433 . S
C460 C461 1.363 . S
C460 C465 1.370 . S
C461 H434 0.929 . S
C461 C460 1.363 . S
C461 C462 1.385 . S
C462 H436 0.930 . S
C462 C461 1.385 . S
C462 C463 1.357 . S
C463 C462 1.357 . S
C463 C464 1.406 . S
C464 H438 0.929 . S
C464 C463 1.406 . S
C464 C465 1.391 . S
C465 H437 0.931 . S
C465 C460 1.370 . S
C465 C464 1.391 . S
C466 N435 1.435 . S
C466 C467 1.358 . S
C466 C471 1.371 . S
C467 H439 0.930 . S
C467 C466 1.358 . S
C467 C468 1.405 . S
C468 H440 0.932 . S
C468 C467 1.405 . S
C468 C469 1.383 . S
C469 C468 1.383 . S
C469 C470 1.393 . S
C470 H442 0.931 . S
C470 C469 1.393 . S
C470 C471 1.382 . S
C471 H441 0.929 . S
C471 C466 1.371 . S
C471 C470 1.382 . S
C472 N435 1.423 . S
C472 C473 1.362 . S
C472 C477 1.388 . S
C473 H443 0.929 . S
C473 C472 1.362 . S
C473 C474 1.375 1_455 S
C474 H445 0.933 . S
C474 C473 1.375 1_655 S
C474 C475 1.396 1_655 S
C475 C474 1.396 1_455 S
C475 C476 1.348 . S
C475 C493 1.472 1_465 S
C476 H446 0.929 . S
C476 C475 1.348 . S
C476 C477 1.443 . S
C477 H444 0.932 . S
C477 C472 1.388 . S
C477 C476 1.443 . S
C478 N458 1.433 . S
C478 C479 1.363 . S
C478 C483 1.370 . S
C479 H447 0.929 . S
C479 C478 1.363 . S
C479 C480 1.385 . S
C480 H448 0.930 . S
C480 C479 1.385 . S
C480 C481 1.357 . S
C481 C480 1.357 . S
C481 C482 1.406 . S
C482 H449 0.929 . S
C482 C481 1.406 . S
C482 C483 1.391 . S
C483 H450 0.931 . S
C483 C478 1.370 . S
C483 C482 1.391 . S
C484 N458 1.435 . S
C484 C485 1.358 . S
C484 C489 1.371 . S
C485 H451 0.930 . S
C485 C484 1.358 . S
C485 C486 1.405 . S
C486 H452 0.932 . S
C486 C485 1.405 . S
C486 C487 1.383 . S
C487 C486 1.383 . S
C487 C488 1.393 . S
C488 H453 0.931 . S
C488 C487 1.393 . S
C488 C489 1.382 . S
C489 H454 0.929 . S
C489 C484 1.371 . S
C489 C488 1.382 . S
C490 N458 1.423 . S
C490 C491 1.362 . S
C490 C495 1.388 . S
C491 H455 0.929 . S
C491 C490 1.362 . S
C491 C492 1.376 . S
C492 H456 0.931 1_545 S
C492 C491 1.376 . S
C492 C493 1.396 . S
C493 C475 1.472 1_645 S
C493 C492 1.396 . S
C493 C494 1.348 . S
C494 H457 0.911 1_655 S
C494 C493 1.348 . S
C494 C495 1.443 . S
C495 H459 0.932 . S
C495 C490 1.388 . S
C495 C494 1.443 . S
Mn496 O501 2.095 1_554 S
Mn496 O511 2.162 . S
Mn496 O512 2.297 . S
Mn496 O520 2.385 . S
Mn496 O521 2.209 . S
Mn496 O522 2.094 . S
Mn497 O502 2.106 1_554 S
Mn497 N504 2.262 . S
Mn497 N513 2.298 . S
Mn497 O521 2.225 . S
Mn497 O523 2.116 1_554 S
C498 O520 1.234 . S
C498 O521 1.283 . S
C499 O511 1.281 . S
C499 O512 1.236 . S
C500 O522 1.240 1_556 S
C500 O523 1.264 . S
O501 Mn496 2.095 1_556 S
O501 C510 1.250 . S
O502 Mn497 2.106 1_556 S
O502 C510 1.258 . S
C503 N504 1.305 1_556 S
C503 C507 1.448 1_556 S
C503 H509 0.963 . S
N504 Mn497 2.262 . S
N504 C503 1.305 1_554 S
N504 C508 1.362 . S
C505 C506 1.258 . S
C505 C508 1.431 . S
C505 C525 1.449 . S
C506 C505 1.258 . S
C506 C507 1.477 . S
C506 H526 0.931 . S
C507 C503 1.448 1_554 S
C507 C506 1.477 . S
C507 H527 0.930 1_554 S
C508 N504 1.362 . S
C508 C505 1.431 . S
C508 C518 1.476 . S
H509 C503 0.963 . S
C510 O501 1.250 . S
C510 O502 1.258 . S
O511 Mn496 2.162 . S
O511 C499 1.281 . S
O512 Mn496 2.297 . S
O512 C499 1.236 . S
N513 Mn497 2.298 . S
N513 C514 1.328 . S
N513 C518 1.318 . S
C514 N513 1.328 . S
C514 C515 1.457 . S
C514 H519 0.929 . S
C515 C514 1.457 . S
C515 C516 1.291 . S
C515 H528 0.931 . S
C516 C515 1.291 . S
C516 C517 1.373 . S
C516 H529 0.929 . S
C517 C516 1.373 . S
C517 C518 1.396 . S
C517 C524 1.403 . S
C518 C508 1.476 . S
C518 N513 1.318 . S
C518 C517 1.396 . S
H519 C514 0.929 . S
O520 Mn496 2.385 . S
O520 C498 1.234 . S
O521 Mn496 2.209 . S
O521 Mn497 2.225 . S
O521 C498 1.283 . S
O522 Mn496 2.094 . S
O522 C500 1.240 1_554 S
O523 Mn497 2.116 1_556 S
O523 C500 1.264 . S
C524 C517 1.403 . S
C524 C525 1.399 . S
C524 H530 0.929 . S
C525 C505 1.449 . S
C525 C524 1.399 . S
C525 H531 0.930 . S
H526 C506 0.931 . S
H527 C507 0.930 1_556 S
H528 C515 0.931 . S
H529 C516 0.929 . S
H530 C524 0.929 . S
H531 C525 0.930 . S
Mn532 O537 2.095 . S
Mn532 O547 2.162 . S
Mn532 O548 2.297 . S
Mn532 O556 2.385 . S
Mn532 O557 2.209 . S
Mn532 O558 2.094 . S
Mn533 O538 2.121 . S
Mn533 N540 2.257 . S
Mn533 N549 2.282 . S
Mn533 O557 2.215 . S
Mn533 O559 2.117 . S
C534 O556 1.234 . S
C534 O557 1.283 . S
C535 O547 1.281 . S
C535 O548 1.236 . S
C536 O558 1.240 . S
C536 O559 1.264 . S
O537 Mn532 2.095 . S
O537 C546 1.250 . S
O538 Mn533 2.121 . S
O538 C546 1.258 . S
C539 N540 1.326 . S
C539 C543 1.460 . S
C539 H545 0.929 . S
N540 Mn533 2.257 . S
N540 C539 1.326 . S
N540 C544 1.362 . S
C541 C542 1.258 . S
C541 C544 1.431 . S
C541 C561 1.449 . S
C542 C541 1.258 . S
C542 C543 1.477 . S
C542 H562 0.931 . S
C543 C539 1.460 . S
C543 C542 1.477 . S
C543 H563 0.930 . S
C544 N540 1.362 . S
C544 C541 1.431 . S
C544 C554 1.476 . S
H545 C539 0.929 . S
C546 O537 1.250 . S
C546 O538 1.258 . S
O547 Mn532 2.162 . S
O547 C535 1.281 . S
O548 Mn532 2.297 . S
O548 C535 1.236 . S
N549 Mn533 2.282 . S
N549 C550 1.328 . S
N549 C554 1.318 . S
C550 N549 1.328 . S
C550 C551 1.457 . S
C550 H555 0.929 . S
C551 C550 1.457 . S
C551 C552 1.291 . S
C551 H564 0.931 . S
C552 C551 1.291 . S
C552 C553 1.373 . S
C552 H565 0.929 . S
C553 C552 1.373 . S
C553 C554 1.396 . S
C553 C560 1.403 . S
C554 C544 1.476 . S
C554 N549 1.318 . S
C554 C553 1.396 . S
H555 C550 0.929 . S
O556 Mn532 2.385 . S
O556 C534 1.234 . S
O557 Mn532 2.209 . S
O557 Mn533 2.215 . S
O557 C534 1.283 . S
O558 Mn532 2.094 . S
O558 C536 1.240 . S
O559 Mn533 2.117 . S
O559 C536 1.264 . S
C560 C553 1.403 . S
C560 C561 1.399 . S
C560 H566 0.929 . S
C561 C541 1.449 . S
C561 C560 1.399 . S
C561 H567 0.930 . S
H562 C542 0.931 . S
H563 C543 0.930 . S
H564 C551 0.931 . S
H565 C552 0.929 . S
H566 C560 0.929 . S
H567 C561 0.930 . S
Mn568 O573 2.095 . S
Mn568 O583 2.162 . S
Mn568 O584 2.297 . S
Mn568 O592 2.385 . S
Mn568 O593 2.209 . S
Mn568 O594 2.094 . S
Mn569 O574 2.121 . S
Mn569 N576 2.257 . S
Mn569 N585 2.282 . S
Mn569 O593 2.215 . S
Mn569 O595 2.117 . S
C570 O592 1.234 . S
C570 O593 1.283 . S
C571 O583 1.281 . S
C571 O584 1.236 . S
C572 O594 1.240 . S
C572 O595 1.264 . S
O573 Mn568 2.095 . S
O573 C582 1.250 . S
O574 Mn569 2.121 . S
O574 C582 1.258 . S
C575 N576 1.326 . S
C575 C579 1.460 . S
C575 H581 0.929 . S
N576 Mn569 2.257 . S
N576 C575 1.326 . S
N576 C580 1.362 . S
C577 C578 1.258 . S
C577 C580 1.431 . S
C577 C597 1.449 . S
C578 C577 1.258 . S
C578 C579 1.477 . S
C578 H598 0.931 . S
C579 C575 1.460 . S
C579 C578 1.477 . S
C579 H599 0.930 . S
C580 N576 1.362 . S
C580 C577 1.431 . S
C580 C590 1.476 . S
H581 C575 0.929 . S
C582 O573 1.250 . S
C582 O574 1.258 . S
O583 Mn568 2.162 . S
O583 C571 1.281 . S
O584 Mn568 2.297 . S
O584 C571 1.236 . S
N585 Mn569 2.282 . S
N585 C586 1.328 . S
N585 C590 1.318 . S
C586 N585 1.328 . S
C586 C587 1.457 . S
C586 H591 0.929 . S
C587 C586 1.457 . S
C587 C588 1.291 . S
C587 H600 0.931 . S
C588 C587 1.291 . S
C588 C589 1.373 . S
C588 H601 0.929 . S
C589 C588 1.373 . S
C589 C590 1.396 . S
C589 C596 1.403 . S
C590 C580 1.476 . S
C590 N585 1.318 . S
C590 C589 1.396 . S
H591 C586 0.929 . S
O592 Mn568 2.385 . S
O592 C570 1.234 . S
O593 Mn568 2.209 . S
O593 Mn569 2.215 . S
O593 C570 1.283 . S
O594 Mn568 2.094 . S
O594 C572 1.240 . S
O595 Mn569 2.117 . S
O595 C572 1.264 . S
C596 C589 1.403 . S
C596 C597 1.399 . S
C596 H602 0.929 . S
C597 C577 1.449 . S
C597 C596 1.399 . S
C597 H603 0.930 . S
H598 C578 0.931 . S
H599 C579 0.930 . S
H600 C587 0.931 . S
H601 C588 0.929 . S
H602 C596 0.929 . S
H603 C597 0.930 . S
Mn604 O609 2.095 . S
Mn604 O619 2.162 . S
Mn604 O620 2.297 . S
Mn604 O628 2.385 . S
Mn604 O629 2.209 . S
Mn604 O630 2.094 . S
Mn605 O610 2.121 . S
Mn605 N612 2.257 . S
Mn605 N621 2.282 . S
Mn605 O629 2.215 . S
Mn605 O631 2.117 . S
C606 O628 1.234 . S
C606 O629 1.283 . S
C607 O619 1.281 . S
C607 O620 1.236 . S
C608 O630 1.240 . S
C608 O631 1.264 . S
O609 Mn604 2.095 . S
O609 C618 1.250 . S
O610 Mn605 2.121 . S
O610 C618 1.258 . S
C611 N612 1.326 . S
C611 C615 1.460 . S
C611 H617 0.929 . S
N612 Mn605 2.257 . S
N612 C611 1.326 . S
N612 C616 1.362 . S
C613 C614 1.258 . S
C613 C616 1.431 . S
C613 C633 1.449 . S
C614 C613 1.258 . S
C614 C615 1.477 . S
C614 H634 0.931 . S
C615 C611 1.460 . S
C615 C614 1.477 . S
C615 H635 0.930 . S
C616 N612 1.362 . S
C616 C613 1.431 . S
C616 C626 1.476 . S
H617 C611 0.929 . S
C618 O609 1.250 . S
C618 O610 1.258 . S
O619 Mn604 2.162 . S
O619 C607 1.281 . S
O620 Mn604 2.297 . S
O620 C607 1.236 . S
N621 Mn605 2.282 . S
N621 C622 1.328 . S
N621 C626 1.318 . S
C622 N621 1.328 . S
C622 C623 1.457 . S
C622 H627 0.929 . S
C623 C622 1.457 . S
C623 C624 1.291 . S
C623 H636 0.931 . S
C624 C623 1.291 . S
C624 C625 1.373 . S
C624 H637 0.929 . S
C625 C624 1.373 . S
C625 C626 1.396 . S
C625 C632 1.403 . S
C626 C616 1.476 . S
C626 N621 1.318 . S
C626 C625 1.396 . S
H627 C622 0.929 . S
O628 Mn604 2.385 . S
O628 C606 1.234 . S
O629 Mn604 2.209 . S
O629 Mn605 2.215 . S
O629 C606 1.283 . S
O630 Mn604 2.094 . S
O630 C608 1.240 . S
O631 Mn605 2.117 . S
O631 C608 1.264 . S
C632 C625 1.403 . S
C632 C633 1.399 . S
C632 H638 0.929 . S
C633 C613 1.449 . S
C633 C632 1.399 . S
C633 H639 0.930 . S
H634 C614 0.931 . S
H635 C615 0.930 . S
H636 C623 0.931 . S
H637 C624 0.929 . S
H638 C632 0.929 . S
H639 C633 0.930 . S
Mn640 O645 2.095 . S
Mn640 O655 2.162 . S
Mn640 O656 2.297 . S
Mn640 O664 2.385 . S
Mn640 O665 2.209 . S
Mn640 O666 2.094 . S
Mn641 O646 2.121 . S
Mn641 N648 2.257 . S
Mn641 N657 2.282 . S
Mn641 O665 2.215 . S
Mn641 O667 2.117 . S
C642 O664 1.234 . S
C642 O665 1.283 . S
C643 O655 1.281 . S
C643 O656 1.236 . S
C644 O666 1.240 . S
C644 O667 1.264 . S
O645 Mn640 2.095 . S
O645 C654 1.250 . S
O646 Mn641 2.121 . S
O646 C654 1.258 . S
C647 N648 1.326 . S
C647 C651 1.460 . S
C647 H653 0.929 . S
N648 Mn641 2.257 . S
N648 C647 1.326 . S
N648 C652 1.362 . S
C649 C650 1.258 . S
C649 C652 1.431 . S
C649 C669 1.449 . S
C650 C649 1.258 . S
C650 C651 1.477 . S
C650 H670 0.931 . S
C651 C647 1.460 . S
C651 C650 1.477 . S
C651 H671 0.930 . S
C652 N648 1.362 . S
C652 C649 1.431 . S
C652 C662 1.476 . S
H653 C647 0.929 . S
C654 O645 1.250 . S
C654 O646 1.258 . S
O655 Mn640 2.162 . S
O655 C643 1.281 . S
O656 Mn640 2.297 . S
O656 C643 1.236 . S
N657 Mn641 2.282 . S
N657 C658 1.328 . S
N657 C662 1.318 . S
C658 N657 1.328 . S
C658 C659 1.457 . S
C658 H663 0.929 . S
C659 C658 1.457 . S
C659 C660 1.291 . S
C659 H672 0.931 . S
C660 C659 1.291 . S
C660 C661 1.373 . S
C660 H673 0.929 . S
C661 C660 1.373 . S
C661 C662 1.396 . S
C661 C668 1.403 . S
C662 C652 1.476 . S
C662 N657 1.318 . S
C662 C661 1.396 . S
H663 C658 0.929 . S
O664 Mn640 2.385 . S
O664 C642 1.234 . S
O665 Mn640 2.209 . S
O665 Mn641 2.215 . S
O665 C642 1.283 . S
O666 Mn640 2.094 . S
O666 C644 1.240 . S
O667 Mn641 2.117 . S
O667 C644 1.264 . S
C668 C661 1.403 . S
C668 C669 1.399 . S
C668 H674 0.929 . S
C669 C649 1.449 . S
C669 C668 1.399 . S
C669 H675 0.930 . S
H670 C650 0.931 . S
H671 C651 0.930 . S
H672 C659 0.931 . S
H673 C660 0.929 . S
H674 C668 0.929 . S
H675 C669 0.930 . S
Mn676 O681 2.095 . S
Mn676 O691 2.162 . S
Mn676 O692 2.297 . S
Mn676 O700 2.385 . S
Mn676 O701 2.209 . S
Mn676 O702 2.094 . S
Mn677 O682 2.121 . S
Mn677 N684 2.257 . S
Mn677 N693 2.282 . S
Mn677 O701 2.215 . S
Mn677 O703 2.117 . S
C678 O700 1.234 . S
C678 O701 1.283 . S
C679 O691 1.281 . S
C679 O692 1.236 . S
C680 O702 1.240 . S
C680 O703 1.264 . S
O681 Mn676 2.095 . S
O681 C690 1.250 . S
O682 Mn677 2.121 . S
O682 C690 1.258 . S
C683 N684 1.326 . S
C683 C687 1.460 . S
C683 H689 0.929 . S
N684 Mn677 2.257 . S
N684 C683 1.326 . S
N684 C688 1.362 . S
C685 C686 1.258 . S
C685 C688 1.431 . S
C685 C705 1.449 . S
C686 C685 1.258 . S
C686 C687 1.477 . S
C686 H706 0.931 . S
C687 C683 1.460 . S
C687 C686 1.477 . S
C687 H707 0.930 . S
C688 N684 1.362 . S
C688 C685 1.431 . S
C688 C698 1.476 . S
H689 C683 0.929 . S
C690 O681 1.250 . S
C690 O682 1.258 . S
O691 Mn676 2.162 . S
O691 C679 1.281 . S
O692 Mn676 2.297 . S
O692 C679 1.236 . S
N693 Mn677 2.282 . S
N693 C694 1.328 . S
N693 C698 1.318 . S
C694 N693 1.328 . S
C694 C695 1.457 . S
C694 H699 0.929 . S
C695 C694 1.457 . S
C695 C696 1.291 . S
C695 H708 0.931 . S
C696 C695 1.291 . S
C696 C697 1.373 . S
C696 H709 0.929 . S
C697 C696 1.373 . S
C697 C698 1.396 . S
C697 C704 1.403 . S
C698 C688 1.476 . S
C698 N693 1.318 . S
C698 C697 1.396 . S
H699 C694 0.929 . S
O700 Mn676 2.385 . S
O700 C678 1.234 . S
O701 Mn676 2.209 . S
O701 Mn677 2.215 . S
O701 C678 1.283 . S
O702 Mn676 2.094 . S
O702 C680 1.240 . S
O703 Mn677 2.117 . S
O703 C680 1.264 . S
C704 C697 1.403 . S
C704 C705 1.399 . S
C704 H710 0.929 . S
C705 C685 1.449 . S
C705 C704 1.399 . S
C705 H711 0.930 . S
H706 C686 0.931 . S
H707 C687 0.930 . S
H708 C695 0.931 . S
H709 C696 0.929 . S
H710 C704 0.929 . S
H711 C705 0.930 . S
Mn712 O717 2.095 . S
Mn712 O727 2.162 . S
Mn712 O728 2.294 1_554 S
Mn712 O736 2.385 1_554 S
Mn712 O737 2.209 1_554 S
Mn712 O738 2.094 . S
Mn713 O718 2.121 . S
Mn713 N720 2.257 1_554 S
Mn713 N729 2.282 1_554 S
Mn713 O737 2.215 1_554 S
Mn713 O739 2.117 . S
C714 O736 1.234 . S
C714 O737 1.283 . S
C715 O727 1.280 . S
C715 O728 1.235 1_554 S
C716 O738 1.240 . S
C716 O739 1.264 . S
O717 Mn712 2.095 . S
O717 C726 1.250 . S
O718 Mn713 2.121 . S
O718 C726 1.258 . S
C719 N720 1.326 1_554 S
C719 C723 1.460 . S
C719 H725 0.929 . S
N720 Mn713 2.257 1_556 S
N720 C719 1.326 1_556 S
N720 C724 1.362 . S
C721 C722 1.258 . S
C721 C724 1.431 . S
C721 C741 1.449 . S
C722 C721 1.258 . S
C722 C723 1.477 1_556 S
C722 H742 0.931 . S
C723 C719 1.460 . S
C723 C722 1.477 1_554 S
C723 H743 0.930 . S
C724 N720 1.362 . S
C724 C721 1.431 . S
C724 C734 1.476 . S
H725 C719 0.929 . S
C726 O717 1.250 . S
C726 O718 1.258 . S
O727 Mn712 2.162 . S
O727 C715 1.280 . S
O728 Mn712 2.294 1_556 S
O728 C715 1.235 1_556 S
N729 Mn713 2.282 1_556 S
N729 C730 1.328 . S
N729 C734 1.318 . S
C730 N729 1.328 . S
C730 C731 1.457 . S
C730 H735 0.929 . S
C731 C730 1.457 . S
C731 C732 1.291 . S
C731 H744 0.931 . S
C732 C731 1.291 . S
C732 C733 1.373 . S
C732 H745 0.929 . S
C733 C732 1.373 . S
C733 C734 1.396 . S
C733 C740 1.403 . S
C734 C724 1.476 . S
C734 N729 1.318 . S
C734 C733 1.396 . S
H735 C730 0.929 . S
O736 Mn712 2.385 1_556 S
O736 C714 1.234 . S
O737 Mn712 2.209 1_556 S
O737 Mn713 2.215 1_556 S
O737 C714 1.283 . S
O738 Mn712 2.094 . S
O738 C716 1.240 . S
O739 Mn713 2.117 . S
O739 C716 1.264 . S
C740 C733 1.403 . S
C740 C741 1.399 . S
C740 H746 0.929 . S
C741 C721 1.449 . S
C741 C740 1.399 . S
C741 H747 0.930 . S
H742 C722 0.931 . S
H743 C723 0.930 . S
H744 C731 0.931 . S
H745 C732 0.929 . S
H746 C740 0.929 . S
H747 C741 0.930 . S
Mn748 O753 2.095 . S
Mn748 O763 2.162 . S
Mn748 O764 2.297 . S
Mn748 O772 2.385 . S
Mn748 O773 2.209 . S
Mn748 O774 2.094 . S
Mn749 O754 2.121 . S
Mn749 N756 2.257 . S
Mn749 N765 2.282 . S
Mn749 O773 2.215 . S
Mn749 O775 2.117 . S
C750 O772 1.234 . S
C750 O773 1.283 . S
C751 O763 1.281 . S
C751 O764 1.236 . S
C752 O774 1.240 . S
C752 O775 1.264 . S
O753 Mn748 2.095 . S
O753 C762 1.250 . S
O754 Mn749 2.121 . S
O754 C762 1.258 . S
C755 N756 1.326 . S
C755 C759 1.460 . S
C755 H761 0.929 . S
N756 Mn749 2.257 . S
N756 C755 1.326 . S
N756 C760 1.362 . S
C757 C758 1.258 . S
C757 C760 1.431 . S
C757 C777 1.449 . S
C758 C757 1.258 . S
C758 C759 1.477 . S
C758 H778 0.931 . S
C759 C755 1.460 . S
C759 C758 1.477 . S
C759 H779 0.930 . S
C760 N756 1.362 . S
C760 C757 1.431 . S
C760 C770 1.476 . S
H761 C755 0.929 . S
C762 O753 1.250 . S
C762 O754 1.258 . S
O763 Mn748 2.162 . S
O763 C751 1.281 . S
O764 Mn748 2.297 . S
O764 C751 1.236 . S
N765 Mn749 2.282 . S
N765 C766 1.328 . S
N765 C770 1.318 . S
C766 N765 1.328 . S
C766 C767 1.457 . S
C766 H771 0.929 . S
C767 C766 1.457 . S
C767 C768 1.291 . S
C767 H780 0.931 . S
C768 C767 1.291 . S
C768 C769 1.373 . S
C768 H781 0.929 . S
C769 C768 1.373 . S
C769 C770 1.396 . S
C769 C776 1.403 . S
C770 C760 1.476 . S
C770 N765 1.318 . S
C770 C769 1.396 . S
H771 C766 0.929 . S
O772 Mn748 2.385 . S
O772 C750 1.234 . S
O773 Mn748 2.209 . S
O773 Mn749 2.215 . S
O773 C750 1.283 . S
O774 Mn748 2.094 . S
O774 C752 1.240 . S
O775 Mn749 2.117 . S
O775 C752 1.264 . S
C776 C769 1.403 . S
C776 C777 1.399 . S
C776 H782 0.929 . S
C777 C757 1.449 . S
C777 C776 1.399 . S
C777 H783 0.930 . S
H778 C758 0.931 . S
H779 C759 0.930 . S
H780 C767 0.931 . S
H781 C768 0.929 . S
H782 C776 0.929 . S
H783 C777 0.930 . S
C784 C785 1.391 . S
C784 C786 1.394 . S
C784 H800 0.931 . S
C785 C784 1.391 . S
C785 C789 1.376 . S
C786 C784 1.394 . S
C786 C787 1.369 . S
C786 C790 1.531 . S
C787 C786 1.369 . S
C787 C788 1.410 . S
C787 C795 1.503 . S
C788 C787 1.410 . S
C788 C789 1.392 . S
C788 C791 1.511 . S
C789 C785 1.376 . S
C789 C788 1.392 . S
C789 H801 0.929 . S
C790 C786 1.531 . S
C790 H802 0.960 . S
C790 H803 0.962 . S
C790 H804 0.960 . S
C791 C788 1.511 . S
C791 H805 0.961 . S
C791 H806 0.961 . S
C791 H807 0.961 . S
C792 C793 1.370 . S
C792 C794 1.363 . S
C792 H808 0.931 . S
C793 C792 1.370 . S
C793 C797 1.408 . S
C794 C792 1.363 . S
C794 C795 1.370 . S
C794 C798 1.524 . S
C795 C787 1.503 . S
C795 C794 1.370 . S
C795 C796 1.403 . S
C796 C795 1.403 . S
C796 C797 1.404 . S
C796 C799 1.539 . S
C797 C793 1.408 . S
C797 C796 1.404 . S
C797 H809 0.930 . S
C798 C794 1.524 . S
C798 H810 0.956 . S
C798 H811 0.961 . S
C798 H812 0.961 . S
C799 C796 1.539 . S
C799 H813 0.958 . S
C799 H814 0.961 . S
C799 H815 0.960 . S
H800 C784 0.931 . S
H801 C789 0.929 . S
H802 C790 0.960 . S
H803 C790 0.962 . S
H804 C790 0.960 . S
H805 C791 0.961 . S
H806 C791 0.961 . S
H807 C791 0.961 . S
H808 C792 0.931 . S
H809 C797 0.930 . S
H810 C798 0.956 . S
H811 C798 0.961 . S
H812 C798 0.961 . S
H813 C799 0.958 . S
H814 C799 0.961 . S
H815 C799 0.960 . S
C816 C817 1.391 . S
C816 C818 1.394 . S
C816 H832 0.931 . S
C817 C816 1.391 . S
C817 C821 1.376 . S
C818 C816 1.394 . S
C818 C819 1.369 . S
C818 C822 1.531 . S
C819 C818 1.369 . S
C819 C820 1.410 . S
C819 C827 1.503 . S
C820 C819 1.410 . S
C820 C821 1.392 . S
C820 C823 1.511 . S
C821 C817 1.376 . S
C821 C820 1.392 . S
C821 H833 0.929 . S
C822 C818 1.531 . S
C822 H834 0.960 . S
C822 H835 0.962 . S
C822 H836 0.960 . S
C823 C820 1.511 . S
C823 H837 0.961 . S
C823 H838 0.961 . S
C823 H839 0.961 . S
C824 C825 1.370 . S
C824 C826 1.363 . S
C824 H840 0.931 . S
C825 C824 1.370 . S
C825 C829 1.408 . S
C826 C824 1.363 . S
C826 C827 1.370 . S
C826 C830 1.524 . S
C827 C819 1.503 . S
C827 C826 1.370 . S
C827 C828 1.403 . S
C828 C827 1.403 . S
C828 C829 1.404 . S
C828 C831 1.539 . S
C829 C825 1.408 . S
C829 C828 1.404 . S
C829 H841 0.930 . S
C830 C826 1.524 . S
C830 H842 0.956 . S
C830 H843 0.961 . S
C830 H844 0.961 . S
C831 C828 1.539 . S
C831 H845 0.958 . S
C831 H846 0.961 . S
C831 H847 0.960 . S
H832 C816 0.931 . S
H833 C821 0.929 . S
H834 C822 0.960 . S
H835 C822 0.962 . S
H836 C822 0.960 . S
H837 C823 0.961 . S
H838 C823 0.961 . S
H839 C823 0.961 . S
H840 C824 0.931 . S
H841 C829 0.930 . S
H842 C830 0.956 . S
H843 C830 0.961 . S
H844 C830 0.961 . S
H845 C831 0.958 . S
H846 C831 0.961 . S
H847 C831 0.960 . S
C848 C849 1.391 . S
C848 C850 1.394 . S
C848 H864 0.931 . S
C849 C848 1.391 . S
C849 C853 1.376 . S
C850 C848 1.394 . S
C850 C851 1.369 . S
C850 C854 1.531 . S
C851 C850 1.369 . S
C851 C852 1.410 . S
C851 C859 1.503 . S
C852 C851 1.410 . S
C852 C853 1.392 . S
C852 C855 1.511 . S
C853 C849 1.376 . S
C853 C852 1.392 . S
C853 H865 0.929 . S
C854 C850 1.531 . S
C854 H866 0.960 . S
C854 H867 0.962 . S
C854 H868 0.960 . S
C855 C852 1.511 . S
C855 H869 0.961 . S
C855 H870 0.961 . S
C855 H871 0.961 . S
C856 C857 1.370 . S
C856 C858 1.363 . S
C856 H872 0.931 . S
C857 C856 1.370 . S
C857 C861 1.408 . S
C858 C856 1.363 . S
C858 C859 1.370 . S
C858 C862 1.524 . S
C859 C851 1.503 . S
C859 C858 1.370 . S
C859 C860 1.403 . S
C860 C859 1.403 . S
C860 C861 1.404 . S
C860 C863 1.539 . S
C861 C857 1.408 . S
C861 C860 1.404 . S
C861 H873 0.930 . S
C862 C858 1.524 . S
C862 H874 0.956 . S
C862 H875 0.961 . S
C862 H876 0.961 . S
C863 C860 1.539 . S
C863 H877 0.958 . S
C863 H878 0.961 . S
C863 H879 0.960 . S
H864 C848 0.931 . S
H865 C853 0.929 . S
H866 C854 0.960 . S
H867 C854 0.962 . S
H868 C854 0.960 . S
H869 C855 0.961 . S
H870 C855 0.961 . S
H871 C855 0.961 . S
H872 C856 0.931 . S
H873 C861 0.930 . S
H874 C862 0.956 . S
H875 C862 0.961 . S
H876 C862 0.961 . S
H877 C863 0.958 . S
H878 C863 0.961 . S
H879 C863 0.960 . S
C880 C881 1.391 . S
C880 C882 1.396 . S
C880 H896 0.931 1_554 S
C881 C880 1.391 . S
C881 C885 1.376 . S
C882 C880 1.396 . S
C882 C883 1.380 . S
C882 C886 1.518 1_554 S
C883 C882 1.380 . S
C883 C884 1.410 . S
C883 C891 1.503 . S
C884 C883 1.410 . S
C884 C885 1.392 . S
C884 C887 1.511 . S
C885 C881 1.376 . S
C885 C884 1.392 . S
C885 H897 0.929 . S
C886 C882 1.518 1_556 S
C886 H898 0.960 . S
C886 H899 0.962 . S
C886 H900 0.960 . S
C887 C884 1.511 . S
C887 H901 0.961 . S
C887 H902 0.961 . S
C887 H903 0.961 . S
C888 C889 1.370 . S
C888 C890 1.363 . S
C888 H904 0.931 . S
C889 C888 1.370 . S
C889 C893 1.408 1_554 S
C890 C888 1.363 . S
C890 C891 1.370 . S
C890 C894 1.524 . S
C891 C883 1.503 . S
C891 C890 1.370 . S
C891 C892 1.403 1_554 S
C892 C891 1.403 1_556 S
C892 C893 1.404 . S
C892 C895 1.539 . S
C893 C889 1.408 1_556 S
C893 C892 1.404 . S
C893 H905 0.930 . S
C894 C890 1.524 . S
C894 H906 0.956 . S
C894 H907 0.961 . S
C894 H908 0.961 . S
C895 C892 1.539 . S
C895 H909 0.958 . S
C895 H910 0.961 . S
C895 H911 0.960 . S
H896 C880 0.931 1_556 S
H897 C885 0.929 . S
H898 C886 0.960 . S
H899 C886 0.962 . S
H900 C886 0.960 . S
H901 C887 0.961 . S
H902 C887 0.961 . S
H903 C887 0.961 . S
H904 C888 0.931 . S
H905 C893 0.930 . S
H906 C894 0.956 . S
H907 C894 0.961 . S
H908 C894 0.961 . S
H909 C895 0.958 . S
H910 C895 0.961 . S
H911 C895 0.960 . S
C912 C913 1.391 . S
C912 C914 1.394 . S
C912 H928 0.931 . S
C913 C912 1.391 . S
C913 C917 1.376 1_556 S
C914 C912 1.394 . S
C914 C915 1.369 . S
C914 C918 1.531 . S
C915 C914 1.369 . S
C915 C916 1.395 1_556 S
C915 C923 1.503 . S
C916 C915 1.395 1_554 S
C916 C917 1.394 . S
C916 C919 1.525 . S
C917 C913 1.376 1_554 S
C917 C916 1.394 . S
C917 H929 0.929 . S
C918 C914 1.531 . S
C918 H930 0.960 . S
C918 H931 0.962 . S
C918 H932 0.960 . S
C919 C916 1.525 . S
C919 H933 0.961 . S
C919 H934 0.961 . S
C919 H935 0.961 . S
C920 C921 1.370 1_554 S
C920 C922 1.363 . S
C920 H936 0.931 . S
C921 C920 1.370 1_556 S
C921 C925 1.408 . S
C922 C920 1.363 . S
C922 C923 1.370 1_554 S
C922 C926 1.524 . S
C923 C915 1.503 . S
C923 C922 1.370 1_556 S
C923 C924 1.403 . S
C924 C923 1.403 . S
C924 C925 1.404 . S
C924 C927 1.539 . S
C925 C921 1.408 . S
C925 C924 1.404 . S
C925 H937 0.930 . S
C926 C922 1.524 . S
C926 H938 0.956 . S
C926 H939 0.961 . S
C926 H940 0.961 . S
C927 C924 1.539 . S
C927 H941 0.958 . S
C927 H942 0.961 . S
C927 H943 0.960 . S
H928 C912 0.931 . S
H929 C917 0.929 . S
H930 C918 0.960 . S
H931 C918 0.962 . S
H932 C918 0.960 . S
H933 C919 0.961 . S
H934 C919 0.961 . S
H935 C919 0.961 . S
H936 C920 0.931 . S
H937 C925 0.930 . S
H938 C926 0.956 . S
H939 C926 0.961 . S
H940 C926 0.961 . S
H941 C927 0.958 . S
H942 C927 0.961 . S
H943 C927 0.960 . S
C944 C945 1.391 . S
C944 C946 1.394 . S
C944 H960 0.931 . S
C945 C944 1.391 . S
C945 C949 1.376 . S
C946 C944 1.394 . S
C946 C947 1.369 . S
C946 C950 1.531 . S
C947 C946 1.369 . S
C947 C948 1.410 . S
C947 C955 1.503 . S
C948 C947 1.410 . S
C948 C949 1.392 . S
C948 C951 1.511 . S
C949 C945 1.376 . S
C949 C948 1.392 . S
C949 H961 0.929 . S
C950 C946 1.531 . S
C950 H962 0.960 . S
C950 H963 0.962 . S
C950 H964 0.960 . S
C951 C948 1.511 . S
C951 H965 0.961 . S
C951 H966 0.961 . S
C951 H967 0.961 . S
C952 C953 1.370 . S
C952 C954 1.363 . S
C952 H968 0.931 . S
C953 C952 1.370 . S
C953 C957 1.408 . S
C954 C952 1.363 . S
C954 C955 1.370 . S
C954 C958 1.524 . S
C955 C947 1.503 . S
C955 C954 1.370 . S
C955 C956 1.403 . S
C956 C955 1.403 . S
C956 C957 1.404 . S
C956 C959 1.539 . S
C957 C953 1.408 . S
C957 C956 1.404 . S
C957 H969 0.930 . S
C958 C954 1.524 . S
C958 H970 0.956 . S
C958 H971 0.961 . S
C958 H972 0.961 . S
C959 C956 1.539 . S
C959 H973 0.958 . S
C959 H974 0.961 . S
C959 H975 0.960 . S
H960 C944 0.931 . S
H961 C949 0.929 . S
H962 C950 0.960 . S
H963 C950 0.962 . S
H964 C950 0.960 . S
H965 C951 0.961 . S
H966 C951 0.961 . S
H967 C951 0.961 . S
H968 C952 0.931 . S
H969 C957 0.930 . S
H970 C958 0.956 . S
H971 C958 0.961 . S
H972 C958 0.961 . S
H973 C959 0.958 . S
H974 C959 0.961 . S
H975 C959 0.960 . S
C976 C977 1.391 . S
C976 C978 1.394 . S
C976 H992 0.931 . S
C977 C976 1.391 . S
C977 C981 1.376 . S
C978 C976 1.394 . S
C978 C979 1.369 . S
C978 C982 1.531 . S
C979 C978 1.369 . S
C979 C980 1.410 . S
C979 C987 1.503 . S
C980 C979 1.410 . S
C980 C981 1.392 . S
C980 C983 1.511 . S
C981 C977 1.376 . S
C981 C980 1.392 . S
C981 H993 0.929 . S
C982 C978 1.531 . S
C982 H994 0.960 . S
C982 H995 0.962 . S
C982 H996 0.960 . S
C983 C980 1.511 . S
C983 H997 0.961 . S
C983 H998 0.961 . S
C983 H999 0.961 . S
C984 C985 1.370 . S
C984 C986 1.363 . S
C984 H1000 0.931 . S
C985 C984 1.370 . S
C985 C989 1.408 . S
C986 C984 1.363 . S
C986 C987 1.370 . S
C986 C990 1.524 . S
C987 C979 1.503 . S
C987 C986 1.370 . S
C987 C988 1.403 . S
C988 C987 1.403 . S
C988 C989 1.404 . S
C988 C991 1.539 . S
C989 C985 1.408 . S
C989 C988 1.404 . S
C989 H1001 0.930 . S
C990 C986 1.524 . S
C990 H1002 0.956 . S
C990 H1003 0.961 . S
C990 H1004 0.961 . S
C991 C988 1.539 . S
C991 H1005 0.958 . S
C991 H1006 0.961 . S
C991 H1007 0.960 . S
H992 C976 0.931 . S
H993 C981 0.929 . S
H994 C982 0.960 . S
H995 C982 0.962 . S
H996 C982 0.960 . S
H997 C983 0.961 . S
H998 C983 0.961 . S
H999 C983 0.961 . S
H1000 C984 0.931 . S
H1001 C989 0.930 . S
H1002 C990 0.956 . S
H1003 C990 0.961 . S
H1004 C990 0.961 . S
H1005 C991 0.958 . S
H1006 C991 0.961 . S
H1007 C991 0.960 . S
C1008 C1009 1.391 . S
C1008 C1010 1.394 . S
C1008 H1024 0.931 . S
C1009 C1008 1.391 . S
C1009 C1013 1.376 . S
C1010 C1008 1.394 . S
C1010 C1011 1.369 . S
C1010 C1014 1.531 . S
C1011 C1010 1.369 . S
C1011 C1012 1.410 . S
C1011 C1019 1.503 . S
C1012 C1011 1.410 . S
C1012 C1013 1.392 . S
C1012 C1015 1.511 . S
C1013 C1009 1.376 . S
C1013 C1012 1.392 . S
C1013 H1025 0.929 . S
C1014 C1010 1.531 . S
C1014 H1026 0.960 . S
C1014 H1027 0.962 . S
C1014 H1028 0.960 . S
C1015 C1012 1.511 . S
C1015 H1029 0.961 . S
C1015 H1030 0.961 . S
C1015 H1031 0.961 . S
C1016 C1017 1.370 . S
C1016 C1018 1.363 . S
C1016 H1032 0.931 . S
C1017 C1016 1.370 . S
C1017 C1021 1.408 . S
C1018 C1016 1.363 . S
C1018 C1019 1.370 . S
C1018 C1022 1.524 . S
C1019 C1011 1.503 . S
C1019 C1018 1.370 . S
C1019 C1020 1.403 . S
C1020 C1019 1.403 . S
C1020 C1021 1.404 . S
C1020 C1023 1.539 . S
C1021 C1017 1.408 . S
C1021 C1020 1.404 . S
C1021 H1033 0.930 . S
C1022 C1018 1.524 . S
C1022 H1034 0.956 . S
C1022 H1035 0.961 . S
C1022 H1036 0.961 . S
C1023 C1020 1.539 . S
C1023 H1037 0.958 . S
C1023 H1038 0.961 . S
C1023 H1039 0.960 . S
H1024 C1008 0.931 . S
H1025 C1013 0.929 . S
H1026 C1014 0.960 . S
H1027 C1014 0.962 . S
H1028 C1014 0.960 . S
H1029 C1015 0.961 . S
H1030 C1015 0.961 . S
H1031 C1015 0.961 . S
H1032 C1016 0.931 . S
H1033 C1021 0.930 . S
H1034 C1022 0.956 . S
H1035 C1022 0.961 . S
H1036 C1022 0.961 . S
H1037 C1023 0.958 . S
H1038 C1023 0.961 . S
H1039 C1023 0.960 . S
C1040 C1041 1.391 . S
C1040 C1042 1.394 . S
C1040 H1056 0.931 . S
C1041 C1040 1.391 . S
C1041 C1045 1.376 . S
C1042 C1040 1.394 . S
C1042 C1043 1.369 . S
C1042 C1046 1.531 . S
C1043 C1042 1.369 . S
C1043 C1044 1.410 . S
C1043 C1051 1.503 . S
C1044 C1043 1.410 . S
C1044 C1045 1.392 . S
C1044 C1047 1.511 . S
C1045 C1041 1.376 . S
C1045 C1044 1.392 . S
C1045 H1057 0.929 . S
C1046 C1042 1.531 . S
C1046 H1058 0.960 . S
C1046 H1059 0.962 . S
C1046 H1060 0.960 . S
C1047 C1044 1.511 . S
C1047 H1061 0.961 . S
C1047 H1062 0.961 . S
C1047 H1063 0.961 . S
C1048 C1049 1.370 . S
C1048 C1050 1.363 . S
C1048 H1064 0.931 . S
C1049 C1048 1.370 . S
C1049 C1053 1.408 . S
C1050 C1048 1.363 . S
C1050 C1051 1.370 . S
C1050 C1054 1.524 . S
C1051 C1043 1.503 . S
C1051 C1050 1.370 . S
C1051 C1052 1.403 . S
C1052 C1051 1.403 . S
C1052 C1053 1.404 . S
C1052 C1055 1.539 . S
C1053 C1049 1.408 . S
C1053 C1052 1.404 . S
C1053 H1065 0.930 . S
C1054 C1050 1.524 . S
C1054 H1066 0.956 . S
C1054 H1067 0.961 . S
C1054 H1068 0.961 . S
C1055 C1052 1.539 . S
C1055 H1069 0.958 . S
C1055 H1070 0.961 . S
C1055 H1071 0.960 . S
H1056 C1040 0.931 . S
H1057 C1045 0.929 . S
H1058 C1046 0.960 . S
H1059 C1046 0.962 . S
H1060 C1046 0.960 . S
H1061 C1047 0.961 . S
H1062 C1047 0.961 . S
H1063 C1047 0.961 . S
H1064 C1048 0.931 . S
H1065 C1053 0.930 . S
H1066 C1054 0.956 . S
H1067 C1054 0.961 . S
H1068 C1054 0.961 . S
H1069 C1055 0.958 . S
H1070 C1055 0.961 . S
H1071 C1055 0.960 . S
C1072 C1073 1.391 . S
C1072 C1074 1.394 . S
C1072 H1088 0.931 . S
C1073 C1072 1.391 . S
C1073 C1077 1.376 . S
C1074 C1072 1.394 . S
C1074 C1075 1.369 . S
C1074 C1078 1.531 . S
C1075 C1074 1.369 . S
C1075 C1076 1.410 . S
C1075 C1083 1.503 . S
C1076 C1075 1.410 . S
C1076 C1077 1.392 . S
C1076 C1079 1.511 . S
C1077 C1073 1.376 . S
C1077 C1076 1.392 . S
C1077 H1089 0.929 . S
C1078 C1074 1.531 . S
C1078 H1090 0.960 1_554 S
C1078 H1091 0.962 . S
C1078 H1092 0.960 1_554 S
C1079 C1076 1.511 . S
C1079 H1093 0.961 . S
C1079 H1094 0.961 . S
C1079 H1095 0.961 . S
C1080 C1081 1.370 . S
C1080 C1082 1.363 . S
C1080 H1096 0.931 . S
C1081 C1080 1.370 . S
C1081 C1085 1.408 1_554 S
C1082 C1080 1.363 . S
C1082 C1083 1.370 . S
C1082 C1086 1.524 . S
C1083 C1075 1.503 . S
C1083 C1082 1.370 . S
C1083 C1084 1.403 1_554 S
C1084 C1083 1.403 1_556 S
C1084 C1085 1.404 . S
C1084 C1087 1.539 . S
C1085 C1081 1.408 1_556 S
C1085 C1084 1.404 . S
C1085 H1097 0.930 . S
C1086 C1082 1.524 . S
C1086 H1098 0.956 . S
C1086 H1099 0.961 . S
C1086 H1100 0.961 . S
C1087 C1084 1.539 . S
C1087 H1101 0.958 . S
C1087 H1102 0.961 . S
C1087 H1103 0.960 . S
H1088 C1072 0.931 . S
H1089 C1077 0.929 . S
H1090 C1078 0.960 1_556 S
H1091 C1078 0.962 . S
H1092 C1078 0.960 1_556 S
H1093 C1079 0.961 . S
H1094 C1079 0.961 . S
H1095 C1079 0.961 . S
H1096 C1080 0.931 . S
H1097 C1085 0.930 . S
H1098 C1086 0.956 . S
H1099 C1086 0.961 . S
H1100 C1086 0.961 . S
H1101 C1087 0.958 . S
H1102 C1087 0.961 . S
H1103 C1087 0.960 . S
C1104 C1105 1.391 . S
C1104 C1106 1.394 . S
C1104 H1120 0.931 . S
C1105 C1104 1.391 . S
C1105 C1109 1.376 . S
C1106 C1104 1.394 . S
C1106 C1107 1.369 . S
C1106 C1110 1.531 . S
C1107 C1106 1.369 . S
C1107 C1108 1.410 . S
C1107 C1115 1.503 . S
C1108 C1107 1.410 . S
C1108 C1109 1.392 . S
C1108 C1111 1.511 . S
C1109 C1105 1.376 . S
C1109 C1108 1.392 . S
C1109 H1121 0.929 . S
C1110 C1106 1.531 . S
C1110 H1122 0.960 . S
C1110 H1123 0.962 . S
C1110 H1124 0.960 . S
C1111 C1108 1.511 . S
C1111 H1125 0.961 . S
C1111 H1126 0.961 . S
C1111 H1127 0.961 . S
C1112 C1113 1.370 . S
C1112 C1114 1.363 . S
C1112 H1128 0.931 . S
C1113 C1112 1.370 . S
C1113 C1117 1.408 . S
C1114 C1112 1.363 . S
C1114 C1115 1.370 . S
C1114 C1118 1.524 . S
C1115 C1107 1.503 . S
C1115 C1114 1.370 . S
C1115 C1116 1.403 . S
C1116 C1115 1.403 . S
C1116 C1117 1.404 . S
C1116 C1119 1.539 . S
C1117 C1113 1.408 . S
C1117 C1116 1.404 . S
C1117 H1129 0.930 . S
C1118 C1114 1.524 . S
C1118 H1130 0.956 . S
C1118 H1131 0.961 . S
C1118 H1132 0.961 . S
C1119 C1116 1.539 . S
C1119 H1133 0.958 . S
C1119 H1134 0.961 . S
C1119 H1135 0.960 . S
H1120 C1104 0.931 . S
H1121 C1109 0.929 . S
H1122 C1110 0.960 . S
H1123 C1110 0.962 . S
H1124 C1110 0.960 . S
H1125 C1111 0.961 . S
H1126 C1111 0.961 . S
H1127 C1111 0.961 . S
H1128 C1112 0.931 . S
H1129 C1117 0.930 . S
H1130 C1118 0.956 . S
H1131 C1118 0.961 . S
H1132 C1118 0.961 . S
H1133 C1119 0.958 . S
H1134 C1119 0.961 . S
H1135 C1119 0.960 . S
C1136 C1137 1.391 . S
C1136 C1138 1.394 . S
C1136 H1152 0.931 . S
C1137 C1136 1.391 . S
C1137 C1141 1.376 . S
C1138 C1136 1.394 . S
C1138 C1139 1.369 . S
C1138 C1142 1.531 . S
C1139 C1138 1.369 . S
C1139 C1140 1.410 . S
C1139 C1147 1.503 . S
C1140 C1139 1.410 . S
C1140 C1141 1.392 . S
C1140 C1143 1.511 . S
C1141 C1137 1.376 . S
C1141 C1140 1.392 . S
C1141 H1153 0.929 . S
C1142 C1138 1.531 . S
C1142 H1154 0.960 . S
C1142 H1155 0.962 . S
C1142 H1156 0.960 . S
C1143 C1140 1.511 . S
C1143 H1157 0.961 . S
C1143 H1158 0.961 . S
C1143 H1159 0.961 . S
C1144 C1145 1.370 . S
C1144 C1146 1.363 . S
C1144 H1160 0.931 . S
C1145 C1144 1.370 . S
C1145 C1149 1.408 . S
C1146 C1144 1.363 . S
C1146 C1147 1.370 . S
C1146 C1150 1.524 . S
C1147 C1139 1.503 . S
C1147 C1146 1.370 . S
C1147 C1148 1.403 . S
C1148 C1147 1.403 . S
C1148 C1149 1.404 . S
C1148 C1151 1.539 . S
C1149 C1145 1.408 . S
C1149 C1148 1.404 . S
C1149 H1161 0.930 . S
C1150 C1146 1.524 . S
C1150 H1162 0.956 . S
C1150 H1163 0.961 . S
C1150 H1164 0.961 . S
C1151 C1148 1.539 . S
C1151 H1165 0.958 . S
C1151 H1166 0.961 . S
C1151 H1167 0.960 . S
H1152 C1136 0.931 . S
H1153 C1141 0.929 . S
H1154 C1142 0.960 . S
H1155 C1142 0.962 . S
H1156 C1142 0.960 . S
H1157 C1143 0.961 . S
H1158 C1143 0.961 . S
H1159 C1143 0.961 . S
H1160 C1144 0.931 . S
H1161 C1149 0.930 . S
H1162 C1150 0.956 . S
H1163 C1150 0.961 . S
H1164 C1150 0.961 . S
H1165 C1151 0.958 . S
H1166 C1151 0.961 . S
H1167 C1151 0.960 . S
C1168 C1169 1.391 . S
C1168 C1170 1.394 . S
C1168 H1184 0.931 . S
C1169 C1168 1.391 . S
C1169 C1173 1.376 . S
C1170 C1168 1.394 . S
C1170 C1171 1.369 . S
C1170 C1174 1.531 . S
C1171 C1170 1.369 . S
C1171 C1172 1.410 . S
C1171 C1179 1.503 . S
C1172 C1171 1.410 . S
C1172 C1173 1.392 . S
C1172 C1175 1.511 . S
C1173 C1169 1.376 . S
C1173 C1172 1.392 . S
C1173 H1185 0.929 . S
C1174 C1170 1.531 . S
C1174 H1186 0.960 . S
C1174 H1187 0.962 . S
C1174 H1188 0.960 . S
C1175 C1172 1.511 . S
C1175 H1189 0.961 . S
C1175 H1190 0.961 . S
C1175 H1191 0.961 . S
C1176 C1177 1.370 . S
C1176 C1178 1.363 . S
C1176 H1192 0.931 . S
C1177 C1176 1.370 . S
C1177 C1181 1.408 . S
C1178 C1176 1.363 . S
C1178 C1179 1.370 . S
C1178 C1182 1.524 . S
C1179 C1171 1.503 . S
C1179 C1178 1.370 . S
C1179 C1180 1.403 . S
C1180 C1179 1.403 . S
C1180 C1181 1.404 . S
C1180 C1183 1.539 . S
C1181 C1177 1.408 . S
C1181 C1180 1.404 . S
C1181 H1193 0.930 . S
C1182 C1178 1.524 . S
C1182 H1194 0.956 . S
C1182 H1195 0.961 . S
C1182 H1196 0.961 . S
C1183 C1180 1.539 . S
C1183 H1197 0.958 . S
C1183 H1198 0.961 . S
C1183 H1199 0.960 . S
H1184 C1168 0.931 . S
H1185 C1173 0.929 . S
H1186 C1174 0.960 . S
H1187 C1174 0.962 . S
H1188 C1174 0.960 . S
H1189 C1175 0.961 . S
H1190 C1175 0.961 . S
H1191 C1175 0.961 . S
H1192 C1176 0.931 . S
H1193 C1181 0.930 . S
H1194 C1182 0.956 . S
H1195 C1182 0.961 . S
H1196 C1182 0.961 . S
H1197 C1183 0.958 . S
H1198 C1183 0.961 . S
H1199 C1183 0.960 . S
C1200 C1201 1.391 . S
C1200 C1202 1.394 . S
C1200 H1216 0.931 . S
C1201 C1200 1.391 . S
C1201 C1205 1.376 . S
C1202 C1200 1.394 . S
C1202 C1203 1.369 . S
C1202 C1206 1.531 . S
C1203 C1202 1.369 . S
C1203 C1204 1.410 . S
C1203 C1211 1.503 . S
C1204 C1203 1.410 . S
C1204 C1205 1.392 . S
C1204 C1207 1.511 . S
C1205 C1201 1.376 . S
C1205 C1204 1.392 . S
C1205 H1217 0.929 . S
C1206 C1202 1.531 . S
C1206 H1218 0.960 . S
C1206 H1219 0.962 . S
C1206 H1220 0.960 . S
C1207 C1204 1.511 . S
C1207 H1221 0.961 . S
C1207 H1222 0.961 . S
C1207 H1223 0.961 . S
C1208 C1209 1.370 . S
C1208 C1210 1.363 . S
C1208 H1224 0.931 . S
C1209 C1208 1.370 . S
C1209 C1213 1.408 . S
C1210 C1208 1.363 . S
C1210 C1211 1.370 . S
C1210 C1214 1.524 . S
C1211 C1203 1.503 . S
C1211 C1210 1.370 . S
C1211 C1212 1.403 . S
C1212 C1211 1.403 . S
C1212 C1213 1.404 . S
C1212 C1215 1.539 . S
C1213 C1209 1.408 . S
C1213 C1212 1.404 . S
C1213 H1225 0.930 . S
C1214 C1210 1.524 . S
C1214 H1226 0.956 . S
C1214 H1227 0.961 . S
C1214 H1228 0.961 . S
C1215 C1212 1.539 . S
C1215 H1229 0.958 . S
C1215 H1230 0.961 . S
C1215 H1231 0.960 . S
H1216 C1200 0.931 . S
H1217 C1205 0.929 . S
H1218 C1206 0.960 . S
H1219 C1206 0.962 . S
H1220 C1206 0.960 . S
H1221 C1207 0.961 . S
H1222 C1207 0.961 . S
H1223 C1207 0.961 . S
H1224 C1208 0.931 . S
H1225 C1213 0.930 . S
H1226 C1214 0.956 . S
H1227 C1214 0.961 . S
H1228 C1214 0.961 . S
H1229 C1215 0.958 . S
H1230 C1215 0.961 . S
H1231 C1215 0.960 . S
C1232 C1233 1.391 . S
C1232 C1234 1.394 . S
C1232 H1248 0.931 . S
C1233 C1232 1.391 . S
C1233 C1237 1.376 1_556 S
C1234 C1232 1.394 . S
C1234 C1235 1.369 . S
C1234 C1238 1.531 . S
C1235 C1234 1.369 . S
C1235 C1236 1.410 1_556 S
C1235 C1243 1.503 . S
C1236 C1235 1.410 1_554 S
C1236 C1237 1.392 . S
C1236 C1239 1.511 . S
C1237 C1233 1.376 1_554 S
C1237 C1236 1.392 . S
C1237 H1249 0.929 . S
C1238 C1234 1.531 . S
C1238 H1250 0.960 . S
C1238 H1251 0.962 . S
C1238 H1252 0.960 . S
C1239 C1236 1.511 . S
C1239 H1253 0.961 . S
C1239 H1254 0.961 . S
C1239 H1255 0.961 . S
C1240 C1241 1.375 . S
C1240 C1242 1.367 . S
C1240 H1256 0.921 1_556 S
C1241 C1240 1.375 . S
C1241 C1245 1.408 . S
C1242 C1240 1.367 . S
C1242 C1243 1.370 . S
C1242 C1246 1.517 1_556 S
C1243 C1235 1.503 . S
C1243 C1242 1.370 . S
C1243 C1244 1.403 . S
C1244 C1243 1.403 . S
C1244 C1245 1.404 . S
C1244 C1247 1.539 . S
C1245 C1241 1.408 . S
C1245 C1244 1.404 . S
C1245 H1257 0.930 . S
C1246 C1242 1.517 1_554 S
C1246 H1258 0.899 1_554 S
C1246 H1259 1.010 . S
C1246 H1260 0.981 . S
C1247 C1244 1.539 . S
C1247 H1261 0.958 . S
C1247 H1262 0.961 . S
C1247 H1263 0.960 . S
H1248 C1232 0.931 . S
H1249 C1237 0.929 . S
H1250 C1238 0.960 . S
H1251 C1238 0.962 . S
H1252 C1238 0.960 . S
H1253 C1239 0.961 . S
H1254 C1239 0.961 . S
H1255 C1239 0.961 . S
H1256 C1240 0.921 1_554 S
H1257 C1245 0.930 . S
H1258 C1246 0.899 1_556 S
H1259 C1246 1.010 . S
H1260 C1246 0.981 . S
H1261 C1247 0.958 . S
H1262 C1247 0.961 . S
H1263 C1247 0.960 . S
C1264 C1265 1.391 . S
C1264 C1266 1.394 . S
C1264 H1280 0.931 . S
C1265 C1264 1.391 . S
C1265 C1269 1.376 . S
C1266 C1264 1.394 . S
C1266 C1267 1.369 . S
C1266 C1270 1.531 . S
C1267 C1266 1.369 . S
C1267 C1268 1.410 . S
C1267 C1275 1.503 . S
C1268 C1267 1.410 . S
C1268 C1269 1.392 . S
C1268 C1271 1.511 . S
C1269 C1265 1.376 . S
C1269 C1268 1.392 . S
C1269 H1281 0.929 . S
C1270 C1266 1.531 . S
C1270 H1282 0.960 . S
C1270 H1283 0.962 . S
C1270 H1284 0.960 . S
C1271 C1268 1.511 . S
C1271 H1285 0.961 . S
C1271 H1286 0.961 . S
C1271 H1287 0.961 . S
C1272 C1273 1.370 . S
C1272 C1274 1.363 . S
C1272 H1288 0.931 . S
C1273 C1272 1.370 . S
C1273 C1277 1.408 . S
C1274 C1272 1.363 . S
C1274 C1275 1.370 . S
C1274 C1278 1.524 . S
C1275 C1267 1.503 . S
C1275 C1274 1.370 . S
C1275 C1276 1.403 . S
C1276 C1275 1.403 . S
C1276 C1277 1.404 . S
C1276 C1279 1.539 . S
C1277 C1273 1.408 . S
C1277 C1276 1.404 . S
C1277 H1289 0.930 . S
C1278 C1274 1.524 . S
C1278 H1290 0.956 . S
C1278 H1291 0.961 . S
C1278 H1292 0.961 . S
C1279 C1276 1.539 . S
C1279 H1293 0.958 . S
C1279 H1294 0.961 . S
C1279 H1295 0.960 . S
H1280 C1264 0.931 . S
H1281 C1269 0.929 . S
H1282 C1270 0.960 . S
H1283 C1270 0.962 . S
H1284 C1270 0.960 . S
H1285 C1271 0.961 . S
H1286 C1271 0.961 . S
H1287 C1271 0.961 . S
H1288 C1272 0.931 . S
H1289 C1277 0.930 . S
H1290 C1278 0.956 . S
H1291 C1278 0.961 . S
H1292 C1278 0.961 . S
H1293 C1279 0.958 . S
H1294 C1279 0.961 . S
H1295 C1279 0.960 . S
C1296 C1297 1.391 . S
C1296 C1298 1.394 . S
C1296 H1312 0.931 . S
C1297 C1296 1.391 . S
C1297 C1301 1.376 . S
C1298 C1296 1.394 . S
C1298 C1299 1.369 . S
C1298 C1302 1.531 . S
C1299 C1298 1.369 . S
C1299 C1300 1.410 . S
C1299 C1307 1.503 . S
C1300 C1299 1.410 . S
C1300 C1301 1.392 . S
C1300 C1303 1.511 . S
C1301 C1297 1.376 . S
C1301 C1300 1.392 . S
C1301 H1313 0.929 . S
C1302 C1298 1.531 . S
C1302 H1314 0.960 . S
C1302 H1315 0.962 . S
C1302 H1316 0.960 . S
C1303 C1300 1.511 . S
C1303 H1317 0.961 . S
C1303 H1318 0.961 . S
C1303 H1319 0.961 . S
C1304 C1305 1.370 . S
C1304 C1306 1.363 . S
C1304 H1320 0.931 . S
C1305 C1304 1.370 . S
C1305 C1309 1.408 . S
C1306 C1304 1.363 . S
C1306 C1307 1.370 . S
C1306 C1310 1.524 . S
C1307 C1299 1.503 . S
C1307 C1306 1.370 . S
C1307 C1308 1.403 . S
C1308 C1307 1.403 . S
C1308 C1309 1.404 . S
C1308 C1311 1.539 . S
C1309 C1305 1.408 . S
C1309 C1308 1.404 . S
C1309 H1321 0.930 . S
C1310 C1306 1.524 . S
C1310 H1322 0.956 . S
C1310 H1323 0.961 . S
C1310 H1324 0.961 . S
C1311 C1308 1.539 . S
C1311 H1325 0.958 . S
C1311 H1326 0.961 . S
C1311 H1327 0.960 . S
H1312 C1296 0.931 . S
H1313 C1301 0.929 . S
H1314 C1302 0.960 . S
H1315 C1302 0.962 . S
H1316 C1302 0.960 . S
H1317 C1303 0.961 . S
H1318 C1303 0.961 . S
H1319 C1303 0.961 . S
H1320 C1304 0.931 . S
H1321 C1309 0.930 . S
H1322 C1310 0.956 . S
H1323 C1310 0.961 . S
H1324 C1310 0.961 . S
H1325 C1311 0.958 . S
H1326 C1311 0.961 . S
H1327 C1311 0.960 . S
C1328 C1329 1.391 . S
C1328 C1330 1.394 . S
C1328 H1344 0.931 . S
C1329 C1328 1.391 . S
C1329 C1333 1.376 . S
C1330 C1328 1.394 . S
C1330 C1331 1.369 . S
C1330 C1334 1.531 . S
C1331 C1330 1.369 . S
C1331 C1332 1.410 . S
C1331 C1339 1.503 . S
C1332 C1331 1.410 . S
C1332 C1333 1.392 . S
C1332 C1335 1.511 . S
C1333 C1329 1.376 . S
C1333 C1332 1.392 . S
C1333 H1345 0.929 . S
C1334 C1330 1.531 . S
C1334 H1346 0.960 . S
C1334 H1347 0.962 . S
C1334 H1348 0.960 . S
C1335 C1332 1.511 . S
C1335 H1349 0.961 . S
C1335 H1350 0.961 . S
C1335 H1351 0.961 . S
C1336 C1337 1.370 . S
C1336 C1338 1.363 . S
C1336 H1352 0.931 . S
C1337 C1336 1.370 . S
C1337 C1341 1.408 . S
C1338 C1336 1.363 . S
C1338 C1339 1.370 . S
C1338 C1342 1.524 . S
C1339 C1331 1.503 . S
C1339 C1338 1.370 . S
C1339 C1340 1.403 . S
C1340 C1339 1.403 . S
C1340 C1341 1.404 . S
C1340 C1343 1.539 . S
C1341 C1337 1.408 . S
C1341 C1340 1.404 . S
C1341 H1353 0.930 . S
C1342 C1338 1.524 . S
C1342 H1354 0.956 . S
C1342 H1355 0.961 . S
C1342 H1356 0.961 . S
C1343 C1340 1.539 . S
C1343 H1357 0.958 . S
C1343 H1358 0.961 . S
C1343 H1359 0.960 . S
H1344 C1328 0.931 . S
H1345 C1333 0.929 . S
H1346 C1334 0.960 . S
H1347 C1334 0.962 . S
H1348 C1334 0.960 . S
H1349 C1335 0.961 . S
H1350 C1335 0.961 . S
H1351 C1335 0.961 . S
H1352 C1336 0.931 . S
H1353 C1341 0.930 . S
H1354 C1342 0.956 . S
H1355 C1342 0.961 . S
H1356 C1342 0.961 . S
H1357 C1343 0.958 . S
H1358 C1343 0.961 . S
H1359 C1343 0.960 . S
C1360 C1361 1.391 . S
C1360 C1362 1.394 . S
C1360 H1376 0.931 . S
C1361 C1360 1.391 . S
C1361 C1365 1.376 . S
C1362 C1360 1.394 . S
C1362 C1363 1.369 . S
C1362 C1366 1.531 . S
C1363 C1362 1.369 . S
C1363 C1364 1.410 . S
C1363 C1371 1.503 . S
C1364 C1363 1.410 . S
C1364 C1365 1.392 . S
C1364 C1367 1.511 . S
C1365 C1361 1.376 . S
C1365 C1364 1.392 . S
C1365 H1377 0.929 . S
C1366 C1362 1.531 . S
C1366 H1378 0.960 . S
C1366 H1379 0.962 . S
C1366 H1380 0.960 . S
C1367 C1364 1.511 . S
C1367 H1381 0.961 . S
C1367 H1382 0.961 . S
C1367 H1383 0.961 . S
C1368 C1369 1.370 . S
C1368 C1370 1.363 . S
C1368 H1384 0.931 . S
C1369 C1368 1.370 . S
C1369 C1373 1.408 . S
C1370 C1368 1.363 . S
C1370 C1371 1.370 . S
C1370 C1374 1.524 . S
C1371 C1363 1.503 . S
C1371 C1370 1.370 . S
C1371 C1372 1.403 . S
C1372 C1371 1.403 . S
C1372 C1373 1.404 . S
C1372 C1375 1.539 . S
C1373 C1369 1.408 . S
C1373 C1372 1.404 . S
C1373 H1385 0.930 . S
C1374 C1370 1.524 . S
C1374 H1386 0.956 . S
C1374 H1387 0.961 . S
C1374 H1388 0.961 . S
C1375 C1372 1.539 . S
C1375 H1389 0.958 . S
C1375 H1390 0.961 . S
C1375 H1391 0.960 . S
H1376 C1360 0.931 . S
H1377 C1365 0.929 . S
H1378 C1366 0.960 . S
H1379 C1366 0.962 . S
H1380 C1366 0.960 . S
H1381 C1367 0.961 . S
H1382 C1367 0.961 . S
H1383 C1367 0.961 . S
H1384 C1368 0.931 . S
H1385 C1373 0.930 . S
H1386 C1374 0.956 . S
H1387 C1374 0.961 . S
H1388 C1374 0.961 . S
H1389 C1375 0.958 . S
H1390 C1375 0.961 . S
H1391 C1375 0.960 . S
C1392 C1393 1.391 . S
C1392 C1394 1.394 . S
C1392 H1408 0.931 . S
C1393 C1392 1.391 . S
C1393 C1397 1.376 . S
C1394 C1392 1.394 . S
C1394 C1395 1.369 . S
C1394 C1398 1.531 . S
C1395 C1394 1.369 . S
C1395 C1396 1.410 . S
C1395 C1403 1.503 . S
C1396 C1395 1.410 . S
C1396 C1397 1.392 . S
C1396 C1399 1.511 . S
C1397 C1393 1.376 . S
C1397 C1396 1.392 . S
C1397 H1409 0.929 . S
C1398 C1394 1.531 . S
C1398 H1410 0.960 . S
C1398 H1411 0.962 . S
C1398 H1412 0.960 . S
C1399 C1396 1.511 . S
C1399 H1413 0.961 . S
C1399 H1414 0.961 . S
C1399 H1415 0.961 . S
C1400 C1401 1.370 . S
C1400 C1402 1.363 . S
C1400 H1416 0.931 . S
C1401 C1400 1.370 . S
C1401 C1405 1.408 . S
C1402 C1400 1.363 . S
C1402 C1403 1.370 . S
C1402 C1406 1.524 . S
C1403 C1395 1.503 . S
C1403 C1402 1.370 . S
C1403 C1404 1.403 . S
C1404 C1403 1.403 . S
C1404 C1405 1.404 . S
C1404 C1407 1.539 . S
C1405 C1401 1.408 . S
C1405 C1404 1.404 . S
C1405 H1417 0.930 . S
C1406 C1402 1.524 . S
C1406 H1418 0.956 . S
C1406 H1419 0.961 . S
C1406 H1420 0.961 . S
C1407 C1404 1.539 . S
C1407 H1421 0.958 . S
C1407 H1422 0.961 . S
C1407 H1423 0.960 . S
H1408 C1392 0.931 . S
H1409 C1397 0.929 . S
H1410 C1398 0.960 . S
H1411 C1398 0.962 . S
H1412 C1398 0.960 . S
H1413 C1399 0.961 . S
H1414 C1399 0.961 . S
H1415 C1399 0.961 . S
H1416 C1400 0.931 . S
H1417 C1405 0.930 . S
H1418 C1406 0.956 . S
H1419 C1406 0.961 . S
H1420 C1406 0.961 . S
H1421 C1407 0.958 . S
H1422 C1407 0.961 . S
H1423 C1407 0.960 . S
C1424 C1425 1.391 . S
C1424 C1426 1.394 . S
C1424 H1440 0.931 . S
C1425 C1424 1.391 . S
C1425 C1429 1.376 . S
C1426 C1424 1.394 . S
C1426 C1427 1.369 . S
C1426 C1430 1.531 . S
C1427 C1426 1.369 . S
C1427 C1428 1.410 . S
C1427 C1435 1.503 . S
C1428 C1427 1.410 . S
C1428 C1429 1.392 . S
C1428 C1431 1.511 . S
C1429 C1425 1.376 . S
C1429 C1428 1.392 . S
C1429 H1441 0.929 . S
C1430 C1426 1.531 . S
C1430 H1442 0.960 . S
C1430 H1443 0.962 . S
C1430 H1444 0.960 . S
C1431 C1428 1.511 . S
C1431 H1445 0.961 . S
C1431 H1446 0.961 . S
C1431 H1447 0.961 . S
C1432 C1433 1.370 . S
C1432 C1434 1.363 . S
C1432 H1448 0.931 . S
C1433 C1432 1.370 . S
C1433 C1437 1.408 . S
C1434 C1432 1.363 . S
C1434 C1435 1.370 . S
C1434 C1438 1.524 . S
C1435 C1427 1.503 . S
C1435 C1434 1.370 . S
C1435 C1436 1.403 . S
C1436 C1435 1.403 . S
C1436 C1437 1.404 . S
C1436 C1439 1.539 . S
C1437 C1433 1.408 . S
C1437 C1436 1.404 . S
C1437 H1449 0.930 . S
C1438 C1434 1.524 . S
C1438 H1450 0.956 . S
C1438 H1451 0.961 . S
C1438 H1452 0.961 . S
C1439 C1436 1.539 . S
C1439 H1453 0.958 . S
C1439 H1454 0.961 . S
C1439 H1455 0.960 . S
H1440 C1424 0.931 . S
H1441 C1429 0.929 . S
H1442 C1430 0.960 . S
H1443 C1430 0.962 . S
H1444 C1430 0.960 . S
H1445 C1431 0.961 . S
H1446 C1431 0.961 . S
H1447 C1431 0.961 . S
H1448 C1432 0.931 . S
H1449 C1437 0.930 . S
H1450 C1438 0.956 . S
H1451 C1438 0.961 . S
H1452 C1438 0.961 . S
H1453 C1439 0.958 . S
H1454 C1439 0.961 . S
H1455 C1439 0.960 . S
C1456 C1457 1.391 . S
C1456 C1458 1.394 . S
C1456 H1472 0.931 . S
C1457 C1456 1.391 . S
C1457 C1461 1.376 . S
C1458 C1456 1.394 . S
C1458 C1459 1.369 . S
C1458 C1462 1.531 . S
C1459 C1458 1.369 . S
C1459 C1460 1.410 . S
C1459 C1467 1.503 . S
C1460 C1459 1.410 . S
C1460 C1461 1.392 . S
C1460 C1463 1.511 . S
C1461 C1457 1.376 . S
C1461 C1460 1.392 . S
C1461 H1473 0.929 . S
C1462 C1458 1.531 . S
C1462 H1474 0.960 . S
C1462 H1475 0.962 . S
C1462 H1476 0.960 . S
C1463 C1460 1.511 . S
C1463 H1477 0.961 . S
C1463 H1478 0.961 . S
C1463 H1479 0.961 . S
C1464 C1465 1.370 . S
C1464 C1466 1.363 . S
C1464 H1480 0.931 . S
C1465 C1464 1.370 . S
C1465 C1469 1.408 . S
C1466 C1464 1.363 . S
C1466 C1467 1.370 . S
C1466 C1470 1.524 . S
C1467 C1459 1.503 . S
C1467 C1466 1.370 . S
C1467 C1468 1.403 . S
C1468 C1467 1.403 . S
C1468 C1469 1.404 . S
C1468 C1471 1.539 . S
C1469 C1465 1.408 . S
C1469 C1468 1.404 . S
C1469 H1481 0.930 . S
C1470 C1466 1.524 . S
C1470 H1482 0.956 . S
C1470 H1483 0.961 . S
C1470 H1484 0.961 . S
C1471 C1468 1.539 . S
C1471 H1485 0.958 . S
C1471 H1486 0.961 . S
C1471 H1487 0.960 . S
H1472 C1456 0.931 . S
H1473 C1461 0.929 . S
H1474 C1462 0.960 . S
H1475 C1462 0.962 . S
H1476 C1462 0.960 . S
H1477 C1463 0.961 . S
H1478 C1463 0.961 . S
H1479 C1463 0.961 . S
H1480 C1464 0.931 . S
H1481 C1469 0.930 . S
H1482 C1470 0.956 . S
H1483 C1470 0.961 . S
H1484 C1470 0.961 . S
H1485 C1471 0.958 . S
H1486 C1471 0.961 . S
H1487 C1471 0.960 . S
C1488 C1489 1.391 . S
C1488 C1490 1.394 . S
C1488 H1504 0.931 . S
C1489 C1488 1.391 . S
C1489 C1493 1.376 . S
C1490 C1488 1.394 . S
C1490 C1491 1.369 . S
C1490 C1494 1.531 . S
C1491 C1490 1.369 . S
C1491 C1492 1.410 . S
C1491 C1499 1.503 . S
C1492 C1491 1.410 . S
C1492 C1493 1.392 . S
C1492 C1495 1.511 . S
C1493 C1489 1.376 . S
C1493 C1492 1.392 . S
C1493 H1505 0.929 . S
C1494 C1490 1.531 . S
C1494 H1506 0.960 . S
C1494 H1507 0.962 . S
C1494 H1508 0.960 . S
C1495 C1492 1.511 . S
C1495 H1509 0.961 . S
C1495 H1510 0.961 . S
C1495 H1511 0.961 . S
C1496 C1497 1.370 . S
C1496 C1498 1.363 . S
C1496 H1512 0.931 . S
C1497 C1496 1.370 . S
C1497 C1501 1.408 . S
C1498 C1496 1.363 . S
C1498 C1499 1.370 . S
C1498 C1502 1.524 . S
C1499 C1491 1.503 . S
C1499 C1498 1.370 . S
C1499 C1500 1.403 . S
C1500 C1499 1.403 . S
C1500 C1501 1.404 . S
C1500 C1503 1.539 . S
C1501 C1497 1.408 . S
C1501 C1500 1.404 . S
C1501 H1513 0.930 . S
C1502 C1498 1.524 . S
C1502 H1514 0.956 . S
C1502 H1515 0.961 . S
C1502 H1516 0.961 . S
C1503 C1500 1.539 . S
C1503 H1517 0.958 . S
C1503 H1518 0.961 . S
C1503 H1519 0.960 . S
H1504 C1488 0.931 . S
H1505 C1493 0.929 . S
H1506 C1494 0.960 . S
H1507 C1494 0.962 . S
H1508 C1494 0.960 . S
H1509 C1495 0.961 . S
H1510 C1495 0.961 . S
H1511 C1495 0.961 . S
H1512 C1496 0.931 . S
H1513 C1501 0.930 . S
H1514 C1502 0.956 . S
H1515 C1502 0.961 . S
H1516 C1502 0.961 . S
H1517 C1503 0.958 . S
H1518 C1503 0.961 . S
H1519 C1503 0.960 . S
C1520 C1521 1.391 . S
C1520 C1522 1.394 . S
C1520 H1536 0.931 . S
C1521 C1520 1.391 . S
C1521 C1525 1.376 . S
C1522 C1520 1.394 . S
C1522 C1523 1.369 . S
C1522 C1526 1.531 . S
C1523 C1522 1.369 . S
C1523 C1524 1.410 . S
C1523 C1531 1.503 . S
C1524 C1523 1.410 . S
C1524 C1525 1.392 . S
C1524 C1527 1.511 . S
C1525 C1521 1.376 . S
C1525 C1524 1.392 . S
C1525 H1537 0.929 . S
C1526 C1522 1.531 . S
C1526 H1538 0.960 . S
C1526 H1539 0.962 . S
C1526 H1540 0.960 . S
C1527 C1524 1.511 . S
C1527 H1541 0.961 . S
C1527 H1542 0.961 . S
C1527 H1543 0.961 . S
C1528 C1529 1.370 . S
C1528 C1530 1.363 . S
C1528 H1544 0.931 . S
C1529 C1528 1.370 . S
C1529 C1533 1.408 . S
C1530 C1528 1.363 . S
C1530 C1531 1.370 . S
C1530 C1534 1.524 . S
C1531 C1523 1.503 . S
C1531 C1530 1.370 . S
C1531 C1532 1.403 . S
C1532 C1531 1.403 . S
C1532 C1533 1.404 . S
C1532 C1535 1.539 . S
C1533 C1529 1.408 . S
C1533 C1532 1.404 . S
C1533 H1545 0.930 . S
C1534 C1530 1.524 . S
C1534 H1546 0.956 . S
C1534 H1547 0.961 . S
C1534 H1548 0.961 . S
C1535 C1532 1.539 . S
C1535 H1549 0.958 . S
C1535 H1550 0.961 . S
C1535 H1551 0.960 . S
H1536 C1520 0.931 . S
H1537 C1525 0.929 . S
H1538 C1526 0.960 . S
H1539 C1526 0.962 . S
H1540 C1526 0.960 . S
H1541 C1527 0.961 . S
H1542 C1527 0.961 . S
H1543 C1527 0.961 . S
H1544 C1528 0.931 . S
H1545 C1533 0.930 . S
H1546 C1534 0.956 . S
H1547 C1534 0.961 . S
H1548 C1534 0.961 . S
H1549 C1535 0.958 . S
H1550 C1535 0.961 . S
H1551 C1535 0.960 . S
C1552 C1553 1.391 . S
C1552 C1554 1.394 . S
C1552 H1568 0.931 . S
C1553 C1552 1.391 . S
C1553 C1557 1.376 . S
C1554 C1552 1.394 . S
C1554 C1555 1.369 . S
C1554 C1558 1.531 . S
C1555 C1554 1.369 . S
C1555 C1556 1.410 . S
C1555 C1563 1.503 . S
C1556 C1555 1.410 . S
C1556 C1557 1.392 . S
C1556 C1559 1.511 . S
C1557 C1553 1.376 . S
C1557 C1556 1.392 . S
C1557 H1569 0.929 . S
C1558 C1554 1.531 . S
C1558 H1570 0.960 . S
C1558 H1571 0.962 . S
C1558 H1572 0.960 . S
C1559 C1556 1.511 . S
C1559 H1573 0.961 . S
C1559 H1574 0.961 . S
C1559 H1575 0.961 . S
C1560 C1561 1.370 . S
C1560 C1562 1.363 . S
C1560 H1576 0.931 . S
C1561 C1560 1.370 . S
C1561 C1565 1.408 . S
C1562 C1560 1.363 . S
C1562 C1563 1.370 . S
C1562 C1566 1.524 . S
C1563 C1555 1.503 . S
C1563 C1562 1.370 . S
C1563 C1564 1.403 . S
C1564 C1563 1.403 . S
C1564 C1565 1.404 . S
C1564 C1567 1.539 . S
C1565 C1561 1.408 . S
C1565 C1564 1.404 . S
C1565 H1577 0.930 . S
C1566 C1562 1.524 . S
C1566 H1578 0.956 . S
C1566 H1579 0.961 . S
C1566 H1580 0.961 . S
C1567 C1564 1.539 . S
C1567 H1581 0.958 . S
C1567 H1582 0.961 . S
C1567 H1583 0.960 . S
H1568 C1552 0.931 . S
H1569 C1557 0.929 . S
H1570 C1558 0.960 . S
H1571 C1558 0.962 . S
H1572 C1558 0.960 . S
H1573 C1559 0.961 . S
H1574 C1559 0.961 . S
H1575 C1559 0.961 . S
H1576 C1560 0.931 . S
H1577 C1565 0.930 . S
H1578 C1566 0.956 . S
H1579 C1566 0.961 . S
H1580 C1566 0.961 . S
H1581 C1567 0.958 . S
H1582 C1567 0.961 . S
H1583 C1567 0.960 . S
C1584 C1585 1.391 . S
C1584 C1586 1.394 . S
C1584 H1600 0.931 . S
C1585 C1584 1.391 . S
C1585 C1589 1.376 . S
C1586 C1584 1.394 . S
C1586 C1587 1.369 . S
C1586 C1590 1.531 . S
C1587 C1586 1.369 . S
C1587 C1588 1.410 . S
C1587 C1595 1.503 . S
C1588 C1587 1.410 . S
C1588 C1589 1.392 . S
C1588 C1591 1.511 . S
C1589 C1585 1.376 . S
C1589 C1588 1.392 . S
C1589 H1601 0.929 . S
C1590 C1586 1.531 . S
C1590 H1602 0.960 . S
C1590 H1603 0.962 . S
C1590 H1604 0.960 . S
C1591 C1588 1.511 . S
C1591 H1605 0.961 . S
C1591 H1606 0.961 . S
C1591 H1607 0.961 . S
C1592 C1593 1.370 . S
C1592 C1594 1.363 . S
C1592 H1608 0.931 . S
C1593 C1592 1.370 . S
C1593 C1597 1.408 . S
C1594 C1592 1.363 . S
C1594 C1595 1.370 . S
C1594 C1598 1.524 . S
C1595 C1587 1.503 . S
C1595 C1594 1.370 . S
C1595 C1596 1.403 . S
C1596 C1595 1.403 . S
C1596 C1597 1.404 . S
C1596 C1599 1.539 . S
C1597 C1593 1.408 . S
C1597 C1596 1.404 . S
C1597 H1609 0.930 . S
C1598 C1594 1.524 . S
C1598 H1610 0.956 . S
C1598 H1611 0.961 . S
C1598 H1612 0.961 . S
C1599 C1596 1.539 . S
C1599 H1613 0.958 . S
C1599 H1614 0.961 . S
C1599 H1615 0.960 . S
H1600 C1584 0.931 . S
H1601 C1589 0.929 . S
H1602 C1590 0.960 . S
H1603 C1590 0.962 . S
H1604 C1590 0.960 . S
H1605 C1591 0.961 . S
H1606 C1591 0.961 . S
H1607 C1591 0.961 . S
H1608 C1592 0.931 . S
H1609 C1597 0.930 . S
H1610 C1598 0.956 . S
H1611 C1598 0.961 . S
H1612 C1598 0.961 . S
H1613 C1599 0.958 . S
H1614 C1599 0.961 . S
H1615 C1599 0.960 . S
C1616 C1617 1.391 . S
C1616 C1618 1.394 . S
C1616 H1632 0.931 . S
C1617 C1616 1.391 . S
C1617 C1621 1.376 . S
C1618 C1616 1.394 . S
C1618 C1619 1.369 . S
C1618 C1622 1.531 . S
C1619 C1618 1.369 . S
C1619 C1620 1.410 . S
C1619 C1627 1.503 . S
C1620 C1619 1.410 . S
C1620 C1621 1.392 . S
C1620 C1623 1.511 . S
C1621 C1617 1.376 . S
C1621 C1620 1.392 . S
C1621 H1633 0.929 . S
C1622 C1618 1.531 . S
C1622 H1634 0.960 . S
C1622 H1635 0.962 . S
C1622 H1636 0.960 . S
C1623 C1620 1.511 . S
C1623 H1637 0.961 . S
C1623 H1638 0.961 . S
C1623 H1639 0.961 . S
C1624 C1625 1.370 . S
C1624 C1626 1.363 . S
C1624 H1640 0.931 . S
C1625 C1624 1.370 . S
C1625 C1629 1.408 . S
C1626 C1624 1.363 . S
C1626 C1627 1.370 . S
C1626 C1630 1.524 . S
C1627 C1619 1.503 . S
C1627 C1626 1.370 . S
C1627 C1628 1.403 . S
C1628 C1627 1.403 . S
C1628 C1629 1.404 . S
C1628 C1631 1.539 . S
C1629 C1625 1.408 . S
C1629 C1628 1.404 . S
C1629 H1641 0.930 . S
C1630 C1626 1.524 . S
C1630 H1642 0.956 . S
C1630 H1643 0.961 . S
C1630 H1644 0.961 . S
C1631 C1628 1.539 . S
C1631 H1645 0.958 . S
C1631 H1646 0.961 . S
C1631 H1647 0.960 . S
H1632 C1616 0.931 . S
H1633 C1621 0.929 . S
H1634 C1622 0.960 . S
H1635 C1622 0.962 . S
H1636 C1622 0.960 . S
H1637 C1623 0.961 . S
H1638 C1623 0.961 . S
H1639 C1623 0.961 . S
H1640 C1624 0.931 . S
H1641 C1629 0.930 . S
H1642 C1630 0.956 . S
H1643 C1630 0.961 . S
H1644 C1630 0.961 . S
H1645 C1631 0.958 . S
H1646 C1631 0.961 . S
H1647 C1631 0.960 . S
C1648 C1649 1.391 . S
C1648 C1650 1.394 . S
C1648 H1664 0.931 . S
C1649 C1648 1.391 . S
C1649 C1653 1.376 . S
C1650 C1648 1.394 . S
C1650 C1651 1.369 . S
C1650 C1654 1.531 . S
C1651 C1650 1.369 . S
C1651 C1652 1.410 . S
C1651 C1659 1.503 . S
C1652 C1651 1.410 . S
C1652 C1653 1.392 . S
C1652 C1655 1.511 . S
C1653 C1649 1.376 . S
C1653 C1652 1.392 . S
C1653 H1665 0.929 . S
C1654 C1650 1.531 . S
C1654 H1666 0.960 . S
C1654 H1667 0.962 . S
C1654 H1668 0.960 . S
C1655 C1652 1.511 . S
C1655 H1669 0.961 . S
C1655 H1670 0.961 . S
C1655 H1671 0.961 . S
C1656 C1657 1.370 . S
C1656 C1658 1.363 . S
C1656 H1672 0.931 . S
C1657 C1656 1.370 . S
C1657 C1661 1.408 . S
C1658 C1656 1.363 . S
C1658 C1659 1.370 . S
C1658 C1662 1.524 . S
C1659 C1651 1.503 . S
C1659 C1658 1.370 . S
C1659 C1660 1.403 . S
C1660 C1659 1.403 . S
C1660 C1661 1.404 . S
C1660 C1663 1.539 . S
C1661 C1657 1.408 . S
C1661 C1660 1.404 . S
C1661 H1673 0.930 . S
C1662 C1658 1.524 . S
C1662 H1674 0.956 . S
C1662 H1675 0.961 . S
C1662 H1676 0.961 . S
C1663 C1660 1.539 . S
C1663 H1677 0.958 . S
C1663 H1678 0.961 . S
C1663 H1679 0.960 . S
H1664 C1648 0.931 . S
H1665 C1653 0.929 . S
H1666 C1654 0.960 . S
H1667 C1654 0.962 . S
H1668 C1654 0.960 . S
H1669 C1655 0.961 . S
H1670 C1655 0.961 . S
H1671 C1655 0.961 . S
H1672 C1656 0.931 . S
H1673 C1661 0.930 . S
H1674 C1662 0.956 . S
H1675 C1662 0.961 . S
H1676 C1662 0.961 . S
H1677 C1663 0.958 . S
H1678 C1663 0.961 . S
H1679 C1663 0.960 . S
C1680 C1681 1.391 . S
C1680 C1682 1.394 . S
C1680 H1696 0.931 . S
C1681 C1680 1.391 . S
C1681 C1685 1.376 . S
C1682 C1680 1.394 . S
C1682 C1683 1.369 . S
C1682 C1686 1.531 . S
C1683 C1682 1.369 . S
C1683 C1684 1.410 . S
C1683 C1691 1.503 . S
C1684 C1683 1.410 . S
C1684 C1685 1.392 . S
C1684 C1687 1.511 . S
C1685 C1681 1.376 . S
C1685 C1684 1.392 . S
C1685 H1697 0.929 . S
C1686 C1682 1.531 . S
C1686 H1698 0.960 . S
C1686 H1699 0.962 . S
C1686 H1700 0.960 . S
C1687 C1684 1.511 . S
C1687 H1701 0.961 . S
C1687 H1702 0.961 . S
C1687 H1703 0.961 . S
C1688 C1689 1.370 . S
C1688 C1690 1.363 . S
C1688 H1704 0.931 . S
C1689 C1688 1.370 . S
C1689 C1693 1.408 . S
C1690 C1688 1.363 . S
C1690 C1691 1.370 . S
C1690 C1694 1.524 . S
C1691 C1683 1.503 . S
C1691 C1690 1.370 . S
C1691 C1692 1.403 . S
C1692 C1691 1.403 . S
C1692 C1693 1.404 . S
C1692 C1695 1.539 . S
C1693 C1689 1.408 . S
C1693 C1692 1.404 . S
C1693 H1705 0.930 . S
C1694 C1690 1.524 . S
C1694 H1706 0.956 . S
C1694 H1707 0.961 . S
C1694 H1708 0.961 . S
C1695 C1692 1.539 . S
C1695 H1709 0.958 . S
C1695 H1710 0.961 . S
C1695 H1711 0.960 . S
H1696 C1680 0.931 . S
H1697 C1685 0.929 . S
H1698 C1686 0.960 . S
H1699 C1686 0.962 . S
H1700 C1686 0.960 . S
H1701 C1687 0.961 . S
H1702 C1687 0.961 . S
H1703 C1687 0.961 . S
H1704 C1688 0.931 . S
H1705 C1693 0.930 . S
H1706 C1694 0.956 . S
H1707 C1694 0.961 . S
H1708 C1694 0.961 . S
H1709 C1695 0.958 . S
H1710 C1695 0.961 . S
H1711 C1695 0.960 . S
C1712 C1713 1.391 . S
C1712 C1714 1.394 . S
C1712 H1728 0.931 . S
C1713 C1712 1.391 . S
C1713 C1717 1.376 . S
C1714 C1712 1.394 . S
C1714 C1715 1.369 . S
C1714 C1718 1.531 . S
C1715 C1714 1.369 . S
C1715 C1716 1.410 . S
C1715 C1723 1.503 . S
C1716 C1715 1.410 . S
C1716 C1717 1.392 . S
C1716 C1719 1.511 . S
C1717 C1713 1.376 . S
C1717 C1716 1.392 . S
C1717 H1729 0.929 . S
C1718 C1714 1.531 . S
C1718 H1730 0.960 . S
C1718 H1731 0.962 . S
C1718 H1732 0.960 . S
C1719 C1716 1.511 . S
C1719 H1733 0.961 . S
C1719 H1734 0.961 . S
C1719 H1735 0.961 . S
C1720 C1721 1.370 . S
C1720 C1722 1.363 . S
C1720 H1736 0.931 . S
C1721 C1720 1.370 . S
C1721 C1725 1.408 . S
C1722 C1720 1.363 . S
C1722 C1723 1.370 . S
C1722 C1726 1.524 . S
C1723 C1715 1.503 . S
C1723 C1722 1.370 . S
C1723 C1724 1.403 . S
C1724 C1723 1.403 . S
C1724 C1725 1.404 . S
C1724 C1727 1.539 . S
C1725 C1721 1.408 . S
C1725 C1724 1.404 . S
C1725 H1737 0.930 . S
C1726 C1722 1.524 . S
C1726 H1738 0.956 . S
C1726 H1739 0.961 . S
C1726 H1740 0.961 . S
C1727 C1724 1.539 . S
C1727 H1741 0.958 . S
C1727 H1742 0.961 . S
C1727 H1743 0.960 . S
H1728 C1712 0.931 . S
H1729 C1717 0.929 . S
H1730 C1718 0.960 . S
H1731 C1718 0.962 . S
H1732 C1718 0.960 . S
H1733 C1719 0.961 . S
H1734 C1719 0.961 . S
H1735 C1719 0.961 . S
H1736 C1720 0.931 . S
H1737 C1725 0.930 . S
H1738 C1726 0.956 . S
H1739 C1726 0.961 . S
H1740 C1726 0.961 . S
H1741 C1727 0.958 . S
H1742 C1727 0.961 . S
H1743 C1727 0.960 . S
C1744 C1745 1.391 . S
C1744 C1746 1.394 . S
C1744 H1760 0.931 . S
C1745 C1744 1.391 . S
C1745 C1749 1.376 . S
C1746 C1744 1.394 . S
C1746 C1747 1.369 . S
C1746 C1750 1.531 . S
C1747 C1746 1.369 . S
C1747 C1748 1.410 . S
C1747 C1755 1.503 . S
C1748 C1747 1.410 . S
C1748 C1749 1.392 . S
C1748 C1751 1.511 . S
C1749 C1745 1.376 . S
C1749 C1748 1.392 . S
C1749 H1761 0.929 . S
C1750 C1746 1.531 . S
C1750 H1762 0.960 . S
C1750 H1763 0.962 . S
C1750 H1764 0.960 . S
C1751 C1748 1.511 . S
C1751 H1765 0.961 . S
C1751 H1766 0.961 . S
C1751 H1767 0.961 . S
C1752 C1753 1.370 . S
C1752 C1754 1.363 . S
C1752 H1768 0.931 . S
C1753 C1752 1.370 . S
C1753 C1757 1.408 . S
C1754 C1752 1.363 . S
C1754 C1755 1.370 . S
C1754 C1758 1.524 . S
C1755 C1747 1.503 . S
C1755 C1754 1.370 . S
C1755 C1756 1.403 . S
C1756 C1755 1.403 . S
C1756 C1757 1.404 . S
C1756 C1759 1.539 . S
C1757 C1753 1.408 . S
C1757 C1756 1.404 . S
C1757 H1769 0.930 . S
C1758 C1754 1.524 . S
C1758 H1770 0.956 . S
C1758 H1771 0.961 . S
C1758 H1772 0.961 . S
C1759 C1756 1.539 . S
C1759 H1773 0.958 . S
C1759 H1774 0.961 . S
C1759 H1775 0.960 . S
H1760 C1744 0.931 . S
H1761 C1749 0.929 . S
H1762 C1750 0.960 . S
H1763 C1750 0.962 . S
H1764 C1750 0.960 . S
H1765 C1751 0.961 . S
H1766 C1751 0.961 . S
H1767 C1751 0.961 . S
H1768 C1752 0.931 . S
H1769 C1757 0.930 . S
H1770 C1758 0.956 . S
H1771 C1758 0.961 . S
H1772 C1758 0.961 . S
H1773 C1759 0.958 . S
H1774 C1759 0.961 . S
H1775 C1759 0.960 . S
C1776 C1777 1.391 . S
C1776 C1778 1.394 . S
C1776 H1792 0.931 . S
C1777 C1776 1.391 . S
C1777 C1781 1.376 . S
C1778 C1776 1.394 . S
C1778 C1779 1.369 . S
C1778 C1782 1.531 . S
C1779 C1778 1.369 . S
C1779 C1780 1.410 . S
C1779 C1787 1.503 . S
C1780 C1779 1.410 . S
C1780 C1781 1.392 . S
C1780 C1783 1.511 . S
C1781 C1777 1.376 . S
C1781 C1780 1.392 . S
C1781 H1793 0.929 . S
C1782 C1778 1.531 . S
C1782 H1794 0.960 . S
C1782 H1795 0.962 . S
C1782 H1796 0.960 . S
C1783 C1780 1.511 . S
C1783 H1797 0.961 . S
C1783 H1798 0.961 . S
C1783 H1799 0.961 . S
C1784 C1785 1.370 . S
C1784 C1786 1.363 . S
C1784 H1800 0.931 . S
C1785 C1784 1.370 . S
C1785 C1789 1.408 . S
C1786 C1784 1.363 . S
C1786 C1787 1.370 . S
C1786 C1790 1.524 . S
C1787 C1779 1.503 . S
C1787 C1786 1.370 . S
C1787 C1788 1.403 . S
C1788 C1787 1.403 . S
C1788 C1789 1.404 . S
C1788 C1791 1.539 . S
C1789 C1785 1.408 . S
C1789 C1788 1.404 . S
C1789 H1801 0.930 . S
C1790 C1786 1.524 . S
C1790 H1802 0.956 . S
C1790 H1803 0.961 . S
C1790 H1804 0.961 . S
C1791 C1788 1.539 . S
C1791 H1805 0.958 . S
C1791 H1806 0.961 . S
C1791 H1807 0.960 . S
H1792 C1776 0.931 . S
H1793 C1781 0.929 . S
H1794 C1782 0.960 . S
H1795 C1782 0.962 . S
H1796 C1782 0.960 . S
H1797 C1783 0.961 . S
H1798 C1783 0.961 . S
H1799 C1783 0.961 . S
H1800 C1784 0.931 . S
H1801 C1789 0.930 . S
H1802 C1790 0.956 . S
H1803 C1790 0.961 . S
H1804 C1790 0.961 . S
H1805 C1791 0.958 . S
H1806 C1791 0.961 . S
H1807 C1791 0.960 . S
C793 C535 1.461 . S
C785 C35 1.263 . S
C825 C572 1.446 . S
C817 C115 1.275 . S
C857 C608 1.471 . S
C849 C177 1.281 . S
C881 C221 1.364 . S
C889 C499 1.482 . S
C913 C283 1.286 . S
C921 C500 1.475 . S
C945 C363 1.356 . S
C953 C536 1.438 . S
C985 C571 1.452 . S
C977 C407 1.358 . S
C1017 C607 1.491 . S
C1009 C469 1.278 . S
C1041 C159 1.355 . S
C1049 C679 1.452 . S
C1081 C716 1.431 . S
C1073 C239 1.365 . S
C1105 C53 1.386 . S
C1113 C752 1.463 . S
C1145 C643 1.491 . S
C1137 C97 1.274 . S
C1169 C425 1.383 . S
C1177 C644 1.460 . S
C1201 C487 1.260 . S
C1209 C680 1.443 . S
C1241 C715 1.459 1_556 S
C1233 C301 1.309 . S
C1265 C345 1.270 . S
C1273 C751 1.491 . S
C1305 C570 1.865 . S
C1297 C29 1.828 . S
C1337 C606 1.851 . S
C1329 C109 1.770 . S
C1361 C171 1.718 . S
C1369 C510 1.661 . S
C1393 C215 1.774 . S
C1401 C546 1.691 . S
C1425 C277 1.753 . S
C1433 C618 1.673 . S
C1465 C498 1.850 . S
C1457 C357 1.787 . S
C1497 C534 1.863 . S
C1489 C401 1.824 . S
C1529 C582 1.692 . S
C1521 C463 1.784 . S
C1561 C714 1.861 . S
C1553 C153 1.853 . S
C1593 C750 1.844 . S
C1585 C233 1.776 . S
C1617 C47 1.760 . S
C1625 C654 1.646 . S
C1657 C690 1.663 . S
C1649 C91 1.782 . S
C1689 C762 1.653 . S
C1681 C419 1.756 . S
C1713 C481 1.794 . S
C1721 C642 1.842 . S
C1753 C678 1.859 . S
C1745 C295 1.801 . S
C1785 C726 1.692 . S
C1777 C339 1.783 . S
