# Generated by pormake.
# Topology pyr, (3,6)-cn, num edge types: 1
# Building blocks:
#     Node 0, Type 0, BuildingBlock: CUQRIR_clean_linker_1, # of connection points: 3
#     Node 1, Type 0, BuildingBlock: CUQRIR_clean_linker_1, # of connection points: 3
#     Node 2, Type 0, BuildingBlock: CUQRIR_clean_linker_1, # of connection points: 3
#     Node 3, Type 0, BuildingBlock: CUQRIR_clean_linker_1, # of connection points: 3
#     Node 4, Type 0, BuildingBlock: CUQRIR_clean_linker_1, # of connection points: 3
#     Node 5, Type 0, BuildingBlock: CUQRIR_clean_linker_1, # of connection points: 3
#     Node 6, Type 0, BuildingBlock: CUQRIR_clean_linker_1, # of connection points: 3
#     Node 7, Type 0, BuildingBlock: CUQRIR_clean_linker_1, # of connection points: 3
#     Node 8, Type 1, BuildingBlock: JUFBIX_clean_sbu_0, # of connection points: 6
#     Node 9, Type 1, BuildingBlock: JUFBIX_clean_sbu_0, # of connection points: 6
#     Node 10, Type 1, BuildingBlock: JUFBIX_clean_sbu_0, # of connection points: 6
#     Node 11, Type 1, BuildingBlock: JUFBIX_clean_sbu_0, # of connection points: 6
#     Edge 12, Type (0, 1), BuildingBlock: TEMPAE_clean_linker_10, # of connection points: 2
#     Edge 13, Type (0, 1), BuildingBlock: TEMPAE_clean_linker_10, # of connection points: 2
#     Edge 14, Type (0, 1), BuildingBlock: TEMPAE_clean_linker_10, # of connection points: 2
#     Edge 15, Type (0, 1), BuildingBlock: TEMPAE_clean_linker_10, # of connection points: 2
#     Edge 16, Type (0, 1), BuildingBlock: TEMPAE_clean_linker_10, # of connection points: 2
#     Edge 17, Type (0, 1), BuildingBlock: TEMPAE_clean_linker_10, # of connection points: 2
#     Edge 18, Type (0, 1), BuildingBlock: TEMPAE_clean_linker_10, # of connection points: 2
#     Edge 19, Type (0, 1), BuildingBlock: TEMPAE_clean_linker_10, # of connection points: 2
#     Edge 20, Type (0, 1), BuildingBlock: TEMPAE_clean_linker_10, # of connection points: 2
#     Edge 21, Type (0, 1), BuildingBlock: TEMPAE_clean_linker_10, # of connection points: 2
#     Edge 22, Type (0, 1), BuildingBlock: TEMPAE_clean_linker_10, # of connection points: 2
#     Edge 23, Type (0, 1), BuildingBlock: TEMPAE_clean_linker_10, # of connection points: 2
#     Edge 24, Type (0, 1), BuildingBlock: TEMPAE_clean_linker_10, # of connection points: 2
#     Edge 25, Type (0, 1), BuildingBlock: TEMPAE_clean_linker_10, # of connection points: 2
#     Edge 26, Type (0, 1), BuildingBlock: TEMPAE_clean_linker_10, # of connection points: 2
#     Edge 27, Type (0, 1), BuildingBlock: TEMPAE_clean_linker_10, # of connection points: 2
#     Edge 28, Type (0, 1), BuildingBlock: TEMPAE_clean_linker_10, # of connection points: 2
#     Edge 29, Type (0, 1), BuildingBlock: TEMPAE_clean_linker_10, # of connection points: 2
#     Edge 30, Type (0, 1), BuildingBlock: TEMPAE_clean_linker_10, # of connection points: 2
#     Edge 31, Type (0, 1), BuildingBlock: TEMPAE_clean_linker_10, # of connection points: 2
#     Edge 32, Type (0, 1), BuildingBlock: TEMPAE_clean_linker_10, # of connection points: 2
#     Edge 33, Type (0, 1), BuildingBlock: TEMPAE_clean_linker_10, # of connection points: 2
#     Edge 34, Type (0, 1), BuildingBlock: TEMPAE_clean_linker_10, # of connection points: 2
#     Edge 35, Type (0, 1), BuildingBlock: TEMPAE_clean_linker_10, # of connection points: 2
# Relax obj value: 0.141
# Max RMSD: 0.221
# Mean RMSD: 0.152
data_MOF--net-pyr--node1-JUFBIX_clean_sbu_0--node2-CUQRIR_clean_linker_1--edge1-TEMPAE_clean_linker_10
_symmetry_space_group_name_H-M    P1
_symmetry_Int_Tables_number       1
_symmetry_cell_setting            triclinic
loop_
_symmetry_equiv_pos_as_xyz
'x, y, z'
_cell_length_a     35.109496
_cell_length_b     33.385558
_cell_length_c     34.451193
_cell_angle_alpha  81.329965
_cell_angle_beta   90.475949
_cell_angle_gamma 94.087073
loop_
_atom_site_label
_atom_site_type_symbol
_atom_site_fract_x
_atom_site_fract_y
_atom_site_fract_z
_atom_type_partial_charge
C0 C 0.18776 0.20767 0.1896 0.0
N1 N 0.21471 0.18073 0.20048 0.0
N2 N 0.19819 0.23357 0.15656 0.0
C3 C 0.15217 0.20997 0.21311 0.0
C4 C 0.23282 0.22127 0.14769 0.0
N5 N 0.24332 0.18921 0.17432 0.0
C6 C 0.25525 0.23932 0.11147 0.0
H7 H 0.13665 0.17952 0.21896 0.0
H8 H 0.13283 0.23222 0.19831 0.0
H9 H 0.1603 0.219 0.24192 0.0
H10 H 0.23621 0.25332 0.08819 0.0
H11 H 0.27093 0.21585 0.09999 0.0
H12 H 0.27628 0.26336 0.11896 0.0
C13 C 0.40902 0.81706 0.67203 0.0
N14 N 0.4075 0.84958 0.69081 0.0
N15 N 0.43508 0.79207 0.68909 0.0
C16 C 0.38355 0.80856 0.63835 0.0
C17 C 0.44959 0.81071 0.71882 0.0
N18 N 0.43247 0.84555 0.71998 0.0
C19 C 0.47878 0.79407 0.74789 0.0
H20 H 0.35587 0.79388 0.65028 0.0
H21 H 0.39659 0.78809 0.62051 0.0
H22 H 0.3777 0.837 0.61892 0.0
H23 H 0.49558 0.77157 0.73637 0.0
H24 H 0.46385 0.77879 0.77496 0.0
H25 H 0.49831 0.81912 0.75594 0.0
C26 C 0.6747 0.35882 0.83951 0.0
N27 N 0.69751 0.35726 0.87142 0.0
N28 N 0.68366 0.39294 0.81399 0.0
C29 C 0.6423 0.328 0.83424 0.0
C30 C 0.71252 0.41238 0.83164 0.0
N31 N 0.7208 0.39081 0.86697 0.0
C32 C 0.73426 0.4508 0.81291 0.0
H33 H 0.65359 0.30328 0.82047 0.0
H34 H 0.61978 0.34185 0.81498 0.0
H35 H 0.62935 0.31432 0.86286 0.0
H36 H 0.73199 0.45447 0.78044 0.0
H37 H 0.76483 0.4508 0.82133 0.0
H38 H 0.72203 0.47717 0.82305 0.0
C39 C 0.93789 0.63455 0.40182 0.0
N40 N 0.97164 0.65636 0.39385 0.0
N41 N 0.9204 0.64579 0.43287 0.0
C42 C 0.92051 0.60431 0.37732 0.0
C43 C 0.94487 0.67519 0.44382 0.0
N44 N 0.97609 0.68158 0.42021 0.0
C45 C 0.9363 0.70132 0.47424 0.0
H46 H 0.909 0.62093 0.34992 0.0
H47 H 0.89705 0.58469 0.39324 0.0
H48 H 0.94255 0.58486 0.36921 0.0
H49 H 0.90631 0.69627 0.48462 0.0
H50 H 0.94206 0.73382 0.4619 0.0
H51 H 0.95552 0.6945 0.49974 0.0
C52 C 0.83543 0.87223 0.89136 0.0
N53 N 0.86412 0.86669 0.86671 0.0
N54 N 0.81769 0.90669 0.87846 0.0
C55 C 0.82642 0.84498 0.92961 0.0
C56 C 0.83733 0.92213 0.84479 0.0
N57 N 0.86588 0.89822 0.8376 0.0
C58 C 0.82609 0.95851 0.81692 0.0
H59 H 0.80523 0.82017 0.92418 0.0
H60 H 0.81436 0.86205 0.9513 0.0
H61 H 0.85236 0.83096 0.94229 0.0
H62 H 0.84213 0.98615 0.82443 0.0
H63 H 0.79512 0.96239 0.81926 0.0
H64 H 0.83289 0.95551 0.78614 0.0
C65 C 0.6661 0.1837 0.47487 0.0
N66 N 0.67254 0.1496 0.45979 0.0
N67 N 0.63238 0.19781 0.46208 0.0
C68 C 0.69391 0.20536 0.49943 0.0
C69 C 0.61821 0.1706 0.43936 0.0
N70 N 0.64245 0.14119 0.43805 0.0
C71 C 0.58347 0.17611 0.41375 0.0
H72 H 0.6784 0.21902 0.52152 0.0
H73 H 0.7101 0.23039 0.48021 0.0
H74 H 0.71421 0.18436 0.51471 0.0
H75 H 0.59261 0.18969 0.38358 0.0
H76 H 0.56399 0.19641 0.42514 0.0
H77 H 0.56801 0.14625 0.41207 0.0
C78 C 0.33306 0.65782 0.17802 0.0
N79 N 0.36401 0.67849 0.19081 0.0
N80 N 0.31866 0.67924 0.14531 0.0
C81 C 0.31495 0.61855 0.19951 0.0
C82 C 0.34179 0.71376 0.13891 0.0
N83 N 0.36907 0.71341 0.16678 0.0
C84 C 0.33892 0.7471 0.10455 0.0
H85 H 0.28362 0.61631 0.19478 0.0
H86 H 0.32066 0.6158 0.2315 0.0
H87 H 0.32729 0.5928 0.18833 0.0
H88 H 0.32207 0.77109 0.11349 0.0
H89 H 0.32463 0.73543 0.07925 0.0
H90 H 0.36765 0.76115 0.09531 0.0
C91 C 0.05219 0.38308 0.60511 0.0
N92 N 0.078 0.37039 0.58152 0.0
N93 N 0.06437 0.41919 0.61572 0.0
C94 C 1.01592 0.35924 0.62006 0.0
C95 C 0.09827 0.42849 0.5969 0.0
N96 N 0.10652 0.399 0.57597 0.0
C97 C 0.12649 0.46232 0.60507 0.0
H98 H 0.99401 0.38018 0.62539 0.0
H99 H 0.02158 0.33997 0.64837 0.0
H100 H 1.00486 0.33937 0.5988 0.0
H101 H 0.14243 0.45196 0.63226 0.0
H102 H 0.11151 0.48937 0.60966 0.0
H103 H 0.14724 0.47091 0.5806 0.0
Co104 Co 0.03082 0.01361 0.5029 0.0
C105 C 0.06058 0.93671 0.50426 0.0
Co106 Co 0.08592 0.005 0.53272 0.0
C107 C 0.95292 0.03241 0.48614 0.0
C108 C 0.97566 0.99945 0.44405 0.0
N109 N 0.98475 0.01564 0.47675 0.0
N110 N 0.92413 0.02728 0.46062 0.0
C111 C 0.93849 0.00643 0.43413 0.0
H112 H 0.95125 0.04845 0.51104 0.0
H113 H 0.9948 0.98333 0.42856 0.0
C114 C 0.05662 0.08239 0.52982 0.0
N115 N 0.13267 0.00471 0.55791 0.0
C116 C 0.14826 0.97685 0.58473 0.0
C117 C 0.15889 0.03667 0.55268 0.0
N118 N 0.18284 0.99076 0.59672 0.0
C119 C 0.18953 0.02829 0.57653 0.0
C120 C 0.09411 0.03597 0.45181 0.0
O121 O 0.02851 0.06811 0.51161 0.0
O122 O 0.08294 0.05953 0.54188 0.0
O123 O 0.11219 0.02463 0.48328 0.0
O124 O 0.0577 0.03343 0.45334 0.0
O125 O 0.0889 0.95056 0.5227 0.0
H126 H 0.15603 0.06442 0.53249 0.0
H127 H 0.13455 0.94718 0.59533 0.0
O128 O 0.03329 0.95904 0.49415 0.0
O129 O 1.00434 0.99425 0.55266 0.0
O130 O 0.05898 0.98499 0.58259 0.0
C131 C 0.02246 0.983 0.58431 0.0
H132 H 0.92322 0.99636 0.40955 0.0
H133 H 0.21538 0.04775 0.57797 0.0
Co134 Co 0.52363 0.04406 0.02501 0.0
C135 C 0.51435 0.97339 0.08066 0.0
Co136 Co 0.55801 0.04446 0.07882 0.0
C137 C 0.50091 0.03328 0.94565 0.0
C138 C 0.45336 0.03906 0.98219 0.0
N139 N 0.49189 0.04126 0.98164 0.0
N140 N 0.46963 0.02524 0.92416 0.0
C141 C 0.43971 0.02939 0.94712 0.0
H142 H 0.52987 0.03127 0.93616 0.0
H143 H 0.43593 0.04112 1.00743 0.0
C144 C 0.56878 0.11482 0.02381 0.0
N145 N 0.58947 0.0462 0.12205 0.0
C146 C 0.58004 0.04365 0.1603 0.0
C147 C 0.62801 0.05037 0.12134 0.0
N148 N 0.6112 0.04569 0.18333 0.0
C149 C 0.64141 0.04985 0.15894 0.0
C150 C 0.59555 0.01354 1.01686 0.0
O151 O 0.54426 0.09712 1.00344 0.0
O152 O 0.57769 0.09715 0.05757 0.0
O153 O 0.59886 0.02116 0.05199 0.0
O154 O 0.56416 0.02074 0.99933 0.0
O155 O 0.5388 0.99204 0.09996 0.0
H156 H 0.6454 0.0544 0.0951 0.0
H157 H 0.55094 0.04061 0.17108 0.0
O158 O 0.50363 0.99068 0.04727 0.0
O159 O 0.48363 0.0677 0.05085 0.0
O160 O 0.51611 0.06743 0.1051 0.0
C161 C 0.48533 0.07493 0.08606 0.0
H162 H 0.40997 0.02249 0.94061 0.0
H163 H 0.67099 0.05397 0.16754 0.0
Co164 Co 0.538 0.54062 0.49667 0.0
C165 C 0.48092 0.55281 0.44145 0.0
Co166 Co 0.48626 0.49961 0.51111 0.0
C167 C 0.61709 0.56943 0.48875 0.0
C168 C 0.57978 0.61753 0.47464 0.0
N169 N 0.57989 0.57706 0.48587 0.0
N170 N 0.64025 0.60357 0.47996 0.0
C171 C 0.61686 0.63393 0.47103 0.0
H172 H 0.62693 0.53944 0.49777 0.0
H173 H 0.55434 0.63403 0.46953 0.0
C174 C 0.54476 0.48865 0.56591 0.0
N175 N 0.44448 0.46232 0.52185 0.0
C176 C 0.40671 0.46791 0.51998 0.0
C177 C 0.44643 0.42183 0.53159 0.0
N178 N 0.38516 0.4324 0.52781 0.0
C179 C 0.41013 0.40341 0.53516 0.0
C180 C 0.54125 0.46981 0.46702 0.0
O181 O 0.56109 0.51804 0.54309 0.0
O182 O 0.5114 0.47494 0.55757 0.0
O183 O 0.50796 0.46376 0.48168 0.0
O184 O 0.5607 0.50277 0.46985 0.0
O185 O 0.46198 0.52516 0.46451 0.0
H186 H 0.47269 0.4066 0.53546 0.0
H187 H 0.3953 0.49733 0.51221 0.0
O188 O 0.51498 0.56323 0.45014 0.0
O189 O 0.5152 0.57775 0.52418 0.0
O190 O 0.46509 0.53543 0.54096 0.0
C191 C 0.48362 0.56924 0.54224 0.0
H192 H 0.62589 0.66561 0.46192 0.0
H193 H 0.40266 0.37119 0.543 0.0
Co194 Co 0.03165 0.5403 0.97751 0.0
C195 C 0.95839 0.50101 0.98598 0.0
Co196 Co 1.00453 0.54168 0.03471 0.0
C197 C 0.0451 0.51534 0.90214 0.0
C198 C 0.07691 0.57078 0.90949 0.0
N199 N 0.05288 0.54094 0.92842 0.0
N200 N 0.06325 0.52815 0.86764 0.0
C201 C 0.08348 0.56288 0.87227 0.0
H202 H 0.02587 0.4883 0.90785 0.0
H203 H 0.08774 0.59757 0.92131 0.0
C204 C 0.07711 0.58035 0.02661 0.0
N205 N 0.98426 0.54267 0.08418 0.0
C206 C 0.99188 0.57126 0.10765 0.0
C207 C 0.96372 0.51241 0.10678 0.0
N208 N 0.97753 0.55983 0.1442 0.0
C209 C 0.95945 0.52288 0.14359 0.0
C210 C 0.04977 0.47414 0.03334 0.0
O211 O 0.07605 0.56973 0.99283 0.0
O212 O 0.04851 0.57129 0.04908 0.0
O213 O 0.02834 0.49131 0.05472 0.0
O214 O 0.05446 0.49 0.99745 0.0
O215 O 0.96012 0.51139 0.02001 0.0
H216 H 0.95418 0.4837 0.09775 0.0
H217 H 1.00873 0.59946 0.09843 0.0
O218 O 0.98665 0.51069 0.96276 0.0
O219 O 1.00938 0.59043 0.95781 0.0
O220 O 0.98153 0.59253 1.01394 0.0
C221 C 0.98823 0.60857 0.97833 0.0
H222 H 0.10036 0.58221 0.84975 0.0
H223 H 0.94587 0.50375 0.16852 0.0
C224 C 0.1934 0.11372 0.23763 0.0
C225 C 0.21252 0.15223 0.23693 0.0
C226 C 0.17756 0.09137 0.27279 0.0
C227 C 0.17962 0.10831 0.3083 0.0
C228 C 0.2008 0.14624 0.30809 0.0
C229 C 0.21718 0.16731 0.27274 0.0
C230 C 0.15646 0.0507 0.27126 0.0
C231 C 0.20348 0.16634 0.3445 0.0
C232 C 0.09814 0.07843 0.384 0.0
C233 C 0.11545 0.05305 0.41437 0.0
C234 C 0.11857 0.09642 0.34969 0.0
C235 C 0.15728 0.08826 0.3446 0.0
C236 C 0.17459 0.0618 0.37475 0.0
C237 C 0.15381 0.04512 0.40924 0.0
C238 C 0.09883 0.12498 0.31912 0.0
C239 C 0.21523 0.05109 0.37061 0.0
H240 H 0.18844 0.10236 0.21004 0.0
H241 H 0.23065 0.19762 0.27225 0.0
H242 H 0.16434 0.02823 0.29664 0.0
H243 H 0.12528 0.0537 0.27304 0.0
H244 H 0.16249 0.03878 0.24369 0.0
H245 H 0.22357 0.19391 0.34067 0.0
H246 H 0.17482 0.17524 0.35172 0.0
H247 H 0.2129 0.14491 0.36994 0.0
H248 H 0.06872 0.08516 0.38748 0.0
H249 H 0.16765 0.02548 0.43221 0.0
H250 H 0.09834 0.11332 0.29062 0.0
H251 H 0.11493 0.15516 0.31452 0.0
H252 H 0.06902 0.12898 0.32755 0.0
H253 H 0.21861 0.03875 0.34277 0.0
H254 H 0.22402 0.02838 0.39541 0.0
H255 H 0.23489 0.07879 0.36918 0.0
C256 C 0.45244 0.9141 0.73282 0.0
C257 C 0.43963 0.87398 0.74693 0.0
C258 C 0.45951 0.94247 0.75863 0.0
C259 C 0.45279 0.93032 0.7993 0.0
C260 C 0.43934 0.88975 0.81351 0.0
C261 C 0.43311 0.86195 0.78704 0.0
C262 C 0.47429 0.98525 0.74249 0.0
C263 C 0.43118 0.87582 0.85658 0.0
C264 C 0.49833 0.98587 0.87784 0.0
C265 C 0.46784 0.00697 0.88868 0.0
C266 C 0.49456 0.96262 0.84717 0.0
C267 C 0.45932 0.95988 0.82722 0.0
C268 C 0.42921 0.98287 0.83636 0.0
C269 C 0.43401 0.00649 0.86665 0.0
C270 C 0.52764 0.93921 0.83762 0.0
C271 C 0.39113 0.98066 0.81575 0.0
H272 H 0.45725 0.92295 0.70158 0.0
H273 H 0.42253 0.83093 0.79745 0.0
H274 H 0.45399 0.00717 0.74941 0.0
H275 H 0.50186 0.99279 0.75662 0.0
H276 H 0.4786 0.98955 0.71018 0.0
H277 H 0.42046 0.84337 0.86269 0.0
H278 H 0.4575 0.88005 0.87397 0.0
H279 H 0.40959 0.89453 0.86695 0.0
H280 H 0.52462 0.98572 0.89443 0.0
H281 H 0.41065 0.0235 0.87396 0.0
H282 H 0.5326 0.94355 0.80545 0.0
H283 H 0.52082 0.90628 0.84735 0.0
H284 H 0.55445 0.94856 0.85224 0.0
H285 H 0.39512 0.98648 0.78345 0.0
H286 H 0.37169 1.00278 0.82415 0.0
H287 H 0.37706 0.94964 0.82327 0.0
C288 C 0.64725 0.44288 0.77245 0.0
C289 C 0.66494 0.40625 0.77764 0.0
C290 C 0.62674 0.45505 0.73811 0.0
C291 C 0.62422 0.42995 0.70835 0.0
C292 C 0.64239 0.393 0.71346 0.0
C293 C 0.66253 0.38156 0.74821 0.0
C294 C 0.60769 0.49462 0.73371 0.0
C295 C 0.64069 0.36571 0.68222 0.0
C296 C 0.54534 0.44632 0.63253 0.0
C297 C 0.56487 0.4715 0.60175 0.0
C298 C 0.56437 0.43216 0.66743 0.0
C299 C 0.6038 0.4432 0.67125 0.0
C300 C 0.62378 0.46776 0.63986 0.0
C301 C 0.60406 0.48171 0.60558 0.0
C302 C 0.54219 0.40612 0.70048 0.0
C303 C 0.66591 0.47983 0.64265 0.0
H304 H 0.64896 0.46149 0.79568 0.0
H305 H 0.6764 0.35325 0.75262 0.0
H306 H 0.61949 0.51539 0.70775 0.0
H307 H 0.57664 0.48907 0.72865 0.0
H308 H 0.61169 0.51009 0.75999 0.0
H309 H 0.65595 0.33774 0.69106 0.0
H310 H 0.61052 0.35677 0.67579 0.0
H311 H 0.65355 0.38231 0.65457 0.0
H312 H 0.51506 0.43843 0.62971 0.0
H313 H 0.61946 0.50088 0.58175 0.0
H314 H 0.54274 0.42182 0.72669 0.0
H315 H 0.5557 0.37704 0.70896 0.0
H316 H 0.51196 0.39932 0.69245 0.0
H317 H 0.67099 0.49803 0.66685 0.0
H318 H 0.67747 0.49795 0.61503 0.0
H319 H 0.68217 0.45235 0.64963 0.0
C320 C 0.9793 0.68258 0.32428 0.0
C321 C 0.99218 0.65804 0.35768 0.0
C322 C 0.98433 0.67251 0.2866 0.0
C323 C 1.0022 0.63666 0.28247 0.0
C324 C 0.01934 0.61467 0.3157 0.0
C325 C 1.01423 0.62582 0.35297 0.0
C326 C 0.96617 0.69736 0.25206 0.0
C327 C 0.03881 0.57637 0.31283 0.0
C328 C 0.95697 0.57366 0.20883 0.0
C329 C 0.98341 0.58054 0.17793 0.0
C330 C 0.96285 0.59186 0.2427 0.0
C331 C 0.99605 0.61793 0.24596 0.0
C332 C 0.02274 0.62554 0.21467 0.0
C333 C 1.01614 0.60673 0.18105 0.0
C334 C 0.93352 0.58277 0.27521 0.0
C335 C 0.05836 0.6532 0.21687 0.0
H336 H 0.96131 0.70678 0.32804 0.0
H337 H 0.02344 0.60643 0.37894 0.0
H338 H 0.98449 0.7005 0.22554 0.0
H339 H 0.93847 0.68177 0.24532 0.0
H340 H 0.96071 0.72814 0.25833 0.0
H341 H 0.05688 0.56756 0.33892 0.0
H342 H 1.0168 0.55119 0.31086 0.0
H343 H 0.0568 0.58002 0.28605 0.0
H344 H 0.93143 0.55398 0.20648 0.0
H345 H 0.03708 0.61185 0.15761 0.0
H346 H 0.92241 0.61141 0.28146 0.0
H347 H 0.94702 0.56809 0.3024 0.0
H348 H 0.90902 0.56235 0.26784 0.0
H349 H 0.05055 0.68375 0.22149 0.0
H350 H 0.07607 0.65639 0.18985 0.0
H351 H 0.07589 0.64121 0.24237 0.0
C352 C 0.27935 0.12787 0.1694 0.0
C353 C 0.27913 0.1692 0.17322 0.0
C354 C 0.31329 0.11062 0.15948 0.0
C355 C 0.3482 0.13517 0.15244 0.0
C356 C 0.34829 0.17646 0.15812 0.0
C357 C 0.31424 0.1926 0.16872 0.0
C358 C 0.31132 0.06636 0.1548 0.0
C359 C 0.38398 0.20447 0.15076 0.0
C360 C 0.44637 0.08937 0.14472 0.0
C361 C 0.45104 0.091 0.1039 0.0
C362 C 0.41311 0.10271 0.16094 0.0
C363 C 0.38356 0.11899 0.13606 0.0
C364 C 0.38846 0.12105 0.09488 0.0
C365 C 0.42151 0.10686 0.07956 0.0
C366 C 0.40942 0.09899 0.20493 0.0
C367 C 0.35874 0.13867 0.06667 0.0
H368 H 0.25256 0.10946 0.17216 0.0
H369 H 0.3146 0.22448 0.17163 0.0
H370 H 0.3138 0.0636 0.12324 0.0
H371 H 0.33548 0.05124 0.1703 0.0
H372 H 0.28408 0.05005 0.16627 0.0
H373 H 0.38035 0.23493 0.15891 0.0
H374 H 0.40827 0.19116 0.1676 0.0
H375 H 0.39168 0.20829 0.11918 0.0
H376 H 0.46846 0.07696 0.16414 0.0
H377 H 0.42429 0.10852 0.04804 0.0
H378 H 0.3828 0.08047 0.21485 0.0
H379 H 0.40725 0.12944 0.21355 0.0
H380 H 0.43404 0.08478 0.22051 0.0
H381 H 0.33093 0.12091 0.07248 0.0
H382 H 0.36673 0.13881 0.03551 0.0
H383 H 0.35457 0.17031 0.0711 0.0
C384 C 0.34816 0.87167 0.71444 0.0
C385 C 0.37762 0.87694 0.6867 0.0
C386 C 0.31461 0.89188 0.70688 0.0
C387 C 0.31074 0.91744 0.67058 0.0
C388 C 0.34179 0.92503 0.64381 0.0
C389 C 0.37507 0.90474 0.65241 0.0
C390 C 0.28252 0.88372 0.73649 0.0
C391 C 0.33891 0.95233 0.6049 0.0
C392 C 0.21585 0.92902 0.61901 0.0
C393 C 0.20986 0.96942 0.62193 0.0
C394 C 0.24757 0.9107 0.63693 0.0
C395 C 0.27339 0.93334 0.65857 0.0
C396 C 0.26554 0.97293 0.66441 0.0
C397 C 0.23391 0.99061 0.64576 0.0
C398 C 0.25501 0.8683 0.63015 0.0
C399 C 0.29191 0.99765 0.688 0.0
H400 H 0.3506 0.84994 0.74093 0.0
H401 H 0.39831 0.90858 0.63136 0.0
H402 H 0.26963 0.91231 0.74018 0.0
H403 H 0.25976 0.86331 0.72584 0.0
H404 H 0.29235 0.86902 0.76558 0.0
H405 H 0.36652 0.9572 0.58877 0.0
H406 H 0.31723 0.9386 0.58628 0.0
H407 H 0.32943 0.98229 0.60938 0.0
H408 H 0.19732 0.91278 0.60044 0.0
H409 H 0.22881 0.02172 0.64841 0.0
H410 H 0.26109 0.84907 0.65835 0.0
H411 H 0.28057 0.86957 0.61113 0.0
H412 H 0.23049 0.85352 0.61582 0.0
H413 H 0.30039 0.97899 0.71571 0.0
H414 H 0.27854 0.02482 0.69519 0.0
H415 H 0.31835 0.00803 0.67089 0.0
C416 C 0.75475 0.43997 0.9038 0.0
C417 C 0.75084 0.40097 0.89334 0.0
C418 C 0.78776 0.45342 0.92264 0.0
C419 C 0.81723 0.42677 0.93214 0.0
C420 C 0.81202 0.3862 0.92442 0.0
C421 C 0.77893 0.37387 0.90477 0.0
C422 C 0.7921 0.49695 0.93006 0.0
C423 C 0.84228 0.35653 0.93489 0.0
C424 C 0.91768 0.4773 0.93279 0.0
C425 C 0.92333 0.47944 0.97281 0.0
C426 C 0.88363 0.45946 0.91936 0.0
C427 C 0.85465 0.44266 0.94664 0.0
C428 C 0.86074 0.44335 0.98723 0.0
C429 C 0.89486 0.46208 0.99981 0.0
C430 C 0.87818 0.45982 0.87577 0.0
C431 C 0.83094 0.42497 1.01729 0.0
H432 H 0.73261 0.4606 0.89544 0.0
H433 H 0.77596 0.34378 0.89646 0.0
H434 H 0.79996 0.49827 0.9611 0.0
H435 H 0.81553 0.51361 0.91148 0.0
H436 H 0.76557 0.51289 0.92337 0.0
H437 H 0.83159 0.3249 0.93235 0.0
H438 H 0.86712 0.36505 0.91491 0.0
H439 H 0.8526 0.35753 0.96528 0.0
H440 H 0.93949 0.49065 0.91171 0.0
H441 H 0.89914 0.46329 0.03082 0.0
H442 H 0.85363 0.47777 0.86549 0.0
H443 H 0.87145 0.42848 0.86947 0.0
H444 H 0.90388 0.47305 0.85853 0.0
H445 H 0.80513 0.44247 1.0134 0.0
H446 H 0.84137 0.42477 0.04784 0.0
H447 H 0.82212 0.39335 1.01305 0.0
C448 C 0.86959 0.62008 0.48089 0.0
C449 C 0.88072 0.63796 0.443 0.0
C450 C 0.83073 0.61261 0.49079 0.0
C451 C 0.80276 0.62321 0.46188 0.0
C452 C 0.81413 0.6413 0.42352 0.0
C453 C 0.85303 0.64869 0.41467 0.0
C454 C 0.81958 0.59359 0.53203 0.0
C455 C 0.78524 0.65297 0.39183 0.0
C456 C 0.70148 0.57523 0.46881 0.0
C457 C 0.68133 0.60691 0.47903 0.0
C458 C 0.74135 0.5794 0.4648 0.0
C459 C 0.76145 0.61603 0.47139 0.0
C460 C 0.74143 0.64738 0.48342 0.0
C461 C 0.70157 0.64248 0.48696 0.0
C462 C 0.76171 0.5454 0.45166 0.0
C463 C 0.76195 0.68674 0.49108 0.0
H464 H 0.89138 0.61207 0.50259 0.0
H465 H 0.86205 0.66303 0.38555 0.0
H466 H 0.80188 0.6141 0.54548 0.0
H467 H 0.80194 0.56477 0.5314 0.0
H468 H 0.84483 0.58715 0.55099 0.0
H469 H 0.79895 0.66596 0.36332 0.0
H470 H 0.7663 0.62597 0.38746 0.0
H471 H 0.76692 0.67569 0.40089 0.0
H472 H 0.68595 0.54781 0.46239 0.0
H473 H 0.68614 0.66669 0.49561 0.0
H474 H 0.78616 0.53767 0.47129 0.0
H475 H 0.7734 0.55541 0.42166 0.0
H476 H 0.74246 0.51756 0.45124 0.0
H477 H 0.7862 0.68056 0.51143 0.0
H478 H 0.74274 0.70643 0.5038 0.0
H479 H 0.77394 0.70369 0.46317 0.0
C480 C 0.19379 0.30755 0.13317 0.0
C481 C 0.17774 0.26741 0.13662 0.0
C482 C 0.17335 0.34086 0.11593 0.0
C483 C 0.13574 0.33426 0.10136 0.0
C484 C 0.1198 0.29357 0.10412 0.0
C485 C 0.14088 0.26089 0.12155 0.0
C486 C 0.19186 0.38331 0.11386 0.0
C487 C 0.08017 0.2845 0.089 0.0
C488 C 0.06828 0.42182 0.09081 0.0
C489 C 0.0706 0.43736 0.05049 0.0
C490 C 0.08906 0.38858 0.10755 0.0
C491 C 0.11303 0.36975 0.0837 0.0
C492 C 0.1152 0.38505 0.04293 0.0
C493 C 0.09422 0.41842 0.02697 0.0
C494 C 0.08558 0.37378 0.15105 0.0
C495 C 0.14 0.36627 1.01603 0.0
H496 H 0.22217 0.31288 0.14477 0.0
H497 H 0.12841 0.22999 0.12382 0.0
H498 H 0.19273 0.39875 0.08299 0.0
H499 H 0.17464 0.40133 0.1308 0.0
H500 H 0.2214 0.38353 0.12566 0.0
H501 H 0.07202 0.25138 0.09248 0.0
H502 H 0.05909 0.29919 0.10497 0.0
H503 H 0.07829 0.29734 0.05746 0.0
H504 H 0.05043 0.43597 0.10957 0.0
H505 H 0.09656 0.42986 0.99587 0.0
H506 H 0.11404 0.37632 0.16507 0.0
H507 H 0.07528 0.34122 0.1562 0.0
H508 H 0.06569 0.39123 0.16569 0.0
H509 H 0.17018 0.36864 0.02574 0.0
H510 H 0.13838 0.38108 0.985 0.0
H511 H 0.13125 0.33348 1.01753 0.0
C512 C 0.66727 0.33359 0.9349 0.0
C513 C 0.69265 0.32726 0.90573 0.0
C514 C 0.64947 0.30058 0.95989 0.0
C515 C 0.65773 0.26057 0.95554 0.0
C516 C 0.68652 0.25455 0.92886 0.0
C517 C 0.70342 0.28809 0.904 0.0
C518 C 0.61904 0.3084 0.98794 0.0
C519 C 0.69675 0.21249 0.92376 0.0
C520 C 0.62066 0.1693 0.02808 0.0
C521 C 0.58927 0.1541 1.00774 0.0
C522 C 0.64275 0.20446 1.01195 0.0
C523 C 0.63308 0.22514 0.97473 0.0
C524 C 0.60067 0.21079 0.95463 0.0
C525 C 0.57925 0.17533 0.97131 0.0
C526 C 0.67719 0.21862 0.03411 0.0
C527 C 0.58916 0.23238 0.91501 0.0
H528 H 0.6585 0.364 0.93536 0.0
H529 H 0.72255 0.28351 0.88077 0.0
H530 H 0.5905 0.3008 0.97582 0.0
H531 H 0.62152 0.28888 1.01677 0.0
H532 H 0.62057 0.3407 0.99257 0.0
H533 H 0.72338 0.21328 0.90639 0.0
H534 H 0.70042 0.19354 0.95271 0.0
H535 H 0.67321 0.19751 0.90828 0.0
H536 H 0.62875 0.15308 0.05626 0.0
H537 H 0.55503 0.16389 0.9555 0.0
H538 H 0.67618 0.25121 0.03687 0.0
H539 H 0.70355 0.21561 1.01756 0.0
H540 H 0.67926 0.20089 0.06395 0.0
H541 H 0.58517 0.26473 0.91676 0.0
H542 H 0.56232 0.21837 0.90405 0.0
H543 H 0.61216 0.23172 0.89327 0.0
C544 C 0.02829 0.71004 0.45693 0.0
C545 C 1.0064 0.71242 0.42261 0.0
C546 C 0.04618 0.74507 0.46894 0.0
C547 C 0.0425 0.78328 0.44559 0.0
C548 C 0.0247 0.78493 0.40831 0.0
C549 C 1.00638 0.74943 0.39747 0.0
C550 C 0.06458 0.74161 0.50894 0.0
C551 C 0.02102 0.82483 0.38194 0.0
C552 C 0.02323 0.8727 0.49676 0.0
C553 C 0.05842 0.8954 0.49371 0.0
C554 C 1.01834 0.83558 0.48247 0.0
C555 C 0.04917 0.82121 0.46348 0.0
C556 C 0.08517 0.84361 0.46105 0.0
C557 C 0.08951 0.88038 0.47666 0.0
C558 C 0.97976 0.81223 0.48695 0.0
C559 C 0.11847 0.8298 0.44041 0.0
H560 H 0.02775 0.68135 0.47651 0.0
H561 H 0.98888 0.75146 0.37134 0.0
H562 H 0.09077 0.7623 0.50853 0.0
H563 H 0.04435 0.7505 0.53017 0.0
H564 H 0.07202 0.71006 0.51965 0.0
H565 H 1.01382 0.82032 0.35135 0.0
H566 H 0.99796 0.84108 0.39322 0.0
H567 H 0.04788 0.84451 0.38164 0.0
H568 H 0.99923 0.88436 0.51001 0.0
H569 H 0.11659 0.89833 0.47377 0.0
H570 H 0.98291 0.78076 0.50176 0.0
H571 H 0.96715 0.81034 0.4576 0.0
H572 H 0.95946 0.82657 0.50426 0.0
H573 H 0.12226 0.79721 0.45063 0.0
H574 H 0.14553 0.84777 0.4451 0.0
H575 H 0.11266 0.83315 0.40842 0.0
C576 C 0.47914 0.74839 0.66397 0.0
C577 C 0.44316 0.75365 0.67859 0.0
C578 C 0.48528 0.7142 0.64637 0.0
C579 C 0.45426 0.68556 0.64242 0.0
C580 C 0.41837 0.68973 0.65914 0.0
C581 C 0.41344 0.7236 0.67758 0.0
C582 C 0.52426 0.71013 0.62982 0.0
C583 C 0.38444 0.66031 0.65485 0.0
C584 C 0.46032 0.63513 0.55171 0.0
C585 C 0.47123 0.59679 0.56784 0.0
C586 C 0.45304 0.66377 0.57601 0.0
C587 C 0.45831 0.65401 0.6171 0.0
C588 C 0.46891 0.61494 0.63347 0.0
C589 C 0.47483 0.58647 0.6085 0.0
C590 C 0.44079 0.70481 0.55762 0.0
C591 C 0.47581 0.60393 0.67696 0.0
H592 H 0.50183 0.77208 0.66452 0.0
H593 H 0.38568 0.72809 0.68908 0.0
H594 H 0.53296 0.67867 0.63807 0.0
H595 H 0.5233 0.7165 0.59729 0.0
H596 H 0.54635 0.73151 0.64025 0.0
H597 H 0.35979 0.66547 0.67304 0.0
H598 H 0.37541 0.66386 0.62364 0.0
H599 H 0.39211 0.62852 0.66321 0.0
H600 H 0.45801 0.64282 0.52008 0.0
H601 H 0.48406 0.55681 0.62053 0.0
H602 H 0.46361 0.72865 0.56138 0.0
H603 H 0.41481 0.71215 0.57247 0.0
H604 H 0.43475 0.70617 0.52576 0.0
H605 H 0.50053 0.62312 0.68579 0.0
H606 H 0.48177 0.57151 0.6852 0.0
H607 H 0.45073 0.61005 0.69394 0.0
C608 C 0.9121 0.94511 0.79494 0.0
C609 C 0.89298 0.9064 0.80463 0.0
C610 C 0.9342 0.9561 0.76022 0.0
C611 C 0.93824 0.92768 0.73396 0.0
C612 C 0.92033 0.88786 0.74445 0.0
C613 C 0.89797 0.8778 0.77934 0.0
C614 C 0.95232 0.99882 0.75107 0.0
C615 C 0.92386 0.85609 0.71815 0.0
C616 C 0.96123 0.9703 0.62508 0.0
C617 C 1.00105 0.96798 0.62255 0.0
C618 C 0.9407 0.95701 0.66059 0.0
C619 C 0.9599 0.94031 0.69515 0.0
C620 C 1.00003 0.93738 0.69268 0.0
C621 C 0.01995 0.95129 0.65684 0.0
C622 C 0.89825 0.96142 0.66119 0.0
C623 C 0.02211 0.91967 0.72814 0.0
H624 H 0.90897 0.96735 0.81435 0.0
H625 H 0.88323 0.84795 0.78608 0.0
H626 H 0.98348 0.99819 0.74646 0.0
H627 H 0.94024 0.01433 0.72341 0.0
H628 H 0.94765 0.01705 0.77483 0.0
H629 H 0.91111 0.82582 0.7316 0.0
H630 H 0.90929 0.86536 0.68986 0.0
H631 H 0.95435 0.85341 0.71142 0.0
H632 H 0.94593 0.98304 0.59921 0.0
H633 H 0.05054 0.94898 0.65571 0.0
H634 H 0.89153 0.98143 0.6828 0.0
H635 H 0.88287 0.93139 0.67069 0.0
H636 H 0.8872 0.97438 0.63202 0.0
H637 H 0.02013 0.93865 0.75174 0.0
H638 H 0.05273 0.91767 0.72136 0.0
H639 H 1.0095 0.88882 0.73981 0.0
C640 C 0.6629 0.13375 0.3723 0.0
C641 C 0.64299 0.11758 0.40664 0.0
C642 C 0.65796 0.11586 0.33826 0.0
C643 C 0.63281 0.08062 0.33901 0.0
C644 C 0.61464 0.06261 0.37459 0.0
C645 C 0.61961 0.08174 0.40807 0.0
C646 C 0.67761 0.13631 0.30089 0.0
C647 C 0.58846 0.02449 0.37676 0.0
C648 C 0.58735 0.07251 0.24037 0.0
C649 C 0.61258 0.0487 0.22445 0.0
C650 C 0.59244 0.08144 0.27862 0.0
C651 C 0.62304 0.0654 0.30162 0.0
C652 C 0.64683 0.03883 0.28666 0.0
C653 C 0.64158 0.03118 0.24798 0.0
C654 C 0.56677 0.11039 0.29332 0.0
C655 C 0.67905 0.02028 0.3107 0.0
H656 H 0.68056 0.16183 0.37168 0.0
H657 H 0.60419 0.06975 0.43491 0.0
H658 H 0.69359 0.11423 0.28769 0.0
H659 H 0.65591 0.1478 0.2792 0.0
H660 H 0.69778 0.16221 0.30591 0.0
H661 H 0.58155 0.01095 0.40757 0.0
H662 H 0.56139 0.03169 0.36128 0.0
H663 H 0.60161 1.00157 0.36194 0.0
H664 H 0.56515 0.08627 0.22201 0.0
H665 H 0.66075 0.01234 0.23567 0.0
H666 H 0.58362 0.13909 0.29663 0.0
H667 H 0.555 0.09732 0.32263 0.0
H668 H 0.54264 0.11773 0.27302 0.0
H669 H 0.70232 0.04403 0.3132 0.0
H670 H 0.69099 0.99563 0.29727 0.0
H671 H 0.66914 0.00783 0.34091 0.0
C672 C 0.40406 0.62904 0.22742 0.0
C673 C 0.38632 0.6655 0.2248 0.0
C674 C 0.42051 0.61192 0.26266 0.0
C675 C 0.41883 0.63182 0.29604 0.0
C676 C 0.40213 0.66959 0.29303 0.0
C677 C 0.38608 0.68609 0.25721 0.0
C678 C 0.43851 0.57193 0.26449 0.0
C679 C 0.39988 0.69168 0.32798 0.0
C680 C 0.42589 0.56522 0.39521 0.0
C681 C 0.46428 0.57319 0.40472 0.0
C682 C 0.41046 0.58475 0.3602 0.0
C683 C 0.43408 0.61262 0.33415 0.0
C684 C 0.47274 0.62096 0.34376 0.0
C685 C 0.48732 0.60125 0.37892 0.0
C686 C 0.36899 0.57529 0.35087 0.0
C687 C 0.49888 0.65022 0.3166 0.0
H688 H 0.40384 0.61336 0.20206 0.0
H689 H 0.37172 0.71403 0.25493 0.0
H690 H 0.4682 0.57467 0.27557 0.0
H691 H 0.42237 0.54832 0.28535 0.0
H692 H 0.43904 0.56147 0.23539 0.0
H693 H 0.38778 0.7217 0.3202 0.0
H694 H 0.38174 0.67301 0.3511 0.0
H695 H 0.42867 0.69632 0.34076 0.0
H696 H 0.40791 0.54375 0.41507 0.0
H697 H 0.51706 0.60768 0.38598 0.0
H698 H 0.36677 0.56157 0.32347 0.0
H699 H 0.35393 0.60371 0.34573 0.0
H700 H 0.35414 0.55402 0.37481 0.0
H701 H 0.50133 0.63901 0.28806 0.0
H702 H 0.52798 0.65428 0.32899 0.0
H703 H 0.48677 0.68032 0.31052 0.0
C704 C 0.04257 0.47102 0.65242 0.0
C705 C 0.05504 0.43229 0.65203 0.0
C706 C 0.03908 0.48613 0.68802 0.0
C707 C 0.04865 0.46181 0.72364 0.0
C708 C 0.0595 0.42186 0.72332 0.0
C709 C 0.06264 0.40765 0.68741 0.0
C710 C 0.02725 0.5288 0.68731 0.0
C711 C 0.07019 0.39508 0.76057 0.0
C712 C 0.09022 0.51462 0.80575 0.0
C713 C 0.05947 0.51073 0.83199 0.0
C714 C 0.08684 0.49918 0.77021 0.0
C715 C 0.05172 0.47951 0.76061 0.0
C716 C 0.02047 0.47549 0.78693 0.0
C717 C 0.02478 0.49105 0.82247 0.0
C718 C 0.121 0.50357 0.74311 0.0
C719 C 0.98259 0.45486 0.7775 0.0
H720 H 0.03701 0.48985 0.62478 0.0
H721 H 0.07291 0.37791 0.68665 0.0
H722 H 1.0048 0.52938 0.70966 0.0
H723 H 0.05211 0.54861 0.69477 0.0
H724 H 1.01637 0.54176 0.65806 0.0
H725 H 0.07417 0.3635 0.75566 0.0
H726 H 0.09723 0.4078 0.77226 0.0
H727 H 0.04792 0.39418 0.78338 0.0
H728 H 0.11714 0.52944 0.81329 0.0
H729 H 1.00077 0.48857 0.84245 0.0
H730 H 0.11363 0.51995 0.71387 0.0
H731 H 0.12934 0.47312 0.73875 0.0
H732 H 0.14603 0.52028 0.75471 0.0
H733 H 0.97157 0.47024 0.74926 0.0
H734 H 0.96087 0.45502 0.80075 0.0
H735 H 0.98632 0.42292 0.77388 0.0
C736 C 0.78548 0.96368 0.90159 0.0
C737 C 0.78524 0.9226 0.89652 0.0
C738 C 0.75478 0.97899 0.92019 0.0
C739 C 0.72283 0.9527 0.93512 0.0
C740 C 0.72245 0.91121 0.92995 0.0
C741 C 0.75309 0.89697 0.91047 0.0
C742 C 0.75668 0.02349 0.92404 0.0
C743 C 0.68971 0.88155 0.94544 0.0
C744 C 0.66074 0.98403 1.01661 0.0
C745 C 0.628 0.99751 0.99618 0.0
C746 C 0.69133 0.96929 0.99738 0.0
C747 C 0.69007 0.96837 0.95622 0.0
C748 C 0.65717 0.98218 0.93542 0.0
C749 C 0.62674 0.99614 0.95549 0.0
C750 C 0.72505 0.95434 0.02133 0.0
C751 C 0.65417 0.98259 0.89165 0.0
H752 H 0.81006 0.98388 0.89146 0.0
H753 H 0.75194 0.86543 0.90623 0.0
H754 H 0.73083 0.03736 0.91094 0.0
H755 H 0.75715 0.02712 0.95552 0.0
H756 H 0.78234 0.04046 0.90946 0.0
H757 H 0.69385 0.85017 0.94004 0.0
H758 H 0.68645 0.88122 0.9775 0.0
H759 H 0.66265 0.89121 0.93139 0.0
H760 H 0.66241 0.9847 0.04794 0.0
H761 H 0.60197 0.00652 0.939 0.0
H762 H 0.7515 0.97259 1.01046 0.0
H763 H 0.72891 0.92235 1.01793 0.0
H764 H 0.72165 0.95613 0.05304 0.0
H765 H 0.67855 1.00156 0.87666 0.0
H766 H 0.62713 0.99459 0.87948 0.0
H767 H 0.65581 0.95141 0.88464 0.0
C768 C 0.74204 0.15342 0.4495 0.0
C769 C 0.7079 0.13029 0.46013 0.0
C770 C 0.77671 0.13509 0.45001 0.0
C771 C 0.77694 0.09243 0.4603 0.0
C772 C 0.74226 0.06875 0.46979 0.0
C773 C 0.70806 0.08809 0.46971 0.0
C774 C 0.81308 0.1614 0.4397 0.0
C775 C 0.74133 0.02311 0.48006 0.0
C776 C 0.86416 0.04628 0.42675 0.0
C777 C 0.88633 0.0417 0.46107 0.0
C778 C 0.8279 0.0614 0.42644 0.0
C779 C 0.81364 0.07287 0.46111 0.0
C780 C 0.83543 0.06778 0.496 0.0
C781 C 0.87136 0.05198 0.49564 0.0
C782 C 0.80524 0.06602 0.38874 0.0
C783 C 0.82119 0.07995 0.53349 0.0
H784 H 0.74152 0.18589 0.44059 0.0
H785 H 0.68136 0.07041 0.47731 0.0
H786 H 0.83359 0.15701 0.4644 0.0
H787 H 0.82678 0.15235 0.41377 0.0
H788 H 0.80797 0.19418 0.4331 0.0
H789 H 0.71185 0.0091 0.48571 0.0
H790 H 0.75394 0.00998 0.4558 0.0
H791 H 0.75887 0.01473 0.50659 0.0
H792 H 0.87538 0.03894 0.39974 0.0
H793 H 0.8877 0.04784 0.52253 0.0
H794 H 0.80221 0.0987 0.37811 0.0
H795 H 0.77603 0.05126 0.39393 0.0
H796 H 0.81898 0.05264 0.36524 0.0
H797 H 0.81753 0.11308 0.52902 0.0
H798 H 0.84105 0.0728 0.55845 0.0
H799 H 0.79284 0.06419 0.54151 0.0
C800 C 0.28025 0.63033 0.11213 0.0
C801 C 0.28522 0.66869 0.12378 0.0
C802 C 0.24648 0.61838 0.09385 0.0
C803 C 0.21768 0.64609 0.08609 0.0
C804 C 0.22336 0.6856 0.09616 0.0
C805 C 0.25692 0.69621 0.11555 0.0
C806 C 0.24104 0.57566 0.08427 0.0
C807 C 0.19357 0.71618 0.08756 0.0
C808 C 0.14097 0.61807 1.01508 0.0
C809 C 0.11193 0.60031 0.04107 0.0
C810 C 0.17518 0.63469 0.02924 0.0
C811 C 0.18052 0.6325 0.07025 0.0
C812 C 0.15093 0.61538 0.09652 0.0
C813 C 0.1168 0.59987 0.08155 0.0
C814 C 0.20584 0.65386 1.00046 0.0
C815 C 0.15581 0.61197 0.14051 0.0
H816 H 0.30255 0.60945 0.11814 0.0
H817 H 0.26076 0.72569 0.1251 0.0
H818 H 0.21642 0.55918 0.10115 0.0
H819 H 0.2344 0.57632 0.05267 0.0
H820 H 0.26669 0.55831 0.09132 0.0
H821 H 0.20431 0.74692 0.09309 0.0
H822 H 0.18416 0.71819 0.05654 0.0
H823 H 0.16808 0.70627 0.10631 0.0
H824 H 0.13706 0.61873 0.98374 0.0
H825 H 0.09441 0.58606 0.10176 0.0
H826 H 0.23109 0.63549 1.00371 0.0
H827 H 0.21534 0.68466 1.00671 0.0
H828 H 0.19589 0.65632 0.96955 0.0
H829 H 0.17949 0.59246 0.15005 0.0
H830 H 0.12952 0.59884 0.15677 0.0
H831 H 0.16356 0.64227 0.1489 0.0
C832 C 0.17056 0.37638 0.5897 0.0
C833 C 0.1442 0.3936 0.56272 0.0
C834 C 0.20969 0.38003 0.58089 0.0
C835 C 0.2225 0.40118 0.54401 0.0
C836 C 0.19549 0.41615 0.51564 0.0
C837 C 0.15653 0.41248 0.52555 0.0
C838 C 0.23743 0.3638 0.61207 0.0
C839 C 0.20789 0.43822 0.47579 0.0
C840 C 0.32199 0.45434 0.54279 0.0
C841 C 0.34411 0.42616 0.52897 0.0
C842 C 0.28224 0.44691 0.54708 0.0
C843 C 0.26415 0.41069 0.53672 0.0
C844 C 0.28619 0.38285 0.52134 0.0
C845 C 0.32594 0.3908 0.51791 0.0
C846 C 0.25978 0.4772 0.56396 0.0
C847 C 0.2679 0.3443 0.50929 0.0
H848 H 0.1606 0.36246 0.61864 0.0
H849 H 0.13583 0.4262 0.50513 0.0
H850 H 0.25773 0.34492 0.59989 0.0
H851 H 0.25444 0.38954 0.62224 0.0
H852 H 0.22271 0.34527 0.63784 0.0
H853 H 0.18337 0.44298 0.45543 0.0
H854 H 0.22206 0.46832 0.47899 0.0
H855 H 0.22895 0.42108 0.46245 0.0
H856 H 0.33597 0.4815 0.55165 0.0
H857 H 0.34291 0.36925 0.50661 0.0
H858 H 0.24622 0.4626 0.59204 0.0
H859 H 0.23651 0.48728 0.54362 0.0
H860 H 0.27794 0.50436 0.56954 0.0
H861 H 0.25545 0.32431 0.53542 0.0
H862 H 0.28863 0.32726 0.49528 0.0
H863 H 0.24418 0.35145 0.48848 0.0
C864 C 0.92358 0.83455 0.88947 0.0
C865 C 0.88729 0.83185 0.87233 0.0
C866 C 0.94195 0.79923 0.90534 0.0
C867 C 0.92357 0.75999 0.90437 0.0
C868 C 0.88759 0.75734 0.88546 0.0
C869 C 0.86999 0.79307 0.86996 0.0
C870 C 0.98024 0.80398 0.9249 0.0
C871 C 0.86669 0.71666 0.88323 0.0
C872 C 0.98044 0.6644 0.92084 0.0
C873 C 0.97198 0.64778 0.96016 0.0
C874 C 0.96547 0.70081 0.90268 0.0
C875 C 0.94116 0.72182 0.92401 0.0
C876 C 0.9327 0.70545 0.96381 0.0
C877 C 0.94811 0.66888 0.98131 0.0
C878 C 0.97544 0.71661 0.86035 0.0
C879 C 0.90699 0.72647 0.98791 0.0
H880 H 0.93659 0.86434 0.89247 0.0
H881 H 0.84152 0.79085 0.85772 0.0
H882 H 0.97728 0.79315 0.95687 0.0
H883 H 1.00085 0.78507 0.91321 0.0
H884 H 0.9922 0.83605 0.92059 0.0
H885 H 0.84024 0.71952 0.8654 0.0
H886 H 0.88545 0.69674 0.87032 0.0
H887 H 0.85888 0.70139 0.91325 0.0
H888 H 0.99882 0.64878 0.90391 0.0
H889 H 0.94127 0.65671 1.0116 0.0
H890 H 0.98856 0.74814 0.8577 0.0
H891 H 0.9491 0.71756 0.84232 0.0
H892 H 0.99553 0.69755 0.84798 0.0
H893 H 0.91859 0.75817 0.98849 0.0
H894 H 0.90376 0.71068 0.0186 0.0
H895 H 0.8783 0.72799 0.97423 0.0
C896 C 0.38713 0.7818 0.17977 0.0
C897 C 0.3979 0.7454 0.16933 0.0
C898 C 0.41039 0.81775 0.17043 0.0
C899 C 0.445 0.81697 0.14984 0.0
C900 C 0.45754 0.7794 0.14247 0.0
C901 C 0.43364 0.74385 0.15236 0.0
C902 C 0.39609 0.85704 0.17917 0.0
C903 C 0.49435 0.77725 0.12084 0.0
C904 C 0.47031 0.91183 0.07695 0.0
C905 C 0.49808 0.9324 0.09748 0.0
C906 C 0.45355 0.87373 0.09338 0.0
C907 C 0.46487 0.85579 0.13126 0.0
C908 C 0.49348 0.87594 0.15178 0.0
C909 C 0.50975 0.91404 0.13466 0.0
C910 C 0.42309 0.85308 0.07053 0.0
C911 C 0.50625 0.85769 0.19216 0.0
H912 H 0.35907 0.78255 0.19243 0.0
H913 H 0.44131 0.71551 0.14386 0.0
H914 H 0.41926 0.87562 0.19155 0.0
H915 H 0.38654 0.87498 0.15149 0.0
H916 H 0.37171 0.85172 0.20011 0.0
H917 H 0.50307 0.74561 0.1234 0.0
H918 H 0.49057 0.789 0.08926 0.0
H919 H 0.51773 0.79646 0.1321 0.0
H920 H 0.46124 0.92573 0.04819 0.0
H921 H 0.53131 0.92968 0.15072 0.0
H922 H 0.39564 0.84951 0.08685 0.0
H923 H 0.431 0.8222 0.06714 0.0
H924 H 0.41856 0.87039 0.0409 0.0
H925 H 0.48218 0.85556 0.2132 0.0
H926 H 0.53062 0.87593 0.20308 0.0
H927 H 0.51475 0.82637 0.19182 0.0
C928 C 0.07514 0.29664 0.60231 0.0
C929 C 0.07893 0.3299 0.57225 0.0
C930 C 0.07177 0.25687 0.59383 0.0
C931 C 0.07343 0.25023 0.55428 0.0
C932 C 0.07928 0.28377 0.52387 0.0
C933 C 0.08182 0.32341 0.53328 0.0
C934 C 0.06564 0.22203 0.62714 0.0
C935 C 0.0822 0.27778 0.48149 0.0
C936 C 0.09668 0.14391 0.54171 0.0
C937 C 0.06046 0.12562 0.53502 0.0
C938 C 0.10149 0.18492 0.54638 0.0
C939 C 0.06918 0.20803 0.54519 0.0
C940 C 0.03254 0.1899 0.53808 0.0
C941 C 0.02866 0.14892 0.53263 0.0
C942 C 0.1411 0.20331 0.5532 0.0
C943 C 0.99734 0.21347 0.53732 0.0
H944 H 0.07417 0.30195 0.63253 0.0
H945 H 0.08512 0.34939 0.51027 0.0
H946 H 0.03855 0.20409 0.62268 0.0
H947 H 0.08904 0.20132 0.62766 0.0
H948 H 0.06446 0.23254 0.65618 0.0
H949 H 0.08879 0.30687 0.46165 0.0
H950 H 0.10478 0.25693 0.47807 0.0
H951 H 0.0549 0.26342 0.47206 0.0
H952 H 0.12148 0.12622 0.54301 0.0
H953 H 1.00066 0.1349 0.52737 0.0
H954 H 0.14294 0.21175 0.58312 0.0
H955 H 0.14725 0.23154 0.53208 0.0
H956 H 0.16353 0.18213 0.55016 0.0
H957 H 0.99333 0.22304 0.56642 0.0
H958 H 0.97115 0.1954 0.53009 0.0
H959 H 1.00088 0.24147 0.51543 0.0
C960 C 0.62714 0.26478 0.42306 0.0
C961 C 0.62282 0.23915 0.45907 0.0
C962 C 0.61705 0.30501 0.41899 0.0
C963 C 0.60267 0.31975 0.45192 0.0
C964 C 0.59936 0.29415 0.48872 0.0
C965 C 0.60944 0.25392 0.49179 0.0
C966 C 0.62086 0.33133 0.37935 0.0
C967 C 0.58436 0.30898 0.52457 0.0
C968 C 0.598 0.43161 0.45778 0.0
C969 C 0.55869 0.43565 0.45336 0.0
C970 C 0.61336 0.39442 0.45523 0.0
C971 C 0.58874 0.36103 0.44764 0.0
C972 C 0.54967 0.36617 0.43965 0.0
C973 C 0.53507 0.40345 0.44279 0.0
C974 C 0.65521 0.39004 0.46379 0.0
C975 C 0.52267 0.33147 0.43073 0.0
H976 H 0.63811 0.25299 0.39805 0.0
H977 H 0.60646 0.23373 0.51951 0.0
H978 H 0.5922 0.33955 0.36842 0.0
H979 H 0.63796 0.36007 0.38185 0.0
H980 H 0.63454 0.31587 0.35729 0.0
H981 H 0.58554 0.28595 0.55135 0.0
H982 H 0.60114 0.33709 0.52985 0.0
H983 H 0.55429 0.31665 0.51965 0.0
H984 H 0.61629 0.45642 0.4662 0.0
H985 H 0.50467 0.40668 0.43909 0.0
H986 H 0.66823 0.37365 0.44212 0.0
H987 H 0.65837 0.37184 0.49322 0.0
H988 H 0.67136 0.41995 0.46347 0.0
H989 H 0.53484 0.31615 0.40773 0.0
H990 H 0.4943 0.34173 0.42075 0.0
H991 H 0.51849 0.30857 0.45752 0.0
loop_
_geom_bond_atom_site_label_1
_geom_bond_atom_site_label_2
_geom_bond_distance
_geom_bond_site_symmetry_2
_ccdc_geom_bond_type
C0 N1 1.317 . S
C0 N2 1.348 . S
C0 C3 1.485 . S
N1 C0 1.317 . S
N1 N5 1.370 . S
N2 C0 1.348 . S
N2 C4 1.346 . S
C3 C0 1.485 . S
C3 H7 0.960 . S
C3 H8 0.961 . S
C3 H9 0.960 . S
C4 N2 1.346 . S
C4 N5 1.307 . S
C4 C6 1.486 . S
N5 N1 1.370 . S
N5 C4 1.307 . S
C6 C4 1.486 . S
C6 H10 0.960 . S
C6 H11 0.960 . S
C6 H12 0.959 . S
H7 C3 0.960 . S
H8 C3 0.961 . S
H9 C3 0.960 . S
H10 C6 0.960 . S
H11 C6 0.960 . S
H12 C6 0.959 . S
C13 N14 1.317 . S
C13 N15 1.348 . S
C13 C16 1.485 . S
N14 C13 1.317 . S
N14 N18 1.370 . S
N15 C13 1.348 . S
N15 C17 1.346 . S
C16 C13 1.485 . S
C16 H20 0.960 . S
C16 H21 0.961 . S
C16 H22 0.960 . S
C17 N15 1.346 . S
C17 N18 1.307 . S
C17 C19 1.486 . S
N18 N14 1.370 . S
N18 C17 1.307 . S
C19 C17 1.486 . S
C19 H23 0.960 . S
C19 H24 0.960 . S
C19 H25 0.959 . S
H20 C16 0.960 . S
H21 C16 0.961 . S
H22 C16 0.960 . S
H23 C19 0.960 . S
H24 C19 0.960 . S
H25 C19 0.959 . S
C26 N27 1.317 . S
C26 N28 1.348 . S
C26 C29 1.485 . S
N27 C26 1.317 . S
N27 N31 1.370 . S
N28 C26 1.348 . S
N28 C30 1.346 . S
C29 C26 1.485 . S
C29 H33 0.960 . S
C29 H34 0.961 . S
C29 H35 0.960 . S
C30 N28 1.346 . S
C30 N31 1.307 . S
C30 C32 1.486 . S
N31 N27 1.370 . S
N31 C30 1.307 . S
C32 C30 1.486 . S
C32 H36 0.960 . S
C32 H37 0.960 . S
C32 H38 0.959 . S
H33 C29 0.960 . S
H34 C29 0.961 . S
H35 C29 0.960 . S
H36 C32 0.960 . S
H37 C32 0.960 . S
H38 C32 0.959 . S
C39 N40 1.317 . S
C39 N41 1.348 . S
C39 C42 1.485 . S
N40 C39 1.317 . S
N40 N44 1.370 . S
N41 C39 1.348 . S
N41 C43 1.346 . S
C42 C39 1.485 . S
C42 H46 0.960 . S
C42 H47 0.961 . S
C42 H48 0.960 . S
C43 N41 1.346 . S
C43 N44 1.307 . S
C43 C45 1.486 . S
N44 N40 1.370 . S
N44 C43 1.307 . S
C45 C43 1.486 . S
C45 H49 0.960 . S
C45 H50 0.960 . S
C45 H51 0.959 . S
H46 C42 0.960 . S
H47 C42 0.961 . S
H48 C42 0.960 . S
H49 C45 0.960 . S
H50 C45 0.960 . S
H51 C45 0.959 . S
C52 N53 1.317 . S
C52 N54 1.348 . S
C52 C55 1.485 . S
N53 C52 1.317 . S
N53 N57 1.370 . S
N54 C52 1.348 . S
N54 C56 1.346 . S
C55 C52 1.485 . S
C55 H59 0.960 . S
C55 H60 0.961 . S
C55 H61 0.960 . S
C56 N54 1.346 . S
C56 N57 1.307 . S
C56 C58 1.486 . S
N57 N53 1.370 . S
N57 C56 1.307 . S
C58 C56 1.486 . S
C58 H62 0.948 1_565 S
C58 H63 0.960 . S
C58 H64 0.959 . S
H59 C55 0.960 . S
H60 C55 0.961 . S
H61 C55 0.960 . S
H62 C58 0.948 1_545 S
H63 C58 0.960 . S
H64 C58 0.959 . S
C65 N66 1.317 . S
C65 N67 1.348 . S
C65 C68 1.485 . S
N66 C65 1.317 . S
N66 N70 1.370 . S
N67 C65 1.348 . S
N67 C69 1.346 . S
C68 C65 1.485 . S
C68 H72 0.960 . S
C68 H73 0.961 . S
C68 H74 0.960 . S
C69 N67 1.346 . S
C69 N70 1.307 . S
C69 C71 1.486 . S
N70 N66 1.370 . S
N70 C69 1.307 . S
C71 C69 1.486 . S
C71 H75 0.960 . S
C71 H76 0.960 . S
C71 H77 0.959 . S
H72 C68 0.960 . S
H73 C68 0.961 . S
H74 C68 0.960 . S
H75 C71 0.960 . S
H76 C71 0.960 . S
H77 C71 0.959 . S
C78 N79 1.317 . S
C78 N80 1.348 . S
C78 C81 1.485 . S
N79 C78 1.317 . S
N79 N83 1.370 . S
N80 C78 1.348 . S
N80 C82 1.346 . S
C81 C78 1.485 . S
C81 H85 0.960 . S
C81 H86 0.961 . S
C81 H87 0.960 . S
C82 N80 1.346 . S
C82 N83 1.307 . S
C82 C84 1.486 . S
N83 N79 1.370 . S
N83 C82 1.307 . S
C84 C82 1.486 . S
C84 H88 0.960 . S
C84 H89 0.960 . S
C84 H90 0.959 . S
H85 C81 0.960 . S
H86 C81 0.961 . S
H87 C81 0.960 . S
H88 C84 0.960 . S
H89 C84 0.960 . S
H90 C84 0.959 . S
C91 N92 1.317 . S
C91 N93 1.348 . S
C91 C94 1.485 . S
N92 C91 1.317 . S
N92 N96 1.370 . S
N93 C91 1.348 . S
N93 C95 1.346 . S
C94 C91 1.485 . S
C94 H98 0.960 . S
C94 H99 0.961 . S
C94 H100 0.960 . S
C95 N93 1.346 . S
C95 N96 1.307 . S
C95 C97 1.486 . S
N96 N92 1.370 . S
N96 C95 1.307 . S
C97 C95 1.486 . S
C97 H101 0.960 . S
C97 H102 0.960 . S
C97 H103 0.959 . S
H98 C94 0.960 . S
H99 C94 0.961 . S
H100 C94 0.960 . S
H101 C97 0.960 . S
H102 C97 0.960 . S
H103 C97 0.959 . S
Co104 N109 2.057 1_455 S
Co104 O121 2.021 . S
Co104 O124 2.062 . S
Co104 O128 2.119 1_445 S
Co104 O129 2.020 1_455 S
C105 O125 1.259 . S
C105 O128 1.240 1_455 S
Co106 N115 2.057 . S
Co106 O122 2.117 1_565 S
Co106 O123 2.020 1_565 S
Co106 O125 2.021 . S
Co106 O130 2.062 . S
C107 N109 1.316 . S
C107 N110 1.347 . S
C107 H112 0.931 . S
C108 N109 1.375 . S
C108 C111 1.350 . S
C108 H113 0.930 1_545 S
N109 Co104 2.057 1_655 S
N109 C107 1.316 . S
N109 C108 1.375 . S
N110 C107 1.347 . S
N110 C111 1.373 . S
C111 C108 1.350 . S
C111 N110 1.373 . S
C111 H132 0.931 . S
H112 C107 0.931 . S
H113 C108 0.930 1_565 S
C114 O121 1.259 . S
C114 O122 1.258 . S
N115 Co106 2.057 . S
N115 C116 1.316 . S
N115 C117 1.375 1_565 S
C116 N115 1.316 . S
C116 N118 1.347 . S
C116 H127 0.931 . S
C117 N115 1.375 1_545 S
C117 C119 1.350 . S
C117 H126 0.930 . S
N118 C116 1.347 . S
N118 C119 1.373 1_565 S
C119 C117 1.350 . S
C119 N118 1.373 1_545 S
C119 H133 0.931 . S
C120 O123 1.256 . S
C120 O124 1.255 . S
O121 Co104 2.021 . S
O121 C114 1.259 . S
O122 Co106 2.117 1_545 S
O122 C114 1.258 . S
O123 Co106 2.020 1_545 S
O123 C120 1.256 . S
O124 Co104 2.062 . S
O124 C120 1.255 . S
O125 C105 1.259 . S
O125 Co106 2.021 . S
H126 C117 0.930 . S
H127 C116 0.931 . S
O128 Co104 2.119 1_665 S
O128 C105 1.240 1_655 S
O129 Co104 2.020 1_655 S
O129 C131 1.256 1_645 S
O130 Co106 2.062 . S
O130 C131 1.255 . S
C131 O129 1.256 1_465 S
C131 O130 1.255 . S
H132 C111 0.931 . S
H133 C119 0.931 . S
Co134 N139 2.057 1_545 S
Co134 O151 2.021 . S
Co134 O154 2.064 . S
Co134 O158 2.117 1_546 S
Co134 O159 2.020 1_556 S
C135 O155 1.259 . S
C135 O158 1.258 . S
Co136 N145 2.057 . S
Co136 O152 2.117 . S
Co136 O153 2.020 . S
Co136 O155 2.021 1_545 S
Co136 O160 2.062 . S
C137 N139 1.317 1_545 S
C137 N140 1.349 1_545 S
C137 H142 0.928 . S
C138 N139 1.375 . S
C138 C141 1.350 . S
C138 H143 0.930 . S
N139 Co134 2.057 1_565 S
N139 C137 1.317 1_565 S
N139 C138 1.375 . S
N140 C137 1.349 1_565 S
N140 C141 1.373 . S
C141 C138 1.350 . S
C141 N140 1.373 . S
C141 H162 0.931 . S
H142 C137 0.928 . S
H143 C138 0.930 . S
C144 O151 1.259 . S
C144 O152 1.258 1_556 S
N145 Co136 2.057 . S
N145 C146 1.316 . S
N145 C147 1.375 . S
C146 N145 1.316 . S
C146 N148 1.347 . S
C146 H157 0.931 . S
C147 N145 1.375 . S
C147 C149 1.350 . S
C147 H156 0.930 . S
N148 C146 1.347 . S
N148 C149 1.373 . S
C149 C147 1.350 . S
C149 N148 1.373 . S
C149 H163 0.931 . S
C150 O153 1.253 1_565 S
C150 O154 1.254 1_564 S
O151 Co134 2.021 . S
O151 C144 1.259 . S
O152 Co136 2.117 . S
O152 C144 1.258 1_554 S
O153 Co136 2.020 . S
O153 C150 1.253 1_545 S
O154 Co134 2.064 . S
O154 C150 1.254 1_546 S
O155 C135 1.259 . S
O155 Co136 2.021 1_565 S
H156 C147 0.930 . S
H157 C146 0.931 . S
O158 Co134 2.117 1_564 S
O158 C135 1.258 . S
O159 Co134 2.020 1_554 S
O159 C161 1.256 . S
O160 Co136 2.062 . S
O160 C161 1.255 . S
C161 O159 1.256 . S
C161 O160 1.255 . S
H162 C141 0.931 . S
H163 C149 0.931 . S
Co164 N169 2.057 . S
Co164 O181 2.021 . S
Co164 O184 2.062 . S
Co164 O188 2.117 . S
Co164 O189 2.020 . S
C165 O185 1.259 . S
C165 O188 1.258 . S
Co166 N175 2.057 . S
Co166 O182 2.117 . S
Co166 O183 2.020 . S
Co166 O185 2.021 . S
Co166 O190 2.062 . S
C167 N169 1.316 . S
C167 N170 1.347 . S
C167 H172 0.931 . S
C168 N169 1.375 . S
C168 C171 1.350 . S
C168 H173 0.930 . S
N169 Co164 2.057 . S
N169 C167 1.316 . S
N169 C168 1.375 . S
N170 C167 1.347 . S
N170 C171 1.373 . S
C171 C168 1.350 . S
C171 N170 1.373 . S
C171 H192 0.931 . S
H172 C167 0.931 . S
H173 C168 0.930 . S
C174 O181 1.259 . S
C174 O182 1.258 . S
N175 Co166 2.057 . S
N175 C176 1.316 . S
N175 C177 1.375 . S
C176 N175 1.316 . S
C176 N178 1.347 . S
C176 H187 0.931 . S
C177 N175 1.375 . S
C177 C179 1.350 . S
C177 H186 0.930 . S
N178 C176 1.347 . S
N178 C179 1.373 . S
C179 C177 1.350 . S
C179 N178 1.373 . S
C179 H193 0.931 . S
C180 O183 1.256 . S
C180 O184 1.255 . S
O181 Co164 2.021 . S
O181 C174 1.259 . S
O182 Co166 2.117 . S
O182 C174 1.258 . S
O183 Co166 2.020 . S
O183 C180 1.256 . S
O184 Co164 2.062 . S
O184 C180 1.255 . S
O185 C165 1.259 . S
O185 Co166 2.021 . S
H186 C177 0.930 . S
H187 C176 0.931 . S
O188 Co164 2.117 . S
O188 C165 1.258 . S
O189 Co164 2.020 . S
O189 C191 1.256 . S
O190 Co166 2.062 . S
O190 C191 1.255 . S
C191 O189 1.256 . S
C191 O190 1.255 . S
H192 C171 0.931 . S
H193 C179 0.931 . S
Co194 N199 2.057 . S
Co194 O211 2.021 . S
Co194 O214 2.062 . S
Co194 O218 2.117 1_455 S
Co194 O219 2.020 1_455 S
C195 O215 1.259 1_556 S
C195 O218 1.258 . S
Co196 N205 2.057 . S
Co196 O212 2.117 1_655 S
Co196 O213 2.020 1_655 S
Co196 O215 2.021 . S
Co196 O220 2.062 . S
C197 N199 1.316 . S
C197 N200 1.347 . S
C197 H202 0.931 . S
C198 N199 1.375 1_655 S
C198 C201 1.350 1_655 S
C198 H203 0.930 . S
N199 Co194 2.057 . S
N199 C197 1.316 . S
N199 C198 1.375 1_455 S
N200 C197 1.347 . S
N200 C201 1.373 . S
C201 C198 1.350 1_455 S
C201 N200 1.373 . S
C201 H222 0.931 1_455 S
H202 C197 0.931 . S
H203 C198 0.930 . S
C204 O211 1.259 1_554 S
C204 O212 1.258 . S
N205 Co196 2.057 . S
N205 C206 1.316 . S
N205 C207 1.375 1_655 S
C206 N205 1.316 . S
C206 N208 1.347 . S
C206 H217 0.931 . S
C207 N205 1.375 1_455 S
C207 C209 1.350 . S
C207 H216 0.930 . S
N208 C206 1.347 . S
N208 C209 1.373 1_655 S
C209 C207 1.350 . S
C209 N208 1.373 1_455 S
C209 H223 0.931 . S
C210 O213 1.256 . S
C210 O214 1.255 1_554 S
O211 Co194 2.021 . S
O211 C204 1.259 1_556 S
O212 Co196 2.117 1_455 S
O212 C204 1.258 . S
O213 Co196 2.020 1_455 S
O213 C210 1.256 . S
O214 Co194 2.062 . S
O214 C210 1.255 1_556 S
O215 C195 1.259 1_554 S
O215 Co196 2.021 . S
H216 C207 0.930 . S
H217 C206 0.931 . S
O218 Co194 2.117 1_655 S
O218 C195 1.258 . S
O219 Co194 2.020 1_655 S
O219 C221 1.256 . S
O220 Co196 2.062 . S
O220 C221 1.255 1_554 S
C221 O219 1.256 . S
C221 O220 1.255 1_556 S
H222 C201 0.931 1_655 S
H223 C209 0.931 . S
C224 C225 1.391 . S
C224 C226 1.394 . S
C224 H240 0.931 . S
C225 C224 1.391 . S
C225 C229 1.376 . S
C226 C224 1.394 . S
C226 C227 1.369 . S
C226 C230 1.531 . S
C227 C226 1.369 . S
C227 C228 1.410 . S
C227 C235 1.503 . S
C228 C227 1.410 . S
C228 C229 1.392 . S
C228 C231 1.511 . S
C229 C225 1.376 . S
C229 C228 1.392 . S
C229 H241 0.929 . S
C230 C226 1.531 . S
C230 H242 0.960 . S
C230 H243 0.962 . S
C230 H244 0.960 . S
C231 C228 1.511 . S
C231 H245 0.961 . S
C231 H246 0.961 . S
C231 H247 0.961 . S
C232 C233 1.370 . S
C232 C234 1.363 . S
C232 H248 0.931 . S
C233 C232 1.370 . S
C233 C237 1.408 . S
C234 C232 1.363 . S
C234 C235 1.370 . S
C234 C238 1.524 . S
C235 C227 1.503 . S
C235 C234 1.370 . S
C235 C236 1.403 . S
C236 C235 1.403 . S
C236 C237 1.404 . S
C236 C239 1.539 . S
C237 C233 1.408 . S
C237 C236 1.404 . S
C237 H249 0.930 . S
C238 C234 1.524 . S
C238 H250 0.956 . S
C238 H251 0.961 . S
C238 H252 0.961 . S
C239 C236 1.539 . S
C239 H253 0.958 1_545 S
C239 H254 0.961 1_545 S
C239 H255 0.960 . S
H240 C224 0.931 . S
H241 C229 0.929 . S
H242 C230 0.960 . S
H243 C230 0.962 . S
H244 C230 0.960 . S
H245 C231 0.961 . S
H246 C231 0.961 . S
H247 C231 0.961 . S
H248 C232 0.931 . S
H249 C237 0.930 . S
H250 C238 0.956 . S
H251 C238 0.961 . S
H252 C238 0.961 . S
H253 C239 0.958 1_565 S
H254 C239 0.961 1_565 S
H255 C239 0.960 . S
C256 C257 1.391 . S
C256 C258 1.394 . S
C256 H272 0.931 . S
C257 C256 1.391 . S
C257 C261 1.376 . S
C258 C256 1.394 . S
C258 C259 1.369 . S
C258 C262 1.531 . S
C259 C258 1.369 . S
C259 C260 1.410 . S
C259 C267 1.503 . S
C260 C259 1.410 . S
C260 C261 1.392 . S
C260 C263 1.511 . S
C261 C257 1.376 . S
C261 C260 1.392 . S
C261 H273 0.929 . S
C262 C258 1.531 . S
C262 H274 0.954 1_565 S
C262 H275 0.962 . S
C262 H276 0.960 1_565 S
C263 C260 1.511 . S
C263 H277 0.961 . S
C263 H278 0.961 . S
C263 H279 0.961 . S
C264 C265 1.370 . S
C264 C266 1.363 . S
C264 H280 0.931 . S
C265 C264 1.370 . S
C265 C269 1.408 . S
C266 C264 1.363 . S
C266 C267 1.370 . S
C266 C270 1.524 . S
C267 C259 1.503 . S
C267 C266 1.370 . S
C267 C268 1.403 . S
C268 C267 1.403 . S
C268 C269 1.404 . S
C268 C271 1.539 . S
C269 C265 1.408 . S
C269 C268 1.404 . S
C269 H281 0.930 . S
C270 C266 1.524 . S
C270 H282 0.956 . S
C270 H283 0.961 . S
C270 H284 0.961 . S
C271 C268 1.539 . S
C271 H285 0.937 1_565 S
C271 H286 0.961 . S
C271 H287 0.960 . S
H272 C256 0.931 . S
H273 C261 0.929 . S
H274 C262 0.954 1_545 S
H275 C262 0.962 . S
H276 C262 0.960 1_545 S
H277 C263 0.961 . S
H278 C263 0.961 . S
H279 C263 0.961 . S
H280 C264 0.931 . S
H281 C269 0.930 . S
H282 C270 0.956 . S
H283 C270 0.961 . S
H284 C270 0.961 . S
H285 C271 0.937 1_545 S
H286 C271 0.961 . S
H287 C271 0.960 . S
C288 C289 1.391 . S
C288 C290 1.394 . S
C288 H304 0.931 . S
C289 C288 1.391 . S
C289 C293 1.376 . S
C290 C288 1.394 . S
C290 C291 1.369 . S
C290 C294 1.531 . S
C291 C290 1.369 . S
C291 C292 1.410 . S
C291 C299 1.503 . S
C292 C291 1.410 . S
C292 C293 1.392 . S
C292 C295 1.511 . S
C293 C289 1.376 . S
C293 C292 1.392 . S
C293 H305 0.929 . S
C294 C290 1.531 . S
C294 H306 0.960 . S
C294 H307 0.962 . S
C294 H308 0.960 . S
C295 C292 1.511 . S
C295 H309 0.961 . S
C295 H310 0.961 . S
C295 H311 0.961 . S
C296 C297 1.370 . S
C296 C298 1.363 . S
C296 H312 0.931 . S
C297 C296 1.370 . S
C297 C301 1.408 . S
C298 C296 1.363 . S
C298 C299 1.370 . S
C298 C302 1.524 . S
C299 C291 1.503 . S
C299 C298 1.370 . S
C299 C300 1.403 . S
C300 C299 1.403 . S
C300 C301 1.404 . S
C300 C303 1.539 . S
C301 C297 1.408 . S
C301 C300 1.404 . S
C301 H313 0.930 . S
C302 C298 1.524 . S
C302 H314 0.956 . S
C302 H315 0.961 . S
C302 H316 0.961 . S
C303 C300 1.539 . S
C303 H317 0.958 . S
C303 H318 0.961 . S
C303 H319 0.960 . S
H304 C288 0.931 . S
H305 C293 0.929 . S
H306 C294 0.960 . S
H307 C294 0.962 . S
H308 C294 0.960 . S
H309 C295 0.961 . S
H310 C295 0.961 . S
H311 C295 0.961 . S
H312 C296 0.931 . S
H313 C301 0.930 . S
H314 C302 0.956 . S
H315 C302 0.961 . S
H316 C302 0.961 . S
H317 C303 0.958 . S
H318 C303 0.961 . S
H319 C303 0.960 . S
C320 C321 1.391 . S
C320 C322 1.394 . S
C320 H336 0.931 . S
C321 C320 1.391 . S
C321 C325 1.376 . S
C322 C320 1.394 . S
C322 C323 1.369 . S
C322 C326 1.531 . S
C323 C322 1.369 . S
C323 C324 1.410 . S
C323 C331 1.503 . S
C324 C323 1.410 . S
C324 C325 1.392 . S
C324 C327 1.510 1_655 S
C325 C321 1.376 . S
C325 C324 1.392 . S
C325 H337 0.929 . S
C326 C322 1.531 . S
C326 H338 0.960 . S
C326 H339 0.962 . S
C326 H340 0.960 . S
C327 C324 1.510 1_455 S
C327 H341 0.961 . S
C327 H342 0.961 1_455 S
C327 H343 0.961 . S
C328 C329 1.370 . S
C328 C330 1.363 . S
C328 H344 0.931 . S
C329 C328 1.370 . S
C329 C333 1.408 . S
C330 C328 1.363 . S
C330 C331 1.370 . S
C330 C334 1.524 . S
C331 C323 1.503 . S
C331 C330 1.370 . S
C331 C332 1.403 . S
C332 C331 1.403 . S
C332 C333 1.404 . S
C332 C335 1.539 . S
C333 C329 1.408 . S
C333 C332 1.404 . S
C333 H345 0.930 . S
C334 C330 1.524 . S
C334 H346 0.956 . S
C334 H347 0.961 . S
C334 H348 0.961 . S
C335 C332 1.539 . S
C335 H349 0.958 . S
C335 H350 0.961 1_655 S
C335 H351 0.966 . S
H336 C320 0.931 . S
H337 C325 0.929 . S
H338 C326 0.960 . S
H339 C326 0.962 . S
H340 C326 0.960 . S
H341 C327 0.961 . S
H342 C327 0.961 1_655 S
H343 C327 0.961 . S
H344 C328 0.931 . S
H345 C333 0.930 . S
H346 C334 0.956 . S
H347 C334 0.961 . S
H348 C334 0.961 . S
H349 C335 0.958 . S
H350 C335 0.961 1_455 S
H351 C335 0.966 . S
C352 C353 1.391 . S
C352 C354 1.394 . S
C352 H368 0.931 . S
C353 C352 1.391 . S
C353 C357 1.376 . S
C354 C352 1.394 . S
C354 C355 1.369 . S
C354 C358 1.531 . S
C355 C354 1.369 . S
C355 C356 1.410 . S
C355 C363 1.503 . S
C356 C355 1.410 . S
C356 C357 1.392 . S
C356 C359 1.511 . S
C357 C353 1.376 . S
C357 C356 1.392 . S
C357 H369 0.929 . S
C358 C354 1.531 . S
C358 H370 0.960 . S
C358 H371 0.962 . S
C358 H372 0.960 1_554 S
C359 C356 1.511 . S
C359 H373 0.961 . S
C359 H374 0.961 . S
C359 H375 0.961 . S
C360 C361 1.370 . S
C360 C362 1.363 . S
C360 H376 0.931 . S
C361 C360 1.370 . S
C361 C365 1.408 . S
C362 C360 1.363 . S
C362 C363 1.370 . S
C362 C366 1.524 . S
C363 C355 1.503 . S
C363 C362 1.370 . S
C363 C364 1.403 . S
C364 C363 1.403 . S
C364 C365 1.404 . S
C364 C367 1.539 . S
C365 C361 1.408 . S
C365 C364 1.404 . S
C365 H377 0.930 . S
C366 C362 1.524 . S
C366 H378 0.956 . S
C366 H379 0.961 . S
C366 H380 0.952 1_545 S
C367 C364 1.539 . S
C367 H381 0.958 . S
C367 H382 0.961 . S
C367 H383 0.960 . S
H368 C352 0.931 . S
H369 C357 0.929 . S
H370 C358 0.960 . S
H371 C358 0.962 . S
H372 C358 0.960 1_556 S
H373 C359 0.961 . S
H374 C359 0.961 . S
H375 C359 0.961 . S
H376 C360 0.931 . S
H377 C365 0.930 . S
H378 C366 0.956 . S
H379 C366 0.961 . S
H380 C366 0.952 1_565 S
H381 C367 0.958 . S
H382 C367 0.961 . S
H383 C367 0.960 . S
C384 C385 1.391 . S
C384 C386 1.394 . S
C384 H400 0.931 . S
C385 C384 1.391 . S
C385 C389 1.376 . S
C386 C384 1.394 . S
C386 C387 1.369 . S
C386 C390 1.531 . S
C387 C386 1.369 . S
C387 C388 1.410 . S
C387 C395 1.503 . S
C388 C387 1.410 . S
C388 C389 1.392 . S
C388 C391 1.511 . S
C389 C385 1.376 . S
C389 C388 1.392 . S
C389 H401 0.929 . S
C390 C386 1.531 . S
C390 H402 0.960 . S
C390 H403 0.962 . S
C390 H404 0.960 . S
C391 C388 1.511 . S
C391 H405 0.961 . S
C391 H406 0.961 . S
C391 H407 0.961 . S
C392 C393 1.370 . S
C392 C394 1.363 . S
C392 H408 0.931 . S
C393 C392 1.370 . S
C393 C397 1.408 . S
C394 C392 1.363 . S
C394 C395 1.370 . S
C394 C398 1.524 . S
C395 C387 1.503 . S
C395 C394 1.370 . S
C395 C396 1.403 . S
C396 C395 1.403 . S
C396 C397 1.404 . S
C396 C399 1.539 . S
C397 C393 1.408 . S
C397 C396 1.404 . S
C397 H409 0.930 . S
C398 C394 1.524 . S
C398 H410 0.956 . S
C398 H411 0.961 . S
C398 H412 0.961 . S
C399 C396 1.539 . S
C399 H413 0.958 . S
C399 H414 0.961 1_565 S
C399 H415 0.960 . S
H400 C384 0.931 . S
H401 C389 0.929 . S
H402 C390 0.960 . S
H403 C390 0.962 . S
H404 C390 0.960 . S
H405 C391 0.961 . S
H406 C391 0.961 . S
H407 C391 0.961 . S
H408 C392 0.931 . S
H409 C397 0.930 . S
H410 C398 0.956 . S
H411 C398 0.961 . S
H412 C398 0.961 . S
H413 C399 0.958 . S
H414 C399 0.961 1_545 S
H415 C399 0.960 . S
C416 C417 1.391 . S
C416 C418 1.394 . S
C416 H432 0.931 . S
C417 C416 1.391 . S
C417 C421 1.376 . S
C418 C416 1.394 . S
C418 C419 1.369 . S
C418 C422 1.531 . S
C419 C418 1.369 . S
C419 C420 1.410 . S
C419 C427 1.503 . S
C420 C419 1.410 . S
C420 C421 1.392 . S
C420 C423 1.511 . S
C421 C417 1.376 . S
C421 C420 1.392 . S
C421 H433 0.929 . S
C422 C418 1.531 . S
C422 H434 0.960 . S
C422 H435 0.962 1_556 S
C422 H436 0.960 1_556 S
C423 C420 1.511 . S
C423 H437 0.961 . S
C423 H438 0.961 . S
C423 H439 0.961 . S
C424 C425 1.370 . S
C424 C426 1.363 . S
C424 H440 0.931 . S
C425 C424 1.370 . S
C425 C429 1.408 . S
C426 C424 1.363 . S
C426 C427 1.370 . S
C426 C430 1.524 . S
C427 C419 1.503 . S
C427 C426 1.370 . S
C427 C428 1.403 . S
C428 C427 1.403 . S
C428 C429 1.404 . S
C428 C431 1.539 . S
C429 C425 1.408 . S
C429 C428 1.404 . S
C429 H441 0.930 . S
C430 C426 1.524 . S
C430 H442 0.956 . S
C430 H443 0.961 . S
C430 H444 0.961 . S
C431 C428 1.539 . S
C431 H445 0.958 . S
C431 H446 0.961 . S
C431 H447 0.960 . S
H432 C416 0.931 . S
H433 C421 0.929 . S
H434 C422 0.960 . S
H435 C422 0.962 1_554 S
H436 C422 0.960 1_554 S
H437 C423 0.961 . S
H438 C423 0.961 . S
H439 C423 0.961 . S
H440 C424 0.931 . S
H441 C429 0.930 . S
H442 C430 0.956 . S
H443 C430 0.961 . S
H444 C430 0.961 . S
H445 C431 0.958 . S
H446 C431 0.961 . S
H447 C431 0.960 . S
C448 C449 1.391 . S
C448 C450 1.394 . S
C448 H464 0.931 . S
C449 C448 1.391 . S
C449 C453 1.376 . S
C450 C448 1.394 . S
C450 C451 1.369 . S
C450 C454 1.531 . S
C451 C450 1.369 . S
C451 C452 1.410 . S
C451 C459 1.503 . S
C452 C451 1.410 . S
C452 C453 1.392 . S
C452 C455 1.511 . S
C453 C449 1.376 . S
C453 C452 1.392 . S
C453 H465 0.929 . S
C454 C450 1.531 . S
C454 H466 0.960 . S
C454 H467 0.962 . S
C454 H468 0.960 . S
C455 C452 1.511 . S
C455 H469 0.961 . S
C455 H470 0.961 . S
C455 H471 0.961 . S
C456 C457 1.370 . S
C456 C458 1.363 . S
C456 H472 0.931 . S
C457 C456 1.370 . S
C457 C461 1.408 . S
C458 C456 1.363 . S
C458 C459 1.370 . S
C458 C462 1.524 . S
C459 C451 1.503 . S
C459 C458 1.370 . S
C459 C460 1.403 . S
C460 C459 1.403 . S
C460 C461 1.404 . S
C460 C463 1.539 . S
C461 C457 1.408 . S
C461 C460 1.404 . S
C461 H473 0.930 . S
C462 C458 1.524 . S
C462 H474 0.956 . S
C462 H475 0.961 . S
C462 H476 0.961 . S
C463 C460 1.539 . S
C463 H477 0.958 . S
C463 H478 0.961 . S
C463 H479 0.960 . S
H464 C448 0.931 . S
H465 C453 0.929 . S
H466 C454 0.960 . S
H467 C454 0.962 . S
H468 C454 0.960 . S
H469 C455 0.961 . S
H470 C455 0.961 . S
H471 C455 0.961 . S
H472 C456 0.931 . S
H473 C461 0.930 . S
H474 C462 0.956 . S
H475 C462 0.961 . S
H476 C462 0.961 . S
H477 C463 0.958 . S
H478 C463 0.961 . S
H479 C463 0.960 . S
C480 C481 1.391 . S
C480 C482 1.394 . S
C480 H496 0.931 . S
C481 C480 1.391 . S
C481 C485 1.376 . S
C482 C480 1.394 . S
C482 C483 1.369 . S
C482 C486 1.531 . S
C483 C482 1.369 . S
C483 C484 1.410 . S
C483 C491 1.503 . S
C484 C483 1.410 . S
C484 C485 1.392 . S
C484 C487 1.511 1_554 S
C485 C481 1.376 . S
C485 C484 1.392 . S
C485 H497 0.929 . S
C486 C482 1.531 . S
C486 H498 0.960 . S
C486 H499 0.962 . S
C486 H500 0.960 . S
C487 C484 1.511 1_556 S
C487 H501 0.961 . S
C487 H502 0.961 . S
C487 H503 0.961 . S
C488 C489 1.370 . S
C488 C490 1.363 . S
C488 H504 0.931 1_455 S
C489 C488 1.370 . S
C489 C493 1.408 . S
C490 C488 1.363 . S
C490 C491 1.370 . S
C490 C494 1.524 . S
C491 C483 1.503 . S
C491 C490 1.370 . S
C491 C492 1.403 . S
C492 C491 1.403 . S
C492 C493 1.404 . S
C492 C495 1.539 . S
C493 C489 1.408 . S
C493 C492 1.404 . S
C493 H505 0.930 . S
C494 C490 1.524 . S
C494 H506 0.956 . S
C494 H507 0.961 . S
C494 H508 0.961 1_455 S
C495 C492 1.539 . S
C495 H509 0.958 . S
C495 H510 0.961 . S
C495 H511 0.960 . S
H496 C480 0.931 . S
H497 C485 0.929 . S
H498 C486 0.960 . S
H499 C486 0.962 . S
H500 C486 0.960 . S
H501 C487 0.961 . S
H502 C487 0.961 . S
H503 C487 0.961 . S
H504 C488 0.931 1_655 S
H505 C493 0.930 . S
H506 C494 0.956 . S
H507 C494 0.961 . S
H508 C494 0.961 1_655 S
H509 C495 0.958 . S
H510 C495 0.961 . S
H511 C495 0.960 . S
C512 C513 1.391 . S
C512 C514 1.394 . S
C512 H528 0.931 . S
C513 C512 1.391 . S
C513 C517 1.376 . S
C514 C512 1.394 . S
C514 C515 1.369 . S
C514 C518 1.531 1_556 S
C515 C514 1.369 . S
C515 C516 1.410 . S
C515 C523 1.503 . S
C516 C515 1.410 . S
C516 C517 1.392 . S
C516 C519 1.511 . S
C517 C513 1.376 . S
C517 C516 1.392 . S
C517 H529 0.929 . S
C518 C514 1.531 1_554 S
C518 H530 0.960 . S
C518 H531 0.962 . S
C518 H532 0.960 . S
C519 C516 1.511 . S
C519 H533 0.961 . S
C519 H534 0.961 . S
C519 H535 0.961 . S
C520 C521 1.370 . S
C520 C522 1.363 . S
C520 H536 0.931 . S
C521 C520 1.370 . S
C521 C525 1.408 . S
C522 C520 1.363 . S
C522 C523 1.370 . S
C522 C526 1.524 . S
C523 C515 1.503 . S
C523 C522 1.370 . S
C523 C524 1.403 . S
C524 C523 1.403 . S
C524 C525 1.404 . S
C524 C527 1.539 . S
C525 C521 1.408 . S
C525 C524 1.404 . S
C525 H537 0.930 . S
C526 C522 1.524 . S
C526 H538 0.956 . S
C526 H539 0.961 . S
C526 H540 0.961 . S
C527 C524 1.539 . S
C527 H541 0.958 . S
C527 H542 0.961 . S
C527 H543 0.960 . S
H528 C512 0.931 . S
H529 C517 0.929 . S
H530 C518 0.960 . S
H531 C518 0.962 . S
H532 C518 0.960 . S
H533 C519 0.961 . S
H534 C519 0.961 . S
H535 C519 0.961 . S
H536 C520 0.931 . S
H537 C525 0.930 . S
H538 C526 0.956 . S
H539 C526 0.961 . S
H540 C526 0.961 . S
H541 C527 0.958 . S
H542 C527 0.961 . S
H543 C527 0.960 . S
C544 C545 1.391 . S
C544 C546 1.394 . S
C544 H560 0.931 . S
C545 C544 1.391 . S
C545 C549 1.376 . S
C546 C544 1.394 . S
C546 C547 1.369 . S
C546 C550 1.531 1_655 S
C547 C546 1.369 . S
C547 C548 1.410 . S
C547 C555 1.503 . S
C548 C547 1.410 . S
C548 C549 1.392 . S
C548 C551 1.511 . S
C549 C545 1.376 . S
C549 C548 1.392 . S
C549 H561 0.929 . S
C550 C546 1.531 1_455 S
C550 H562 0.960 . S
C550 H563 0.962 . S
C550 H564 0.960 . S
C551 C548 1.511 . S
C551 H565 0.961 . S
C551 H566 0.961 . S
C551 H567 0.961 . S
C552 C553 1.370 . S
C552 C554 1.363 1_455 S
C552 H568 0.931 . S
C553 C552 1.370 . S
C553 C557 1.408 1_455 S
C554 C552 1.363 1_655 S
C554 C555 1.370 . S
C554 C558 1.524 . S
C555 C547 1.503 . S
C555 C554 1.370 . S
C555 C556 1.403 . S
C556 C555 1.403 . S
C556 C557 1.404 . S
C556 C559 1.539 . S
C557 C553 1.408 1_655 S
C557 C556 1.404 . S
C557 H569 0.930 . S
C558 C554 1.524 . S
C558 H570 0.956 1_655 S
C558 H571 0.961 . S
C558 H572 0.961 . S
C559 C556 1.539 . S
C559 H573 0.958 . S
C559 H574 0.961 . S
C559 H575 0.960 . S
H560 C544 0.931 . S
H561 C549 0.929 . S
H562 C550 0.960 . S
H563 C550 0.962 . S
H564 C550 0.960 . S
H565 C551 0.961 . S
H566 C551 0.961 . S
H567 C551 0.961 . S
H568 C552 0.931 . S
H569 C557 0.930 . S
H570 C558 0.956 1_455 S
H571 C558 0.961 . S
H572 C558 0.961 . S
H573 C559 0.958 . S
H574 C559 0.961 . S
H575 C559 0.960 . S
C576 C577 1.391 . S
C576 C578 1.394 . S
C576 H592 0.931 . S
C577 C576 1.391 . S
C577 C581 1.376 . S
C578 C576 1.394 . S
C578 C579 1.369 . S
C578 C582 1.531 . S
C579 C578 1.369 . S
C579 C580 1.410 . S
C579 C587 1.503 . S
C580 C579 1.410 . S
C580 C581 1.392 . S
C580 C583 1.511 . S
C581 C577 1.376 . S
C581 C580 1.392 . S
C581 H593 0.929 . S
C582 C578 1.531 . S
C582 H594 0.960 . S
C582 H595 0.962 . S
C582 H596 0.960 . S
C583 C580 1.511 . S
C583 H597 0.961 . S
C583 H598 0.961 . S
C583 H599 0.961 . S
C584 C585 1.370 . S
C584 C586 1.363 . S
C584 H600 0.931 . S
C585 C584 1.370 . S
C585 C589 1.408 . S
C586 C584 1.363 . S
C586 C587 1.370 . S
C586 C590 1.524 . S
C587 C579 1.503 . S
C587 C586 1.370 . S
C587 C588 1.403 . S
C588 C587 1.403 . S
C588 C589 1.404 . S
C588 C591 1.539 . S
C589 C585 1.408 . S
C589 C588 1.404 . S
C589 H601 0.930 . S
C590 C586 1.524 . S
C590 H602 0.956 . S
C590 H603 0.961 . S
C590 H604 0.961 . S
C591 C588 1.539 . S
C591 H605 0.958 . S
C591 H606 0.961 . S
C591 H607 0.960 . S
H592 C576 0.931 . S
H593 C581 0.929 . S
H594 C582 0.960 . S
H595 C582 0.962 . S
H596 C582 0.960 . S
H597 C583 0.961 . S
H598 C583 0.961 . S
H599 C583 0.961 . S
H600 C584 0.931 . S
H601 C589 0.930 . S
H602 C590 0.956 . S
H603 C590 0.961 . S
H604 C590 0.961 . S
H605 C591 0.958 . S
H606 C591 0.961 . S
H607 C591 0.960 . S
C608 C609 1.391 . S
C608 C610 1.394 . S
C608 H624 0.931 . S
C609 C608 1.391 . S
C609 C613 1.376 . S
C610 C608 1.394 . S
C610 C611 1.369 . S
C610 C614 1.531 1_565 S
C611 C610 1.369 . S
C611 C612 1.410 . S
C611 C619 1.503 . S
C612 C611 1.410 . S
C612 C613 1.392 . S
C612 C615 1.511 1_655 S
C613 C609 1.376 . S
C613 C612 1.392 . S
C613 H625 0.929 . S
C614 C610 1.531 1_545 S
C614 H626 0.960 . S
C614 H627 0.962 . S
C614 H628 0.960 . S
C615 C612 1.511 1_455 S
C615 H629 0.958 1_455 S
C615 H630 0.961 . S
C615 H631 0.961 . S
C616 C617 1.370 1_655 S
C616 C618 1.363 . S
C616 H632 0.931 . S
C617 C616 1.370 1_455 S
C617 C621 1.408 . S
C618 C616 1.363 . S
C618 C619 1.370 . S
C618 C622 1.524 . S
C619 C611 1.503 . S
C619 C618 1.370 . S
C619 C620 1.403 1_655 S
C620 C619 1.403 1_455 S
C620 C621 1.404 . S
C620 C623 1.539 1_565 S
C621 C617 1.408 . S
C621 C620 1.404 . S
C621 H633 0.930 1_565 S
C622 C618 1.524 . S
C622 H634 0.956 . S
C622 H635 0.961 . S
C622 H636 0.961 . S
C623 C620 1.539 1_545 S
C623 H637 0.958 . S
C623 H638 0.961 . S
C623 H639 0.960 1_545 S
H624 C608 0.931 . S
H625 C613 0.929 . S
H626 C614 0.960 . S
H627 C614 0.962 . S
H628 C614 0.960 . S
H629 C615 0.958 1_655 S
H630 C615 0.961 . S
H631 C615 0.961 . S
H632 C616 0.931 . S
H633 C621 0.930 1_545 S
H634 C622 0.956 . S
H635 C622 0.961 . S
H636 C622 0.961 . S
H637 C623 0.958 . S
H638 C623 0.961 . S
H639 C623 0.960 1_565 S
C640 C641 1.391 . S
C640 C642 1.394 . S
C640 H656 0.931 . S
C641 C640 1.391 . S
C641 C645 1.376 . S
C642 C640 1.394 . S
C642 C643 1.369 . S
C642 C646 1.531 . S
C643 C642 1.369 . S
C643 C644 1.410 . S
C643 C651 1.503 . S
C644 C643 1.410 . S
C644 C645 1.392 . S
C644 C647 1.511 . S
C645 C641 1.376 . S
C645 C644 1.392 . S
C645 H657 0.929 . S
C646 C642 1.531 . S
C646 H658 0.960 . S
C646 H659 0.962 . S
C646 H660 0.960 . S
C647 C644 1.511 . S
C647 H661 0.961 . S
C647 H662 0.961 . S
C647 H663 0.961 . S
C648 C649 1.370 . S
C648 C650 1.363 . S
C648 H664 0.931 . S
C649 C648 1.370 . S
C649 C653 1.408 . S
C650 C648 1.363 . S
C650 C651 1.370 . S
C650 C654 1.524 . S
C651 C643 1.503 . S
C651 C650 1.370 . S
C651 C652 1.403 . S
C652 C651 1.403 . S
C652 C653 1.404 . S
C652 C655 1.539 . S
C653 C649 1.408 . S
C653 C652 1.404 . S
C653 H665 0.930 . S
C654 C650 1.524 . S
C654 H666 0.956 . S
C654 H667 0.961 . S
C654 H668 0.961 . S
C655 C652 1.539 . S
C655 H669 0.958 . S
C655 H670 0.961 . S
C655 H671 0.960 . S
H656 C640 0.931 . S
H657 C645 0.929 . S
H658 C646 0.960 . S
H659 C646 0.962 . S
H660 C646 0.960 . S
H661 C647 0.961 . S
H662 C647 0.961 . S
H663 C647 0.961 . S
H664 C648 0.931 . S
H665 C653 0.930 . S
H666 C654 0.956 . S
H667 C654 0.961 . S
H668 C654 0.961 . S
H669 C655 0.958 . S
H670 C655 0.961 . S
H671 C655 0.960 . S
C672 C673 1.391 . S
C672 C674 1.394 . S
C672 H688 0.931 . S
C673 C672 1.391 . S
C673 C677 1.376 . S
C674 C672 1.394 . S
C674 C675 1.369 . S
C674 C678 1.531 . S
C675 C674 1.369 . S
C675 C676 1.410 . S
C675 C683 1.503 . S
C676 C675 1.410 . S
C676 C677 1.392 . S
C676 C679 1.511 . S
C677 C673 1.376 . S
C677 C676 1.392 . S
C677 H689 0.929 . S
C678 C674 1.531 . S
C678 H690 0.960 . S
C678 H691 0.962 . S
C678 H692 0.960 . S
C679 C676 1.511 . S
C679 H693 0.961 . S
C679 H694 0.961 . S
C679 H695 0.961 . S
C680 C681 1.370 . S
C680 C682 1.363 . S
C680 H696 0.931 . S
C681 C680 1.370 . S
C681 C685 1.408 . S
C682 C680 1.363 . S
C682 C683 1.370 . S
C682 C686 1.524 . S
C683 C675 1.503 . S
C683 C682 1.370 . S
C683 C684 1.403 . S
C684 C683 1.403 . S
C684 C685 1.404 . S
C684 C687 1.539 . S
C685 C681 1.408 . S
C685 C684 1.404 . S
C685 H697 0.930 . S
C686 C682 1.524 . S
C686 H698 0.956 . S
C686 H699 0.961 . S
C686 H700 0.961 . S
C687 C684 1.539 . S
C687 H701 0.958 . S
C687 H702 0.961 . S
C687 H703 0.960 . S
H688 C672 0.931 . S
H689 C677 0.929 . S
H690 C678 0.960 . S
H691 C678 0.962 . S
H692 C678 0.960 . S
H693 C679 0.961 . S
H694 C679 0.961 . S
H695 C679 0.961 . S
H696 C680 0.931 . S
H697 C685 0.930 . S
H698 C686 0.956 . S
H699 C686 0.961 . S
H700 C686 0.961 . S
H701 C687 0.958 . S
H702 C687 0.961 . S
H703 C687 0.960 . S
C704 C705 1.391 . S
C704 C706 1.394 . S
C704 H720 0.931 . S
C705 C704 1.391 . S
C705 C709 1.376 . S
C706 C704 1.394 . S
C706 C707 1.369 . S
C706 C710 1.531 . S
C707 C706 1.369 . S
C707 C708 1.410 . S
C707 C715 1.503 . S
C708 C707 1.410 . S
C708 C709 1.392 . S
C708 C711 1.511 . S
C709 C705 1.376 . S
C709 C708 1.392 . S
C709 H721 0.929 . S
C710 C706 1.531 . S
C710 H722 0.960 . S
C710 H723 0.962 . S
C710 H724 0.960 . S
C711 C708 1.511 . S
C711 H725 0.961 1_455 S
C711 H726 0.961 . S
C711 H727 0.961 1_455 S
C712 C713 1.370 . S
C712 C714 1.363 . S
C712 H728 0.931 . S
C713 C712 1.370 . S
C713 C717 1.408 . S
C714 C712 1.363 . S
C714 C715 1.370 . S
C714 C718 1.524 . S
C715 C707 1.503 . S
C715 C714 1.370 . S
C715 C716 1.403 . S
C716 C715 1.403 . S
C716 C717 1.404 . S
C716 C719 1.539 . S
C717 C713 1.408 . S
C717 C716 1.404 . S
C717 H729 0.930 . S
C718 C714 1.524 . S
C718 H730 0.956 . S
C718 H731 0.961 . S
C718 H732 0.961 . S
C719 C716 1.539 . S
C719 H733 0.958 . S
C719 H734 0.979 . S
C719 H735 0.960 . S
H720 C704 0.931 . S
H721 C709 0.929 . S
H722 C710 0.960 . S
H723 C710 0.962 . S
H724 C710 0.960 . S
H725 C711 0.961 1_655 S
H726 C711 0.961 . S
H727 C711 0.961 1_655 S
H728 C712 0.931 . S
H729 C717 0.930 . S
H730 C718 0.956 . S
H731 C718 0.961 . S
H732 C718 0.961 . S
H733 C719 0.958 . S
H734 C719 0.979 . S
H735 C719 0.960 . S
C736 C737 1.391 . S
C736 C738 1.394 . S
C736 H752 0.929 1_565 S
C737 C736 1.391 . S
C737 C741 1.376 . S
C738 C736 1.394 . S
C738 C739 1.369 . S
C738 C742 1.531 1_565 S
C739 C738 1.369 . S
C739 C740 1.410 . S
C739 C747 1.503 . S
C740 C739 1.410 . S
C740 C741 1.392 . S
C740 C743 1.511 . S
C741 C737 1.376 . S
C741 C740 1.392 . S
C741 H753 0.929 . S
C742 C738 1.531 1_545 S
C742 H754 0.960 . S
C742 H755 0.962 . S
C742 H756 0.960 . S
C743 C740 1.511 . S
C743 H757 0.961 . S
C743 H758 0.961 . S
C743 H759 0.961 . S
C744 C745 1.370 1_554 S
C744 C746 1.363 1_554 S
C744 H760 0.931 . S
C745 C744 1.370 1_556 S
C745 C749 1.408 1_565 S
C746 C744 1.363 1_556 S
C746 C747 1.370 . S
C746 C750 1.524 1_556 S
C747 C739 1.503 . S
C747 C746 1.370 . S
C747 C748 1.403 . S
C748 C747 1.403 . S
C748 C749 1.404 1_565 S
C748 C751 1.539 1_565 S
C749 C745 1.408 1_545 S
C749 C748 1.404 1_545 S
C749 H761 0.930 . S
C750 C746 1.524 1_554 S
C750 H762 0.956 . S
C750 H763 0.961 . S
C750 H764 0.961 . S
C751 C748 1.539 1_545 S
C751 H765 0.958 . S
C751 H766 0.961 . S
C751 H767 0.960 1_545 S
H752 C736 0.929 1_545 S
H753 C741 0.929 . S
H754 C742 0.960 . S
H755 C742 0.962 . S
H756 C742 0.960 . S
H757 C743 0.961 . S
H758 C743 0.961 . S
H759 C743 0.961 . S
H760 C744 0.931 . S
H761 C749 0.930 . S
H762 C750 0.956 . S
H763 C750 0.961 . S
H764 C750 0.961 . S
H765 C751 0.958 . S
H766 C751 0.961 . S
H767 C751 0.960 1_565 S
C768 C769 1.391 . S
C768 C770 1.394 . S
C768 H784 0.931 . S
C769 C768 1.391 . S
C769 C773 1.376 . S
C770 C768 1.394 . S
C770 C771 1.369 . S
C770 C774 1.531 . S
C771 C770 1.369 . S
C771 C772 1.410 . S
C771 C779 1.503 . S
C772 C771 1.410 . S
C772 C773 1.392 . S
C772 C775 1.511 . S
C773 C769 1.376 . S
C773 C772 1.392 . S
C773 H785 0.929 . S
C774 C770 1.531 . S
C774 H786 0.960 . S
C774 H787 0.962 . S
C774 H788 0.960 . S
C775 C772 1.511 . S
C775 H789 0.961 . S
C775 H790 0.961 . S
C775 H791 0.961 . S
C776 C777 1.370 . S
C776 C778 1.363 . S
C776 H792 0.931 . S
C777 C776 1.370 . S
C777 C781 1.408 . S
C778 C776 1.363 . S
C778 C779 1.370 . S
C778 C782 1.524 . S
C779 C771 1.503 . S
C779 C778 1.370 . S
C779 C780 1.403 . S
C780 C779 1.403 . S
C780 C781 1.404 . S
C780 C783 1.539 . S
C781 C777 1.408 . S
C781 C780 1.404 . S
C781 H793 0.930 . S
C782 C778 1.524 . S
C782 H794 0.956 . S
C782 H795 0.961 . S
C782 H796 0.961 . S
C783 C780 1.539 . S
C783 H797 0.958 . S
C783 H798 0.961 . S
C783 H799 0.960 . S
H784 C768 0.931 . S
H785 C773 0.929 . S
H786 C774 0.960 . S
H787 C774 0.962 . S
H788 C774 0.960 . S
H789 C775 0.961 . S
H790 C775 0.961 . S
H791 C775 0.961 . S
H792 C776 0.931 . S
H793 C781 0.930 . S
H794 C782 0.956 . S
H795 C782 0.961 . S
H796 C782 0.961 . S
H797 C783 0.958 . S
H798 C783 0.961 . S
H799 C783 0.960 . S
C800 C801 1.391 . S
C800 C802 1.394 . S
C800 H816 0.931 . S
C801 C800 1.391 . S
C801 C805 1.376 . S
C802 C800 1.394 . S
C802 C803 1.369 . S
C802 C806 1.531 . S
C803 C802 1.369 . S
C803 C804 1.410 . S
C803 C811 1.503 . S
C804 C803 1.410 . S
C804 C805 1.392 . S
C804 C807 1.511 . S
C805 C801 1.376 . S
C805 C804 1.392 . S
C805 H817 0.929 . S
C806 C802 1.531 . S
C806 H818 0.960 . S
C806 H819 0.961 1_554 S
C806 H820 0.960 . S
C807 C804 1.511 . S
C807 H821 0.961 . S
C807 H822 0.961 . S
C807 H823 0.961 . S
C808 C809 1.370 . S
C808 C810 1.363 . S
C808 H824 0.931 . S
C809 C808 1.370 . S
C809 C813 1.408 . S
C810 C808 1.363 . S
C810 C811 1.370 . S
C810 C814 1.524 . S
C811 C803 1.503 . S
C811 C810 1.370 . S
C811 C812 1.403 . S
C812 C811 1.403 . S
C812 C813 1.404 . S
C812 C815 1.539 . S
C813 C809 1.408 . S
C813 C812 1.404 . S
C813 H825 0.930 . S
C814 C810 1.524 . S
C814 H826 0.956 . S
C814 H827 0.961 . S
C814 H828 0.961 . S
C815 C812 1.539 . S
C815 H829 0.958 . S
C815 H830 0.961 . S
C815 H831 0.960 . S
H816 C800 0.931 . S
H817 C805 0.929 . S
H818 C806 0.960 . S
H819 C806 0.961 1_556 S
H820 C806 0.960 . S
H821 C807 0.961 . S
H822 C807 0.961 . S
H823 C807 0.961 . S
H824 C808 0.931 . S
H825 C813 0.930 . S
H826 C814 0.956 . S
H827 C814 0.961 . S
H828 C814 0.961 . S
H829 C815 0.958 . S
H830 C815 0.961 . S
H831 C815 0.960 . S
C832 C833 1.391 . S
C832 C834 1.394 . S
C832 H848 0.931 . S
C833 C832 1.391 . S
C833 C837 1.376 . S
C834 C832 1.394 . S
C834 C835 1.369 . S
C834 C838 1.531 . S
C835 C834 1.369 . S
C835 C836 1.410 . S
C835 C843 1.503 . S
C836 C835 1.410 . S
C836 C837 1.392 . S
C836 C839 1.511 . S
C837 C833 1.376 . S
C837 C836 1.392 . S
C837 H849 0.929 . S
C838 C834 1.531 . S
C838 H850 0.960 . S
C838 H851 0.962 . S
C838 H852 0.960 . S
C839 C836 1.511 . S
C839 H853 0.961 . S
C839 H854 0.961 . S
C839 H855 0.961 . S
C840 C841 1.370 . S
C840 C842 1.363 . S
C840 H856 0.931 . S
C841 C840 1.370 . S
C841 C845 1.408 . S
C842 C840 1.363 . S
C842 C843 1.370 . S
C842 C846 1.524 . S
C843 C835 1.503 . S
C843 C842 1.370 . S
C843 C844 1.403 . S
C844 C843 1.403 . S
C844 C845 1.404 . S
C844 C847 1.539 . S
C845 C841 1.408 . S
C845 C844 1.404 . S
C845 H857 0.930 . S
C846 C842 1.524 . S
C846 H858 0.956 . S
C846 H859 0.961 . S
C846 H860 0.961 . S
C847 C844 1.539 . S
C847 H861 0.958 . S
C847 H862 0.961 . S
C847 H863 0.960 . S
H848 C832 0.931 . S
H849 C837 0.929 . S
H850 C838 0.960 . S
H851 C838 0.962 . S
H852 C838 0.960 . S
H853 C839 0.961 . S
H854 C839 0.961 . S
H855 C839 0.961 . S
H856 C840 0.931 . S
H857 C845 0.930 . S
H858 C846 0.956 . S
H859 C846 0.961 . S
H860 C846 0.961 . S
H861 C847 0.958 . S
H862 C847 0.961 . S
H863 C847 0.960 . S
C864 C865 1.391 . S
C864 C866 1.394 . S
C864 H880 0.931 . S
C865 C864 1.391 . S
C865 C869 1.376 . S
C866 C864 1.394 . S
C866 C867 1.369 . S
C866 C870 1.531 1_655 S
C867 C866 1.369 . S
C867 C868 1.410 . S
C867 C875 1.503 . S
C868 C867 1.410 . S
C868 C869 1.392 . S
C868 C871 1.511 . S
C869 C865 1.376 . S
C869 C868 1.392 . S
C869 H881 0.929 . S
C870 C866 1.531 1_455 S
C870 H882 0.960 . S
C870 H883 0.962 . S
C870 H884 0.960 . S
C871 C868 1.511 . S
C871 H885 0.961 . S
C871 H886 0.961 . S
C871 H887 0.961 . S
C872 C873 1.370 . S
C872 C874 1.363 . S
C872 H888 0.931 . S
C873 C872 1.370 . S
C873 C877 1.408 . S
C874 C872 1.363 . S
C874 C875 1.370 . S
C874 C878 1.524 . S
C875 C867 1.503 . S
C875 C874 1.370 . S
C875 C876 1.403 . S
C876 C875 1.403 . S
C876 C877 1.404 . S
C876 C879 1.539 1_556 S
C877 C873 1.408 . S
C877 C876 1.404 . S
C877 H889 0.930 1_556 S
C878 C874 1.524 . S
C878 H890 0.956 . S
C878 H891 0.961 . S
C878 H892 0.961 . S
C879 C876 1.539 1_554 S
C879 H893 0.958 . S
C879 H894 0.961 . S
C879 H895 0.960 . S
H880 C864 0.931 . S
H881 C869 0.929 . S
H882 C870 0.960 . S
H883 C870 0.962 . S
H884 C870 0.960 . S
H885 C871 0.961 . S
H886 C871 0.961 . S
H887 C871 0.961 . S
H888 C872 0.931 . S
H889 C877 0.930 1_554 S
H890 C878 0.956 . S
H891 C878 0.961 . S
H892 C878 0.961 . S
H893 C879 0.958 . S
H894 C879 0.961 . S
H895 C879 0.960 . S
C896 C897 1.391 . S
C896 C898 1.394 . S
C896 H912 0.931 . S
C897 C896 1.391 . S
C897 C901 1.376 . S
C898 C896 1.394 . S
C898 C899 1.369 . S
C898 C902 1.531 . S
C899 C898 1.369 . S
C899 C900 1.410 . S
C899 C907 1.503 . S
C900 C899 1.410 . S
C900 C901 1.392 . S
C900 C903 1.511 . S
C901 C897 1.376 . S
C901 C900 1.392 . S
C901 H913 0.929 . S
C902 C898 1.531 . S
C902 H914 0.960 . S
C902 H915 0.962 . S
C902 H916 0.960 . S
C903 C900 1.511 . S
C903 H917 0.961 . S
C903 H918 0.961 . S
C903 H919 0.961 . S
C904 C905 1.370 . S
C904 C906 1.363 . S
C904 H920 0.931 . S
C905 C904 1.370 . S
C905 C909 1.408 . S
C906 C904 1.363 . S
C906 C907 1.370 . S
C906 C910 1.524 . S
C907 C899 1.503 . S
C907 C906 1.370 . S
C907 C908 1.403 . S
C908 C907 1.403 . S
C908 C909 1.404 . S
C908 C911 1.539 . S
C909 C905 1.408 . S
C909 C908 1.404 . S
C909 H921 0.930 . S
C910 C906 1.524 . S
C910 H922 0.956 . S
C910 H923 0.961 . S
C910 H924 0.961 . S
C911 C908 1.539 . S
C911 H925 0.958 . S
C911 H926 0.961 . S
C911 H927 0.960 . S
H912 C896 0.931 . S
H913 C901 0.929 . S
H914 C902 0.960 . S
H915 C902 0.962 . S
H916 C902 0.960 . S
H917 C903 0.961 . S
H918 C903 0.961 . S
H919 C903 0.961 . S
H920 C904 0.931 . S
H921 C909 0.930 . S
H922 C910 0.956 . S
H923 C910 0.961 . S
H924 C910 0.961 . S
H925 C911 0.958 . S
H926 C911 0.961 . S
H927 C911 0.960 . S
C928 C929 1.391 . S
C928 C930 1.394 . S
C928 H944 0.931 . S
C929 C928 1.391 . S
C929 C933 1.376 . S
C930 C928 1.394 . S
C930 C931 1.369 . S
C930 C934 1.531 . S
C931 C930 1.369 . S
C931 C932 1.410 . S
C931 C939 1.503 . S
C932 C931 1.410 . S
C932 C933 1.392 . S
C932 C935 1.511 . S
C933 C929 1.376 . S
C933 C932 1.392 . S
C933 H945 0.929 . S
C934 C930 1.531 . S
C934 H946 0.960 . S
C934 H947 0.962 . S
C934 H948 0.960 . S
C935 C932 1.511 . S
C935 H949 0.961 1_455 S
C935 H950 0.961 . S
C935 H951 0.961 . S
C936 C937 1.370 . S
C936 C938 1.363 . S
C936 H952 0.931 . S
C937 C936 1.370 . S
C937 C941 1.408 . S
C938 C936 1.363 . S
C938 C939 1.370 . S
C938 C942 1.524 . S
C939 C931 1.503 . S
C939 C938 1.370 . S
C939 C940 1.403 . S
C940 C939 1.403 . S
C940 C941 1.404 . S
C940 C943 1.539 . S
C941 C937 1.408 . S
C941 C940 1.404 . S
C941 H953 0.930 . S
C942 C938 1.524 . S
C942 H954 0.956 . S
C942 H955 0.961 . S
C942 H956 0.961 . S
C943 C940 1.539 . S
C943 H957 0.958 . S
C943 H958 0.961 . S
C943 H959 0.960 . S
H944 C928 0.931 . S
H945 C933 0.929 . S
H946 C934 0.960 . S
H947 C934 0.962 . S
H948 C934 0.960 . S
H949 C935 0.961 1_655 S
H950 C935 0.961 . S
H951 C935 0.961 . S
H952 C936 0.931 . S
H953 C941 0.930 . S
H954 C942 0.956 . S
H955 C942 0.961 . S
H956 C942 0.961 . S
H957 C943 0.958 . S
H958 C943 0.961 . S
H959 C943 0.960 . S
C960 C961 1.391 . S
C960 C962 1.394 . S
C960 H976 0.931 . S
C961 C960 1.391 . S
C961 C965 1.376 . S
C962 C960 1.394 . S
C962 C963 1.369 . S
C962 C966 1.531 . S
C963 C962 1.369 . S
C963 C964 1.410 . S
C963 C971 1.503 . S
C964 C963 1.410 . S
C964 C965 1.392 . S
C964 C967 1.511 . S
C965 C961 1.376 . S
C965 C964 1.392 . S
C965 H977 0.929 . S
C966 C962 1.531 . S
C966 H978 0.960 . S
C966 H979 0.962 . S
C966 H980 0.960 . S
C967 C964 1.511 . S
C967 H981 0.961 . S
C967 H982 0.961 . S
C967 H983 0.961 . S
C968 C969 1.370 . S
C968 C970 1.363 . S
C968 H984 0.931 . S
C969 C968 1.370 . S
C969 C973 1.408 . S
C970 C968 1.363 . S
C970 C971 1.370 . S
C970 C974 1.524 . S
C971 C963 1.503 . S
C971 C970 1.370 . S
C971 C972 1.403 . S
C972 C971 1.403 . S
C972 C973 1.404 . S
C972 C975 1.539 . S
C973 C969 1.408 . S
C973 C972 1.404 . S
C973 H985 0.930 . S
C974 C970 1.524 . S
C974 H986 0.956 . S
C974 H987 0.961 . S
C974 H988 0.961 . S
C975 C972 1.539 . S
C975 H989 0.958 . S
C975 H990 0.961 . S
C975 H991 0.960 . S
H976 C960 0.931 . S
H977 C965 0.929 . S
H978 C966 0.960 . S
H979 C966 0.962 . S
H980 C966 0.960 . S
H981 C967 0.961 . S
H982 C967 0.961 . S
H983 C967 0.961 . S
H984 C968 0.931 . S
H985 C973 0.930 . S
H986 C974 0.956 . S
H987 C974 0.961 . S
H988 C974 0.961 . S
H989 C975 0.958 . S
H990 C975 0.961 . S
H991 C975 0.960 . S
C225 N1 2.050 . S
C233 C120 2.105 . S
C257 N18 1.401 . S
C265 N140 1.362 . S
C297 C174 1.505 . S
C289 N28 1.503 . S
C321 N40 1.396 . S
C329 N208 1.342 . S
C361 C161 2.629 . S
C353 N5 2.566 . S
C393 N118 1.161 . S
C385 N14 1.211 . S
C425 C195 1.935 . S
C417 N31 1.895 . S
C457 N170 0.686 . S
C449 N41 0.682 . S
C481 N2 1.688 . S
C489 C210 1.716 . S
C521 C144 1.739 . S
C513 N27 1.697 . S
C545 N44 1.504 . S
C553 C105 1.559 . S
C577 N15 1.196 . S
C585 C191 1.219 . S
C617 C131 2.428 . S
C609 N57 2.416 . S
C641 N70 0.993 . S
C649 N148 0.958 . S
C673 N79 1.762 . S
C681 C165 1.823 . S
C705 N93 1.124 . S
C713 N200 1.057 . S
C737 N54 2.229 . S
C745 C150 2.236 1_556 S
C777 N110 1.513 . S
C769 N66 1.563 . S
C809 C204 1.446 . S
C801 N80 1.437 . S
C841 N178 0.990 . S
C833 N96 1.009 . S
C865 N53 1.729 . S
C873 C221 1.772 . S
C905 C135 1.631 . S
C897 N83 1.603 . S
C937 C114 1.561 . S
C929 N92 1.509 . S
C961 N67 1.193 . S
C969 C180 1.235 . S
