# Generated by pormake.
# Topology ptr, (4,4)-cn, num edge types: 1
# Building blocks:
#     Node 0, Type 0, BuildingBlock: KUFVIS_clean_sbu_0, # of connection points: 4
#     Node 1, Type 0, BuildingBlock: KUFVIS_clean_sbu_0, # of connection points: 4
#     Node 2, Type 0, BuildingBlock: KUFVIS_clean_sbu_0, # of connection points: 4
#     Node 3, Type 0, BuildingBlock: KUFVIS_clean_sbu_0, # of connection points: 4
#     Node 4, Type 0, BuildingBlock: KUFVIS_clean_sbu_0, # of connection points: 4
#     Node 5, Type 0, BuildingBlock: KUFVIS_clean_sbu_0, # of connection points: 4
#     Node 6, Type 0, BuildingBlock: KUFVIS_clean_sbu_0, # of connection points: 4
#     Node 7, Type 0, BuildingBlock: KUFVIS_clean_sbu_0, # of connection points: 4
#     Node 8, Type 0, BuildingBlock: KUFVIS_clean_sbu_0, # of connection points: 4
#     Node 9, Type 0, BuildingBlock: KUFVIS_clean_sbu_0, # of connection points: 4
#     Node 10, Type 0, BuildingBlock: KUFVIS_clean_sbu_0, # of connection points: 4
#     Node 11, Type 0, BuildingBlock: KUFVIS_clean_sbu_0, # of connection points: 4
#     Node 12, Type 0, BuildingBlock: KUFVIS_clean_sbu_0, # of connection points: 4
#     Node 13, Type 0, BuildingBlock: KUFVIS_clean_sbu_0, # of connection points: 4
#     Node 14, Type 0, BuildingBlock: KUFVIS_clean_sbu_0, # of connection points: 4
#     Node 15, Type 0, BuildingBlock: KUFVIS_clean_sbu_0, # of connection points: 4
#     Node 16, Type 0, BuildingBlock: KUFVIS_clean_sbu_0, # of connection points: 4
#     Node 17, Type 0, BuildingBlock: KUFVIS_clean_sbu_0, # of connection points: 4
#     Node 18, Type 1, BuildingBlock: KUFVIS_clean_linker_0, # of connection points: 4
#     Node 19, Type 1, BuildingBlock: KUFVIS_clean_linker_0, # of connection points: 4
#     Node 20, Type 1, BuildingBlock: KUFVIS_clean_linker_0, # of connection points: 4
#     Node 21, Type 1, BuildingBlock: KUFVIS_clean_linker_0, # of connection points: 4
#     Node 22, Type 1, BuildingBlock: KUFVIS_clean_linker_0, # of connection points: 4
#     Node 23, Type 1, BuildingBlock: KUFVIS_clean_linker_0, # of connection points: 4
#     Node 24, Type 1, BuildingBlock: KUFVIS_clean_linker_0, # of connection points: 4
#     Node 25, Type 1, BuildingBlock: KUFVIS_clean_linker_0, # of connection points: 4
#     Node 26, Type 1, BuildingBlock: KUFVIS_clean_linker_0, # of connection points: 4
#     Node 27, Type 1, BuildingBlock: KUFVIS_clean_linker_0, # of connection points: 4
#     Node 28, Type 1, BuildingBlock: KUFVIS_clean_linker_0, # of connection points: 4
#     Node 29, Type 1, BuildingBlock: KUFVIS_clean_linker_0, # of connection points: 4
#     Node 30, Type 1, BuildingBlock: KUFVIS_clean_linker_0, # of connection points: 4
#     Node 31, Type 1, BuildingBlock: KUFVIS_clean_linker_0, # of connection points: 4
#     Node 32, Type 1, BuildingBlock: KUFVIS_clean_linker_0, # of connection points: 4
#     Node 33, Type 1, BuildingBlock: KUFVIS_clean_linker_0, # of connection points: 4
#     Node 34, Type 1, BuildingBlock: KUFVIS_clean_linker_0, # of connection points: 4
#     Node 35, Type 1, BuildingBlock: KUFVIS_clean_linker_0, # of connection points: 4
#     Edge 36, Type (0, 1), BuildingBlock: AJUNOK_clean_linker_0, # of connection points: 2
#     Edge 37, Type (0, 1), BuildingBlock: AJUNOK_clean_linker_0, # of connection points: 2
#     Edge 38, Type (0, 1), BuildingBlock: AJUNOK_clean_linker_0, # of connection points: 2
#     Edge 39, Type (0, 1), BuildingBlock: AJUNOK_clean_linker_0, # of connection points: 2
#     Edge 40, Type (0, 1), BuildingBlock: AJUNOK_clean_linker_0, # of connection points: 2
#     Edge 41, Type (0, 1), BuildingBlock: AJUNOK_clean_linker_0, # of connection points: 2
#     Edge 42, Type (0, 1), BuildingBlock: AJUNOK_clean_linker_0, # of connection points: 2
#     Edge 43, Type (0, 1), BuildingBlock: AJUNOK_clean_linker_0, # of connection points: 2
#     Edge 44, Type (0, 1), BuildingBlock: AJUNOK_clean_linker_0, # of connection points: 2
#     Edge 45, Type (0, 1), BuildingBlock: AJUNOK_clean_linker_0, # of connection points: 2
#     Edge 46, Type (0, 1), BuildingBlock: AJUNOK_clean_linker_0, # of connection points: 2
#     Edge 47, Type (0, 1), BuildingBlock: AJUNOK_clean_linker_0, # of connection points: 2
#     Edge 48, Type (0, 1), BuildingBlock: AJUNOK_clean_linker_0, # of connection points: 2
#     Edge 49, Type (0, 1), BuildingBlock: AJUNOK_clean_linker_0, # of connection points: 2
#     Edge 50, Type (0, 1), BuildingBlock: AJUNOK_clean_linker_0, # of connection points: 2
#     Edge 51, Type (0, 1), BuildingBlock: AJUNOK_clean_linker_0, # of connection points: 2
#     Edge 52, Type (0, 1), BuildingBlock: AJUNOK_clean_linker_0, # of connection points: 2
#     Edge 53, Type (0, 1), BuildingBlock: AJUNOK_clean_linker_0, # of connection points: 2
#     Edge 54, Type (0, 1), BuildingBlock: AJUNOK_clean_linker_0, # of connection points: 2
#     Edge 55, Type (0, 1), BuildingBlock: AJUNOK_clean_linker_0, # of connection points: 2
#     Edge 56, Type (0, 1), BuildingBlock: AJUNOK_clean_linker_0, # of connection points: 2
#     Edge 57, Type (0, 1), BuildingBlock: AJUNOK_clean_linker_0, # of connection points: 2
#     Edge 58, Type (0, 1), BuildingBlock: AJUNOK_clean_linker_0, # of connection points: 2
#     Edge 59, Type (0, 1), BuildingBlock: AJUNOK_clean_linker_0, # of connection points: 2
#     Edge 60, Type (0, 1), BuildingBlock: AJUNOK_clean_linker_0, # of connection points: 2
#     Edge 61, Type (0, 1), BuildingBlock: AJUNOK_clean_linker_0, # of connection points: 2
#     Edge 62, Type (0, 1), BuildingBlock: AJUNOK_clean_linker_0, # of connection points: 2
#     Edge 63, Type (0, 1), BuildingBlock: AJUNOK_clean_linker_0, # of connection points: 2
#     Edge 64, Type (0, 1), BuildingBlock: AJUNOK_clean_linker_0, # of connection points: 2
#     Edge 65, Type (0, 1), BuildingBlock: AJUNOK_clean_linker_0, # of connection points: 2
#     Edge 66, Type (0, 1), BuildingBlock: AJUNOK_clean_linker_0, # of connection points: 2
#     Edge 67, Type (0, 1), BuildingBlock: AJUNOK_clean_linker_0, # of connection points: 2
#     Edge 68, Type (0, 1), BuildingBlock: AJUNOK_clean_linker_0, # of connection points: 2
#     Edge 69, Type (0, 1), BuildingBlock: AJUNOK_clean_linker_0, # of connection points: 2
#     Edge 70, Type (0, 1), BuildingBlock: AJUNOK_clean_linker_0, # of connection points: 2
#     Edge 71, Type (0, 1), BuildingBlock: AJUNOK_clean_linker_0, # of connection points: 2
#     Edge 72, Type (0, 1), BuildingBlock: AJUNOK_clean_linker_0, # of connection points: 2
#     Edge 73, Type (0, 1), BuildingBlock: AJUNOK_clean_linker_0, # of connection points: 2
#     Edge 74, Type (0, 1), BuildingBlock: AJUNOK_clean_linker_0, # of connection points: 2
#     Edge 75, Type (0, 1), BuildingBlock: AJUNOK_clean_linker_0, # of connection points: 2
#     Edge 76, Type (0, 1), BuildingBlock: AJUNOK_clean_linker_0, # of connection points: 2
#     Edge 77, Type (0, 1), BuildingBlock: AJUNOK_clean_linker_0, # of connection points: 2
#     Edge 78, Type (0, 1), BuildingBlock: AJUNOK_clean_linker_0, # of connection points: 2
#     Edge 79, Type (0, 1), BuildingBlock: AJUNOK_clean_linker_0, # of connection points: 2
#     Edge 80, Type (0, 1), BuildingBlock: AJUNOK_clean_linker_0, # of connection points: 2
#     Edge 81, Type (0, 1), BuildingBlock: AJUNOK_clean_linker_0, # of connection points: 2
#     Edge 82, Type (0, 1), BuildingBlock: AJUNOK_clean_linker_0, # of connection points: 2
#     Edge 83, Type (0, 1), BuildingBlock: AJUNOK_clean_linker_0, # of connection points: 2
#     Edge 84, Type (0, 1), BuildingBlock: AJUNOK_clean_linker_0, # of connection points: 2
#     Edge 85, Type (0, 1), BuildingBlock: AJUNOK_clean_linker_0, # of connection points: 2
#     Edge 86, Type (0, 1), BuildingBlock: AJUNOK_clean_linker_0, # of connection points: 2
#     Edge 87, Type (0, 1), BuildingBlock: AJUNOK_clean_linker_0, # of connection points: 2
#     Edge 88, Type (0, 1), BuildingBlock: AJUNOK_clean_linker_0, # of connection points: 2
#     Edge 89, Type (0, 1), BuildingBlock: AJUNOK_clean_linker_0, # of connection points: 2
#     Edge 90, Type (0, 1), BuildingBlock: AJUNOK_clean_linker_0, # of connection points: 2
#     Edge 91, Type (0, 1), BuildingBlock: AJUNOK_clean_linker_0, # of connection points: 2
#     Edge 92, Type (0, 1), BuildingBlock: AJUNOK_clean_linker_0, # of connection points: 2
#     Edge 93, Type (0, 1), BuildingBlock: AJUNOK_clean_linker_0, # of connection points: 2
#     Edge 94, Type (0, 1), BuildingBlock: AJUNOK_clean_linker_0, # of connection points: 2
#     Edge 95, Type (0, 1), BuildingBlock: AJUNOK_clean_linker_0, # of connection points: 2
#     Edge 96, Type (0, 1), BuildingBlock: AJUNOK_clean_linker_0, # of connection points: 2
#     Edge 97, Type (0, 1), BuildingBlock: AJUNOK_clean_linker_0, # of connection points: 2
#     Edge 98, Type (0, 1), BuildingBlock: AJUNOK_clean_linker_0, # of connection points: 2
#     Edge 99, Type (0, 1), BuildingBlock: AJUNOK_clean_linker_0, # of connection points: 2
#     Edge 100, Type (0, 1), BuildingBlock: AJUNOK_clean_linker_0, # of connection points: 2
#     Edge 101, Type (0, 1), BuildingBlock: AJUNOK_clean_linker_0, # of connection points: 2
#     Edge 102, Type (0, 1), BuildingBlock: AJUNOK_clean_linker_0, # of connection points: 2
#     Edge 103, Type (0, 1), BuildingBlock: AJUNOK_clean_linker_0, # of connection points: 2
#     Edge 104, Type (0, 1), BuildingBlock: AJUNOK_clean_linker_0, # of connection points: 2
#     Edge 105, Type (0, 1), BuildingBlock: AJUNOK_clean_linker_0, # of connection points: 2
#     Edge 106, Type (0, 1), BuildingBlock: AJUNOK_clean_linker_0, # of connection points: 2
#     Edge 107, Type (0, 1), BuildingBlock: AJUNOK_clean_linker_0, # of connection points: 2
# Relax obj value: 0.050
# Max RMSD: 0.135
# Mean RMSD: 0.089
data_MOF--net-ptr--node1-KUFVIS_clean_sbu_0--node2-KUFVIS_clean_linker_0--edge1-AJUNOK_clean_linker_0
_symmetry_space_group_name_H-M    P1
_symmetry_Int_Tables_number       1
_symmetry_cell_setting            triclinic
loop_
_symmetry_equiv_pos_as_xyz
'x, y, z'
_cell_length_a     56.521655
_cell_length_b     56.27876
_cell_length_c     37.213076
_cell_angle_alpha  89.7375
_cell_angle_beta   90.581108
_cell_angle_gamma 119.45645
loop_
_atom_site_label
_atom_site_type_symbol
_atom_site_fract_x
_atom_site_fract_y
_atom_site_fract_z
_atom_type_partial_charge
Mn0 Mn 1.01286 0.37505 0.00356 0.0
Mn1 Mn 0.06839 0.43573 0.98527 0.0
C2 C 1.01076 0.40427 0.96115 0.0
C3 C 0.9851 0.32847 -0.00768 0.0
C4 C 1.03414 0.42528 0.05209 0.0
O5 O 0.04421 0.37043 0.02432 0.0
O6 O 0.07974 0.41049 0.00707 0.0
C7 C 0.09249 0.41782 0.92842 0.0
N8 N 0.08284 0.43445 0.93952 0.0
C9 C 0.09289 0.45748 0.88239 0.0
C10 C 0.10319 0.44078 0.87049 0.0
C11 C 0.1029 0.42081 0.89358 0.0
C12 C 0.08287 0.45364 0.91746 0.0
H13 H 0.09211 0.40231 0.94597 0.0
C14 C 0.06984 0.38672 0.02127 0.0
O15 O 0.98402 0.33911 0.0227 0.0
O16 O 1.003 0.34449 0.96934 0.0
N17 N 0.06037 0.46197 0.96354 0.0
C18 C 0.04789 0.47506 0.97814 0.0
C19 C 0.04559 0.49503 0.95801 0.0
C20 C 0.05625 0.50144 0.92316 0.0
C21 C 0.06917 0.48784 0.90878 0.0
C22 C 0.07108 0.4683 0.93023 0.0
H23 H 0.03959 0.47021 0.00486 0.0
O24 O 0.98873 0.38571 0.97612 0.0
O25 O 1.03315 0.40503 0.9713 0.0
O26 O 1.01647 0.40069 0.04472 0.0
O27 O 0.05468 0.43962 0.03228 0.0
C28 C 0.07974 0.49252 0.87373 0.0
C29 C 0.09151 0.47729 0.8605 0.0
H30 H 0.11106 0.44287 0.84355 0.0
H31 H 0.11061 0.40769 0.88448 0.0
H32 H 0.03553 0.50538 0.96926 0.0
H33 H 0.0542 0.51666 0.90761 0.0
H34 H 0.07845 0.50742 0.85649 0.0
H35 H 0.09903 0.48066 0.83324 0.0
Mn36 Mn 0.67726 0.65304 0.0185 0.0
Mn37 Mn 0.676 0.59297 0.03442 0.0
C38 C 0.64553 0.6212 0.0574 0.0
C39 C 0.69202 0.69946 0.02913 0.0
C40 C 0.65308 0.60418 0.96676 0.0
O41 O 0.71435 0.66022 0.00075 0.0
O42 O 0.71197 0.62002 0.01452 0.0
C43 C 0.71676 0.6112 0.09335 0.0
N44 N 0.69126 0.59389 0.08078 0.0
C45 C 0.67874 0.56937 0.13679 0.0
C46 C 0.70494 0.58681 0.15025 0.0
C47 C 0.724 0.60785 0.12846 0.0
C48 C 0.67274 0.57359 0.10153 0.0
H49 H 0.73142 0.62746 0.07672 0.0
C50 C 0.72471 0.64446 0.00224 0.0
O51 O 0.68216 0.68815 -0.0017 0.0
O52 O 0.69452 0.68415 0.05347 0.0
N53 N 0.64262 0.56482 0.05383 0.0
C54 C 0.6177 0.55096 0.03768 0.0
C55 C 0.59603 0.52988 0.0564 0.0
C56 C 0.60025 0.52307 0.09133 0.0
C57 C 0.62615 0.53734 0.10718 0.0
C58 C 0.64702 0.55804 0.08715 0.0
H59 H 0.6143 0.55615 0.01089 0.0
O60 O 0.64138 0.63973 0.04247 0.0
O61 O 0.66838 0.62207 0.04973 0.0
O62 O 0.65857 0.62819 0.97566 0.0
O63 O 0.65915 0.58931 0.98644 0.0
C64 C 0.63191 0.53233 0.14244 0.0
C65 C 0.65817 0.54836 0.15725 0.0
H66 H 0.71055 0.58442 0.17739 0.0
H67 H 0.7442 0.6215 0.13873 0.0
H68 H 0.57607 0.51903 0.04402 0.0
H69 H 0.58339 0.50704 0.10584 0.0
H70 H 0.61616 0.51655 0.15864 0.0
H71 H 0.66222 0.54463 0.18461 0.0
Mn72 Mn 0.3956 0.03309 0.01835 0.0
Mn73 Mn 0.4553 0.09101 0.03439 0.0
C74 C 0.42633 0.03311 0.05996 0.0
C75 C 0.34928 1.00305 0.02865 0.0
C76 C 0.44566 0.05484 0.96968 0.0
O77 O 0.38888 0.06283 -0.00295 0.0
O78 O 0.42897 0.09989 0.0104 0.0
C79 C 0.43633 0.11678 0.08756 0.0
N80 N 0.45331 0.10709 0.07857 0.0
C81 C 0.47722 0.1218 0.13508 0.0
C82 C 0.46007 0.13207 0.14487 0.0
C83 C 0.43945 0.12943 0.12107 0.0
C84 C 0.47306 0.10931 0.10139 0.0
H85 H 0.42057 0.11496 0.06926 0.0
C86 C 0.40484 0.08869 -0.00275 0.0
O87 O 0.36063 1.003 -0.00143 0.0
O88 O 0.36452 1.02136 0.05215 0.0
N89 N 0.48282 0.08595 0.0578 0.0
C90 C 0.49765 0.07494 0.04434 0.0
C91 C 0.51854 0.07514 0.06533 0.0
C92 C 0.52429 0.08706 0.09966 0.0
C93 C 0.50926 0.09892 0.11254 0.0
C94 C 0.48868 0.09811 0.09042 0.0
H95 H 0.49341 0.06583 0.01794 0.0
O96 O 0.408 1.01049 0.04547 0.0
O97 O 0.42592 0.05521 0.05042 0.0
O98 O 0.42117 0.03737 0.97719 0.0
O99 O 0.46 0.07593 0.9889 0.0
C100 C 0.51384 0.11145 0.14652 0.0
C101 C 0.49787 0.12292 0.15775 0.0
H102 H 0.46237 0.14177 0.17072 0.0
H103 H 0.42606 0.13719 0.12849 0.0
H104 H 0.53015 0.06609 0.0551 0.0
H105 H 0.5403 0.08702 0.11585 0.0
H106 H 0.52952 0.11226 0.16429 0.0
H107 H 0.50146 0.13232 0.18405 0.0
Mn108 Mn 0.04344 0.66778 0.97989 0.0
Mn109 Mn 0.10211 0.66577 0.97085 0.0
C110 C 0.04521 0.63597 0.94218 0.0
C111 C 1.01315 0.68363 0.9652 0.0
C112 C 0.06532 0.64262 0.0351 0.0
O113 O 0.07214 0.70465 0.00018 0.0
O114 O 0.10996 0.70184 0.99039 0.0
C115 C 0.12713 0.70707 0.91337 0.0
N116 N 0.11833 0.68129 0.92576 0.0
C117 C 0.13246 0.66875 0.87163 0.0
C118 C 0.14183 0.69523 0.85838 0.0
C119 C 0.1391 0.71445 0.87932 0.0
C120 C 0.12086 0.66263 0.90584 0.0
H121 H 0.12499 0.72186 0.92935 0.0
C122 C 0.098 0.7148 0.0012 0.0
O123 O 1.01282 0.67308 -0.00368 0.0
O124 O 1.03173 0.6859 0.94289 0.0
N125 N 0.09779 0.63222 0.95208 0.0
C126 C 0.0863 0.60713 0.96789 0.0
C127 C 0.08646 0.58533 0.94989 0.0
C128 C 0.0987 0.5896 0.91606 0.0
C129 C 0.11081 0.61569 0.90062 0.0
C130 C 0.11017 0.63669 0.91992 0.0
H131 H 0.07679 0.60369 -0.00616 0.0
O132 O 1.02214 0.63206 0.95443 0.0
O133 O 0.06659 0.65869 0.95161 0.0
O134 O 0.04741 0.64837 0.02382 0.0
O135 O 0.08692 0.64866 0.01775 0.0
C136 C 0.12288 0.62155 0.86643 0.0
C137 C 0.13366 0.64805 0.85193 0.0
H138 H 0.15092 0.70096 0.83203 0.0
H139 H 0.14617 0.73488 0.8692 0.0
H140 H 0.07703 0.56524 0.96195 0.0
H141 H 0.09848 0.57265 0.90206 0.0
H142 H 0.12357 0.60571 0.85081 0.0
H143 H 0.1425 0.65218 0.82538 0.0
Mn144 Mn 0.38386 0.39749 -0.00164 0.0
Mn145 Mn 0.44307 0.39847 0.01751 0.0
C146 C 0.41364 0.42713 0.04151 0.0
C147 C 0.33771 0.38198 0.00797 0.0
C148 C 0.43408 0.42417 0.95053 0.0
O149 O 0.37762 0.36092 0.97767 0.0
O150 O 0.41686 0.36288 -0.00468 0.0
C151 C 0.42407 0.35585 0.07386 0.0
N152 N 0.44128 0.38187 0.06307 0.0
C153 C 0.4651 0.39273 0.11985 0.0
C154 C 0.4479 0.3659 0.13133 0.0
C155 C 0.4272 0.34744 0.10832 0.0
C156 C 0.46111 0.39989 0.08513 0.0
H157 H 0.40806 0.34164 0.05632 0.0
C158 C 0.39311 0.35029 0.98089 0.0
O159 O 0.34911 0.39334 0.97788 0.0
O160 O 0.35263 0.37832 0.03164 0.0
N161 N 0.47013 0.43162 0.0396 0.0
C162 C 0.4837 0.45724 0.02543 0.0
C163 C 0.50418 0.47851 0.04579 0.0
C164 C 0.51064 0.47322 0.08037 0.0
C165 C 0.49655 0.44666 0.09428 0.0
C166 C 0.47642 0.42625 0.07269 0.0
H167 H 0.47882 0.46147 -0.0011 0.0
O168 O 0.39599 0.43226 0.02601 0.0
O169 O 0.41333 0.40494 0.0314 0.0
O170 O 0.40991 0.41862 0.95764 0.0
O171 O 0.44777 0.41679 0.9706 0.0
C172 C 0.50132 0.43975 0.12901 0.0
C173 C 0.48565 0.4128 0.14174 0.0
H174 H 0.4502 0.35932 0.15789 0.0
H175 H 0.41369 0.32678 0.11713 0.0
H176 H 0.51491 0.49897 0.0349 0.0
H177 H 0.52628 0.48973 0.0961 0.0
H178 H 0.51671 0.45511 0.14634 0.0
H179 H 0.48932 0.40782 0.16861 0.0
Mn180 Mn 0.67714 1.01756 0.98365 0.0
Mn181 Mn 0.61738 0.96083 0.96334 0.0
C182 C 0.64732 1.01986 0.94269 0.0
C183 C 0.7236 0.04802 0.97542 0.0
C184 C 0.62592 0.99446 0.03015 0.0
O185 O 0.68304 0.98665 0.00259 0.0
O186 O 0.64288 0.95059 0.98683 0.0
C187 C 0.6384 0.93862 0.90787 0.0
N188 N 0.62059 0.94703 0.9179 0.0
C189 C 0.59912 0.93643 0.85953 0.0
C190 C 0.61711 0.92747 0.84866 0.0
C191 C 0.63688 0.92864 0.87291 0.0
C192 C 0.60158 0.94613 0.89473 0.0
H193 H 0.65367 0.93956 0.92639 0.0
C194 C 0.66671 0.9609 0.00078 0.0
O195 O 0.71177 0.04656 0.00566 0.0
O196 O 0.70888 0.03064 0.95068 0.0
N197 N 0.59042 0.96697 0.94027 0.0
C198 C 0.57537 0.97749 0.95445 0.0
C199 C 0.55505 0.97835 0.93338 0.0
C200 C 0.55012 0.96803 0.89818 0.0
C201 C 0.56546 0.95678 0.88442 0.0
C202 C 0.58534 0.95633 0.90675 0.0
H203 H 0.57901 0.98541 0.98152 0.0
O204 O 0.66568 0.0417 0.95866 0.0
O205 O 0.64732 0.99722 0.95019 0.0
O206 O 0.65074 1.0117 0.02418 0.0
O207 O 0.61165 0.974 0.00985 0.0
C208 C 0.56228 0.94663 0.84912 0.0
C209 C 0.57916 0.93656 0.83665 0.0
H210 H 0.61608 0.91986 0.82167 0.0
H211 H 0.65092 0.9219 0.86465 0.0
H212 H 0.54331 0.98707 0.9442 0.0
H213 H 0.53465 0.96903 0.88186 0.0
H214 H 0.54721 0.94691 0.83115 0.0
H215 H 0.5768 0.9292 0.80928 0.0
Mn216 Mn 0.67946 0.70471 0.33509 0.0
Mn217 Mn 0.73681 0.76295 0.31352 0.0
C218 C 0.67841 0.73379 0.29161 0.0
C219 C 0.64951 0.65813 0.32628 0.0
C220 C 0.70403 0.75681 0.38058 0.0
O221 O 0.70972 0.69849 0.35605 0.0
O222 O 0.74638 0.73697 0.33722 0.0
C223 C 0.75812 0.74075 0.25841 0.0
N224 N 0.75009 0.75898 0.26818 0.0
C225 C 0.76108 0.78024 0.20988 0.0
C226 C 0.7696 0.76179 0.19928 0.0
C227 C 0.76805 0.74192 0.22363 0.0
C228 C 0.75145 0.77815 0.24493 0.0
H229 H 0.7569 0.72541 0.27702 0.0
C230 C 0.73548 0.71359 0.35272 0.0
O231 O 0.64967 0.67007 0.35611 0.0
O232 O 0.66738 0.67284 0.30246 0.0
N233 N 0.73081 0.78993 0.28993 0.0
C234 C 0.71977 0.80478 0.30332 0.0
C235 C 0.71906 0.82508 0.28198 0.0
C236 C 0.72973 0.82996 0.24711 0.0
C237 C 0.74101 0.81446 0.2339 0.0
C238 C 0.74144 0.79471 0.25657 0.0
H239 H 0.71124 0.80094 0.32991 0.0
O240 O 0.65625 0.7164 0.30751 0.0
O241 O 0.70037 0.73335 0.30115 0.0
O242 O 0.6854 0.73225 0.37493 0.0
O243 O 0.7244 0.76954 0.35991 0.0
C244 C 0.75121 0.81735 0.1988 0.0
C245 C 0.76116 0.8002 0.18677 0.0
H246 H 0.77712 0.76251 0.17241 0.0
H247 H 0.77445 0.72752 0.21557 0.0
H248 H 0.71013 0.83681 0.29227 0.0
H249 H 0.72884 0.8454 0.23059 0.0
H250 H 0.75097 0.83231 0.1806 0.0
H251 H 0.76844 0.80226 0.15949 0.0
Mn252 Mn 0.34625 0.98752 0.34905 0.0
Mn253 Mn 0.34369 0.92664 0.36303 0.0
C254 C 0.31419 0.95544 0.38727 0.0
C255 C 0.36107 0.03377 0.3604 0.0
C256 C 0.32118 0.93936 0.29627 0.0
O257 O 0.38328 0.99448 0.33145 0.0
O258 O 0.37976 0.95348 0.34315 0.0
C259 C 0.38471 0.94363 0.42154 0.0
N260 N 0.35907 0.92678 0.40906 0.0
C261 C 0.3464 0.90188 0.46479 0.0
C262 C 0.37274 0.91884 0.47814 0.0
C263 C 0.39195 0.93984 0.45644 0.0
C264 C 0.34041 0.90651 0.42971 0.0
H265 H 0.39949 0.95988 0.40501 0.0
C266 C 0.39306 0.97821 0.33197 0.0
O267 O 0.35147 1.0228 0.32935 0.0
O268 O 0.36346 1.01827 0.38455 0.0
N269 N 0.31018 0.8987 0.38244 0.0
C270 C 0.28515 0.8854 0.3665 0.0
C271 C 0.26334 0.86445 0.38519 0.0
C272 C 0.26753 0.85721 0.41988 0.0
C273 C 0.29354 0.87091 0.43551 0.0
C274 C 0.31455 0.89149 0.4155 0.0
H275 H 0.28177 0.89092 0.33989 0.0
O276 O 0.31031 0.97428 0.37276 0.0
O277 O 0.33689 0.95606 0.37948 0.0
O278 O 0.32763 0.96345 0.30583 0.0
O279 O 0.32661 0.9237 0.3153 0.0
C280 C 0.29929 0.86549 0.47057 0.0
C281 C 0.32568 0.88099 0.48522 0.0
H282 H 0.37835 0.91612 0.50514 0.0
H283 H 0.41227 0.95312 0.46664 0.0
H284 H 0.2433 0.85403 0.37298 0.0
H285 H 0.25057 0.8413 0.43438 0.0
H286 H 0.28343 0.8498 0.48675 0.0
H287 H 0.32971 0.87697 0.51244 0.0
Mn288 Mn 0.06166 0.36373 0.35051 0.0
Mn289 Mn 0.11947 0.42128 0.37334 0.0
C290 C 0.09285 0.36142 0.38909 0.0
C291 C 1.01558 0.33287 0.35988 0.0
C292 C 0.11294 0.39093 0.30365 0.0
O293 O 0.05385 0.39383 0.33377 0.0
O294 O 0.09297 0.43042 0.35062 0.0
C295 C 0.09333 0.43636 0.43069 0.0
N296 N 0.11307 0.43073 0.42018 0.0
C297 C 0.12928 0.43414 0.48106 0.0
C298 C 0.10924 0.44015 0.49247 0.0
C299 C 0.09117 0.44123 0.46718 0.0
C300 C 0.13023 0.42917 0.4444 0.0
H301 H 0.07919 0.43691 0.41145 0.0
C302 C 0.06926 0.41962 0.33639 0.0
O303 O 1.02676 0.33448 0.32899 0.0
O304 O 1.03087 0.34965 0.3847 0.0
N305 N 0.14772 0.41701 0.39591 0.0
C306 C 0.16792 0.41449 0.37976 0.0
C307 C 0.1891 0.4153 0.4008 0.0
C308 C 0.18958 0.41923 0.43811 0.0
C309 C 0.16926 0.42303 0.4539 0.0
C310 C 0.14905 0.42265 0.43141 0.0
H311 H 0.16784 0.4118 0.35106 0.0
O312 O 0.07452 0.33973 0.37289 0.0
O313 O 0.09154 0.3836 0.3836 0.0
O314 O 0.08834 0.37253 0.30933 0.0
O315 O 0.12679 0.4107 0.32546 0.0
C316 C 0.16858 0.42775 0.49093 0.0
C317 C 0.14839 0.43298 0.50457 0.0
H318 H 0.10756 0.444 0.52057 0.0
H319 H 0.07556 0.44572 0.4758 0.0
H320 H 0.20495 0.41282 0.38829 0.0
H321 H 0.20576 0.41954 0.45431 0.0
H322 H 0.1836 0.42759 0.5091 0.0
H323 H 0.14805 0.43657 0.53309 0.0
Mn324 Mn 0.71186 1.00217 0.30912 0.0
Mn325 Mn 0.77111 1.00116 0.30091 0.0
C326 C 0.71429 0.97064 0.27162 0.0
C327 C 0.68104 1.01738 0.29454 0.0
C328 C 0.73369 0.97695 0.36429 0.0
O329 O 0.74 0.03903 0.32989 0.0
O330 O 0.77826 0.03685 0.32114 0.0
C331 C 0.796 0.04318 0.24426 0.0
N332 N 0.78765 1.01739 0.25624 0.0
C333 C 0.80288 1.00597 0.20219 0.0
C334 C 0.81183 0.03249 0.18937 0.0
C335 C 0.80832 0.05115 0.21046 0.0
C336 C 0.79089 0.99925 0.23615 0.0
H337 H 0.79325 0.05755 0.26035 0.0
C338 C 0.76583 0.04944 0.3317 0.0
O339 O 0.68095 1.00689 0.32561 0.0
O340 O 0.69979 1.0201 0.27223 0.0
N341 N 0.76772 0.96811 0.28165 0.0
C342 C 0.75657 0.94289 0.29703 0.0
C343 C 0.75753 0.92158 0.27881 0.0
C344 C 0.77024 0.92649 0.24524 0.0
C345 C 0.78202 0.95273 0.23028 0.0
C346 C 0.78057 0.97321 0.24977 0.0
H347 H 0.74673 0.93897 0.32279 0.0
O348 O 0.69107 0.96651 0.28351 0.0
O349 O 0.73551 0.99354 0.28105 0.0
O350 O 0.71588 0.98276 0.35288 0.0
O351 O 0.75553 0.9833 0.34733 0.0
C352 C 0.79451 0.95921 0.19636 0.0
C353 C 0.80489 0.98578 0.1823 0.0
H354 H 0.8212 0.03866 0.16323 0.0
H355 H 0.81504 0.0716 0.20066 0.0
H356 H 0.74835 0.90137 0.29051 0.0
H357 H 0.77063 0.90992 0.23108 0.0
H358 H 0.79583 0.94377 0.1806 0.0
H359 H 0.81406 0.99039 0.15595 0.0
Mn360 Mn 0.0533 0.73229 0.33492 0.0
Mn361 Mn 0.11181 0.73258 0.35647 0.0
C362 C 0.0824 0.76178 0.37863 0.0
C363 C 1.00693 0.71654 0.34331 0.0
C364 C 0.10447 0.75872 0.28869 0.0
O365 O 0.04713 0.69574 0.31472 0.0
O366 O 0.08584 0.69713 0.33361 0.0
C367 C 0.09264 0.6891 0.41166 0.0
N368 N 0.10908 0.71561 0.40205 0.0
C369 C 0.132 0.72595 0.45948 0.0
C370 C 0.11541 0.69872 0.4699 0.0
C371 C 0.09557 0.68026 0.44594 0.0
C372 C 0.12821 0.73356 0.42493 0.0
H373 H 0.07753 0.67476 0.39324 0.0
C374 C 0.06231 0.68484 0.31848 0.0
O375 O 1.01873 0.72809 0.31347 0.0
O376 O 1.02164 0.71308 0.36749 0.0
N377 N 0.13849 0.76554 0.37937 0.0
C378 C 0.15283 0.79113 0.3653 0.0
C379 C 0.17315 0.81215 0.38614 0.0
C380 C 0.17861 0.80665 0.42117 0.0
C381 C 0.16368 0.78016 0.43504 0.0
C382 C 0.14375 0.76001 0.41296 0.0
H383 H 0.14865 0.79555 0.33849 0.0
O384 O 0.0651 0.76704 0.36235 0.0
O385 O 0.0821 0.73949 0.36898 0.0
O386 O 0.08015 0.75336 0.29469 0.0
O387 O 0.11751 0.7511 0.30959 0.0
C388 C 0.1677 0.773 0.46999 0.0
C389 C 0.1519 0.74591 0.48218 0.0
H390 H 0.11752 0.69185 0.49637 0.0
H391 H 0.08261 0.65925 0.45385 0.0
H392 H 0.18454 0.83257 0.37527 0.0
H393 H 0.19422 0.82294 0.4372 0.0
H394 H 0.18282 0.78819 0.48776 0.0
H395 H 0.1551 0.74067 0.50916 0.0
Mn396 Mn 0.33735 0.34453 0.31389 0.0
Mn397 Mn 0.27851 0.28706 0.29279 0.0
C398 C 0.30681 0.3465 0.2739 0.0
C399 C 0.38365 0.37566 0.30548 0.0
C400 C 0.28651 0.31872 0.36141 0.0
O401 O 0.34435 0.31409 0.33146 0.0
O402 O 0.30483 0.27738 0.3151 0.0
C403 C 0.30014 0.2668 0.23564 0.0
N404 N 0.28192 0.27441 0.24661 0.0
C405 C 0.2601 0.26433 0.18849 0.0
C406 C 0.2785 0.2562 0.17663 0.0
C407 C 0.29865 0.25751 0.20028 0.0
C408 C 0.2625 0.2733 0.22406 0.0
H409 H 0.3157 0.26787 0.25371 0.0
C410 C 0.32867 0.28826 0.32915 0.0
O411 O 0.3719 0.37383 0.33591 0.0
O412 O 0.36887 0.35865 0.28046 0.0
N413 N 0.2509 0.29274 0.27092 0.0
C414 C 0.2357 0.30276 0.28595 0.0
C415 C 0.21517 0.3037 0.26547 0.0
C416 C 0.21021 0.29396 0.22996 0.0
C417 C 0.22575 0.28324 0.21531 0.0
C418 C 0.24585 0.28272 0.23707 0.0
H419 H 0.2394 0.31027 0.31324 0.0
O420 O 0.32486 0.3683 0.2903 0.0
O421 O 0.30756 0.32411 0.28043 0.0
O422 O 0.31095 0.33703 0.35513 0.0
O423 O 0.27259 0.29881 0.34017 0.0
C424 C 0.2226 0.27377 0.17965 0.0
C425 C 0.2398 0.26439 0.16622 0.0
H426 H 0.27752 0.24915 0.14932 0.0
H427 H 0.31302 0.25141 0.19126 0.0
H428 H 0.20329 0.31203 0.27696 0.0
H429 H 0.19458 0.29503 0.2141 0.0
H430 H 0.20733 0.27407 0.16213 0.0
H431 H 0.23746 0.25757 0.13859 0.0
Mn432 Mn 0.34961 0.0403 0.66918 0.0
Mn433 Mn 0.40603 0.1008 0.65262 0.0
C434 C 0.34905 0.06973 0.62577 0.0
C435 C 0.32151 0.99368 0.65813 0.0
C436 C 0.36975 0.09078 0.7171 0.0
O437 O 0.38015 0.03518 0.69179 0.0
O438 O 0.41627 0.07536 0.67634 0.0
C439 C 0.43349 0.08366 0.59961 0.0
N440 N 0.42228 0.09943 0.60838 0.0
C441 C 0.43576 0.12331 0.55193 0.0
C442 C 0.44776 0.10756 0.54253 0.0
C443 C 0.44648 0.08756 0.5664 0.0
C444 C 0.42323 0.11862 0.58549 0.0
H445 H 0.43259 0.06827 0.61783 0.0
C446 C 0.40587 0.05142 0.69011 0.0
O447 O 0.32001 1.00468 0.68797 0.0
O448 O 0.34001 1.00939 0.63555 0.0
N449 N 0.39904 0.12711 0.62901 0.0
C450 C 0.38658 0.1407 0.64213 0.0
C451 C 0.38546 0.16091 0.62106 0.0
C452 C 0.39732 0.16712 0.58689 0.0
C453 C 0.4103 0.1531 0.57412 0.0
C454 C 0.41086 0.13321 0.59635 0.0
H455 H 0.37745 0.13609 0.66837 0.0
O456 O 0.32656 0.05137 0.64 0.0
O457 O 0.37108 0.07022 0.63713 0.0
O458 O 0.35241 0.0661 0.7097 0.0
O459 O 0.3908 0.10502 0.69811 0.0
C460 C 0.42262 0.15802 0.54015 0.0
C461 C 0.43538 0.14317 0.52909 0.0
H462 H 0.45767 0.11039 0.51685 0.0
H463 H 0.45549 0.07517 0.55921 0.0
H464 H 0.37545 0.17168 0.63114 0.0
H465 H 0.39633 0.18265 0.57068 0.0
H466 H 0.42232 0.17312 0.52228 0.0
H467 H 0.44469 0.14706 0.50285 0.0
Mn468 Mn 1.01498 0.32417 0.6821 0.0
Mn469 Mn 1.01656 0.26532 0.69591 0.0
C470 C 0.9846 0.29134 0.72139 0.0
C471 C 1.02817 0.37004 0.69413 0.0
C472 C 0.99133 0.27563 0.62977 0.0
O473 O 0.05242 0.33327 0.66327 0.0
O474 O 0.05169 0.29359 0.67516 0.0
C475 C 0.05933 0.28335 0.75221 0.0
N476 N 1.03334 0.26627 0.74113 0.0
C477 C 1.02348 0.24009 0.7957 0.0
C478 C 0.05021 0.25731 0.8076 0.0
C479 C 0.06815 0.27911 0.78583 0.0
C480 C 1.01586 0.2453 0.76192 0.0
H481 H 0.07327 0.3 0.73545 0.0
C482 C 0.06368 0.3183 0.66372 0.0
O483 O 1.01818 0.35896 0.66322 0.0
O484 O 1.03165 0.35485 0.71766 0.0
N485 N 0.98414 0.23636 0.71627 0.0
C486 C 0.95888 0.22197 0.7012 0.0
C487 C 0.93813 0.2003 0.72034 0.0
C488 C 0.94364 0.19339 0.75453 0.0
C489 C 0.96991 0.20814 0.76918 0.0
C490 C 0.98976 0.22958 0.74889 0.0
H491 H 0.95451 0.2272 0.67495 0.0
O492 O 0.97926 0.30925 0.70701 0.0
O493 O 1.00779 0.29328 0.71283 0.0
O494 O 0.99635 0.29947 0.63887 0.0
O495 O 0.99837 0.26128 0.64894 0.0
C496 C 0.97713 0.20256 0.80326 0.0
C497 C 1.00392 0.21844 0.81644 0.0
H498 H 0.05705 0.2542 0.83359 0.0
H499 H 0.08876 0.29257 0.79491 0.0
H500 H 0.91792 0.18898 0.70882 0.0
H501 H 0.92754 0.17676 0.76929 0.0
H502 H 0.96219 0.18618 0.81962 0.0
H503 H 1.00917 0.21407 0.84278 0.0
Mn504 Mn 0.72992 0.69886 0.68559 0.0
Mn505 Mn 0.78969 0.75683 0.70065 0.0
C506 C 0.76086 0.6992 0.72707 0.0
C507 C 0.68372 0.66907 0.69667 0.0
C508 C 0.77934 0.72048 0.63588 0.0
O509 O 0.7231 0.72846 0.66415 0.0
O510 O 0.76316 0.76567 0.67719 0.0
C511 C 0.7716 0.78317 0.75416 0.0
N512 N 0.78826 0.77314 0.74491 0.0
C513 C 0.81265 0.7878 0.80111 0.0
C514 C 0.79584 0.79841 0.81115 0.0
C515 C 0.77515 0.79597 0.78764 0.0
C516 C 0.80812 0.77522 0.76743 0.0
H517 H 0.75579 0.7815 0.73608 0.0
C518 C 0.73896 0.75432 0.66422 0.0
O519 O 0.69475 0.66867 0.66647 0.0
O520 O 0.69922 0.68753 0.71984 0.0
N521 N 0.81726 0.75159 0.72356 0.0
C522 C 0.83166 0.74017 0.7099 0.0
C523 C 0.85251 0.74007 0.73063 0.0
C524 C 0.85863 0.75207 0.76492 0.0
C525 C 0.844 0.76429 0.77803 0.0
C526 C 0.82344 0.76377 0.75617 0.0
H527 H 0.82709 0.73095 0.68356 0.0
O528 O 0.74252 0.67647 0.71283 0.0
O529 O 0.76041 0.72119 0.71717 0.0
O530 O 0.75506 0.70286 0.64402 0.0
O531 O 0.79385 0.74163 0.65493 0.0
C532 C 0.84893 0.77685 0.81203 0.0
C533 C 0.83331 0.78866 0.82352 0.0
H534 H 0.79845 0.80822 0.837 0.0
H535 H 0.76202 0.804 0.79527 0.0
H536 H 0.8638 0.73072 0.72024 0.0
H537 H 0.87462 0.7518 0.78092 0.0
H538 H 0.8646 0.77745 0.8296 0.0
H539 H 0.83717 0.79811 0.8498 0.0
Mn540 Mn 0.38041 0.3354 0.641 0.0
Mn541 Mn 0.44056 0.3363 0.63197 0.0
C542 C 0.38391 0.30508 0.60226 0.0
C543 C 0.34863 0.34957 0.62708 0.0
C544 C 0.40339 0.31063 0.69527 0.0
O545 O 0.40786 0.37238 0.66222 0.0
O546 O 0.44674 0.37138 0.65323 0.0
C547 C 0.46642 0.37983 0.57735 0.0
N548 N 0.45752 0.35362 0.58796 0.0
C549 C 0.47539 0.3442 0.53479 0.0
C550 C 0.48488 0.37115 0.52338 0.0
C551 C 0.48025 0.38899 0.54468 0.0
C552 C 0.46172 0.33622 0.56758 0.0
H553 H 0.4631 0.39367 0.59377 0.0
C554 C 0.43377 0.38335 0.66403 0.0
O555 O 0.34879 0.33882 0.65785 0.0
O556 O 0.36758 0.35305 0.60465 0.0
N557 N 0.43789 0.30389 0.61157 0.0
C558 C 0.42696 0.27839 0.62607 0.0
C559 C 0.4287 0.25773 0.60726 0.0
C560 C 0.44201 0.26358 0.57406 0.0
C561 C 0.45363 0.29011 0.56008 0.0
C562 C 0.45121 0.30985 0.57998 0.0
H563 H 0.41668 0.27376 0.65156 0.0
O564 O 0.3605 0.29998 0.61465 0.0
O565 O 0.40475 0.32814 0.61219 0.0
O566 O 0.38506 0.31594 0.68448 0.0
O567 O 0.42514 0.31759 0.67788 0.0
C568 C 0.46737 0.2977 0.52704 0.0
C569 C 0.47832 0.32475 0.51447 0.0
H570 H 0.49546 0.37827 0.49813 0.0
H571 H 0.4874 0.40978 0.53597 0.0
H572 H 0.41973 0.23732 0.61828 0.0
H573 H 0.44318 0.24755 0.55955 0.0
H574 H 0.4695 0.28287 0.511 0.0
H575 H 0.48866 0.33028 0.48889 0.0
Mn576 Mn 0.71959 0.06216 0.66774 0.0
Mn577 Mn 0.77878 0.0629 0.68651 0.0
C578 C 0.74963 0.09185 0.71065 0.0
C579 C 0.67339 0.04669 0.67726 0.0
C580 C 0.7698 0.08887 0.61983 0.0
O581 O 0.71309 0.02553 0.64712 0.0
O582 O 0.75249 0.02755 0.66392 0.0
C583 C 0.76044 1.01936 0.74159 0.0
N584 N 0.77692 0.04581 0.73174 0.0
C585 C 0.80109 0.05594 0.78824 0.0
C586 C 0.78461 0.02871 0.79876 0.0
C587 C 0.7641 1.0104 0.77541 0.0
C588 C 0.79658 0.06366 0.75413 0.0
H589 H 0.74466 1.0052 0.72376 0.0
C590 C 0.72862 1.01494 0.64989 0.0
O591 O 0.68488 0.05809 0.64723 0.0
O592 O 0.68829 0.04308 0.70103 0.0
N593 N 0.8059 0.09578 0.70903 0.0
C594 C 0.82018 0.12132 0.69481 0.0
C595 C 0.84093 0.14227 0.71524 0.0
C596 C 0.847 0.13671 0.7499 0.0
C597 C 0.83229 0.1102 0.76379 0.0
C598 C 0.81186 0.09014 0.74217 0.0
H599 H 0.8157 0.12573 0.66814 0.0
O600 O 0.73193 0.09698 0.69529 0.0
O601 O 0.74916 0.06954 0.70066 0.0
O602 O 0.74558 0.08315 0.62693 0.0
O603 O 0.78359 0.08162 0.63989 0.0
C604 C 0.83705 0.10293 0.7983 0.0
C605 C 0.8215 0.07581 0.81048 0.0
H606 H 0.78727 1.02175 0.82489 0.0
H607 H 0.75114 0.98942 0.78346 0.0
H608 H 0.85225 0.16267 0.70428 0.0
H609 H 0.86296 0.15295 0.76561 0.0
H610 H 0.85256 0.11806 0.81572 0.0
H611 H 0.82526 0.07049 0.83712 0.0
Mn612 Mn 1.00706 0.68456 0.65133 0.0
Mn613 Mn 0.94796 0.62668 0.63255 0.0
C614 C 0.97655 0.68539 0.61018 0.0
C615 C 0.05332 0.71559 0.6429 0.0
C616 C 0.95642 0.66075 0.69898 0.0
O617 O 1.01399 0.65451 0.67076 0.0
O618 O 0.97435 0.61742 0.65569 0.0
C619 C 0.96897 0.60456 0.57695 0.0
N620 N 0.95095 0.61264 0.58719 0.0
C621 C 0.92883 0.60117 0.52925 0.0
C622 C 0.94702 0.59252 0.51819 0.0
C623 C 0.96722 0.59429 0.54211 0.0
C624 C 0.9315 0.61113 0.56433 0.0
H625 H 0.98459 0.60598 0.59521 0.0
C626 C 0.99841 0.62864 0.66916 0.0
O627 O 0.04137 0.71417 0.67301 0.0
O628 O 0.03878 0.698 0.61824 0.0
N629 N 0.92036 0.632 0.60986 0.0
C630 C 0.9053 0.64249 0.62408 0.0
C631 C 0.88468 0.64294 0.60322 0.0
C632 C 0.87949 0.63228 0.56818 0.0
C633 C 0.8949 0.62112 0.55438 0.0
C634 C 0.91509 0.62109 0.57649 0.0
H635 H 0.90916 0.65071 0.65099 0.0
O636 O 0.99457 0.70767 0.62573 0.0
O637 O 0.97721 0.6632 0.61839 0.0
O638 O 0.98087 0.67852 0.6921 0.0
O639 O 0.94235 0.63992 0.67916 0.0
C640 C 0.89148 0.61068 0.51922 0.0
C641 C 0.90848 0.60078 0.50664 0.0
H642 H 0.94582 0.58471 0.49128 0.0
H643 H 0.98143 0.58781 0.53369 0.0
H644 H 0.8729 0.65162 0.61406 0.0
H645 H 0.8638 0.63298 0.55202 0.0
H646 H 0.87615 0.61059 0.50143 0.0
H647 H 0.90594 0.5932 0.47936 0.0
H648 H 0.28079 0.36667 0.11996 0.0
H649 H 0.21801 0.37561 0.06748 0.0
H650 H 0.21186 0.35428 0.18049 0.0
H651 H 0.19412 0.3805 0.18649 0.0
H652 H 0.12181 0.37602 0.14405 0.0
H653 H 0.17369 0.36276 0.07326 0.0
C654 C 0.2612 0.36576 0.12142 0.0
C655 C 0.24797 0.36067 0.15426 0.0
C656 C 0.24968 0.36924 0.08991 0.0
C657 C 0.22573 0.37112 0.09177 0.0
C658 C 0.21223 0.36727 0.12517 0.0
C659 C 0.22299 0.36034 0.1556 0.0
C660 C 0.1873 0.3705 0.12927 0.0
C661 C 0.18086 0.37672 0.16354 0.0
C662 C 0.15689 0.37773 0.16898 0.0
C663 C 0.13987 0.37427 0.13982 0.0
C664 C 0.14594 0.36937 0.1053 0.0
C665 C 0.1696 0.36729 0.09995 0.0
H666 H 0.70303 0.93021 0.12061 0.0
H667 H 0.68838 0.85784 0.06512 0.0
H668 H 0.71401 0.86983 0.17697 0.0
H669 H 0.68598 0.82576 0.18014 0.0
H670 H 0.67505 0.75387 0.12683 0.0
H671 H 0.70758 0.82887 0.0682 0.0
C672 C 0.70356 0.9112 0.12069 0.0
C673 C 0.70909 0.90178 0.1527 0.0
C674 C 0.69728 0.89619 0.08892 0.0
C675 C 0.69496 0.87008 0.08934 0.0
C676 C 0.70029 0.85965 0.12138 0.0
C677 C 0.70838 0.87641 0.15258 0.0
C678 C 0.69544 0.83076 0.12317 0.0
C679 C 0.68715 0.81594 0.15593 0.0
C680 C 0.68085 0.78847 0.15782 0.0
C681 C 0.68124 0.77544 0.12625 0.0
C682 C 0.69246 0.79002 0.09483 0.0
C683 C 0.6991 0.81766 0.09279 0.0
H684 H 0.29676 0.93572 0.13271 0.0
H685 H 0.22477 0.88762 0.06907 0.0
H686 H 0.23231 0.86338 0.17765 0.0
H687 H 0.18899 0.85225 0.17852 0.0
H688 H 0.12579 0.78178 0.12692 0.0
H689 H 0.19511 0.83831 0.06559 0.0
C690 C 0.27687 0.91776 0.12957 0.0
C691 C 0.2655 0.90043 0.15877 0.0
C692 C 0.26251 0.91348 0.09727 0.0
C693 C 0.23627 0.89046 0.09365 0.0
C694 C 0.22465 0.872 0.12286 0.0
C695 C 0.2402 0.87701 0.15485 0.0
C696 C 0.19601 0.84844 0.12199 0.0
C697 C 0.18105 0.84025 0.15426 0.0
C698 C 0.15625 0.81592 0.15637 0.0
C699 C 0.14469 0.80096 0.1251 0.0
C700 C 0.15813 0.80909 0.09207 0.0
C701 C 0.18407 0.83273 0.09063 0.0
H702 H 0.36474 0.11617 0.87536 0.0
H703 H 0.38067 0.18918 0.93144 0.0
H704 H 0.35672 0.17786 0.81899 0.0
H705 H 0.38629 0.22088 0.81611 0.0
H706 H 0.38295 0.28926 0.85843 0.0
H707 H 0.36535 0.22123 0.92782 0.0
C708 C 0.36461 0.13539 0.87574 0.0
C709 C 0.36026 0.14561 0.84375 0.0
C710 C 0.37115 0.15049 0.90763 0.0
C711 C 0.37406 0.17695 0.90723 0.0
C712 C 0.36935 0.18769 0.87506 0.0
C713 C 0.3614 0.17102 0.84391 0.0
C714 C 0.37429 0.21657 0.87225 0.0
C715 C 0.38217 0.23019 0.83878 0.0
C716 C 0.38434 0.25578 0.83358 0.0
C717 C 0.38034 0.26899 0.86246 0.0
C718 C 0.37404 0.25709 0.89659 0.0
C719 C 0.37088 0.23069 0.90159 0.0
H720 H 0.773 0.12014 0.87787 0.0
H721 H 0.85004 0.1603 0.93132 0.0
H722 H 0.84323 0.17471 0.81817 0.0
H723 H 0.88773 0.19589 0.82036 0.0
H724 H 0.94342 0.26904 0.87606 0.0
H725 H 0.87815 0.20596 0.93408 0.0
C726 C 0.79475 0.13371 0.87643 0.0
C727 C 0.80692 0.14415 0.84338 0.0
C728 C 0.81041 0.13736 0.90713 0.0
C729 C 0.83809 0.15732 0.90716 0.0
C730 C 0.85003 0.17304 0.87571 0.0
C731 C 0.83437 0.16498 0.84336 0.0
C732 C 0.87813 0.19787 0.8766 0.0
C733 C 0.89398 0.20776 0.84486 0.0
C734 C 0.91825 0.23313 0.84459 0.0
C735 C 0.92628 0.24848 0.87618 0.0
C736 C 0.91345 0.23779 0.90873 0.0
C737 C 0.88886 0.21296 0.90895 0.0
H738 H 0.78497 0.67784 0.88316 0.0
H739 H 0.84927 0.67018 0.93356 0.0
H740 H 0.85646 0.69766 0.82314 0.0
H741 H 0.87286 0.6691 0.81592 0.0
H742 H 0.94869 0.67966 0.85414 0.0
H743 H 0.89725 0.69211 0.92713 0.0
C744 C 0.80539 0.68077 0.88179 0.0
C745 C 0.8197 0.68911 0.84969 0.0
C746 C 0.81654 0.67564 0.91248 0.0
C747 C 0.84153 0.6758 0.91022 0.0
C748 C 0.85592 0.68267 0.87733 0.0
C749 C 0.84517 0.69054 0.84787 0.0
C750 C 0.88145 0.68088 0.8724 0.0
C751 C 0.88711 0.67414 0.83805 0.0
C752 C 0.9116 0.67452 0.83151 0.0
C753 C 0.92999 0.67997 0.85951 0.0
C754 C 0.92519 0.68639 0.8939 0.0
C755 C 0.90071 0.68664 0.90063 0.0
H756 H 0.94948 0.70082 0.45369 0.0
H757 H 0.88378 0.70397 0.40012 0.0
H758 H 0.87938 0.68481 0.51384 0.0
H759 H 0.85817 0.70722 0.51919 0.0
H760 H 0.7848 0.69955 0.47581 0.0
H761 H 0.83965 0.69075 0.40541 0.0
C762 C 0.92934 0.69867 0.45492 0.0
C763 C 0.91616 0.6935 0.48777 0.0
C764 C 0.9171 0.70067 0.42318 0.0
C765 C 0.89213 0.70066 0.42468 0.0
C766 C 0.87846 0.69644 0.45803 0.0
C767 C 0.89027 0.69115 0.48881 0.0
C768 C 0.8524 0.69774 0.46183 0.0
C769 C 0.84498 0.70291 0.49607 0.0
C770 C 0.82034 0.70268 0.5013 0.0
C771 C 0.80333 0.69861 0.47193 0.0
C772 C 0.81029 0.69474 0.4374 0.0
C773 C 0.83479 0.69421 0.43223 0.0
H774 H 0.36574 0.26096 0.45083 0.0
H775 H 0.35496 0.18947 0.39736 0.0
H776 H 0.38371 0.20539 0.50798 0.0
H777 H 0.35798 0.16061 0.51332 0.0
H778 H 0.3421 0.08759 0.45861 0.0
H779 H 0.3758 0.16252 0.39998 0.0
C780 C 0.36829 0.24308 0.45121 0.0
C781 C 0.37678 0.23585 0.48274 0.0
C782 C 0.36208 0.22747 0.42005 0.0
C783 C 0.36156 0.20224 0.42111 0.0
C784 C 0.36857 0.19328 0.45316 0.0
C785 C 0.37705 0.21092 0.48355 0.0
C786 C 0.365 0.16491 0.45555 0.0
C787 C 0.3583 0.1506 0.48876 0.0
C788 C 0.35195 0.1231 0.49045 0.0
C789 C 0.34972 0.10944 0.45839 0.0
C790 C 0.36064 0.12378 0.42677 0.0
C791 C 0.36784 0.15153 0.42486 0.0
H792 H 0.96336 0.26978 0.46686 0.0
H793 H 0.89264 0.21838 0.40319 0.0
H794 H 0.9 0.19724 0.51346 0.0
H795 H 0.85629 0.18251 0.51333 0.0
H796 H 0.79324 0.11392 0.45832 0.0
H797 H 0.86391 0.17064 0.39991 0.0
C798 C 0.94369 0.25147 0.46428 0.0
C799 C 0.93281 0.23447 0.49395 0.0
C800 C 0.92956 0.24578 0.43157 0.0
C801 C 0.90386 0.22215 0.42822 0.0
C802 C 0.8924 0.20428 0.45795 0.0
C803 C 0.90774 0.21052 0.49036 0.0
C804 C 0.86413 0.17999 0.45667 0.0
C805 C 0.84871 0.17114 0.48856 0.0
C806 C 0.82341 0.14727 0.48936 0.0
C807 C 0.81238 0.13293 0.45754 0.0
C808 C 0.82637 0.14163 0.42505 0.0
C809 C 0.85257 0.16485 0.42471 0.0
H810 H 1.03195 0.44919 0.21314 0.0
H811 H 0.04798 0.52169 0.27061 0.0
H812 H 1.02457 0.51163 0.15796 0.0
H813 H 0.0527 0.55454 0.15494 0.0
H814 H 0.05012 0.62253 0.19983 0.0
H815 H 0.0349 0.55476 0.26819 0.0
C816 C 1.03206 0.46851 0.21385 0.0
C817 C 1.02797 0.47915 0.18204 0.0
C818 C 0.03834 0.48321 0.24608 0.0
C819 C 0.04159 0.50981 0.24609 0.0
C820 C 0.03731 0.52106 0.21408 0.0
C821 C 1.02931 0.50464 0.18269 0.0
C822 C 0.04225 0.54999 0.21185 0.0
C823 C 0.04902 0.56362 0.17825 0.0
C824 C 0.05049 0.58895 0.17368 0.0
C825 C 0.04783 0.60234 0.20333 0.0
C826 C 0.04264 0.59046 0.23743 0.0
C827 C 0.03969 0.56414 0.24187 0.0
H828 H 0.43513 0.44612 0.20731 0.0
H829 H 0.50971 0.49005 0.26628 0.0
H830 H 0.50469 0.509 0.15444 0.0
H831 H 0.54838 0.52604 0.15673 0.0
H832 H 0.60799 0.59656 0.21314 0.0
H833 H 0.53927 0.53636 0.27029 0.0
C834 C 0.45626 0.46205 0.20799 0.0
C835 C 0.46858 0.47611 0.17652 0.0
C836 C 0.47111 0.466 0.23966 0.0
C837 C 0.49829 0.48726 0.24165 0.0
C838 C 0.51068 0.50416 0.21126 0.0
C839 C 0.49552 0.49767 0.17858 0.0
C840 C 0.53916 0.52833 0.21289 0.0
C841 C 0.55499 0.53789 0.1812 0.0
C842 C 0.5796 0.56277 0.18076 0.0
C843 C 0.58944 0.57699 0.21302 0.0
C844 C 0.57599 0.56684 0.24546 0.0
C845 C 0.55036 0.54301 0.24536 0.0
H846 H 0.45251 1.01073 0.21427 0.0
H847 H 0.51822 1.00472 0.26302 0.0
H848 H 0.52369 0.03205 0.1527 0.0
H849 H 0.54128 1.00455 0.14479 0.0
H850 H 0.61763 1.01602 0.18208 0.0
H851 H 0.56572 0.02683 0.25614 0.0
C852 C 0.47306 1.01407 0.21241 0.0
C853 C 0.48702 1.02277 0.18013 0.0
C854 C 0.48477 1.00925 0.24273 0.0
C855 C 0.51003 1.01007 0.23991 0.0
C856 C 0.5241 1.01723 0.20676 0.0
C857 C 0.51271 0.02473 0.17763 0.0
C858 C 0.54997 1.01615 0.20132 0.0
C859 C 0.55569 1.00979 0.16678 0.0
C860 C 0.58031 1.01054 0.15996 0.0
C861 C 0.5989 1.01619 0.18774 0.0
C862 C 0.59395 1.02195 0.22244 0.0
C863 C 0.56932 1.02184 0.22943 0.0
H864 H 0.61913 0.03723 0.78757 0.0
H865 H 0.55115 0.03648 0.73531 0.0
H866 H 0.54991 1.02084 0.84987 0.0
H867 H 0.52638 0.04049 0.85573 0.0
H868 H 0.45317 0.03308 0.81255 0.0
H869 H 0.5084 0.02564 0.74153 0.0
C870 C 0.59884 0.03463 0.78936 0.0
C871 C 0.58626 0.02974 0.82259 0.0
C872 C 0.58554 0.03508 0.75786 0.0
C873 C 0.56028 0.03441 0.75991 0.0
C874 C 0.54737 0.03102 0.79377 0.0
C875 C 0.56019 0.02689 0.82441 0.0
C876 C 0.52097 0.0317 0.79806 0.0
C877 C 0.5133 0.03627 0.83253 0.0
C878 C 0.48854 0.03577 0.83786 0.0
C879 C 0.47166 0.03209 0.80849 0.0
C880 C 0.47894 0.02909 0.77379 0.0
C881 C 0.50343 0.02854 0.76852 0.0
H882 H 1.03407 0.59767 0.78892 0.0
H883 H 1.02046 0.52594 0.7326 0.0
H884 H 0.0456 0.53737 0.8446 0.0
H885 H 1.01686 0.49343 0.84724 0.0
H886 H 1.00926 0.42244 0.79518 0.0
H887 H 0.04008 0.49711 0.73594 0.0
C888 C 1.03473 0.57873 0.78888 0.0
C889 C 0.04015 0.56912 0.82081 0.0
C890 C 1.02894 0.56402 0.75689 0.0
C891 C 1.02676 0.53799 0.757 0.0
C892 C 1.03202 0.52745 0.78896 0.0
C893 C 0.03987 0.54399 0.82033 0.0
C894 C 1.02734 0.49867 0.79065 0.0
C895 C 1.01873 0.48379 0.82327 0.0
C896 C 1.01317 0.4566 0.82548 0.0
C897 C 1.01466 0.4438 0.79427 0.0
C898 C 1.0257 0.45842 0.76278 0.0
C899 C 1.03161 0.48583 0.7605 0.0
H900 H 0.62993 0.60247 0.80313 0.0
H901 H 0.55954 0.55458 0.73683 0.0
H902 H 0.56464 0.52934 0.84563 0.0
H903 H 0.52121 0.51779 0.84471 0.0
H904 H 0.45854 0.44926 0.78909 0.0
H905 H 0.53039 0.50537 0.73205 0.0
C906 C 0.61009 0.58455 0.79946 0.0
C907 C 0.5984 0.56667 0.82813 0.0
C908 C 0.59642 0.58046 0.7666 0.0
C909 C 0.57045 0.55729 0.76193 0.0
C910 C 0.55828 0.53853 0.79064 0.0
C911 C 0.5731 0.54328 0.82325 0.0
C912 C 0.52972 0.51491 0.78847 0.0
C913 C 0.51378 0.50638 0.81993 0.0
C914 C 0.48838 0.48264 0.8204 0.0
C915 C 0.47772 0.46823 0.78851 0.0
C916 C 0.49225 0.47667 0.75637 0.0
C917 C 0.51857 0.49977 0.75644 0.0
H918 H 0.70093 0.78231 0.53953 0.0
H919 H 0.71445 0.85381 0.59756 0.0
H920 H 0.69209 0.84396 0.48455 0.0
H921 H 0.71951 0.88714 0.4823 0.0
H922 H 0.71515 0.954 0.52764 0.0
H923 H 0.70029 0.88591 0.5952 0.0
C924 C 0.70057 0.80141 0.54034 0.0
C925 C 0.69679 0.81217 0.50848 0.0
C926 C 0.70613 0.81585 0.57271 0.0
C927 C 0.70854 0.84209 0.57291 0.0
C928 C 0.70408 0.8532 0.54093 0.0
C929 C 0.6969 0.83708 0.50933 0.0
C930 C 0.70828 0.88185 0.53894 0.0
C931 C 0.71527 0.89579 0.5056 0.0
C932 C 0.71637 0.92096 0.50131 0.0
C933 C 0.713 0.93386 0.53099 0.0
C934 C 0.70773 0.92174 0.56496 0.0
C935 C 0.70512 0.89552 0.56903 0.0
H936 H 0.10319 0.78918 0.54765 0.0
H937 H 0.18073 0.82715 0.60022 0.0
H938 H 0.1734 0.84309 0.4878 0.0
H939 H 0.21706 0.8615 0.48852 0.0
H940 H 0.27874 0.9319 0.54286 0.0
H941 H 0.21146 0.87268 0.60286 0.0
C942 C 0.12499 0.80242 0.54609 0.0
C943 C 0.13707 0.81297 0.51306 0.0
C944 C 0.14076 0.80544 0.57651 0.0
C945 C 0.16866 0.82478 0.57636 0.0
C946 C 0.18069 0.84052 0.545 0.0
C947 C 0.16466 0.83327 0.51297 0.0
C948 C 0.20948 0.86421 0.54528 0.0
C949 C 0.22446 0.87339 0.51286 0.0
C950 C 0.24932 0.898 0.51157 0.0
C951 C 0.26008 0.91243 0.54345 0.0
C952 C 0.24762 0.90251 0.57648 0.0
C953 C 0.2218 0.87899 0.57739 0.0
H954 H 0.13563 0.36811 0.54878 0.0
H955 H 0.1848 0.33845 0.59748 0.0
H956 H 0.18175 0.34504 0.48225 0.0
H957 H 0.20389 0.3242 0.4804 0.0
H958 H 0.28015 0.33723 0.51993 0.0
H959 H 0.23048 0.35492 0.58895 0.0
C960 C 0.14873 0.3594 0.54568 0.0
C961 C 0.15412 0.35324 0.5114 0.0
C962 C 0.15772 0.35197 0.57662 0.0
C963 C 0.17786 0.34423 0.5735 0.0
C964 C 0.18859 0.34373 0.5394 0.0
C965 C 0.17538 0.34703 0.50856 0.0
C966 C 0.21313 0.33975 0.53556 0.0
C967 C 0.21828 0.33072 0.50243 0.0
C968 C 0.24286 0.33105 0.49649 0.0
C969 C 0.26148 0.33778 0.52452 0.0
C970 C 0.2572 0.34622 0.5578 0.0
C971 C 0.23304 0.34727 0.56351 0.0
C972 C 0.0471 0.46685 0.08958 0.0
C973 C 1.0306 0.43846 0.08468 0.0
C974 C 0.04499 0.47998 0.12024 0.0
C975 C 1.02639 0.46532 0.14747 0.0
H976 H 0.06214 0.47916 0.06981 0.0
H977 H 0.05884 0.50166 0.1233 0.0
S978 S 0.97704 0.39116 0.1472 0.0
N979 N 0.99385 0.39637 0.1093 0.0
N980 N 0.99002 0.42127 0.16692 0.0
C981 C 1.00913 0.43715 0.14259 0.0
C982 C 1.01117 0.42369 0.11124 0.0
C983 C 0.64001 0.60431 0.1201 0.0
C984 C 0.62803 0.60449 0.08706 0.0
C985 C 0.62421 0.58935 0.14923 0.0
C986 C 0.59554 0.57496 0.14725 0.0
H987 H 0.66188 0.61586 0.1235 0.0
H988 H 0.63472 0.58941 0.17375 0.0
S989 S 0.55426 0.57049 0.06657 0.0
N990 N 0.58603 0.58957 0.05351 0.0
N991 N 0.55592 0.56261 0.10899 0.0
C992 C 0.58326 0.57533 0.11423 0.0
C993 C 0.59956 0.59018 0.08419 0.0
C994 C 0.45852 1.01916 0.08593 0.0
C995 C 0.44304 0.03228 0.08997 0.0
C996 C 0.47378 1.01734 0.11475 0.0
C997 C 0.47361 0.0281 0.1488 0.0
H998 H 0.45891 1.01035 0.06027 0.0
H999 H 0.48504 1.00662 0.11061 0.0
S1000 S 0.43352 0.06168 0.17374 0.0
N1001 N 0.42614 0.05374 0.1309 0.0
N1002 N 0.4559 0.05201 0.18461 0.0
C1003 C 0.45787 0.04111 0.153 0.0
C1004 C 0.44215 0.04259 0.12378 0.0
C1005 C 0.44282 0.02628 0.9166 0.0
C1006 C 0.4581 0.04997 0.93738 0.0
C1007 C 0.45342 1.02132 0.88552 0.0
C1008 C 0.47978 0.03975 0.87377 0.0
H1009 H 0.42224 1.01149 0.92398 0.0
H1010 H 0.4406 1.00311 0.87001 0.0
S1011 S 0.52898 0.10417 0.9188 0.0
N1012 N 0.5018 0.09159 0.94444 0.0
N1013 N 0.52138 0.08216 0.88559 0.0
C1014 C 0.49573 0.06305 0.89468 0.0
C1015 C 0.48496 0.06821 0.92649 0.0
C1016 C 1.02217 0.41375 0.89736 0.0
C1017 C 1.00929 0.41696 0.9273 0.0
C1018 C 1.02305 0.42658 0.865 0.0
C1019 C 1.01004 0.44236 0.86053 0.0
H1020 H 1.03249 0.40186 0.89924 0.0
H1021 H 0.03496 0.42473 0.84372 0.0
S1022 S 0.97005 0.45364 0.93028 0.0
N1023 N 0.9813 0.43491 0.95066 0.0
N1024 N 0.9816 0.45825 0.88876 0.0
C1025 C 0.99565 0.44443 0.88998 0.0
C1026 C 0.99526 0.4316 0.92346 0.0
C1027 C 0.6328 0.61018 0.90987 0.0
C1028 C 0.6387 0.5933 0.93189 0.0
C1029 C 0.61952 0.60109 0.87683 0.0
C1030 C 0.61153 0.57472 0.86409 0.0
H1031 H 0.63851 0.63078 0.91803 0.0
H1032 H 0.61543 0.61493 0.86105 0.0
S1033 S 0.62144 0.52198 0.91092 0.0
N1034 N 0.63488 0.54839 0.93851 0.0
N1035 N 0.61004 0.53154 0.87583 0.0
C1036 C 0.61683 0.55734 0.88574 0.0
C1037 C 0.63045 0.5666 0.91966 0.0
C1038 C 0.05886 0.63014 0.88117 0.0
C1039 C 0.04571 0.61829 0.91343 0.0
C1040 C 0.05873 0.61406 0.85257 0.0
C1041 C 0.0443 0.58529 0.85434 0.0
H1042 H 0.06919 0.65211 0.87787 0.0
H1043 H 0.06949 0.62435 0.82842 0.0
S1044 S 1.00575 0.54433 0.93319 0.0
N1045 N 1.01799 0.57632 0.94615 0.0
N1046 N 1.01635 0.54572 0.89163 0.0
C1047 C 1.03101 0.57315 0.8867 0.0
C1048 C 1.03166 0.58971 0.91618 0.0
C1049 C 0.47567 0.45143 0.91344 0.0
C1050 C 0.44745 0.44049 0.91785 0.0
C1051 C 0.48891 0.46624 0.88266 0.0
C1052 C 0.4745 0.47062 0.85485 0.0
H1053 H 0.48776 0.44831 0.93372 0.0
H1054 H 0.51045 0.4734 0.88003 0.0
S1055 S 0.40085 0.44814 0.85356 0.0
N1056 N 0.4058 0.43642 0.89202 0.0
N1057 N 0.43088 0.46431 0.83423 0.0
C1058 C 0.4465 0.46061 0.85919 0.0
C1059 C 0.43295 0.44558 0.89064 0.0
C1060 C 0.63094 1.01117 0.87964 0.0
C1061 C 0.63099 1.02215 0.91333 0.0
C1062 C 0.61569 1.01297 0.85107 0.0
C1063 C 0.60065 0.02676 0.85463 0.0
H1064 H 0.64256 1.00082 0.87544 0.0
H1065 H 0.6156 1.00324 0.82599 0.0
S1066 S 0.59685 0.06166 0.937 0.0
N1067 N 0.61633 0.04857 0.94874 0.0
N1068 N 0.58845 0.05317 0.89445 0.0
C1069 C 0.6014 0.03872 0.88808 0.0
C1070 C 0.6167 0.03647 0.91741 0.0
C1071 C 0.58961 0.97728 0.07727 0.0
C1072 C 0.61269 0.99913 0.06147 0.0
C1073 C 0.57775 0.98125 0.10804 0.0
C1074 C 0.58838 1.00724 0.12356 0.0
H1075 H 0.58126 0.95681 0.06661 0.0
H1076 H 0.56101 0.96377 0.12068 0.0
S1077 S 0.64598 0.07169 0.09034 0.0
N1078 N 0.64389 0.04818 0.0621 0.0
N1079 N 0.62153 0.05535 0.11974 0.0
C1080 C 0.61038 0.02941 0.10701 0.0
C1081 C 0.62256 0.02544 0.07601 0.0
C1082 C 0.07912 0.61969 0.08251 0.0
C1083 C 0.06071 0.6281 0.07003 0.0
C1084 C 0.07545 0.6064 0.11567 0.0
C1085 C 0.05336 0.6012 0.13761 0.0
H1086 H 0.09664 0.62354 0.06671 0.0
H1087 H 0.0903 0.60072 0.12457 0.0
S1088 S 0.99829 0.61704 0.11708 0.0
N1089 N 1.01872 0.62885 0.08226 0.0
N1090 N 1.01202 0.6038 0.14417 0.0
C1091 C 1.03447 0.60878 0.12526 0.0
C1092 C 0.03809 0.62224 0.09161 0.0
C1093 C 0.4244 0.42491 0.10529 0.0
C1094 C 0.42714 0.44099 0.0752 0.0
C1095 C 0.43794 0.43662 0.13738 0.0
C1096 C 0.45391 0.46518 0.14155 0.0
H1097 H 0.41227 0.40287 0.10375 0.0
H1098 H 0.43638 0.4228 0.15873 0.0
S1099 S 0.46417 0.51649 0.07136 0.0
N1100 N 0.44499 0.48679 0.05143 0.0
N1101 N 0.46944 0.50937 0.11282 0.0
C1102 C 0.45552 0.48168 0.11196 0.0
C1103 C 0.44206 0.46948 0.07873 0.0
C1104 C 0.68163 0.75752 0.43835 0.0
C1105 C 0.70167 0.77165 0.41222 0.0
C1106 C 0.67935 0.77091 0.46873 0.0
C1107 C 0.69668 0.79904 0.47393 0.0
H1108 H 0.66789 0.7358 0.43578 0.0
H1109 H 0.66419 0.75909 0.48866 0.0
S1110 S 0.75218 0.84585 0.41378 0.0
N1111 N 0.73903 0.81584 0.39383 0.0
N1112 N 0.73436 0.84072 0.45067 0.0
C1113 C 0.71634 0.81359 0.44778 0.0
C1114 C 0.71895 0.79999 0.41706 0.0
C1115 C 0.30907 0.93826 0.44966 0.0
C1116 C 0.29681 0.93886 0.41705 0.0
C1117 C 0.29348 0.92341 0.47895 0.0
C1118 C 0.2648 0.90967 0.47766 0.0
H1119 H 0.33099 0.9494 0.45261 0.0
H1120 H 0.30418 0.92312 0.50312 0.0
S1121 S 0.2229 0.90638 0.39828 0.0
N1122 N 0.25457 0.92491 0.38455 0.0
N1123 N 0.22487 0.89824 0.44049 0.0
C1124 C 0.25224 0.91041 0.44506 0.0
C1125 C 0.26832 0.92509 0.41479 0.0
C1126 C 0.13174 0.35714 0.41436 0.0
C1127 C 0.10789 0.35839 0.41949 0.0
C1128 C 0.14663 0.35553 0.44382 0.0
C1129 C 0.13707 0.3529 0.47946 0.0
H1130 H 0.13957 0.35862 0.38751 0.0
H1131 H 0.16606 0.35724 0.438 0.0
S1132 S 0.06825 0.34209 0.50304 0.0
N1133 N 0.07175 0.35049 0.46017 0.0
N1134 N 0.09639 0.34192 0.51467 0.0
C1135 C 0.11056 0.34952 0.48348 0.0
C1136 C 0.09671 0.35344 0.45376 0.0
C1137 C 0.11119 0.36496 0.24846 0.0
C1138 C 0.12587 0.38818 0.27035 0.0
C1139 C 0.12201 0.36143 0.21669 0.0
C1140 C 0.14804 0.38087 0.20519 0.0
H1141 H 0.0909 0.34927 0.25558 0.0
H1142 H 0.10964 0.34345 0.20055 0.0
S1143 S 0.19568 0.44476 0.25252 0.0
N1144 N 0.16859 0.43065 0.2784 0.0
N1145 N 0.18877 0.42378 0.21818 0.0
C1146 C 0.16344 0.4038 0.22698 0.0
C1147 C 0.15238 0.40754 0.25958 0.0
C1148 C 0.68893 0.74357 0.22757 0.0
C1149 C 0.6771 0.74719 0.25831 0.0
C1150 C 0.68989 0.75704 0.19575 0.0
C1151 C 0.67791 0.77387 0.19257 0.0
H1152 H 0.6984 0.73085 0.22842 0.0
H1153 H 0.70107 0.75479 0.17381 0.0
S1154 S 0.6407 0.78659 0.2649 0.0
N1155 N 0.6511 0.76668 0.28386 0.0
N1156 N 0.65146 0.79118 0.22297 0.0
C1157 C 0.66449 0.77636 0.22286 0.0
C1158 C 0.66406 0.76289 0.2558 0.0
C1159 C 0.30046 0.90344 0.2479 0.0
C1160 C 0.30625 0.92913 0.2616 0.0
C1161 C 0.28673 0.89375 0.21491 0.0
C1162 C 0.27847 0.90948 0.19452 0.0
H1163 H 0.30679 0.89081 0.26253 0.0
H1164 H 0.28304 0.87415 0.20496 0.0
S1165 S 0.28607 0.97665 0.21917 0.0
N1166 N 0.30075 0.96917 0.25248 0.0
N1167 N 0.27506 0.95075 0.19102 0.0
C1168 C 0.28331 0.93467 0.20826 0.0
C1169 C 0.29718 0.94456 0.24162 0.0
C1170 C 0.72846 0.96379 0.21137 0.0
C1171 C 0.71513 0.95251 0.24372 0.0
C1172 C 0.72836 0.94719 0.18345 0.0
C1173 C 0.71368 0.91844 0.18589 0.0
H1174 H 0.73885 0.98569 0.20742 0.0
H1175 H 0.73921 0.95706 0.15915 0.0
S1176 S 0.6747 0.87888 0.26531 0.0
N1177 N 0.68712 0.9111 0.27735 0.0
N1178 N 0.68543 0.87955 0.224 0.0
C1179 C 0.70029 0.90688 0.2184 0.0
C1180 C 0.70096 0.92397 0.24723 0.0
C1181 C 0.10361 0.77966 0.22909 0.0
C1182 C 0.11844 0.77473 0.25598 0.0
C1183 C 0.11609 0.79381 0.19748 0.0
C1184 C 0.14398 0.80399 0.19168 0.0
H1185 H 0.08202 0.77203 0.23204 0.0
H1186 H 0.10375 0.7965 0.17715 0.0
S1187 S 0.19237 0.79739 0.25343 0.0
N1188 N 0.16302 0.78186 0.27446 0.0
N1189 N 0.18618 0.80842 0.21526 0.0
C1190 C 0.15922 0.79983 0.21853 0.0
C1191 C 0.14654 0.78521 0.25055 0.0
C1192 C 0.28999 0.33838 0.21093 0.0
C1193 C 0.29016 0.3489 0.24499 0.0
C1194 C 0.27512 0.34107 0.18253 0.0
C1195 C 0.26088 0.35564 0.18649 0.0
H1196 H 0.30142 0.32791 0.20619 0.0
H1197 H 0.27499 0.3317 0.15713 0.0
S1198 S 0.25742 0.38943 0.27023 0.0
N1199 N 0.27598 0.37522 0.28144 0.0
N1200 N 0.24932 0.38199 0.2274 0.0
C1201 C 0.26156 0.36694 0.22046 0.0
C1202 C 0.27625 0.36354 0.24969 0.0
C1203 C 0.28721 0.34542 0.41517 0.0
C1204 C 0.27361 0.32134 0.39469 0.0
C1205 C 0.27635 0.34857 0.44712 0.0
C1206 C 0.25144 0.3278 0.46021 0.0
H1207 H 0.30663 0.36205 0.40674 0.0
H1208 H 0.28787 0.36734 0.46219 0.0
S1209 S 0.20678 0.26128 0.41663 0.0
N1210 N 0.23295 0.27663 0.38937 0.0
N1211 N 0.21283 0.28278 0.45007 0.0
C1212 C 0.23705 0.30398 0.43974 0.0
C1213 C 0.24808 0.30067 0.4069 0.0
C1214 C 0.74709 0.95385 0.41192 0.0
C1215 C 0.72853 0.96183 0.39878 0.0
C1216 C 0.7428 0.93995 0.44469 0.0
C1217 C 0.71989 0.93369 0.46552 0.0
H1218 H 0.76522 0.95853 0.39698 0.0
H1219 H 0.75778 0.93463 0.4542 0.0
S1220 S 0.66406 0.94787 0.44274 0.0
N1221 N 0.68546 0.9609 0.40906 0.0
N1222 N 0.67766 0.93476 0.47027 0.0
C1223 C 0.70085 0.94079 0.45246 0.0
C1224 C 0.70509 0.95486 0.41921 0.0
C1225 C 0.11222 0.80368 0.41514 0.0
C1226 C 0.0949 0.77535 0.41286 0.0
C1227 C 0.12541 0.81595 0.44769 0.0
C1228 C 0.12144 0.80028 0.47909 0.0
H1229 H 0.11626 0.81627 0.3914 0.0
H1230 H 0.13894 0.83779 0.44809 0.0
S1231 S 0.07378 0.72537 0.48721 0.0
N1232 N 0.07099 0.73258 0.44494 0.0
N1233 N 0.09692 0.7544 0.50515 0.0
C1234 C 0.1029 0.77186 0.47696 0.0
C1235 C 0.08925 0.75975 0.44415 0.0
C1236 C 0.38127 0.13272 0.75301 0.0
C1237 C 0.36518 0.10423 0.7486 0.0
C1238 C 0.37825 0.14611 0.78275 0.0
C1239 C 0.35914 0.13161 0.80951 0.0
H1240 H 0.39675 0.14491 0.73365 0.0
H1241 H 0.39189 0.16785 0.7856 0.0
S1242 S 0.31047 0.0573 0.81002 0.0
N1243 N 0.32816 0.06224 0.77299 0.0
N1244 N 0.32269 0.08762 0.82893 0.0
C1245 C 0.34221 0.10335 0.80499 0.0
C1246 C 0.34516 0.08963 0.77457 0.0
C1247 C 0.93958 0.2586 0.74855 0.0
C1248 C 0.96803 0.27443 0.75166 0.0
C1249 C 0.92359 0.24385 0.77806 0.0
C1250 C 0.9355 0.24474 0.81186 0.0
H1251 H 0.92963 0.2578 0.7232 0.0
H1252 H 0.90171 0.23267 0.77474 0.0
S1253 S 1.00926 0.28513 0.83415 0.0
N1254 N 1.00718 0.2921 0.7915 0.0
N1255 N 0.97807 0.26252 0.84579 0.0
C1256 C 0.96417 0.2602 0.81476 0.0
C1257 C 0.98016 0.27571 0.78509 0.0
C1258 C 0.79265 0.68529 0.75455 0.0
C1259 C 0.77725 0.69857 0.75764 0.0
C1260 C 0.80741 0.68349 0.78399 0.0
C1261 C 0.80684 0.69446 0.81774 0.0
H1262 H 0.79329 0.67627 0.72918 0.0
H1263 H 0.81856 0.67259 0.78057 0.0
S1264 S 0.76691 0.72869 0.84018 0.0
N1265 N 0.76006 0.72051 0.79731 0.0
N1266 N 0.78897 0.71886 0.85216 0.0
C1267 C 0.79126 0.70772 0.82096 0.0
C1268 C 0.77602 0.70916 0.79111 0.0
C1269 C 0.7753 0.69293 0.5811 0.0
C1270 C 0.79121 0.71598 0.60272 0.0
C1271 C 0.78532 0.68842 0.54915 0.0
C1272 C 0.81171 0.70669 0.53732 0.0
H1273 H 0.75469 0.67829 0.58855 0.0
H1274 H 0.7721 0.67061 0.53322 0.0
S1275 S 0.86231 0.7696 0.58406 0.0
N1276 N 0.83542 0.75689 0.61024 0.0
N1277 N 0.85393 0.74835 0.5498 0.0
C1278 C 0.82821 0.72941 0.5589 0.0
C1279 C 0.81803 0.73409 0.59159 0.0
C1280 C 0.33654 0.09917 0.58817 0.0
C1281 C 0.34851 0.0825 0.59151 0.0
C1282 C 0.33763 0.11235 0.55549 0.0
C1283 C 0.35038 0.10891 0.52513 0.0
H1284 H 0.32697 0.10257 0.61114 0.0
H1285 H 0.32839 0.12523 0.55402 0.0
S1286 S 0.38138 0.06384 0.51997 0.0
N1287 N 0.37015 0.06027 0.56144 0.0
N1288 N 0.37451 0.08636 0.50121 0.0
C1289 C 0.3617 0.09143 0.52842 0.0
C1290 C 0.35999 0.07774 0.56124 0.0
C1291 C 0.96941 0.28026 0.57338 0.0
C1292 C 0.97616 0.26405 0.5955 0.0
C1293 C 0.95514 0.27026 0.54107 0.0
C1294 C 0.94692 0.24359 0.52926 0.0
H1295 H 0.97523 0.301 0.58091 0.0
H1296 H 0.95045 0.2836 0.52512 0.0
S1297 S 0.95902 0.19244 0.57663 0.0
N1298 N 0.97305 0.2195 0.60307 0.0
N1299 N 0.94635 0.20098 0.54191 0.0
C1300 C 0.95316 0.22693 0.55101 0.0
C1301 C 0.9678 0.23711 0.58411 0.0
C1302 C 0.37247 0.2594 0.57705 0.0
C1303 C 0.38514 0.28793 0.57323 0.0
C1304 C 0.37163 0.24268 0.54851 0.0
C1305 C 0.38307 0.25391 0.51493 0.0
H1306 H 0.36283 0.24995 0.60217 0.0
H1307 H 0.36072 0.22076 0.55223 0.0
S1308 S 0.41702 0.32753 0.49087 0.0
N1309 N 0.40753 0.32648 0.5329 0.0
N1310 N 0.40828 0.2958 0.48033 0.0
C1311 C 0.39644 0.28262 0.51134 0.0
C1312 C 0.39665 0.29941 0.54006 0.0
C1313 C 0.81123 0.11597 0.58233 0.0
C1314 C 0.78306 0.1052 0.58711 0.0
C1315 C 0.82431 0.13076 0.55146 0.0
C1316 C 0.80978 0.13528 0.52394 0.0
H1317 H 0.82337 0.11272 0.60237 0.0
H1318 H 0.84581 0.1378 0.54851 0.0
S1319 S 0.73626 0.11333 0.52369 0.0
N1320 N 0.74136 0.10148 0.56194 0.0
N1321 N 0.76616 0.12933 0.50402 0.0
C1322 C 0.78186 0.12546 0.52867 0.0
C1323 C 0.76847 0.11045 0.56019 0.0
C1324 C 0.9603 0.67548 0.54701 0.0
C1325 C 0.96003 0.68682 0.58032 0.0
C1326 C 0.94519 0.67683 0.51787 0.0
C1327 C 0.92998 0.69049 0.52047 0.0
H1328 H 0.97218 0.66533 0.54349 0.0
H1329 H 0.94547 0.66698 0.49307 0.0
S1330 S 0.92513 0.72603 0.60156 0.0
N1331 N 0.94469 0.71329 0.61435 0.0
N1332 N 0.91713 0.71706 0.55906 0.0
C1333 C 0.93029 0.70268 0.55359 0.0
C1334 C 0.94543 0.70089 0.58347 0.0
C1335 C 0.9199 0.64315 0.74598 0.0
C1336 C 0.94356 0.66498 0.73117 0.0
C1337 C 0.90839 0.64655 0.77752 0.0
C1338 C 0.92004 0.67192 0.79498 0.0
H1339 H 0.9107 0.62308 0.73383 0.0
H1340 H 0.89103 0.62904 0.78911 0.0
S1341 S 0.97971 0.73626 0.76552 0.0
N1342 N 0.97657 0.71352 0.73524 0.0
N1343 N 0.95486 0.71956 0.79426 0.0
C1344 C 0.94272 0.69413 0.77963 0.0
C1345 C 0.95451 0.69076 0.7478 0.0
C1346 C 0.37647 0.29079 0.75104 0.0
C1347 C 0.39901 0.29583 0.7299 0.0
C1348 C 0.37184 0.27752 0.78414 0.0
C1349 C 0.38944 0.26859 0.79757 0.0
H1350 H 0.36227 0.29736 0.74226 0.0
H1351 H 0.35428 0.27425 0.79947 0.0
S1352 S 0.4511 0.27601 0.75316 0.0
N1353 N 0.43898 0.2902 0.72492 0.0
N1354 N 0.43011 0.26531 0.78753 0.0
C1355 C 0.41182 0.27299 0.77676 0.0
C1356 C 0.41667 0.28664 0.74291 0.0
C1357 C 0.78047 0.13405 0.74613 0.0
C1358 C 0.76309 0.10569 0.74437 0.0
C1359 C 0.79447 0.14655 0.77819 0.0
C1360 C 0.79128 0.13109 0.80956 0.0
H1361 H 0.78384 0.14647 0.72238 0.0
H1362 H 0.80789 0.16842 0.77827 0.0
S1363 S 0.74424 0.05617 0.819 0.0
N1364 N 0.74023 0.0631 0.77704 0.0
N1365 N 0.76781 0.08533 0.8361 0.0
C1366 C 0.77292 0.10261 0.8079 0.0
C1367 C 0.75839 0.09027 0.77567 0.0
C1368 C 0.0806 0.35643 0.0602 0.0
C1369 C 0.08953 0.37869 0.03646 0.0
C1370 C 0.0992 0.35143 0.0795 0.0
C1371 C 0.1275 0.36838 0.07579 0.0
H1372 H 0.05916 0.34373 0.0657 0.0
H1373 H 0.09143 0.33541 0.09956 0.0
S1374 S 0.16161 0.42615 0.01246 0.0
N1375 N 0.12889 0.41535 0.00647 0.0
N1376 N 0.16348 0.40601 0.04338 0.0
C1377 C 0.13667 0.38898 0.04973 0.0
C1378 C 0.1178 0.39417 0.03001 0.0
C1379 C 0.71702 0.7434 0.06323 0.0
C1380 C 0.69708 0.72739 0.03768 0.0
C1381 C 0.71839 0.76716 0.07734 0.0
C1382 C 0.69932 0.77536 0.06734 0.0
H1383 H 0.73066 0.7367 0.07393 0.0
H1384 H 0.73251 0.77745 0.09928 0.0
S1385 S 0.64512 0.74232 -0.00152 0.0
N1386 N 0.65997 0.72332 -0.00033 0.0
N1387 N 0.6617 0.76711 0.02789 0.0
C1388 C 0.68082 0.76088 0.03966 0.0
C1389 C 0.67985 0.73703 0.02452 0.0
C1390 C 0.3128 0.95393 0.02606 0.0
C1391 C 0.32166 0.9808 0.03801 0.0
C1392 C 0.29043 0.93143 0.04197 0.0
C1393 C 0.27584 0.93514 0.0697 0.0
H1394 H 0.3247 0.95003 0.00675 0.0
H1395 H 0.28627 0.91104 0.03507 0.0
S1396 S 0.28741 1.00145 0.1054 0.0
N1397 N 0.31172 1.00988 0.07558 0.0
N1398 N 0.26927 0.96781 0.10441 0.0
C1399 C 0.28254 0.96204 0.0786 0.0
C1400 C 0.30563 0.98482 0.06316 0.0
C1401 C 0.36819 0.09593 0.96928 0.0
C1402 C 0.39545 0.10681 0.98038 0.0
C1403 C 0.35963 0.11152 0.94918 0.0
C1404 C 0.37796 0.1386 0.93915 0.0
H1405 H 0.3535 0.07482 0.97472 0.0
H1406 H 0.33891 0.10166 0.93908 0.0
S1407 S 0.45062 0.17816 0.96514 0.0
N1408 N 0.44009 0.14777 0.98316 0.0
N1409 N 0.42383 0.17653 0.94463 0.0
C1410 C 0.40466 0.15049 0.95242 0.0
C1411 C 0.41346 0.13471 0.97312 0.0
C1412 C 0.93719 0.29294 0.97883 0.0
C1413 C 0.96486 0.30037 0.98179 0.0
C1414 C 0.91891 0.26995 0.95858 0.0
C1415 C 0.92775 0.25352 0.94144 0.0
H1416 H 0.93024 0.30638 0.98921 0.0
H1417 H 0.89858 0.26658 0.9535 0.0
S1418 S 0.997 0.26185 0.94632 0.0
N1419 N 0.99937 0.28792 0.96947 0.0
N1420 N 0.96495 0.24416 0.93307 0.0
C1421 C 0.95462 0.25914 0.94783 0.0
C1422 C 0.97326 0.28281 0.96745 0.0
C1423 C 0.7599 0.63459 0.97613 0.0
C1424 C 0.75216 0.6539 0.98669 0.0
C1425 C 0.78336 0.64225 0.95569 0.0
C1426 C 0.80018 0.66952 0.94559 0.0
H1427 H 0.74676 0.61307 0.9814 0.0
H1428 H 0.78699 0.62644 0.94508 0.0
S1429 S 0.79204 0.72864 0.97139 0.0
N1430 N 0.76556 0.7021 0.98929 0.0
N1431 N 0.80959 0.7163 0.95122 0.0
C1432 C 0.79422 0.68931 0.95895 0.0
C1433 C 0.77021 0.68156 0.97931 0.0
C1434 C 0.96432 0.67224 0.96505 0.0
C1435 C 0.99131 0.68958 0.95407 0.0
C1436 C 0.94238 0.67348 0.94859 0.0
C1437 C 0.94684 0.69249 0.92123 0.0
H1438 H 0.9599 0.65609 0.98425 0.0
H1439 H 0.92186 0.65791 0.95495 0.0
S1440 S 1.01387 0.7461 0.88841 0.0
N1441 N 1.02136 0.72874 0.91795 0.0
N1442 N 0.98041 0.73183 0.88821 0.0
C1443 C 0.97391 0.71196 0.91326 0.0
C1444 C 0.99608 0.71024 0.92922 0.0
C1445 C 0.36251 0.3107 0.94081 0.0
C1446 C 0.38421 0.32252 0.96564 0.0
C1447 C 0.35704 0.28712 0.92142 0.0
C1448 C 0.37293 0.2743 0.92611 0.0
H1449 H 0.35073 0.32064 0.93452 0.0
H1450 H 0.34159 0.2801 0.90049 0.0
S1451 S 0.4287 0.29373 -0.00757 0.0
N1452 N 0.41904 0.31681 -0.00237 0.0
N1453 N 0.40882 0.27297 0.96059 0.0
C1454 C 0.39285 0.28423 0.95324 0.0
C1455 C 0.39853 0.30825 0.97304 0.0
C1456 C 0.76752 0.06718 0.94235 0.0
C1457 C 0.75112 0.07095 0.96723 0.0
C1458 C 0.79028 0.08956 0.92729 0.0
C1459 C 0.79703 0.1166 0.93567 0.0
H1460 H 0.76171 0.04689 0.93268 0.0
H1461 H 0.80081 0.08574 0.90582 0.0
S1462 S 0.76252 0.13748 0.00216 0.0
N1463 N 0.7452 0.10377 0.00285 0.0
N1464 N 0.78713 0.14577 0.97285 0.0
C1465 C 0.78226 0.12059 0.96272 0.0
C1466 C 0.75944 0.09776 0.97884 0.0
C1467 C 0.7024 0.95146 0.02717 0.0
C1468 C 0.67515 0.94179 0.01685 0.0
C1469 C 0.71015 0.93502 0.0468 0.0
C1470 C 0.691 0.90829 0.05717 0.0
H1471 H 0.71771 0.97231 0.02153 0.0
H1472 H 0.73095 0.94404 0.05647 0.0
S1473 S 0.61785 0.87172 0.03327 0.0
N1474 N 0.62948 0.90226 0.01516 0.0
N1475 N 0.64429 0.87193 0.05285 0.0
C1476 C 0.66423 0.89754 0.04462 0.0
C1477 C 0.65623 0.91417 0.02437 0.0
C1478 C 0.10274 0.75648 0.03254 0.0
C1479 C 0.1151 0.74225 0.01798 0.0
C1480 C 0.11759 0.77993 0.0536 0.0
C1481 C 0.14543 0.79021 0.0611 0.0
H1482 H 0.08111 0.74873 0.02926 0.0
H1483 H 0.10679 0.78913 0.06608 0.0
S1484 S 0.18862 0.7634 0.02523 0.0
N1485 N 0.15801 0.74261 0.00893 0.0
N1486 N 0.18544 0.78621 0.04931 0.0
C1487 C 0.15859 0.77768 0.04437 0.0
C1488 C 0.14354 0.75381 0.0227 0.0
C1489 C 0.29095 0.35135 0.03036 0.0
C1490 C 0.31033 0.37704 0.01751 0.0
C1491 C 0.26795 0.34798 0.04874 0.0
C1492 C 0.26414 0.37042 0.05627 0.0
H1493 H 0.29452 0.33417 0.02837 0.0
H1494 H 0.25481 0.32834 0.06098 0.0
S1495 S 0.30756 0.44128 0.0247 0.0
N1496 N 0.3226 0.42456 0.00941 0.0
N1497 N 0.28016 0.4185 0.04599 0.0
C1498 C 0.28206 0.39564 0.04069 0.0
C1499 C 0.30511 0.39892 0.021 0.0
C1500 C 0.7828 0.72174 0.36535 0.0
C1501 C 0.75437 0.70476 0.36871 0.0
C1502 C 0.80131 0.71648 0.38447 0.0
C1503 C 0.79221 0.69398 0.40759 0.0
H1504 H 0.79099 0.74016 0.34933 0.0
H1505 H 0.82275 0.73138 0.38343 0.0
S1506 S 0.7206 0.64047 0.4214 0.0
N1507 N 0.71848 0.66228 0.39353 0.0
N1508 N 0.75335 0.65263 0.42934 0.0
C1509 C 0.76411 0.67547 0.40865 0.0
C1510 C 0.7452 0.6808 0.38931 0.0
C1511 C 0.38565 0.07764 0.39468 0.0
C1512 C 0.36565 0.06144 0.36934 0.0
C1513 C 0.38673 0.10122 0.4089 0.0
C1514 C 0.36727 0.10899 0.39927 0.0
H1515 H 0.39962 0.07125 0.40506 0.0
H1516 H 0.40105 0.11178 0.43055 0.0
S1517 S 0.31255 0.07515 0.33131 0.0
N1518 N 0.32791 0.05664 0.33204 0.0
N1519 N 0.32907 0.10005 0.3606 0.0
C1520 C 0.34858 0.09425 0.37193 0.0
C1521 C 0.34793 0.07062 0.35662 0.0
C1522 C 0.97975 0.2836 0.35908 0.0
C1523 C 0.98788 0.31078 0.36856 0.0
C1524 C 0.95763 0.2616 0.37617 0.0
C1525 C 0.94274 0.26622 0.40262 0.0
H1526 H 0.99213 0.27926 0.34115 0.0
H1527 H 0.95399 0.2411 0.37137 0.0
S1528 S 0.9525 0.33344 0.43135 0.0
N1529 N 0.97696 0.34095 0.40206 0.0
N1530 N 0.93504 0.29978 0.43317 0.0
C1531 C 0.94869 0.29324 0.40883 0.0
C1532 C 0.97144 0.31551 0.39215 0.0
C1533 C 1.03335 0.42745 0.30726 0.0
C1534 C 0.06018 0.43817 0.32011 0.0
C1535 C 1.02551 0.44338 0.28663 0.0
C1536 C 0.04417 0.47064 0.27775 0.0
H1537 H 1.01855 0.4062 0.31161 0.0
H1538 H 1.00516 0.43368 0.27524 0.0
S1539 S 0.11574 0.50985 0.30867 0.0
N1540 N 0.10459 0.47914 0.32596 0.0
N1541 N 0.08973 0.50854 0.28637 0.0
C1542 C 0.07032 0.48235 0.29287 0.0
C1543 C 0.07837 0.46623 0.31415 0.0
C1544 C 0.63564 0.61162 0.3035 0.0
C1545 C 0.62812 0.63011 0.31721 0.0
C1546 C 0.61682 0.58817 0.28487 0.0
C1547 C 0.59006 0.58287 0.27815 0.0
H1548 H 0.65665 0.61629 0.30496 0.0
H1549 H 0.6241 0.57571 0.27216 0.0
S1550 S 0.55965 0.62352 0.31192 0.0
N1551 N 0.59141 0.64002 0.32667 0.0
N1552 N 0.55636 0.59658 0.28996 0.0
C1553 C 0.58167 0.59989 0.29451 0.0
C1554 C 0.60072 0.62348 0.31432 0.0
C1555 C 0.42791 0.96798 0.30556 0.0
C1556 C 0.42056 0.98745 0.31671 0.0
C1557 C 0.45146 0.97559 0.28537 0.0
C1558 C 0.46876 1.00296 0.27614 0.0
H1559 H 0.4144 0.94643 0.31012 0.0
H1560 H 0.45476 0.95974 0.27416 0.0
S1561 S 0.46175 0.06237 0.30382 0.0
N1562 N 0.43484 0.03581 0.32091 0.0
N1563 N 0.47903 0.0499 0.28326 0.0
C1564 C 0.4632 1.02284 0.29019 0.0
C1565 C 0.4391 1.01515 0.31029 0.0
C1566 C 0.66404 0.04319 0.25754 0.0
C1567 C 0.65902 0.02315 0.28355 0.0
C1568 C 0.64263 0.04541 0.24152 0.0
C1569 C 0.61526 0.02705 0.24996 0.0
H1570 H 0.68453 0.05636 0.24816 0.0
H1571 H 0.64735 0.05989 0.21977 0.0
S1572 S 0.5915 0.97327 0.31975 0.0
N1573 N 0.62491 0.98695 0.32053 0.0
N1574 N 0.58464 0.99027 0.28889 0.0
C1575 C 0.61015 1.00857 0.27819 0.0
C1576 C 0.63204 1.00673 0.29521 0.0
C1577 C 0.07009 0.645 0.30794 0.0
C1578 C 0.05323 0.6569 0.30372 0.0
C1579 C 0.06454 0.62088 0.28994 0.0
C1580 C 0.0418 0.6075 0.26721 0.0
H1581 H 0.08867 0.65515 0.32369 0.0
H1582 H 0.07939 0.61402 0.29137 0.0
S1583 S 0.98865 0.6269 0.25134 0.0
N1584 N 1.01071 0.65089 0.27846 0.0
N1585 N 1.00051 0.60569 0.24477 0.0
C1586 C 1.02342 0.61757 0.26541 0.0
C1587 C 1.02908 0.64221 0.28355 0.0
C1588 C 0.41861 0.42528 0.3084 0.0
C1589 C 0.41124 0.39852 0.29763 0.0
C1590 C 0.44114 0.44808 0.29324 0.0
C1591 C 0.45746 0.44478 0.26766 0.0
H1592 H 0.40543 0.42875 0.32596 0.0
H1593 H 0.4442 0.46827 0.29889 0.0
S1594 S 0.4497 0.37901 0.23573 0.0
N1595 N 0.42402 0.37007 0.26341 0.0
N1596 N 0.46683 0.41271 0.23615 0.0
C1597 C 0.45205 0.41809 0.26005 0.0
C1598 C 0.42876 0.39499 0.2746 0.0
C1599 C 0.36525 0.28027 0.35542 0.0
C1600 C 0.33781 0.26982 0.34549 0.0
C1601 C 0.37363 0.26481 0.37608 0.0
C1602 C 0.35495 0.23833 0.38784 0.0
H1603 H 0.38021 0.30105 0.34876 0.0
H1604 H 0.39455 0.27446 0.38539 0.0
S1605 S 0.28158 0.19994 0.36561 0.0
N1606 N 0.29248 0.2298 0.34578 0.0
N1607 N 0.3085 0.20127 0.38534 0.0
C1608 C 0.32799 0.22673 0.37572 0.0
C1609 C 0.31935 0.24237 0.35443 0.0
C1610 C 0.81036 0.08625 0.35692 0.0
C1611 C 0.78254 0.07665 0.34924 0.0
C1612 C 0.82558 0.10934 0.37858 0.0
C1613 C 0.81367 0.12385 0.39322 0.0
H1614 H 0.82018 0.075 0.34791 0.0
H1615 H 0.84615 0.11459 0.38613 0.0
S1616 S 0.74345 0.11069 0.37648 0.0
N1617 N 0.74505 0.08615 0.35438 0.0
N1618 N 0.77376 0.12941 0.39497 0.0
C1619 C 0.78675 0.11606 0.38321 0.0
C1620 C 0.77118 0.09252 0.3613 0.0
C1621 C 0.96012 0.6847 0.36444 0.0
C1622 C 0.97909 0.71068 0.35188 0.0
C1623 C 0.93665 0.6805 0.38238 0.0
C1624 C 0.93188 0.70236 0.38967 0.0
H1625 H 0.96441 0.66798 0.36267 0.0
H1626 H 0.9239 0.66072 0.39451 0.0
S1627 S 0.97391 0.77362 0.35871 0.0
N1628 N 0.98997 0.75781 0.34383 0.0
N1629 N 0.9466 0.75019 0.37948 0.0
C1630 C 0.9494 0.72783 0.37432 0.0
C1631 C 0.97296 0.73196 0.35513 0.0
C1632 C 0.41526 1.01909 0.72678 0.0
C1633 C 0.42505 0.04281 0.70557 0.0
C1634 C 0.43313 1.01279 0.74563 0.0
C1635 C 0.46155 0.02985 0.74401 0.0
H1636 H 0.39362 1.00604 0.73052 0.0
H1637 H 0.42462 0.99552 0.76381 0.0
S1638 S 0.498 0.09172 0.68783 0.0
N1639 N 0.46554 0.08139 0.68034 0.0
N1640 N 0.49869 0.06951 0.71633 0.0
C1641 C 0.47167 0.05213 0.72045 0.0
C1642 C 0.45356 0.05867 0.70124 0.0
C1643 C 0.05174 0.41312 0.73018 0.0
C1644 C 1.03243 0.39752 0.70374 0.0
C1645 C 0.05228 0.43619 0.74529 0.0
C1646 C 1.03304 0.44415 0.73528 0.0
H1647 H 0.06552 0.40656 0.74078 0.0
H1648 H 0.06596 0.44615 0.76775 0.0
S1649 S 0.98031 0.41217 0.6644 0.0
N1650 N 0.9957 0.39367 0.66509 0.0
N1651 N 0.99596 0.43624 0.695 0.0
C1652 C 1.01517 0.43017 0.70683 0.0
C1653 C 1.015 0.40698 0.69076 0.0
C1654 C 0.6469 0.62008 0.69497 0.0
C1655 C 0.65613 0.6471 0.70653 0.0
C1656 C 0.62452 0.59788 0.71131 0.0
C1657 C 0.61033 0.60207 0.73914 0.0
H1658 H 0.65851 0.61584 0.67558 0.0
H1659 H 0.62 0.57735 0.70459 0.0
S1660 S 0.62287 0.66896 0.77387 0.0
N1661 N 0.64689 0.67685 0.74377 0.0
N1662 N 0.60448 0.63533 0.77354 0.0
C1663 C 0.61741 0.62912 0.74774 0.0
C1664 C 0.64047 0.65159 0.73179 0.0
C1665 C 0.70259 0.76085 0.63404 0.0
C1666 C 0.72947 0.77223 0.64702 0.0
C1667 C 0.69423 0.77625 0.6132 0.0
C1668 C 0.71236 0.80363 0.60434 0.0
H1669 H 0.68815 0.73951 0.6385 0.0
H1670 H 0.6739 0.76608 0.60175 0.0
S1671 S 0.7837 0.84451 0.63559 0.0
N1672 N 0.77328 0.81394 0.65297 0.0
N1673 N 0.75742 0.84237 0.61303 0.0
C1674 C 0.73853 0.81598 0.6195 0.0
C1675 C 0.74713 0.80039 0.64094 0.0
C1676 C 0.27329 0.95798 0.64636 0.0
C1677 C 0.30106 0.96559 0.64771 0.0
C1678 C 0.25449 0.93483 0.62678 0.0
C1679 C 0.2629 0.91841 0.60869 0.0
H1680 H 0.26655 0.97136 0.65752 0.0
H1681 H 0.23401 0.93135 0.62293 0.0
S1682 S 0.33227 0.92688 0.60991 0.0
N1683 N 0.33525 0.95311 0.63329 0.0
N1684 N 0.29991 0.90907 0.59814 0.0
C1685 C 0.28995 0.92413 0.61366 0.0
C1686 C 0.3091 0.94797 0.63258 0.0
C1687 C 0.10129 0.31101 0.64049 0.0
C1688 C 0.09154 0.32915 0.64862 0.0
C1689 C 0.12535 0.31958 0.62114 0.0
C1690 C 0.14081 0.34668 0.6093 0.0
H1691 H 0.08937 0.28954 0.64697 0.0
H1692 H 0.13042 0.30428 0.61249 0.0
S1693 S 0.12794 0.40367 0.63038 0.0
N1694 N 0.10197 0.3766 0.64824 0.0
N1695 N 0.14733 0.39261 0.61239 0.0
C1696 C 0.13304 0.36565 0.62079 0.0
C1697 C 0.10835 0.35692 0.64012 0.0
C1698 C 0.2993 0.3364 0.62864 0.0
C1699 C 0.32582 0.35424 0.6164 0.0
C1700 C 0.27647 0.33621 0.61277 0.0
C1701 C 0.27948 0.35427 0.58473 0.0
H1702 H 0.29594 0.32089 0.64841 0.0
H1703 H 0.25637 0.3202 0.6201 0.0
S1704 S 0.34469 0.40871 0.54833 0.0
N1705 N 0.35384 0.39293 0.57827 0.0
N1706 N 0.31117 0.39324 0.54946 0.0
C1707 C 0.30604 0.37428 0.57541 0.0
C1708 C 0.32916 0.37402 0.59084 0.0
C1709 C 0.69681 0.97476 0.61153 0.0
C1710 C 0.71952 0.98712 0.63473 0.0
C1711 C 0.69081 0.95104 0.59216 0.0
C1712 C 0.70721 0.93865 0.59523 0.0
H1713 H 0.68455 0.98436 0.60645 0.0
H1714 H 0.67456 0.94363 0.57234 0.0
S1715 S 0.76577 0.95949 0.65715 0.0
N1716 N 0.75596 0.98233 0.66366 0.0
N1717 N 0.74472 0.93822 0.62661 0.0
C1718 C 0.72819 0.94907 0.62088 0.0
C1719 C 0.73441 0.97323 0.64067 0.0
C1720 C 0.09733 0.73492 0.61 0.0
C1721 C 0.08087 0.73853 0.63494 0.0
C1722 C 0.12033 0.7574 0.59553 0.0
C1723 C 0.12724 0.78437 0.60461 0.0
H1724 H 0.09144 0.71473 0.59986 0.0
H1725 H 0.13091 0.75377 0.57396 0.0
S1726 S 0.09268 0.80475 0.67164 0.0
N1727 N 0.07508 0.77105 0.67145 0.0
N1728 N 0.11745 0.81325 0.64253 0.0
C1729 C 0.11239 0.78814 0.63174 0.0
C1730 C 0.08934 0.76521 0.64726 0.0
C1731 C 0.98865 0.58306 0.69396 0.0
C1732 C 1.00778 0.6103 0.68515 0.0
C1733 C 0.99621 0.56648 0.71378 0.0
C1734 C 1.0232 0.57639 0.72509 0.0
H1735 H 0.96732 0.57494 0.68754 0.0
H1736 H 0.98048 0.54666 0.72279 0.0
S1737 S 0.08193 0.6441 0.70395 0.0
N1738 N 0.05564 0.64488 0.68544 0.0
N1739 N 0.06964 0.61363 0.7225 0.0
C1740 C 0.04288 0.60254 0.71367 0.0
C1741 C 0.03524 0.61954 0.69384 0.0
C1742 C 0.47768 0.42057 0.69009 0.0
C1743 C 0.44995 0.41065 0.68152 0.0
C1744 C 0.49244 0.44397 0.71138 0.0
C1745 C 0.48013 0.45849 0.72474 0.0
H1746 H 0.48778 0.40935 0.68207 0.0
H1747 H 0.51294 0.44948 0.71968 0.0
S1748 S 0.40997 0.44451 0.70517 0.0
N1749 N 0.41213 0.4198 0.68436 0.0
N1750 N 0.43996 0.46366 0.72427 0.0
C1751 C 0.45331 0.45034 0.71381 0.0
C1752 C 0.43819 0.42647 0.6923 0.0
C1753 C 0.62691 1.01611 0.70072 0.0
C1754 C 0.64584 0.04147 0.68645 0.0
C1755 C 0.60372 1.01283 0.71851 0.0
C1756 C 0.59928 0.03512 0.72407 0.0
H1757 H 0.631 0.99921 0.70031 0.0
H1758 H 0.59104 0.99362 0.73201 0.0
S1759 S 0.64118 0.10488 0.68801 0.0
N1760 N 0.65685 0.08827 0.67467 0.0
N1761 N 0.61413 0.0825 0.71027 0.0
C1762 C 0.61669 0.05985 0.70697 0.0
C1763 C 0.63991 0.06298 0.68783 0.0
loop_
_geom_bond_atom_site_label_1
_geom_bond_atom_site_label_2
_geom_bond_distance
_geom_bond_site_symmetry_2
_ccdc_geom_bond_type
Mn0 O5 2.095 1_655 S
Mn0 O15 2.162 . S
Mn0 O16 2.297 1_554 S
Mn0 O24 2.385 1_554 S
Mn0 O25 2.209 1_654 S
Mn0 O26 2.094 . S
Mn1 O6 2.121 . S
Mn1 N8 2.257 1_554 S
Mn1 N17 2.282 1_554 S
Mn1 O25 2.215 1_554 S
Mn1 O27 2.117 . S
C2 O24 1.234 1_455 S
C2 O25 1.283 . S
C3 O15 1.281 1_556 S
C3 O16 1.236 . S
C4 O26 1.230 1_455 S
C4 O27 1.291 . S
O5 Mn0 2.095 1_455 S
O5 C14 1.250 . S
O6 Mn1 2.121 . S
O6 C14 1.258 . S
C7 N8 1.326 . S
C7 C11 1.460 . S
C7 H13 0.929 . S
N8 Mn1 2.257 1_556 S
N8 C7 1.326 . S
N8 C12 1.362 . S
C9 C10 1.258 . S
C9 C12 1.431 . S
C9 C29 1.449 . S
C10 C9 1.258 . S
C10 C11 1.477 . S
C10 H30 0.931 . S
C11 C7 1.460 . S
C11 C10 1.477 . S
C11 H31 0.930 . S
C12 N8 1.362 . S
C12 C9 1.431 . S
C12 C22 1.476 . S
H13 C7 0.929 . S
C14 O5 1.250 . S
C14 O6 1.258 . S
O15 Mn0 2.162 . S
O15 C3 1.281 1_554 S
O16 Mn0 2.297 1_556 S
O16 C3 1.236 . S
N17 Mn1 2.282 1_556 S
N17 C18 1.328 1_556 S
N17 C22 1.318 . S
C18 N17 1.328 1_554 S
C18 C19 1.457 1_554 S
C18 H23 0.929 . S
C19 C18 1.457 1_556 S
C19 C20 1.291 . S
C19 H32 0.931 . S
C20 C19 1.291 . S
C20 C21 1.373 . S
C20 H33 0.929 . S
C21 C20 1.373 . S
C21 C22 1.396 . S
C21 C28 1.403 . S
C22 C12 1.476 . S
C22 N17 1.318 . S
C22 C21 1.396 . S
H23 C18 0.929 . S
O24 Mn0 2.385 1_556 S
O24 C2 1.234 1_655 S
O25 Mn0 2.209 1_456 S
O25 Mn1 2.215 1_556 S
O25 C2 1.283 . S
O26 Mn0 2.094 . S
O26 C4 1.230 1_655 S
O27 Mn1 2.117 . S
O27 C4 1.291 . S
C28 C21 1.403 . S
C28 C29 1.399 . S
C28 H34 0.929 . S
C29 C9 1.449 . S
C29 C28 1.399 . S
C29 H35 0.930 . S
H30 C10 0.931 . S
H31 C11 0.930 . S
H32 C19 0.931 . S
H33 C20 0.929 . S
H34 C28 0.929 . S
H35 C29 0.930 . S
Mn36 O41 2.095 1_554 S
Mn36 O51 2.162 . S
Mn36 O52 2.297 . S
Mn36 O60 2.385 . S
Mn36 O61 2.209 . S
Mn36 O62 2.094 1_554 S
Mn37 O42 2.121 . S
Mn37 N44 2.257 1_556 S
Mn37 N53 2.282 1_556 S
Mn37 O61 2.215 1_556 S
Mn37 O63 2.117 . S
C38 O60 1.234 . S
C38 O61 1.283 . S
C39 O51 1.281 . S
C39 O52 1.236 . S
C40 O62 1.240 . S
C40 O63 1.264 . S
O41 Mn36 2.095 1_556 S
O41 C50 1.250 . S
O42 Mn37 2.121 . S
O42 C50 1.258 . S
C43 N44 1.326 . S
C43 C47 1.460 . S
C43 H49 0.929 . S
N44 Mn37 2.257 1_554 S
N44 C43 1.326 . S
N44 C48 1.362 . S
C45 C46 1.258 . S
C45 C48 1.431 . S
C45 C65 1.449 . S
C46 C45 1.258 . S
C46 C47 1.477 . S
C46 H66 0.931 . S
C47 C43 1.460 . S
C47 C46 1.477 . S
C47 H67 0.930 . S
C48 N44 1.362 . S
C48 C45 1.431 . S
C48 C58 1.476 . S
H49 C43 0.929 . S
C50 O41 1.250 . S
C50 O42 1.258 . S
O51 Mn36 2.162 . S
O51 C39 1.281 . S
O52 Mn36 2.297 . S
O52 C39 1.236 . S
N53 Mn37 2.282 1_554 S
N53 C54 1.328 . S
N53 C58 1.318 . S
C54 N53 1.328 . S
C54 C55 1.457 . S
C54 H59 0.929 1_554 S
C55 C54 1.457 . S
C55 C56 1.291 . S
C55 H68 0.931 . S
C56 C55 1.291 . S
C56 C57 1.373 . S
C56 H69 0.929 . S
C57 C56 1.373 . S
C57 C58 1.396 . S
C57 C64 1.403 . S
C58 C48 1.476 . S
C58 N53 1.318 . S
C58 C57 1.396 . S
H59 C54 0.929 1_556 S
O60 Mn36 2.385 . S
O60 C38 1.234 . S
O61 Mn36 2.209 . S
O61 Mn37 2.215 1_554 S
O61 C38 1.283 . S
O62 Mn36 2.094 1_556 S
O62 C40 1.240 . S
O63 Mn37 2.117 . S
O63 C40 1.264 . S
C64 C57 1.403 . S
C64 C65 1.399 . S
C64 H70 0.929 . S
C65 C45 1.449 . S
C65 C64 1.399 . S
C65 H71 0.930 . S
H66 C46 0.931 . S
H67 C47 0.930 . S
H68 C55 0.931 . S
H69 C56 0.929 . S
H70 C64 0.929 . S
H71 C65 0.930 . S
Mn72 O77 2.095 1_564 S
Mn72 O87 2.162 . S
Mn72 O88 2.297 . S
Mn72 O96 2.385 . S
Mn72 O97 2.209 1_565 S
Mn72 O98 2.094 1_554 S
Mn73 O78 2.121 1_554 S
Mn73 N80 2.257 . S
Mn73 N89 2.282 . S
Mn73 O97 2.215 . S
Mn73 O99 2.117 1_554 S
C74 O96 1.202 1_545 S
C74 O97 1.316 . S
C75 O87 1.281 . S
C75 O88 1.236 . S
C76 O98 1.254 . S
C76 O99 1.234 1_565 S
O77 Mn72 2.095 1_546 S
O77 C86 1.250 . S
O78 Mn73 2.121 1_556 S
O78 C86 1.258 . S
C79 N80 1.326 . S
C79 C83 1.460 . S
C79 H85 0.929 . S
N80 Mn73 2.257 . S
N80 C79 1.326 . S
N80 C84 1.362 . S
C81 C82 1.258 . S
C81 C84 1.431 . S
C81 C101 1.449 . S
C82 C81 1.258 . S
C82 C83 1.477 . S
C82 H102 0.931 . S
C83 C79 1.460 . S
C83 C82 1.477 . S
C83 H103 0.930 . S
C84 N80 1.362 . S
C84 C81 1.431 . S
C84 C94 1.476 . S
H85 C79 0.929 . S
C86 O77 1.250 . S
C86 O78 1.258 . S
O87 Mn72 2.162 . S
O87 C75 1.281 . S
O88 Mn72 2.297 . S
O88 C75 1.236 . S
N89 Mn73 2.282 . S
N89 C90 1.328 . S
N89 C94 1.318 . S
C90 N89 1.328 . S
C90 C91 1.457 . S
C90 H95 0.930 . S
C91 C90 1.457 . S
C91 C92 1.291 . S
C91 H104 0.931 . S
C92 C91 1.291 . S
C92 C93 1.373 . S
C92 H105 0.929 . S
C93 C92 1.373 . S
C93 C94 1.396 . S
C93 C100 1.403 . S
C94 C84 1.476 . S
C94 N89 1.318 . S
C94 C93 1.396 . S
H95 C90 0.930 . S
O96 Mn72 2.385 . S
O96 C74 1.202 1_565 S
O97 Mn72 2.209 1_545 S
O97 Mn73 2.215 . S
O97 C74 1.316 . S
O98 Mn72 2.094 1_556 S
O98 C76 1.254 . S
O99 Mn73 2.117 1_556 S
O99 C76 1.234 1_545 S
C100 C93 1.403 . S
C100 C101 1.399 . S
C100 H106 0.929 . S
C101 C81 1.449 . S
C101 C100 1.399 . S
C101 H107 0.930 . S
H102 C82 0.931 . S
H103 C83 0.930 . S
H104 C91 0.931 . S
H105 C92 0.929 . S
H106 C100 0.929 . S
H107 C101 0.930 . S
Mn108 O113 2.095 1_655 S
Mn108 O123 2.162 . S
Mn108 O124 2.297 1_554 S
Mn108 O132 2.385 1_554 S
Mn108 O133 2.209 1_654 S
Mn108 O134 2.094 . S
Mn109 O114 2.121 . S
Mn109 N116 2.257 1_554 S
Mn109 N125 2.282 1_554 S
Mn109 O133 2.215 1_554 S
Mn109 O135 2.117 . S
C110 O132 1.234 1_455 S
C110 O133 1.283 . S
C111 O123 1.281 1_556 S
C111 O124 1.236 . S
C112 O134 1.234 1_455 S
C112 O135 1.270 . S
O113 Mn108 2.095 1_455 S
O113 C122 1.250 . S
O114 Mn109 2.121 . S
O114 C122 1.258 . S
C115 N116 1.326 . S
C115 C119 1.460 . S
C115 H121 0.929 . S
N116 Mn109 2.257 1_556 S
N116 C115 1.326 . S
N116 C120 1.362 . S
C117 C118 1.258 . S
C117 C120 1.431 . S
C117 C137 1.449 . S
C118 C117 1.258 . S
C118 C119 1.477 . S
C118 H138 0.931 . S
C119 C115 1.460 . S
C119 C118 1.477 . S
C119 H139 0.930 . S
C120 N116 1.362 . S
C120 C117 1.431 . S
C120 C130 1.476 . S
H121 C115 0.929 . S
C122 O113 1.250 . S
C122 O114 1.258 . S
O123 Mn108 2.162 . S
O123 C111 1.281 1_554 S
O124 Mn108 2.297 1_556 S
O124 C111 1.236 . S
N125 Mn109 2.282 1_556 S
N125 C126 1.328 1_556 S
N125 C130 1.318 . S
C126 N125 1.328 1_554 S
C126 C127 1.457 1_554 S
C126 H131 0.929 . S
C127 C126 1.457 1_556 S
C127 C128 1.291 . S
C127 H140 0.931 . S
C128 C127 1.291 . S
C128 C129 1.373 . S
C128 H141 0.929 . S
C129 C128 1.373 . S
C129 C130 1.396 . S
C129 C136 1.403 . S
C130 C120 1.476 . S
C130 N125 1.318 . S
C130 C129 1.396 . S
H131 C126 0.929 . S
O132 Mn108 2.385 1_556 S
O132 C110 1.234 1_655 S
O133 Mn108 2.209 1_456 S
O133 Mn109 2.215 1_556 S
O133 C110 1.283 . S
O134 Mn108 2.094 . S
O134 C112 1.234 1_655 S
O135 Mn109 2.117 . S
O135 C112 1.270 . S
C136 C129 1.403 . S
C136 C137 1.399 . S
C136 H142 0.929 . S
C137 C117 1.449 . S
C137 C136 1.399 . S
C137 H143 0.930 . S
H138 C118 0.931 . S
H139 C119 0.930 . S
H140 C127 0.931 . S
H141 C128 0.929 . S
H142 C136 0.929 . S
H143 C137 0.930 . S
Mn144 O149 2.095 1_554 S
Mn144 O159 2.162 . S
Mn144 O160 2.297 . S
Mn144 O168 2.385 . S
Mn144 O169 2.209 . S
Mn144 O170 2.094 1_554 S
Mn145 O150 2.126 . S
Mn145 N152 2.236 1_556 S
Mn145 N161 2.271 1_556 S
Mn145 O169 2.193 1_556 S
Mn145 O171 2.138 . S
C146 O168 1.234 . S
C146 O169 1.283 . S
C147 O159 1.281 . S
C147 O160 1.236 . S
C148 O170 1.240 . S
C148 O171 1.264 . S
O149 Mn144 2.095 1_556 S
O149 C158 1.250 . S
O150 Mn145 2.126 . S
O150 C158 1.258 . S
C151 N152 1.326 . S
C151 C155 1.460 . S
C151 H157 0.929 . S
N152 Mn145 2.236 1_554 S
N152 C151 1.326 . S
N152 C156 1.362 . S
C153 C154 1.258 . S
C153 C156 1.431 . S
C153 C173 1.449 . S
C154 C153 1.258 . S
C154 C155 1.477 . S
C154 H174 0.931 . S
C155 C151 1.460 . S
C155 C154 1.477 . S
C155 H175 0.930 . S
C156 N152 1.362 . S
C156 C153 1.431 . S
C156 C166 1.476 . S
H157 C151 0.929 . S
C158 O149 1.250 . S
C158 O150 1.258 . S
O159 Mn144 2.162 . S
O159 C147 1.281 . S
O160 Mn144 2.297 . S
O160 C147 1.236 . S
N161 Mn145 2.271 1_554 S
N161 C162 1.328 . S
N161 C166 1.318 . S
C162 N161 1.328 . S
C162 C163 1.457 . S
C162 H167 0.929 1_554 S
C163 C162 1.457 . S
C163 C164 1.291 . S
C163 H176 0.931 . S
C164 C163 1.291 . S
C164 C165 1.373 . S
C164 H177 0.929 . S
C165 C164 1.373 . S
C165 C166 1.396 . S
C165 C172 1.403 . S
C166 C156 1.476 . S
C166 N161 1.318 . S
C166 C165 1.396 . S
H167 C162 0.929 1_556 S
O168 Mn144 2.385 . S
O168 C146 1.234 . S
O169 Mn144 2.209 . S
O169 Mn145 2.193 1_554 S
O169 C146 1.283 . S
O170 Mn144 2.094 1_556 S
O170 C148 1.240 . S
O171 Mn145 2.138 . S
O171 C148 1.264 . S
C172 C165 1.403 . S
C172 C173 1.399 . S
C172 H178 0.929 . S
C173 C153 1.449 . S
C173 C172 1.399 . S
C173 H179 0.930 . S
H174 C154 0.931 . S
H175 C155 0.930 . S
H176 C163 0.931 . S
H177 C164 0.929 . S
H178 C172 0.929 . S
H179 C173 0.930 . S
Mn180 O185 2.095 1_545 S
Mn180 O195 2.162 . S
Mn180 O196 2.297 1_554 S
Mn180 O204 2.385 1_554 S
Mn180 O205 2.209 1_544 S
Mn180 O206 2.094 . S
Mn181 O186 2.121 . S
Mn181 N188 2.257 1_554 S
Mn181 N197 2.282 1_554 S
Mn181 O205 2.215 1_554 S
Mn181 O207 2.117 . S
C182 O204 1.234 1_565 S
C182 O205 1.283 . S
C183 O195 1.281 1_556 S
C183 O196 1.236 . S
C184 O206 1.240 . S
C184 O207 1.264 1_545 S
O185 Mn180 2.095 1_565 S
O185 C194 1.250 . S
O186 Mn181 2.121 . S
O186 C194 1.258 . S
C187 N188 1.326 . S
C187 C191 1.460 . S
C187 H193 0.929 . S
N188 Mn181 2.257 1_556 S
N188 C187 1.326 . S
N188 C192 1.362 . S
C189 C190 1.258 . S
C189 C192 1.431 . S
C189 C209 1.449 . S
C190 C189 1.258 . S
C190 C191 1.477 . S
C190 H210 0.931 . S
C191 C187 1.460 . S
C191 C190 1.477 . S
C191 H211 0.930 . S
C192 N188 1.362 . S
C192 C189 1.431 . S
C192 C202 1.476 . S
H193 C187 0.929 . S
C194 O185 1.250 . S
C194 O186 1.258 . S
O195 Mn180 2.162 . S
O195 C183 1.281 1_554 S
O196 Mn180 2.297 1_556 S
O196 C183 1.236 . S
N197 Mn181 2.282 1_556 S
N197 C198 1.328 1_556 S
N197 C202 1.318 . S
C198 N197 1.328 1_554 S
C198 C199 1.457 1_554 S
C198 H203 0.929 . S
C199 C198 1.457 1_556 S
C199 C200 1.291 . S
C199 H212 0.931 . S
C200 C199 1.291 . S
C200 C201 1.373 . S
C200 H213 0.929 . S
C201 C200 1.373 . S
C201 C202 1.396 . S
C201 C208 1.403 . S
C202 C192 1.476 . S
C202 N197 1.318 . S
C202 C201 1.396 . S
H203 C198 0.929 . S
O204 Mn180 2.385 1_556 S
O204 C182 1.234 1_545 S
O205 Mn180 2.209 1_566 S
O205 Mn181 2.215 1_556 S
O205 C182 1.283 . S
O206 Mn180 2.094 . S
O206 C184 1.240 . S
O207 Mn181 2.117 . S
O207 C184 1.264 1_565 S
C208 C201 1.403 . S
C208 C209 1.399 . S
C208 H214 0.929 . S
C209 C189 1.449 . S
C209 C208 1.399 . S
C209 H215 0.930 . S
H210 C190 0.931 . S
H211 C191 0.930 . S
H212 C199 0.931 . S
H213 C200 0.929 . S
H214 C208 0.929 . S
H215 C209 0.930 . S
Mn216 O221 2.095 . S
Mn216 O231 2.162 . S
Mn216 O232 2.297 . S
Mn216 O240 2.385 . S
Mn216 O241 2.209 . S
Mn216 O242 2.094 . S
Mn217 O222 2.121 . S
Mn217 N224 2.257 . S
Mn217 N233 2.282 . S
Mn217 O241 2.215 . S
Mn217 O243 2.117 . S
C218 O240 1.234 . S
C218 O241 1.283 . S
C219 O231 1.281 . S
C219 O232 1.236 . S
C220 O242 1.240 . S
C220 O243 1.264 . S
O221 Mn216 2.095 . S
O221 C230 1.250 . S
O222 Mn217 2.121 . S
O222 C230 1.258 . S
C223 N224 1.326 . S
C223 C227 1.460 . S
C223 H229 0.929 . S
N224 Mn217 2.257 . S
N224 C223 1.326 . S
N224 C228 1.362 . S
C225 C226 1.258 . S
C225 C228 1.431 . S
C225 C245 1.449 . S
C226 C225 1.258 . S
C226 C227 1.477 . S
C226 H246 0.931 . S
C227 C223 1.460 . S
C227 C226 1.477 . S
C227 H247 0.930 . S
C228 N224 1.362 . S
C228 C225 1.431 . S
C228 C238 1.476 . S
H229 C223 0.929 . S
C230 O221 1.250 . S
C230 O222 1.258 . S
O231 Mn216 2.162 . S
O231 C219 1.281 . S
O232 Mn216 2.297 . S
O232 C219 1.236 . S
N233 Mn217 2.282 . S
N233 C234 1.328 . S
N233 C238 1.318 . S
C234 N233 1.328 . S
C234 C235 1.457 . S
C234 H239 0.929 . S
C235 C234 1.457 . S
C235 C236 1.291 . S
C235 H248 0.931 . S
C236 C235 1.291 . S
C236 C237 1.373 . S
C236 H249 0.929 . S
C237 C236 1.373 . S
C237 C238 1.396 . S
C237 C244 1.403 . S
C238 C228 1.476 . S
C238 N233 1.318 . S
C238 C237 1.396 . S
H239 C234 0.929 . S
O240 Mn216 2.385 . S
O240 C218 1.234 . S
O241 Mn216 2.209 . S
O241 Mn217 2.215 . S
O241 C218 1.283 . S
O242 Mn216 2.094 . S
O242 C220 1.240 . S
O243 Mn217 2.117 . S
O243 C220 1.264 . S
C244 C237 1.403 . S
C244 C245 1.399 . S
C244 H250 0.929 . S
C245 C225 1.449 . S
C245 C244 1.399 . S
C245 H251 0.930 . S
H246 C226 0.931 . S
H247 C227 0.930 . S
H248 C235 0.931 . S
H249 C236 0.929 . S
H250 C244 0.929 . S
H251 C245 0.930 . S
Mn252 O257 2.095 . S
Mn252 O267 2.162 1_565 S
Mn252 O268 2.297 1_565 S
Mn252 O276 2.385 . S
Mn252 O277 2.209 . S
Mn252 O278 2.094 . S
Mn253 O258 2.121 . S
Mn253 N260 2.257 . S
Mn253 N269 2.282 . S
Mn253 O277 2.215 . S
Mn253 O279 2.117 . S
C254 O276 1.234 . S
C254 O277 1.283 . S
C255 O267 1.281 . S
C255 O268 1.236 . S
C256 O278 1.240 . S
C256 O279 1.264 . S
O257 Mn252 2.095 . S
O257 C266 1.250 . S
O258 Mn253 2.121 . S
O258 C266 1.258 . S
C259 N260 1.326 . S
C259 C263 1.460 . S
C259 H265 0.929 . S
N260 Mn253 2.257 . S
N260 C259 1.326 . S
N260 C264 1.362 . S
C261 C262 1.258 . S
C261 C264 1.431 . S
C261 C281 1.449 . S
C262 C261 1.258 . S
C262 C263 1.477 . S
C262 H282 0.931 . S
C263 C259 1.460 . S
C263 C262 1.477 . S
C263 H283 0.930 . S
C264 N260 1.362 . S
C264 C261 1.431 . S
C264 C274 1.476 . S
H265 C259 0.929 . S
C266 O257 1.250 . S
C266 O258 1.258 . S
O267 Mn252 2.162 1_545 S
O267 C255 1.281 . S
O268 Mn252 2.297 1_545 S
O268 C255 1.236 . S
N269 Mn253 2.282 . S
N269 C270 1.328 . S
N269 C274 1.318 . S
C270 N269 1.328 . S
C270 C271 1.457 . S
C270 H275 0.929 . S
C271 C270 1.457 . S
C271 C272 1.291 . S
C271 H284 0.931 . S
C272 C271 1.291 . S
C272 C273 1.373 . S
C272 H285 0.929 . S
C273 C272 1.373 . S
C273 C274 1.396 . S
C273 C280 1.403 . S
C274 C264 1.476 . S
C274 N269 1.318 . S
C274 C273 1.396 . S
H275 C270 0.929 . S
O276 Mn252 2.385 . S
O276 C254 1.234 . S
O277 Mn252 2.209 . S
O277 Mn253 2.215 . S
O277 C254 1.283 . S
O278 Mn252 2.094 . S
O278 C256 1.240 . S
O279 Mn253 2.117 . S
O279 C256 1.264 . S
C280 C273 1.403 . S
C280 C281 1.399 . S
C280 H286 0.929 . S
C281 C261 1.449 . S
C281 C280 1.399 . S
C281 H287 0.930 . S
H282 C262 0.931 . S
H283 C263 0.930 . S
H284 C271 0.931 . S
H285 C272 0.929 . S
H286 C280 0.929 . S
H287 C281 0.930 . S
Mn288 O293 2.095 . S
Mn288 O303 2.162 1_455 S
Mn288 O304 2.297 1_455 S
Mn288 O312 2.385 . S
Mn288 O313 2.209 . S
Mn288 O314 2.094 . S
Mn289 O294 2.121 . S
Mn289 N296 2.257 . S
Mn289 N305 2.282 . S
Mn289 O313 2.215 . S
Mn289 O315 2.117 . S
C290 O312 1.234 . S
C290 O313 1.283 . S
C291 O303 1.281 . S
C291 O304 1.236 . S
C292 O314 1.240 . S
C292 O315 1.264 . S
O293 Mn288 2.095 . S
O293 C302 1.250 . S
O294 Mn289 2.121 . S
O294 C302 1.258 . S
C295 N296 1.326 . S
C295 C299 1.460 . S
C295 H301 0.929 . S
N296 Mn289 2.257 . S
N296 C295 1.326 . S
N296 C300 1.362 . S
C297 C298 1.258 . S
C297 C300 1.431 . S
C297 C317 1.449 . S
C298 C297 1.258 . S
C298 C299 1.477 . S
C298 H318 0.931 . S
C299 C295 1.460 . S
C299 C298 1.477 . S
C299 H319 0.930 . S
C300 N296 1.362 . S
C300 C297 1.431 . S
C300 C310 1.476 . S
H301 C295 0.929 . S
C302 O293 1.250 . S
C302 O294 1.258 . S
O303 Mn288 2.162 1_655 S
O303 C291 1.281 . S
O304 Mn288 2.297 1_655 S
O304 C291 1.236 . S
N305 Mn289 2.282 . S
N305 C306 1.328 . S
N305 C310 1.318 . S
C306 N305 1.328 . S
C306 C307 1.457 . S
C306 H311 0.929 . S
C307 C306 1.457 . S
C307 C308 1.291 . S
C307 H320 0.931 . S
C308 C307 1.291 . S
C308 C309 1.373 . S
C308 H321 0.929 . S
C309 C308 1.373 . S
C309 C310 1.396 . S
C309 C316 1.403 . S
C310 C300 1.476 . S
C310 N305 1.318 . S
C310 C309 1.396 . S
H311 C306 0.929 . S
O312 Mn288 2.385 . S
O312 C290 1.234 . S
O313 Mn288 2.209 . S
O313 Mn289 2.215 . S
O313 C290 1.283 . S
O314 Mn288 2.094 . S
O314 C292 1.240 . S
O315 Mn289 2.117 . S
O315 C292 1.264 . S
C316 C309 1.403 . S
C316 C317 1.399 . S
C316 H322 0.929 . S
C317 C297 1.449 . S
C317 C316 1.399 . S
C317 H323 0.930 . S
H318 C298 0.931 . S
H319 C299 0.930 . S
H320 C307 0.931 . S
H321 C308 0.929 . S
H322 C316 0.929 . S
H323 C317 0.930 . S
Mn324 O329 2.095 1_565 S
Mn324 O339 2.162 . S
Mn324 O340 2.308 . S
Mn324 O348 2.385 . S
Mn324 O349 2.209 . S
Mn324 O350 2.094 . S
Mn325 O330 2.121 1_565 S
Mn325 N332 2.257 . S
Mn325 N341 2.282 . S
Mn325 O349 2.215 . S
Mn325 O351 2.117 . S
C326 O348 1.234 . S
C326 O349 1.283 . S
C327 O339 1.281 . S
C327 O340 1.234 . S
C328 O350 1.240 . S
C328 O351 1.264 . S
O329 Mn324 2.095 1_545 S
O329 C338 1.250 . S
O330 Mn325 2.121 1_545 S
O330 C338 1.258 . S
C331 N332 1.326 1_545 S
C331 C335 1.460 . S
C331 H337 0.929 . S
N332 Mn325 2.257 . S
N332 C331 1.326 1_565 S
N332 C336 1.362 . S
C333 C334 1.258 1_565 S
C333 C336 1.431 . S
C333 C353 1.449 . S
C334 C333 1.258 1_545 S
C334 C335 1.477 . S
C334 H354 0.931 . S
C335 C331 1.460 . S
C335 C334 1.477 . S
C335 H355 0.930 . S
C336 N332 1.362 . S
C336 C333 1.431 . S
C336 C346 1.476 . S
H337 C331 0.929 . S
C338 O329 1.250 . S
C338 O330 1.258 . S
O339 Mn324 2.162 . S
O339 C327 1.281 . S
O340 Mn324 2.308 . S
O340 C327 1.234 . S
N341 Mn325 2.282 . S
N341 C342 1.328 . S
N341 C346 1.318 . S
C342 N341 1.328 . S
C342 C343 1.457 . S
C342 H347 0.929 . S
C343 C342 1.457 . S
C343 C344 1.291 . S
C343 H356 0.931 . S
C344 C343 1.291 . S
C344 C345 1.373 . S
C344 H357 0.929 . S
C345 C344 1.373 . S
C345 C346 1.396 . S
C345 C352 1.403 . S
C346 C336 1.476 . S
C346 N341 1.318 . S
C346 C345 1.396 . S
H347 C342 0.929 . S
O348 Mn324 2.385 . S
O348 C326 1.234 . S
O349 Mn324 2.209 . S
O349 Mn325 2.215 . S
O349 C326 1.283 . S
O350 Mn324 2.094 . S
O350 C328 1.240 . S
O351 Mn325 2.117 . S
O351 C328 1.264 . S
C352 C345 1.403 . S
C352 C353 1.399 . S
C352 H358 0.929 . S
C353 C333 1.449 . S
C353 C352 1.399 . S
C353 H359 0.930 . S
H354 C334 0.931 . S
H355 C335 0.930 . S
H356 C343 0.931 . S
H357 C344 0.929 . S
H358 C352 0.929 . S
H359 C353 0.930 . S
Mn360 O365 2.095 . S
Mn360 O375 2.162 1_455 S
Mn360 O376 2.297 1_455 S
Mn360 O384 2.385 . S
Mn360 O385 2.209 . S
Mn360 O386 2.094 . S
Mn361 O366 2.121 . S
Mn361 N368 2.257 . S
Mn361 N377 2.282 . S
Mn361 O385 2.215 . S
Mn361 O387 2.117 . S
C362 O384 1.234 . S
C362 O385 1.283 . S
C363 O375 1.281 . S
C363 O376 1.236 . S
C364 O386 1.240 . S
C364 O387 1.264 . S
O365 Mn360 2.095 . S
O365 C374 1.250 . S
O366 Mn361 2.121 . S
O366 C374 1.258 . S
C367 N368 1.326 . S
C367 C371 1.460 . S
C367 H373 0.929 . S
N368 Mn361 2.257 . S
N368 C367 1.326 . S
N368 C372 1.362 . S
C369 C370 1.258 . S
C369 C372 1.431 . S
C369 C389 1.449 . S
C370 C369 1.258 . S
C370 C371 1.477 . S
C370 H390 0.931 . S
C371 C367 1.460 . S
C371 C370 1.477 . S
C371 H391 0.930 . S
C372 N368 1.362 . S
C372 C369 1.431 . S
C372 C382 1.476 . S
H373 C367 0.929 . S
C374 O365 1.250 . S
C374 O366 1.258 . S
O375 Mn360 2.162 1_655 S
O375 C363 1.281 . S
O376 Mn360 2.297 1_655 S
O376 C363 1.236 . S
N377 Mn361 2.282 . S
N377 C378 1.328 . S
N377 C382 1.318 . S
C378 N377 1.328 . S
C378 C379 1.457 . S
C378 H383 0.929 . S
C379 C378 1.457 . S
C379 C380 1.291 . S
C379 H392 0.931 . S
C380 C379 1.291 . S
C380 C381 1.373 . S
C380 H393 0.929 . S
C381 C380 1.373 . S
C381 C382 1.396 . S
C381 C388 1.403 . S
C382 C372 1.476 . S
C382 N377 1.318 . S
C382 C381 1.396 . S
H383 C378 0.929 . S
O384 Mn360 2.385 . S
O384 C362 1.234 . S
O385 Mn360 2.209 . S
O385 Mn361 2.215 . S
O385 C362 1.283 . S
O386 Mn360 2.094 . S
O386 C364 1.240 . S
O387 Mn361 2.117 . S
O387 C364 1.264 . S
C388 C381 1.403 . S
C388 C389 1.399 . S
C388 H394 0.929 . S
C389 C369 1.449 . S
C389 C388 1.399 . S
C389 H395 0.930 . S
H390 C370 0.931 . S
H391 C371 0.930 . S
H392 C379 0.931 . S
H393 C380 0.929 . S
H394 C388 0.929 . S
H395 C389 0.930 . S
Mn396 O401 2.095 . S
Mn396 O411 2.162 . S
Mn396 O412 2.297 . S
Mn396 O420 2.385 . S
Mn396 O421 2.209 . S
Mn396 O422 2.094 . S
Mn397 O402 2.121 . S
Mn397 N404 2.257 . S
Mn397 N413 2.282 . S
Mn397 O421 2.215 . S
Mn397 O423 2.117 . S
C398 O420 1.234 . S
C398 O421 1.283 . S
C399 O411 1.281 . S
C399 O412 1.236 . S
C400 O422 1.240 . S
C400 O423 1.264 . S
O401 Mn396 2.095 . S
O401 C410 1.250 . S
O402 Mn397 2.121 . S
O402 C410 1.258 . S
C403 N404 1.326 . S
C403 C407 1.460 . S
C403 H409 0.929 . S
N404 Mn397 2.257 . S
N404 C403 1.326 . S
N404 C408 1.362 . S
C405 C406 1.258 . S
C405 C408 1.431 . S
C405 C425 1.449 . S
C406 C405 1.258 . S
C406 C407 1.477 . S
C406 H426 0.931 . S
C407 C403 1.460 . S
C407 C406 1.477 . S
C407 H427 0.930 . S
C408 N404 1.362 . S
C408 C405 1.431 . S
C408 C418 1.476 . S
H409 C403 0.929 . S
C410 O401 1.250 . S
C410 O402 1.258 . S
O411 Mn396 2.162 . S
O411 C399 1.281 . S
O412 Mn396 2.297 . S
O412 C399 1.236 . S
N413 Mn397 2.282 . S
N413 C414 1.328 . S
N413 C418 1.318 . S
C414 N413 1.328 . S
C414 C415 1.457 . S
C414 H419 0.929 . S
C415 C414 1.457 . S
C415 C416 1.291 . S
C415 H428 0.931 . S
C416 C415 1.291 . S
C416 C417 1.373 . S
C416 H429 0.929 . S
C417 C416 1.373 . S
C417 C418 1.396 . S
C417 C424 1.403 . S
C418 C408 1.476 . S
C418 N413 1.318 . S
C418 C417 1.396 . S
H419 C414 0.929 . S
O420 Mn396 2.385 . S
O420 C398 1.234 . S
O421 Mn396 2.209 . S
O421 Mn397 2.215 . S
O421 C398 1.283 . S
O422 Mn396 2.094 . S
O422 C400 1.240 . S
O423 Mn397 2.117 . S
O423 C400 1.264 . S
C424 C417 1.403 . S
C424 C425 1.399 . S
C424 H430 0.929 . S
C425 C405 1.449 . S
C425 C424 1.399 . S
C425 H431 0.930 . S
H426 C406 0.931 . S
H427 C407 0.930 . S
H428 C415 0.931 . S
H429 C416 0.929 . S
H430 C424 0.929 . S
H431 C425 0.930 . S
Mn432 O437 2.095 . S
Mn432 O447 2.162 1_545 S
Mn432 O448 2.297 1_545 S
Mn432 O456 2.385 . S
Mn432 O457 2.209 . S
Mn432 O458 2.094 . S
Mn433 O438 2.121 . S
Mn433 N440 2.257 . S
Mn433 N449 2.282 . S
Mn433 O457 2.215 . S
Mn433 O459 2.117 . S
C434 O456 1.234 . S
C434 O457 1.283 . S
C435 O447 1.281 . S
C435 O448 1.236 . S
C436 O458 1.240 . S
C436 O459 1.264 . S
O437 Mn432 2.095 . S
O437 C446 1.250 . S
O438 Mn433 2.121 . S
O438 C446 1.258 . S
C439 N440 1.326 . S
C439 C443 1.460 . S
C439 H445 0.929 . S
N440 Mn433 2.257 . S
N440 C439 1.326 . S
N440 C444 1.362 . S
C441 C442 1.258 . S
C441 C444 1.431 . S
C441 C461 1.449 . S
C442 C441 1.258 . S
C442 C443 1.477 . S
C442 H462 0.931 . S
C443 C439 1.460 . S
C443 C442 1.477 . S
C443 H463 0.930 . S
C444 N440 1.362 . S
C444 C441 1.431 . S
C444 C454 1.476 . S
H445 C439 0.929 . S
C446 O437 1.250 . S
C446 O438 1.258 . S
O447 Mn432 2.162 1_565 S
O447 C435 1.281 . S
O448 Mn432 2.297 1_565 S
O448 C435 1.236 . S
N449 Mn433 2.282 . S
N449 C450 1.328 . S
N449 C454 1.318 . S
C450 N449 1.328 . S
C450 C451 1.457 . S
C450 H455 0.929 . S
C451 C450 1.457 . S
C451 C452 1.291 . S
C451 H464 0.931 . S
C452 C451 1.291 . S
C452 C453 1.373 . S
C452 H465 0.929 . S
C453 C452 1.373 . S
C453 C454 1.396 . S
C453 C460 1.403 . S
C454 C444 1.476 . S
C454 N449 1.318 . S
C454 C453 1.396 . S
H455 C450 0.929 . S
O456 Mn432 2.385 . S
O456 C434 1.234 . S
O457 Mn432 2.209 . S
O457 Mn433 2.215 . S
O457 C434 1.283 . S
O458 Mn432 2.094 . S
O458 C436 1.240 . S
O459 Mn433 2.117 . S
O459 C436 1.264 . S
C460 C453 1.403 . S
C460 C461 1.399 . S
C460 H466 0.929 . S
C461 C441 1.449 . S
C461 C460 1.399 . S
C461 H467 0.930 . S
H462 C442 0.931 . S
H463 C443 0.930 . S
H464 C451 0.931 . S
H465 C452 0.929 . S
H466 C460 0.929 . S
H467 C461 0.930 . S
Mn468 O473 2.095 1_655 S
Mn468 O483 2.162 . S
Mn468 O484 2.297 . S
Mn468 O492 2.385 . S
Mn468 O493 2.209 . S
Mn468 O494 2.094 . S
Mn469 O474 2.121 1_655 S
Mn469 N476 2.257 . S
Mn469 N485 2.282 . S
Mn469 O493 2.215 . S
Mn469 O495 2.117 . S
C470 O492 1.234 . S
C470 O493 1.283 . S
C471 O483 1.281 . S
C471 O484 1.236 . S
C472 O494 1.240 . S
C472 O495 1.264 . S
O473 Mn468 2.095 1_455 S
O473 C482 1.250 . S
O474 Mn469 2.121 1_455 S
O474 C482 1.258 . S
C475 N476 1.326 1_455 S
C475 C479 1.460 . S
C475 H481 0.929 . S
N476 Mn469 2.257 . S
N476 C475 1.326 1_655 S
N476 C480 1.362 . S
C477 C478 1.258 1_655 S
C477 C480 1.431 . S
C477 C497 1.449 . S
C478 C477 1.258 1_455 S
C478 C479 1.477 . S
C478 H498 0.931 . S
C479 C475 1.460 . S
C479 C478 1.477 . S
C479 H499 0.930 . S
C480 N476 1.362 . S
C480 C477 1.431 . S
C480 C490 1.476 . S
H481 C475 0.929 . S
C482 O473 1.250 . S
C482 O474 1.258 . S
O483 Mn468 2.162 . S
O483 C471 1.281 . S
O484 Mn468 2.297 . S
O484 C471 1.236 . S
N485 Mn469 2.282 . S
N485 C486 1.328 . S
N485 C490 1.318 . S
C486 N485 1.328 . S
C486 C487 1.457 . S
C486 H491 0.929 . S
C487 C486 1.457 . S
C487 C488 1.291 . S
C487 H500 0.931 . S
C488 C487 1.291 . S
C488 C489 1.373 . S
C488 H501 0.929 . S
C489 C488 1.373 . S
C489 C490 1.396 . S
C489 C496 1.403 . S
C490 C480 1.476 . S
C490 N485 1.318 . S
C490 C489 1.396 . S
H491 C486 0.929 . S
O492 Mn468 2.385 . S
O492 C470 1.234 . S
O493 Mn468 2.209 . S
O493 Mn469 2.215 . S
O493 C470 1.283 . S
O494 Mn468 2.094 . S
O494 C472 1.240 . S
O495 Mn469 2.117 . S
O495 C472 1.264 . S
C496 C489 1.403 . S
C496 C497 1.399 . S
C496 H502 0.929 . S
C497 C477 1.449 . S
C497 C496 1.399 . S
C497 H503 0.930 . S
H498 C478 0.931 . S
H499 C479 0.930 . S
H500 C487 0.931 . S
H501 C488 0.929 . S
H502 C496 0.929 . S
H503 C497 0.930 . S
Mn504 O509 2.095 . S
Mn504 O519 2.162 . S
Mn504 O520 2.297 . S
Mn504 O528 2.385 . S
Mn504 O529 2.209 . S
Mn504 O530 2.094 . S
Mn505 O510 2.121 . S
Mn505 N512 2.257 . S
Mn505 N521 2.282 . S
Mn505 O529 2.215 . S
Mn505 O531 2.117 . S
C506 O528 1.234 . S
C506 O529 1.283 . S
C507 O519 1.281 . S
C507 O520 1.236 . S
C508 O530 1.240 . S
C508 O531 1.264 . S
O509 Mn504 2.095 . S
O509 C518 1.250 . S
O510 Mn505 2.121 . S
O510 C518 1.258 . S
C511 N512 1.326 . S
C511 C515 1.460 . S
C511 H517 0.929 . S
N512 Mn505 2.257 . S
N512 C511 1.326 . S
N512 C516 1.362 . S
C513 C514 1.258 . S
C513 C516 1.431 . S
C513 C533 1.449 . S
C514 C513 1.258 . S
C514 C515 1.477 . S
C514 H534 0.931 . S
C515 C511 1.460 . S
C515 C514 1.477 . S
C515 H535 0.930 . S
C516 N512 1.362 . S
C516 C513 1.431 . S
C516 C526 1.476 . S
H517 C511 0.929 . S
C518 O509 1.250 . S
C518 O510 1.258 . S
O519 Mn504 2.162 . S
O519 C507 1.281 . S
O520 Mn504 2.297 . S
O520 C507 1.236 . S
N521 Mn505 2.282 . S
N521 C522 1.328 . S
N521 C526 1.318 . S
C522 N521 1.328 . S
C522 C523 1.457 . S
C522 H527 0.929 . S
C523 C522 1.457 . S
C523 C524 1.291 . S
C523 H536 0.931 . S
C524 C523 1.291 . S
C524 C525 1.373 . S
C524 H537 0.929 . S
C525 C524 1.373 . S
C525 C526 1.396 . S
C525 C532 1.403 . S
C526 C516 1.476 . S
C526 N521 1.318 . S
C526 C525 1.396 . S
H527 C522 0.929 . S
O528 Mn504 2.385 . S
O528 C506 1.234 . S
O529 Mn504 2.209 . S
O529 Mn505 2.215 . S
O529 C506 1.283 . S
O530 Mn504 2.094 . S
O530 C508 1.240 . S
O531 Mn505 2.117 . S
O531 C508 1.264 . S
C532 C525 1.403 . S
C532 C533 1.399 . S
C532 H538 0.929 . S
C533 C513 1.449 . S
C533 C532 1.399 . S
C533 H539 0.930 . S
H534 C514 0.931 . S
H535 C515 0.930 . S
H536 C523 0.931 . S
H537 C524 0.929 . S
H538 C532 0.929 . S
H539 C533 0.930 . S
Mn540 O545 2.095 . S
Mn540 O555 2.162 . S
Mn540 O556 2.297 . S
Mn540 O564 2.385 . S
Mn540 O565 2.209 . S
Mn540 O566 2.094 . S
Mn541 O546 2.121 . S
Mn541 N548 2.257 . S
Mn541 N557 2.282 . S
Mn541 O565 2.215 . S
Mn541 O567 2.117 . S
C542 O564 1.234 . S
C542 O565 1.283 . S
C543 O555 1.281 . S
C543 O556 1.236 . S
C544 O566 1.240 . S
C544 O567 1.264 . S
O545 Mn540 2.095 . S
O545 C554 1.250 . S
O546 Mn541 2.121 . S
O546 C554 1.258 . S
C547 N548 1.326 . S
C547 C551 1.460 . S
C547 H553 0.929 . S
N548 Mn541 2.257 . S
N548 C547 1.326 . S
N548 C552 1.362 . S
C549 C550 1.258 . S
C549 C552 1.431 . S
C549 C569 1.449 . S
C550 C549 1.258 . S
C550 C551 1.477 . S
C550 H570 0.931 . S
C551 C547 1.460 . S
C551 C550 1.477 . S
C551 H571 0.930 . S
C552 N548 1.362 . S
C552 C549 1.431 . S
C552 C562 1.476 . S
H553 C547 0.929 . S
C554 O545 1.250 . S
C554 O546 1.258 . S
O555 Mn540 2.162 . S
O555 C543 1.281 . S
O556 Mn540 2.297 . S
O556 C543 1.236 . S
N557 Mn541 2.282 . S
N557 C558 1.328 . S
N557 C562 1.318 . S
C558 N557 1.328 . S
C558 C559 1.457 . S
C558 H563 0.929 . S
C559 C558 1.457 . S
C559 C560 1.291 . S
C559 H572 0.931 . S
C560 C559 1.291 . S
C560 C561 1.373 . S
C560 H573 0.929 . S
C561 C560 1.373 . S
C561 C562 1.396 . S
C561 C568 1.403 . S
C562 C552 1.476 . S
C562 N557 1.318 . S
C562 C561 1.396 . S
H563 C558 0.929 . S
O564 Mn540 2.385 . S
O564 C542 1.234 . S
O565 Mn540 2.209 . S
O565 Mn541 2.215 . S
O565 C542 1.283 . S
O566 Mn540 2.094 . S
O566 C544 1.240 . S
O567 Mn541 2.117 . S
O567 C544 1.264 . S
C568 C561 1.403 . S
C568 C569 1.399 . S
C568 H574 0.929 . S
C569 C549 1.449 . S
C569 C568 1.399 . S
C569 H575 0.930 . S
H570 C550 0.931 . S
H571 C551 0.930 . S
H572 C559 0.931 . S
H573 C560 0.929 . S
H574 C568 0.929 . S
H575 C569 0.930 . S
Mn576 O581 2.095 1_545 S
Mn576 O591 2.162 . S
Mn576 O592 2.294 1_545 S
Mn576 O600 2.385 . S
Mn576 O601 2.209 . S
Mn576 O602 2.094 . S
Mn577 O582 2.121 1_545 S
Mn577 N584 2.257 . S
Mn577 N593 2.282 . S
Mn577 O601 2.215 . S
Mn577 O603 2.117 . S
C578 O600 1.234 . S
C578 O601 1.283 . S
C579 O591 1.281 . S
C579 O592 1.227 1_545 S
C580 O602 1.240 . S
C580 O603 1.264 . S
O581 Mn576 2.095 1_565 S
O581 C590 1.250 . S
O582 Mn577 2.121 1_565 S
O582 C590 1.258 . S
C583 N584 1.326 1_565 S
C583 C587 1.460 . S
C583 H589 0.929 . S
N584 Mn577 2.257 . S
N584 C583 1.326 1_545 S
N584 C588 1.362 . S
C585 C586 1.258 1_545 S
C585 C588 1.431 . S
C585 C605 1.449 . S
C586 C585 1.258 1_565 S
C586 C587 1.477 . S
C586 H606 0.931 . S
C587 C583 1.460 . S
C587 C586 1.477 . S
C587 H607 0.930 . S
C588 N584 1.362 . S
C588 C585 1.431 . S
C588 C598 1.476 . S
H589 C583 0.929 . S
C590 O581 1.250 . S
C590 O582 1.258 . S
O591 Mn576 2.162 . S
O591 C579 1.281 . S
O592 Mn576 2.294 1_565 S
O592 C579 1.227 1_565 S
N593 Mn577 2.282 . S
N593 C594 1.328 . S
N593 C598 1.318 . S
C594 N593 1.328 . S
C594 C595 1.457 . S
C594 H599 0.929 . S
C595 C594 1.457 . S
C595 C596 1.291 . S
C595 H608 0.931 . S
C596 C595 1.291 . S
C596 C597 1.373 . S
C596 H609 0.929 . S
C597 C596 1.373 . S
C597 C598 1.396 . S
C597 C604 1.403 . S
C598 C588 1.476 . S
C598 N593 1.318 . S
C598 C597 1.396 . S
H599 C594 0.929 . S
O600 Mn576 2.385 . S
O600 C578 1.234 . S
O601 Mn576 2.209 . S
O601 Mn577 2.215 . S
O601 C578 1.283 . S
O602 Mn576 2.094 . S
O602 C580 1.240 . S
O603 Mn577 2.117 . S
O603 C580 1.264 . S
C604 C597 1.403 . S
C604 C605 1.399 . S
C604 H610 0.929 . S
C605 C585 1.449 . S
C605 C604 1.399 . S
C605 H611 0.930 . S
H606 C586 0.931 . S
H607 C587 0.930 . S
H608 C595 0.931 . S
H609 C596 0.929 . S
H610 C604 0.929 . S
H611 C605 0.930 . S
Mn612 O617 2.095 . S
Mn612 O627 2.162 1_655 S
Mn612 O628 2.297 1_655 S
Mn612 O636 2.385 . S
Mn612 O637 2.209 . S
Mn612 O638 2.094 . S
Mn613 O618 2.121 . S
Mn613 N620 2.257 . S
Mn613 N629 2.282 . S
Mn613 O637 2.215 . S
Mn613 O639 2.117 . S
C614 O636 1.234 . S
C614 O637 1.283 . S
C615 O627 1.281 . S
C615 O628 1.236 . S
C616 O638 1.240 . S
C616 O639 1.264 . S
O617 Mn612 2.095 . S
O617 C626 1.250 . S
O618 Mn613 2.121 . S
O618 C626 1.258 . S
C619 N620 1.326 . S
C619 C623 1.460 . S
C619 H625 0.929 . S
N620 Mn613 2.257 . S
N620 C619 1.326 . S
N620 C624 1.362 . S
C621 C622 1.258 . S
C621 C624 1.431 . S
C621 C641 1.449 . S
C622 C621 1.258 . S
C622 C623 1.477 . S
C622 H642 0.931 . S
C623 C619 1.460 . S
C623 C622 1.477 . S
C623 H643 0.930 . S
C624 N620 1.362 . S
C624 C621 1.431 . S
C624 C634 1.476 . S
H625 C619 0.929 . S
C626 O617 1.250 . S
C626 O618 1.258 . S
O627 Mn612 2.162 1_455 S
O627 C615 1.281 . S
O628 Mn612 2.297 1_455 S
O628 C615 1.236 . S
N629 Mn613 2.282 . S
N629 C630 1.328 . S
N629 C634 1.318 . S
C630 N629 1.328 . S
C630 C631 1.457 . S
C630 H635 0.929 . S
C631 C630 1.457 . S
C631 C632 1.291 . S
C631 H644 0.931 . S
C632 C631 1.291 . S
C632 C633 1.373 . S
C632 H645 0.929 . S
C633 C632 1.373 . S
C633 C634 1.396 . S
C633 C640 1.403 . S
C634 C624 1.476 . S
C634 N629 1.318 . S
C634 C633 1.396 . S
H635 C630 0.929 . S
O636 Mn612 2.385 . S
O636 C614 1.234 . S
O637 Mn612 2.209 . S
O637 Mn613 2.215 . S
O637 C614 1.283 . S
O638 Mn612 2.094 . S
O638 C616 1.240 . S
O639 Mn613 2.117 . S
O639 C616 1.264 . S
C640 C633 1.403 . S
C640 C641 1.399 . S
C640 H646 0.929 . S
C641 C621 1.449 . S
C641 C640 1.399 . S
C641 H647 0.930 . S
H642 C622 0.931 . S
H643 C623 0.930 . S
H644 C631 0.931 . S
H645 C632 0.929 . S
H646 C640 0.929 . S
H647 C641 0.930 . S
H648 C654 0.930 . S
H649 C657 0.931 . S
H650 C659 0.931 . S
H651 C661 0.930 . S
H652 C663 0.930 . S
H653 C665 0.931 . S
C654 H648 0.930 . S
C654 C655 1.380 . S
C654 C656 1.394 . S
C655 C654 1.380 . S
C655 C659 1.382 . S
C656 C654 1.394 . S
C656 C657 1.400 . S
C657 H649 0.931 . S
C657 C656 1.400 . S
C657 C658 1.375 . S
C658 C657 1.375 . S
C658 C659 1.415 . S
C658 C660 1.501 . S
C659 H650 0.931 . S
C659 C655 1.382 . S
C659 C658 1.415 . S
C660 C658 1.501 . S
C660 C661 1.384 . S
C660 C665 1.408 . S
C661 H651 0.930 . S
C661 C660 1.384 . S
C661 C662 1.389 . S
C662 C661 1.389 . S
C662 C663 1.405 . S
C663 H652 0.930 . S
C663 C662 1.405 . S
C663 C664 1.364 . S
C664 C663 1.364 . S
C664 C665 1.400 . S
C665 H653 0.931 . S
C665 C660 1.408 . S
C665 C664 1.400 . S
H666 C672 0.930 . S
H667 C675 0.931 . S
H668 C677 0.931 . S
H669 C679 0.930 . S
H670 C681 0.930 . S
H671 C683 0.931 . S
C672 H666 0.930 . S
C672 C673 1.380 . S
C672 C674 1.394 . S
C673 C672 1.380 . S
C673 C677 1.382 . S
C674 C672 1.394 . S
C674 C675 1.400 . S
C675 H667 0.931 . S
C675 C674 1.400 . S
C675 C676 1.375 . S
C676 C675 1.375 . S
C676 C677 1.415 . S
C676 C678 1.501 . S
C677 H668 0.931 . S
C677 C673 1.382 . S
C677 C676 1.415 . S
C678 C676 1.501 . S
C678 C679 1.384 . S
C678 C683 1.408 . S
C679 H669 0.930 . S
C679 C678 1.384 . S
C679 C680 1.389 . S
C680 C679 1.389 . S
C680 C681 1.405 . S
C681 H670 0.930 . S
C681 C680 1.405 . S
C681 C682 1.364 . S
C682 C681 1.364 . S
C682 C683 1.400 . S
C683 H671 0.931 . S
C683 C678 1.408 . S
C683 C682 1.400 . S
H684 C690 0.930 . S
H685 C693 0.931 . S
H686 C695 0.931 . S
H687 C697 0.930 . S
H688 C699 0.930 . S
H689 C701 0.931 . S
C690 H684 0.930 . S
C690 C691 1.380 . S
C690 C692 1.394 . S
C691 C690 1.380 . S
C691 C695 1.382 . S
C692 C690 1.394 . S
C692 C693 1.400 . S
C693 H685 0.931 . S
C693 C692 1.400 . S
C693 C694 1.375 . S
C694 C693 1.375 . S
C694 C695 1.415 . S
C694 C696 1.501 . S
C695 H686 0.931 . S
C695 C691 1.382 . S
C695 C694 1.415 . S
C696 C694 1.501 . S
C696 C697 1.384 . S
C696 C701 1.408 . S
C697 H687 0.930 . S
C697 C696 1.384 . S
C697 C698 1.389 . S
C698 C697 1.389 . S
C698 C699 1.405 . S
C699 H688 0.930 . S
C699 C698 1.405 . S
C699 C700 1.364 . S
C700 C699 1.364 . S
C700 C701 1.400 . S
C701 H689 0.931 . S
C701 C696 1.408 . S
C701 C700 1.400 . S
H702 C708 0.930 . S
H703 C711 0.931 . S
H704 C713 0.931 . S
H705 C715 0.930 . S
H706 C717 0.930 . S
H707 C719 0.931 . S
C708 H702 0.930 . S
C708 C709 1.380 . S
C708 C710 1.394 . S
C709 C708 1.380 . S
C709 C713 1.382 . S
C710 C708 1.394 . S
C710 C711 1.400 . S
C711 H703 0.931 . S
C711 C710 1.400 . S
C711 C712 1.375 . S
C712 C711 1.375 . S
C712 C713 1.415 . S
C712 C714 1.501 . S
C713 H704 0.931 . S
C713 C709 1.382 . S
C713 C712 1.415 . S
C714 C712 1.501 . S
C714 C715 1.384 . S
C714 C719 1.408 . S
C715 H705 0.930 . S
C715 C714 1.384 . S
C715 C716 1.389 . S
C716 C715 1.389 . S
C716 C717 1.405 . S
C717 H706 0.930 . S
C717 C716 1.405 . S
C717 C718 1.364 . S
C718 C717 1.364 . S
C718 C719 1.400 . S
C719 H707 0.931 . S
C719 C714 1.408 . S
C719 C718 1.400 . S
H720 C726 0.930 . S
H721 C729 0.931 . S
H722 C731 0.931 . S
H723 C733 0.930 . S
H724 C735 0.930 . S
H725 C737 0.931 . S
C726 H720 0.930 . S
C726 C727 1.380 . S
C726 C728 1.394 . S
C727 C726 1.380 . S
C727 C731 1.382 . S
C728 C726 1.394 . S
C728 C729 1.400 . S
C729 H721 0.931 . S
C729 C728 1.400 . S
C729 C730 1.375 . S
C730 C729 1.375 . S
C730 C731 1.415 . S
C730 C732 1.501 . S
C731 H722 0.931 . S
C731 C727 1.382 . S
C731 C730 1.415 . S
C732 C730 1.501 . S
C732 C733 1.384 . S
C732 C737 1.408 . S
C733 H723 0.930 . S
C733 C732 1.384 . S
C733 C734 1.389 . S
C734 C733 1.389 . S
C734 C735 1.405 . S
C735 H724 0.930 . S
C735 C734 1.405 . S
C735 C736 1.364 . S
C736 C735 1.364 . S
C736 C737 1.400 . S
C737 H725 0.931 . S
C737 C732 1.408 . S
C737 C736 1.400 . S
H738 C744 0.930 . S
H739 C747 0.931 . S
H740 C749 0.931 . S
H741 C751 0.930 . S
H742 C753 0.930 . S
H743 C755 0.931 . S
C744 H738 0.930 . S
C744 C745 1.380 . S
C744 C746 1.394 . S
C745 C744 1.380 . S
C745 C749 1.382 . S
C746 C744 1.394 . S
C746 C747 1.400 . S
C747 H739 0.931 . S
C747 C746 1.400 . S
C747 C748 1.375 . S
C748 C747 1.375 . S
C748 C749 1.415 . S
C748 C750 1.501 . S
C749 H740 0.931 . S
C749 C745 1.382 . S
C749 C748 1.415 . S
C750 C748 1.501 . S
C750 C751 1.384 . S
C750 C755 1.408 . S
C751 H741 0.930 . S
C751 C750 1.384 . S
C751 C752 1.389 . S
C752 C751 1.389 . S
C752 C753 1.405 . S
C753 H742 0.930 . S
C753 C752 1.405 . S
C753 C754 1.364 . S
C754 C753 1.364 . S
C754 C755 1.400 . S
C755 H743 0.931 . S
C755 C750 1.408 . S
C755 C754 1.400 . S
H756 C762 0.930 . S
H757 C765 0.931 . S
H758 C767 0.931 . S
H759 C769 0.930 . S
H760 C771 0.930 . S
H761 C773 0.931 . S
C762 H756 0.930 . S
C762 C763 1.380 . S
C762 C764 1.394 . S
C763 C762 1.380 . S
C763 C767 1.382 . S
C764 C762 1.394 . S
C764 C765 1.400 . S
C765 H757 0.931 . S
C765 C764 1.400 . S
C765 C766 1.375 . S
C766 C765 1.375 . S
C766 C767 1.415 . S
C766 C768 1.501 . S
C767 H758 0.931 . S
C767 C763 1.382 . S
C767 C766 1.415 . S
C768 C766 1.501 . S
C768 C769 1.384 . S
C768 C773 1.408 . S
C769 H759 0.930 . S
C769 C768 1.384 . S
C769 C770 1.389 . S
C770 C769 1.389 . S
C770 C771 1.405 . S
C771 H760 0.930 . S
C771 C770 1.405 . S
C771 C772 1.364 . S
C772 C771 1.364 . S
C772 C773 1.400 . S
C773 H761 0.931 . S
C773 C768 1.408 . S
C773 C772 1.400 . S
H774 C780 0.930 . S
H775 C783 0.931 . S
H776 C785 0.931 . S
H777 C787 0.930 . S
H778 C789 0.930 . S
H779 C791 0.931 . S
C780 H774 0.930 . S
C780 C781 1.380 . S
C780 C782 1.394 . S
C781 C780 1.380 . S
C781 C785 1.382 . S
C782 C780 1.394 . S
C782 C783 1.400 . S
C783 H775 0.931 . S
C783 C782 1.400 . S
C783 C784 1.375 . S
C784 C783 1.375 . S
C784 C785 1.415 . S
C784 C786 1.501 . S
C785 H776 0.931 . S
C785 C781 1.382 . S
C785 C784 1.415 . S
C786 C784 1.501 . S
C786 C787 1.384 . S
C786 C791 1.408 . S
C787 H777 0.930 . S
C787 C786 1.384 . S
C787 C788 1.389 . S
C788 C787 1.389 . S
C788 C789 1.405 . S
C789 H778 0.930 . S
C789 C788 1.405 . S
C789 C790 1.364 . S
C790 C789 1.364 . S
C790 C791 1.400 . S
C791 H779 0.931 . S
C791 C786 1.408 . S
C791 C790 1.400 . S
H792 C798 0.930 . S
H793 C801 0.931 . S
H794 C803 0.931 . S
H795 C805 0.930 . S
H796 C807 0.930 . S
H797 C809 0.931 . S
C798 H792 0.930 . S
C798 C799 1.380 . S
C798 C800 1.394 . S
C799 C798 1.380 . S
C799 C803 1.382 . S
C800 C798 1.394 . S
C800 C801 1.400 . S
C801 H793 0.931 . S
C801 C800 1.400 . S
C801 C802 1.375 . S
C802 C801 1.375 . S
C802 C803 1.415 . S
C802 C804 1.501 . S
C803 H794 0.931 . S
C803 C799 1.382 . S
C803 C802 1.415 . S
C804 C802 1.501 . S
C804 C805 1.384 . S
C804 C809 1.408 . S
C805 H795 0.930 . S
C805 C804 1.384 . S
C805 C806 1.389 . S
C806 C805 1.389 . S
C806 C807 1.405 . S
C807 H796 0.930 . S
C807 C806 1.405 . S
C807 C808 1.364 . S
C808 C807 1.364 . S
C808 C809 1.400 . S
C809 H797 0.931 . S
C809 C804 1.408 . S
C809 C808 1.400 . S
H810 C816 0.915 . S
H811 C819 0.931 . S
H812 C821 0.931 . S
H813 C823 0.930 . S
H814 C825 0.930 . S
H815 C827 0.940 1_655 S
C816 H810 0.915 . S
C816 C817 1.393 . S
C816 C818 1.398 1_655 S
C817 C816 1.393 . S
C817 C821 1.382 . S
C818 C816 1.398 1_455 S
C818 C819 1.400 . S
C819 H811 0.931 . S
C819 C818 1.400 . S
C819 C820 1.375 . S
C820 C819 1.375 . S
C820 C821 1.415 1_455 S
C820 C822 1.501 . S
C821 H812 0.931 . S
C821 C817 1.382 . S
C821 C820 1.415 1_655 S
C822 C820 1.501 . S
C822 C823 1.384 . S
C822 C827 1.420 . S
C823 H813 0.930 . S
C823 C822 1.384 . S
C823 C824 1.389 . S
C824 C823 1.389 . S
C824 C825 1.405 . S
C825 H814 0.930 . S
C825 C824 1.405 . S
C825 C826 1.359 . S
C826 C825 1.359 . S
C826 C827 1.396 . S
C827 H815 0.940 1_455 S
C827 C822 1.420 . S
C827 C826 1.396 . S
H828 C834 0.930 . S
H829 C837 0.931 . S
H830 C839 0.931 . S
H831 C841 0.930 . S
H832 C843 0.930 . S
H833 C845 0.931 . S
C834 H828 0.930 . S
C834 C835 1.380 . S
C834 C836 1.394 . S
C835 C834 1.380 . S
C835 C839 1.382 . S
C836 C834 1.394 . S
C836 C837 1.400 . S
C837 H829 0.931 . S
C837 C836 1.400 . S
C837 C838 1.375 . S
C838 C837 1.375 . S
C838 C839 1.415 . S
C838 C840 1.501 . S
C839 H830 0.931 . S
C839 C835 1.382 . S
C839 C838 1.415 . S
C840 C838 1.501 . S
C840 C841 1.384 . S
C840 C845 1.408 . S
C841 H831 0.930 . S
C841 C840 1.384 . S
C841 C842 1.389 . S
C842 C841 1.389 . S
C842 C843 1.405 . S
C843 H832 0.930 . S
C843 C842 1.405 . S
C843 C844 1.364 . S
C844 C843 1.364 . S
C844 C845 1.400 . S
C845 H833 0.931 . S
C845 C840 1.408 . S
C845 C844 1.400 . S
H846 C852 0.943 . S
H847 C855 0.931 . S
H848 C857 0.931 . S
H849 C859 0.930 . S
H850 C861 0.930 . S
H851 C863 0.920 1_545 S
C852 H846 0.943 . S
C852 C853 1.377 . S
C852 C854 1.384 1_545 S
C853 C852 1.377 . S
C853 C857 1.382 . S
C854 C852 1.384 1_565 S
C854 C855 1.400 . S
C855 H847 0.931 . S
C855 C854 1.400 . S
C855 C856 1.375 . S
C856 C855 1.375 . S
C856 C857 1.415 1_565 S
C856 C858 1.501 . S
C857 H848 0.931 . S
C857 C853 1.382 . S
C857 C856 1.415 1_545 S
C858 C856 1.501 . S
C858 C859 1.384 . S
C858 C863 1.400 . S
C859 H849 0.930 . S
C859 C858 1.384 . S
C859 C860 1.389 . S
C860 C859 1.389 . S
C860 C861 1.405 . S
C861 H850 0.930 . S
C861 C860 1.405 . S
C861 C862 1.373 . S
C862 C861 1.373 . S
C862 C863 1.407 . S
C863 H851 0.920 1_565 S
C863 C858 1.400 . S
C863 C862 1.407 . S
H864 C870 0.915 . S
H865 C873 0.931 . S
H866 C875 0.927 1_545 S
H867 C877 0.930 . S
H868 C879 0.930 . S
H869 C881 0.931 . S
C870 H864 0.915 . S
C870 C871 1.383 . S
C870 C872 1.401 1_545 S
C871 C870 1.383 . S
C871 C875 1.402 1_545 S
C872 C870 1.401 1_565 S
C872 C873 1.400 . S
C873 H865 0.931 . S
C873 C872 1.400 . S
C873 C874 1.375 . S
C874 C873 1.375 . S
C874 C875 1.412 . S
C874 C876 1.501 . S
C875 H866 0.927 1_565 S
C875 C871 1.402 1_565 S
C875 C874 1.412 . S
C876 C874 1.501 . S
C876 C877 1.384 . S
C876 C881 1.408 1_565 S
C877 H867 0.930 . S
C877 C876 1.384 . S
C877 C878 1.389 . S
C878 C877 1.389 . S
C878 C879 1.405 . S
C879 H868 0.930 . S
C879 C878 1.405 . S
C879 C880 1.364 1_565 S
C880 C879 1.364 1_545 S
C880 C881 1.400 . S
C881 H869 0.931 . S
C881 C876 1.408 1_545 S
C881 C880 1.400 . S
H882 C888 0.950 . S
H883 C891 0.931 . S
H884 C893 0.935 . S
H885 C895 0.930 . S
H886 C897 0.930 . S
H887 C899 0.931 . S
C888 H882 0.950 . S
C888 C889 1.375 . S
C888 C890 1.371 1_655 S
C889 C888 1.375 . S
C889 C893 1.361 1_655 S
C890 C888 1.371 1_455 S
C890 C891 1.428 . S
C891 H883 0.931 . S
C891 C890 1.428 . S
C891 C892 1.375 . S
C892 C891 1.375 . S
C892 C893 1.424 . S
C892 C894 1.501 . S
C893 H884 0.935 . S
C893 C889 1.361 1_455 S
C893 C892 1.424 . S
C894 C892 1.501 . S
C894 C895 1.384 . S
C894 C899 1.408 1_455 S
C895 H885 0.930 . S
C895 C894 1.384 . S
C895 C896 1.389 . S
C896 C895 1.389 . S
C896 C897 1.405 . S
C897 H886 0.930 . S
C897 C896 1.405 . S
C897 C898 1.364 1_455 S
C898 C897 1.364 1_655 S
C898 C899 1.400 . S
C899 H887 0.931 . S
C899 C894 1.408 1_655 S
C899 C898 1.400 . S
H900 C906 0.930 . S
H901 C909 0.931 . S
H902 C911 0.931 . S
H903 C913 0.930 . S
H904 C915 0.930 . S
H905 C917 0.931 . S
C906 H900 0.930 . S
C906 C907 1.380 . S
C906 C908 1.394 . S
C907 C906 1.380 . S
C907 C911 1.382 . S
C908 C906 1.394 . S
C908 C909 1.400 . S
C909 H901 0.931 . S
C909 C908 1.400 . S
C909 C910 1.375 . S
C910 C909 1.375 . S
C910 C911 1.415 . S
C910 C912 1.501 . S
C911 H902 0.931 . S
C911 C907 1.382 . S
C911 C910 1.415 . S
C912 C910 1.501 . S
C912 C913 1.384 . S
C912 C917 1.408 . S
C913 H903 0.930 . S
C913 C912 1.384 . S
C913 C914 1.389 . S
C914 C913 1.389 . S
C914 C915 1.405 . S
C915 H904 0.930 . S
C915 C914 1.405 . S
C915 C916 1.364 . S
C916 C915 1.364 . S
C916 C917 1.400 . S
C917 H905 0.931 . S
C917 C912 1.408 . S
C917 C916 1.400 . S
H918 C924 0.930 . S
H919 C927 0.931 . S
H920 C929 0.931 . S
H921 C931 0.930 . S
H922 C933 0.930 . S
H923 C935 0.931 . S
C924 H918 0.930 . S
C924 C925 1.380 . S
C924 C926 1.394 . S
C925 C924 1.380 . S
C925 C929 1.382 . S
C926 C924 1.394 . S
C926 C927 1.400 . S
C927 H919 0.931 . S
C927 C926 1.400 . S
C927 C928 1.375 . S
C928 C927 1.375 . S
C928 C929 1.415 . S
C928 C930 1.501 . S
C929 H920 0.931 . S
C929 C925 1.382 . S
C929 C928 1.415 . S
C930 C928 1.501 . S
C930 C931 1.384 . S
C930 C935 1.408 . S
C931 H921 0.930 . S
C931 C930 1.384 . S
C931 C932 1.389 . S
C932 C931 1.389 . S
C932 C933 1.405 . S
C933 H922 0.930 . S
C933 C932 1.405 . S
C933 C934 1.364 . S
C934 C933 1.364 . S
C934 C935 1.400 . S
C935 H923 0.931 . S
C935 C930 1.408 . S
C935 C934 1.400 . S
H936 C942 0.930 . S
H937 C945 0.931 . S
H938 C947 0.931 . S
H939 C949 0.930 . S
H940 C951 0.930 . S
H941 C953 0.931 . S
C942 H936 0.930 . S
C942 C943 1.380 . S
C942 C944 1.394 . S
C943 C942 1.380 . S
C943 C947 1.382 . S
C944 C942 1.394 . S
C944 C945 1.400 . S
C945 H937 0.931 . S
C945 C944 1.400 . S
C945 C946 1.375 . S
C946 C945 1.375 . S
C946 C947 1.415 . S
C946 C948 1.501 . S
C947 H938 0.931 . S
C947 C943 1.382 . S
C947 C946 1.415 . S
C948 C946 1.501 . S
C948 C949 1.384 . S
C948 C953 1.408 . S
C949 H939 0.930 . S
C949 C948 1.384 . S
C949 C950 1.389 . S
C950 C949 1.389 . S
C950 C951 1.405 . S
C951 H940 0.930 . S
C951 C950 1.405 . S
C951 C952 1.364 . S
C952 C951 1.364 . S
C952 C953 1.400 . S
C953 H941 0.931 . S
C953 C948 1.408 . S
C953 C952 1.400 . S
H954 C960 0.930 . S
H955 C963 0.931 . S
H956 C965 0.931 . S
H957 C967 0.930 . S
H958 C969 0.930 . S
H959 C971 0.931 . S
C960 H954 0.930 . S
C960 C961 1.380 . S
C960 C962 1.394 . S
C961 C960 1.380 . S
C961 C965 1.382 . S
C962 C960 1.394 . S
C962 C963 1.400 . S
C963 H955 0.931 . S
C963 C962 1.400 . S
C963 C964 1.375 . S
C964 C963 1.375 . S
C964 C965 1.415 . S
C964 C966 1.501 . S
C965 H956 0.931 . S
C965 C961 1.382 . S
C965 C964 1.415 . S
C966 C964 1.501 . S
C966 C967 1.384 . S
C966 C971 1.408 . S
C967 H957 0.930 . S
C967 C966 1.384 . S
C967 C968 1.389 . S
C968 C967 1.389 . S
C968 C969 1.405 . S
C969 H958 0.930 . S
C969 C968 1.405 . S
C969 C970 1.364 . S
C970 C969 1.364 . S
C970 C971 1.400 . S
C971 H959 0.931 . S
C971 C966 1.408 . S
C971 C970 1.400 . S
C972 C973 1.369 1_455 S
C972 C974 1.419 . S
C972 H976 0.930 . S
C973 C972 1.369 1_655 S
C973 C982 1.429 . S
C974 C972 1.419 . S
C974 C975 1.363 1_455 S
C974 H977 0.929 . S
C975 C974 1.363 1_655 S
C975 C981 1.428 . S
H976 C972 0.930 . S
H977 C974 0.929 . S
S978 N979 1.613 . S
S978 N980 1.610 . S
N979 S978 1.613 . S
N979 C982 1.350 . S
N980 S978 1.610 . S
N980 C981 1.351 . S
C981 C975 1.428 . S
C981 N980 1.351 . S
C981 C982 1.434 . S
C982 C973 1.429 . S
C982 N979 1.350 . S
C982 C981 1.434 . S
C983 C984 1.369 . S
C983 C985 1.419 . S
C983 H987 0.930 . S
C984 C983 1.369 . S
C984 C993 1.429 . S
C985 C983 1.419 . S
C985 C986 1.363 . S
C985 H988 0.929 . S
C986 C985 1.363 . S
C986 C992 1.428 . S
H987 C983 0.930 . S
H988 C985 0.929 . S
S989 N990 1.613 . S
S989 N991 1.610 . S
N990 S989 1.613 . S
N990 C993 1.350 . S
N991 S989 1.610 . S
N991 C992 1.351 . S
C992 C986 1.428 . S
C992 N991 1.351 . S
C992 C993 1.434 . S
C993 C984 1.429 . S
C993 N990 1.350 . S
C993 C992 1.434 . S
C994 C995 1.369 1_565 S
C994 C996 1.419 . S
C994 H998 0.930 . S
C995 C994 1.369 1_545 S
C995 C1004 1.429 . S
C996 C994 1.419 . S
C996 C997 1.363 1_565 S
C996 H999 0.929 . S
C997 C996 1.363 1_545 S
C997 C1003 1.428 . S
H998 C994 0.930 . S
H999 C996 0.929 . S
S1000 N1001 1.613 . S
S1000 N1002 1.610 . S
N1001 S1000 1.613 . S
N1001 C1004 1.350 . S
N1002 S1000 1.610 . S
N1002 C1003 1.351 . S
C1003 C997 1.428 . S
C1003 N1002 1.351 . S
C1003 C1004 1.434 . S
C1004 C995 1.429 . S
C1004 N1001 1.350 . S
C1004 C1003 1.434 . S
C1005 C1006 1.369 . S
C1005 C1007 1.419 . S
C1005 H1009 0.930 . S
C1006 C1005 1.369 . S
C1006 C1015 1.429 1_565 S
C1007 C1005 1.419 . S
C1007 C1008 1.363 . S
C1007 H1010 0.929 . S
C1008 C1007 1.363 . S
C1008 C1014 1.428 1_565 S
H1009 C1005 0.930 . S
H1010 C1007 0.929 . S
S1011 N1012 1.613 . S
S1011 N1013 1.610 . S
N1012 S1011 1.613 . S
N1012 C1015 1.350 . S
N1013 S1011 1.610 . S
N1013 C1014 1.351 . S
C1014 C1008 1.428 1_545 S
C1014 N1013 1.351 . S
C1014 C1015 1.434 . S
C1015 C1006 1.429 1_545 S
C1015 N1012 1.350 . S
C1015 C1014 1.434 . S
C1016 C1017 1.369 . S
C1016 C1018 1.419 . S
C1016 H1020 0.930 . S
C1017 C1016 1.369 . S
C1017 C1026 1.429 1_455 S
C1018 C1016 1.419 . S
C1018 C1019 1.363 . S
C1018 H1021 0.929 . S
C1019 C1018 1.363 . S
C1019 C1025 1.428 1_455 S
H1020 C1016 0.930 . S
H1021 C1018 0.929 . S
S1022 N1023 1.613 . S
S1022 N1024 1.610 . S
N1023 S1022 1.613 . S
N1023 C1026 1.350 . S
N1024 S1022 1.610 . S
N1024 C1025 1.351 . S
C1025 C1019 1.428 1_655 S
C1025 N1024 1.351 . S
C1025 C1026 1.434 . S
C1026 C1017 1.429 1_655 S
C1026 N1023 1.350 . S
C1026 C1025 1.434 . S
C1027 C1028 1.369 . S
C1027 C1029 1.419 . S
C1027 H1031 0.930 . S
C1028 C1027 1.369 . S
C1028 C1037 1.429 . S
C1029 C1027 1.419 . S
C1029 C1030 1.363 . S
C1029 H1032 0.929 . S
C1030 C1029 1.363 . S
C1030 C1036 1.428 . S
H1031 C1027 0.930 . S
H1032 C1029 0.929 . S
S1033 N1034 1.613 . S
S1033 N1035 1.610 . S
N1034 S1033 1.613 . S
N1034 C1037 1.350 . S
N1035 S1033 1.610 . S
N1035 C1036 1.351 . S
C1036 C1030 1.428 . S
C1036 N1035 1.351 . S
C1036 C1037 1.434 . S
C1037 C1028 1.429 . S
C1037 N1034 1.350 . S
C1037 C1036 1.434 . S
C1038 C1039 1.369 . S
C1038 C1040 1.419 . S
C1038 H1042 0.930 . S
C1039 C1038 1.369 . S
C1039 C1048 1.429 1_455 S
C1040 C1038 1.419 . S
C1040 C1041 1.377 . S
C1040 H1043 0.929 . S
C1041 C1040 1.377 . S
C1041 C1047 1.405 1_455 S
H1042 C1038 0.930 . S
H1043 C1040 0.929 . S
S1044 N1045 1.613 . S
S1044 N1046 1.610 . S
N1045 S1044 1.613 . S
N1045 C1048 1.350 . S
N1046 S1044 1.610 . S
N1046 C1047 1.351 . S
C1047 C1041 1.405 1_655 S
C1047 N1046 1.351 . S
C1047 C1048 1.434 . S
C1048 C1039 1.429 1_655 S
C1048 N1045 1.350 . S
C1048 C1047 1.434 . S
C1049 C1050 1.369 . S
C1049 C1051 1.419 . S
C1049 H1053 0.930 . S
C1050 C1049 1.369 . S
C1050 C1059 1.429 . S
C1051 C1049 1.419 . S
C1051 C1052 1.363 . S
C1051 H1054 0.929 . S
C1052 C1051 1.363 . S
C1052 C1058 1.428 . S
H1053 C1049 0.930 . S
H1054 C1051 0.929 . S
S1055 N1056 1.613 . S
S1055 N1057 1.610 . S
N1056 S1055 1.613 . S
N1056 C1059 1.350 . S
N1057 S1055 1.610 . S
N1057 C1058 1.351 . S
C1058 C1052 1.428 . S
C1058 N1057 1.351 . S
C1058 C1059 1.434 . S
C1059 C1050 1.429 . S
C1059 N1056 1.350 . S
C1059 C1058 1.434 . S
C1060 C1061 1.369 . S
C1060 C1062 1.419 . S
C1060 H1064 0.930 . S
C1061 C1060 1.369 . S
C1061 C1070 1.429 1_565 S
C1062 C1060 1.419 . S
C1062 C1063 1.363 . S
C1062 H1065 0.929 . S
C1063 C1062 1.363 . S
C1063 C1069 1.429 1_565 S
H1064 C1060 0.930 . S
H1065 C1062 0.929 . S
S1066 N1067 1.613 . S
S1066 N1068 1.610 . S
N1067 S1066 1.613 . S
N1067 C1070 1.350 . S
N1068 S1066 1.610 . S
N1068 C1069 1.351 . S
C1069 C1063 1.429 1_545 S
C1069 N1068 1.351 . S
C1069 C1070 1.434 . S
C1070 C1061 1.429 1_545 S
C1070 N1067 1.350 . S
C1070 C1069 1.434 . S
C1071 C1072 1.369 1_565 S
C1071 C1073 1.419 . S
C1071 H1075 0.930 . S
C1072 C1071 1.369 1_545 S
C1072 C1081 1.429 . S
C1073 C1071 1.419 . S
C1073 C1074 1.321 1_565 S
C1073 H1076 0.929 . S
C1074 C1073 1.321 1_545 S
C1074 C1080 1.455 . S
H1075 C1071 0.930 . S
H1076 C1073 0.929 . S
S1077 N1078 1.613 . S
S1077 N1079 1.610 . S
N1078 S1077 1.613 . S
N1078 C1081 1.350 . S
N1079 S1077 1.610 . S
N1079 C1080 1.351 . S
C1080 C1074 1.455 . S
C1080 N1079 1.351 . S
C1080 C1081 1.434 . S
C1081 C1072 1.429 . S
C1081 N1078 1.350 . S
C1081 C1080 1.434 . S
C1082 C1083 1.369 1_455 S
C1082 C1084 1.419 . S
C1082 H1086 0.930 . S
C1083 C1082 1.369 1_655 S
C1083 C1092 1.429 . S
C1084 C1082 1.419 . S
C1084 C1085 1.363 . S
C1084 H1087 0.929 . S
C1085 C1084 1.363 . S
C1085 C1091 1.421 1_455 S
H1086 C1082 0.930 . S
H1087 C1084 0.929 . S
S1088 N1089 1.613 . S
S1088 N1090 1.610 . S
N1089 S1088 1.613 . S
N1089 C1092 1.350 . S
N1090 S1088 1.610 . S
N1090 C1091 1.351 . S
C1091 C1085 1.421 1_655 S
C1091 N1090 1.351 . S
C1091 C1092 1.434 . S
C1092 C1083 1.429 . S
C1092 N1089 1.350 . S
C1092 C1091 1.434 . S
C1093 C1094 1.369 . S
C1093 C1095 1.419 . S
C1093 H1097 0.930 . S
C1094 C1093 1.369 . S
C1094 C1103 1.429 . S
C1095 C1093 1.419 . S
C1095 C1096 1.363 . S
C1095 H1098 0.929 . S
C1096 C1095 1.363 . S
C1096 C1102 1.428 . S
H1097 C1093 0.930 . S
H1098 C1095 0.929 . S
S1099 N1100 1.613 . S
S1099 N1101 1.610 . S
N1100 S1099 1.613 . S
N1100 C1103 1.350 . S
N1101 S1099 1.610 . S
N1101 C1102 1.351 . S
C1102 C1096 1.428 . S
C1102 N1101 1.351 . S
C1102 C1103 1.434 . S
C1103 C1094 1.429 . S
C1103 N1100 1.350 . S
C1103 C1102 1.434 . S
C1104 C1105 1.369 . S
C1104 C1106 1.419 . S
C1104 H1108 0.930 . S
C1105 C1104 1.369 . S
C1105 C1114 1.429 . S
C1106 C1104 1.419 . S
C1106 C1107 1.363 . S
C1106 H1109 0.929 . S
C1107 C1106 1.363 . S
C1107 C1113 1.428 . S
H1108 C1104 0.930 . S
H1109 C1106 0.929 . S
S1110 N1111 1.613 . S
S1110 N1112 1.610 . S
N1111 S1110 1.613 . S
N1111 C1114 1.350 . S
N1112 S1110 1.610 . S
N1112 C1113 1.351 . S
C1113 C1107 1.428 . S
C1113 N1112 1.351 . S
C1113 C1114 1.434 . S
C1114 C1105 1.429 . S
C1114 N1111 1.350 . S
C1114 C1113 1.434 . S
C1115 C1116 1.369 . S
C1115 C1117 1.419 . S
C1115 H1119 0.930 . S
C1116 C1115 1.369 . S
C1116 C1125 1.429 . S
C1117 C1115 1.419 . S
C1117 C1118 1.363 . S
C1117 H1120 0.929 . S
C1118 C1117 1.363 . S
C1118 C1124 1.428 . S
H1119 C1115 0.930 . S
H1120 C1117 0.929 . S
S1121 N1122 1.613 . S
S1121 N1123 1.610 . S
N1122 S1121 1.613 . S
N1122 C1125 1.350 . S
N1123 S1121 1.610 . S
N1123 C1124 1.351 . S
C1124 C1118 1.428 . S
C1124 N1123 1.351 . S
C1124 C1125 1.434 . S
C1125 C1116 1.429 . S
C1125 N1122 1.350 . S
C1125 C1124 1.434 . S
C1126 C1127 1.369 . S
C1126 C1128 1.419 . S
C1126 H1130 0.930 . S
C1127 C1126 1.369 . S
C1127 C1136 1.429 . S
C1128 C1126 1.419 . S
C1128 C1129 1.363 . S
C1128 H1131 0.929 . S
C1129 C1128 1.363 . S
C1129 C1135 1.428 . S
H1130 C1126 0.930 . S
H1131 C1128 0.929 . S
S1132 N1133 1.613 . S
S1132 N1134 1.610 . S
N1133 S1132 1.613 . S
N1133 C1136 1.350 . S
N1134 S1132 1.610 . S
N1134 C1135 1.351 . S
C1135 C1129 1.428 . S
C1135 N1134 1.351 . S
C1135 C1136 1.434 . S
C1136 C1127 1.429 . S
C1136 N1133 1.350 . S
C1136 C1135 1.434 . S
C1137 C1138 1.369 . S
C1137 C1139 1.419 . S
C1137 H1141 0.930 . S
C1138 C1137 1.369 . S
C1138 C1147 1.429 . S
C1139 C1137 1.419 . S
C1139 C1140 1.363 . S
C1139 H1142 0.929 . S
C1140 C1139 1.363 . S
C1140 C1146 1.428 . S
H1141 C1137 0.930 . S
H1142 C1139 0.929 . S
S1143 N1144 1.613 . S
S1143 N1145 1.610 . S
N1144 S1143 1.613 . S
N1144 C1147 1.350 . S
N1145 S1143 1.610 . S
N1145 C1146 1.351 . S
C1146 C1140 1.428 . S
C1146 N1145 1.351 . S
C1146 C1147 1.434 . S
C1147 C1138 1.429 . S
C1147 N1144 1.350 . S
C1147 C1146 1.434 . S
C1148 C1149 1.369 . S
C1148 C1150 1.419 . S
C1148 H1152 0.930 . S
C1149 C1148 1.369 . S
C1149 C1158 1.429 . S
C1150 C1148 1.419 . S
C1150 C1151 1.363 . S
C1150 H1153 0.929 . S
C1151 C1150 1.363 . S
C1151 C1157 1.428 . S
H1152 C1148 0.930 . S
H1153 C1150 0.929 . S
S1154 N1155 1.613 . S
S1154 N1156 1.610 . S
N1155 S1154 1.613 . S
N1155 C1158 1.350 . S
N1156 S1154 1.610 . S
N1156 C1157 1.351 . S
C1157 C1151 1.428 . S
C1157 N1156 1.351 . S
C1157 C1158 1.434 . S
C1158 C1149 1.429 . S
C1158 N1155 1.350 . S
C1158 C1157 1.434 . S
C1159 C1160 1.369 . S
C1159 C1161 1.419 . S
C1159 H1163 0.930 . S
C1160 C1159 1.369 . S
C1160 C1169 1.429 . S
C1161 C1159 1.419 . S
C1161 C1162 1.363 . S
C1161 H1164 0.929 . S
C1162 C1161 1.363 . S
C1162 C1168 1.428 . S
H1163 C1159 0.930 . S
H1164 C1161 0.929 . S
S1165 N1166 1.613 . S
S1165 N1167 1.610 . S
N1166 S1165 1.613 . S
N1166 C1169 1.350 . S
N1167 S1165 1.610 . S
N1167 C1168 1.351 . S
C1168 C1162 1.428 . S
C1168 N1167 1.351 . S
C1168 C1169 1.434 . S
C1169 C1160 1.429 . S
C1169 N1166 1.350 . S
C1169 C1168 1.434 . S
C1170 C1171 1.369 . S
C1170 C1172 1.419 . S
C1170 H1174 0.930 . S
C1171 C1170 1.369 . S
C1171 C1180 1.429 . S
C1172 C1170 1.419 . S
C1172 C1173 1.363 . S
C1172 H1175 0.929 . S
C1173 C1172 1.363 . S
C1173 C1179 1.428 . S
H1174 C1170 0.930 . S
H1175 C1172 0.929 . S
S1176 N1177 1.613 . S
S1176 N1178 1.610 . S
N1177 S1176 1.613 . S
N1177 C1180 1.350 . S
N1178 S1176 1.610 . S
N1178 C1179 1.351 . S
C1179 C1173 1.428 . S
C1179 N1178 1.351 . S
C1179 C1180 1.434 . S
C1180 C1171 1.429 . S
C1180 N1177 1.350 . S
C1180 C1179 1.434 . S
C1181 C1182 1.369 . S
C1181 C1183 1.419 . S
C1181 H1185 0.930 . S
C1182 C1181 1.369 . S
C1182 C1191 1.429 . S
C1183 C1181 1.419 . S
C1183 C1184 1.363 . S
C1183 H1186 0.929 . S
C1184 C1183 1.363 . S
C1184 C1190 1.428 . S
H1185 C1181 0.930 . S
H1186 C1183 0.929 . S
S1187 N1188 1.613 . S
S1187 N1189 1.610 . S
N1188 S1187 1.613 . S
N1188 C1191 1.350 . S
N1189 S1187 1.610 . S
N1189 C1190 1.351 . S
C1190 C1184 1.428 . S
C1190 N1189 1.351 . S
C1190 C1191 1.434 . S
C1191 C1182 1.429 . S
C1191 N1188 1.350 . S
C1191 C1190 1.434 . S
C1192 C1193 1.369 . S
C1192 C1194 1.419 . S
C1192 H1196 0.930 . S
C1193 C1192 1.369 . S
C1193 C1202 1.429 . S
C1194 C1192 1.419 . S
C1194 C1195 1.363 . S
C1194 H1197 0.929 . S
C1195 C1194 1.363 . S
C1195 C1201 1.428 . S
H1196 C1192 0.930 . S
H1197 C1194 0.929 . S
S1198 N1199 1.613 . S
S1198 N1200 1.610 . S
N1199 S1198 1.613 . S
N1199 C1202 1.350 . S
N1200 S1198 1.610 . S
N1200 C1201 1.351 . S
C1201 C1195 1.428 . S
C1201 N1200 1.351 . S
C1201 C1202 1.434 . S
C1202 C1193 1.429 . S
C1202 N1199 1.350 . S
C1202 C1201 1.434 . S
C1203 C1204 1.369 . S
C1203 C1205 1.419 . S
C1203 H1207 0.930 . S
C1204 C1203 1.369 . S
C1204 C1213 1.429 . S
C1205 C1203 1.419 . S
C1205 C1206 1.363 . S
C1205 H1208 0.929 . S
C1206 C1205 1.363 . S
C1206 C1212 1.428 . S
H1207 C1203 0.930 . S
H1208 C1205 0.929 . S
S1209 N1210 1.613 . S
S1209 N1211 1.610 . S
N1210 S1209 1.613 . S
N1210 C1213 1.350 . S
N1211 S1209 1.610 . S
N1211 C1212 1.351 . S
C1212 C1206 1.428 . S
C1212 N1211 1.351 . S
C1212 C1213 1.434 . S
C1213 C1204 1.429 . S
C1213 N1210 1.350 . S
C1213 C1212 1.434 . S
C1214 C1215 1.369 . S
C1214 C1216 1.419 . S
C1214 H1218 0.930 . S
C1215 C1214 1.369 . S
C1215 C1224 1.429 . S
C1216 C1214 1.419 . S
C1216 C1217 1.363 . S
C1216 H1219 0.929 . S
C1217 C1216 1.363 . S
C1217 C1223 1.428 . S
H1218 C1214 0.930 . S
H1219 C1216 0.929 . S
S1220 N1221 1.613 . S
S1220 N1222 1.610 . S
N1221 S1220 1.613 . S
N1221 C1224 1.350 . S
N1222 S1220 1.610 . S
N1222 C1223 1.351 . S
C1223 C1217 1.428 . S
C1223 N1222 1.351 . S
C1223 C1224 1.434 . S
C1224 C1215 1.429 . S
C1224 N1221 1.350 . S
C1224 C1223 1.434 . S
C1225 C1226 1.369 . S
C1225 C1227 1.419 . S
C1225 H1229 0.930 . S
C1226 C1225 1.369 . S
C1226 C1235 1.429 . S
C1227 C1225 1.419 . S
C1227 C1228 1.363 . S
C1227 H1230 0.929 . S
C1228 C1227 1.363 . S
C1228 C1234 1.428 . S
H1229 C1225 0.930 . S
H1230 C1227 0.929 . S
S1231 N1232 1.613 . S
S1231 N1233 1.610 . S
N1232 S1231 1.613 . S
N1232 C1235 1.350 . S
N1233 S1231 1.610 . S
N1233 C1234 1.351 . S
C1234 C1228 1.428 . S
C1234 N1233 1.351 . S
C1234 C1235 1.434 . S
C1235 C1226 1.429 . S
C1235 N1232 1.350 . S
C1235 C1234 1.434 . S
C1236 C1237 1.369 . S
C1236 C1238 1.419 . S
C1236 H1240 0.930 . S
C1237 C1236 1.369 . S
C1237 C1246 1.429 . S
C1238 C1236 1.419 . S
C1238 C1239 1.363 . S
C1238 H1241 0.929 . S
C1239 C1238 1.363 . S
C1239 C1245 1.428 . S
H1240 C1236 0.930 . S
H1241 C1238 0.929 . S
S1242 N1243 1.613 . S
S1242 N1244 1.610 . S
N1243 S1242 1.613 . S
N1243 C1246 1.350 . S
N1244 S1242 1.610 . S
N1244 C1245 1.351 . S
C1245 C1239 1.428 . S
C1245 N1244 1.351 . S
C1245 C1246 1.434 . S
C1246 C1237 1.429 . S
C1246 N1243 1.350 . S
C1246 C1245 1.434 . S
C1247 C1248 1.369 . S
C1247 C1249 1.419 . S
C1247 H1251 0.930 . S
C1248 C1247 1.369 . S
C1248 C1257 1.429 . S
C1249 C1247 1.419 . S
C1249 C1250 1.363 . S
C1249 H1252 0.929 . S
C1250 C1249 1.363 . S
C1250 C1256 1.428 . S
H1251 C1247 0.930 . S
H1252 C1249 0.929 . S
S1253 N1254 1.613 . S
S1253 N1255 1.610 . S
N1254 S1253 1.613 . S
N1254 C1257 1.350 . S
N1255 S1253 1.610 . S
N1255 C1256 1.351 . S
C1256 C1250 1.428 . S
C1256 N1255 1.351 . S
C1256 C1257 1.434 . S
C1257 C1248 1.429 . S
C1257 N1254 1.350 . S
C1257 C1256 1.434 . S
C1258 C1259 1.369 . S
C1258 C1260 1.419 . S
C1258 H1262 0.930 . S
C1259 C1258 1.369 . S
C1259 C1268 1.429 . S
C1260 C1258 1.419 . S
C1260 C1261 1.363 . S
C1260 H1263 0.929 . S
C1261 C1260 1.363 . S
C1261 C1267 1.428 . S
H1262 C1258 0.930 . S
H1263 C1260 0.929 . S
S1264 N1265 1.613 . S
S1264 N1266 1.610 . S
N1265 S1264 1.613 . S
N1265 C1268 1.350 . S
N1266 S1264 1.610 . S
N1266 C1267 1.351 . S
C1267 C1261 1.428 . S
C1267 N1266 1.351 . S
C1267 C1268 1.434 . S
C1268 C1259 1.429 . S
C1268 N1265 1.350 . S
C1268 C1267 1.434 . S
C1269 C1270 1.369 . S
C1269 C1271 1.419 . S
C1269 H1273 0.930 . S
C1270 C1269 1.369 . S
C1270 C1279 1.429 . S
C1271 C1269 1.419 . S
C1271 C1272 1.363 . S
C1271 H1274 0.929 . S
C1272 C1271 1.363 . S
C1272 C1278 1.428 . S
H1273 C1269 0.930 . S
H1274 C1271 0.929 . S
S1275 N1276 1.613 . S
S1275 N1277 1.610 . S
N1276 S1275 1.613 . S
N1276 C1279 1.350 . S
N1277 S1275 1.610 . S
N1277 C1278 1.351 . S
C1278 C1272 1.428 . S
C1278 N1277 1.351 . S
C1278 C1279 1.434 . S
C1279 C1270 1.429 . S
C1279 N1276 1.350 . S
C1279 C1278 1.434 . S
C1280 C1281 1.369 . S
C1280 C1282 1.419 . S
C1280 H1284 0.930 . S
C1281 C1280 1.369 . S
C1281 C1290 1.429 . S
C1282 C1280 1.419 . S
C1282 C1283 1.363 . S
C1282 H1285 0.929 . S
C1283 C1282 1.363 . S
C1283 C1289 1.428 . S
H1284 C1280 0.930 . S
H1285 C1282 0.929 . S
S1286 N1287 1.613 . S
S1286 N1288 1.610 . S
N1287 S1286 1.613 . S
N1287 C1290 1.350 . S
N1288 S1286 1.610 . S
N1288 C1289 1.351 . S
C1289 C1283 1.428 . S
C1289 N1288 1.351 . S
C1289 C1290 1.434 . S
C1290 C1281 1.429 . S
C1290 N1287 1.350 . S
C1290 C1289 1.434 . S
C1291 C1292 1.369 . S
C1291 C1293 1.419 . S
C1291 H1295 0.930 . S
C1292 C1291 1.369 . S
C1292 C1301 1.429 . S
C1293 C1291 1.419 . S
C1293 C1294 1.363 . S
C1293 H1296 0.929 . S
C1294 C1293 1.363 . S
C1294 C1300 1.428 . S
H1295 C1291 0.930 . S
H1296 C1293 0.929 . S
S1297 N1298 1.613 . S
S1297 N1299 1.610 . S
N1298 S1297 1.613 . S
N1298 C1301 1.350 . S
N1299 S1297 1.610 . S
N1299 C1300 1.351 . S
C1300 C1294 1.428 . S
C1300 N1299 1.351 . S
C1300 C1301 1.434 . S
C1301 C1292 1.429 . S
C1301 N1298 1.350 . S
C1301 C1300 1.434 . S
C1302 C1303 1.369 . S
C1302 C1304 1.419 . S
C1302 H1306 0.930 . S
C1303 C1302 1.369 . S
C1303 C1312 1.429 . S
C1304 C1302 1.419 . S
C1304 C1305 1.363 . S
C1304 H1307 0.929 . S
C1305 C1304 1.363 . S
C1305 C1311 1.428 . S
H1306 C1302 0.930 . S
H1307 C1304 0.929 . S
S1308 N1309 1.613 . S
S1308 N1310 1.610 . S
N1309 S1308 1.613 . S
N1309 C1312 1.350 . S
N1310 S1308 1.610 . S
N1310 C1311 1.351 . S
C1311 C1305 1.428 . S
C1311 N1310 1.351 . S
C1311 C1312 1.434 . S
C1312 C1303 1.429 . S
C1312 N1309 1.350 . S
C1312 C1311 1.434 . S
C1313 C1314 1.369 . S
C1313 C1315 1.419 . S
C1313 H1317 0.930 . S
C1314 C1313 1.369 . S
C1314 C1323 1.429 . S
C1315 C1313 1.419 . S
C1315 C1316 1.363 . S
C1315 H1318 0.929 . S
C1316 C1315 1.363 . S
C1316 C1322 1.428 . S
H1317 C1313 0.930 . S
H1318 C1315 0.929 . S
S1319 N1320 1.613 . S
S1319 N1321 1.610 . S
N1320 S1319 1.613 . S
N1320 C1323 1.350 . S
N1321 S1319 1.610 . S
N1321 C1322 1.351 . S
C1322 C1316 1.428 . S
C1322 N1321 1.351 . S
C1322 C1323 1.434 . S
C1323 C1314 1.429 . S
C1323 N1320 1.350 . S
C1323 C1322 1.434 . S
C1324 C1325 1.369 . S
C1324 C1326 1.419 . S
C1324 H1328 0.930 . S
C1325 C1324 1.369 . S
C1325 C1334 1.429 . S
C1326 C1324 1.419 . S
C1326 C1327 1.363 . S
C1326 H1329 0.929 . S
C1327 C1326 1.363 . S
C1327 C1333 1.428 . S
H1328 C1324 0.930 . S
H1329 C1326 0.929 . S
S1330 N1331 1.613 . S
S1330 N1332 1.610 . S
N1331 S1330 1.613 . S
N1331 C1334 1.350 . S
N1332 S1330 1.610 . S
N1332 C1333 1.351 . S
C1333 C1327 1.428 . S
C1333 N1332 1.351 . S
C1333 C1334 1.434 . S
C1334 C1325 1.429 . S
C1334 N1331 1.350 . S
C1334 C1333 1.434 . S
C1335 C1336 1.369 . S
C1335 C1337 1.419 . S
C1335 H1339 0.930 . S
C1336 C1335 1.369 . S
C1336 C1345 1.429 . S
C1337 C1335 1.419 . S
C1337 C1338 1.363 . S
C1337 H1340 0.929 . S
C1338 C1337 1.363 . S
C1338 C1344 1.428 . S
H1339 C1335 0.930 . S
H1340 C1337 0.929 . S
S1341 N1342 1.613 . S
S1341 N1343 1.610 . S
N1342 S1341 1.613 . S
N1342 C1345 1.350 . S
N1343 S1341 1.610 . S
N1343 C1344 1.351 . S
C1344 C1338 1.428 . S
C1344 N1343 1.351 . S
C1344 C1345 1.434 . S
C1345 C1336 1.429 . S
C1345 N1342 1.350 . S
C1345 C1344 1.434 . S
C1346 C1347 1.369 . S
C1346 C1348 1.419 . S
C1346 H1350 0.930 . S
C1347 C1346 1.369 . S
C1347 C1356 1.429 . S
C1348 C1346 1.419 . S
C1348 C1349 1.363 . S
C1348 H1351 0.929 . S
C1349 C1348 1.363 . S
C1349 C1355 1.428 . S
H1350 C1346 0.930 . S
H1351 C1348 0.929 . S
S1352 N1353 1.613 . S
S1352 N1354 1.610 . S
N1353 S1352 1.613 . S
N1353 C1356 1.350 . S
N1354 S1352 1.610 . S
N1354 C1355 1.351 . S
C1355 C1349 1.428 . S
C1355 N1354 1.351 . S
C1355 C1356 1.434 . S
C1356 C1347 1.429 . S
C1356 N1353 1.350 . S
C1356 C1355 1.434 . S
C1357 C1358 1.369 . S
C1357 C1359 1.419 . S
C1357 H1361 0.930 . S
C1358 C1357 1.369 . S
C1358 C1367 1.429 . S
C1359 C1357 1.419 . S
C1359 C1360 1.363 . S
C1359 H1362 0.929 . S
C1360 C1359 1.363 . S
C1360 C1366 1.428 . S
H1361 C1357 0.930 . S
H1362 C1359 0.929 . S
S1363 N1364 1.613 . S
S1363 N1365 1.610 . S
N1364 S1363 1.613 . S
N1364 C1367 1.350 . S
N1365 S1363 1.610 . S
N1365 C1366 1.351 . S
C1366 C1360 1.428 . S
C1366 N1365 1.351 . S
C1366 C1367 1.434 . S
C1367 C1358 1.429 . S
C1367 N1364 1.350 . S
C1367 C1366 1.434 . S
C1368 C1369 1.369 . S
C1368 C1370 1.419 . S
C1368 H1372 0.930 . S
C1369 C1368 1.369 . S
C1369 C1378 1.429 . S
C1370 C1368 1.419 . S
C1370 C1371 1.363 . S
C1370 H1373 0.929 . S
C1371 C1370 1.363 . S
C1371 C1377 1.428 . S
H1372 C1368 0.930 . S
H1373 C1370 0.929 . S
S1374 N1375 1.613 . S
S1374 N1376 1.610 . S
N1375 S1374 1.613 . S
N1375 C1378 1.350 . S
N1376 S1374 1.610 . S
N1376 C1377 1.351 . S
C1377 C1371 1.428 . S
C1377 N1376 1.351 . S
C1377 C1378 1.434 . S
C1378 C1369 1.429 . S
C1378 N1375 1.350 . S
C1378 C1377 1.434 . S
C1379 C1380 1.369 . S
C1379 C1381 1.419 . S
C1379 H1383 0.930 . S
C1380 C1379 1.369 . S
C1380 C1389 1.429 . S
C1381 C1379 1.419 . S
C1381 C1382 1.363 . S
C1381 H1384 0.929 . S
C1382 C1381 1.363 . S
C1382 C1388 1.428 . S
H1383 C1379 0.930 . S
H1384 C1381 0.929 . S
S1385 N1386 1.613 . S
S1385 N1387 1.610 . S
N1386 S1385 1.613 . S
N1386 C1389 1.350 . S
N1387 S1385 1.610 . S
N1387 C1388 1.351 . S
C1388 C1382 1.428 . S
C1388 N1387 1.351 . S
C1388 C1389 1.434 . S
C1389 C1380 1.429 . S
C1389 N1386 1.350 . S
C1389 C1388 1.434 . S
C1390 C1391 1.369 . S
C1390 C1392 1.419 . S
C1390 H1394 0.930 . S
C1391 C1390 1.369 . S
C1391 C1400 1.429 . S
C1392 C1390 1.419 . S
C1392 C1393 1.363 . S
C1392 H1395 0.929 . S
C1393 C1392 1.363 . S
C1393 C1399 1.428 . S
H1394 C1390 0.930 . S
H1395 C1392 0.929 . S
S1396 N1397 1.613 . S
S1396 N1398 1.610 . S
N1397 S1396 1.613 . S
N1397 C1400 1.350 . S
N1398 S1396 1.610 . S
N1398 C1399 1.351 . S
C1399 C1393 1.428 . S
C1399 N1398 1.351 . S
C1399 C1400 1.434 . S
C1400 C1391 1.429 . S
C1400 N1397 1.350 . S
C1400 C1399 1.434 . S
C1401 C1402 1.369 . S
C1401 C1403 1.419 . S
C1401 H1405 0.930 . S
C1402 C1401 1.369 . S
C1402 C1411 1.429 . S
C1403 C1401 1.419 . S
C1403 C1404 1.363 . S
C1403 H1406 0.929 . S
C1404 C1403 1.363 . S
C1404 C1410 1.428 . S
H1405 C1401 0.930 . S
H1406 C1403 0.929 . S
S1407 N1408 1.613 . S
S1407 N1409 1.610 . S
N1408 S1407 1.613 . S
N1408 C1411 1.350 . S
N1409 S1407 1.610 . S
N1409 C1410 1.351 . S
C1410 C1404 1.428 . S
C1410 N1409 1.351 . S
C1410 C1411 1.434 . S
C1411 C1402 1.429 . S
C1411 N1408 1.350 . S
C1411 C1410 1.434 . S
C1412 C1413 1.369 . S
C1412 C1414 1.419 . S
C1412 H1416 0.945 . S
C1413 C1412 1.369 . S
C1413 C1422 1.429 . S
C1414 C1412 1.419 . S
C1414 C1415 1.363 . S
C1414 H1417 0.929 . S
C1415 C1414 1.363 . S
C1415 C1421 1.428 . S
H1416 C1412 0.945 . S
H1417 C1414 0.929 . S
S1418 N1419 1.613 . S
S1418 N1420 1.610 . S
N1419 S1418 1.613 . S
N1419 C1422 1.350 . S
N1420 S1418 1.610 . S
N1420 C1421 1.351 . S
C1421 C1415 1.428 . S
C1421 N1420 1.351 . S
C1421 C1422 1.434 . S
C1422 C1413 1.429 . S
C1422 N1419 1.350 . S
C1422 C1421 1.434 . S
C1423 C1424 1.369 . S
C1423 C1425 1.419 . S
C1423 H1427 0.930 . S
C1424 C1423 1.369 . S
C1424 C1433 1.429 . S
C1425 C1423 1.419 . S
C1425 C1426 1.363 . S
C1425 H1428 0.929 . S
C1426 C1425 1.363 . S
C1426 C1432 1.428 . S
H1427 C1423 0.930 . S
H1428 C1425 0.929 . S
S1429 N1430 1.613 . S
S1429 N1431 1.610 1_554 S
N1430 S1429 1.613 . S
N1430 C1433 1.350 1_554 S
N1431 S1429 1.610 1_556 S
N1431 C1432 1.351 . S
C1432 C1426 1.428 . S
C1432 N1431 1.351 . S
C1432 C1433 1.434 . S
C1433 C1424 1.429 . S
C1433 N1430 1.350 1_556 S
C1433 C1432 1.434 . S
C1434 C1435 1.369 . S
C1434 C1436 1.419 . S
C1434 H1438 0.930 1_556 S
C1435 C1434 1.369 . S
C1435 C1444 1.429 . S
C1436 C1434 1.419 . S
C1436 C1437 1.363 . S
C1436 H1439 0.929 . S
C1437 C1436 1.363 . S
C1437 C1443 1.428 . S
H1438 C1434 0.930 1_554 S
H1439 C1436 0.929 . S
S1440 N1441 1.613 . S
S1440 N1442 1.610 . S
N1441 S1440 1.613 . S
N1441 C1444 1.350 . S
N1442 S1440 1.610 . S
N1442 C1443 1.351 . S
C1443 C1437 1.428 . S
C1443 N1442 1.351 . S
C1443 C1444 1.434 . S
C1444 C1435 1.429 . S
C1444 N1441 1.350 . S
C1444 C1443 1.434 . S
C1445 C1446 1.369 . S
C1445 C1447 1.419 . S
C1445 H1449 0.930 . S
C1446 C1445 1.369 . S
C1446 C1455 1.429 . S
C1447 C1445 1.419 . S
C1447 C1448 1.363 . S
C1447 H1450 0.929 . S
C1448 C1447 1.363 . S
C1448 C1454 1.428 . S
H1449 C1445 0.930 . S
H1450 C1447 0.929 . S
S1451 N1452 1.613 . S
S1451 N1453 1.610 . S
N1452 S1451 1.613 . S
N1452 C1455 1.350 . S
N1453 S1451 1.610 . S
N1453 C1454 1.351 . S
C1454 C1448 1.428 . S
C1454 N1453 1.351 . S
C1454 C1455 1.434 . S
C1455 C1446 1.429 . S
C1455 N1452 1.350 . S
C1455 C1454 1.434 . S
C1456 C1457 1.369 . S
C1456 C1458 1.419 . S
C1456 H1460 0.930 1_556 S
C1457 C1456 1.369 . S
C1457 C1466 1.429 . S
C1458 C1456 1.419 . S
C1458 C1459 1.363 . S
C1458 H1461 0.929 . S
C1459 C1458 1.363 . S
C1459 C1465 1.428 . S
H1460 C1456 0.930 1_554 S
H1461 C1458 0.929 . S
S1462 N1463 1.613 . S
S1462 N1464 1.610 . S
N1463 S1462 1.613 . S
N1463 C1466 1.350 . S
N1464 S1462 1.610 . S
N1464 C1465 1.351 . S
C1465 C1459 1.428 . S
C1465 N1464 1.351 . S
C1465 C1466 1.434 . S
C1466 C1457 1.429 . S
C1466 N1463 1.350 . S
C1466 C1465 1.434 . S
C1467 C1468 1.369 . S
C1467 C1469 1.419 . S
C1467 H1471 0.930 . S
C1468 C1467 1.369 . S
C1468 C1477 1.429 . S
C1469 C1467 1.419 . S
C1469 C1470 1.363 . S
C1469 H1472 0.929 . S
C1470 C1469 1.363 . S
C1470 C1476 1.428 . S
H1471 C1467 0.930 . S
H1472 C1469 0.929 . S
S1473 N1474 1.613 . S
S1473 N1475 1.610 . S
N1474 S1473 1.613 . S
N1474 C1477 1.350 . S
N1475 S1473 1.610 . S
N1475 C1476 1.351 . S
C1476 C1470 1.428 . S
C1476 N1475 1.351 . S
C1476 C1477 1.434 . S
C1477 C1468 1.429 . S
C1477 N1474 1.350 . S
C1477 C1476 1.434 . S
C1478 C1479 1.369 . S
C1478 C1480 1.419 . S
C1478 H1482 0.930 1_554 S
C1479 C1478 1.369 . S
C1479 C1488 1.429 . S
C1480 C1478 1.419 . S
C1480 C1481 1.363 . S
C1480 H1483 0.929 . S
C1481 C1480 1.363 . S
C1481 C1487 1.428 . S
H1482 C1478 0.930 1_556 S
H1483 C1480 0.929 . S
S1484 N1485 1.613 . S
S1484 N1486 1.610 . S
N1485 S1484 1.613 . S
N1485 C1488 1.350 . S
N1486 S1484 1.610 . S
N1486 C1487 1.351 . S
C1487 C1481 1.428 . S
C1487 N1486 1.351 . S
C1487 C1488 1.434 . S
C1488 C1479 1.429 . S
C1488 N1485 1.350 . S
C1488 C1487 1.434 . S
C1489 C1490 1.369 . S
C1489 C1491 1.419 . S
C1489 H1493 0.930 . S
C1490 C1489 1.369 . S
C1490 C1499 1.429 . S
C1491 C1489 1.419 . S
C1491 C1492 1.363 . S
C1491 H1494 0.929 . S
C1492 C1491 1.363 . S
C1492 C1498 1.428 . S
H1493 C1489 0.930 . S
H1494 C1491 0.929 . S
S1495 N1496 1.613 . S
S1495 N1497 1.610 . S
N1496 S1495 1.613 . S
N1496 C1499 1.350 . S
N1497 S1495 1.610 . S
N1497 C1498 1.351 . S
C1498 C1492 1.428 . S
C1498 N1497 1.351 . S
C1498 C1499 1.434 . S
C1499 C1490 1.429 . S
C1499 N1496 1.350 . S
C1499 C1498 1.434 . S
C1500 C1501 1.369 . S
C1500 C1502 1.419 . S
C1500 H1504 0.930 . S
C1501 C1500 1.369 . S
C1501 C1510 1.429 . S
C1502 C1500 1.419 . S
C1502 C1503 1.363 . S
C1502 H1505 0.929 . S
C1503 C1502 1.363 . S
C1503 C1509 1.428 . S
H1504 C1500 0.930 . S
H1505 C1502 0.929 . S
S1506 N1507 1.613 . S
S1506 N1508 1.610 . S
N1507 S1506 1.613 . S
N1507 C1510 1.350 . S
N1508 S1506 1.610 . S
N1508 C1509 1.351 . S
C1509 C1503 1.428 . S
C1509 N1508 1.351 . S
C1509 C1510 1.434 . S
C1510 C1501 1.429 . S
C1510 N1507 1.350 . S
C1510 C1509 1.434 . S
C1511 C1512 1.369 . S
C1511 C1513 1.419 . S
C1511 H1515 0.930 . S
C1512 C1511 1.369 . S
C1512 C1521 1.429 . S
C1513 C1511 1.419 . S
C1513 C1514 1.363 . S
C1513 H1516 0.929 . S
C1514 C1513 1.363 . S
C1514 C1520 1.428 . S
H1515 C1511 0.930 . S
H1516 C1513 0.929 . S
S1517 N1518 1.613 . S
S1517 N1519 1.610 . S
N1518 S1517 1.613 . S
N1518 C1521 1.350 . S
N1519 S1517 1.610 . S
N1519 C1520 1.351 . S
C1520 C1514 1.428 . S
C1520 N1519 1.351 . S
C1520 C1521 1.434 . S
C1521 C1512 1.429 . S
C1521 N1518 1.350 . S
C1521 C1520 1.434 . S
C1522 C1523 1.369 . S
C1522 C1524 1.419 . S
C1522 H1526 0.930 . S
C1523 C1522 1.369 . S
C1523 C1532 1.429 . S
C1524 C1522 1.419 . S
C1524 C1525 1.363 . S
C1524 H1527 0.929 . S
C1525 C1524 1.363 . S
C1525 C1531 1.428 . S
H1526 C1522 0.930 . S
H1527 C1524 0.929 . S
S1528 N1529 1.613 . S
S1528 N1530 1.610 . S
N1529 S1528 1.613 . S
N1529 C1532 1.350 . S
N1530 S1528 1.610 . S
N1530 C1531 1.351 . S
C1531 C1525 1.428 . S
C1531 N1530 1.351 . S
C1531 C1532 1.434 . S
C1532 C1523 1.429 . S
C1532 N1529 1.350 . S
C1532 C1531 1.434 . S
C1533 C1534 1.369 . S
C1533 C1535 1.419 . S
C1533 H1537 0.930 . S
C1534 C1533 1.369 . S
C1534 C1543 1.429 . S
C1535 C1533 1.419 . S
C1535 C1536 1.363 . S
C1535 H1538 0.929 . S
C1536 C1535 1.363 . S
C1536 C1542 1.428 . S
H1537 C1533 0.930 . S
H1538 C1535 0.929 . S
S1539 N1540 1.602 1_655 S
S1539 N1541 1.614 1_655 S
N1540 S1539 1.602 1_455 S
N1540 C1543 1.340 . S
N1541 S1539 1.614 1_455 S
N1541 C1542 1.352 . S
C1542 C1536 1.428 . S
C1542 N1541 1.352 . S
C1542 C1543 1.434 . S
C1543 C1534 1.429 . S
C1543 N1540 1.340 . S
C1543 C1542 1.434 . S
C1544 C1545 1.369 . S
C1544 C1546 1.419 . S
C1544 H1548 0.930 . S
C1545 C1544 1.369 . S
C1545 C1554 1.429 . S
C1546 C1544 1.419 . S
C1546 C1547 1.363 . S
C1546 H1549 0.929 . S
C1547 C1546 1.363 . S
C1547 C1553 1.428 . S
H1548 C1544 0.930 . S
H1549 C1546 0.929 . S
S1550 N1551 1.613 . S
S1550 N1552 1.610 . S
N1551 S1550 1.613 . S
N1551 C1554 1.350 . S
N1552 S1550 1.610 . S
N1552 C1553 1.351 . S
C1553 C1547 1.428 . S
C1553 N1552 1.351 . S
C1553 C1554 1.434 . S
C1554 C1545 1.429 . S
C1554 N1551 1.350 . S
C1554 C1553 1.434 . S
C1555 C1556 1.369 . S
C1555 C1557 1.419 . S
C1555 H1559 0.930 . S
C1556 C1555 1.369 . S
C1556 C1565 1.429 1_565 S
C1557 C1555 1.419 . S
C1557 C1558 1.363 . S
C1557 H1560 0.929 . S
C1558 C1557 1.363 . S
C1558 C1564 1.428 1_565 S
H1559 C1555 0.930 . S
H1560 C1557 0.929 . S
S1561 N1562 1.613 . S
S1561 N1563 1.610 . S
N1562 S1561 1.613 . S
N1562 C1565 1.350 . S
N1563 S1561 1.610 . S
N1563 C1564 1.351 . S
C1564 C1558 1.428 1_545 S
C1564 N1563 1.351 . S
C1564 C1565 1.434 . S
C1565 C1556 1.429 1_545 S
C1565 N1562 1.350 . S
C1565 C1564 1.434 . S
C1566 C1567 1.369 1_545 S
C1566 C1568 1.419 . S
C1566 H1570 0.930 . S
C1567 C1566 1.369 1_565 S
C1567 C1576 1.429 . S
C1568 C1566 1.419 . S
C1568 C1569 1.358 1_545 S
C1568 H1571 0.929 . S
C1569 C1568 1.358 1_565 S
C1569 C1575 1.449 . S
H1570 C1566 0.930 . S
H1571 C1568 0.929 . S
S1572 N1573 1.613 . S
S1572 N1574 1.610 . S
N1573 S1572 1.613 . S
N1573 C1576 1.350 . S
N1574 S1572 1.610 . S
N1574 C1575 1.351 . S
C1575 C1569 1.449 . S
C1575 N1574 1.351 . S
C1575 C1576 1.434 . S
C1576 C1567 1.429 . S
C1576 N1573 1.350 . S
C1576 C1575 1.434 . S
C1577 C1578 1.369 . S
C1577 C1579 1.419 . S
C1577 H1581 0.930 . S
C1578 C1577 1.369 . S
C1578 C1587 1.429 1_455 S
C1579 C1577 1.419 . S
C1579 C1580 1.363 . S
C1579 H1582 0.929 . S
C1580 C1579 1.363 . S
C1580 C1586 1.428 1_455 S
H1581 C1577 0.930 . S
H1582 C1579 0.929 . S
S1583 N1584 1.613 . S
S1583 N1585 1.610 . S
N1584 S1583 1.613 . S
N1584 C1587 1.350 . S
N1585 S1583 1.610 . S
N1585 C1586 1.351 . S
C1586 C1580 1.428 1_655 S
C1586 N1585 1.351 . S
C1586 C1587 1.434 . S
C1587 C1578 1.429 1_655 S
C1587 N1584 1.350 . S
C1587 C1586 1.434 . S
C1588 C1589 1.369 . S
C1588 C1590 1.419 . S
C1588 H1592 0.930 . S
C1589 C1588 1.369 . S
C1589 C1598 1.429 . S
C1590 C1588 1.419 . S
C1590 C1591 1.363 . S
C1590 H1593 0.929 . S
C1591 C1590 1.363 . S
C1591 C1597 1.428 . S
H1592 C1588 0.930 . S
H1593 C1590 0.929 . S
S1594 N1595 1.613 . S
S1594 N1596 1.610 . S
N1595 S1594 1.613 . S
N1595 C1598 1.350 . S
N1596 S1594 1.610 . S
N1596 C1597 1.351 . S
C1597 C1591 1.428 . S
C1597 N1596 1.351 . S
C1597 C1598 1.434 . S
C1598 C1589 1.429 . S
C1598 N1595 1.350 . S
C1598 C1597 1.434 . S
C1599 C1600 1.369 . S
C1599 C1601 1.419 . S
C1599 H1603 0.930 . S
C1600 C1599 1.369 . S
C1600 C1609 1.429 . S
C1601 C1599 1.419 . S
C1601 C1602 1.363 . S
C1601 H1604 0.929 . S
C1602 C1601 1.363 . S
C1602 C1608 1.428 . S
H1603 C1599 0.930 . S
H1604 C1601 0.929 . S
S1605 N1606 1.613 . S
S1605 N1607 1.610 . S
N1606 S1605 1.613 . S
N1606 C1609 1.350 . S
N1607 S1605 1.610 . S
N1607 C1608 1.351 . S
C1608 C1602 1.428 . S
C1608 N1607 1.351 . S
C1608 C1609 1.434 . S
C1609 C1600 1.429 . S
C1609 N1606 1.350 . S
C1609 C1608 1.434 . S
C1610 C1611 1.369 . S
C1610 C1612 1.419 . S
C1610 H1614 0.930 . S
C1611 C1610 1.369 . S
C1611 C1620 1.429 . S
C1612 C1610 1.419 . S
C1612 C1613 1.363 . S
C1612 H1615 0.929 . S
C1613 C1612 1.363 . S
C1613 C1619 1.428 . S
H1614 C1610 0.930 . S
H1615 C1612 0.929 . S
S1616 N1617 1.613 . S
S1616 N1618 1.610 . S
N1617 S1616 1.613 . S
N1617 C1620 1.350 . S
N1618 S1616 1.610 . S
N1618 C1619 1.351 . S
C1619 C1613 1.428 . S
C1619 N1618 1.351 . S
C1619 C1620 1.434 . S
C1620 C1611 1.429 . S
C1620 N1617 1.350 . S
C1620 C1619 1.434 . S
C1621 C1622 1.369 . S
C1621 C1623 1.419 . S
C1621 H1625 0.930 . S
C1622 C1621 1.369 . S
C1622 C1631 1.429 . S
C1623 C1621 1.419 . S
C1623 C1624 1.363 . S
C1623 H1626 0.929 . S
C1624 C1623 1.363 . S
C1624 C1630 1.428 . S
H1625 C1621 0.930 . S
H1626 C1623 0.929 . S
S1627 N1628 1.613 . S
S1627 N1629 1.610 . S
N1628 S1627 1.613 . S
N1628 C1631 1.350 . S
N1629 S1627 1.610 . S
N1629 C1630 1.351 . S
C1630 C1624 1.428 . S
C1630 N1629 1.351 . S
C1630 C1631 1.434 . S
C1631 C1622 1.429 . S
C1631 N1628 1.350 . S
C1631 C1630 1.434 . S
C1632 C1633 1.369 1_565 S
C1632 C1634 1.419 . S
C1632 H1636 0.930 . S
C1633 C1632 1.369 1_545 S
C1633 C1642 1.429 . S
C1634 C1632 1.419 . S
C1634 C1635 1.363 1_565 S
C1634 H1637 0.929 . S
C1635 C1634 1.363 1_545 S
C1635 C1641 1.428 . S
H1636 C1632 0.930 . S
H1637 C1634 0.929 . S
S1638 N1639 1.613 . S
S1638 N1640 1.610 . S
N1639 S1638 1.613 . S
N1639 C1642 1.350 . S
N1640 S1638 1.610 . S
N1640 C1641 1.351 . S
C1641 C1635 1.428 . S
C1641 N1640 1.351 . S
C1641 C1642 1.434 . S
C1642 C1633 1.429 . S
C1642 N1639 1.350 . S
C1642 C1641 1.434 . S
C1643 C1644 1.369 . S
C1643 C1645 1.419 . S
C1643 H1647 0.930 . S
C1644 C1643 1.369 . S
C1644 C1653 1.429 . S
C1645 C1643 1.419 . S
C1645 C1646 1.363 . S
C1645 H1648 0.929 . S
C1646 C1645 1.363 . S
C1646 C1652 1.428 . S
H1647 C1643 0.930 . S
H1648 C1645 0.929 . S
S1649 N1650 1.613 . S
S1649 N1651 1.610 . S
N1650 S1649 1.613 . S
N1650 C1653 1.350 . S
N1651 S1649 1.610 . S
N1651 C1652 1.351 . S
C1652 C1646 1.428 . S
C1652 N1651 1.351 . S
C1652 C1653 1.434 . S
C1653 C1644 1.429 . S
C1653 N1650 1.350 . S
C1653 C1652 1.434 . S
C1654 C1655 1.369 . S
C1654 C1656 1.419 . S
C1654 H1658 0.930 . S
C1655 C1654 1.369 . S
C1655 C1664 1.429 . S
C1656 C1654 1.419 . S
C1656 C1657 1.363 . S
C1656 H1659 0.929 . S
C1657 C1656 1.363 . S
C1657 C1663 1.428 . S
H1658 C1654 0.930 . S
H1659 C1656 0.929 . S
S1660 N1661 1.613 . S
S1660 N1662 1.610 . S
N1661 S1660 1.613 . S
N1661 C1664 1.350 . S
N1662 S1660 1.610 . S
N1662 C1663 1.351 . S
C1663 C1657 1.428 . S
C1663 N1662 1.351 . S
C1663 C1664 1.434 . S
C1664 C1655 1.429 . S
C1664 N1661 1.350 . S
C1664 C1663 1.434 . S
C1665 C1666 1.369 . S
C1665 C1667 1.419 . S
C1665 H1669 0.930 . S
C1666 C1665 1.369 . S
C1666 C1675 1.429 . S
C1667 C1665 1.419 . S
C1667 C1668 1.363 . S
C1667 H1670 0.929 . S
C1668 C1667 1.363 . S
C1668 C1674 1.428 . S
H1669 C1665 0.930 . S
H1670 C1667 0.929 . S
S1671 N1672 1.613 . S
S1671 N1673 1.610 . S
N1672 S1671 1.613 . S
N1672 C1675 1.350 . S
N1673 S1671 1.610 . S
N1673 C1674 1.351 . S
C1674 C1668 1.428 . S
C1674 N1673 1.351 . S
C1674 C1675 1.434 . S
C1675 C1666 1.429 . S
C1675 N1672 1.350 . S
C1675 C1674 1.434 . S
C1676 C1677 1.369 . S
C1676 C1678 1.419 . S
C1676 H1680 0.930 . S
C1677 C1676 1.369 . S
C1677 C1686 1.429 . S
C1678 C1676 1.419 . S
C1678 C1679 1.363 . S
C1678 H1681 0.929 . S
C1679 C1678 1.363 . S
C1679 C1685 1.428 . S
H1680 C1676 0.930 . S
H1681 C1678 0.929 . S
S1682 N1683 1.613 . S
S1682 N1684 1.610 . S
N1683 S1682 1.613 . S
N1683 C1686 1.350 . S
N1684 S1682 1.610 . S
N1684 C1685 1.351 . S
C1685 C1679 1.428 . S
C1685 N1684 1.351 . S
C1685 C1686 1.434 . S
C1686 C1677 1.429 . S
C1686 N1683 1.350 . S
C1686 C1685 1.434 . S
C1687 C1688 1.369 . S
C1687 C1689 1.419 . S
C1687 H1691 0.930 . S
C1688 C1687 1.369 . S
C1688 C1697 1.429 . S
C1689 C1687 1.419 . S
C1689 C1690 1.363 . S
C1689 H1692 0.929 . S
C1690 C1689 1.363 . S
C1690 C1696 1.428 . S
H1691 C1687 0.930 . S
H1692 C1689 0.929 . S
S1693 N1694 1.613 . S
S1693 N1695 1.610 . S
N1694 S1693 1.613 . S
N1694 C1697 1.350 . S
N1695 S1693 1.610 . S
N1695 C1696 1.351 . S
C1696 C1690 1.428 . S
C1696 N1695 1.351 . S
C1696 C1697 1.434 . S
C1697 C1688 1.429 . S
C1697 N1694 1.350 . S
C1697 C1696 1.434 . S
C1698 C1699 1.369 . S
C1698 C1700 1.419 . S
C1698 H1702 0.930 . S
C1699 C1698 1.369 . S
C1699 C1708 1.429 . S
C1700 C1698 1.419 . S
C1700 C1701 1.363 . S
C1700 H1703 0.929 . S
C1701 C1700 1.363 . S
C1701 C1707 1.428 . S
H1702 C1698 0.930 . S
H1703 C1700 0.929 . S
S1704 N1705 1.613 . S
S1704 N1706 1.610 . S
N1705 S1704 1.613 . S
N1705 C1708 1.350 . S
N1706 S1704 1.610 . S
N1706 C1707 1.351 . S
C1707 C1701 1.428 . S
C1707 N1706 1.351 . S
C1707 C1708 1.434 . S
C1708 C1699 1.429 . S
C1708 N1705 1.350 . S
C1708 C1707 1.434 . S
C1709 C1710 1.369 . S
C1709 C1711 1.419 . S
C1709 H1713 0.930 . S
C1710 C1709 1.369 . S
C1710 C1719 1.429 . S
C1711 C1709 1.419 . S
C1711 C1712 1.363 . S
C1711 H1714 0.929 . S
C1712 C1711 1.363 . S
C1712 C1718 1.428 . S
H1713 C1709 0.930 . S
H1714 C1711 0.929 . S
S1715 N1716 1.613 . S
S1715 N1717 1.610 . S
N1716 S1715 1.613 . S
N1716 C1719 1.350 . S
N1717 S1715 1.610 . S
N1717 C1718 1.351 . S
C1718 C1712 1.428 . S
C1718 N1717 1.351 . S
C1718 C1719 1.434 . S
C1719 C1710 1.429 . S
C1719 N1716 1.350 . S
C1719 C1718 1.434 . S
C1720 C1721 1.369 . S
C1720 C1722 1.419 . S
C1720 H1724 0.930 . S
C1721 C1720 1.369 . S
C1721 C1730 1.429 . S
C1722 C1720 1.419 . S
C1722 C1723 1.363 . S
C1722 H1725 0.929 . S
C1723 C1722 1.363 . S
C1723 C1729 1.428 . S
H1724 C1720 0.930 . S
H1725 C1722 0.929 . S
S1726 N1727 1.613 . S
S1726 N1728 1.610 . S
N1727 S1726 1.613 . S
N1727 C1730 1.350 . S
N1728 S1726 1.610 . S
N1728 C1729 1.351 . S
C1729 C1723 1.428 . S
C1729 N1728 1.351 . S
C1729 C1730 1.434 . S
C1730 C1721 1.429 . S
C1730 N1727 1.350 . S
C1730 C1729 1.434 . S
C1731 C1732 1.369 . S
C1731 C1733 1.419 . S
C1731 H1735 0.930 . S
C1732 C1731 1.369 . S
C1732 C1741 1.429 1_655 S
C1733 C1731 1.419 . S
C1733 C1734 1.363 . S
C1733 H1736 0.929 . S
C1734 C1733 1.363 . S
C1734 C1740 1.428 1_655 S
H1735 C1731 0.930 . S
H1736 C1733 0.929 . S
S1737 N1738 1.613 . S
S1737 N1739 1.610 . S
N1738 S1737 1.613 . S
N1738 C1741 1.350 . S
N1739 S1737 1.610 . S
N1739 C1740 1.351 . S
C1740 C1734 1.428 1_455 S
C1740 N1739 1.351 . S
C1740 C1741 1.434 . S
C1741 C1732 1.429 1_455 S
C1741 N1738 1.350 . S
C1741 C1740 1.434 . S
C1742 C1743 1.369 . S
C1742 C1744 1.419 . S
C1742 H1746 0.930 . S
C1743 C1742 1.369 . S
C1743 C1752 1.429 . S
C1744 C1742 1.419 . S
C1744 C1745 1.363 . S
C1744 H1747 0.929 . S
C1745 C1744 1.363 . S
C1745 C1751 1.428 . S
H1746 C1742 0.930 . S
H1747 C1744 0.929 . S
S1748 N1749 1.613 . S
S1748 N1750 1.610 . S
N1749 S1748 1.613 . S
N1749 C1752 1.350 . S
N1750 S1748 1.610 . S
N1750 C1751 1.351 . S
C1751 C1745 1.428 . S
C1751 N1750 1.351 . S
C1751 C1752 1.434 . S
C1752 C1743 1.429 . S
C1752 N1749 1.350 . S
C1752 C1751 1.434 . S
C1753 C1754 1.369 1_565 S
C1753 C1755 1.419 . S
C1753 H1757 0.930 . S
C1754 C1753 1.369 1_545 S
C1754 C1763 1.429 . S
C1755 C1753 1.419 . S
C1755 C1756 1.345 1_565 S
C1755 H1758 0.929 . S
C1756 C1755 1.345 1_545 S
C1756 C1762 1.438 . S
H1757 C1753 0.930 . S
H1758 C1755 0.929 . S
S1759 N1760 1.613 . S
S1759 N1761 1.610 . S
N1760 S1759 1.613 . S
N1760 C1763 1.350 . S
N1761 S1759 1.610 . S
N1761 C1762 1.351 . S
C1762 C1756 1.438 . S
C1762 N1761 1.351 . S
C1762 C1763 1.434 . S
C1763 C1754 1.429 . S
C1763 N1760 1.350 . S
C1763 C1762 1.434 . S
C973 C4 1.488 1_655 S
C975 C817 1.498 . S
C984 C38 1.674 . S
C986 C842 1.654 . S
C997 C853 1.520 . S
C995 C74 1.519 . S
C1006 C76 1.513 . S
C1008 C878 1.490 . S
C1017 C2 1.598 . S
C1019 C896 1.609 . S
C1028 C40 1.530 . S
C1030 C907 1.506 . S
C1039 C110 1.561 . S
C1041 C889 1.587 1_455 S
C1052 C914 1.481 . S
C1050 C148 1.489 . S
C1063 C871 1.562 1_565 S
C1061 C182 1.550 . S
C1072 C184 1.529 . S
C1074 C860 1.545 1_545 S
C1085 C824 1.484 . S
C1083 C112 1.473 1_655 S
C1094 C146 1.585 . S
C1096 C835 1.586 . S
C1105 C220 1.580 . S
C1107 C925 1.552 . S
C1116 C254 1.715 . S
C1118 C950 1.683 . S
C1129 C961 1.576 . S
C1127 C290 1.616 . S
C1138 C292 1.545 . S
C1140 C662 1.527 . S
C1149 C218 1.662 . S
C1151 C680 1.645 . S
C1160 C256 1.545 . S
C1162 C691 1.514 . S
C1171 C326 1.609 . S
C1173 C673 1.609 . S
C1182 C364 1.517 . S
C1184 C698 1.502 . S
C1195 C655 1.603 . S
C1193 C398 1.602 . S
C1206 C968 1.568 . S
C1204 C400 1.571 . S
C1217 C932 1.475 . S
C1215 C328 1.486 . S
C1228 C943 1.615 . S
C1226 C362 1.621 . S
C1237 C436 1.556 . S
C1239 C709 1.530 . S
C1248 C470 1.700 . S
C1250 C734 1.677 . S
C1259 C506 1.613 . S
C1261 C745 1.579 . S
C1270 C508 1.571 . S
C1272 C770 1.550 . S
C1283 C788 1.646 . S
C1281 C434 1.667 . S
C1294 C799 1.523 . S
C1292 C472 1.560 . S
C1305 C781 1.639 . S
C1303 C542 1.645 . S
C1316 C806 1.505 . S
C1314 C580 1.524 . S
C1325 C614 1.594 . S
C1327 C763 1.594 . S
C1338 C752 1.538 . S
C1336 C616 1.543 . S
C1347 C544 1.490 . S
C1349 C716 1.481 . S
C1360 C727 1.597 . S
C1358 C578 1.603 . S
C1371 C664 1.461 . S
C1369 C14 1.490 . S
C1380 C39 1.487 . S
C1382 C682 1.416 . S
C1393 C692 1.381 . S
C1391 C75 1.471 . S
C1404 C710 1.353 . S
C1402 C86 1.379 . S
C1415 C736 1.435 . S
C1413 C3 1.505 . S
C1426 C746 1.430 . S
C1424 C50 1.463 . S
C1435 C111 1.533 . S
C1437 C754 1.421 . S
C1446 C158 1.467 . S
C1448 C718 1.378 . S
C1457 C183 1.601 . S
C1459 C728 1.516 . S
C1468 C194 1.528 . S
C1470 C674 1.485 . S
C1481 C700 1.389 . S
C1479 C122 1.476 . S
C1490 C147 1.472 . S
C1492 C656 1.380 . S
C1503 C772 1.439 . S
C1501 C230 1.477 . S
C1512 C255 1.536 . S
C1514 C790 1.464 . S
C1523 C291 1.491 . S
C1525 C800 1.398 . S
C1536 C818 1.324 . S
C1534 C302 1.337 . S
C1545 C219 1.502 . S
C1547 C844 1.436 . S
C1556 C266 1.411 . S
C1558 C854 1.418 . S
C1567 C327 1.436 . S
C1569 C862 1.338 . S
C1578 C374 1.410 . S
C1580 C826 1.361 . S
C1591 C836 1.508 . S
C1589 C399 1.587 . S
C1600 C410 1.523 . S
C1602 C782 1.469 . S
C1611 C338 1.503 . S
C1613 C808 1.426 . S
C1624 C764 1.431 . S
C1622 C363 1.514 . S
C1635 C880 1.408 . S
C1633 C446 1.406 . S
C1644 C471 1.467 . S
C1646 C898 1.392 . S
C1655 C507 1.460 . S
C1657 C908 1.368 . S
C1668 C926 1.346 . S
C1666 C518 1.384 . S
C1679 C952 1.463 . S
C1677 C435 1.541 . S
C1688 C482 1.492 . S
C1690 C962 1.467 . S
C1699 C543 1.509 . S
C1701 C970 1.390 . S
C1710 C590 1.500 . S
C1712 C934 1.419 . S
C1723 C944 1.521 . S
C1721 C615 1.615 . S
C1734 C890 1.405 1_655 S
C1732 C626 1.428 . S
C1745 C916 1.407 . S
C1743 C554 1.488 . S
C1754 C579 1.432 . S
C1756 C872 1.364 1_545 S
