# Generated by pormake.
# Topology wbl, (4,4)-cn, num edge types: 1
# Building blocks:
#     Node 0, Type 0, BuildingBlock: MUDLON_clean_linker_0, # of connection points: 4
#     Node 1, Type 0, BuildingBlock: MUDLON_clean_linker_0, # of connection points: 4
#     Node 2, Type 0, BuildingBlock: MUDLON_clean_linker_0, # of connection points: 4
#     Node 3, Type 0, BuildingBlock: MUDLON_clean_linker_0, # of connection points: 4
#     Node 4, Type 0, BuildingBlock: MUDLON_clean_linker_0, # of connection points: 4
#     Node 5, Type 0, BuildingBlock: MUDLON_clean_linker_0, # of connection points: 4
#     Node 6, Type 0, BuildingBlock: MUDLON_clean_linker_0, # of connection points: 4
#     Node 7, Type 0, BuildingBlock: MUDLON_clean_linker_0, # of connection points: 4
#     Node 8, Type 1, BuildingBlock: KUFVIS_clean_sbu_0, # of connection points: 4
#     Node 9, Type 1, BuildingBlock: KUFVIS_clean_sbu_0, # of connection points: 4
#     Node 10, Type 1, BuildingBlock: KUFVIS_clean_sbu_0, # of connection points: 4
#     Node 11, Type 1, BuildingBlock: KUFVIS_clean_sbu_0, # of connection points: 4
#     Node 12, Type 1, BuildingBlock: KUFVIS_clean_sbu_0, # of connection points: 4
#     Node 13, Type 1, BuildingBlock: KUFVIS_clean_sbu_0, # of connection points: 4
#     Node 14, Type 1, BuildingBlock: KUFVIS_clean_sbu_0, # of connection points: 4
#     Node 15, Type 1, BuildingBlock: KUFVIS_clean_sbu_0, # of connection points: 4
#     Edge 16, Type (0, 1), BuildingBlock: MIFKUJ_clean_linker_0, # of connection points: 2
#     Edge 17, Type (0, 1), BuildingBlock: MIFKUJ_clean_linker_0, # of connection points: 2
#     Edge 18, Type (0, 1), BuildingBlock: MIFKUJ_clean_linker_0, # of connection points: 2
#     Edge 19, Type (0, 1), BuildingBlock: MIFKUJ_clean_linker_0, # of connection points: 2
#     Edge 20, Type (0, 1), BuildingBlock: MIFKUJ_clean_linker_0, # of connection points: 2
#     Edge 21, Type (0, 1), BuildingBlock: MIFKUJ_clean_linker_0, # of connection points: 2
#     Edge 22, Type (0, 1), BuildingBlock: MIFKUJ_clean_linker_0, # of connection points: 2
#     Edge 23, Type (0, 1), BuildingBlock: MIFKUJ_clean_linker_0, # of connection points: 2
#     Edge 24, Type (0, 1), BuildingBlock: MIFKUJ_clean_linker_0, # of connection points: 2
#     Edge 25, Type (0, 1), BuildingBlock: MIFKUJ_clean_linker_0, # of connection points: 2
#     Edge 26, Type (0, 1), BuildingBlock: MIFKUJ_clean_linker_0, # of connection points: 2
#     Edge 27, Type (0, 1), BuildingBlock: MIFKUJ_clean_linker_0, # of connection points: 2
#     Edge 28, Type (0, 1), BuildingBlock: MIFKUJ_clean_linker_0, # of connection points: 2
#     Edge 29, Type (0, 1), BuildingBlock: MIFKUJ_clean_linker_0, # of connection points: 2
#     Edge 30, Type (0, 1), BuildingBlock: MIFKUJ_clean_linker_0, # of connection points: 2
#     Edge 31, Type (0, 1), BuildingBlock: MIFKUJ_clean_linker_0, # of connection points: 2
#     Edge 32, Type (0, 1), BuildingBlock: MIFKUJ_clean_linker_0, # of connection points: 2
#     Edge 33, Type (0, 1), BuildingBlock: MIFKUJ_clean_linker_0, # of connection points: 2
#     Edge 34, Type (0, 1), BuildingBlock: MIFKUJ_clean_linker_0, # of connection points: 2
#     Edge 35, Type (0, 1), BuildingBlock: MIFKUJ_clean_linker_0, # of connection points: 2
#     Edge 36, Type (0, 1), BuildingBlock: MIFKUJ_clean_linker_0, # of connection points: 2
#     Edge 37, Type (0, 1), BuildingBlock: MIFKUJ_clean_linker_0, # of connection points: 2
#     Edge 38, Type (0, 1), BuildingBlock: MIFKUJ_clean_linker_0, # of connection points: 2
#     Edge 39, Type (0, 1), BuildingBlock: MIFKUJ_clean_linker_0, # of connection points: 2
#     Edge 40, Type (0, 1), BuildingBlock: MIFKUJ_clean_linker_0, # of connection points: 2
#     Edge 41, Type (0, 1), BuildingBlock: MIFKUJ_clean_linker_0, # of connection points: 2
#     Edge 42, Type (0, 1), BuildingBlock: MIFKUJ_clean_linker_0, # of connection points: 2
#     Edge 43, Type (0, 1), BuildingBlock: MIFKUJ_clean_linker_0, # of connection points: 2
#     Edge 44, Type (0, 1), BuildingBlock: MIFKUJ_clean_linker_0, # of connection points: 2
#     Edge 45, Type (0, 1), BuildingBlock: MIFKUJ_clean_linker_0, # of connection points: 2
#     Edge 46, Type (0, 1), BuildingBlock: MIFKUJ_clean_linker_0, # of connection points: 2
#     Edge 47, Type (0, 1), BuildingBlock: MIFKUJ_clean_linker_0, # of connection points: 2
# Relax obj value: 0.115
# Max RMSD: 0.122
# Mean RMSD: 0.119
data_MOF--net-wbl--node1-KUFVIS_clean_sbu_0--node2-MUDLON_clean_linker_0--edge1-MIFKUJ_clean_linker_0
_symmetry_space_group_name_H-M    P1
_symmetry_Int_Tables_number       1
_symmetry_cell_setting            triclinic
loop_
_symmetry_equiv_pos_as_xyz
'x, y, z'
_cell_length_a     65.591567
_cell_length_b     65.59359
_cell_length_c     92.792088
_cell_angle_alpha  90.00258
_cell_angle_beta   90.649707
_cell_angle_gamma 89.971579
loop_
_atom_site_label
_atom_site_type_symbol
_atom_site_fract_x
_atom_site_fract_y
_atom_site_fract_z
_atom_type_partial_charge
H0 H 0.10064 0.96942 0.3123 0.0
N1 N 0.06321 0.9603 0.30045 0.0
H2 H 0.11433 0.95664 0.33518 0.0
H3 H 0.04321 0.93994 0.32067 0.0
H4 H 0.05674 0.9276 0.34388 0.0
H5 H 0.06781 0.92333 0.28956 0.0
H6 H 0.09585 0.91105 0.27494 0.0
H7 H 0.09048 0.98477 0.28598 0.0
H8 H 0.11804 0.97282 0.27082 0.0
H9 H 0.07651 0.99851 0.30808 0.0
H10 H 0.0252 0.96503 0.29099 0.0
H11 H 0.05618 0.02965 0.30821 0.0
H12 H 0.00438 0.99597 0.29158 0.0
H13 H 0.97934 0.12436 0.31696 0.0
H14 H 0.96537 0.13626 0.3398 0.0
H15 H 0.94984 0.07418 0.35081 0.0
H16 H 0.96319 0.06259 0.32782 0.0
H17 H 0.94479 0.06051 0.30542 0.0
H18 H 0.91123 0.06748 0.29498 0.0
H19 H 0.93427 0.12329 0.2765 0.0
H20 H 0.96766 0.11651 0.28754 0.0
H21 H 0.00801 0.07427 0.32368 0.0
H22 H 0.02923 0.04424 0.3214 0.0
H23 H 0.99857 0.02898 0.28142 0.0
N24 N 0.97722 0.08687 0.306 0.0
H25 H 0.9768 0.05858 0.28388 0.0
C26 C 0.0709 0.95533 0.31466 0.0
C27 C 0.09086 0.96042 0.31912 0.0
C28 C 0.09871 0.9531 0.33218 0.0
C29 C 0.08662 0.94103 0.34118 0.0
C30 C 0.06634 0.93692 0.33712 0.0
C31 C 0.05861 0.94392 0.32392 0.0
C32 C 0.07693 0.95489 0.28897 0.0
C33 C 0.07842 0.93427 0.28516 0.0
C34 C 0.09451 0.9273 0.27675 0.0
C35 C 0.10948 0.94089 0.27181 0.0
C36 C 0.10708 0.96183 0.27471 0.0
C37 C 0.09108 0.96877 0.28328 0.0
C38 C 0.05236 0.9794 0.29941 0.0
C39 C 0.06091 0.99789 0.30422 0.0
C40 C 0.04914 0.01568 0.30444 0.0
C41 C 0.02852 0.01537 0.30002 0.0
C42 C 0.02023 0.99692 0.29489 0.0
C43 C 0.03207 0.97919 0.29458 0.0
C44 C 0.97235 0.09267 0.32063 0.0
C45 C 0.97329 0.11332 0.32446 0.0
C46 C 0.96532 0.12006 0.33753 0.0
C47 C 0.95625 0.10621 0.34709 0.0
C48 C 0.9563 0.08533 0.34358 0.0
C49 C 0.96411 0.07864 0.33046 0.0
C50 C 0.95877 0.08811 0.29732 0.0
C51 C 0.94272 0.07407 0.29894 0.0
C52 C 0.92352 0.07805 0.29287 0.0
C53 C 0.91993 0.09611 0.28504 0.0
C54 C 0.93636 0.10945 0.28271 0.0
C55 C 0.95553 0.10549 0.28883 0.0
C56 C 0.98942 0.06833 0.3046 0.0
C57 C 0.00528 0.06425 0.31459 0.0
C58 C 0.01782 0.04716 0.31313 0.0
C59 C 0.01547 0.03392 0.30132 0.0
C60 C 1.00041 0.03845 0.2909 0.0
C61 C 0.98776 0.0555 0.29241 0.0
H62 H 0.98694 0.39798 0.57634 0.0
N63 N 0.97772 0.42755 0.55792 0.0
H64 H 0.96943 0.38924 0.59858 0.0
H65 H 0.94739 0.44991 0.57065 0.0
H66 H 0.93038 0.44187 0.59311 0.0
H67 H 0.93783 0.42766 0.54901 0.0
H68 H 0.92145 0.40063 0.5351 0.0
H69 H 0.99662 0.40086 0.54123 0.0
H70 H 0.98059 0.37444 0.52641 0.0
H71 H 0.01653 0.43798 0.56048 0.0
H72 H 0.95769 0.4615 0.54798 0.0
H73 H 0.03139 0.47188 0.558 0.0
H74 H 0.97188 0.49587 0.54658 0.0
H75 H 0.06999 0.56541 0.56589 0.0
H76 H 0.08751 0.57851 0.58726 0.0
H77 H 0.03019 0.60048 0.60365 0.0
H78 H 0.01268 0.58757 0.58196 0.0
H79 H 0.01642 0.60653 0.55031 0.0
H80 H 0.03392 0.63021 0.53442 0.0
H81 H 0.07858 0.58377 0.52496 0.0
H82 H 0.06079 0.56009 0.54096 0.0
H83 H 0.04406 0.53617 0.57359 0.0
H84 H 0.03202 0.5018 0.57101 0.0
H85 H 0.99252 0.52035 0.53576 0.0
N86 N 0.02953 0.57032 0.55896 0.0
H87 H 0.00387 0.55553 0.53898 0.0
C88 C 0.96874 0.42466 0.57188 0.0
C89 C 0.97482 0.40777 0.5801 0.0
C90 C 0.96479 0.40286 0.59283 0.0
C91 C 0.94845 0.41486 0.59768 0.0
C92 C 0.94271 0.43214 0.58961 0.0
C93 C 0.95266 0.43693 0.57681 0.0
C94 C 0.96846 0.41597 0.5464 0.0
C95 C 0.94729 0.41637 0.54385 0.0
C96 C 0.93794 0.40087 0.5358 0.0
C97 C 0.94963 0.38493 0.52992 0.0
C98 C 0.97102 0.38602 0.53117 0.0
C99 C 0.98028 0.40129 0.53944 0.0
C100 C 0.98602 0.44733 0.55473 0.0
C101 C 0.00685 0.45056 0.55719 0.0
C102 C 0.01522 0.47003 0.55592 0.0
C103 C 0.00281 0.48689 0.55243 0.0
C104 C 0.98202 0.48337 0.54924 0.0
C105 C 0.97375 0.46372 0.55022 0.0
C106 C 0.03994 0.57568 0.57226 0.0
C107 C 0.06114 0.57307 0.57402 0.0
C108 C 0.07117 0.58058 0.58625 0.0
C109 C 0.06024 0.5907 0.59704 0.0
C110 C 0.03898 0.59268 0.59552 0.0
C111 C 0.02896 0.58531 0.58319 0.0
C112 C 0.03734 0.58169 0.54691 0.0
C113 C 0.02958 0.60127 0.54442 0.0
C114 C 0.03964 0.61477 0.53532 0.0
C115 C 0.05779 0.60894 0.52852 0.0
C116 C 0.06479 0.58879 0.53021 0.0
C117 C 0.05458 0.57521 0.53927 0.0
C118 C 0.02503 0.54892 0.55639 0.0
C119 C 0.03305 0.53317 0.56512 0.0
C120 C 0.02616 0.51314 0.56356 0.0
C121 C 0.01123 0.50806 0.55314 0.0
C122 C 0.00377 0.52362 0.54407 0.0
C123 C 0.01046 0.54376 0.54577 0.0
H124 H 0.61453 0.49465 0.82505 0.0
N125 N 0.58777 0.48644 0.80423 0.0
H126 H 0.61994 0.47587 0.84758 0.0
H127 H 0.56428 0.45517 0.81404 0.0
H128 H 0.56954 0.43622 0.83654 0.0
H129 H 0.57892 0.45045 0.7907 0.0
H130 H 0.60255 0.43095 0.77583 0.0
H131 H 0.62134 0.5005 0.79215 0.0
H132 H 0.64507 0.48122 0.77728 0.0
H133 H 0.58472 0.52582 0.80958 0.0
H134 H 0.55082 0.47456 0.79308 0.0
H135 H 0.55436 0.54716 0.80784 0.0
H136 H 0.52023 0.49593 0.79086 0.0
H137 H 0.47363 0.61055 0.81946 0.0
H138 H 0.46121 0.62047 0.84326 0.0
H139 H 0.43415 0.56087 0.84817 0.0
H140 H 0.4462 0.55132 0.82442 0.0
H141 H 0.43458 0.5492 0.80045 0.0
H142 H 0.40221 0.5572 0.7886 0.0
H143 H 0.42622 0.61571 0.7757 0.0
H144 H 0.45826 0.60785 0.78824 0.0
H145 H 0.50187 0.58605 0.79515 0.0
H146 H 0.53139 0.56379 0.79199 0.0
H147 H 0.49554 0.51232 0.80599 0.0
N148 N 0.46567 0.57624 0.80528 0.0
H149 H 0.46594 0.53453 0.80835 0.0
C150 C 0.58911 0.47628 0.81793 0.0
C151 C 0.60451 0.48208 0.82764 0.0
C152 C 0.60751 0.47137 0.84048 0.0
C153 C 0.59518 0.45453 0.84381 0.0
C154 C 0.57941 0.449 0.83418 0.0
C155 C 0.57633 0.45985 0.82136 0.0
C156 C 0.59848 0.47694 0.79258 0.0
C157 C 0.59302 0.45751 0.78745 0.0
C158 C 0.60662 0.44632 0.77902 0.0
C159 C 0.62579 0.45444 0.77549 0.0
C160 C 0.63038 0.47455 0.77966 0.0
C161 C 0.61685 0.48563 0.78815 0.0
C162 C 0.57005 0.49875 0.80141 0.0
C163 C 0.57073 0.51933 0.80528 0.0
C164 C 0.55335 0.5315 0.8042 0.0
C165 C 0.53476 0.52335 0.79913 0.0
C166 C 0.5342 0.50269 0.79493 0.0
C167 C 0.55172 0.49046 0.79608 0.0
C168 C 0.46097 0.58024 0.82014 0.0
C169 C 0.46538 0.59954 0.82584 0.0
C170 C 0.45828 0.60515 0.83942 0.0
C171 C 0.44653 0.59151 0.84756 0.0
C172 C 0.44288 0.57184 0.84208 0.0
C173 C 0.44999 0.56626 0.8285 0.0
C174 C 0.44877 0.57809 0.79536 0.0
C175 C 0.43306 0.56355 0.79484 0.0
C176 C 0.41451 0.56815 0.78796 0.0
C177 C 0.41143 0.58729 0.78141 0.0
C178 C 0.42786 0.60104 0.78094 0.0
C179 C 0.44628 0.59649 0.78791 0.0
C180 C 0.48184 0.56211 0.8022 0.0
C181 C 0.50037 0.56989 0.79731 0.0
C182 C 0.51724 0.55715 0.79563 0.0
C183 C 0.51602 0.53627 0.799 0.0
C184 C 0.49707 0.52828 0.80325 0.0
C185 C 0.4801 0.54107 0.80477 0.0
H186 H 0.45825 0.92319 0.07136 0.0
N187 N 0.44264 0.95477 0.05531 0.0
H188 H 0.4469 0.91227 0.09495 0.0
H189 H 0.41562 0.97323 0.07206 0.0
H190 H 0.40414 0.96237 0.09595 0.0
H191 H 0.40729 0.94874 0.042 0.0
H192 H 0.39637 0.9181 0.02902 0.0
H193 H 0.46816 0.92442 0.04574 0.0
H194 H 0.4573 0.8936 0.03305 0.0
H195 H 0.48217 0.94679 0.06396 0.0
H196 H 0.44366 0.99097 0.04263 0.0
H197 H 0.51081 0.9702 0.06284 0.0
H198 H 0.47257 0.01445 0.04106 0.0
H199 H 0.60064 0.04739 0.06281 0.0
H200 H 0.61688 0.05621 0.08586 0.0
H201 H 0.55756 0.06777 0.10395 0.0
H202 H 0.54154 0.05849 0.08109 0.0
H203 H 0.5423 0.08619 0.06315 0.0
H204 H 0.5484 0.11947 0.05257 0.0
H205 H 0.58751 0.09191 0.0209 0.0
H206 H 0.58097 0.05829 0.03146 0.0
H207 H 0.56299 0.01116 0.04929 0.0
H208 H 0.53468 0.98695 0.04737 0.0
H209 H 0.49241 0.03543 0.0572 0.0
N210 N 0.56143 0.05047 0.0558 0.0
H211 H 0.52055 0.05944 0.05868 0.0
C212 C 0.43787 0.94922 0.06994 0.0
C213 C 0.44676 0.93215 0.0767 0.0
C214 C 0.44023 0.92588 0.09025 0.0
C215 C 0.42461 0.93645 0.09733 0.0
C216 C 0.41607 0.9538 0.09071 0.0
C217 C 0.4227 0.96012 0.07715 0.0
C218 C 0.43843 0.93891 0.04492 0.0
C219 C 0.41842 0.93703 0.03966 0.0
C220 C 0.41218 0.91943 0.0324 0.0
C221 C 0.42589 0.90327 0.03024 0.0
C222 C 0.44638 0.9058 0.03451 0.0
C223 C 0.45262 0.92346 0.04182 0.0
C224 C 0.46059 0.96716 0.05341 0.0
C225 C 0.47987 0.96138 0.05882 0.0
C226 C 0.49638 0.97483 0.0581 0.0
C227 C 0.49402 0.99432 0.05194 0.0
C228 C 0.47488 0.99973 0.0461 0.0
C229 C 0.45839 0.98628 0.04686 0.0
C230 C 0.56994 0.05221 0.07016 0.0
C231 C 0.59117 0.05133 0.07188 0.0
C232 C 0.6004 0.05661 0.085 0.0
C233 C 0.58853 0.06295 0.0967 0.0
C234 C 0.56716 0.06281 0.0952 0.0
C235 C 0.55794 0.0575 0.08207 0.0
C236 C 0.56113 0.06956 0.04804 0.0
C237 C 0.55163 0.08705 0.05365 0.0
C238 C 0.55535 0.10621 0.04769 0.0
C239 C 0.56868 0.10837 0.03604 0.0
C240 C 0.57709 0.09075 0.02983 0.0
C241 C 0.57335 0.07154 0.03583 0.0
C242 C 0.54406 0.03712 0.05409 0.0
C243 C 0.54756 0.01654 0.05088 0.0
C244 C 0.53138 0.00272 0.0499 0.0
C245 C 0.51122 0.0092 0.05216 0.0
C246 C 0.50768 0.02993 0.05517 0.0
C247 C 0.52389 0.04375 0.05612 0.0
H248 H 0.07398 0.55167 0.93443 0.0
N249 N 0.04255 0.56764 0.95017 0.0
H250 H 0.08496 0.56294 0.91096 0.0
H251 H 0.02327 0.59348 0.93256 0.0
H252 H 0.03385 0.60449 0.90851 0.0
H253 H 0.04984 0.60309 0.9629 0.0
H254 H 0.08118 0.61355 0.97533 0.0
H255 H 0.07279 0.54172 0.9597 0.0
H256 H 0.10448 0.55215 0.97148 0.0
H257 H 0.04895 0.52817 0.9411 0.0
H258 H 0.00821 0.56674 0.96498 0.0
H259 H 0.02596 0.49951 0.94417 0.0
H260 H 0.98528 0.53778 0.96859 0.0
H261 H 0.95099 0.40911 0.95006 0.0
H262 H 0.94006 0.39369 0.92719 0.0
H263 H 0.92492 0.45344 0.91066 0.0
H264 H 0.936 0.46867 0.93337 0.0
H265 H 0.91096 0.46566 0.95339 0.0
H266 H 0.88009 0.45736 0.96632 0.0
H267 H 0.91521 0.42009 0.99593 0.0
H268 H 0.94616 0.4281 0.98255 0.0
H269 H 0.98861 0.4471 0.96116 0.0
H270 H 0.01243 0.47578 0.96093 0.0
H271 H 0.96179 0.51728 0.95509 0.0
N272 N 0.94848 0.44802 0.95769 0.0
H273 H 0.9382 0.48867 0.95588 0.0
C274 C 0.0477 0.57178 0.93536 0.0
C275 C 0.06486 0.56296 0.92886 0.0
C276 C 0.07112 0.56939 0.91529 0.0
C277 C 0.06035 0.5847 0.9078 0.0
C278 C 0.04269 0.5929 0.91406 0.0
C279 C 0.03649 0.58649 0.92771 0.0
C280 C 0.05896 0.57175 0.96024 0.0
C281 C 0.06147 0.59178 0.96518 0.0
C282 C 0.07951 0.59776 0.9721 0.0
C283 C 0.09559 0.58382 0.97411 0.0
C284 C 0.09245 0.56332 0.97015 0.0
C285 C 0.07427 0.55731 0.96334 0.0
C286 C 0.03022 0.5498 0.95272 0.0
C287 C 0.03518 0.5305 0.94715 0.0
C288 C 0.022 0.51397 0.94903 0.0
C289 C 0.00364 0.51628 0.95659 0.0
C290 C 0.99907 0.53548 0.96249 0.0
C291 C 0.01222 0.55201 0.96055 0.0
C292 C 0.94451 0.43999 0.94345 0.0
C293 C 0.94568 0.41886 0.94138 0.0
C294 C 0.93923 0.41009 0.92839 0.0
C295 C 0.9315 0.42235 0.91716 0.0
C296 C 0.93099 0.44361 0.91905 0.0
C297 C 0.93735 0.45236 0.93208 0.0
C298 C 0.931 0.44743 0.96699 0.0
C299 C 0.91222 0.4562 0.9629 0.0
C300 C 0.89446 0.45142 0.97036 0.0
C301 C 0.89507 0.43782 0.98209 0.0
C302 C 0.91411 0.4303 0.98678 0.0
C303 C 0.93186 0.43504 0.97927 0.0
C304 C 0.96166 0.46561 0.95854 0.0
C305 C 0.9827 0.46244 0.96002 0.0
C306 C 0.99628 0.47885 0.95975 0.0
C307 C 0.98909 0.4989 0.95788 0.0
C308 C 0.9679 0.50211 0.95673 0.0
C309 C 0.95431 0.48566 0.95709 0.0
H310 H 0.54435 0.41742 0.18609 0.0
N311 N 0.55854 0.44966 0.20207 0.0
H312 H 0.55541 0.40755 0.16215 0.0
H313 H 0.58421 0.46963 0.18512 0.0
H314 H 0.59534 0.45989 0.1609 0.0
H315 H 0.59452 0.44046 0.21345 0.0
H316 H 0.60426 0.40907 0.22574 0.0
H317 H 0.5317 0.42117 0.21298 0.0
H318 H 0.54112 0.39016 0.22575 0.0
H319 H 0.51931 0.44057 0.19339 0.0
H320 H 0.55659 0.48643 0.21398 0.0
H321 H 0.49 0.4631 0.19433 0.0
H322 H 0.52729 0.50961 0.21445 0.0
H323 H 0.3997 0.53809 0.18915 0.0
H324 H 0.38723 0.55267 0.16642 0.0
H325 H 0.44693 0.5782 0.15889 0.0
H326 H 0.45938 0.56285 0.18126 0.0
H327 H 0.46192 0.57529 0.20497 0.0
H328 H 0.45296 0.60696 0.21713 0.0
H329 H 0.39763 0.57897 0.23247 0.0
H330 H 0.40632 0.54765 0.21961 0.0
H331 H 0.44912 0.5151 0.18124 0.0
H332 H 0.47838 0.49277 0.18239 0.0
H333 H 0.49413 0.51655 0.22445 0.0
N334 N 0.43651 0.54245 0.20114 0.0
H335 H 0.46517 0.53959 0.22316 0.0
C336 C 0.56341 0.44441 0.1874 0.0
C337 C 0.55521 0.42701 0.18063 0.0
C338 C 0.56155 0.42137 0.16689 0.0
C339 C 0.57627 0.43293 0.15962 0.0
C340 C 0.58414 0.45055 0.16628 0.0
C341 C 0.57771 0.45623 0.18004 0.0
C342 C 0.56246 0.43334 0.21221 0.0
C343 C 0.58272 0.42978 0.21646 0.0
C344 C 0.58824 0.41177 0.22352 0.0
C345 C 0.57351 0.39686 0.22664 0.0
C346 C 0.55295 0.40107 0.22326 0.0
C347 C 0.54747 0.41904 0.21605 0.0
C348 C 0.54029 0.46174 0.20373 0.0
C349 C 0.52123 0.45541 0.19826 0.0
C350 C 0.50442 0.4685 0.19864 0.0
C351 C 0.50627 0.48835 0.20429 0.0
C352 C 0.52521 0.49441 0.21013 0.0
C353 C 0.54199 0.48121 0.20985 0.0
C354 C 0.43037 0.54941 0.18694 0.0
C355 C 0.41012 0.54656 0.18244 0.0
C356 C 0.403 0.5551 0.16954 0.0
C357 C 0.41601 0.56682 0.16089 0.0
C358 C 0.43651 0.56915 0.16521 0.0
C359 C 0.44364 0.56052 0.17808 0.0
C360 C 0.4346 0.55913 0.21124 0.0
C361 C 0.44804 0.57585 0.21115 0.0
C362 C 0.44293 0.59396 0.21821 0.0
C363 C 0.42435 0.59569 0.22558 0.0
C364 C 0.41181 0.57836 0.22661 0.0
C365 C 0.41687 0.56034 0.21946 0.0
C366 C 0.45518 0.53033 0.20165 0.0
C367 C 0.4591 0.51616 0.19058 0.0
C368 C 0.47574 0.50295 0.19137 0.0
C369 C 0.48874 0.50284 0.2035 0.0
C370 C 0.48472 0.51653 0.21478 0.0
C371 C 0.46806 0.5299 0.21397 0.0
H372 H 0.41058 0.96696 0.43619 0.0
N373 N 0.44487 0.95408 0.45064 0.0
H374 H 0.39771 0.95382 0.41328 0.0
H375 H 0.46375 0.92867 0.43289 0.0
H376 H 0.4507 0.91499 0.41 0.0
H377 H 0.44091 0.91747 0.46218 0.0
H378 H 0.41151 0.9045 0.47537 0.0
H379 H 0.41517 0.97796 0.46312 0.0
H380 H 0.38599 0.96509 0.47646 0.0
H381 H 0.43238 0.99301 0.44382 0.0
H382 H 0.48297 0.95759 0.46007 0.0
H383 H 0.45324 0.02362 0.44451 0.0
H384 H 0.50442 0.98806 0.46016 0.0
H385 H 0.53309 0.11758 0.43861 0.0
H386 H 0.54775 0.13012 0.41621 0.0
H387 H 0.55953 0.068 0.40306 0.0
H388 H 0.54581 0.05577 0.42574 0.0
H389 H 0.56581 0.05353 0.44778 0.0
H390 H 0.59911 0.05996 0.45872 0.0
H391 H 0.57477 0.11299 0.48023 0.0
H392 H 0.54169 0.10695 0.46854 0.0
H393 H 0.50176 0.06861 0.43056 0.0
H394 H 0.48011 0.03877 0.43192 0.0
H395 H 0.51122 0.02014 0.47102 0.0
N396 N 0.53302 0.07938 0.44834 0.0
H397 H 0.53347 0.04943 0.46939 0.0
C398 C 0.43826 0.94883 0.43623 0.0
C399 C 0.41972 0.95603 0.43041 0.0
C400 C 0.41223 0.9483 0.41737 0.0
C401 C 0.42307 0.9332 0.40989 0.0
C402 C 0.44205 0.92672 0.41542 0.0
C403 C 0.44953 0.93448 0.42848 0.0
C404 C 0.43038 0.94863 0.46158 0.0
C405 C 0.42933 0.92808 0.4657 0.0
C406 C 0.41249 0.92068 0.47312 0.0
C407 C 0.39646 0.93379 0.47679 0.0
C408 C 0.39823 0.95471 0.4738 0.0
C409 C 0.41499 0.96208 0.46615 0.0
C410 C 0.45607 0.97291 0.45207 0.0
C411 C 0.44792 0.99179 0.44769 0.0
C412 C 0.46003 0.00934 0.44791 0.0
C413 C 0.48065 0.0084 0.45228 0.0
C414 C 0.48858 0.98953 0.45692 0.0
C415 C 0.47638 0.97205 0.45684 0.0
C416 C 0.53823 0.0858 0.43389 0.0
C417 C 0.53849 0.1067 0.43074 0.0
C418 C 0.54687 0.11382 0.4179 0.0
C419 C 0.55506 0.10011 0.40783 0.0
C420 C 0.55382 0.07906 0.41069 0.0
C421 C 0.54572 0.07199 0.42361 0.0
C422 C 0.55128 0.07996 0.45723 0.0
C423 C 0.56756 0.06636 0.45501 0.0
C424 C 0.58662 0.07001 0.46139 0.0
C425 C 0.58978 0.0872 0.47022 0.0
C426 C 0.57304 0.09989 0.47323 0.0
C427 C 0.55405 0.09633 0.46673 0.0
C428 C 0.52055 0.06097 0.44921 0.0
C429 C 0.50445 0.05788 0.43924 0.0
C430 C 0.49169 0.04089 0.44019 0.0
C431 C 0.49403 0.02678 0.45148 0.0
C432 C 0.50936 0.03029 0.4619 0.0
C433 C 0.52228 0.0472 0.46088 0.0
H434 H 0.04744 0.91647 0.68505 0.0
N435 N 0.06055 0.95055 0.69945 0.0
H436 H 0.05903 0.90466 0.66167 0.0
H437 H 0.0852 0.96995 0.68147 0.0
H438 H 0.09669 0.95839 0.65777 0.0
H439 H 0.097 0.9423 0.71051 0.0
H440 H 0.10715 0.91226 0.72428 0.0
H441 H 0.03415 0.92327 0.71238 0.0
H442 H 0.04401 0.89382 0.72662 0.0
H443 H 0.02144 0.93955 0.69178 0.0
H444 H 0.05793 0.98852 0.70914 0.0
H445 H 0.99124 0.96081 0.6929 0.0
H446 H 0.02793 0.01063 0.70934 0.0
H447 H 0.89586 0.04048 0.69255 0.0
H448 H 0.88032 0.05338 0.67052 0.0
H449 H 0.94042 0.06208 0.65259 0.0
H450 H 0.95558 0.05148 0.67536 0.0
H451 H 0.9585 0.07384 0.6978 0.0
H452 H 0.95152 0.10633 0.70973 0.0
H453 H 0.90333 0.07771 0.73383 0.0
H454 H 0.91012 0.04545 0.7215 0.0
H455 H 0.94483 0.00863 0.68148 0.0
H456 H 0.97503 0.98751 0.68165 0.0
H457 H 0.99686 0.01845 0.71994 0.0
N458 N 0.93519 0.03941 0.69963 0.0
H459 H 0.96736 0.04055 0.71921 0.0
C460 C 0.06547 0.94419 0.68501 0.0
C461 C 0.05792 0.9259 0.67911 0.0
C462 C 0.06457 0.91916 0.66568 0.0
C463 C 0.07885 0.93054 0.65785 0.0
C464 C 0.0859 0.94912 0.66361 0.0
C465 C 0.07925 0.95584 0.67706 0.0
C466 C 0.06489 0.93521 0.71027 0.0
C467 C 0.08531 0.93201 0.71431 0.0
C468 C 0.09107 0.91479 0.72222 0.0
C469 C 0.07644 0.90037 0.72645 0.0
C470 C 0.05577 0.90432 0.72327 0.0
C471 C 0.05005 0.92144 0.71518 0.0
C472 C 0.04203 0.96232 0.70064 0.0
C473 C 0.02299 0.95487 0.69593 0.0
C474 C 0.00567 0.96727 0.69635 0.0
C475 C 0.00699 0.98764 0.7011 0.0
C476 C 0.0261 0.99499 0.70585 0.0
C477 C 0.04334 0.98241 0.70568 0.0
C478 C 0.92682 0.04456 0.68558 0.0
C479 C 0.90561 0.04506 0.68378 0.0
C480 C 0.89676 0.05235 0.67103 0.0
C481 C 0.90894 0.05878 0.65946 0.0
C482 C 0.93033 0.05779 0.6612 0.0
C483 C 0.93914 0.05127 0.6742 0.0
C484 C 0.93469 0.05726 0.70874 0.0
C485 C 0.94676 0.0745 0.70588 0.0
C486 C 0.94276 0.09304 0.71275 0.0
C487 C 0.92665 0.09468 0.72258 0.0
C488 C 0.91558 0.07705 0.72611 0.0
C489 C 0.91957 0.05856 0.71923 0.0
C490 C 0.95399 0.02744 0.69969 0.0
C491 C 0.95636 0.01147 0.68968 0.0
C492 C 0.97359 0.99896 0.68997 0.0
C493 C 0.98867 0.00125 0.70075 0.0
C494 C 0.98598 0.01657 0.71118 0.0
C495 C 0.96889 0.02938 0.71072 0.0
Mn496 Mn 0.33947 0.66865 0.00587 0.0
Mn497 Mn 0.345 0.6178 0.01018 0.0
C498 C 0.34324 0.65496 0.0287 0.0
C499 C 0.35371 0.70087 0.00232 0.0
C500 C 0.30431 0.63798 0.00369 0.0
O501 O 0.34718 0.65919 0.98576 0.0
O502 O 0.35173 0.62569 0.9901 0.0
C503 C 0.38974 0.61519 0.00665 0.0
N504 N 0.37285 0.61168 0.01468 0.0
C505 C 0.39287 0.59566 0.0334 0.0
C506 C 0.41047 0.59904 0.0253 0.0
C507 C 0.4089 0.60888 0.01188 0.0
C508 C 0.37419 0.60226 0.02762 0.0
H509 H 0.38861 0.62275 0.99633 0.0
C510 C 0.35199 0.64123 0.98172 0.0
O511 O 0.33477 0.69715 0.999 0.0
O512 O 0.36442 0.68574 0.00725 0.0
N513 N 0.33926 0.60797 0.02913 0.0
C514 C 0.32096 0.60669 0.03588 0.0
C515 C 0.31989 0.59732 0.04945 0.0
C516 C 0.33761 0.58928 0.05591 0.0
C517 C 0.35629 0.59083 0.0488 0.0
C518 C 0.35637 0.60011 0.0352 0.0
H519 H 0.30728 0.61281 0.03096 0.0
O520 O 0.33491 0.67274 0.02696 0.0
O521 O 0.34911 0.64575 0.01707 0.0
O522 O 0.31087 0.65631 0.00332 0.0
O523 O 0.31584 0.62259 0.00599 0.0
C524 C 0.37486 0.58378 0.05473 0.0
C525 C 0.39315 0.58626 0.04706 0.0
H526 H 0.42529 0.59425 0.02932 0.0
H527 H 0.42242 0.61158 0.00558 0.0
H528 H 0.30544 0.59627 0.05492 0.0
H529 H 0.3367 0.58198 0.06635 0.0
H530 H 0.37528 0.57668 0.06527 0.0
H531 H 0.40736 0.58102 0.05182 0.0
Mn532 Mn 0.33645 0.83817 0.2559 0.0
Mn533 Mn 0.38698 0.84402 0.26192 0.0
C534 C 0.34887 0.84256 0.27912 0.0
C535 C 0.30454 0.8525 0.25083 0.0
C536 C 0.36737 0.80315 0.25516 0.0
O537 O 0.3471 0.84547 0.23603 0.0
O538 O 0.38026 0.85072 0.24153 0.0
C539 C 0.38949 0.88877 0.25822 0.0
N540 N 0.39266 0.87187 0.26647 0.0
C541 C 0.40701 0.89197 0.28576 0.0
C542 C 0.40401 0.90958 0.27743 0.0
C543 C 0.39517 0.90797 0.26362 0.0
C544 C 0.40109 0.87325 0.27979 0.0
H545 H 0.38264 0.88761 0.24761 0.0
C546 C 0.3652 0.85056 0.23259 0.0
O547 O 0.30831 0.83345 0.24805 0.0
O548 O 0.31942 0.86319 0.25618 0.0
N549 N 0.39557 0.83827 0.28128 0.0
C550 C 0.39642 0.81997 0.28821 0.0
C551 C 0.40453 0.81898 0.30227 0.0
C552 C 0.41179 0.83677 0.30901 0.0
C553 C 0.41082 0.85541 0.30165 0.0
C554 C 0.40277 0.85543 0.2876 0.0
H555 H 0.39092 0.80624 0.28307 0.0
O556 O 0.3312 0.83416 0.27694 0.0
O557 O 0.35866 0.84805 0.26767 0.0
O558 O 0.34897 0.80952 0.25434 0.0
O559 O 0.38255 0.81487 0.2577 0.0
C560 C 0.41724 0.87403 0.30776 0.0
C561 C 0.41528 0.8923 0.29984 0.0
H562 H 0.40828 0.92443 0.28159 0.0
H563 H 0.39271 0.92151 0.25716 0.0
H564 H 0.40519 0.80454 0.30789 0.0
H565 H 0.41798 0.83594 0.31986 0.0
H566 H 0.42344 0.87452 0.31861 0.0
H567 H 0.41997 0.90656 0.30475 0.0
Mn568 Mn 0.16383 0.84019 0.49605 0.0
Mn569 Mn 0.11262 0.84386 0.49263 0.0
C570 C 0.14909 0.84488 0.47344 0.0
C571 C 0.19576 0.85513 0.49977 0.0
C572 C 0.13466 0.8037 0.49708 0.0
O573 O 0.15506 0.84651 0.51655 0.0
O574 O 0.12119 0.84924 0.51287 0.0
C575 C 0.10816 0.88803 0.49844 0.0
N576 N 0.10473 0.87161 0.48976 0.0
C577 C 0.08509 0.89185 0.47302 0.0
C578 C 0.08832 0.90897 0.48181 0.0
C579 C 0.09998 0.90706 0.49454 0.0
C580 C 0.09363 0.87329 0.47746 0.0
H581 H 0.11705 0.88659 0.50826 0.0
C582 C 0.13705 0.84985 0.52103 0.0
O583 O 0.19266 0.83598 0.50254 0.0
O584 O 0.18022 0.86566 0.49525 0.0
N585 N 0.10191 0.83922 0.47368 0.0
C586 C 0.10133 0.82154 0.466 0.0
C587 C 0.09022 0.82079 0.453 0.0
C588 C 0.07984 0.83822 0.44806 0.0
C589 C 0.08104 0.85637 0.45598 0.0
C590 C 0.09199 0.85608 0.46901 0.0
H591 H 0.10907 0.80803 0.46985 0.0
O592 O 0.16711 0.83689 0.47482 0.0
O593 O 0.14006 0.84979 0.48538 0.0
O594 O 0.1527 0.81096 0.49775 0.0
O595 O 0.11885 0.81476 0.49525 0.0
C596 C 0.07187 0.87475 0.45146 0.0
C597 C 0.07401 0.89252 0.45993 0.0
H598 H 0.08208 0.92369 0.47883 0.0
H599 H 0.10261 0.92022 0.50135 0.0
H600 H 0.08946 0.80674 0.4469 0.0
H601 H 0.07094 0.83749 0.43818 0.0
H602 H 0.06336 0.87546 0.4414 0.0
H603 H 0.06717 0.90664 0.45623 0.0
Mn604 Mn 0.16569 0.66689 0.75041 0.0
Mn605 Mn 0.1603 0.61578 0.74821 0.0
C606 C 0.16113 0.65147 0.7281 0.0
C607 C 0.15205 0.69955 0.7531 0.0
C608 C 0.20111 0.63641 0.75287 0.0
O609 O 0.15847 0.65918 0.77098 0.0
O610 O 0.15513 0.62527 0.76814 0.0
C611 C 0.11593 0.61364 0.75359 0.0
N612 N 0.13222 0.60915 0.74519 0.0
C613 C 0.11113 0.59016 0.7286 0.0
C614 C 0.09413 0.59449 0.7371 0.0
C615 C 0.09653 0.60635 0.74962 0.0
C616 C 0.13006 0.59789 0.73308 0.0
H617 H 0.11772 0.62269 0.76324 0.0
C618 C 0.15467 0.64142 0.77587 0.0
O619 O 0.17101 0.69569 0.75622 0.0
O620 O 0.14095 0.68435 0.74873 0.0
N621 N 0.16458 0.60418 0.7296 0.0
C622 C 0.18233 0.60225 0.72224 0.0
C623 C 0.18263 0.59058 0.70957 0.0
C624 C 0.16471 0.58102 0.70464 0.0
C625 C 0.14653 0.58364 0.71219 0.0
C626 C 0.14725 0.59507 0.7249 0.0
H627 H 0.19621 0.60928 0.72614 0.0
O628 O 0.16971 0.66923 0.72918 0.0
O629 O 0.15552 0.64313 0.74016 0.0
O630 O 0.19433 0.65465 0.75305 0.0
O631 O 0.18968 0.62086 0.75106 0.0
C632 C 0.12775 0.5753 0.70763 0.0
C633 C 0.11002 0.57869 0.71577 0.0
H634 H 0.07914 0.58891 0.73408 0.0
H635 H 0.08347 0.60983 0.75622 0.0
H636 H 0.1967 0.58873 0.70373 0.0
H637 H 0.16508 0.57157 0.69509 0.0
H638 H 0.12672 0.56644 0.69779 0.0
H639 H 0.0956 0.57246 0.71205 0.0
Mn640 Mn 0.83665 0.1603 0.50469 0.0
Mn641 Mn 0.84239 0.1097 0.49936 0.0
C642 C 0.83839 0.13849 0.52434 0.0
C643 C 0.85066 0.19289 0.50681 0.0
C644 C 0.8018 0.13126 0.49615 0.0
O645 O 0.84578 0.15883 0.48384 0.0
O646 O 0.84933 0.1249 0.48161 0.0
C647 C 0.88731 0.1099 0.49633 0.0
N648 N 0.87028 0.10267 0.50286 0.0
C649 C 0.89016 0.07983 0.51764 0.0
C650 C 0.90792 0.08692 0.51102 0.0
C651 C 0.90649 0.1021 0.50037 0.0
C652 C 0.87151 0.08827 0.51323 0.0
H653 H 0.88628 0.12155 0.48812 0.0
C654 C 0.8502 0.14301 0.47657 0.0
O655 O 0.83186 0.19018 0.50269 0.0
O656 O 0.86122 0.17667 0.50981 0.0
N657 N 0.83644 0.0926 0.51538 0.0
C658 C 0.81796 0.08809 0.52113 0.0
C659 C 0.81669 0.07311 0.53186 0.0
C660 C 0.83441 0.06287 0.53642 0.0
C661 C 0.85326 0.06789 0.5305 0.0
C662 C 0.85354 0.08271 0.51969 0.0
H663 H 0.80427 0.09576 0.51748 0.0
O664 O 0.83046 0.15654 0.52552 0.0
O665 O 0.84568 0.13387 0.51173 0.0
O666 O 0.80836 0.14914 0.49908 0.0
O667 O 0.81327 0.11553 0.49588 0.0
C668 C 0.87178 0.05883 0.53492 0.0
C669 C 0.89025 0.0649 0.52856 0.0
H670 H 0.92273 0.08093 0.5141 0.0
H671 H 0.92014 0.10776 0.4953 0.0
H672 H 0.8021 0.06929 0.53647 0.0
H673 H 0.83337 0.05099 0.54434 0.0
H674 H 0.87202 0.04735 0.54332 0.0
H675 H 0.90444 0.05805 0.53219 0.0
Mn676 Mn 0.84817 0.33899 0.75824 0.0
Mn677 Mn 0.89946 0.34255 0.76091 0.0
C678 C 0.8637 0.34218 0.78074 0.0
C679 C 0.81625 0.35441 0.75524 0.0
C680 C 0.87738 0.30257 0.75594 0.0
O681 O 0.85622 0.34596 0.73766 0.0
O682 O 0.89013 0.34852 0.74098 0.0
C683 C 0.90287 0.387 0.75595 0.0
N684 N 0.90701 0.37029 0.76418 0.0
C685 C 0.92713 0.39014 0.78085 0.0
C686 C 0.92317 0.40757 0.77252 0.0
C687 C 0.91091 0.40601 0.76005 0.0
C688 C 0.91859 0.37166 0.77626 0.0
H689 H 0.89353 0.38582 0.74632 0.0
C690 C 0.87412 0.34929 0.73299 0.0
O691 O 0.81905 0.33529 0.75218 0.0
O692 O 0.83206 0.36456 0.75971 0.0
N693 N 0.91116 0.33728 0.77947 0.0
C694 C 0.91283 0.31916 0.78657 0.0
C695 C 0.92494 0.31797 0.7991 0.0
C696 C 0.93526 0.33538 0.80414 0.0
C697 C 0.93295 0.35394 0.79684 0.0
C698 C 0.92103 0.3541 0.78425 0.0
H699 H 0.90529 0.30565 0.78254 0.0
O700 O 0.84547 0.33469 0.77942 0.0
O701 O 0.87232 0.34788 0.76882 0.0
O702 O 0.8593 0.30984 0.75578 0.0
O703 O 0.89327 0.31353 0.7578 0.0
C704 C 0.94211 0.37225 0.80151 0.0
C705 C 0.93905 0.39039 0.79358 0.0
H706 H 0.92938 0.42225 0.77564 0.0
H707 H 0.90773 0.4194 0.75359 0.0
H708 H 0.92662 0.3036 0.80471 0.0
H709 H 0.94514 0.33428 0.81351 0.0
H710 H 0.95135 0.3726 0.81125 0.0
H711 H 0.94592 0.40443 0.79738 0.0
Mn712 Mn 0.66287 0.34541 0.99731 0.0
Mn713 Mn 0.61262 0.35321 0.99122 0.0
C714 C 0.6507 0.35075 0.97414 0.0
C715 C 0.69526 0.35834 0.00258 0.0
C716 C 0.63073 0.31155 0.99761 0.0
O717 O 0.65237 0.35259 0.01724 0.0
O718 O 0.61941 0.35907 0.01175 0.0
C719 C 0.61175 0.39792 0.99549 0.0
N720 N 0.60805 0.38137 0.987 0.0
C721 C 0.59487 0.40249 0.96784 0.0
C722 C 0.59841 0.41977 0.97641 0.0
C723 C 0.60694 0.41747 0.99028 0.0
C724 C 0.59995 0.38341 0.97361 0.0
H725 H 0.61835 0.39622 0.00613 0.0
C726 C 0.6344 0.3581 0.02071 0.0
O727 O 0.69075 0.33939 0.00508 0.0
O728 O 0.68082 0.36979 0.9974 0.0
N729 N 0.60401 0.34827 0.97176 0.0
C730 C 0.60239 0.33016 0.96464 0.0
C731 C 0.59439 0.32982 0.95054 0.0
C732 C 0.58802 0.34805 0.94394 0.0
C733 C 0.58974 0.36649 0.95151 0.0
C734 C 0.59765 0.36586 0.96558 0.0
H735 H 0.6072 0.31609 0.96966 0.0
O736 O 0.66806 0.34168 0.97623 0.0
O737 O 0.64108 0.35634 0.98563 0.0
O738 O 0.64932 0.31725 0.99853 0.0
O739 O 0.61596 0.32381 0.99511 0.0
C740 C 0.58413 0.38549 0.94558 0.0
C741 C 0.58679 0.40349 0.95372 0.0
H742 H 0.59479 0.43487 0.97242 0.0
H743 H 0.60981 0.43073 0.99693 0.0
H744 H 0.59314 0.31554 0.94476 0.0
H745 H 0.58191 0.34772 0.93305 0.0
H746 H 0.57799 0.38647 0.93472 0.0
H747 H 0.58271 0.41803 0.94897 0.0
Mn748 Mn 0.67135 0.16456 0.25043 0.0
Mn749 Mn 0.66759 0.1133 0.25316 0.0
C750 C 0.66879 0.14486 0.22972 0.0
C751 C 0.65656 0.19698 0.25004 0.0
C752 C 0.70748 0.13605 0.25686 0.0
O753 O 0.66315 0.16056 0.27132 0.0
O754 O 0.66051 0.12636 0.27175 0.0
C755 C 0.6229 0.11058 0.25697 0.0
N756 N 0.64003 0.10503 0.2498 0.0
C757 C 0.62104 0.08185 0.2347 0.0
C758 C 0.6032 0.08722 0.24198 0.0
C759 C 0.60413 0.10172 0.25312 0.0
C760 C 0.63928 0.09125 0.23898 0.0
H761 H 0.62358 0.12165 0.26558 0.0
C762 C 0.65924 0.14387 0.27776 0.0
O763 O 0.6755 0.19427 0.25378 0.0
O764 O 0.64617 0.18082 0.2466 0.0
N765 N 0.67378 0.09827 0.23613 0.0
C766 C 0.69217 0.09558 0.22972 0.0
C767 C 0.69396 0.08138 0.2185 0.0
C768 C 0.67685 0.07008 0.21402 0.0
C769 C 0.65798 0.07345 0.22053 0.0
C770 C 0.65722 0.08748 0.23186 0.0
H771 H 0.70544 0.10398 0.2333 0.0
O772 O 0.67653 0.16306 0.22932 0.0
O773 O 0.6626 0.13866 0.24228 0.0
O774 O 0.70023 0.15391 0.25487 0.0
O775 O 0.69653 0.11998 0.25652 0.0
C776 C 0.63991 0.06341 0.21625 0.0
C777 C 0.62142 0.06773 0.22325 0.0
H778 H 0.58869 0.08042 0.23904 0.0
H779 H 0.59042 0.106 0.25875 0.0
H780 H 0.70856 0.07893 0.21348 0.0
H781 H 0.67837 0.05873 0.20564 0.0
H782 H 0.64003 0.05252 0.20747 0.0
H783 H 0.60757 0.06016 0.21973 0.0
H784 H 0.14855 0.95494 0.27542 0.0
H785 H 0.17996 0.93972 0.26676 0.0
H786 H 0.14542 0.8928 0.24501 0.0
H787 H 0.11366 0.90838 0.2532 0.0
H788 H 0.17622 0.87761 0.26296 0.0
H789 H 0.16953 0.92639 0.22512 0.0
H790 H 0.1639 0.96038 0.21446 0.0
H791 H 0.21713 0.98308 0.2365 0.0
H792 H 0.22293 0.94929 0.24747 0.0
H793 H 0.26999 0.83443 0.23975 0.0
H794 H 0.23554 0.84891 0.23856 0.0
H795 H 0.2582 0.90509 0.25687 0.0
H796 H 0.29254 0.89098 0.25772 0.0
H797 H 0.23109 0.91343 0.23672 0.0
H798 H 0.23461 0.86758 0.27747 0.0
H799 H 0.24022 0.83454 0.28958 0.0
H800 H 0.19304 0.8074 0.26349 0.0
H801 H 0.18733 0.84025 0.2511 0.0
C802 C 0.14746 0.94177 0.26843 0.0
C803 C 0.12843 0.93294 0.26504 0.0
C804 C 0.16552 0.933 0.26355 0.0
C805 C 0.16503 0.91516 0.25521 0.0
C806 C 0.14613 0.90655 0.25146 0.0
C807 C 0.128 0.91545 0.25622 0.0
C808 C 0.18437 0.90481 0.25139 0.0
C809 C 0.18806 0.88523 0.25692 0.0
C810 C 0.19996 0.91497 0.24382 0.0
C811 C 0.19659 0.93531 0.23719 0.0
C812 C 0.17996 0.93866 0.22778 0.0
C813 C 0.17675 0.95789 0.22167 0.0
C814 C 0.19013 0.97388 0.22482 0.0
C815 C 0.20678 0.97067 0.23407 0.0
C816 C 0.21005 0.95147 0.24022 0.0
C817 C 0.26764 0.84994 0.24336 0.0
C818 C 0.28397 0.8615 0.24892 0.0
C819 C 0.24793 0.85818 0.24274 0.0
C820 C 0.24419 0.87802 0.24782 0.0
C821 C 0.26065 0.88978 0.25288 0.0
C822 C 0.28031 0.88163 0.25341 0.0
C823 C 0.22313 0.88638 0.24857 0.0
C824 C 0.21912 0.90562 0.2425 0.0
C825 C 0.20731 0.87602 0.25581 0.0
C826 C 0.21073 0.85628 0.26324 0.0
C827 C 0.22555 0.85452 0.27424 0.0
C828 C 0.22873 0.83584 0.28117 0.0
C829 C 0.21704 0.81886 0.27727 0.0
C830 C 0.20211 0.82055 0.26647 0.0
C831 C 0.1989 0.83919 0.2595 0.0
H832 H 0.21951 0.80441 0.28265 0.0
H833 H 0.18762 0.98876 0.22007 0.0
H834 H 0.09909 0.61446 0.53046 0.0
H835 H 0.11867 0.64371 0.52196 0.0
H836 H 0.06432 0.66873 0.50221 0.0
H837 H 0.0448 0.63921 0.51025 0.0
H838 H 0.09744 0.6765 0.48601 0.0
H839 H 0.07889 0.68193 0.53641 0.0
H840 H 0.07836 0.67029 0.56167 0.0
H841 H 0.14379 0.67189 0.5635 0.0
H842 H 0.1447 0.68328 0.53815 0.0
H843 H 0.1001 0.78242 0.49057 0.0
H844 H 0.09402 0.7461 0.49308 0.0
H845 H 0.15555 0.73753 0.5088 0.0
H846 H 0.16191 0.77428 0.50631 0.0
H847 H 0.12653 0.71844 0.52574 0.0
H848 H 0.14391 0.72004 0.47625 0.0
H849 H 0.14329 0.73275 0.45125 0.0
H850 H 0.07947 0.71883 0.44772 0.0
H851 H 0.07962 0.70632 0.47278 0.0
C852 C 0.09142 0.62586 0.52392 0.0
C853 C 0.07032 0.62461 0.52115 0.0
C854 C 0.10261 0.64268 0.51919 0.0
C855 C 0.09287 0.6586 0.5117 0.0
C856 C 0.07214 0.65668 0.50804 0.0
C857 C 0.06096 0.63987 0.51273 0.0
C858 C 0.10359 0.6781 0.50882 0.0
C859 C 0.10382 0.68568 0.49468 0.0
C860 C 0.11242 0.68985 0.52009 0.0
C861 C 0.11187 0.6832 0.53535 0.0
C862 C 0.09316 0.67966 0.54217 0.0
C863 C 0.0928 0.67312 0.5565 0.0
C864 C 0.11103 0.67028 0.56417 0.0
C865 C 0.12968 0.67405 0.55753 0.0
C866 C 0.13013 0.68054 0.54319 0.0
C867 C 0.11247 0.77291 0.4945 0.0
C868 C 0.13153 0.78136 0.49826 0.0
C869 C 0.10897 0.75206 0.49583 0.0
C870 C 0.1244 0.73906 0.50095 0.0
C871 C 0.14348 0.74731 0.50474 0.0
C872 C 0.14709 0.76828 0.50328 0.0
C873 C 0.11986 0.71709 0.50298 0.0
C874 C 0.1207 0.70906 0.51698 0.0
C875 C 0.11193 0.70499 0.49159 0.0
C876 C 0.11177 0.71231 0.47644 0.0
C877 C 0.12971 0.7198 0.47018 0.0
C878 C 0.12944 0.72696 0.45599 0.0
C879 C 0.11135 0.72662 0.44791 0.0
C880 C 0.09348 0.71908 0.454 0.0
C881 C 0.09365 0.71191 0.46819 0.0
H882 H 0.11117 0.73219 0.43693 0.0
H883 H 0.11072 0.66522 0.57527 0.0
H884 H 0.39345 0.62466 0.78444 0.0
H885 H 0.35873 0.63457 0.77805 0.0
H886 H 0.34708 0.57417 0.76155 0.0
H887 H 0.38225 0.56432 0.76733 0.0
H888 H 0.32978 0.60254 0.74448 0.0
H889 H 0.33164 0.58809 0.79517 0.0
H890 H 0.34428 0.59113 0.8202 0.0
H891 H 0.32931 0.65486 0.82025 0.0
H892 H 0.31682 0.65226 0.79512 0.0
H893 H 0.22212 0.60098 0.74849 0.0
H894 H 0.25845 0.59476 0.75203 0.0
H895 H 0.26706 0.65725 0.76518 0.0
H896 H 0.23052 0.6637 0.7617 0.0
H897 H 0.28624 0.62961 0.78348 0.0
H898 H 0.28252 0.64306 0.73282 0.0
H899 H 0.26924 0.63904 0.70802 0.0
H900 H 0.2871 0.57606 0.70822 0.0
H901 H 0.30022 0.57961 0.73312 0.0
C902 C 0.38372 0.61356 0.77914 0.0
C903 C 0.39072 0.59365 0.7764 0.0
C904 C 0.36374 0.61921 0.77566 0.0
C905 C 0.35018 0.60502 0.76956 0.0
C906 C 0.35725 0.58534 0.76634 0.0
C907 C 0.37732 0.57969 0.76975 0.0
C908 C 0.32848 0.61054 0.76696 0.0
C909 C 0.3202 0.60824 0.75304 0.0
C910 C 0.31609 0.61842 0.77807 0.0
C911 C 0.32349 0.62002 0.79321 0.0
C912 C 0.33118 0.60279 0.80047 0.0
C913 C 0.3383 0.60443 0.81469 0.0
C914 C 0.33765 0.62319 0.8218 0.0
C915 C 0.32983 0.64034 0.81472 0.0
C916 C 0.32271 0.63879 0.80049 0.0
C917 C 0.23167 0.61347 0.75212 0.0
C918 C 0.22333 0.63287 0.75481 0.0
C919 C 0.25249 0.60989 0.75406 0.0
C920 C 0.26548 0.62558 0.75874 0.0
C921 C 0.25728 0.64494 0.76152 0.0
C922 C 0.23641 0.64861 0.75948 0.0
C923 C 0.28754 0.62151 0.76103 0.0
C924 C 0.29587 0.62404 0.7749 0.0
C925 C 0.29993 0.61372 0.74991 0.0
C926 C 0.2922 0.61157 0.73489 0.0
C927 C 0.28348 0.62831 0.72762 0.0
C928 C 0.276 0.62612 0.71354 0.0
C929 C 0.27728 0.6073 0.70656 0.0
C930 C 0.2861 0.59063 0.71364 0.0
C931 C 0.29358 0.59273 0.72774 0.0
H932 H 0.27148 0.60563 0.69566 0.0
H933 H 0.34315 0.62441 0.8328 0.0
H934 H 0.4433 0.87746 0.01047 0.0
H935 H 0.43141 0.84335 0.00334 0.0
H936 H 0.37978 0.84963 0.03137 0.0
H937 H 0.39159 0.88341 0.0386 0.0
H938 H 0.39974 0.81343 0.03532 0.0
H939 H 0.37288 0.85361 0.99605 0.0
H940 H 0.37491 0.87774 0.97574 0.0
H941 H 0.4158 0.83739 0.95386 0.0
H942 H 0.41424 0.81313 0.97414 0.0
H943 H 0.33478 0.73614 0.99361 0.0
H944 H 0.348 0.77099 0.99576 0.0
H945 H 0.40523 0.7475 0.01197 0.0
H946 H 0.39219 0.71275 0.0099 0.0
H947 H 0.38221 0.79245 0.9853 0.0
H948 H 0.41868 0.77688 0.04086 0.0
H949 H 0.41499 0.75306 0.06126 0.0
H950 H 0.35145 0.74557 0.05093 0.0
H951 H 0.35472 0.76953 0.0306 0.0
C952 C 0.42937 0.87157 0.01504 0.0
C953 C 0.41831 0.88319 0.02502 0.0
C954 C 0.42255 0.85215 0.01092 0.0
C955 C 0.40467 0.844 0.0168 0.0
C956 C 0.39359 0.85564 0.02668 0.0
C957 C 0.40027 0.87503 0.0307 0.0
C958 C 0.39775 0.82306 0.01315 0.0
C959 C 0.396 0.80885 0.02437 0.0
C960 C 0.3927 0.81712 0.99889 0.0
C961 C 0.39361 0.83166 0.98668 0.0
C962 C 0.38245 0.84996 0.98696 0.0
C963 C 0.38348 0.86365 0.97544 0.0
C964 C 0.39552 0.85913 0.96353 0.0
C965 C 0.40651 0.84089 0.9631 0.0
C966 C 0.40554 0.82716 0.9746 0.0
C967 C 0.35029 0.73839 0.99741 0.0
C968 C 0.36236 0.7217 0.00172 0.0
C969 C 0.35784 0.7583 0.99858 0.0
C970 C 0.3775 0.76181 0.00418 0.0
C971 C 0.38994 0.74512 0.00775 0.0
C972 C 0.38245 0.72526 0.00655 0.0
C973 C 0.38439 0.78287 0.00746 0.0
C974 C 0.38613 0.79705 0.99621 0.0
C975 C 0.38927 0.7889 0.02173 0.0
C976 C 0.38701 0.77483 0.03413 0.0
C977 C 0.40391 0.77021 0.04299 0.0
C978 C 0.4019 0.75667 0.05453 0.0
C979 C 0.38301 0.74776 0.05736 0.0
C980 C 0.36609 0.75243 0.04869 0.0
C981 C 0.36802 0.76597 0.03715 0.0
H982 H 0.38149 0.73728 0.06629 0.0
H983 H 0.3963 0.86974 0.95463 0.0
H984 H 0.11475 0.61931 0.96683 0.0
H985 H 0.14915 0.63021 0.97322 0.0
H986 H 0.15806 0.5752 0.99796 0.0
H987 H 0.12316 0.56453 0.99213 0.0
H988 H 0.17475 0.60705 0.01166 0.0
H989 H 0.17692 0.57969 0.96398 0.0
H990 H 0.1673 0.57561 0.93837 0.0
H991 H 0.18324 0.638 0.93026 0.0
H992 H 0.1927 0.64255 0.95587 0.0
H993 H 0.28316 0.60345 0.01039 0.0
H994 H 0.24692 0.59672 0.00673 0.0
H995 H 0.23892 0.65655 0.98828 0.0
H996 H 0.27531 0.66364 0.99211 0.0
H997 H 0.22163 0.62378 0.97176 0.0
H998 H 0.22142 0.64963 0.02011 0.0
H999 H 0.23277 0.6516 0.04549 0.0
H1000 H 0.21455 0.58947 0.0521 0.0
H1001 H 0.20336 0.58702 0.02669 0.0
C1002 C 0.12379 0.60969 0.9739 0.0
C1003 C 0.1161 0.591 0.97897 0.0
C1004 C 0.14361 0.61585 0.97739 0.0
C1005 C 0.15634 0.60337 0.98586 0.0
C1006 C 0.14855 0.58503 0.99134 0.0
C1007 C 0.12864 0.57888 0.9879 0.0
C1008 C 0.17791 0.60925 0.98863 0.0
C1009 C 0.18505 0.6105 0.00293 0.0
C1010 C 0.1913 0.6141 0.97724 0.0
C1011 C 0.18532 0.61152 0.96188 0.0
C1012 C 0.17818 0.5926 0.95677 0.0
C1013 C 0.17279 0.59019 0.94225 0.0
C1014 C 0.17463 0.60655 0.93271 0.0
C1015 C 0.18181 0.62536 0.93767 0.0
C1016 C 0.1872 0.62786 0.95218 0.0
C1017 C 0.27375 0.61528 0.00561 0.0
C1018 C 0.28219 0.63413 0.00155 0.0
C1019 C 0.25299 0.6114 0.00358 0.0
C1020 C 0.24024 0.62618 0.99733 0.0
C1021 C 0.24854 0.64498 0.99318 0.0
C1022 C 0.26931 0.64901 0.9954 0.0
C1023 C 0.21838 0.6216 0.99474 0.0
C1024 C 0.21124 0.62051 0.98047 0.0
C1025 C 0.20511 0.61664 0.00613 0.0
C1026 C 0.21172 0.61809 0.02145 0.0
C1027 C 0.21999 0.63633 0.02694 0.0
C1028 C 0.22637 0.63754 0.04134 0.0
C1029 C 0.22443 0.62065 0.05039 0.0
C1030 C 0.21606 0.60253 0.04507 0.0
C1031 C 0.20968 0.60123 0.03067 0.0
H1032 H 0.22937 0.62162 0.06154 0.0
H1033 H 0.17059 0.60462 0.92146 0.0
H1034 H 0.38565 0.61126 0.2243 0.0
H1035 H 0.37426 0.64524 0.23108 0.0
H1036 H 0.4354 0.66054 0.24483 0.0
H1037 H 0.44681 0.62612 0.23865 0.0
H1038 H 0.40779 0.67607 0.26306 0.0
H1039 H 0.417 0.67498 0.21173 0.0
H1040 H 0.41184 0.66203 0.187 0.0
H1041 H 0.34756 0.67344 0.18995 0.0
H1042 H 0.3523 0.6862 0.21479 0.0
H1043 H 0.40377 0.7834 0.25888 0.0
H1044 H 0.41117 0.74741 0.25533 0.0
H1045 H 0.34835 0.7365 0.2435 0.0
H1046 H 0.34073 0.77276 0.2469 0.0
H1047 H 0.37467 0.71811 0.22498 0.0
H1048 H 0.36613 0.72143 0.27602 0.0
H1049 H 0.37188 0.73492 0.30052 0.0
H1050 H 0.43545 0.71985 0.29798 0.0
H1051 H 0.43015 0.70654 0.27336 0.0
C1052 C 0.39664 0.62162 0.22908 0.0
C1053 C 0.4172 0.61588 0.2309 0.0
C1054 C 0.39012 0.64119 0.23279 0.0
C1055 C 0.40404 0.65558 0.23822 0.0
C1056 C 0.4244 0.64972 0.24057 0.0
C1057 C 0.43094 0.63008 0.23692 0.0
C1058 C 0.3975 0.67693 0.24095 0.0
C1059 C 0.40074 0.68533 0.2547 0.0
C1060 C 0.38784 0.68888 0.23013 0.0
C1061 C 0.38498 0.68135 0.21517 0.0
C1062 C 0.40174 0.67459 0.20714 0.0
C1063 C 0.3989 0.6673 0.1931 0.0
C1064 C 0.37938 0.66686 0.18693 0.0
C1065 C 0.36266 0.67376 0.19476 0.0
C1066 C 0.36542 0.68104 0.20881 0.0
C1067 C 0.39144 0.77343 0.25554 0.0
C1068 C 0.37161 0.78107 0.25318 0.0
C1069 C 0.39571 0.75278 0.2536 0.0
C1070 C 0.38028 0.7392 0.24931 0.0
C1071 C 0.36048 0.74671 0.24686 0.0
C1072 C 0.35614 0.76743 0.24885 0.0
C1073 C 0.38509 0.71731 0.24706 0.0
C1074 C 0.38156 0.7088 0.23338 0.0
C1075 C 0.39455 0.70531 0.25792 0.0
C1076 C 0.39776 0.71313 0.27279 0.0
C1077 C 0.38137 0.72112 0.28064 0.0
C1078 C 0.38454 0.72872 0.29456 0.0
C1079 C 0.40403 0.72829 0.30079 0.0
C1080 C 0.42037 0.7202 0.29314 0.0
C1081 C 0.41728 0.7126 0.2792 0.0
H1082 H 0.40646 0.73419 0.31157 0.0
H1083 H 0.3772 0.66121 0.17606 0.0
H1084 H 0.374 0.90421 0.46402 0.0
H1085 H 0.34066 0.89142 0.47098 0.0
H1086 H 0.34174 0.93071 0.50834 0.0
H1087 H 0.37483 0.94439 0.50083 0.0
H1088 H 0.3263 0.87126 0.49125 0.0
H1089 H 0.29376 0.94378 0.51783 0.0
H1090 H 0.29768 0.98117 0.51663 0.0
H1091 H 0.31755 0.97651 0.47282 0.0
H1092 H 0.31352 0.93915 0.47371 0.0
H1093 H 0.22877 0.84193 0.51553 0.0
H1094 H 0.26337 0.856 0.51546 0.0
H1095 H 0.2439 0.90206 0.48503 0.0
H1096 H 0.20921 0.88886 0.48582 0.0
H1097 H 0.26934 0.91866 0.50142 0.0
H1098 H 0.26967 0.85514 0.47547 0.0
H1099 H 0.2646 0.8182 0.47199 0.0
H1100 H 0.30707 0.80567 0.50643 0.0
H1101 H 0.3122 0.84257 0.51022 0.0
C1102 C 0.36716 0.91001 0.47377 0.0
C1103 C 0.37695 0.92525 0.48191 0.0
C1104 C 0.3481 0.90267 0.47777 0.0
C1105 C 0.33845 0.91018 0.49014 0.0
C1106 C 0.34858 0.92496 0.49858 0.0
C1107 C 0.36752 0.93268 0.49437 0.0
C1108 C 0.31764 0.90275 0.49378 0.0
C1109 C 0.31389 0.88166 0.49354 0.0
C1110 C 0.30127 0.91622 0.4966 0.0
C1111 C 0.30359 0.93867 0.49591 0.0
C1112 C 0.29893 0.95076 0.50794 0.0
C1113 C 0.30117 0.97194 0.50731 0.0
C1114 C 0.30794 0.9812 0.49468 0.0
C1115 C 0.31239 0.96931 0.48262 0.0
C1116 C 0.31015 0.94814 0.48318 0.0
C1117 C 0.23189 0.85521 0.50898 0.0
C1118 C 0.21634 0.86425 0.50063 0.0
C1119 C 0.2517 0.86318 0.50886 0.0
C1120 C 0.25647 0.87987 0.49999 0.0
C1121 C 0.24073 0.88922 0.49199 0.0
C1122 C 0.22086 0.8816 0.4924 0.0
C1123 C 0.27788 0.8872 0.49848 0.0
C1124 C 0.28179 0.90825 0.49926 0.0
C1125 C 0.29422 0.87376 0.49547 0.0
C1126 C 0.29112 0.85159 0.49324 0.0
C1127 C 0.27781 0.8445 0.48237 0.0
C1128 C 0.27494 0.82357 0.48033 0.0
C1129 C 0.28545 0.8096 0.48902 0.0
C1130 C 0.2989 0.81652 0.49973 0.0
C1131 C 0.3018 0.83743 0.50183 0.0
H1132 H 0.28322 0.7934 0.48742 0.0
H1133 H 0.30968 0.9976 0.49422 0.0
H1134 H 0.06004 0.86252 0.72157 0.0
H1135 H 0.07251 0.82972 0.73025 0.0
H1136 H 0.12071 0.85987 0.75392 0.0
H1137 H 0.10792 0.893 0.74571 0.0
H1138 H 0.13445 0.82846 0.7363 0.0
H1139 H 0.08389 0.83821 0.77228 0.0
H1140 H 0.0497 0.8461 0.78153 0.0
H1141 H 0.02478 0.79491 0.75851 0.0
H1142 H 0.05878 0.78687 0.74894 0.0
H1143 H 0.17063 0.73394 0.76362 0.0
H1144 H 0.15762 0.76891 0.76288 0.0
H1145 H 0.10201 0.74759 0.74269 0.0
H1146 H 0.11466 0.7126 0.74379 0.0
H1147 H 0.09337 0.77618 0.76144 0.0
H1148 H 0.14181 0.76887 0.72312 0.0
H1149 H 0.17523 0.76105 0.71252 0.0
H1150 H 0.20326 0.80762 0.73853 0.0
H1151 H 0.17002 0.81554 0.74942 0.0
C1152 C 0.07294 0.86235 0.72896 0.0
C1153 C 0.08292 0.88054 0.73293 0.0
C1154 C 0.08012 0.8435 0.73384 0.0
C1155 C 0.09749 0.84236 0.74277 0.0
C1156 C 0.10729 0.86042 0.74701 0.0
C1157 C 0.1 0.87934 0.74224 0.0
C1158 C 0.10606 0.82218 0.74683 0.0
C1159 C 0.12565 0.81715 0.74208 0.0
C1160 C 0.09435 0.8073 0.75402 0.0
C1161 C 0.07387 0.81203 0.7598 0.0
C1162 C 0.07109 0.82872 0.76909 0.0
C1163 C 0.05175 0.83321 0.77441 0.0
C1164 C 0.03507 0.82104 0.77059 0.0
C1165 C 0.03771 0.80433 0.76146 0.0
C1166 C 0.05702 0.79979 0.7561 0.0
C1167 C 0.15555 0.73669 0.75915 0.0
C1168 C 0.14373 0.72052 0.75367 0.0
C1169 C 0.14817 0.75671 0.75867 0.0
C1170 C 0.12896 0.76097 0.7525 0.0
C1171 C 0.11688 0.74473 0.74749 0.0
C1172 C 0.12416 0.72471 0.74808 0.0
C1173 C 0.12168 0.78232 0.75073 0.0
C1174 C 0.10231 0.78757 0.75586 0.0
C1175 C 0.1335 0.79737 0.74373 0.0
C1176 C 0.15349 0.79263 0.73721 0.0
C1177 C 0.15513 0.77733 0.72666 0.0
C1178 C 0.17403 0.7729 0.72059 0.0
C1179 C 0.19137 0.78378 0.72489 0.0
C1180 C 0.18983 0.79917 0.73524 0.0
C1181 C 0.17096 0.80364 0.74136 0.0
H1182 H 0.20599 0.78034 0.72017 0.0
H1183 H 0.0201 0.82454 0.77472 0.0
H1184 H 0.63555 0.41541 0.78304 0.0
H1185 H 0.66593 0.39623 0.77635 0.0
H1186 H 0.68374 0.44478 0.74784 0.0
H1187 H 0.65315 0.46404 0.75435 0.0
H1188 H 0.69316 0.40461 0.73723 0.0
H1189 H 0.70196 0.44636 0.77991 0.0
H1190 H 0.69248 0.45842 0.80409 0.0
H1191 H 0.69943 0.39775 0.82082 0.0
H1192 H 0.70863 0.38526 0.79666 0.0
H1193 H 0.80628 0.39329 0.7627 0.0
H1194 H 0.77246 0.40876 0.76315 0.0
H1195 H 0.74607 0.35311 0.74668 0.0
H1196 H 0.78004 0.33744 0.74616 0.0
H1197 H 0.74036 0.39648 0.77903 0.0
H1198 H 0.70253 0.36733 0.72655 0.0
H1199 H 0.71224 0.35672 0.70205 0.0
H1200 H 0.76523 0.39504 0.70441 0.0
H1201 H 0.75569 0.40609 0.72883 0.0
C1202 C 0.64555 0.42175 0.77499 0.0
C1203 C 0.64199 0.44133 0.76929 0.0
C1204 C 0.66298 0.4108 0.77124 0.0
C1205 C 0.67718 0.41918 0.76173 0.0
C1206 C 0.67297 0.43805 0.75521 0.0
C1207 C 0.65557 0.44909 0.75901 0.0
C1208 C 0.69746 0.40952 0.76 0.0
C1209 C 0.70347 0.4027 0.74635 0.0
C1210 C 0.71098 0.40731 0.77188 0.0
C1211 C 0.70578 0.41485 0.78646 0.0
C1212 C 0.70133 0.43557 0.78872 0.0
C1213 C 0.69602 0.44248 0.80243 0.0
C1214 C 0.6953 0.42885 0.81398 0.0
C1215 C 0.69996 0.40828 0.81186 0.0
C1216 C 0.70523 0.40128 0.79816 0.0
C1217 C 0.79334 0.38435 0.75904 0.0
C1218 C 0.79586 0.3641 0.75443 0.0
C1219 C 0.774 0.39322 0.75935 0.0
C1220 C 0.75674 0.38212 0.75495 0.0
C1221 C 0.7592 0.36202 0.75001 0.0
C1222 C 0.77861 0.35308 0.74976 0.0
C1223 C 0.73617 0.39139 0.75624 0.0
C1224 C 0.73006 0.39817 0.76988 0.0
C1225 C 0.7227 0.39368 0.74431 0.0
C1226 C 0.7285 0.38734 0.72958 0.0
C1227 C 0.71622 0.37353 0.72182 0.0
C1228 C 0.72169 0.36744 0.70795 0.0
C1229 C 0.73938 0.37515 0.7017 0.0
C1230 C 0.75158 0.38902 0.70929 0.0
C1231 C 0.74616 0.39517 0.72315 0.0
H1232 H 0.74359 0.37041 0.69097 0.0
H1233 H 0.69118 0.43423 0.82459 0.0
H1234 H 0.57309 0.1227 0.0084 0.0
H1235 H 0.58473 0.15661 0.001 0.0
H1236 H 0.59123 0.1741 0.04564 0.0
H1237 H 0.57945 0.1405 0.05305 0.0
H1238 H 0.5738 0.20345 0.03155 0.0
H1239 H 0.6328 0.16179 0.02452 0.0
H1240 H 0.65238 0.13278 0.01495 0.0
H1241 H 0.6402 0.15307 0.97171 0.0
H1242 H 0.6203 0.18207 0.98102 0.0
H1243 H 0.65587 0.2809 0.00752 0.0
H1244 H 0.64639 0.24568 0.0131 0.0
H1245 H 0.58499 0.2575 0.99824 0.0
H1246 H 0.59414 0.29263 0.99284 0.0
H1247 H 0.63132 0.2135 0.998 0.0
H1248 H 0.55188 0.23434 0.02047 0.0
H1249 H 0.53488 0.26342 0.03219 0.0
H1250 H 0.5926 0.28458 0.04856 0.0
H1251 H 0.60988 0.25548 0.03712 0.0
C1252 C 0.57703 0.1338 0.01661 0.0
C1253 C 0.5752 0.12898 0.03131 0.0
C1254 C 0.58374 0.15314 0.01238 0.0
C1255 C 0.58903 0.16789 0.02277 0.0
C1256 C 0.58714 0.16306 0.03742 0.0
C1257 C 0.58032 0.14385 0.04164 0.0
C1258 C 0.59627 0.18847 0.01849 0.0
C1259 C 0.58634 0.20559 0.02418 0.0
C1260 C 0.6129 0.19136 0.0091 0.0
C1261 C 0.62489 0.17398 0.00347 0.0
C1262 C 0.63417 0.15998 0.01297 0.0
C1263 C 0.64534 0.14355 0.00759 0.0
C1264 C 0.64749 0.14106 0.99273 0.0
C1265 C 0.6385 0.15501 0.98322 0.0
C1266 C 0.62729 0.17145 0.98854 0.0
C1267 C 0.64039 0.27597 0.00533 0.0
C1268 C 0.62571 0.28972 -9e-05 0.0
C1269 C 0.63502 0.25581 0.00849 0.0
C1270 C 0.61491 0.24905 0.00629 0.0
C1271 C 0.6005 0.26248 0.00027 0.0
C1272 C 0.6058 0.2826 0.99718 0.0
C1273 C 0.60864 0.22834 0.01092 0.0
C1274 C 0.61872 0.21126 0.00531 0.0
C1275 C 0.59248 0.22544 0.0207 0.0
C1276 C 0.58218 0.24284 0.02781 0.0
C1277 C 0.56092 0.24516 0.02662 0.0
C1278 C 0.55124 0.26165 0.03321 0.0
C1279 C 0.56266 0.27587 0.04108 0.0
C1280 C 0.58378 0.27359 0.04242 0.0
C1281 C 0.59352 0.25711 0.03587 0.0
H1282 H 0.55514 0.28864 0.04616 0.0
H1283 H 0.65615 0.12833 0.98859 0.0
H1284 H 0.89001 0.07109 0.27396 0.0
H1285 H 0.85469 0.07999 0.26819 0.0
H1286 H 0.86686 0.1427 0.27933 0.0
H1287 H 0.90191 0.13376 0.28576 0.0
H1288 H 0.83255 0.13106 0.29099 0.0
H1289 H 0.86055 0.12722 0.24385 0.0
H1290 H 0.87944 0.11199 0.22371 0.0
H1291 H 0.83715 0.06207 0.2221 0.0
H1292 H 0.81815 0.07686 0.24237 0.0
H1293 H 0.73623 0.16568 0.26244 0.0
H1294 H 0.77298 0.16095 0.26623 0.0
H1295 H 0.76588 0.09611 0.26045 0.0
H1296 H 0.72934 0.10059 0.25669 0.0
H1297 H 0.79817 0.11158 0.24514 0.0
H1298 H 0.77159 0.11509 0.29342 0.0
H1299 H 0.75284 0.13091 0.31341 0.0
H1300 H 0.79291 0.18263 0.31239 0.0
H1301 H 0.81172 0.16724 0.29223 0.0
C1302 C 0.88519 0.08678 0.27519 0.0
C1303 C 0.89888 0.1017 0.28029 0.0
C1304 C 0.86501 0.0919 0.27175 0.0
C1305 C 0.85813 0.11208 0.27317 0.0
C1306 C 0.87181 0.12705 0.27809 0.0
C1307 C 0.89195 0.12193 0.28161 0.0
C1308 C 0.83647 0.11741 0.27007 0.0
C1309 C 0.82515 0.12712 0.28085 0.0
C1310 C 0.82667 0.11201 0.25694 0.0
C1311 C 0.83803 0.10307 0.24472 0.0
C1312 C 0.85536 0.11292 0.23928 0.0
C1313 C 0.86607 0.10437 0.22782 0.0
C1314 C 0.85953 0.08605 0.22165 0.0
C1315 C 0.84222 0.07625 0.2269 0.0
C1316 C 0.83146 0.08472 0.23836 0.0
C1317 C 0.74248 0.15042 0.26198 0.0
C1318 C 0.72976 0.13353 0.2593 0.0
C1319 C 0.76348 0.14774 0.26418 0.0
C1320 C 0.77213 0.12816 0.26367 0.0
C1321 C 0.75952 0.11135 0.26086 0.0
C1322 C 0.73858 0.11396 0.25879 0.0
C1323 C 0.79431 0.12499 0.26611 0.0
C1324 C 0.80568 0.11568 0.25521 0.0
C1325 C 0.80419 0.13088 0.27908 0.0
C1326 C 0.7929 0.14013 0.2912 0.0
C1327 C 0.77628 0.12993 0.29736 0.0
C1328 C 0.76567 0.13879 0.30875 0.0
C1329 C 0.77164 0.15779 0.31414 0.0
C1330 C 0.78827 0.16793 0.30819 0.0
C1331 C 0.79892 0.15914 0.29679 0.0
H1332 H 0.76341 0.16462 0.32296 0.0
H1333 H 0.86784 0.07946 0.21278 0.0
H1334 H 0.91381 0.38166 0.5141 0.0
H1335 H 0.89572 0.35032 0.50741 0.0
H1336 H 0.94451 0.31445 0.52587 0.0
H1337 H 0.9623 0.34539 0.53301 0.0
H1338 H 0.93057 0.29889 0.49977 0.0
H1339 H 0.90316 0.32302 0.54497 0.0
H1340 H 0.88682 0.34836 0.56073 0.0
H1341 H 0.83451 0.35003 0.53249 0.0
H1342 H 0.8507 0.3249 0.51645 0.0
H1343 H 0.88919 0.20285 0.51568 0.0
H1344 H 0.9046 0.23669 0.51682 0.0
H1345 H 0.84857 0.26338 0.50094 0.0
H1346 H 0.83289 0.2295 0.50001 0.0
H1347 H 0.86396 0.28537 0.52273 0.0
H1348 H 0.88954 0.25823 0.47891 0.0
H1349 H 0.90568 0.2327 0.46322 0.0
H1350 H 0.96104 0.23676 0.48819 0.0
H1351 H 0.94513 0.26209 0.50418 0.0
C1352 C 0.92073 0.36712 0.51671 0.0
C1353 C 0.93958 0.36618 0.52412 0.0
C1354 C 0.91039 0.34922 0.51282 0.0
C1355 C 0.91873 0.33007 0.51622 0.0
C1356 C 0.93786 0.32907 0.52306 0.0
C1357 C 0.94809 0.34687 0.52705 0.0
C1358 C 0.9072 0.31097 0.51345 0.0
C1359 C 0.91604 0.29588 0.50482 0.0
C1360 C 0.88801 0.30727 0.51976 0.0
C1361 C 0.87824 0.32229 0.52942 0.0
C1362 C 0.88825 0.32893 0.54206 0.0
C1363 C 0.87901 0.34322 0.55105 0.0
C1364 C 0.85967 0.35085 0.54759 0.0
C1365 C 0.84951 0.34415 0.53514 0.0
C1366 C 0.85871 0.32987 0.5261 0.0
C1367 C 0.88012 0.21591 0.51244 0.0
C1368 C 0.85983 0.21348 0.50771 0.0
C1369 C 0.88899 0.23525 0.51302 0.0
C1370 C 0.87786 0.25256 0.50874 0.0
C1371 C 0.85748 0.25023 0.50423 0.0
C1372 C 0.84856 0.23086 0.50369 0.0
C1373 C 0.88749 0.27307 0.50923 0.0
C1374 C 0.87832 0.28844 0.51746 0.0
C1375 C 0.90635 0.27705 0.50249 0.0
C1376 C 0.91607 0.26196 0.49281 0.0
C1377 C 0.90511 0.25358 0.48112 0.0
C1378 C 0.91423 0.23915 0.47217 0.0
C1379 C 0.93436 0.23308 0.47473 0.0
C1380 C 0.94544 0.24147 0.48623 0.0
C1381 C 0.93639 0.25588 0.49523 0.0
H1382 H 0.94139 0.2219 0.46779 0.0
H1383 H 0.85253 0.36191 0.55457 0.0
H1384 H 0.6065 0.12541 0.47222 0.0
H1385 H 0.64155 0.13449 0.47827 0.0
H1386 H 0.65622 0.07096 0.48448 0.0
H1387 H 0.6208 0.06178 0.47925 0.0
H1388 H 0.67537 0.09312 0.50406 0.0
H1389 H 0.66691 0.09646 0.45265 0.0
H1390 H 0.65104 0.1076 0.42975 0.0
H1391 H 0.66536 0.1699 0.43984 0.0
H1392 H 0.68107 0.15914 0.4629 0.0
H1393 H 0.78148 0.09511 0.49309 0.0
H1394 H 0.74498 0.08975 0.48991 0.0
H1395 H 0.73505 0.15473 0.49007 0.0
H1396 H 0.77177 0.16037 0.49329 0.0
H1397 H 0.71327 0.13399 0.46819 0.0
H1398 H 0.72422 0.12912 0.51929 0.0
H1399 H 0.74138 0.1165 0.54132 0.0
H1400 H 0.72341 0.05527 0.53088 0.0
H1401 H 0.70641 0.06749 0.50865 0.0
C1402 C 0.61699 0.11335 0.47522 0.0
C1403 C 0.61075 0.0928 0.47517 0.0
C1404 C 0.63716 0.11858 0.47848 0.0
C1405 C 0.65166 0.10339 0.48152 0.0
C1406 C 0.64535 0.08295 0.48205 0.0
C1407 C 0.62511 0.07771 0.47893 0.0
C1408 C 0.67352 0.10872 0.48365 0.0
C1409 C 0.68368 0.1019 0.49615 0.0
C1410 C 0.68433 0.12051 0.47346 0.0
C1411 C 0.67497 0.12701 0.45957 0.0
C1412 C 0.66654 0.11255 0.45003 0.0
C1413 C 0.65759 0.11879 0.43702 0.0
C1414 C 0.65714 0.13945 0.43336 0.0
C1415 C 0.66569 0.1539 0.4427 0.0
C1416 C 0.67463 0.14774 0.45574 0.0
C1417 C 0.77164 0.10834 0.4924 0.0
C1418 C 0.77964 0.12821 0.49351 0.0
C1419 C 0.75072 0.10521 0.49064 0.0
C1420 C 0.73731 0.12183 0.48994 0.0
C1421 C 0.74518 0.1417 0.49066 0.0
C1422 C 0.76616 0.14488 0.49252 0.0
C1423 C 0.71506 0.11827 0.48851 0.0
C1424 C 0.70486 0.12538 0.47614 0.0
C1425 C 0.70429 0.10656 0.49873 0.0
C1426 C 0.71417 0.09921 0.51224 0.0
C1427 C 0.72403 0.11295 0.52164 0.0
C1428 C 0.73373 0.10587 0.53417 0.0
C1429 C 0.73353 0.08509 0.53748 0.0
C1430 C 0.72357 0.07136 0.52829 0.0
C1431 C 0.71388 0.07836 0.51573 0.0
H1432 H 0.74106 0.07964 0.54718 0.0
H1433 H 0.65022 0.14426 0.42328 0.0
H1434 H 0.95097 0.12617 0.732 0.0
H1435 H 0.94021 0.16032 0.73937 0.0
H1436 H 0.87724 0.14317 0.73315 0.0
H1437 H 0.88788 0.10926 0.72538 0.0
H1438 H 0.88488 0.17918 0.72082 0.0
H1439 H 0.89714 0.14881 0.76692 0.0
H1440 H 0.91665 0.13007 0.78554 0.0
H1441 H 0.963 0.17626 0.78523 0.0
H1442 H 0.94391 0.19515 0.76646 0.0
H1443 H 0.84849 0.27285 0.75069 0.0
H1444 H 0.85438 0.23637 0.74681 0.0
H1445 H 0.91909 0.2456 0.75242 0.0
H1446 H 0.91343 0.28172 0.75655 0.0
H1447 H 0.90743 0.21231 0.76633 0.0
H1448 H 0.89681 0.24088 0.71881 0.0
H1449 H 0.87772 0.25957 0.69994 0.0
H1450 H 0.82856 0.21661 0.70284 0.0
H1451 H 0.84726 0.19782 0.72187 0.0
C1452 C 0.93483 0.12966 0.73224 0.0
C1453 C 0.92029 0.11494 0.72817 0.0
C1454 C 0.92869 0.14913 0.73656 0.0
C1455 C 0.90789 0.15424 0.73693 0.0
C1456 C 0.89336 0.13954 0.73299 0.0
C1457 C 0.89947 0.12009 0.72869 0.0
C1458 C 0.90135 0.17519 0.74085 0.0
C1459 C 0.88951 0.18631 0.73089 0.0
C1460 C 0.90766 0.1846 0.75387 0.0
C1461 C 0.91917 0.17331 0.76519 0.0
C1462 C 0.91157 0.1549 0.77074 0.0
C1463 C 0.92254 0.14426 0.78134 0.0
C1464 C 0.94107 0.15195 0.78654 0.0
C1465 C 0.94865 0.17032 0.78118 0.0
C1466 C 0.93775 0.18101 0.77058 0.0
C1467 C 0.86396 0.26711 0.75114 0.0
C1468 C 0.88047 0.28033 0.75385 0.0
C1469 C 0.86731 0.24625 0.74888 0.0
C1470 C 0.88721 0.23828 0.74919 0.0
C1471 C 0.90361 0.25138 0.75214 0.0
C1472 C 0.90031 0.27212 0.75443 0.0
C1473 C 0.89125 0.2164 0.7462 0.0
C1474 C 0.90262 0.2051 0.75633 0.0
C1475 C 0.88455 0.20683 0.73332 0.0
C1476 C 0.87332 0.2181 0.72188 0.0
C1477 C 0.88186 0.23552 0.7155 0.0
C1478 C 0.87112 0.24611 0.70476 0.0
C1479 C 0.85191 0.23932 0.70023 0.0
C1480 C 0.84342 0.22188 0.70639 0.0
C1481 C 0.85408 0.21125 0.71714 0.0
H1482 H 0.84363 0.24753 0.69191 0.0
H1483 H 0.94954 0.14369 0.79474 0.0
H1484 H 0.85964 0.45881 0.98752 0.0
H1485 H 0.82679 0.44463 0.99457 0.0
H1486 H 0.8539 0.38488 0.99802 0.0
H1487 H 0.88652 0.39873 0.99036 0.0
H1488 H 0.82024 0.38302 0.98261 0.0
H1489 H 0.83857 0.41204 0.02814 0.0
H1490 H 0.85004 0.4389 0.04495 0.0
H1491 H 0.79773 0.4752 0.03374 0.0
H1492 H 0.78608 0.44868 0.0167 0.0
H1493 H 0.73018 0.33694 0.0087 0.0
H1494 H 0.7652 0.34996 0.00894 0.0
H1495 H 0.7427 0.41071 0.00078 0.0
H1496 H 0.70774 0.39787 0.00055 0.0
H1497 H 0.77488 0.41042 0.02041 0.0
H1498 H 0.75866 0.38294 0.97341 0.0
H1499 H 0.74716 0.35634 0.95639 0.0
H1500 H 0.79597 0.31726 0.97053 0.0
H1501 H 0.80759 0.34355 0.98779 0.0
C1502 C 0.85865 0.44267 0.98985 0.0
C1503 C 0.87577 0.42994 0.98833 0.0
C1504 C 0.83988 0.43461 0.99404 0.0
C1505 C 0.83787 0.41368 0.99693 0.0
C1506 C 0.85508 0.40107 0.99588 0.0
C1507 C 0.87381 0.40909 0.99164 0.0
C1508 C 0.81755 0.40468 -4e-05 0.0
C1509 C 0.81052 0.38876 0.99109 0.0
C1510 C 0.80461 0.41245 0.01078 0.0
C1511 C 0.81154 0.42843 0.02105 0.0
C1512 C 0.82959 0.42582 0.02917 0.0
C1513 C 0.83611 0.44097 0.03876 0.0
C1514 C 0.82465 0.45876 0.04039 0.0
C1515 C 0.80661 0.46142 0.03246 0.0
C1516 C 0.80002 0.44632 0.02284 0.0
C1517 C 0.73268 0.35312 0.00717 0.0
C1518 C 0.71621 0.36635 0.00449 0.0
C1519 C 0.75269 0.36052 0.00728 0.0
C1520 C 0.75655 0.38127 0.00472 0.0
C1521 C 0.74007 0.39465 0.00277 0.0
C1522 C 0.7201 0.38726 0.00258 0.0
C1523 C 0.77772 0.38885 0.00306 0.0
C1524 C 0.7848 0.40454 0.01211 0.0
C1525 C 0.79076 0.38089 0.9924 0.0
C1526 C 0.78384 0.36511 0.982 0.0
C1527 C 0.76683 0.36861 0.97297 0.0
C1528 C 0.76031 0.3536 0.96327 0.0
C1529 C 0.77079 0.33509 0.96241 0.0
C1530 C 0.78784 0.33158 0.97123 0.0
C1531 C 0.79441 0.34653 0.98097 0.0
H1532 H 0.76572 0.3235 0.95489 0.0
H1533 H 0.82972 0.47048 0.04782 0.0
H1534 H 0.60419 0.38767 0.2461 0.0
H1535 H 0.61748 0.35392 0.25233 0.0
H1536 H 0.57061 0.3259 0.22613 0.0
H1537 H 0.55765 0.35948 0.21939 0.0
H1538 H 0.57795 0.30572 0.25294 0.0
H1539 H 0.61495 0.33152 0.21199 0.0
H1540 H 0.63561 0.35692 0.19911 0.0
H1541 H 0.68251 0.35227 0.23161 0.0
H1542 H 0.66196 0.32704 0.24481 0.0
H1543 H 0.61888 0.20765 0.23968 0.0
H1544 H 0.60411 0.24179 0.23811 0.0
H1545 H 0.65832 0.267 0.25794 0.0
H1546 H 0.67341 0.23292 0.25917 0.0
H1547 H 0.6476 0.28946 0.23603 0.0
H1548 H 0.61245 0.26237 0.27642 0.0
H1549 H 0.59208 0.23749 0.29 0.0
H1550 H 0.54232 0.24497 0.26 0.0
H1551 H 0.56251 0.26969 0.2461 0.0
C1552 C 0.59665 0.37436 0.24166 0.0
C1553 C 0.57991 0.37641 0.23213 0.0
C1554 C 0.60422 0.35507 0.24531 0.0
C1555 C 0.59512 0.33744 0.23959 0.0
C1556 C 0.5778 0.33933 0.23069 0.0
C1557 C 0.57034 0.3586 0.22692 0.0
C1558 C 0.60442 0.3171 0.24207 0.0
C1559 C 0.59311 0.30206 0.24916 0.0
C1560 C 0.62439 0.31254 0.23745 0.0
C1561 C 0.63682 0.32757 0.22947 0.0
C1562 C 0.62959 0.33604 0.21646 0.0
C1563 C 0.64129 0.35038 0.20909 0.0
C1564 C 0.66034 0.35625 0.21456 0.0
C1565 C 0.66774 0.34774 0.2274 0.0
C1566 C 0.65608 0.33341 0.23482 0.0
C1567 C 0.62762 0.22045 0.24377 0.0
C1568 C 0.64731 0.21757 0.24956 0.0
C1569 C 0.6191 0.23997 0.24295 0.0
C1570 C 0.62996 0.257 0.24809 0.0
C1571 C 0.64962 0.25413 0.25392 0.0
C1572 C 0.65821 0.23462 0.25464 0.0
C1573 C 0.62114 0.27786 0.24689 0.0
C1574 C 0.63252 0.29305 0.23998 0.0
C1575 C 0.6013 0.28258 0.2518 0.0
C1576 C 0.58907 0.26775 0.26015 0.0
C1577 C 0.59722 0.25859 0.27265 0.0
C1578 C 0.5857 0.24454 0.28042 0.0
C1579 C 0.56594 0.23961 0.27585 0.0
C1580 C 0.55764 0.24878 0.26352 0.0
C1581 C 0.56911 0.26283 0.2557 0.0
H1582 H 0.55704 0.22873 0.28188 0.0
H1583 H 0.66938 0.36735 0.20884 0.0
H1584 H 0.07177 0.94272 0.3685 0.0
H1585 H 0.08584 0.92609 0.39015 0.0
H1586 H 0.13491 0.90128 0.36505 0.0
H1587 H 0.12115 0.91824 0.34345 0.0
H1588 H 0.11177 0.87243 0.38334 0.0
H1589 H 0.14873 0.93548 0.38522 0.0
H1590 H 0.15237 0.97289 0.38487 0.0
H1591 H 0.11495 0.97765 0.4224 0.0
H1592 H 0.11082 0.94027 0.42283 0.0
H1593 H 0.15573 0.82822 0.44697 0.0
H1594 H 0.1492 0.84391 0.42353 0.0
H1595 H 0.12052 0.89503 0.44468 0.0
H1596 H 0.13102 0.88116 0.46783 0.0
H1597 H 0.13805 0.91026 0.42588 0.0
H1598 H 0.09311 0.84983 0.42016 0.0
H1599 H 0.08578 0.81274 0.41975 0.0
H1600 H 0.1343 0.80357 0.38977 0.0
H1601 H 0.14168 0.8405 0.39001 0.0
C1602 C 0.08563 0.93383 0.36767 0.0
C1603 C 0.09545 0.93179 0.35438 0.0
C1604 C 0.09366 0.92441 0.37999 0.0
C1605 C 0.11142 0.91254 0.37914 0.0
C1606 C 0.12123 0.91043 0.36588 0.0
C1607 C 0.11343 0.92018 0.35362 0.0
C1608 C 0.1193 0.90185 0.39207 0.0
C1609 C 0.1177 0.88059 0.39266 0.0
C1610 C 0.12679 0.91261 0.40418 0.0
C1611 C 0.12931 0.93508 0.40397 0.0
C1612 C 0.14112 0.94451 0.39331 0.0
C1613 C 0.1433 0.96571 0.39312 0.0
C1614 C 0.13385 0.97764 0.40359 0.0
C1615 C 0.12224 0.96839 0.41429 0.0
C1616 C 0.11999 0.9472 0.41452 0.0
C1617 C 0.14784 0.84272 0.4465 0.0
C1618 C 0.14253 0.85286 0.45924 0.0
C1619 C 0.14376 0.8516 0.43304 0.0
C1620 C 0.13348 0.87044 0.43201 0.0
C1621 C 0.12828 0.88046 0.44488 0.0
C1622 C 0.13356 0.87218 0.45825 0.0
C1623 C 0.1292 0.88056 0.4178 0.0
C1624 C 0.13188 0.90184 0.41677 0.0
C1625 C 0.12227 0.86983 0.40537 0.0
C1626 C 0.11814 0.8477 0.40538 0.0
C1627 C 0.1023 0.83974 0.41368 0.0
C1628 C 0.09811 0.81884 0.41342 0.0
C1629 C 0.10971 0.8058 0.40487 0.0
C1630 C 0.12539 0.81367 0.39646 0.0
C1631 C 0.12953 0.83457 0.39661 0.0
H1632 H 0.10647 0.78962 0.4047 0.0
H1633 H 0.13557 0.99405 0.40342 0.0
H1634 H 0.05013 0.5874 0.62542 0.0
H1635 H 0.06875 0.60092 0.6463 0.0
H1636 H 0.11331 0.62755 0.61807 0.0
H1637 H 0.09495 0.61363 0.59718 0.0
H1638 H 0.13212 0.61018 0.63919 0.0
H1639 H 0.07762 0.6572 0.6361 0.0
H1640 H 0.04206 0.66911 0.63394 0.0
H1641 H 0.02781 0.64038 0.67416 0.0
H1642 H 0.06322 0.62803 0.67647 0.0
H1643 H 0.17949 0.65508 0.702 0.0
H1644 H 0.16427 0.6486 0.67829 0.0
H1645 H 0.10989 0.62589 0.6987 0.0
H1646 H 0.12396 0.63557 0.72205 0.0
H1647 H 0.09804 0.64682 0.67893 0.0
H1648 H 0.1524 0.59171 0.67571 0.0
H1649 H 0.18865 0.58073 0.67605 0.0
H1650 H 0.20332 0.62847 0.64631 0.0
H1651 H 0.16728 0.63945 0.64575 0.0
C1652 C 0.0638 0.5963 0.62368 0.0
C1653 C 0.07112 0.59944 0.6097 0.0
C1654 C 0.0744 0.60409 0.63561 0.0
C1655 C 0.09231 0.61552 0.63377 0.0
C1656 C 0.09955 0.61878 0.61978 0.0
C1657 C 0.08908 0.6108 0.60786 0.0
C1658 C 0.10392 0.62323 0.6465 0.0
C1659 C 0.12469 0.61838 0.64782 0.0
C1660 C 0.0944 0.63413 0.65772 0.0
C1661 C 0.07306 0.64156 0.6564 0.0
C1662 C 0.06687 0.65329 0.64443 0.0
C1663 C 0.04674 0.66014 0.64319 0.0
C1664 C 0.03268 0.65547 0.65389 0.0
C1665 C 0.03872 0.64397 0.66587 0.0
C1666 C 0.05883 0.63707 0.66716 0.0
C1667 C 0.1644 0.64842 0.70134 0.0
C1668 C 0.15332 0.64464 0.71392 0.0
C1669 C 0.15576 0.64441 0.68774 0.0
C1670 C 0.13607 0.63599 0.68648 0.0
C1671 C 0.12515 0.63218 0.69918 0.0
C1672 C 0.13341 0.63711 0.71264 0.0
C1673 C 0.12595 0.63241 0.67217 0.0
C1674 C 0.10547 0.63845 0.67038 0.0
C1675 C 0.13582 0.62289 0.66042 0.0
C1676 C 0.15741 0.61658 0.66098 0.0
C1677 C 0.16352 0.59993 0.66946 0.0
C1678 C 0.18393 0.59369 0.66961 0.0
C1679 C 0.19828 0.60405 0.66135 0.0
C1680 C 0.19222 0.62053 0.65278 0.0
C1681 C 0.17182 0.6267 0.65249 0.0
H1682 H 0.21406 0.59921 0.66152 0.0
H1683 H 0.0171 0.66079 0.65291 0.0
H1684 H 0.40786 0.58393 0.85677 0.0
H1685 H 0.39202 0.59527 0.87906 0.0
H1686 H 0.44759 0.62608 0.89147 0.0
H1687 H 0.46379 0.61426 0.86932 0.0
H1688 H 0.43203 0.6053 0.91372 0.0
H1689 H 0.40717 0.65324 0.87901 0.0
H1690 H 0.39126 0.66419 0.85608 0.0
H1691 H 0.33576 0.63376 0.86738 0.0
H1692 H 0.35141 0.6224 0.89032 0.0
H1693 H 0.36061 0.67018 0.96119 0.0
H1694 H 0.37637 0.66459 0.93769 0.0
H1695 H 0.37578 0.5997 0.94508 0.0
H1696 H 0.36031 0.60502 0.96848 0.0
H1697 H 0.36603 0.64242 0.91299 0.0
H1698 H 0.42099 0.58041 0.93486 0.0
H1699 H 0.43697 0.57064 0.95804 0.0
H1700 H 0.43413 0.63278 0.97244 0.0
H1701 H 0.41849 0.64298 0.94925 0.0
C1702 C 0.41682 0.59291 0.86431 0.0
C1703 C 0.43713 0.59813 0.86129 0.0
C1704 C 0.40765 0.59959 0.87697 0.0
C1705 C 0.41853 0.61175 0.88684 0.0
C1706 C 0.43888 0.6168 0.88396 0.0
C1707 C 0.44808 0.61013 0.87127 0.0
C1708 C 0.40871 0.61883 0.90027 0.0
C1709 C 0.41766 0.6135 0.91354 0.0
C1710 C 0.3901 0.62983 0.90005 0.0
C1711 C 0.38052 0.63686 0.88635 0.0
C1712 C 0.39161 0.64879 0.87658 0.0
C1713 C 0.38263 0.65508 0.86358 0.0
C1714 C 0.36252 0.64965 0.86027 0.0
C1715 C 0.35133 0.63795 0.86997 0.0
C1716 C 0.36024 0.63161 0.88298 0.0
C1717 C 0.36361 0.65471 0.95775 0.0
C1718 C 0.3594 0.63808 0.96684 0.0
C1719 C 0.37258 0.65155 0.9443 0.0
C1720 C 0.37753 0.63176 0.93977 0.0
C1721 C 0.37239 0.61512 0.94848 0.0
C1722 C 0.36351 0.61823 0.96188 0.0
C1723 C 0.3891 0.62836 0.92635 0.0
C1724 C 0.38048 0.63437 0.91312 0.0
C1725 C 0.40818 0.61824 0.92659 0.0
C1726 C 0.41842 0.61242 0.94034 0.0
C1727 C 0.42394 0.59202 0.94292 0.0
C1728 C 0.43291 0.5864 0.95608 0.0
C1729 C 0.43651 0.60107 0.96672 0.0
C1730 C 0.43129 0.62142 0.9642 0.0
C1731 C 0.42237 0.62713 0.95105 0.0
H1732 H 0.44336 0.59667 0.97693 0.0
H1733 H 0.3556 0.65454 0.8502 0.0
H1734 H 0.44655 0.92204 0.1204 0.0
H1735 H 0.4335 0.90664 0.14241 0.0
H1736 H 0.37184 0.9178 0.12778 0.0
H1737 H 0.38481 0.93322 0.10567 0.0
H1738 H 0.3764 0.92623 0.15628 0.0
H1739 H 0.39161 0.87081 0.12493 0.0
H1740 H 0.41251 0.85037 0.10839 0.0
H1741 H 0.45666 0.84021 0.14215 0.0
H1742 H 0.43618 0.86086 0.15884 0.0
H1743 H 0.33734 0.8607 0.21138 0.0
H1744 H 0.34452 0.87424 0.18734 0.0
H1745 H 0.40907 0.86963 0.19611 0.0
H1746 H 0.40215 0.85607 0.21997 0.0
H1747 H 0.39909 0.85626 0.16904 0.0
H1748 H 0.38499 0.91445 0.19954 0.0
H1749 H 0.36387 0.93482 0.21599 0.0
H1750 H 0.31694 0.93923 0.18349 0.0
H1751 H 0.33769 0.91861 0.16692 0.0
C1752 C 0.43021 0.92121 0.12186 0.0
C1753 C 0.41671 0.92871 0.11124 0.0
C1754 C 0.42277 0.91241 0.13444 0.0
C1755 C 0.40169 0.91075 0.13661 0.0
C1756 C 0.38816 0.91888 0.12629 0.0
C1757 C 0.3956 0.92775 0.1137 0.0
C1758 C 0.39389 0.90016 0.14956 0.0
C1759 C 0.38107 0.9108 0.15895 0.0
C1760 C 0.4001 0.88008 0.15309 0.0
C1761 C 0.41242 0.86752 0.14311 0.0
C1762 C 0.40585 0.86434 0.1288 0.0
C1763 C 0.41761 0.8527 0.1194 0.0
C1764 C 0.43592 0.84403 0.12421 0.0
C1765 C 0.44248 0.84695 0.13844 0.0
C1766 C 0.43079 0.8586 0.14788 0.0
C1767 C 0.35306 0.86238 0.20814 0.0
C1768 C 0.36916 0.85739 0.21766 0.0
C1769 C 0.35712 0.8702 0.19443 0.0
C1770 C 0.37733 0.8731 0.19001 0.0
C1771 C 0.39337 0.86752 0.19931 0.0
C1772 C 0.38936 0.85984 0.21299 0.0
C1773 C 0.38202 0.88249 0.17591 0.0
C1774 C 0.39424 0.8716 0.16628 0.0
C1775 C 0.37518 0.90228 0.17214 0.0
C1776 C 0.36278 0.91479 0.18206 0.0
C1777 C 0.3701 0.91962 0.19595 0.0
C1778 C 0.35821 0.93124 0.20529 0.0
C1779 C 0.33904 0.93826 0.20081 0.0
C1780 C 0.33177 0.93374 0.18696 0.0
C1781 C 0.34359 0.9221 0.17759 0.0
H1782 H 0.32986 0.94725 0.20805 0.0
H1783 H 0.44501 0.83502 0.11691 0.0
H1784 H 0.07817 0.56334 0.88588 0.0
H1785 H 0.09496 0.57708 0.86464 0.0
H1786 H 0.07708 0.63789 0.87677 0.0
H1787 H 0.06081 0.6244 0.89838 0.0
H1788 H 0.07221 0.62864 0.84647 0.0
H1789 H 0.12253 0.62608 0.88406 0.0
H1790 H 0.14177 0.61001 0.90397 0.0
H1791 H 0.16508 0.56499 0.87485 0.0
H1792 H 0.14555 0.58054 0.8548 0.0
H1793 H 0.13893 0.67056 0.79391 0.0
H1794 H 0.12401 0.66499 0.81772 0.0
H1795 H 0.14038 0.60137 0.81558 0.0
H1796 H 0.15532 0.60676 0.79198 0.0
H1797 H 0.14671 0.61688 0.84249 0.0
H1798 H 0.09365 0.61627 0.80594 0.0
H1799 H 0.07368 0.63091 0.78578 0.0
H1800 H 0.05538 0.68078 0.81269 0.0
H1801 H 0.07555 0.66659 0.83296 0.0
C1802 C 0.07782 0.57965 0.88409 0.0
C1803 C 0.06832 0.59277 0.89396 0.0
C1804 C 0.08733 0.58746 0.8719 0.0
C1805 C 0.08744 0.60851 0.86926 0.0
C1806 C 0.07715 0.62159 0.87865 0.0
C1807 C 0.06777 0.61382 0.89095 0.0
C1808 C 0.09911 0.61676 0.857 0.0
C1809 C 0.08856 0.62645 0.8457 0.0
C1810 C 0.12039 0.61363 0.85597 0.0
C1811 C 0.13242 0.60439 0.86795 0.0
C1812 C 0.13162 0.61266 0.88192 0.0
C1813 C 0.14261 0.60365 0.89323 0.0
C1814 C 0.15464 0.58647 0.89069 0.0
C1815 C 0.15574 0.57829 0.87681 0.0
C1816 C 0.14471 0.5872 0.86547 0.0
C1817 C 0.13968 0.65548 0.79864 0.0
C1818 C 0.14814 0.63907 0.791 0.0
C1819 C 0.13106 0.6523 0.8122 0.0
C1820 C 0.13088 0.63271 0.81832 0.0
C1821 C 0.14032 0.6166 0.81105 0.0
C1822 C 0.14877 0.61971 0.79751 0.0
C1823 C 0.11978 0.62843 0.83181 0.0
C1824 C 0.13043 0.61942 0.84336 0.0
C1825 C 0.09858 0.63208 0.83302 0.0
C1826 C 0.0863 0.64052 0.8209 0.0
C1827 C 0.0855 0.63045 0.80752 0.0
C1828 C 0.07413 0.63865 0.79608 0.0
C1829 C 0.06331 0.6568 0.79794 0.0
C1830 C 0.0638 0.66675 0.81126 0.0
C1831 C 0.0752 0.65864 0.82273 0.0
H1832 H 0.05451 0.66312 0.78907 0.0
H1833 H 0.16314 0.57951 0.89946 0.0
H1834 H 0.37913 0.58578 0.15703 0.0
H1835 H 0.36612 0.6028 0.1354 0.0
H1836 H 0.42198 0.58897 0.11337 0.0
H1837 H 0.43498 0.57146 0.13486 0.0
H1838 H 0.40936 0.62914 0.10947 0.0
H1839 H 0.38069 0.56164 0.10603 0.0
H1840 H 0.36139 0.53182 0.11456 0.0
H1841 H 0.30777 0.56883 0.11881 0.0
H1842 H 0.32685 0.59895 0.11049 0.0
H1843 H 0.38142 0.64442 0.03681 0.0
H1844 H 0.39301 0.63237 0.06042 0.0
H1845 H 0.33235 0.64094 0.07702 0.0
H1846 H 0.32062 0.6523 0.05307 0.0
H1847 H 0.34585 0.60574 0.08515 0.0
H1848 H 0.37335 0.67252 0.08681 0.0
H1849 H 0.39209 0.7026 0.07813 0.0
H1850 H 0.44743 0.66768 0.0771 0.0
H1851 H 0.42896 0.63729 0.08558 0.0
C1852 C 0.38857 0.58608 0.14754 0.0
C1853 C 0.40807 0.5771 0.14767 0.0
C1854 C 0.38114 0.59594 0.13521 0.0
C1855 C 0.39304 0.59704 0.12277 0.0
C1856 C 0.41259 0.58834 0.12289 0.0
C1857 C 0.42 0.57838 0.1352 0.0
C1858 C 0.38503 0.60713 0.10959 0.0
C1859 C 0.39564 0.62387 0.10399 0.0
C1860 C 0.36674 0.60067 0.10278 0.0
C1861 C 0.35526 0.5826 0.10782 0.0
C1862 C 0.36483 0.56346 0.10892 0.0
C1863 C 0.35392 0.5465 0.11369 0.0
C1864 C 0.33338 0.54844 0.11727 0.0
C1865 C 0.32369 0.56735 0.11606 0.0
C1866 C 0.33454 0.58437 0.11131 0.0
C1867 C 0.37058 0.64357 0.04551 0.0
C1868 C 0.35002 0.64847 0.04312 0.0
C1869 C 0.37726 0.63703 0.05906 0.0
C1870 C 0.36359 0.63586 0.07057 0.0
C1871 C 0.34315 0.64162 0.0683 0.0
C1872 C 0.33646 0.6481 0.05468 0.0
C1873 C 0.37046 0.62745 0.08468 0.0
C1874 C 0.35959 0.61106 0.09053 0.0
C1875 C 0.38848 0.63428 0.09171 0.0
C1876 C 0.39972 0.65258 0.08675 0.0
C1877 C 0.38949 0.67121 0.08465 0.0
C1878 C 0.40007 0.68833 0.07977 0.0
C1879 C 0.42093 0.68704 0.07704 0.0
C1880 C 0.43127 0.66865 0.07921 0.0
C1881 C 0.42076 0.65148 0.08408 0.0
H1882 H 0.42908 0.70031 0.07325 0.0
H1883 H 0.32496 0.53529 0.12096 0.0
H1884 H 0.3836 0.92115 0.40568 0.0
H1885 H 0.36884 0.90398 0.38467 0.0
H1886 H 0.42724 0.90553 0.36377 0.0
H1887 H 0.44213 0.92278 0.38478 0.0
H1888 H 0.36415 0.91504 0.35758 0.0
H1889 H 0.43254 0.86248 0.34319 0.0
H1890 H 0.4608 0.8446 0.35555 0.0
H1891 H 0.42682 0.84391 0.39482 0.0
H1892 H 0.39822 0.86149 0.38264 0.0
H1893 H 0.35754 0.8815 0.28592 0.0
H1894 H 0.36751 0.89522 0.30942 0.0
H1895 H 0.36058 0.8355 0.32833 0.0
H1896 H 0.35115 0.82164 0.30452 0.0
H1897 H 0.39462 0.85198 0.33763 0.0
H1898 H 0.32582 0.87411 0.33458 0.0
H1899 H 0.29531 0.8898 0.32346 0.0
H1900 H 0.32608 0.94749 0.32157 0.0
H1901 H 0.35688 0.93207 0.3325 0.0
C1902 C 0.39327 0.91806 0.39655 0.0
C1903 C 0.41405 0.92338 0.39688 0.0
C1904 C 0.38482 0.90815 0.38458 0.0
C1905 C 0.39696 0.90327 0.37272 0.0
C1906 C 0.41765 0.90881 0.37292 0.0
C1907 C 0.42614 0.91868 0.38491 0.0
C1908 C 0.38791 0.8926 0.36008 0.0
C1909 C 0.37082 0.90125 0.35321 0.0
C1910 C 0.39626 0.87428 0.35462 0.0
C1911 C 0.41332 0.86353 0.36202 0.0
C1912 C 0.43106 0.85846 0.35444 0.0
C1913 C 0.44715 0.84837 0.36142 0.0
C1914 C 0.44564 0.84319 0.37598 0.0
C1915 C 0.42801 0.84801 0.38357 0.0
C1916 C 0.41186 0.85806 0.37663 0.0
C1917 C 0.35829 0.87132 0.2951 0.0
C1918 C 0.35431 0.85046 0.29345 0.0
C1919 C 0.36371 0.8792 0.30855 0.0
C1920 C 0.36469 0.86642 0.32068 0.0
C1921 C 0.36001 0.84561 0.31911 0.0
C1922 C 0.35461 0.83772 0.30558 0.0
C1923 C 0.37132 0.87482 0.33483 0.0
C1924 C 0.38794 0.86574 0.34199 0.0
C1925 C 0.36226 0.89249 0.34075 0.0
C1926 C 0.34371 0.90189 0.33429 0.0
C1927 C 0.32612 0.89011 0.33172 0.0
C1928 C 0.30877 0.89896 0.32545 0.0
C1929 C 0.30877 0.91962 0.32179 0.0
C1930 C 0.32611 0.93149 0.32441 0.0
C1931 C 0.34351 0.92271 0.33067 0.0
H1932 H 0.29533 0.92645 0.31694 0.0
H1933 H 0.45812 0.8354 0.38136 0.0
H1934 H 0.05763 0.91158 0.6361 0.0
H1935 H 0.07117 0.89663 0.61408 0.0
H1936 H 0.13163 0.91667 0.62609 0.0
H1937 H 0.11824 0.93148 0.64828 0.0
H1938 H 0.12329 0.92355 0.59755 0.0
H1939 H 0.11946 0.8678 0.63036 0.0
H1940 H 0.10338 0.84519 0.64815 0.0
H1941 H 0.05844 0.8272 0.61664 0.0
H1942 H 0.07407 0.84995 0.59871 0.0
H1943 H 0.16563 0.8634 0.54073 0.0
H1944 H 0.15941 0.87568 0.56528 0.0
H1945 H 0.09548 0.86169 0.56023 0.0
H1946 H 0.10148 0.8494 0.53589 0.0
H1947 H 0.1103 0.85054 0.58681 0.0
H1948 H 0.11198 0.90917 0.55509 0.0
H1949 H 0.12786 0.93187 0.53726 0.0
H1950 H 0.17709 0.94423 0.56689 0.0
H1951 H 0.16163 0.92133 0.58483 0.0
C1952 C 0.07383 0.91273 0.63411 0.0
C1953 C 0.08686 0.92261 0.64401 0.0
C1954 C 0.08154 0.9042 0.62151 0.0
C1955 C 0.10246 0.90528 0.61857 0.0
C1956 C 0.11545 0.91564 0.62818 0.0
C1957 C 0.10774 0.92417 0.64082 0.0
C1958 C 0.11066 0.89543 0.60546 0.0
C1959 C 0.1208 0.9075 0.59532 0.0
C1960 C 0.10724 0.87453 0.6025 0.0
C1961 C 0.09786 0.86071 0.61322 0.0
C1962 C 0.10606 0.85914 0.62725 0.0
C1963 C 0.09704 0.84628 0.63736 0.0
C1964 C 0.07988 0.8348 0.63354 0.0
C1965 C 0.07173 0.83612 0.61959 0.0
C1966 C 0.08068 0.84898 0.60945 0.0
C1967 C 0.1503 0.86271 0.54493 0.0
C1968 C 0.13403 0.85556 0.53631 0.0
C1969 C 0.14677 0.8698 0.55892 0.0
C1970 C 0.12695 0.86976 0.5645 0.0
C1971 C 0.11088 0.86187 0.55613 0.0
C1972 C 0.11435 0.85494 0.54217 0.0
C1973 C 0.1225 0.87875 0.57878 0.0
C1974 C 0.11307 0.86651 0.58915 0.0
C1975 C 0.12658 0.89947 0.58194 0.0
C1976 C 0.13579 0.91336 0.57122 0.0
C1977 C 0.12628 0.9166 0.55776 0.0
C1978 C 0.13519 0.92952 0.54764 0.0
C1979 C 0.15351 0.93944 0.55092 0.0
C1980 C 0.16292 0.93651 0.56435 0.0
C1981 C 0.15409 0.92356 0.5745 0.0
H1982 H 0.16038 0.94945 0.54308 0.0
H1983 H 0.07292 0.82485 0.64138 0.0
H1984 H 0.59661 0.41303 0.84643 0.0
H1985 H 0.60622 0.39317 0.86778 0.0
H1986 H 0.61306 0.44876 0.89224 0.0
H1987 H 0.60361 0.46866 0.87091 0.0
H1988 H 0.64497 0.4249 0.89638 0.0
H1989 H 0.57229 0.41614 0.89695 0.0
H1990 H 0.53841 0.40677 0.88726 0.0
H1991 H 0.55857 0.3451 0.88122 0.0
H1992 H 0.59268 0.35418 0.8907 0.0
H1993 H 0.64473 0.39034 0.96798 0.0
H1994 H 0.63637 0.40552 0.9446 0.0
H1995 H 0.63835 0.346 0.92483 0.0
H1996 H 0.64672 0.33072 0.94845 0.0
H1997 H 0.60395 0.36862 0.91683 0.0
H1998 H 0.67603 0.3777 0.91866 0.0
H1999 H 0.70898 0.3876 0.92962 0.0
H2000 H 0.68875 0.44973 0.9324 0.0
H2001 H 0.65555 0.44015 0.92166 0.0
C2002 C 0.59985 0.42098 0.85643 0.0
C2003 C 0.59939 0.4424 0.85701 0.0
C2004 C 0.60536 0.40962 0.86861 0.0
C2005 C 0.61029 0.41947 0.88163 0.0
C2006 C 0.60944 0.44084 0.88229 0.0
C2007 C 0.60405 0.45219 0.87011 0.0
C2008 C 0.6171 0.40766 0.89445 0.0
C2009 C 0.63585 0.41277 0.90095 0.0
C2010 C 0.60555 0.39137 0.90015 0.0
C2011 C 0.58512 0.38591 0.89434 0.0
C2012 C 0.56956 0.40064 0.89341 0.0
C2013 C 0.5503 0.39536 0.88799 0.0
C2014 C 0.54636 0.37537 0.88358 0.0
C2015 C 0.56166 0.36059 0.88461 0.0
C2016 C 0.58096 0.36579 0.89001 0.0
C2017 C 0.64328 0.38052 0.95863 0.0
C2018 C 0.64574 0.35938 0.95995 0.0
C2019 C 0.63871 0.3892 0.94529 0.0
C2020 C 0.63683 0.37688 0.93298 0.0
C2021 C 0.63971 0.35572 0.93422 0.0
C2022 C 0.64448 0.34704 0.94763 0.0
C2023 C 0.63142 0.38631 0.91897 0.0
C2024 C 0.61305 0.3807 0.9122 0.0
C2025 C 0.64318 0.40229 0.91312 0.0
C2026 C 0.66324 0.40817 0.91943 0.0
C2027 C 0.67855 0.39345 0.92169 0.0
C2028 C 0.69728 0.39901 0.92786 0.0
C2029 C 0.70094 0.41928 0.93172 0.0
C2030 C 0.68589 0.43404 0.9294 0.0
C2031 C 0.66712 0.42856 0.92326 0.0
H2032 H 0.71546 0.42355 0.9365 0.0
H2033 H 0.53144 0.37132 0.87939 0.0
H2034 H 0.5774 0.05632 0.12473 0.0
H2035 H 0.59263 0.07107 0.14653 0.0
H2036 H 0.63705 0.10244 0.12076 0.0
H2037 H 0.62183 0.0879 0.09892 0.0
H2038 H 0.65467 0.08578 0.14408 0.0
H2039 H 0.59715 0.12818 0.13446 0.0
H2040 H 0.56108 0.13613 0.1292 0.0
H2041 H 0.54371 0.10943 0.16949 0.0
H2042 H 0.57966 0.10104 0.17489 0.0
H2043 H 0.69012 0.14412 0.20471 0.0
H2044 H 0.67843 0.13168 0.18125 0.0
H2045 H 0.62299 0.10979 0.20067 0.0
H2046 H 0.63334 0.12545 0.22336 0.0
H2047 H 0.61225 0.12454 0.17843 0.0
H2048 H 0.66942 0.0737 0.18347 0.0
H2049 H 0.70574 0.06446 0.18745 0.0
H2050 H 0.72343 0.10757 0.15513 0.0
H2051 H 0.68731 0.11678 0.15096 0.0
C2052 C 0.59036 0.06642 0.12369 0.0
C2053 C 0.59838 0.07093 0.11007 0.0
C2054 C 0.59905 0.07484 0.13616 0.0
C2055 C 0.61583 0.08807 0.13525 0.0
C2056 C 0.62412 0.09227 0.12171 0.0
C2057 C 0.61546 0.08384 0.10924 0.0
C2058 C 0.62472 0.09747 0.14845 0.0
C2059 C 0.64544 0.09439 0.15157 0.0
C2060 C 0.61272 0.10872 0.1582 0.0
C2061 C 0.59109 0.11383 0.15502 0.0
C2062 C 0.58562 0.12386 0.14215 0.0
C2063 C 0.5652 0.12847 0.13915 0.0
C2064 C 0.5501 0.12325 0.14899 0.0
C2065 C 0.55541 0.11345 0.16187 0.0
C2066 C 0.57581 0.10878 0.16491 0.0
C2067 C 0.67556 0.13638 0.20393 0.0
C2068 C 0.66311 0.13462 0.21607 0.0
C2069 C 0.66898 0.12892 0.19051 0.0
C2070 C 0.65005 0.11893 0.18905 0.0
C2071 C 0.63773 0.11718 0.20132 0.0
C2072 C 0.64389 0.12557 0.21449 0.0
C2073 C 0.64211 0.11177 0.17471 0.0
C2074 C 0.62154 0.11567 0.17114 0.0
C2075 C 0.65426 0.1013 0.16453 0.0
C2076 C 0.67589 0.09621 0.16723 0.0
C2077 C 0.68119 0.08135 0.17745 0.0
C2078 C 0.70166 0.07606 0.17966 0.0
C2079 C 0.71688 0.08561 0.17169 0.0
C2080 C 0.71165 0.10028 0.16137 0.0
C2081 C 0.6912 0.10547 0.15904 0.0
H2082 H 0.73271 0.08152 0.17343 0.0
H2083 H 0.5343 0.12684 0.14665 0.0
H2084 H 0.92023 0.09246 0.35795 0.0
H2085 H 0.90211 0.10482 0.37894 0.0
H2086 H 0.94895 0.14985 0.38647 0.0
H2087 H 0.96779 0.13686 0.36574 0.0
H2088 H 0.9383 0.13275 0.41111 0.0
H2089 H 0.9023 0.16358 0.37223 0.0
H2090 H 0.8845 0.16552 0.34873 0.0
H2091 H 0.83844 0.12455 0.36391 0.0
H2092 H 0.85613 0.12211 0.38744 0.0
H2093 H 0.87395 0.17366 0.4659 0.0
H2094 H 0.89125 0.17404 0.44254 0.0
H2095 H 0.86118 0.11792 0.43075 0.0
H2096 H 0.84428 0.1172 0.45408 0.0
H2097 H 0.86428 0.1481 0.40768 0.0
H2098 H 0.905 0.11268 0.44434 0.0
H2099 H 0.92241 0.11109 0.46799 0.0
H2100 H 0.95926 0.16263 0.45664 0.0
H2101 H 0.94186 0.16463 0.43293 0.0
C2102 C 0.9269 0.10479 0.36416 0.0
C2103 C 0.94554 0.1136 0.36015 0.0
C2104 C 0.91632 0.11207 0.37605 0.0
C2105 C 0.92394 0.12855 0.38412 0.0
C2106 C 0.94268 0.13724 0.38032 0.0
C2107 C 0.95337 0.12987 0.36842 0.0
C2108 C 0.91245 0.13618 0.39673 0.0
C2109 C 0.92224 0.13659 0.41027 0.0
C2110 C 0.89143 0.14108 0.39571 0.0
C2111 C 0.88063 0.14257 0.38159 0.0
C2112 C 0.88845 0.15487 0.37053 0.0
C2113 C 0.87837 0.15607 0.3572 0.0
C2114 C 0.86037 0.14514 0.35482 0.0
C2115 C 0.85239 0.13301 0.36577 0.0
C2116 C 0.86242 0.13173 0.37912 0.0
C2117 C 0.87071 0.16168 0.45817 0.0
C2118 C 0.85789 0.14533 0.46179 0.0
C2119 C 0.88061 0.16189 0.44488 0.0
C2120 C 0.8775 0.14596 0.43499 0.0
C2121 C 0.8637 0.13037 0.43823 0.0
C2122 C 0.85415 0.12993 0.45158 0.0
C2123 C 0.89007 0.14416 0.42191 0.0
C2124 C 0.88046 0.14477 0.40836 0.0
C2125 C 0.91126 0.14036 0.42287 0.0
C2126 C 0.922 0.13894 0.43696 0.0
C2127 C 0.91673 0.12375 0.44694 0.0
C2128 C 0.9266 0.12277 0.46034 0.0
C2129 C 0.94189 0.1368 0.46385 0.0
C2130 C 0.94739 0.1518 0.45392 0.0
C2131 C 0.93754 0.15285 0.44049 0.0
H2132 H 0.9495 0.13603 0.47425 0.0
H2133 H 0.85258 0.14609 0.34449 0.0
H2134 H 0.9639 0.39897 0.62282 0.0
H2135 H 0.94506 0.38682 0.64364 0.0
H2136 H 0.88851 0.40556 0.62354 0.0
H2137 H 0.90717 0.41718 0.60235 0.0
H2138 H 0.8924 0.41615 0.65354 0.0
H2139 H 0.89696 0.35806 0.62305 0.0
H2140 H 0.91388 0.33339 0.6071 0.0
H2141 H 0.9535 0.315 0.64189 0.0
H2142 H 0.93704 0.33981 0.65801 0.0
H2143 H 0.84569 0.36286 0.71304 0.0
H2144 H 0.85203 0.37296 0.68795 0.0
H2145 H 0.91553 0.35724 0.69335 0.0
H2146 H 0.90943 0.34715 0.71808 0.0
H2147 H 0.90014 0.34359 0.66775 0.0
H2148 H 0.89976 0.40591 0.69646 0.0
H2149 H 0.88371 0.43106 0.71251 0.0
H2150 H 0.83637 0.44143 0.68101 0.0
H2151 H 0.85202 0.4161 0.66484 0.0
C2152 C 0.94745 0.40039 0.62273 0.0
C2153 C 0.93707 0.4089 0.61082 0.0
C2154 C 0.93671 0.39353 0.63468 0.0
C2155 C 0.9154 0.39511 0.63503 0.0
C2156 C 0.90497 0.40421 0.62344 0.0
C2157 C 0.9157 0.41094 0.61138 0.0
C2158 C 0.90422 0.38677 0.64749 0.0
C2159 C 0.89366 0.4002 0.6565 0.0
C2160 C 0.90595 0.36598 0.65133 0.0
C2161 C 0.91583 0.3509 0.64172 0.0
C2162 C 0.90938 0.34886 0.62728 0.0
C2163 C 0.91887 0.33484 0.61821 0.0
C2164 C 0.93477 0.32266 0.62347 0.0
C2165 C 0.94118 0.32445 0.63783 0.0
C2166 C 0.93175 0.33848 0.64694 0.0
C2167 C 0.86093 0.3614 0.7088 0.0
C2168 C 0.87707 0.35436 0.7176 0.0
C2169 C 0.86454 0.36722 0.6945 0.0
C2170 C 0.88428 0.36592 0.68883 0.0
C2171 C 0.90018 0.35832 0.69749 0.0
C2172 C 0.89666 0.35269 0.71169 0.0
C2173 C 0.88903 0.37312 0.67411 0.0
C2174 C 0.8984 0.35944 0.66462 0.0
C2175 C 0.88621 0.39366 0.66986 0.0
C2176 C 0.8769 0.40894 0.67954 0.0
C2177 C 0.88584 0.41343 0.69301 0.0
C2178 C 0.87683 0.42774 0.70212 0.0
C2179 C 0.85899 0.43778 0.69781 0.0
C2180 C 0.85016 0.4336 0.68435 0.0
C2181 C 0.85909 0.41927 0.67521 0.0
H2182 H 0.85204 0.44886 0.70487 0.0
H2183 H 0.94211 0.31181 0.61643 0.0
H2184 H 0.5457 0.13341 0.39089 0.0
H2185 H 0.56453 0.14637 0.37026 0.0
H2186 H 0.60725 0.09661 0.37437 0.0
H2187 H 0.5894 0.08437 0.39551 0.0
H2188 H 0.62723 0.12962 0.36902 0.0
H2189 H 0.56719 0.09789 0.34848 0.0
H2190 H 0.53027 0.09239 0.34496 0.0
H2191 H 0.52299 0.15458 0.33138 0.0
H2192 H 0.55986 0.16051 0.33499 0.0
H2193 H 0.66338 0.11458 0.2983 0.0
H2194 H 0.64707 0.1133 0.3218 0.0
H2195 H 0.6207 0.17264 0.31429 0.0
H2196 H 0.63732 0.17419 0.29071 0.0
H2197 H 0.59235 0.14122 0.32202 0.0
H2198 H 0.65475 0.17015 0.33919 0.0
H2199 H 0.69208 0.17332 0.34166 0.0
H2200 H 0.69533 0.11369 0.36064 0.0
H2201 H 0.65805 0.11002 0.35808 0.0
C2202 C 0.55922 0.12533 0.38751 0.0
C2203 C 0.56588 0.10771 0.39485 0.0
C2204 C 0.56987 0.13266 0.3756 0.0
C2205 C 0.58719 0.12234 0.37061 0.0
C2206 C 0.59392 0.10484 0.37797 0.0
C2207 C 0.58347 0.09767 0.38996 0.0
C2208 C 0.59835 0.1295 0.35769 0.0
C2209 C 0.61959 0.13204 0.35873 0.0
C2210 C 0.58836 0.13325 0.34433 0.0
C2211 C 0.56621 0.12971 0.34218 0.0
C2212 C 0.55768 0.11044 0.34486 0.0
C2213 C 0.53677 0.10723 0.34282 0.0
C2214 C 0.52428 0.12314 0.338 0.0
C2215 C 0.53268 0.14228 0.33515 0.0
C2216 C 0.55357 0.14557 0.33719 0.0
C2217 C 0.65439 0.12752 0.30174 0.0
C2218 C 0.6516 0.14448 0.29267 0.0
C2219 C 0.64514 0.12679 0.31519 0.0
C2220 C 0.63273 0.14289 0.31978 0.0
C2221 C 0.63029 0.16011 0.31093 0.0
C2222 C 0.63987 0.16101 0.29753 0.0
C2223 C 0.62118 0.14078 0.33331 0.0
C2224 C 0.59989 0.13917 0.33239 0.0
C2225 C 0.63115 0.13757 0.34671 0.0
C2226 C 0.65359 0.13976 0.34835 0.0
C2227 C 0.66343 0.15764 0.34379 0.0
C2228 C 0.68459 0.15954 0.34522 0.0
C2229 C 0.69607 0.1437 0.35127 0.0
C2230 C 0.68642 0.12595 0.35594 0.0
C2231 C 0.66527 0.12396 0.35452 0.0
H2232 H 0.71245 0.1452 0.35237 0.0
H2233 H 0.5081 0.12063 0.33642 0.0
H2234 H 0.92468 0.08637 0.63987 0.0
H2235 H 0.90962 0.09789 0.61737 0.0
H2236 H 0.8552 0.06332 0.62622 0.0
H2237 H 0.87124 0.04931 0.64759 0.0
H2238 H 0.86028 0.05923 0.60104 0.0
H2239 H 0.8606 0.11947 0.629 0.0
H2240 H 0.87431 0.14675 0.64461 0.0
H2241 H 0.91547 0.16478 0.61129 0.0
H2242 H 0.9022 0.13743 0.59554 0.0
H2243 H 0.8115 0.13105 0.54576 0.0
H2244 H 0.81867 0.11517 0.56922 0.0
H2245 H 0.88034 0.10301 0.55618 0.0
H2246 H 0.87364 0.12036 0.5332 0.0
H2247 H 0.86622 0.13063 0.58424 0.0
H2248 H 0.86536 0.04277 0.57533 0.0
H2249 H 0.84346 0.01448 0.56697 0.0
H2250 H 0.79108 0.05372 0.56816 0.0
H2251 H 0.81249 0.08187 0.57714 0.0
C2252 C 0.90971 0.08071 0.63697 0.0
C2253 C 0.89937 0.06671 0.64581 0.0
C2254 C 0.90083 0.08783 0.62415 0.0
C2255 C 0.88098 0.08195 0.62012 0.0
C2256 C 0.87051 0.06822 0.62899 0.0
C2257 C 0.87968 0.06044 0.64148 0.0
C2258 C 0.87148 0.08921 0.60634 0.0
C2259 C 0.86151 0.07492 0.59746 0.0
C2260 C 0.87247 0.10979 0.60172 0.0
C2261 C 0.88052 0.12627 0.61114 0.0
C2262 C 0.87268 0.12916 0.62504 0.0
C2263 C 0.88035 0.14465 0.63391 0.0
C2264 C 0.89578 0.15746 0.62896 0.0
C2265 C 0.90353 0.15484 0.61512 0.0
C2266 C 0.89592 0.13935 0.60621 0.0
C2267 C 0.82642 0.12449 0.5478 0.0
C2268 C 0.8418 0.1261 0.53744 0.0
C2269 C 0.83041 0.11516 0.56111 0.0
C2270 C 0.84975 0.10698 0.56419 0.0
C2271 C 0.86508 0.10851 0.55381 0.0
C2272 C 0.86123 0.11829 0.54066 0.0
C2273 C 0.85535 0.10056 0.57903 0.0
C2274 C 0.86491 0.11501 0.58797 0.0
C2275 C 0.85293 0.08038 0.58408 0.0
C2276 C 0.84071 0.06473 0.57637 0.0
C2277 C 0.84923 0.04546 0.57356 0.0
C2278 C 0.83683 0.02931 0.56897 0.0
C2279 C 0.81588 0.03229 0.56703 0.0
C2280 C 0.80732 0.05145 0.56958 0.0
C2281 C 0.81963 0.06756 0.57435 0.0
H2282 H 0.8063 0.01979 0.56348 0.0
H2283 H 0.90171 0.16944 0.63584 0.0
H2284 H 0.93717 0.43475 0.88934 0.0
H2285 H 0.92299 0.41958 0.86735 0.0
H2286 H 0.89279 0.3737 0.89269 0.0
H2287 H 0.90703 0.38876 0.91472 0.0
H2288 H 0.90997 0.35672 0.87029 0.0
H2289 H 0.86582 0.41302 0.8773 0.0
H2290 H 0.85619 0.44876 0.88182 0.0
H2291 H 0.88493 0.46704 0.84254 0.0
H2292 H 0.89502 0.43144 0.83788 0.0
H2293 H 0.86005 0.32081 0.8057 0.0
H2294 H 0.8683 0.33246 0.83005 0.0
H2295 H 0.89318 0.38807 0.81256 0.0
H2296 H 0.8818 0.37767 0.7886 0.0
H2297 H 0.87382 0.39822 0.83339 0.0
H2298 H 0.9293 0.34256 0.83501 0.0
H2299 H 0.93977 0.30646 0.8321 0.0
H2300 H 0.88777 0.28722 0.85627 0.0
H2301 H 0.87726 0.32315 0.85931 0.0
C2302 C 0.9274 0.42152 0.89023 0.0
C2303 C 0.92323 0.41296 0.90376 0.0
C2304 C 0.91926 0.41288 0.87766 0.0
C2305 C 0.90657 0.39567 0.87838 0.0
C2306 C 0.90252 0.38699 0.89187 0.0
C2307 C 0.91074 0.39556 0.90444 0.0
C2308 C 0.89806 0.38643 0.865 0.0
C2309 C 0.90186 0.36576 0.86228 0.0
C2310 C 0.88739 0.39811 0.85456 0.0
C2311 C 0.88131 0.41956 0.8573 0.0
C2312 C 0.87023 0.42468 0.86968 0.0
C2313 C 0.86466 0.44492 0.87226 0.0
C2314 C 0.86998 0.46017 0.86249 0.0
C2315 C 0.88084 0.45521 0.8501 0.0
C2316 C 0.88646 0.435 0.84748 0.0
C2317 C 0.86756 0.33539 0.80713 0.0
C2318 C 0.87143 0.34788 0.79518 0.0
C2319 C 0.87264 0.34193 0.82108 0.0
C2320 C 0.88223 0.36088 0.82335 0.0
C2321 C 0.88604 0.37329 0.81129 0.0
C2322 C 0.88008 0.36713 0.79747 0.0
C2323 C 0.88694 0.36874 0.83816 0.0
C2324 C 0.88206 0.38915 0.84131 0.0
C2325 C 0.89642 0.35678 0.84907 0.0
C2326 C 0.90222 0.3353 0.8469 0.0
C2327 C 0.91999 0.33049 0.83939 0.0
C2328 C 0.92599 0.31015 0.83784 0.0
C2329 C 0.91428 0.29455 0.84381 0.0
C2330 C 0.89672 0.29929 0.85153 0.0
C2331 C 0.8908 0.31962 0.85321 0.0
H2332 H 0.91892 0.27882 0.84258 0.0
H2333 H 0.86565 0.47583 0.8645 0.0
H2334 H 0.55398 0.418 0.13689 0.0
H2335 H 0.56665 0.40453 0.11414 0.0
H2336 H 0.62827 0.41886 0.12732 0.0
H2337 H 0.61569 0.43232 0.15018 0.0
H2338 H 0.62152 0.42871 0.09935 0.0
H2339 H 0.61164 0.37048 0.12917 0.0
H2340 H 0.5931 0.34764 0.14555 0.0
H2341 H 0.54782 0.33675 0.11267 0.0
H2342 H 0.56592 0.35979 0.09615 0.0
H2343 H 0.66226 0.36839 0.04183 0.0
H2344 H 0.65509 0.38024 0.06633 0.0
H2345 H 0.59061 0.37338 0.05813 0.0
H2346 H 0.59754 0.3616 0.03377 0.0
H2347 H 0.60258 0.35834 0.08482 0.0
H2348 H 0.61147 0.41906 0.05591 0.0
H2349 H 0.63041 0.44174 0.03963 0.0
H2350 H 0.6785 0.44728 0.07118 0.0
H2351 H 0.65996 0.42436 0.08756 0.0
C2352 C 0.57023 0.41824 0.13497 0.0
C2353 C 0.58384 0.42609 0.14538 0.0
C2354 C 0.57745 0.41055 0.12196 0.0
C2355 C 0.59844 0.41038 0.11914 0.0
C2356 C 0.61202 0.41879 0.1293 0.0
C2357 C 0.6048 0.42655 0.14233 0.0
C2358 C 0.6061 0.40116 0.10564 0.0
C2359 C 0.61769 0.4132 0.09629 0.0
C2360 C 0.60095 0.38098 0.10159 0.0
C2361 C 0.59006 0.36701 0.11146 0.0
C2362 C 0.59764 0.36334 0.12546 0.0
C2363 C 0.58722 0.35034 0.13477 0.0
C2364 C 0.56927 0.34078 0.13016 0.0
C2365 C 0.56172 0.34418 0.11622 0.0
C2366 C 0.57206 0.3572 0.10688 0.0
C2367 C 0.64657 0.36925 0.04529 0.0
C2368 C 0.63047 0.36415 0.03581 0.0
C2369 C 0.64251 0.37609 0.05926 0.0
C2370 C 0.62231 0.37781 0.06398 0.0
C2371 C 0.6063 0.37216 0.05469 0.0
C2372 C 0.61031 0.36552 0.04073 0.0
C2373 C 0.61761 0.38601 0.07844 0.0
C2374 C 0.6066 0.37376 0.08798 0.0
C2375 C 0.62338 0.40593 0.08268 0.0
C2376 C 0.63445 0.41981 0.07289 0.0
C2377 C 0.62617 0.42498 0.05932 0.0
C2378 C 0.63681 0.43789 0.05009 0.0
C2379 C 0.65567 0.44589 0.05435 0.0
C2380 C 0.6639 0.44104 0.06788 0.0
C2381 C 0.65333 0.42809 0.07715 0.0
H2382 H 0.66389 0.4559 0.04719 0.0
H2383 H 0.56123 0.33072 0.13738 0.0
loop_
_geom_bond_atom_site_label_1
_geom_bond_atom_site_label_2
_geom_bond_distance
_geom_bond_site_symmetry_2
_ccdc_geom_bond_type
H0 C27 0.929 . S
N1 C26 1.433 . S
N1 C32 1.435 . S
N1 C38 1.423 . S
H2 C28 0.930 . S
H3 C31 0.931 . S
H4 C30 0.929 . S
H5 C33 0.930 . S
H6 C34 0.932 . S
H7 C37 0.929 . S
H8 C36 0.931 . S
H9 C39 0.929 . S
H10 C43 0.932 . S
H11 C40 0.931 . S
H12 C42 0.929 . S
H13 C45 0.929 . S
H14 C46 0.930 . S
H15 C48 0.929 . S
H16 C49 0.931 . S
H17 C51 0.930 . S
H18 C52 0.932 . S
H19 C54 0.931 . S
H20 C55 0.929 . S
H21 C57 0.929 . S
H22 C58 0.932 . S
H23 C60 0.929 . S
N24 C44 1.433 . S
N24 C50 1.435 . S
N24 C56 1.423 . S
H25 C61 0.932 . S
C26 N1 1.433 . S
C26 C27 1.363 . S
C26 C31 1.370 . S
C27 H0 0.929 . S
C27 C26 1.363 . S
C27 C28 1.385 . S
C28 H2 0.930 . S
C28 C27 1.385 . S
C28 C29 1.357 . S
C29 C28 1.357 . S
C29 C30 1.406 . S
C30 H4 0.929 . S
C30 C29 1.406 . S
C30 C31 1.391 . S
C31 H3 0.931 . S
C31 C26 1.370 . S
C31 C30 1.391 . S
C32 N1 1.435 . S
C32 C33 1.358 . S
C32 C37 1.371 . S
C33 H5 0.930 . S
C33 C32 1.358 . S
C33 C34 1.405 . S
C34 H6 0.932 . S
C34 C33 1.405 . S
C34 C35 1.383 . S
C35 C34 1.383 . S
C35 C36 1.393 . S
C36 H8 0.931 . S
C36 C35 1.393 . S
C36 C37 1.382 . S
C37 H7 0.929 . S
C37 C32 1.371 . S
C37 C36 1.382 . S
C38 N1 1.423 . S
C38 C39 1.362 . S
C38 C43 1.388 . S
C39 H9 0.929 . S
C39 C38 1.362 . S
C39 C40 1.376 1_565 S
C40 H11 0.931 . S
C40 C39 1.376 1_545 S
C40 C41 1.396 . S
C41 C40 1.396 . S
C41 C42 1.348 1_545 S
C41 C59 1.472 . S
C42 H12 0.929 . S
C42 C41 1.348 1_565 S
C42 C43 1.443 . S
C43 H10 0.932 . S
C43 C38 1.388 . S
C43 C42 1.443 . S
C44 N24 1.433 . S
C44 C45 1.363 . S
C44 C49 1.370 . S
C45 H13 0.929 . S
C45 C44 1.363 . S
C45 C46 1.385 . S
C46 H14 0.930 . S
C46 C45 1.385 . S
C46 C47 1.357 . S
C47 C46 1.357 . S
C47 C48 1.406 . S
C48 H15 0.929 . S
C48 C47 1.406 . S
C48 C49 1.391 . S
C49 H16 0.931 . S
C49 C44 1.370 . S
C49 C48 1.391 . S
C50 N24 1.435 . S
C50 C51 1.358 . S
C50 C55 1.371 . S
C51 H17 0.930 . S
C51 C50 1.358 . S
C51 C52 1.405 . S
C52 H18 0.932 . S
C52 C51 1.405 . S
C52 C53 1.383 . S
C53 C52 1.383 . S
C53 C54 1.393 . S
C54 H19 0.931 . S
C54 C53 1.393 . S
C54 C55 1.382 . S
C55 H20 0.929 . S
C55 C50 1.371 . S
C55 C54 1.382 . S
C56 N24 1.423 . S
C56 C57 1.362 . S
C56 C61 1.388 . S
C57 H21 0.929 . S
C57 C56 1.362 . S
C57 C58 1.375 1_655 S
C58 H22 0.932 . S
C58 C57 1.375 1_455 S
C58 C59 1.396 . S
C59 C41 1.472 . S
C59 C58 1.396 . S
C59 C60 1.348 1_455 S
C60 H23 0.929 . S
C60 C59 1.348 1_655 S
C60 C61 1.443 . S
C61 H25 0.932 . S
C61 C56 1.388 . S
C61 C60 1.443 . S
H62 C89 0.929 . S
N63 C88 1.433 . S
N63 C94 1.435 . S
N63 C100 1.423 . S
H64 C90 0.930 . S
H65 C93 0.931 . S
H66 C92 0.929 . S
H67 C95 0.930 . S
H68 C96 0.932 . S
H69 C99 0.929 . S
H70 C98 0.931 . S
H71 C101 0.929 . S
H72 C105 0.932 . S
H73 C102 0.931 . S
H74 C104 0.929 . S
H75 C107 0.929 . S
H76 C108 0.930 . S
H77 C110 0.929 . S
H78 C111 0.931 . S
H79 C113 0.930 . S
H80 C114 0.932 . S
H81 C116 0.931 . S
H82 C117 0.929 . S
H83 C119 0.929 . S
H84 C120 0.931 . S
H85 C122 0.929 . S
N86 C106 1.433 . S
N86 C112 1.435 . S
N86 C118 1.423 . S
H87 C123 0.932 . S
C88 N63 1.433 . S
C88 C89 1.363 . S
C88 C93 1.370 . S
C89 H62 0.929 . S
C89 C88 1.363 . S
C89 C90 1.385 . S
C90 H64 0.930 . S
C90 C89 1.385 . S
C90 C91 1.357 . S
C91 C90 1.357 . S
C91 C92 1.406 . S
C92 H66 0.929 . S
C92 C91 1.406 . S
C92 C93 1.391 . S
C93 H65 0.931 . S
C93 C88 1.370 . S
C93 C92 1.391 . S
C94 N63 1.435 . S
C94 C95 1.358 . S
C94 C99 1.371 . S
C95 H67 0.930 . S
C95 C94 1.358 . S
C95 C96 1.405 . S
C96 H68 0.932 . S
C96 C95 1.405 . S
C96 C97 1.383 . S
C97 C96 1.383 . S
C97 C98 1.393 . S
C98 H70 0.931 . S
C98 C97 1.393 . S
C98 C99 1.382 . S
C99 H69 0.929 . S
C99 C94 1.371 . S
C99 C98 1.382 . S
C100 N63 1.423 . S
C100 C101 1.362 . S
C100 C105 1.388 . S
C101 H71 0.929 . S
C101 C100 1.362 . S
C101 C102 1.376 1_655 S
C102 H73 0.931 . S
C102 C101 1.376 1_455 S
C102 C103 1.396 . S
C103 C102 1.396 . S
C103 C104 1.348 1_455 S
C103 C121 1.472 . S
C104 H74 0.929 . S
C104 C103 1.348 1_655 S
C104 C105 1.443 . S
C105 H72 0.932 . S
C105 C100 1.388 . S
C105 C104 1.443 . S
C106 N86 1.433 . S
C106 C107 1.363 . S
C106 C111 1.370 . S
C107 H75 0.929 . S
C107 C106 1.363 . S
C107 C108 1.385 . S
C108 H76 0.930 . S
C108 C107 1.385 . S
C108 C109 1.357 . S
C109 C108 1.357 . S
C109 C110 1.406 . S
C110 H77 0.929 . S
C110 C109 1.406 . S
C110 C111 1.391 . S
C111 H78 0.931 . S
C111 C106 1.370 . S
C111 C110 1.391 . S
C112 N86 1.435 . S
C112 C113 1.358 . S
C112 C117 1.371 . S
C113 H79 0.930 . S
C113 C112 1.358 . S
C113 C114 1.405 . S
C114 H80 0.932 . S
C114 C113 1.405 . S
C114 C115 1.383 . S
C115 C114 1.383 . S
C115 C116 1.393 . S
C116 H81 0.931 . S
C116 C115 1.393 . S
C116 C117 1.382 . S
C117 H82 0.929 . S
C117 C112 1.371 . S
C117 C116 1.382 . S
C118 N86 1.423 . S
C118 C119 1.362 . S
C118 C123 1.388 . S
C119 H83 0.929 . S
C119 C118 1.362 . S
C119 C120 1.376 . S
C120 H84 0.931 . S
C120 C119 1.376 . S
C120 C121 1.396 . S
C121 C103 1.472 . S
C121 C120 1.396 . S
C121 C122 1.348 . S
C122 H85 0.929 . S
C122 C121 1.348 . S
C122 C123 1.443 . S
C123 H87 0.932 . S
C123 C118 1.388 . S
C123 C122 1.443 . S
H124 C151 0.929 . S
N125 C150 1.433 . S
N125 C156 1.435 . S
N125 C162 1.423 . S
H126 C152 0.930 . S
H127 C155 0.931 . S
H128 C154 0.929 . S
H129 C157 0.930 . S
H130 C158 0.932 . S
H131 C161 0.929 . S
H132 C160 0.931 . S
H133 C163 0.929 . S
H134 C167 0.932 . S
H135 C164 0.931 . S
H136 C166 0.929 . S
H137 C169 0.929 . S
H138 C170 0.930 . S
H139 C172 0.929 . S
H140 C173 0.931 . S
H141 C175 0.930 . S
H142 C176 0.932 . S
H143 C178 0.931 . S
H144 C179 0.929 . S
H145 C181 0.929 . S
H146 C182 0.931 . S
H147 C184 0.929 . S
N148 C168 1.433 . S
N148 C174 1.435 . S
N148 C180 1.423 . S
H149 C185 0.932 . S
C150 N125 1.433 . S
C150 C151 1.363 . S
C150 C155 1.370 . S
C151 H124 0.929 . S
C151 C150 1.363 . S
C151 C152 1.385 . S
C152 H126 0.930 . S
C152 C151 1.385 . S
C152 C153 1.357 . S
C153 C152 1.357 . S
C153 C154 1.406 . S
C154 H128 0.929 . S
C154 C153 1.406 . S
C154 C155 1.391 . S
C155 H127 0.931 . S
C155 C150 1.370 . S
C155 C154 1.391 . S
C156 N125 1.435 . S
C156 C157 1.358 . S
C156 C161 1.371 . S
C157 H129 0.930 . S
C157 C156 1.358 . S
C157 C158 1.405 . S
C158 H130 0.932 . S
C158 C157 1.405 . S
C158 C159 1.383 . S
C159 C158 1.383 . S
C159 C160 1.393 . S
C160 H132 0.931 . S
C160 C159 1.393 . S
C160 C161 1.382 . S
C161 H131 0.929 . S
C161 C156 1.371 . S
C161 C160 1.382 . S
C162 N125 1.423 . S
C162 C163 1.362 . S
C162 C167 1.388 . S
C163 H133 0.929 . S
C163 C162 1.362 . S
C163 C164 1.376 . S
C164 H135 0.931 . S
C164 C163 1.376 . S
C164 C165 1.396 . S
C165 C164 1.396 . S
C165 C166 1.348 . S
C165 C183 1.472 . S
C166 H136 0.929 . S
C166 C165 1.348 . S
C166 C167 1.443 . S
C167 H134 0.932 . S
C167 C162 1.388 . S
C167 C166 1.443 . S
C168 N148 1.433 . S
C168 C169 1.363 . S
C168 C173 1.370 . S
C169 H137 0.929 . S
C169 C168 1.363 . S
C169 C170 1.385 . S
C170 H138 0.930 . S
C170 C169 1.385 . S
C170 C171 1.357 . S
C171 C170 1.357 . S
C171 C172 1.406 . S
C172 H139 0.929 . S
C172 C171 1.406 . S
C172 C173 1.391 . S
C173 H140 0.931 . S
C173 C168 1.370 . S
C173 C172 1.391 . S
C174 N148 1.435 . S
C174 C175 1.358 . S
C174 C179 1.371 . S
C175 H141 0.930 . S
C175 C174 1.358 . S
C175 C176 1.405 . S
C176 H142 0.932 . S
C176 C175 1.405 . S
C176 C177 1.383 . S
C177 C176 1.383 . S
C177 C178 1.393 . S
C178 H143 0.931 . S
C178 C177 1.393 . S
C178 C179 1.382 . S
C179 H144 0.929 . S
C179 C174 1.371 . S
C179 C178 1.382 . S
C180 N148 1.423 . S
C180 C181 1.362 . S
C180 C185 1.388 . S
C181 H145 0.929 . S
C181 C180 1.362 . S
C181 C182 1.376 . S
C182 H146 0.931 . S
C182 C181 1.376 . S
C182 C183 1.396 . S
C183 C165 1.472 . S
C183 C182 1.396 . S
C183 C184 1.348 . S
C184 H147 0.929 . S
C184 C183 1.348 . S
C184 C185 1.443 . S
C185 H149 0.932 . S
C185 C180 1.388 . S
C185 C184 1.443 . S
H186 C213 0.929 . S
N187 C212 1.433 . S
N187 C218 1.435 . S
N187 C224 1.423 . S
H188 C214 0.930 . S
H189 C217 0.931 . S
H190 C216 0.929 . S
H191 C219 0.930 . S
H192 C220 0.932 . S
H193 C223 0.929 . S
H194 C222 0.931 . S
H195 C225 0.929 . S
H196 C229 0.932 . S
H197 C226 0.931 . S
H198 C228 0.929 . S
H199 C231 0.929 . S
H200 C232 0.930 . S
H201 C234 0.929 . S
H202 C235 0.931 . S
H203 C237 0.930 . S
H204 C238 0.932 . S
H205 C240 0.931 . S
H206 C241 0.929 . S
H207 C243 0.929 . S
H208 C244 0.931 1_565 S
H209 C246 0.929 . S
N210 C230 1.433 . S
N210 C236 1.435 . S
N210 C242 1.423 . S
H211 C247 0.932 . S
C212 N187 1.433 . S
C212 C213 1.363 . S
C212 C217 1.370 . S
C213 H186 0.929 . S
C213 C212 1.363 . S
C213 C214 1.385 . S
C214 H188 0.930 . S
C214 C213 1.385 . S
C214 C215 1.357 . S
C215 C214 1.357 . S
C215 C216 1.406 . S
C216 H190 0.929 . S
C216 C215 1.406 . S
C216 C217 1.391 . S
C217 H189 0.931 . S
C217 C212 1.370 . S
C217 C216 1.391 . S
C218 N187 1.435 . S
C218 C219 1.358 . S
C218 C223 1.371 . S
C219 H191 0.930 . S
C219 C218 1.358 . S
C219 C220 1.405 . S
C220 H192 0.932 . S
C220 C219 1.405 . S
C220 C221 1.383 . S
C221 C220 1.383 . S
C221 C222 1.393 . S
C222 H194 0.931 . S
C222 C221 1.393 . S
C222 C223 1.382 . S
C223 H193 0.929 . S
C223 C218 1.371 . S
C223 C222 1.382 . S
C224 N187 1.423 . S
C224 C225 1.362 . S
C224 C229 1.388 . S
C225 H195 0.929 . S
C225 C224 1.362 . S
C225 C226 1.376 . S
C226 H197 0.931 . S
C226 C225 1.376 . S
C226 C227 1.396 . S
C227 C226 1.396 . S
C227 C228 1.348 . S
C227 C245 1.472 1_565 S
C228 H198 0.929 . S
C228 C227 1.348 . S
C228 C229 1.443 . S
C229 H196 0.932 . S
C229 C224 1.388 . S
C229 C228 1.443 . S
C230 N210 1.433 . S
C230 C231 1.363 . S
C230 C235 1.370 . S
C231 H199 0.929 . S
C231 C230 1.363 . S
C231 C232 1.385 . S
C232 H200 0.930 . S
C232 C231 1.385 . S
C232 C233 1.357 . S
C233 C232 1.357 . S
C233 C234 1.406 . S
C234 H201 0.929 . S
C234 C233 1.406 . S
C234 C235 1.391 . S
C235 H202 0.931 . S
C235 C230 1.370 . S
C235 C234 1.391 . S
C236 N210 1.435 . S
C236 C237 1.358 . S
C236 C241 1.371 . S
C237 H203 0.930 . S
C237 C236 1.358 . S
C237 C238 1.405 . S
C238 H204 0.932 . S
C238 C237 1.405 . S
C238 C239 1.383 . S
C239 C238 1.383 . S
C239 C240 1.393 . S
C240 H205 0.931 . S
C240 C239 1.393 . S
C240 C241 1.382 . S
C241 H206 0.929 . S
C241 C236 1.371 . S
C241 C240 1.382 . S
C242 N210 1.423 . S
C242 C243 1.362 . S
C242 C247 1.388 . S
C243 H207 0.929 . S
C243 C242 1.362 . S
C243 C244 1.376 . S
C244 H208 0.931 1_545 S
C244 C243 1.376 . S
C244 C245 1.396 . S
C245 C227 1.472 1_545 S
C245 C244 1.396 . S
C245 C246 1.348 . S
C246 H209 0.929 . S
C246 C245 1.348 . S
C246 C247 1.443 . S
C247 H211 0.932 . S
C247 C242 1.388 . S
C247 C246 1.443 . S
H248 C275 0.929 . S
N249 C274 1.433 . S
N249 C280 1.435 . S
N249 C286 1.423 . S
H250 C276 0.930 . S
H251 C279 0.931 . S
H252 C278 0.929 . S
H253 C281 0.930 . S
H254 C282 0.932 . S
H255 C285 0.929 . S
H256 C284 0.931 . S
H257 C287 0.929 . S
H258 C291 0.932 . S
H259 C288 0.931 . S
H260 C290 0.929 . S
H261 C293 0.929 . S
H262 C294 0.930 . S
H263 C296 0.929 . S
H264 C297 0.931 . S
H265 C299 0.930 . S
H266 C300 0.932 . S
H267 C302 0.931 . S
H268 C303 0.929 . S
H269 C305 0.929 . S
H270 C306 0.928 1_455 S
H271 C308 0.929 . S
N272 C292 1.433 . S
N272 C298 1.435 . S
N272 C304 1.423 . S
H273 C309 0.932 . S
C274 N249 1.433 . S
C274 C275 1.363 . S
C274 C279 1.370 . S
C275 H248 0.929 . S
C275 C274 1.363 . S
C275 C276 1.385 . S
C276 H250 0.930 . S
C276 C275 1.385 . S
C276 C277 1.357 . S
C277 C276 1.357 . S
C277 C278 1.406 . S
C278 H252 0.929 . S
C278 C277 1.406 . S
C278 C279 1.391 . S
C279 H251 0.931 . S
C279 C274 1.370 . S
C279 C278 1.391 . S
C280 N249 1.435 . S
C280 C281 1.358 . S
C280 C285 1.371 . S
C281 H253 0.930 . S
C281 C280 1.358 . S
C281 C282 1.405 . S
C282 H254 0.932 . S
C282 C281 1.405 . S
C282 C283 1.383 . S
C283 C282 1.383 . S
C283 C284 1.393 . S
C284 H256 0.931 . S
C284 C283 1.393 . S
C284 C285 1.382 . S
C285 H255 0.929 . S
C285 C280 1.371 . S
C285 C284 1.382 . S
C286 N249 1.423 . S
C286 C287 1.362 . S
C286 C291 1.388 . S
C287 H257 0.929 . S
C287 C286 1.362 . S
C287 C288 1.376 . S
C288 H259 0.931 . S
C288 C287 1.376 . S
C288 C289 1.396 . S
C289 C288 1.396 . S
C289 C290 1.348 . S
C289 C307 1.472 . S
C290 H260 0.929 . S
C290 C289 1.348 . S
C290 C291 1.443 . S
C291 H258 0.932 . S
C291 C286 1.388 . S
C291 C290 1.443 . S
C292 N272 1.433 . S
C292 C293 1.363 . S
C292 C297 1.370 . S
C293 H261 0.929 . S
C293 C292 1.363 . S
C293 C294 1.385 . S
C294 H262 0.930 . S
C294 C293 1.385 . S
C294 C295 1.357 . S
C295 C294 1.357 . S
C295 C296 1.406 . S
C296 H263 0.929 . S
C296 C295 1.406 . S
C296 C297 1.391 . S
C297 H264 0.931 . S
C297 C292 1.370 . S
C297 C296 1.391 . S
C298 N272 1.435 . S
C298 C299 1.358 . S
C298 C303 1.371 . S
C299 H265 0.930 . S
C299 C298 1.358 . S
C299 C300 1.405 . S
C300 H266 0.932 . S
C300 C299 1.405 . S
C300 C301 1.383 . S
C301 C300 1.383 . S
C301 C302 1.393 . S
C302 H267 0.931 . S
C302 C301 1.393 . S
C302 C303 1.382 . S
C303 H268 0.929 . S
C303 C298 1.371 . S
C303 C302 1.382 . S
C304 N272 1.423 . S
C304 C305 1.362 . S
C304 C309 1.388 . S
C305 H269 0.929 . S
C305 C304 1.362 . S
C305 C306 1.380 . S
C306 H270 0.928 1_655 S
C306 C305 1.380 . S
C306 C307 1.395 1_655 S
C307 C289 1.472 . S
C307 C306 1.395 1_455 S
C307 C308 1.348 1_455 S
C308 H271 0.929 . S
C308 C307 1.348 1_655 S
C308 C309 1.443 . S
C309 H273 0.932 . S
C309 C304 1.388 . S
C309 C308 1.443 . S
H310 C337 0.929 . S
N311 C336 1.433 . S
N311 C342 1.435 . S
N311 C348 1.423 . S
H312 C338 0.930 . S
H313 C341 0.931 . S
H314 C340 0.929 . S
H315 C343 0.930 . S
H316 C344 0.932 . S
H317 C347 0.929 . S
H318 C346 0.931 . S
H319 C349 0.929 . S
H320 C353 0.932 . S
H321 C350 0.931 . S
H322 C352 0.929 . S
H323 C355 0.929 . S
H324 C356 0.930 . S
H325 C358 0.929 . S
H326 C359 0.931 . S
H327 C361 0.930 . S
H328 C362 0.932 . S
H329 C364 0.931 . S
H330 C365 0.929 . S
H331 C367 0.929 . S
H332 C368 0.931 . S
H333 C370 0.929 . S
N334 C354 1.433 . S
N334 C360 1.435 . S
N334 C366 1.423 . S
H335 C371 0.932 . S
C336 N311 1.433 . S
C336 C337 1.363 . S
C336 C341 1.370 . S
C337 H310 0.929 . S
C337 C336 1.363 . S
C337 C338 1.385 . S
C338 H312 0.930 . S
C338 C337 1.385 . S
C338 C339 1.357 . S
C339 C338 1.357 . S
C339 C340 1.406 . S
C340 H314 0.929 . S
C340 C339 1.406 . S
C340 C341 1.391 . S
C341 H313 0.931 . S
C341 C336 1.370 . S
C341 C340 1.391 . S
C342 N311 1.435 . S
C342 C343 1.358 . S
C342 C347 1.371 . S
C343 H315 0.930 . S
C343 C342 1.358 . S
C343 C344 1.405 . S
C344 H316 0.932 . S
C344 C343 1.405 . S
C344 C345 1.383 . S
C345 C344 1.383 . S
C345 C346 1.393 . S
C346 H318 0.931 . S
C346 C345 1.393 . S
C346 C347 1.382 . S
C347 H317 0.929 . S
C347 C342 1.371 . S
C347 C346 1.382 . S
C348 N311 1.423 . S
C348 C349 1.362 . S
C348 C353 1.388 . S
C349 H319 0.929 . S
C349 C348 1.362 . S
C349 C350 1.376 . S
C350 H321 0.931 . S
C350 C349 1.376 . S
C350 C351 1.396 . S
C351 C350 1.396 . S
C351 C352 1.348 . S
C351 C369 1.472 . S
C352 H322 0.929 . S
C352 C351 1.348 . S
C352 C353 1.443 . S
C353 H320 0.932 . S
C353 C348 1.388 . S
C353 C352 1.443 . S
C354 N334 1.433 . S
C354 C355 1.363 . S
C354 C359 1.370 . S
C355 H323 0.929 . S
C355 C354 1.363 . S
C355 C356 1.385 . S
C356 H324 0.930 . S
C356 C355 1.385 . S
C356 C357 1.357 . S
C357 C356 1.357 . S
C357 C358 1.406 . S
C358 H325 0.929 . S
C358 C357 1.406 . S
C358 C359 1.391 . S
C359 H326 0.931 . S
C359 C354 1.370 . S
C359 C358 1.391 . S
C360 N334 1.435 . S
C360 C361 1.358 . S
C360 C365 1.371 . S
C361 H327 0.930 . S
C361 C360 1.358 . S
C361 C362 1.405 . S
C362 H328 0.932 . S
C362 C361 1.405 . S
C362 C363 1.383 . S
C363 C362 1.383 . S
C363 C364 1.393 . S
C364 H329 0.931 . S
C364 C363 1.393 . S
C364 C365 1.382 . S
C365 H330 0.929 . S
C365 C360 1.371 . S
C365 C364 1.382 . S
C366 N334 1.423 . S
C366 C367 1.362 . S
C366 C371 1.388 . S
C367 H331 0.929 . S
C367 C366 1.362 . S
C367 C368 1.376 . S
C368 H332 0.931 . S
C368 C367 1.376 . S
C368 C369 1.396 . S
C369 C351 1.472 . S
C369 C368 1.396 . S
C369 C370 1.348 . S
C370 H333 0.929 . S
C370 C369 1.348 . S
C370 C371 1.443 . S
C371 H335 0.932 . S
C371 C366 1.388 . S
C371 C370 1.443 . S
H372 C399 0.929 . S
N373 C398 1.433 . S
N373 C404 1.435 . S
N373 C410 1.423 . S
H374 C400 0.930 . S
H375 C403 0.931 . S
H376 C402 0.929 . S
H377 C405 0.930 . S
H378 C406 0.932 . S
H379 C409 0.929 . S
H380 C408 0.931 . S
H381 C411 0.929 . S
H382 C415 0.932 . S
H383 C412 0.931 . S
H384 C414 0.929 . S
H385 C417 0.929 . S
H386 C418 0.930 . S
H387 C420 0.929 . S
H388 C421 0.931 . S
H389 C423 0.930 . S
H390 C424 0.932 . S
H391 C426 0.931 . S
H392 C427 0.929 . S
H393 C429 0.929 . S
H394 C430 0.931 . S
H395 C432 0.929 . S
N396 C416 1.433 . S
N396 C422 1.435 . S
N396 C428 1.423 . S
H397 C433 0.932 . S
C398 N373 1.433 . S
C398 C399 1.363 . S
C398 C403 1.370 . S
C399 H372 0.929 . S
C399 C398 1.363 . S
C399 C400 1.385 . S
C400 H374 0.930 . S
C400 C399 1.385 . S
C400 C401 1.357 . S
C401 C400 1.357 . S
C401 C402 1.406 . S
C402 H376 0.929 . S
C402 C401 1.406 . S
C402 C403 1.391 . S
C403 H375 0.931 . S
C403 C398 1.370 . S
C403 C402 1.391 . S
C404 N373 1.435 . S
C404 C405 1.358 . S
C404 C409 1.371 . S
C405 H377 0.930 . S
C405 C404 1.358 . S
C405 C406 1.405 . S
C406 H378 0.932 . S
C406 C405 1.405 . S
C406 C407 1.383 . S
C407 C406 1.383 . S
C407 C408 1.393 . S
C408 H380 0.931 . S
C408 C407 1.393 . S
C408 C409 1.382 . S
C409 H379 0.929 . S
C409 C404 1.371 . S
C409 C408 1.382 . S
C410 N373 1.423 . S
C410 C411 1.362 . S
C410 C415 1.388 . S
C411 H381 0.929 . S
C411 C410 1.362 . S
C411 C412 1.376 1_565 S
C412 H383 0.931 . S
C412 C411 1.376 1_545 S
C412 C413 1.396 . S
C413 C412 1.396 . S
C413 C414 1.348 1_545 S
C413 C431 1.472 . S
C414 H384 0.929 . S
C414 C413 1.348 1_565 S
C414 C415 1.443 . S
C415 H382 0.932 . S
C415 C410 1.388 . S
C415 C414 1.443 . S
C416 N396 1.433 . S
C416 C417 1.363 . S
C416 C421 1.370 . S
C417 H385 0.929 . S
C417 C416 1.363 . S
C417 C418 1.385 . S
C418 H386 0.930 . S
C418 C417 1.385 . S
C418 C419 1.357 . S
C419 C418 1.357 . S
C419 C420 1.406 . S
C420 H387 0.929 . S
C420 C419 1.406 . S
C420 C421 1.391 . S
C421 H388 0.931 . S
C421 C416 1.370 . S
C421 C420 1.391 . S
C422 N396 1.435 . S
C422 C423 1.358 . S
C422 C427 1.371 . S
C423 H389 0.930 . S
C423 C422 1.358 . S
C423 C424 1.405 . S
C424 H390 0.932 . S
C424 C423 1.405 . S
C424 C425 1.383 . S
C425 C424 1.383 . S
C425 C426 1.393 . S
C426 H391 0.931 . S
C426 C425 1.393 . S
C426 C427 1.382 . S
C427 H392 0.929 . S
C427 C422 1.371 . S
C427 C426 1.382 . S
C428 N396 1.423 . S
C428 C429 1.362 . S
C428 C433 1.388 . S
C429 H393 0.929 . S
C429 C428 1.362 . S
C429 C430 1.376 . S
C430 H394 0.931 . S
C430 C429 1.376 . S
C430 C431 1.396 . S
C431 C413 1.472 . S
C431 C430 1.396 . S
C431 C432 1.348 . S
C432 H395 0.929 . S
C432 C431 1.348 . S
C432 C433 1.443 . S
C433 H397 0.932 . S
C433 C428 1.388 . S
C433 C432 1.443 . S
H434 C461 0.929 . S
N435 C460 1.433 . S
N435 C466 1.435 . S
N435 C472 1.423 . S
H436 C462 0.930 . S
H437 C465 0.931 . S
H438 C464 0.929 . S
H439 C467 0.930 . S
H440 C468 0.932 . S
H441 C471 0.929 . S
H442 C470 0.931 . S
H443 C473 0.929 . S
H444 C477 0.932 . S
H445 C474 0.931 . S
H446 C476 0.929 . S
H447 C479 0.929 . S
H448 C480 0.930 . S
H449 C482 0.929 . S
H450 C483 0.931 . S
H451 C485 0.930 . S
H452 C486 0.932 . S
H453 C488 0.931 . S
H454 C489 0.929 . S
H455 C491 0.929 . S
H456 C492 0.931 1_565 S
H457 C494 0.929 . S
N458 C478 1.433 . S
N458 C484 1.435 . S
N458 C490 1.423 . S
H459 C495 0.932 . S
C460 N435 1.433 . S
C460 C461 1.363 . S
C460 C465 1.370 . S
C461 H434 0.929 . S
C461 C460 1.363 . S
C461 C462 1.385 . S
C462 H436 0.930 . S
C462 C461 1.385 . S
C462 C463 1.357 . S
C463 C462 1.357 . S
C463 C464 1.406 . S
C464 H438 0.929 . S
C464 C463 1.406 . S
C464 C465 1.391 . S
C465 H437 0.931 . S
C465 C460 1.370 . S
C465 C464 1.391 . S
C466 N435 1.435 . S
C466 C467 1.358 . S
C466 C471 1.371 . S
C467 H439 0.930 . S
C467 C466 1.358 . S
C467 C468 1.405 . S
C468 H440 0.932 . S
C468 C467 1.405 . S
C468 C469 1.383 . S
C469 C468 1.383 . S
C469 C470 1.393 . S
C470 H442 0.931 . S
C470 C469 1.393 . S
C470 C471 1.382 . S
C471 H441 0.929 . S
C471 C466 1.371 . S
C471 C470 1.382 . S
C472 N435 1.423 . S
C472 C473 1.362 . S
C472 C477 1.388 . S
C473 H443 0.929 . S
C473 C472 1.362 . S
C473 C474 1.376 1_455 S
C474 H445 0.931 . S
C474 C473 1.376 1_655 S
C474 C475 1.396 . S
C475 C474 1.396 . S
C475 C476 1.348 1_655 S
C475 C493 1.472 1_565 S
C476 H446 0.929 . S
C476 C475 1.348 1_455 S
C476 C477 1.443 . S
C477 H444 0.932 . S
C477 C472 1.388 . S
C477 C476 1.443 . S
C478 N458 1.433 . S
C478 C479 1.363 . S
C478 C483 1.370 . S
C479 H447 0.929 . S
C479 C478 1.363 . S
C479 C480 1.385 . S
C480 H448 0.930 . S
C480 C479 1.385 . S
C480 C481 1.357 . S
C481 C480 1.357 . S
C481 C482 1.406 . S
C482 H449 0.929 . S
C482 C481 1.406 . S
C482 C483 1.391 . S
C483 H450 0.931 . S
C483 C478 1.370 . S
C483 C482 1.391 . S
C484 N458 1.435 . S
C484 C485 1.358 . S
C484 C489 1.371 . S
C485 H451 0.930 . S
C485 C484 1.358 . S
C485 C486 1.405 . S
C486 H452 0.932 . S
C486 C485 1.405 . S
C486 C487 1.383 . S
C487 C486 1.383 . S
C487 C488 1.393 . S
C488 H453 0.931 . S
C488 C487 1.393 . S
C488 C489 1.382 . S
C489 H454 0.929 . S
C489 C484 1.371 . S
C489 C488 1.382 . S
C490 N458 1.423 . S
C490 C491 1.362 . S
C490 C495 1.388 . S
C491 H455 0.929 . S
C491 C490 1.362 . S
C491 C492 1.376 . S
C492 H456 0.931 1_545 S
C492 C491 1.376 . S
C492 C493 1.396 . S
C493 C475 1.472 1_545 S
C493 C492 1.396 . S
C493 C494 1.348 . S
C494 H457 0.929 . S
C494 C493 1.348 . S
C494 C495 1.443 . S
C495 H459 0.932 . S
C495 C490 1.388 . S
C495 C494 1.443 . S
Mn496 O501 2.095 1_554 S
Mn496 O511 2.162 . S
Mn496 O512 2.297 . S
Mn496 O520 2.385 . S
Mn496 O521 2.209 . S
Mn496 O522 2.094 . S
Mn497 O502 2.114 1_554 S
Mn497 N504 2.260 . S
Mn497 N513 2.290 . S
Mn497 O521 2.220 . S
Mn497 O523 2.117 1_554 S
C498 O520 1.234 . S
C498 O521 1.283 . S
C499 O511 1.281 . S
C499 O512 1.236 . S
C500 O522 1.241 1_556 S
C500 O523 1.264 . S
O501 Mn496 2.095 1_556 S
O501 C510 1.250 . S
O502 Mn497 2.114 1_556 S
O502 C510 1.258 . S
C503 N504 1.300 1_556 S
C503 C507 1.446 1_556 S
C503 H509 0.971 . S
N504 Mn497 2.260 . S
N504 C503 1.300 1_554 S
N504 C508 1.362 . S
C505 C506 1.258 . S
C505 C508 1.431 . S
C505 C525 1.449 . S
C506 C505 1.258 . S
C506 C507 1.477 . S
C506 H526 0.931 . S
C507 C503 1.446 1_554 S
C507 C506 1.477 . S
C507 H527 0.930 1_554 S
C508 N504 1.362 . S
C508 C505 1.431 . S
C508 C518 1.476 . S
H509 C503 0.971 . S
C510 O501 1.250 . S
C510 O502 1.258 . S
O511 Mn496 2.162 . S
O511 C499 1.281 . S
O512 Mn496 2.297 . S
O512 C499 1.236 . S
N513 Mn497 2.290 . S
N513 C514 1.328 . S
N513 C518 1.318 . S
C514 N513 1.328 . S
C514 C515 1.457 . S
C514 H519 0.929 . S
C515 C514 1.457 . S
C515 C516 1.291 . S
C515 H528 0.931 . S
C516 C515 1.291 . S
C516 C517 1.373 . S
C516 H529 0.929 . S
C517 C516 1.373 . S
C517 C518 1.396 . S
C517 C524 1.403 . S
C518 C508 1.476 . S
C518 N513 1.318 . S
C518 C517 1.396 . S
H519 C514 0.929 . S
O520 Mn496 2.385 . S
O520 C498 1.234 . S
O521 Mn496 2.209 . S
O521 Mn497 2.220 . S
O521 C498 1.283 . S
O522 Mn496 2.094 . S
O522 C500 1.241 1_554 S
O523 Mn497 2.117 1_556 S
O523 C500 1.264 . S
C524 C517 1.403 . S
C524 C525 1.399 . S
C524 H530 0.929 . S
C525 C505 1.449 . S
C525 C524 1.399 . S
C525 H531 0.930 . S
H526 C506 0.931 . S
H527 C507 0.930 1_556 S
H528 C515 0.931 . S
H529 C516 0.929 . S
H530 C524 0.929 . S
H531 C525 0.930 . S
Mn532 O537 2.095 . S
Mn532 O547 2.162 . S
Mn532 O548 2.297 . S
Mn532 O556 2.385 . S
Mn532 O557 2.209 . S
Mn532 O558 2.094 . S
Mn533 O538 2.121 . S
Mn533 N540 2.257 . S
Mn533 N549 2.282 . S
Mn533 O557 2.215 . S
Mn533 O559 2.117 . S
C534 O556 1.234 . S
C534 O557 1.283 . S
C535 O547 1.281 . S
C535 O548 1.236 . S
C536 O558 1.240 . S
C536 O559 1.264 . S
O537 Mn532 2.095 . S
O537 C546 1.250 . S
O538 Mn533 2.121 . S
O538 C546 1.258 . S
C539 N540 1.326 . S
C539 C543 1.460 . S
C539 H545 0.929 . S
N540 Mn533 2.257 . S
N540 C539 1.326 . S
N540 C544 1.362 . S
C541 C542 1.258 . S
C541 C544 1.431 . S
C541 C561 1.449 . S
C542 C541 1.258 . S
C542 C543 1.477 . S
C542 H562 0.931 . S
C543 C539 1.460 . S
C543 C542 1.477 . S
C543 H563 0.930 . S
C544 N540 1.362 . S
C544 C541 1.431 . S
C544 C554 1.476 . S
H545 C539 0.929 . S
C546 O537 1.250 . S
C546 O538 1.258 . S
O547 Mn532 2.162 . S
O547 C535 1.281 . S
O548 Mn532 2.297 . S
O548 C535 1.236 . S
N549 Mn533 2.282 . S
N549 C550 1.328 . S
N549 C554 1.318 . S
C550 N549 1.328 . S
C550 C551 1.457 . S
C550 H555 0.929 . S
C551 C550 1.457 . S
C551 C552 1.291 . S
C551 H564 0.931 . S
C552 C551 1.291 . S
C552 C553 1.373 . S
C552 H565 0.929 . S
C553 C552 1.373 . S
C553 C554 1.396 . S
C553 C560 1.403 . S
C554 C544 1.476 . S
C554 N549 1.318 . S
C554 C553 1.396 . S
H555 C550 0.929 . S
O556 Mn532 2.385 . S
O556 C534 1.234 . S
O557 Mn532 2.209 . S
O557 Mn533 2.215 . S
O557 C534 1.283 . S
O558 Mn532 2.094 . S
O558 C536 1.240 . S
O559 Mn533 2.117 . S
O559 C536 1.264 . S
C560 C553 1.403 . S
C560 C561 1.399 . S
C560 H566 0.929 . S
C561 C541 1.449 . S
C561 C560 1.399 . S
C561 H567 0.930 . S
H562 C542 0.931 . S
H563 C543 0.930 . S
H564 C551 0.931 . S
H565 C552 0.929 . S
H566 C560 0.929 . S
H567 C561 0.930 . S
Mn568 O573 2.095 . S
Mn568 O583 2.162 . S
Mn568 O584 2.297 . S
Mn568 O592 2.385 . S
Mn568 O593 2.209 . S
Mn568 O594 2.094 . S
Mn569 O574 2.121 . S
Mn569 N576 2.257 . S
Mn569 N585 2.282 . S
Mn569 O593 2.215 . S
Mn569 O595 2.117 . S
C570 O592 1.234 . S
C570 O593 1.283 . S
C571 O583 1.281 . S
C571 O584 1.236 . S
C572 O594 1.240 . S
C572 O595 1.264 . S
O573 Mn568 2.095 . S
O573 C582 1.250 . S
O574 Mn569 2.121 . S
O574 C582 1.258 . S
C575 N576 1.326 . S
C575 C579 1.460 . S
C575 H581 0.929 . S
N576 Mn569 2.257 . S
N576 C575 1.326 . S
N576 C580 1.362 . S
C577 C578 1.258 . S
C577 C580 1.431 . S
C577 C597 1.449 . S
C578 C577 1.258 . S
C578 C579 1.477 . S
C578 H598 0.931 . S
C579 C575 1.460 . S
C579 C578 1.477 . S
C579 H599 0.930 . S
C580 N576 1.362 . S
C580 C577 1.431 . S
C580 C590 1.476 . S
H581 C575 0.929 . S
C582 O573 1.250 . S
C582 O574 1.258 . S
O583 Mn568 2.162 . S
O583 C571 1.281 . S
O584 Mn568 2.297 . S
O584 C571 1.236 . S
N585 Mn569 2.282 . S
N585 C586 1.328 . S
N585 C590 1.318 . S
C586 N585 1.328 . S
C586 C587 1.457 . S
C586 H591 0.929 . S
C587 C586 1.457 . S
C587 C588 1.291 . S
C587 H600 0.931 . S
C588 C587 1.291 . S
C588 C589 1.373 . S
C588 H601 0.929 . S
C589 C588 1.373 . S
C589 C590 1.396 . S
C589 C596 1.403 . S
C590 C580 1.476 . S
C590 N585 1.318 . S
C590 C589 1.396 . S
H591 C586 0.929 . S
O592 Mn568 2.385 . S
O592 C570 1.234 . S
O593 Mn568 2.209 . S
O593 Mn569 2.215 . S
O593 C570 1.283 . S
O594 Mn568 2.094 . S
O594 C572 1.240 . S
O595 Mn569 2.117 . S
O595 C572 1.264 . S
C596 C589 1.403 . S
C596 C597 1.399 . S
C596 H602 0.929 . S
C597 C577 1.449 . S
C597 C596 1.399 . S
C597 H603 0.930 . S
H598 C578 0.931 . S
H599 C579 0.930 . S
H600 C587 0.931 . S
H601 C588 0.929 . S
H602 C596 0.929 . S
H603 C597 0.930 . S
Mn604 O609 2.095 . S
Mn604 O619 2.162 . S
Mn604 O620 2.297 . S
Mn604 O628 2.385 . S
Mn604 O629 2.209 . S
Mn604 O630 2.094 . S
Mn605 O610 2.121 . S
Mn605 N612 2.257 . S
Mn605 N621 2.282 . S
Mn605 O629 2.215 . S
Mn605 O631 2.117 . S
C606 O628 1.234 . S
C606 O629 1.283 . S
C607 O619 1.281 . S
C607 O620 1.236 . S
C608 O630 1.240 . S
C608 O631 1.264 . S
O609 Mn604 2.095 . S
O609 C618 1.250 . S
O610 Mn605 2.121 . S
O610 C618 1.258 . S
C611 N612 1.326 . S
C611 C615 1.460 . S
C611 H617 0.929 . S
N612 Mn605 2.257 . S
N612 C611 1.326 . S
N612 C616 1.362 . S
C613 C614 1.258 . S
C613 C616 1.431 . S
C613 C633 1.449 . S
C614 C613 1.258 . S
C614 C615 1.477 . S
C614 H634 0.931 . S
C615 C611 1.460 . S
C615 C614 1.477 . S
C615 H635 0.930 . S
C616 N612 1.362 . S
C616 C613 1.431 . S
C616 C626 1.476 . S
H617 C611 0.929 . S
C618 O609 1.250 . S
C618 O610 1.258 . S
O619 Mn604 2.162 . S
O619 C607 1.281 . S
O620 Mn604 2.297 . S
O620 C607 1.236 . S
N621 Mn605 2.282 . S
N621 C622 1.328 . S
N621 C626 1.318 . S
C622 N621 1.328 . S
C622 C623 1.457 . S
C622 H627 0.929 . S
C623 C622 1.457 . S
C623 C624 1.291 . S
C623 H636 0.931 . S
C624 C623 1.291 . S
C624 C625 1.373 . S
C624 H637 0.929 . S
C625 C624 1.373 . S
C625 C626 1.396 . S
C625 C632 1.403 . S
C626 C616 1.476 . S
C626 N621 1.318 . S
C626 C625 1.396 . S
H627 C622 0.929 . S
O628 Mn604 2.385 . S
O628 C606 1.234 . S
O629 Mn604 2.209 . S
O629 Mn605 2.215 . S
O629 C606 1.283 . S
O630 Mn604 2.094 . S
O630 C608 1.240 . S
O631 Mn605 2.117 . S
O631 C608 1.264 . S
C632 C625 1.403 . S
C632 C633 1.399 . S
C632 H638 0.929 . S
C633 C613 1.449 . S
C633 C632 1.399 . S
C633 H639 0.930 . S
H634 C614 0.931 . S
H635 C615 0.930 . S
H636 C623 0.931 . S
H637 C624 0.929 . S
H638 C632 0.929 . S
H639 C633 0.930 . S
Mn640 O645 2.095 . S
Mn640 O655 2.162 . S
Mn640 O656 2.297 . S
Mn640 O664 2.385 . S
Mn640 O665 2.209 . S
Mn640 O666 2.094 . S
Mn641 O646 2.121 . S
Mn641 N648 2.257 . S
Mn641 N657 2.282 . S
Mn641 O665 2.215 . S
Mn641 O667 2.117 . S
C642 O664 1.234 . S
C642 O665 1.283 . S
C643 O655 1.281 . S
C643 O656 1.236 . S
C644 O666 1.240 . S
C644 O667 1.264 . S
O645 Mn640 2.095 . S
O645 C654 1.250 . S
O646 Mn641 2.121 . S
O646 C654 1.258 . S
C647 N648 1.326 . S
C647 C651 1.460 . S
C647 H653 0.929 . S
N648 Mn641 2.257 . S
N648 C647 1.326 . S
N648 C652 1.362 . S
C649 C650 1.258 . S
C649 C652 1.431 . S
C649 C669 1.449 . S
C650 C649 1.258 . S
C650 C651 1.477 . S
C650 H670 0.931 . S
C651 C647 1.460 . S
C651 C650 1.477 . S
C651 H671 0.930 . S
C652 N648 1.362 . S
C652 C649 1.431 . S
C652 C662 1.476 . S
H653 C647 0.929 . S
C654 O645 1.250 . S
C654 O646 1.258 . S
O655 Mn640 2.162 . S
O655 C643 1.281 . S
O656 Mn640 2.297 . S
O656 C643 1.236 . S
N657 Mn641 2.282 . S
N657 C658 1.328 . S
N657 C662 1.318 . S
C658 N657 1.328 . S
C658 C659 1.457 . S
C658 H663 0.929 . S
C659 C658 1.457 . S
C659 C660 1.291 . S
C659 H672 0.931 . S
C660 C659 1.291 . S
C660 C661 1.373 . S
C660 H673 0.929 . S
C661 C660 1.373 . S
C661 C662 1.396 . S
C661 C668 1.403 . S
C662 C652 1.476 . S
C662 N657 1.318 . S
C662 C661 1.396 . S
H663 C658 0.929 . S
O664 Mn640 2.385 . S
O664 C642 1.234 . S
O665 Mn640 2.209 . S
O665 Mn641 2.215 . S
O665 C642 1.283 . S
O666 Mn640 2.094 . S
O666 C644 1.240 . S
O667 Mn641 2.117 . S
O667 C644 1.264 . S
C668 C661 1.403 . S
C668 C669 1.399 . S
C668 H674 0.929 . S
C669 C649 1.449 . S
C669 C668 1.399 . S
C669 H675 0.930 . S
H670 C650 0.931 . S
H671 C651 0.930 . S
H672 C659 0.931 . S
H673 C660 0.929 . S
H674 C668 0.929 . S
H675 C669 0.930 . S
Mn676 O681 2.095 . S
Mn676 O691 2.162 . S
Mn676 O692 2.297 . S
Mn676 O700 2.385 . S
Mn676 O701 2.209 . S
Mn676 O702 2.094 . S
Mn677 O682 2.121 . S
Mn677 N684 2.257 . S
Mn677 N693 2.282 . S
Mn677 O701 2.215 . S
Mn677 O703 2.117 . S
C678 O700 1.234 . S
C678 O701 1.283 . S
C679 O691 1.281 . S
C679 O692 1.236 . S
C680 O702 1.240 . S
C680 O703 1.264 . S
O681 Mn676 2.095 . S
O681 C690 1.250 . S
O682 Mn677 2.121 . S
O682 C690 1.258 . S
C683 N684 1.326 . S
C683 C687 1.460 . S
C683 H689 0.929 . S
N684 Mn677 2.257 . S
N684 C683 1.326 . S
N684 C688 1.362 . S
C685 C686 1.258 . S
C685 C688 1.431 . S
C685 C705 1.449 . S
C686 C685 1.258 . S
C686 C687 1.477 . S
C686 H706 0.931 . S
C687 C683 1.460 . S
C687 C686 1.477 . S
C687 H707 0.930 . S
C688 N684 1.362 . S
C688 C685 1.431 . S
C688 C698 1.476 . S
H689 C683 0.929 . S
C690 O681 1.250 . S
C690 O682 1.258 . S
O691 Mn676 2.162 . S
O691 C679 1.281 . S
O692 Mn676 2.297 . S
O692 C679 1.236 . S
N693 Mn677 2.282 . S
N693 C694 1.328 . S
N693 C698 1.318 . S
C694 N693 1.328 . S
C694 C695 1.457 . S
C694 H699 0.929 . S
C695 C694 1.457 . S
C695 C696 1.291 . S
C695 H708 0.931 . S
C696 C695 1.291 . S
C696 C697 1.373 . S
C696 H709 0.929 . S
C697 C696 1.373 . S
C697 C698 1.396 . S
C697 C704 1.403 . S
C698 C688 1.476 . S
C698 N693 1.318 . S
C698 C697 1.396 . S
H699 C694 0.929 . S
O700 Mn676 2.385 . S
O700 C678 1.234 . S
O701 Mn676 2.209 . S
O701 Mn677 2.215 . S
O701 C678 1.283 . S
O702 Mn676 2.094 . S
O702 C680 1.240 . S
O703 Mn677 2.117 . S
O703 C680 1.264 . S
C704 C697 1.403 . S
C704 C705 1.399 . S
C704 H710 0.929 . S
C705 C685 1.449 . S
C705 C704 1.399 . S
C705 H711 0.930 . S
H706 C686 0.931 . S
H707 C687 0.930 . S
H708 C695 0.931 . S
H709 C696 0.929 . S
H710 C704 0.929 . S
H711 C705 0.930 . S
Mn712 O717 2.095 . S
Mn712 O727 2.162 . S
Mn712 O728 2.299 . S
Mn712 O736 2.385 1_554 S
Mn712 O737 2.209 1_554 S
Mn712 O738 2.094 . S
Mn713 O718 2.121 . S
Mn713 N720 2.246 1_554 S
Mn713 N729 2.282 1_554 S
Mn713 O737 2.215 1_554 S
Mn713 O739 2.117 . S
C714 O736 1.234 . S
C714 O737 1.283 . S
C715 O727 1.290 . S
C715 O728 1.235 . S
C716 O738 1.240 . S
C716 O739 1.264 . S
O717 Mn712 2.095 . S
O717 C726 1.250 . S
O718 Mn713 2.121 . S
O718 C726 1.258 . S
C719 N720 1.305 1_554 S
C719 C723 1.460 . S
C719 H725 0.929 . S
N720 Mn713 2.246 1_556 S
N720 C719 1.305 1_556 S
N720 C724 1.396 . S
C721 C722 1.258 . S
C721 C724 1.431 . S
C721 C741 1.449 . S
C722 C721 1.258 . S
C722 C723 1.477 1_556 S
C722 H742 0.931 . S
C723 C719 1.460 . S
C723 C722 1.477 1_554 S
C723 H743 0.930 . S
C724 N720 1.396 . S
C724 C721 1.431 . S
C724 C734 1.476 . S
H725 C719 0.929 . S
C726 O717 1.250 . S
C726 O718 1.258 . S
O727 Mn712 2.162 . S
O727 C715 1.290 . S
O728 Mn712 2.299 . S
O728 C715 1.235 . S
N729 Mn713 2.282 1_556 S
N729 C730 1.328 . S
N729 C734 1.318 . S
C730 N729 1.328 . S
C730 C731 1.457 . S
C730 H735 0.929 . S
C731 C730 1.457 . S
C731 C732 1.291 . S
C731 H744 0.931 . S
C732 C731 1.291 . S
C732 C733 1.373 . S
C732 H745 0.929 . S
C733 C732 1.373 . S
C733 C734 1.396 . S
C733 C740 1.403 . S
C734 C724 1.476 . S
C734 N729 1.318 . S
C734 C733 1.396 . S
H735 C730 0.929 . S
O736 Mn712 2.385 1_556 S
O736 C714 1.234 . S
O737 Mn712 2.209 1_556 S
O737 Mn713 2.215 1_556 S
O737 C714 1.283 . S
O738 Mn712 2.094 . S
O738 C716 1.240 . S
O739 Mn713 2.117 . S
O739 C716 1.264 . S
C740 C733 1.403 . S
C740 C741 1.399 . S
C740 H746 0.929 . S
C741 C721 1.449 . S
C741 C740 1.399 . S
C741 H747 0.930 . S
H742 C722 0.931 . S
H743 C723 0.930 . S
H744 C731 0.931 . S
H745 C732 0.929 . S
H746 C740 0.929 . S
H747 C741 0.930 . S
Mn748 O753 2.095 . S
Mn748 O763 2.162 . S
Mn748 O764 2.297 . S
Mn748 O772 2.385 . S
Mn748 O773 2.209 . S
Mn748 O774 2.094 . S
Mn749 O754 2.121 . S
Mn749 N756 2.257 . S
Mn749 N765 2.282 . S
Mn749 O773 2.215 . S
Mn749 O775 2.117 . S
C750 O772 1.234 . S
C750 O773 1.283 . S
C751 O763 1.281 . S
C751 O764 1.236 . S
C752 O774 1.240 . S
C752 O775 1.264 . S
O753 Mn748 2.095 . S
O753 C762 1.250 . S
O754 Mn749 2.121 . S
O754 C762 1.258 . S
C755 N756 1.326 . S
C755 C759 1.460 . S
C755 H761 0.929 . S
N756 Mn749 2.257 . S
N756 C755 1.326 . S
N756 C760 1.362 . S
C757 C758 1.258 . S
C757 C760 1.431 . S
C757 C777 1.449 . S
C758 C757 1.258 . S
C758 C759 1.477 . S
C758 H778 0.931 . S
C759 C755 1.460 . S
C759 C758 1.477 . S
C759 H779 0.930 . S
C760 N756 1.362 . S
C760 C757 1.431 . S
C760 C770 1.476 . S
H761 C755 0.929 . S
C762 O753 1.250 . S
C762 O754 1.258 . S
O763 Mn748 2.162 . S
O763 C751 1.281 . S
O764 Mn748 2.297 . S
O764 C751 1.236 . S
N765 Mn749 2.282 . S
N765 C766 1.328 . S
N765 C770 1.318 . S
C766 N765 1.328 . S
C766 C767 1.457 . S
C766 H771 0.929 . S
C767 C766 1.457 . S
C767 C768 1.291 . S
C767 H780 0.931 . S
C768 C767 1.291 . S
C768 C769 1.373 . S
C768 H781 0.929 . S
C769 C768 1.373 . S
C769 C770 1.396 . S
C769 C776 1.403 . S
C770 C760 1.476 . S
C770 N765 1.318 . S
C770 C769 1.396 . S
H771 C766 0.929 . S
O772 Mn748 2.385 . S
O772 C750 1.234 . S
O773 Mn748 2.209 . S
O773 Mn749 2.215 . S
O773 C750 1.283 . S
O774 Mn748 2.094 . S
O774 C752 1.240 . S
O775 Mn749 2.117 . S
O775 C752 1.264 . S
C776 C769 1.403 . S
C776 C777 1.399 . S
C776 H782 0.929 . S
C777 C757 1.449 . S
C777 C776 1.399 . S
C777 H783 0.930 . S
H778 C758 0.931 . S
H779 C759 0.930 . S
H780 C767 0.931 . S
H781 C768 0.929 . S
H782 C776 0.929 . S
H783 C777 0.930 . S
H784 C802 0.951 . S
H785 C804 0.951 . S
H786 C806 0.950 . S
H787 C807 0.950 . S
H788 C809 0.950 . S
H789 C812 0.950 . S
H790 C813 0.950 . S
H791 C815 0.950 . S
H792 C816 0.950 . S
H793 C817 0.951 . S
H794 C819 0.951 . S
H795 C821 0.950 . S
H796 C822 0.950 . S
H797 C824 0.950 . S
H798 C827 0.950 . S
H799 C828 0.950 . S
H800 C830 0.950 . S
H801 C831 0.950 . S
C802 H784 0.951 . S
C802 C803 1.366 . S
C802 C804 1.388 . S
C803 C802 1.366 . S
C803 C807 1.385 . S
C804 H785 0.951 . S
C804 C802 1.388 . S
C804 C805 1.366 . S
C805 C804 1.366 . S
C805 C806 1.414 . S
C805 C808 1.499 . S
C806 H786 0.950 . S
C806 C805 1.414 . S
C806 C807 1.374 . S
C807 H787 0.950 . S
C807 C803 1.385 . S
C807 C806 1.374 . S
C808 C805 1.499 . S
C808 C809 1.373 . S
C808 C810 1.389 . S
C809 H788 0.950 . S
C809 C808 1.373 . S
C809 C825 1.377 . S
C810 C808 1.389 . S
C810 C811 1.524 . S
C810 C824 1.377 . S
C811 C810 1.524 . S
C811 C812 1.397 . S
C811 C816 1.363 . S
C812 H789 0.950 . S
C812 C811 1.397 . S
C812 C813 1.334 . S
C813 H790 0.950 . S
C813 C812 1.334 . S
C813 C814 1.287 . S
C814 C813 1.287 . S
C814 C815 1.524 . S
C814 H833 0.913 . S
C815 H791 0.950 . S
C815 C814 1.524 . S
C815 C816 1.415 . S
C816 H792 0.950 . S
C816 C811 1.363 . S
C816 C815 1.415 . S
C817 H793 0.951 . S
C817 C818 1.366 . S
C817 C819 1.388 . S
C818 C817 1.366 . S
C818 C822 1.385 . S
C819 H794 0.951 . S
C819 C817 1.388 . S
C819 C820 1.366 . S
C820 C819 1.366 . S
C820 C821 1.414 . S
C820 C823 1.499 . S
C821 H795 0.950 . S
C821 C820 1.414 . S
C821 C822 1.374 . S
C822 H796 0.950 . S
C822 C818 1.385 . S
C822 C821 1.374 . S
C823 C820 1.499 . S
C823 C824 1.373 . S
C823 C825 1.389 . S
C824 H797 0.950 . S
C824 C810 1.377 . S
C824 C823 1.373 . S
C825 C809 1.377 . S
C825 C823 1.389 . S
C825 C826 1.524 . S
C826 C825 1.524 . S
C826 C827 1.397 . S
C826 C831 1.363 . S
C827 H798 0.950 . S
C827 C826 1.397 . S
C827 C828 1.334 . S
C828 H799 0.950 . S
C828 C827 1.334 . S
C828 C829 1.287 . S
C829 C828 1.287 . S
C829 C830 1.524 . S
C829 H832 0.999 . S
C830 H800 0.950 . S
C830 C829 1.524 . S
C830 C831 1.415 . S
C831 H801 0.950 . S
C831 C826 1.363 . S
C831 C830 1.415 . S
H832 C829 0.999 . S
H833 C814 0.913 . S
H834 C852 0.951 . S
H835 C854 0.951 . S
H836 C856 0.950 . S
H837 C857 0.950 . S
H838 C859 0.950 . S
H839 C862 0.950 . S
H840 C863 0.950 . S
H841 C865 0.950 . S
H842 C866 0.950 . S
H843 C867 0.951 . S
H844 C869 0.951 . S
H845 C871 0.950 . S
H846 C872 0.950 . S
H847 C874 0.950 . S
H848 C877 0.950 . S
H849 C878 0.950 . S
H850 C880 0.950 . S
H851 C881 0.950 . S
C852 H834 0.951 . S
C852 C853 1.366 . S
C852 C854 1.388 . S
C853 C852 1.366 . S
C853 C857 1.385 . S
C854 H835 0.951 . S
C854 C852 1.388 . S
C854 C855 1.366 . S
C855 C854 1.366 . S
C855 C856 1.414 . S
C855 C858 1.499 . S
C856 H836 0.950 . S
C856 C855 1.414 . S
C856 C857 1.374 . S
C857 H837 0.950 . S
C857 C853 1.385 . S
C857 C856 1.374 . S
C858 C855 1.499 . S
C858 C859 1.373 . S
C858 C860 1.389 . S
C859 H838 0.950 . S
C859 C858 1.373 . S
C859 C875 1.377 . S
C860 C858 1.389 . S
C860 C861 1.524 . S
C860 C874 1.377 . S
C861 C860 1.524 . S
C861 C862 1.397 . S
C861 C866 1.363 . S
C862 H839 0.950 . S
C862 C861 1.397 . S
C862 C863 1.334 . S
C863 H840 0.950 . S
C863 C862 1.334 . S
C863 C864 1.287 . S
C864 C863 1.287 . S
C864 C865 1.524 . S
C864 H883 0.913 . S
C865 H841 0.950 . S
C865 C864 1.524 . S
C865 C866 1.415 . S
C866 H842 0.950 . S
C866 C861 1.363 . S
C866 C865 1.415 . S
C867 H843 0.951 . S
C867 C868 1.366 . S
C867 C869 1.388 . S
C868 C867 1.366 . S
C868 C872 1.385 . S
C869 H844 0.951 . S
C869 C867 1.388 . S
C869 C870 1.366 . S
C870 C869 1.366 . S
C870 C871 1.414 . S
C870 C873 1.499 . S
C871 H845 0.950 . S
C871 C870 1.414 . S
C871 C872 1.374 . S
C872 H846 0.950 . S
C872 C868 1.385 . S
C872 C871 1.374 . S
C873 C870 1.499 . S
C873 C874 1.373 . S
C873 C875 1.389 . S
C874 H847 0.950 . S
C874 C860 1.377 . S
C874 C873 1.373 . S
C875 C859 1.377 . S
C875 C873 1.389 . S
C875 C876 1.524 . S
C876 C875 1.524 . S
C876 C877 1.397 . S
C876 C881 1.363 . S
C877 H848 0.950 . S
C877 C876 1.397 . S
C877 C878 1.334 . S
C878 H849 0.950 . S
C878 C877 1.334 . S
C878 C879 1.287 . S
C879 C878 1.287 . S
C879 C880 1.524 . S
C879 H882 0.999 . S
C880 H850 0.950 . S
C880 C879 1.524 . S
C880 C881 1.415 . S
C881 H851 0.950 . S
C881 C876 1.363 . S
C881 C880 1.415 . S
H882 C879 0.999 . S
H883 C864 0.913 . S
H884 C902 0.951 . S
H885 C904 0.951 . S
H886 C906 0.950 . S
H887 C907 0.950 . S
H888 C909 0.950 . S
H889 C912 0.950 . S
H890 C913 0.950 . S
H891 C915 0.950 . S
H892 C916 0.950 . S
H893 C917 0.951 . S
H894 C919 0.951 . S
H895 C921 0.950 . S
H896 C922 0.950 . S
H897 C924 0.950 . S
H898 C927 0.950 . S
H899 C928 0.950 . S
H900 C930 0.950 . S
H901 C931 0.950 . S
C902 H884 0.951 . S
C902 C903 1.366 . S
C902 C904 1.388 . S
C903 C902 1.366 . S
C903 C907 1.385 . S
C904 H885 0.951 . S
C904 C902 1.388 . S
C904 C905 1.366 . S
C905 C904 1.366 . S
C905 C906 1.414 . S
C905 C908 1.499 . S
C906 H886 0.950 . S
C906 C905 1.414 . S
C906 C907 1.374 . S
C907 H887 0.950 . S
C907 C903 1.385 . S
C907 C906 1.374 . S
C908 C905 1.499 . S
C908 C909 1.373 . S
C908 C910 1.389 . S
C909 H888 0.950 . S
C909 C908 1.373 . S
C909 C925 1.377 . S
C910 C908 1.389 . S
C910 C911 1.524 . S
C910 C924 1.377 . S
C911 C910 1.524 . S
C911 C912 1.397 . S
C911 C916 1.363 . S
C912 H889 0.950 . S
C912 C911 1.397 . S
C912 C913 1.334 . S
C913 H890 0.950 . S
C913 C912 1.334 . S
C913 C914 1.287 . S
C914 C913 1.287 . S
C914 C915 1.524 . S
C914 H933 0.913 . S
C915 H891 0.950 . S
C915 C914 1.524 . S
C915 C916 1.415 . S
C916 H892 0.950 . S
C916 C911 1.363 . S
C916 C915 1.415 . S
C917 H893 0.951 . S
C917 C918 1.366 . S
C917 C919 1.388 . S
C918 C917 1.366 . S
C918 C922 1.385 . S
C919 H894 0.951 . S
C919 C917 1.388 . S
C919 C920 1.366 . S
C920 C919 1.366 . S
C920 C921 1.414 . S
C920 C923 1.499 . S
C921 H895 0.950 . S
C921 C920 1.414 . S
C921 C922 1.374 . S
C922 H896 0.950 . S
C922 C918 1.385 . S
C922 C921 1.374 . S
C923 C920 1.499 . S
C923 C924 1.373 . S
C923 C925 1.389 . S
C924 H897 0.950 . S
C924 C910 1.377 . S
C924 C923 1.373 . S
C925 C909 1.377 . S
C925 C923 1.389 . S
C925 C926 1.524 . S
C926 C925 1.524 . S
C926 C927 1.397 . S
C926 C931 1.363 . S
C927 H898 0.950 . S
C927 C926 1.397 . S
C927 C928 1.334 . S
C928 H899 0.950 . S
C928 C927 1.334 . S
C928 C929 1.287 . S
C929 C928 1.287 . S
C929 C930 1.524 . S
C929 H932 0.999 . S
C930 H900 0.950 . S
C930 C929 1.524 . S
C930 C931 1.415 . S
C931 H901 0.950 . S
C931 C926 1.363 . S
C931 C930 1.415 . S
H932 C929 0.999 . S
H933 C914 0.913 . S
H934 C952 0.971 . S
H935 C954 0.951 1_556 S
H936 C956 0.950 . S
H937 C957 0.950 . S
H938 C959 0.950 . S
H939 C962 0.950 1_554 S
H940 C963 0.950 . S
H941 C965 0.950 . S
H942 C966 0.950 . S
H943 C967 0.951 . S
H944 C969 0.951 . S
H945 C971 0.950 . S
H946 C972 0.950 . S
H947 C974 0.950 1_556 S
H948 C977 0.950 . S
H949 C978 0.950 . S
H950 C980 0.950 . S
H951 C981 0.950 . S
C952 H934 0.971 . S
C952 C953 1.366 . S
C952 C954 1.388 . S
C953 C952 1.366 . S
C953 C957 1.385 . S
C954 H935 0.951 1_554 S
C954 C952 1.388 . S
C954 C955 1.366 . S
C955 C954 1.366 . S
C955 C956 1.414 . S
C955 C958 1.499 . S
C956 H936 0.950 . S
C956 C955 1.414 . S
C956 C957 1.374 . S
C957 H937 0.950 . S
C957 C953 1.385 . S
C957 C956 1.374 . S
C958 C955 1.499 . S
C958 C959 1.373 . S
C958 C960 1.389 . S
C959 H938 0.950 . S
C959 C958 1.373 . S
C959 C975 1.377 . S
C960 C958 1.389 . S
C960 C961 1.524 1_554 S
C960 C974 1.377 . S
C961 C960 1.524 1_556 S
C961 C962 1.397 . S
C961 C966 1.363 . S
C962 H939 0.950 1_556 S
C962 C961 1.397 . S
C962 C963 1.334 . S
C963 H940 0.950 . S
C963 C962 1.334 . S
C963 C964 1.287 . S
C964 C963 1.287 . S
C964 C965 1.524 . S
C964 H983 0.913 . S
C965 H941 0.950 . S
C965 C964 1.524 . S
C965 C966 1.415 . S
C966 H942 0.950 . S
C966 C961 1.363 . S
C966 C965 1.415 . S
C967 H943 0.951 . S
C967 C968 1.366 . S
C967 C969 1.388 . S
C968 C967 1.366 . S
C968 C972 1.385 1_554 S
C969 H944 0.951 . S
C969 C967 1.388 . S
C969 C970 1.366 . S
C970 C969 1.366 . S
C970 C971 1.414 1_554 S
C970 C973 1.499 . S
C971 H945 0.950 . S
C971 C970 1.414 1_556 S
C971 C972 1.374 . S
C972 H946 0.950 . S
C972 C968 1.385 1_556 S
C972 C971 1.374 . S
C973 C970 1.499 . S
C973 C974 1.373 . S
C973 C975 1.389 . S
C974 H947 0.950 1_554 S
C974 C960 1.377 . S
C974 C973 1.373 . S
C975 C959 1.377 . S
C975 C973 1.389 . S
C975 C976 1.524 . S
C976 C975 1.524 . S
C976 C977 1.397 . S
C976 C981 1.363 . S
C977 H948 0.950 . S
C977 C976 1.397 . S
C977 C978 1.334 . S
C978 H949 0.950 . S
C978 C977 1.334 . S
C978 C979 1.287 . S
C979 C978 1.287 . S
C979 C980 1.524 . S
C979 H982 0.999 . S
C980 H950 0.950 . S
C980 C979 1.524 . S
C980 C981 1.415 . S
C981 H951 0.950 . S
C981 C976 1.363 . S
C981 C980 1.415 . S
H982 C979 0.999 . S
H983 C964 0.913 . S
H984 C1002 0.951 . S
H985 C1004 0.951 . S
H986 C1006 0.925 1_554 S
H987 C1007 0.950 1_554 S
H988 C1009 0.995 . S
H989 C1012 0.950 . S
H990 C1013 0.950 . S
H991 C1015 0.950 . S
H992 C1016 0.950 . S
H993 C1017 0.951 . S
H994 C1019 0.951 . S
H995 C1021 0.950 . S
H996 C1022 0.950 . S
H997 C1024 0.950 . S
H998 C1027 0.959 . S
H999 C1028 0.950 . S
H1000 C1030 0.950 . S
H1001 C1031 0.950 . S
C1002 H984 0.951 . S
C1002 C1003 1.366 . S
C1002 C1004 1.388 . S
C1003 C1002 1.366 . S
C1003 C1007 1.385 . S
C1004 H985 0.951 . S
C1004 C1002 1.388 . S
C1004 C1005 1.366 . S
C1005 C1004 1.366 . S
C1005 C1006 1.437 . S
C1005 C1008 1.499 . S
C1006 H986 0.925 1_556 S
C1006 C1005 1.437 . S
C1006 C1007 1.377 . S
C1007 H987 0.950 1_556 S
C1007 C1003 1.385 . S
C1007 C1006 1.377 . S
C1008 C1005 1.499 . S
C1008 C1009 1.327 1_556 S
C1008 C1010 1.389 . S
C1009 H988 0.995 . S
C1009 C1008 1.327 1_554 S
C1009 C1025 1.382 . S
C1010 C1008 1.389 . S
C1010 C1011 1.524 . S
C1010 C1024 1.377 . S
C1011 C1010 1.524 . S
C1011 C1012 1.397 . S
C1011 C1016 1.363 . S
C1012 H989 0.950 . S
C1012 C1011 1.397 . S
C1012 C1013 1.334 . S
C1013 H990 0.950 . S
C1013 C1012 1.334 . S
C1013 C1014 1.287 . S
C1014 C1013 1.287 . S
C1014 C1015 1.524 . S
C1014 H1033 0.913 . S
C1015 H991 0.950 . S
C1015 C1014 1.524 . S
C1015 C1016 1.415 . S
C1016 H992 0.950 . S
C1016 C1011 1.363 . S
C1016 C1015 1.415 . S
C1017 H993 0.951 . S
C1017 C1018 1.366 1_554 S
C1017 C1019 1.388 . S
C1018 C1017 1.366 1_556 S
C1018 C1022 1.385 . S
C1019 H994 0.951 . S
C1019 C1017 1.388 . S
C1019 C1020 1.366 1_554 S
C1020 C1019 1.366 1_556 S
C1020 C1021 1.414 . S
C1020 C1023 1.499 . S
C1021 H995 0.950 . S
C1021 C1020 1.414 . S
C1021 C1022 1.374 . S
C1022 H996 0.950 . S
C1022 C1018 1.385 . S
C1022 C1021 1.374 . S
C1023 C1020 1.499 . S
C1023 C1024 1.373 . S
C1023 C1025 1.389 1_556 S
C1024 H997 0.950 . S
C1024 C1010 1.377 . S
C1024 C1023 1.373 . S
C1025 C1009 1.382 . S
C1025 C1023 1.389 1_554 S
C1025 C1026 1.524 . S
C1026 C1025 1.524 . S
C1026 C1027 1.397 . S
C1026 C1031 1.363 . S
C1027 H998 0.959 . S
C1027 C1026 1.397 . S
C1027 C1028 1.334 . S
C1028 H999 0.950 . S
C1028 C1027 1.334 . S
C1028 C1029 1.287 . S
C1029 C1028 1.287 . S
C1029 C1030 1.524 . S
C1029 H1032 0.999 . S
C1030 H1000 0.950 . S
C1030 C1029 1.524 . S
C1030 C1031 1.415 . S
C1031 H1001 0.950 . S
C1031 C1026 1.363 . S
C1031 C1030 1.415 . S
H1032 C1029 0.999 . S
H1033 C1014 0.913 . S
H1034 C1052 0.951 . S
H1035 C1054 0.951 . S
H1036 C1056 0.950 . S
H1037 C1057 0.950 . S
H1038 C1059 0.950 . S
H1039 C1062 0.950 . S
H1040 C1063 0.950 . S
H1041 C1065 0.950 . S
H1042 C1066 0.950 . S
H1043 C1067 0.951 . S
H1044 C1069 0.951 . S
H1045 C1071 0.950 . S
H1046 C1072 0.950 . S
H1047 C1074 0.950 . S
H1048 C1077 0.950 . S
H1049 C1078 0.950 . S
H1050 C1080 0.950 . S
H1051 C1081 0.950 . S
C1052 H1034 0.951 . S
C1052 C1053 1.366 . S
C1052 C1054 1.388 . S
C1053 C1052 1.366 . S
C1053 C1057 1.385 . S
C1054 H1035 0.951 . S
C1054 C1052 1.388 . S
C1054 C1055 1.366 . S
C1055 C1054 1.366 . S
C1055 C1056 1.414 . S
C1055 C1058 1.499 . S
C1056 H1036 0.950 . S
C1056 C1055 1.414 . S
C1056 C1057 1.374 . S
C1057 H1037 0.950 . S
C1057 C1053 1.385 . S
C1057 C1056 1.374 . S
C1058 C1055 1.499 . S
C1058 C1059 1.373 . S
C1058 C1060 1.389 . S
C1059 H1038 0.950 . S
C1059 C1058 1.373 . S
C1059 C1075 1.377 . S
C1060 C1058 1.389 . S
C1060 C1061 1.524 . S
C1060 C1074 1.377 . S
C1061 C1060 1.524 . S
C1061 C1062 1.397 . S
C1061 C1066 1.363 . S
C1062 H1039 0.950 . S
C1062 C1061 1.397 . S
C1062 C1063 1.334 . S
C1063 H1040 0.950 . S
C1063 C1062 1.334 . S
C1063 C1064 1.287 . S
C1064 C1063 1.287 . S
C1064 C1065 1.524 . S
C1064 H1083 0.913 . S
C1065 H1041 0.950 . S
C1065 C1064 1.524 . S
C1065 C1066 1.415 . S
C1066 H1042 0.950 . S
C1066 C1061 1.363 . S
C1066 C1065 1.415 . S
C1067 H1043 0.951 . S
C1067 C1068 1.366 . S
C1067 C1069 1.388 . S
C1068 C1067 1.366 . S
C1068 C1072 1.385 . S
C1069 H1044 0.951 . S
C1069 C1067 1.388 . S
C1069 C1070 1.366 . S
C1070 C1069 1.366 . S
C1070 C1071 1.414 . S
C1070 C1073 1.499 . S
C1071 H1045 0.950 . S
C1071 C1070 1.414 . S
C1071 C1072 1.374 . S
C1072 H1046 0.950 . S
C1072 C1068 1.385 . S
C1072 C1071 1.374 . S
C1073 C1070 1.499 . S
C1073 C1074 1.373 . S
C1073 C1075 1.389 . S
C1074 H1047 0.950 . S
C1074 C1060 1.377 . S
C1074 C1073 1.373 . S
C1075 C1059 1.377 . S
C1075 C1073 1.389 . S
C1075 C1076 1.524 . S
C1076 C1075 1.524 . S
C1076 C1077 1.397 . S
C1076 C1081 1.363 . S
C1077 H1048 0.950 . S
C1077 C1076 1.397 . S
C1077 C1078 1.334 . S
C1078 H1049 0.950 . S
C1078 C1077 1.334 . S
C1078 C1079 1.287 . S
C1079 C1078 1.287 . S
C1079 C1080 1.524 . S
C1079 H1082 0.999 . S
C1080 H1050 0.950 . S
C1080 C1079 1.524 . S
C1080 C1081 1.415 . S
C1081 H1051 0.950 . S
C1081 C1076 1.363 . S
C1081 C1080 1.415 . S
H1082 C1079 0.999 . S
H1083 C1064 0.913 . S
H1084 C1102 0.951 . S
H1085 C1104 0.951 . S
H1086 C1106 0.950 . S
H1087 C1107 0.950 . S
H1088 C1109 0.950 . S
H1089 C1112 0.950 . S
H1090 C1113 0.950 . S
H1091 C1115 0.950 . S
H1092 C1116 0.950 . S
H1093 C1117 0.951 . S
H1094 C1119 0.951 . S
H1095 C1121 0.950 . S
H1096 C1122 0.950 . S
H1097 C1124 0.950 . S
H1098 C1127 0.950 . S
H1099 C1128 0.950 . S
H1100 C1130 0.950 . S
H1101 C1131 0.950 . S
C1102 H1084 0.951 . S
C1102 C1103 1.366 . S
C1102 C1104 1.388 . S
C1103 C1102 1.366 . S
C1103 C1107 1.385 . S
C1104 H1085 0.951 . S
C1104 C1102 1.388 . S
C1104 C1105 1.366 . S
C1105 C1104 1.366 . S
C1105 C1106 1.414 . S
C1105 C1108 1.499 . S
C1106 H1086 0.950 . S
C1106 C1105 1.414 . S
C1106 C1107 1.374 . S
C1107 H1087 0.950 . S
C1107 C1103 1.385 . S
C1107 C1106 1.374 . S
C1108 C1105 1.499 . S
C1108 C1109 1.373 . S
C1108 C1110 1.389 . S
C1109 H1088 0.950 . S
C1109 C1108 1.373 . S
C1109 C1125 1.377 . S
C1110 C1108 1.389 . S
C1110 C1111 1.524 . S
C1110 C1124 1.377 . S
C1111 C1110 1.524 . S
C1111 C1112 1.397 . S
C1111 C1116 1.363 . S
C1112 H1089 0.950 . S
C1112 C1111 1.397 . S
C1112 C1113 1.334 . S
C1113 H1090 0.950 . S
C1113 C1112 1.334 . S
C1113 C1114 1.287 . S
C1114 C1113 1.287 . S
C1114 C1115 1.524 . S
C1114 H1133 0.913 . S
C1115 H1091 0.950 . S
C1115 C1114 1.524 . S
C1115 C1116 1.415 . S
C1116 H1092 0.950 . S
C1116 C1111 1.363 . S
C1116 C1115 1.415 . S
C1117 H1093 0.951 . S
C1117 C1118 1.366 . S
C1117 C1119 1.388 . S
C1118 C1117 1.366 . S
C1118 C1122 1.385 . S
C1119 H1094 0.951 . S
C1119 C1117 1.388 . S
C1119 C1120 1.366 . S
C1120 C1119 1.366 . S
C1120 C1121 1.414 . S
C1120 C1123 1.499 . S
C1121 H1095 0.950 . S
C1121 C1120 1.414 . S
C1121 C1122 1.374 . S
C1122 H1096 0.950 . S
C1122 C1118 1.385 . S
C1122 C1121 1.374 . S
C1123 C1120 1.499 . S
C1123 C1124 1.373 . S
C1123 C1125 1.389 . S
C1124 H1097 0.950 . S
C1124 C1110 1.377 . S
C1124 C1123 1.373 . S
C1125 C1109 1.377 . S
C1125 C1123 1.389 . S
C1125 C1126 1.524 . S
C1126 C1125 1.524 . S
C1126 C1127 1.397 . S
C1126 C1131 1.363 . S
C1127 H1098 0.950 . S
C1127 C1126 1.397 . S
C1127 C1128 1.334 . S
C1128 H1099 0.950 . S
C1128 C1127 1.334 . S
C1128 C1129 1.287 . S
C1129 C1128 1.287 . S
C1129 C1130 1.524 . S
C1129 H1132 0.999 . S
C1130 H1100 0.950 . S
C1130 C1129 1.524 . S
C1130 C1131 1.415 . S
C1131 H1101 0.950 . S
C1131 C1126 1.363 . S
C1131 C1130 1.415 . S
H1132 C1129 0.999 . S
H1133 C1114 0.913 . S
H1134 C1152 0.951 . S
H1135 C1154 0.951 . S
H1136 C1156 0.950 . S
H1137 C1157 0.950 . S
H1138 C1159 0.950 . S
H1139 C1162 0.950 . S
H1140 C1163 0.950 . S
H1141 C1165 0.950 . S
H1142 C1166 0.950 . S
H1143 C1167 0.951 . S
H1144 C1169 0.951 . S
H1145 C1171 0.950 . S
H1146 C1172 0.950 . S
H1147 C1174 0.950 . S
H1148 C1177 0.950 . S
H1149 C1178 0.950 . S
H1150 C1180 0.950 . S
H1151 C1181 0.950 . S
C1152 H1134 0.951 . S
C1152 C1153 1.366 . S
C1152 C1154 1.388 . S
C1153 C1152 1.366 . S
C1153 C1157 1.385 . S
C1154 H1135 0.951 . S
C1154 C1152 1.388 . S
C1154 C1155 1.366 . S
C1155 C1154 1.366 . S
C1155 C1156 1.414 . S
C1155 C1158 1.499 . S
C1156 H1136 0.950 . S
C1156 C1155 1.414 . S
C1156 C1157 1.374 . S
C1157 H1137 0.950 . S
C1157 C1153 1.385 . S
C1157 C1156 1.374 . S
C1158 C1155 1.499 . S
C1158 C1159 1.373 . S
C1158 C1160 1.389 . S
C1159 H1138 0.950 . S
C1159 C1158 1.373 . S
C1159 C1175 1.377 . S
C1160 C1158 1.389 . S
C1160 C1161 1.524 . S
C1160 C1174 1.377 . S
C1161 C1160 1.524 . S
C1161 C1162 1.397 . S
C1161 C1166 1.363 . S
C1162 H1139 0.950 . S
C1162 C1161 1.397 . S
C1162 C1163 1.334 . S
C1163 H1140 0.950 . S
C1163 C1162 1.334 . S
C1163 C1164 1.287 . S
C1164 C1163 1.287 . S
C1164 C1165 1.524 . S
C1164 H1183 0.913 . S
C1165 H1141 0.950 . S
C1165 C1164 1.524 . S
C1165 C1166 1.415 . S
C1166 H1142 0.950 . S
C1166 C1161 1.363 . S
C1166 C1165 1.415 . S
C1167 H1143 0.951 . S
C1167 C1168 1.366 . S
C1167 C1169 1.388 . S
C1168 C1167 1.366 . S
C1168 C1172 1.385 . S
C1169 H1144 0.951 . S
C1169 C1167 1.388 . S
C1169 C1170 1.366 . S
C1170 C1169 1.366 . S
C1170 C1171 1.414 . S
C1170 C1173 1.499 . S
C1171 H1145 0.950 . S
C1171 C1170 1.414 . S
C1171 C1172 1.374 . S
C1172 H1146 0.950 . S
C1172 C1168 1.385 . S
C1172 C1171 1.374 . S
C1173 C1170 1.499 . S
C1173 C1174 1.373 . S
C1173 C1175 1.389 . S
C1174 H1147 0.950 . S
C1174 C1160 1.377 . S
C1174 C1173 1.373 . S
C1175 C1159 1.377 . S
C1175 C1173 1.389 . S
C1175 C1176 1.524 . S
C1176 C1175 1.524 . S
C1176 C1177 1.397 . S
C1176 C1181 1.363 . S
C1177 H1148 0.950 . S
C1177 C1176 1.397 . S
C1177 C1178 1.334 . S
C1178 H1149 0.950 . S
C1178 C1177 1.334 . S
C1178 C1179 1.287 . S
C1179 C1178 1.287 . S
C1179 C1180 1.524 . S
C1179 H1182 0.999 . S
C1180 H1150 0.950 . S
C1180 C1179 1.524 . S
C1180 C1181 1.415 . S
C1181 H1151 0.950 . S
C1181 C1176 1.363 . S
C1181 C1180 1.415 . S
H1182 C1179 0.999 . S
H1183 C1164 0.913 . S
H1184 C1202 0.951 . S
H1185 C1204 0.951 . S
H1186 C1206 0.950 . S
H1187 C1207 0.950 . S
H1188 C1209 0.950 . S
H1189 C1212 0.950 . S
H1190 C1213 0.950 . S
H1191 C1215 0.950 . S
H1192 C1216 0.950 . S
H1193 C1217 0.951 . S
H1194 C1219 0.951 . S
H1195 C1221 0.950 . S
H1196 C1222 0.950 . S
H1197 C1224 0.950 . S
H1198 C1227 0.950 . S
H1199 C1228 0.950 . S
H1200 C1230 0.950 . S
H1201 C1231 0.950 . S
C1202 H1184 0.951 . S
C1202 C1203 1.366 . S
C1202 C1204 1.388 . S
C1203 C1202 1.366 . S
C1203 C1207 1.385 . S
C1204 H1185 0.951 . S
C1204 C1202 1.388 . S
C1204 C1205 1.366 . S
C1205 C1204 1.366 . S
C1205 C1206 1.414 . S
C1205 C1208 1.499 . S
C1206 H1186 0.950 . S
C1206 C1205 1.414 . S
C1206 C1207 1.374 . S
C1207 H1187 0.950 . S
C1207 C1203 1.385 . S
C1207 C1206 1.374 . S
C1208 C1205 1.499 . S
C1208 C1209 1.373 . S
C1208 C1210 1.389 . S
C1209 H1188 0.950 . S
C1209 C1208 1.373 . S
C1209 C1225 1.377 . S
C1210 C1208 1.389 . S
C1210 C1211 1.524 . S
C1210 C1224 1.377 . S
C1211 C1210 1.524 . S
C1211 C1212 1.397 . S
C1211 C1216 1.363 . S
C1212 H1189 0.950 . S
C1212 C1211 1.397 . S
C1212 C1213 1.334 . S
C1213 H1190 0.950 . S
C1213 C1212 1.334 . S
C1213 C1214 1.287 . S
C1214 C1213 1.287 . S
C1214 C1215 1.524 . S
C1214 H1233 0.913 . S
C1215 H1191 0.950 . S
C1215 C1214 1.524 . S
C1215 C1216 1.415 . S
C1216 H1192 0.950 . S
C1216 C1211 1.363 . S
C1216 C1215 1.415 . S
C1217 H1193 0.951 . S
C1217 C1218 1.366 . S
C1217 C1219 1.388 . S
C1218 C1217 1.366 . S
C1218 C1222 1.385 . S
C1219 H1194 0.951 . S
C1219 C1217 1.388 . S
C1219 C1220 1.366 . S
C1220 C1219 1.366 . S
C1220 C1221 1.414 . S
C1220 C1223 1.499 . S
C1221 H1195 0.950 . S
C1221 C1220 1.414 . S
C1221 C1222 1.374 . S
C1222 H1196 0.950 . S
C1222 C1218 1.385 . S
C1222 C1221 1.374 . S
C1223 C1220 1.499 . S
C1223 C1224 1.373 . S
C1223 C1225 1.389 . S
C1224 H1197 0.950 . S
C1224 C1210 1.377 . S
C1224 C1223 1.373 . S
C1225 C1209 1.377 . S
C1225 C1223 1.389 . S
C1225 C1226 1.524 . S
C1226 C1225 1.524 . S
C1226 C1227 1.397 . S
C1226 C1231 1.363 . S
C1227 H1198 0.950 . S
C1227 C1226 1.397 . S
C1227 C1228 1.334 . S
C1228 H1199 0.950 . S
C1228 C1227 1.334 . S
C1228 C1229 1.287 . S
C1229 C1228 1.287 . S
C1229 C1230 1.524 . S
C1229 H1232 0.999 . S
C1230 H1200 0.950 . S
C1230 C1229 1.524 . S
C1230 C1231 1.415 . S
C1231 H1201 0.950 . S
C1231 C1226 1.363 . S
C1231 C1230 1.415 . S
H1232 C1229 0.999 . S
H1233 C1214 0.913 . S
H1234 C1252 0.985 . S
H1235 C1254 0.951 1_556 S
H1236 C1256 0.950 . S
H1237 C1257 0.950 . S
H1238 C1259 0.950 . S
H1239 C1262 0.950 . S
H1240 C1263 0.929 1_554 S
H1241 C1265 0.950 . S
H1242 C1266 0.950 . S
H1243 C1267 0.951 . S
H1244 C1269 0.951 . S
H1245 C1271 0.994 . S
H1246 C1272 0.950 . S
H1247 C1274 0.950 1_556 S
H1248 C1277 0.950 . S
H1249 C1278 0.950 . S
H1250 C1280 0.950 . S
H1251 C1281 0.950 . S
C1252 H1234 0.985 . S
C1252 C1253 1.366 . S
C1252 C1254 1.388 . S
C1253 C1252 1.366 . S
C1253 C1257 1.385 . S
C1254 H1235 0.951 1_554 S
C1254 C1252 1.388 . S
C1254 C1255 1.366 . S
C1255 C1254 1.366 . S
C1255 C1256 1.414 . S
C1255 C1258 1.499 . S
C1256 H1236 0.950 . S
C1256 C1255 1.414 . S
C1256 C1257 1.374 . S
C1257 H1237 0.950 . S
C1257 C1253 1.385 . S
C1257 C1256 1.374 . S
C1258 C1255 1.499 . S
C1258 C1259 1.373 . S
C1258 C1260 1.389 . S
C1259 H1238 0.950 . S
C1259 C1258 1.373 . S
C1259 C1275 1.377 . S
C1260 C1258 1.389 . S
C1260 C1261 1.524 1_554 S
C1260 C1274 1.377 . S
C1261 C1260 1.524 1_556 S
C1261 C1262 1.397 1_556 S
C1261 C1266 1.363 . S
C1262 H1239 0.950 . S
C1262 C1261 1.397 1_554 S
C1262 C1263 1.334 1_554 S
C1263 H1240 0.929 1_556 S
C1263 C1262 1.334 1_556 S
C1263 C1264 1.287 . S
C1264 C1263 1.287 . S
C1264 C1265 1.524 . S
C1264 H1283 0.913 . S
C1265 H1241 0.950 . S
C1265 C1264 1.524 . S
C1265 C1266 1.415 . S
C1266 H1242 0.950 . S
C1266 C1261 1.363 . S
C1266 C1265 1.415 . S
C1267 H1243 0.951 . S
C1267 C1268 1.366 . S
C1267 C1269 1.388 . S
C1268 C1267 1.366 . S
C1268 C1272 1.385 1_554 S
C1269 H1244 0.951 . S
C1269 C1267 1.388 . S
C1269 C1270 1.366 . S
C1270 C1269 1.366 . S
C1270 C1271 1.366 1_554 S
C1270 C1273 1.499 . S
C1271 H1245 0.994 . S
C1271 C1270 1.366 1_556 S
C1271 C1272 1.380 . S
C1272 H1246 0.950 . S
C1272 C1268 1.385 1_556 S
C1272 C1271 1.380 . S
C1273 C1270 1.499 . S
C1273 C1274 1.373 . S
C1273 C1275 1.389 . S
C1274 H1247 0.950 1_554 S
C1274 C1260 1.377 . S
C1274 C1273 1.373 . S
C1275 C1259 1.377 . S
C1275 C1273 1.389 . S
C1275 C1276 1.524 . S
C1276 C1275 1.524 . S
C1276 C1277 1.397 . S
C1276 C1281 1.363 . S
C1277 H1248 0.950 . S
C1277 C1276 1.397 . S
C1277 C1278 1.334 . S
C1278 H1249 0.950 . S
C1278 C1277 1.334 . S
C1278 C1279 1.287 . S
C1279 C1278 1.287 . S
C1279 C1280 1.524 . S
C1279 H1282 0.999 . S
C1280 H1250 0.950 . S
C1280 C1279 1.524 . S
C1280 C1281 1.415 . S
C1281 H1251 0.950 . S
C1281 C1276 1.363 . S
C1281 C1280 1.415 . S
H1282 C1279 0.999 . S
H1283 C1264 0.913 . S
H1284 C1302 0.951 . S
H1285 C1304 0.951 . S
H1286 C1306 0.950 . S
H1287 C1307 0.950 . S
H1288 C1309 0.950 . S
H1289 C1312 0.950 . S
H1290 C1313 0.950 . S
H1291 C1315 0.950 . S
H1292 C1316 0.950 . S
H1293 C1317 0.951 . S
H1294 C1319 0.951 . S
H1295 C1321 0.950 . S
H1296 C1322 0.950 . S
H1297 C1324 0.950 . S
H1298 C1327 0.950 . S
H1299 C1328 0.950 . S
H1300 C1330 0.950 . S
H1301 C1331 0.950 . S
C1302 H1284 0.951 . S
C1302 C1303 1.366 . S
C1302 C1304 1.388 . S
C1303 C1302 1.366 . S
C1303 C1307 1.385 . S
C1304 H1285 0.951 . S
C1304 C1302 1.388 . S
C1304 C1305 1.366 . S
C1305 C1304 1.366 . S
C1305 C1306 1.414 . S
C1305 C1308 1.499 . S
C1306 H1286 0.950 . S
C1306 C1305 1.414 . S
C1306 C1307 1.374 . S
C1307 H1287 0.950 . S
C1307 C1303 1.385 . S
C1307 C1306 1.374 . S
C1308 C1305 1.499 . S
C1308 C1309 1.373 . S
C1308 C1310 1.389 . S
C1309 H1288 0.950 . S
C1309 C1308 1.373 . S
C1309 C1325 1.377 . S
C1310 C1308 1.389 . S
C1310 C1311 1.524 . S
C1310 C1324 1.377 . S
C1311 C1310 1.524 . S
C1311 C1312 1.397 . S
C1311 C1316 1.363 . S
C1312 H1289 0.950 . S
C1312 C1311 1.397 . S
C1312 C1313 1.334 . S
C1313 H1290 0.950 . S
C1313 C1312 1.334 . S
C1313 C1314 1.287 . S
C1314 C1313 1.287 . S
C1314 C1315 1.524 . S
C1314 H1333 0.913 . S
C1315 H1291 0.950 . S
C1315 C1314 1.524 . S
C1315 C1316 1.415 . S
C1316 H1292 0.950 . S
C1316 C1311 1.363 . S
C1316 C1315 1.415 . S
C1317 H1293 0.951 . S
C1317 C1318 1.366 . S
C1317 C1319 1.388 . S
C1318 C1317 1.366 . S
C1318 C1322 1.385 . S
C1319 H1294 0.951 . S
C1319 C1317 1.388 . S
C1319 C1320 1.366 . S
C1320 C1319 1.366 . S
C1320 C1321 1.414 . S
C1320 C1323 1.499 . S
C1321 H1295 0.950 . S
C1321 C1320 1.414 . S
C1321 C1322 1.374 . S
C1322 H1296 0.950 . S
C1322 C1318 1.385 . S
C1322 C1321 1.374 . S
C1323 C1320 1.499 . S
C1323 C1324 1.373 . S
C1323 C1325 1.389 . S
C1324 H1297 0.950 . S
C1324 C1310 1.377 . S
C1324 C1323 1.373 . S
C1325 C1309 1.377 . S
C1325 C1323 1.389 . S
C1325 C1326 1.524 . S
C1326 C1325 1.524 . S
C1326 C1327 1.397 . S
C1326 C1331 1.363 . S
C1327 H1298 0.950 . S
C1327 C1326 1.397 . S
C1327 C1328 1.334 . S
C1328 H1299 0.950 . S
C1328 C1327 1.334 . S
C1328 C1329 1.287 . S
C1329 C1328 1.287 . S
C1329 C1330 1.524 . S
C1329 H1332 0.999 . S
C1330 H1300 0.950 . S
C1330 C1329 1.524 . S
C1330 C1331 1.415 . S
C1331 H1301 0.950 . S
C1331 C1326 1.363 . S
C1331 C1330 1.415 . S
H1332 C1329 0.999 . S
H1333 C1314 0.913 . S
H1334 C1352 0.951 . S
H1335 C1354 0.951 . S
H1336 C1356 0.950 . S
H1337 C1357 0.950 . S
H1338 C1359 0.950 . S
H1339 C1362 0.950 . S
H1340 C1363 0.950 . S
H1341 C1365 0.950 . S
H1342 C1366 0.950 . S
H1343 C1367 0.951 . S
H1344 C1369 0.951 . S
H1345 C1371 0.950 . S
H1346 C1372 0.950 . S
H1347 C1374 0.950 . S
H1348 C1377 0.950 . S
H1349 C1378 0.950 . S
H1350 C1380 0.950 . S
H1351 C1381 0.950 . S
C1352 H1334 0.951 . S
C1352 C1353 1.366 . S
C1352 C1354 1.388 . S
C1353 C1352 1.366 . S
C1353 C1357 1.385 . S
C1354 H1335 0.951 . S
C1354 C1352 1.388 . S
C1354 C1355 1.366 . S
C1355 C1354 1.366 . S
C1355 C1356 1.414 . S
C1355 C1358 1.499 . S
C1356 H1336 0.950 . S
C1356 C1355 1.414 . S
C1356 C1357 1.374 . S
C1357 H1337 0.950 . S
C1357 C1353 1.385 . S
C1357 C1356 1.374 . S
C1358 C1355 1.499 . S
C1358 C1359 1.373 . S
C1358 C1360 1.389 . S
C1359 H1338 0.950 . S
C1359 C1358 1.373 . S
C1359 C1375 1.377 . S
C1360 C1358 1.389 . S
C1360 C1361 1.524 . S
C1360 C1374 1.377 . S
C1361 C1360 1.524 . S
C1361 C1362 1.397 . S
C1361 C1366 1.363 . S
C1362 H1339 0.950 . S
C1362 C1361 1.397 . S
C1362 C1363 1.334 . S
C1363 H1340 0.950 . S
C1363 C1362 1.334 . S
C1363 C1364 1.287 . S
C1364 C1363 1.287 . S
C1364 C1365 1.524 . S
C1364 H1383 0.913 . S
C1365 H1341 0.950 . S
C1365 C1364 1.524 . S
C1365 C1366 1.415 . S
C1366 H1342 0.950 . S
C1366 C1361 1.363 . S
C1366 C1365 1.415 . S
C1367 H1343 0.951 . S
C1367 C1368 1.366 . S
C1367 C1369 1.388 . S
C1368 C1367 1.366 . S
C1368 C1372 1.385 . S
C1369 H1344 0.951 . S
C1369 C1367 1.388 . S
C1369 C1370 1.366 . S
C1370 C1369 1.366 . S
C1370 C1371 1.414 . S
C1370 C1373 1.499 . S
C1371 H1345 0.950 . S
C1371 C1370 1.414 . S
C1371 C1372 1.374 . S
C1372 H1346 0.950 . S
C1372 C1368 1.385 . S
C1372 C1371 1.374 . S
C1373 C1370 1.499 . S
C1373 C1374 1.373 . S
C1373 C1375 1.389 . S
C1374 H1347 0.950 . S
C1374 C1360 1.377 . S
C1374 C1373 1.373 . S
C1375 C1359 1.377 . S
C1375 C1373 1.389 . S
C1375 C1376 1.524 . S
C1376 C1375 1.524 . S
C1376 C1377 1.397 . S
C1376 C1381 1.363 . S
C1377 H1348 0.950 . S
C1377 C1376 1.397 . S
C1377 C1378 1.334 . S
C1378 H1349 0.950 . S
C1378 C1377 1.334 . S
C1378 C1379 1.287 . S
C1379 C1378 1.287 . S
C1379 C1380 1.524 . S
C1379 H1382 0.999 . S
C1380 H1350 0.950 . S
C1380 C1379 1.524 . S
C1380 C1381 1.415 . S
C1381 H1351 0.950 . S
C1381 C1376 1.363 . S
C1381 C1380 1.415 . S
H1382 C1379 0.999 . S
H1383 C1364 0.913 . S
H1384 C1402 0.951 . S
H1385 C1404 0.951 . S
H1386 C1406 0.950 . S
H1387 C1407 0.950 . S
H1388 C1409 0.950 . S
H1389 C1412 0.950 . S
H1390 C1413 0.950 . S
H1391 C1415 0.950 . S
H1392 C1416 0.950 . S
H1393 C1417 0.951 . S
H1394 C1419 0.951 . S
H1395 C1421 0.950 . S
H1396 C1422 0.950 . S
H1397 C1424 0.950 . S
H1398 C1427 0.950 . S
H1399 C1428 0.950 . S
H1400 C1430 0.950 . S
H1401 C1431 0.950 . S
C1402 H1384 0.951 . S
C1402 C1403 1.366 . S
C1402 C1404 1.388 . S
C1403 C1402 1.366 . S
C1403 C1407 1.385 . S
C1404 H1385 0.951 . S
C1404 C1402 1.388 . S
C1404 C1405 1.366 . S
C1405 C1404 1.366 . S
C1405 C1406 1.414 . S
C1405 C1408 1.499 . S
C1406 H1386 0.950 . S
C1406 C1405 1.414 . S
C1406 C1407 1.374 . S
C1407 H1387 0.950 . S
C1407 C1403 1.385 . S
C1407 C1406 1.374 . S
C1408 C1405 1.499 . S
C1408 C1409 1.373 . S
C1408 C1410 1.389 . S
C1409 H1388 0.950 . S
C1409 C1408 1.373 . S
C1409 C1425 1.377 . S
C1410 C1408 1.389 . S
C1410 C1411 1.524 . S
C1410 C1424 1.377 . S
C1411 C1410 1.524 . S
C1411 C1412 1.397 . S
C1411 C1416 1.363 . S
C1412 H1389 0.950 . S
C1412 C1411 1.397 . S
C1412 C1413 1.334 . S
C1413 H1390 0.950 . S
C1413 C1412 1.334 . S
C1413 C1414 1.287 . S
C1414 C1413 1.287 . S
C1414 C1415 1.524 . S
C1414 H1433 0.913 . S
C1415 H1391 0.950 . S
C1415 C1414 1.524 . S
C1415 C1416 1.415 . S
C1416 H1392 0.950 . S
C1416 C1411 1.363 . S
C1416 C1415 1.415 . S
C1417 H1393 0.951 . S
C1417 C1418 1.366 . S
C1417 C1419 1.388 . S
C1418 C1417 1.366 . S
C1418 C1422 1.385 . S
C1419 H1394 0.951 . S
C1419 C1417 1.388 . S
C1419 C1420 1.366 . S
C1420 C1419 1.366 . S
C1420 C1421 1.414 . S
C1420 C1423 1.499 . S
C1421 H1395 0.950 . S
C1421 C1420 1.414 . S
C1421 C1422 1.374 . S
C1422 H1396 0.950 . S
C1422 C1418 1.385 . S
C1422 C1421 1.374 . S
C1423 C1420 1.499 . S
C1423 C1424 1.373 . S
C1423 C1425 1.389 . S
C1424 H1397 0.950 . S
C1424 C1410 1.377 . S
C1424 C1423 1.373 . S
C1425 C1409 1.377 . S
C1425 C1423 1.389 . S
C1425 C1426 1.524 . S
C1426 C1425 1.524 . S
C1426 C1427 1.397 . S
C1426 C1431 1.363 . S
C1427 H1398 0.950 . S
C1427 C1426 1.397 . S
C1427 C1428 1.334 . S
C1428 H1399 0.950 . S
C1428 C1427 1.334 . S
C1428 C1429 1.287 . S
C1429 C1428 1.287 . S
C1429 C1430 1.524 . S
C1429 H1432 0.999 . S
C1430 H1400 0.950 . S
C1430 C1429 1.524 . S
C1430 C1431 1.415 . S
C1431 H1401 0.950 . S
C1431 C1426 1.363 . S
C1431 C1430 1.415 . S
H1432 C1429 0.999 . S
H1433 C1414 0.913 . S
H1434 C1452 0.951 . S
H1435 C1454 0.951 . S
H1436 C1456 0.950 . S
H1437 C1457 0.950 . S
H1438 C1459 0.950 . S
H1439 C1462 0.950 . S
H1440 C1463 0.950 . S
H1441 C1465 0.950 . S
H1442 C1466 0.950 . S
H1443 C1467 0.951 . S
H1444 C1469 0.951 . S
H1445 C1471 0.950 . S
H1446 C1472 0.950 . S
H1447 C1474 0.950 . S
H1448 C1477 0.950 . S
H1449 C1478 0.950 . S
H1450 C1480 0.950 . S
H1451 C1481 0.950 . S
C1452 H1434 0.951 . S
C1452 C1453 1.366 . S
C1452 C1454 1.388 . S
C1453 C1452 1.366 . S
C1453 C1457 1.385 . S
C1454 H1435 0.951 . S
C1454 C1452 1.388 . S
C1454 C1455 1.366 . S
C1455 C1454 1.366 . S
C1455 C1456 1.414 . S
C1455 C1458 1.499 . S
C1456 H1436 0.950 . S
C1456 C1455 1.414 . S
C1456 C1457 1.374 . S
C1457 H1437 0.950 . S
C1457 C1453 1.385 . S
C1457 C1456 1.374 . S
C1458 C1455 1.499 . S
C1458 C1459 1.373 . S
C1458 C1460 1.389 . S
C1459 H1438 0.950 . S
C1459 C1458 1.373 . S
C1459 C1475 1.377 . S
C1460 C1458 1.389 . S
C1460 C1461 1.524 . S
C1460 C1474 1.377 . S
C1461 C1460 1.524 . S
C1461 C1462 1.397 . S
C1461 C1466 1.363 . S
C1462 H1439 0.950 . S
C1462 C1461 1.397 . S
C1462 C1463 1.334 . S
C1463 H1440 0.950 . S
C1463 C1462 1.334 . S
C1463 C1464 1.287 . S
C1464 C1463 1.287 . S
C1464 C1465 1.524 . S
C1464 H1483 0.913 . S
C1465 H1441 0.950 . S
C1465 C1464 1.524 . S
C1465 C1466 1.415 . S
C1466 H1442 0.950 . S
C1466 C1461 1.363 . S
C1466 C1465 1.415 . S
C1467 H1443 0.951 . S
C1467 C1468 1.366 . S
C1467 C1469 1.388 . S
C1468 C1467 1.366 . S
C1468 C1472 1.385 . S
C1469 H1444 0.951 . S
C1469 C1467 1.388 . S
C1469 C1470 1.366 . S
C1470 C1469 1.366 . S
C1470 C1471 1.414 . S
C1470 C1473 1.499 . S
C1471 H1445 0.950 . S
C1471 C1470 1.414 . S
C1471 C1472 1.374 . S
C1472 H1446 0.950 . S
C1472 C1468 1.385 . S
C1472 C1471 1.374 . S
C1473 C1470 1.499 . S
C1473 C1474 1.373 . S
C1473 C1475 1.389 . S
C1474 H1447 0.950 . S
C1474 C1460 1.377 . S
C1474 C1473 1.373 . S
C1475 C1459 1.377 . S
C1475 C1473 1.389 . S
C1475 C1476 1.524 . S
C1476 C1475 1.524 . S
C1476 C1477 1.397 . S
C1476 C1481 1.363 . S
C1477 H1448 0.950 . S
C1477 C1476 1.397 . S
C1477 C1478 1.334 . S
C1478 H1449 0.950 . S
C1478 C1477 1.334 . S
C1478 C1479 1.287 . S
C1479 C1478 1.287 . S
C1479 C1480 1.524 . S
C1479 H1482 0.999 . S
C1480 H1450 0.950 . S
C1480 C1479 1.524 . S
C1480 C1481 1.415 . S
C1481 H1451 0.950 . S
C1481 C1476 1.363 . S
C1481 C1480 1.415 . S
H1482 C1479 0.999 . S
H1483 C1464 0.913 . S
H1484 C1502 0.951 . S
H1485 C1504 0.951 . S
H1486 C1506 0.950 1_554 S
H1487 C1507 0.919 1_554 S
H1488 C1509 0.950 . S
H1489 C1512 0.950 . S
H1490 C1513 0.950 . S
H1491 C1515 0.950 . S
H1492 C1516 0.950 . S
H1493 C1517 0.951 . S
H1494 C1519 0.951 . S
H1495 C1521 0.950 . S
H1496 C1522 0.950 . S
H1497 C1524 0.950 . S
H1498 C1527 0.950 . S
H1499 C1528 0.950 . S
H1500 C1530 0.914 1_554 S
H1501 C1531 0.950 1_554 S
C1502 H1484 0.951 . S
C1502 C1503 1.366 . S
C1502 C1504 1.388 . S
C1503 C1502 1.366 . S
C1503 C1507 1.385 . S
C1504 H1485 0.951 . S
C1504 C1502 1.388 . S
C1504 C1505 1.366 . S
C1505 C1504 1.366 . S
C1505 C1506 1.414 . S
C1505 C1508 1.499 . S
C1506 H1486 0.950 1_556 S
C1506 C1505 1.414 . S
C1506 C1507 1.374 . S
C1507 H1487 0.919 1_556 S
C1507 C1503 1.385 . S
C1507 C1506 1.374 . S
C1508 C1505 1.499 . S
C1508 C1509 1.373 . S
C1508 C1510 1.389 . S
C1509 H1488 0.950 . S
C1509 C1508 1.373 . S
C1509 C1525 1.377 . S
C1510 C1508 1.389 . S
C1510 C1511 1.524 . S
C1510 C1524 1.377 . S
C1511 C1510 1.524 . S
C1511 C1512 1.397 1_556 S
C1511 C1516 1.363 . S
C1512 H1489 0.950 . S
C1512 C1511 1.397 1_554 S
C1512 C1513 1.334 . S
C1513 H1490 0.950 . S
C1513 C1512 1.334 . S
C1513 C1514 1.301 . S
C1514 C1513 1.301 . S
C1514 C1515 1.504 1_554 S
C1514 H1533 0.918 . S
C1515 H1491 0.950 . S
C1515 C1514 1.504 1_556 S
C1515 C1516 1.415 . S
C1516 H1492 0.950 . S
C1516 C1511 1.363 . S
C1516 C1515 1.415 . S
C1517 H1493 0.951 . S
C1517 C1518 1.366 1_554 S
C1517 C1519 1.388 . S
C1518 C1517 1.366 1_556 S
C1518 C1522 1.385 . S
C1519 H1494 0.951 . S
C1519 C1517 1.388 . S
C1519 C1520 1.366 1_554 S
C1520 C1519 1.366 1_556 S
C1520 C1521 1.414 . S
C1520 C1523 1.499 . S
C1521 H1495 0.950 . S
C1521 C1520 1.414 . S
C1521 C1522 1.374 . S
C1522 H1496 0.950 . S
C1522 C1518 1.385 . S
C1522 C1521 1.374 . S
C1523 C1520 1.499 . S
C1523 C1524 1.373 . S
C1523 C1525 1.389 . S
C1524 H1497 0.950 . S
C1524 C1510 1.377 . S
C1524 C1523 1.373 . S
C1525 C1509 1.377 . S
C1525 C1523 1.389 . S
C1525 C1526 1.524 . S
C1526 C1525 1.524 . S
C1526 C1527 1.397 . S
C1526 C1531 1.363 . S
C1527 H1498 0.950 . S
C1527 C1526 1.397 . S
C1527 C1528 1.334 . S
C1528 H1499 0.950 . S
C1528 C1527 1.334 . S
C1528 C1529 1.287 . S
C1529 C1528 1.287 . S
C1529 C1530 1.524 . S
C1529 H1532 0.999 . S
C1530 H1500 0.914 1_556 S
C1530 C1529 1.524 . S
C1530 C1531 1.415 . S
C1531 H1501 0.950 1_556 S
C1531 C1526 1.363 . S
C1531 C1530 1.415 . S
H1532 C1529 0.999 . S
H1533 C1514 0.918 . S
H1534 C1552 0.951 . S
H1535 C1554 0.951 . S
H1536 C1556 0.950 . S
H1537 C1557 0.950 . S
H1538 C1559 0.950 . S
H1539 C1562 0.950 . S
H1540 C1563 0.950 . S
H1541 C1565 0.950 . S
H1542 C1566 0.950 . S
H1543 C1567 0.951 . S
H1544 C1569 0.951 . S
H1545 C1571 0.950 . S
H1546 C1572 0.950 . S
H1547 C1574 0.950 . S
H1548 C1577 0.950 . S
H1549 C1578 0.950 . S
H1550 C1580 0.950 . S
H1551 C1581 0.950 . S
C1552 H1534 0.951 . S
C1552 C1553 1.366 . S
C1552 C1554 1.388 . S
C1553 C1552 1.366 . S
C1553 C1557 1.385 . S
C1554 H1535 0.951 . S
C1554 C1552 1.388 . S
C1554 C1555 1.366 . S
C1555 C1554 1.366 . S
C1555 C1556 1.414 . S
C1555 C1558 1.499 . S
C1556 H1536 0.950 . S
C1556 C1555 1.414 . S
C1556 C1557 1.374 . S
C1557 H1537 0.950 . S
C1557 C1553 1.385 . S
C1557 C1556 1.374 . S
C1558 C1555 1.499 . S
C1558 C1559 1.373 . S
C1558 C1560 1.389 . S
C1559 H1538 0.950 . S
C1559 C1558 1.373 . S
C1559 C1575 1.377 . S
C1560 C1558 1.389 . S
C1560 C1561 1.524 . S
C1560 C1574 1.377 . S
C1561 C1560 1.524 . S
C1561 C1562 1.397 . S
C1561 C1566 1.363 . S
C1562 H1539 0.950 . S
C1562 C1561 1.397 . S
C1562 C1563 1.334 . S
C1563 H1540 0.950 . S
C1563 C1562 1.334 . S
C1563 C1564 1.287 . S
C1564 C1563 1.287 . S
C1564 C1565 1.524 . S
C1564 H1583 0.913 . S
C1565 H1541 0.950 . S
C1565 C1564 1.524 . S
C1565 C1566 1.415 . S
C1566 H1542 0.950 . S
C1566 C1561 1.363 . S
C1566 C1565 1.415 . S
C1567 H1543 0.951 . S
C1567 C1568 1.366 . S
C1567 C1569 1.388 . S
C1568 C1567 1.366 . S
C1568 C1572 1.385 . S
C1569 H1544 0.951 . S
C1569 C1567 1.388 . S
C1569 C1570 1.366 . S
C1570 C1569 1.366 . S
C1570 C1571 1.414 . S
C1570 C1573 1.499 . S
C1571 H1545 0.950 . S
C1571 C1570 1.414 . S
C1571 C1572 1.374 . S
C1572 H1546 0.950 . S
C1572 C1568 1.385 . S
C1572 C1571 1.374 . S
C1573 C1570 1.499 . S
C1573 C1574 1.373 . S
C1573 C1575 1.389 . S
C1574 H1547 0.950 . S
C1574 C1560 1.377 . S
C1574 C1573 1.373 . S
C1575 C1559 1.377 . S
C1575 C1573 1.389 . S
C1575 C1576 1.524 . S
C1576 C1575 1.524 . S
C1576 C1577 1.397 . S
C1576 C1581 1.363 . S
C1577 H1548 0.950 . S
C1577 C1576 1.397 . S
C1577 C1578 1.334 . S
C1578 H1549 0.950 . S
C1578 C1577 1.334 . S
C1578 C1579 1.287 . S
C1579 C1578 1.287 . S
C1579 C1580 1.524 . S
C1579 H1582 0.999 . S
C1580 H1550 0.950 . S
C1580 C1579 1.524 . S
C1580 C1581 1.415 . S
C1581 H1551 0.950 . S
C1581 C1576 1.363 . S
C1581 C1580 1.415 . S
H1582 C1579 0.999 . S
H1583 C1564 0.913 . S
H1584 C1602 0.951 . S
H1585 C1604 0.951 . S
H1586 C1606 0.950 . S
H1587 C1607 0.950 . S
H1588 C1609 0.950 . S
H1589 C1612 0.950 . S
H1590 C1613 0.950 . S
H1591 C1615 0.950 . S
H1592 C1616 0.950 . S
H1593 C1617 0.951 . S
H1594 C1619 0.951 . S
H1595 C1621 0.950 . S
H1596 C1622 0.950 . S
H1597 C1624 0.950 . S
H1598 C1627 0.950 . S
H1599 C1628 0.950 . S
H1600 C1630 0.950 . S
H1601 C1631 0.950 . S
C1602 H1584 0.951 . S
C1602 C1603 1.366 . S
C1602 C1604 1.388 . S
C1603 C1602 1.366 . S
C1603 C1607 1.385 . S
C1604 H1585 0.951 . S
C1604 C1602 1.388 . S
C1604 C1605 1.366 . S
C1605 C1604 1.366 . S
C1605 C1606 1.414 . S
C1605 C1608 1.499 . S
C1606 H1586 0.950 . S
C1606 C1605 1.414 . S
C1606 C1607 1.374 . S
C1607 H1587 0.950 . S
C1607 C1603 1.385 . S
C1607 C1606 1.374 . S
C1608 C1605 1.499 . S
C1608 C1609 1.373 . S
C1608 C1610 1.389 . S
C1609 H1588 0.950 . S
C1609 C1608 1.373 . S
C1609 C1625 1.377 . S
C1610 C1608 1.389 . S
C1610 C1611 1.524 . S
C1610 C1624 1.377 . S
C1611 C1610 1.524 . S
C1611 C1612 1.397 . S
C1611 C1616 1.363 . S
C1612 H1589 0.950 . S
C1612 C1611 1.397 . S
C1612 C1613 1.334 . S
C1613 H1590 0.950 . S
C1613 C1612 1.334 . S
C1613 C1614 1.287 . S
C1614 C1613 1.287 . S
C1614 C1615 1.524 . S
C1614 H1633 0.913 . S
C1615 H1591 0.950 . S
C1615 C1614 1.524 . S
C1615 C1616 1.415 . S
C1616 H1592 0.950 . S
C1616 C1611 1.363 . S
C1616 C1615 1.415 . S
C1617 H1593 0.951 . S
C1617 C1618 1.366 . S
C1617 C1619 1.388 . S
C1618 C1617 1.366 . S
C1618 C1622 1.385 . S
C1619 H1594 0.951 . S
C1619 C1617 1.388 . S
C1619 C1620 1.366 . S
C1620 C1619 1.366 . S
C1620 C1621 1.414 . S
C1620 C1623 1.499 . S
C1621 H1595 0.950 . S
C1621 C1620 1.414 . S
C1621 C1622 1.374 . S
C1622 H1596 0.950 . S
C1622 C1618 1.385 . S
C1622 C1621 1.374 . S
C1623 C1620 1.499 . S
C1623 C1624 1.373 . S
C1623 C1625 1.389 . S
C1624 H1597 0.950 . S
C1624 C1610 1.377 . S
C1624 C1623 1.373 . S
C1625 C1609 1.377 . S
C1625 C1623 1.389 . S
C1625 C1626 1.524 . S
C1626 C1625 1.524 . S
C1626 C1627 1.397 . S
C1626 C1631 1.363 . S
C1627 H1598 0.950 . S
C1627 C1626 1.397 . S
C1627 C1628 1.334 . S
C1628 H1599 0.950 . S
C1628 C1627 1.334 . S
C1628 C1629 1.287 . S
C1629 C1628 1.287 . S
C1629 C1630 1.524 . S
C1629 H1632 0.999 . S
C1630 H1600 0.950 . S
C1630 C1629 1.524 . S
C1630 C1631 1.415 . S
C1631 H1601 0.950 . S
C1631 C1626 1.363 . S
C1631 C1630 1.415 . S
H1632 C1629 0.999 . S
H1633 C1614 0.913 . S
H1634 C1652 0.951 . S
H1635 C1654 0.951 . S
H1636 C1656 0.950 . S
H1637 C1657 0.950 . S
H1638 C1659 0.950 . S
H1639 C1662 0.950 . S
H1640 C1663 0.950 . S
H1641 C1665 0.950 . S
H1642 C1666 0.950 . S
H1643 C1667 0.951 . S
H1644 C1669 0.951 . S
H1645 C1671 0.950 . S
H1646 C1672 0.950 . S
H1647 C1674 0.950 . S
H1648 C1677 0.950 . S
H1649 C1678 0.950 . S
H1650 C1680 0.950 . S
H1651 C1681 0.950 . S
C1652 H1634 0.951 . S
C1652 C1653 1.366 . S
C1652 C1654 1.388 . S
C1653 C1652 1.366 . S
C1653 C1657 1.385 . S
C1654 H1635 0.951 . S
C1654 C1652 1.388 . S
C1654 C1655 1.366 . S
C1655 C1654 1.366 . S
C1655 C1656 1.414 . S
C1655 C1658 1.499 . S
C1656 H1636 0.950 . S
C1656 C1655 1.414 . S
C1656 C1657 1.374 . S
C1657 H1637 0.950 . S
C1657 C1653 1.385 . S
C1657 C1656 1.374 . S
C1658 C1655 1.499 . S
C1658 C1659 1.373 . S
C1658 C1660 1.389 . S
C1659 H1638 0.950 . S
C1659 C1658 1.373 . S
C1659 C1675 1.377 . S
C1660 C1658 1.389 . S
C1660 C1661 1.524 . S
C1660 C1674 1.377 . S
C1661 C1660 1.524 . S
C1661 C1662 1.397 . S
C1661 C1666 1.363 . S
C1662 H1639 0.950 . S
C1662 C1661 1.397 . S
C1662 C1663 1.334 . S
C1663 H1640 0.950 . S
C1663 C1662 1.334 . S
C1663 C1664 1.287 . S
C1664 C1663 1.287 . S
C1664 C1665 1.524 . S
C1664 H1683 0.913 . S
C1665 H1641 0.950 . S
C1665 C1664 1.524 . S
C1665 C1666 1.415 . S
C1666 H1642 0.950 . S
C1666 C1661 1.363 . S
C1666 C1665 1.415 . S
C1667 H1643 0.951 . S
C1667 C1668 1.366 . S
C1667 C1669 1.388 . S
C1668 C1667 1.366 . S
C1668 C1672 1.385 . S
C1669 H1644 0.951 . S
C1669 C1667 1.388 . S
C1669 C1670 1.366 . S
C1670 C1669 1.366 . S
C1670 C1671 1.414 . S
C1670 C1673 1.499 . S
C1671 H1645 0.950 . S
C1671 C1670 1.414 . S
C1671 C1672 1.374 . S
C1672 H1646 0.950 . S
C1672 C1668 1.385 . S
C1672 C1671 1.374 . S
C1673 C1670 1.499 . S
C1673 C1674 1.373 . S
C1673 C1675 1.389 . S
C1674 H1647 0.950 . S
C1674 C1660 1.377 . S
C1674 C1673 1.373 . S
C1675 C1659 1.377 . S
C1675 C1673 1.389 . S
C1675 C1676 1.524 . S
C1676 C1675 1.524 . S
C1676 C1677 1.397 . S
C1676 C1681 1.363 . S
C1677 H1648 0.950 . S
C1677 C1676 1.397 . S
C1677 C1678 1.334 . S
C1678 H1649 0.950 . S
C1678 C1677 1.334 . S
C1678 C1679 1.287 . S
C1679 C1678 1.287 . S
C1679 C1680 1.524 . S
C1679 H1682 0.999 . S
C1680 H1650 0.950 . S
C1680 C1679 1.524 . S
C1680 C1681 1.415 . S
C1681 H1651 0.950 . S
C1681 C1676 1.363 . S
C1681 C1680 1.415 . S
H1682 C1679 0.999 . S
H1683 C1664 0.913 . S
H1684 C1702 0.951 . S
H1685 C1704 0.951 . S
H1686 C1706 0.950 . S
H1687 C1707 0.950 . S
H1688 C1709 0.950 . S
H1689 C1712 0.950 . S
H1690 C1713 0.950 . S
H1691 C1715 0.950 . S
H1692 C1716 0.950 . S
H1693 C1717 0.951 . S
H1694 C1719 0.951 . S
H1695 C1721 0.950 . S
H1696 C1722 0.950 . S
H1697 C1724 0.950 . S
H1698 C1727 0.950 . S
H1699 C1728 0.950 . S
H1700 C1730 0.950 . S
H1701 C1731 0.950 . S
C1702 H1684 0.951 . S
C1702 C1703 1.366 . S
C1702 C1704 1.388 . S
C1703 C1702 1.366 . S
C1703 C1707 1.385 . S
C1704 H1685 0.951 . S
C1704 C1702 1.388 . S
C1704 C1705 1.366 . S
C1705 C1704 1.366 . S
C1705 C1706 1.414 . S
C1705 C1708 1.499 . S
C1706 H1686 0.950 . S
C1706 C1705 1.414 . S
C1706 C1707 1.374 . S
C1707 H1687 0.950 . S
C1707 C1703 1.385 . S
C1707 C1706 1.374 . S
C1708 C1705 1.499 . S
C1708 C1709 1.373 . S
C1708 C1710 1.389 . S
C1709 H1688 0.950 . S
C1709 C1708 1.373 . S
C1709 C1725 1.377 . S
C1710 C1708 1.389 . S
C1710 C1711 1.524 . S
C1710 C1724 1.377 . S
C1711 C1710 1.524 . S
C1711 C1712 1.397 . S
C1711 C1716 1.363 . S
C1712 H1689 0.950 . S
C1712 C1711 1.397 . S
C1712 C1713 1.334 . S
C1713 H1690 0.950 . S
C1713 C1712 1.334 . S
C1713 C1714 1.287 . S
C1714 C1713 1.287 . S
C1714 C1715 1.524 . S
C1714 H1733 0.913 . S
C1715 H1691 0.950 . S
C1715 C1714 1.524 . S
C1715 C1716 1.415 . S
C1716 H1692 0.950 . S
C1716 C1711 1.363 . S
C1716 C1715 1.415 . S
C1717 H1693 0.951 . S
C1717 C1718 1.366 . S
C1717 C1719 1.388 . S
C1718 C1717 1.366 . S
C1718 C1722 1.385 . S
C1719 H1694 0.951 . S
C1719 C1717 1.388 . S
C1719 C1720 1.366 . S
C1720 C1719 1.366 . S
C1720 C1721 1.414 . S
C1720 C1723 1.499 . S
C1721 H1695 0.950 . S
C1721 C1720 1.414 . S
C1721 C1722 1.374 . S
C1722 H1696 0.950 . S
C1722 C1718 1.385 . S
C1722 C1721 1.374 . S
C1723 C1720 1.499 . S
C1723 C1724 1.373 . S
C1723 C1725 1.389 . S
C1724 H1697 0.950 . S
C1724 C1710 1.377 . S
C1724 C1723 1.373 . S
C1725 C1709 1.377 . S
C1725 C1723 1.389 . S
C1725 C1726 1.524 . S
C1726 C1725 1.524 . S
C1726 C1727 1.397 . S
C1726 C1731 1.363 . S
C1727 H1698 0.950 . S
C1727 C1726 1.397 . S
C1727 C1728 1.334 . S
C1728 H1699 0.950 . S
C1728 C1727 1.334 . S
C1728 C1729 1.287 . S
C1729 C1728 1.287 . S
C1729 C1730 1.524 . S
C1729 H1732 0.999 . S
C1730 H1700 0.950 . S
C1730 C1729 1.524 . S
C1730 C1731 1.415 . S
C1731 H1701 0.950 . S
C1731 C1726 1.363 . S
C1731 C1730 1.415 . S
H1732 C1729 0.999 . S
H1733 C1714 0.913 . S
H1734 C1752 0.951 . S
H1735 C1754 0.951 . S
H1736 C1756 0.950 . S
H1737 C1757 0.950 . S
H1738 C1759 0.950 . S
H1739 C1762 0.950 . S
H1740 C1763 0.950 . S
H1741 C1765 0.950 . S
H1742 C1766 0.950 . S
H1743 C1767 0.951 . S
H1744 C1769 0.951 . S
H1745 C1771 0.950 . S
H1746 C1772 0.950 . S
H1747 C1774 0.950 . S
H1748 C1777 0.950 . S
H1749 C1778 0.950 . S
H1750 C1780 0.950 . S
H1751 C1781 0.950 . S
C1752 H1734 0.951 . S
C1752 C1753 1.366 . S
C1752 C1754 1.388 . S
C1753 C1752 1.366 . S
C1753 C1757 1.385 . S
C1754 H1735 0.951 . S
C1754 C1752 1.388 . S
C1754 C1755 1.366 . S
C1755 C1754 1.366 . S
C1755 C1756 1.414 . S
C1755 C1758 1.499 . S
C1756 H1736 0.950 . S
C1756 C1755 1.414 . S
C1756 C1757 1.374 . S
C1757 H1737 0.950 . S
C1757 C1753 1.385 . S
C1757 C1756 1.374 . S
C1758 C1755 1.499 . S
C1758 C1759 1.373 . S
C1758 C1760 1.389 . S
C1759 H1738 0.950 . S
C1759 C1758 1.373 . S
C1759 C1775 1.377 . S
C1760 C1758 1.389 . S
C1760 C1761 1.524 . S
C1760 C1774 1.377 . S
C1761 C1760 1.524 . S
C1761 C1762 1.397 . S
C1761 C1766 1.363 . S
C1762 H1739 0.950 . S
C1762 C1761 1.397 . S
C1762 C1763 1.334 . S
C1763 H1740 0.950 . S
C1763 C1762 1.334 . S
C1763 C1764 1.287 . S
C1764 C1763 1.287 . S
C1764 C1765 1.524 . S
C1764 H1783 0.913 . S
C1765 H1741 0.950 . S
C1765 C1764 1.524 . S
C1765 C1766 1.415 . S
C1766 H1742 0.950 . S
C1766 C1761 1.363 . S
C1766 C1765 1.415 . S
C1767 H1743 0.951 . S
C1767 C1768 1.366 . S
C1767 C1769 1.388 . S
C1768 C1767 1.366 . S
C1768 C1772 1.385 . S
C1769 H1744 0.951 . S
C1769 C1767 1.388 . S
C1769 C1770 1.366 . S
C1770 C1769 1.366 . S
C1770 C1771 1.414 . S
C1770 C1773 1.499 . S
C1771 H1745 0.950 . S
C1771 C1770 1.414 . S
C1771 C1772 1.374 . S
C1772 H1746 0.950 . S
C1772 C1768 1.385 . S
C1772 C1771 1.374 . S
C1773 C1770 1.499 . S
C1773 C1774 1.373 . S
C1773 C1775 1.389 . S
C1774 H1747 0.950 . S
C1774 C1760 1.377 . S
C1774 C1773 1.373 . S
C1775 C1759 1.377 . S
C1775 C1773 1.389 . S
C1775 C1776 1.524 . S
C1776 C1775 1.524 . S
C1776 C1777 1.397 . S
C1776 C1781 1.363 . S
C1777 H1748 0.950 . S
C1777 C1776 1.397 . S
C1777 C1778 1.334 . S
C1778 H1749 0.950 . S
C1778 C1777 1.334 . S
C1778 C1779 1.287 . S
C1779 C1778 1.287 . S
C1779 C1780 1.524 . S
C1779 H1782 0.999 . S
C1780 H1750 0.950 . S
C1780 C1779 1.524 . S
C1780 C1781 1.415 . S
C1781 H1751 0.950 . S
C1781 C1776 1.363 . S
C1781 C1780 1.415 . S
H1782 C1779 0.999 . S
H1783 C1764 0.913 . S
H1784 C1802 0.951 . S
H1785 C1804 0.951 . S
H1786 C1806 0.950 . S
H1787 C1807 0.950 . S
H1788 C1809 0.950 . S
H1789 C1812 0.950 . S
H1790 C1813 0.950 . S
H1791 C1815 0.950 . S
H1792 C1816 0.950 . S
H1793 C1817 0.951 . S
H1794 C1819 0.951 . S
H1795 C1821 0.950 . S
H1796 C1822 0.950 . S
H1797 C1824 0.950 . S
H1798 C1827 0.950 . S
H1799 C1828 0.950 . S
H1800 C1830 0.950 . S
H1801 C1831 0.950 . S
C1802 H1784 0.951 . S
C1802 C1803 1.366 . S
C1802 C1804 1.388 . S
C1803 C1802 1.366 . S
C1803 C1807 1.385 . S
C1804 H1785 0.951 . S
C1804 C1802 1.388 . S
C1804 C1805 1.366 . S
C1805 C1804 1.366 . S
C1805 C1806 1.414 . S
C1805 C1808 1.499 . S
C1806 H1786 0.950 . S
C1806 C1805 1.414 . S
C1806 C1807 1.374 . S
C1807 H1787 0.950 . S
C1807 C1803 1.385 . S
C1807 C1806 1.374 . S
C1808 C1805 1.499 . S
C1808 C1809 1.373 . S
C1808 C1810 1.389 . S
C1809 H1788 0.950 . S
C1809 C1808 1.373 . S
C1809 C1825 1.377 . S
C1810 C1808 1.389 . S
C1810 C1811 1.524 . S
C1810 C1824 1.377 . S
C1811 C1810 1.524 . S
C1811 C1812 1.397 . S
C1811 C1816 1.363 . S
C1812 H1789 0.950 . S
C1812 C1811 1.397 . S
C1812 C1813 1.334 . S
C1813 H1790 0.950 . S
C1813 C1812 1.334 . S
C1813 C1814 1.287 . S
C1814 C1813 1.287 . S
C1814 C1815 1.524 . S
C1814 H1833 0.913 . S
C1815 H1791 0.950 . S
C1815 C1814 1.524 . S
C1815 C1816 1.415 . S
C1816 H1792 0.950 . S
C1816 C1811 1.363 . S
C1816 C1815 1.415 . S
C1817 H1793 0.951 . S
C1817 C1818 1.366 . S
C1817 C1819 1.388 . S
C1818 C1817 1.366 . S
C1818 C1822 1.385 . S
C1819 H1794 0.951 . S
C1819 C1817 1.388 . S
C1819 C1820 1.366 . S
C1820 C1819 1.366 . S
C1820 C1821 1.414 . S
C1820 C1823 1.499 . S
C1821 H1795 0.950 . S
C1821 C1820 1.414 . S
C1821 C1822 1.374 . S
C1822 H1796 0.950 . S
C1822 C1818 1.385 . S
C1822 C1821 1.374 . S
C1823 C1820 1.499 . S
C1823 C1824 1.373 . S
C1823 C1825 1.389 . S
C1824 H1797 0.950 . S
C1824 C1810 1.377 . S
C1824 C1823 1.373 . S
C1825 C1809 1.377 . S
C1825 C1823 1.389 . S
C1825 C1826 1.524 . S
C1826 C1825 1.524 . S
C1826 C1827 1.397 . S
C1826 C1831 1.363 . S
C1827 H1798 0.950 . S
C1827 C1826 1.397 . S
C1827 C1828 1.334 . S
C1828 H1799 0.950 . S
C1828 C1827 1.334 . S
C1828 C1829 1.287 . S
C1829 C1828 1.287 . S
C1829 C1830 1.524 . S
C1829 H1832 0.999 . S
C1830 H1800 0.950 . S
C1830 C1829 1.524 . S
C1830 C1831 1.415 . S
C1831 H1801 0.950 . S
C1831 C1826 1.363 . S
C1831 C1830 1.415 . S
H1832 C1829 0.999 . S
H1833 C1814 0.913 . S
H1834 C1852 0.951 . S
H1835 C1854 0.951 . S
H1836 C1856 0.950 . S
H1837 C1857 0.950 . S
H1838 C1859 0.950 . S
H1839 C1862 0.950 . S
H1840 C1863 0.950 . S
H1841 C1865 0.950 . S
H1842 C1866 0.950 . S
H1843 C1867 0.951 . S
H1844 C1869 0.951 . S
H1845 C1871 0.950 . S
H1846 C1872 0.950 . S
H1847 C1874 0.950 . S
H1848 C1877 0.950 . S
H1849 C1878 0.950 . S
H1850 C1880 0.950 . S
H1851 C1881 0.950 . S
C1852 H1834 0.951 . S
C1852 C1853 1.366 . S
C1852 C1854 1.388 . S
C1853 C1852 1.366 . S
C1853 C1857 1.385 . S
C1854 H1835 0.951 . S
C1854 C1852 1.388 . S
C1854 C1855 1.366 . S
C1855 C1854 1.366 . S
C1855 C1856 1.414 . S
C1855 C1858 1.499 . S
C1856 H1836 0.950 . S
C1856 C1855 1.414 . S
C1856 C1857 1.374 . S
C1857 H1837 0.950 . S
C1857 C1853 1.385 . S
C1857 C1856 1.374 . S
C1858 C1855 1.499 . S
C1858 C1859 1.373 . S
C1858 C1860 1.389 . S
C1859 H1838 0.950 . S
C1859 C1858 1.373 . S
C1859 C1875 1.377 . S
C1860 C1858 1.389 . S
C1860 C1861 1.524 . S
C1860 C1874 1.377 . S
C1861 C1860 1.524 . S
C1861 C1862 1.397 . S
C1861 C1866 1.363 . S
C1862 H1839 0.950 . S
C1862 C1861 1.397 . S
C1862 C1863 1.334 . S
C1863 H1840 0.950 . S
C1863 C1862 1.334 . S
C1863 C1864 1.287 . S
C1864 C1863 1.287 . S
C1864 C1865 1.524 . S
C1864 H1883 0.913 . S
C1865 H1841 0.950 . S
C1865 C1864 1.524 . S
C1865 C1866 1.415 . S
C1866 H1842 0.950 . S
C1866 C1861 1.363 . S
C1866 C1865 1.415 . S
C1867 H1843 0.951 . S
C1867 C1868 1.366 . S
C1867 C1869 1.388 . S
C1868 C1867 1.366 . S
C1868 C1872 1.385 . S
C1869 H1844 0.951 . S
C1869 C1867 1.388 . S
C1869 C1870 1.366 . S
C1870 C1869 1.366 . S
C1870 C1871 1.414 . S
C1870 C1873 1.499 . S
C1871 H1845 0.950 . S
C1871 C1870 1.414 . S
C1871 C1872 1.374 . S
C1872 H1846 0.950 . S
C1872 C1868 1.385 . S
C1872 C1871 1.374 . S
C1873 C1870 1.499 . S
C1873 C1874 1.373 . S
C1873 C1875 1.389 . S
C1874 H1847 0.950 . S
C1874 C1860 1.377 . S
C1874 C1873 1.373 . S
C1875 C1859 1.377 . S
C1875 C1873 1.389 . S
C1875 C1876 1.524 . S
C1876 C1875 1.524 . S
C1876 C1877 1.397 . S
C1876 C1881 1.363 . S
C1877 H1848 0.950 . S
C1877 C1876 1.397 . S
C1877 C1878 1.334 . S
C1878 H1849 0.950 . S
C1878 C1877 1.334 . S
C1878 C1879 1.287 . S
C1879 C1878 1.287 . S
C1879 C1880 1.524 . S
C1879 H1882 0.999 . S
C1880 H1850 0.950 . S
C1880 C1879 1.524 . S
C1880 C1881 1.415 . S
C1881 H1851 0.950 . S
C1881 C1876 1.363 . S
C1881 C1880 1.415 . S
H1882 C1879 0.999 . S
H1883 C1864 0.913 . S
H1884 C1902 0.951 . S
H1885 C1904 0.951 . S
H1886 C1906 0.950 . S
H1887 C1907 0.950 . S
H1888 C1909 0.950 . S
H1889 C1912 0.950 . S
H1890 C1913 0.950 . S
H1891 C1915 0.950 . S
H1892 C1916 0.950 . S
H1893 C1917 0.951 . S
H1894 C1919 0.951 . S
H1895 C1921 0.950 . S
H1896 C1922 0.950 . S
H1897 C1924 0.950 . S
H1898 C1927 0.950 . S
H1899 C1928 0.950 . S
H1900 C1930 0.950 . S
H1901 C1931 0.950 . S
C1902 H1884 0.951 . S
C1902 C1903 1.366 . S
C1902 C1904 1.388 . S
C1903 C1902 1.366 . S
C1903 C1907 1.385 . S
C1904 H1885 0.951 . S
C1904 C1902 1.388 . S
C1904 C1905 1.366 . S
C1905 C1904 1.366 . S
C1905 C1906 1.414 . S
C1905 C1908 1.499 . S
C1906 H1886 0.950 . S
C1906 C1905 1.414 . S
C1906 C1907 1.374 . S
C1907 H1887 0.950 . S
C1907 C1903 1.385 . S
C1907 C1906 1.374 . S
C1908 C1905 1.499 . S
C1908 C1909 1.373 . S
C1908 C1910 1.389 . S
C1909 H1888 0.950 . S
C1909 C1908 1.373 . S
C1909 C1925 1.377 . S
C1910 C1908 1.389 . S
C1910 C1911 1.524 . S
C1910 C1924 1.377 . S
C1911 C1910 1.524 . S
C1911 C1912 1.397 . S
C1911 C1916 1.363 . S
C1912 H1889 0.950 . S
C1912 C1911 1.397 . S
C1912 C1913 1.334 . S
C1913 H1890 0.950 . S
C1913 C1912 1.334 . S
C1913 C1914 1.287 . S
C1914 C1913 1.287 . S
C1914 C1915 1.524 . S
C1914 H1933 0.913 . S
C1915 H1891 0.950 . S
C1915 C1914 1.524 . S
C1915 C1916 1.415 . S
C1916 H1892 0.950 . S
C1916 C1911 1.363 . S
C1916 C1915 1.415 . S
C1917 H1893 0.951 . S
C1917 C1918 1.366 . S
C1917 C1919 1.388 . S
C1918 C1917 1.366 . S
C1918 C1922 1.385 . S
C1919 H1894 0.951 . S
C1919 C1917 1.388 . S
C1919 C1920 1.366 . S
C1920 C1919 1.366 . S
C1920 C1921 1.414 . S
C1920 C1923 1.499 . S
C1921 H1895 0.950 . S
C1921 C1920 1.414 . S
C1921 C1922 1.374 . S
C1922 H1896 0.950 . S
C1922 C1918 1.385 . S
C1922 C1921 1.374 . S
C1923 C1920 1.499 . S
C1923 C1924 1.373 . S
C1923 C1925 1.389 . S
C1924 H1897 0.950 . S
C1924 C1910 1.377 . S
C1924 C1923 1.373 . S
C1925 C1909 1.377 . S
C1925 C1923 1.389 . S
C1925 C1926 1.524 . S
C1926 C1925 1.524 . S
C1926 C1927 1.397 . S
C1926 C1931 1.363 . S
C1927 H1898 0.950 . S
C1927 C1926 1.397 . S
C1927 C1928 1.334 . S
C1928 H1899 0.950 . S
C1928 C1927 1.334 . S
C1928 C1929 1.287 . S
C1929 C1928 1.287 . S
C1929 C1930 1.524 . S
C1929 H1932 0.999 . S
C1930 H1900 0.950 . S
C1930 C1929 1.524 . S
C1930 C1931 1.415 . S
C1931 H1901 0.950 . S
C1931 C1926 1.363 . S
C1931 C1930 1.415 . S
H1932 C1929 0.999 . S
H1933 C1914 0.913 . S
H1934 C1952 0.951 . S
H1935 C1954 0.951 . S
H1936 C1956 0.950 . S
H1937 C1957 0.950 . S
H1938 C1959 0.950 . S
H1939 C1962 0.950 . S
H1940 C1963 0.950 . S
H1941 C1965 0.950 . S
H1942 C1966 0.950 . S
H1943 C1967 0.951 . S
H1944 C1969 0.951 . S
H1945 C1971 0.950 . S
H1946 C1972 0.950 . S
H1947 C1974 0.950 . S
H1948 C1977 0.950 . S
H1949 C1978 0.950 . S
H1950 C1980 0.950 . S
H1951 C1981 0.950 . S
C1952 H1934 0.951 . S
C1952 C1953 1.366 . S
C1952 C1954 1.388 . S
C1953 C1952 1.366 . S
C1953 C1957 1.385 . S
C1954 H1935 0.951 . S
C1954 C1952 1.388 . S
C1954 C1955 1.366 . S
C1955 C1954 1.366 . S
C1955 C1956 1.414 . S
C1955 C1958 1.499 . S
C1956 H1936 0.950 . S
C1956 C1955 1.414 . S
C1956 C1957 1.374 . S
C1957 H1937 0.950 . S
C1957 C1953 1.385 . S
C1957 C1956 1.374 . S
C1958 C1955 1.499 . S
C1958 C1959 1.373 . S
C1958 C1960 1.389 . S
C1959 H1938 0.950 . S
C1959 C1958 1.373 . S
C1959 C1975 1.377 . S
C1960 C1958 1.389 . S
C1960 C1961 1.524 . S
C1960 C1974 1.377 . S
C1961 C1960 1.524 . S
C1961 C1962 1.397 . S
C1961 C1966 1.363 . S
C1962 H1939 0.950 . S
C1962 C1961 1.397 . S
C1962 C1963 1.334 . S
C1963 H1940 0.950 . S
C1963 C1962 1.334 . S
C1963 C1964 1.287 . S
C1964 C1963 1.287 . S
C1964 C1965 1.524 . S
C1964 H1983 0.913 . S
C1965 H1941 0.950 . S
C1965 C1964 1.524 . S
C1965 C1966 1.415 . S
C1966 H1942 0.950 . S
C1966 C1961 1.363 . S
C1966 C1965 1.415 . S
C1967 H1943 0.951 . S
C1967 C1968 1.366 . S
C1967 C1969 1.388 . S
C1968 C1967 1.366 . S
C1968 C1972 1.385 . S
C1969 H1944 0.951 . S
C1969 C1967 1.388 . S
C1969 C1970 1.366 . S
C1970 C1969 1.366 . S
C1970 C1971 1.414 . S
C1970 C1973 1.499 . S
C1971 H1945 0.950 . S
C1971 C1970 1.414 . S
C1971 C1972 1.374 . S
C1972 H1946 0.950 . S
C1972 C1968 1.385 . S
C1972 C1971 1.374 . S
C1973 C1970 1.499 . S
C1973 C1974 1.373 . S
C1973 C1975 1.389 . S
C1974 H1947 0.950 . S
C1974 C1960 1.377 . S
C1974 C1973 1.373 . S
C1975 C1959 1.377 . S
C1975 C1973 1.389 . S
C1975 C1976 1.524 . S
C1976 C1975 1.524 . S
C1976 C1977 1.397 . S
C1976 C1981 1.363 . S
C1977 H1948 0.950 . S
C1977 C1976 1.397 . S
C1977 C1978 1.334 . S
C1978 H1949 0.950 . S
C1978 C1977 1.334 . S
C1978 C1979 1.287 . S
C1979 C1978 1.287 . S
C1979 C1980 1.524 . S
C1979 H1982 0.999 . S
C1980 H1950 0.950 . S
C1980 C1979 1.524 . S
C1980 C1981 1.415 . S
C1981 H1951 0.950 . S
C1981 C1976 1.363 . S
C1981 C1980 1.415 . S
H1982 C1979 0.999 . S
H1983 C1964 0.913 . S
H1984 C2002 0.951 . S
H1985 C2004 0.951 . S
H1986 C2006 0.950 . S
H1987 C2007 0.950 . S
H1988 C2009 0.950 . S
H1989 C2012 0.950 . S
H1990 C2013 0.950 . S
H1991 C2015 0.950 . S
H1992 C2016 0.950 . S
H1993 C2017 0.951 . S
H1994 C2019 0.951 . S
H1995 C2021 0.950 . S
H1996 C2022 0.950 . S
H1997 C2024 0.950 . S
H1998 C2027 0.950 . S
H1999 C2028 0.950 . S
H2000 C2030 0.950 . S
H2001 C2031 0.950 . S
C2002 H1984 0.951 . S
C2002 C2003 1.366 . S
C2002 C2004 1.388 . S
C2003 C2002 1.366 . S
C2003 C2007 1.385 . S
C2004 H1985 0.951 . S
C2004 C2002 1.388 . S
C2004 C2005 1.366 . S
C2005 C2004 1.366 . S
C2005 C2006 1.414 . S
C2005 C2008 1.499 . S
C2006 H1986 0.950 . S
C2006 C2005 1.414 . S
C2006 C2007 1.374 . S
C2007 H1987 0.950 . S
C2007 C2003 1.385 . S
C2007 C2006 1.374 . S
C2008 C2005 1.499 . S
C2008 C2009 1.373 . S
C2008 C2010 1.389 . S
C2009 H1988 0.950 . S
C2009 C2008 1.373 . S
C2009 C2025 1.377 . S
C2010 C2008 1.389 . S
C2010 C2011 1.524 . S
C2010 C2024 1.377 . S
C2011 C2010 1.524 . S
C2011 C2012 1.397 . S
C2011 C2016 1.363 . S
C2012 H1989 0.950 . S
C2012 C2011 1.397 . S
C2012 C2013 1.334 . S
C2013 H1990 0.950 . S
C2013 C2012 1.334 . S
C2013 C2014 1.287 . S
C2014 C2013 1.287 . S
C2014 C2015 1.524 . S
C2014 H2033 0.913 . S
C2015 H1991 0.950 . S
C2015 C2014 1.524 . S
C2015 C2016 1.415 . S
C2016 H1992 0.950 . S
C2016 C2011 1.363 . S
C2016 C2015 1.415 . S
C2017 H1993 0.951 . S
C2017 C2018 1.366 . S
C2017 C2019 1.388 . S
C2018 C2017 1.366 . S
C2018 C2022 1.385 . S
C2019 H1994 0.951 . S
C2019 C2017 1.388 . S
C2019 C2020 1.366 . S
C2020 C2019 1.366 . S
C2020 C2021 1.414 . S
C2020 C2023 1.499 . S
C2021 H1995 0.950 . S
C2021 C2020 1.414 . S
C2021 C2022 1.374 . S
C2022 H1996 0.950 . S
C2022 C2018 1.385 . S
C2022 C2021 1.374 . S
C2023 C2020 1.499 . S
C2023 C2024 1.373 . S
C2023 C2025 1.389 . S
C2024 H1997 0.950 . S
C2024 C2010 1.377 . S
C2024 C2023 1.373 . S
C2025 C2009 1.377 . S
C2025 C2023 1.389 . S
C2025 C2026 1.524 . S
C2026 C2025 1.524 . S
C2026 C2027 1.397 . S
C2026 C2031 1.363 . S
C2027 H1998 0.950 . S
C2027 C2026 1.397 . S
C2027 C2028 1.334 . S
C2028 H1999 0.950 . S
C2028 C2027 1.334 . S
C2028 C2029 1.287 . S
C2029 C2028 1.287 . S
C2029 C2030 1.524 . S
C2029 H2032 0.999 . S
C2030 H2000 0.950 . S
C2030 C2029 1.524 . S
C2030 C2031 1.415 . S
C2031 H2001 0.950 . S
C2031 C2026 1.363 . S
C2031 C2030 1.415 . S
H2032 C2029 0.999 . S
H2033 C2014 0.913 . S
H2034 C2052 0.951 . S
H2035 C2054 0.951 . S
H2036 C2056 0.950 . S
H2037 C2057 0.950 . S
H2038 C2059 0.950 . S
H2039 C2062 0.950 . S
H2040 C2063 0.950 . S
H2041 C2065 0.950 . S
H2042 C2066 0.950 . S
H2043 C2067 0.951 . S
H2044 C2069 0.951 . S
H2045 C2071 0.950 . S
H2046 C2072 0.950 . S
H2047 C2074 0.950 . S
H2048 C2077 0.950 . S
H2049 C2078 0.950 . S
H2050 C2080 0.950 . S
H2051 C2081 0.950 . S
C2052 H2034 0.951 . S
C2052 C2053 1.366 . S
C2052 C2054 1.388 . S
C2053 C2052 1.366 . S
C2053 C2057 1.385 . S
C2054 H2035 0.951 . S
C2054 C2052 1.388 . S
C2054 C2055 1.366 . S
C2055 C2054 1.366 . S
C2055 C2056 1.414 . S
C2055 C2058 1.499 . S
C2056 H2036 0.950 . S
C2056 C2055 1.414 . S
C2056 C2057 1.374 . S
C2057 H2037 0.950 . S
C2057 C2053 1.385 . S
C2057 C2056 1.374 . S
C2058 C2055 1.499 . S
C2058 C2059 1.373 . S
C2058 C2060 1.389 . S
C2059 H2038 0.950 . S
C2059 C2058 1.373 . S
C2059 C2075 1.377 . S
C2060 C2058 1.389 . S
C2060 C2061 1.524 . S
C2060 C2074 1.377 . S
C2061 C2060 1.524 . S
C2061 C2062 1.397 . S
C2061 C2066 1.363 . S
C2062 H2039 0.950 . S
C2062 C2061 1.397 . S
C2062 C2063 1.334 . S
C2063 H2040 0.950 . S
C2063 C2062 1.334 . S
C2063 C2064 1.287 . S
C2064 C2063 1.287 . S
C2064 C2065 1.524 . S
C2064 H2083 0.913 . S
C2065 H2041 0.950 . S
C2065 C2064 1.524 . S
C2065 C2066 1.415 . S
C2066 H2042 0.950 . S
C2066 C2061 1.363 . S
C2066 C2065 1.415 . S
C2067 H2043 0.951 . S
C2067 C2068 1.366 . S
C2067 C2069 1.388 . S
C2068 C2067 1.366 . S
C2068 C2072 1.385 . S
C2069 H2044 0.951 . S
C2069 C2067 1.388 . S
C2069 C2070 1.366 . S
C2070 C2069 1.366 . S
C2070 C2071 1.414 . S
C2070 C2073 1.499 . S
C2071 H2045 0.950 . S
C2071 C2070 1.414 . S
C2071 C2072 1.374 . S
C2072 H2046 0.950 . S
C2072 C2068 1.385 . S
C2072 C2071 1.374 . S
C2073 C2070 1.499 . S
C2073 C2074 1.373 . S
C2073 C2075 1.389 . S
C2074 H2047 0.950 . S
C2074 C2060 1.377 . S
C2074 C2073 1.373 . S
C2075 C2059 1.377 . S
C2075 C2073 1.389 . S
C2075 C2076 1.524 . S
C2076 C2075 1.524 . S
C2076 C2077 1.397 . S
C2076 C2081 1.363 . S
C2077 H2048 0.950 . S
C2077 C2076 1.397 . S
C2077 C2078 1.334 . S
C2078 H2049 0.950 . S
C2078 C2077 1.334 . S
C2078 C2079 1.287 . S
C2079 C2078 1.287 . S
C2079 C2080 1.524 . S
C2079 H2082 0.999 . S
C2080 H2050 0.950 . S
C2080 C2079 1.524 . S
C2080 C2081 1.415 . S
C2081 H2051 0.950 . S
C2081 C2076 1.363 . S
C2081 C2080 1.415 . S
H2082 C2079 0.999 . S
H2083 C2064 0.913 . S
H2084 C2102 0.951 . S
H2085 C2104 0.951 . S
H2086 C2106 0.950 . S
H2087 C2107 0.950 . S
H2088 C2109 0.950 . S
H2089 C2112 0.950 . S
H2090 C2113 0.950 . S
H2091 C2115 0.950 . S
H2092 C2116 0.950 . S
H2093 C2117 0.951 . S
H2094 C2119 0.951 . S
H2095 C2121 0.950 . S
H2096 C2122 0.950 . S
H2097 C2124 0.950 . S
H2098 C2127 0.950 . S
H2099 C2128 0.950 . S
H2100 C2130 0.950 . S
H2101 C2131 0.950 . S
C2102 H2084 0.951 . S
C2102 C2103 1.366 . S
C2102 C2104 1.388 . S
C2103 C2102 1.366 . S
C2103 C2107 1.385 . S
C2104 H2085 0.951 . S
C2104 C2102 1.388 . S
C2104 C2105 1.366 . S
C2105 C2104 1.366 . S
C2105 C2106 1.414 . S
C2105 C2108 1.499 . S
C2106 H2086 0.950 . S
C2106 C2105 1.414 . S
C2106 C2107 1.374 . S
C2107 H2087 0.950 . S
C2107 C2103 1.385 . S
C2107 C2106 1.374 . S
C2108 C2105 1.499 . S
C2108 C2109 1.373 . S
C2108 C2110 1.389 . S
C2109 H2088 0.950 . S
C2109 C2108 1.373 . S
C2109 C2125 1.377 . S
C2110 C2108 1.389 . S
C2110 C2111 1.524 . S
C2110 C2124 1.377 . S
C2111 C2110 1.524 . S
C2111 C2112 1.397 . S
C2111 C2116 1.363 . S
C2112 H2089 0.950 . S
C2112 C2111 1.397 . S
C2112 C2113 1.334 . S
C2113 H2090 0.950 . S
C2113 C2112 1.334 . S
C2113 C2114 1.287 . S
C2114 C2113 1.287 . S
C2114 C2115 1.524 . S
C2114 H2133 0.913 . S
C2115 H2091 0.950 . S
C2115 C2114 1.524 . S
C2115 C2116 1.415 . S
C2116 H2092 0.950 . S
C2116 C2111 1.363 . S
C2116 C2115 1.415 . S
C2117 H2093 0.951 . S
C2117 C2118 1.366 . S
C2117 C2119 1.388 . S
C2118 C2117 1.366 . S
C2118 C2122 1.385 . S
C2119 H2094 0.951 . S
C2119 C2117 1.388 . S
C2119 C2120 1.366 . S
C2120 C2119 1.366 . S
C2120 C2121 1.414 . S
C2120 C2123 1.499 . S
C2121 H2095 0.950 . S
C2121 C2120 1.414 . S
C2121 C2122 1.374 . S
C2122 H2096 0.950 . S
C2122 C2118 1.385 . S
C2122 C2121 1.374 . S
C2123 C2120 1.499 . S
C2123 C2124 1.373 . S
C2123 C2125 1.389 . S
C2124 H2097 0.950 . S
C2124 C2110 1.377 . S
C2124 C2123 1.373 . S
C2125 C2109 1.377 . S
C2125 C2123 1.389 . S
C2125 C2126 1.524 . S
C2126 C2125 1.524 . S
C2126 C2127 1.397 . S
C2126 C2131 1.363 . S
C2127 H2098 0.950 . S
C2127 C2126 1.397 . S
C2127 C2128 1.334 . S
C2128 H2099 0.950 . S
C2128 C2127 1.334 . S
C2128 C2129 1.287 . S
C2129 C2128 1.287 . S
C2129 C2130 1.524 . S
C2129 H2132 0.999 . S
C2130 H2100 0.950 . S
C2130 C2129 1.524 . S
C2130 C2131 1.415 . S
C2131 H2101 0.950 . S
C2131 C2126 1.363 . S
C2131 C2130 1.415 . S
H2132 C2129 0.999 . S
H2133 C2114 0.913 . S
H2134 C2152 0.951 . S
H2135 C2154 0.951 . S
H2136 C2156 0.950 . S
H2137 C2157 0.950 . S
H2138 C2159 0.950 . S
H2139 C2162 0.950 . S
H2140 C2163 0.950 . S
H2141 C2165 0.950 . S
H2142 C2166 0.950 . S
H2143 C2167 0.951 . S
H2144 C2169 0.951 . S
H2145 C2171 0.950 . S
H2146 C2172 0.950 . S
H2147 C2174 0.950 . S
H2148 C2177 0.950 . S
H2149 C2178 0.950 . S
H2150 C2180 0.950 . S
H2151 C2181 0.950 . S
C2152 H2134 0.951 . S
C2152 C2153 1.366 . S
C2152 C2154 1.388 . S
C2153 C2152 1.366 . S
C2153 C2157 1.385 . S
C2154 H2135 0.951 . S
C2154 C2152 1.388 . S
C2154 C2155 1.366 . S
C2155 C2154 1.366 . S
C2155 C2156 1.414 . S
C2155 C2158 1.499 . S
C2156 H2136 0.950 . S
C2156 C2155 1.414 . S
C2156 C2157 1.374 . S
C2157 H2137 0.950 . S
C2157 C2153 1.385 . S
C2157 C2156 1.374 . S
C2158 C2155 1.499 . S
C2158 C2159 1.373 . S
C2158 C2160 1.389 . S
C2159 H2138 0.950 . S
C2159 C2158 1.373 . S
C2159 C2175 1.377 . S
C2160 C2158 1.389 . S
C2160 C2161 1.524 . S
C2160 C2174 1.377 . S
C2161 C2160 1.524 . S
C2161 C2162 1.397 . S
C2161 C2166 1.363 . S
C2162 H2139 0.950 . S
C2162 C2161 1.397 . S
C2162 C2163 1.334 . S
C2163 H2140 0.950 . S
C2163 C2162 1.334 . S
C2163 C2164 1.287 . S
C2164 C2163 1.287 . S
C2164 C2165 1.524 . S
C2164 H2183 0.913 . S
C2165 H2141 0.950 . S
C2165 C2164 1.524 . S
C2165 C2166 1.415 . S
C2166 H2142 0.950 . S
C2166 C2161 1.363 . S
C2166 C2165 1.415 . S
C2167 H2143 0.951 . S
C2167 C2168 1.366 . S
C2167 C2169 1.388 . S
C2168 C2167 1.366 . S
C2168 C2172 1.385 . S
C2169 H2144 0.951 . S
C2169 C2167 1.388 . S
C2169 C2170 1.366 . S
C2170 C2169 1.366 . S
C2170 C2171 1.414 . S
C2170 C2173 1.499 . S
C2171 H2145 0.950 . S
C2171 C2170 1.414 . S
C2171 C2172 1.374 . S
C2172 H2146 0.950 . S
C2172 C2168 1.385 . S
C2172 C2171 1.374 . S
C2173 C2170 1.499 . S
C2173 C2174 1.373 . S
C2173 C2175 1.389 . S
C2174 H2147 0.950 . S
C2174 C2160 1.377 . S
C2174 C2173 1.373 . S
C2175 C2159 1.377 . S
C2175 C2173 1.389 . S
C2175 C2176 1.524 . S
C2176 C2175 1.524 . S
C2176 C2177 1.397 . S
C2176 C2181 1.363 . S
C2177 H2148 0.950 . S
C2177 C2176 1.397 . S
C2177 C2178 1.334 . S
C2178 H2149 0.950 . S
C2178 C2177 1.334 . S
C2178 C2179 1.287 . S
C2179 C2178 1.287 . S
C2179 C2180 1.524 . S
C2179 H2182 0.999 . S
C2180 H2150 0.950 . S
C2180 C2179 1.524 . S
C2180 C2181 1.415 . S
C2181 H2151 0.950 . S
C2181 C2176 1.363 . S
C2181 C2180 1.415 . S
H2182 C2179 0.999 . S
H2183 C2164 0.913 . S
H2184 C2202 0.951 . S
H2185 C2204 0.951 . S
H2186 C2206 0.950 . S
H2187 C2207 0.950 . S
H2188 C2209 0.950 . S
H2189 C2212 0.950 . S
H2190 C2213 0.950 . S
H2191 C2215 0.950 . S
H2192 C2216 0.950 . S
H2193 C2217 0.951 . S
H2194 C2219 0.951 . S
H2195 C2221 0.950 . S
H2196 C2222 0.950 . S
H2197 C2224 0.950 . S
H2198 C2227 0.950 . S
H2199 C2228 0.950 . S
H2200 C2230 0.950 . S
H2201 C2231 0.950 . S
C2202 H2184 0.951 . S
C2202 C2203 1.366 . S
C2202 C2204 1.388 . S
C2203 C2202 1.366 . S
C2203 C2207 1.385 . S
C2204 H2185 0.951 . S
C2204 C2202 1.388 . S
C2204 C2205 1.366 . S
C2205 C2204 1.366 . S
C2205 C2206 1.414 . S
C2205 C2208 1.499 . S
C2206 H2186 0.950 . S
C2206 C2205 1.414 . S
C2206 C2207 1.374 . S
C2207 H2187 0.950 . S
C2207 C2203 1.385 . S
C2207 C2206 1.374 . S
C2208 C2205 1.499 . S
C2208 C2209 1.373 . S
C2208 C2210 1.389 . S
C2209 H2188 0.950 . S
C2209 C2208 1.373 . S
C2209 C2225 1.377 . S
C2210 C2208 1.389 . S
C2210 C2211 1.524 . S
C2210 C2224 1.377 . S
C2211 C2210 1.524 . S
C2211 C2212 1.397 . S
C2211 C2216 1.363 . S
C2212 H2189 0.950 . S
C2212 C2211 1.397 . S
C2212 C2213 1.334 . S
C2213 H2190 0.950 . S
C2213 C2212 1.334 . S
C2213 C2214 1.287 . S
C2214 C2213 1.287 . S
C2214 C2215 1.524 . S
C2214 H2233 0.913 . S
C2215 H2191 0.950 . S
C2215 C2214 1.524 . S
C2215 C2216 1.415 . S
C2216 H2192 0.950 . S
C2216 C2211 1.363 . S
C2216 C2215 1.415 . S
C2217 H2193 0.951 . S
C2217 C2218 1.366 . S
C2217 C2219 1.388 . S
C2218 C2217 1.366 . S
C2218 C2222 1.385 . S
C2219 H2194 0.951 . S
C2219 C2217 1.388 . S
C2219 C2220 1.366 . S
C2220 C2219 1.366 . S
C2220 C2221 1.414 . S
C2220 C2223 1.499 . S
C2221 H2195 0.950 . S
C2221 C2220 1.414 . S
C2221 C2222 1.374 . S
C2222 H2196 0.950 . S
C2222 C2218 1.385 . S
C2222 C2221 1.374 . S
C2223 C2220 1.499 . S
C2223 C2224 1.373 . S
C2223 C2225 1.389 . S
C2224 H2197 0.950 . S
C2224 C2210 1.377 . S
C2224 C2223 1.373 . S
C2225 C2209 1.377 . S
C2225 C2223 1.389 . S
C2225 C2226 1.524 . S
C2226 C2225 1.524 . S
C2226 C2227 1.397 . S
C2226 C2231 1.363 . S
C2227 H2198 0.950 . S
C2227 C2226 1.397 . S
C2227 C2228 1.334 . S
C2228 H2199 0.950 . S
C2228 C2227 1.334 . S
C2228 C2229 1.287 . S
C2229 C2228 1.287 . S
C2229 C2230 1.524 . S
C2229 H2232 0.999 . S
C2230 H2200 0.950 . S
C2230 C2229 1.524 . S
C2230 C2231 1.415 . S
C2231 H2201 0.950 . S
C2231 C2226 1.363 . S
C2231 C2230 1.415 . S
H2232 C2229 0.999 . S
H2233 C2214 0.913 . S
H2234 C2252 0.951 . S
H2235 C2254 0.951 . S
H2236 C2256 0.950 . S
H2237 C2257 0.950 . S
H2238 C2259 0.950 . S
H2239 C2262 0.950 . S
H2240 C2263 0.950 . S
H2241 C2265 0.950 . S
H2242 C2266 0.950 . S
H2243 C2267 0.951 . S
H2244 C2269 0.951 . S
H2245 C2271 0.950 . S
H2246 C2272 0.950 . S
H2247 C2274 0.950 . S
H2248 C2277 0.950 . S
H2249 C2278 0.950 . S
H2250 C2280 0.950 . S
H2251 C2281 0.950 . S
C2252 H2234 0.951 . S
C2252 C2253 1.366 . S
C2252 C2254 1.388 . S
C2253 C2252 1.366 . S
C2253 C2257 1.385 . S
C2254 H2235 0.951 . S
C2254 C2252 1.388 . S
C2254 C2255 1.366 . S
C2255 C2254 1.366 . S
C2255 C2256 1.414 . S
C2255 C2258 1.499 . S
C2256 H2236 0.950 . S
C2256 C2255 1.414 . S
C2256 C2257 1.374 . S
C2257 H2237 0.950 . S
C2257 C2253 1.385 . S
C2257 C2256 1.374 . S
C2258 C2255 1.499 . S
C2258 C2259 1.373 . S
C2258 C2260 1.389 . S
C2259 H2238 0.950 . S
C2259 C2258 1.373 . S
C2259 C2275 1.377 . S
C2260 C2258 1.389 . S
C2260 C2261 1.524 . S
C2260 C2274 1.377 . S
C2261 C2260 1.524 . S
C2261 C2262 1.397 . S
C2261 C2266 1.363 . S
C2262 H2239 0.950 . S
C2262 C2261 1.397 . S
C2262 C2263 1.334 . S
C2263 H2240 0.950 . S
C2263 C2262 1.334 . S
C2263 C2264 1.287 . S
C2264 C2263 1.287 . S
C2264 C2265 1.524 . S
C2264 H2283 0.913 . S
C2265 H2241 0.950 . S
C2265 C2264 1.524 . S
C2265 C2266 1.415 . S
C2266 H2242 0.950 . S
C2266 C2261 1.363 . S
C2266 C2265 1.415 . S
C2267 H2243 0.951 . S
C2267 C2268 1.366 . S
C2267 C2269 1.388 . S
C2268 C2267 1.366 . S
C2268 C2272 1.385 . S
C2269 H2244 0.951 . S
C2269 C2267 1.388 . S
C2269 C2270 1.366 . S
C2270 C2269 1.366 . S
C2270 C2271 1.414 . S
C2270 C2273 1.499 . S
C2271 H2245 0.950 . S
C2271 C2270 1.414 . S
C2271 C2272 1.374 . S
C2272 H2246 0.950 . S
C2272 C2268 1.385 . S
C2272 C2271 1.374 . S
C2273 C2270 1.499 . S
C2273 C2274 1.373 . S
C2273 C2275 1.389 . S
C2274 H2247 0.950 . S
C2274 C2260 1.377 . S
C2274 C2273 1.373 . S
C2275 C2259 1.377 . S
C2275 C2273 1.389 . S
C2275 C2276 1.524 . S
C2276 C2275 1.524 . S
C2276 C2277 1.397 . S
C2276 C2281 1.363 . S
C2277 H2248 0.950 . S
C2277 C2276 1.397 . S
C2277 C2278 1.334 . S
C2278 H2249 0.950 . S
C2278 C2277 1.334 . S
C2278 C2279 1.287 . S
C2279 C2278 1.287 . S
C2279 C2280 1.524 . S
C2279 H2282 0.999 . S
C2280 H2250 0.950 . S
C2280 C2279 1.524 . S
C2280 C2281 1.415 . S
C2281 H2251 0.950 . S
C2281 C2276 1.363 . S
C2281 C2280 1.415 . S
H2282 C2279 0.999 . S
H2283 C2264 0.913 . S
H2284 C2302 0.951 . S
H2285 C2304 0.951 . S
H2286 C2306 0.950 . S
H2287 C2307 0.950 . S
H2288 C2309 0.950 . S
H2289 C2312 0.950 . S
H2290 C2313 0.950 . S
H2291 C2315 0.950 . S
H2292 C2316 0.950 . S
H2293 C2317 0.951 . S
H2294 C2319 0.951 . S
H2295 C2321 0.950 . S
H2296 C2322 0.950 . S
H2297 C2324 0.950 . S
H2298 C2327 0.950 . S
H2299 C2328 0.950 . S
H2300 C2330 0.950 . S
H2301 C2331 0.950 . S
C2302 H2284 0.951 . S
C2302 C2303 1.366 . S
C2302 C2304 1.388 . S
C2303 C2302 1.366 . S
C2303 C2307 1.385 . S
C2304 H2285 0.951 . S
C2304 C2302 1.388 . S
C2304 C2305 1.366 . S
C2305 C2304 1.366 . S
C2305 C2306 1.414 . S
C2305 C2308 1.499 . S
C2306 H2286 0.950 . S
C2306 C2305 1.414 . S
C2306 C2307 1.374 . S
C2307 H2287 0.950 . S
C2307 C2303 1.385 . S
C2307 C2306 1.374 . S
C2308 C2305 1.499 . S
C2308 C2309 1.373 . S
C2308 C2310 1.389 . S
C2309 H2288 0.950 . S
C2309 C2308 1.373 . S
C2309 C2325 1.377 . S
C2310 C2308 1.389 . S
C2310 C2311 1.524 . S
C2310 C2324 1.377 . S
C2311 C2310 1.524 . S
C2311 C2312 1.397 . S
C2311 C2316 1.363 . S
C2312 H2289 0.950 . S
C2312 C2311 1.397 . S
C2312 C2313 1.334 . S
C2313 H2290 0.950 . S
C2313 C2312 1.334 . S
C2313 C2314 1.287 . S
C2314 C2313 1.287 . S
C2314 C2315 1.524 . S
C2314 H2333 0.913 . S
C2315 H2291 0.950 . S
C2315 C2314 1.524 . S
C2315 C2316 1.415 . S
C2316 H2292 0.950 . S
C2316 C2311 1.363 . S
C2316 C2315 1.415 . S
C2317 H2293 0.951 . S
C2317 C2318 1.366 . S
C2317 C2319 1.388 . S
C2318 C2317 1.366 . S
C2318 C2322 1.385 . S
C2319 H2294 0.951 . S
C2319 C2317 1.388 . S
C2319 C2320 1.366 . S
C2320 C2319 1.366 . S
C2320 C2321 1.414 . S
C2320 C2323 1.499 . S
C2321 H2295 0.950 . S
C2321 C2320 1.414 . S
C2321 C2322 1.374 . S
C2322 H2296 0.950 . S
C2322 C2318 1.385 . S
C2322 C2321 1.374 . S
C2323 C2320 1.499 . S
C2323 C2324 1.373 . S
C2323 C2325 1.389 . S
C2324 H2297 0.950 . S
C2324 C2310 1.377 . S
C2324 C2323 1.373 . S
C2325 C2309 1.377 . S
C2325 C2323 1.389 . S
C2325 C2326 1.524 . S
C2326 C2325 1.524 . S
C2326 C2327 1.397 . S
C2326 C2331 1.363 . S
C2327 H2298 0.950 . S
C2327 C2326 1.397 . S
C2327 C2328 1.334 . S
C2328 H2299 0.950 . S
C2328 C2327 1.334 . S
C2328 C2329 1.287 . S
C2329 C2328 1.287 . S
C2329 C2330 1.524 . S
C2329 H2332 0.999 . S
C2330 H2300 0.950 . S
C2330 C2329 1.524 . S
C2330 C2331 1.415 . S
C2331 H2301 0.950 . S
C2331 C2326 1.363 . S
C2331 C2330 1.415 . S
H2332 C2329 0.999 . S
H2333 C2314 0.913 . S
H2334 C2352 0.951 . S
H2335 C2354 0.951 . S
H2336 C2356 0.950 . S
H2337 C2357 0.950 . S
H2338 C2359 0.950 . S
H2339 C2362 0.950 . S
H2340 C2363 0.950 . S
H2341 C2365 0.950 . S
H2342 C2366 0.950 . S
H2343 C2367 0.951 . S
H2344 C2369 0.951 . S
H2345 C2371 0.950 . S
H2346 C2372 0.950 . S
H2347 C2374 0.950 . S
H2348 C2377 0.950 . S
H2349 C2378 0.950 . S
H2350 C2380 0.950 . S
H2351 C2381 0.950 . S
C2352 H2334 0.951 . S
C2352 C2353 1.366 . S
C2352 C2354 1.388 . S
C2353 C2352 1.366 . S
C2353 C2357 1.385 . S
C2354 H2335 0.951 . S
C2354 C2352 1.388 . S
C2354 C2355 1.366 . S
C2355 C2354 1.366 . S
C2355 C2356 1.414 . S
C2355 C2358 1.499 . S
C2356 H2336 0.950 . S
C2356 C2355 1.414 . S
C2356 C2357 1.374 . S
C2357 H2337 0.950 . S
C2357 C2353 1.385 . S
C2357 C2356 1.374 . S
C2358 C2355 1.499 . S
C2358 C2359 1.373 . S
C2358 C2360 1.389 . S
C2359 H2338 0.950 . S
C2359 C2358 1.373 . S
C2359 C2375 1.377 . S
C2360 C2358 1.389 . S
C2360 C2361 1.524 . S
C2360 C2374 1.377 . S
C2361 C2360 1.524 . S
C2361 C2362 1.397 . S
C2361 C2366 1.363 . S
C2362 H2339 0.950 . S
C2362 C2361 1.397 . S
C2362 C2363 1.334 . S
C2363 H2340 0.950 . S
C2363 C2362 1.334 . S
C2363 C2364 1.287 . S
C2364 C2363 1.287 . S
C2364 C2365 1.524 . S
C2364 H2383 0.913 . S
C2365 H2341 0.950 . S
C2365 C2364 1.524 . S
C2365 C2366 1.415 . S
C2366 H2342 0.950 . S
C2366 C2361 1.363 . S
C2366 C2365 1.415 . S
C2367 H2343 0.951 . S
C2367 C2368 1.366 . S
C2367 C2369 1.388 . S
C2368 C2367 1.366 . S
C2368 C2372 1.385 . S
C2369 H2344 0.951 . S
C2369 C2367 1.388 . S
C2369 C2370 1.366 . S
C2370 C2369 1.366 . S
C2370 C2371 1.414 . S
C2370 C2373 1.499 . S
C2371 H2345 0.950 . S
C2371 C2370 1.414 . S
C2371 C2372 1.374 . S
C2372 H2346 0.950 . S
C2372 C2368 1.385 . S
C2372 C2371 1.374 . S
C2373 C2370 1.499 . S
C2373 C2374 1.373 . S
C2373 C2375 1.389 . S
C2374 H2347 0.950 . S
C2374 C2360 1.377 . S
C2374 C2373 1.373 . S
C2375 C2359 1.377 . S
C2375 C2373 1.389 . S
C2375 C2376 1.524 . S
C2376 C2375 1.524 . S
C2376 C2377 1.397 . S
C2376 C2381 1.363 . S
C2377 H2348 0.950 . S
C2377 C2376 1.397 . S
C2377 C2378 1.334 . S
C2378 H2349 0.950 . S
C2378 C2377 1.334 . S
C2378 C2379 1.287 . S
C2379 C2378 1.287 . S
C2379 C2380 1.524 . S
C2379 H2382 0.999 . S
C2380 H2350 0.950 . S
C2380 C2379 1.524 . S
C2380 C2381 1.415 . S
C2381 H2351 0.950 . S
C2381 C2376 1.363 . S
C2381 C2380 1.415 . S
H2382 C2379 0.999 . S
H2383 C2364 0.913 . S
C818 C535 1.367 . S
C803 C35 1.245 . S
C868 C572 1.347 . S
C853 C115 1.254 . S
C918 C608 1.375 . S
C903 C177 1.274 . S
C953 C221 1.266 . S
C968 C499 1.395 . S
C1003 C283 1.265 . S
C1018 C500 1.375 . S
C1053 C363 1.254 . S
C1068 C536 1.347 . S
C1118 C571 1.366 . S
C1103 C407 1.247 . S
C1168 C607 1.395 . S
C1153 C469 1.266 . S
C1203 C159 1.247 . S
C1218 C679 1.367 . S
C1268 C716 1.348 . S
C1253 C239 1.253 . S
C1303 C53 1.273 . S
C1318 C752 1.375 . S
C1368 C643 1.395 . S
C1353 C97 1.267 . S
C1403 C425 1.274 . S
C1418 C644 1.376 . S
C1453 C487 1.252 . S
C1468 C680 1.347 . S
C1518 C715 1.360 1_556 S
C1503 C301 1.256 . S
C1553 C345 1.268 . S
C1568 C751 1.395 . S
C1618 C570 1.865 . S
C1603 C29 1.838 . S
C1668 C606 1.845 . S
C1653 C109 1.786 . S
C1703 C171 1.731 . S
C1718 C510 1.662 . S
C1753 C215 1.782 . S
C1768 C546 1.681 . S
C1803 C277 1.760 . S
C1818 C618 1.662 . S
C1868 C498 1.846 . S
C1853 C357 1.787 . S
C1918 C534 1.866 . S
C1903 C401 1.838 . S
C1968 C582 1.682 . S
C1953 C463 1.782 . S
C2018 C714 1.865 . S
C2003 C153 1.838 . S
C2068 C750 1.845 . S
C2053 C233 1.786 . S
C2103 C47 1.731 . S
C2118 C654 1.662 . S
C2168 C690 1.682 . S
C2153 C91 1.782 . S
C2218 C762 1.662 . S
C2203 C419 1.730 . S
C2253 C481 1.786 . S
C2268 C642 1.845 . S
C2318 C678 1.865 . S
C2303 C295 1.808 . S
C2368 C726 1.682 . S
C2353 C339 1.782 . S
