# Generated by pormake.
# Topology pth, (4,4)-cn, num edge types: 1
# Building blocks:
#     Node 0, Type 0, BuildingBlock: KUFVIS_clean_sbu_0, # of connection points: 4
#     Node 1, Type 0, BuildingBlock: KUFVIS_clean_sbu_0, # of connection points: 4
#     Node 2, Type 0, BuildingBlock: KUFVIS_clean_sbu_0, # of connection points: 4
#     Node 3, Type 1, BuildingBlock: MUDLON_clean_linker_0, # of connection points: 4
#     Node 4, Type 1, BuildingBlock: MUDLON_clean_linker_0, # of connection points: 4
#     Node 5, Type 1, BuildingBlock: MUDLON_clean_linker_0, # of connection points: 4
#     Edge 6, Type (0, 1), BuildingBlock: XUDNAN_clean_linker_2, # of connection points: 2
#     Edge 7, Type (0, 1), BuildingBlock: XUDNAN_clean_linker_2, # of connection points: 2
#     Edge 8, Type (0, 1), BuildingBlock: XUDNAN_clean_linker_2, # of connection points: 2
#     Edge 9, Type (0, 1), BuildingBlock: XUDNAN_clean_linker_2, # of connection points: 2
#     Edge 10, Type (0, 1), BuildingBlock: XUDNAN_clean_linker_2, # of connection points: 2
#     Edge 11, Type (0, 1), BuildingBlock: XUDNAN_clean_linker_2, # of connection points: 2
#     Edge 12, Type (0, 1), BuildingBlock: XUDNAN_clean_linker_2, # of connection points: 2
#     Edge 13, Type (0, 1), BuildingBlock: XUDNAN_clean_linker_2, # of connection points: 2
#     Edge 14, Type (0, 1), BuildingBlock: XUDNAN_clean_linker_2, # of connection points: 2
#     Edge 15, Type (0, 1), BuildingBlock: XUDNAN_clean_linker_2, # of connection points: 2
#     Edge 16, Type (0, 1), BuildingBlock: XUDNAN_clean_linker_2, # of connection points: 2
#     Edge 17, Type (0, 1), BuildingBlock: XUDNAN_clean_linker_2, # of connection points: 2
# Relax obj value: 0.038
# Max RMSD: 0.104
# Mean RMSD: 0.093
data_MOF--net-pth--node1-KUFVIS_clean_sbu_0--node2-MUDLON_clean_linker_0--edge1-XUDNAN_clean_linker_2
_symmetry_space_group_name_H-M    P1
_symmetry_Int_Tables_number       1
_symmetry_cell_setting            triclinic
loop_
_symmetry_equiv_pos_as_xyz
'x, y, z'
_cell_length_a     33.388938
_cell_length_b     33.476825
_cell_length_c     68.984443
_cell_angle_alpha  90.496919
_cell_angle_beta   91.806648
_cell_angle_gamma 120.18413
loop_
_atom_site_label
_atom_site_type_symbol
_atom_site_fract_x
_atom_site_fract_y
_atom_site_fract_z
_atom_type_partial_charge
Mn0 Mn 0.02691 0.0143 0.02826 0.0
Mn1 Mn 0.97197 0.06253 0.00488 0.0
C2 C 0.98557 0.98107 -0.00043 0.0
C3 C 0.02999 0.96625 0.05176 0.0
C4 C 0.07524 0.09996 0.00332 0.0
O5 O 0.02555 0.05721 0.04885 0.0
O6 O 0.98645 0.08562 0.03238 0.0
C7 C 0.8847 0.01913 0.02594 0.0
N8 N 0.90703 0.02732 0.00899 0.0
C9 C 0.83478 0.99041 0.99033 0.0
C10 C 0.81094 0.9816 0.00758 0.0
C11 C 0.83602 0.99568 0.02548 0.0
C12 C 0.88323 0.01283 0.99174 0.0
H13 H 0.90391 0.0307 0.03969 0.0
C14 C 0.00705 0.08245 0.04776 0.0
O15 O 0.06733 0.00097 0.04541 0.0
O16 O 0.9906 0.95971 0.04463 0.0
N17 N 0.95548 0.04378 0.97819 0.0
C18 C 0.98371 0.0547 0.9629 0.0
C19 C 0.96401 0.0413 0.944 0.0
C20 C 0.9156 0.01813 0.94098 0.0
C21 C 0.88733 0.00845 0.9569 0.0
C22 C 0.90888 0.0216 0.97542 0.0
H23 H 0.02097 0.07331 0.9651 0.0
O24 O 0.0175 0.97253 0.00583 0.0
O25 O 0.97764 0.00799 0.01058 0.0
O26 O 0.07651 0.06945 0.01382 0.0
O27 O 0.03813 0.10087 0.99937 0.0
C28 C 0.83867 0.98698 0.95508 0.0
C29 C 0.81241 0.97808 0.97179 0.0
H30 H 0.77341 0.96406 0.00726 0.0
H31 H 0.81788 0.98901 0.03885 0.0
H32 H 0.9861 0.04926 0.93178 0.0
H33 H 0.90055 0.00832 0.92636 0.0
H34 H 0.82103 0.9768 0.94092 0.0
H35 H 0.77497 0.96108 0.97022 0.0
Mn36 Mn 0.03642 0.03387 0.35912 0.0
Mn37 Mn 0.08355 0.13314 0.38598 0.0
C38 C 0.0889 0.04716 0.38457 0.0
C39 C 0.03851 0.99 0.33306 0.0
C40 C 0.98613 0.05413 0.39098 0.0
O41 O 0.02388 0.07564 0.34169 0.0
O42 O 0.05473 0.13924 0.3614 0.0
C43 C 0.15873 0.19115 0.35986 0.0
N44 N 0.14492 0.17337 0.3777 0.0
C45 C 0.22365 0.21297 0.39064 0.0
C46 C 0.2387 0.23196 0.37243 0.0
C47 C 0.2061 0.22091 0.35697 0.0
C48 C 0.17601 0.18366 0.39266 0.0
H49 H 0.13379 0.18262 0.34793 0.0
C50 C 0.03339 0.11688 0.34571 0.0
O51 O 0.99979 0.97901 0.34115 0.0
O52 O 0.07513 0.02748 0.33948 0.0
N53 N 0.11275 0.13256 0.41019 0.0
C54 C 0.09265 0.11001 0.42661 0.0
C55 C 0.12052 0.11692 0.44339 0.0
C56 C 0.16869 0.14695 0.44313 0.0
C57 C 0.18852 0.17009 0.42612 0.0
C58 C 0.15891 0.16237 0.40992 0.0
H59 H 0.05566 0.08688 0.42688 0.0
O60 O 0.05951 0.00529 0.37855 0.0
O61 O 0.08633 0.07995 0.3757 0.0
O62 O 0.98609 0.02792 0.37737 0.0
O63 O 0.02118 0.09355 0.39565 0.0
C64 C 0.23654 0.20004 0.42451 0.0
C65 C 0.25411 0.22137 0.40676 0.0
H66 H 0.27522 0.25476 0.37011 0.0
H67 H 0.21746 0.23524 0.34285 0.0
H68 H 0.10491 0.09905 0.45648 0.0
H69 H 0.19015 0.15185 0.45604 0.0
H70 H 0.26032 0.20646 0.43675 0.0
H71 H 0.29115 0.24386 0.40563 0.0
Mn72 Mn 0.03362 0.01407 0.69684 0.0
Mn73 Mn 0.98996 0.07619 0.71655 0.0
C74 C 0.06998 0.06024 0.72411 0.0
C75 C 0.07923 0.00518 0.67431 0.0
C76 C 0.94958 0.9736 0.72252 0.0
O77 O 0.98873 0.01147 0.67568 0.0
O78 O 0.96502 0.05687 0.68935 0.0
C79 C 0.03498 0.15802 0.6919 0.0
N80 N 0.02694 0.13942 0.70982 0.0
C81 C 0.06798 0.21478 0.72541 0.0
C82 C 0.07672 0.23481 0.70712 0.0
C83 C 0.06044 0.20627 0.69029 0.0
C84 C 0.04347 0.16649 0.72608 0.0
H85 H 0.02181 0.13619 0.67895 0.0
C86 C 0.96509 0.03177 0.67525 0.0
O87 O 0.04487 0.96975 0.68199 0.0
O88 O 0.08664 0.04582 0.67946 0.0
N89 N 0.01042 0.0977 0.74276 0.0
C90 C 0.99842 0.07298 0.75929 0.0
C91 C 0.01303 0.09633 0.77741 0.0
C92 C 0.03843 0.14486 0.77836 0.0
C93 C 0.04898 0.16958 0.76117 0.0
C94 C 0.03449 0.14442 0.74353 0.0
H95 H 0.97814 0.0357 0.75867 0.0
O96 O 0.07732 0.02697 0.71936 0.0
O97 O 0.04274 0.06694 0.71232 0.0
O98 O 0.97896 0.96911 0.71275 0.0
O99 O 0.95026 0.01189 0.72463 0.0
C100 C 0.0725 0.21821 0.76086 0.0
C101 C 0.08216 0.24081 0.74298 0.0
H102 H 0.09578 0.27203 0.70583 0.0
H103 H 0.067 0.22145 0.67613 0.0
H104 H 0.00429 0.07697 0.79061 0.0
H105 H 0.04919 0.16277 0.79236 0.0
H106 H 0.08376 0.2386 0.77427 0.0
H107 H 0.10081 0.27824 0.74293 0.0
H108 H 0.91621 0.6413 0.22696 0.0
N109 N 0.96159 0.64621 0.19511 0.0
H110 H 0.94015 0.69993 0.25308 0.0
H111 H 0.04624 0.72537 0.19988 0.0
H112 H 0.06932 0.78471 0.22502 0.0
H113 H 0.02774 0.66551 0.16775 0.0
H114 H 0.04402 0.71625 0.14077 0.0
H115 H 0.90973 0.67953 0.18086 0.0
H116 H 0.92726 0.73238 0.15407 0.0
H117 H 0.90121 0.55612 0.1912 0.0
H118 H 0.04686 0.65349 0.20114 0.0
H119 H 0.91697 0.49229 0.19193 0.0
H120 H 0.06352 0.5909 0.20053 0.0
H121 H 0.96122 0.3529 0.21641 0.0
H122 H 0.9489 0.30417 0.24444 0.0
H123 H 0.08552 0.32212 0.23897 0.0
H124 H 0.09741 0.37066 0.2109 0.0
H125 H 0.09345 0.40277 0.16527 0.0
H126 H 0.08181 0.34562 0.13981 0.0
H127 H 0.94437 0.25426 0.15944 0.0
H128 H 0.95524 0.31193 0.18423 0.0
H129 H 0.96391 0.39135 0.17445 0.0
H130 H 0.94623 0.45338 0.17509 0.0
H131 H 0.06066 0.53018 0.21663 0.0
N132 N 0.03734 0.39076 0.19402 0.0
H133 H 0.08021 0.46938 0.21468 0.0
C134 C 0.97914 0.67872 0.21144 0.0
C135 C 0.95007 0.67218 0.22677 0.0
C136 C 0.96363 0.70604 0.24153 0.0
C137 C 0.0066 0.74748 0.24117 0.0
C138 C 0.03633 0.75314 0.22609 0.0
C139 C 0.02301 0.71911 0.21152 0.0
C140 C 0.96722 0.66844 0.17665 0.0
C141 C 0.00461 0.67862 0.16477 0.0
C142 C 0.01437 0.70835 0.14931 0.0
C143 C 0.9876 0.72926 0.14546 0.0
C144 C 0.94853 0.71679 0.15651 0.0
C145 C 0.93844 0.68657 0.17186 0.0
C146 C 0.97259 0.60959 0.19602 0.0
C147 C 0.93663 0.56369 0.19341 0.0
C148 C 0.94589 0.52727 0.19364 0.0
C149 C 0.99168 0.53602 0.19619 0.0
C150 C 0.02769 0.58228 0.19892 0.0
C151 C 0.01824 0.6185 0.19911 0.0
C152 C 0.03058 0.3658 0.21171 0.0
C153 C 0.98874 0.34689 0.22143 0.0
C154 C 0.98171 0.31896 0.23741 0.0
C155 C 0.01614 0.30908 0.24382 0.0
C156 C 0.05809 0.32855 0.23421 0.0
C157 C 0.06518 0.35666 0.21835 0.0
C158 C 0.02564 0.36153 0.1768 0.0
C159 C 0.06027 0.37113 0.16361 0.0
C160 C 0.05364 0.33853 0.14915 0.0
C161 C 0.01241 0.29559 0.1479 0.0
C162 C 0.97653 0.28713 0.16025 0.0
C163 C 0.9828 0.32006 0.17442 0.0
C164 C 0.02414 0.42586 0.19435 0.0
C165 C 0.98559 0.42161 0.18356 0.0
C166 C 0.97509 0.45719 0.18414 0.0
C167 C 0.00207 0.49739 0.19584 0.0
C168 C 0.03969 0.50066 0.20701 0.0
C169 C 0.05076 0.46565 0.20608 0.0
H170 H 0.75374 0.11834 0.54769 0.0
N171 N 0.68585 0.05498 0.52458 0.0
H172 H 0.79704 0.10497 0.57367 0.0
H173 H 0.66305 0.97142 0.53952 0.0
H174 H 0.70555 0.95759 0.56554 0.0
H175 H 0.65689 0.97314 0.50519 0.0
H176 H 0.69529 0.96128 0.47784 0.0
H177 H 0.74895 0.12017 0.50313 0.0
H178 H 0.78603 0.10921 0.47521 0.0
H179 H 0.67422 0.12711 0.5208 0.0
H180 H 0.59994 0.98048 0.52962 0.0
H181 H 0.6023 0.12895 0.52263 0.0
H182 H 0.5278 0.982 0.5326 0.0
H183 H 0.39295 0.1271 0.55956 0.0
H184 H 0.34145 0.10576 0.58666 0.0
H185 H 0.28218 0.96138 0.56992 0.0
H186 H 0.33694 0.98342 0.54404 0.0
H187 H 0.32973 0.99584 0.51173 0.0
H188 H 0.28721 0.99672 0.48252 0.0
H189 H 0.36614 0.14604 0.48405 0.0
H190 H 0.40898 0.14474 0.51331 0.0
H191 H 0.48039 0.13094 0.54668 0.0
H192 H 0.54994 0.12459 0.54538 0.0
H193 H 0.46955 0.9911 0.51603 0.0
N194 N 0.39585 0.07142 0.53283 0.0
H195 H 0.39976 0.9969 0.51848 0.0
C196 C 0.70531 0.04604 0.54173 0.0
C197 C 0.74254 0.08327 0.55187 0.0
C198 C 0.76713 0.07551 0.56669 0.0
C199 C 0.75495 0.03017 0.57155 0.0
C200 C 0.71619 0.9929 0.56194 0.0
C201 C 0.69156 0.00075 0.54715 0.0
C202 C 0.70082 0.04756 0.5063 0.0
C203 C 0.68473 0.00289 0.49855 0.0
C204 C 0.70654 0.99624 0.48283 0.0
C205 C 0.74445 0.03425 0.47458 0.0
C206 C 0.75784 0.07907 0.48154 0.0
C207 C 0.73641 0.08554 0.49732 0.0
C208 C 0.64244 0.05396 0.52532 0.0
C209 C 0.64222 0.09536 0.52329 0.0
C210 C 0.60109 0.0963 0.52455 0.0
C211 C 0.55911 0.05574 0.52812 0.0
C212 C 0.55931 0.01388 0.52976 0.0
C213 C 0.60062 0.01296 0.52825 0.0
C214 C 0.36809 0.05701 0.54963 0.0
C215 C 0.36927 0.09087 0.56203 0.0
C216 C 0.33927 0.07849 0.57735 0.0
C217 C 0.30657 0.03176 0.58034 0.0
C218 C 0.30681 0.9977 0.56824 0.0
C219 C 0.33771 0.01021 0.55319 0.0
C220 C 0.37268 0.07043 0.51473 0.0
C221 C 0.33831 0.02877 0.50576 0.0
C222 C 0.31372 0.02931 0.48908 0.0
C223 C 0.32315 0.07144 0.48101 0.0
C224 C 0.35837 0.11299 0.48977 0.0
C225 C 0.38279 0.11238 0.50648 0.0
C226 C 0.43522 0.0649 0.53245 0.0
C227 C 0.47789 0.10021 0.54011 0.0
C228 C 0.51764 0.09663 0.53916 0.0
C229 C 0.51576 0.05769 0.53024 0.0
C230 C 0.47244 0.02153 0.52305 0.0
C231 C 0.43243 0.02495 0.52428 0.0
H232 H 0.66443 0.77168 0.88183 0.0
N233 N 0.64696 0.6979 0.86061 0.0
H234 H 0.72632 0.81193 0.90697 0.0
H235 H 0.70004 0.66497 0.87694 0.0
H236 H 0.76399 0.70672 0.90127 0.0
H237 H 0.70826 0.67725 0.84413 0.0
H238 H 0.75156 0.71108 0.81532 0.0
H239 H 0.63493 0.75153 0.83573 0.0
H240 H 0.67761 0.785 0.80633 0.0
H241 H 0.57283 0.67817 0.88032 0.0
H242 H 0.6304 0.61498 0.84449 0.0
H243 H 0.50151 0.60394 0.88223 0.0
H244 H 0.55822 0.54149 0.84507 0.0
H245 H 0.26179 0.36423 0.87538 0.0
H246 H 0.2286 0.31801 0.90377 0.0
H247 H 0.36338 0.33834 0.92121 0.0
H248 H 0.39526 0.38165 0.8921 0.0
H249 H 0.36215 0.3255 0.85895 0.0
H250 H 0.32334 0.26231 0.83468 0.0
H251 H 0.26208 0.33478 0.80657 0.0
H252 H 0.30054 0.3975 0.83106 0.0
H253 H 0.36201 0.48339 0.86362 0.0
H254 H 0.43616 0.55534 0.8632 0.0
H255 H 0.50716 0.47709 0.86241 0.0
N256 N 0.34688 0.39796 0.86312 0.0
H257 H 0.43225 0.40532 0.86149 0.0
C258 C 0.67837 0.71605 0.87732 0.0
C259 C 0.6852 0.75667 0.88643 0.0
C260 C 0.72036 0.77948 0.90072 0.0
C261 C 0.74972 0.76232 0.90586 0.0
C262 C 0.74162 0.72044 0.89744 0.0
C263 C 0.70551 0.69691 0.88347 0.0
C264 C 0.66824 0.71197 0.84215 0.0
C265 C 0.70075 0.70016 0.83591 0.0
C266 C 0.7254 0.7194 0.81927 0.0
C267 C 0.71822 0.75093 0.80854 0.0
C268 C 0.68438 0.76127 0.81441 0.0
C269 C 0.6597 0.74194 0.83107 0.0
C270 C 0.60673 0.65261 0.86206 0.0
C271 C 0.56992 0.64825 0.87278 0.0
C272 C 0.52896 0.6058 0.87365 0.0
C273 C 0.52342 0.56661 0.86345 0.0
C274 C 0.56108 0.57068 0.8532 0.0
C275 C 0.60251 0.61311 0.85268 0.0
C276 C 0.33094 0.37684 0.88157 0.0
C277 C 0.28422 0.35921 0.88552 0.0
C278 C 0.26542 0.33297 0.90188 0.0
C279 C 0.29322 0.32427 0.91495 0.0
C280 C 0.34063 0.34353 0.91136 0.0
C281 C 0.35919 0.36905 0.89474 0.0
C282 C 0.33363 0.36591 0.84688 0.0
C283 C 0.34138 0.32834 0.84728 0.0
C284 C 0.31907 0.29221 0.83346 0.0
C285 C 0.28935 0.29347 0.81888 0.0
C286 C 0.28499 0.33299 0.81756 0.0
C287 C 0.30683 0.36877 0.83152 0.0
C288 C 0.39165 0.43926 0.86282 0.0
C289 C 0.39369 0.48198 0.8633 0.0
C290 C 0.43625 0.52305 0.86327 0.0
C291 C 0.47807 0.52236 0.86309 0.0
C292 C 0.47586 0.47919 0.86241 0.0
C293 C 0.43301 0.438 0.86208 0.0
H294 H 0.01107 0.16616 0.04968 0.0
H295 H 0.00595 0.05779 0.08543 0.0
H296 H 0.00487 0.09995 0.11483 0.0
H297 H 0.08858 0.26052 0.08255 0.0
H298 H 0.06147 0.29435 0.07735 0.0
H299 H 0.06051 0.255 0.05912 0.0
H300 H 0.97087 0.2145 0.05612 0.0
H301 H 0.97151 0.25356 0.07442 0.0
H302 H 0.93763 0.19201 0.07748 0.0
H303 H 1.00053 0.1518 0.14007 0.0
H304 H 0.00197 0.21436 0.15998 0.0
H305 H 0.01606 0.29211 0.10821 0.0
C306 C 0.00964 0.15133 0.06372 0.0
C307 C 0.00827 0.1086 0.06533 0.0
C308 C 0.00713 0.09055 0.08392 0.0
C309 C 0.00628 0.11411 0.10066 0.0
C310 C 0.00739 0.15602 0.09857 0.0
C311 C 0.00981 0.17489 0.08061 0.0
C312 C 0.01258 0.22138 0.08246 0.0
C313 C 0.05852 0.2601 0.07493 0.0
C314 C 0.97064 0.22027 0.072 0.0
C315 C 0.01086 0.22551 0.10426 0.0
C316 C 0.00727 0.18711 0.11323 0.0
C317 C 0.00369 0.18217 0.13323 0.0
C318 C 0.0043 0.21766 0.14439 0.0
C319 C 0.00912 0.25774 0.13555 0.0
C320 C 0.01251 0.26176 0.11525 0.0
H321 H 0.9781 0.09237 0.42468 0.0
H322 H 0.89714 0.98338 0.38157 0.0
H323 H 0.82563 0.96423 0.3986 0.0
H324 H 0.91143 0.03223 0.46611 0.0
H325 H 0.91815 0.08444 0.47707 0.0
H326 H 0.96236 0.08713 0.46192 0.0
H327 H 0.95507 0.14645 0.44038 0.0
H328 H 0.91053 0.14359 0.45532 0.0
H329 H 0.89929 0.13174 0.42958 0.0
H330 H 0.76215 0.96063 0.41987 0.0
H331 H 0.71397 0.97123 0.44369 0.0
H332 H 0.83876 0.08152 0.47256 0.0
C333 C 0.94549 0.06416 0.41881 0.0
C334 C 0.94332 0.03946 0.40173 0.0
C335 C 0.89976 0.00271 0.39468 0.0
C336 C 0.85895 0.99168 0.40423 0.0
C337 C 0.86241 0.01746 0.42086 0.0
C338 C 0.90476 0.05267 0.42814 0.0
C339 C 0.8996 0.07597 0.44596 0.0
C340 C 0.92434 0.06953 0.46382 0.0
C341 C 0.91715 0.12748 0.44259 0.0
C342 C 0.84758 0.04895 0.44748 0.0
C343 C 0.82652 0.01524 0.43296 0.0
C344 C 0.77841 0.98673 0.43137 0.0
C345 C 0.75133 0.99292 0.44499 0.0
C346 C 0.77246 0.02746 0.45993 0.0
C347 C 0.82128 0.05542 0.46113 0.0
H348 H 0.89184 0.97187 0.75031 0.0
H349 H 0.92522 0.88262 0.71692 0.0
H350 H 0.86574 0.8149 0.73378 0.0
H351 H 0.87705 0.91474 0.79464 0.0
H352 H 0.83025 0.92289 0.80197 0.0
H353 H 0.87313 0.96358 0.78628 0.0
H354 H 0.80814 0.9503 0.76102 0.0
H355 H 0.76503 0.90933 0.7766 0.0
H356 H 0.76785 0.89247 0.75202 0.0
H357 H 0.80435 0.75723 0.75519 0.0
H358 H 0.74822 0.71474 0.78033 0.0
H359 H 0.75737 0.84261 0.80014 0.0
C360 C 0.88643 0.93809 0.74635 0.0
C361 C 0.91317 0.93263 0.7322 0.0
C362 C 0.90523 0.88775 0.7277 0.0
C363 C 0.87138 0.84903 0.73714 0.0
C364 C 0.84587 0.85577 0.75108 0.0
C365 C 0.85313 0.89921 0.75571 0.0
C366 C 0.82288 0.89755 0.77192 0.0
C367 C 0.8526 0.92639 0.78975 0.0
C368 C 0.78896 0.91334 0.76496 0.0
C369 C 0.79769 0.84638 0.77583 0.0
C370 C 0.81111 0.82278 0.76356 0.0
C371 C 0.79349 0.77534 0.76484 0.0
C372 C 0.76181 0.75156 0.77921 0.0
C373 C 0.74827 0.77528 0.79219 0.0
C374 C 0.76622 0.82325 0.79023 0.0
H375 H 0.95801 0.88722 0.06621 0.0
H376 H 0.10789 0.97491 0.06989 0.0
H377 H 0.11309 0.92275 0.09354 0.0
H378 H 0.94379 0.859 0.11666 0.0
H379 H 0.8981 0.8001 0.11208 0.0
H380 H 0.90599 0.84417 0.0953 0.0
H381 H 0.91304 0.79629 0.06728 0.0
H382 H 0.9053 0.75212 0.08399 0.0
H383 H 0.95575 0.77852 0.06946 0.0
H384 H 0.10235 0.86224 0.11697 0.0
H385 H 0.07639 0.79759 0.13924 0.0
H386 H 0.93341 0.74726 0.11991 0.0
C387 C 0.9919 0.89548 0.07203 0.0
C388 C 0.03257 0.93518 0.06622 0.0
C389 C 0.07627 0.94472 0.07412 0.0
C390 C 0.0796 0.91527 0.08755 0.0
C391 C 0.03893 0.87636 0.0929 0.0
C392 C 0.9959 0.86634 0.08543 0.0
C393 C 0.95765 0.82229 0.09372 0.0
C394 C 0.92443 0.83199 0.10512 0.0
C395 C 0.9314 0.78511 0.07765 0.0
C396 C 0.98596 0.80934 0.10711 0.0
C397 C 0.03275 0.84098 0.10634 0.0
C398 C 0.06582 0.83698 0.11759 0.0
C399 C 0.05068 0.79981 0.13008 0.0
C400 C 0.00283 0.76684 0.13121 0.0
C401 C 0.97018 0.77181 0.11945 0.0
H402 H 0.09125 0.00653 0.41857 0.0
H403 H 0.17858 0.10485 0.3766 0.0
H404 H 0.24842 0.12099 0.39638 0.0
H405 H 0.15954 0.06555 0.46267 0.0
H406 H 0.14743 0.01194 0.4732 0.0
H407 H 0.1067 0.01285 0.45572 0.0
H408 H 0.11297 0.94871 0.43615 0.0
H409 H 0.15649 0.95219 0.45333 0.0
H410 H 0.16877 0.96122 0.42798 0.0
H411 H 0.30812 0.12965 0.42153 0.0
H412 H 0.35466 0.12583 0.44924 0.0
H413 H 0.22889 0.01929 0.4743 0.0
C414 C 0.12517 0.03164 0.41371 0.0
C415 C 0.12986 0.05618 0.39662 0.0
C416 C 0.17455 0.08736 0.39015 0.0
C417 C 0.2143 0.09639 0.40118 0.0
C418 C 0.20864 0.07303 0.41838 0.0
C419 C 0.16529 0.04084 0.42453 0.0
C420 C 0.16915 0.01924 0.4432 0.0
C421 C 0.14417 0.02794 0.45964 0.0
C422 C 0.15076 0.96726 0.43996 0.0
C423 C 0.22125 0.0456 0.44693 0.0
C424 C 0.24335 0.07632 0.4324 0.0
C425 C 0.29128 0.1055 0.43293 0.0
C426 C 0.31737 0.1033 0.44878 0.0
C427 C 0.29546 0.07219 0.4639 0.0
C428 C 0.24675 0.04285 0.46281 0.0
H429 H 0.13401 0.1527 0.72469 0.0
H430 H 0.06738 0.0333 0.76094 0.0
H431 H 0.11808 0.0797 0.78896 0.0
H432 H 0.24742 0.18737 0.74563 0.0
H433 H 0.26982 0.24856 0.7436 0.0
H434 H 0.22535 0.20845 0.72655 0.0
H435 H 0.16891 0.2392 0.7356 0.0
H436 H 0.21811 0.28215 0.74994 0.0
H437 H 0.16386 0.24805 0.76114 0.0
H438 H 0.17565 0.13808 0.81278 0.0
H439 H 0.23622 0.20604 0.83144 0.0
H440 H 0.27037 0.28687 0.77942 0.0
C441 C 0.12936 0.13702 0.73873 0.0
C442 C 0.09566 0.09014 0.74105 0.0
C443 C 0.09218 0.0696 0.75919 0.0
C444 C 0.1209 0.09558 0.7751 0.0
C445 C 0.15414 0.1416 0.77238 0.0
C446 C 0.15883 0.16224 0.75466 0.0
C447 C 0.20052 0.21091 0.75531 0.0
C448 C 0.23799 0.21398 0.74198 0.0
C449 C 0.18687 0.24711 0.75015 0.0
C450 C 0.21618 0.21537 0.77648 0.0
C451 C 0.18952 0.17461 0.78592 0.0
C452 C 0.19691 0.17017 0.80556 0.0
C453 C 0.2316 0.20886 0.816 0.0
C454 C 0.25812 0.25158 0.80685 0.0
C455 C 0.25067 0.25458 0.78675 0.0
H456 H 0.91848 0.07789 0.66626 0.0
H457 H 0.94372 0.97058 0.64459 0.0
H458 H 0.89155 0.95759 0.61612 0.0
H459 H 0.79813 0.02252 0.65161 0.0
H460 H 0.8002 0.07539 0.64484 0.0
H461 H 0.83974 0.07654 0.66351 0.0
H462 H 0.90947 0.13701 0.6446 0.0
H463 H 0.87014 0.13623 0.62592 0.0
H464 H 0.91533 0.12446 0.61973 0.0
H465 H 0.83562 0.95527 0.59031 0.0
H466 H 0.78318 0.96671 0.56804 0.0
H467 H 0.7945 0.07557 0.6065 0.0
C468 C 0.91313 0.05164 0.65556 0.0
C469 C 0.93519 0.02516 0.65775 0.0
C470 C 0.92736 0.9914 0.64327 0.0
C471 C 0.89765 0.98364 0.62706 0.0
C472 C 0.87619 0.01004 0.62548 0.0
C473 C 0.8838 0.04358 0.63925 0.0
C474 C 0.85691 0.06761 0.63398 0.0
C475 C 0.82165 0.06004 0.6494 0.0
C476 C 0.88994 0.11939 0.63087 0.0
C477 C 0.83288 0.04224 0.61509 0.0
C478 C 0.8443 0.00902 0.6105 0.0
C479 C 0.82636 0.98111 0.59377 0.0
C480 C 0.7963 0.98763 0.58129 0.0
C481 C 0.78453 0.02187 0.58556 0.0
C482 C 0.80304 0.04931 0.60277 0.0
H483 H 0.89196 0.922 0.99808 0.0
H484 H 0.01412 0.97724 0.96378 0.0
H485 H 0.9673 0.92436 0.93637 0.0
H486 H 0.85097 0.805 0.98119 0.0
H487 H 0.7903 0.78697 0.98177 0.0
H488 H 0.83149 0.83192 0.99832 0.0
H489 H 0.80687 0.89096 0.98547 0.0
H490 H 0.76257 0.842 0.97159 0.0
H491 H 0.80055 0.89388 0.95941 0.0
H492 H 0.90791 0.86522 0.91302 0.0
H493 H 0.83819 0.8057 0.89448 0.0
H494 H 0.75506 0.78583 0.94434 0.0
C495 C 0.90828 0.92373 0.98455 0.0
C496 C 0.95609 0.95468 0.98259 0.0
C497 C 0.97721 0.95446 0.9652 0.0
C498 C 0.95099 0.92446 0.94967 0.0
C499 C 0.90404 0.89378 0.95208 0.0
C500 C 0.88275 0.89303 0.96907 0.0
C501 C 0.83271 0.85384 0.9684 0.0
C502 C 0.82599 0.81727 0.9833 0.0
C503 C 0.79878 0.87139 0.97144 0.0
C504 C 0.82833 0.83524 0.94788 0.0
C505 C 0.87024 0.85796 0.93892 0.0
C506 C 0.87493 0.84713 0.91988 0.0
C507 C 0.83535 0.81324 0.90951 0.0
C508 C 0.79176 0.79131 0.91813 0.0
C509 C 0.78829 0.80196 0.9376 0.0
H510 H 0.96801 0.91549 0.31228 0.0
H511 H 0.1177 0.9944 0.32151 0.0
H512 H 0.12526 0.93992 0.29985 0.0
H513 H 0.95579 0.80321 0.3105 0.0
H514 H 0.91151 0.78057 0.29128 0.0
H515 H 0.91718 0.82587 0.30743 0.0
H516 H 0.92581 0.8771 0.27812 0.0
H517 H 0.91958 0.83173 0.26188 0.0
H518 H 0.96976 0.88877 0.26095 0.0
H519 H 0.11678 0.87473 0.279 0.0
H520 H 0.09359 0.80772 0.25703 0.0
H521 H 0.94985 0.7738 0.25893 0.0
C522 C 0.00235 0.92145 0.3096 0.0
C523 C 0.04226 0.95919 0.31862 0.0
C524 C 0.08662 0.96589 0.31471 0.0
C525 C 0.0913 0.93498 0.3025 0.0
C526 C 0.05135 0.89778 0.29408 0.0
C527 C 0.00776 0.89123 0.29716 0.0
C528 C 0.97068 0.84892 0.28586 0.0
C529 C 0.9368 0.81249 0.29959 0.0
C530 C 0.94495 0.86245 0.27081 0.0
C531 C 1.0003 0.83259 0.27616 0.0
C532 C 0.04665 0.86107 0.28128 0.0
C533 C 0.08064 0.85256 0.27461 0.0
C534 C 0.06707 0.81446 0.26201 0.0
C535 C 0.01989 0.78553 0.2559 0.0
C536 C 0.98614 0.79472 0.26334 0.0
H537 H 0.13559 0.06678 0.6479 0.0
H538 H 0.09156 0.93089 0.67046 0.0
H539 H 0.14539 0.9228 0.64913 0.0
H540 H 0.14463 0.03657 0.5982 0.0
H541 H 0.19423 0.09236 0.59389 0.0
H542 H 0.15251 0.08728 0.61108 0.0
H543 H 0.21828 0.12692 0.63766 0.0
H544 H 0.26013 0.13176 0.6206 0.0
H545 H 0.25496 0.10295 0.64312 0.0
H546 H 0.20744 0.93174 0.62661 0.0
H547 H 0.26764 0.95373 0.60258 0.0
H548 H 0.26537 0.08068 0.59268 0.0
C549 C 0.13726 0.03531 0.64831 0.0
C550 C 0.10968 0.99954 0.66087 0.0
C551 C 0.11238 0.95866 0.66089 0.0
C552 C 0.14295 0.95383 0.64889 0.0
C553 C 0.16998 0.98992 0.63677 0.0
C554 C 0.1669 0.02956 0.63618 0.0
C555 C 0.19877 0.06264 0.62147 0.0
C556 C 0.17086 0.07013 0.60519 0.0
C557 C 0.23519 0.10879 0.63131 0.0
C558 C 0.22076 0.03572 0.61409 0.0
C559 C 0.20401 0.99405 0.62319 0.0
C560 C 0.22033 0.96401 0.61918 0.0
C561 C 0.2544 0.97673 0.60537 0.0
C562 C 0.27145 0.01893 0.5955 0.0
C563 C 0.25401 0.04854 0.60004 0.0
H564 H 0.09219 0.18111 0.98716 0.0
H565 H 0.15468 0.09646 0.99821 0.0
H566 H 0.22195 0.14965 0.97937 0.0
H567 H 0.12189 0.20403 0.93947 0.0
H568 H 0.13389 0.26289 0.94031 0.0
H569 H 0.09361 0.22161 0.95659 0.0
H570 H 0.14132 0.27472 0.98607 0.0
H571 H 0.18165 0.31647 0.96985 0.0
H572 H 0.2023 0.29409 0.98894 0.0
H573 H 0.27669 0.20587 0.95562 0.0
H574 H 0.31629 0.26238 0.93034 0.0
H575 H 0.22075 0.3136 0.93678 0.0
C576 C 0.1204 0.17417 0.98596 0.0
C577 C 0.11813 0.13458 0.99417 0.0
C578 C 0.15576 0.12673 0.99218 0.0
C579 C 0.1941 0.15673 0.98149 0.0
C580 C 0.19463 0.19481 0.97318 0.0
C581 C 0.15906 0.20396 0.97556 0.0
C582 C 0.16666 0.24568 0.96432 0.0
C583 C 0.12665 0.23275 0.94929 0.0
C584 C 0.1734 0.28507 0.97812 0.0
C585 C 0.21118 0.25755 0.95463 0.0
C586 C 0.22696 0.22803 0.96 0.0
C587 C 0.26533 0.22993 0.95168 0.0
C588 C 0.28783 0.26249 0.93736 0.0
C589 C 0.27208 0.293 0.93152 0.0
C590 C 0.23373 0.29081 0.94069 0.0
H591 H 0.04377 0.12372 0.30632 0.0
H592 H 0.99226 0.16615 0.35457 0.0
H593 H 0.97538 0.21455 0.33286 0.0
H594 H 0.10334 0.23296 0.28636 0.0
H595 H 0.09159 0.21324 0.26132 0.0
H596 H 0.09301 0.17622 0.27975 0.0
H597 H 0.01001 0.11203 0.26888 0.0
H598 H 0.00846 0.14876 0.25027 0.0
H599 H 0.96375 0.12503 0.26773 0.0
H600 H 0.97006 0.263 0.30689 0.0
H601 H 0.97905 0.3106 0.27842 0.0
H602 H 0.03676 0.23955 0.24704 0.0
C603 C 0.02768 0.1422 0.31209 0.0
C604 C 0.01861 0.14087 0.33198 0.0
C605 C 0.99907 0.16663 0.3393 0.0
C606 C 0.98926 0.19406 0.32709 0.0
C607 C 0.99961 0.19567 0.30762 0.0
C608 C 0.01843 0.17053 0.30012 0.0
C609 C 0.03044 0.18207 0.27913 0.0
C610 C 0.08269 0.20233 0.2765 0.0
C611 C 0.00142 0.13943 0.26571 0.0
C612 C 0.01637 0.21825 0.27619 0.0
C613 C 0.99798 0.225 0.29272 0.0
C614 C 0.98392 0.25771 0.29377 0.0
C615 C 0.98905 0.2845 0.27753 0.0
C616 C 0.00856 0.27877 0.26053 0.0
C617 C 0.02198 0.24488 0.25988 0.0
loop_
_geom_bond_atom_site_label_1
_geom_bond_atom_site_label_2
_geom_bond_distance
_geom_bond_site_symmetry_2
_ccdc_geom_bond_type
Mn0 O5 2.095 . S
Mn0 O15 2.162 1_545 S
Mn0 O16 2.297 1_545 S
Mn0 O24 2.385 1_545 S
Mn0 O25 2.209 1_455 S
Mn0 O26 2.094 . S
Mn1 O6 2.121 . S
Mn1 N8 2.257 . S
Mn1 N17 2.282 1_554 S
Mn1 O25 2.215 . S
Mn1 O27 2.117 1_654 S
C2 O24 1.234 1_655 S
C2 O25 1.283 1_565 S
C3 O15 1.281 . S
C3 O16 1.236 . S
C4 O26 1.265 . S
C4 O27 1.259 1_554 S
O5 Mn0 2.095 . S
O5 C14 1.250 . S
O6 Mn1 2.121 . S
O6 C14 1.258 1_655 S
C7 N8 1.326 . S
C7 C11 1.460 . S
C7 H13 0.929 . S
N8 Mn1 2.257 . S
N8 C7 1.326 . S
N8 C12 1.362 1_554 S
C9 C10 1.258 . S
C9 C12 1.431 . S
C9 C29 1.449 . S
C10 C9 1.258 . S
C10 C11 1.477 1_556 S
C10 H30 0.931 . S
C11 C7 1.460 . S
C11 C10 1.477 1_554 S
C11 H31 0.930 . S
C12 N8 1.362 1_556 S
C12 C9 1.431 . S
C12 C22 1.476 . S
H13 C7 0.929 . S
C14 O5 1.250 . S
C14 O6 1.258 1_455 S
O15 Mn0 2.162 1_565 S
O15 C3 1.281 . S
O16 Mn0 2.297 1_565 S
O16 C3 1.236 . S
N17 Mn1 2.282 1_556 S
N17 C18 1.328 . S
N17 C22 1.318 . S
C18 N17 1.328 . S
C18 C19 1.457 . S
C18 H23 0.929 1_655 S
C19 C18 1.457 . S
C19 C20 1.291 . S
C19 H32 0.931 . S
C20 C19 1.291 . S
C20 C21 1.373 . S
C20 H33 0.929 1_545 S
C21 C20 1.373 . S
C21 C22 1.396 . S
C21 C28 1.403 . S
C22 C12 1.476 . S
C22 N17 1.318 . S
C22 C21 1.396 . S
H23 C18 0.929 1_455 S
O24 Mn0 2.385 1_565 S
O24 C2 1.234 1_455 S
O25 Mn0 2.209 1_655 S
O25 Mn1 2.215 . S
O25 C2 1.283 1_545 S
O26 Mn0 2.094 . S
O26 C4 1.265 . S
O27 Mn1 2.117 1_456 S
O27 C4 1.259 1_556 S
C28 C21 1.403 . S
C28 C29 1.399 . S
C28 H34 0.929 1_545 S
C29 C9 1.449 . S
C29 C28 1.399 . S
C29 H35 0.922 . S
H30 C10 0.931 . S
H31 C11 0.930 . S
H32 C19 0.931 . S
H33 C20 0.929 1_565 S
H34 C28 0.929 1_565 S
H35 C29 0.922 . S
Mn36 O41 2.095 . S
Mn36 O51 2.162 1_545 S
Mn36 O52 2.297 1_645 S
Mn36 O60 2.385 1_645 S
Mn36 O61 2.209 1_655 S
Mn36 O62 2.094 1_545 S
Mn37 O42 2.121 . S
Mn37 N44 2.257 . S
Mn37 N53 2.282 . S
Mn37 O61 2.215 . S
Mn37 O63 2.117 1_455 S
C38 O60 1.234 1_545 S
C38 O61 1.283 . S
C39 O51 1.280 1_455 S
C39 O52 1.236 . S
C40 O62 1.240 1_545 S
C40 O63 1.264 . S
O41 Mn36 2.095 . S
O41 C50 1.250 1_655 S
O42 Mn37 2.121 . S
O42 C50 1.258 . S
C43 N44 1.326 . S
C43 C47 1.460 . S
C43 H49 0.929 . S
N44 Mn37 2.257 . S
N44 C43 1.326 . S
N44 C48 1.362 . S
C45 C46 1.258 . S
C45 C48 1.431 . S
C45 C65 1.449 . S
C46 C45 1.258 . S
C46 C47 1.477 . S
C46 H66 0.931 . S
C47 C43 1.460 . S
C47 C46 1.477 . S
C47 H67 0.930 . S
C48 N44 1.362 . S
C48 C45 1.431 . S
C48 C58 1.476 . S
H49 C43 0.929 . S
C50 O41 1.250 1_455 S
C50 O42 1.258 . S
O51 Mn36 2.162 1_565 S
O51 C39 1.280 1_655 S
O52 Mn36 2.297 1_465 S
O52 C39 1.236 . S
N53 Mn37 2.282 . S
N53 C54 1.328 . S
N53 C58 1.318 . S
C54 N53 1.328 . S
C54 C55 1.457 . S
C54 H59 0.929 . S
C55 C54 1.457 . S
C55 C56 1.291 . S
C55 H68 0.931 . S
C56 C55 1.291 . S
C56 C57 1.373 . S
C56 H69 0.929 . S
C57 C56 1.373 . S
C57 C58 1.396 . S
C57 C64 1.403 . S
C58 C48 1.476 . S
C58 N53 1.318 . S
C58 C57 1.396 . S
H59 C54 0.929 . S
O60 Mn36 2.385 1_465 S
O60 C38 1.234 1_565 S
O61 Mn36 2.209 1_455 S
O61 Mn37 2.215 . S
O61 C38 1.283 . S
O62 Mn36 2.094 1_565 S
O62 C40 1.240 1_565 S
O63 Mn37 2.117 1_655 S
O63 C40 1.264 . S
C64 C57 1.403 . S
C64 C65 1.399 . S
C64 H70 0.929 . S
C65 C45 1.449 . S
C65 C64 1.399 . S
C65 H71 0.930 . S
H66 C46 0.931 . S
H67 C47 0.930 . S
H68 C55 0.931 . S
H69 C56 0.929 . S
H70 C64 0.929 . S
H71 C65 0.930 . S
Mn72 O77 2.095 1_455 S
Mn72 O87 2.162 1_545 S
Mn72 O88 2.297 . S
Mn72 O96 2.385 . S
Mn72 O97 2.209 . S
Mn72 O98 2.094 1_445 S
Mn73 O78 2.121 . S
Mn73 N80 2.257 . S
Mn73 N89 2.282 . S
Mn73 O97 2.215 1_655 S
Mn73 O99 2.117 1_545 S
C74 O96 1.234 . S
C74 O97 1.283 . S
C75 O87 1.281 1_545 S
C75 O88 1.236 . S
C76 O98 1.240 . S
C76 O99 1.264 . S
O77 Mn72 2.095 1_655 S
O77 C86 1.250 . S
O78 Mn73 2.121 . S
O78 C86 1.258 . S
C79 N80 1.326 . S
C79 C83 1.460 . S
C79 H85 0.929 . S
N80 Mn73 2.257 . S
N80 C79 1.326 . S
N80 C84 1.362 1_655 S
C81 C82 1.258 . S
C81 C84 1.431 . S
C81 C101 1.449 . S
C82 C81 1.258 . S
C82 C83 1.477 1_455 S
C82 H102 0.931 . S
C83 C79 1.460 . S
C83 C82 1.477 1_655 S
C83 H103 0.930 . S
C84 N80 1.362 1_455 S
C84 C81 1.431 . S
C84 C94 1.476 . S
H85 C79 0.929 . S
C86 O77 1.250 . S
C86 O78 1.258 . S
O87 Mn72 2.162 1_565 S
O87 C75 1.281 1_565 S
O88 Mn72 2.297 . S
O88 C75 1.236 . S
N89 Mn73 2.282 . S
N89 C90 1.328 1_655 S
N89 C94 1.318 1_655 S
C90 N89 1.328 1_455 S
C90 C91 1.457 . S
C90 H95 0.929 1_455 S
C91 C90 1.457 . S
C91 C92 1.291 . S
C91 H104 0.931 . S
C92 C91 1.291 . S
C92 C93 1.373 . S
C92 H105 0.929 . S
C93 C92 1.373 . S
C93 C94 1.396 . S
C93 C100 1.403 . S
C94 C84 1.476 . S
C94 N89 1.318 1_455 S
C94 C93 1.396 . S
H95 C90 0.929 1_655 S
O96 Mn72 2.385 . S
O96 C74 1.234 . S
O97 Mn72 2.209 . S
O97 Mn73 2.215 1_455 S
O97 C74 1.283 . S
O98 Mn72 2.094 1_665 S
O98 C76 1.240 . S
O99 Mn73 2.117 1_565 S
O99 C76 1.264 . S
C100 C93 1.403 . S
C100 C101 1.399 . S
C100 H106 0.929 . S
C101 C81 1.449 . S
C101 C100 1.399 . S
C101 H107 0.930 . S
H102 C82 0.931 . S
H103 C83 0.930 . S
H104 C91 0.931 . S
H105 C92 0.929 . S
H106 C100 0.929 . S
H107 C101 0.930 . S
H108 C135 0.929 . S
N109 C134 1.433 1_655 S
N109 C140 1.435 1_655 S
N109 C146 1.423 . S
H110 C136 0.930 . S
H111 C139 0.931 . S
H112 C138 0.929 . S
H113 C141 0.930 . S
H114 C142 0.932 . S
H115 C145 0.929 . S
H116 C144 0.931 . S
H117 C147 0.929 . S
H118 C151 0.932 . S
H119 C148 0.931 . S
H120 C150 0.929 . S
H121 C153 0.929 . S
H122 C154 0.930 . S
H123 C156 0.929 . S
H124 C157 0.931 . S
H125 C159 0.930 . S
H126 C160 0.932 . S
H127 C162 0.931 . S
H128 C163 0.929 . S
H129 C165 0.929 . S
H130 C166 0.931 . S
H131 C168 0.929 . S
N132 C152 1.433 1_655 S
N132 C158 1.435 1_655 S
N132 C164 1.423 . S
H133 C169 0.932 . S
C134 N109 1.433 1_455 S
C134 C135 1.363 1_455 S
C134 C139 1.370 . S
C135 H108 0.929 . S
C135 C134 1.363 1_655 S
C135 C136 1.385 . S
C136 H110 0.930 . S
C136 C135 1.385 . S
C136 C137 1.357 1_655 S
C137 C136 1.357 1_455 S
C137 C138 1.406 . S
C138 H112 0.929 . S
C138 C137 1.406 . S
C138 C139 1.391 . S
C139 H111 0.931 . S
C139 C134 1.370 . S
C139 C138 1.391 . S
C140 N109 1.435 1_455 S
C140 C141 1.358 . S
C140 C145 1.371 1_455 S
C141 H113 0.930 . S
C141 C140 1.358 . S
C141 C142 1.405 . S
C142 H114 0.932 . S
C142 C141 1.405 . S
C142 C143 1.383 . S
C143 C142 1.383 . S
C143 C144 1.393 1_455 S
C144 H116 0.931 . S
C144 C143 1.393 1_655 S
C144 C145 1.382 . S
C145 H115 0.929 . S
C145 C140 1.371 1_655 S
C145 C144 1.382 . S
C146 N109 1.423 . S
C146 C147 1.362 . S
C146 C151 1.388 1_655 S
C147 H117 0.929 . S
C147 C146 1.362 . S
C147 C148 1.376 . S
C148 H119 0.931 . S
C148 C147 1.376 . S
C148 C149 1.396 . S
C149 C148 1.396 . S
C149 C150 1.348 1_655 S
C149 C167 1.472 . S
C150 H120 0.929 . S
C150 C149 1.348 1_455 S
C150 C151 1.443 . S
C151 H118 0.932 . S
C151 C146 1.388 1_455 S
C151 C150 1.443 . S
C152 N132 1.433 1_455 S
C152 C153 1.363 1_455 S
C152 C157 1.370 . S
C153 H121 0.929 . S
C153 C152 1.363 1_655 S
C153 C154 1.385 . S
C154 H122 0.930 . S
C154 C153 1.385 . S
C154 C155 1.357 1_655 S
C155 C154 1.357 1_455 S
C155 C156 1.406 . S
C156 H123 0.929 . S
C156 C155 1.406 . S
C156 C157 1.391 . S
C157 H124 0.931 . S
C157 C152 1.370 . S
C157 C156 1.391 . S
C158 N132 1.435 1_455 S
C158 C159 1.358 . S
C158 C163 1.371 1_455 S
C159 H125 0.930 . S
C159 C158 1.358 . S
C159 C160 1.405 . S
C160 H126 0.932 . S
C160 C159 1.405 . S
C160 C161 1.383 . S
C161 C160 1.383 . S
C161 C162 1.393 1_455 S
C162 H127 0.931 . S
C162 C161 1.393 1_655 S
C162 C163 1.382 . S
C163 H128 0.929 . S
C163 C158 1.371 1_655 S
C163 C162 1.382 . S
C164 N132 1.423 . S
C164 C165 1.362 . S
C164 C169 1.388 1_655 S
C165 H129 0.929 . S
C165 C164 1.362 . S
C165 C166 1.376 . S
C166 H130 0.931 . S
C166 C165 1.376 . S
C166 C167 1.396 . S
C167 C149 1.472 . S
C167 C166 1.396 . S
C167 C168 1.348 1_655 S
C168 H131 0.929 . S
C168 C167 1.348 1_455 S
C168 C169 1.443 . S
C169 H133 0.932 . S
C169 C164 1.388 1_455 S
C169 C168 1.443 . S
H170 C197 0.929 . S
N171 C196 1.433 . S
N171 C202 1.435 . S
N171 C208 1.423 . S
H172 C198 0.930 . S
H173 C201 0.931 . S
H174 C200 0.929 . S
H175 C203 0.930 . S
H176 C204 0.932 . S
H177 C207 0.929 . S
H178 C206 0.931 . S
H179 C209 0.929 . S
H180 C213 0.932 . S
H181 C210 0.931 . S
H182 C212 0.929 . S
H183 C215 0.929 . S
H184 C216 0.930 . S
H185 C218 0.929 . S
H186 C219 0.931 . S
H187 C221 0.930 . S
H188 C222 0.932 . S
H189 C224 0.931 . S
H190 C225 0.929 . S
H191 C227 0.929 . S
H192 C228 0.931 . S
H193 C230 0.929 . S
N194 C214 1.433 . S
N194 C220 1.435 . S
N194 C226 1.423 . S
H195 C231 0.932 . S
C196 N171 1.433 . S
C196 C197 1.363 . S
C196 C201 1.370 . S
C197 H170 0.929 . S
C197 C196 1.363 . S
C197 C198 1.385 . S
C198 H172 0.930 . S
C198 C197 1.385 . S
C198 C199 1.357 . S
C199 C198 1.357 . S
C199 C200 1.406 . S
C200 H174 0.929 . S
C200 C199 1.406 . S
C200 C201 1.391 . S
C201 H173 0.931 . S
C201 C196 1.370 . S
C201 C200 1.391 . S
C202 N171 1.435 . S
C202 C203 1.358 . S
C202 C207 1.371 . S
C203 H175 0.930 . S
C203 C202 1.358 . S
C203 C204 1.405 . S
C204 H176 0.932 . S
C204 C203 1.405 . S
C204 C205 1.383 . S
C205 C204 1.383 . S
C205 C206 1.393 . S
C206 H178 0.931 . S
C206 C205 1.393 . S
C206 C207 1.382 . S
C207 H177 0.929 . S
C207 C202 1.371 . S
C207 C206 1.382 . S
C208 N171 1.423 . S
C208 C209 1.362 . S
C208 C213 1.388 . S
C209 H179 0.929 . S
C209 C208 1.362 . S
C209 C210 1.376 . S
C210 H181 0.931 . S
C210 C209 1.376 . S
C210 C211 1.396 . S
C211 C210 1.396 . S
C211 C212 1.348 . S
C211 C229 1.472 . S
C212 H182 0.929 . S
C212 C211 1.348 . S
C212 C213 1.443 . S
C213 H180 0.932 . S
C213 C208 1.388 . S
C213 C212 1.443 . S
C214 N194 1.433 . S
C214 C215 1.363 . S
C214 C219 1.370 . S
C215 H183 0.929 . S
C215 C214 1.363 . S
C215 C216 1.385 . S
C216 H184 0.930 . S
C216 C215 1.385 . S
C216 C217 1.357 . S
C217 C216 1.357 . S
C217 C218 1.406 . S
C218 H185 0.929 . S
C218 C217 1.406 . S
C218 C219 1.391 . S
C219 H186 0.931 . S
C219 C214 1.370 . S
C219 C218 1.391 . S
C220 N194 1.435 . S
C220 C221 1.358 . S
C220 C225 1.371 . S
C221 H187 0.930 . S
C221 C220 1.358 . S
C221 C222 1.405 . S
C222 H188 0.932 . S
C222 C221 1.405 . S
C222 C223 1.383 . S
C223 C222 1.383 . S
C223 C224 1.393 . S
C224 H189 0.931 . S
C224 C223 1.393 . S
C224 C225 1.382 . S
C225 H190 0.929 . S
C225 C220 1.371 . S
C225 C224 1.382 . S
C226 N194 1.423 . S
C226 C227 1.362 . S
C226 C231 1.388 . S
C227 H191 0.929 . S
C227 C226 1.362 . S
C227 C228 1.376 . S
C228 H192 0.931 . S
C228 C227 1.376 . S
C228 C229 1.396 . S
C229 C211 1.472 . S
C229 C228 1.396 . S
C229 C230 1.348 . S
C230 H193 0.929 . S
C230 C229 1.348 . S
C230 C231 1.443 . S
C231 H195 0.932 . S
C231 C226 1.388 . S
C231 C230 1.443 . S
H232 C259 0.929 . S
N233 C258 1.433 . S
N233 C264 1.435 . S
N233 C270 1.423 . S
H234 C260 0.930 . S
H235 C263 0.931 . S
H236 C262 0.929 . S
H237 C265 0.930 . S
H238 C266 0.932 . S
H239 C269 0.929 . S
H240 C268 0.931 . S
H241 C271 0.929 . S
H242 C275 0.932 . S
H243 C272 0.931 . S
H244 C274 0.929 . S
H245 C277 0.929 . S
H246 C278 0.930 . S
H247 C280 0.929 . S
H248 C281 0.931 . S
H249 C283 0.930 . S
H250 C284 0.932 . S
H251 C286 0.931 . S
H252 C287 0.929 . S
H253 C289 0.929 . S
H254 C290 0.931 . S
H255 C292 0.929 . S
N256 C276 1.433 . S
N256 C282 1.435 . S
N256 C288 1.423 . S
H257 C293 0.932 . S
C258 N233 1.433 . S
C258 C259 1.363 . S
C258 C263 1.370 . S
C259 H232 0.929 . S
C259 C258 1.363 . S
C259 C260 1.385 . S
C260 H234 0.930 . S
C260 C259 1.385 . S
C260 C261 1.357 . S
C261 C260 1.357 . S
C261 C262 1.406 . S
C262 H236 0.929 . S
C262 C261 1.406 . S
C262 C263 1.391 . S
C263 H235 0.931 . S
C263 C258 1.370 . S
C263 C262 1.391 . S
C264 N233 1.435 . S
C264 C265 1.358 . S
C264 C269 1.371 . S
C265 H237 0.930 . S
C265 C264 1.358 . S
C265 C266 1.405 . S
C266 H238 0.932 . S
C266 C265 1.405 . S
C266 C267 1.383 . S
C267 C266 1.383 . S
C267 C268 1.393 . S
C268 H240 0.931 . S
C268 C267 1.393 . S
C268 C269 1.382 . S
C269 H239 0.929 . S
C269 C264 1.371 . S
C269 C268 1.382 . S
C270 N233 1.423 . S
C270 C271 1.362 . S
C270 C275 1.388 . S
C271 H241 0.929 . S
C271 C270 1.362 . S
C271 C272 1.376 . S
C272 H243 0.931 . S
C272 C271 1.376 . S
C272 C273 1.396 . S
C273 C272 1.396 . S
C273 C274 1.348 . S
C273 C291 1.472 . S
C274 H244 0.929 . S
C274 C273 1.348 . S
C274 C275 1.443 . S
C275 H242 0.932 . S
C275 C270 1.388 . S
C275 C274 1.443 . S
C276 N256 1.433 . S
C276 C277 1.363 . S
C276 C281 1.370 . S
C277 H245 0.929 . S
C277 C276 1.363 . S
C277 C278 1.385 . S
C278 H246 0.930 . S
C278 C277 1.385 . S
C278 C279 1.357 . S
C279 C278 1.357 . S
C279 C280 1.406 . S
C280 H247 0.929 . S
C280 C279 1.406 . S
C280 C281 1.391 . S
C281 H248 0.931 . S
C281 C276 1.370 . S
C281 C280 1.391 . S
C282 N256 1.435 . S
C282 C283 1.358 . S
C282 C287 1.371 . S
C283 H249 0.930 . S
C283 C282 1.358 . S
C283 C284 1.405 . S
C284 H250 0.932 . S
C284 C283 1.405 . S
C284 C285 1.383 . S
C285 C284 1.383 . S
C285 C286 1.393 . S
C286 H251 0.931 . S
C286 C285 1.393 . S
C286 C287 1.382 . S
C287 H252 0.929 . S
C287 C282 1.371 . S
C287 C286 1.382 . S
C288 N256 1.423 . S
C288 C289 1.362 . S
C288 C293 1.388 . S
C289 H253 0.929 . S
C289 C288 1.362 . S
C289 C290 1.376 . S
C290 H254 0.931 . S
C290 C289 1.376 . S
C290 C291 1.396 . S
C291 C273 1.472 . S
C291 C290 1.396 . S
C291 C292 1.348 . S
C292 H255 0.929 . S
C292 C291 1.348 . S
C292 C293 1.443 . S
C293 H257 0.932 . S
C293 C288 1.388 . S
C293 C292 1.443 . S
H294 C306 0.930 . S
H295 C308 0.930 . S
H296 C309 0.930 . S
H297 C313 0.959 . S
H298 C313 0.959 . S
H299 C313 0.961 . S
H300 C314 0.960 . S
H301 C314 0.961 . S
H302 C314 0.959 . S
H303 C317 0.929 . S
H304 C318 0.931 . S
H305 C320 0.930 . S
C306 H294 0.930 . S
C306 C307 1.399 . S
C306 C311 1.399 . S
C307 C306 1.399 . S
C307 C308 1.376 1_455 S
C308 H295 0.930 . S
C308 C307 1.376 1_655 S
C308 C309 1.388 . S
C309 H296 0.930 . S
C309 C308 1.388 . S
C309 C310 1.390 1_655 S
C310 C309 1.390 1_455 S
C310 C311 1.394 . S
C310 C316 1.465 . S
C311 C306 1.399 . S
C311 C310 1.394 . S
C311 C312 1.516 . S
C312 C311 1.516 . S
C312 C313 1.502 . S
C312 C314 1.561 . S
C312 C315 1.526 . S
C313 H297 0.959 . S
C313 H298 0.959 . S
C313 H299 0.961 . S
C313 C312 1.502 . S
C314 H300 0.960 . S
C314 H301 0.961 . S
C314 H302 0.959 . S
C314 C312 1.561 . S
C315 C312 1.526 . S
C315 C316 1.396 . S
C315 C320 1.390 . S
C316 C310 1.465 . S
C316 C315 1.396 . S
C316 C317 1.399 1_455 S
C317 H303 0.929 . S
C317 C316 1.399 1_655 S
C317 C318 1.385 . S
C318 H304 0.931 . S
C318 C317 1.385 . S
C318 C319 1.389 1_655 S
C319 C318 1.389 1_455 S
C319 C320 1.387 . S
C320 H305 0.930 . S
C320 C315 1.390 . S
C320 C319 1.387 . S
H321 C333 0.930 . S
H322 C335 0.930 . S
H323 C336 0.930 . S
H324 C340 0.959 . S
H325 C340 0.959 . S
H326 C340 0.961 . S
H327 C341 0.960 . S
H328 C341 0.961 . S
H329 C341 0.959 . S
H330 C344 0.929 . S
H331 C345 0.931 . S
H332 C347 0.930 . S
C333 H321 0.930 . S
C333 C334 1.399 . S
C333 C338 1.399 . S
C334 C333 1.399 . S
C334 C335 1.376 1_545 S
C335 H322 0.930 . S
C335 C334 1.376 1_565 S
C335 C336 1.388 . S
C336 H323 0.930 . S
C336 C335 1.388 . S
C336 C337 1.390 1_565 S
C337 C336 1.390 1_545 S
C337 C338 1.394 . S
C337 C343 1.465 . S
C338 C333 1.399 . S
C338 C337 1.394 . S
C338 C339 1.516 . S
C339 C338 1.516 . S
C339 C340 1.502 . S
C339 C341 1.561 . S
C339 C342 1.526 . S
C340 H324 0.959 . S
C340 H325 0.959 . S
C340 H326 0.961 . S
C340 C339 1.502 . S
C341 H327 0.960 . S
C341 H328 0.961 . S
C341 H329 0.959 . S
C341 C339 1.561 . S
C342 C339 1.526 . S
C342 C343 1.396 . S
C342 C347 1.390 . S
C343 C337 1.465 . S
C343 C342 1.396 . S
C343 C344 1.399 1_545 S
C344 H330 0.929 . S
C344 C343 1.399 1_565 S
C344 C345 1.385 . S
C345 H331 0.931 . S
C345 C344 1.385 . S
C345 C346 1.389 1_565 S
C346 C345 1.389 1_545 S
C346 C347 1.387 . S
C347 H332 0.930 . S
C347 C342 1.390 . S
C347 C346 1.387 . S
H348 C360 0.930 . S
H349 C362 0.930 . S
H350 C363 0.930 . S
H351 C367 0.959 . S
H352 C367 0.959 . S
H353 C367 0.961 . S
H354 C368 0.960 . S
H355 C368 0.961 . S
H356 C368 0.959 . S
H357 C371 0.929 . S
H358 C372 0.931 . S
H359 C374 0.930 . S
C360 H348 0.930 . S
C360 C361 1.399 . S
C360 C365 1.399 . S
C361 C360 1.399 . S
C361 C362 1.376 . S
C362 H349 0.930 . S
C362 C361 1.376 . S
C362 C363 1.388 . S
C363 H350 0.930 . S
C363 C362 1.388 . S
C363 C364 1.390 . S
C364 C363 1.390 . S
C364 C365 1.394 . S
C364 C370 1.465 . S
C365 C360 1.399 . S
C365 C364 1.394 . S
C365 C366 1.516 . S
C366 C365 1.516 . S
C366 C367 1.502 . S
C366 C368 1.561 . S
C366 C369 1.526 . S
C367 H351 0.959 . S
C367 H352 0.959 . S
C367 H353 0.961 . S
C367 C366 1.502 . S
C368 H354 0.960 . S
C368 H355 0.961 . S
C368 H356 0.959 . S
C368 C366 1.561 . S
C369 C366 1.526 . S
C369 C370 1.396 . S
C369 C374 1.390 . S
C370 C364 1.465 . S
C370 C369 1.396 . S
C370 C371 1.399 . S
C371 H357 0.929 . S
C371 C370 1.399 . S
C371 C372 1.385 . S
C372 H358 0.931 . S
C372 C371 1.385 . S
C372 C373 1.389 . S
C373 C372 1.389 . S
C373 C374 1.387 . S
C374 H359 0.930 . S
C374 C369 1.390 . S
C374 C373 1.387 . S
H375 C387 0.930 . S
H376 C389 0.930 . S
H377 C390 0.930 . S
H378 C394 0.959 . S
H379 C394 0.959 . S
H380 C394 0.961 . S
H381 C395 0.960 . S
H382 C395 0.961 . S
H383 C395 0.959 . S
H384 C398 0.929 . S
H385 C399 0.931 . S
H386 C401 0.930 1_655 S
C387 H375 0.930 . S
C387 C388 1.399 . S
C387 C392 1.399 . S
C388 C387 1.399 . S
C388 C389 1.376 . S
C389 H376 0.930 . S
C389 C388 1.376 . S
C389 C390 1.388 . S
C390 H377 0.930 . S
C390 C389 1.388 . S
C390 C391 1.390 . S
C391 C390 1.390 . S
C391 C392 1.394 . S
C391 C397 1.465 . S
C392 C387 1.399 . S
C392 C391 1.394 . S
C392 C393 1.516 . S
C393 C392 1.516 . S
C393 C394 1.502 1_455 S
C393 C395 1.561 . S
C393 C396 1.526 . S
C394 H378 0.959 . S
C394 H379 0.959 . S
C394 H380 0.961 . S
C394 C393 1.502 1_655 S
C395 H381 0.960 . S
C395 H382 0.961 . S
C395 H383 0.959 . S
C395 C393 1.561 . S
C396 C393 1.526 . S
C396 C397 1.396 . S
C396 C401 1.390 . S
C397 C391 1.465 . S
C397 C396 1.396 . S
C397 C398 1.399 . S
C398 H384 0.929 . S
C398 C397 1.399 . S
C398 C399 1.385 . S
C399 H385 0.931 . S
C399 C398 1.385 . S
C399 C400 1.389 . S
C400 C399 1.389 . S
C400 C401 1.387 . S
C401 H386 0.930 1_455 S
C401 C396 1.390 . S
C401 C400 1.387 . S
H402 C414 0.931 . S
H403 C416 0.930 . S
H404 C417 0.930 . S
H405 C421 0.959 . S
H406 C421 0.959 . S
H407 C421 0.961 . S
H408 C422 0.960 . S
H409 C422 0.961 . S
H410 C422 0.959 . S
H411 C425 0.929 . S
H412 C426 0.931 . S
H413 C428 0.930 . S
C414 H402 0.931 . S
C414 C415 1.399 . S
C414 C419 1.399 . S
C415 C414 1.399 . S
C415 C416 1.376 . S
C416 H403 0.930 . S
C416 C415 1.376 . S
C416 C417 1.388 . S
C417 H404 0.930 . S
C417 C416 1.388 . S
C417 C418 1.390 . S
C418 C417 1.390 . S
C418 C419 1.394 . S
C418 C424 1.465 . S
C419 C414 1.399 . S
C419 C418 1.394 . S
C419 C420 1.516 . S
C420 C419 1.516 . S
C420 C421 1.502 . S
C420 C422 1.561 1_545 S
C420 C423 1.526 . S
C421 H405 0.959 . S
C421 H406 0.959 . S
C421 H407 0.961 . S
C421 C420 1.502 . S
C422 H408 0.960 . S
C422 H409 0.961 . S
C422 H410 0.959 . S
C422 C420 1.561 1_565 S
C423 C420 1.526 . S
C423 C424 1.396 . S
C423 C428 1.390 . S
C424 C418 1.465 . S
C424 C423 1.396 . S
C424 C425 1.399 . S
C425 H411 0.929 . S
C425 C424 1.399 . S
C425 C426 1.385 . S
C426 H412 0.931 . S
C426 C425 1.385 . S
C426 C427 1.389 . S
C427 C426 1.389 . S
C427 C428 1.387 . S
C428 H413 0.930 . S
C428 C423 1.390 . S
C428 C427 1.387 . S
H429 C441 0.930 . S
H430 C443 0.930 . S
H431 C444 0.930 . S
H432 C448 0.959 . S
H433 C448 0.959 . S
H434 C448 0.961 . S
H435 C449 0.960 . S
H436 C449 0.961 . S
H437 C449 0.959 . S
H438 C452 0.929 . S
H439 C453 0.931 . S
H440 C455 0.930 . S
C441 H429 0.930 . S
C441 C442 1.399 . S
C441 C446 1.399 . S
C442 C441 1.399 . S
C442 C443 1.376 . S
C443 H430 0.930 . S
C443 C442 1.376 . S
C443 C444 1.388 . S
C444 H431 0.930 . S
C444 C443 1.388 . S
C444 C445 1.390 . S
C445 C444 1.390 . S
C445 C446 1.394 . S
C445 C451 1.465 . S
C446 C441 1.399 . S
C446 C445 1.394 . S
C446 C447 1.516 . S
C447 C446 1.516 . S
C447 C448 1.502 . S
C447 C449 1.561 . S
C447 C450 1.526 . S
C448 H432 0.959 . S
C448 H433 0.959 . S
C448 H434 0.961 . S
C448 C447 1.502 . S
C449 H435 0.960 . S
C449 H436 0.961 . S
C449 H437 0.959 . S
C449 C447 1.561 . S
C450 C447 1.526 . S
C450 C451 1.396 . S
C450 C455 1.390 . S
C451 C445 1.465 . S
C451 C450 1.396 . S
C451 C452 1.399 . S
C452 H438 0.929 . S
C452 C451 1.399 . S
C452 C453 1.385 . S
C453 H439 0.931 . S
C453 C452 1.385 . S
C453 C454 1.389 . S
C454 C453 1.389 . S
C454 C455 1.387 . S
C455 H440 0.930 . S
C455 C450 1.390 . S
C455 C454 1.387 . S
H456 C468 0.930 . S
H457 C470 0.930 . S
H458 C471 0.930 . S
H459 C475 0.959 . S
H460 C475 0.959 . S
H461 C475 0.961 . S
H462 C476 0.960 . S
H463 C476 0.961 . S
H464 C476 0.959 . S
H465 C479 0.929 . S
H466 C480 0.931 . S
H467 C482 0.930 . S
C468 H456 0.930 . S
C468 C469 1.399 . S
C468 C473 1.399 . S
C469 C468 1.399 . S
C469 C470 1.376 1_545 S
C470 H457 0.930 . S
C470 C469 1.376 1_565 S
C470 C471 1.388 . S
C471 H458 0.930 . S
C471 C470 1.388 . S
C471 C472 1.390 1_565 S
C472 C471 1.390 1_545 S
C472 C473 1.394 . S
C472 C478 1.465 . S
C473 C468 1.399 . S
C473 C472 1.394 . S
C473 C474 1.516 . S
C474 C473 1.516 . S
C474 C475 1.502 . S
C474 C476 1.561 . S
C474 C477 1.526 . S
C475 H459 0.959 . S
C475 H460 0.959 . S
C475 H461 0.961 . S
C475 C474 1.502 . S
C476 H462 0.960 . S
C476 H463 0.961 . S
C476 H464 0.959 . S
C476 C474 1.561 . S
C477 C474 1.526 . S
C477 C478 1.396 . S
C477 C482 1.390 . S
C478 C472 1.465 . S
C478 C477 1.396 . S
C478 C479 1.399 1_545 S
C479 H465 0.929 . S
C479 C478 1.399 1_565 S
C479 C480 1.385 . S
C480 H466 0.931 . S
C480 C479 1.385 . S
C480 C481 1.389 1_565 S
C481 C480 1.389 1_545 S
C481 C482 1.387 . S
C482 H467 0.930 . S
C482 C477 1.390 . S
C482 C481 1.387 . S
H483 C495 0.930 1_554 S
H484 C497 0.930 . S
H485 C498 0.930 . S
H486 C502 0.959 . S
H487 C502 0.959 . S
H488 C502 0.961 1_554 S
H489 C503 0.960 . S
H490 C503 0.961 . S
H491 C503 0.959 . S
H492 C506 0.929 . S
H493 C507 0.931 . S
H494 C509 0.930 . S
C495 H483 0.930 1_556 S
C495 C496 1.399 . S
C495 C500 1.399 . S
C496 C495 1.399 . S
C496 C497 1.376 . S
C497 H484 0.930 . S
C497 C496 1.376 . S
C497 C498 1.388 . S
C498 H485 0.930 . S
C498 C497 1.388 . S
C498 C499 1.390 . S
C499 C498 1.390 . S
C499 C500 1.394 . S
C499 C505 1.465 . S
C500 C495 1.399 . S
C500 C499 1.394 . S
C500 C501 1.516 . S
C501 C500 1.516 . S
C501 C502 1.502 . S
C501 C503 1.561 . S
C501 C504 1.526 . S
C502 H486 0.959 . S
C502 H487 0.959 . S
C502 H488 0.961 1_556 S
C502 C501 1.502 . S
C503 H489 0.960 . S
C503 H490 0.961 . S
C503 H491 0.959 . S
C503 C501 1.561 . S
C504 C501 1.526 . S
C504 C505 1.396 . S
C504 C509 1.390 . S
C505 C499 1.465 . S
C505 C504 1.396 . S
C505 C506 1.399 . S
C506 H492 0.929 . S
C506 C505 1.399 . S
C506 C507 1.385 . S
C507 H493 0.931 . S
C507 C506 1.385 . S
C507 C508 1.389 . S
C508 C507 1.389 . S
C508 C509 1.387 . S
C509 H494 0.930 . S
C509 C504 1.390 . S
C509 C508 1.387 . S
H510 C522 0.930 . S
H511 C524 0.930 . S
H512 C525 0.930 . S
H513 C529 0.959 . S
H514 C529 0.959 . S
H515 C529 0.961 . S
H516 C530 0.960 . S
H517 C530 0.961 . S
H518 C530 0.959 . S
H519 C533 0.929 . S
H520 C534 0.931 . S
H521 C536 0.930 . S
C522 H510 0.930 . S
C522 C523 1.399 1_655 S
C522 C527 1.399 . S
C523 C522 1.399 1_455 S
C523 C524 1.376 . S
C524 H511 0.930 . S
C524 C523 1.376 . S
C524 C525 1.388 . S
C525 H512 0.930 . S
C525 C524 1.388 . S
C525 C526 1.390 . S
C526 C525 1.390 . S
C526 C527 1.394 1_455 S
C526 C532 1.465 . S
C527 C522 1.399 . S
C527 C526 1.394 1_655 S
C527 C528 1.516 . S
C528 C527 1.516 . S
C528 C529 1.502 . S
C528 C530 1.561 1_655 S
C528 C531 1.526 1_655 S
C529 H513 0.959 . S
C529 H514 0.959 . S
C529 H515 0.961 . S
C529 C528 1.502 . S
C530 H516 0.960 . S
C530 H517 0.961 . S
C530 H518 0.959 . S
C530 C528 1.561 1_455 S
C531 C528 1.526 1_455 S
C531 C532 1.396 . S
C531 C536 1.390 1_455 S
C532 C526 1.465 . S
C532 C531 1.396 . S
C532 C533 1.399 . S
C533 H519 0.929 . S
C533 C532 1.399 . S
C533 C534 1.385 . S
C534 H520 0.931 . S
C534 C533 1.385 . S
C534 C535 1.389 . S
C535 C534 1.389 . S
C535 C536 1.387 1_455 S
C536 H521 0.930 . S
C536 C531 1.390 1_655 S
C536 C535 1.387 1_655 S
H537 C549 0.930 . S
H538 C551 0.930 . S
H539 C552 0.930 . S
H540 C556 0.959 . S
H541 C556 0.959 . S
H542 C556 0.961 . S
H543 C557 0.960 . S
H544 C557 0.961 . S
H545 C557 0.959 . S
H546 C560 0.929 1_565 S
H547 C561 0.955 . S
H548 C563 0.930 . S
C549 H537 0.930 . S
C549 C550 1.399 . S
C549 C554 1.399 . S
C550 C549 1.399 . S
C550 C551 1.376 1_545 S
C551 H538 0.930 . S
C551 C550 1.376 1_565 S
C551 C552 1.388 . S
C552 H539 0.930 . S
C552 C551 1.388 . S
C552 C553 1.390 1_565 S
C553 C552 1.390 1_545 S
C553 C554 1.394 . S
C553 C559 1.465 . S
C554 C549 1.399 . S
C554 C553 1.394 . S
C554 C555 1.516 . S
C555 C554 1.516 . S
C555 C556 1.502 . S
C555 C557 1.561 . S
C555 C558 1.526 . S
C556 H540 0.959 . S
C556 H541 0.959 . S
C556 H542 0.961 . S
C556 C555 1.502 . S
C557 H543 0.960 . S
C557 H544 0.961 . S
C557 H545 0.959 . S
C557 C555 1.561 . S
C558 C555 1.526 . S
C558 C559 1.396 . S
C558 C563 1.390 . S
C559 C553 1.465 . S
C559 C558 1.396 . S
C559 C560 1.399 . S
C560 H546 0.929 1_545 S
C560 C559 1.399 . S
C560 C561 1.385 . S
C561 H547 0.955 . S
C561 C560 1.385 . S
C561 C562 1.389 . S
C562 C561 1.389 . S
C562 C563 1.387 . S
C563 H548 0.930 . S
C563 C558 1.390 . S
C563 C562 1.387 . S
H564 C576 0.930 1_554 S
H565 C578 0.930 . S
H566 C579 0.930 . S
H567 C583 0.959 . S
H568 C583 0.959 . S
H569 C583 0.961 1_554 S
H570 C584 0.956 1_554 S
H571 C584 0.961 . S
H572 C584 0.959 . S
H573 C587 0.929 . S
H574 C588 0.931 . S
H575 C590 0.930 . S
C576 H564 0.930 1_556 S
C576 C577 1.399 . S
C576 C581 1.399 . S
C577 C576 1.399 . S
C577 C578 1.376 . S
C578 H565 0.930 . S
C578 C577 1.376 . S
C578 C579 1.388 . S
C579 H566 0.930 . S
C579 C578 1.388 . S
C579 C580 1.390 . S
C580 C579 1.390 . S
C580 C581 1.394 . S
C580 C586 1.465 . S
C581 C576 1.399 . S
C581 C580 1.394 . S
C581 C582 1.516 . S
C582 C581 1.516 . S
C582 C583 1.502 . S
C582 C584 1.561 . S
C582 C585 1.526 . S
C583 H567 0.959 . S
C583 H568 0.959 . S
C583 H569 0.961 1_556 S
C583 C582 1.502 . S
C584 H570 0.956 1_556 S
C584 H571 0.961 . S
C584 H572 0.959 . S
C584 C582 1.561 . S
C585 C582 1.526 . S
C585 C586 1.396 . S
C585 C590 1.390 . S
C586 C580 1.465 . S
C586 C585 1.396 . S
C586 C587 1.399 . S
C587 H573 0.929 . S
C587 C586 1.399 . S
C587 C588 1.385 . S
C588 H574 0.931 . S
C588 C587 1.385 . S
C588 C589 1.389 . S
C589 C588 1.389 . S
C589 C590 1.387 . S
C590 H575 0.930 . S
C590 C585 1.390 . S
C590 C589 1.387 . S
H591 C603 0.930 . S
H592 C605 0.930 . S
H593 C606 0.930 . S
H594 C610 0.959 . S
H595 C610 0.959 . S
H596 C610 0.961 . S
H597 C611 0.960 . S
H598 C611 0.961 . S
H599 C611 0.959 . S
H600 C614 0.929 . S
H601 C615 0.931 . S
H602 C617 0.930 . S
C603 H591 0.930 . S
C603 C604 1.399 . S
C603 C608 1.399 . S
C604 C603 1.399 . S
C604 C605 1.376 1_455 S
C605 H592 0.930 . S
C605 C604 1.376 1_655 S
C605 C606 1.388 . S
C606 H593 0.930 . S
C606 C605 1.388 . S
C606 C607 1.390 1_655 S
C607 C606 1.390 1_455 S
C607 C608 1.394 . S
C607 C613 1.465 . S
C608 C603 1.399 . S
C608 C607 1.394 . S
C608 C609 1.516 . S
C609 C608 1.516 . S
C609 C610 1.502 . S
C609 C611 1.561 1_455 S
C609 C612 1.526 . S
C610 H594 0.959 . S
C610 H595 0.959 . S
C610 H596 0.961 . S
C610 C609 1.502 . S
C611 H597 0.960 . S
C611 H598 0.961 . S
C611 H599 0.959 . S
C611 C609 1.561 1_655 S
C612 C609 1.526 . S
C612 C613 1.396 . S
C612 C617 1.390 . S
C613 C607 1.465 . S
C613 C612 1.396 . S
C613 C614 1.399 1_455 S
C614 H600 0.929 . S
C614 C613 1.399 1_655 S
C614 C615 1.385 . S
C615 H601 0.931 . S
C615 C614 1.385 . S
C615 C616 1.389 1_655 S
C616 C615 1.389 1_455 S
C616 C617 1.387 . S
C617 H602 0.930 . S
C617 C612 1.390 . S
C617 C616 1.387 . S
C319 C161 1.351 . S
C307 C14 1.362 . S
C334 C40 1.421 . S
C346 C205 1.410 . S
C361 C76 1.386 . S
C373 C267 1.407 . S
C388 C3 1.366 . S
C400 C143 1.350 . S
C427 C223 1.414 . S
C415 C38 1.406 . S
C442 C74 1.361 . S
C454 C285 1.357 . S
C481 C199 1.566 . S
C469 C86 1.622 . S
C496 C2 1.674 1_556 S
C508 C261 1.557 . S
C535 C137 1.622 . S
C523 C39 1.685 . S
C562 C217 1.625 . S
C550 C75 1.679 . S
C589 C279 1.561 . S
C577 C4 1.670 1_556 S
C604 C50 1.582 . S
C616 C155 1.620 . S
