# Generated by pormake.
# Topology apo, (3,6)-cn, num edge types: 1
# Building blocks:
#     Node 0, Type 0, BuildingBlock: INOVEN_clean_linker_0, # of connection points: 3
#     Node 1, Type 0, BuildingBlock: INOVEN_clean_linker_0, # of connection points: 3
#     Node 2, Type 0, BuildingBlock: INOVEN_clean_linker_0, # of connection points: 3
#     Node 3, Type 0, BuildingBlock: INOVEN_clean_linker_0, # of connection points: 3
#     Node 4, Type 0, BuildingBlock: INOVEN_clean_linker_0, # of connection points: 3
#     Node 5, Type 0, BuildingBlock: INOVEN_clean_linker_0, # of connection points: 3
#     Node 6, Type 0, BuildingBlock: INOVEN_clean_linker_0, # of connection points: 3
#     Node 7, Type 0, BuildingBlock: INOVEN_clean_linker_0, # of connection points: 3
#     Node 8, Type 1, BuildingBlock: MIDCAF_clean_sbu_0, # of connection points: 6
#     Node 9, Type 1, BuildingBlock: MIDCAF_clean_sbu_0, # of connection points: 6
#     Node 10, Type 1, BuildingBlock: MIDCAF_clean_sbu_0, # of connection points: 6
#     Node 11, Type 1, BuildingBlock: MIDCAF_clean_sbu_0, # of connection points: 6
#     Edge 12, Type (0, 1), BuildingBlock: EYOCIG_clean_linker_4, # of connection points: 2
#     Edge 13, Type (0, 1), BuildingBlock: EYOCIG_clean_linker_4, # of connection points: 2
#     Edge 14, Type (0, 1), BuildingBlock: EYOCIG_clean_linker_4, # of connection points: 2
#     Edge 15, Type (0, 1), BuildingBlock: EYOCIG_clean_linker_4, # of connection points: 2
#     Edge 16, Type (0, 1), BuildingBlock: EYOCIG_clean_linker_4, # of connection points: 2
#     Edge 17, Type (0, 1), BuildingBlock: EYOCIG_clean_linker_4, # of connection points: 2
#     Edge 18, Type (0, 1), BuildingBlock: EYOCIG_clean_linker_4, # of connection points: 2
#     Edge 19, Type (0, 1), BuildingBlock: EYOCIG_clean_linker_4, # of connection points: 2
#     Edge 20, Type (0, 1), BuildingBlock: EYOCIG_clean_linker_4, # of connection points: 2
#     Edge 21, Type (0, 1), BuildingBlock: EYOCIG_clean_linker_4, # of connection points: 2
#     Edge 22, Type (0, 1), BuildingBlock: EYOCIG_clean_linker_4, # of connection points: 2
#     Edge 23, Type (0, 1), BuildingBlock: EYOCIG_clean_linker_4, # of connection points: 2
#     Edge 24, Type (0, 1), BuildingBlock: EYOCIG_clean_linker_4, # of connection points: 2
#     Edge 25, Type (0, 1), BuildingBlock: EYOCIG_clean_linker_4, # of connection points: 2
#     Edge 26, Type (0, 1), BuildingBlock: EYOCIG_clean_linker_4, # of connection points: 2
#     Edge 27, Type (0, 1), BuildingBlock: EYOCIG_clean_linker_4, # of connection points: 2
#     Edge 28, Type (0, 1), BuildingBlock: EYOCIG_clean_linker_4, # of connection points: 2
#     Edge 29, Type (0, 1), BuildingBlock: EYOCIG_clean_linker_4, # of connection points: 2
#     Edge 30, Type (0, 1), BuildingBlock: EYOCIG_clean_linker_4, # of connection points: 2
#     Edge 31, Type (0, 1), BuildingBlock: EYOCIG_clean_linker_4, # of connection points: 2
#     Edge 32, Type (0, 1), BuildingBlock: EYOCIG_clean_linker_4, # of connection points: 2
#     Edge 33, Type (0, 1), BuildingBlock: EYOCIG_clean_linker_4, # of connection points: 2
#     Edge 34, Type (0, 1), BuildingBlock: EYOCIG_clean_linker_4, # of connection points: 2
#     Edge 35, Type (0, 1), BuildingBlock: EYOCIG_clean_linker_4, # of connection points: 2
# Relax obj value: 0.015
# Max RMSD: 0.064
# Mean RMSD: 0.051
data_MOF--net-apo--node1-MIDCAF_clean_sbu_0--node2-INOVEN_clean_linker_0--edge1-EYOCIG_clean_linker_4
_symmetry_space_group_name_H-M    P1
_symmetry_Int_Tables_number       1
_symmetry_cell_setting            triclinic
loop_
_symmetry_equiv_pos_as_xyz
'x, y, z'
_cell_length_a     29.298777
_cell_length_b     33.314329
_cell_length_c     27.319962
_cell_angle_alpha  89.115467
_cell_angle_beta   89.925117
_cell_angle_gamma 90.187301
loop_
_atom_site_label
_atom_site_type_symbol
_atom_site_fract_x
_atom_site_fract_y
_atom_site_fract_z
_atom_type_partial_charge
H0 H 0.30397 0.26404 0.45373 0.0
H1 H 0.4042 0.35855 0.44366 0.0
H2 H 0.33175 0.32262 0.31484 0.0
N3 N 0.28 0.26523 0.36031 0.0
N4 N 0.27061 0.26709 0.31581 0.0
C5 C 0.32275 0.28608 0.43206 0.0
C6 C 0.35535 0.31065 0.45446 0.0
C7 C 0.31403 0.28999 0.38161 0.0
C8 C 0.33843 0.31884 0.35365 0.0
C9 C 0.37089 0.34346 0.37606 0.0
C10 C 0.3793 0.33923 0.42631 0.0
H11 H 0.2152 0.19359 0.95038 0.0
H12 H 0.1117 0.10204 0.94307 0.0
H13 H 0.18579 0.13682 0.81302 0.0
N14 N 0.23911 0.19307 0.85738 0.0
N15 N 0.24898 0.1921 0.81298 0.0
C16 C 0.19586 0.17208 0.92935 0.0
C17 C 0.16238 0.14834 0.95245 0.0
C18 C 0.20459 0.16835 0.87903 0.0
C19 C 0.17927 0.1403 0.85178 0.0
C20 C 0.14574 0.11639 0.87493 0.0
C21 C 0.13748 0.12057 0.92514 0.0
H22 H 0.80122 0.20104 0.5578 0.0
H23 H 0.9016 0.10723 0.56758 0.0
H24 H 0.82968 0.14314 0.69678 0.0
N25 N 0.77787 0.20022 0.65149 0.0
N26 N 0.76887 0.19864 0.69612 0.0
C27 C 0.82005 0.17914 0.57943 0.0
C28 C 0.8526 0.15472 0.5569 0.0
C29 C 0.81158 0.17537 0.62998 0.0
C30 C 0.83612 0.14677 0.65789 0.0
C31 C 0.86852 0.12229 0.63534 0.0
C32 C 0.87668 0.12639 0.585 0.0
H33 H 0.71676 0.27532 0.06079 0.0
H34 H 0.61384 0.36674 0.06887 0.0
H35 H 0.68781 0.3317 0.19851 0.0
N36 N 0.74063 0.27545 0.15376 0.0
N37 N 0.75037 0.27609 0.19818 0.0
C38 C 0.69764 0.29681 0.08197 0.0
C39 C 0.66425 0.32056 0.05909 0.0
C40 C 0.70643 0.30039 0.13229 0.0
C41 C 0.6813 0.32837 0.15976 0.0
C42 C 0.64789 0.3523 0.1368 0.0
C43 C 0.63958 0.34824 0.08661 0.0
H44 H 0.70555 0.69948 0.54961 0.0
H45 H 0.60741 0.60342 0.56131 0.0
H46 H 0.68058 0.64085 0.68914 0.0
N47 N 0.73045 0.6994 0.64275 0.0
N48 N 0.74035 0.69827 0.68718 0.0
C49 C 0.6876 0.67712 0.5716 0.0
C50 C 0.65524 0.65197 0.54967 0.0
C51 C 0.69701 0.67355 0.622 0.0
C52 C 0.67351 0.6443 0.65038 0.0
C53 C 0.64121 0.61905 0.62845 0.0
C54 C 0.63223 0.62306 0.57826 0.0
H55 H 0.83438 0.83559 0.20107 0.0
H56 H 0.89981 0.86572 0.06437 0.0
H57 H 0.79352 0.77627 0.06887 0.0
N58 N 0.77756 0.78168 0.16729 0.0
N59 N 0.75116 0.75659 0.14924 0.0
C60 C 0.83829 0.83103 0.16207 0.0
C61 C 0.87049 0.85352 0.13547 0.0
C62 C 0.81032 0.80312 0.13861 0.0
C63 C 0.81496 0.79766 0.08762 0.0
C64 C 0.84738 0.82016 0.06087 0.0
C65 C 0.87505 0.848 0.085 0.0
H66 H 0.20775 0.76963 0.459 0.0
H67 H 0.10972 0.8652 0.4476 0.0
H68 H 0.18184 0.82733 0.31926 0.0
N69 N 0.23181 0.76912 0.36557 0.0
N70 N 0.24122 0.76983 0.32098 0.0
C71 C 0.18974 0.79184 0.43704 0.0
C72 C 0.15757 0.81696 0.45912 0.0
C73 C 0.19876 0.79513 0.38651 0.0
C74 C 0.17511 0.82413 0.35814 0.0
C75 C 0.14302 0.84937 0.38023 0.0
C76 C 0.13443 0.84561 0.43055 0.0
H77 H 0.332 0.6304 0.80781 0.0
H78 H 0.3972 0.5999 0.9442 0.0
H79 H 0.29149 0.68929 0.94042 0.0
N80 N 0.27572 0.68437 0.84191 0.0
N81 N 0.24983 0.70974 0.85998 0.0
C82 C 0.33584 0.63477 0.84684 0.0
C83 C 0.36793 0.61225 0.87326 0.0
C84 C 0.30807 0.66262 0.8705 0.0
C85 C 0.31272 0.66791 0.92153 0.0
C86 C 0.34501 0.64534 0.94809 0.0
C87 C 0.37248 0.6176 0.92374 0.0
Zn88 Zn 0.04747 0.09567 0.34286 0.0
Zn89 Zn 0.96708 0.09849 0.17161 0.0
Zn90 Zn 0.00794 0.09814 0.25666 0.0
C91 C 0.0556 0.12665 0.15546 0.0
C92 C 0.96662 0.01956 0.20462 0.0
O93 O 0.96037 0.12616 0.30995 0.0
O94 O 0.99324 0.11182 0.3811 0.0
C95 C 0.0999 0.14632 0.28303 0.0
O96 O 0.05614 0.12608 0.20268 0.0
O97 O 0.02137 0.11393 0.13244 0.0
O98 O 0.94802 0.04144 0.17237 0.0
O99 O 0.99264 0.03495 0.23743 0.0
O100 O 0.09472 0.13662 0.32748 0.0
O101 O 0.07256 0.1329 0.25012 0.0
O102 O 0.02314 0.034 0.27651 0.0
O103 O 0.06587 0.0385 0.34306 0.0
C104 C 0.04846 0.01759 0.30983 0.0
O105 O 0.94386 0.13448 0.26266 0.0
O106 O 0.92093 0.14 0.18559 0.0
C107 C 0.96011 0.12605 0.35717 0.0
C108 C 0.91661 0.14919 0.22992 0.0
Zn109 Zn 0.54891 0.37126 0.66912 0.0
Zn110 Zn 0.46762 0.36871 0.84015 0.0
Zn111 Zn 0.50876 0.36901 0.75499 0.0
C112 C 0.46675 0.44747 0.80601 0.0
C113 C 0.4173 0.31772 0.78176 0.0
O114 O 0.57322 0.33445 0.76216 0.0
O115 O 0.5959 0.33052 0.68495 0.0
C116 C 0.54931 0.44955 0.70114 0.0
O117 O 0.49305 0.43218 0.77341 0.0
O118 O 0.44832 0.4256 0.83855 0.0
O119 O 0.42157 0.32686 0.82612 0.0
O120 O 0.44469 0.33248 0.74903 0.0
O121 O 0.56725 0.42854 0.66837 0.0
O122 O 0.5238 0.43314 0.73446 0.0
O123 O 0.46166 0.34028 0.70175 0.0
O124 O 0.49501 0.35459 0.6307 0.0
C125 C 0.46176 0.34017 0.65454 0.0
O126 O 0.5568 0.34184 0.80947 0.0
O127 O 0.52178 0.35394 0.87963 0.0
C128 C 0.60068 0.32091 0.72945 0.0
C129 C 0.55615 0.34147 0.85669 0.0
Zn130 Zn 0.03391 0.87466 0.84416 0.0
Zn131 Zn 0.96101 0.87613 0.6716 0.0
Zn132 Zn -0.00186 0.87282 0.758 0.0
C133 C 0.95969 0.95366 0.70551 0.0
C134 C 0.9069 0.82423 0.72755 0.0
O135 O 0.0618 0.83689 0.75429 0.0
O136 O 0.07943 0.83225 0.83301 0.0
C137 C 0.04107 0.95213 0.81045 0.0
O138 O 0.98454 0.93684 0.73886 0.0
O139 O 0.94225 0.93318 0.6719 0.0
O140 O 0.91365 0.83463 0.68358 0.0
O141 O 0.93284 0.8376 0.76188 0.0
O142 O 0.05638 0.93061 0.84495 0.0
O143 O 0.01578 0.93658 0.77695 0.0
O144 O 0.94794 0.84461 0.81005 0.0
O145 O 0.97842 0.86018 0.8815 0.0
C146 C 0.94607 0.84541 0.85724 0.0
O147 O 0.04703 0.84444 0.70591 0.0
O148 O 0.01614 0.86078 0.63438 0.0
C149 C 0.08669 0.82262 0.78927 0.0
C150 C 0.04846 0.84556 0.65869 0.0
Zn151 Zn 0.53317 0.59265 0.16449 0.0
Zn152 Zn 0.45942 0.59129 0.33691 0.0
Zn153 Zn 0.49715 0.59452 0.25077 0.0
C154 C 0.54664 0.62279 0.35 0.0
C155 C 0.45897 0.51356 0.30389 0.0
O156 O 0.44696 0.62188 0.1983 0.0
O157 O 0.47771 0.60638 0.12694 0.0
C158 C 0.58569 0.64517 0.21939 0.0
O159 O 0.54553 0.62369 0.30278 0.0
O160 O 0.51426 0.60732 0.37424 0.0
O161 O 0.44098 0.53405 0.3371 0.0
O162 O 0.48391 0.53048 0.27052 0.0
O163 O 0.57852 0.63549 0.17566 0.0
O164 O 0.56069 0.63083 0.25439 0.0
O165 O 0.51541 0.53085 0.23255 0.0
O166 O 0.55604 0.5369 0.16445 0.0
C167 C 0.54098 0.51542 0.19924 0.0
O168 O 0.43184 0.62938 0.24636 0.0
O169 O 0.4121 0.63244 0.32454 0.0
C170 C 0.44519 0.62086 0.15112 0.0
C171 C 0.40571 0.64276 0.28051 0.0
C172 C 0.09812 0.90729 0.33339 0.0
C173 C 0.11969 0.88033 0.35231 0.0
C174 C 0.07514 0.94244 0.31714 0.0
C175 C 0.05991 0.97558 0.30912 0.0
C176 C 0.4179 0.55654 0.83088 0.0
C177 C 0.39468 0.58214 0.84914 0.0
C178 C 0.44131 0.52238 0.81416 0.0
C179 C 0.45617 0.48949 0.80574 0.0
C180 C 0.59712 0.56052 0.67569 0.0
C181 C 0.61826 0.58772 0.65639 0.0
C182 C 0.57477 0.5251 0.69255 0.0
C183 C 0.56007 0.49177 0.70111 0.0
C184 C 0.91993 0.90981 0.17787 0.0
C185 C 0.89705 0.884 0.15936 0.0
C186 C 0.94262 0.94426 0.19514 0.0
C187 C 0.9568 0.97735 0.20413 0.0
C188 C 0.91341 0.06462 0.68214 0.0
C189 C 0.892 0.09139 0.66287 0.0
C190 C 0.93542 0.02924 0.69862 0.0
C191 C 0.94946 -0.00424 0.7064 0.0
C192 C 0.59913 0.40806 0.18113 0.0
C193 C 0.62257 0.3821 0.1636 0.0
C194 C 0.57348 0.44198 0.19553 0.0
C195 C 0.55578 0.47423 0.20199 0.0
C196 C 0.41488 0.40183 0.32892 0.0
C197 C 0.39394 0.37478 0.34852 0.0
C198 C 0.43614 0.43754 0.31191 0.0
C199 C 0.44955 0.47124 0.30366 0.0
C200 C 0.0973 0.06027 0.83046 0.0
C201 C 0.1205 0.08635 0.8483 0.0
C202 C 0.07223 0.02611 0.81542 0.0
C203 C 0.05512 -0.00638 0.80837 0.0
C204 C 0.14043 0.15202 0.04637 0.0
C205 C 0.15266 0.15233 1.00407 0.0
C206 C 0.1192 0.14771 0.09278 0.0
C207 C 0.09422 0.13982 0.12683 0.0
C208 C 0.37744 0.30874 0.54832 0.0
C209 C 0.36486 0.3072 0.50627 0.0
C210 C 0.39903 0.31514 0.5939 0.0
C211 C 0.42397 0.32481 0.6269 0.0
C212 C 0.6416 0.31692 0.96541 0.0
C213 C 0.65418 0.31656 0.00755 0.0
C214 C 0.61996 0.32114 0.91926 0.0
C215 C 0.59479 0.32877 0.88539 0.0
C216 C 0.8749 0.15667 0.46304 0.0
C217 C 0.86216 0.15822 0.50507 0.0
C218 C 0.89684 0.15042 0.41757 0.0
C219 C 0.92208 0.14103 0.3847 0.0
C220 C 0.86319 0.81593 0.9657 0.0
C221 C 0.85306 0.81537 0.00865 0.0
C222 C 0.88299 0.82128 0.91867 0.0
C223 C 0.90759 0.83018 0.88461 0.0
C224 C 0.63164 0.65382 0.45603 0.0
C225 C 0.64476 0.65533 0.49796 0.0
C226 C 0.60971 0.64768 0.41045 0.0
C227 C 0.58464 0.63831 0.37735 0.0
C228 C 0.36151 0.64945 0.04309 0.0
C229 C 0.351 0.65011 1.00027 0.0
C230 C 0.38178 0.64416 0.08985 0.0
C231 C 0.40662 0.63555 0.1237 0.0
C232 C 0.1341 0.81529 0.55286 0.0
C233 C 0.14721 0.81368 0.5109 0.0
C234 C 0.112 0.82133 0.59841 0.0
C235 C 0.08669 0.83043 0.63143 0.0
C236 C 0.20619 0.22136 0.28266 0.0
C237 C 0.2366 0.2427 0.297 0.0
C238 C 0.1691 0.19571 0.27188 0.0
C239 C 0.13666 0.17332 0.27096 0.0
C240 C 0.31357 0.23929 0.78076 0.0
C241 C 0.28325 0.21707 0.79451 0.0
C242 C 0.35006 0.26624 0.77054 0.0
C243 C 0.38167 0.28968 0.76971 0.0
C244 C 0.70539 0.24488 0.72974 0.0
C245 C 0.73531 0.22325 0.71517 0.0
C246 C 0.6689 0.27094 0.74075 0.0
C247 C 0.63688 0.29361 0.74172 0.0
C248 C 0.81408 0.22832 0.2303 0.0
C249 C 0.78421 0.25082 0.21652 0.0
C250 C 0.85003 0.20106 0.24076 0.0
C251 C 0.8813 0.17743 0.24184 0.0
C252 C 0.8029 0.74627 0.7205 0.0
C253 C 0.77352 0.72395 0.70555 0.0
C254 C 0.83867 0.77293 0.73349 0.0
C255 C 0.87037 0.79608 0.73707 0.0
C256 C 0.69072 0.7183 0.20152 0.0
C257 C 0.71945 0.7366 0.17855 0.0
C258 C 0.65482 0.69463 0.22125 0.0
C259 C 0.62273 0.67243 0.22797 0.0
C260 C 0.30291 0.72134 0.28742 0.0
C261 C 0.27396 0.74392 0.30247 0.0
C262 C 0.33821 0.69438 0.27435 0.0
C263 C 0.3696 0.67106 0.2708 0.0
C264 C 0.19045 0.74879 0.80761 0.0
C265 C 0.21864 0.73012 0.83065 0.0
C266 C 0.15516 0.77284 0.78767 0.0
C267 C 0.12343 0.7952 0.78076 0.0
loop_
_geom_bond_atom_site_label_1
_geom_bond_atom_site_label_2
_geom_bond_distance
_geom_bond_site_symmetry_2
_ccdc_geom_bond_type
H0 C5 0.929 . S
H1 C10 0.931 . S
H2 C8 0.930 . S
N3 N4 1.234 . S
N3 C7 1.453 . S
N4 N3 1.234 . S
C5 H0 0.929 . S
C5 C6 1.373 . S
C5 C7 1.368 . S
C6 C5 1.373 . S
C6 C10 1.397 . S
C7 N3 1.453 . S
C7 C5 1.368 . S
C7 C8 1.373 . S
C8 H2 0.930 . S
C8 C7 1.373 . S
C8 C9 1.371 . S
C9 C8 1.371 . S
C9 C10 1.383 . S
C10 H1 0.931 . S
C10 C6 1.397 . S
C10 C9 1.383 . S
H11 C16 0.929 . S
H12 C21 0.931 . S
H13 C19 0.930 . S
N14 N15 1.234 . S
N14 C18 1.453 . S
N15 N14 1.234 . S
C16 H11 0.929 . S
C16 C17 1.373 . S
C16 C18 1.368 . S
C17 C16 1.373 . S
C17 C21 1.397 . S
C18 N14 1.453 . S
C18 C16 1.368 . S
C18 C19 1.373 . S
C19 H13 0.930 . S
C19 C18 1.373 . S
C19 C20 1.371 . S
C20 C19 1.371 . S
C20 C21 1.383 . S
C21 H12 0.931 . S
C21 C17 1.397 . S
C21 C20 1.383 . S
H22 C27 0.929 . S
H23 C32 0.931 . S
H24 C30 0.930 . S
N25 N26 1.234 . S
N25 C29 1.453 . S
N26 N25 1.234 . S
C27 H22 0.929 . S
C27 C28 1.373 . S
C27 C29 1.368 . S
C28 C27 1.373 . S
C28 C32 1.397 . S
C29 N25 1.453 . S
C29 C27 1.368 . S
C29 C30 1.373 . S
C30 H24 0.930 . S
C30 C29 1.373 . S
C30 C31 1.371 . S
C31 C30 1.371 . S
C31 C32 1.383 . S
C32 H23 0.931 . S
C32 C28 1.397 . S
C32 C31 1.383 . S
H33 C38 0.929 . S
H34 C43 0.931 . S
H35 C41 0.930 . S
N36 N37 1.234 . S
N36 C40 1.453 . S
N37 N36 1.234 . S
C38 H33 0.929 . S
C38 C39 1.373 . S
C38 C40 1.368 . S
C39 C38 1.373 . S
C39 C43 1.397 . S
C40 N36 1.453 . S
C40 C38 1.368 . S
C40 C41 1.373 . S
C41 H35 0.930 . S
C41 C40 1.373 . S
C41 C42 1.371 . S
C42 C41 1.371 . S
C42 C43 1.383 . S
C43 H34 0.931 . S
C43 C39 1.397 . S
C43 C42 1.383 . S
H44 C49 0.929 . S
H45 C54 0.931 . S
H46 C52 0.930 . S
N47 N48 1.234 . S
N47 C51 1.453 . S
N48 N47 1.234 . S
C49 H44 0.929 . S
C49 C50 1.373 . S
C49 C51 1.368 . S
C50 C49 1.373 . S
C50 C54 1.397 . S
C51 N47 1.453 . S
C51 C49 1.368 . S
C51 C52 1.373 . S
C52 H46 0.930 . S
C52 C51 1.373 . S
C52 C53 1.371 . S
C53 C52 1.371 . S
C53 C54 1.383 . S
C54 H45 0.931 . S
C54 C50 1.397 . S
C54 C53 1.383 . S
H55 C60 0.929 . S
H56 C65 0.931 . S
H57 C63 0.930 . S
N58 N59 1.234 . S
N58 C62 1.453 . S
N59 N58 1.234 . S
C60 H55 0.929 . S
C60 C61 1.373 . S
C60 C62 1.368 . S
C61 C60 1.373 . S
C61 C65 1.397 . S
C62 N58 1.453 . S
C62 C60 1.368 . S
C62 C63 1.373 . S
C63 H57 0.930 . S
C63 C62 1.373 . S
C63 C64 1.371 . S
C64 C63 1.371 . S
C64 C65 1.383 . S
C65 H56 0.931 . S
C65 C61 1.397 . S
C65 C64 1.383 . S
H66 C71 0.929 . S
H67 C76 0.931 . S
H68 C74 0.930 . S
N69 N70 1.234 . S
N69 C73 1.453 . S
N70 N69 1.234 . S
C71 H66 0.929 . S
C71 C72 1.373 . S
C71 C73 1.368 . S
C72 C71 1.373 . S
C72 C76 1.397 . S
C73 N69 1.453 . S
C73 C71 1.368 . S
C73 C74 1.373 . S
C74 H68 0.930 . S
C74 C73 1.373 . S
C74 C75 1.371 . S
C75 C74 1.371 . S
C75 C76 1.383 . S
C76 H67 0.931 . S
C76 C72 1.397 . S
C76 C75 1.383 . S
H77 C82 0.929 . S
H78 C87 0.931 . S
H79 C85 0.930 . S
N80 N81 1.234 . S
N80 C84 1.453 . S
N81 N80 1.234 . S
C82 H77 0.929 . S
C82 C83 1.373 . S
C82 C84 1.368 . S
C83 C82 1.373 . S
C83 C87 1.397 . S
C84 N80 1.453 . S
C84 C82 1.368 . S
C84 C85 1.373 . S
C85 H79 0.930 . S
C85 C84 1.373 . S
C85 C86 1.371 . S
C86 C85 1.371 . S
C86 C87 1.383 . S
C87 H78 0.931 . S
C87 C83 1.397 . S
C87 C86 1.383 . S
Zn88 O94 1.920 . S
Zn88 O100 1.898 . S
Zn88 O103 1.905 . S
Zn89 O97 1.905 1_655 S
Zn89 O98 1.898 . S
Zn89 O106 1.920 . S
Zn90 O93 2.080 1_455 S
Zn90 O96 2.114 . S
Zn90 O99 2.120 1_455 S
Zn90 O101 2.120 . S
Zn90 O102 2.114 . S
Zn90 O105 2.080 1_455 S
C91 O96 1.166 . S
C91 O97 1.182 . S
C92 O98 1.167 . S
C92 O99 1.299 . S
O93 Zn90 2.080 1_655 S
O93 C107 1.305 . S
O94 Zn88 1.920 . S
O94 C107 1.234 1_455 S
C95 O100 1.167 . S
C95 O101 1.299 . S
O96 Zn90 2.114 . S
O96 C91 1.166 . S
O97 Zn89 1.905 1_455 S
O97 C91 1.182 . S
O98 Zn89 1.898 . S
O98 C92 1.167 . S
O99 Zn90 2.120 1_655 S
O99 C92 1.299 . S
O100 Zn88 1.898 . S
O100 C95 1.167 . S
O101 Zn90 2.120 . S
O101 C95 1.299 . S
O102 Zn90 2.114 . S
O102 C104 1.166 . S
O103 Zn88 1.905 . S
O103 C104 1.182 . S
C104 O102 1.166 . S
C104 O103 1.182 . S
O105 Zn90 2.080 1_655 S
O105 C108 1.305 . S
O106 Zn89 1.920 . S
O106 C108 1.234 . S
C107 O93 1.305 . S
C107 O94 1.234 1_655 S
C108 O105 1.305 . S
C108 O106 1.234 . S
Zn109 O115 1.920 . S
Zn109 O121 1.898 . S
Zn109 O124 1.905 . S
Zn110 O118 1.905 . S
Zn110 O119 1.898 . S
Zn110 O127 1.920 . S
Zn111 O114 2.080 . S
Zn111 O117 2.114 . S
Zn111 O120 2.120 . S
Zn111 O122 2.120 . S
Zn111 O123 2.114 . S
Zn111 O126 2.080 . S
C112 O117 1.166 . S
C112 O118 1.182 . S
C113 O119 1.167 . S
C113 O120 1.299 . S
O114 Zn111 2.080 . S
O114 C128 1.305 . S
O115 Zn109 1.920 . S
O115 C128 1.234 . S
C116 O121 1.167 . S
C116 O122 1.299 . S
O117 Zn111 2.114 . S
O117 C112 1.166 . S
O118 Zn110 1.905 . S
O118 C112 1.182 . S
O119 Zn110 1.898 . S
O119 C113 1.167 . S
O120 Zn111 2.120 . S
O120 C113 1.299 . S
O121 Zn109 1.898 . S
O121 C116 1.167 . S
O122 Zn111 2.120 . S
O122 C116 1.299 . S
O123 Zn111 2.114 . S
O123 C125 1.166 . S
O124 Zn109 1.905 . S
O124 C125 1.182 . S
C125 O123 1.166 . S
C125 O124 1.182 . S
O126 Zn111 2.080 . S
O126 C129 1.305 . S
O127 Zn110 1.920 . S
O127 C129 1.234 . S
C128 O114 1.305 . S
C128 O115 1.234 . S
C129 O126 1.305 . S
C129 O127 1.234 . S
Zn130 O136 1.920 . S
Zn130 O142 1.898 . S
Zn130 O145 1.905 1_455 S
Zn131 O139 1.905 . S
Zn131 O140 1.898 . S
Zn131 O148 1.920 1_655 S
Zn132 O135 2.080 . S
Zn132 O138 2.114 1_455 S
Zn132 O141 2.120 1_455 S
Zn132 O143 2.120 . S
Zn132 O144 2.114 1_455 S
Zn132 O147 2.080 . S
C133 O138 1.166 . S
C133 O139 1.182 . S
C134 O140 1.167 . S
C134 O141 1.299 . S
O135 Zn132 2.080 . S
O135 C149 1.305 . S
O136 Zn130 1.920 . S
O136 C149 1.234 . S
C137 O142 1.167 . S
C137 O143 1.299 . S
O138 Zn132 2.114 1_655 S
O138 C133 1.166 . S
O139 Zn131 1.905 . S
O139 C133 1.182 . S
O140 Zn131 1.898 . S
O140 C134 1.167 . S
O141 Zn132 2.120 1_655 S
O141 C134 1.299 . S
O142 Zn130 1.898 . S
O142 C137 1.167 . S
O143 Zn132 2.120 . S
O143 C137 1.299 . S
O144 Zn132 2.114 1_655 S
O144 C146 1.166 . S
O145 Zn130 1.905 1_655 S
O145 C146 1.182 . S
C146 O144 1.166 . S
C146 O145 1.182 . S
O147 Zn132 2.080 . S
O147 C150 1.305 . S
O148 Zn131 1.920 1_455 S
O148 C150 1.234 . S
C149 O135 1.305 . S
C149 O136 1.234 . S
C150 O147 1.305 . S
C150 O148 1.234 . S
Zn151 O157 1.920 . S
Zn151 O163 1.898 . S
Zn151 O166 1.905 . S
Zn152 O160 1.905 . S
Zn152 O161 1.898 . S
Zn152 O169 1.920 . S
Zn153 O156 2.080 . S
Zn153 O159 2.114 . S
Zn153 O162 2.120 . S
Zn153 O164 2.120 . S
Zn153 O165 2.114 . S
Zn153 O168 2.080 . S
C154 O159 1.166 . S
C154 O160 1.182 . S
C155 O161 1.167 . S
C155 O162 1.299 . S
O156 Zn153 2.080 . S
O156 C170 1.305 . S
O157 Zn151 1.920 . S
O157 C170 1.234 . S
C158 O163 1.167 . S
C158 O164 1.299 . S
O159 Zn153 2.114 . S
O159 C154 1.166 . S
O160 Zn152 1.905 . S
O160 C154 1.182 . S
O161 Zn152 1.898 . S
O161 C155 1.167 . S
O162 Zn153 2.120 . S
O162 C155 1.299 . S
O163 Zn151 1.898 . S
O163 C158 1.167 . S
O164 Zn153 2.120 . S
O164 C158 1.299 . S
O165 Zn153 2.114 . S
O165 C167 1.166 . S
O166 Zn151 1.905 . S
O166 C167 1.182 . S
C167 O165 1.166 . S
C167 O166 1.182 . S
O168 Zn153 2.080 . S
O168 C171 1.305 . S
O169 Zn152 1.920 . S
O169 C171 1.234 . S
C170 O156 1.305 . S
C170 O157 1.234 . S
C171 O168 1.305 . S
C171 O169 1.234 . S
C172 C173 1.170 . S
C172 C174 1.380 . S
C173 C172 1.170 . S
C174 C172 1.380 . S
C174 C175 1.170 1_565 S
C175 C174 1.170 1_545 S
C176 C177 1.170 . S
C176 C178 1.380 . S
C177 C176 1.170 . S
C178 C176 1.380 . S
C178 C179 1.170 . S
C179 C178 1.170 . S
C180 C181 1.170 . S
C180 C182 1.380 . S
C181 C180 1.170 . S
C182 C180 1.380 . S
C182 C183 1.170 . S
C183 C182 1.170 . S
C184 C185 1.170 . S
C184 C186 1.380 . S
C185 C184 1.170 . S
C186 C184 1.380 . S
C186 C187 1.170 1_565 S
C187 C186 1.170 1_545 S
C188 C189 1.170 . S
C188 C190 1.380 . S
C189 C188 1.170 . S
C190 C188 1.380 . S
C190 C191 1.170 1_545 S
C191 C190 1.170 1_565 S
C192 C193 1.170 . S
C192 C194 1.380 . S
C193 C192 1.170 . S
C194 C192 1.380 . S
C194 C195 1.170 . S
C195 C194 1.170 . S
C196 C197 1.170 . S
C196 C198 1.380 . S
C197 C196 1.170 . S
C198 C196 1.380 . S
C198 C199 1.170 . S
C199 C198 1.170 . S
C200 C201 1.170 . S
C200 C202 1.380 . S
C201 C200 1.170 . S
C202 C200 1.380 . S
C202 C203 1.170 1_545 S
C203 C202 1.170 1_565 S
C204 C205 1.171 1_554 S
C204 C206 1.380 . S
C205 C204 1.171 1_556 S
C206 C204 1.380 . S
C206 C207 1.170 . S
C207 C206 1.170 . S
C208 C209 1.170 . S
C208 C210 1.380 . S
C209 C208 1.170 . S
C210 C208 1.380 . S
C210 C211 1.170 . S
C211 C210 1.170 . S
C212 C213 1.170 1_556 S
C212 C214 1.380 . S
C213 C212 1.170 1_554 S
C214 C212 1.380 . S
C214 C215 1.170 . S
C215 C214 1.170 . S
C216 C217 1.170 . S
C216 C218 1.380 . S
C217 C216 1.170 . S
C218 C216 1.380 . S
C218 C219 1.170 . S
C219 C218 1.170 . S
C220 C221 1.170 1_556 S
C220 C222 1.380 . S
C221 C220 1.170 1_554 S
C222 C220 1.380 . S
C222 C223 1.170 . S
C223 C222 1.170 . S
C224 C225 1.170 . S
C224 C226 1.380 . S
C225 C224 1.170 . S
C226 C224 1.380 . S
C226 C227 1.170 . S
C227 C226 1.170 . S
C228 C229 1.170 1_554 S
C228 C230 1.380 . S
C229 C228 1.170 1_556 S
C230 C228 1.380 . S
C230 C231 1.170 . S
C231 C230 1.170 . S
C232 C233 1.170 . S
C232 C234 1.380 . S
C233 C232 1.170 . S
C234 C232 1.380 . S
C234 C235 1.170 . S
C235 C234 1.170 . S
C236 C237 1.170 . S
C236 C238 1.380 . S
C237 C236 1.170 . S
C238 C236 1.380 . S
C238 C239 1.170 . S
C239 C238 1.170 . S
C240 C241 1.170 . S
C240 C242 1.380 . S
C241 C240 1.170 . S
C242 C240 1.380 . S
C242 C243 1.170 . S
C243 C242 1.170 . S
C244 C245 1.170 . S
C244 C246 1.380 . S
C245 C244 1.170 . S
C246 C244 1.380 . S
C246 C247 1.170 . S
C247 C246 1.170 . S
C248 C249 1.170 . S
C248 C250 1.380 . S
C249 C248 1.170 . S
C250 C248 1.380 . S
C250 C251 1.170 . S
C251 C250 1.170 . S
C252 C253 1.170 . S
C252 C254 1.380 . S
C253 C252 1.170 . S
C254 C252 1.380 . S
C254 C255 1.170 . S
C255 C254 1.170 . S
C256 C257 1.170 . S
C256 C258 1.380 . S
C257 C256 1.170 . S
C258 C256 1.380 . S
C258 C259 1.170 . S
C259 C258 1.170 . S
C260 C261 1.170 . S
C260 C262 1.380 . S
C261 C260 1.170 . S
C262 C260 1.380 . S
C262 C263 1.170 . S
C263 C262 1.170 . S
C264 C265 1.170 . S
C264 C266 1.380 . S
C265 C264 1.170 . S
C266 C264 1.380 . S
C266 C267 1.170 . S
C267 C266 1.170 . S
C173 C75 1.460 . S
C175 C104 1.398 . S
C179 C112 1.296 . S
C177 C83 1.388 . S
C183 C116 1.398 . S
C181 C53 1.427 . S
C185 C61 1.371 . S
C187 C92 1.305 . S
C191 C133 1.393 . S
C189 C31 1.433 . S
C195 C167 1.395 . S
C193 C42 1.447 . S
C197 C9 1.404 . S
C199 C155 1.334 . S
C201 C20 1.468 . S
C203 C137 1.427 . S
C207 C91 1.320 . S
C205 C17 1.435 . S
C211 C125 1.295 . S
C209 C6 1.455 . S
C215 C129 1.252 . S
C213 C39 1.427 . S
C219 C107 1.328 . S
C217 C28 1.459 . S
C223 C146 1.409 . S
C221 C64 1.490 . S
C225 C50 1.513 . S
C227 C154 1.335 . S
C231 C170 1.405 . S
C229 C86 1.490 . S
C233 C72 1.494 . S
C235 C150 1.378 . S
C239 C95 1.295 . S
C237 N4 1.480 . S
C243 C113 1.377 . S
C241 N15 1.520 . S
C245 N26 1.470 . S
C247 C128 1.300 . S
C251 C108 1.358 . S
C249 N37 1.520 . S
C255 C134 1.415 . S
C253 N48 1.549 . S
C257 N59 1.511 . S
C259 C158 1.371 . S
C261 N70 1.548 . S
C263 C171 1.394 . S
C265 N81 1.501 . S
C267 C149 1.304 . S
