# Generated by pormake.
# Topology anh, (6,3)-cn, num edge types: 1
# Building blocks:
#     Node 0, Type 0, BuildingBlock: PAMTOO_clean_sbu_0, # of connection points: 6
#     Node 1, Type 0, BuildingBlock: PAMTOO_clean_sbu_0, # of connection points: 6
#     Node 2, Type 0, BuildingBlock: PAMTOO_clean_sbu_0, # of connection points: 6
#     Node 3, Type 1, BuildingBlock: MIDCAF_clean_linker_0, # of connection points: 3
#     Node 4, Type 1, BuildingBlock: MIDCAF_clean_linker_0, # of connection points: 3
#     Node 5, Type 1, BuildingBlock: MIDCAF_clean_linker_0, # of connection points: 3
#     Node 6, Type 1, BuildingBlock: MIDCAF_clean_linker_0, # of connection points: 3
#     Node 7, Type 1, BuildingBlock: MIDCAF_clean_linker_0, # of connection points: 3
#     Node 8, Type 1, BuildingBlock: MIDCAF_clean_linker_0, # of connection points: 3
#     Edge 9, Type (0, 1), BuildingBlock: KIFKEQ_clean_linker_1, # of connection points: 2
#     Edge 10, Type (0, 1), BuildingBlock: KIFKEQ_clean_linker_1, # of connection points: 2
#     Edge 11, Type (0, 1), BuildingBlock: KIFKEQ_clean_linker_1, # of connection points: 2
#     Edge 12, Type (0, 1), BuildingBlock: KIFKEQ_clean_linker_1, # of connection points: 2
#     Edge 13, Type (0, 1), BuildingBlock: KIFKEQ_clean_linker_1, # of connection points: 2
#     Edge 14, Type (0, 1), BuildingBlock: KIFKEQ_clean_linker_1, # of connection points: 2
#     Edge 15, Type (0, 1), BuildingBlock: KIFKEQ_clean_linker_1, # of connection points: 2
#     Edge 16, Type (0, 1), BuildingBlock: KIFKEQ_clean_linker_1, # of connection points: 2
#     Edge 17, Type (0, 1), BuildingBlock: KIFKEQ_clean_linker_1, # of connection points: 2
#     Edge 18, Type (0, 1), BuildingBlock: KIFKEQ_clean_linker_1, # of connection points: 2
#     Edge 19, Type (0, 1), BuildingBlock: KIFKEQ_clean_linker_1, # of connection points: 2
#     Edge 20, Type (0, 1), BuildingBlock: KIFKEQ_clean_linker_1, # of connection points: 2
#     Edge 21, Type (0, 1), BuildingBlock: KIFKEQ_clean_linker_1, # of connection points: 2
#     Edge 22, Type (0, 1), BuildingBlock: KIFKEQ_clean_linker_1, # of connection points: 2
#     Edge 23, Type (0, 1), BuildingBlock: KIFKEQ_clean_linker_1, # of connection points: 2
#     Edge 24, Type (0, 1), BuildingBlock: KIFKEQ_clean_linker_1, # of connection points: 2
#     Edge 25, Type (0, 1), BuildingBlock: KIFKEQ_clean_linker_1, # of connection points: 2
#     Edge 26, Type (0, 1), BuildingBlock: KIFKEQ_clean_linker_1, # of connection points: 2
# Relax obj value: 0.179
# Max RMSD: 0.195
# Mean RMSD: 0.156
data_MOF--net-anh--node1-PAMTOO_clean_sbu_0--node2-MIDCAF_clean_linker_0--edge1-KIFKEQ_clean_linker_1
_symmetry_space_group_name_H-M    P1
_symmetry_Int_Tables_number       1
_symmetry_cell_setting            triclinic
loop_
_symmetry_equiv_pos_as_xyz
'x, y, z'
_cell_length_a     37.054095
_cell_length_b     35.832022
_cell_length_c     68.385044
_cell_angle_alpha  91.459682
_cell_angle_beta   95.121692
_cell_angle_gamma 104.86955
loop_
_atom_site_label
_atom_site_type_symbol
_atom_site_fract_x
_atom_site_fract_y
_atom_site_fract_z
_atom_type_partial_charge
Dy0 Dy 0.06288 0.58737 0.14675 0.0
Dy1 Dy 1.03514 0.49193 0.14234 0.0
C2 C 1.04531 0.5431 0.10552 0.0
O3 O 1.00054 0.57461 0.15019 0.0
O4 O 0.98138 0.51116 0.13828 0.0
O5 O 0.08656 0.64061 0.1332 0.0
O6 O 0.07223 0.64221 0.16317 0.0
O7 O 1.02967 0.50875 0.1733 0.0
O8 O 0.07509 0.56605 0.17629 0.0
O9 O 0.09861 0.50437 0.14739 0.0
O10 O 0.11543 0.56916 0.14126 0.0
O11 O 1.03383 0.43563 0.15333 0.0
O12 O 1.00287 0.44039 0.12551 0.0
C13 C 0.97353 0.54339 0.14411 0.0
O14 O 1.0364 0.56945 0.11631 0.0
O15 O 0.05429 0.51359 0.11367 0.0
C16 C 0.12504 0.69022 0.15487 0.0
C17 C 0.19428 0.74613 0.16425 0.0
C18 C 0.19339 0.70822 0.15784 0.0
C19 C 0.1591 0.68049 0.15326 0.0
C20 C 0.1258 0.72782 0.1614 0.0
C21 C 0.16003 0.75549 0.16608 0.0
C22 C 0.08862 0.66199 0.14919 0.0
C23 C 0.05329 0.53671 0.18416 0.0
C24 C 0.12439 0.53622 0.14422 0.0
C25 C 0.97565 0.3897 0.1452 0.0
C26 C 0.91096 0.33633 0.15627 0.0
C27 C 0.92119 0.37496 0.16384 0.0
C28 C 0.95313 0.40138 0.15832 0.0
C29 C 0.96567 0.35136 0.13759 0.0
C30 C 0.93366 0.32493 0.14304 0.0
C31 C 1.00913 0.4174 0.13916 0.0
H32 H 0.2192 0.69988 0.15651 0.0
H33 H 0.15919 0.65155 0.14833 0.0
H34 H 0.09985 0.73595 0.16267 0.0
H35 H 0.15964 0.78447 0.17076 0.0
H36 H 0.9048 0.38475 0.17424 0.0
H37 H 0.96032 0.43093 0.16432 0.0
H38 H 0.98256 0.34188 0.12733 0.0
H39 H 0.92646 0.29568 0.13667 0.0
Dy40 Dy 0.55357 0.01595 0.51044 0.0
Dy41 Dy 0.64639 0.04261 0.51558 0.0
C42 C 0.5997 0.0307 0.55208 0.0
O43 O 0.5681 0.07896 0.50447 0.0
O44 O 0.62798 0.09693 0.52008 0.0
O45 O 0.50223 0.99482 0.52385 0.0
O46 O 0.49997 0.00744 0.49304 0.0
O47 O 0.62696 0.05153 0.48464 0.0
O48 O 0.57321 0.00264 0.48178 0.0
O49 O 0.63251 0.97787 0.51101 0.0
O50 O 0.57041 0.96178 0.51728 0.0
O51 O 0.69968 0.04421 0.50466 0.0
O52 O 0.69792 0.07379 0.53244 0.0
C53 C 0.59781 0.10574 0.51204 0.0
O54 O 0.5735 0.04093 0.54096 0.0
O55 O 0.62731 0.02115 0.54425 0.0
C56 C 0.45155 0.9565 0.50296 0.0
C57 C 0.39356 0.8874 0.49639 0.0
C58 C 0.4309 0.88624 0.50157 0.0
C59 C 0.45964 0.92049 0.50481 0.0
C60 C 0.41459 0.95783 0.4975 0.0
C61 C 0.38589 0.92367 0.49421 0.0
C62 C 0.48091 0.99288 0.50743 0.0
C63 C 0.60008 0.02671 0.47372 0.0
C64 C 0.60158 0.9521 0.51451 0.0
C65 C 0.74501 0.10331 0.5127 0.0
C66 C 0.79558 0.17049 0.50109 0.0
C67 C 0.75704 0.16216 0.49468 0.0
C68 C 0.73199 0.12893 0.50048 0.0
C69 C 0.78328 0.11154 0.51925 0.0
C70 C 0.80836 0.14485 0.51352 0.0
C71 C 0.71878 0.0683 0.51882 0.0
H72 H 0.43785 0.85892 0.50354 0.0
H73 H 0.48806 0.9189 0.50903 0.0
H74 H 0.40784 0.98536 0.49595 0.0
H75 H 0.35767 0.92572 0.48985 0.0
H76 H 0.74616 0.18151 0.48532 0.0
H77 H 0.70243 0.1232 0.49541 0.0
H78 H 0.7938 0.09211 0.52873 0.0
H79 H 0.83788 0.15016 0.51854 0.0
Dy80 Dy 0.57793 0.49811 0.83886 0.0
Dy81 Dy 0.48744 0.47543 0.82866 0.0
C82 C 0.54152 0.48271 0.79464 0.0
O83 O 0.56175 0.55351 0.84448 0.0
O84 O 0.50807 0.53833 0.82344 0.0
O85 O 0.63313 0.53481 0.83612 0.0
O86 O 0.62641 0.48484 0.85399 0.0
O87 O 0.49755 0.49782 0.86019 0.0
O88 O 0.55426 0.48463 0.86731 0.0
O89 O 0.50028 0.41982 0.83695 0.0
O90 O 0.56069 0.43536 0.8287 0.0
O91 O 0.43054 0.4592 0.83675 0.0
O92 O 0.44088 0.46875 0.80641 0.0
C93 C 0.535 0.56408 0.83387 0.0
O94 O 0.56852 0.50456 0.80671 0.0
O95 O 0.51075 0.46187 0.80108 0.0
C96 C 0.67842 0.49939 0.83588 0.0
C97 C 0.73379 0.47489 0.81745 0.0
C98 C 0.69971 0.47506 0.80671 0.0
C99 C 0.67204 0.48696 0.81591 0.0
C100 C 0.71208 0.49879 0.84666 0.0
C101 C 0.73955 0.48664 0.83755 0.0
C102 C 0.64981 0.51197 0.84576 0.0
C103 C 0.52422 0.49273 0.87302 0.0
C104 C 0.53042 0.40945 0.83279 0.0
C105 C 0.39638 0.49595 0.81844 0.0
C106 C 0.36525 0.5593 0.81299 0.0
C107 C 0.39468 0.56123 0.82776 0.0
C108 C 0.41021 0.52998 0.83038 0.0
C109 C 0.3669 0.49364 0.80377 0.0
C110 C 0.35138 0.52506 0.80106 0.0
C111 C 0.41671 0.46581 0.81933 0.0
H112 H 0.69458 0.46618 0.79123 0.0
H113 H 0.64583 0.48674 0.80745 0.0
H114 H 0.71727 0.50806 0.8621 0.0
H115 H 0.76584 0.48762 0.84613 0.0
H116 H 0.40561 0.5868 0.83745 0.0
H117 H 0.43365 0.53278 0.84148 0.0
H118 H 0.3566 0.46798 0.79408 0.0
H119 H 0.32897 0.52278 0.78943 0.0
C120 C 0.43954 0.96563 0.22187 0.0
C121 C 0.43809 0.94937 0.20283 0.0
C122 C 0.47061 0.95893 0.19281 0.0
C123 C 0.50394 0.98405 0.20181 0.0
H124 H 0.60927 0.07376 0.19342 0.0
H125 H 0.65918 0.11888 0.17819 0.0
H126 H 0.70972 0.16742 0.23563 0.0
H127 H 0.66038 0.12309 0.25078 0.0
H128 H 0.63383 0.08494 0.28898 0.0
H129 H 0.63903 0.08246 0.32471 0.0
H130 H 0.53368 0.99476 0.32085 0.0
H131 H 0.52798 0.99771 0.28534 0.0
H132 H 0.47277 0.00138 0.24574 0.0
H133 H 0.4152 0.95857 0.23008 0.0
H134 H 0.47027 0.94692 0.17808 0.0
H135 H 0.52873 0.99053 0.19393 0.0
N136 N 0.56874 0.04578 0.22245 0.0
N137 N 0.60388 0.06636 0.25298 0.0
N138 N 0.54523 0.02194 0.25174 0.0
C139 C 0.60036 0.06792 0.23305 0.0
C140 C 0.57656 0.04332 0.26244 0.0
C141 C 0.54092 0.02284 0.23186 0.0
C142 C 0.63058 0.09465 0.22336 0.0
C143 C 0.63101 0.09408 0.20278 0.0
C144 C 0.65971 0.11981 0.19405 0.0
C145 C 0.68831 0.14695 0.20569 0.0
C146 C 0.68785 0.14735 0.2262 0.0
C147 C 0.65954 0.12158 0.2349 0.0
C148 C 0.58042 0.04165 0.28419 0.0
C149 C 0.61176 0.06512 0.29573 0.0
C150 C 0.61486 0.06356 0.31624 0.0
C151 C 0.5867 0.03851 0.32568 0.0
C152 C 0.55557 0.01487 0.31412 0.0
C153 C 0.55244 0.01644 0.29367 0.0
C154 C 0.50546 -0.00071 0.22111 0.0
C155 C 0.47273 0.99002 0.2309 0.0
C156 C 0.55772 0.38595 0.54208 0.0
C157 C 0.58296 0.38286 0.52833 0.0
C158 C 0.60676 0.41723 0.52234 0.0
C159 C 0.60624 0.45355 0.53053 0.0
H160 H 0.58869 0.58219 0.52272 0.0
H161 H 0.59178 0.64775 0.51177 0.0
H162 H 0.61741 0.69251 0.57199 0.0
H163 H 0.61434 0.62822 0.58286 0.0
H164 H 0.57268 0.57306 0.61529 0.0
H165 H 0.56477 0.56478 0.65015 0.0
H166 H 0.57868 0.44914 0.64449 0.0
H167 H 0.58659 0.45718 0.60974 0.0
H168 H 0.53851 0.42273 0.5614 0.0
H169 H 0.53932 0.36039 0.54733 0.0
H170 H 0.62635 0.41598 0.51165 0.0
H171 H 0.6259 0.47934 0.52632 0.0
N172 N 0.59252 0.52791 0.54929 0.0
N173 N 0.59091 0.55554 0.58074 0.0
N174 N 0.5821 0.48897 0.57649 0.0
C175 C 0.59496 0.55991 0.56127 0.0
C176 C 0.58464 0.52031 0.58847 0.0
C177 C 0.5859 0.49219 0.55701 0.0
C178 C 0.60065 0.59956 0.55371 0.0
C179 C 0.5954 0.60613 0.53356 0.0
C180 C 0.5972 0.64369 0.52729 0.0
C181 C 0.60415 0.6753 0.54105 0.0
C182 C 0.61108 0.66879 0.56102 0.0
C183 C 0.6094 0.63167 0.56724 0.0
C184 C 0.58026 0.51579 0.60969 0.0
C185 C 0.57413 0.5459 0.62147 0.0
C186 C 0.56937 0.5411 0.6414 0.0
C187 C 0.57111 0.50632 0.65 0.0
C188 C 0.57751 0.47638 0.63828 0.0
C189 C 0.58184 0.48097 0.61834 0.0
C190 C 0.58225 0.45602 0.54504 0.0
C191 C 0.55742 0.42186 0.55028 0.0
C192 C 1.01076 0.57398 0.81929 0.0
C193 C 0.98564 0.53972 0.82413 0.0
C194 C 0.98835 0.52757 0.84346 0.0
C195 C 1.01435 0.5501 0.85788 0.0
H196 H 0.12205 0.70741 0.84703 0.0
H197 H 0.17808 0.73355 0.83052 0.0
H198 H 0.24535 0.6994 0.87838 0.0
H199 H 0.18988 0.6758 0.89517 0.0
H200 H 0.13622 0.65294 0.93487 0.0
H201 H 0.12898 0.63732 0.96911 0.0
H202 H 1.0212 0.55794 0.95135 0.0
H203 H 1.02801 0.57359 0.91731 0.0
H204 H 0.05546 0.62315 0.82961 0.0
H205 H 1.00924 0.58403 0.80451 0.0
H206 H 0.96894 0.50167 0.84775 0.0
H207 H 1.01493 0.5403 0.87273 0.0
N208 N 0.09286 0.63955 0.86406 0.0
N209 N 0.11534 0.65287 0.89737 0.0
N210 N 0.06161 0.60242 0.88806 0.0
C211 C 0.11822 0.66115 0.87818 0.0
C212 C 0.08656 0.62384 0.90243 0.0
C213 C 0.06465 0.60997 0.86885 0.0
C214 C 0.15167 0.68862 0.87206 0.0
C215 C 0.14917 0.70717 0.85435 0.0
C216 C 0.18127 0.72191 0.84485 0.0
C217 C 0.21616 0.71706 0.8526 0.0
C218 C 0.21915 0.70359 0.87173 0.0
C219 C 0.18715 0.68974 0.88144 0.0
C220 C 0.08268 0.61464 0.92329 0.0
C221 C 0.11094 0.63221 0.93826 0.0
C222 C 0.10694 0.62309 0.95786 0.0
C223 C 0.07448 0.59648 0.9629 0.0
C224 C 1.04632 0.5789 0.94795 0.0
C225 C 1.05039 0.58778 0.92839 0.0
C226 C 1.03844 0.58521 0.85327 0.0
C227 C 1.03707 0.59643 0.8337 0.0
C228 C 0.1643 0.65532 0.43825 0.0
C229 C 0.18038 0.65203 0.45729 0.0
C230 C 0.16844 0.61702 0.46661 0.0
C231 C 0.1409 0.58592 0.45699 0.0
H232 H 1.05158 0.48038 0.46399 0.0
H233 H 1.01066 0.42557 0.47862 0.0
H234 H 0.94778 0.39055 0.42196 0.0
H235 H 0.98858 0.44419 0.40738 0.0
H236 H 1.00832 0.49936 0.36946 0.0
H237 H 1.0046 0.50148 0.33378 0.0
H238 H 0.12435 0.55326 0.33757 0.0
H239 H 0.1272 0.55351 0.37318 0.0
H240 H 0.12606 0.62796 0.41383 0.0
H241 H 0.17319 0.68171 0.43059 0.0
H242 H 0.18033 0.61376 0.48132 0.0
H243 H 0.13236 0.55917 0.4644 0.0
N244 N 0.07523 0.52739 0.43576 0.0
N245 N 1.04693 0.49869 0.40496 0.0
N246 N 0.09555 0.55538 0.40664 0.0
C247 C 1.04932 0.4985 0.42493 0.0
C248 C 0.07013 0.52681 0.39575 0.0
C249 C 0.09821 0.5562 0.42658 0.0
C250 C 1.02375 0.46664 0.43444 0.0
C251 C 1.02895 0.46102 0.45469 0.0
C252 C 1.00541 0.42966 0.46309 0.0
C253 C 0.97618 0.40329 0.45143 0.0
C254 C 0.97053 0.40962 0.43132 0.0
C255 C 0.99395 0.44069 0.42296 0.0
C256 C 0.06798 0.52649 0.37407 0.0
C257 C 1.03376 0.51121 0.36258 0.0
C258 C 1.03176 0.51222 0.34208 0.0
C259 C 0.06416 0.52767 0.33257 0.0
C260 C 0.09854 0.5421 0.34421 0.0
C261 C 0.10031 0.54198 0.36469 0.0
C262 C 0.12552 0.58913 0.43774 0.0
C263 C 0.13744 0.62429 0.42859 0.0
C264 C 0.50719 0.1105 0.79505 0.0
C265 C 0.52561 0.12637 0.81339 0.0
C266 C 0.54594 0.10454 0.82457 0.0
C267 C 0.54886 0.06846 0.81718 0.0
H268 H 0.52812 0.92936 0.82259 0.0
H269 H 0.52493 0.86415 0.83414 0.0
H270 H 0.57668 0.83795 0.78328 0.0
H271 H 0.58008 0.90195 0.77188 0.0
H272 H 0.58884 0.9526 0.73574 0.0
H273 H 0.59776 0.95903 0.70086 0.0
H274 H 0.54093 0.0502 0.6987 0.0
H275 H 0.53212 0.04411 0.73349 0.0
H276 H 0.49704 0.06459 0.77308 0.0
H277 H 0.49169 0.12643 0.78585 0.0
H278 H 0.56024 0.11571 0.83885 0.0
H279 H 0.56595 0.05308 0.8257 0.0
N280 N 0.54391 0.98794 0.79757 0.0
N281 N 0.55752 0.96219 0.76789 0.0
N282 N 0.5457 0.02302 0.76885 0.0
C283 C 0.55219 0.95837 0.78725 0.0
C284 C 0.55434 0.99427 0.75859 0.0
C285 C 0.54068 0.02049 0.78824 0.0
C286 C 0.55383 0.92102 0.79612 0.0
C287 C 0.53926 0.90983 0.81404 0.0
C288 C 0.53742 0.87247 0.82066 0.0
C289 C 0.54991 0.84556 0.80943 0.0
C290 C 0.56599 0.85753 0.79207 0.0
C291 C 0.56801 0.89453 0.78556 0.0
C292 C 0.55976 0.99784 0.73743 0.0
C293 C 0.5782 0.97399 0.72783 0.0
C294 C 0.58352 0.97779 0.7079 0.0
C295 C 0.56999 0.00507 0.6971 0.0
C296 C 0.55138 0.02872 0.70664 0.0
C297 C 0.54654 0.02534 0.72661 0.0
C298 C 0.53196 0.05388 0.79836 0.0
C299 C 0.51042 0.07496 0.78765 0.0
C300 C 0.68298 0.57303 0.11898 0.0
C301 C 0.69405 0.54855 0.1328 0.0
C302 C 0.66511 0.52401 0.1423 0.0
C303 C 0.62673 0.52322 0.13763 0.0
H304 H 0.49264 0.57604 0.14462 0.0
H305 H 0.42949 0.57579 0.15344 0.0
H306 H 0.38145 0.48045 0.11118 0.0
H307 H 0.44357 0.48017 0.1031 0.0
H308 H 0.47475 0.53148 0.0588 0.0
H309 H 0.46746 0.52368 0.02295 0.0
H310 H 0.58211 0.51654 0.02372 0.0
H311 H 0.58954 0.52417 0.05943 0.0
H312 H 0.63813 0.59028 0.1029 0.0
H313 H 0.70354 0.59197 0.11095 0.0
H314 H 0.672 0.50486 0.15318 0.0
H315 H 0.60542 0.50271 0.14453 0.0
N316 N 0.54504 0.53755 0.12422 0.0
N317 N 0.50684 0.52918 0.09404 0.0
N318 N 0.57135 0.53765 0.094 0.0
C319 C 0.50993 0.53194 0.11401 0.0
C320 C 0.5371 0.53202 0.08392 0.0
C321 C 0.57613 0.54041 0.11397 0.0
C322 C 0.47366 0.52778 0.1233 0.0
C323 C 0.46862 0.55425 0.13775 0.0
C324 C 0.43209 0.55448 0.14252 0.0
C325 C 0.39943 0.52816 0.13306 0.0
C326 C 0.4051 0.5009 0.11921 0.0
C327 C 0.4412 0.50077 0.11447 0.0
C328 C 0.53272 0.52831 0.06208 0.0
C329 C 0.49845 0.52828 0.05135 0.0
C330 C 0.49428 0.52402 0.03079 0.0
C331 C 0.52412 0.51925 0.02052 0.0
C332 C 0.55842 0.51962 0.03123 0.0
C333 C 0.56273 0.52424 0.05173 0.0
C334 C 0.61601 0.54678 0.12321 0.0
C335 C 0.645 0.57206 0.1143 0.0
H336 H 0.15765 0.47702 0.15354 0.0
H337 H 0.18418 0.59312 0.1335 0.0
H338 H 0.22293 0.47561 0.15258 0.0
H339 H 0.24907 0.59137 0.13175 0.0
H340 H 0.37241 0.59146 0.1427 0.0
H341 H 0.30817 0.59351 0.14661 0.0
H342 H 0.2705 0.4701 0.13433 0.0
H343 H 0.33467 0.46778 0.13175 0.0
C344 C 0.17728 0.50227 0.14879 0.0
C345 C 0.16498 0.53516 0.14361 0.0
C346 C 0.2151 0.50143 0.14808 0.0
C347 C 0.24234 0.53333 0.14199 0.0
C348 C 0.22987 0.56625 0.13686 0.0
C349 C 0.19213 0.56718 0.13773 0.0
C350 C 0.35065 0.56455 0.14117 0.0
C351 C 0.35966 0.52949 0.13672 0.0
C352 C 0.31323 0.56579 0.14311 0.0
C353 C 0.28302 0.53203 0.14065 0.0
C354 C 0.29225 0.49693 0.13659 0.0
C355 C 0.32958 0.49568 0.13477 0.0
H356 H 0.7973 0.19872 0.46431 0.0
H357 H 0.85463 0.22112 0.5229 0.0
H358 H 0.84137 0.2552 0.45326 0.0
H359 H 0.89948 0.27722 0.51168 0.0
H360 H 0.94637 0.3987 0.48705 0.0
H361 H 0.90334 0.34285 0.49968 0.0
H362 H 0.90768 0.27448 0.44745 0.0
H363 H 0.95071 0.32983 0.43495 0.0
C364 C 0.81921 0.2158 0.47486 0.0
C365 C 0.8224 0.20534 0.49449 0.0
C366 C 0.84476 0.24797 0.46848 0.0
C367 C 0.87412 0.27063 0.48155 0.0
C368 C 0.87707 0.26052 0.50126 0.0
C369 C 0.8516 0.22815 0.50763 0.0
C370 C 0.93849 0.37162 0.47838 0.0
C371 C 0.9517 0.36896 0.45987 0.0
C372 C 0.91379 0.33962 0.48561 0.0
C373 C 0.90171 0.30431 0.47447 0.0
C374 C 0.91572 0.30146 0.45622 0.0
C375 C 0.94041 0.33327 0.44905 0.0
H376 H 0.4813 0.59452 0.81546 0.0
H377 H 0.58917 0.62838 0.84985 0.0
H378 H 0.48275 0.66207 0.81158 0.0
H379 H 0.59075 0.69652 0.84571 0.0
H380 H 0.56582 0.81755 0.84559 0.0
H381 H 0.56085 0.74991 0.8534 0.0
H382 H 0.51841 0.71371 0.79317 0.0
H383 H 0.52288 0.78055 0.78556 0.0
C384 C 0.5054 0.61634 0.82225 0.0
C385 C 0.53537 0.60576 0.83279 0.0
C386 C 0.50625 0.65524 0.81995 0.0
C387 C 0.53707 0.68491 0.82811 0.0
C388 C 0.56647 0.67448 0.83929 0.0
C389 C 0.56566 0.63537 0.84158 0.0
C390 C 0.55507 0.79501 0.83412 0.0
C391 C 0.54497 0.80453 0.81492 0.0
C392 C 0.55253 0.75631 0.83854 0.0
C393 C 0.53924 0.72623 0.82392 0.0
C394 C 0.5284 0.73589 0.80487 0.0
C395 C 0.53128 0.77437 0.80045 0.0
H396 H 0.90989 0.48545 0.13148 0.0
H397 H 0.94341 0.60319 0.15528 0.0
H398 H 0.84428 0.48673 0.12971 0.0
H399 H 0.87761 0.60424 0.15408 0.0
H400 H 0.75819 0.60903 0.13209 0.0
H401 H 0.82357 0.60751 0.13486 0.0
H402 H 0.79064 0.48579 0.14546 0.0
H403 H 0.72482 0.48693 0.14164 0.0
C404 C 0.90342 0.5117 0.13648 0.0
C405 C 0.93266 0.54428 0.14347 0.0
C406 C 0.86533 0.51234 0.1356 0.0
C407 C 0.85462 0.54559 0.14173 0.0
C408 C 0.88398 0.57811 0.14886 0.0
C409 C 0.92212 0.57748 0.1497 0.0
C410 C 0.76454 0.58168 0.13484 0.0
C411 C 0.73524 0.54802 0.1364 0.0
C412 C 0.80262 0.58093 0.13673 0.0
C413 C 0.81342 0.5465 0.14036 0.0
C414 C 0.78417 0.51295 0.14235 0.0
C415 C 0.74599 0.5137 0.14043 0.0
H416 H 0.39478 0.81827 0.47844 0.0
H417 H 0.32218 0.8741 0.5074 0.0
H418 H 0.34313 0.76011 0.47203 0.0
H419 H 0.27054 0.81614 0.50076 0.0
H420 H 0.17982 0.7279 0.45974 0.0
H421 H 0.23158 0.78331 0.47127 0.0
H422 H 0.30062 0.70647 0.48776 0.0
H423 H 0.24868 0.65082 0.47588 0.0
C424 C 0.36799 0.81802 0.48368 0.0
C425 C 0.36264 0.85111 0.49328 0.0
C426 C 0.33837 0.78462 0.48002 0.0
C427 C 0.30265 0.78353 0.4858 0.0
C428 C 0.29755 0.81623 0.49584 0.0
C429 C 0.32715 0.84953 0.49957 0.0
C430 C 0.20594 0.72282 0.466 0.0
C431 C 0.21027 0.68504 0.46681 0.0
C432 C 0.23554 0.75456 0.47273 0.0
C433 C 0.27033 0.74935 0.48035 0.0
C434 C 0.27429 0.71145 0.48178 0.0
C435 C 0.24447 0.67959 0.47518 0.0
H436 H 0.47407 0.34731 0.8413 0.0
H437 H 0.58572 0.37657 0.82251 0.0
H438 H 0.47296 0.27898 0.83943 0.0
H439 H 0.58424 0.30826 0.82015 0.0
H440 H 0.58399 0.18429 0.83126 0.0
H441 H 0.58523 0.25188 0.83805 0.0
H442 H 0.46833 0.22768 0.81578 0.0
H443 H 0.46674 0.16004 0.80983 0.0
C444 C 0.49838 0.33923 0.83673 0.0
C445 C 0.52991 0.36765 0.83198 0.0
C446 C 0.49769 0.2999 0.83556 0.0
C447 C 0.52847 0.28777 0.82958 0.0
C448 C 0.56019 0.3163 0.8251 0.0
C449 C 0.56092 0.35562 0.8263 0.0
C450 C 0.55832 0.19319 0.82823 0.0
C451 C 0.52533 0.16657 0.81987 0.0
C452 C 0.55916 0.23217 0.83186 0.0
C453 C 0.527 0.24563 0.82727 0.0
C454 C 0.49364 0.21861 0.81966 0.0
C455 C 0.49281 0.17972 0.81604 0.0
H456 H 0.54303 0.8914 0.52148 0.0
H457 H 0.66011 0.91834 0.5112 0.0
H458 H 0.54298 0.82439 0.52579 0.0
H459 H 0.66008 0.85076 0.51585 0.0
H460 H 0.63535 0.71636 0.51032 0.0
H461 H 0.63462 0.7826 0.50217 0.0
H462 H 0.56927 0.78947 0.55072 0.0
H463 H 0.56938 0.72373 0.55851 0.0
C464 C 0.56884 0.88313 0.52008 0.0
C465 C 0.60168 0.91064 0.51612 0.0
C466 C 0.56882 0.84454 0.52265 0.0
C467 C 0.60161 0.8321 0.52137 0.0
C468 C 0.63424 0.85924 0.51683 0.0
C469 C 0.63431 0.89808 0.51428 0.0
C470 C 0.62054 0.73198 0.51908 0.0
C471 C 0.60261 0.71478 0.53513 0.0
C472 C 0.62041 0.77004 0.51454 0.0
C473 C 0.60187 0.79147 0.52578 0.0
C474 C 0.58348 0.77385 0.54159 0.0
C475 C 0.58386 0.73617 0.54619 0.0
H476 H 0.759 0.50026 0.78251 0.0
H477 H 0.7792 0.42999 0.83052 0.0
H478 H 0.82092 0.50268 0.77231 0.0
H479 H 0.84137 0.43391 0.82112 0.0
H480 H 0.93989 0.57324 0.80161 0.0
H481 H 0.87572 0.54311 0.78928 0.0
H482 H 0.89181 0.43094 0.803 0.0
H483 H 0.95648 0.46181 0.81595 0.0
C484 C 0.77615 0.48419 0.79047 0.0
C485 C 0.76498 0.4661 0.80773 0.0
C486 C 0.81176 0.48579 0.78471 0.0
C487 C 0.83679 0.46978 0.79629 0.0
C488 C 0.82324 0.44692 0.81184 0.0
C489 C 0.78764 0.44507 0.81747 0.0
C490 C 0.93036 0.54198 0.80119 0.0
C491 C 0.95276 0.52 0.81033 0.0
C492 C 0.89331 0.52447 0.794 0.0
C493 C 0.87804 0.48459 0.79578 0.0
C494 C 0.90235 0.46189 0.80202 0.0
C495 C 0.93938 0.47952 0.80942 0.0
H496 H 0.21426 0.79949 0.19526 0.0
H497 H 0.25677 0.76021 0.14396 0.0
H498 H 0.27302 0.84893 0.20279 0.0
H499 H 0.31564 0.81016 0.15134 0.0
H500 H 0.42996 0.87862 0.18415 0.0
H501 H 0.37148 0.82956 0.17397 0.0
H502 H 0.30822 0.90844 0.19164 0.0
H503 H 0.36653 0.95687 0.20212 0.0
C504 C 0.23604 0.80166 0.18546 0.0
C505 C 0.23067 0.77592 0.16896 0.0
C506 C 0.26979 0.83015 0.18974 0.0
C507 C 0.29914 0.83392 0.17759 0.0
C508 C 0.2939 0.80794 0.16116 0.0
C509 C 0.26011 0.77927 0.15692 0.0
C510 C 0.40351 0.88561 0.18553 0.0
C511 C 0.40287 0.92149 0.1941 0.0
C512 C 0.36994 0.85748 0.17972 0.0
C513 C 0.33497 0.86471 0.18224 0.0
C514 C 0.33452 0.90136 0.18995 0.0
C515 C 0.36797 0.92927 0.19585 0.0
H516 H 0.64838 0.1683 0.53129 0.0
H517 H 0.54549 0.1372 0.49258 0.0
H518 H 0.6455 0.23537 0.53255 0.0
H519 H 0.54333 0.20457 0.49319 0.0
H520 H 0.52576 0.31726 0.51924 0.0
H521 H 0.53049 0.25155 0.51392 0.0
H522 H 0.65111 0.29336 0.51606 0.0
H523 H 0.64641 0.35911 0.5226 0.0
C524 C 0.62532 0.1758 0.52284 0.0
C525 C 0.59698 0.14711 0.51197 0.0
C526 C 0.62383 0.2145 0.52343 0.0
C527 C 0.59412 0.22577 0.51302 0.0
C528 C 0.56629 0.19713 0.50173 0.0
C529 C 0.56761 0.15836 0.50129 0.0
C530 C 0.55335 0.31254 0.51857 0.0
C531 C 0.58572 0.34366 0.52165 0.0
C532 C 0.55607 0.27469 0.51527 0.0
C533 C 0.59124 0.26671 0.51472 0.0
C534 C 0.62354 0.2981 0.51678 0.0
C535 C 0.62083 0.33603 0.52022 0.0
H536 H 0.29095 0.55594 0.80562 0.0
H537 H 0.40019 0.63713 0.81591 0.0
H538 H 0.26143 0.60847 0.80792 0.0
H539 H 0.37028 0.6902 0.81858 0.0
H540 H 0.29311 0.73556 0.86158 0.0
H541 H 0.33489 0.70615 0.84488 0.0
H542 H 0.24925 0.66792 0.7963 0.0
H543 H 0.20668 0.69467 0.81339 0.0
C544 C 0.30875 0.58515 0.80776 0.0
C545 C 0.3479 0.59219 0.81092 0.0
C546 C 0.29178 0.61548 0.80902 0.0
C547 C 0.31352 0.65363 0.81353 0.0
C548 C 0.35281 0.66109 0.81529 0.0
C549 C 0.36985 0.63066 0.81391 0.0
C550 C 0.28345 0.72174 0.84712 0.0
C551 C 0.24582 0.7159 0.83939 0.0
C552 C 0.30764 0.70525 0.8374 0.0
C553 C 0.29473 0.68332 0.81963 0.0
C554 C 0.25951 0.68359 0.8103 0.0
C555 C 0.23516 0.6995 0.82012 0.0
H556 H 0.84266 0.34895 0.16244 0.0
H557 H 0.90179 0.25948 0.16355 0.0
H558 H 0.78776 0.30339 0.17301 0.0
H559 H 0.84665 0.21386 0.17386 0.0
H560 H 0.72892 0.13313 0.17585 0.0
H561 H 0.78128 0.17856 0.16265 0.0
H562 H 0.76938 0.26911 0.20251 0.0
H563 H 0.71677 0.22408 0.21535 0.0
C564 C 0.8441 0.31965 0.16503 0.0
C565 C 0.8769 0.30809 0.1622 0.0
C566 C 0.81252 0.29347 0.17104 0.0
C567 C 0.81275 0.25492 0.17431 0.0
C568 C 0.84528 0.24315 0.1712 0.0
C569 C 0.87695 0.26939 0.16527 0.0
C570 C 0.7372 0.16287 0.1816 0.0
C571 C 0.71875 0.1749 0.19672 0.0
C572 C 0.76745 0.18881 0.17418 0.0
C573 C 0.77968 0.2275 0.18157 0.0
C574 C 0.76058 0.23967 0.19635 0.0
C575 C 0.73061 0.21373 0.20385 0.0
H576 H 1.02065 0.59562 0.08345 0.0
H577 H 0.07488 0.50268 0.07947 0.0
H578 H 1.02737 0.6072 0.04888 0.0
H579 H 0.08133 0.51423 0.04471 0.0
H580 H 0.126 0.58134 -0.00927 0.0
H581 H 0.11766 0.56651 0.02502 0.0
H582 H 1.00332 0.57527 0.01605 0.0
H583 H 1.01186 0.59084 0.98198 0.0
C584 C 1.03376 0.57745 0.07517 0.0
C585 C 1.04725 0.54822 0.08422 0.0
C586 C 1.03745 0.584 0.05533 0.0
C587 C 0.05493 0.56166 0.0441 0.0
C588 C 0.06807 0.53214 0.05306 0.0
C589 C 0.06411 0.52536 0.07291 0.0
C590 C 0.09918 0.5803 -0.00386 0.0
C591 C 0.0696 0.5873 0.98369 0.0
C592 C 0.09428 0.5714 0.01569 0.0
C593 C 0.05982 0.56969 0.0232 0.0
C594 C 1.03027 0.57666 0.01072 0.0
C595 C 1.03508 0.58527 -0.00882 0.0
H596 H 0.54683 0.98266 0.44626 0.0
H597 H 0.65139 0.07185 0.45199 0.0
H598 H 0.5445 0.98503 0.41059 0.0
H599 H 0.64867 0.07459 0.41633 0.0
H600 H 0.64902 0.04041 0.35099 0.0
H601 H 0.65301 0.03671 0.38669 0.0
H602 H 0.53464 0.02944 0.38535 0.0
H603 H 0.53066 0.03332 0.34976 0.0
C604 C 0.56935 0.00274 0.43994 0.0
C605 C 0.59925 0.02711 0.45201 0.0
C606 C 0.56788 0.00426 0.41948 0.0
C607 C 0.59631 0.03013 0.41061 0.0
C608 C 0.62651 0.05408 0.42268 0.0
C609 C 0.62794 0.05263 0.44314 0.0
C610 C 0.62393 0.03839 0.35833 0.0
C611 C 0.5895 0.03702 0.34748 0.0
C612 C 0.62621 0.03622 0.37879 0.0
C613 C 0.5941 0.03257 0.38887 0.0
C614 C 0.55975 0.03148 0.37802 0.0
C615 C 0.55749 0.03372 0.3576 0.0
H616 H 0.60573 0.50891 0.77692 0.0
H617 H 0.48675 0.45686 0.76418 0.0
H618 H 0.61229 0.51283 0.74183 0.0
H619 H 0.49347 0.46086 0.72898 0.0
H620 H 0.51729 0.52367 0.67071 0.0
H621 H 0.50965 0.51535 0.70564 0.0
H622 H 0.60632 0.46867 0.71181 0.0
H623 H 0.61413 0.47727 0.67696 0.0
C624 C 0.581 0.49808 0.76663 0.0
C625 C 0.54568 0.48264 0.77333 0.0
C626 C 0.58483 0.50018 0.74653 0.0
C627 C 0.55337 0.48727 0.73269 0.0
C628 C 0.51812 0.47135 0.73935 0.0
C629 C 0.51434 0.46882 0.75948 0.0
C630 C 0.53695 0.51177 0.67957 0.0
C631 C 0.56634 0.50119 0.67115 0.0
C632 C 0.53236 0.50665 0.69948 0.0
C633 C 0.55735 0.49129 0.71141 0.0
C634 C 0.58676 0.48076 0.70299 0.0
C635 C 0.59109 0.48546 0.68304 0.0
H636 H 0.63639 0.99331 0.57826 0.0
H637 H 0.55726 0.06341 0.57436 0.0
H638 H 0.62942 0.98681 0.61318 0.0
H639 H 0.55149 0.05846 0.60942 0.0
H640 H 0.51723 0.00801 0.66717 0.0
H641 H 0.52524 0.01449 0.63235 0.0
H642 H 0.64282 0.01869 0.64452 0.0
H643 H 0.63417 0.01068 0.67928 0.0
C644 C 0.6179 0.0078 0.58493 0.0
C645 C 0.59727 0.02875 0.57353 0.0
C646 C 0.61401 0.00423 0.60501 0.0
C647 C 0.58974 0.02195 0.61422 0.0
C648 C 0.5698 0.04366 0.60282 0.0
C649 C 0.57331 0.04678 0.58271 0.0
C650 C 0.54477 0.0104 0.66235 0.0
C651 C 0.57507 0.00886 0.6759 0.0
C652 C 0.54948 0.01434 0.6424 0.0
C653 C 0.58477 0.01737 0.63552 0.0
C654 C 0.6151 0.01584 0.64916 0.0
C655 C 0.61023 0.01138 0.6691 0.0
H656 H 0.57707 0.48916 0.90267 0.0
H657 H 0.46537 0.50516 0.89208 0.0
H658 H 0.57385 0.49485 0.93773 0.0
H659 H 0.46185 0.51004 0.92768 0.0
H660 H 0.54608 0.466 -0.00138 0.0
H661 H 0.54261 0.45839 0.963 0.0
H662 H 0.48883 0.55178 0.95737 0.0
H663 H 0.49179 0.55892 -0.00676 0.0
C664 C 0.5516 0.49363 0.9078 0.0
C665 C 0.52135 0.49645 0.89447 0.0
C666 C 0.54969 0.49664 0.92801 0.0
C667 C 0.51741 0.50238 0.93559 0.0
C668 C 0.48719 0.50574 0.92232 0.0
C669 C 0.48914 0.50278 0.90194 0.0
C670 C 0.53354 0.48494 0.98979 0.0
C671 C 0.51967 0.5134 -0.00125 0.0
C672 C 0.53156 0.48062 0.96935 0.0
C673 C 0.51595 0.50487 0.95728 0.0
C674 C 0.50084 0.53248 0.96621 0.0
C675 C 0.50261 0.53664 0.98675 0.0
H676 H 1.03754 0.47286 0.20588 0.0
H677 H 0.0726 0.59749 0.21112 0.0
H678 H 1.04103 0.47043 0.2415 0.0
H679 H 0.07358 0.59554 0.24667 0.0
H680 H 0.10632 0.58229 0.31039 0.0
H681 H 0.10511 0.58315 0.27502 0.0
H682 H 1.0134 0.47947 0.26934 0.0
H683 H 1.01747 0.47621 0.30477 0.0
C684 C 1.04558 0.49977 0.2147 0.0
C685 C 0.05497 0.53534 0.20577 0.0
C686 C 1.04729 0.49847 0.23517 0.0
C687 C 0.05753 0.53279 0.2472 0.0
C688 C 0.06644 0.56841 0.23809 0.0
C689 C 0.06564 0.56963 0.21765 0.0
C690 C 0.08641 0.55909 0.30168 0.0
C691 C 0.06221 0.52899 0.31068 0.0
C692 C 0.08518 0.56005 0.28123 0.0
C693 C 0.05904 0.53148 0.26908 0.0
C694 C 1.03443 0.50169 0.27807 0.0
C695 C 1.03627 0.50023 0.29854 0.0
loop_
_geom_bond_atom_site_label_1
_geom_bond_atom_site_label_2
_geom_bond_distance
_geom_bond_site_symmetry_2
_ccdc_geom_bond_type
Dy0 O3 2.307 1_455 S
Dy0 O5 2.395 . S
Dy0 O6 2.379 . S
Dy0 O8 2.339 . S
Dy0 O10 2.298 . S
Dy0 O14 2.275 . S
Dy0 C22 2.738 . S
Dy1 O4 2.298 . S
Dy1 O7 2.275 1_655 S
Dy1 O9 2.307 1_655 S
Dy1 O11 2.395 . S
Dy1 O12 2.379 . S
Dy1 O15 2.339 . S
Dy1 C31 2.738 . S
C2 O14 1.254 . S
C2 O15 1.257 1_455 S
O3 Dy0 2.307 1_655 S
O3 C13 1.266 . S
O4 Dy1 2.298 . S
O4 C13 1.236 . S
O5 Dy0 2.395 . S
O5 C22 1.255 . S
O6 Dy0 2.379 . S
O6 C22 1.249 . S
O7 Dy1 2.275 1_455 S
O7 C23 1.254 . S
O8 Dy0 2.339 . S
O8 C23 1.257 . S
O9 Dy1 2.307 1_455 S
O9 C24 1.266 . S
O10 Dy0 2.298 . S
O10 C24 1.236 . S
O11 Dy1 2.395 . S
O11 C31 1.255 . S
O12 Dy1 2.379 . S
O12 C31 1.249 . S
C13 O3 1.266 . S
C13 O4 1.236 . S
O14 Dy0 2.275 . S
O14 C2 1.254 . S
O15 Dy1 2.339 . S
O15 C2 1.257 1_655 S
C16 C19 1.344 . S
C16 C20 1.328 . S
C16 C22 1.516 . S
C17 C18 1.304 . S
C17 C21 1.323 . S
C18 C17 1.304 . S
C18 C19 1.371 . S
C18 H32 0.930 . S
C19 C16 1.344 . S
C19 C18 1.371 . S
C19 H33 0.931 . S
C20 C16 1.328 . S
C20 C21 1.433 . S
C20 H34 0.931 . S
C21 C17 1.323 . S
C21 C20 1.433 . S
C21 H35 0.933 . S
C22 Dy0 2.738 . S
C22 O5 1.255 . S
C22 O6 1.249 . S
C22 C16 1.516 . S
C23 O7 1.254 . S
C23 O8 1.257 . S
C24 O9 1.266 . S
C24 O10 1.236 . S
C25 C28 1.344 . S
C25 C29 1.328 . S
C25 C31 1.516 . S
C26 C27 1.304 . S
C26 C30 1.323 . S
C27 C26 1.304 . S
C27 C28 1.371 . S
C27 H36 0.930 . S
C28 C25 1.344 . S
C28 C27 1.371 . S
C28 H37 0.931 . S
C29 C25 1.328 . S
C29 C30 1.433 . S
C29 H38 0.931 . S
C30 C26 1.323 . S
C30 C29 1.433 . S
C30 H39 0.933 . S
C31 Dy1 2.738 . S
C31 O11 1.255 . S
C31 O12 1.249 . S
C31 C25 1.516 . S
H32 C18 0.930 . S
H33 C19 0.931 . S
H34 C20 0.931 . S
H35 C21 0.933 . S
H36 C27 0.930 . S
H37 C28 0.931 . S
H38 C29 0.931 . S
H39 C30 0.933 . S
Dy40 O43 2.307 . S
Dy40 O45 2.395 1_545 S
Dy40 O46 2.379 1_545 S
Dy40 O48 2.339 . S
Dy40 O50 2.298 1_545 S
Dy40 O54 2.275 . S
Dy40 C62 2.738 1_545 S
Dy41 O44 2.298 . S
Dy41 O47 2.275 . S
Dy41 O49 2.307 1_545 S
Dy41 O51 2.395 . S
Dy41 O52 2.379 . S
Dy41 O55 2.339 . S
Dy41 C71 2.738 . S
C42 O54 1.254 . S
C42 O55 1.257 . S
O43 Dy40 2.307 . S
O43 C53 1.266 . S
O44 Dy41 2.298 . S
O44 C53 1.236 . S
O45 Dy40 2.395 1_565 S
O45 C62 1.255 . S
O46 Dy40 2.379 1_565 S
O46 C62 1.249 . S
O47 Dy41 2.275 . S
O47 C63 1.254 . S
O48 Dy40 2.339 . S
O48 C63 1.257 . S
O49 Dy41 2.307 1_565 S
O49 C64 1.266 . S
O50 Dy40 2.298 1_565 S
O50 C64 1.236 . S
O51 Dy41 2.395 . S
O51 C71 1.255 . S
O52 Dy41 2.379 . S
O52 C71 1.249 . S
C53 O43 1.266 . S
C53 O44 1.236 . S
O54 Dy40 2.275 . S
O54 C42 1.254 . S
O55 Dy41 2.339 . S
O55 C42 1.257 . S
C56 C59 1.344 . S
C56 C60 1.328 . S
C56 C62 1.516 . S
C57 C58 1.304 . S
C57 C61 1.323 . S
C58 C57 1.304 . S
C58 C59 1.371 . S
C58 H72 0.930 . S
C59 C56 1.344 . S
C59 C58 1.371 . S
C59 H73 0.931 . S
C60 C56 1.328 . S
C60 C61 1.433 . S
C60 H74 0.931 . S
C61 C57 1.323 . S
C61 C60 1.433 . S
C61 H75 0.933 . S
C62 Dy40 2.738 1_565 S
C62 O45 1.255 . S
C62 O46 1.249 . S
C62 C56 1.516 . S
C63 O47 1.254 . S
C63 O48 1.257 . S
C64 O49 1.266 . S
C64 O50 1.236 . S
C65 C68 1.344 . S
C65 C69 1.328 . S
C65 C71 1.516 . S
C66 C67 1.304 . S
C66 C70 1.323 . S
C67 C66 1.304 . S
C67 C68 1.371 . S
C67 H76 0.930 . S
C68 C65 1.344 . S
C68 C67 1.371 . S
C68 H77 0.931 . S
C69 C65 1.328 . S
C69 C70 1.433 . S
C69 H78 0.931 . S
C70 C66 1.323 . S
C70 C69 1.433 . S
C70 H79 0.933 . S
C71 Dy41 2.738 . S
C71 O51 1.255 . S
C71 O52 1.249 . S
C71 C65 1.516 . S
H72 C58 0.930 . S
H73 C59 0.931 . S
H74 C60 0.931 . S
H75 C61 0.933 . S
H76 C67 0.930 . S
H77 C68 0.931 . S
H78 C69 0.931 . S
H79 C70 0.933 . S
Dy80 O83 2.307 . S
Dy80 O85 2.395 . S
Dy80 O86 2.379 . S
Dy80 O88 2.339 . S
Dy80 O90 2.298 . S
Dy80 O94 2.275 . S
Dy80 C102 2.738 . S
Dy81 O84 2.298 . S
Dy81 O87 2.275 . S
Dy81 O89 2.307 . S
Dy81 O91 2.395 . S
Dy81 O92 2.379 . S
Dy81 O95 2.339 . S
Dy81 C111 2.738 . S
C82 O94 1.254 . S
C82 O95 1.257 . S
O83 Dy80 2.307 . S
O83 C93 1.266 . S
O84 Dy81 2.298 . S
O84 C93 1.236 . S
O85 Dy80 2.395 . S
O85 C102 1.255 . S
O86 Dy80 2.379 . S
O86 C102 1.249 . S
O87 Dy81 2.275 . S
O87 C103 1.254 . S
O88 Dy80 2.339 . S
O88 C103 1.257 . S
O89 Dy81 2.307 . S
O89 C104 1.266 . S
O90 Dy80 2.298 . S
O90 C104 1.236 . S
O91 Dy81 2.395 . S
O91 C111 1.255 . S
O92 Dy81 2.379 . S
O92 C111 1.249 . S
C93 O83 1.266 . S
C93 O84 1.236 . S
O94 Dy80 2.275 . S
O94 C82 1.254 . S
O95 Dy81 2.339 . S
O95 C82 1.257 . S
C96 C99 1.344 . S
C96 C100 1.328 . S
C96 C102 1.516 . S
C97 C98 1.304 . S
C97 C101 1.323 . S
C98 C97 1.304 . S
C98 C99 1.371 . S
C98 H112 0.930 . S
C99 C96 1.344 . S
C99 C98 1.371 . S
C99 H113 0.931 . S
C100 C96 1.328 . S
C100 C101 1.433 . S
C100 H114 0.931 . S
C101 C97 1.323 . S
C101 C100 1.433 . S
C101 H115 0.933 . S
C102 Dy80 2.738 . S
C102 O85 1.255 . S
C102 O86 1.249 . S
C102 C96 1.516 . S
C103 O87 1.254 . S
C103 O88 1.257 . S
C104 O89 1.266 . S
C104 O90 1.236 . S
C105 C108 1.344 . S
C105 C109 1.328 . S
C105 C111 1.516 . S
C106 C107 1.304 . S
C106 C110 1.323 . S
C107 C106 1.304 . S
C107 C108 1.371 . S
C107 H116 0.930 . S
C108 C105 1.344 . S
C108 C107 1.371 . S
C108 H117 0.931 . S
C109 C105 1.328 . S
C109 C110 1.433 . S
C109 H118 0.931 . S
C110 C106 1.323 . S
C110 C109 1.433 . S
C110 H119 0.933 . S
C111 Dy81 2.738 . S
C111 O91 1.255 . S
C111 O92 1.249 . S
C111 C105 1.516 . S
H112 C98 0.930 . S
H113 C99 0.931 . S
H114 C100 0.931 . S
H115 C101 0.933 . S
H116 C107 0.930 . S
H117 C108 0.931 . S
H118 C109 0.931 . S
H119 C110 0.933 . S
C120 C121 1.384 . S
C120 H133 0.947 . S
C120 C155 1.382 . S
C121 C120 1.384 . S
C121 C122 1.378 . S
C122 C121 1.378 . S
C122 C123 1.378 . S
C122 H134 0.952 . S
C123 C122 1.378 . S
C123 H135 0.950 1_565 S
C123 C154 1.384 . S
H124 C143 0.947 . S
H125 C144 0.946 . S
H126 C146 0.953 . S
H127 C147 0.945 . S
H128 C149 0.952 . S
H129 C150 0.949 . S
H130 C152 0.950 . S
H131 C153 0.954 . S
H132 C155 0.951 . S
H133 C120 0.947 . S
H134 C122 0.952 . S
H135 C123 0.950 1_545 S
N136 C139 1.382 . S
N136 C141 1.363 . S
N137 C139 1.371 . S
N137 C140 1.372 . S
N138 C140 1.361 . S
N138 C141 1.377 . S
C139 N136 1.382 . S
C139 N137 1.371 . S
C139 C142 1.480 . S
C140 N137 1.372 . S
C140 N138 1.361 . S
C140 C148 1.457 . S
C141 N136 1.363 . S
C141 N138 1.377 . S
C141 C154 1.474 1_545 S
C142 C139 1.480 . S
C142 C143 1.383 . S
C142 C147 1.385 . S
C143 H124 0.947 . S
C143 C142 1.383 . S
C143 C144 1.388 . S
C144 H125 0.946 . S
C144 C143 1.388 . S
C144 C145 1.384 . S
C145 C144 1.384 . S
C145 C146 1.377 . S
C146 H126 0.953 . S
C146 C145 1.377 . S
C146 C147 1.369 . S
C147 H127 0.945 . S
C147 C142 1.385 . S
C147 C146 1.369 . S
C148 C140 1.457 . S
C148 C149 1.372 . S
C148 C153 1.364 . S
C149 H128 0.952 . S
C149 C148 1.372 . S
C149 C150 1.389 . S
C150 H129 0.949 . S
C150 C149 1.389 . S
C150 C151 1.387 . S
C151 C150 1.387 . S
C151 C152 1.372 . S
C152 H130 0.950 . S
C152 C151 1.372 . S
C152 C153 1.379 . S
C153 H131 0.954 . S
C153 C148 1.364 . S
C153 C152 1.379 . S
C154 C123 1.384 . S
C154 C141 1.474 1_565 S
C154 C155 1.404 . S
C155 C120 1.382 . S
C155 H132 0.951 . S
C155 C154 1.404 . S
C156 C157 1.384 . S
C156 H169 0.947 . S
C156 C191 1.382 . S
C157 C156 1.384 . S
C157 C158 1.378 . S
C158 C157 1.378 . S
C158 C159 1.378 . S
C158 H170 0.952 . S
C159 C158 1.378 . S
C159 H171 0.950 . S
C159 C190 1.383 . S
H160 C179 0.947 . S
H161 C180 0.946 . S
H162 C182 0.953 . S
H163 C183 0.945 . S
H164 C185 0.952 . S
H165 C186 0.949 . S
H166 C188 0.950 . S
H167 C189 0.948 . S
H168 C191 0.951 . S
H169 C156 0.947 . S
H170 C158 0.952 . S
H171 C159 0.950 . S
N172 C175 1.382 . S
N172 C177 1.363 . S
N173 C175 1.371 . S
N173 C176 1.372 . S
N174 C176 1.361 . S
N174 C177 1.377 . S
C175 N172 1.382 . S
C175 N173 1.371 . S
C175 C178 1.480 . S
C176 N173 1.372 . S
C176 N174 1.361 . S
C176 C184 1.457 . S
C177 N172 1.363 . S
C177 N174 1.377 . S
C177 C190 1.479 . S
C178 C175 1.480 . S
C178 C179 1.383 . S
C178 C183 1.385 . S
C179 H160 0.947 . S
C179 C178 1.383 . S
C179 C180 1.388 . S
C180 H161 0.946 . S
C180 C179 1.388 . S
C180 C181 1.384 . S
C181 C180 1.384 . S
C181 C182 1.377 . S
C182 H162 0.953 . S
C182 C181 1.377 . S
C182 C183 1.369 . S
C183 H163 0.945 . S
C183 C178 1.385 . S
C183 C182 1.369 . S
C184 C176 1.457 . S
C184 C185 1.372 . S
C184 C189 1.364 . S
C185 H164 0.952 . S
C185 C184 1.372 . S
C185 C186 1.389 . S
C186 H165 0.949 . S
C186 C185 1.389 . S
C186 C187 1.387 . S
C187 C186 1.387 . S
C187 C188 1.372 . S
C188 H166 0.950 . S
C188 C187 1.372 . S
C188 C189 1.379 . S
C189 H167 0.948 . S
C189 C184 1.364 . S
C189 C188 1.379 . S
C190 C159 1.383 . S
C190 C177 1.479 . S
C190 C191 1.398 . S
C191 C156 1.382 . S
C191 H168 0.951 . S
C191 C190 1.398 . S
C192 C193 1.384 . S
C192 H205 0.947 . S
C192 C227 1.382 . S
C193 C192 1.384 . S
C193 C194 1.378 . S
C194 C193 1.378 . S
C194 C195 1.378 . S
C194 H206 0.952 . S
C195 C194 1.378 . S
C195 H207 0.950 . S
C195 C226 1.383 . S
H196 C215 0.947 . S
H197 C216 0.946 . S
H198 C218 0.953 . S
H199 C219 0.945 . S
H200 C221 0.952 . S
H201 C222 0.949 . S
H202 C224 0.950 . S
H203 C225 0.948 . S
H204 C227 0.951 . S
H205 C192 0.947 . S
H206 C194 0.952 . S
H207 C195 0.950 . S
N208 C211 1.382 . S
N208 C213 1.363 1_455 S
N209 C211 1.371 . S
N209 C212 1.372 . S
N210 C212 1.361 1_655 S
N210 C213 1.377 . S
C211 N208 1.382 . S
C211 N209 1.371 . S
C211 C214 1.480 . S
C212 N209 1.372 . S
C212 N210 1.361 1_455 S
C212 C220 1.457 . S
C213 N208 1.363 1_655 S
C213 N210 1.377 . S
C213 C226 1.479 . S
C214 C211 1.480 . S
C214 C215 1.383 . S
C214 C219 1.385 . S
C215 H196 0.947 . S
C215 C214 1.383 . S
C215 C216 1.388 . S
C216 H197 0.946 . S
C216 C215 1.388 . S
C216 C217 1.384 . S
C217 C216 1.384 . S
C217 C218 1.377 . S
C218 H198 0.953 . S
C218 C217 1.377 . S
C218 C219 1.369 . S
C219 H199 0.945 . S
C219 C214 1.385 . S
C219 C218 1.369 . S
C220 C212 1.457 . S
C220 C221 1.372 . S
C220 C225 1.364 1_455 S
C221 H200 0.952 . S
C221 C220 1.372 . S
C221 C222 1.389 . S
C222 H201 0.949 . S
C222 C221 1.389 . S
C222 C223 1.387 . S
C223 C222 1.387 . S
C223 C224 1.372 1_455 S
C224 H202 0.950 . S
C224 C223 1.372 1_655 S
C224 C225 1.379 . S
C225 H203 0.948 . S
C225 C220 1.364 1_655 S
C225 C224 1.379 . S
C226 C195 1.383 . S
C226 C213 1.479 . S
C226 C227 1.398 . S
C227 C192 1.382 . S
C227 H204 0.951 . S
C227 C226 1.398 . S
C228 C229 1.384 . S
C228 H241 0.947 . S
C228 C263 1.382 . S
C229 C228 1.384 . S
C229 C230 1.378 . S
C230 C229 1.378 . S
C230 C231 1.378 . S
C230 H242 0.952 . S
C231 C230 1.378 . S
C231 H243 0.950 . S
C231 C262 1.383 . S
H232 C251 0.947 . S
H233 C252 0.946 . S
H234 C254 0.953 . S
H235 C255 0.945 . S
H236 C257 0.952 . S
H237 C258 0.949 . S
H238 C260 0.950 . S
H239 C261 0.948 . S
H240 C263 0.951 . S
H241 C228 0.947 . S
H242 C230 0.952 . S
H243 C231 0.950 . S
N244 C247 1.382 1_455 S
N244 C249 1.363 . S
N245 C247 1.371 . S
N245 C248 1.372 1_655 S
N246 C248 1.361 . S
N246 C249 1.377 . S
C247 N244 1.382 1_655 S
C247 N245 1.371 . S
C247 C250 1.480 . S
C248 N245 1.372 1_455 S
C248 N246 1.361 . S
C248 C256 1.457 . S
C249 N244 1.363 . S
C249 N246 1.377 . S
C249 C262 1.479 . S
C250 C247 1.480 . S
C250 C251 1.383 . S
C250 C255 1.385 . S
C251 H232 0.947 . S
C251 C250 1.383 . S
C251 C252 1.388 . S
C252 H233 0.946 . S
C252 C251 1.388 . S
C252 C253 1.384 . S
C253 C252 1.384 . S
C253 C254 1.377 . S
C254 H234 0.953 . S
C254 C253 1.377 . S
C254 C255 1.369 . S
C255 H235 0.945 . S
C255 C250 1.385 . S
C255 C254 1.369 . S
C256 C248 1.457 . S
C256 C257 1.372 1_455 S
C256 C261 1.364 . S
C257 H236 0.952 . S
C257 C256 1.372 1_655 S
C257 C258 1.389 . S
C258 H237 0.949 . S
C258 C257 1.389 . S
C258 C259 1.395 . S
C259 C258 1.395 . S
C259 C260 1.363 1_655 S
C260 H238 0.950 . S
C260 C259 1.363 1_455 S
C260 C261 1.379 . S
C261 H239 0.948 . S
C261 C256 1.364 . S
C261 C260 1.379 . S
C262 C231 1.383 . S
C262 C249 1.479 . S
C262 C263 1.398 . S
C263 C228 1.382 . S
C263 H240 0.951 . S
C263 C262 1.398 . S
C264 C265 1.384 . S
C264 H277 0.947 . S
C264 C299 1.382 . S
C265 C264 1.384 . S
C265 C266 1.378 . S
C266 C265 1.378 . S
C266 C267 1.378 . S
C266 H278 0.952 . S
C267 C266 1.378 . S
C267 H279 0.950 . S
C267 C298 1.383 . S
H268 C287 0.947 . S
H269 C288 0.946 . S
H270 C290 0.953 . S
H271 C291 0.945 . S
H272 C293 0.952 . S
H273 C294 0.949 . S
H274 C296 0.950 . S
H275 C297 0.948 . S
H276 C299 0.951 . S
H277 C264 0.947 . S
H278 C266 0.952 . S
H279 C267 0.950 . S
N280 C283 1.382 1_545 S
N280 C285 1.363 . S
N281 C283 1.371 . S
N281 C284 1.372 1_565 S
N282 C284 1.361 . S
N282 C285 1.377 . S
C283 N280 1.382 1_565 S
C283 N281 1.371 . S
C283 C286 1.480 . S
C284 N281 1.372 1_545 S
C284 N282 1.361 . S
C284 C292 1.457 . S
C285 N280 1.363 . S
C285 N282 1.377 . S
C285 C298 1.479 . S
C286 C283 1.480 . S
C286 C287 1.383 . S
C286 C291 1.385 . S
C287 H268 0.947 . S
C287 C286 1.383 . S
C287 C288 1.388 . S
C288 H269 0.946 . S
C288 C287 1.388 . S
C288 C289 1.384 . S
C289 C288 1.384 . S
C289 C290 1.377 . S
C290 H270 0.953 . S
C290 C289 1.377 . S
C290 C291 1.369 . S
C291 H271 0.945 . S
C291 C286 1.385 . S
C291 C290 1.369 . S
C292 C284 1.457 . S
C292 C293 1.372 1_545 S
C292 C297 1.364 . S
C293 H272 0.952 . S
C293 C292 1.372 1_565 S
C293 C294 1.389 . S
C294 H273 0.949 . S
C294 C293 1.389 . S
C294 C295 1.387 1_565 S
C295 C294 1.387 1_545 S
C295 C296 1.372 . S
C296 H274 0.950 . S
C296 C295 1.372 . S
C296 C297 1.379 . S
C297 H275 0.948 . S
C297 C292 1.364 . S
C297 C296 1.379 . S
C298 C267 1.383 . S
C298 C285 1.479 . S
C298 C299 1.398 . S
C299 C264 1.382 . S
C299 H276 0.951 . S
C299 C298 1.398 . S
C300 C301 1.384 . S
C300 H313 0.947 . S
C300 C335 1.382 . S
C301 C300 1.384 . S
C301 C302 1.378 . S
C302 C301 1.378 . S
C302 C303 1.378 . S
C302 H314 0.952 . S
C303 C302 1.378 . S
C303 H315 0.950 . S
C303 C334 1.383 . S
H304 C323 0.947 . S
H305 C324 0.946 . S
H306 C326 0.953 . S
H307 C327 0.945 . S
H308 C329 0.952 . S
H309 C330 0.949 . S
H310 C332 0.950 . S
H311 C333 0.948 . S
H312 C335 0.951 . S
H313 C300 0.947 . S
H314 C302 0.952 . S
H315 C303 0.950 . S
N316 C319 1.382 . S
N316 C321 1.363 . S
N317 C319 1.371 . S
N317 C320 1.372 . S
N318 C320 1.361 . S
N318 C321 1.377 . S
C319 N316 1.382 . S
C319 N317 1.371 . S
C319 C322 1.480 . S
C320 N317 1.372 . S
C320 N318 1.361 . S
C320 C328 1.457 . S
C321 N316 1.363 . S
C321 N318 1.377 . S
C321 C334 1.479 . S
C322 C319 1.480 . S
C322 C323 1.383 . S
C322 C327 1.385 . S
C323 H304 0.947 . S
C323 C322 1.383 . S
C323 C324 1.388 . S
C324 H305 0.946 . S
C324 C323 1.388 . S
C324 C325 1.384 . S
C325 C324 1.384 . S
C325 C326 1.377 . S
C326 H306 0.953 . S
C326 C325 1.377 . S
C326 C327 1.369 . S
C327 H307 0.945 . S
C327 C322 1.385 . S
C327 C326 1.369 . S
C328 C320 1.457 . S
C328 C329 1.372 . S
C328 C333 1.364 . S
C329 H308 0.952 . S
C329 C328 1.372 . S
C329 C330 1.389 . S
C330 H309 0.949 . S
C330 C329 1.389 . S
C330 C331 1.387 . S
C331 C330 1.387 . S
C331 C332 1.372 . S
C332 H310 0.950 . S
C332 C331 1.372 . S
C332 C333 1.379 . S
C333 H311 0.948 . S
C333 C328 1.364 . S
C333 C332 1.379 . S
C334 C303 1.383 . S
C334 C321 1.479 . S
C334 C335 1.398 . S
C335 C300 1.382 . S
C335 H312 0.951 . S
C335 C334 1.398 . S
H336 C344 0.950 . S
H337 C349 0.950 . S
H338 C346 0.950 . S
H339 C348 0.950 . S
H340 C350 0.950 . S
H341 C352 0.950 . S
H342 C354 0.950 . S
H343 C355 0.950 . S
C344 H336 0.950 . S
C344 C345 1.386 . S
C344 C346 1.391 . S
C345 C344 1.386 . S
C345 C349 1.393 . S
C346 H338 0.950 . S
C346 C344 1.391 . S
C346 C347 1.400 . S
C347 C346 1.400 . S
C347 C348 1.398 . S
C347 C353 1.491 . S
C348 H339 0.950 . S
C348 C347 1.398 . S
C348 C349 1.391 . S
C349 H337 0.950 . S
C349 C345 1.393 . S
C349 C348 1.391 . S
C350 H340 0.950 . S
C350 C351 1.386 . S
C350 C352 1.391 . S
C351 C350 1.386 . S
C351 C355 1.393 . S
C352 H341 0.950 . S
C352 C350 1.391 . S
C352 C353 1.400 . S
C353 C347 1.491 . S
C353 C352 1.400 . S
C353 C354 1.398 . S
C354 H342 0.950 . S
C354 C353 1.398 . S
C354 C355 1.391 . S
C355 H343 0.950 . S
C355 C351 1.393 . S
C355 C354 1.391 . S
H356 C364 0.950 . S
H357 C369 0.950 . S
H358 C366 0.950 . S
H359 C368 0.950 . S
H360 C370 0.950 . S
H361 C372 0.950 . S
H362 C374 0.950 . S
H363 C375 0.950 . S
C364 H356 0.950 . S
C364 C365 1.386 . S
C364 C366 1.391 . S
C365 C364 1.386 . S
C365 C369 1.393 . S
C366 H358 0.950 . S
C366 C364 1.391 . S
C366 C367 1.400 . S
C367 C366 1.400 . S
C367 C368 1.398 . S
C367 C373 1.491 . S
C368 H359 0.950 . S
C368 C367 1.398 . S
C368 C369 1.391 . S
C369 H357 0.950 . S
C369 C365 1.393 . S
C369 C368 1.391 . S
C370 H360 0.950 . S
C370 C371 1.386 . S
C370 C372 1.391 . S
C371 C370 1.386 . S
C371 C375 1.393 . S
C372 H361 0.950 . S
C372 C370 1.391 . S
C372 C373 1.400 . S
C373 C367 1.491 . S
C373 C372 1.400 . S
C373 C374 1.398 . S
C374 H362 0.950 . S
C374 C373 1.398 . S
C374 C375 1.391 . S
C375 H363 0.950 . S
C375 C371 1.393 . S
C375 C374 1.391 . S
H376 C384 0.950 . S
H377 C389 0.950 . S
H378 C386 0.950 . S
H379 C388 0.950 . S
H380 C390 0.950 . S
H381 C392 0.950 . S
H382 C394 0.950 . S
H383 C395 0.950 . S
C384 H376 0.950 . S
C384 C385 1.386 . S
C384 C386 1.391 . S
C385 C384 1.386 . S
C385 C389 1.393 . S
C386 H378 0.950 . S
C386 C384 1.391 . S
C386 C387 1.400 . S
C387 C386 1.400 . S
C387 C388 1.398 . S
C387 C393 1.491 . S
C388 H379 0.950 . S
C388 C387 1.398 . S
C388 C389 1.391 . S
C389 H377 0.950 . S
C389 C385 1.393 . S
C389 C388 1.391 . S
C390 H380 0.950 . S
C390 C391 1.386 . S
C390 C392 1.391 . S
C391 C390 1.386 . S
C391 C395 1.393 . S
C392 H381 0.950 . S
C392 C390 1.391 . S
C392 C393 1.400 . S
C393 C387 1.491 . S
C393 C392 1.400 . S
C393 C394 1.398 . S
C394 H382 0.950 . S
C394 C393 1.398 . S
C394 C395 1.391 . S
C395 H383 0.950 . S
C395 C391 1.393 . S
C395 C394 1.391 . S
H396 C404 0.950 . S
H397 C409 0.950 . S
H398 C406 0.950 . S
H399 C408 0.950 . S
H400 C410 0.950 . S
H401 C412 0.950 . S
H402 C414 0.950 . S
H403 C415 0.950 . S
C404 H396 0.950 . S
C404 C405 1.386 . S
C404 C406 1.391 . S
C405 C404 1.386 . S
C405 C409 1.393 . S
C406 H398 0.950 . S
C406 C404 1.391 . S
C406 C407 1.400 . S
C407 C406 1.400 . S
C407 C408 1.398 . S
C407 C413 1.491 . S
C408 H399 0.950 . S
C408 C407 1.398 . S
C408 C409 1.391 . S
C409 H397 0.950 . S
C409 C405 1.393 . S
C409 C408 1.391 . S
C410 H400 0.950 . S
C410 C411 1.386 . S
C410 C412 1.391 . S
C411 C410 1.386 . S
C411 C415 1.393 . S
C412 H401 0.950 . S
C412 C410 1.391 . S
C412 C413 1.400 . S
C413 C407 1.491 . S
C413 C412 1.400 . S
C413 C414 1.398 . S
C414 H402 0.950 . S
C414 C413 1.398 . S
C414 C415 1.391 . S
C415 H403 0.950 . S
C415 C411 1.393 . S
C415 C414 1.391 . S
H416 C424 0.950 . S
H417 C429 0.950 . S
H418 C426 0.950 . S
H419 C428 0.950 . S
H420 C430 0.950 . S
H421 C432 0.950 . S
H422 C434 0.950 . S
H423 C435 0.950 . S
C424 H416 0.950 . S
C424 C425 1.386 . S
C424 C426 1.391 . S
C425 C424 1.386 . S
C425 C429 1.393 . S
C426 H418 0.950 . S
C426 C424 1.391 . S
C426 C427 1.400 . S
C427 C426 1.400 . S
C427 C428 1.398 . S
C427 C433 1.491 . S
C428 H419 0.950 . S
C428 C427 1.398 . S
C428 C429 1.391 . S
C429 H417 0.950 . S
C429 C425 1.393 . S
C429 C428 1.391 . S
C430 H420 0.950 . S
C430 C431 1.386 . S
C430 C432 1.391 . S
C431 C430 1.386 . S
C431 C435 1.393 . S
C432 H421 0.950 . S
C432 C430 1.391 . S
C432 C433 1.400 . S
C433 C427 1.491 . S
C433 C432 1.400 . S
C433 C434 1.398 . S
C434 H422 0.950 . S
C434 C433 1.398 . S
C434 C435 1.391 . S
C435 H423 0.950 . S
C435 C431 1.393 . S
C435 C434 1.391 . S
H436 C444 0.950 . S
H437 C449 0.950 . S
H438 C446 0.950 . S
H439 C448 0.950 . S
H440 C450 0.950 . S
H441 C452 0.950 . S
H442 C454 0.950 . S
H443 C455 0.950 . S
C444 H436 0.950 . S
C444 C445 1.386 . S
C444 C446 1.391 . S
C445 C444 1.386 . S
C445 C449 1.393 . S
C446 H438 0.950 . S
C446 C444 1.391 . S
C446 C447 1.400 . S
C447 C446 1.400 . S
C447 C448 1.398 . S
C447 C453 1.491 . S
C448 H439 0.950 . S
C448 C447 1.398 . S
C448 C449 1.391 . S
C449 H437 0.950 . S
C449 C445 1.393 . S
C449 C448 1.391 . S
C450 H440 0.950 . S
C450 C451 1.386 . S
C450 C452 1.391 . S
C451 C450 1.386 . S
C451 C455 1.393 . S
C452 H441 0.950 . S
C452 C450 1.391 . S
C452 C453 1.400 . S
C453 C447 1.491 . S
C453 C452 1.400 . S
C453 C454 1.398 . S
C454 H442 0.950 . S
C454 C453 1.398 . S
C454 C455 1.391 . S
C455 H443 0.950 . S
C455 C451 1.393 . S
C455 C454 1.391 . S
H456 C464 0.950 . S
H457 C469 0.950 . S
H458 C466 0.950 . S
H459 C468 0.950 . S
H460 C470 0.950 . S
H461 C472 0.950 . S
H462 C474 0.950 . S
H463 C475 0.950 . S
C464 H456 0.950 . S
C464 C465 1.386 . S
C464 C466 1.391 . S
C465 C464 1.386 . S
C465 C469 1.393 . S
C466 H458 0.950 . S
C466 C464 1.391 . S
C466 C467 1.400 . S
C467 C466 1.400 . S
C467 C468 1.398 . S
C467 C473 1.491 . S
C468 H459 0.950 . S
C468 C467 1.398 . S
C468 C469 1.391 . S
C469 H457 0.950 . S
C469 C465 1.393 . S
C469 C468 1.391 . S
C470 H460 0.950 . S
C470 C471 1.386 . S
C470 C472 1.391 . S
C471 C470 1.386 . S
C471 C475 1.393 . S
C472 H461 0.950 . S
C472 C470 1.391 . S
C472 C473 1.400 . S
C473 C467 1.491 . S
C473 C472 1.400 . S
C473 C474 1.398 . S
C474 H462 0.950 . S
C474 C473 1.398 . S
C474 C475 1.391 . S
C475 H463 0.950 . S
C475 C471 1.393 . S
C475 C474 1.391 . S
H476 C484 0.950 . S
H477 C489 0.950 . S
H478 C486 0.950 . S
H479 C488 0.950 . S
H480 C490 0.950 . S
H481 C492 0.950 . S
H482 C494 0.950 . S
H483 C495 0.950 . S
C484 H476 0.950 . S
C484 C485 1.386 . S
C484 C486 1.391 . S
C485 C484 1.386 . S
C485 C489 1.393 . S
C486 H478 0.950 . S
C486 C484 1.391 . S
C486 C487 1.400 . S
C487 C486 1.400 . S
C487 C488 1.398 . S
C487 C493 1.491 . S
C488 H479 0.950 . S
C488 C487 1.398 . S
C488 C489 1.391 . S
C489 H477 0.950 . S
C489 C485 1.393 . S
C489 C488 1.391 . S
C490 H480 0.950 . S
C490 C491 1.386 . S
C490 C492 1.391 . S
C491 C490 1.386 . S
C491 C495 1.393 . S
C492 H481 0.950 . S
C492 C490 1.391 . S
C492 C493 1.400 . S
C493 C487 1.491 . S
C493 C492 1.400 . S
C493 C494 1.398 . S
C494 H482 0.950 . S
C494 C493 1.398 . S
C494 C495 1.391 . S
C495 H483 0.950 . S
C495 C491 1.393 . S
C495 C494 1.391 . S
H496 C504 0.950 . S
H497 C509 0.950 . S
H498 C506 0.950 . S
H499 C508 0.950 . S
H500 C510 0.950 . S
H501 C512 0.950 . S
H502 C514 0.950 . S
H503 C515 0.950 . S
C504 H496 0.950 . S
C504 C505 1.386 . S
C504 C506 1.391 . S
C505 C504 1.386 . S
C505 C509 1.393 . S
C506 H498 0.950 . S
C506 C504 1.391 . S
C506 C507 1.400 . S
C507 C506 1.400 . S
C507 C508 1.398 . S
C507 C513 1.491 . S
C508 H499 0.950 . S
C508 C507 1.398 . S
C508 C509 1.391 . S
C509 H497 0.950 . S
C509 C505 1.393 . S
C509 C508 1.391 . S
C510 H500 0.950 . S
C510 C511 1.386 . S
C510 C512 1.391 . S
C511 C510 1.386 . S
C511 C515 1.393 . S
C512 H501 0.950 . S
C512 C510 1.391 . S
C512 C513 1.400 . S
C513 C507 1.491 . S
C513 C512 1.400 . S
C513 C514 1.398 . S
C514 H502 0.950 . S
C514 C513 1.398 . S
C514 C515 1.391 . S
C515 H503 0.950 . S
C515 C511 1.393 . S
C515 C514 1.391 . S
H516 C524 0.950 . S
H517 C529 0.950 . S
H518 C526 0.950 . S
H519 C528 0.950 . S
H520 C530 0.950 . S
H521 C532 0.950 . S
H522 C534 0.950 . S
H523 C535 0.950 . S
C524 H516 0.950 . S
C524 C525 1.386 . S
C524 C526 1.391 . S
C525 C524 1.386 . S
C525 C529 1.393 . S
C526 H518 0.950 . S
C526 C524 1.391 . S
C526 C527 1.400 . S
C527 C526 1.400 . S
C527 C528 1.398 . S
C527 C533 1.491 . S
C528 H519 0.950 . S
C528 C527 1.398 . S
C528 C529 1.391 . S
C529 H517 0.950 . S
C529 C525 1.393 . S
C529 C528 1.391 . S
C530 H520 0.950 . S
C530 C531 1.386 . S
C530 C532 1.391 . S
C531 C530 1.386 . S
C531 C535 1.393 . S
C532 H521 0.950 . S
C532 C530 1.391 . S
C532 C533 1.400 . S
C533 C527 1.491 . S
C533 C532 1.400 . S
C533 C534 1.398 . S
C534 H522 0.950 . S
C534 C533 1.398 . S
C534 C535 1.391 . S
C535 H523 0.950 . S
C535 C531 1.393 . S
C535 C534 1.391 . S
H536 C544 0.950 . S
H537 C549 0.950 . S
H538 C546 0.950 . S
H539 C548 0.950 . S
H540 C550 0.950 . S
H541 C552 0.950 . S
H542 C554 0.950 . S
H543 C555 0.950 . S
C544 H536 0.950 . S
C544 C545 1.386 . S
C544 C546 1.391 . S
C545 C544 1.386 . S
C545 C549 1.393 . S
C546 H538 0.950 . S
C546 C544 1.391 . S
C546 C547 1.400 . S
C547 C546 1.400 . S
C547 C548 1.398 . S
C547 C553 1.491 . S
C548 H539 0.950 . S
C548 C547 1.398 . S
C548 C549 1.391 . S
C549 H537 0.950 . S
C549 C545 1.393 . S
C549 C548 1.391 . S
C550 H540 0.950 . S
C550 C551 1.386 . S
C550 C552 1.391 . S
C551 C550 1.386 . S
C551 C555 1.393 . S
C552 H541 0.950 . S
C552 C550 1.391 . S
C552 C553 1.400 . S
C553 C547 1.491 . S
C553 C552 1.400 . S
C553 C554 1.398 . S
C554 H542 0.950 . S
C554 C553 1.398 . S
C554 C555 1.391 . S
C555 H543 0.950 . S
C555 C551 1.393 . S
C555 C554 1.391 . S
H556 C564 0.950 . S
H557 C569 0.950 . S
H558 C566 0.950 . S
H559 C568 0.950 . S
H560 C570 0.950 . S
H561 C572 0.950 . S
H562 C574 0.950 . S
H563 C575 0.950 . S
C564 H556 0.950 . S
C564 C565 1.386 . S
C564 C566 1.391 . S
C565 C564 1.386 . S
C565 C569 1.393 . S
C566 H558 0.950 . S
C566 C564 1.391 . S
C566 C567 1.400 . S
C567 C566 1.400 . S
C567 C568 1.398 . S
C567 C573 1.491 . S
C568 H559 0.950 . S
C568 C567 1.398 . S
C568 C569 1.391 . S
C569 H557 0.950 . S
C569 C565 1.393 . S
C569 C568 1.391 . S
C570 H560 0.950 . S
C570 C571 1.386 . S
C570 C572 1.391 . S
C571 C570 1.386 . S
C571 C575 1.393 . S
C572 H561 0.950 . S
C572 C570 1.391 . S
C572 C573 1.400 . S
C573 C567 1.491 . S
C573 C572 1.400 . S
C573 C574 1.398 . S
C574 H562 0.950 . S
C574 C573 1.398 . S
C574 C575 1.391 . S
C575 H563 0.950 . S
C575 C571 1.393 . S
C575 C574 1.391 . S
H576 C584 0.950 . S
H577 C589 0.950 . S
H578 C586 0.950 . S
H579 C588 0.950 . S
H580 C590 0.950 1_655 S
H581 C592 0.951 1_655 S
H582 C594 0.950 . S
H583 C595 0.950 . S
C584 H576 0.950 . S
C584 C585 1.386 . S
C584 C586 1.391 . S
C585 C584 1.386 . S
C585 C589 1.393 1_455 S
C586 H578 0.950 . S
C586 C584 1.391 . S
C586 C587 1.400 . S
C587 C586 1.400 . S
C587 C588 1.398 1_455 S
C587 C593 1.491 . S
C588 H579 0.950 . S
C588 C587 1.398 1_655 S
C588 C589 1.391 . S
C589 H577 0.950 . S
C589 C585 1.393 1_655 S
C589 C588 1.391 . S
C590 H580 0.950 1_455 S
C590 C591 1.386 . S
C590 C592 1.391 . S
C591 C590 1.386 . S
C591 C595 1.393 . S
C592 H581 0.951 1_455 S
C592 C590 1.391 . S
C592 C593 1.400 . S
C593 C587 1.491 . S
C593 C592 1.400 . S
C593 C594 1.398 . S
C594 H582 0.950 . S
C594 C593 1.398 . S
C594 C595 1.391 . S
C595 H583 0.950 . S
C595 C591 1.393 . S
C595 C594 1.391 . S
H596 C604 0.950 . S
H597 C609 0.950 . S
H598 C606 0.950 . S
H599 C608 0.950 . S
H600 C610 0.950 . S
H601 C612 0.950 . S
H602 C614 0.950 . S
H603 C615 0.950 . S
C604 H596 0.950 . S
C604 C605 1.386 . S
C604 C606 1.391 . S
C605 C604 1.386 . S
C605 C609 1.393 . S
C606 H598 0.950 . S
C606 C604 1.391 . S
C606 C607 1.400 . S
C607 C606 1.400 . S
C607 C608 1.398 . S
C607 C613 1.491 . S
C608 H599 0.950 . S
C608 C607 1.398 . S
C608 C609 1.391 . S
C609 H597 0.950 . S
C609 C605 1.393 . S
C609 C608 1.391 . S
C610 H600 0.950 . S
C610 C611 1.386 . S
C610 C612 1.391 . S
C611 C610 1.386 . S
C611 C615 1.393 . S
C612 H601 0.950 . S
C612 C610 1.391 . S
C612 C613 1.400 . S
C613 C607 1.491 . S
C613 C612 1.400 . S
C613 C614 1.398 . S
C614 H602 0.950 . S
C614 C613 1.398 . S
C614 C615 1.391 . S
C615 H603 0.950 . S
C615 C611 1.393 . S
C615 C614 1.391 . S
H616 C624 0.950 . S
H617 C629 0.950 . S
H618 C626 0.950 . S
H619 C628 0.950 . S
H620 C630 0.950 . S
H621 C632 0.950 . S
H622 C634 0.950 . S
H623 C635 0.950 . S
C624 H616 0.950 . S
C624 C625 1.386 . S
C624 C626 1.391 . S
C625 C624 1.386 . S
C625 C629 1.393 . S
C626 H618 0.950 . S
C626 C624 1.391 . S
C626 C627 1.400 . S
C627 C626 1.400 . S
C627 C628 1.398 . S
C627 C633 1.491 . S
C628 H619 0.950 . S
C628 C627 1.398 . S
C628 C629 1.391 . S
C629 H617 0.950 . S
C629 C625 1.393 . S
C629 C628 1.391 . S
C630 H620 0.950 . S
C630 C631 1.386 . S
C630 C632 1.391 . S
C631 C630 1.386 . S
C631 C635 1.393 . S
C632 H621 0.950 . S
C632 C630 1.391 . S
C632 C633 1.400 . S
C633 C627 1.491 . S
C633 C632 1.400 . S
C633 C634 1.398 . S
C634 H622 0.950 . S
C634 C633 1.398 . S
C634 C635 1.391 . S
C635 H623 0.950 . S
C635 C631 1.393 . S
C635 C634 1.391 . S
H636 C644 0.950 . S
H637 C649 0.950 . S
H638 C646 0.950 . S
H639 C648 0.950 . S
H640 C650 0.950 . S
H641 C652 0.950 . S
H642 C654 0.950 . S
H643 C655 0.950 . S
C644 H636 0.950 . S
C644 C645 1.386 1_565 S
C644 C646 1.391 . S
C645 C644 1.386 1_545 S
C645 C649 1.393 . S
C646 H638 0.950 . S
C646 C644 1.391 . S
C646 C647 1.400 1_565 S
C647 C646 1.400 1_545 S
C647 C648 1.398 . S
C647 C653 1.491 . S
C648 H639 0.950 . S
C648 C647 1.398 . S
C648 C649 1.391 . S
C649 H637 0.950 . S
C649 C645 1.393 . S
C649 C648 1.391 . S
C650 H640 0.950 . S
C650 C651 1.386 . S
C650 C652 1.391 . S
C651 C650 1.386 . S
C651 C655 1.393 1_545 S
C652 H641 0.950 . S
C652 C650 1.391 . S
C652 C653 1.400 . S
C653 C647 1.491 . S
C653 C652 1.400 . S
C653 C654 1.398 1_545 S
C654 H642 0.950 . S
C654 C653 1.398 1_565 S
C654 C655 1.391 . S
C655 H643 0.950 . S
C655 C651 1.393 1_565 S
C655 C654 1.391 . S
H656 C664 0.950 . S
H657 C669 0.950 . S
H658 C666 0.950 . S
H659 C668 0.950 . S
H660 C670 0.950 . S
H661 C672 0.950 . S
H662 C674 0.950 . S
H663 C675 0.950 . S
C664 H656 0.950 . S
C664 C665 1.386 . S
C664 C666 1.391 . S
C665 C664 1.386 . S
C665 C669 1.393 . S
C666 H658 0.950 . S
C666 C664 1.391 . S
C666 C667 1.400 . S
C667 C666 1.400 . S
C667 C668 1.398 . S
C667 C673 1.491 . S
C668 H659 0.950 . S
C668 C667 1.398 . S
C668 C669 1.391 . S
C669 H657 0.950 . S
C669 C665 1.393 . S
C669 C668 1.391 . S
C670 H660 0.950 . S
C670 C671 1.386 . S
C670 C672 1.391 . S
C671 C670 1.386 . S
C671 C675 1.393 . S
C672 H661 0.950 . S
C672 C670 1.391 . S
C672 C673 1.400 . S
C673 C667 1.491 . S
C673 C672 1.400 . S
C673 C674 1.398 . S
C674 H662 0.950 . S
C674 C673 1.398 . S
C674 C675 1.391 . S
C675 H663 0.950 . S
C675 C671 1.393 . S
C675 C674 1.391 . S
H676 C684 0.950 . S
H677 C689 0.950 . S
H678 C686 0.950 . S
H679 C688 0.950 . S
H680 C690 0.950 . S
H681 C692 0.950 . S
H682 C694 0.950 . S
H683 C695 0.950 . S
C684 H676 0.950 . S
C684 C685 1.386 . S
C684 C686 1.391 . S
C685 C684 1.386 . S
C685 C689 1.393 1_455 S
C686 H678 0.950 . S
C686 C684 1.391 . S
C686 C687 1.400 . S
C687 C686 1.400 . S
C687 C688 1.398 1_455 S
C687 C693 1.491 1_455 S
C688 H679 0.950 . S
C688 C687 1.398 1_655 S
C688 C689 1.391 . S
C689 H677 0.950 . S
C689 C685 1.393 1_655 S
C689 C688 1.391 . S
C690 H680 0.950 . S
C690 C691 1.386 . S
C690 C692 1.391 . S
C691 C690 1.386 . S
C691 C695 1.393 1_655 S
C692 H681 0.950 . S
C692 C690 1.391 . S
C692 C693 1.400 . S
C693 C687 1.491 1_655 S
C693 C692 1.400 . S
C693 C694 1.398 1_655 S
C694 H682 0.950 . S
C694 C693 1.398 1_455 S
C694 C695 1.391 . S
C695 H683 0.950 . S
C695 C691 1.393 1_455 S
C695 C694 1.391 . S
C345 C24 2.935 . S
C351 C325 2.862 . S
C365 C66 1.115 . S
C371 C253 1.133 . S
C385 C93 1.837 . S
C391 C289 1.755 . S
C405 C13 3.081 . S
C411 C301 3.030 . S
C431 C229 1.277 . S
C425 C57 1.294 . S
C451 C265 1.932 . S
C445 C104 1.973 . S
C465 C64 1.952 . S
C471 C181 1.866 . S
C485 C97 0.497 . S
C491 C193 0.501 . S
C505 C17 1.278 . S
C511 C121 1.304 . S
C531 C157 1.801 . S
C525 C53 1.847 . S
C551 C217 0.295 . S
C545 C106 0.351 . S
C565 C26 1.154 . S
C571 C145 1.147 . S
C591 C223 1.073 1_554 S
C585 C2 1.065 . S
C605 C63 1.461 . S
C611 C151 1.491 . S
C625 C82 1.370 . S
C631 C187 1.386 . S
C651 C295 1.403 . S
C645 C42 1.376 . S
C671 C331 1.781 1_556 S
C665 C103 1.751 . S
C685 C23 1.466 . S
C691 C259 1.502 . S
