# Generated by pormake.
# Topology anh, (6,3)-cn, num edge types: 1
# Building blocks:
#     Node 0, Type 0, BuildingBlock: VOLQOD_clean_sbu_1, # of connection points: 6
#     Node 1, Type 0, BuildingBlock: VOLQOD_clean_sbu_1, # of connection points: 6
#     Node 2, Type 0, BuildingBlock: VOLQOD_clean_sbu_1, # of connection points: 6
#     Node 3, Type 1, BuildingBlock: CUQRIR_clean_linker_1, # of connection points: 3
#     Node 4, Type 1, BuildingBlock: CUQRIR_clean_linker_1, # of connection points: 3
#     Node 5, Type 1, BuildingBlock: CUQRIR_clean_linker_1, # of connection points: 3
#     Node 6, Type 1, BuildingBlock: CUQRIR_clean_linker_1, # of connection points: 3
#     Node 7, Type 1, BuildingBlock: CUQRIR_clean_linker_1, # of connection points: 3
#     Node 8, Type 1, BuildingBlock: CUQRIR_clean_linker_1, # of connection points: 3
#     Edge 9, Type (0, 1), BuildingBlock: OJICUG_clean_linker_0, # of connection points: 2
#     Edge 10, Type (0, 1), BuildingBlock: OJICUG_clean_linker_0, # of connection points: 2
#     Edge 11, Type (0, 1), BuildingBlock: OJICUG_clean_linker_0, # of connection points: 2
#     Edge 12, Type (0, 1), BuildingBlock: OJICUG_clean_linker_0, # of connection points: 2
#     Edge 13, Type (0, 1), BuildingBlock: OJICUG_clean_linker_0, # of connection points: 2
#     Edge 14, Type (0, 1), BuildingBlock: OJICUG_clean_linker_0, # of connection points: 2
#     Edge 15, Type (0, 1), BuildingBlock: OJICUG_clean_linker_0, # of connection points: 2
#     Edge 16, Type (0, 1), BuildingBlock: OJICUG_clean_linker_0, # of connection points: 2
#     Edge 17, Type (0, 1), BuildingBlock: OJICUG_clean_linker_0, # of connection points: 2
#     Edge 18, Type (0, 1), BuildingBlock: OJICUG_clean_linker_0, # of connection points: 2
#     Edge 19, Type (0, 1), BuildingBlock: OJICUG_clean_linker_0, # of connection points: 2
#     Edge 20, Type (0, 1), BuildingBlock: OJICUG_clean_linker_0, # of connection points: 2
#     Edge 21, Type (0, 1), BuildingBlock: OJICUG_clean_linker_0, # of connection points: 2
#     Edge 22, Type (0, 1), BuildingBlock: OJICUG_clean_linker_0, # of connection points: 2
#     Edge 23, Type (0, 1), BuildingBlock: OJICUG_clean_linker_0, # of connection points: 2
#     Edge 24, Type (0, 1), BuildingBlock: OJICUG_clean_linker_0, # of connection points: 2
#     Edge 25, Type (0, 1), BuildingBlock: OJICUG_clean_linker_0, # of connection points: 2
#     Edge 26, Type (0, 1), BuildingBlock: OJICUG_clean_linker_0, # of connection points: 2
# Relax obj value: 0.190
# Max RMSD: 0.220
# Mean RMSD: 0.168
data_MOF--net-anh--node1-VOLQOD_clean_sbu_1--node2-CUQRIR_clean_linker_1--edge1-OJICUG_clean_linker_0
_symmetry_space_group_name_H-M    P1
_symmetry_Int_Tables_number       1
_symmetry_cell_setting            triclinic
loop_
_symmetry_equiv_pos_as_xyz
'x, y, z'
_cell_length_a     19.922509
_cell_length_b     19.92277
_cell_length_c     37.74967
_cell_angle_alpha  82.28353
_cell_angle_beta   90.400174
_cell_angle_gamma 120.79086
loop_
_atom_site_label
_atom_site_type_symbol
_atom_site_fract_x
_atom_site_fract_y
_atom_site_fract_z
_atom_type_partial_charge
O0 O 0.97165 0.51757 0.24927 0.0
Zn1 Zn -0.01136 0.54517 0.19496 0.0
O2 O 0.00907 0.4711 0.17486 0.0
Zn3 Zn 0.93179 0.4123 0.14238 0.0
Zn4 Zn 0.01094 0.39796 0.21396 0.0
Zn5 Zn 0.10717 0.5277 0.14721 0.0
O6 O -0.0221 0.42577 0.09179 0.0
O7 O 0.09539 0.53115 0.09442 0.0
O8 O 0.89492 0.5454 0.17285 0.0
O9 O 0.86166 0.45638 0.13614 0.0
O10 O 0.85979 0.29887 0.16554 0.0
O11 O 0.90691 0.29706 0.21912 0.0
O12 O 0.10184 0.38075 0.20649 0.0
O13 O 0.08589 0.65527 0.1877 0.0
O14 O 0.1686 0.47678 0.16062 0.0
O15 O 0.16955 0.63651 0.15837 0.0
C16 C -0.00559 0.48016 0.27138 0.0
C17 C 0.04277 0.48296 0.07639 0.0
C18 C 0.85455 0.26482 0.19739 0.0
C19 C 0.85139 0.50634 0.14927 0.0
C20 C 0.16095 0.42042 0.1838 0.0
C21 C 0.15458 0.68036 0.1741 0.0
O22 O 0.01899 0.43791 0.2608 0.0
O23 O 0.51986 0.07228 0.42883 0.0
Zn24 Zn 0.48437 0.05941 0.48047 0.0
O25 O 0.55507 0.04318 0.51118 0.0
Zn26 Zn 0.61691 0.12986 0.53672 0.0
Zn27 Zn 0.62505 0.02557 0.48303 0.0
Zn28 Zn 0.49175 0.95692 0.54811 0.0
O29 O 0.61012 0.09804 0.59052 0.0
O30 O 0.49313 -0.01147 0.59663 0.0
O31 O 0.48013 0.15457 0.49109 0.0
O32 O 0.57534 0.20139 0.52863 0.0
O33 O 0.72699 0.19498 0.51567 0.0
O34 O 0.73335 0.12641 0.4753 0.0
O35 O 0.62569 0.92716 0.50815 0.0
O36 O 0.37595 0.96074 0.48597 0.0
O37 O 0.53567 0.88871 0.55294 0.0
O38 O 0.38319 0.88794 0.53392 0.0
C39 C 0.55385 0.04236 0.41408 0.0
C40 C 0.55068 0.04289 0.61026 0.0
C41 C 0.76414 0.18787 0.49065 0.0
C42 C 0.52299 0.20576 0.51082 0.0
C43 C 0.58509 0.87978 0.5364 0.0
C44 C 0.34572 0.89662 0.50807 0.0
O45 O 0.5888 0.01236 0.43251 0.0
O46 O 0.47984 0.54417 0.76937 0.0
Zn47 Zn 0.46809 0.51785 0.8239 0.0
O48 O 0.56434 0.59445 0.84397 0.0
Zn49 Zn 0.54564 0.65059 0.8772 0.0
Zn50 Zn 0.63992 0.67173 0.80551 0.0
Zn51 Zn 0.60763 0.53918 0.871 0.0
O52 O 0.5797 0.63682 0.92749 0.0
O53 O 0.59587 0.53579 0.9238 0.0
O54 O 0.37321 0.51752 0.84518 0.0
O55 O 0.43029 0.6044 0.88299 0.0
O56 O 0.5868 0.7646 0.8558 0.0
O57 O 0.63518 0.77144 0.80159 0.0
O58 O 0.7502 0.69082 0.81278 0.0
O59 O 0.45399 0.40746 0.83231 0.0
O60 O 0.72036 0.59157 0.85691 0.0
O61 O 0.55968 0.42989 0.86065 0.0
C62 C 0.54047 0.5859 0.74749 0.0
C63 C 0.59052 0.58194 0.94227 0.0
C64 C 0.61486 0.80103 0.82419 0.0
C65 C 0.36919 0.55532 0.86916 0.0
C66 C 0.7697 0.64978 0.83445 0.0
C67 C 0.49879 0.38406 0.84583 0.0
O68 O 0.60707 0.63263 0.75833 0.0
C69 C 0.48981 -0.01119 0.21161 0.0
N70 N 0.53873 0.02194 0.23745 0.0
N71 N 0.41593 0.93704 0.22607 0.0
C72 C 0.51192 0.01312 0.17192 0.0
C73 C 0.42137 0.94046 0.26164 0.0
N74 N 0.49562 -0.00714 0.2685 0.0
C75 C 0.35584 0.88803 0.29006 0.0
H76 H 0.46018 0.0025 0.15686 0.0
H77 H 0.53519 0.97793 0.16265 0.0
H78 H 0.55787 0.07665 0.16577 0.0
H79 H 0.3788 0.88167 0.31637 0.0
H80 H 0.31797 0.82848 0.28248 0.0
H81 H 0.31943 0.91468 0.29294 0.0
C82 C 0.54303 0.53361 0.54485 0.0
N83 N 0.55143 0.57624 0.57139 0.0
N84 N 0.51655 0.45741 0.55857 0.0
C85 C 0.55421 0.56417 0.50534 0.0
C86 C 0.5091 0.45478 0.59441 0.0
N87 N 0.52885 0.52674 0.60223 0.0
C88 C 0.48975 0.38387 0.62178 0.0
H89 H 0.52131 0.51513 0.48961 0.0
H90 H 0.61734 0.59457 0.49656 0.0
H91 H 0.53437 0.6071 0.49954 0.0
H92 H 0.51705 0.40191 0.6472 0.0
H93 H 0.50993 0.34694 0.61161 0.0
H94 H 0.42526 0.3473 0.62746 0.0
C95 C 0.06988 0.60017 0.86776 0.0
N96 N 0.09497 0.56983 0.89548 0.0
N97 N 0.01587 0.61548 0.87972 0.0
C98 C 0.10216 0.62045 0.82942 0.0
C99 C 0.00814 0.5924 0.9156 0.0
N100 N 0.0567 0.56558 0.92523 0.0
C101 C 0.95141 0.59398 0.94117 0.0
H102 H 0.09151 0.66535 0.81417 0.0
H103 H 0.07288 0.56622 0.81665 0.0
H104 H 0.16601 0.64311 0.82803 0.0
H105 H 0.93712 0.55129 0.96607 0.0
H106 H 0.89639 0.58029 0.92837 0.0
H107 H -0.0217 0.6541 0.94858 0.0
C108 C 0.04911 0.54967 0.47227 0.0
N109 N 0.01484 0.50187 0.4471 0.0
N110 N 0.09979 0.62507 0.45665 0.0
C111 C 0.02719 0.52478 0.51193 0.0
C112 C 0.09473 0.62151 0.42105 0.0
N113 N 0.04213 0.5472 0.41527 0.0
C114 C 0.14687 0.6885 0.39193 0.0
H115 H 0.03828 0.57574 0.5251 0.0
H116 H 0.06299 0.50081 0.52401 0.0
H117 H 0.96446 0.47801 0.51719 0.0
H118 H 0.15503 0.66604 0.36796 0.0
H119 H 0.20523 0.72761 0.40147 0.0
H120 H 0.11936 0.72403 0.3839 0.0
C121 C 0.52001 0.07182 0.81431 0.0
N122 N 0.53747 0.04014 0.78873 0.0
N123 N 0.49958 0.12406 0.79933 0.0
C124 C 0.51551 0.04657 0.85406 0.0
C125 C 0.50492 0.12288 0.76371 0.0
N126 N 0.52684 0.0714 0.75734 0.0
C127 C 0.49422 0.17611 0.7349 0.0
H128 H 0.47301 0.05576 0.86832 0.0
H129 H 0.57389 0.08246 0.8643 0.0
H130 H 0.49772 0.98334 0.86008 0.0
H131 H 0.5237 0.18244 0.70881 0.0
H132 H 0.51776 0.23564 0.74257 0.0
H133 H 0.43074 0.15033 0.73146 0.0
C134 C 0.50847 0.46412 0.15068 0.0
N135 N 0.56322 0.49374 0.12276 0.0
N136 N 0.43833 0.44868 0.13896 0.0
C137 C 0.52194 0.44529 0.18904 0.0
C138 C 0.45246 0.47102 0.10305 0.0
N139 N 0.52797 0.49747 0.09316 0.0
C140 C 0.3929 0.46923 0.07776 0.0
H141 H 0.46596 0.4014 0.20474 0.0
H142 H 0.54961 0.5003 0.20124 0.0
H143 H 0.56211 0.422 0.19052 0.0
H144 H 0.35401 0.48527 0.09044 0.0
H145 H 0.35615 0.40838 0.07139 0.0
H146 H 0.42102 0.50998 0.0523 0.0
C147 C 0.29691 0.46271 0.19619 0.0
C148 C 0.22581 0.40598 0.18441 0.0
H149 H 0.42209 0.52046 0.19059 0.0
C150 C 0.22508 0.35303 0.16324 0.0
H151 H 0.29857 0.5052 0.21189 0.0
C152 C 0.29568 0.36198 0.15104 0.0
C153 C 0.36728 0.42442 0.15962 0.0
H154 H 0.17091 0.31009 0.15326 0.0
H155 H 0.29486 0.32467 0.13246 0.0
C156 C 0.36737 0.47171 0.18394 0.0
C157 C 0.82551 0.31061 0.44702 0.0
C158 C 0.83476 0.26052 0.47389 0.0
H159 H 0.87524 0.42789 0.41814 0.0
C160 C 0.90675 0.28848 0.48927 0.0
H161 H 0.76957 0.29062 0.43551 0.0
C162 C 0.96786 0.36656 0.47867 0.0
C163 C 0.95682 0.41843 0.45353 0.0
H164 H 0.91448 0.25123 0.51051 0.0
H165 H 0.02265 0.38763 0.49127 0.0
C166 C 0.88581 0.38905 0.43709 0.0
C167 C 0.64178 0.93736 0.82723 0.0
C168 C 0.60552 0.86864 0.81129 0.0
H169 H 0.6519 0.04872 0.83054 0.0
C170 C 0.55084 0.85963 0.78585 0.0
H171 H 0.68373 0.94517 0.84708 0.0
C172 C 0.52962 0.91657 0.77782 0.0
C173 C 0.56446 -0.0152 0.79426 0.0
H174 H 0.52094 0.80613 0.77379 0.0
H175 H 0.48327 0.90519 0.76014 0.0
C176 C 0.62273 -0.00418 0.81813 0.0
C177 C 0.76368 0.56198 0.15404 0.0
C178 C 0.78322 0.51331 0.13851 0.0
H179 H 0.67755 0.59478 0.16031 0.0
C180 C 0.73297 0.46551 0.11435 0.0
H181 H 0.80105 0.59964 0.17264 0.0
C182 C 0.6627 0.46256 0.10769 0.0
C183 C 0.64153 0.50814 0.12447 0.0
H184 H 0.74587 0.42718 0.10181 0.0
H185 H 0.6227 0.42085 0.09121 0.0
C186 C 0.69332 0.55939 0.14701 0.0
C187 C 0.2582 0.75018 0.51319 0.0
C188 C 0.2728 0.82627 0.49985 0.0
H189 H 0.19342 0.62699 0.50882 0.0
C190 C 0.22353 0.83381 0.47486 0.0
H191 H 0.29539 0.74211 0.53221 0.0
C192 C 0.16353 0.76703 0.46222 0.0
C193 C 0.15301 0.69191 0.47363 0.0
H194 H 0.23307 0.89151 0.46416 0.0
H195 H 0.12721 0.77435 0.44248 0.0
C196 C 0.1996 0.68395 0.4999 0.0
C197 C 0.54471 0.288 0.85073 0.0
C198 C 0.48799 0.30715 0.83981 0.0
H199 H 0.59378 0.21604 0.84545 0.0
C200 C 0.42843 0.25768 0.81924 0.0
H201 H 0.59141 0.32434 0.8667 0.0
C202 C 0.42906 0.19389 0.80782 0.0
C203 C 0.48973 0.17933 0.81635 0.0
H204 H 0.38364 0.27038 0.81054 0.0
H205 H 0.38425 0.15807 0.791 0.0
C206 C 0.54595 0.22539 0.83883 0.0
C207 C 0.64017 0.79091 0.53417 0.0
C208 C 0.5859 0.80654 0.54877 0.0
H209 H 0.67349 0.70471 0.53153 0.0
C210 C 0.52603 0.74773 0.57405 0.0
H211 H 0.68723 0.83508 0.51496 0.0
C212 C 0.51704 0.67346 0.5825 0.0
C213 C 0.56867 0.65647 0.56672 0.0
H214 H 0.48291 0.7572 0.58605 0.0
H215 H 0.46708 0.62795 0.59996 0.0
C216 C 0.6321 0.71649 0.54349 0.0
C217 C 0.9025 0.71482 0.85615 0.0
C218 C 0.84966 0.66464 0.83369 0.0
H219 H -0.0003 0.73899 0.88813 0.0
C220 C 0.86263 0.60875 0.82109 0.0
H221 H 0.89235 0.75694 0.86685 0.0
C222 C 0.92271 0.5975 0.83376 0.0
C223 C 0.97022 0.6418 0.85927 0.0
H224 H 0.82125 0.56815 0.80445 0.0
H225 H 0.92721 0.54922 0.82634 0.0
C226 C 0.96289 0.70374 0.86871 0.0
C227 C 0.29819 0.77481 0.1729 0.0
C228 C 0.22142 0.75614 0.18174 0.0
H229 H 0.41956 0.84503 0.18138 0.0
C230 C 0.21051 0.80432 0.20218 0.0
H231 H 0.30914 0.7392 0.15724 0.0
C232 C 0.27493 0.86678 0.21528 0.0
C233 C 0.35076 0.88108 0.20857 0.0
H234 H 0.15222 0.79173 0.20937 0.0
H235 H 0.26536 0.90202 0.23175 0.0
C236 C 0.36187 0.83587 0.18653 0.0
C237 C 0.58061 0.34869 0.50902 0.0
C238 C 0.51362 0.27272 0.51424 0.0
H239 H 0.63321 0.46789 0.51923 0.0
C240 C 0.44408 0.26035 0.53021 0.0
H241 H 0.63507 0.35889 0.49717 0.0
C242 C 0.44357 0.32252 0.54333 0.0
C243 C 0.51225 0.39721 0.54011 0.0
H244 H 0.39236 0.20166 0.53505 0.0
H245 H 0.39111 0.31166 0.55754 0.0
C246 C 0.57973 0.41068 0.52165 0.0
C247 C 0.2928 0.59497 0.90442 0.0
C248 C 0.29394 0.54856 0.8796 0.0
H249 H 0.22915 0.63936 0.92804 0.0
C250 C 0.22473 0.50197 0.86321 0.0
H251 H 0.34477 0.63177 0.91765 0.0
C252 C 0.15742 0.50515 0.87017 0.0
C253 C 0.15831 0.55503 0.89346 0.0
H254 H 0.22338 0.46548 0.84406 0.0
H255 H 0.10553 0.47121 0.85629 0.0
C256 C 0.22605 0.59862 0.91097 0.0
C257 C 0.73305 0.2079 0.23631 0.0
C258 C 0.77824 0.19699 0.21189 0.0
H259 H 0.61973 0.16118 0.26273 0.0
C260 C 0.74627 0.1249 0.19895 0.0
H261 H 0.75675 0.26382 0.24622 0.0
C262 C 0.66903 0.06505 0.20965 0.0
C263 C 0.62177 0.0779 0.23206 0.0
H264 H 0.78035 0.11557 0.18009 0.0
H265 H 0.645 0.00974 0.19926 0.0
C266 C 0.65502 0.14916 0.24598 0.0
C267 C 0.00755 0.44197 0.01529 0.0
C268 C 0.05479 0.49937 0.03667 0.0
H269 H 0.97372 0.41841 0.96197 0.0
C270 C 0.11019 0.57604 0.01969 0.0
H271 H 0.96425 0.3825 0.02751 0.0
C272 C 0.11448 0.59625 0.98257 0.0
C273 C 0.06576 0.53978 0.96142 0.0
H274 H 0.14702 0.62205 0.03525 0.0
H275 H 0.15273 0.65721 0.97049 0.0
C276 C 0.01344 0.46203 0.97789 0.0
C277 C 0.58317 0.00513 0.35723 0.0
C278 C 0.54765 0.03812 0.37508 0.0
H279 H 0.59491 0.96581 0.3084 0.0
C280 C 0.50178 0.0632 0.3557 0.0
H281 H 0.61911 -0.0145 0.37127 0.0
C282 C 0.4883 0.05174 0.32011 0.0
C283 C 0.52087 0.01582 0.30292 0.0
H284 H 0.47374 0.08916 0.36834 0.0
H285 H 0.45004 0.06836 0.30617 0.0
C286 C 0.56994 -0.00576 0.32132 0.0
C287 C 0.60115 0.62203 0.68449 0.0
C288 C 0.53498 0.57618 0.70903 0.0
H289 H 0.65065 0.64179 0.631 0.0
C290 C 0.46518 0.51772 0.69684 0.0
H291 H 0.65584 0.66781 0.69283 0.0
C292 C 0.46267 0.50332 0.66146 0.0
C293 C 0.52967 0.54699 0.63755 0.0
H294 H 0.41303 0.4815 0.71485 0.0
H295 H 0.40881 0.45693 0.65283 0.0
C296 C 0.5984 0.60758 0.64908 0.0
C297 C 0.61424 0.0908 0.66674 0.0
C298 C 0.54665 0.04366 0.64937 0.0
H299 H 0.66059 0.13457 0.71586 0.0
C300 C 0.474 -0.00053 0.66949 0.0
H301 H 0.67107 0.12531 0.65201 0.0
C302 C 0.4685 0.00551 0.70564 0.0
C303 C 0.53556 0.05394 0.7226 0.0
H304 H 0.42078 0.96284 0.65699 0.0
H305 H 0.41153 0.97454 0.72023 0.0
C306 C 0.60867 0.09556 0.70319 0.0
C307 C 0.5997 0.62218 1.00345 0.0
C308 C 0.58857 0.56549 0.98184 0.0
H309 H 0.59153 0.64459 0.05698 0.0
C310 C 0.56841 0.48934 0.99849 0.0
H311 H 0.61516 0.68125 0.99144 0.0
C312 C 0.55402 0.46865 0.03561 0.0
C313 C 0.56233 0.52425 0.057 0.0
H314 H 0.55858 0.44394 0.9827 0.0
H315 H 0.53166 0.40784 0.0475 0.0
C316 C 0.58719 0.60172 0.04082 0.0
C317 C -0.01904 0.5446 0.3214 0.0
C318 C -0.00241 0.49018 0.30973 0.0
H319 H -0.01819 0.60458 0.3647 0.0
C320 C 0.02228 0.44929 0.33466 0.0
H321 H 0.96157 0.57691 0.30309 0.0
C322 C 0.03355 0.46528 0.36992 0.0
C323 C 0.02056 0.52243 0.38078 0.0
H324 H 0.03523 0.40665 0.32669 0.0
H325 H 0.05548 0.43557 0.3883 0.0
C326 C -0.00748 0.56059 0.35656 0.0
loop_
_geom_bond_atom_site_label_1
_geom_bond_atom_site_label_2
_geom_bond_distance
_geom_bond_site_symmetry_2
_ccdc_geom_bond_type
O0 Zn1 1.953 1_655 S
O0 C16 1.225 1_655 S
Zn1 O0 1.953 1_455 S
Zn1 O2 1.949 . S
Zn1 O8 1.919 1_455 S
Zn1 O13 1.924 . S
O2 Zn1 1.949 . S
O2 Zn3 1.923 1_455 S
O2 Zn4 1.950 . S
O2 Zn5 1.945 . S
Zn3 O2 1.923 1_655 S
Zn3 O6 1.933 . S
Zn3 O9 1.941 . S
Zn3 O10 1.965 . S
Zn4 O2 1.950 . S
Zn4 O11 1.938 1_455 S
Zn4 O12 1.906 . S
Zn4 O22 1.953 . S
Zn5 O2 1.945 . S
Zn5 O7 1.932 . S
Zn5 O14 1.977 . S
Zn5 O15 1.910 . S
O6 Zn3 1.933 . S
O6 C17 1.226 1_655 S
O7 Zn5 1.932 . S
O7 C17 1.307 . S
O8 Zn1 1.919 1_655 S
O8 C19 1.253 . S
O9 Zn3 1.941 . S
O9 C19 1.283 . S
O10 Zn3 1.965 . S
O10 C18 1.303 . S
O11 Zn4 1.938 1_655 S
O11 C18 1.247 . S
O12 Zn4 1.906 . S
O12 C20 1.304 . S
O13 Zn1 1.924 . S
O13 C21 1.311 . S
O14 Zn5 1.977 . S
O14 C20 1.272 . S
O15 Zn5 1.910 . S
O15 C21 1.231 . S
C16 O0 1.225 1_455 S
C16 O22 1.298 . S
C17 O6 1.226 1_455 S
C17 O7 1.307 . S
C18 O10 1.303 . S
C18 O11 1.247 . S
C19 O8 1.253 . S
C19 O9 1.283 . S
C20 O12 1.304 . S
C20 O14 1.272 . S
C21 O13 1.311 . S
C21 O15 1.231 . S
O22 Zn4 1.953 . S
O22 C16 1.298 . S
O23 Zn24 1.953 . S
O23 C39 1.225 . S
Zn24 O23 1.953 . S
Zn24 O25 1.949 . S
Zn24 O31 1.919 . S
Zn24 O36 1.924 1_545 S
O25 Zn24 1.949 . S
O25 Zn26 1.923 . S
O25 Zn27 1.950 . S
O25 Zn28 1.945 1_545 S
Zn26 O25 1.923 . S
Zn26 O29 1.933 . S
Zn26 O32 1.941 . S
Zn26 O33 1.965 . S
Zn27 O25 1.950 . S
Zn27 O34 1.938 . S
Zn27 O35 1.906 1_545 S
Zn27 O45 1.953 . S
Zn28 O25 1.945 1_565 S
Zn28 O30 1.932 . S
Zn28 O37 1.977 . S
Zn28 O38 1.910 . S
O29 Zn26 1.933 . S
O29 C40 1.226 . S
O30 Zn28 1.932 . S
O30 C40 1.307 1_565 S
O31 Zn24 1.919 . S
O31 C42 1.253 . S
O32 Zn26 1.941 . S
O32 C42 1.283 . S
O33 Zn26 1.965 . S
O33 C41 1.303 . S
O34 Zn27 1.938 . S
O34 C41 1.247 . S
O35 Zn27 1.906 1_565 S
O35 C43 1.304 . S
O36 Zn24 1.924 1_565 S
O36 C44 1.311 . S
O37 Zn28 1.977 . S
O37 C43 1.272 . S
O38 Zn28 1.910 . S
O38 C44 1.231 . S
C39 O23 1.225 . S
C39 O45 1.298 . S
C40 O29 1.226 . S
C40 O30 1.307 1_545 S
C41 O33 1.303 . S
C41 O34 1.247 . S
C42 O31 1.253 . S
C42 O32 1.283 . S
C43 O35 1.304 . S
C43 O37 1.272 . S
C44 O36 1.311 . S
C44 O38 1.231 . S
O45 Zn27 1.953 . S
O45 C39 1.298 . S
O46 Zn47 1.953 . S
O46 C62 1.225 . S
Zn47 O46 1.953 . S
Zn47 O48 1.949 . S
Zn47 O54 1.919 . S
Zn47 O59 1.924 . S
O48 Zn47 1.949 . S
O48 Zn49 1.923 . S
O48 Zn50 1.950 . S
O48 Zn51 1.945 . S
Zn49 O48 1.923 . S
Zn49 O52 1.933 . S
Zn49 O55 1.941 . S
Zn49 O56 1.965 . S
Zn50 O48 1.950 . S
Zn50 O57 1.938 . S
Zn50 O58 1.906 . S
Zn50 O68 1.953 . S
Zn51 O48 1.945 . S
Zn51 O53 1.932 . S
Zn51 O60 1.977 . S
Zn51 O61 1.910 . S
O52 Zn49 1.933 . S
O52 C63 1.226 . S
O53 Zn51 1.932 . S
O53 C63 1.307 . S
O54 Zn47 1.919 . S
O54 C65 1.253 . S
O55 Zn49 1.941 . S
O55 C65 1.283 . S
O56 Zn49 1.965 . S
O56 C64 1.303 . S
O57 Zn50 1.938 . S
O57 C64 1.247 . S
O58 Zn50 1.906 . S
O58 C66 1.304 . S
O59 Zn47 1.924 . S
O59 C67 1.311 . S
O60 Zn51 1.977 . S
O60 C66 1.272 . S
O61 Zn51 1.910 . S
O61 C67 1.231 . S
C62 O46 1.225 . S
C62 O68 1.298 . S
C63 O52 1.226 . S
C63 O53 1.307 . S
C64 O56 1.303 . S
C64 O57 1.247 . S
C65 O54 1.253 . S
C65 O55 1.283 . S
C66 O58 1.304 . S
C66 O60 1.272 . S
C67 O59 1.311 . S
C67 O61 1.231 . S
O68 Zn50 1.953 . S
O68 C62 1.298 . S
C69 N70 1.317 . S
C69 N71 1.348 1_545 S
C69 C72 1.485 . S
N70 C69 1.317 . S
N70 N74 1.370 . S
N71 C69 1.348 1_565 S
N71 C73 1.346 . S
C72 C69 1.485 . S
C72 H76 0.960 . S
C72 H77 0.961 1_545 S
C72 H78 0.960 . S
C73 N71 1.346 . S
C73 N74 1.307 1_565 S
C73 C75 1.486 . S
N74 N70 1.370 . S
N74 C73 1.307 1_545 S
C75 C73 1.486 . S
C75 H79 0.960 . S
C75 H80 0.960 . S
C75 H81 0.959 . S
H76 C72 0.960 . S
H77 C72 0.961 1_565 S
H78 C72 0.960 . S
H79 C75 0.960 . S
H80 C75 0.960 . S
H81 C75 0.959 . S
C82 N83 1.317 . S
C82 N84 1.348 . S
C82 C85 1.485 . S
N83 C82 1.317 . S
N83 N87 1.370 . S
N84 C82 1.348 . S
N84 C86 1.346 . S
C85 C82 1.485 . S
C85 H89 0.960 . S
C85 H90 0.961 . S
C85 H91 0.960 . S
C86 N84 1.346 . S
C86 N87 1.307 . S
C86 C88 1.486 . S
N87 N83 1.370 . S
N87 C86 1.307 . S
C88 C86 1.486 . S
C88 H92 0.960 . S
C88 H93 0.960 . S
C88 H94 0.959 . S
H89 C85 0.960 . S
H90 C85 0.961 . S
H91 C85 0.960 . S
H92 C88 0.960 . S
H93 C88 0.960 . S
H94 C88 0.959 . S
C95 N96 1.317 . S
C95 N97 1.348 1_455 S
C95 C98 1.485 . S
N96 C95 1.317 . S
N96 N100 1.370 . S
N97 C95 1.348 1_655 S
N97 C99 1.346 . S
C98 C95 1.485 . S
C98 H102 0.960 . S
C98 H103 0.961 . S
C98 H104 0.960 . S
C99 N97 1.346 . S
C99 N100 1.307 1_655 S
C99 C101 1.486 . S
N100 N96 1.370 . S
N100 C99 1.307 1_455 S
C101 C99 1.486 . S
C101 H105 0.960 . S
C101 H106 0.960 . S
C101 H107 0.959 . S
H102 C98 0.960 . S
H103 C98 0.961 . S
H104 C98 0.960 . S
H105 C101 0.960 . S
H106 C101 0.960 . S
H107 C101 0.959 . S
C108 N109 1.317 . S
C108 N110 1.348 . S
C108 C111 1.485 . S
N109 C108 1.317 . S
N109 N113 1.370 . S
N110 C108 1.348 . S
N110 C112 1.346 . S
C111 C108 1.485 . S
C111 H115 0.960 . S
C111 H116 0.961 . S
C111 H117 0.960 . S
C112 N110 1.346 . S
C112 N113 1.307 . S
C112 C114 1.486 . S
N113 N109 1.370 . S
N113 C112 1.307 . S
C114 C112 1.486 . S
C114 H118 0.960 . S
C114 H119 0.960 . S
C114 H120 0.959 . S
H115 C111 0.960 . S
H116 C111 0.961 . S
H117 C111 0.960 . S
H118 C114 0.960 . S
H119 C114 0.960 . S
H120 C114 0.959 . S
C121 N122 1.317 . S
C121 N123 1.348 . S
C121 C124 1.485 . S
N122 C121 1.317 . S
N122 N126 1.370 . S
N123 C121 1.348 . S
N123 C125 1.346 . S
C124 C121 1.485 . S
C124 H128 0.960 . S
C124 H129 0.961 . S
C124 H130 0.960 . S
C125 N123 1.346 . S
C125 N126 1.307 . S
C125 C127 1.486 . S
N126 N122 1.370 . S
N126 C125 1.307 . S
C127 C125 1.486 . S
C127 H131 0.960 . S
C127 H132 0.960 . S
C127 H133 0.959 . S
H128 C124 0.960 . S
H129 C124 0.961 . S
H130 C124 0.960 . S
H131 C127 0.960 . S
H132 C127 0.960 . S
H133 C127 0.959 . S
C134 N135 1.317 . S
C134 N136 1.348 . S
C134 C137 1.485 . S
N135 C134 1.317 . S
N135 N139 1.370 . S
N136 C134 1.348 . S
N136 C138 1.346 . S
C137 C134 1.485 . S
C137 H141 0.960 . S
C137 H142 0.961 . S
C137 H143 0.960 . S
C138 N136 1.346 . S
C138 N139 1.307 . S
C138 C140 1.486 . S
N139 N135 1.370 . S
N139 C138 1.307 . S
C140 C138 1.486 . S
C140 H144 0.960 . S
C140 H145 0.960 . S
C140 H146 0.959 . S
H141 C137 0.960 . S
H142 C137 0.961 . S
H143 C137 0.960 . S
H144 C140 0.960 . S
H145 C140 0.960 . S
H146 C140 0.959 . S
C147 C148 1.387 . S
C147 H151 0.950 . S
C147 C156 1.390 . S
C148 C147 1.387 . S
C148 C150 1.387 . S
H149 C156 0.950 . S
C150 C148 1.387 . S
C150 C152 1.390 . S
C150 H154 0.950 . S
H151 C147 0.950 . S
C152 C150 1.390 . S
C152 C153 1.387 . S
C152 H155 0.950 . S
C153 C152 1.387 . S
C153 C156 1.387 . S
H154 C150 0.950 . S
H155 C152 0.950 . S
C156 C147 1.390 . S
C156 H149 0.950 . S
C156 C153 1.387 . S
C157 C158 1.387 . S
C157 H161 0.950 . S
C157 C166 1.390 . S
C158 C157 1.387 . S
C158 C160 1.387 . S
H159 C166 0.950 . S
C160 C158 1.387 . S
C160 C162 1.390 . S
C160 H164 0.950 . S
H161 C157 0.950 . S
C162 C160 1.390 . S
C162 C163 1.387 . S
C162 H165 0.950 1_655 S
C163 C162 1.387 . S
C163 C166 1.387 . S
H164 C160 0.950 . S
H165 C162 0.950 1_455 S
C166 C157 1.390 . S
C166 H159 0.950 . S
C166 C163 1.387 . S
C167 C168 1.387 . S
C167 H171 0.950 . S
C167 C176 1.390 . S
C168 C167 1.387 . S
C168 C170 1.387 . S
H169 C176 0.950 1_545 S
C170 C168 1.387 . S
C170 C172 1.390 . S
C170 H174 0.950 . S
H171 C167 0.950 . S
C172 C170 1.390 . S
C172 C173 1.387 . S
C172 H175 0.950 . S
C173 C172 1.387 . S
C173 C176 1.387 . S
H174 C170 0.950 . S
H175 C172 0.950 . S
C176 C167 1.390 . S
C176 H169 0.950 1_565 S
C176 C173 1.387 . S
C177 C178 1.387 . S
C177 H181 0.950 . S
C177 C186 1.390 . S
C178 C177 1.387 . S
C178 C180 1.387 . S
H179 C186 0.950 . S
C180 C178 1.387 . S
C180 C182 1.390 . S
C180 H184 0.950 . S
H181 C177 0.950 . S
C182 C180 1.390 . S
C182 C183 1.387 . S
C182 H185 0.950 . S
C183 C182 1.387 . S
C183 C186 1.387 . S
H184 C180 0.950 . S
H185 C182 0.950 . S
C186 C177 1.390 . S
C186 H179 0.950 . S
C186 C183 1.387 . S
C187 C188 1.387 . S
C187 H191 0.950 . S
C187 C196 1.390 . S
C188 C187 1.387 . S
C188 C190 1.387 . S
H189 C196 0.950 . S
C190 C188 1.387 . S
C190 C192 1.390 . S
C190 H194 0.950 . S
H191 C187 0.950 . S
C192 C190 1.390 . S
C192 C193 1.387 . S
C192 H195 0.950 . S
C193 C192 1.387 . S
C193 C196 1.387 . S
H194 C190 0.950 . S
H195 C192 0.950 . S
C196 C187 1.390 . S
C196 H189 0.950 . S
C196 C193 1.387 . S
C197 C198 1.387 . S
C197 H201 0.950 . S
C197 C206 1.390 . S
C198 C197 1.387 . S
C198 C200 1.387 . S
H199 C206 0.950 . S
C200 C198 1.387 . S
C200 C202 1.390 . S
C200 H204 0.950 . S
H201 C197 0.950 . S
C202 C200 1.390 . S
C202 C203 1.387 . S
C202 H205 0.950 . S
C203 C202 1.387 . S
C203 C206 1.387 . S
H204 C200 0.950 . S
H205 C202 0.950 . S
C206 C197 1.390 . S
C206 H199 0.950 . S
C206 C203 1.387 . S
C207 C208 1.387 . S
C207 H211 0.950 . S
C207 C216 1.390 . S
C208 C207 1.387 . S
C208 C210 1.387 . S
H209 C216 0.950 . S
C210 C208 1.387 . S
C210 C212 1.390 . S
C210 H214 0.950 . S
H211 C207 0.950 . S
C212 C210 1.390 . S
C212 C213 1.387 . S
C212 H215 0.950 . S
C213 C212 1.387 . S
C213 C216 1.387 . S
H214 C210 0.950 . S
H215 C212 0.950 . S
C216 C207 1.390 . S
C216 H209 0.950 . S
C216 C213 1.387 . S
C217 C218 1.387 . S
C217 H221 0.950 . S
C217 C226 1.390 . S
C218 C217 1.387 . S
C218 C220 1.387 . S
H219 C226 0.950 . S
C220 C218 1.387 . S
C220 C222 1.390 . S
C220 H224 0.950 . S
H221 C217 0.950 . S
C222 C220 1.390 . S
C222 C223 1.387 . S
C222 H225 0.950 . S
C223 C222 1.387 . S
C223 C226 1.387 . S
H224 C220 0.950 . S
H225 C222 0.950 . S
C226 C217 1.390 . S
C226 H219 0.950 . S
C226 C223 1.387 . S
C227 C228 1.387 . S
C227 H231 0.950 . S
C227 C236 1.390 . S
C228 C227 1.387 . S
C228 C230 1.387 . S
H229 C236 0.950 . S
C230 C228 1.387 . S
C230 C232 1.390 . S
C230 H234 0.950 . S
H231 C227 0.950 . S
C232 C230 1.390 . S
C232 C233 1.387 . S
C232 H235 0.950 . S
C233 C232 1.387 . S
C233 C236 1.387 . S
H234 C230 0.950 . S
H235 C232 0.950 . S
C236 C227 1.390 . S
C236 H229 0.950 . S
C236 C233 1.387 . S
C237 C238 1.387 . S
C237 H241 0.950 . S
C237 C246 1.390 . S
C238 C237 1.387 . S
C238 C240 1.387 . S
H239 C246 0.950 . S
C240 C238 1.387 . S
C240 C242 1.390 . S
C240 H244 0.950 . S
H241 C237 0.950 . S
C242 C240 1.390 . S
C242 C243 1.387 . S
C242 H245 0.950 . S
C243 C242 1.387 . S
C243 C246 1.387 . S
H244 C240 0.950 . S
H245 C242 0.950 . S
C246 C237 1.390 . S
C246 H239 0.950 . S
C246 C243 1.387 . S
C247 C248 1.387 . S
C247 H251 0.950 . S
C247 C256 1.390 . S
C248 C247 1.387 . S
C248 C250 1.387 . S
H249 C256 0.950 . S
C250 C248 1.387 . S
C250 C252 1.390 . S
C250 H254 0.950 . S
H251 C247 0.950 . S
C252 C250 1.390 . S
C252 C253 1.387 . S
C252 H255 0.950 . S
C253 C252 1.387 . S
C253 C256 1.387 . S
H254 C250 0.950 . S
H255 C252 0.950 . S
C256 C247 1.390 . S
C256 H249 0.950 . S
C256 C253 1.387 . S
C257 C258 1.387 . S
C257 H261 0.950 . S
C257 C266 1.390 . S
C258 C257 1.387 . S
C258 C260 1.387 . S
H259 C266 0.950 . S
C260 C258 1.387 . S
C260 C262 1.390 . S
C260 H264 0.950 . S
H261 C257 0.950 . S
C262 C260 1.390 . S
C262 C263 1.387 . S
C262 H265 0.950 . S
C263 C262 1.387 . S
C263 C266 1.387 . S
H264 C260 0.950 . S
H265 C262 0.950 . S
C266 C257 1.390 . S
C266 H259 0.950 . S
C266 C263 1.387 . S
C267 C268 1.387 1_655 S
C267 H271 0.950 . S
C267 C276 1.390 1_554 S
C268 C267 1.387 1_455 S
C268 C270 1.387 . S
H269 C276 0.950 . S
C270 C268 1.387 . S
C270 C272 1.390 1_554 S
C270 H274 0.950 . S
H271 C267 0.950 . S
C272 C270 1.390 1_556 S
C272 C273 1.387 . S
C272 H275 0.950 . S
C273 C272 1.387 . S
C273 C276 1.387 1_455 S
H274 C270 0.950 . S
H275 C272 0.950 . S
C276 C267 1.390 1_556 S
C276 H269 0.950 . S
C276 C273 1.387 1_655 S
C277 C278 1.387 1_565 S
C277 H281 0.950 . S
C277 C286 1.390 . S
C278 C277 1.387 1_545 S
C278 C280 1.387 . S
H279 C286 0.950 . S
C280 C278 1.387 . S
C280 C282 1.390 . S
C280 H284 0.950 . S
H281 C277 0.950 . S
C282 C280 1.390 . S
C282 C283 1.387 . S
C282 H285 0.950 . S
C283 C282 1.387 . S
C283 C286 1.387 1_545 S
H284 C280 0.950 . S
H285 C282 0.950 . S
C286 C277 1.390 . S
C286 H279 0.950 . S
C286 C283 1.387 1_565 S
C287 C288 1.387 . S
C287 H291 0.950 . S
C287 C296 1.390 . S
C288 C287 1.387 . S
C288 C290 1.387 . S
H289 C296 0.950 . S
C290 C288 1.387 . S
C290 C292 1.390 . S
C290 H294 0.950 . S
H291 C287 0.950 . S
C292 C290 1.390 . S
C292 C293 1.387 . S
C292 H295 0.950 . S
C293 C292 1.387 . S
C293 C296 1.387 . S
H294 C290 0.950 . S
H295 C292 0.950 . S
C296 C287 1.390 . S
C296 H289 0.950 . S
C296 C293 1.387 . S
C297 C298 1.387 . S
C297 H301 0.950 . S
C297 C306 1.390 . S
C298 C297 1.387 . S
C298 C300 1.387 1_545 S
H299 C306 0.950 . S
C300 C298 1.387 1_565 S
C300 C302 1.390 . S
C300 H304 0.950 . S
H301 C297 0.950 . S
C302 C300 1.390 . S
C302 C303 1.387 1_565 S
C302 H305 0.950 . S
C303 C302 1.387 1_545 S
C303 C306 1.387 . S
H304 C300 0.950 . S
H305 C302 0.950 . S
C306 C297 1.390 . S
C306 H299 0.950 . S
C306 C303 1.387 . S
C307 C308 1.387 . S
C307 H311 0.950 . S
C307 C316 1.390 1_556 S
C308 C307 1.387 . S
C308 C310 1.387 . S
H309 C316 0.950 . S
C310 C308 1.387 . S
C310 C312 1.390 1_556 S
C310 H314 0.950 . S
H311 C307 0.950 . S
C312 C310 1.390 1_554 S
C312 C313 1.387 . S
C312 H315 0.950 . S
C313 C312 1.387 . S
C313 C316 1.387 . S
H314 C310 0.950 . S
H315 C312 0.950 . S
C316 C307 1.390 1_554 S
C316 H309 0.950 . S
C316 C313 1.387 . S
C317 C318 1.387 1_655 S
C317 H321 0.950 . S
C317 C326 1.390 . S
C318 C317 1.387 1_455 S
C318 C320 1.387 . S
H319 C326 0.950 . S
C320 C318 1.387 . S
C320 C322 1.390 . S
C320 H324 0.950 . S
H321 C317 0.950 . S
C322 C320 1.390 . S
C322 C323 1.387 . S
C322 H325 0.950 . S
C323 C322 1.387 . S
C323 C326 1.387 1_455 S
H324 C320 0.950 . S
H325 C322 0.950 . S
C326 C317 1.390 . S
C326 H319 0.950 . S
C326 C323 1.387 1_655 S
C148 C20 1.162 . S
C153 N136 1.231 . S
C158 C41 1.460 . S
C163 N109 1.436 1_655 S
C168 C64 1.457 . S
C173 N122 1.432 1_565 S
C178 C19 1.572 . S
C183 N135 1.607 . S
C193 N110 1.422 . S
C188 C44 1.419 . S
C203 N123 1.418 . S
C198 C67 1.414 . S
C208 C43 1.334 . S
C213 N83 1.413 . S
C218 C66 1.166 . S
C223 N97 1.233 . S
C228 C21 1.420 . S
C233 N71 1.426 . S
C243 N84 1.420 . S
C238 C42 1.382 . S
C253 N96 1.606 . S
C248 C65 1.572 . S
C258 C18 1.435 . S
C263 N70 1.411 . S
C273 N100 1.496 . S
C268 C17 1.542 . S
C278 C39 1.546 . S
C283 N74 1.549 . S
C288 C62 1.541 . S
C293 N87 1.546 . S
C303 N126 1.535 . S
C298 C40 1.542 . S
C313 N139 1.495 . S
C308 C63 1.542 . S
C318 C16 1.531 . S
C323 N113 1.535 . S
