# Generated by pormake.
# Topology tsx, (6,3)-cn, num edge types: 1
# Building blocks:
#     Node 0, Type 0, BuildingBlock: CIFDUS_clean_sbu_1, # of connection points: 6
#     Node 1, Type 0, BuildingBlock: CIFDUS_clean_sbu_1, # of connection points: 6
#     Node 2, Type 1, BuildingBlock: BETDAH_clean_linker_0, # of connection points: 3
#     Node 3, Type 1, BuildingBlock: BETDAH_clean_linker_0, # of connection points: 3
#     Node 4, Type 1, BuildingBlock: BETDAH_clean_linker_0, # of connection points: 3
#     Node 5, Type 1, BuildingBlock: BETDAH_clean_linker_0, # of connection points: 3
#     Edge 6, Type (0, 1), BuildingBlock: KIFKEQ_clean_linker_1, # of connection points: 2
#     Edge 7, Type (0, 1), BuildingBlock: KIFKEQ_clean_linker_1, # of connection points: 2
#     Edge 8, Type (0, 1), BuildingBlock: KIFKEQ_clean_linker_1, # of connection points: 2
#     Edge 9, Type (0, 1), BuildingBlock: KIFKEQ_clean_linker_1, # of connection points: 2
#     Edge 10, Type (0, 1), BuildingBlock: KIFKEQ_clean_linker_1, # of connection points: 2
#     Edge 11, Type (0, 1), BuildingBlock: KIFKEQ_clean_linker_1, # of connection points: 2
#     Edge 12, Type (0, 1), BuildingBlock: KIFKEQ_clean_linker_1, # of connection points: 2
#     Edge 13, Type (0, 1), BuildingBlock: KIFKEQ_clean_linker_1, # of connection points: 2
#     Edge 14, Type (0, 1), BuildingBlock: KIFKEQ_clean_linker_1, # of connection points: 2
#     Edge 15, Type (0, 1), BuildingBlock: KIFKEQ_clean_linker_1, # of connection points: 2
#     Edge 16, Type (0, 1), BuildingBlock: KIFKEQ_clean_linker_1, # of connection points: 2
#     Edge 17, Type (0, 1), BuildingBlock: KIFKEQ_clean_linker_1, # of connection points: 2
# Relax obj value: 0.091
# Max RMSD: 0.142
# Mean RMSD: 0.106
data_MOF--net-tsx--node1-CIFDUS_clean_sbu_1--node2-BETDAH_clean_linker_0--edge1-KIFKEQ_clean_linker_1
_symmetry_space_group_name_H-M    P1
_symmetry_Int_Tables_number       1
_symmetry_cell_setting            triclinic
loop_
_symmetry_equiv_pos_as_xyz
'x, y, z'
_cell_length_a     18.919315
_cell_length_b     22.961826
_cell_length_c     34.698195
_cell_angle_alpha  97.017358
_cell_angle_beta   101.15098
_cell_angle_gamma 90.978741
loop_
_atom_site_label
_atom_site_type_symbol
_atom_site_fract_x
_atom_site_fract_y
_atom_site_fract_z
_atom_type_partial_charge
O0 O 1.00526 0.11002 0.0034 0.0
Mn1 Mn 0.06227 0.03206 -0.00224 0.0
O2 O 0.88925 0.0852 0.97496 0.0
Mn3 Mn 0.90463 0.01034 0.95294 0.0
O4 O 0.11664 0.95253 0.98978 0.0
O5 O 0.15502 0.08298 0.00897 0.0
Mn6 Mn 0.22095 0.04348 0.03757 0.0
O7 O 0.07126 0.02763 0.05835 0.0
O8 O 0.23487 0.97533 0.00677 0.0
O9 O 0.05401 0.03706 0.93689 0.0
O10 O 0.94125 0.00573 0.9071 0.0
O11 O 0.26809 0.11124 0.03253 0.0
O12 O 0.19002 0.03552 0.08437 0.0
C13 C 0.92125 0.94306 0.99049 0.0
C14 C 0.93832 0.12233 0.99395 0.0
C15 C 0.18285 0.9393 0.99086 0.0
C16 C 0.20583 0.12346 0.01297 0.0
C17 C 0.12444 0.02962 0.08791 0.0
C18 C 1.00503 0.02272 0.90559 0.0
O19 O 0.97001 0.98216 0.98831 0.0
O20 O 0.85988 0.94678 0.967 0.0
O21 O 0.50975 0.60742 0.50217 0.0
Mn22 Mn 0.56985 0.53043 0.50054 0.0
O23 O 0.39474 0.57917 0.47403 0.0
Mn24 Mn 0.41471 0.50506 0.45266 0.0
O25 O 0.62849 0.45256 0.49711 0.0
O26 O 0.6616 0.58278 0.51269 0.0
Mn27 Mn 0.72318 0.55048 0.54851 0.0
O28 O 0.57111 0.52909 0.56113 0.0
O29 O 0.74284 0.47641 0.52722 0.0
O30 O 0.56748 0.53223 0.43981 0.0
O31 O 0.45525 0.50185 0.40815 0.0
O32 O 0.77232 0.61482 0.53957 0.0
O33 O 0.68405 0.55479 0.59356 0.0
C34 C 0.43156 0.43757 0.49003 0.0
C35 C 0.44231 0.61808 0.49222 0.0
C36 C 0.69482 0.43918 0.50744 0.0
C37 C 0.71235 0.62318 0.51607 0.0
C38 C 0.61817 0.54219 0.59333 0.0
C39 C 0.51999 0.51791 0.40787 0.0
O40 O 0.47912 0.47843 0.48926 0.0
O41 O 0.37127 0.43968 0.4653 0.0
H42 H 0.16998 0.95644 0.37043 0.0
H43 H 0.96686 0.03628 0.37286 0.0
H44 H 0.05299 0.92781 0.46169 0.0
C45 C 0.12427 0.9642 0.38466 0.0
C46 C 0.12029 0.93877 0.41914 0.0
C47 C 0.06827 0.99776 0.36715 0.0
C48 C 1.00988 0.01004 0.38603 0.0
C49 C 1.00566 0.98642 0.42102 0.0
C50 C 0.05932 0.94915 0.43638 0.0
N51 N 0.9462 0.99666 0.44018 0.0
C52 C 0.90995 0.04903 0.44185 0.0
H53 H 0.93897 0.99012 0.61705 0.0
H54 H 0.13447 0.09142 0.62074 0.0
H55 H 0.02597 0.99173 0.51195 0.0
C56 C 0.97858 0.00673 0.60188 0.0
C57 C 0.97438 0.9871 0.56159 0.0
C58 C 0.03644 0.04386 0.62355 0.0
C59 C 0.08959 0.0632 0.60414 0.0
C60 C 0.0852 0.0448 0.56351 0.0
C61 C 0.02819 0.00647 0.54284 0.0
N62 N 0.13829 0.06161 0.54258 0.0
C63 C 0.18952 0.10766 0.55547 0.0
H64 H 0.65103 0.43844 0.87155 0.0
H65 H 0.45341 0.52892 0.87236 0.0
H66 H 0.53546 0.42574 0.9652 0.0
C67 C 0.60643 0.45118 0.88575 0.0
C68 C 0.60147 0.43004 0.92147 0.0
C69 C 0.5525 0.48578 0.8672 0.0
C70 C 0.49449 0.50134 0.88587 0.0
C71 C 0.48853 0.48013 0.92149 0.0
C72 C 0.54088 0.44312 0.93829 0.0
N73 N 0.4299 0.49421 0.94067 0.0
C74 C 0.39384 0.54649 0.93868 0.0
H75 H 0.44508 0.49032 0.12372 0.0
H76 H 0.63744 0.5911 0.12013 0.0
H77 H 0.5138 0.49577 0.01352 0.0
C78 C 0.48168 0.50721 0.10684 0.0
C79 C 0.47153 0.48871 0.06607 0.0
C80 C 0.54137 0.54398 0.12662 0.0
C81 C 0.59098 0.56342 0.10499 0.0
C82 C 0.58052 0.54614 0.06387 0.0
C83 C 0.52114 0.50895 0.04496 0.0
N84 N 0.62939 0.56287 0.04041 0.0
C85 C 0.6843 0.60632 0.05164 0.0
H86 H 0.23865 0.16681 0.94915 0.0
H87 H 0.16243 0.21525 0.05726 0.0
H88 H 0.28683 0.26685 0.95211 0.0
H89 H 0.21349 0.31418 0.06187 0.0
H90 H 0.32888 0.48727 0.07232 0.0
H91 H 0.23752 0.40812 0.04691 0.0
H92 H 0.3928 0.3095 0.99214 0.0
H93 H 0.48237 0.38884 0.01668 0.0
C94 C 0.2287 0.19982 0.9724 0.0
C95 C 0.19626 0.18348 0.00278 0.0
C96 C 0.25801 0.25692 0.97476 0.0
C97 C 0.25687 0.29847 0.00808 0.0
C98 C 0.21594 0.28391 0.03573 0.0
C99 C 0.18569 0.22705 0.03293 0.0
C100 C 0.34282 0.44894 0.05427 0.0
C101 C 0.41295 0.44434 0.04655 0.0
C102 C 0.29049 0.40342 0.03973 0.0
C103 C 0.30721 0.35177 0.01746 0.0
C104 C 0.37665 0.34869 0.00834 0.0
C105 C 0.42857 0.39434 0.02256 0.0
H106 H 0.11711 0.83162 0.99229 0.0
H107 H 0.29428 0.91347 0.95433 0.0
H108 H 0.16421 0.7347 0.97579 0.0
H109 H 0.34029 0.81766 0.93709 0.0
H110 H 0.45825 0.65238 0.96595 0.0
H111 H 0.40054 0.74612 0.97428 0.0
H112 H 0.19234 0.65922 0.92536 0.0
H113 H 0.25105 0.56493 0.91796 0.0
C114 C 0.16481 0.82878 0.97938 0.0
C115 C 0.20215 0.8801 0.97481 0.0
C116 C 0.19208 0.77331 0.97004 0.0
C117 C 0.25699 0.76828 0.95579 0.0
C118 C 0.29143 0.81972 0.94902 0.0
C119 C 0.26469 0.87473 0.95862 0.0
C120 C 0.40026 0.65364 0.95667 0.0
C121 C 0.35897 0.60204 0.94101 0.0
C122 C 0.36702 0.7073 0.96124 0.0
C123 C 0.29157 0.71057 0.95017 0.0
C124 C 0.25035 0.65841 0.9344 0.0
C125 C 0.28386 0.60457 0.92986 0.0
H126 H 0.86217 0.94483 0.05493 0.0
H127 H 0.98732 0.83929 0.98409 0.0
H128 H 0.82193 0.85773 0.07915 0.0
H129 H 0.95068 0.75151 0.00985 0.0
H130 H 0.75573 0.61985 0.99416 0.0
H131 H 0.83926 0.69993 0.99117 0.0
H132 H 0.82494 0.77236 0.11043 0.0
H133 H 0.73841 0.69221 0.11233 0.0
C134 C 0.8848 0.90321 0.04656 0.0
C135 C 0.92856 0.89878 0.01807 0.0
C136 C 0.86138 0.85289 0.06029 0.0
C137 C 0.88127 0.7969 0.04571 0.0
C138 C 0.93253 0.79361 0.02095 0.0
C139 C 0.95526 0.84407 0.00689 0.0
C140 C 0.77152 0.65248 0.01994 0.0
C141 C 0.74079 0.65037 0.05335 0.0
C142 C 0.82016 0.69824 0.01849 0.0
C143 C 0.83955 0.74311 0.05061 0.0
C144 C 0.8109 0.73915 0.08494 0.0
C145 C 0.76163 0.69324 0.08621 0.0
H146 H 0.84622 0.16294 0.04064 0.0
H147 H 0.97124 0.21478 0.95822 0.0
H148 H 0.77157 0.24757 0.03125 0.0
H149 H 0.89456 0.29772 0.94677 0.0
H150 H 0.74783 0.4496 0.93399 0.0
H151 H 0.84212 0.38732 0.96267 0.0
H152 H 0.67847 0.26438 0.97954 0.0
H153 H 0.58509 0.32757 0.95216 0.0
C154 C 0.85942 0.19398 0.0217 0.0
C155 C 0.91494 0.18292 0.00056 0.0
C156 C 0.81568 0.24181 0.01556 0.0
C157 C 0.82523 0.27877 0.98726 0.0
C158 C 0.88529 0.27063 0.96888 0.0
C159 C 0.92988 0.22325 0.97563 0.0
C160 C 0.73226 0.40932 0.94406 0.0
C161 C 0.65896 0.39335 0.9406 0.0
C162 C 0.78633 0.37354 0.96051 0.0
C163 C 0.76849 0.32053 0.97361 0.0
C164 C 0.69493 0.30536 0.97076 0.0
C165 C 0.64102 0.34143 0.95474 0.0
H166 H 0.65855 0.71956 0.54984 0.0
H167 H 0.75779 0.65591 0.4521 0.0
H168 H 0.70985 0.81728 0.55081 0.0
H169 H 0.80588 0.75473 0.45082 0.0
H170 H 0.99214 0.88497 0.51606 0.0
H171 H 0.90498 0.80398 0.4913 0.0
H172 H 0.73956 0.90691 0.53367 0.0
H173 H 0.8288 0.98712 0.56012 0.0
C174 C 0.68713 0.72752 0.52663 0.0
C175 C 0.70405 0.6802 0.50088 0.0
C176 C 0.71755 0.78381 0.52737 0.0
C177 C 0.76482 0.79412 0.50184 0.0
C178 C 0.77234 0.74833 0.47206 0.0
C179 C 0.74304 0.69179 0.47195 0.0
C180 C 0.9368 0.89076 0.51932 0.0
C181 C 0.91766 0.94218 0.54051 0.0
C182 C 0.88617 0.84421 0.50483 0.0
C183 C 0.81445 0.84797 0.51059 0.0
C184 C 0.79432 0.90135 0.52938 0.0
C185 C 0.8454 0.9476 0.54445 0.0
H186 H 0.81512 0.38969 0.5434 0.0
H187 H 0.62948 0.35117 0.44853 0.0
H188 H 0.86101 0.29429 0.52623 0.0
H189 H 0.67622 0.25396 0.43122 0.0
H190 H 0.84229 0.11811 0.38868 0.0
H191 H 0.7822 0.21007 0.4038 0.0
H192 H 0.8332 0.19059 0.52829 0.0
H193 H 0.89333 0.09965 0.51301 0.0
C194 C 0.7837 0.36072 0.51885 0.0
C195 C 0.7185 0.37852 0.49727 0.0
C196 C 0.81 0.30557 0.50918 0.0
C197 C 0.77237 0.26617 0.47742 0.0
C198 C 0.70678 0.28344 0.45575 0.0
C199 C 0.67974 0.3389 0.46582 0.0
C200 C 0.84016 0.13372 0.41917 0.0
C201 C 0.87271 0.10251 0.44979 0.0
C202 C 0.80537 0.18598 0.42783 0.0
C203 C 0.80308 0.20795 0.4673 0.0
C204 C 0.83468 0.1755 0.49765 0.0
C205 C 0.86904 0.12341 0.48897 0.0
H206 H 0.46967 0.32581 0.4745 0.0
H207 H 0.39945 0.44691 0.5629 0.0
H208 H 0.42485 0.24351 0.50232 0.0
H209 H 0.3564 0.36478 0.592 0.0
H210 H 0.33101 0.09968 0.55388 0.0
H211 H 0.4158 0.18064 0.55173 0.0
H212 H 0.24955 0.30405 0.56537 0.0
H213 H 0.16628 0.22309 0.56834 0.0
C214 C 0.44881 0.33458 0.50151 0.0
C215 C 0.43922 0.39255 0.51703 0.0
C216 C 0.42243 0.28737 0.5174 0.0
C217 C 0.38542 0.29736 0.549 0.0
C218 C 0.38326 0.35542 0.56719 0.0
C219 C 0.4094 0.40255 0.55113 0.0
C220 C 0.3137 0.14442 0.55756 0.0
C221 C 0.24266 0.15561 0.56148 0.0
C222 C 0.36196 0.19074 0.55605 0.0
C223 C 0.33976 0.2491 0.55823 0.0
C224 C 0.26931 0.26002 0.56428 0.0
C225 C 0.22125 0.21369 0.5658 0.0
H226 H 0.33227 0.65531 0.52721 0.0
H227 H 0.49031 0.71452 0.46471 0.0
H228 H 0.26365 0.74279 0.51542 0.0
H229 H 0.42061 0.80179 0.45197 0.0
H230 H 0.20151 0.86344 0.37914 0.0
H231 H 0.29408 0.79949 0.40603 0.0
H232 H 0.2614 0.85706 0.52407 0.0
H233 H 0.17086 0.92424 0.49758 0.0
C234 C 0.35384 0.68842 0.5124 0.0
C235 C 0.41692 0.67852 0.49723 0.0
C236 C 0.31437 0.73837 0.50547 0.0
C237 C 0.33624 0.77881 0.48236 0.0
C238 C 0.40225 0.77114 0.46968 0.0
C239 C 0.44265 0.72165 0.47739 0.0
C240 C 0.21505 0.86422 0.41096 0.0
C241 C 0.1782 0.89978 0.43601 0.0
C242 C 0.26835 0.8272 0.42637 0.0
C243 C 0.28562 0.8236 0.4672 0.0
C244 C 0.24931 0.85898 0.49245 0.0
C245 C 0.1968 0.89703 0.47711 0.0
H246 H 0.99761 0.04701 0.11473 0.0
H247 H 0.22001 0.00496 0.15256 0.0
H248 H 0.97912 0.04818 0.18272 0.0
H249 H 0.20114 0.00404 0.2195 0.0
H250 H 0.17623 0.05499 0.343 0.0
H251 H 0.18472 0.06787 0.2753 0.0
H252 H 0.97094 0.98751 0.23324 0.0
H253 H 0.96187 0.97689 0.30132 0.0
C254 C 0.04228 0.03748 0.13741 0.0
C255 C 0.11043 0.02643 0.12823 0.0
C256 C 0.03173 0.03809 0.17639 0.0
C257 C 0.08895 0.02718 0.20689 0.0
C258 C 0.15635 0.01451 0.19723 0.0
C259 C 0.16701 0.01447 0.15859 0.0
C260 C 0.13066 0.04116 0.31928 0.0
C261 C 0.06859 0.01475 0.32731 0.0
C262 C 0.13562 0.04795 0.28042 0.0
C263 C 0.07911 0.02753 0.24855 0.0
C264 C 0.01538 0.00402 0.25692 0.0
C265 C 1.01011 0.99794 0.29595 0.0
H266 H 0.9201 0.98267 0.83451 0.0
H267 H 0.12352 0.07592 0.88599 0.0
H268 H 0.93594 0.99873 0.76916 0.0
H269 H 0.1393 0.09201 0.81926 0.0
H270 H 0.1535 0.03147 0.6818 0.0
H271 H 0.15423 0.03262 0.75269 0.0
H272 H 0.93422 0.0871 0.7337 0.0
H273 H 0.93337 0.08537 0.66321 0.0
C274 C 0.96844 0.00665 0.83199 0.0
C275 C 0.02016 0.02856 0.86576 0.0
C276 C 0.97722 0.0162 0.79436 0.0
C277 C 0.038 0.04782 0.78913 0.0
C278 C 0.0916 0.06784 0.82252 0.0
C279 C 0.08261 0.05849 0.86062 0.0
C280 C 0.10614 0.04536 0.6931 0.0
C281 C 0.04299 0.05754 0.66703 0.0
C282 C 0.10655 0.04594 0.73361 0.0
C283 C 0.04381 0.05874 0.74852 0.0
C284 C 0.98288 0.07578 0.72287 0.0
C285 C 0.9824 0.07502 0.68258 0.0
H286 H 0.67448 0.6121 0.66141 0.0
H287 H 0.51525 0.47217 0.61312 0.0
H288 H 0.65117 0.60637 0.72732 0.0
H289 H 0.49333 0.46458 0.67961 0.0
H290 H 0.44164 0.48664 0.80322 0.0
H291 H 0.44919 0.50751 0.73675 0.0
H292 H 0.67925 0.54085 0.77468 0.0
H293 H 0.67095 0.52328 0.84122 0.0
C294 C 0.63418 0.58013 0.66495 0.0
C295 C 0.59701 0.54222 0.63218 0.0
C296 C 0.62108 0.57658 0.7028 0.0
C297 C 0.57133 0.53429 0.70906 0.0
C298 C 0.53168 0.498 0.67594 0.0
C299 C 0.54418 0.50219 0.63781 0.0
C300 C 0.49353 0.49973 0.79753 0.0
C301 C 0.55576 0.50311 0.82758 0.0
C302 C 0.49801 0.5109 0.75926 0.0
C303 C 0.56482 0.52571 0.75016 0.0
C304 C 0.62663 0.5304 0.78055 0.0
C305 C 0.62209 0.51955 0.81872 0.0
H306 H 0.63657 0.57625 0.38982 0.0
H307 H 0.44271 0.47091 0.33636 0.0
H308 H 0.65317 0.59352 0.32331 0.0
H309 H 0.45901 0.48873 0.27133 0.0
H310 H 0.44487 0.58801 0.16981 0.0
H311 H 0.45144 0.58763 0.24066 0.0
H312 H 0.66899 0.52845 0.2532 0.0
H313 H 0.66244 0.52891 0.18175 0.0
C314 C 0.5982 0.55624 0.36408 0.0
C315 C 0.53773 0.52291 0.36852 0.0
C316 C 0.60761 0.56631 0.32616 0.0
C317 C 0.55634 0.5436 0.29241 0.0
C318 C 0.49832 0.508 0.29692 0.0
C319 C 0.48924 0.49766 0.33432 0.0
C320 C 0.49475 0.57639 0.18785 0.0
C321 C 0.55274 0.55772 0.1703 0.0
C322 C 0.49851 0.57609 0.22832 0.0
C323 C 0.56028 0.55702 0.25215 0.0
C324 C 0.62084 0.54338 0.23541 0.0
C325 C 0.61708 0.54372 0.19464 0.0
loop_
_geom_bond_atom_site_label_1
_geom_bond_atom_site_label_2
_geom_bond_distance
_geom_bond_site_symmetry_2
_ccdc_geom_bond_type
O0 Mn1 2.163 . S
O0 C14 1.244 1_455 S
Mn1 O0 2.163 . S
Mn1 O4 2.160 1_545 S
Mn1 O5 2.221 1_556 S
Mn1 O7 2.163 1_556 S
Mn1 O9 2.160 . S
Mn1 O19 2.221 1_445 S
O2 Mn3 2.087 1_545 S
O2 C14 1.256 . S
Mn3 O2 2.087 1_565 S
Mn3 O10 2.089 1_565 S
Mn3 O19 2.290 . S
Mn3 O20 2.251 . S
O4 Mn1 2.160 1_565 S
O4 C15 1.239 1_556 S
O5 Mn1 2.221 1_554 S
O5 Mn6 2.290 . S
O5 C16 1.278 . S
Mn6 O5 2.290 . S
Mn6 O8 2.089 1_545 S
Mn6 O11 2.251 . S
Mn6 O12 2.087 . S
O7 Mn1 2.163 1_554 S
O7 C17 1.244 . S
O8 Mn6 2.089 1_565 S
O8 C15 1.256 . S
O9 Mn1 2.160 . S
O9 C18 1.239 . S
O10 Mn3 2.089 1_545 S
O10 C18 1.256 1_655 S
O11 Mn6 2.251 . S
O11 C16 1.241 . S
O12 Mn6 2.087 . S
O12 C17 1.256 . S
C13 O19 1.278 . S
C13 O20 1.241 . S
C14 O0 1.244 1_655 S
C14 O2 1.256 . S
C15 O4 1.239 1_554 S
C15 O8 1.256 . S
C16 O5 1.278 . S
C16 O11 1.241 . S
C17 O7 1.244 . S
C17 O12 1.256 . S
C18 O9 1.239 . S
C18 O10 1.256 1_455 S
O19 Mn1 2.221 1_665 S
O19 Mn3 2.290 . S
O19 C13 1.278 . S
O20 Mn3 2.251 . S
O20 C13 1.241 . S
O21 Mn22 2.163 . S
O21 C35 1.244 . S
Mn22 O21 2.163 . S
Mn22 O25 2.160 . S
Mn22 O26 2.221 . S
Mn22 O28 2.163 . S
Mn22 O30 2.160 . S
Mn22 O40 2.221 . S
O23 Mn24 2.087 . S
O23 C35 1.256 . S
Mn24 O23 2.087 . S
Mn24 O31 2.089 . S
Mn24 O40 2.290 . S
Mn24 O41 2.251 . S
O25 Mn22 2.160 . S
O25 C36 1.239 . S
O26 Mn22 2.221 . S
O26 Mn27 2.290 . S
O26 C37 1.278 . S
Mn27 O26 2.290 . S
Mn27 O29 2.089 . S
Mn27 O32 2.251 . S
Mn27 O33 2.087 . S
O28 Mn22 2.163 . S
O28 C38 1.244 . S
O29 Mn27 2.089 . S
O29 C36 1.256 . S
O30 Mn22 2.160 . S
O30 C39 1.239 . S
O31 Mn24 2.089 . S
O31 C39 1.256 . S
O32 Mn27 2.251 . S
O32 C37 1.241 . S
O33 Mn27 2.087 . S
O33 C38 1.256 . S
C34 O40 1.278 . S
C34 O41 1.241 . S
C35 O21 1.244 . S
C35 O23 1.256 . S
C36 O25 1.239 . S
C36 O29 1.256 . S
C37 O26 1.278 . S
C37 O32 1.241 . S
C38 O28 1.244 . S
C38 O33 1.256 . S
C39 O30 1.239 . S
C39 O31 1.256 . S
O40 Mn22 2.221 . S
O40 Mn24 2.290 . S
O40 C34 1.278 . S
O41 Mn24 2.251 . S
O41 C34 1.241 . S
H42 C45 0.929 . S
H43 C48 0.929 . S
H44 C50 0.930 . S
C45 H42 0.929 . S
C45 C46 1.398 . S
C45 C47 1.396 . S
C46 C45 1.398 . S
C46 C50 1.407 . S
C47 C45 1.396 . S
C47 C48 1.394 1_565 S
C48 H43 0.929 . S
C48 C47 1.394 1_545 S
C48 C49 1.382 . S
C49 C48 1.382 . S
C49 C50 1.392 1_545 S
C49 N51 1.420 1_455 S
C50 H44 0.930 . S
C50 C46 1.407 . S
C50 C49 1.392 1_565 S
N51 C49 1.420 1_655 S
N51 C52 1.244 . S
C52 N51 1.244 . S
H53 C56 0.929 1_565 S
H54 C59 0.929 . S
H55 C61 0.930 . S
C56 H53 0.929 1_545 S
C56 C57 1.398 1_545 S
C56 C58 1.396 . S
C57 C56 1.398 1_565 S
C57 C61 1.407 1_565 S
C58 C56 1.396 . S
C58 C59 1.394 1_655 S
C59 H54 0.929 . S
C59 C58 1.394 1_455 S
C59 C60 1.382 . S
C60 C59 1.382 . S
C60 C61 1.392 1_455 S
C60 N62 1.420 . S
C61 H55 0.930 . S
C61 C57 1.407 1_545 S
C61 C60 1.392 1_655 S
N62 C60 1.420 . S
N62 C63 1.244 . S
C63 N62 1.244 . S
H64 C67 0.929 . S
H65 C70 0.929 . S
H66 C72 0.930 . S
C67 H64 0.929 . S
C67 C68 1.398 . S
C67 C69 1.396 . S
C68 C67 1.398 . S
C68 C72 1.407 . S
C69 C67 1.396 . S
C69 C70 1.394 . S
C70 H65 0.929 . S
C70 C69 1.394 . S
C70 C71 1.382 . S
C71 C70 1.382 . S
C71 C72 1.392 . S
C71 N73 1.420 . S
C72 H66 0.930 . S
C72 C68 1.407 . S
C72 C71 1.392 . S
N73 C71 1.420 . S
N73 C74 1.244 . S
C74 N73 1.244 . S
H75 C78 0.929 . S
H76 C81 0.929 . S
H77 C83 0.930 . S
C78 H75 0.929 . S
C78 C79 1.398 . S
C78 C80 1.396 . S
C79 C78 1.398 . S
C79 C83 1.407 . S
C80 C78 1.396 . S
C80 C81 1.394 . S
C81 H76 0.929 . S
C81 C80 1.394 . S
C81 C82 1.382 . S
C82 C81 1.382 . S
C82 C83 1.392 . S
C82 N84 1.420 . S
C83 H77 0.930 . S
C83 C79 1.407 . S
C83 C82 1.392 . S
N84 C82 1.420 . S
N84 C85 1.244 . S
C85 N84 1.244 . S
H86 C94 0.950 . S
H87 C99 0.950 . S
H88 C96 0.950 1_556 S
H89 C98 0.950 . S
H90 C100 0.950 . S
H91 C102 0.950 . S
H92 C104 0.950 . S
H93 C105 0.950 . S
C94 H86 0.950 . S
C94 C95 1.386 1_556 S
C94 C96 1.391 1_556 S
C95 C94 1.386 1_554 S
C95 C99 1.393 . S
C96 H88 0.950 1_554 S
C96 C94 1.391 1_554 S
C96 C97 1.400 . S
C97 C96 1.400 . S
C97 C98 1.398 . S
C97 C103 1.491 . S
C98 H89 0.950 . S
C98 C97 1.398 . S
C98 C99 1.391 . S
C99 H87 0.950 . S
C99 C95 1.393 . S
C99 C98 1.391 . S
C100 H90 0.950 . S
C100 C101 1.386 . S
C100 C102 1.391 . S
C101 C100 1.386 . S
C101 C105 1.393 . S
C102 H91 0.950 . S
C102 C100 1.391 . S
C102 C103 1.400 . S
C103 C97 1.491 . S
C103 C102 1.400 . S
C103 C104 1.398 . S
C104 H92 0.950 . S
C104 C103 1.398 . S
C104 C105 1.391 . S
C105 H93 0.950 . S
C105 C101 1.393 . S
C105 C104 1.391 . S
H106 C114 0.950 . S
H107 C119 0.950 . S
H108 C116 0.950 . S
H109 C118 0.950 . S
H110 C120 0.950 . S
H111 C122 0.950 . S
H112 C124 0.950 . S
H113 C125 0.950 . S
C114 H106 0.950 . S
C114 C115 1.386 1_556 S
C114 C116 1.391 . S
C115 C114 1.386 1_554 S
C115 C119 1.393 . S
C116 H108 0.950 . S
C116 C114 1.391 . S
C116 C117 1.400 . S
C117 C116 1.400 . S
C117 C118 1.398 1_556 S
C117 C123 1.491 . S
C118 H109 0.950 . S
C118 C117 1.398 1_554 S
C118 C119 1.391 . S
C119 H107 0.950 . S
C119 C115 1.393 . S
C119 C118 1.391 . S
C120 H110 0.950 . S
C120 C121 1.386 1_554 S
C120 C122 1.391 . S
C121 C120 1.386 1_556 S
C121 C125 1.393 . S
C122 H111 0.950 . S
C122 C120 1.391 . S
C122 C123 1.400 1_554 S
C123 C117 1.491 . S
C123 C122 1.400 1_556 S
C123 C124 1.398 . S
C124 H112 0.950 . S
C124 C123 1.398 . S
C124 C125 1.391 . S
C125 H113 0.950 . S
C125 C121 1.393 . S
C125 C124 1.391 . S
H126 C134 0.950 . S
H127 C139 0.950 . S
H128 C136 0.950 . S
H129 C138 0.950 . S
H130 C140 0.950 . S
H131 C142 0.950 . S
H132 C144 0.950 . S
H133 C145 0.950 . S
C134 H126 0.950 . S
C134 C135 1.386 . S
C134 C136 1.391 . S
C135 C134 1.386 . S
C135 C139 1.393 1_554 S
C136 H128 0.950 . S
C136 C134 1.391 . S
C136 C137 1.400 . S
C137 C136 1.400 . S
C137 C138 1.398 1_554 S
C137 C143 1.491 . S
C138 H129 0.950 . S
C138 C137 1.398 1_556 S
C138 C139 1.391 . S
C139 H127 0.950 . S
C139 C135 1.393 1_556 S
C139 C138 1.391 . S
C140 H130 0.950 . S
C140 C141 1.386 1_556 S
C140 C142 1.391 . S
C141 C140 1.386 1_554 S
C141 C145 1.393 . S
C142 H131 0.950 . S
C142 C140 1.391 . S
C142 C143 1.400 1_556 S
C143 C137 1.491 . S
C143 C142 1.400 1_554 S
C143 C144 1.398 . S
C144 H132 0.950 . S
C144 C143 1.398 . S
C144 C145 1.391 . S
C145 H133 0.950 . S
C145 C141 1.393 . S
C145 C144 1.391 . S
H146 C154 0.950 1_554 S
H147 C159 0.950 . S
H148 C156 0.950 . S
H149 C158 0.950 . S
H150 C160 0.950 . S
H151 C162 0.950 . S
H152 C164 0.950 . S
H153 C165 0.950 . S
C154 H146 0.950 1_556 S
C154 C155 1.386 . S
C154 C156 1.391 . S
C155 C154 1.386 . S
C155 C159 1.393 . S
C156 H148 0.950 . S
C156 C154 1.391 . S
C156 C157 1.400 . S
C157 C156 1.400 . S
C157 C158 1.398 . S
C157 C163 1.491 . S
C158 H149 0.950 . S
C158 C157 1.398 . S
C158 C159 1.391 . S
C159 H147 0.950 . S
C159 C155 1.393 . S
C159 C158 1.391 . S
C160 H150 0.950 . S
C160 C161 1.386 . S
C160 C162 1.391 . S
C161 C160 1.386 . S
C161 C165 1.393 . S
C162 H151 0.950 . S
C162 C160 1.391 . S
C162 C163 1.400 . S
C163 C157 1.491 . S
C163 C162 1.400 . S
C163 C164 1.398 . S
C164 H152 0.950 . S
C164 C163 1.398 . S
C164 C165 1.391 . S
C165 H153 0.950 . S
C165 C161 1.393 . S
C165 C164 1.391 . S
H166 C174 0.950 . S
H167 C179 0.950 . S
H168 C176 0.950 . S
H169 C178 0.950 . S
H170 C180 0.950 . S
H171 C182 0.950 . S
H172 C184 0.950 . S
H173 C185 0.950 . S
C174 H166 0.950 . S
C174 C175 1.386 . S
C174 C176 1.391 . S
C175 C174 1.386 . S
C175 C179 1.393 . S
C176 H168 0.950 . S
C176 C174 1.391 . S
C176 C177 1.400 . S
C177 C176 1.400 . S
C177 C178 1.398 . S
C177 C183 1.491 . S
C178 H169 0.950 . S
C178 C177 1.398 . S
C178 C179 1.391 . S
C179 H167 0.950 . S
C179 C175 1.393 . S
C179 C178 1.391 . S
C180 H170 0.950 . S
C180 C181 1.386 . S
C180 C182 1.391 . S
C181 C180 1.386 . S
C181 C185 1.393 . S
C182 H171 0.950 . S
C182 C180 1.391 . S
C182 C183 1.400 . S
C183 C177 1.491 . S
C183 C182 1.400 . S
C183 C184 1.398 . S
C184 H172 0.950 . S
C184 C183 1.398 . S
C184 C185 1.391 . S
C185 H173 0.950 . S
C185 C181 1.393 . S
C185 C184 1.391 . S
H186 C194 0.950 . S
H187 C199 0.950 . S
H188 C196 0.950 . S
H189 C198 0.950 . S
H190 C200 0.950 . S
H191 C202 0.950 . S
H192 C204 0.950 . S
H193 C205 0.950 . S
C194 H186 0.950 . S
C194 C195 1.386 . S
C194 C196 1.391 . S
C195 C194 1.386 . S
C195 C199 1.393 . S
C196 H188 0.950 . S
C196 C194 1.391 . S
C196 C197 1.400 . S
C197 C196 1.400 . S
C197 C198 1.398 . S
C197 C203 1.491 . S
C198 H189 0.950 . S
C198 C197 1.398 . S
C198 C199 1.391 . S
C199 H187 0.950 . S
C199 C195 1.393 . S
C199 C198 1.391 . S
C200 H190 0.950 . S
C200 C201 1.386 . S
C200 C202 1.391 . S
C201 C200 1.386 . S
C201 C205 1.393 . S
C202 H191 0.950 . S
C202 C200 1.391 . S
C202 C203 1.400 . S
C203 C197 1.491 . S
C203 C202 1.400 . S
C203 C204 1.398 . S
C204 H192 0.950 . S
C204 C203 1.398 . S
C204 C205 1.391 . S
C205 H193 0.950 . S
C205 C201 1.393 . S
C205 C204 1.391 . S
H206 C214 0.950 . S
H207 C219 0.950 . S
H208 C216 0.950 . S
H209 C218 0.950 . S
H210 C220 0.950 . S
H211 C222 0.950 . S
H212 C224 0.950 . S
H213 C225 0.950 . S
C214 H206 0.950 . S
C214 C215 1.386 . S
C214 C216 1.391 . S
C215 C214 1.386 . S
C215 C219 1.393 . S
C216 H208 0.950 . S
C216 C214 1.391 . S
C216 C217 1.400 . S
C217 C216 1.400 . S
C217 C218 1.398 . S
C217 C223 1.491 . S
C218 H209 0.950 . S
C218 C217 1.398 . S
C218 C219 1.391 . S
C219 H207 0.950 . S
C219 C215 1.393 . S
C219 C218 1.391 . S
C220 H210 0.950 . S
C220 C221 1.386 . S
C220 C222 1.391 . S
C221 C220 1.386 . S
C221 C225 1.393 . S
C222 H211 0.950 . S
C222 C220 1.391 . S
C222 C223 1.400 . S
C223 C217 1.491 . S
C223 C222 1.400 . S
C223 C224 1.398 . S
C224 H212 0.950 . S
C224 C223 1.398 . S
C224 C225 1.391 . S
C225 H213 0.950 . S
C225 C221 1.393 . S
C225 C224 1.391 . S
H226 C234 0.950 . S
H227 C239 0.950 . S
H228 C236 0.950 . S
H229 C238 0.950 . S
H230 C240 0.950 . S
H231 C242 0.950 . S
H232 C244 0.950 . S
H233 C245 0.950 . S
C234 H226 0.950 . S
C234 C235 1.386 . S
C234 C236 1.391 . S
C235 C234 1.386 . S
C235 C239 1.393 . S
C236 H228 0.950 . S
C236 C234 1.391 . S
C236 C237 1.400 . S
C237 C236 1.400 . S
C237 C238 1.398 . S
C237 C243 1.491 . S
C238 H229 0.950 . S
C238 C237 1.398 . S
C238 C239 1.391 . S
C239 H227 0.950 . S
C239 C235 1.393 . S
C239 C238 1.391 . S
C240 H230 0.950 . S
C240 C241 1.386 . S
C240 C242 1.391 . S
C241 C240 1.386 . S
C241 C245 1.393 . S
C242 H231 0.950 . S
C242 C240 1.391 . S
C242 C243 1.400 . S
C243 C237 1.491 . S
C243 C242 1.400 . S
C243 C244 1.398 . S
C244 H232 0.950 . S
C244 C243 1.398 . S
C244 C245 1.391 . S
C245 H233 0.950 . S
C245 C241 1.393 . S
C245 C244 1.391 . S
H246 C254 0.950 1_655 S
H247 C259 0.950 . S
H248 C256 0.950 1_655 S
H249 C258 0.950 . S
H250 C260 0.950 . S
H251 C262 0.950 . S
H252 C264 0.950 1_655 S
H253 C265 0.950 1_655 S
C254 H246 0.950 1_455 S
C254 C255 1.385 . S
C254 C256 1.391 . S
C255 C254 1.385 . S
C255 C259 1.393 1_565 S
C256 H248 0.950 1_455 S
C256 C254 1.391 . S
C256 C257 1.400 . S
C257 C256 1.400 . S
C257 C258 1.398 1_565 S
C257 C263 1.491 . S
C258 H249 0.950 . S
C258 C257 1.398 1_545 S
C258 C259 1.391 . S
C259 H247 0.950 . S
C259 C255 1.393 1_545 S
C259 C258 1.391 . S
C260 H250 0.950 . S
C260 C261 1.386 1_545 S
C260 C262 1.391 . S
C261 C260 1.386 1_565 S
C261 C265 1.393 . S
C262 H251 0.950 . S
C262 C260 1.391 . S
C262 C263 1.400 1_545 S
C263 C257 1.491 . S
C263 C262 1.400 1_565 S
C263 C264 1.398 . S
C264 H252 0.950 1_455 S
C264 C263 1.398 . S
C264 C265 1.391 . S
C265 H253 0.950 1_455 S
C265 C261 1.393 . S
C265 C264 1.391 . S
H266 C274 0.950 1_565 S
H267 C279 0.950 . S
H268 C276 0.950 1_565 S
H269 C278 0.950 . S
H270 C280 0.950 . S
H271 C282 0.950 . S
H272 C284 0.950 1_565 S
H273 C285 0.950 1_565 S
C274 H266 0.950 1_545 S
C274 C275 1.386 1_655 S
C274 C276 1.391 . S
C275 C274 1.386 1_455 S
C275 C279 1.393 . S
C276 H268 0.950 1_545 S
C276 C274 1.391 . S
C276 C277 1.400 1_655 S
C277 C276 1.400 1_455 S
C277 C278 1.398 . S
C277 C283 1.491 . S
C278 H269 0.950 . S
C278 C277 1.398 . S
C278 C279 1.391 . S
C279 H267 0.950 . S
C279 C275 1.393 . S
C279 C278 1.391 . S
C280 H270 0.950 . S
C280 C281 1.386 1_455 S
C280 C282 1.391 . S
C281 C280 1.386 1_655 S
C281 C285 1.393 . S
C282 H271 0.950 . S
C282 C280 1.391 . S
C282 C283 1.400 . S
C283 C277 1.491 . S
C283 C282 1.400 . S
C283 C284 1.398 1_455 S
C284 H272 0.950 1_545 S
C284 C283 1.398 1_655 S
C284 C285 1.391 . S
C285 H273 0.950 1_545 S
C285 C281 1.393 . S
C285 C284 1.391 . S
H286 C294 0.950 . S
H287 C299 0.950 . S
H288 C296 0.950 . S
H289 C298 0.950 . S
H290 C300 0.950 . S
H291 C302 0.950 . S
H292 C304 0.950 . S
H293 C305 0.950 . S
C294 H286 0.950 . S
C294 C295 1.386 . S
C294 C296 1.391 . S
C295 C294 1.386 . S
C295 C299 1.393 . S
C296 H288 0.950 . S
C296 C294 1.391 . S
C296 C297 1.400 . S
C297 C296 1.400 . S
C297 C298 1.398 . S
C297 C303 1.491 . S
C298 H289 0.950 . S
C298 C297 1.398 . S
C298 C299 1.391 . S
C299 H287 0.950 . S
C299 C295 1.393 . S
C299 C298 1.391 . S
C300 H290 0.950 . S
C300 C301 1.386 . S
C300 C302 1.391 . S
C301 C300 1.386 . S
C301 C305 1.393 . S
C302 H291 0.950 . S
C302 C300 1.391 . S
C302 C303 1.400 . S
C303 C297 1.491 . S
C303 C302 1.400 . S
C303 C304 1.398 . S
C304 H292 0.950 . S
C304 C303 1.398 . S
C304 C305 1.391 . S
C305 H293 0.950 . S
C305 C301 1.393 . S
C305 C304 1.391 . S
H306 C314 0.950 . S
H307 C319 0.950 . S
H308 C316 0.950 . S
H309 C318 0.950 . S
H310 C320 0.950 . S
H311 C322 0.950 . S
H312 C324 0.950 . S
H313 C325 0.950 . S
C314 H306 0.950 . S
C314 C315 1.386 . S
C314 C316 1.391 . S
C315 C314 1.386 . S
C315 C319 1.393 . S
C316 H308 0.950 . S
C316 C314 1.391 . S
C316 C317 1.400 . S
C317 C316 1.400 . S
C317 C318 1.398 . S
C317 C323 1.491 . S
C318 H309 0.950 . S
C318 C317 1.398 . S
C318 C319 1.391 . S
C319 H307 0.950 . S
C319 C315 1.393 . S
C319 C318 1.391 . S
C320 H310 0.950 . S
C320 C321 1.386 . S
C320 C322 1.391 . S
C321 C320 1.386 . S
C321 C325 1.393 . S
C322 H311 0.950 . S
C322 C320 1.391 . S
C322 C323 1.400 . S
C323 C317 1.491 . S
C323 C322 1.400 . S
C323 C324 1.398 . S
C324 H312 0.950 . S
C324 C323 1.398 . S
C324 C325 1.391 . S
C325 H313 0.950 . S
C325 C321 1.393 . S
C325 C324 1.391 . S
C101 C79 1.439 . S
C95 C16 1.337 . S
C115 C15 1.423 . S
C121 C74 1.422 . S
C135 C13 1.258 1_554 S
C141 C85 1.428 . S
C155 C14 1.431 . S
C161 C68 1.444 . S
C175 C37 1.292 . S
C181 C57 1.461 . S
C195 C36 1.435 . S
C201 C52 1.403 . S
C221 C63 1.418 . S
C215 C34 1.270 . S
C241 C46 1.455 . S
C235 C35 1.427 . S
C255 C17 1.580 1_565 S
C261 C47 1.617 . S
C275 C18 1.387 . S
C281 C58 1.412 . S
C301 C69 1.613 . S
C295 C38 1.576 . S
C315 C39 1.391 . S
C321 C80 1.425 . S
