# Generated by pormake.
# Topology rtl, (3,6)-cn, num edge types: 1
# Building blocks:
#     Node 0, Type 0, BuildingBlock: BETDIP_clean_linker_0, # of connection points: 3
#     Node 1, Type 0, BuildingBlock: BETDIP_clean_linker_0, # of connection points: 3
#     Node 2, Type 0, BuildingBlock: BETDIP_clean_linker_0, # of connection points: 3
#     Node 3, Type 0, BuildingBlock: BETDIP_clean_linker_0, # of connection points: 3
#     Node 4, Type 1, BuildingBlock: FUNLAD_clean_sbu_0, # of connection points: 6
#     Node 5, Type 1, BuildingBlock: FUNLAD_clean_sbu_0, # of connection points: 6
#     Edge 6, Type (0, 1), BuildingBlock: UVAHIK_clean_linker_0, # of connection points: 2
#     Edge 7, Type (0, 1), BuildingBlock: UVAHIK_clean_linker_0, # of connection points: 2
#     Edge 8, Type (0, 1), BuildingBlock: UVAHIK_clean_linker_0, # of connection points: 2
#     Edge 9, Type (0, 1), BuildingBlock: UVAHIK_clean_linker_0, # of connection points: 2
#     Edge 10, Type (0, 1), BuildingBlock: UVAHIK_clean_linker_0, # of connection points: 2
#     Edge 11, Type (0, 1), BuildingBlock: UVAHIK_clean_linker_0, # of connection points: 2
#     Edge 12, Type (0, 1), BuildingBlock: UVAHIK_clean_linker_0, # of connection points: 2
#     Edge 13, Type (0, 1), BuildingBlock: UVAHIK_clean_linker_0, # of connection points: 2
#     Edge 14, Type (0, 1), BuildingBlock: UVAHIK_clean_linker_0, # of connection points: 2
#     Edge 15, Type (0, 1), BuildingBlock: UVAHIK_clean_linker_0, # of connection points: 2
#     Edge 16, Type (0, 1), BuildingBlock: UVAHIK_clean_linker_0, # of connection points: 2
#     Edge 17, Type (0, 1), BuildingBlock: UVAHIK_clean_linker_0, # of connection points: 2
# Relax obj value: 0.002
# Max RMSD: 0.051
# Mean RMSD: 0.036
data_MOF--net-rtl--node1-FUNLAD_clean_sbu_0--node2-BETDIP_clean_linker_0--edge1-UVAHIK_clean_linker_0
_symmetry_space_group_name_H-M    P1
_symmetry_Int_Tables_number       1
_symmetry_cell_setting            triclinic
loop_
_symmetry_equiv_pos_as_xyz
'x, y, z'
_cell_length_a     51.286025
_cell_length_b     51.144061
_cell_length_c     27.467325
_cell_angle_alpha  90.927711
_cell_angle_beta   91.90266
_cell_angle_gamma 90.082395
loop_
_atom_site_label
_atom_site_type_symbol
_atom_site_fract_x
_atom_site_fract_y
_atom_site_fract_z
_atom_type_partial_charge
H0 H 0.18976 0.82016 0.92999 0.0
H1 H 0.19056 0.81861 0.08701 0.0
H2 H 0.12932 0.85861 0.00866 0.0
H3 H 0.23214 0.80599 0.0794 0.0
C4 C 0.23221 0.79458 0.04574 0.0
C5 C 0.18121 0.82569 0.96422 0.0
C6 C 0.15811 0.84031 0.96418 0.0
C7 C 0.19314 0.81768 0.00814 0.0
C8 C 0.18198 0.82486 0.05264 0.0
C9 C 0.15884 0.83949 0.05281 0.0
C10 C 0.14695 0.84693 0.00853 0.0
N11 N 0.21537 0.80121 0.00575 0.0
H12 H 0.68423 0.68814 0.61599 0.0
H13 H 0.68244 0.68596 0.45893 0.0
H14 H 0.62169 0.64881 0.53637 0.0
H15 H 0.72562 0.69356 0.47001 0.0
C16 C 0.72658 0.70712 0.50086 0.0
C17 C 0.6749 0.68208 0.58164 0.0
C18 C 0.65147 0.66787 0.58131 0.0
C19 C 0.68636 0.68866 0.53782 0.0
C20 C 0.67423 0.68069 0.49321 0.0
C21 C 0.65079 0.66647 0.49257 0.0
C22 C 0.63946 0.66036 0.5367 0.0
N23 N 0.70939 0.70418 0.53994 0.0
H24 H 0.80961 0.18795 0.91758 0.0
H25 H 0.81511 0.18953 0.07471 0.0
H26 H 0.86093 0.13501 0.99384 0.0
H27 H 0.80309 0.23181 0.06389 0.0
C28 C 0.7888 0.23072 0.03384 0.0
C29 C 0.81792 0.18058 0.95146 0.0
C30 C 0.83593 0.16 0.95062 0.0
C31 C 0.81049 0.19168 -0.00407 0.0
C32 C 0.82103 0.18173 0.03993 0.0
C33 C 0.83948 0.16154 0.03912 0.0
C34 C 0.84675 0.15073 0.99447 0.0
N35 N 0.792 0.21235 0.99513 0.0
H36 H 0.31397 0.30731 0.42385 0.0
H37 H 0.31544 0.30958 0.58081 0.0
H38 H 0.374 0.35033 0.50357 0.0
H39 H 0.27226 0.3001 0.56867 0.0
C40 C 0.2721 0.28648 0.53791 0.0
C41 C 0.32293 0.31391 0.45818 0.0
C42 C 0.34541 0.32959 0.45848 0.0
C43 C 0.31183 0.30668 0.50194 0.0
C44 C 0.32341 0.31532 0.5466 0.0
C45 C 0.34603 0.33084 0.54727 0.0
C46 C 0.35697 0.33772 0.50315 0.0
N47 N 0.28967 0.28993 0.4996 0.0
C48 C 0.02422 0.97214 0.43249 0.0
N49 N 0.04016 0.04309 0.50663 0.0
C50 C 0.06586 0.03648 0.50698 0.0
C51 C 0.08509 0.05587 0.50929 0.0
C52 C 0.07781 0.08231 0.51171 0.0
C53 C 0.05115 0.08856 0.51136 0.0
C54 C 0.03258 0.06856 0.50858 0.0
Zn55 Zn 0.01232 0.01436 0.50354 0.0
C56 C 0.97001 0.02592 0.42981 0.0
N57 N 0.95356 0.955 0.49753 0.0
C58 C 0.96148 0.92962 0.49681 0.0
C59 C 0.92779 0.96128 0.49749 0.0
C60 C 0.90884 0.94162 0.49722 0.0
C61 C 0.91647 0.91523 0.49696 0.0
C62 C 0.94321 0.90938 0.49645 0.0
Zn63 Zn 0.98125 0.98383 0.50025 0.0
O64 O 0.03352 0.99329 0.45083 0.0
C65 C 0.02362 0.97229 0.57393 0.0
O66 O 0.00228 0.9639 0.44609 0.0
H67 H 0.92192 0.98158 0.49817 0.0
H68 H 0.07148 0.01611 0.50565 0.0
H69 H 0.98206 0.92504 0.49678 0.0
O70 O 0.03255 0.99391 0.55947 0.0
O71 O 0.00233 0.96347 0.55522 0.0
H72 H 0.01205 0.07341 0.50798 0.0
O73 O 0.96071 0.00405 0.55417 0.0
O74 O 0.99045 0.03496 0.55644 0.0
O75 O 0.96052 0.00482 0.4456 0.0
O76 O 0.9918 0.03423 0.44726 0.0
C77 C 0.96911 0.0258 0.57126 0.0
H78 H 0.10545 0.05023 0.50995 0.0
H79 H 0.04472 0.10871 0.51261 0.0
H80 H 0.88846 0.94705 0.49817 0.0
H81 H 0.95 0.88934 0.49548 0.0
C82 C 0.47218 0.47247 0.94469 0.0
N83 N 0.54295 0.45884 0.02147 0.0
C84 C 0.53682 0.43298 0.01747 0.0
C85 C 0.55648 0.41413 0.01788 0.0
C86 C 0.5827 0.42194 0.02279 0.0
C87 C 0.58847 0.44875 0.02699 0.0
C88 C 0.56821 0.46696 0.02608 0.0
Zn89 Zn 0.51366 0.48589 0.02063 0.0
C90 C 0.52348 0.5293 0.95395 0.0
N91 N 0.45172 0.54158 0.01869 0.0
C92 C 0.42609 0.53465 0.01522 0.0
C93 C 0.45908 0.56713 0.02199 0.0
C94 C 0.44041 0.58688 0.02195 0.0
C95 C 0.41379 0.58042 0.01828 0.0
C96 C 0.40669 0.55386 0.01496 0.0
Zn97 Zn 0.48058 0.51404 0.01939 0.0
O98 O 0.49419 0.46525 0.9624 0.0
C99 C 0.47065 0.47066 0.08592 0.0
O100 O 0.46152 0.49295 0.96165 0.0
H101 H 0.47954 0.57225 0.02485 0.0
H102 H 0.51661 0.42694 0.01406 0.0
H103 H 0.42068 0.51421 0.01259 0.0
O104 O 0.49302 0.46376 0.07177 0.0
O105 O 0.46041 0.49156 0.0698 0.0
H106 H 0.57267 0.48761 0.029 0.0
O107 O 0.50004 0.53465 0.0777 0.0
O108 O 0.53266 0.50698 0.07836 0.0
O109 O 0.50116 0.53607 0.96837 0.0
O110 O 0.53383 0.50844 0.96995 0.0
C111 C 0.52203 0.52743 0.09537 0.0
H112 H 0.55118 0.39364 0.0151 0.0
H113 H 0.60845 0.4556 0.0303 0.0
H114 H 0.44681 0.60704 0.02546 0.0
H115 H 0.38641 0.54799 0.01162 0.0
C116 C 0.25262 0.24611 0.49813 0.0
C117 C 0.25213 0.26559 0.53475 0.0
C118 C 0.23382 0.22628 0.49601 0.0
C119 C 0.16758 0.2105 0.53308 0.0
H120 H 0.18903 0.13856 0.51308 0.0
C121 C 0.09552 0.12438 0.54756 0.0
C122 C 0.09787 0.10326 0.51467 0.0
C123 C 0.11441 0.14412 0.5504 0.0
C124 C 0.18263 0.15856 0.51801 0.0
H125 H 0.23175 0.27969 0.59772 0.0
H126 H 0.19867 0.24509 0.59382 0.0
H127 H 0.22175 0.17322 0.51679 0.0
H128 H 0.12164 0.08645 0.45844 0.0
H129 H 0.15437 0.1211 0.46265 0.0
H130 H 0.12846 0.19602 0.53351 0.0
C131 C 0.21352 0.24522 0.56668 0.0
C132 C 0.20141 0.17841 0.52027 0.0
C133 C 0.23248 0.26493 0.56906 0.0
C134 C 0.11948 0.10232 0.48458 0.0
C135 C 0.13827 0.12216 0.48713 0.0
C136 C 0.14877 0.19068 0.53043 0.0
C137 C 0.21405 0.22564 0.53022 0.0
C138 C 0.19409 0.20458 0.52788 0.0
C139 C 0.13601 0.14331 0.52013 0.0
C140 C 0.15605 0.16444 0.52291 0.0
H141 H 0.26758 0.24605 0.47121 0.0
H142 H 0.23457 0.21158 0.46725 0.0
H143 H 0.16133 0.23054 0.53836 0.0
H144 H 0.07926 0.12545 0.57168 0.0
H145 H 0.11224 0.15983 0.57686 0.0
C146 C 0.25022 0.75622 -0.00021 0.0
C147 C 0.25063 0.77251 0.0415 0.0
C148 C 0.26731 0.73507 -0.00333 0.0
C149 C 0.30909 0.69173 0.07246 0.0
H150 H 0.34078 0.67544 0.94943 0.0
C151 C 0.37078 0.59857 0.04435 0.0
C152 C 0.39374 0.60138 0.01833 0.0
C153 C 0.35258 0.61888 0.04613 0.0
C154 C 0.33223 0.67981 0.98415 0.0
H155 H 0.26917 0.77961 0.1124 0.0
H156 H 0.29947 0.74291 0.10667 0.0
H157 H 0.31143 0.71262 0.95539 0.0
H158 H 0.41512 0.62745 0.97245 0.0
H159 H 0.38381 0.663 0.97661 0.0
H160 H 0.33054 0.65938 0.10159 0.0
C161 C 0.28567 0.74619 0.07671 0.0
C162 C 0.31515 0.70096 0.98743 0.0
C163 C 0.26848 0.76731 0.07989 0.0
C164 C 0.39783 0.62476 0.99342 0.0
C165 C 0.37969 0.64505 -0.00471 0.0
C166 C 0.32625 0.67061 0.06922 0.0
C167 C 0.28524 0.72977 0.03507 0.0
C168 C 0.30339 0.70721 0.03164 0.0
C169 C 0.35693 0.64244 0.02192 0.0
C170 C 0.33809 0.66444 0.02505 0.0
H171 H 0.23654 0.75959 0.96967 0.0
H172 H 0.26616 0.72261 0.9644 0.0
H173 H 0.30013 0.69579 0.10693 0.0
H174 H 0.36712 0.58091 0.06426 0.0
H175 H 0.33509 0.61609 0.06647 0.0
C176 C 0.74789 0.74675 0.54014 0.0
C177 C 0.74643 0.72814 0.50198 0.0
C178 C 0.76632 0.7669 0.5399 0.0
C179 C 0.80832 0.80316 0.45729 0.0
H180 H 0.84436 0.82501 0.57748 0.0
C181 C 0.87323 0.89561 0.47024 0.0
C182 C 0.89675 0.89392 0.49778 0.0
C183 C 0.85479 0.87547 0.47094 0.0
C184 C 0.83462 0.81902 0.54353 0.0
H185 H 0.76307 0.71578 0.434 0.0
H186 H 0.79558 0.75074 0.43383 0.0
H187 H 0.81305 0.78916 0.57824 0.0
H188 H 0.9191 0.86984 0.54828 0.0
H189 H 0.88726 0.8345 0.54859 0.0
H190 H 0.83033 0.83262 0.42238 0.0
C191 C 0.78227 0.75005 0.46357 0.0
C192 C 0.81643 0.79867 0.54407 0.0
C193 C 0.7638 0.72993 0.4638 0.0
C194 C 0.90134 0.87165 0.52615 0.0
C195 C 0.88293 0.85152 0.52682 0.0
C196 C 0.82653 0.8235 0.45674 0.0
C197 C 0.78368 0.76884 0.50153 0.0
C198 C 0.80307 0.79047 0.50095 0.0
C199 C 0.85943 0.85317 0.49922 0.0
C200 C 0.83991 0.83167 0.49985 0.0
H201 H 0.73465 0.74597 0.56999 0.0
H202 H 0.76664 0.78124 0.56936 0.0
H203 H 0.79816 0.79755 0.42353 0.0
H204 H 0.86917 0.91238 0.44764 0.0
H205 H 0.83677 0.8775 0.44966 0.0
C206 C 0.76681 0.27012 0.0674 0.0
C207 C 0.76748 0.25012 0.03191 0.0
C208 C 0.74687 0.28871 0.06613 0.0
C209 C 0.67983 0.29957 0.01943 0.0
H210 H 0.69679 0.37292 0.03994 0.0
C211 C 0.60323 0.38094 0.99061 0.0
C212 C 0.60391 0.40223 0.02361 0.0
C213 C 0.62322 0.36239 0.99134 0.0
C214 C 0.69165 0.35249 0.03477 0.0
H215 H 0.74771 0.23363 0.9674 0.0
H216 H 0.71284 0.26609 0.96522 0.0
H217 H 0.73154 0.34045 0.04209 0.0
H218 H 0.62585 0.42054 0.08379 0.0
H219 H 0.66056 0.38802 0.08556 0.0
H220 H 0.63993 0.31149 0.01267 0.0
C221 C 0.72769 0.26737 0.99414 0.0
C222 C 0.71159 0.3339 0.03591 0.0
C223 C 0.74774 0.24888 -0.00477 0.0
C224 C 0.62497 0.40454 0.05744 0.0
C225 C 0.64489 0.38592 0.05838 0.0
C226 C 0.65986 0.31814 0.01857 0.0
C227 C 0.72709 0.28752 0.0295 0.0
C228 C 0.70589 0.30725 0.02822 0.0
C229 C 0.64428 0.36463 0.02529 0.0
C230 C 0.66553 0.34484 0.02619 0.0
H231 H 0.78177 0.27141 0.09614 0.0
H232 H 0.74676 0.30383 0.0942 0.0
H233 H 0.6748 0.27912 0.01403 0.0
H234 H 0.58743 0.37883 0.96367 0.0
H235 H 0.62233 0.34651 0.96479 0.0
C236 C 0.12053 0.84257 0.10606 0.0
C237 C 0.14697 0.84773 0.09885 0.0
C238 C 0.10813 0.85346 0.14599 0.0
C239 C 0.11951 0.88939 0.26408 0.0
H240 H 0.04964 0.915 0.23505 0.0
C241 C 0.065 0.96307 0.38729 0.0
C242 C 0.03886 0.957 0.39616 0.0
C243 C 0.07883 0.94845 0.3533 0.0
C244 C 0.06904 0.90775 0.24384 0.0
H245 H 0.18154 0.86742 0.12819 0.0
H246 H 0.15976 0.88719 0.19752 0.0
H247 H 0.07279 0.8911 0.17274 0.0
H248 H 0.00674 0.9308 0.37647 0.0
H249 H 0.03078 0.90559 0.31674 0.0
H250 H 0.11577 0.90696 0.33497 0.0
C251 C 0.14864 0.8743 0.17302 0.0
C252 C 0.08231 0.8939 0.20823 0.0
C253 C 0.16115 0.86304 0.13334 0.0
C254 C 0.02684 0.93603 0.37039 0.0
C255 C 0.04056 0.92163 0.33609 0.0
C256 C 0.10628 0.90354 0.29961 0.0
C257 C 0.1218 0.87017 0.17913 0.0
C258 C 0.10768 0.88443 0.21788 0.0
C259 C 0.06667 0.9277 0.32717 0.0
C260 C 0.08089 0.91277 0.28981 0.0
H261 H 0.10929 0.8306 0.08007 0.0
H262 H 0.08764 0.84924 0.15024 0.0
H263 H 0.13889 0.88217 0.27298 0.0
H264 H 0.07484 0.97904 0.40672 0.0
H265 H 0.09888 0.95366 0.34682 0.0
C266 C 0.65449 0.64486 0.66092 0.0
C267 C 0.63985 0.65955 0.62711 0.0
C268 C 0.6424 0.63349 0.70031 0.0
C269 C 0.57679 0.61206 0.7356 0.0
H270 H 0.61148 0.60007 0.86082 0.0
C271 C 0.52415 0.56632 0.89559 0.0
C272 C 0.53725 0.54571 0.91915 0.0
C273 C 0.53699 0.58174 0.86241 0.0
C274 C 0.60164 0.60321 0.8259 0.0
H275 H 0.60169 0.67545 0.60936 0.0
H276 H 0.58073 0.65658 0.67906 0.0
H277 H 0.63333 0.62581 0.79996 0.0
H278 H 0.57425 0.52545 0.92705 0.0
H279 H 0.59674 0.55262 0.86915 0.0
H280 H 0.54505 0.58966 0.76175 0.0
C281 C 0.6013 0.65295 0.67446 0.0
C282 C 0.61414 0.6179 0.79099 0.0
C283 C 0.6133 0.66396 0.63478 0.0
C284 C 0.5636 0.54111 0.90932 0.0
C285 C 0.57653 0.55676 0.87649 0.0
C286 C 0.56422 0.59766 0.77063 0.0
C287 C 0.61549 0.63688 0.70688 0.0
C288 C 0.60192 0.6224 0.74527 0.0
C289 C 0.56328 0.57709 0.85245 0.0
C290 C 0.57656 0.59296 0.816 0.0
H291 H 0.67496 0.64101 0.65544 0.0
H292 H 0.65393 0.62107 0.72418 0.0
H293 H 0.56698 0.61451 0.70046 0.0
H294 H 0.50387 0.57042 0.90246 0.0
H295 H 0.52638 0.59744 0.84467 0.0
C296 C 0.87885 0.1528 0.09148 0.0
C297 C 0.85168 0.15159 0.0845 0.0
C298 C 0.89099 0.14097 0.13158 0.0
C299 C 0.87854 0.11035 0.251 0.0
H300 H 0.94458 0.07647 0.22664 0.0
C301 C 0.92926 0.03596 0.38083 0.0
C302 C 0.95583 0.04082 0.3917 0.0
C303 C 0.91589 0.05032 0.34504 0.0
C304 C 0.92623 0.08599 0.23402 0.0
H305 H 0.81568 0.13774 0.11385 0.0
H306 H 0.83688 0.11612 0.18342 0.0
H307 H 0.92229 0.10025 0.16164 0.0
H308 H 0.98922 0.06443 0.3736 0.0
H309 H 0.96597 0.08905 0.3104 0.0
H310 H 0.88236 0.09509 0.32321 0.0
C311 C 0.84887 0.12675 0.15874 0.0
C312 C 0.91349 0.09979 0.19691 0.0
C313 C 0.83668 0.13902 0.11892 0.0
C314 C 0.96877 0.06023 0.36604 0.0
C315 C 0.95551 0.07426 0.32979 0.0
C316 C 0.89115 0.09617 0.28798 0.0
C317 C 0.87625 0.12716 0.16506 0.0
C318 C 0.88958 0.11237 0.20496 0.0
C319 C 0.92897 0.06945 0.31898 0.0
C320 C 0.9152 0.08405 0.27985 0.0
H321 H 0.89072 0.1626 0.06541 0.0
H322 H 0.91201 0.14238 0.1359 0.0
H323 H 0.86033 0.12001 0.25876 0.0
H324 H 0.91876 0.0212 0.40017 0.0
H325 H 0.89546 0.04616 0.33711 0.0
C326 C 0.34311 0.35498 0.62688 0.0
C327 C 0.35804 0.34086 0.59363 0.0
C328 C 0.35515 0.36738 0.66748 0.0
C329 C 0.42016 0.39218 0.70993 0.0
H330 H 0.38636 0.40158 0.83318 0.0
C331 C 0.47257 0.43713 0.88064 0.0
C332 C 0.45896 0.45683 0.90541 0.0
C333 C 0.46006 0.42214 0.84386 0.0
C334 C 0.39593 0.3992 0.79883 0.0
H335 H 0.39683 0.32719 0.57793 0.0
H336 H 0.41778 0.34788 0.64964 0.0
H337 H 0.36494 0.37548 0.76814 0.0
H338 H 0.42148 0.47604 0.9114 0.0
H339 H 0.39958 0.44958 0.84731 0.0
H340 H 0.4513 0.41557 0.74103 0.0
C341 C 0.39695 0.35029 0.64371 0.0
C342 C 0.38366 0.38431 0.7615 0.0
C343 C 0.38497 0.33824 0.60285 0.0
C344 C 0.43252 0.46108 0.89284 0.0
C345 C 0.41993 0.44584 0.85644 0.0
C346 C 0.43252 0.40676 0.7474 0.0
C347 C 0.38233 0.36561 0.67589 0.0
C348 C 0.39559 0.38068 0.71648 0.0
C349 C 0.43362 0.42629 0.83148 0.0
C350 C 0.4205 0.41051 0.79212 0.0
H351 H 0.32232 0.35745 0.62026 0.0
H352 H 0.34327 0.3792 0.69109 0.0
H353 H 0.4297 0.39039 0.67547 0.0
H354 H 0.49294 0.43334 0.88952 0.0
H355 H 0.47101 0.40706 0.82541 0.0
C356 C 0.61159 0.6605 0.43698 0.0
C357 C 0.63841 0.65691 0.44622 0.0
C358 C 0.59923 0.64895 0.39601 0.0
C359 C 0.61152 0.61476 0.278 0.0
H360 H 0.54317 0.58506 0.29836 0.0
C361 C 0.56168 0.53854 0.14735 0.0
C362 C 0.53532 0.54306 0.13457 0.0
C363 C 0.57438 0.55376 0.18362 0.0
C364 C 0.56214 0.59346 0.29201 0.0
H365 H 0.67353 0.63908 0.4195 0.0
H366 H 0.65191 0.61824 0.34849 0.0
H367 H 0.56526 0.60984 0.36392 0.0
H368 H 0.50158 0.56701 0.14992 0.0
H369 H 0.52371 0.59328 0.21381 0.0
H370 H 0.60852 0.59748 0.20638 0.0
C371 C 0.64043 0.63044 0.37217 0.0
C372 C 0.57479 0.6078 0.32948 0.0
C373 C 0.65285 0.64232 0.41288 0.0
C374 C 0.52189 0.56301 0.15899 0.0
C375 C 0.53451 0.578 0.19564 0.0
C376 C 0.59896 0.60013 0.24069 0.0
C377 C 0.61335 0.6332 0.36373 0.0
C378 C 0.59965 0.61866 0.32301 0.0
C379 C 0.56089 0.57357 0.2082 0.0
C380 C 0.57416 0.58934 0.24739 0.0
H381 H 0.6001 0.67193 0.46195 0.0
H382 H 0.57849 0.65206 0.39006 0.0
H383 H 0.63046 0.62312 0.27143 0.0
H384 H 0.57259 0.52337 0.12907 0.0
H385 H 0.59467 0.54979 0.19293 0.0
C386 C 0.84003 0.12118 0.89583 0.0
C387 C 0.84403 0.14799 0.9044 0.0
C388 C 0.85095 0.10872 0.85584 0.0
C389 C 0.88514 0.12028 0.74019 0.0
H390 H 0.91335 0.05144 0.76678 0.0
C391 C 0.95963 0.06672 0.61894 0.0
C392 C 0.95395 0.04038 0.60756 0.0
C393 C 0.94493 0.08048 0.65283 0.0
C394 C 0.90539 0.07056 0.75869 0.0
H395 H 0.86176 0.18313 0.87778 0.0
H396 H 0.88171 0.1613 0.80843 0.0
H397 H 0.88934 0.07444 0.82905 0.0
H398 H 0.92843 0.00782 0.6227 0.0
H399 H 0.90315 0.03174 0.68242 0.0
H400 H 0.9022 0.11646 0.67013 0.0
C401 C 0.86961 0.1499 0.83173 0.0
C402 C 0.89146 0.08372 0.79425 0.0
C403 C 0.85827 0.16244 0.87142 0.0
C404 C 0.93333 0.02808 0.63074 0.0
C405 C 0.91889 0.04172 0.66501 0.0
C406 C 0.89941 0.10719 0.70477 0.0
C407 C 0.86662 0.12273 0.82415 0.0
C408 C 0.88101 0.10871 0.78546 0.0
C409 C 0.92455 0.06803 0.67639 0.0
C410 C 0.90957 0.08216 0.71369 0.0
H411 H 0.82897 0.10973 0.92086 0.0
H412 H 0.84759 0.08796 0.85047 0.0
H413 H 0.87717 0.13935 0.7319 0.0
H414 H 0.97532 0.07676 0.60149 0.0
H415 H 0.94979 0.1007 0.66126 0.0
C416 C 0.34016 0.35132 0.37779 0.0
C417 C 0.35628 0.33881 0.41253 0.0
C418 C 0.35097 0.36315 0.33758 0.0
C419 C 0.40906 0.36568 0.26278 0.0
H420 H 0.39069 0.43859 0.24629 0.0
C421 C 0.46951 0.4345 0.14618 0.0
C422 C 0.4565 0.45431 0.12026 0.0
C423 C 0.45613 0.41909 0.17872 0.0
C424 C 0.39573 0.41813 0.24961 0.0
H425 H 0.39601 0.32759 0.43138 0.0
H426 H 0.41489 0.34794 0.36068 0.0
H427 H 0.36872 0.41283 0.30642 0.0
H428 H 0.4191 0.47313 0.10726 0.0
H429 H 0.39558 0.4458 0.16281 0.0
H430 H 0.43593 0.3708 0.2058 0.0
C431 C 0.39396 0.34872 0.36463 0.0
C432 C 0.38314 0.4034 0.2842 0.0
C433 C 0.3832 0.33722 0.40515 0.0
C434 C 0.42975 0.45819 0.1271 0.0
C435 C 0.41628 0.44257 0.15916 0.0
C436 C 0.42144 0.38032 0.2277 0.0
C437 C 0.37803 0.36233 0.33109 0.0
C438 C 0.38991 0.37713 0.29154 0.0
C439 C 0.42932 0.42291 0.18564 0.0
C440 C 0.41519 0.40685 0.22111 0.0
H441 H 0.31937 0.35296 0.38286 0.0
H442 H 0.33826 0.37338 0.31204 0.0
H443 H 0.41448 0.34539 0.26747 0.0
H444 H 0.49016 0.4311 0.14183 0.0
H445 H 0.46697 0.40451 0.19907 0.0
C446 C 0.11898 0.8448 0.9086 0.0
C447 C 0.14564 0.84936 0.91823 0.0
C448 C 0.10637 0.85581 0.8681 0.0
C449 C 0.11774 0.89035 0.75207 0.0
H450 H 0.04807 0.91671 0.77319 0.0
C451 C 0.06397 0.9636 0.62498 0.0
C452 C 0.03797 0.95733 0.61175 0.0
C453 C 0.07756 0.94918 0.66036 0.0
C454 C 0.06743 0.90925 0.76665 0.0
H455 H 0.18028 0.86832 0.89283 0.0
H456 H 0.15816 0.88832 0.82269 0.0
H457 H 0.07113 0.89334 0.83783 0.0
H458 H 0.00581 0.93107 0.62523 0.0
H459 H 0.02945 0.90624 0.68763 0.0
H460 H 0.1141 0.90724 0.68119 0.0
C461 C 0.14702 0.87576 0.84562 0.0
C462 C 0.08063 0.8957 0.80357 0.0
C463 C 0.15972 0.86438 0.88582 0.0
C464 C 0.02582 0.93641 0.63467 0.0
C465 C 0.03929 0.92224 0.67047 0.0
C466 C 0.10461 0.90423 0.71531 0.0
C467 C 0.12005 0.87202 0.8368 0.0
C468 C 0.10594 0.88598 0.79676 0.0
C469 C 0.06528 0.92848 0.68362 0.0
C470 C 0.07931 0.91374 0.72228 0.0
H471 H 0.1078 0.83304 0.93291 0.0
H472 H 0.08576 0.8519 0.86179 0.0
H473 H 0.13705 0.88288 0.74525 0.0
H474 H 0.07389 0.97955 0.60781 0.0
H475 H 0.09753 0.9545 0.67015 0.0
loop_
_geom_bond_atom_site_label_1
_geom_bond_atom_site_label_2
_geom_bond_distance
_geom_bond_site_symmetry_2
_ccdc_geom_bond_type
H0 C5 0.930 . S
H1 C8 0.930 . S
H2 C10 0.930 . S
H3 C4 1.016 . S
C4 H3 1.016 . S
C4 N11 1.286 . S
C5 H0 0.930 . S
C5 C6 1.397 . S
C5 C7 1.361 1_556 S
C6 C5 1.397 . S
C6 C10 1.390 1_556 S
C7 C5 1.361 1_554 S
C7 C8 1.393 . S
C7 N11 1.413 . S
C8 H1 0.930 . S
C8 C7 1.393 . S
C8 C9 1.399 . S
C9 C8 1.399 . S
C9 C10 1.381 . S
C10 H2 0.930 . S
C10 C6 1.390 1_554 S
C10 C9 1.381 . S
N11 C4 1.286 . S
N11 C7 1.413 . S
H12 C17 0.930 . S
H13 C20 0.930 . S
H14 C22 0.930 . S
H15 C16 1.016 . S
C16 H15 1.016 . S
C16 N23 1.286 . S
C17 H12 0.930 . S
C17 C18 1.397 . S
C17 C19 1.361 . S
C18 C17 1.397 . S
C18 C22 1.390 . S
C19 C17 1.361 . S
C19 C20 1.393 . S
C19 N23 1.413 . S
C20 H13 0.930 . S
C20 C19 1.393 . S
C20 C21 1.399 . S
C21 C20 1.399 . S
C21 C22 1.381 . S
C22 H14 0.930 . S
C22 C18 1.390 . S
C22 C21 1.381 . S
N23 C16 1.286 . S
N23 C19 1.413 . S
H24 C29 0.930 . S
H25 C32 0.930 . S
H26 C34 0.930 . S
H27 C28 1.016 . S
C28 H27 1.016 . S
C28 N35 1.286 1_554 S
C29 H24 0.930 . S
C29 C30 1.397 . S
C29 C31 1.361 . S
C30 C29 1.397 . S
C30 C34 1.390 1_556 S
C31 C29 1.361 . S
C31 C32 1.393 1_556 S
C31 N35 1.413 . S
C32 H25 0.930 . S
C32 C31 1.393 1_554 S
C32 C33 1.399 . S
C33 C32 1.399 . S
C33 C34 1.381 . S
C34 H26 0.930 . S
C34 C30 1.390 1_554 S
C34 C33 1.381 . S
N35 C28 1.286 1_556 S
N35 C31 1.413 . S
H36 C41 0.930 . S
H37 C44 0.930 . S
H38 C46 0.930 . S
H39 C40 1.016 . S
C40 H39 1.016 . S
C40 N47 1.286 . S
C41 H36 0.930 . S
C41 C42 1.397 . S
C41 C43 1.361 . S
C42 C41 1.397 . S
C42 C46 1.390 . S
C43 C41 1.361 . S
C43 C44 1.393 . S
C43 N47 1.413 . S
C44 H37 0.930 . S
C44 C43 1.393 . S
C44 C45 1.399 . S
C45 C44 1.399 . S
C45 C46 1.381 . S
C46 H38 0.930 . S
C46 C42 1.390 . S
C46 C45 1.381 . S
N47 C40 1.286 . S
N47 C43 1.413 . S
C48 O64 1.268 . S
C48 O66 1.254 . S
N49 C50 1.333 . S
N49 C54 1.307 . S
N49 Zn55 2.020 . S
C50 N49 1.333 . S
C50 C51 1.379 . S
C50 H68 0.952 . S
C51 C50 1.379 . S
C51 C52 1.390 . S
C51 H78 0.949 . S
C52 C51 1.390 . S
C52 C53 1.357 . S
C53 C52 1.357 . S
C53 C54 1.370 . S
C53 H79 0.950 . S
C54 N49 1.307 . S
C54 C53 1.370 . S
C54 H72 0.948 . S
Zn55 N49 2.020 . S
Zn55 O64 2.028 1_545 S
Zn55 O70 2.034 1_545 S
Zn55 O74 2.025 1_455 S
Zn55 O76 2.024 1_455 S
C56 O75 1.246 . S
C56 O76 1.249 . S
N57 C58 1.307 . S
N57 C59 1.333 . S
N57 Zn63 2.020 . S
C58 N57 1.307 . S
C58 C62 1.370 . S
C58 H69 0.948 . S
C59 N57 1.333 . S
C59 C60 1.379 . S
C59 H67 0.952 . S
C60 C59 1.379 . S
C60 C61 1.390 . S
C60 H80 0.949 . S
C61 C60 1.390 . S
C61 C62 1.357 . S
C62 C58 1.370 . S
C62 C61 1.357 . S
C62 H81 0.950 . S
Zn63 N57 2.020 . S
Zn63 O66 2.025 1_655 S
Zn63 O71 2.024 1_655 S
Zn63 O73 2.039 1_565 S
Zn63 O75 2.034 1_565 S
O64 C48 1.268 . S
O64 Zn55 2.028 1_565 S
C65 O70 1.246 . S
C65 O71 1.249 . S
O66 C48 1.254 . S
O66 Zn63 2.025 1_455 S
H67 C59 0.952 . S
H68 C50 0.952 . S
H69 C58 0.948 . S
O70 Zn55 2.034 1_565 S
O70 C65 1.246 . S
O71 Zn63 2.024 1_455 S
O71 C65 1.249 . S
H72 C54 0.948 . S
O73 Zn63 2.039 1_545 S
O73 C77 1.251 . S
O74 Zn55 2.025 1_655 S
O74 C77 1.254 . S
O75 C56 1.246 . S
O75 Zn63 2.034 1_545 S
O76 Zn55 2.024 1_655 S
O76 C56 1.249 . S
C77 O73 1.251 . S
C77 O74 1.254 . S
H78 C51 0.949 . S
H79 C53 0.950 . S
H80 C60 0.949 . S
H81 C62 0.950 . S
C82 O98 1.251 . S
C82 O100 1.254 . S
N83 C84 1.333 . S
N83 C88 1.307 . S
N83 Zn89 2.020 . S
C84 N83 1.333 . S
C84 C85 1.379 . S
C84 H102 0.952 1_554 S
C85 C84 1.379 . S
C85 C86 1.390 . S
C85 H112 0.949 1_554 S
C86 C85 1.390 . S
C86 C87 1.357 . S
C87 C86 1.357 . S
C87 C88 1.370 . S
C87 H113 0.950 . S
C88 N83 1.307 . S
C88 C87 1.370 . S
C88 H106 0.948 . S
Zn89 N83 2.020 . S
Zn89 O98 2.039 1_554 S
Zn89 O104 2.034 . S
Zn89 O108 2.025 . S
Zn89 O110 2.024 1_554 S
C90 O109 1.246 . S
C90 O110 1.249 . S
N91 C92 1.307 . S
N91 C93 1.333 . S
N91 Zn97 2.020 . S
C92 N91 1.307 . S
C92 C96 1.370 . S
C92 H103 0.948 . S
C93 N91 1.333 . S
C93 C94 1.379 . S
C93 H101 0.952 . S
C94 C93 1.379 . S
C94 C95 1.390 . S
C94 H114 0.949 . S
C95 C94 1.390 . S
C95 C96 1.357 . S
C96 C92 1.370 . S
C96 C95 1.357 . S
C96 H115 0.950 . S
Zn97 N91 2.020 . S
Zn97 O100 2.025 1_554 S
Zn97 O105 2.024 . S
Zn97 O107 2.039 . S
Zn97 O109 2.034 1_554 S
O98 C82 1.251 . S
O98 Zn89 2.039 1_556 S
C99 O104 1.246 . S
C99 O105 1.249 . S
O100 C82 1.254 . S
O100 Zn97 2.025 1_556 S
H101 C93 0.952 . S
H102 C84 0.952 1_556 S
H103 C92 0.948 . S
O104 Zn89 2.034 . S
O104 C99 1.246 . S
O105 Zn97 2.024 . S
O105 C99 1.249 . S
H106 C88 0.948 . S
O107 Zn97 2.039 . S
O107 C111 1.251 . S
O108 Zn89 2.025 . S
O108 C111 1.254 . S
O109 C90 1.246 . S
O109 Zn97 2.034 1_556 S
O110 Zn89 2.024 1_556 S
O110 C90 1.249 . S
C111 O107 1.251 . S
C111 O108 1.254 . S
H112 C85 0.949 1_556 S
H113 C87 0.950 . S
H114 C94 0.949 . S
H115 C96 0.950 . S
C116 C117 1.349 . S
C116 C118 1.327 . S
C116 H141 0.950 . S
C117 C116 1.349 . S
C117 C133 1.349 . S
C118 C116 1.327 . S
C118 C137 1.429 . S
C118 H142 0.950 . S
C119 C136 1.574 . S
C119 C138 1.368 . S
C119 H143 0.949 . S
H120 C124 0.949 . S
C121 C122 1.349 . S
C121 C123 1.327 . S
C121 H144 0.950 . S
C122 C121 1.349 . S
C122 C134 1.349 . S
C123 C121 1.327 . S
C123 C139 1.429 . S
C123 H145 0.950 . S
C124 H120 0.949 . S
C124 C132 1.574 . S
C124 C140 1.368 . S
H125 C133 0.950 . S
H126 C131 0.950 . S
H127 C132 0.949 . S
H128 C134 0.950 . S
H129 C135 0.950 . S
H130 C136 0.949 . S
C131 H126 0.950 . S
C131 C133 1.327 . S
C131 C137 1.429 . S
C132 C124 1.574 . S
C132 H127 0.949 . S
C132 C138 1.368 . S
C133 C117 1.349 . S
C133 H125 0.950 . S
C133 C131 1.327 . S
C134 C122 1.349 . S
C134 H128 0.950 . S
C134 C135 1.327 . S
C135 H129 0.950 . S
C135 C134 1.327 . S
C135 C139 1.429 . S
C136 C119 1.574 . S
C136 H130 0.949 . S
C136 C140 1.368 . S
C137 C118 1.429 . S
C137 C131 1.429 . S
C137 C138 1.523 . S
C138 C119 1.368 . S
C138 C132 1.368 . S
C138 C137 1.523 . S
C139 C123 1.429 . S
C139 C135 1.429 . S
C139 C140 1.523 . S
C140 C124 1.368 . S
C140 C136 1.368 . S
C140 C139 1.523 . S
H141 C116 0.950 . S
H142 C118 0.950 . S
H143 C119 0.949 . S
H144 C121 0.950 . S
H145 C123 0.950 . S
C146 C147 1.349 1_556 S
C146 C148 1.327 . S
C146 H171 0.950 . S
C147 C146 1.349 1_554 S
C147 C163 1.349 . S
C148 C146 1.327 . S
C148 C167 1.429 1_556 S
C148 H172 0.950 . S
C149 C166 1.574 . S
C149 C168 1.368 . S
C149 H173 0.949 . S
H150 C154 0.949 . S
C151 C152 1.349 . S
C151 C153 1.327 . S
C151 H174 0.950 . S
C152 C151 1.349 . S
C152 C164 1.349 1_554 S
C153 C151 1.327 . S
C153 C169 1.429 . S
C153 H175 0.950 . S
C154 H150 0.949 . S
C154 C162 1.574 . S
C154 C170 1.368 1_556 S
H155 C163 0.950 . S
H156 C161 0.950 . S
H157 C162 0.949 . S
H158 C164 0.950 . S
H159 C165 0.950 . S
H160 C166 0.949 . S
C161 H156 0.950 . S
C161 C163 1.327 . S
C161 C167 1.429 . S
C162 C154 1.574 . S
C162 H157 0.949 . S
C162 C168 1.368 1_556 S
C163 C147 1.349 . S
C163 H155 0.950 . S
C163 C161 1.327 . S
C164 C152 1.349 1_556 S
C164 H158 0.950 . S
C164 C165 1.327 . S
C165 H159 0.950 . S
C165 C164 1.327 . S
C165 C169 1.429 1_556 S
C166 C149 1.574 . S
C166 H160 0.949 . S
C166 C170 1.368 . S
C167 C148 1.429 1_554 S
C167 C161 1.429 . S
C167 C168 1.523 . S
C168 C149 1.368 . S
C168 C162 1.368 1_554 S
C168 C167 1.523 . S
C169 C153 1.429 . S
C169 C165 1.429 1_554 S
C169 C170 1.523 . S
C170 C154 1.368 1_554 S
C170 C166 1.368 . S
C170 C169 1.523 . S
H171 C146 0.950 . S
H172 C148 0.950 . S
H173 C149 0.949 . S
H174 C151 0.950 . S
H175 C153 0.950 . S
C176 C177 1.349 . S
C176 C178 1.327 . S
C176 H201 0.950 . S
C177 C176 1.349 . S
C177 C193 1.349 . S
C178 C176 1.327 . S
C178 C197 1.429 . S
C178 H202 0.950 . S
C179 C196 1.574 . S
C179 C198 1.368 . S
C179 H203 0.949 . S
H180 C184 0.949 . S
C181 C182 1.349 . S
C181 C183 1.327 . S
C181 H204 0.950 . S
C182 C181 1.349 . S
C182 C194 1.349 . S
C183 C181 1.327 . S
C183 C199 1.429 . S
C183 H205 0.950 . S
C184 H180 0.949 . S
C184 C192 1.574 . S
C184 C200 1.368 . S
H185 C193 0.950 . S
H186 C191 0.950 . S
H187 C192 0.949 . S
H188 C194 0.950 . S
H189 C195 0.950 . S
H190 C196 0.949 . S
C191 H186 0.950 . S
C191 C193 1.327 . S
C191 C197 1.429 . S
C192 C184 1.574 . S
C192 H187 0.949 . S
C192 C198 1.368 . S
C193 C177 1.349 . S
C193 H185 0.950 . S
C193 C191 1.327 . S
C194 C182 1.349 . S
C194 H188 0.950 . S
C194 C195 1.327 . S
C195 H189 0.950 . S
C195 C194 1.327 . S
C195 C199 1.429 . S
C196 C179 1.574 . S
C196 H190 0.949 . S
C196 C200 1.368 . S
C197 C178 1.429 . S
C197 C191 1.429 . S
C197 C198 1.523 . S
C198 C179 1.368 . S
C198 C192 1.368 . S
C198 C197 1.523 . S
C199 C183 1.429 . S
C199 C195 1.429 . S
C199 C200 1.523 . S
C200 C184 1.368 . S
C200 C196 1.368 . S
C200 C199 1.523 . S
H201 C176 0.950 . S
H202 C178 0.950 . S
H203 C179 0.949 . S
H204 C181 0.950 . S
H205 C183 0.950 . S
C206 C207 1.349 . S
C206 C208 1.327 . S
C206 H231 0.950 . S
C207 C206 1.349 . S
C207 C223 1.349 1_554 S
C208 C206 1.327 . S
C208 C227 1.429 . S
C208 H232 0.950 . S
C209 C226 1.574 . S
C209 C228 1.368 1_556 S
C209 H233 0.949 . S
H210 C214 0.949 . S
C211 C212 1.349 1_556 S
C211 C213 1.327 . S
C211 H234 0.950 . S
C212 C211 1.349 1_554 S
C212 C224 1.349 . S
C213 C211 1.327 . S
C213 C229 1.429 1_556 S
C213 H235 0.950 . S
C214 H210 0.949 . S
C214 C222 1.574 . S
C214 C230 1.368 . S
H215 C223 0.950 . S
H216 C221 0.950 . S
H217 C222 0.949 . S
H218 C224 0.950 . S
H219 C225 0.950 . S
H220 C226 0.949 . S
C221 H216 0.950 . S
C221 C223 1.327 . S
C221 C227 1.429 1_556 S
C222 C214 1.574 . S
C222 H217 0.949 . S
C222 C228 1.368 . S
C223 C207 1.349 1_556 S
C223 H215 0.950 . S
C223 C221 1.327 . S
C224 C212 1.349 . S
C224 H218 0.950 . S
C224 C225 1.327 . S
C225 H219 0.950 . S
C225 C224 1.327 . S
C225 C229 1.429 . S
C226 C209 1.574 . S
C226 H220 0.949 . S
C226 C230 1.368 1_556 S
C227 C208 1.429 . S
C227 C221 1.429 1_554 S
C227 C228 1.523 . S
C228 C209 1.368 1_554 S
C228 C222 1.368 . S
C228 C227 1.523 . S
C229 C213 1.429 1_554 S
C229 C225 1.429 . S
C229 C230 1.523 . S
C230 C214 1.368 . S
C230 C226 1.368 1_554 S
C230 C229 1.523 . S
H231 C206 0.950 . S
H232 C208 0.950 . S
H233 C209 0.949 . S
H234 C211 0.950 . S
H235 C213 0.950 . S
C236 C237 1.349 . S
C236 C238 1.327 . S
C236 H261 0.950 . S
C237 C236 1.349 . S
C237 C253 1.349 . S
C238 C236 1.327 . S
C238 C257 1.429 . S
C238 H262 0.950 . S
C239 C256 1.574 . S
C239 C258 1.368 . S
C239 H263 0.949 . S
H240 C244 0.949 . S
C241 C242 1.349 . S
C241 C243 1.327 . S
C241 H264 0.950 . S
C242 C241 1.349 . S
C242 C254 1.349 . S
C243 C241 1.327 . S
C243 C259 1.429 . S
C243 H265 0.950 . S
C244 H240 0.949 . S
C244 C252 1.574 . S
C244 C260 1.368 . S
H245 C253 0.950 . S
H246 C251 0.950 . S
H247 C252 0.949 . S
H248 C254 0.950 . S
H249 C255 0.950 . S
H250 C256 0.949 . S
C251 H246 0.950 . S
C251 C253 1.327 . S
C251 C257 1.429 . S
C252 C244 1.574 . S
C252 H247 0.949 . S
C252 C258 1.368 . S
C253 C237 1.349 . S
C253 H245 0.950 . S
C253 C251 1.327 . S
C254 C242 1.349 . S
C254 H248 0.950 . S
C254 C255 1.327 . S
C255 H249 0.950 . S
C255 C254 1.327 . S
C255 C259 1.429 . S
C256 C239 1.574 . S
C256 H250 0.949 . S
C256 C260 1.368 . S
C257 C238 1.429 . S
C257 C251 1.429 . S
C257 C258 1.523 . S
C258 C239 1.368 . S
C258 C252 1.368 . S
C258 C257 1.523 . S
C259 C243 1.429 . S
C259 C255 1.429 . S
C259 C260 1.523 . S
C260 C244 1.368 . S
C260 C256 1.368 . S
C260 C259 1.523 . S
H261 C236 0.950 . S
H262 C238 0.950 . S
H263 C239 0.949 . S
H264 C241 0.950 . S
H265 C243 0.950 . S
C266 C267 1.349 . S
C266 C268 1.327 . S
C266 H291 0.950 . S
C267 C266 1.349 . S
C267 C283 1.349 . S
C268 C266 1.327 . S
C268 C287 1.429 . S
C268 H292 0.950 . S
C269 C286 1.574 . S
C269 C288 1.368 . S
C269 H293 0.949 . S
H270 C274 0.949 . S
C271 C272 1.349 . S
C271 C273 1.327 . S
C271 H294 0.950 . S
C272 C271 1.349 . S
C272 C284 1.349 . S
C273 C271 1.327 . S
C273 C289 1.429 . S
C273 H295 0.950 . S
C274 H270 0.949 . S
C274 C282 1.574 . S
C274 C290 1.368 . S
H275 C283 0.950 . S
H276 C281 0.950 . S
H277 C282 0.949 . S
H278 C284 0.950 . S
H279 C285 0.950 . S
H280 C286 0.949 . S
C281 H276 0.950 . S
C281 C283 1.327 . S
C281 C287 1.429 . S
C282 C274 1.574 . S
C282 H277 0.949 . S
C282 C288 1.368 . S
C283 C267 1.349 . S
C283 H275 0.950 . S
C283 C281 1.327 . S
C284 C272 1.349 . S
C284 H278 0.950 . S
C284 C285 1.327 . S
C285 H279 0.950 . S
C285 C284 1.327 . S
C285 C289 1.429 . S
C286 C269 1.574 . S
C286 H280 0.949 . S
C286 C290 1.368 . S
C287 C268 1.429 . S
C287 C281 1.429 . S
C287 C288 1.523 . S
C288 C269 1.368 . S
C288 C282 1.368 . S
C288 C287 1.523 . S
C289 C273 1.429 . S
C289 C285 1.429 . S
C289 C290 1.523 . S
C290 C274 1.368 . S
C290 C286 1.368 . S
C290 C289 1.523 . S
H291 C266 0.950 . S
H292 C268 0.950 . S
H293 C269 0.949 . S
H294 C271 0.950 . S
H295 C273 0.950 . S
C296 C297 1.349 . S
C296 C298 1.327 . S
C296 H321 0.950 . S
C297 C296 1.349 . S
C297 C313 1.349 . S
C298 C296 1.327 . S
C298 C317 1.429 . S
C298 H322 0.950 . S
C299 C316 1.574 . S
C299 C318 1.368 . S
C299 H323 0.949 . S
H300 C304 0.949 . S
C301 C302 1.349 . S
C301 C303 1.327 . S
C301 H324 0.950 . S
C302 C301 1.349 . S
C302 C314 1.349 . S
C303 C301 1.327 . S
C303 C319 1.429 . S
C303 H325 0.950 . S
C304 H300 0.949 . S
C304 C312 1.574 . S
C304 C320 1.368 . S
H305 C313 0.950 . S
H306 C311 0.950 . S
H307 C312 0.949 . S
H308 C314 0.950 . S
H309 C315 0.950 . S
H310 C316 0.949 . S
C311 H306 0.950 . S
C311 C313 1.327 . S
C311 C317 1.429 . S
C312 C304 1.574 . S
C312 H307 0.949 . S
C312 C318 1.368 . S
C313 C297 1.349 . S
C313 H305 0.950 . S
C313 C311 1.327 . S
C314 C302 1.349 . S
C314 H308 0.950 . S
C314 C315 1.327 . S
C315 H309 0.950 . S
C315 C314 1.327 . S
C315 C319 1.429 . S
C316 C299 1.574 . S
C316 H310 0.949 . S
C316 C320 1.368 . S
C317 C298 1.429 . S
C317 C311 1.429 . S
C317 C318 1.523 . S
C318 C299 1.368 . S
C318 C312 1.368 . S
C318 C317 1.523 . S
C319 C303 1.429 . S
C319 C315 1.429 . S
C319 C320 1.523 . S
C320 C304 1.368 . S
C320 C316 1.368 . S
C320 C319 1.523 . S
H321 C296 0.950 . S
H322 C298 0.950 . S
H323 C299 0.949 . S
H324 C301 0.950 . S
H325 C303 0.950 . S
C326 C327 1.349 . S
C326 C328 1.327 . S
C326 H351 0.950 . S
C327 C326 1.349 . S
C327 C343 1.349 . S
C328 C326 1.327 . S
C328 C347 1.429 . S
C328 H352 0.950 . S
C329 C346 1.574 . S
C329 C348 1.368 . S
C329 H353 0.949 . S
H330 C334 0.949 . S
C331 C332 1.349 . S
C331 C333 1.327 . S
C331 H354 0.950 . S
C332 C331 1.349 . S
C332 C344 1.349 . S
C333 C331 1.327 . S
C333 C349 1.429 . S
C333 H355 0.950 . S
C334 H330 0.949 . S
C334 C342 1.574 . S
C334 C350 1.368 . S
H335 C343 0.950 . S
H336 C341 0.950 . S
H337 C342 0.949 . S
H338 C344 0.950 . S
H339 C345 0.950 . S
H340 C346 0.949 . S
C341 H336 0.950 . S
C341 C343 1.327 . S
C341 C347 1.429 . S
C342 C334 1.574 . S
C342 H337 0.949 . S
C342 C348 1.368 . S
C343 C327 1.349 . S
C343 H335 0.950 . S
C343 C341 1.327 . S
C344 C332 1.349 . S
C344 H338 0.950 . S
C344 C345 1.327 . S
C345 H339 0.950 . S
C345 C344 1.327 . S
C345 C349 1.429 . S
C346 C329 1.574 . S
C346 H340 0.949 . S
C346 C350 1.368 . S
C347 C328 1.429 . S
C347 C341 1.429 . S
C347 C348 1.523 . S
C348 C329 1.368 . S
C348 C342 1.368 . S
C348 C347 1.523 . S
C349 C333 1.429 . S
C349 C345 1.429 . S
C349 C350 1.523 . S
C350 C334 1.368 . S
C350 C346 1.368 . S
C350 C349 1.523 . S
H351 C326 0.950 . S
H352 C328 0.950 . S
H353 C329 0.949 . S
H354 C331 0.950 . S
H355 C333 0.950 . S
C356 C357 1.349 . S
C356 C358 1.327 . S
C356 H381 0.950 . S
C357 C356 1.349 . S
C357 C373 1.349 . S
C358 C356 1.327 . S
C358 C377 1.429 . S
C358 H382 0.950 . S
C359 C376 1.574 . S
C359 C378 1.368 . S
C359 H383 0.949 . S
H360 C364 0.949 . S
C361 C362 1.349 . S
C361 C363 1.327 . S
C361 H384 0.950 . S
C362 C361 1.349 . S
C362 C374 1.349 . S
C363 C361 1.327 . S
C363 C379 1.429 . S
C363 H385 0.950 . S
C364 H360 0.949 . S
C364 C372 1.574 . S
C364 C380 1.368 . S
H365 C373 0.950 . S
H366 C371 0.950 . S
H367 C372 0.949 . S
H368 C374 0.950 . S
H369 C375 0.950 . S
H370 C376 0.949 . S
C371 H366 0.950 . S
C371 C373 1.327 . S
C371 C377 1.429 . S
C372 C364 1.574 . S
C372 H367 0.949 . S
C372 C378 1.368 . S
C373 C357 1.349 . S
C373 H365 0.950 . S
C373 C371 1.327 . S
C374 C362 1.349 . S
C374 H368 0.950 . S
C374 C375 1.327 . S
C375 H369 0.950 . S
C375 C374 1.327 . S
C375 C379 1.429 . S
C376 C359 1.574 . S
C376 H370 0.949 . S
C376 C380 1.368 . S
C377 C358 1.429 . S
C377 C371 1.429 . S
C377 C378 1.523 . S
C378 C359 1.368 . S
C378 C372 1.368 . S
C378 C377 1.523 . S
C379 C363 1.429 . S
C379 C375 1.429 . S
C379 C380 1.523 . S
C380 C364 1.368 . S
C380 C376 1.368 . S
C380 C379 1.523 . S
H381 C356 0.950 . S
H382 C358 0.950 . S
H383 C359 0.949 . S
H384 C361 0.950 . S
H385 C363 0.950 . S
C386 C387 1.349 . S
C386 C388 1.327 . S
C386 H411 0.950 . S
C387 C386 1.349 . S
C387 C403 1.349 . S
C388 C386 1.327 . S
C388 C407 1.429 . S
C388 H412 0.950 . S
C389 C406 1.574 . S
C389 C408 1.368 . S
C389 H413 0.949 . S
H390 C394 0.949 . S
C391 C392 1.349 . S
C391 C393 1.327 . S
C391 H414 0.950 . S
C392 C391 1.349 . S
C392 C404 1.349 . S
C393 C391 1.327 . S
C393 C409 1.429 . S
C393 H415 0.950 . S
C394 H390 0.949 . S
C394 C402 1.574 . S
C394 C410 1.368 . S
H395 C403 0.950 . S
H396 C401 0.950 . S
H397 C402 0.949 . S
H398 C404 0.950 . S
H399 C405 0.950 . S
H400 C406 0.949 . S
C401 H396 0.950 . S
C401 C403 1.327 . S
C401 C407 1.429 . S
C402 C394 1.574 . S
C402 H397 0.949 . S
C402 C408 1.368 . S
C403 C387 1.349 . S
C403 H395 0.950 . S
C403 C401 1.327 . S
C404 C392 1.349 . S
C404 H398 0.950 . S
C404 C405 1.327 . S
C405 H399 0.950 . S
C405 C404 1.327 . S
C405 C409 1.429 . S
C406 C389 1.574 . S
C406 H400 0.949 . S
C406 C410 1.368 . S
C407 C388 1.429 . S
C407 C401 1.429 . S
C407 C408 1.523 . S
C408 C389 1.368 . S
C408 C402 1.368 . S
C408 C407 1.523 . S
C409 C393 1.429 . S
C409 C405 1.429 . S
C409 C410 1.523 . S
C410 C394 1.368 . S
C410 C406 1.368 . S
C410 C409 1.523 . S
H411 C386 0.950 . S
H412 C388 0.950 . S
H413 C389 0.949 . S
H414 C391 0.950 . S
H415 C393 0.950 . S
C416 C417 1.349 . S
C416 C418 1.327 . S
C416 H441 0.950 . S
C417 C416 1.349 . S
C417 C433 1.349 . S
C418 C416 1.327 . S
C418 C437 1.429 . S
C418 H442 0.950 . S
C419 C436 1.574 . S
C419 C438 1.368 . S
C419 H443 0.949 . S
H420 C424 0.949 . S
C421 C422 1.349 . S
C421 C423 1.327 . S
C421 H444 0.950 . S
C422 C421 1.349 . S
C422 C434 1.349 . S
C423 C421 1.327 . S
C423 C439 1.429 . S
C423 H445 0.950 . S
C424 H420 0.949 . S
C424 C432 1.574 . S
C424 C440 1.368 . S
H425 C433 0.950 . S
H426 C431 0.950 . S
H427 C432 0.949 . S
H428 C434 0.950 . S
H429 C435 0.950 . S
H430 C436 0.949 . S
C431 H426 0.950 . S
C431 C433 1.327 . S
C431 C437 1.429 . S
C432 C424 1.574 . S
C432 H427 0.949 . S
C432 C438 1.368 . S
C433 C417 1.349 . S
C433 H425 0.950 . S
C433 C431 1.327 . S
C434 C422 1.349 . S
C434 H428 0.950 . S
C434 C435 1.327 . S
C435 H429 0.950 . S
C435 C434 1.327 . S
C435 C439 1.429 . S
C436 C419 1.574 . S
C436 H430 0.949 . S
C436 C440 1.368 . S
C437 C418 1.429 . S
C437 C431 1.429 . S
C437 C438 1.523 . S
C438 C419 1.368 . S
C438 C432 1.368 . S
C438 C437 1.523 . S
C439 C423 1.429 . S
C439 C435 1.429 . S
C439 C440 1.523 . S
C440 C424 1.368 . S
C440 C436 1.368 . S
C440 C439 1.523 . S
H441 C416 0.950 . S
H442 C418 0.950 . S
H443 C419 0.949 . S
H444 C421 0.950 . S
H445 C423 0.950 . S
C446 C447 1.349 . S
C446 C448 1.327 . S
C446 H471 0.950 . S
C447 C446 1.349 . S
C447 C463 1.349 . S
C448 C446 1.327 . S
C448 C467 1.429 . S
C448 H472 0.950 . S
C449 C466 1.574 . S
C449 C468 1.368 . S
C449 H473 0.949 . S
H450 C454 0.949 . S
C451 C452 1.349 . S
C451 C453 1.327 . S
C451 H474 0.950 . S
C452 C451 1.349 . S
C452 C464 1.349 . S
C453 C451 1.327 . S
C453 C469 1.429 . S
C453 H475 0.950 . S
C454 H450 0.949 . S
C454 C462 1.574 . S
C454 C470 1.368 . S
H455 C463 0.950 . S
H456 C461 0.950 . S
H457 C462 0.949 . S
H458 C464 0.950 . S
H459 C465 0.950 . S
H460 C466 0.949 . S
C461 H456 0.950 . S
C461 C463 1.327 . S
C461 C467 1.429 . S
C462 C454 1.574 . S
C462 H457 0.949 . S
C462 C468 1.368 . S
C463 C447 1.349 . S
C463 H455 0.950 . S
C463 C461 1.327 . S
C464 C452 1.349 . S
C464 H458 0.950 . S
C464 C465 1.327 . S
C465 H459 0.950 . S
C465 C464 1.327 . S
C465 C469 1.429 . S
C466 C449 1.574 . S
C466 H460 0.949 . S
C466 C470 1.368 . S
C467 C448 1.429 . S
C467 C461 1.429 . S
C467 C468 1.523 . S
C468 C449 1.368 . S
C468 C462 1.368 . S
C468 C467 1.523 . S
C469 C453 1.429 . S
C469 C465 1.429 . S
C469 C470 1.523 . S
C470 C454 1.368 . S
C470 C466 1.368 . S
C470 C469 1.523 . S
H471 C446 0.950 . S
H472 C448 0.950 . S
H473 C449 0.949 . S
H474 C451 0.950 . S
H475 C453 0.950 . S
C122 C52 1.512 . S
C117 C40 1.509 . S
C147 C4 1.511 . S
C152 C95 1.514 . S
C177 C16 1.506 . S
C182 C61 1.514 . S
C207 C28 1.508 . S
C212 C86 1.513 . S
C242 C48 1.561 . S
C237 C9 1.541 . S
C272 C90 1.545 . S
C267 C18 1.543 . S
C297 C33 1.542 . S
C302 C56 1.557 . S
C327 C45 1.528 . S
C332 C82 1.546 . S
C362 C111 1.481 . S
C357 C21 1.465 . S
C392 C77 1.468 . S
C387 C30 1.462 . S
C422 C99 1.479 . S
C417 C42 1.476 . S
C447 C6 1.463 . S
C452 C65 1.465 . S
