# Generated by pormake.
# Topology zzz, (3,6)-cn, num edge types: 1
# Building blocks:
#     Node 0, Type 0, BuildingBlock: KAKCAD_clean_linker_0, # of connection points: 3
#     Node 1, Type 0, BuildingBlock: KAKCAD_clean_linker_0, # of connection points: 3
#     Node 2, Type 0, BuildingBlock: KAKCAD_clean_linker_0, # of connection points: 3
#     Node 3, Type 0, BuildingBlock: KAKCAD_clean_linker_0, # of connection points: 3
#     Node 4, Type 0, BuildingBlock: KAKCAD_clean_linker_0, # of connection points: 3
#     Node 5, Type 0, BuildingBlock: KAKCAD_clean_linker_0, # of connection points: 3
#     Node 6, Type 0, BuildingBlock: KAKCAD_clean_linker_0, # of connection points: 3
#     Node 7, Type 0, BuildingBlock: KAKCAD_clean_linker_0, # of connection points: 3
#     Node 8, Type 1, BuildingBlock: KUMBOL_clean_sbu_1, # of connection points: 6
#     Node 9, Type 1, BuildingBlock: KUMBOL_clean_sbu_1, # of connection points: 6
#     Node 10, Type 1, BuildingBlock: KUMBOL_clean_sbu_1, # of connection points: 6
#     Node 11, Type 1, BuildingBlock: KUMBOL_clean_sbu_1, # of connection points: 6
#     Edge 12, Type (0, 1), BuildingBlock: EZIPEK_clean_linker_0, # of connection points: 2
#     Edge 13, Type (0, 1), BuildingBlock: EZIPEK_clean_linker_0, # of connection points: 2
#     Edge 14, Type (0, 1), BuildingBlock: EZIPEK_clean_linker_0, # of connection points: 2
#     Edge 15, Type (0, 1), BuildingBlock: EZIPEK_clean_linker_0, # of connection points: 2
#     Edge 16, Type (0, 1), BuildingBlock: EZIPEK_clean_linker_0, # of connection points: 2
#     Edge 17, Type (0, 1), BuildingBlock: EZIPEK_clean_linker_0, # of connection points: 2
#     Edge 18, Type (0, 1), BuildingBlock: EZIPEK_clean_linker_0, # of connection points: 2
#     Edge 19, Type (0, 1), BuildingBlock: EZIPEK_clean_linker_0, # of connection points: 2
#     Edge 20, Type (0, 1), BuildingBlock: EZIPEK_clean_linker_0, # of connection points: 2
#     Edge 21, Type (0, 1), BuildingBlock: EZIPEK_clean_linker_0, # of connection points: 2
#     Edge 22, Type (0, 1), BuildingBlock: EZIPEK_clean_linker_0, # of connection points: 2
#     Edge 23, Type (0, 1), BuildingBlock: EZIPEK_clean_linker_0, # of connection points: 2
#     Edge 24, Type (0, 1), BuildingBlock: EZIPEK_clean_linker_0, # of connection points: 2
#     Edge 25, Type (0, 1), BuildingBlock: EZIPEK_clean_linker_0, # of connection points: 2
#     Edge 26, Type (0, 1), BuildingBlock: EZIPEK_clean_linker_0, # of connection points: 2
#     Edge 27, Type (0, 1), BuildingBlock: EZIPEK_clean_linker_0, # of connection points: 2
#     Edge 28, Type (0, 1), BuildingBlock: EZIPEK_clean_linker_0, # of connection points: 2
#     Edge 29, Type (0, 1), BuildingBlock: EZIPEK_clean_linker_0, # of connection points: 2
#     Edge 30, Type (0, 1), BuildingBlock: EZIPEK_clean_linker_0, # of connection points: 2
#     Edge 31, Type (0, 1), BuildingBlock: EZIPEK_clean_linker_0, # of connection points: 2
#     Edge 32, Type (0, 1), BuildingBlock: EZIPEK_clean_linker_0, # of connection points: 2
#     Edge 33, Type (0, 1), BuildingBlock: EZIPEK_clean_linker_0, # of connection points: 2
#     Edge 34, Type (0, 1), BuildingBlock: EZIPEK_clean_linker_0, # of connection points: 2
#     Edge 35, Type (0, 1), BuildingBlock: EZIPEK_clean_linker_0, # of connection points: 2
# Relax obj value: 0.351
# Max RMSD: 0.205
# Mean RMSD: 0.184
data_MOF--net-zzz--node1-KUMBOL_clean_sbu_1--node2-KAKCAD_clean_linker_0--edge1-EZIPEK_clean_linker_0
_symmetry_space_group_name_H-M    P1
_symmetry_Int_Tables_number       1
_symmetry_cell_setting            triclinic
loop_
_symmetry_equiv_pos_as_xyz
'x, y, z'
_cell_length_a     43.847744
_cell_length_b     43.90523
_cell_length_c     16.239902
_cell_angle_alpha  90.343579
_cell_angle_beta   89.347071
_cell_angle_gamma 90.292637
loop_
_atom_site_label
_atom_site_type_symbol
_atom_site_fract_x
_atom_site_fract_y
_atom_site_fract_z
_atom_type_partial_charge
C0 C 0.8438 0.6532 0.11967 0.0
C1 C 0.84873 0.64538 0.03603 0.0
C2 C 0.81922 0.64075 0.16349 0.0
C3 C 0.79867 0.6211 0.12401 0.0
C4 C 0.7997 0.61898 0.03786 0.0
C5 C 0.82414 0.63151 0.99406 0.0
C6 C 0.78077 0.59841 0.17188 0.0
C7 C 0.75178 0.58942 0.14672 0.0
C8 C 0.73622 0.56445 0.18244 0.0
C9 C 0.75177 0.54741 0.24393 0.0
C10 C 0.78169 0.55618 0.26883 0.0
C11 C 0.79511 0.58214 0.23386 0.0
C12 C 0.8017 0.53854 0.3257 0.0
C13 C 0.79712 0.53949 0.41159 0.0
C14 C 0.83027 0.52846 0.29558 0.0
C15 C 0.85423 0.5219 0.34913 0.0
C16 C 0.85037 0.52465 0.43489 0.0
C17 C 0.70518 0.55629 0.14766 0.0
C18 C 0.68742 0.57922 0.11101 0.0
C19 C 0.69443 0.52605 0.14056 0.0
C20 C 0.66838 0.5191 0.09306 0.0
C21 C 0.6535 0.54189 0.04726 0.0
C22 C 0.66326 0.5721 0.05888 0.0
C23 C 0.82108 0.5323 0.46556 0.0
H24 H 0.86035 0.666 0.15435 0.0
H25 H 0.81799 0.6441 0.2296 0.0
H26 H 0.78376 0.60466 1.00477 0.0
H27 H 0.82529 0.6264 0.9289 0.0
H28 H 0.74205 0.60154 0.09565 0.0
H29 H 0.81811 0.58846 0.25134 0.0
H30 H 0.74118 0.52742 0.27074 0.0
H31 H 0.77579 0.54785 0.43699 0.0
H32 H 0.83483 0.52802 0.22985 0.0
H33 H 0.87633 0.51603 0.32324 0.0
H34 H 0.69298 0.60309 0.11899 0.0
H35 H 0.70676 0.50758 0.16856 0.0
H36 H 0.81725 0.53443 0.53133 0.0
H37 H 0.65241 0.59055 0.02648 0.0
H38 H 0.66089 0.49562 0.08854 0.0
C39 C 0.94612 0.78449 0.99055 0.0
C40 C 0.95117 0.81545 1.00629 0.0
C41 C 0.9316 0.76676 0.05051 0.0
C42 C 0.92535 0.77976 0.12892 0.0
C43 C 0.92014 0.81148 0.12981 0.0
C44 C 0.93467 0.82955 0.07037 0.0
C45 C 0.94045 0.76563 0.2027 0.0
C46 C 0.95306 0.73643 0.19518 0.0
C47 C 0.9811 0.72942 0.23075 0.0
C48 C 0.99447 0.75052 0.28665 0.0
C49 C 0.9792 0.77819 0.30638 0.0
C50 C 0.95169 0.78456 0.26612 0.0
C51 C 0.99245 0.80298 0.3602 0.0
C52 C 1.00151 0.79763 0.44176 0.0
C53 C 0.99243 0.83344 0.33251 0.0
C54 C 0.99957 0.85779 0.38534 0.0
C55 C 1.00743 0.85261 0.46757 0.0
C56 C 0.99702 0.70241 0.19409 0.0
C57 C 0.98777 0.673 0.21747 0.0
C58 C 1.01212 0.70576 0.11747 0.0
C59 C 1.01542 0.68088 0.06287 0.0
C60 C 1.00332 0.65208 0.08313 0.0
C61 C 0.99111 0.6482 0.16291 0.0
C62 C 1.00894 0.82217 0.49482 0.0
H63 H 0.95718 0.77333 0.93864 0.0
H64 H 0.93149 0.74242 0.04039 0.0
H65 H 0.91075 0.82271 0.18379 0.0
H66 H 0.93681 0.85384 0.08112 0.0
H67 H 0.94345 0.72019 0.15225 0.0
H68 H 0.94086 0.80612 0.2792 0.0
H69 H 0.01669 0.74596 0.31207 0.0
H70 H 1.00163 0.77464 0.4655 0.0
H71 H 0.98597 0.8386 0.26995 0.0
H72 H 0.99861 0.88083 0.36213 0.0
H73 H 0.97527 0.66968 0.27467 0.0
H74 H 0.01871 0.72825 0.09641 0.0
H75 H 1.01515 0.81747 0.55781 0.0
H76 H 0.9818 0.62638 0.18048 0.0
H77 H 0.02524 0.68467 1.00229 0.0
C78 C 0.69067 0.94459 0.11369 0.0
C79 C 0.68109 0.97489 0.10392 0.0
C80 C 0.7203 0.93871 0.14058 0.0
C81 C 0.74094 0.96292 0.15112 0.0
C82 C 0.73269 0.99235 0.12775 0.0
C83 C 0.70282 0.99846 0.10719 0.0
C84 C 0.76538 0.96134 0.21155 0.0
C85 C 0.79535 0.96712 0.18693 0.0
C86 C 0.81657 0.9801 0.24151 0.0
C87 C 0.80586 0.98961 0.32123 0.0
C88 C 0.77528 0.98275 0.34674 0.0
C89 C 0.75647 0.96661 0.29289 0.0
C90 C 0.75875 0.99606 0.4198 0.0
C91 C 0.7514 0.97734 0.48748 0.0
C92 C 0.74022 0.02168 0.40652 0.0
C93 C 0.7138 0.02692 0.45454 0.0
C94 C 0.70525 1.00701 0.51853 0.0
C95 C 0.84832 0.98524 0.20735 0.0
C96 C 0.86172 0.9622 0.15811 0.0
C97 C 0.86289 1.01392 0.20921 0.0
C98 C 0.88876 0.01978 0.15865 0.0
C99 C 0.90019 0.99734 0.1037 0.0
C100 C 0.88679 0.96824 0.10646 0.0
C101 C 0.72532 0.98302 0.53697 0.0
H102 H 0.67443 0.92599 0.1091 0.0
H103 H 0.72625 0.91591 0.1595 0.0
H104 H 0.74821 1.01138 0.13663 0.0
H105 H 0.69628 0.02202 0.09939 0.0
H106 H 0.80142 0.96375 0.12258 0.0
H107 H 0.7327 0.96289 0.31002 0.0
H108 H 0.82075 1.00227 0.36183 0.0
H109 H 0.76433 0.95679 0.49782 0.0
H110 H 0.74439 0.03591 0.35324 0.0
H111 H 0.69905 0.04564 0.43851 0.0
H112 H 0.85151 0.93969 0.15561 0.0
H113 H 0.85328 0.03229 0.24574 0.0
H114 H 0.71964 0.96737 0.58616 0.0
H115 H 0.89507 0.95029 0.06609 0.0
H116 H 0.89885 0.04234 0.15914 0.0
C117 C 0.53083 0.72024 0.48181 0.0
C118 C 0.55297 0.69742 0.47109 0.0
C119 C 0.53012 0.74545 0.42857 0.0
C120 C 0.5518 0.74867 0.36437 0.0
C121 C 0.57552 0.72727 0.35893 0.0
C122 C 0.57606 0.70193 0.41148 0.0
C123 C 0.54369 0.76625 0.28922 0.0
C124 C 0.55627 0.79512 0.26745 0.0
C125 C 0.54865 0.8086 0.19089 0.0
C126 C 0.52858 0.79306 0.1385 0.0
C127 C 0.51643 0.76458 0.159 0.0
C128 C 0.52382 0.75156 0.23449 0.0
C129 C 0.49846 0.74738 0.09742 0.0
C130 C 0.47639 0.76215 0.04994 0.0
C131 C 0.50553 0.7168 0.07994 0.0
C132 C 0.49203 0.70183 1.01362 0.0
C133 C 0.47122 0.71716 0.96409 0.0
C134 C 0.56098 0.8383 0.15941 0.0
C135 C 0.55002 0.86606 0.19127 0.0
C136 C 0.57581 0.83862 0.08186 0.0
C137 C 0.57655 0.86503 0.03356 0.0
C138 C 0.56288 0.89206 0.06181 0.0
C139 C 0.55118 0.89273 0.14324 0.0
C140 C 0.46285 0.74711 0.98362 0.0
H141 H 0.5125 0.71714 0.52629 0.0
H142 H 0.511 0.76092 0.43275 0.0
H143 H 0.59194 0.72849 0.30869 0.0
H144 H 0.59315 0.68455 0.40112 0.0
H145 H 0.57208 0.80651 0.30827 0.0
H146 H 0.51456 0.72934 0.25015 0.0
H147 H 0.52315 0.80292 0.07936 0.0
H148 H 0.47031 0.78561 0.0626 0.0
H149 H 0.52268 0.70494 0.11476 0.0
H150 H 0.49867 0.67869 0.99898 0.0
H151 H 0.53787 0.86654 0.24972 0.0
H152 H 0.58415 0.81756 0.05502 0.0
H153 H 0.44677 0.75916 0.94571 0.0
H154 H 0.53999 0.91301 0.16635 0.0
H155 H 0.58575 0.86368 0.97146 0.0
C156 C 0.23891 0.54201 0.46227 0.0
C157 C 0.20925 0.53392 0.48593 0.0
C158 C 0.25315 0.52689 0.39712 0.0
C159 C 0.2379 0.50344 0.35447 0.0
C160 C 0.20848 0.49466 0.38021 0.0
C161 C 0.19427 0.50976 0.44613 0.0
C162 C 0.25233 0.49028 0.27977 0.0
C163 C 0.28344 0.48399 0.28025 0.0
C164 C 0.30006 0.47992 0.20709 0.0
C165 C 0.28422 0.4796 0.13096 0.0
C166 C 0.25192 0.48346 0.13053 0.0
C167 C 0.23653 0.48896 0.20545 0.0
C168 C 0.233 0.48492 0.05445 0.0
C169 C 0.22571 0.51349 1.02126 0.0
C170 C 0.21519 0.45959 0.03102 0.0
C171 C 0.19005 0.46294 0.97854 0.0
C172 C 0.18183 0.4918 0.94903 0.0
C173 C 0.33394 0.48106 0.2167 0.0
C174 C 0.34662 0.50851 0.24608 0.0
C175 C 0.35088 0.45416 0.22635 0.0
C176 C 0.37894 0.4546 0.2684 0.0
C177 C 0.38993 0.4817 0.30507 0.0
C178 C 0.37379 0.50875 0.2906 0.0
C179 C 0.2005 0.51689 0.96924 0.0
H180 H 0.25052 0.56087 0.49201 0.0
H181 H 0.27561 0.53456 0.37769 0.0
H182 H 0.19634 0.47664 0.3484 0.0
H183 H 0.17125 0.50342 0.46404 0.0
H184 H 0.29544 0.48478 0.33837 0.0
H185 H 0.21236 0.49413 0.20506 0.0
H186 H 0.29676 0.47727 0.07347 0.0
H187 H 0.2382 0.53362 0.04043 0.0
H188 H 0.21947 0.4375 0.0578 0.0
H189 H 0.17597 0.44327 0.96482 0.0
H190 H 0.33383 0.52949 0.24183 0.0
H191 H 0.3414 0.43252 0.20671 0.0
H192 H 0.19454 0.53947 0.94854 0.0
H193 H 0.38154 0.5301 0.31706 0.0
H194 H 0.39107 0.43344 0.27677 0.0
C195 C 0.08356 0.23098 0.40917 0.0
C196 C 0.0902 0.20129 0.38356 0.0
C197 C 0.09242 0.25536 0.36029 0.0
C198 C 0.10729 0.24992 0.28426 0.0
C199 C 0.12054 0.22107 0.27072 0.0
C200 C 0.11172 0.1965 0.3203 0.0
C201 C 0.09795 0.26888 0.21316 0.0
C202 C 0.09086 0.29962 0.22562 0.0
C203 C 0.06842 0.31405 0.17899 0.0
C204 C 0.05488 0.29764 0.11245 0.0
C205 C 0.06517 0.2677 0.09228 0.0
C206 C 0.08671 0.25404 0.14301 0.0
C207 C 0.05215 0.24741 0.02652 0.0
C208 C 0.02491 0.23117 0.04181 0.0
C209 C 0.07149 0.23679 0.9626 0.0
C210 C 0.06459 0.21002 0.91809 0.0
C211 C 0.0382 0.19296 0.93651 0.0
C212 C 0.05758 0.34425 0.21196 0.0
C213 C 0.02877 0.34668 0.25067 0.0
C214 C 0.07912 0.36757 0.22693 0.0
C215 C 0.073 0.39119 0.28355 0.0
C216 C 0.04505 0.39238 0.32659 0.0
C217 C 0.02254 0.37052 0.30712 0.0
C218 C 0.018 0.20435 0.99729 0.0
H219 H 0.06787 0.23503 0.4601 0.0
H220 H 0.08272 0.27732 0.37553 0.0
H221 H 0.13346 0.21647 0.21483 0.0
H222 H 0.11787 0.17358 0.30172 0.0
H223 H 0.10009 0.31128 0.27897 0.0
H224 H 0.09192 0.23021 0.13238 0.0
H225 H 0.03679 0.30788 0.07742 0.0
H226 H 1.0101 0.23788 0.09252 0.0
H227 H 0.09315 0.24804 0.95109 0.0
H228 H 0.08064 0.20182 0.87199 0.0
H229 H 1.01193 0.3288 0.24254 0.0
H230 H 0.10171 0.36618 0.19951 0.0
H231 H 0.99757 0.19162 1.01319 0.0
H232 H 1.00079 0.37084 0.33933 0.0
H233 H 0.09074 0.40769 0.29693 0.0
C234 C 0.30682 0.1253 0.34479 0.0
C235 C 0.33445 0.13289 0.30596 0.0
C236 C 0.27952 0.13044 0.30424 0.0
C237 C 0.28024 0.14225 0.22362 0.0
C238 C 0.3067 0.15833 0.19877 0.0
C239 C 0.33424 0.15276 0.23866 0.0
C240 C 0.26191 0.1256 0.16036 0.0
C241 C 0.23352 0.11315 0.18199 0.0
C242 C 0.22313 0.0859 0.14621 0.0
C243 C 0.24079 0.07211 0.08182 0.0
C244 C 0.26769 0.08683 0.05141 0.0
C245 C 0.27721 0.11378 0.09076 0.0
C246 C 0.2893 0.07386 0.98691 0.0
C247 C 0.30078 0.04402 0.99207 0.0
C248 C 0.30366 0.09376 0.93018 0.0
C249 C 0.3302 0.08533 0.88665 0.0
C250 C 0.34294 0.05625 0.89571 0.0
C251 C 0.19641 0.07118 0.18865 0.0
C252 C 0.2015 0.04936 0.25007 0.0
C253 C 0.16764 0.08533 0.18685 0.0
C254 C 0.14501 0.07866 0.24642 0.0
C255 C 0.15084 0.05822 0.31075 0.0
C256 C 0.17903 0.04297 0.31032 0.0
C257 C 0.32702 0.03524 0.94637 0.0
H258 H 0.30658 0.11086 0.39869 0.0
H259 H 0.25933 0.11941 0.32911 0.0
H260 H 0.30752 0.16969 0.13976 0.0
H261 H 0.35546 0.15971 0.20935 0.0
H262 H 0.22113 0.12263 0.23428 0.0
H263 H 0.29921 0.12318 0.07337 0.0
H264 H 0.23377 0.05039 0.05618 0.0
H265 H 0.29077 0.02811 0.03544 0.0
H266 H 0.2955 0.11686 0.92369 0.0
H267 H 0.34155 0.10211 0.84829 0.0
H268 H 0.2237 0.03886 0.25511 0.0
H269 H 0.16333 0.10297 0.14217 0.0
H270 H 0.336 1.01254 0.95448 0.0
H271 H 0.18411 0.02696 0.3587 0.0
H272 H 0.12346 0.09057 0.24464 0.0
C273 C 0.49309 0.33189 0.89326 0.0
C274 C 0.51187 0.35409 0.92982 0.0
C275 C 0.48642 0.30443 0.93361 0.0
C276 C 0.49839 0.29815 1.01182 0.0
C277 C 0.51832 0.31976 0.04701 0.0
C278 C 0.52504 0.34739 1.00637 0.0
C279 C 0.48439 0.27315 0.06278 0.0
C280 C 0.50152 0.25135 0.107 0.0
C281 C 0.48636 0.23059 0.16055 0.0
C282 C 0.45451 0.23258 0.16978 0.0
C283 C 0.43851 0.25794 0.14048 0.0
C284 C 0.45275 0.27484 0.07721 0.0
C285 C 0.41561 0.27354 0.19724 0.0
C286 C 0.41305 0.2627 0.27897 0.0
C287 C 0.41232 0.30538 0.18898 0.0
C288 C 0.42302 0.32431 0.25204 0.0
C289 C 0.43251 0.31127 0.326 0.0
C290 C 0.50249 0.21044 0.22034 0.0
C291 C 0.52021 0.18544 0.19465 0.0
C292 C 0.49546 0.21339 0.30505 0.0
C293 C 0.50367 0.19092 0.36138 0.0
C294 C 0.51964 0.16493 0.33527 0.0
C295 C 0.5289 0.163 0.25172 0.0
C296 C 0.4237 0.28121 0.34318 0.0
H297 H 0.48289 0.33618 0.83402 0.0
H298 H 0.47066 0.28856 0.90521 0.0
H299 H 0.52736 0.31606 0.10788 0.0
H300 H 0.53989 0.3639 0.03565 0.0
H301 H 0.52617 0.25123 0.10195 0.0
H302 H 0.4403 0.29275 0.04717 0.0
H303 H 0.44335 0.2169 0.2116 0.0
H304 H 0.4098 0.23873 0.29143 0.0
H305 H 0.40845 0.31559 0.12962 0.0
H306 H 0.42778 0.34805 0.23904 0.0
H307 H 0.52579 0.18232 0.13003 0.0
H308 H 0.48192 0.2324 0.32715 0.0
H309 H 0.42909 0.27097 0.40174 0.0
H310 H 0.54136 0.14325 0.22987 0.0
H311 H 0.49636 0.19321 0.42506 0.0
C312 C 0.12303 0.04978 0.79027 0.0
C313 C 0.1215 0.06945 0.92981 0.0
C314 C 0.10892 0.05156 0.86622 0.0
C315 C 0.14737 0.08751 0.91326 0.0
C316 C 0.15033 0.06603 0.77503 0.0
C317 C 0.16173 0.08587 0.83575 0.0
N318 N 0.11199 0.02933 0.73506 0.0
C319 C 0.12943 0.02126 0.66805 0.0
C320 C 0.1663 0.06039 0.7015 0.0
C321 C 0.15619 0.03732 0.64878 0.0
Gd322 Gd 0.9919 0.03041 0.63109 0.0
Gd323 Gd 0.06394 1.00701 0.76805 0.0
N324 N 0.08458 0.03325 0.88032 0.0
C325 C 0.10865 0.06734 1.00891 0.0
C326 C 0.07308 0.0296 0.95798 0.0
C327 C 0.0848 0.04674 1.02348 0.0
H328 H 0.05439 1.01392 0.96889 0.0
H329 H 0.07523 0.04431 0.08484 0.0
H330 H 0.0252 0.05539 0.45141 0.0
H331 H 0.12277 1.00253 0.62857 0.0
H332 H 0.03571 0.03544 0.3129 0.0
H333 H 0.1176 0.08067 0.05955 0.0
H334 H 0.15719 0.10174 0.96094 0.0
H335 H 0.93225 0.99012 0.7004 0.0
H336 H 0.18731 0.07243 0.68721 0.0
H337 H 0.16921 0.03159 0.59387 0.0
H338 H 0.98348 0.93957 0.30533 0.0
H339 H 0.18246 0.09884 0.82485 0.0
H340 H 0.91462 0.91806 0.52819 0.0
H341 H 0.90227 0.9448 0.65877 0.0
N342 N 0.96189 0.98807 0.59596 0.0
C343 C 0.96791 0.97487 0.52166 0.0
C344 C 0.93787 0.97842 0.64357 0.0
C345 C 0.9279 0.93783 0.5463 0.0
C346 C 0.92083 0.95288 0.62004 0.0
C347 C 0.95139 0.94898 0.49553 0.0
H348 H 0.94606 0.91542 0.39831 0.0
N349 N 1.003 1.0149 0.494 0.0
C350 C 0.98942 0.98838 0.46977 0.0
C351 C 1.01236 0.99294 0.33421 0.0
C352 C 0.99433 0.97638 0.3898 0.0
C353 C 0.01759 0.03266 0.43663 0.0
C354 C 0.02317 0.02166 0.3569 0.0
O355 O 0.04088 0.05085 0.81051 0.0
O356 O 0.01663 0.07005 0.69703 0.0
O357 O 0.96129 0.04825 0.53937 0.0
O358 O 0.95476 0.06087 0.66603 0.0
O359 O 0.01872 1.00831 0.84106 0.0
O360 O 0.97624 0.01981 0.76089 0.0
O361 O 0.9997 0.98103 0.67023 0.0
O362 O 0.05001 0.98199 0.65303 0.0
O363 O 0.0501 0.96364 0.81439 0.0
O364 O 0.09886 0.97498 0.81117 0.0
O365 O 0.03817 0.0509 0.59323 0.0
O366 O 0.06967 1.01226 0.62985 0.0
C367 C 0.02551 0.07286 0.77472 0.0
C368 C 0.98894 1.01246 0.83141 0.0
C369 C 0.95311 0.09946 0.56693 0.0
C370 C 0.98775 0.13915 0.51823 0.0
C371 C 0.93647 0.15196 0.56502 0.0
C372 C 0.93053 0.12127 0.58218 0.0
C373 C 0.96496 0.16092 0.53334 0.0
C374 C 0.9815 0.10857 0.53424 0.0
C375 C 0.9488 0.06748 0.59004 0.0
C376 C 0.97954 0.94933 0.36596 0.0
C377 C 0.95811 0.93566 0.41872 0.0
H378 H 0.01655 0.98458 0.27221 0.0
C379 C 0.02485 0.9661 0.65285 0.0
C380 C 0.06402 0.03602 0.58403 0.0
C381 C 0.08344 0.92421 0.85972 0.0
C382 C 0.06224 0.87545 0.90178 0.0
C383 C 0.11693 0.88135 0.88326 0.0
C384 C 0.1129 0.91189 0.86174 0.0
C385 C 0.09167 0.86302 0.9025 0.0
C386 C 0.05836 0.90593 0.88102 0.0
C387 C 0.07784 0.95461 0.82638 0.0
H388 H 0.91905 0.16886 0.57674 0.0
H389 H 0.90864 0.11466 0.60816 0.0
H390 H 0.96918 0.18472 0.51996 0.0
H391 H 0.99917 0.09197 0.52284 0.0
H392 H 0.13963 0.8718 0.88411 0.0
H393 H 0.13259 0.92553 0.84457 0.0
H394 H 0.09501 0.83941 0.91888 0.0
H395 H 0.03546 0.91509 0.88007 0.0
C396 C 0.54332 0.93977 0.54057 0.0
C397 C 0.52706 0.89408 0.6115 0.0
C398 C 0.52626 0.92595 0.60165 0.0
C399 C 0.54701 0.87665 0.56221 0.0
C400 C 0.56213 0.92228 0.48778 0.0
C401 C 0.56455 0.89075 0.5004 0.0
N402 N 0.53976 0.97009 0.52912 0.0
C403 C 0.55302 0.98408 0.46271 0.0
C404 C 0.57712 0.93685 0.42238 0.0
C405 C 0.57229 0.96787 0.4094 0.0
Gd406 Gd 0.53204 0.06142 0.78488 0.0
Gd407 Gd 0.50957 0.99639 0.62714 0.0
N408 N 0.50673 0.94341 0.64631 0.0
C409 C 0.50672 0.88063 0.66773 0.0
C410 C 0.485 0.93018 0.69534 0.0
C411 C 0.48515 0.89872 0.70861 0.0
H412 H 0.46773 0.94408 0.72475 0.0
H413 H 0.46847 0.88844 0.74959 0.0
H414 H 0.60369 0.04789 0.84942 0.0
H415 H 0.54964 1.00805 0.45233 0.0
H416 H 0.65242 0.07603 0.86247 0.0
H417 H 0.50658 0.85622 0.67722 0.0
H418 H 0.54823 0.85217 0.5694 0.0
H419 H 0.47868 0.11394 0.75868 0.0
H420 H 0.59184 0.92422 0.38063 0.0
H421 H 0.58339 0.97942 0.35858 0.0
H422 H 0.62566 0.18008 0.81462 0.0
H423 H 0.57912 0.87695 0.46102 0.0
H424 H 0.52078 0.20214 0.76031 0.0
H425 H 0.47465 0.16982 0.74721 0.0
N426 N 0.5267 0.11454 0.77549 0.0
C427 C 0.55197 0.13192 0.78618 0.0
C428 C 0.499 0.1278 0.76381 0.0
C429 C 0.52266 0.17762 0.76523 0.0
C430 C 0.4966 0.15946 0.75764 0.0
C431 C 0.55079 0.16393 0.78036 0.0
H432 H 0.57723 0.20574 0.78509 0.0
N433 N 0.57874 0.08677 0.81157 0.0
C434 C 0.57901 0.11752 0.8034 0.0
C435 C 0.63274 0.11939 0.8342 0.0
C436 C 0.60594 0.13469 0.81453 0.0
C437 C 0.6043 0.0721 0.83757 0.0
C438 C 0.63188 0.08796 0.84601 0.0
O439 O 0.51739 0.97925 0.75564 0.0
O440 O 0.55026 1.01386 0.81529 0.0
O441 O 0.50658 0.03969 0.882 0.0
O442 O 0.52649 0.0837 0.90447 0.0
O443 O 0.4775 1.00652 0.7369 0.0
O444 O 0.48357 0.05754 0.73725 0.0
O445 O 0.51474 0.07785 0.66038 0.0
O446 O 0.53116 0.03986 0.57415 0.0
O447 O 0.47159 0.02194 0.57969 0.0
O448 O 0.47817 0.97495 0.5423 0.0
O449 O 0.5745 0.04046 0.72286 0.0
O450 O 0.56012 1.008 0.61623 0.0
C451 C 0.53669 0.98677 0.81381 0.0
C452 C 0.46626 0.03373 0.753 0.0
C453 C 0.52155 0.05058 1.01636 0.0
C454 C 0.55994 0.02549 0.09836 0.0
C455 C 0.51866 0.05316 0.16501 0.0
C456 C 0.50688 0.06069 0.08831 0.0
C457 C 0.54539 0.03611 0.17042 0.0
C458 C 0.54729 0.03213 1.02169 0.0
C459 C 0.51133 0.06097 0.93602 0.0
C460 C 0.60517 0.16653 0.80667 0.0
C461 C 0.57761 0.18114 0.78995 0.0
H462 H 0.65401 0.13167 0.84215 0.0
C463 C 0.52355 0.06854 0.5865 0.0
C464 C 0.58114 0.0226 0.65909 0.0
C465 C 0.45419 1.0078 0.44834 0.0
C466 C 0.4275 0.04269 0.35918 0.0
C467 C 0.46326 1.00609 0.3006 0.0
C468 C 0.469 0.99491 0.37925 0.0
C469 C 0.44313 0.03032 0.29064 0.0
C470 C 0.43255 0.03069 0.43741 0.0
C471 C 0.46229 0.99962 0.53274 0.0
H472 H 0.50755 0.06142 0.22003 0.0
H473 H 0.48678 0.07488 0.08517 0.0
H474 H 0.55502 0.03179 0.23035 0.0
H475 H 0.55888 0.02466 0.96604 0.0
H476 H 0.47506 0.99655 0.2476 0.0
H477 H 0.48571 0.97705 0.38615 0.0
H478 H 0.4393 0.03911 0.22944 0.0
H479 H 0.42032 0.03994 0.49026 0.0
C480 C 0.45734 0.52502 0.88716 0.0
C481 C 0.46985 0.56855 0.97268 0.0
C482 C 0.47264 0.55221 0.89799 0.0
C483 C 0.45262 0.55609 0.03788 0.0
C484 C 0.43899 0.51294 0.95099 0.0
C485 C 0.43719 0.52832 0.02697 0.0
N486 N 0.4589 0.5114 0.81219 0.0
C487 C 0.44123 0.48648 0.79518 0.0
C488 C 0.42225 0.48633 0.93551 0.0
C489 C 0.42311 0.47324 0.8569 0.0
Gd490 Gd 0.56117 0.5006 0.57954 0.0
Gd491 Gd 0.49196 0.53338 0.71375 0.0
N492 N 0.48851 0.5637 0.83318 0.0
C493 C 0.48344 0.59741 0.97825 0.0
C494 C 0.5004 0.59244 0.83672 0.0
C495 C 0.49836 0.6096 0.9094 0.0
H496 H 0.51143 0.60229 0.78333 0.0
H497 H 0.50819 0.63223 0.91202 0.0
H498 H 0.55638 0.52914 0.39013 0.0
H499 H 0.44142 0.47656 0.73407 0.0
H500 H 0.58711 0.56169 0.29587 0.0
H501 H 0.48172 0.61081 0.03434 0.0
H502 H 0.45034 0.56815 0.09602 0.0
H503 H 0.61139 0.46204 0.6888 0.0
H504 H 0.40797 0.47623 0.98301 0.0
H505 H 0.40967 0.4531 0.84363 0.0
H506 H 0.68371 0.5709 0.43085 0.0
H507 H 0.42314 0.51941 0.07657 0.0
H508 H 0.69934 0.50397 0.65857 0.0
H509 H 0.66621 0.46507 0.72441 0.0
N510 N 0.61341 0.50019 0.60966 0.0
C511 C 0.63157 0.52004 0.56827 0.0
C512 C 0.62568 0.47959 0.66213 0.0
C513 C 0.67527 0.50311 0.64431 0.0
C514 C 0.65665 0.48112 0.68166 0.0
C515 C 0.663 0.52226 0.58466 0.0
H516 H 0.70554 0.54428 0.5494 0.0
N517 N 0.58992 0.529 0.48332 0.0
C518 C 0.61934 0.53503 0.50224 0.0
C519 C 0.62587 0.56344 0.37634 0.0
C520 C 0.63813 0.55266 0.44983 0.0
C521 C 0.57892 0.53661 0.40788 0.0
C522 C 0.59632 0.55476 0.35436 0.0
O523 O 0.4987 0.48214 0.72497 0.0
O524 O 0.54942 0.47251 0.69374 0.0
O525 O 0.53732 0.46322 0.52205 0.0
O526 O 0.58592 0.46781 0.50272 0.0
O527 O 0.53555 0.53661 0.78848 0.0
O528 O 0.57408 0.51158 0.71378 0.0
O529 O 0.54938 0.54934 0.55147 0.0
O530 O 0.52902 0.56751 0.67283 0.0
O531 O 0.44622 0.55194 0.70633 0.0
O532 O 0.47847 0.55872 0.60652 0.0
O533 O 0.51585 0.51325 0.52023 0.0
O534 O 0.48405 0.49607 0.6198 0.0
C535 C 0.52372 0.46595 0.73351 0.0
C536 C 0.56363 0.52569 0.78117 0.0
C537 C 0.56345 0.4183 0.49085 0.0
C538 C 0.53691 0.37002 0.47301 0.0
C539 C 0.5883 0.37107 0.52738 0.0
C540 C 0.58892 0.40287 0.52123 0.0
C541 C 0.56232 0.35465 0.50396 0.0
C542 C 0.53782 0.40166 0.46561 0.0
C543 C 0.56161 0.45163 0.48816 0.0
C544 C 0.66896 0.55711 0.46969 0.0
C545 C 0.6814 0.54193 0.53719 0.0
H546 H 0.63954 0.577 0.33417 0.0
C547 C 0.54065 0.5722 0.59831 0.0
C548 C 0.48934 0.50113 0.54143 0.0
C549 C 0.44134 0.59623 0.62554 0.0
C550 C 0.437 0.64774 0.67906 0.0
C551 C 0.42231 0.63658 0.53866 0.0
C552 C 0.43027 0.60605 0.54951 0.0
C553 C 0.42584 0.65751 0.60314 0.0
C554 C 0.4442 0.61709 0.69036 0.0
C555 C 0.45134 0.56465 0.63506 0.0
H556 H 0.60786 0.35917 0.55109 0.0
H557 H 0.60891 0.41528 0.54144 0.0
H558 H 0.56215 0.33005 0.50869 0.0
H559 H 0.51827 0.41342 0.44076 0.0
H560 H 0.41387 0.6441 0.47985 0.0
H561 H 0.42805 0.59019 0.49851 0.0
H562 H 0.42034 0.68125 0.59367 0.0
H563 H 0.45258 0.60974 0.74925 0.0
C564 C 1.01137 0.41088 0.80087 0.0
C565 C 0.04376 0.40339 0.91843 0.0
C566 C 0.02628 0.42253 0.86812 0.0
C567 C 0.04713 0.37253 0.89691 0.0
C568 C 1.01345 0.37967 0.78078 0.0
C569 C 0.03204 0.36069 0.82798 0.0
N570 N 0.99316 0.42979 0.7583 0.0
C571 C 0.9745 0.4185 0.69847 0.0
C572 C 0.99598 0.36837 0.71567 0.0
C573 C 0.97607 0.38781 0.6751 0.0
Gd574 Gd 0.02564 0.55221 0.66378 0.0
Gd575 Gd 0.99437 0.48198 0.79334 0.0
N576 N 0.02189 0.45222 0.88749 0.0
C577 C 0.05643 0.41565 0.99014 0.0
C578 C 0.03291 0.46389 0.95954 0.0
C579 C 0.05066 0.44598 1.01126 0.0
H580 H 0.02851 0.48726 0.97651 0.0
H581 H 0.05981 0.45557 0.06743 0.0
H582 H 0.09476 0.53123 0.5903 0.0
H583 H 0.95897 0.4334 0.66715 0.0
H584 H 0.12253 0.53016 0.45782 0.0
H585 H 0.06997 0.40174 0.0306 0.0
H586 H 0.06066 0.35749 0.93434 0.0
H587 H 0.96695 0.59931 0.63571 0.0
H588 H 0.997 0.34456 0.69795 0.0
H589 H 0.96188 0.37917 0.62603 0.0
H590 H 0.05345 0.57554 0.26773 0.0
H591 H 0.03416 0.33669 0.8132 0.0
H592 H 0.96156 0.61918 0.37823 0.0
H593 H 0.94058 0.62392 0.51999 0.0
N594 N 1.00142 0.57971 0.55954 0.0
C595 C 1.01413 0.57822 0.48321 0.0
C596 C 0.97605 0.59694 0.57391 0.0
C597 C 0.97302 0.60819 0.42873 0.0
C598 C 0.96115 0.61096 0.50863 0.0
C599 C 1.00018 0.59216 0.41546 0.0
H600 H 1.00362 0.60032 0.28445 0.0
N601 N 0.05522 0.55226 0.54148 0.0
C602 C 0.04205 0.56418 0.47392 0.0
C603 C 0.08611 0.55087 0.39073 0.0
C604 C 0.05696 0.56356 0.39651 0.0
C605 C 0.08408 0.54062 0.53663 0.0
C606 C 0.09986 0.53968 0.46137 0.0
O607 O 0.03944 0.5036 0.83026 0.0
O608 O 0.06148 0.5191 0.70955 0.0
O609 O 0.04211 0.59901 0.6616 0.0
O610 O 0.04773 0.57182 0.77043 0.0
O611 O 1.00769 0.52657 0.85438 0.0
O612 O 0.98825 0.55738 0.76066 0.0
O613 O 0.97493 0.54225 0.65407 0.0
O614 O 0.96996 0.49065 0.67221 0.0
O615 O 0.94929 0.50095 0.80456 0.0
O616 O 0.96269 0.46537 0.88811 0.0
O617 O 0.03571 0.50738 0.59718 0.0
O618 O 1.01127 0.46745 0.66603 0.0
C619 C 0.06392 0.50812 0.78439 0.0
C620 C 0.99371 0.55216 0.83865 0.0
C621 C 0.08414 0.60936 0.74562 0.0
C622 C 0.13771 0.60556 0.71017 0.0
C623 C 0.12041 0.64515 0.80388 0.0
C624 C 0.09037 0.63454 0.79632 0.0
C625 C 0.14414 0.63087 0.76024 0.0
C626 C 0.10789 0.59471 0.70435 0.0
C627 C 0.0531 0.5979 0.7358 0.0
C628 C 0.04256 0.57613 0.32793 0.0
C629 C 1.01418 0.59031 0.33742 0.0
H630 H 0.09836 0.55006 0.33244 0.0
C631 C 0.96083 0.5163 0.63868 0.0
C632 C 0.02677 0.47862 0.6026 0.0
C633 C 0.92801 0.50304 0.93841 0.0
C634 C 0.90875 0.55126 0.99339 0.0
C635 C 0.89841 0.50388 0.06563 0.0
C636 C 0.9146 0.48768 1.0052 0.0
C637 C 0.89518 0.53543 0.0594 0.0
C638 C 0.92546 0.53493 0.93405 0.0
C639 C 0.94214 0.48556 0.87017 0.0
H640 H 0.12524 0.66468 0.84267 0.0
H641 H 0.07211 0.64593 0.82959 0.0
H642 H 0.1672 0.63963 0.7646 0.0
H643 H 0.1031 0.57517 0.66593 0.0
H644 H 0.88791 0.49189 0.11673 0.0
H645 H 0.9161 0.46313 1.00968 0.0
H646 H 0.88204 0.5475 0.10601 0.0
H647 H 0.93511 0.54716 0.88241 0.0
C648 C 0.12295 0.0758 0.44147 0.0
C649 C 0.12786 0.0531 0.37959 0.0
C650 C 0.09072 0.01954 0.45047 0.0
C651 C 0.08513 0.04245 0.51163 0.0
N652 N 0.10026 0.08988 0.57394 0.0
N653 N 0.11235 1.00584 0.31692 0.0
C654 C 0.10213 0.07013 0.50866 0.0
C655 C 0.1108 0.02556 0.38239 0.0
N656 N 0.13806 0.10304 0.43541 0.0
N657 N 0.07713 0.99159 0.45773 0.0
H658 H 0.1266 1.00939 0.26598 0.0
H659 H 0.09771 0.98734 0.3092 0.0
H660 H 0.05957 0.98702 0.49939 0.0
H661 H 0.08385 0.97247 0.42403 0.0
H662 H 0.13301 0.12207 0.47135 0.0
H663 H 0.15492 0.10728 0.39111 0.0
H664 H 0.1146 0.10857 0.58199 0.0
H665 H 0.08581 0.08629 0.62443 0.0
C666 C 0.54255 0.14285 0.46556 0.0
C667 C 0.52418 0.13899 0.39468 0.0
C668 C 0.51316 0.08634 0.43823 0.0
C669 C 0.52658 0.0917 0.51654 0.0
N670 N 0.55917 0.1238 0.59782 0.0
N671 N 0.48859 0.1079 0.31925 0.0
C672 C 0.54262 0.1198 0.52819 0.0
C673 C 0.50887 0.11087 0.3822 0.0
N674 N 0.56071 0.16819 0.47128 0.0
N675 N 0.50516 0.05766 0.41494 0.0
H676 H 0.48355 0.12537 0.27854 0.0
H677 H 0.47445 0.089 0.31193 0.0
H678 H 0.50692 0.03884 0.45232 0.0
H679 H 0.50007 0.05213 0.35445 0.0
H680 H 0.57637 0.17219 0.5177 0.0
H681 H 0.56172 0.18473 0.42546 0.0
H682 H 0.56941 0.14416 0.61551 0.0
H683 H 0.56269 0.1061 0.63859 0.0
C684 C 0.44071 0.50471 0.34473 0.0
C685 C 0.41767 0.48266 0.36005 0.0
C686 C 0.4461 0.46772 0.48413 0.0
C687 C 0.46511 0.49406 0.47752 0.0
N688 N 0.47208 0.54241 0.40944 0.0
N689 N 0.3962 0.4463 0.45653 0.0
C690 C 0.46043 0.5137 0.40932 0.0
C691 C 0.41978 0.46481 0.43295 0.0
N692 N 0.44364 0.51751 0.26868 0.0
N693 N 0.45347 0.44491 0.53697 0.0
H694 H 0.37592 0.44454 0.42407 0.0
H695 H 0.39562 0.43516 0.51303 0.0
H696 H 0.47342 0.44506 0.57126 0.0
H697 H 0.44164 0.42427 0.5389 0.0
H698 H 0.46157 0.53218 0.25315 0.0
H699 H 0.43021 0.51069 0.21924 0.0
H700 H 0.46741 0.55831 0.36387 0.0
H701 H 0.48181 0.55163 0.46168 0.0
C702 C 0.03242 0.44552 0.38108 0.0
C703 C 0.04058 0.41482 0.39676 0.0
C704 C 0.04443 0.42746 0.54498 0.0
C705 C 0.033 0.45729 0.53067 0.0
N706 N 1.01056 0.49237 0.43437 0.0
N707 N 0.05093 0.37555 0.4956 0.0
C708 C 0.02577 0.46581 0.44835 0.0
C709 C 0.04545 0.40553 0.47938 0.0
N710 N 0.03097 0.45539 0.30159 0.0
N711 N 0.05587 0.42042 0.62046 0.0
H712 H 0.0536 0.35908 0.4496 0.0
H713 H 0.05062 0.36657 0.55482 0.0
H714 H 0.05664 0.43588 0.6693 0.0
H715 H 0.06739 0.4003 0.63265 0.0
H716 H 0.02896 0.47826 0.28592 0.0
H717 H 0.03412 0.44097 0.25094 0.0
H718 H 1.00195 0.49832 0.37722 0.0
H719 H 1.0034 0.50708 0.48114 0.0
C720 C 0.95126 0.98509 0.03493 0.0
C721 C 0.92496 1.00391 0.04009 0.0
C722 C 0.94502 0.03245 0.92046 0.0
C723 C 0.96801 1.01014 0.90616 0.0
N724 N 0.98799 0.96101 0.94385 0.0
N725 N 0.89424 0.04208 0.97382 0.0
C726 C 0.96996 0.9854 0.96222 0.0
C727 C 0.92118 0.02678 0.97923 0.0
N728 N 0.95869 0.9671 0.09992 0.0
N729 N 0.94632 0.05965 0.88019 0.0
H730 H 0.87553 0.03779 1.01219 0.0
H731 H 0.88944 0.0567 0.92538 0.0
H732 H 0.96421 0.06557 0.84057 0.0
H733 H 0.93166 0.07763 0.89392 0.0
H734 H 0.97903 0.95496 0.10226 0.0
H735 H 0.94617 0.96704 0.15496 0.0
H736 H 0.98814 0.94125 0.9791 0.0
H737 H 0.99976 0.95897 0.88821 0.0
C738 C 0.52607 0.9226 0.97677 0.0
C739 C 0.55652 0.91736 1.00139 0.0
C740 C 0.57443 0.95666 0.90225 0.0
C741 C 0.54363 0.96298 0.87955 0.0
N742 N 0.49037 0.94729 0.88831 0.0
N743 N 0.60963 0.93058 0.9936 0.0
C744 C 0.51959 0.94484 0.91555 0.0
C745 C 0.58065 0.93479 0.96567 0.0
N746 N 0.50283 0.90624 1.01262 0.0
N747 N 0.59791 0.96986 0.85893 0.0
H748 H 0.61468 0.91557 0.041 0.0
H749 H 0.62859 0.94294 0.97411 0.0
H750 H 0.59474 0.98406 0.80879 0.0
H751 H 0.62081 0.96483 0.86668 0.0
H752 H 0.48008 0.91287 1.01247 0.0
H753 H 0.50614 0.88639 0.04606 0.0
H754 H 0.47326 0.93128 0.89934 0.0
H755 H 0.48291 0.96409 0.84959 0.0
C756 C 0.63097 0.51116 0.92622 0.0
C757 C 0.62844 0.53505 0.98557 0.0
C758 C 0.58478 0.5544 0.90778 0.0
C759 C 0.58489 0.52843 0.85469 0.0
N760 N 0.60137 0.47599 0.84536 0.0
N761 N 0.59413 0.57207 0.04649 0.0
C762 C 0.60599 0.50491 0.87318 0.0
C763 C 0.60246 0.55428 0.98093 0.0
N764 N 0.65739 0.49521 0.91647 0.0
N765 N 0.56973 0.58018 0.88668 0.0
H766 H 0.60514 0.57099 0.10302 0.0
H767 H 0.57414 0.58487 0.04715 0.0
H768 H 0.55991 0.58272 0.82937 0.0
H769 H 0.5709 0.60021 0.92137 0.0
H770 H 0.66016 0.47873 0.87055 0.0
H771 H 0.67747 0.50091 0.94662 0.0
H772 H 0.61528 0.45789 0.86214 0.0
H773 H 0.58146 0.46959 0.81571 0.0
C774 C 0.98166 0.63085 0.94867 0.0
C775 C 1.00022 0.62689 1.01934 0.0
C776 C 1.00336 0.57241 0.98458 0.0
C777 C 0.99143 0.57738 0.90447 0.0
N778 N 0.96354 0.61197 0.81768 0.0
N779 N 0.0326 0.59358 0.09662 0.0
C780 C 0.97918 0.6069 0.88829 0.0
C781 C 1.01233 0.5976 0.03452 0.0
N782 N 0.96431 0.65652 0.94225 0.0
N783 N 1.00322 0.54388 1.01733 0.0
H784 H 0.04031 0.61149 0.13354 0.0
H785 H 0.04394 0.57304 0.10542 0.0
H786 H 0.99129 0.52589 0.99043 0.0
H787 H 1.01002 0.53948 0.07741 0.0
H788 H 0.94779 0.65949 0.89752 0.0
H789 H 0.964 0.67379 0.98653 0.0
H790 H 0.95961 0.63367 0.79453 0.0
H791 H 0.95324 0.59457 0.78435 0.0
C792 C 0.04282 0.17083 0.36004 0.0
C793 C 0.06873 0.17706 0.40964 0.0
C794 C 0.04437 0.15052 0.52533 0.0
C795 C 0.01718 0.14807 0.47865 0.0
N796 N 0.99244 0.14979 0.3468 0.0
N797 N 0.09593 0.1712 0.53586 0.0
C798 C 0.01724 0.15598 0.39451 0.0
C799 C 0.07015 0.16598 0.49114 0.0
N800 N 0.04089 0.18027 0.28046 0.0
N801 N 0.04543 0.13783 0.60161 0.0
H802 H 0.11552 0.18099 0.50997 0.0
H803 H 0.09821 0.16628 0.59798 0.0
H804 H 0.02818 0.12372 0.62336 0.0
H805 H 0.06391 0.13902 0.64095 0.0
H806 H 0.05799 0.19198 0.24848 0.0
H807 H 0.05799 0.19198 0.24848 0.0
H808 H 0.99152 0.15559 0.28462 0.0
H809 H 0.97329 0.138 0.36858 0.0
C810 C 0.35946 0.0835 0.27285 0.0
C811 C 0.36026 0.11171 0.31631 0.0
C812 C 0.40649 0.09568 0.38682 0.0
C813 C 0.40404 0.06655 0.34785 0.0
N814 N 0.37281 0.03034 0.27403 0.0
N815 N 0.38194 0.14378 0.42104 0.0
C816 C 0.37905 0.05981 0.29638 0.0
C817 C 0.38309 0.1176 0.37519 0.0
N818 N 0.34002 0.0792 0.20857 0.0
N819 N 0.43132 0.10264 0.43349 0.0
H820 H 0.36576 0.16069 0.41128 0.0
H821 H 0.39574 0.148 0.47163 0.0
H822 H 0.44841 0.08707 0.44604 0.0
H823 H 0.43618 0.12445 0.45529 0.0
H824 H 0.34124 0.0605 0.16886 0.0
H825 H 0.32454 0.09549 0.18984 0.0
H826 H 0.35295 0.02383 0.24383 0.0
H827 H 0.38553 1.01183 0.2939 0.0
C828 C 0.48872 0.31982 0.3356 0.0
C829 C 0.45901 0.32485 0.36902 0.0
C830 C 0.48113 0.35559 0.47956 0.0
C831 C 0.51024 0.3532 0.44035 0.0
N832 N 0.54024 0.33863 0.32094 0.0
N833 N 0.42616 0.34994 0.46734 0.0
C834 C 0.51366 0.33677 0.36575 0.0
C835 C 0.45495 0.34341 0.4397 0.0
N836 N 0.49335 0.29836 0.27574 0.0
N837 N 0.47865 0.36887 0.55553 0.0
H838 H 0.40669 0.34064 0.44042 0.0
H839 H 0.42148 0.36605 0.51299 0.0
H840 H 0.4973 0.37809 0.58602 0.0
H841 H 0.45873 0.36864 0.59099 0.0
H842 H 0.51492 0.29113 0.25678 0.0
H843 H 0.47577 0.28559 0.25085 0.0
H844 H 0.54251 0.3301 0.26118 0.0
H845 H 0.55917 0.35123 0.33962 0.0
C846 C 0.19562 0.54835 0.6313 0.0
C847 C 0.19275 0.55341 0.54549 0.0
C848 C 0.16051 0.59767 0.57184 0.0
C849 C 0.16101 0.59113 0.657 0.0
N850 N 0.1777 0.56042 0.76995 0.0
N851 N 0.17339 0.58438 0.43388 0.0
C852 C 0.17856 0.56672 0.68762 0.0
C853 C 0.1757 0.57835 0.51584 0.0
N854 N 0.21483 0.5262 0.65839 0.0
N855 N 0.14466 0.62214 0.54349 0.0
H856 H 0.18362 0.5715 0.38704 0.0
H857 H 0.18362 0.5715 0.38704 0.0
H858 H 0.13367 0.63766 0.58252 0.0
H859 H 0.14323 0.62728 0.48096 0.0
H860 H 0.22051 0.52317 0.71978 0.0
H861 H 0.22661 0.5116 0.61849 0.0
H862 H 0.18768 0.54142 0.79602 0.0
H863 H 0.16596 0.57391 0.81274 0.0
C864 C 0.98298 0.84016 0.8946 0.0
C865 C 0.97996 0.82955 0.97641 0.0
C866 C 0.03091 0.84877 1.00889 0.0
C867 C 0.03498 0.85742 0.92572 0.0
N868 N 0.01748 0.8564 0.78531 0.0
N869 N 1.00469 0.81543 0.10327 0.0
C870 C 1.01175 0.8516 0.86713 0.0
C871 C 1.00502 0.83133 0.03114 0.0
N872 N 0.95828 0.83993 0.84409 0.0
N873 N 0.05093 0.85836 0.06773 0.0
H874 H 0.98677 0.80127 0.12108 0.0
H875 H 0.02366 0.81361 0.14099 0.0
H876 H 0.07011 0.8717 0.05482 0.0
H877 H 0.04685 0.85553 0.13059 0.0
H878 H 0.95819 0.85018 0.78644 0.0
H879 H 0.93707 0.83131 0.86253 0.0
H880 H 1.00255 0.84987 0.73896 0.0
H881 H 0.03843 0.86444 0.76314 0.0
C882 C 0.6262 0.97411 0.15696 0.0
C883 C 0.64843 0.98332 0.09719 0.0
C884 C 0.61433 0.02295 0.0522 0.0
C885 C 0.5903 1.01072 0.10071 0.0
N886 N 0.57213 0.96963 0.18687 0.0
N887 N 0.65819 1.00999 0.96977 0.0
C888 C 0.59572 0.98456 0.14911 0.0
C889 C 0.64055 1.0054 0.03834 0.0
N890 N 0.63421 0.95738 0.22385 0.0
N891 N 0.61349 0.05222 1.02489 0.0
H892 H 0.67705 0.99641 0.95565 0.0
H893 H 0.65183 0.02498 0.92352 0.0
H894 H 0.59555 0.06702 0.03835 0.0
H895 H 0.63274 0.06263 0.99919 0.0
H896 H 0.61897 0.95218 0.27134 0.0
H897 H 0.6566 0.95165 0.23722 0.0
H898 H 0.57509 0.94939 0.21888 0.0
H899 H 0.54941 0.97588 0.17956 0.0
C900 C 0.47926 0.70356 0.81609 0.0
C901 C 0.46037 0.70254 0.88753 0.0
C902 C 0.42277 0.67163 0.81399 0.0
C903 C 0.44341 0.66953 0.74639 0.0
N904 N 0.49243 0.68074 0.68434 0.0
N905 N 0.41527 0.68449 0.95836 0.0
C906 C 0.47188 0.68499 0.74735 0.0
C907 C 0.43226 0.68646 0.88743 0.0
N908 N 0.50409 0.72254 0.81385 0.0
N909 N 0.39408 0.6596 0.80732 0.0
H910 H 0.42122 0.69575 1.01265 0.0
H911 H 0.39635 0.67029 0.96517 0.0
H912 H 0.38661 0.64846 0.75424 0.0
H913 H 0.3769 0.66274 0.85126 0.0
H914 H 0.51686 0.72678 0.76067 0.0
H915 H 0.51054 0.73613 0.86368 0.0
H916 H 0.51495 0.68831 0.6863 0.0
H917 H 0.48767 0.66788 0.63178 0.0
C918 C 0.90328 0.63445 0.05678 0.0
C919 C 0.88068 0.64299 1.0008 0.0
C920 C 0.89098 0.59846 0.91746 0.0
C921 C 0.90519 0.58492 0.98697 0.0
N922 N 0.93167 0.59268 0.11533 0.0
N923 N 0.87519 0.64614 0.85527 0.0
C924 C 0.91408 0.60397 0.05402 0.0
C925 C 0.88346 0.6298 0.92217 0.0
N926 N 0.91411 0.65563 0.11053 0.0
N927 N 0.88131 0.58134 0.85233 0.0
H928 H 0.86788 0.66866 0.86188 0.0
H929 H 0.87795 0.63807 0.79512 0.0
H930 H 0.88367 0.55781 0.84868 0.0
H931 H 0.86818 0.59037 0.80537 0.0
H932 H 0.93029 0.65109 0.15487 0.0
H933 H 0.9074 0.67838 0.10645 0.0
H934 H 0.93455 0.60383 0.17145 0.0
H935 H 0.94235 0.57154 0.11066 0.0
C936 C 0.01881 0.15969 0.81868 0.0
C937 C 0.03276 0.16214 0.89691 0.0
C938 C 0.03149 0.10598 0.90593 0.0
C939 C 0.02292 0.10345 0.82177 0.0
N940 N 0.98785 0.1279 0.73165 0.0
N941 N 0.05403 0.13669 1.01412 0.0
C942 C 1.01095 0.13034 0.78628 0.0
C943 C 0.03946 0.135 0.94034 0.0
N944 N 1.01298 0.18533 0.77458 0.0
N945 N 0.02711 0.08172 0.95676 0.0
H946 H 0.05999 0.15731 0.042 0.0
H947 H 0.06231 0.11755 0.04406 0.0
H948 H 0.01622 0.06185 0.93723 0.0
H949 H 0.02952 0.08312 1.02044 0.0
H950 H 1.00594 0.18455 0.71345 0.0
H951 H 0.01732 0.20722 0.79707 0.0
H952 H 0.97575 0.14658 0.71041 0.0
H953 H 0.97778 0.10701 0.71915 0.0
C954 C 0.39856 0.04 0.90837 0.0
C955 C 0.37404 0.04906 0.85777 0.0
C956 C 0.41065 0.05138 0.74031 0.0
C957 C 0.43405 0.03799 0.78838 0.0
N958 N 0.44616 1.01336 0.9168 0.0
N959 N 0.35616 0.057 0.71971 0.0
C960 C 0.42666 0.03027 0.87168 0.0
C961 C 0.37995 0.05292 0.77195 0.0
N962 N 0.39596 0.04233 0.99215 0.0
N963 N 0.41756 0.06323 0.66481 0.0
H964 H 0.33348 0.05707 0.73983 0.0
H965 H 0.35873 0.057 0.65584 0.0
H966 H 0.43949 0.06314 0.63969 0.0
H967 H 0.4021 0.07582 0.63078 0.0
H968 H 0.41429 0.03907 0.03143 0.0
H969 H 0.37671 0.05104 1.02207 0.0
H970 H 0.44052 1.00447 0.97442 0.0
H971 H 0.46661 1.00567 0.89302 0.0
C972 C 0.53416 0.38348 0.80998 0.0
C973 C 0.51787 0.38378 0.88576 0.0
C974 C 0.5109 0.4393 0.86969 0.0
C975 C 0.52242 0.43779 0.78745 0.0
N976 N 0.53951 0.40589 0.6758 0.0
N977 N 0.48732 0.41211 0.98386 0.0
C978 C 0.53292 0.40924 0.75715 0.0
C979 C 0.50535 0.41179 0.91479 0.0
N980 N 0.55102 0.35853 0.7883 0.0
N981 N 0.50668 0.46701 0.90649 0.0
H982 H 0.48282 0.39265 1.01854 0.0
H983 H 0.4749 0.43115 1.00268 0.0
H984 H 0.51234 0.48738 0.87728 0.0
H985 H 0.50084 0.46962 0.96848 0.0
H986 H 0.56592 0.35819 0.73784 0.0
H987 H 0.55258 0.33935 0.82564 0.0
H988 H 0.54468 0.38494 0.64929 0.0
H989 H 0.53528 0.42306 0.63395 0.0
C990 C 0.14848 0.48713 0.82145 0.0
C991 C 0.15201 0.49633 0.90492 0.0
C992 C 0.10017 0.51781 0.9034 0.0
C993 C 0.09505 0.50541 0.82333 0.0
N994 N 0.11403 0.47477 0.70992 0.0
N995 N 0.12868 0.51527 0.03009 0.0
C996 C 0.11923 0.48929 0.78311 0.0
C997 C 0.1271 0.51016 0.94712 0.0
N998 N 0.17331 0.47699 0.77796 0.0
N999 N 0.08017 0.53839 0.93654 0.0
H1000 H 0.14783 0.51004 0.0647 0.0
H1001 H 0.10996 0.52192 0.06582 0.0
H1002 H 0.0612 0.54622 0.90542 0.0
H1003 H 0.08433 0.55048 0.99067 0.0
H1004 H 0.17329 0.47332 0.71455 0.0
H1005 H 0.19479 0.4748 0.80418 0.0
H1006 H 0.12945 0.45979 0.6824 0.0
H1007 H 0.09331 0.47569 0.67947 0.0
C1008 C 0.99209 0.88837 0.5852 0.0
C1009 C 1.01389 0.87924 0.52437 0.0
C1010 C 0.04768 0.92114 0.56971 0.0
C1011 C 0.0238 0.9334 0.62012 0.0
N1012 N 0.98068 0.91989 0.70529 0.0
N1013 N 0.06217 0.88804 0.4559 0.0
C1014 C 0.99801 0.91445 0.63637 0.0
C1015 C 0.04157 0.89599 0.51595 0.0
N1016 N 0.96499 0.87299 0.59148 0.0
N1017 N 0.07705 0.93096 0.57946 0.0
H1018 H 0.05987 0.86855 0.41943 0.0
H1019 H 0.08049 0.9019 0.43869 0.0
H1020 H 0.08388 0.94446 0.6288 0.0
H1021 H 0.0956 0.92153 0.54811 0.0
H1022 H 0.94675 0.8802 0.62807 0.0
H1023 H 0.9598 0.85395 0.55552 0.0
H1024 H 0.96312 0.90567 0.72552 0.0
H1025 H 0.98639 0.93662 0.74833 0.0
C1026 C 0.66634 0.03797 0.60192 0.0
C1027 C 0.67444 1.01029 0.56163 0.0
C1028 C 0.62447 0.98917 0.60497 0.0
C1029 C 0.61423 0.01842 0.6316 0.0
N1030 N 0.62561 0.0724 0.63887 0.0
N1031 N 0.65718 0.96141 0.51028 0.0
C1032 C 0.63531 0.04329 0.62624 0.0
C1033 C 0.6524 0.98635 0.55929 0.0
N1034 N 0.68836 0.05915 0.6186 0.0
N1035 N 0.60824 0.96369 0.62593 0.0
H1036 H 0.67637 0.95892 0.47243 0.0
H1037 H 0.64049 0.94482 0.50053 0.0
H1038 H 0.58894 0.96437 0.66399 0.0
H1039 H 0.61604 0.94171 0.61379 0.0
H1040 H 0.6843 0.07838 0.655 0.0
H1041 H 0.71131 0.05582 0.60366 0.0
H1042 H 0.63928 0.09145 0.62765 0.0
H1043 H 0.60308 0.07769 0.65195 0.0
C1044 C 0.53174 0.64425 0.46453 0.0
C1045 C 0.54861 0.66635 0.50868 0.0
C1046 C 0.56019 0.6273 0.6133 0.0
C1047 C 0.54482 0.60455 0.56576 0.0
N1048 N 0.52508 0.59157 0.43052 0.0
N1049 N 0.58058 0.67918 0.62279 0.0
C1050 C 0.53314 0.61306 0.48721 0.0
C1051 C 0.56318 0.65796 0.58285 0.0
N1052 N 0.51396 0.65297 0.40017 0.0
N1053 N 0.57326 0.6192 0.68576 0.0
H1054 H 0.58225 0.70173 0.60321 0.0
H1055 H 0.59423 0.6745 0.67303 0.0
H1056 H 0.57631 0.59652 0.70206 0.0
H1057 H 0.58118 0.63467 0.72941 0.0
H1058 H 0.49789 0.63858 0.37315 0.0
H1059 H 0.51302 0.67525 0.37854 0.0
H1060 H 0.52027 0.59662 0.36941 0.0
H1061 H 0.52673 0.56847 0.43998 0.0
C1062 C 0.88717 0.54611 0.54164 0.0
C1063 C 0.87755 0.5214 0.49109 0.0
C1064 C 0.92356 0.49327 0.53288 0.0
C1065 C 0.9313 0.51675 0.5904 0.0
N1066 N 0.91269 0.56029 0.66716 0.0
N1067 N 0.88346 0.46842 0.45496 0.0
C1068 C 0.91086 0.54169 0.59979 0.0
C1069 C 0.89482 0.49405 0.49175 0.0
N1070 N 0.87461 0.57428 0.53259 0.0
N1071 N 0.94397 0.47086 0.51385 0.0
H1072 H 0.86229 0.46785 0.42628 0.0
H1073 H 0.8935 0.44708 0.46053 0.0
H1074 H 0.96543 0.46946 0.53987 0.0
H1075 H 0.94076 0.45534 0.46588 0.0
H1076 H 0.88307 0.59359 0.56243 0.0
H1077 H 0.85812 0.579 0.48881 0.0
H1078 H 0.89723 0.57776 0.679 0.0
H1079 H 0.92682 0.55554 0.71651 0.0
loop_
_geom_bond_atom_site_label_1
_geom_bond_atom_site_label_2
_geom_bond_distance
_geom_bond_site_symmetry_2
_ccdc_geom_bond_type
C0 C1 1.386 . S
C0 C2 1.397 . S
C0 H24 0.931 . S
C1 C0 1.386 . S
C1 C5 1.397 . S
C2 C0 1.397 . S
C2 C3 1.384 . S
C2 H25 0.930 . S
C3 C2 1.384 . S
C3 C4 1.377 . S
C3 C6 1.481 . S
C4 C3 1.377 . S
C4 C5 1.389 . S
C4 H26 0.929 . S
C5 C1 1.397 . S
C5 C4 1.389 . S
C5 H27 0.931 . S
C6 C3 1.481 . S
C6 C7 1.387 . S
C6 C11 1.390 . S
C7 C6 1.387 . S
C7 C8 1.401 . S
C7 H28 0.930 . S
C8 C7 1.401 . S
C8 C9 1.376 . S
C8 C17 1.511 . S
C9 C8 1.376 . S
C9 C10 1.392 . S
C9 H30 0.931 . S
C10 C9 1.392 . S
C10 C11 1.361 . S
C10 C12 1.500 . S
C11 C6 1.390 . S
C11 C10 1.361 . S
C11 H29 0.931 . S
C12 C10 1.500 . S
C12 C13 1.371 . S
C12 C14 1.365 . S
C13 C12 1.371 . S
C13 C23 1.386 . S
C13 H31 0.931 . S
C14 C12 1.365 . S
C14 C15 1.409 . S
C14 H32 0.929 . S
C15 C14 1.409 . S
C15 C16 1.380 . S
C15 H33 0.930 . S
C16 C15 1.380 . S
C16 C23 1.357 . S
C17 C8 1.511 . S
C17 C18 1.341 . S
C17 C19 1.371 . S
C18 C17 1.341 . S
C18 C22 1.394 . S
C18 H34 0.930 . S
C19 C17 1.371 . S
C19 C20 1.392 . S
C19 H35 0.931 . S
C20 C19 1.392 . S
C20 C21 1.331 . S
C20 H38 0.932 . S
C21 C20 1.331 . S
C21 C22 1.336 . S
C22 C18 1.394 . S
C22 C21 1.336 . S
C22 H37 0.929 . S
C23 C13 1.386 . S
C23 C16 1.357 . S
C23 H36 0.928 . S
H24 C0 0.931 . S
H25 C2 0.930 . S
H26 C4 0.929 . S
H27 C5 0.931 . S
H28 C7 0.930 . S
H29 C11 0.931 . S
H30 C9 0.931 . S
H31 C13 0.931 . S
H32 C14 0.929 . S
H33 C15 0.930 . S
H34 C18 0.930 . S
H35 C19 0.931 . S
H36 C23 0.928 . S
H37 C22 0.929 . S
H38 C20 0.932 . S
C39 C40 1.386 . S
C39 C41 1.397 . S
C39 H63 0.931 . S
C40 C39 1.386 . S
C40 C44 1.397 . S
C41 C39 1.397 . S
C41 C42 1.384 . S
C41 H64 0.930 . S
C42 C41 1.384 . S
C42 C43 1.377 . S
C42 C45 1.481 . S
C43 C42 1.377 . S
C43 C44 1.389 . S
C43 H65 0.929 1_655 S
C44 C40 1.397 . S
C44 C43 1.389 . S
C44 H66 0.931 1_655 S
C45 C42 1.481 . S
C45 C46 1.387 . S
C45 C50 1.390 . S
C46 C45 1.387 . S
C46 C47 1.401 . S
C46 H67 0.930 . S
C47 C46 1.401 . S
C47 C48 1.376 . S
C47 C56 1.511 . S
C48 C47 1.376 . S
C48 C49 1.392 . S
C48 H69 0.931 . S
C49 C48 1.392 . S
C49 C50 1.361 . S
C49 C51 1.500 . S
C50 C45 1.390 . S
C50 C49 1.361 . S
C50 H68 0.931 . S
C51 C49 1.500 . S
C51 C52 1.371 . S
C51 C53 1.365 . S
C52 C51 1.371 . S
C52 C62 1.386 . S
C52 H70 0.931 . S
C53 C51 1.365 . S
C53 C54 1.409 . S
C53 H71 0.950 . S
C54 C53 1.409 . S
C54 C55 1.380 . S
C54 H72 0.930 . S
C55 C54 1.380 . S
C55 C62 1.357 . S
C56 C47 1.511 . S
C56 C57 1.341 . S
C56 C58 1.371 . S
C57 C56 1.341 . S
C57 C61 1.394 . S
C57 H73 0.930 . S
C58 C56 1.371 . S
C58 C59 1.392 . S
C58 H74 0.931 . S
C59 C58 1.392 . S
C59 C60 1.331 . S
C59 H77 0.932 . S
C60 C59 1.331 . S
C60 C61 1.336 . S
C61 C57 1.394 . S
C61 C60 1.336 . S
C61 H76 0.929 . S
C62 C52 1.386 . S
C62 C55 1.357 . S
C62 H75 0.928 . S
H63 C39 0.931 . S
H64 C41 0.930 . S
H65 C43 0.929 1_455 S
H66 C44 0.931 1_455 S
H67 C46 0.930 . S
H68 C50 0.931 . S
H69 C48 0.931 . S
H70 C52 0.931 . S
H71 C53 0.950 . S
H72 C54 0.930 . S
H73 C57 0.930 . S
H74 C58 0.931 . S
H75 C62 0.928 . S
H76 C61 0.929 . S
H77 C59 0.932 . S
C78 C79 1.386 . S
C78 C80 1.397 . S
C78 H102 0.931 . S
C79 C78 1.386 . S
C79 C83 1.397 . S
C80 C78 1.397 . S
C80 C81 1.384 . S
C80 H103 0.930 . S
C81 C80 1.384 . S
C81 C82 1.377 . S
C81 C84 1.481 . S
C82 C81 1.377 . S
C82 C83 1.389 . S
C82 H104 0.929 1_565 S
C83 C79 1.397 . S
C83 C82 1.389 . S
C83 H105 0.931 1_565 S
C84 C81 1.481 . S
C84 C85 1.387 . S
C84 C89 1.390 . S
C85 C84 1.387 . S
C85 C86 1.401 . S
C85 H106 0.930 . S
C86 C85 1.401 . S
C86 C87 1.376 . S
C86 C95 1.511 . S
C87 C86 1.376 . S
C87 C88 1.392 . S
C87 H108 0.931 . S
C88 C87 1.392 . S
C88 C89 1.361 . S
C88 C90 1.500 . S
C89 C84 1.390 . S
C89 C88 1.361 . S
C89 H107 0.931 . S
C90 C88 1.500 . S
C90 C91 1.371 . S
C90 C92 1.365 . S
C91 C90 1.371 . S
C91 C101 1.386 . S
C91 H109 0.931 . S
C92 C90 1.365 . S
C92 C93 1.409 . S
C92 H110 0.929 . S
C93 C92 1.409 . S
C93 C94 1.380 . S
C93 H111 0.930 . S
C94 C93 1.380 . S
C94 C101 1.357 . S
C95 C86 1.511 . S
C95 C96 1.341 . S
C95 C97 1.371 . S
C96 C95 1.341 . S
C96 C100 1.394 . S
C96 H112 0.930 . S
C97 C95 1.371 . S
C97 C98 1.392 . S
C97 H113 0.931 . S
C98 C97 1.392 . S
C98 C99 1.331 . S
C98 H116 0.932 . S
C99 C98 1.331 . S
C99 C100 1.336 . S
C100 C96 1.394 . S
C100 C99 1.336 . S
C100 H115 0.929 . S
C101 C91 1.386 . S
C101 C94 1.357 . S
C101 H114 0.928 . S
H102 C78 0.931 . S
H103 C80 0.930 . S
H104 C82 0.929 1_545 S
H105 C83 0.931 1_545 S
H106 C85 0.930 . S
H107 C89 0.931 . S
H108 C87 0.931 . S
H109 C91 0.931 . S
H110 C92 0.929 . S
H111 C93 0.930 . S
H112 C96 0.930 . S
H113 C97 0.931 . S
H114 C101 0.928 . S
H115 C100 0.929 . S
H116 C98 0.932 . S
C117 C118 1.386 . S
C117 C119 1.397 . S
C117 H141 0.931 . S
C118 C117 1.386 . S
C118 C122 1.397 . S
C119 C117 1.397 . S
C119 C120 1.384 . S
C119 H142 0.930 . S
C120 C119 1.384 . S
C120 C121 1.377 . S
C120 C123 1.481 . S
C121 C120 1.377 . S
C121 C122 1.389 . S
C121 H143 0.929 . S
C122 C118 1.397 . S
C122 C121 1.389 . S
C122 H144 0.931 . S
C123 C120 1.481 . S
C123 C124 1.387 . S
C123 C128 1.390 . S
C124 C123 1.387 . S
C124 C125 1.401 . S
C124 H145 0.930 . S
C125 C124 1.401 . S
C125 C126 1.376 . S
C125 C134 1.511 . S
C126 C125 1.376 . S
C126 C127 1.392 . S
C126 H147 0.931 . S
C127 C126 1.392 . S
C127 C128 1.361 . S
C127 C129 1.500 . S
C128 C123 1.390 . S
C128 C127 1.361 . S
C128 H146 0.931 . S
C129 C127 1.500 . S
C129 C130 1.371 . S
C129 C131 1.365 . S
C130 C129 1.371 . S
C130 C140 1.386 . S
C130 H148 0.931 . S
C131 C129 1.365 . S
C131 C132 1.409 . S
C131 H149 0.929 . S
C132 C131 1.409 . S
C132 C133 1.380 . S
C132 H150 0.930 . S
C133 C132 1.380 . S
C133 C140 1.357 . S
C134 C125 1.511 . S
C134 C135 1.341 . S
C134 C136 1.371 . S
C135 C134 1.341 . S
C135 C139 1.394 . S
C135 H151 0.930 . S
C136 C134 1.371 . S
C136 C137 1.392 . S
C136 H152 0.931 . S
C137 C136 1.392 . S
C137 C138 1.331 . S
C137 H155 0.932 . S
C138 C137 1.331 . S
C138 C139 1.336 . S
C139 C135 1.394 . S
C139 C138 1.336 . S
C139 H154 0.929 . S
C140 C130 1.386 . S
C140 C133 1.357 . S
C140 H153 0.928 . S
H141 C117 0.931 . S
H142 C119 0.930 . S
H143 C121 0.929 . S
H144 C122 0.931 . S
H145 C124 0.930 . S
H146 C128 0.931 . S
H147 C126 0.931 . S
H148 C130 0.931 . S
H149 C131 0.929 . S
H150 C132 0.930 . S
H151 C135 0.930 . S
H152 C136 0.931 . S
H153 C140 0.928 . S
H154 C139 0.929 . S
H155 C137 0.932 . S
C156 C157 1.386 . S
C156 C158 1.397 . S
C156 H180 0.931 . S
C157 C156 1.386 . S
C157 C161 1.397 . S
C158 C156 1.397 . S
C158 C159 1.384 . S
C158 H181 0.930 . S
C159 C158 1.384 . S
C159 C160 1.377 . S
C159 C162 1.481 . S
C160 C159 1.377 . S
C160 C161 1.389 . S
C160 H182 0.929 . S
C161 C157 1.397 . S
C161 C160 1.389 . S
C161 H183 0.931 . S
C162 C159 1.481 . S
C162 C163 1.387 . S
C162 C167 1.390 . S
C163 C162 1.387 . S
C163 C164 1.401 . S
C163 H184 0.930 . S
C164 C163 1.401 . S
C164 C165 1.376 1_554 S
C164 C173 1.511 . S
C165 C164 1.376 1_556 S
C165 C166 1.392 . S
C165 H186 0.931 . S
C166 C165 1.392 . S
C166 C167 1.361 1_556 S
C166 C168 1.500 . S
C167 C162 1.390 . S
C167 C166 1.361 1_554 S
C167 H185 0.931 . S
C168 C166 1.500 . S
C168 C169 1.371 . S
C168 C170 1.365 . S
C169 C168 1.371 . S
C169 C179 1.386 . S
C169 H187 0.931 . S
C170 C168 1.365 . S
C170 C171 1.409 . S
C170 H188 0.929 . S
C171 C170 1.409 . S
C171 C172 1.380 . S
C171 H189 0.930 . S
C172 C171 1.380 . S
C172 C179 1.357 . S
C173 C164 1.511 . S
C173 C174 1.341 . S
C173 C175 1.371 . S
C174 C173 1.341 . S
C174 C178 1.394 . S
C174 H190 0.930 . S
C175 C173 1.371 . S
C175 C176 1.392 . S
C175 H191 0.931 1_554 S
C176 C175 1.392 . S
C176 C177 1.331 . S
C176 H194 0.932 . S
C177 C176 1.331 . S
C177 C178 1.336 . S
C178 C174 1.394 . S
C178 C177 1.336 . S
C178 H193 0.929 . S
C179 C169 1.386 . S
C179 C172 1.357 . S
C179 H192 0.928 . S
H180 C156 0.931 . S
H181 C158 0.930 . S
H182 C160 0.929 . S
H183 C161 0.931 . S
H184 C163 0.930 . S
H185 C167 0.931 . S
H186 C165 0.931 . S
H187 C169 0.931 . S
H188 C170 0.929 . S
H189 C171 0.930 . S
H190 C174 0.930 . S
H191 C175 0.931 1_556 S
H192 C179 0.928 . S
H193 C178 0.929 . S
H194 C176 0.932 . S
C195 C196 1.386 . S
C195 C197 1.397 . S
C195 H219 0.931 . S
C196 C195 1.386 . S
C196 C200 1.397 . S
C197 C195 1.397 . S
C197 C198 1.384 . S
C197 H220 0.930 . S
C198 C197 1.384 . S
C198 C199 1.377 . S
C198 C201 1.481 . S
C199 C198 1.377 . S
C199 C200 1.389 . S
C199 H221 0.929 . S
C200 C196 1.397 . S
C200 C199 1.389 . S
C200 H222 0.931 . S
C201 C198 1.481 . S
C201 C202 1.387 . S
C201 C206 1.390 . S
C202 C201 1.387 . S
C202 C203 1.401 . S
C202 H223 0.930 . S
C203 C202 1.401 . S
C203 C204 1.376 1_554 S
C203 C212 1.511 . S
C204 C203 1.376 1_556 S
C204 C205 1.392 . S
C204 H225 0.931 . S
C205 C204 1.392 . S
C205 C206 1.361 1_556 S
C205 C207 1.500 . S
C206 C201 1.390 . S
C206 C205 1.361 1_554 S
C206 H224 0.931 . S
C207 C205 1.500 . S
C207 C208 1.371 . S
C207 C209 1.365 . S
C208 C207 1.371 . S
C208 C218 1.386 . S
C208 H226 0.931 . S
C209 C207 1.365 . S
C209 C210 1.409 . S
C209 H227 0.929 . S
C210 C209 1.409 . S
C210 C211 1.380 . S
C210 H228 0.930 . S
C211 C210 1.380 . S
C211 C218 1.357 . S
C212 C203 1.511 . S
C212 C213 1.341 . S
C212 C214 1.371 . S
C213 C212 1.341 . S
C213 C217 1.394 . S
C213 H229 0.930 . S
C214 C212 1.371 . S
C214 C215 1.392 . S
C214 H230 0.931 1_554 S
C215 C214 1.392 . S
C215 C216 1.331 . S
C215 H233 0.932 . S
C216 C215 1.331 . S
C216 C217 1.336 . S
C217 C213 1.394 . S
C217 C216 1.336 . S
C217 H232 0.929 . S
C218 C208 1.386 . S
C218 C211 1.357 . S
C218 H231 0.928 . S
H219 C195 0.931 . S
H220 C197 0.930 . S
H221 C199 0.929 . S
H222 C200 0.931 . S
H223 C202 0.930 . S
H224 C206 0.931 . S
H225 C204 0.931 . S
H226 C208 0.931 . S
H227 C209 0.929 . S
H228 C210 0.930 . S
H229 C213 0.930 . S
H230 C214 0.931 1_556 S
H231 C218 0.928 . S
H232 C217 0.929 . S
H233 C215 0.932 . S
C234 C235 1.386 . S
C234 C236 1.397 . S
C234 H258 0.931 . S
C235 C234 1.386 . S
C235 C239 1.397 . S
C236 C234 1.397 . S
C236 C237 1.384 . S
C236 H259 0.930 . S
C237 C236 1.384 . S
C237 C238 1.377 . S
C237 C240 1.481 . S
C238 C237 1.377 . S
C238 C239 1.389 . S
C238 H260 0.929 . S
C239 C235 1.397 . S
C239 C238 1.389 . S
C239 H261 0.931 . S
C240 C237 1.481 . S
C240 C241 1.387 . S
C240 C245 1.390 . S
C241 C240 1.387 . S
C241 C242 1.401 . S
C241 H262 0.930 . S
C242 C241 1.401 . S
C242 C243 1.376 1_554 S
C242 C251 1.511 . S
C243 C242 1.376 1_556 S
C243 C244 1.392 . S
C243 H264 0.931 . S
C244 C243 1.392 . S
C244 C245 1.361 1_556 S
C244 C246 1.500 . S
C245 C240 1.390 . S
C245 C244 1.361 1_554 S
C245 H263 0.931 . S
C246 C244 1.500 . S
C246 C247 1.371 . S
C246 C248 1.365 . S
C247 C246 1.371 . S
C247 C257 1.386 . S
C247 H265 0.931 . S
C248 C246 1.365 . S
C248 C249 1.409 . S
C248 H266 0.929 . S
C249 C248 1.409 . S
C249 C250 1.380 . S
C249 H267 0.930 . S
C250 C249 1.380 . S
C250 C257 1.357 . S
C251 C242 1.511 . S
C251 C252 1.341 . S
C251 C253 1.371 . S
C252 C251 1.341 . S
C252 C256 1.394 . S
C252 H268 0.930 . S
C253 C251 1.371 . S
C253 C254 1.392 . S
C253 H269 0.931 1_554 S
C254 C253 1.392 . S
C254 C255 1.331 . S
C254 H272 0.932 . S
C255 C254 1.331 . S
C255 C256 1.336 . S
C256 C252 1.394 . S
C256 C255 1.336 . S
C256 H271 0.929 . S
C257 C247 1.386 . S
C257 C250 1.357 . S
C257 H270 0.928 . S
H258 C234 0.931 . S
H259 C236 0.930 . S
H260 C238 0.929 . S
H261 C239 0.931 . S
H262 C241 0.930 . S
H263 C245 0.931 . S
H264 C243 0.931 . S
H265 C247 0.931 . S
H266 C248 0.929 . S
H267 C249 0.930 . S
H268 C252 0.930 . S
H269 C253 0.931 1_556 S
H270 C257 0.928 . S
H271 C256 0.929 . S
H272 C254 0.932 . S
C273 C274 1.386 . S
C273 C275 1.397 . S
C273 H297 0.931 . S
C274 C273 1.386 . S
C274 C278 1.397 . S
C275 C273 1.397 . S
C275 C276 1.384 . S
C275 H298 0.930 . S
C276 C275 1.384 . S
C276 C277 1.377 . S
C276 C279 1.481 . S
C277 C276 1.377 . S
C277 C278 1.389 . S
C277 H299 0.929 . S
C278 C274 1.397 . S
C278 C277 1.389 . S
C278 H300 0.931 . S
C279 C276 1.481 . S
C279 C280 1.387 . S
C279 C284 1.390 1_556 S
C280 C279 1.387 . S
C280 C281 1.401 1_556 S
C280 H301 0.930 . S
C281 C280 1.401 1_554 S
C281 C282 1.376 . S
C281 C290 1.511 . S
C282 C281 1.376 . S
C282 C283 1.392 . S
C282 H303 0.931 . S
C283 C282 1.392 . S
C283 C284 1.361 . S
C283 C285 1.500 . S
C284 C279 1.390 1_554 S
C284 C283 1.361 . S
C284 H302 0.931 . S
C285 C283 1.500 . S
C285 C286 1.371 . S
C285 C287 1.365 . S
C286 C285 1.371 . S
C286 C296 1.386 . S
C286 H304 0.931 . S
C287 C285 1.365 . S
C287 C288 1.409 . S
C287 H305 0.929 . S
C288 C287 1.409 . S
C288 C289 1.380 . S
C288 H306 0.930 . S
C289 C288 1.380 . S
C289 C296 1.357 . S
C290 C281 1.511 . S
C290 C291 1.341 . S
C290 C292 1.371 . S
C291 C290 1.341 . S
C291 C295 1.394 . S
C291 H307 0.930 1_554 S
C292 C290 1.371 . S
C292 C293 1.392 . S
C292 H308 0.931 . S
C293 C292 1.392 . S
C293 C294 1.331 . S
C293 H311 0.932 . S
C294 C293 1.331 . S
C294 C295 1.336 . S
C295 C291 1.394 . S
C295 C294 1.336 . S
C295 H310 0.929 . S
C296 C286 1.386 . S
C296 C289 1.357 . S
C296 H309 0.928 . S
H297 C273 0.931 . S
H298 C275 0.930 . S
H299 C277 0.929 . S
H300 C278 0.931 . S
H301 C280 0.930 . S
H302 C284 0.931 . S
H303 C282 0.931 . S
H304 C286 0.931 . S
H305 C287 0.929 . S
H306 C288 0.930 . S
H307 C291 0.930 1_556 S
H308 C292 0.931 . S
H309 C296 0.928 . S
H310 C295 0.929 . S
H311 C293 0.932 . S
C312 C314 1.422 . S
C312 C316 1.415 . S
C312 N318 1.369 . S
C313 C314 1.421 . S
C313 C315 1.417 1_556 S
C313 C325 1.422 1_556 S
C314 C312 1.422 . S
C314 C313 1.421 . S
C314 N324 1.359 . S
C315 C313 1.417 1_554 S
C315 C317 1.329 1_554 S
C315 H334 0.930 . S
C316 C312 1.415 . S
C316 C317 1.437 . S
C316 C320 1.413 . S
C317 C315 1.329 1_556 S
C317 C316 1.437 . S
C317 H339 0.929 . S
N318 C312 1.369 . S
N318 C319 1.338 1_545 S
N318 Gd323 2.622 1_545 S
C319 N318 1.338 1_565 S
C319 C321 1.378 1_565 S
C319 H331 0.929 . S
C320 C316 1.413 . S
C320 C321 1.348 . S
C320 H336 0.931 . S
C321 C319 1.378 1_545 S
C321 C320 1.348 . S
C321 H337 0.930 . S
Gd322 N342 2.622 . S
Gd322 N349 2.570 . S
Gd322 O356 2.353 1_655 S
Gd322 O357 2.468 . S
Gd322 O358 2.427 . S
Gd322 O360 2.388 . S
Gd322 O361 2.386 1_545 S
Gd322 O365 2.307 1_655 S
Gd322 C375 2.805 . S
Gd323 N318 2.622 1_565 S
Gd323 N324 2.570 1_565 S
Gd323 O355 2.386 1_565 S
Gd323 O359 2.305 1_465 S
Gd323 O362 2.353 . S
Gd323 O363 2.468 . S
Gd323 O364 2.427 . S
Gd323 O366 2.388 . S
Gd323 C387 2.805 . S
N324 C314 1.359 . S
N324 Gd323 2.570 1_545 S
N324 C326 1.343 . S
C325 C313 1.422 1_554 S
C325 C327 1.321 . S
C325 H333 0.931 . S
C326 N324 1.343 . S
C326 C327 1.390 1_556 S
C326 H328 0.931 . S
C327 C325 1.321 . S
C327 C326 1.390 1_554 S
C327 H329 0.930 . S
H328 C326 0.931 . S
H329 C327 0.930 . S
H330 C353 0.931 1_455 S
H331 C319 0.929 . S
H332 C354 0.930 1_455 S
H333 C325 0.931 . S
H334 C315 0.930 . S
H335 C344 0.929 . S
H336 C320 0.931 . S
H337 C321 0.930 . S
H338 C376 0.930 . S
H339 C317 0.929 . S
H340 C345 0.931 . S
H341 C346 0.930 . S
N342 Gd322 2.622 . S
N342 C343 1.358 1_545 S
N342 C344 1.338 . S
C343 N342 1.358 1_565 S
C343 C347 1.424 . S
C343 C350 1.425 . S
C344 H335 0.929 . S
C344 N342 1.338 . S
C344 C346 1.378 . S
C345 H340 0.931 . S
C345 C346 1.348 1_565 S
C345 C347 1.413 . S
C346 H341 0.930 . S
C346 C344 1.378 . S
C346 C345 1.348 1_545 S
C347 C343 1.424 . S
C347 C345 1.413 . S
C347 C377 1.437 . S
H348 C377 0.929 . S
N349 Gd322 2.570 . S
N349 C350 1.359 1_545 S
N349 C353 1.343 . S
C350 C343 1.425 . S
C350 N349 1.359 1_565 S
C350 C352 1.421 . S
C351 C352 1.422 . S
C351 C354 1.321 . S
C351 H378 0.931 . S
C352 C350 1.421 . S
C352 C351 1.422 . S
C352 C376 1.417 . S
C353 H330 0.931 1_655 S
C353 N349 1.343 . S
C353 C354 1.390 1_545 S
C354 H332 0.930 1_655 S
C354 C351 1.321 . S
C354 C353 1.390 1_565 S
O355 Gd323 2.386 1_545 S
O355 C367 1.265 . S
O356 Gd322 2.353 1_455 S
O356 C367 1.242 . S
O357 Gd322 2.468 . S
O357 C375 1.263 . S
O358 Gd322 2.427 . S
O358 C375 1.252 . S
O359 Gd323 2.305 1_645 S
O359 C368 1.263 . S
O360 Gd322 2.388 . S
O360 C368 1.252 . S
O361 Gd322 2.386 1_565 S
O361 C379 1.265 . S
O362 Gd323 2.353 . S
O362 C379 1.242 1_455 S
O363 Gd323 2.468 . S
O363 C387 1.263 . S
O364 Gd323 2.427 . S
O364 C387 1.252 . S
O365 Gd322 2.307 1_455 S
O365 C380 1.261 . S
O366 Gd323 2.388 . S
O366 C380 1.252 1_565 S
C367 O355 1.265 . S
C367 O356 1.242 . S
C368 O359 1.263 . S
C368 O360 1.252 . S
C369 C372 1.394 . S
C369 C374 1.370 . S
C369 C375 1.500 . S
C370 C373 1.383 . S
C370 C374 1.395 . S
C371 C372 1.396 . S
C371 C373 1.365 . S
C371 H388 0.929 . S
C372 C369 1.394 . S
C372 C371 1.396 . S
C372 H389 0.930 . S
C373 C370 1.383 . S
C373 C371 1.365 . S
C373 H390 0.931 . S
C374 C369 1.370 . S
C374 C370 1.395 . S
C374 H391 0.930 1_655 S
C375 Gd322 2.805 . S
C375 O357 1.263 . S
C375 O358 1.252 . S
C375 C369 1.500 . S
C376 H338 0.930 . S
C376 C352 1.417 . S
C376 C377 1.329 . S
C377 C347 1.437 . S
C377 H348 0.929 . S
C377 C376 1.329 . S
H378 C351 0.931 . S
C379 O361 1.265 . S
C379 O362 1.242 1_655 S
C380 O365 1.261 . S
C380 O366 1.252 1_545 S
C381 C384 1.394 . S
C381 C386 1.370 . S
C381 C387 1.500 . S
C382 C385 1.383 . S
C382 C386 1.395 . S
C383 C384 1.396 . S
C383 C385 1.365 . S
C383 H392 0.929 . S
C384 C381 1.394 . S
C384 C383 1.396 . S
C384 H393 0.930 . S
C385 C382 1.383 . S
C385 C383 1.365 . S
C385 H394 0.931 . S
C386 C381 1.370 . S
C386 C382 1.395 . S
C386 H395 0.930 . S
C387 Gd323 2.805 . S
C387 O363 1.263 . S
C387 O364 1.252 . S
C387 C381 1.500 . S
H388 C371 0.929 . S
H389 C372 0.930 . S
H390 C373 0.931 . S
H391 C374 0.930 1_455 S
H392 C383 0.929 . S
H393 C384 0.930 . S
H394 C385 0.931 . S
H395 C386 0.930 . S
C396 C398 1.422 . S
C396 C400 1.415 . S
C396 N402 1.369 . S
C397 C398 1.421 . S
C397 C399 1.417 . S
C397 C409 1.422 . S
C398 C396 1.422 . S
C398 C397 1.421 . S
C398 N408 1.359 . S
C399 C397 1.417 . S
C399 C401 1.329 . S
C399 H418 0.930 . S
C400 C396 1.415 . S
C400 C401 1.437 . S
C400 C404 1.413 . S
C401 C399 1.329 . S
C401 C400 1.437 . S
C401 H423 0.929 . S
N402 C396 1.369 . S
N402 C403 1.338 . S
N402 Gd407 2.622 . S
C403 N402 1.338 . S
C403 C405 1.378 . S
C403 H415 0.929 . S
C404 C400 1.413 . S
C404 C405 1.348 . S
C404 H420 0.931 . S
C405 C403 1.378 . S
C405 C404 1.348 . S
C405 H421 0.930 . S
Gd406 N426 2.622 . S
Gd406 N433 2.570 . S
Gd406 O440 2.353 1_545 S
Gd406 O441 2.468 . S
Gd406 O442 2.427 . S
Gd406 O444 2.388 . S
Gd406 O445 2.386 . S
Gd406 O449 2.307 . S
Gd406 C459 2.805 . S
Gd407 N402 2.622 . S
Gd407 N408 2.570 . S
Gd407 O439 2.386 . S
Gd407 O443 2.307 1_565 S
Gd407 O446 2.353 1_565 S
Gd407 O447 2.468 . S
Gd407 O448 2.427 . S
Gd407 O450 2.388 . S
Gd407 C471 2.805 . S
N408 C398 1.359 . S
N408 Gd407 2.570 . S
N408 C410 1.343 . S
C409 C397 1.422 . S
C409 C411 1.321 . S
C409 H417 0.931 . S
C410 N408 1.343 . S
C410 C411 1.390 . S
C410 H412 0.931 . S
C411 C409 1.321 . S
C411 C410 1.390 . S
C411 H413 0.930 . S
H412 C410 0.931 . S
H413 C411 0.930 . S
H414 C437 0.931 . S
H415 C403 0.929 . S
H416 C438 0.930 . S
H417 C409 0.931 . S
H418 C399 0.930 . S
H419 C428 0.929 . S
H420 C404 0.931 . S
H421 C405 0.930 . S
H422 C460 0.930 . S
H423 C401 0.929 . S
H424 C429 0.931 . S
H425 C430 0.930 . S
N426 Gd406 2.622 . S
N426 C427 1.369 . S
N426 C428 1.338 . S
C427 N426 1.369 . S
C427 C431 1.415 . S
C427 C434 1.422 . S
C428 H419 0.929 . S
C428 N426 1.338 . S
C428 C430 1.378 . S
C429 H424 0.931 . S
C429 C430 1.348 . S
C429 C431 1.413 . S
C430 H425 0.930 . S
C430 C428 1.378 . S
C430 C429 1.348 . S
C431 C427 1.415 . S
C431 C429 1.413 . S
C431 C461 1.437 . S
H432 C461 0.929 . S
N433 Gd406 2.570 . S
N433 C434 1.359 . S
N433 C437 1.343 . S
C434 C427 1.422 . S
C434 N433 1.359 . S
C434 C436 1.421 . S
C435 C436 1.422 . S
C435 C438 1.321 . S
C435 H462 0.931 . S
C436 C434 1.421 . S
C436 C435 1.422 . S
C436 C460 1.417 . S
C437 H414 0.931 . S
C437 N433 1.343 . S
C437 C438 1.390 . S
C438 H416 0.930 . S
C438 C435 1.321 . S
C438 C437 1.390 . S
O439 Gd407 2.386 . S
O439 C451 1.265 . S
O440 Gd406 2.353 1_565 S
O440 C451 1.242 . S
O441 Gd406 2.468 . S
O441 C459 1.263 . S
O442 Gd406 2.427 . S
O442 C459 1.252 . S
O443 Gd407 2.307 1_545 S
O443 C452 1.261 . S
O444 Gd406 2.388 . S
O444 C452 1.252 . S
O445 Gd406 2.386 . S
O445 C463 1.265 . S
O446 Gd407 2.353 1_545 S
O446 C463 1.242 . S
O447 Gd407 2.468 . S
O447 C471 1.263 . S
O448 Gd407 2.427 . S
O448 C471 1.252 . S
O449 Gd406 2.307 . S
O449 C464 1.261 1_545 S
O450 Gd407 2.388 . S
O450 C464 1.252 . S
C451 O439 1.265 . S
C451 O440 1.242 . S
C452 O443 1.261 . S
C452 O444 1.252 . S
C453 C456 1.394 1_556 S
C453 C458 1.370 . S
C453 C459 1.500 . S
C454 C457 1.383 1_556 S
C454 C458 1.395 . S
C455 C456 1.396 . S
C455 C457 1.365 . S
C455 H472 0.929 . S
C456 C453 1.394 1_554 S
C456 C455 1.396 . S
C456 H473 0.930 . S
C457 C454 1.383 1_554 S
C457 C455 1.365 . S
C457 H474 0.931 . S
C458 C453 1.370 . S
C458 C454 1.395 . S
C458 H475 0.930 . S
C459 Gd406 2.805 . S
C459 O441 1.263 . S
C459 O442 1.252 . S
C459 C453 1.500 . S
C460 H422 0.930 . S
C460 C436 1.417 . S
C460 C461 1.329 . S
C461 C431 1.437 . S
C461 H432 0.929 . S
C461 C460 1.329 . S
H462 C435 0.931 . S
C463 O445 1.265 . S
C463 O446 1.242 . S
C464 O449 1.261 1_565 S
C464 O450 1.252 . S
C465 C468 1.394 . S
C465 C470 1.370 . S
C465 C471 1.500 . S
C466 C469 1.383 . S
C466 C470 1.395 . S
C467 C468 1.396 . S
C467 C469 1.365 . S
C467 H476 0.929 . S
C468 C465 1.394 . S
C468 C467 1.396 . S
C468 H477 0.930 . S
C469 C466 1.383 . S
C469 C467 1.365 . S
C469 H478 0.931 . S
C470 C465 1.370 . S
C470 C466 1.395 . S
C470 H479 0.930 . S
C471 Gd407 2.805 . S
C471 O447 1.263 . S
C471 O448 1.252 . S
C471 C465 1.500 . S
H472 C455 0.929 . S
H473 C456 0.930 . S
H474 C457 0.931 . S
H475 C458 0.930 . S
H476 C467 0.929 . S
H477 C468 0.930 . S
H478 C469 0.931 . S
H479 C470 0.930 . S
C480 C482 1.422 . S
C480 C484 1.415 . S
C480 N486 1.369 . S
C481 C482 1.421 . S
C481 C483 1.417 1_556 S
C481 C493 1.422 1_556 S
C482 C480 1.422 . S
C482 C481 1.421 . S
C482 N492 1.359 . S
C483 C481 1.417 1_554 S
C483 C485 1.329 1_554 S
C483 H502 0.930 . S
C484 C480 1.415 . S
C484 C485 1.437 . S
C484 C488 1.413 . S
C485 C483 1.329 1_556 S
C485 C484 1.437 . S
C485 H507 0.929 . S
N486 C480 1.369 . S
N486 C487 1.338 . S
N486 Gd491 2.622 . S
C487 N486 1.338 . S
C487 C489 1.378 . S
C487 H499 0.929 . S
C488 C484 1.413 . S
C488 C489 1.348 . S
C488 H504 0.931 . S
C489 C487 1.378 . S
C489 C488 1.348 . S
C489 H505 0.930 . S
Gd490 N510 2.622 . S
Gd490 N517 2.570 . S
Gd490 O524 2.353 . S
Gd490 O525 2.468 . S
Gd490 O526 2.427 . S
Gd490 O528 2.388 . S
Gd490 O529 2.386 . S
Gd490 O533 2.307 . S
Gd490 C543 2.805 . S
Gd491 N486 2.622 . S
Gd491 N492 2.570 . S
Gd491 O523 2.386 . S
Gd491 O527 2.307 . S
Gd491 O530 2.353 . S
Gd491 O531 2.468 . S
Gd491 O532 2.427 . S
Gd491 O534 2.388 . S
Gd491 C555 2.805 . S
N492 C482 1.359 . S
N492 Gd491 2.570 . S
N492 C494 1.343 . S
C493 C481 1.422 1_554 S
C493 C495 1.321 . S
C493 H501 0.931 . S
C494 N492 1.343 . S
C494 C495 1.390 1_556 S
C494 H496 0.931 . S
C495 C493 1.321 . S
C495 C494 1.390 1_554 S
C495 H497 0.930 . S
H496 C494 0.931 . S
H497 C495 0.930 . S
H498 C521 0.931 . S
H499 C487 0.929 . S
H500 C522 0.930 . S
H501 C493 0.931 . S
H502 C483 0.930 . S
H503 C512 0.929 . S
H504 C488 0.931 . S
H505 C489 0.930 . S
H506 C544 0.930 . S
H507 C485 0.929 . S
H508 C513 0.931 . S
H509 C514 0.930 . S
N510 Gd490 2.622 . S
N510 C511 1.369 . S
N510 C512 1.338 . S
C511 N510 1.369 . S
C511 C515 1.415 . S
C511 C518 1.422 . S
C512 H503 0.929 . S
C512 N510 1.338 . S
C512 C514 1.378 . S
C513 H508 0.931 . S
C513 C514 1.348 . S
C513 C515 1.413 . S
C514 H509 0.930 . S
C514 C512 1.378 . S
C514 C513 1.348 . S
C515 C511 1.415 . S
C515 C513 1.413 . S
C515 C545 1.437 . S
H516 C545 0.929 . S
N517 Gd490 2.570 . S
N517 C518 1.359 . S
N517 C521 1.343 . S
C518 C511 1.422 . S
C518 N517 1.359 . S
C518 C520 1.421 . S
C519 C520 1.422 . S
C519 C522 1.321 . S
C519 H546 0.931 . S
C520 C518 1.421 . S
C520 C519 1.422 . S
C520 C544 1.417 . S
C521 H498 0.931 . S
C521 N517 1.343 . S
C521 C522 1.390 . S
C522 H500 0.930 . S
C522 C519 1.321 . S
C522 C521 1.390 . S
O523 Gd491 2.386 . S
O523 C535 1.265 . S
O524 Gd490 2.353 . S
O524 C535 1.242 . S
O525 Gd490 2.468 . S
O525 C543 1.263 . S
O526 Gd490 2.427 . S
O526 C543 1.252 . S
O527 Gd491 2.307 . S
O527 C536 1.261 . S
O528 Gd490 2.388 . S
O528 C536 1.252 . S
O529 Gd490 2.386 . S
O529 C547 1.265 . S
O530 Gd491 2.353 . S
O530 C547 1.242 . S
O531 Gd491 2.468 . S
O531 C555 1.263 . S
O532 Gd491 2.427 . S
O532 C555 1.252 . S
O533 Gd490 2.307 . S
O533 C548 1.261 . S
O534 Gd491 2.388 . S
O534 C548 1.252 . S
C535 O523 1.265 . S
C535 O524 1.242 . S
C536 O527 1.261 . S
C536 O528 1.252 . S
C537 C540 1.394 . S
C537 C542 1.370 . S
C537 C543 1.500 . S
C538 C541 1.383 . S
C538 C542 1.395 . S
C539 C540 1.396 . S
C539 C541 1.365 . S
C539 H556 0.929 . S
C540 C537 1.394 . S
C540 C539 1.396 . S
C540 H557 0.930 . S
C541 C538 1.383 . S
C541 C539 1.365 . S
C541 H558 0.931 . S
C542 C537 1.370 . S
C542 C538 1.395 . S
C542 H559 0.930 . S
C543 Gd490 2.805 . S
C543 O525 1.263 . S
C543 O526 1.252 . S
C543 C537 1.500 . S
C544 H506 0.930 . S
C544 C520 1.417 . S
C544 C545 1.329 . S
C545 C515 1.437 . S
C545 H516 0.929 . S
C545 C544 1.329 . S
H546 C519 0.931 . S
C547 O529 1.265 . S
C547 O530 1.242 . S
C548 O533 1.261 . S
C548 O534 1.252 . S
C549 C552 1.394 . S
C549 C554 1.370 . S
C549 C555 1.500 . S
C550 C553 1.383 . S
C550 C554 1.395 . S
C551 C552 1.396 . S
C551 C553 1.365 . S
C551 H560 0.929 . S
C552 C549 1.394 . S
C552 C551 1.396 . S
C552 H561 0.930 . S
C553 C550 1.383 . S
C553 C551 1.365 . S
C553 H562 0.931 . S
C554 C549 1.370 . S
C554 C550 1.395 . S
C554 H563 0.930 . S
C555 Gd491 2.805 . S
C555 O531 1.263 . S
C555 O532 1.252 . S
C555 C549 1.500 . S
H556 C539 0.929 . S
H557 C540 0.930 . S
H558 C541 0.931 . S
H559 C542 0.930 . S
H560 C551 0.929 . S
H561 C552 0.930 . S
H562 C553 0.931 . S
H563 C554 0.930 . S
C564 C566 1.422 . S
C564 C568 1.415 . S
C564 N570 1.369 1_455 S
C565 C566 1.421 . S
C565 C567 1.417 1_556 S
C565 C577 1.422 1_556 S
C566 C564 1.422 . S
C566 C565 1.421 . S
C566 N576 1.359 . S
C567 C565 1.417 1_554 S
C567 C569 1.329 1_554 S
C567 H586 0.930 . S
C568 C564 1.415 . S
C568 C569 1.437 . S
C568 C572 1.413 . S
C569 C567 1.329 1_556 S
C569 C568 1.437 . S
C569 H591 0.929 . S
N570 C564 1.369 1_655 S
N570 C571 1.338 . S
N570 Gd575 2.622 . S
C571 N570 1.338 . S
C571 C573 1.378 1_655 S
C571 H583 0.929 . S
C572 C568 1.413 . S
C572 C573 1.348 . S
C572 H588 0.931 . S
C573 C571 1.378 1_455 S
C573 C572 1.348 . S
C573 H589 0.930 . S
Gd574 N594 2.622 . S
Gd574 N601 2.570 . S
Gd574 O608 2.353 . S
Gd574 O609 2.468 . S
Gd574 O610 2.427 . S
Gd574 O612 2.388 . S
Gd574 O613 2.386 1_455 S
Gd574 O617 2.307 . S
Gd574 C627 2.805 . S
Gd575 N570 2.622 . S
Gd575 N576 2.570 1_655 S
Gd575 O607 2.386 1_655 S
Gd575 O611 2.307 . S
Gd575 O614 2.353 . S
Gd575 O615 2.468 . S
Gd575 O616 2.427 . S
Gd575 O618 2.388 . S
Gd575 C639 2.805 . S
N576 C566 1.359 . S
N576 Gd575 2.570 1_455 S
N576 C578 1.343 . S
C577 C565 1.422 1_554 S
C577 C579 1.321 . S
C577 H585 0.931 . S
C578 N576 1.343 . S
C578 C579 1.390 1_556 S
C578 H580 0.928 1_455 S
C579 C577 1.321 . S
C579 C578 1.390 1_554 S
C579 H581 0.930 . S
H580 C578 0.928 1_655 S
H581 C579 0.930 . S
H582 C605 0.931 . S
H583 C571 0.929 . S
H584 C606 0.930 . S
H585 C577 0.931 . S
H586 C567 0.930 . S
H587 C596 0.929 . S
H588 C572 0.931 . S
H589 C573 0.930 . S
H590 C628 0.930 . S
H591 C569 0.929 . S
H592 C597 0.931 . S
H593 C598 0.930 . S
N594 Gd574 2.622 . S
N594 C595 1.361 1_455 S
N594 C596 1.338 . S
C595 N594 1.361 1_655 S
C595 C599 1.422 . S
C595 C602 1.424 . S
C596 H587 0.929 . S
C596 N594 1.338 . S
C596 C598 1.378 . S
C597 H592 0.931 . S
C597 C598 1.348 1_655 S
C597 C599 1.413 . S
C598 H593 0.930 . S
C598 C596 1.378 . S
C598 C597 1.348 1_455 S
C599 C595 1.422 . S
C599 C597 1.413 . S
C599 C629 1.437 . S
H600 C629 0.929 . S
N601 Gd574 2.570 . S
N601 C602 1.359 1_455 S
N601 C605 1.343 . S
C602 C595 1.424 . S
C602 N601 1.359 1_655 S
C602 C604 1.421 . S
C603 C604 1.422 . S
C603 C606 1.321 . S
C603 H630 0.931 . S
C604 C602 1.421 . S
C604 C603 1.422 . S
C604 C628 1.417 . S
C605 H582 0.931 . S
C605 N601 1.343 . S
C605 C606 1.390 1_455 S
C606 H584 0.930 . S
C606 C603 1.321 . S
C606 C605 1.390 1_655 S
O607 Gd575 2.386 1_455 S
O607 C619 1.265 . S
O608 Gd574 2.353 . S
O608 C619 1.242 . S
O609 Gd574 2.468 . S
O609 C627 1.263 . S
O610 Gd574 2.427 . S
O610 C627 1.252 . S
O611 Gd575 2.307 . S
O611 C620 1.261 1_655 S
O612 Gd574 2.388 . S
O612 C620 1.252 . S
O613 Gd574 2.386 1_655 S
O613 C631 1.265 . S
O614 Gd575 2.353 . S
O614 C631 1.242 . S
O615 Gd575 2.468 . S
O615 C639 1.263 . S
O616 Gd575 2.427 . S
O616 C639 1.252 . S
O617 Gd574 2.307 . S
O617 C632 1.261 . S
O618 Gd575 2.388 . S
O618 C632 1.252 1_655 S
C619 O607 1.265 . S
C619 O608 1.242 . S
C620 O611 1.261 1_455 S
C620 O612 1.252 . S
C621 C624 1.394 . S
C621 C626 1.370 . S
C621 C627 1.500 . S
C622 C625 1.383 . S
C622 C626 1.395 . S
C623 C624 1.396 . S
C623 C625 1.365 . S
C623 H640 0.929 . S
C624 C621 1.394 . S
C624 C623 1.396 . S
C624 H641 0.930 . S
C625 C622 1.383 . S
C625 C623 1.365 . S
C625 H642 0.931 . S
C626 C621 1.370 . S
C626 C622 1.395 . S
C626 H643 0.930 . S
C627 Gd574 2.805 . S
C627 O609 1.263 . S
C627 O610 1.252 . S
C627 C621 1.500 . S
C628 H590 0.930 . S
C628 C604 1.417 . S
C628 C629 1.329 . S
C629 C599 1.437 . S
C629 H600 0.929 . S
C629 C628 1.329 . S
H630 C603 0.931 . S
C631 O613 1.265 . S
C631 O614 1.242 . S
C632 O617 1.261 . S
C632 O618 1.252 1_455 S
C633 C636 1.394 . S
C633 C638 1.370 . S
C633 C639 1.500 . S
C634 C637 1.383 . S
C634 C638 1.395 . S
C635 C636 1.396 . S
C635 C637 1.365 . S
C635 H644 0.929 . S
C636 C633 1.394 . S
C636 C635 1.396 . S
C636 H645 0.930 . S
C637 C634 1.383 . S
C637 C635 1.365 . S
C637 H646 0.931 . S
C638 C633 1.370 . S
C638 C634 1.395 . S
C638 H647 0.930 . S
C639 Gd575 2.805 . S
C639 O615 1.263 . S
C639 O616 1.252 . S
C639 C633 1.500 . S
H640 C623 0.929 . S
H641 C624 0.930 . S
H642 C625 0.931 . S
H643 C626 0.930 . S
H644 C635 0.929 . S
H645 C636 0.930 . S
H646 C637 0.931 . S
H647 C638 0.930 . S
C648 C649 1.363 . S
C648 C654 1.379 . S
C648 N656 1.356 . S
C649 C648 1.363 . S
C649 C655 1.363 . S
C650 C651 1.363 . S
C650 C655 1.379 . S
C650 N657 1.356 1_545 S
C651 C650 1.363 . S
C651 C654 1.363 . S
N652 C654 1.356 . S
N652 H664 0.984 . S
N652 H665 0.985 . S
N653 C655 1.356 1_565 S
N653 H658 0.984 1_565 S
N653 H659 0.985 . S
C654 C648 1.379 . S
C654 C651 1.363 . S
C654 N652 1.356 . S
C655 C649 1.363 . S
C655 C650 1.379 . S
C655 N653 1.356 1_545 S
N656 C648 1.356 . S
N656 H662 0.984 . S
N656 H663 0.984 . S
N657 C650 1.356 1_565 S
N657 H660 0.984 . S
N657 H661 0.985 . S
H658 N653 0.984 1_545 S
H659 N653 0.985 . S
H660 N657 0.984 . S
H661 N657 0.985 . S
H662 N656 0.984 . S
H663 N656 0.984 . S
H664 N652 0.984 . S
H665 N652 0.985 . S
C666 C667 1.363 . S
C666 C672 1.379 . S
C666 N674 1.356 . S
C667 C666 1.363 . S
C667 C673 1.363 . S
C668 C669 1.363 . S
C668 C673 1.379 . S
C668 N675 1.356 . S
C669 C668 1.363 . S
C669 C672 1.363 . S
N670 C672 1.356 . S
N670 H682 0.984 . S
N670 H683 0.985 . S
N671 C673 1.356 . S
N671 H676 0.984 . S
N671 H677 0.985 . S
C672 C666 1.379 . S
C672 C669 1.363 . S
C672 N670 1.356 . S
C673 C667 1.363 . S
C673 C668 1.379 . S
C673 N671 1.356 . S
N674 C666 1.356 . S
N674 H680 0.984 . S
N674 H681 0.984 . S
N675 C668 1.356 . S
N675 H678 0.984 . S
N675 H679 0.985 . S
H676 N671 0.984 . S
H677 N671 0.985 . S
H678 N675 0.984 . S
H679 N675 0.985 . S
H680 N674 0.984 . S
H681 N674 0.984 . S
H682 N670 0.984 . S
H683 N670 0.985 . S
C684 C685 1.363 . S
C684 C690 1.379 . S
C684 N692 1.356 . S
C685 C684 1.363 . S
C685 C691 1.363 . S
C686 C687 1.363 . S
C686 C691 1.379 . S
C686 N693 1.356 . S
C687 C686 1.363 . S
C687 C690 1.363 . S
N688 C690 1.356 . S
N688 H700 0.984 . S
N688 H701 0.985 . S
N689 C691 1.356 . S
N689 H694 0.984 . S
N689 H695 0.985 . S
C690 C684 1.379 . S
C690 C687 1.363 . S
C690 N688 1.356 . S
C691 C685 1.363 . S
C691 C686 1.379 . S
C691 N689 1.356 . S
N692 C684 1.356 . S
N692 H698 0.984 . S
N692 H699 0.984 . S
N693 C686 1.356 . S
N693 H696 0.984 . S
N693 H697 0.985 . S
H694 N689 0.984 . S
H695 N689 0.985 . S
H696 N693 0.984 . S
H697 N693 0.985 . S
H698 N692 0.984 . S
H699 N692 0.984 . S
H700 N688 0.984 . S
H701 N688 0.985 . S
C702 C703 1.363 . S
C702 C708 1.379 . S
C702 N710 1.356 . S
C703 C702 1.363 . S
C703 C709 1.363 . S
C704 C705 1.363 . S
C704 C709 1.379 . S
C704 N711 1.356 . S
C705 C704 1.363 . S
C705 C708 1.363 . S
N706 C708 1.356 1_655 S
N706 H718 0.984 . S
N706 H719 0.985 . S
N707 C709 1.356 . S
N707 H712 0.984 . S
N707 H713 0.985 . S
C708 C702 1.379 . S
C708 C705 1.363 . S
C708 N706 1.356 1_455 S
C709 C703 1.363 . S
C709 C704 1.379 . S
C709 N707 1.356 . S
N710 C702 1.356 . S
N710 H716 0.984 1_455 S
N710 H717 0.984 . S
N711 C704 1.356 . S
N711 H714 0.984 . S
N711 H715 0.985 . S
H712 N707 0.984 . S
H713 N707 0.985 . S
H714 N711 0.984 . S
H715 N711 0.985 . S
H716 N710 0.984 1_655 S
H717 N710 0.984 . S
H718 N706 0.984 . S
H719 N706 0.985 . S
C720 C721 1.363 . S
C720 C726 1.379 1_554 S
C720 N728 1.356 . S
C721 C720 1.363 . S
C721 C727 1.363 1_565 S
C722 C723 1.363 1_545 S
C722 C727 1.379 1_556 S
C722 N729 1.356 . S
C723 C722 1.363 1_565 S
C723 C726 1.363 . S
N724 C726 1.356 . S
N724 H736 0.984 . S
N724 H737 0.985 . S
N725 C727 1.356 . S
N725 H730 0.984 . S
N725 H731 0.985 . S
C726 C720 1.379 1_556 S
C726 C723 1.363 . S
C726 N724 1.356 . S
C727 C721 1.363 1_545 S
C727 C722 1.379 1_554 S
C727 N725 1.356 . S
N728 C720 1.356 . S
N728 H734 0.984 . S
N728 H735 0.984 . S
N729 C722 1.356 . S
N729 H732 0.984 . S
N729 H733 0.985 . S
H730 N725 0.984 . S
H731 N725 0.985 . S
H732 N729 0.984 . S
H733 N729 0.985 . S
H734 N728 0.984 . S
H735 N728 0.984 . S
H736 N724 0.984 . S
H737 N724 0.985 . S
C738 C739 1.363 . S
C738 C744 1.379 1_554 S
C738 N746 1.356 . S
C739 C738 1.363 . S
C739 C745 1.363 . S
C740 C741 1.363 . S
C740 C745 1.379 1_556 S
C740 N747 1.356 . S
C741 C740 1.363 . S
C741 C744 1.363 . S
N742 C744 1.356 . S
N742 H754 0.984 . S
N742 H755 0.985 . S
N743 C745 1.356 . S
N743 H748 0.984 . S
N743 H749 0.985 . S
C744 C738 1.379 1_556 S
C744 C741 1.363 . S
C744 N742 1.356 . S
C745 C739 1.363 . S
C745 C740 1.379 1_554 S
C745 N743 1.356 . S
N746 C738 1.356 . S
N746 H752 0.984 . S
N746 H753 0.984 . S
N747 C740 1.356 . S
N747 H750 0.984 . S
N747 H751 0.985 . S
H748 N743 0.984 . S
H749 N743 0.985 . S
H750 N747 0.984 . S
H751 N747 0.985 . S
H752 N746 0.984 . S
H753 N746 0.984 . S
H754 N742 0.984 . S
H755 N742 0.985 . S
C756 C757 1.363 . S
C756 C762 1.379 1_554 S
C756 N764 1.356 . S
C757 C756 1.363 . S
C757 C763 1.363 . S
C758 C759 1.363 . S
C758 C763 1.379 1_556 S
C758 N765 1.356 . S
C759 C758 1.363 . S
C759 C762 1.363 . S
N760 C762 1.356 . S
N760 H772 0.984 . S
N760 H773 0.985 . S
N761 C763 1.356 . S
N761 H766 0.984 . S
N761 H767 0.985 . S
C762 C756 1.379 1_556 S
C762 C759 1.363 . S
C762 N760 1.356 . S
C763 C757 1.363 . S
C763 C758 1.379 1_554 S
C763 N761 1.356 . S
N764 C756 1.356 . S
N764 H770 0.984 . S
N764 H771 0.984 . S
N765 C758 1.356 . S
N765 H768 0.984 . S
N765 H769 0.985 . S
H766 N761 0.984 . S
H767 N761 0.985 . S
H768 N765 0.984 . S
H769 N765 0.985 . S
H770 N764 0.984 . S
H771 N764 0.984 . S
H772 N760 0.984 . S
H773 N760 0.985 . S
C774 C775 1.363 . S
C774 C780 1.379 1_554 S
C774 N782 1.356 . S
C775 C774 1.363 . S
C775 C781 1.376 . S
C776 C777 1.363 1_455 S
C776 C781 1.376 1_456 S
C776 N783 1.356 . S
C777 C776 1.363 1_655 S
C777 C780 1.363 . S
N778 C780 1.356 . S
N778 H790 0.984 . S
N778 H791 0.985 . S
N779 C781 1.350 1_455 S
N779 H784 0.984 . S
N779 H785 0.985 . S
C780 C774 1.379 1_556 S
C780 C777 1.363 . S
C780 N778 1.356 . S
C781 C775 1.376 . S
C781 C776 1.376 1_654 S
C781 N779 1.350 1_655 S
N782 C774 1.356 . S
N782 H788 0.984 . S
N782 H789 0.984 . S
N783 C776 1.356 . S
N783 H786 0.984 . S
N783 H787 0.985 . S
H784 N779 0.984 . S
H785 N779 0.985 . S
H786 N783 0.984 . S
H787 N783 0.985 . S
H788 N782 0.984 . S
H789 N782 0.984 . S
H790 N778 0.984 . S
H791 N778 0.985 . S
C792 C793 1.363 . S
C792 C798 1.379 1_455 S
C792 N800 1.356 . S
C793 C792 1.363 . S
C793 C799 1.363 . S
C794 C795 1.363 1_455 S
C794 C799 1.379 . S
C794 N801 1.356 . S
C795 C794 1.363 1_655 S
C795 C798 1.363 . S
N796 C798 1.356 . S
N796 H808 0.984 . S
N796 H809 0.985 . S
N797 C799 1.356 . S
N797 H802 0.984 . S
N797 H803 0.985 . S
C798 C792 1.379 1_655 S
C798 C795 1.363 . S
C798 N796 1.356 . S
C799 C793 1.363 . S
C799 C794 1.379 . S
C799 N797 1.356 . S
N800 C792 1.356 . S
N800 H806 0.984 1_455 S
N800 H807 0.984 . S
N801 C794 1.356 . S
N801 H804 0.984 1_455 S
N801 H805 0.985 . S
H802 N797 0.984 . S
H803 N797 0.985 . S
H804 N801 0.984 1_655 S
H805 N801 0.985 . S
H806 N800 0.984 1_655 S
H807 N800 0.984 . S
H808 N796 0.984 . S
H809 N796 0.985 . S
C810 C811 1.363 . S
C810 C816 1.379 1_545 S
C810 N818 1.356 . S
C811 C810 1.363 . S
C811 C817 1.363 . S
C812 C813 1.363 1_545 S
C812 C817 1.379 . S
C812 N819 1.356 . S
C813 C812 1.363 1_565 S
C813 C816 1.363 . S
N814 C816 1.356 . S
N814 H826 0.984 . S
N814 H827 0.985 . S
N815 C817 1.356 . S
N815 H820 0.984 . S
N815 H821 0.985 . S
C816 C810 1.379 1_565 S
C816 C813 1.363 . S
C816 N814 1.356 . S
C817 C811 1.363 . S
C817 C812 1.379 . S
C817 N815 1.356 . S
N818 C810 1.356 . S
N818 H824 0.984 1_545 S
N818 H825 0.984 . S
N819 C812 1.356 . S
N819 H822 0.984 . S
N819 H823 0.985 . S
H820 N815 0.984 . S
H821 N815 0.985 . S
H822 N819 0.984 . S
H823 N819 0.985 . S
H824 N818 0.984 1_565 S
H825 N818 0.984 . S
H826 N814 0.984 . S
H827 N814 0.985 . S
C828 C829 1.363 . S
C828 C834 1.379 . S
C828 N836 1.356 . S
C829 C828 1.363 . S
C829 C835 1.363 . S
C830 C831 1.363 . S
C830 C835 1.379 . S
C830 N837 1.356 . S
C831 C830 1.363 . S
C831 C834 1.363 . S
N832 C834 1.356 . S
N832 H844 0.984 . S
N832 H845 0.985 . S
N833 C835 1.356 . S
N833 H838 0.984 . S
N833 H839 0.985 . S
C834 C828 1.379 . S
C834 C831 1.363 . S
C834 N832 1.356 . S
C835 C829 1.363 . S
C835 C830 1.379 . S
C835 N833 1.356 . S
N836 C828 1.356 . S
N836 H842 0.984 . S
N836 H843 0.984 . S
N837 C830 1.356 . S
N837 H840 0.984 . S
N837 H841 0.985 . S
H838 N833 0.984 . S
H839 N833 0.985 . S
H840 N837 0.984 . S
H841 N837 0.985 . S
H842 N836 0.984 . S
H843 N836 0.984 . S
H844 N832 0.984 . S
H845 N832 0.985 . S
C846 C847 1.363 . S
C846 C852 1.379 . S
C846 N854 1.356 . S
C847 C846 1.363 . S
C847 C853 1.363 . S
C848 C849 1.363 . S
C848 C853 1.379 . S
C848 N855 1.356 . S
C849 C848 1.363 . S
C849 C852 1.363 . S
N850 C852 1.356 . S
N850 H862 0.984 . S
N850 H863 0.985 . S
N851 C853 1.356 . S
N851 H856 0.984 . S
N851 H857 0.985 . S
C852 C846 1.379 . S
C852 C849 1.363 . S
C852 N850 1.356 . S
C853 C847 1.363 . S
C853 C848 1.379 . S
C853 N851 1.356 . S
N854 C846 1.356 . S
N854 H860 0.984 . S
N854 H861 0.984 . S
N855 C848 1.356 . S
N855 H858 0.984 . S
N855 H859 0.985 . S
H856 N851 0.984 . S
H857 N851 0.985 . S
H858 N855 0.984 . S
H859 N855 0.985 . S
H860 N854 0.984 . S
H861 N854 0.984 . S
H862 N850 0.984 . S
H863 N850 0.985 . S
C864 C865 1.363 1_556 S
C864 C870 1.379 . S
C864 N872 1.356 . S
C865 C864 1.363 1_554 S
C865 C871 1.329 1_655 S
C866 C867 1.363 1_554 S
C866 C871 1.405 . S
C866 N873 1.356 . S
C867 C866 1.363 1_556 S
C867 C870 1.363 1_455 S
N868 C870 1.356 . S
N868 H880 0.984 . S
N868 H881 0.985 1_655 S
N869 C871 1.353 1_655 S
N869 H874 0.984 . S
N869 H875 0.985 1_655 S
C870 C864 1.379 . S
C870 C867 1.363 1_655 S
C870 N868 1.356 . S
C871 C865 1.329 1_455 S
C871 C866 1.405 . S
C871 N869 1.353 1_455 S
N872 C864 1.356 . S
N872 H878 0.984 . S
N872 H879 0.984 . S
N873 C866 1.356 . S
N873 H876 0.984 . S
N873 H877 0.985 . S
H874 N869 0.984 . S
H875 N869 0.985 1_455 S
H876 N873 0.984 . S
H877 N873 0.985 . S
H878 N872 0.984 . S
H879 N872 0.984 . S
H880 N868 0.984 . S
H881 N868 0.985 1_455 S
C882 C883 1.363 . S
C882 C888 1.379 1_565 S
C882 N890 1.356 . S
C883 C882 1.363 . S
C883 C889 1.363 1_554 S
C884 C885 1.363 . S
C884 C889 1.379 1_545 S
C884 N891 1.356 . S
C885 C884 1.363 . S
C885 C888 1.363 1_556 S
N886 C888 1.356 . S
N886 H898 0.984 . S
N886 H899 0.985 . S
N887 C889 1.356 . S
N887 H892 0.984 . S
N887 H893 0.985 . S
C888 C882 1.379 1_545 S
C888 C885 1.363 1_554 S
C888 N886 1.356 . S
C889 C883 1.363 1_556 S
C889 C884 1.379 1_565 S
C889 N887 1.356 . S
N890 C882 1.356 . S
N890 H896 0.984 . S
N890 H897 0.984 . S
N891 C884 1.356 . S
N891 H894 0.984 . S
N891 H895 0.985 . S
H892 N887 0.984 . S
H893 N887 0.985 . S
H894 N891 0.984 . S
H895 N891 0.985 . S
H896 N890 0.984 . S
H897 N890 0.984 . S
H898 N886 0.984 . S
H899 N886 0.985 . S
C900 C901 1.363 1_556 S
C900 C906 1.379 . S
C900 N908 1.356 . S
C901 C900 1.363 1_554 S
C901 C907 1.363 . S
C902 C903 1.363 1_554 S
C902 C907 1.379 . S
C902 N909 1.356 . S
C903 C902 1.363 1_556 S
C903 C906 1.363 . S
N904 C906 1.356 . S
N904 H916 0.984 . S
N904 H917 0.985 . S
N905 C907 1.356 . S
N905 H910 0.984 . S
N905 H911 0.985 . S
C906 C900 1.379 . S
C906 C903 1.363 . S
C906 N904 1.356 . S
C907 C901 1.363 . S
C907 C902 1.379 . S
C907 N905 1.356 . S
N908 C900 1.356 . S
N908 H914 0.984 . S
N908 H915 0.984 . S
N909 C902 1.356 . S
N909 H912 0.984 . S
N909 H913 0.985 . S
H910 N905 0.984 . S
H911 N905 0.985 . S
H912 N909 0.984 . S
H913 N909 0.985 . S
H914 N908 0.984 . S
H915 N908 0.984 . S
H916 N904 0.984 . S
H917 N904 0.985 . S
C918 C919 1.363 . S
C918 C924 1.379 . S
C918 N926 1.356 . S
C919 C918 1.363 . S
C919 C925 1.363 1_554 S
C920 C921 1.363 . S
C920 C925 1.379 . S
C920 N927 1.356 . S
C921 C920 1.363 . S
C921 C924 1.363 1_556 S
N922 C924 1.356 . S
N922 H934 0.984 . S
N922 H935 0.985 . S
N923 C925 1.356 . S
N923 H928 0.984 . S
N923 H929 0.985 . S
C924 C918 1.379 . S
C924 C921 1.363 1_554 S
C924 N922 1.356 . S
C925 C919 1.363 1_556 S
C925 C920 1.379 . S
C925 N923 1.356 . S
N926 C918 1.356 . S
N926 H932 0.984 . S
N926 H933 0.984 . S
N927 C920 1.356 . S
N927 H930 0.984 . S
N927 H931 0.985 . S
H928 N923 0.984 . S
H929 N923 0.985 . S
H930 N927 0.984 . S
H931 N927 0.985 . S
H932 N926 0.984 . S
H933 N926 0.984 . S
H934 N922 0.984 . S
H935 N922 0.985 . S
C936 C937 1.363 . S
C936 C942 1.379 . S
C936 N944 1.356 . S
C937 C936 1.363 . S
C937 C943 1.363 . S
C938 C939 1.363 . S
C938 C943 1.379 . S
C938 N945 1.356 . S
C939 C938 1.363 . S
C939 C942 1.363 . S
N940 C942 1.356 . S
N940 H952 0.984 1_455 S
N940 H953 0.985 . S
N941 C943 1.356 . S
N941 H946 0.984 . S
N941 H947 0.985 . S
C942 C936 1.379 . S
C942 C939 1.363 . S
C942 N940 1.356 . S
C943 C937 1.363 . S
C943 C938 1.379 . S
C943 N941 1.356 . S
N944 C936 1.356 . S
N944 H950 0.984 1_455 S
N944 H951 0.984 . S
N945 C938 1.356 . S
N945 H948 0.984 . S
N945 H949 0.985 . S
H946 N941 0.984 . S
H947 N941 0.985 . S
H948 N945 0.984 . S
H949 N945 0.985 . S
H950 N944 0.984 1_655 S
H951 N944 0.984 . S
H952 N940 0.984 1_655 S
H953 N940 0.985 . S
C954 C955 1.363 . S
C954 C960 1.379 . S
C954 N962 1.356 . S
C955 C954 1.363 . S
C955 C961 1.363 . S
C956 C957 1.363 . S
C956 C961 1.379 . S
C956 N963 1.356 1_545 S
C957 C956 1.363 . S
C957 C960 1.363 . S
N958 C960 1.356 . S
N958 H970 0.984 . S
N958 H971 0.985 . S
N959 C961 1.356 . S
N959 H964 0.984 . S
N959 H965 0.985 1_545 S
C960 C954 1.379 . S
C960 C957 1.363 . S
C960 N958 1.356 . S
C961 C955 1.363 . S
C961 C956 1.379 . S
C961 N959 1.356 . S
N962 C954 1.356 . S
N962 H968 0.984 . S
N962 H969 0.984 . S
N963 C956 1.356 1_565 S
N963 H966 0.984 . S
N963 H967 0.985 . S
H964 N959 0.984 . S
H965 N959 0.985 1_565 S
H966 N963 0.984 . S
H967 N963 0.985 . S
H968 N962 0.984 . S
H969 N962 0.984 . S
H970 N958 0.984 . S
H971 N958 0.985 . S
C972 C973 1.363 . S
C972 C978 1.379 . S
C972 N980 1.356 . S
C973 C972 1.363 . S
C973 C979 1.363 . S
C974 C975 1.363 . S
C974 C979 1.379 . S
C974 N981 1.356 . S
C975 C974 1.363 . S
C975 C978 1.363 . S
N976 C978 1.356 . S
N976 H988 0.984 . S
N976 H989 0.985 . S
N977 C979 1.356 . S
N977 H982 0.984 . S
N977 H983 0.985 . S
C978 C972 1.379 . S
C978 C975 1.363 . S
C978 N976 1.356 . S
C979 C973 1.363 . S
C979 C974 1.379 . S
C979 N977 1.356 . S
N980 C972 1.356 . S
N980 H986 0.984 . S
N980 H987 0.984 . S
N981 C974 1.356 . S
N981 H984 0.984 . S
N981 H985 0.985 . S
H982 N977 0.984 . S
H983 N977 0.985 . S
H984 N981 0.984 . S
H985 N981 0.985 . S
H986 N980 0.984 . S
H987 N980 0.984 . S
H988 N976 0.984 . S
H989 N976 0.985 . S
C990 C991 1.363 . S
C990 C996 1.379 . S
C990 N998 1.356 . S
C991 C990 1.363 . S
C991 C997 1.363 . S
C992 C993 1.363 . S
C992 C997 1.379 . S
C992 N999 1.356 . S
C993 C992 1.363 . S
C993 C996 1.363 . S
N994 C996 1.356 . S
N994 H1006 0.984 . S
N994 H1007 0.985 . S
N995 C997 1.356 . S
N995 H1000 0.984 . S
N995 H1001 0.985 . S
C996 C990 1.379 . S
C996 C993 1.363 . S
C996 N994 1.356 . S
C997 C991 1.363 . S
C997 C992 1.379 . S
C997 N995 1.356 . S
N998 C990 1.356 . S
N998 H1004 0.984 . S
N998 H1005 0.984 . S
N999 C992 1.356 . S
N999 H1002 0.984 . S
N999 H1003 0.985 . S
H1000 N995 0.984 . S
H1001 N995 0.985 . S
H1002 N999 0.984 . S
H1003 N999 0.985 . S
H1004 N998 0.984 . S
H1005 N998 0.984 . S
H1006 N994 0.984 . S
H1007 N994 0.985 . S
C1008 C1009 1.363 . S
C1008 C1014 1.379 . S
C1008 N1016 1.356 . S
C1009 C1008 1.363 . S
C1009 C1015 1.363 . S
C1010 C1011 1.356 1_455 S
C1010 C1015 1.378 1_455 S
C1010 N1017 1.363 . S
C1011 C1010 1.356 1_655 S
C1011 C1014 1.363 . S
N1012 C1014 1.356 . S
N1012 H1024 0.984 . S
N1012 H1025 0.985 . S
N1013 C1015 1.356 1_455 S
N1013 H1018 0.984 . S
N1013 H1019 0.985 . S
C1014 C1008 1.379 . S
C1014 C1011 1.363 . S
C1014 N1012 1.356 . S
C1015 C1009 1.363 . S
C1015 C1010 1.378 1_655 S
C1015 N1013 1.356 1_655 S
N1016 C1008 1.356 . S
N1016 H1022 0.984 . S
N1016 H1023 0.984 . S
N1017 C1010 1.363 . S
N1017 H1020 0.984 . S
N1017 H1021 0.985 . S
H1018 N1013 0.984 . S
H1019 N1013 0.985 . S
H1020 N1017 0.984 . S
H1021 N1017 0.985 . S
H1022 N1016 0.984 . S
H1023 N1016 0.984 . S
H1024 N1012 0.984 . S
H1025 N1012 0.985 . S
C1026 C1027 1.363 1_545 S
C1026 C1032 1.379 . S
C1026 N1034 1.356 . S
C1027 C1026 1.363 1_565 S
C1027 C1033 1.363 . S
C1028 C1029 1.363 . S
C1028 C1033 1.379 . S
C1028 N1035 1.356 . S
C1029 C1028 1.363 . S
C1029 C1032 1.363 1_565 S
N1030 C1032 1.356 . S
N1030 H1042 0.984 . S
N1030 H1043 0.985 . S
N1031 C1033 1.356 . S
N1031 H1036 0.984 . S
N1031 H1037 0.985 . S
C1032 C1026 1.379 . S
C1032 C1029 1.363 1_545 S
C1032 N1030 1.356 . S
C1033 C1027 1.363 . S
C1033 C1028 1.379 . S
C1033 N1031 1.356 . S
N1034 C1026 1.356 . S
N1034 H1040 0.984 . S
N1034 H1041 0.984 . S
N1035 C1028 1.356 . S
N1035 H1038 0.984 . S
N1035 H1039 0.985 . S
H1036 N1031 0.984 . S
H1037 N1031 0.985 . S
H1038 N1035 0.984 . S
H1039 N1035 0.985 . S
H1040 N1034 0.984 . S
H1041 N1034 0.984 . S
H1042 N1030 0.984 . S
H1043 N1030 0.985 . S
C1044 C1045 1.363 . S
C1044 C1050 1.379 . S
C1044 N1052 1.356 . S
C1045 C1044 1.363 . S
C1045 C1051 1.363 . S
C1046 C1047 1.363 . S
C1046 C1051 1.379 . S
C1046 N1053 1.356 . S
C1047 C1046 1.363 . S
C1047 C1050 1.363 . S
N1048 C1050 1.356 . S
N1048 H1060 0.984 . S
N1048 H1061 0.985 . S
N1049 C1051 1.356 . S
N1049 H1054 0.984 . S
N1049 H1055 0.985 . S
C1050 C1044 1.379 . S
C1050 C1047 1.363 . S
C1050 N1048 1.356 . S
C1051 C1045 1.363 . S
C1051 C1046 1.379 . S
C1051 N1049 1.356 . S
N1052 C1044 1.356 . S
N1052 H1058 0.984 . S
N1052 H1059 0.984 . S
N1053 C1046 1.356 . S
N1053 H1056 0.984 . S
N1053 H1057 0.985 . S
H1054 N1049 0.984 . S
H1055 N1049 0.985 . S
H1056 N1053 0.984 . S
H1057 N1053 0.985 . S
H1058 N1052 0.984 . S
H1059 N1052 0.984 . S
H1060 N1048 0.984 . S
H1061 N1048 0.985 . S
C1062 C1063 1.363 . S
C1062 C1068 1.379 . S
C1062 N1070 1.356 . S
C1063 C1062 1.363 . S
C1063 C1069 1.363 . S
C1064 C1065 1.363 . S
C1064 C1069 1.379 . S
C1064 N1071 1.356 . S
C1065 C1064 1.363 . S
C1065 C1068 1.363 . S
N1066 C1068 1.356 . S
N1066 H1078 0.984 . S
N1066 H1079 0.985 . S
N1067 C1069 1.356 . S
N1067 H1072 0.984 . S
N1067 H1073 0.985 . S
C1068 C1062 1.379 . S
C1068 C1065 1.363 . S
C1068 N1066 1.356 . S
C1069 C1063 1.363 . S
C1069 C1064 1.379 . S
C1069 N1067 1.356 . S
N1070 C1062 1.356 . S
N1070 H1076 0.984 . S
N1070 H1077 0.984 . S
N1071 C1064 1.356 . S
N1071 H1074 0.984 . S
N1071 H1075 0.985 . S
H1072 N1067 0.984 . S
H1073 N1067 0.985 . S
H1074 N1071 0.984 . S
H1075 N1071 0.985 . S
H1076 N1070 0.984 . S
H1077 N1070 0.984 . S
H1078 N1066 0.984 . S
H1079 N1066 0.985 . S
C649 C255 2.588 . S
C651 C380 2.841 . S
C669 C463 2.853 . S
C667 C294 2.583 . S
C687 C548 2.847 . S
C685 C177 2.593 . S
C705 C632 2.827 . S
C703 C216 2.577 . S
C723 C368 2.841 1_565 S
C721 C99 2.596 . S
C739 C138 2.575 . S
C741 C451 2.852 . S
C757 C21 2.601 . S
C759 C536 2.848 . S
C775 C60 2.585 . S
C777 C620 2.828 1_655 S
C795 C370 0.771 . S
C793 C196 0.765 . S
C813 C466 0.764 . S
C811 C235 0.761 . S
C831 C538 0.789 . S
C829 C289 0.778 . S
C847 C157 0.761 . S
C849 C622 0.765 . S
C865 C40 0.766 . S
C867 C382 0.771 . S
C885 C454 0.764 . S
C883 C79 0.761 . S
C903 C550 0.789 . S
C901 C133 0.778 . S
C919 C1 0.761 . S
C921 C634 0.765 . S
C937 C211 2.903 . S
C939 C367 3.308 . S
C955 C250 2.899 . S
C957 C452 3.406 . S
C975 C535 3.333 . S
C973 C274 2.932 . S
C993 C619 3.327 . S
C991 C172 2.921 . S
C1009 C55 2.901 . S
C1011 C379 3.308 . S
C1029 C464 3.406 . S
C1027 C94 2.897 . S
C1047 C547 3.333 . S
C1045 C118 2.929 . S
C1063 C16 2.919 . S
C1065 C631 3.327 . S
