# Generated by pormake.
# Topology llk, (3,12)-cn, num edge types: 1
# Building blocks:
#     Node 0, Type 0, BuildingBlock: BETDAH_clean_linker_0, # of connection points: 3
#     Node 1, Type 0, BuildingBlock: BETDAH_clean_linker_0, # of connection points: 3
#     Node 2, Type 0, BuildingBlock: BETDAH_clean_linker_0, # of connection points: 3
#     Node 3, Type 0, BuildingBlock: BETDAH_clean_linker_0, # of connection points: 3
#     Node 4, Type 0, BuildingBlock: BETDAH_clean_linker_0, # of connection points: 3
#     Node 5, Type 0, BuildingBlock: BETDAH_clean_linker_0, # of connection points: 3
#     Node 6, Type 0, BuildingBlock: BETDAH_clean_linker_0, # of connection points: 3
#     Node 7, Type 0, BuildingBlock: BETDAH_clean_linker_0, # of connection points: 3
#     Node 8, Type 0, BuildingBlock: BETDAH_clean_linker_0, # of connection points: 3
#     Node 9, Type 0, BuildingBlock: BETDAH_clean_linker_0, # of connection points: 3
#     Node 10, Type 0, BuildingBlock: BETDAH_clean_linker_0, # of connection points: 3
#     Node 11, Type 0, BuildingBlock: BETDAH_clean_linker_0, # of connection points: 3
#     Node 12, Type 0, BuildingBlock: BETDAH_clean_linker_0, # of connection points: 3
#     Node 13, Type 0, BuildingBlock: BETDAH_clean_linker_0, # of connection points: 3
#     Node 14, Type 0, BuildingBlock: BETDAH_clean_linker_0, # of connection points: 3
#     Node 15, Type 0, BuildingBlock: BETDAH_clean_linker_0, # of connection points: 3
#     Node 16, Type 0, BuildingBlock: BETDAH_clean_linker_0, # of connection points: 3
#     Node 17, Type 0, BuildingBlock: BETDAH_clean_linker_0, # of connection points: 3
#     Node 18, Type 0, BuildingBlock: BETDAH_clean_linker_0, # of connection points: 3
#     Node 19, Type 0, BuildingBlock: BETDAH_clean_linker_0, # of connection points: 3
#     Node 20, Type 0, BuildingBlock: BETDAH_clean_linker_0, # of connection points: 3
#     Node 21, Type 0, BuildingBlock: BETDAH_clean_linker_0, # of connection points: 3
#     Node 22, Type 0, BuildingBlock: BETDAH_clean_linker_0, # of connection points: 3
#     Node 23, Type 0, BuildingBlock: BETDAH_clean_linker_0, # of connection points: 3
#     Node 24, Type 1, BuildingBlock: EZIPEK_clean_sbu_0, # of connection points: 12
#     Node 25, Type 1, BuildingBlock: EZIPEK_clean_sbu_0, # of connection points: 12
#     Node 26, Type 1, BuildingBlock: EZIPEK_clean_sbu_0, # of connection points: 12
#     Node 27, Type 1, BuildingBlock: EZIPEK_clean_sbu_0, # of connection points: 12
#     Node 28, Type 1, BuildingBlock: EZIPEK_clean_sbu_0, # of connection points: 12
#     Node 29, Type 1, BuildingBlock: EZIPEK_clean_sbu_0, # of connection points: 12
#     Edge 30, Type (0, 1), BuildingBlock: XUDNAN_clean_linker_2, # of connection points: 2
#     Edge 31, Type (0, 1), BuildingBlock: XUDNAN_clean_linker_2, # of connection points: 2
#     Edge 32, Type (0, 1), BuildingBlock: XUDNAN_clean_linker_2, # of connection points: 2
#     Edge 33, Type (0, 1), BuildingBlock: XUDNAN_clean_linker_2, # of connection points: 2
#     Edge 34, Type (0, 1), BuildingBlock: XUDNAN_clean_linker_2, # of connection points: 2
#     Edge 35, Type (0, 1), BuildingBlock: XUDNAN_clean_linker_2, # of connection points: 2
#     Edge 36, Type (0, 1), BuildingBlock: XUDNAN_clean_linker_2, # of connection points: 2
#     Edge 37, Type (0, 1), BuildingBlock: XUDNAN_clean_linker_2, # of connection points: 2
#     Edge 38, Type (0, 1), BuildingBlock: XUDNAN_clean_linker_2, # of connection points: 2
#     Edge 39, Type (0, 1), BuildingBlock: XUDNAN_clean_linker_2, # of connection points: 2
#     Edge 40, Type (0, 1), BuildingBlock: XUDNAN_clean_linker_2, # of connection points: 2
#     Edge 41, Type (0, 1), BuildingBlock: XUDNAN_clean_linker_2, # of connection points: 2
#     Edge 42, Type (0, 1), BuildingBlock: XUDNAN_clean_linker_2, # of connection points: 2
#     Edge 43, Type (0, 1), BuildingBlock: XUDNAN_clean_linker_2, # of connection points: 2
#     Edge 44, Type (0, 1), BuildingBlock: XUDNAN_clean_linker_2, # of connection points: 2
#     Edge 45, Type (0, 1), BuildingBlock: XUDNAN_clean_linker_2, # of connection points: 2
#     Edge 46, Type (0, 1), BuildingBlock: XUDNAN_clean_linker_2, # of connection points: 2
#     Edge 47, Type (0, 1), BuildingBlock: XUDNAN_clean_linker_2, # of connection points: 2
#     Edge 48, Type (0, 1), BuildingBlock: XUDNAN_clean_linker_2, # of connection points: 2
#     Edge 49, Type (0, 1), BuildingBlock: XUDNAN_clean_linker_2, # of connection points: 2
#     Edge 50, Type (0, 1), BuildingBlock: XUDNAN_clean_linker_2, # of connection points: 2
#     Edge 51, Type (0, 1), BuildingBlock: XUDNAN_clean_linker_2, # of connection points: 2
#     Edge 52, Type (0, 1), BuildingBlock: XUDNAN_clean_linker_2, # of connection points: 2
#     Edge 53, Type (0, 1), BuildingBlock: XUDNAN_clean_linker_2, # of connection points: 2
#     Edge 54, Type (0, 1), BuildingBlock: XUDNAN_clean_linker_2, # of connection points: 2
#     Edge 55, Type (0, 1), BuildingBlock: XUDNAN_clean_linker_2, # of connection points: 2
#     Edge 56, Type (0, 1), BuildingBlock: XUDNAN_clean_linker_2, # of connection points: 2
#     Edge 57, Type (0, 1), BuildingBlock: XUDNAN_clean_linker_2, # of connection points: 2
#     Edge 58, Type (0, 1), BuildingBlock: XUDNAN_clean_linker_2, # of connection points: 2
#     Edge 59, Type (0, 1), BuildingBlock: XUDNAN_clean_linker_2, # of connection points: 2
#     Edge 60, Type (0, 1), BuildingBlock: XUDNAN_clean_linker_2, # of connection points: 2
#     Edge 61, Type (0, 1), BuildingBlock: XUDNAN_clean_linker_2, # of connection points: 2
#     Edge 62, Type (0, 1), BuildingBlock: XUDNAN_clean_linker_2, # of connection points: 2
#     Edge 63, Type (0, 1), BuildingBlock: XUDNAN_clean_linker_2, # of connection points: 2
#     Edge 64, Type (0, 1), BuildingBlock: XUDNAN_clean_linker_2, # of connection points: 2
#     Edge 65, Type (0, 1), BuildingBlock: XUDNAN_clean_linker_2, # of connection points: 2
#     Edge 66, Type (0, 1), BuildingBlock: XUDNAN_clean_linker_2, # of connection points: 2
#     Edge 67, Type (0, 1), BuildingBlock: XUDNAN_clean_linker_2, # of connection points: 2
#     Edge 68, Type (0, 1), BuildingBlock: XUDNAN_clean_linker_2, # of connection points: 2
#     Edge 69, Type (0, 1), BuildingBlock: XUDNAN_clean_linker_2, # of connection points: 2
#     Edge 70, Type (0, 1), BuildingBlock: XUDNAN_clean_linker_2, # of connection points: 2
#     Edge 71, Type (0, 1), BuildingBlock: XUDNAN_clean_linker_2, # of connection points: 2
#     Edge 72, Type (0, 1), BuildingBlock: XUDNAN_clean_linker_2, # of connection points: 2
#     Edge 73, Type (0, 1), BuildingBlock: XUDNAN_clean_linker_2, # of connection points: 2
#     Edge 74, Type (0, 1), BuildingBlock: XUDNAN_clean_linker_2, # of connection points: 2
#     Edge 75, Type (0, 1), BuildingBlock: XUDNAN_clean_linker_2, # of connection points: 2
#     Edge 76, Type (0, 1), BuildingBlock: XUDNAN_clean_linker_2, # of connection points: 2
#     Edge 77, Type (0, 1), BuildingBlock: XUDNAN_clean_linker_2, # of connection points: 2
#     Edge 78, Type (0, 1), BuildingBlock: XUDNAN_clean_linker_2, # of connection points: 2
#     Edge 79, Type (0, 1), BuildingBlock: XUDNAN_clean_linker_2, # of connection points: 2
#     Edge 80, Type (0, 1), BuildingBlock: XUDNAN_clean_linker_2, # of connection points: 2
#     Edge 81, Type (0, 1), BuildingBlock: XUDNAN_clean_linker_2, # of connection points: 2
#     Edge 82, Type (0, 1), BuildingBlock: XUDNAN_clean_linker_2, # of connection points: 2
#     Edge 83, Type (0, 1), BuildingBlock: XUDNAN_clean_linker_2, # of connection points: 2
#     Edge 84, Type (0, 1), BuildingBlock: XUDNAN_clean_linker_2, # of connection points: 2
#     Edge 85, Type (0, 1), BuildingBlock: XUDNAN_clean_linker_2, # of connection points: 2
#     Edge 86, Type (0, 1), BuildingBlock: XUDNAN_clean_linker_2, # of connection points: 2
#     Edge 87, Type (0, 1), BuildingBlock: XUDNAN_clean_linker_2, # of connection points: 2
#     Edge 88, Type (0, 1), BuildingBlock: XUDNAN_clean_linker_2, # of connection points: 2
#     Edge 89, Type (0, 1), BuildingBlock: XUDNAN_clean_linker_2, # of connection points: 2
#     Edge 90, Type (0, 1), BuildingBlock: XUDNAN_clean_linker_2, # of connection points: 2
#     Edge 91, Type (0, 1), BuildingBlock: XUDNAN_clean_linker_2, # of connection points: 2
#     Edge 92, Type (0, 1), BuildingBlock: XUDNAN_clean_linker_2, # of connection points: 2
#     Edge 93, Type (0, 1), BuildingBlock: XUDNAN_clean_linker_2, # of connection points: 2
#     Edge 94, Type (0, 1), BuildingBlock: XUDNAN_clean_linker_2, # of connection points: 2
#     Edge 95, Type (0, 1), BuildingBlock: XUDNAN_clean_linker_2, # of connection points: 2
#     Edge 96, Type (0, 1), BuildingBlock: XUDNAN_clean_linker_2, # of connection points: 2
#     Edge 97, Type (0, 1), BuildingBlock: XUDNAN_clean_linker_2, # of connection points: 2
#     Edge 98, Type (0, 1), BuildingBlock: XUDNAN_clean_linker_2, # of connection points: 2
#     Edge 99, Type (0, 1), BuildingBlock: XUDNAN_clean_linker_2, # of connection points: 2
#     Edge 100, Type (0, 1), BuildingBlock: XUDNAN_clean_linker_2, # of connection points: 2
#     Edge 101, Type (0, 1), BuildingBlock: XUDNAN_clean_linker_2, # of connection points: 2
# Relax obj value: 0.069
# Max RMSD: 0.164
# Mean RMSD: 0.122
data_MOF--net-llk--node1-EZIPEK_clean_sbu_0--node2-BETDAH_clean_linker_0--edge1-XUDNAN_clean_linker_2
_symmetry_space_group_name_H-M    P1
_symmetry_Int_Tables_number       1
_symmetry_cell_setting            triclinic
loop_
_symmetry_equiv_pos_as_xyz
'x, y, z'
_cell_length_a     47.027713
_cell_length_b     47.240961
_cell_length_c     47.551826
_cell_angle_alpha  90.097569
_cell_angle_beta   90.048765
_cell_angle_gamma 89.909921
loop_
_atom_site_label
_atom_site_type_symbol
_atom_site_fract_x
_atom_site_fract_y
_atom_site_fract_z
_atom_type_partial_charge
H0 H 0.0068 0.25453 0.34271 0.0
H1 H 0.00316 0.3009 0.26507 0.0
H2 H 0.99684 0.21051 0.26388 0.0
C3 C 0.00497 0.25473 0.32005 0.0
C4 C 0.00133 0.22903 0.30544 0.0
C5 C 0.00605 0.28079 0.30573 0.0
C6 C 0.00332 0.28098 0.27629 0.0
C7 C 1.0 0.25565 0.26125 0.0
C8 C 0.99901 0.2299 0.27587 0.0
N9 N 0.99725 0.25536 0.23146 0.0
C10 C 0.00332 0.27831 0.21409 0.0
H11 H 0.6811 0.99948 0.2569 0.0
H12 H 0.75891 0.9988 0.30363 0.0
H13 H 0.76141 0.98946 0.21402 0.0
C14 C 0.70406 0.99808 0.2572 0.0
C15 C 0.71917 0.99427 0.23189 0.0
C16 C 0.71831 1.00019 0.28308 0.0
C17 C 0.748 0.99761 0.28368 0.0
C18 C 0.76357 0.99324 0.25888 0.0
C19 C 0.7491 0.99203 0.23309 0.0
N20 N 0.79368 0.98987 0.25937 0.0
C21 C 0.80943 0.98863 0.28419 0.0
H22 H 0.0261 0.66921 0.2638 0.0
H23 H 0.00851 0.74858 0.30445 0.0
H24 H 0.02533 0.7461 0.21549 0.0
C25 C 0.02286 0.6919 0.26266 0.0
C26 C 0.02563 0.70551 0.23654 0.0
C27 C 0.01689 0.70723 0.28729 0.0
C28 C 0.01356 0.7367 0.28563 0.0
C29 C 0.01697 0.75102 0.26001 0.0
C30 C 0.02253 0.73522 0.23533 0.0
N31 N 0.01575 0.7812 0.25885 0.0
C32 C 0.01102 0.79867 0.28226 0.0
H33 H 0.2632 0.00659 0.34197 0.0
H34 H 0.31426 0.99072 0.26876 0.0
H35 H 0.22387 0.98024 0.26425 0.0
C36 C 0.26477 0.99993 0.32023 0.0
C37 C 0.23993 0.99312 0.30511 0.0
C38 C 0.29169 0.99893 0.30741 0.0
C39 C 0.29361 0.99206 0.27873 0.0
C40 C 0.26915 0.98587 0.26301 0.0
C41 C 0.24252 0.98586 0.2764 0.0
N42 N 0.27083 0.97928 0.23384 0.0
C43 C 0.294 0.98633 0.21693 0.0
H44 H 0.01211 0.75245 0.67766 0.0
H45 H 0.02498 0.70391 0.75262 0.0
H46 H 0.03899 0.79391 0.75407 0.0
C47 C 0.01839 0.75172 0.69957 0.0
C48 C 0.026 0.77677 0.71367 0.0
C49 C 0.01836 0.72551 0.71344 0.0
C50 C 0.02551 0.72417 0.74203 0.0
C51 C 0.03244 0.74899 0.75693 0.0
C52 C 0.033 0.77504 0.74255 0.0
N53 N 0.03853 0.74858 0.78633 0.0
C54 C 0.0378 0.7243 0.80302 0.0
H55 H 0.26419 0.00399 0.67383 0.0
H56 H 0.30987 0.00883 0.75205 0.0
H57 H 0.22022 0.98961 0.75148 0.0
C58 C 0.26457 1.00264 0.6966 0.0
C59 C 0.23942 0.99606 0.71077 0.0
C60 C 0.29012 0.00694 0.71114 0.0
C61 C 0.29013 0.00589 0.74069 0.0
C62 C 0.26488 0.99995 0.75546 0.0
C63 C 0.23954 0.99498 0.74031 0.0
N64 N 0.26446 0.99782 0.78534 0.0
C65 C 0.28725 0.00424 0.8031 0.0
H66 H 0.01396 0.3364 0.76027 0.0
H67 H 0.01417 0.25864 0.71342 0.0
H68 H 0.02334 0.25707 0.80343 0.0
C69 C 0.01507 0.31349 0.75955 0.0
C70 C 0.01917 0.29858 0.78473 0.0
C71 C 0.01292 0.29928 0.73368 0.0
C72 C 0.01451 0.26958 0.73335 0.0
C73 C 0.01754 0.25403 0.75838 0.0
C74 C 0.01996 0.26875 0.78413 0.0
N75 N 0.01899 0.22381 0.75803 0.0
C76 C 0.01644 0.2074 0.7336 0.0
H77 H 0.76842 0.01312 0.68005 0.0
H78 H 0.71967 0.01128 0.75599 0.0
H79 H 0.81049 0.00395 0.76016 0.0
C80 C 0.76767 0.01171 0.70274 0.0
C81 C 0.79305 0.00846 0.71812 0.0
C82 C 0.74118 0.01308 0.71623 0.0
C83 C 0.74006 0.01058 0.7456 0.0
C84 C 0.76499 0.00682 0.76147 0.0
C85 C 0.79136 0.00619 0.74767 0.0
N86 N 0.76415 1.0034 0.79123 0.0
C87 C 0.73897 1.00122 0.80653 0.0
H88 H 0.34998 0.26118 0.02232 0.0
H89 H 0.26831 0.3017 0.02025 0.0
H90 H 0.27609 0.21557 0.04974 0.0
C91 C 0.32721 0.26034 0.02591 0.0
C92 C 0.31512 0.23569 0.03687 0.0
C93 C 0.31045 0.28402 0.01976 0.0
C94 C 0.28111 0.28318 0.02477 0.0
C95 C 0.26851 0.25829 0.03538 0.0
C96 C 0.28566 0.23461 0.04131 0.0
N97 N 0.23884 0.25643 0.04053 0.0
C98 C 0.21926 0.2768 0.03208 0.0
H99 H 0.3443 0.76114 0.00737 0.0
H100 H 0.27165 0.70956 0.02465 0.0
H101 H 0.26447 0.79986 0.03031 0.0
C102 C 0.32229 0.75936 0.01379 0.0
C103 C 0.30642 0.78393 0.01968 0.0
C104 C 0.30983 0.73247 0.0153 0.0
C105 C 0.28097 0.73028 0.02229 0.0
C106 C 0.26428 0.75456 0.02669 0.0
C107 C 0.27725 0.78126 0.02596 0.0
N108 N 0.23449 0.75263 0.03155 0.0
C109 C 0.21921 0.72771 0.02743 0.0
H110 H 0.7646 0.3373 0.01901 0.0
H111 H 0.71978 0.25812 0.016 0.0
H112 H 0.81026 0.25955 0.03064 0.0
C113 C 0.76444 0.3144 0.02038 0.0
C114 C 0.79006 0.30035 0.02584 0.0
C115 C 0.73888 0.29954 0.017 0.0
C116 C 0.73946 0.26976 0.01797 0.0
C117 C 0.76525 0.25506 0.02234 0.0
C118 C 0.79051 0.2706 0.02639 0.0
N119 N 0.76627 0.22489 0.0235 0.0
C120 C 0.74296 0.20732 0.01839 0.0
H121 H 0.76936 0.67173 1.00112 0.0
H122 H 0.71903 0.74718 0.99957 0.0
H123 H 0.80955 0.75356 0.00817 0.0
C124 C 0.76818 0.69459 1.00173 0.0
C125 C 0.79321 0.71067 1.00477 0.0
C126 C 0.74145 0.70762 0.99941 0.0
C127 C 0.73962 0.73722 1.00093 0.0
C128 C 0.76401 0.7539 1.00448 0.0
C129 C 0.79076 0.74052 0.00608 0.0
N130 N 0.76218 0.78402 0.00652 0.0
C131 C 0.73656 0.79914 0.00652 0.0
H132 H 0.49828 0.75361 0.84381 0.0
H133 H 0.51061 0.80619 0.77156 0.0
H134 H 0.5294 0.71716 0.76661 0.0
C135 C 0.50481 0.75581 0.82208 0.0
C136 C 0.51405 0.7319 0.80702 0.0
C137 C 0.50376 0.78263 0.80946 0.0
C138 C 0.51186 0.78556 0.78125 0.0
C139 C 0.52095 0.76192 0.7656 0.0
C140 C 0.52206 0.73524 0.77864 0.0
N141 N 0.52904 0.76425 0.73682 0.0
C142 C 0.52814 0.78941 0.72154 0.0
H143 H 0.1834 0.50452 0.75466 0.0
H144 H 0.25691 0.51879 0.80598 0.0
H145 H 0.26351 0.5264 0.71638 0.0
C146 C 0.20557 0.51047 0.75646 0.0
C147 C 0.2215 0.51618 0.7321 0.0
C148 C 0.21822 0.51123 0.78316 0.0
C149 C 0.24732 0.51736 0.78539 0.0
C150 C 0.26388 0.52205 0.76126 0.0
C151 C 0.25074 0.52202 0.73481 0.0
N152 N 0.29376 0.52642 0.76296 0.0
C153 C 0.30954 0.52099 0.78715 0.0
H154 H 0.51435 0.17429 0.75711 0.0
H155 H 0.51153 0.25085 0.80546 0.0
H156 H 0.50611 0.2551 0.71572 0.0
C157 C 0.51288 0.19712 0.75798 0.0
C158 C 0.50987 0.2127 0.7329 0.0
C159 C 0.51394 0.21072 0.78428 0.0
C160 C 0.51136 0.24032 0.78533 0.0
C161 C 0.50827 0.25634 0.76068 0.0
C162 C 0.50788 0.24246 0.73462 0.0
N163 N 0.50536 0.28636 0.7615 0.0
C164 C 0.50413 0.30192 0.78639 0.0
H165 H 0.76226 0.49618 0.84609 0.0
H166 H 0.81448 0.49466 0.77265 0.0
H167 H 0.724 0.50604 0.76429 0.0
C168 C 0.76387 0.49686 0.82337 0.0
C169 C 0.73941 0.50096 0.80696 0.0
C170 C 0.79072 0.49385 0.81107 0.0
C171 C 0.7936 0.49665 0.78191 0.0
C172 C 0.76947 0.50124 0.76492 0.0
C173 C 0.74251 0.5032 0.77756 0.0
N174 N 0.77149 0.50346 0.73515 0.0
C175 C 0.79679 0.5006 0.72022 0.0
H176 H 0.51396 0.25848 0.17789 0.0
H177 H 0.53006 0.20942 0.25187 0.0
H178 H 0.52906 0.29994 0.2574 0.0
C179 C 0.51912 0.25748 0.20007 0.0
C180 C 0.52235 0.2827 0.21556 0.0
C181 C 0.52158 0.23095 0.21305 0.0
C182 C 0.52689 0.22973 0.24206 0.0
C183 C 0.52852 0.25447 0.25834 0.0
C184 C 0.52681 0.28089 0.24489 0.0
N185 N 0.53166 0.25327 0.28815 0.0
C186 C 0.52899 0.22833 0.30369 0.0
H187 H 0.76885 0.51569 0.17671 0.0
H188 H 0.81263 0.51763 0.25623 0.0
H189 H 0.72147 0.51676 0.25398 0.0
C190 C 0.7683 0.51615 0.19945 0.0
C191 C 0.74193 0.51545 0.21321 0.0
C192 C 0.79398 0.51712 0.21466 0.0
C193 C 0.79306 0.51748 0.24424 0.0
C194 C 0.76688 0.51749 0.25838 0.0
C195 C 0.74154 0.51661 0.24281 0.0
N196 N 0.76509 0.5184 0.2882 0.0
C197 C 0.78797 0.51613 0.30673 0.0
H198 H 0.50777 0.83986 0.26239 0.0
H199 H 0.5219 0.76598 0.21192 0.0
H200 H 0.53103 0.76064 0.30135 0.0
C201 C 0.5137 0.81775 0.26086 0.0
C202 C 0.52009 0.80233 0.28542 0.0
C203 C 0.51411 0.80473 0.23427 0.0
C204 C 0.52047 0.77577 0.23238 0.0
C205 C 0.52566 0.75961 0.25658 0.0
C206 C 0.526 0.7731 0.28291 0.0
N207 N 0.53059 0.72986 0.25499 0.0
C208 C 0.52686 0.71396 0.23048 0.0
H209 H 0.2682 0.48799 0.17765 0.0
H210 H 0.21769 0.486 0.25237 0.0
H211 H 0.30713 0.50455 0.25804 0.0
C212 C 0.26697 0.4895 0.20035 0.0
C213 C 0.2913 0.49629 0.21604 0.0
C214 C 0.24063 0.4853 0.21336 0.0
C215 C 0.23813 0.4892 0.24246 0.0
C216 C 0.26221 0.49648 0.25861 0.0
C217 C 0.28867 0.49956 0.24534 0.0
N218 N 0.2606 0.50074 0.28815 0.0
C219 C 0.23513 0.50186 0.30289 0.0
H220 H 0.84505 0.75061 0.5382 0.0
H221 H 0.76825 0.79824 0.5275 0.0
H222 H 0.76593 0.70729 0.5238 0.0
C223 C 0.82241 0.75122 0.53396 0.0
C224 C 0.80745 0.72581 0.53057 0.0
C225 C 0.80854 0.7774 0.53244 0.0
C226 C 0.77896 0.77803 0.52858 0.0
C227 C 0.76342 0.75272 0.52562 0.0
C228 C 0.77783 0.72672 0.52661 0.0
N229 N 0.73348 0.75277 0.52123 0.0
C230 C 0.71759 0.77747 0.51852 0.0
H231 H 0.84511 0.25239 0.49208 0.0
H232 H 0.76623 0.21098 0.51107 0.0
H233 H 0.76942 0.30163 0.5061 0.0
C234 C 0.82277 0.25355 0.49748 0.0
C235 C 0.80948 0.28008 0.49922 0.0
C236 C 0.80756 0.22849 0.50224 0.0
C237 C 0.77813 0.23017 0.50733 0.0
C238 C 0.76426 0.25665 0.5081 0.0
C239 C 0.78012 0.28137 0.50443 0.0
N240 N 0.73452 0.25926 0.51278 0.0
C241 C 0.71669 0.23619 0.5165 0.0
H242 H 0.26895 0.83605 0.50369 0.0
H243 H 0.21959 0.76132 0.51813 0.0
H244 H 0.31036 0.75783 0.52613 0.0
C245 C 0.26786 0.814 0.50975 0.0
C246 C 0.29303 0.79915 0.51586 0.0
C247 C 0.24128 0.80059 0.51056 0.0
C248 C 0.24004 0.77154 0.51661 0.0
C249 C 0.26499 0.75582 0.5213 0.0
C250 C 0.29131 0.76987 0.52152 0.0
N251 N 0.26422 0.726 0.52579 0.0
C252 C 0.24006 0.70943 0.52139 0.0
H253 H 0.26265 0.16987 0.48261 0.0
H254 H 0.21944 0.24846 0.49774 0.0
H255 H 0.31051 0.24713 0.4877 0.0
C256 C 0.26327 0.19256 0.48599 0.0
C257 C 0.28952 0.20656 0.48482 0.0
C258 C 0.2379 0.20739 0.49078 0.0
C259 C 0.23897 0.23694 0.49418 0.0
C260 C 0.26508 0.25153 0.49308 0.0
C261 C 0.29037 0.23608 0.48877 0.0
N262 N 0.26644 0.2816 0.49574 0.0
C263 C 0.24261 0.29897 0.49911 0.0
C264 C 0.01912 0.9364 0.57893 0.0
C265 C 0.00511 0.93114 0.44175 0.0
C266 C 0.01462 0.07402 0.57392 0.0
C267 C 0.00498 0.06802 0.43762 0.0
C268 C 0.94181 0.06894 0.50734 0.0
C269 C 0.9449 0.93377 0.52087 0.0
C270 C 0.07946 0.07196 0.49962 0.0
C271 C 0.08153 0.93391 0.50132 0.0
C272 C 0.07599 1.00047 0.43461 0.0
C273 C 0.93849 0.99685 0.44594 0.0
C274 C 0.08719 1.00096 0.5708 0.0
C275 C 0.95048 0.0036 0.58203 0.0
Eu276 Eu 0.01315 0.94805 0.50979 0.0
O277 O 0.98557 0.97546 0.48607 0.0
O278 O 0.04006 0.97815 0.53158 0.0
Eu279 Eu 0.95933 1.00153 0.5127 0.0
Eu280 Eu 0.06641 1.00269 0.50383 0.0
O281 O 0.9907 0.97806 0.5357 0.0
O282 O 0.03604 0.97621 0.4822 0.0
Eu283 Eu 0.01762 0.00466 0.56113 0.0
Eu284 Eu 0.00825 1.00005 0.45523 0.0
O285 O 0.9891 0.02829 0.53451 0.0
O286 O 0.98501 0.02596 0.48446 0.0
O287 O 0.03511 0.02651 0.48062 0.0
O288 O 0.03997 0.02924 0.53013 0.0
Eu289 Eu 0.01133 0.05589 0.50621 0.0
O290 O 0.01795 0.92622 0.5526 0.0
O291 O 0.00799 0.92278 0.46857 0.0
O292 O 0.01211 0.08122 0.54685 0.0
O293 O 0.00812 0.07799 0.46378 0.0
O294 O 0.93426 0.04191 0.50975 0.0
O295 O 0.93642 0.96063 0.52013 0.0
O296 O 0.08922 0.04533 0.50105 0.0
O297 O 0.09029 0.96083 0.50117 0.0
O298 O 0.04827 0.99991 0.42834 0.0
O299 O 0.96463 0.9987 0.43523 0.0
O300 O 0.06123 0.0042 0.58163 0.0
O301 O 0.97815 1.00302 0.58812 0.0
O302 O 0.05229 0.07986 0.50119 0.0
O303 O 0.9685 0.07864 0.50642 0.0
O304 O 0.05479 0.9251 0.50433 0.0
O305 O 0.97146 0.92452 0.5167 0.0
O306 O 0.00499 0.95792 0.43292 0.0
O307 O 0.00419 0.04073 0.43035 0.0
O308 O 0.01915 0.9638 0.58593 0.0
O309 O 0.01763 0.04754 0.58348 0.0
O310 O 0.93926 0.0045 0.5562 0.0
O311 O 0.93214 0.99675 0.47335 0.0
O312 O 0.09345 0.99977 0.54341 0.0
O313 O 0.08684 1.00152 0.46057 0.0
C314 C 0.50852 0.9353 0.07378 0.0
C315 C 0.51913 0.07153 0.07984 0.0
C316 C 0.49895 0.94161 0.93848 0.0
C317 C 0.51468 0.07822 0.94379 0.0
C318 C 0.57705 1.0026 0.93627 0.0
C319 C 0.585 0.99771 0.07257 0.0
C320 C 0.43952 0.01682 0.94417 0.0
C321 C 0.44716 0.00993 0.08012 0.0
C322 C 0.45066 0.08077 0.02043 0.0
C323 C 0.58686 0.06994 0.0057 0.0
C324 C 0.43775 0.94499 0.00997 0.0
C325 C 0.57556 0.93257 1.00321 0.0
Eu326 Eu 0.51533 0.00397 0.06183 0.0
O327 O 0.5416 0.0285 0.03359 0.0
O328 O 0.4863 0.98297 0.0338 0.0
Eu329 Eu 0.56626 1.00236 0.00542 0.0
Eu330 Eu 0.45894 0.0118 0.01132 0.0
O331 O 0.53697 0.97848 0.03101 0.0
O332 O 0.4913 0.03222 0.03567 0.0
Eu333 Eu 0.50777 0.95365 0.00654 0.0
Eu334 Eu 0.5173 0.05977 0.01106 0.0
O335 O 0.53397 0.98082 0.98102 0.0
O336 O 0.53808 0.03043 0.98319 0.0
O337 O 0.48797 0.03561 0.98564 0.0
O338 O 0.48374 0.98519 0.98404 0.0
Eu339 Eu 0.50911 0.00907 0.95502 0.0
O340 O 0.51277 0.96145 0.08354 0.0
O341 O 0.51701 0.04435 0.08697 0.0
O342 O 0.50247 0.96837 0.93016 0.0
O343 O 0.51191 0.05195 0.93368 0.0
O344 O 0.58735 1.00161 0.96246 0.0
O345 O 0.59204 0.9976 0.04538 0.0
O346 O 0.43302 0.01736 0.9715 0.0
O347 O 0.4376 0.01283 0.05386 0.0
O348 O 0.47828 0.08678 0.0184 0.0
O349 O 0.56052 0.08019 0.00785 0.0
O350 O 0.46389 0.93391 0.00907 0.0
O351 O 0.54777 0.92646 1.00399 0.0
O352 O 0.46571 0.01347 0.93364 0.0
O353 O 0.5496 0.0051 0.92933 0.0
O354 O 0.47427 0.0057 0.08765 0.0
O355 O 0.55869 1.00044 0.08289 0.0
O356 O 0.52104 0.0815 0.05363 0.0
O357 O 0.51645 0.08534 0.97092 0.0
O358 O 0.5061 0.92811 0.04674 0.0
O359 O 0.5003 0.93216 0.96484 0.0
O360 O 0.5865 0.95867 1.00318 0.0
O361 O 0.59384 0.04244 0.00519 0.0
O362 O 0.4315 0.97255 0.0104 0.0
O363 O 0.43904 0.05521 0.01733 0.0
C364 C 0.01764 0.43197 0.07695 0.0
C365 C 0.01535 0.43441 0.94093 0.0
C366 C 0.02808 0.56963 0.0797 0.0
C367 C 0.02333 0.57103 0.94235 0.0
C368 C 0.95414 0.57634 0.01226 0.0
C369 C 0.94368 0.43933 0.01762 0.0
C370 C 0.09178 0.56497 0.01114 0.0
C371 C 0.08013 0.42782 0.00509 0.0
C372 C 0.0841 0.49697 0.94054 0.0
C373 C 0.94654 0.50054 0.94554 0.0
C374 C 0.08825 0.49061 0.07614 0.0
C375 C 0.95287 0.51083 0.08154 0.0
Eu376 Eu 0.01288 0.44864 0.00924 0.0
O377 O 0.9892 0.47951 0.98582 0.0
O378 O 0.04128 0.47447 0.03391 0.0
Eu379 Eu 0.96421 0.50656 0.0128 0.0
Eu380 Eu 0.07116 0.49757 0.00888 0.0
O381 O 0.99158 0.47867 0.03622 0.0
O382 O 0.03962 0.47565 0.98454 0.0
Eu383 Eu 0.02004 0.50118 0.06386 0.0
Eu384 Eu 0.01584 0.50293 0.95735 0.0
O385 O 0.99592 0.52882 0.03679 0.0
O386 O 0.99344 0.53001 0.98663 0.0
O387 O 0.04386 0.52553 0.98528 0.0
O388 O 0.04586 0.52503 0.03501 0.0
Eu389 Eu 0.0219 0.55602 0.01119 0.0
O390 O 0.01639 0.42435 0.04994 0.0
O391 O 0.01145 0.42518 0.9672 0.0
O392 O 0.02494 0.5792 0.05339 0.0
O393 O 0.02472 0.57998 0.96913 0.0
O394 O 0.94336 0.55016 0.01091 0.0
O395 O 0.93765 0.46694 0.01935 0.0
O396 O 0.09832 0.53743 0.00967 0.0
O397 O 0.09142 0.45375 0.00648 0.0
O398 O 0.05713 0.50071 0.93245 0.0
O399 O 0.97295 0.5021 0.93536 0.0
O400 O 0.06214 0.49502 0.08609 0.0
O401 O 0.97997 0.50746 0.08897 0.0
O402 O 0.06558 0.5758 0.01196 0.0
O403 O 0.98179 0.58276 0.01317 0.0
O404 O 0.05244 0.42181 0.00564 0.0
O405 O 0.96928 0.42826 0.01244 0.0
O406 O 0.01774 0.46148 0.93326 0.0
O407 O 0.019 0.54435 0.93424 0.0
O408 O 0.01754 0.45859 0.08669 0.0
O409 O 0.0279 0.54242 0.08743 0.0
O410 O 0.94267 0.5109 0.05531 0.0
O411 O 0.93909 0.50181 0.97258 0.0
O412 O 0.09583 0.49077 0.04914 0.0
O413 O 0.09325 0.4953 0.967 0.0
C414 C 0.51401 0.44239 0.08266 0.0
C415 C 0.51582 0.57924 0.07337 0.0
C416 C 0.51059 0.4329 0.94637 0.0
C417 C 0.51041 0.56975 0.93723 0.0
C418 C 0.57901 0.50459 0.93904 0.0
C419 C 0.58454 0.50655 0.07621 0.0
C420 C 0.44151 0.50159 0.94501 0.0
C421 C 0.44791 0.51153 0.08101 0.0
C422 C 0.44391 0.57365 0.00618 0.0
C423 C 0.58163 0.57417 1.00163 0.0
C424 C 0.44455 0.43749 0.01174 0.0
C425 C 0.58166 0.43654 0.00855 0.0
Eu426 Eu 0.51552 0.50972 0.06273 0.0
O427 O 0.53991 0.53296 0.03223 0.0
O428 O 0.48897 0.48221 0.03784 0.0
Eu429 Eu 0.56768 0.50565 0.00816 0.0
Eu430 Eu 0.45943 0.50563 0.01238 0.0
O431 O 0.53979 0.48242 0.0355 0.0
O432 O 0.48879 0.53278 0.03415 0.0
Eu433 Eu 0.51342 0.45252 0.01345 0.0
Eu434 Eu 0.51296 0.55929 0.00637 0.0
O435 O 0.53777 0.47922 0.9858 0.0
O436 O 0.53737 0.52883 0.98297 0.0
O437 O 0.48675 0.52916 0.98456 0.0
O438 O 0.48725 0.47932 0.98786 0.0
Eu439 Eu 0.51104 0.50239 0.95703 0.0
O440 O 0.51378 0.4699 0.08915 0.0
O441 O 0.51767 0.553 0.0837 0.0
O442 O 0.5107 0.45918 0.93604 0.0
O443 O 0.50942 0.54228 0.9307 0.0
O444 O 0.58933 0.50446 0.96527 0.0
O445 O 0.593 0.5065 0.04932 0.0
O446 O 0.43399 0.50263 0.97205 0.0
O447 O 0.43771 0.50761 0.05506 0.0
O448 O 0.47079 0.58271 0.00539 0.0
O449 O 0.55453 0.58253 1.00153 0.0
O450 O 0.47161 0.42897 0.01183 0.0
O451 O 0.55464 0.42844 0.01074 0.0
O452 O 0.46812 0.50152 0.93524 0.0
O453 O 0.55162 0.50389 0.93184 0.0
O454 O 0.47523 0.51374 0.08802 0.0
O455 O 0.5577 0.50772 0.08506 0.0
O456 O 0.51374 0.58582 0.04614 0.0
O457 O 0.51191 0.58026 0.96331 0.0
O458 O 0.51449 0.43166 0.05661 0.0
O459 O 0.51151 0.42617 0.97362 0.0
O460 O 0.59104 0.46326 0.00797 0.0
O461 O 0.59095 0.54762 1.00478 0.0
O462 O 0.43543 0.46416 0.01328 0.0
O463 O 0.43553 0.54685 0.00886 0.0
C464 C 0.01751 0.43076 0.5735 0.0
C465 C 0.01271 0.44072 0.43775 0.0
C466 C 0.01497 0.5674 0.58323 0.0
C467 C 0.0095 0.57746 0.44797 0.0
C468 C 0.94575 0.57045 0.52367 0.0
C469 C 0.94647 0.43593 0.50614 0.0
C470 C 0.08301 0.57342 0.50879 0.0
C471 C 0.08425 0.4353 0.50493 0.0
C472 C 0.07713 0.50828 0.43638 0.0
C473 C 0.93945 0.5077 0.44944 0.0
C474 C 0.09058 0.50284 0.57201 0.0
C475 C 0.95332 0.49672 0.5846 0.0
Eu476 Eu 0.0153 0.45066 0.50674 0.0
O477 O 0.98791 0.48048 0.48612 0.0
O478 O 0.04301 0.47724 0.53145 0.0
Eu479 Eu 0.96206 0.50321 0.51559 0.0
Eu480 Eu 0.06898 0.50433 0.5057 0.0
O481 O 0.99272 0.47678 0.53622 0.0
O482 O 0.03787 0.48115 0.48167 0.0
Eu483 Eu 0.02056 0.50019 0.56372 0.0
Eu484 Eu 0.00979 0.50792 0.45746 0.0
O485 O 0.99276 0.52654 0.53935 0.0
O486 O 0.98699 0.53086 0.4895 0.0
O487 O 0.03762 0.53075 0.48537 0.0
O488 O 0.04269 0.52766 0.53496 0.0
Eu489 Eu 0.01453 0.55719 0.51433 0.0
O490 O 0.01389 0.42436 0.54639 0.0
O491 O 0.01464 0.43008 0.46367 0.0
O492 O 0.01388 0.57767 0.55716 0.0
O493 O 0.01183 0.58388 0.47518 0.0
O494 O 0.938 0.5434 0.52344 0.0
O495 O 0.93814 0.46242 0.51095 0.0
O496 O 0.09224 0.54675 0.50586 0.0
O497 O 0.09319 0.46219 0.50367 0.0
O498 O 0.04941 0.51012 0.43052 0.0
O499 O 0.96535 0.50796 0.43775 0.0
O500 O 0.06454 0.50167 0.58314 0.0
O501 O 0.98104 0.49683 0.5907 0.0
O502 O 0.056 0.5813 0.51258 0.0
O503 O 0.97211 0.58015 0.51943 0.0
O504 O 0.05712 0.42712 0.50599 0.0
O505 O 0.97335 0.42693 0.5044 0.0
O506 O 0.01045 0.46806 0.43112 0.0
O507 O 0.00794 0.55136 0.43725 0.0
O508 O 0.02209 0.45666 0.58389 0.0
O509 O 0.01821 0.54025 0.59037 0.0
O510 O 0.94216 0.49861 0.55882 0.0
O511 O 0.93429 0.50697 0.47702 0.0
O512 O 0.09666 0.50347 0.54462 0.0
O513 O 0.08839 0.50569 0.46206 0.0
C514 C 0.51862 0.94431 0.58426 0.0
C515 C 0.52137 0.9327 0.44786 0.0
C516 C 0.51114 0.08082 0.57246 0.0
C517 C 0.51957 0.06984 0.43684 0.0
C518 C 0.44652 0.07178 0.49792 0.0
C519 C 0.45213 0.93474 0.51258 0.0
C520 C 0.58398 0.07752 0.51348 0.0
C521 C 0.58946 0.94087 0.51535 0.0
C522 C 0.58946 0.00651 0.44542 0.0
C523 C 0.45212 1.00199 0.43971 0.0
C524 C 0.58335 0.01526 0.58093 0.0
C525 C 0.44681 0.0134 0.57566 0.0
Eu526 Eu 0.52002 0.95325 0.51488 0.0
O527 O 0.49471 0.97857 0.48664 0.0
O528 O 0.54308 0.98457 0.53851 0.0
Eu529 Eu 0.46384 0.0042 0.50844 0.0
Eu530 Eu 0.57137 0.0087 0.51259 0.0
O531 O 0.4923 0.98242 0.53661 0.0
O532 O 0.54515 0.98044 0.48853 0.0
Eu533 Eu 0.51563 0.01133 0.56299 0.0
Eu534 Eu 0.52029 1.00243 0.45753 0.0
O535 O 0.49045 0.03294 0.5319 0.0
O536 O 0.49306 0.02833 0.48311 0.0
O537 O 0.54332 0.03107 0.48442 0.0
O538 O 0.54081 0.0349 0.53382 0.0
Eu539 Eu 0.51577 0.06051 0.50591 0.0
O540 O 0.52011 0.93317 0.55842 0.0
O541 O 0.52103 0.92633 0.47524 0.0
O542 O 0.51037 0.08723 0.54515 0.0
O543 O 0.51854 0.08078 0.46275 0.0
O544 O 0.43896 0.04463 0.50041 0.0
O545 O 0.44187 0.96112 0.51064 0.0
O546 O 0.59324 0.05089 0.5148 0.0
O547 O 0.59687 0.96808 0.51373 0.0
O548 O 0.56314 1.00218 0.43583 0.0
O549 O 0.47951 1.00243 0.43246 0.0
O550 O 0.55599 0.01648 0.58804 0.0
O551 O 0.47352 0.0145 0.58481 0.0
O552 O 0.55702 0.08566 0.50947 0.0
O553 O 0.4729 0.08203 0.49992 0.0
O554 O 0.56285 0.93112 0.5166 0.0
O555 O 0.47954 0.92776 0.51459 0.0
O556 O 0.52138 0.95887 0.43719 0.0
O557 O 0.52013 0.04222 0.43067 0.0
O558 O 0.51654 0.97192 0.59008 0.0
O559 O 0.51392 0.05486 0.58317 0.0
O560 O 0.43853 0.00911 0.54908 0.0
O561 O 0.44203 1.00111 0.46594 0.0
O562 O 0.59345 0.01122 0.55499 0.0
O563 O 0.59676 0.01014 0.47229 0.0
H564 H 0.22683 0.15487 0.51336 0.0
H565 H 0.1867 0.22433 0.46847 0.0
H566 H 0.14195 0.19727 0.46653 0.0
H567 H 0.19445 0.09968 0.47305 0.0
H568 H 0.19061 0.07596 0.50245 0.0
H569 H 0.21906 0.10145 0.50209 0.0
H570 H 0.20202 0.12146 0.54999 0.0
H571 H 0.17362 0.09593 0.55058 0.0
H572 H 0.16571 0.13315 0.55376 0.0
H573 H 0.10213 0.16247 0.46825 0.0
H574 H 0.06931 0.12241 0.47408 0.0
H575 H 0.13589 0.07419 0.51556 0.0
C576 C 0.2087 0.16443 0.50301 0.0
C577 C 0.21038 0.19185 0.49111 0.0
C578 C 0.18592 0.20363 0.47819 0.0
C579 C 0.16044 0.18832 0.47675 0.0
C580 C 0.15979 0.1612 0.48821 0.0
C581 C 0.18323 0.14933 0.50111 0.0
C582 C 0.17707 0.1195 0.5111 0.0
C583 C 0.19645 0.09788 0.49628 0.0
C584 C 0.17976 0.1174 0.54327 0.0
C585 C 0.14646 0.1164 0.50171 0.0
C586 C 0.13692 0.14079 0.48868 0.0
C587 C 0.10932 0.1433 0.47848 0.0
C588 C 0.09084 0.12041 0.48196 0.0
C589 C 0.10003 0.09519 0.49537 0.0
C590 C 0.12834 0.09311 0.50508 0.0
H591 H 0.86131 0.21697 0.52202 0.0
H592 H 0.78855 0.17736 0.48166 0.0
H593 H 0.81476 0.13212 0.47985 0.0
H594 H 0.91381 0.18242 0.47975 0.0
H595 H 0.93918 0.17914 0.508 0.0
H596 H 0.91402 0.20792 0.508 0.0
H597 H 0.89648 0.19297 0.55745 0.0
H598 H 0.92163 0.16417 0.55761 0.0
H599 H 0.88436 0.15723 0.56302 0.0
H600 H 0.84898 0.09163 0.48167 0.0
H601 H 0.88918 0.05849 0.48606 0.0
H602 H 0.94097 0.12532 0.5223 0.0
C603 C 0.85085 0.1989 0.51258 0.0
C604 C 0.82276 0.20084 0.50196 0.0
C605 C 0.80981 0.17641 0.49034 0.0
C606 C 0.82462 0.15065 0.48903 0.0
C607 C 0.85239 0.14972 0.49926 0.0
C608 C 0.86542 0.1732 0.51073 0.0
C609 C 0.8958 0.16682 0.51935 0.0
C610 C 0.91694 0.18517 0.50278 0.0
C611 C 0.89979 0.17051 0.55125 0.0
C612 C 0.89787 0.13602 0.51082 0.0
C613 C 0.87248 0.12655 0.49951 0.0
C614 C 0.86894 0.09878 0.49048 0.0
C615 C 0.89191 0.08012 0.49316 0.0
C616 C 0.9182 0.08936 0.50455 0.0
C617 C 0.92121 0.11775 0.51332 0.0
H618 H 0.8606 0.7882 0.50897 0.0
H619 H 0.79452 0.82651 0.56031 0.0
H620 H 0.82302 0.87025 0.56376 0.0
H621 H 0.91998 0.81787 0.54738 0.0
H622 H 0.94132 0.82276 0.5163 0.0
H623 H 0.9156 0.79457 0.51762 0.0
H624 H 0.89187 0.81356 0.47217 0.0
H625 H 0.91753 0.84176 0.47068 0.0
H626 H 0.88006 0.84987 0.47086 0.0
H627 H 0.85809 0.90971 0.56098 0.0
H628 H 0.89736 0.94288 0.55202 0.0
H629 H 0.94176 0.87805 0.50426 0.0
C630 C 0.85221 0.80564 0.52125 0.0
C631 C 0.82532 0.8039 0.53444 0.0
C632 C 0.81489 0.82746 0.54976 0.0
C633 C 0.83102 0.85228 0.55203 0.0
C634 C 0.85753 0.85309 0.53899 0.0
C635 C 0.8681 0.8304 0.52394 0.0
C636 C 0.89715 0.83678 0.51179 0.0
C637 C 0.91985 0.8168 0.52401 0.0
C638 C 0.8966 0.83542 0.47946 0.0
C639 C 0.9012 0.86678 0.52216 0.0
C640 C 0.87806 0.87573 0.5378 0.0
C641 C 0.87635 0.90293 0.54888 0.0
C642 C 0.89873 0.92161 0.54356 0.0
C643 C 0.92256 0.91298 0.5274 0.0
C644 C 0.92395 0.88508 0.51691 0.0
H645 H 0.229 0.85521 0.52676 0.0
H646 H 0.19378 0.7833 0.48156 0.0
H647 H 0.1497 0.8103 0.47314 0.0
H648 H 0.1657 0.87804 0.55982 0.0
H649 H 0.17294 0.91527 0.55582 0.0
H650 H 0.2019 0.89044 0.5582 0.0
H651 H 0.22195 0.90873 0.51081 0.0
H652 H 0.19305 0.93369 0.5084 0.0
H653 H 0.1994 0.90902 0.48013 0.0
H654 H 0.10886 0.84405 0.47149 0.0
H655 H 0.07413 0.88301 0.47565 0.0
H656 H 0.13708 0.93418 0.51894 0.0
C657 C 0.21224 0.84521 0.51471 0.0
C658 C 0.21488 0.81701 0.50496 0.0
C659 C 0.19213 0.80465 0.48973 0.0
C660 C 0.16709 0.8199 0.48459 0.0
C661 C 0.16527 0.8476 0.49451 0.0
C662 C 0.18728 0.86024 0.50907 0.0
C663 C 0.17981 0.89026 0.51758 0.0
C664 C 0.1801 0.89368 0.54976 0.0
C665 C 0.19974 0.91168 0.50337 0.0
C666 C 0.14994 0.89234 0.50593 0.0
C667 C 0.14198 0.86747 0.49274 0.0
C668 C 0.11491 0.86372 0.48153 0.0
C669 C 0.09533 0.8859 0.48411 0.0
C670 C 0.10302 0.91155 0.49757 0.0
C671 C 0.1308 0.91492 0.50825 0.0
H672 H 0.53974 0.21962 0.15895 0.0
H673 H 0.49494 0.1822 0.22961 0.0
H674 H 0.49056 0.13752 0.20336 0.0
H675 H 0.49596 0.18625 0.10513 0.0
H676 H 0.52522 0.18157 0.08111 0.0
H677 H 0.52538 0.21067 0.10565 0.0
H678 H 0.57429 0.19399 0.12469 0.0
H679 H 0.57414 0.16473 0.10036 0.0
H680 H 0.57816 0.15829 0.1375 0.0
H681 H 0.49207 0.09678 0.17061 0.0
H682 H 0.49653 0.06273 0.13175 0.0
H683 H 0.53767 0.12694 0.08068 0.0
C684 C 0.52872 0.20217 0.16882 0.0
C685 C 0.51806 0.2044 0.19658 0.0
C686 C 0.50398 0.18088 0.20871 0.0
C687 C 0.50116 0.15544 0.19389 0.0
C688 C 0.51216 0.15392 0.16679 0.0
C689 C 0.52535 0.17669 0.15418 0.0
C690 C 0.53479 0.16943 0.12454 0.0
C691 C 0.51941 0.18809 0.10283 0.0
C692 C 0.56728 0.17174 0.12161 0.0
C693 C 0.52505 0.13894 0.12264 0.0
C694 C 0.5122 0.13047 0.14735 0.0
C695 C 0.50199 0.10314 0.15109 0.0
C696 C 0.50481 0.08392 0.1289 0.0
C697 C 0.51757 0.09213 0.10317 0.0
C698 C 0.52775 0.12007 0.10004 0.0
H699 H 0.80819 0.49037 0.16504 0.0
H700 H 0.8424 0.54629 0.2294 0.0
H701 H 0.88734 0.54936 0.20302 0.0
H702 H 0.87283 0.45401 0.14686 0.0
H703 H 0.86501 0.45346 0.10975 0.0
H704 H 0.83643 0.45343 0.13494 0.0
H705 H 0.81494 0.49812 0.11149 0.0
H706 H 0.84345 0.49826 0.08623 0.0
H707 H 0.83667 0.52925 0.10737 0.0
H708 H 0.92836 0.54671 0.16946 0.0
H709 H 0.96182 0.54026 0.12989 0.0
H710 H 0.89862 0.49067 0.08527 0.0
C711 C 0.82494 0.50349 0.17362 0.0
C712 C 0.8216 0.51803 0.19946 0.0
C713 C 0.84449 0.53444 0.21001 0.0
C714 C 0.87006 0.53653 0.19505 0.0
C715 C 0.87229 0.52238 0.16944 0.0
C716 C 0.85029 0.50634 0.15871 0.0
C717 C 0.8575 0.49447 0.13 0.0
C718 C 0.85797 0.46191 0.13043 0.0
C719 C 0.83692 0.50571 0.10744 0.0
C720 C 0.88702 0.50644 0.12622 0.0
C721 C 0.89531 0.52214 0.14938 0.0
C722 C 0.92207 0.53459 0.15115 0.0
C723 C 0.94089 0.53078 0.12866 0.0
C724 C 0.9326 0.5151 0.10462 0.0
C725 C 0.90528 0.503 0.10332 0.0
H726 H 0.53137 0.85888 0.22156 0.0
H727 H 0.48333 0.78792 0.18814 0.0
H728 H 0.47629 0.81381 0.1437 0.0
H729 H 0.48719 0.91402 0.18923 0.0
H730 H 0.51714 0.93687 0.18278 0.0
H731 H 0.51763 0.91299 0.21229 0.0
H732 H 0.56502 0.89151 0.19426 0.0
H733 H 0.5645 0.91514 0.1646 0.0
H734 H 0.56681 0.87745 0.15903 0.0
H735 H 0.47665 0.84622 0.10204 0.0
H736 H 0.4822 0.88414 0.06685 0.0
H737 H 0.52816 0.93481 0.12813 0.0
C738 C 0.51893 0.84895 0.20511 0.0
C739 C 0.50812 0.82123 0.20831 0.0
C740 C 0.4923 0.8089 0.18604 0.0
C741 C 0.48801 0.82351 0.16077 0.0
C742 C 0.49937 0.85056 0.15817 0.0
C743 C 0.51423 0.86332 0.17983 0.0
C744 C 0.52448 0.8925 0.17148 0.0
C745 C 0.51078 0.91545 0.19005 0.0
C746 C 0.55714 0.89423 0.17239 0.0
C747 C 0.51346 0.89392 0.1416 0.0
C748 C 0.49905 0.86952 0.13433 0.0
C749 C 0.48773 0.86551 0.10753 0.0
C750 C 0.49115 0.88711 0.08765 0.0
C751 C 0.50562 0.91243 0.09474 0.0
C752 C 0.51679 0.9158 0.12213 0.0
H753 H 0.18827 0.51091 0.20976 0.0
H754 H 0.23869 0.44161 0.1765 0.0
H755 H 0.20216 0.43261 0.1404 0.0
H756 H 0.11636 0.47796 0.19425 0.0
H757 H 0.10125 0.51177 0.18495 0.0
H758 H 0.12891 0.50977 0.21116 0.0
H759 H 0.1587 0.5458 0.1827 0.0
H760 H 0.1314 0.54754 0.15624 0.0
H761 H 0.16726 0.53821 0.1465 0.0
H762 H 0.16581 0.43645 0.10363 0.0
H763 H 0.1278 0.44951 0.07024 0.0
H764 H 0.09874 0.51492 0.12756 0.0
C765 C 0.19097 0.4932 0.19551 0.0
C766 C 0.21614 0.47686 0.19581 0.0
C767 C 0.21948 0.45431 0.17647 0.0
C768 C 0.19886 0.44901 0.15598 0.0
C769 C 0.17487 0.46626 0.15535 0.0
C770 C 0.17044 0.48757 0.17485 0.0
C771 C 0.14383 0.50437 0.16789 0.0
C772 C 0.12124 0.50074 0.19094 0.0
C773 C 0.15073 0.53584 0.16304 0.0
C774 C 0.13484 0.48995 0.1408 0.0
C775 C 0.15304 0.46794 0.13411 0.0
C776 C 0.15095 0.45313 0.10887 0.0
C777 C 0.12955 0.46088 0.08996 0.0
C778 C 0.11044 0.48305 0.09652 0.0
C779 C 0.11288 0.49756 0.12238 0.0
H780 H 0.52969 0.83451 0.8135 0.0
H781 H 0.45738 0.78645 0.84369 0.0
H782 H 0.44499 0.82545 0.876 0.0
H783 H 0.55076 0.86066 0.87779 0.0
H784 H 0.56118 0.8953 0.86578 0.0
H785 H 0.56204 0.86574 0.84192 0.0
H786 H 0.52909 0.89266 0.80737 0.0
H787 H 0.5283 0.92245 0.83113 0.0
H788 H 0.49553 0.90637 0.81968 0.0
H789 H 0.44451 0.86539 0.9094 0.0
H790 H 0.45506 0.90524 0.94133 0.0
H791 H 0.52647 0.92929 0.88902 0.0
C792 C 0.51076 0.83263 0.82632 0.0
C793 C 0.49446 0.80751 0.82615 0.0
C794 C 0.47024 0.80546 0.84368 0.0
C795 C 0.46292 0.82756 0.86192 0.0
C796 C 0.47988 0.85171 0.86219 0.0
C797 C 0.50314 0.85458 0.8447 0.0
C798 C 0.51918 0.88172 0.85099 0.0
C799 C 0.55011 0.87546 0.85964 0.0
C800 C 0.51794 0.902 0.82579 0.0
C801 C 0.50196 0.89301 0.87552 0.0
C802 C 0.47921 0.87544 0.88137 0.0
C803 C 0.4618 0.87969 0.90466 0.0
C804 C 0.46801 0.90224 0.92271 0.0
C805 C 0.49127 0.92035 0.91726 0.0
C806 C 0.50813 0.91608 0.89309 0.0
H807 H 0.16379 0.52878 0.7957 0.0
H808 H 0.23416 0.47887 0.82814 0.0
H809 H 0.20649 0.46852 0.87087 0.0
H810 H 0.1425 0.55925 0.86081 0.0
H811 H 0.10492 0.5575 0.85353 0.0
H812 H 0.12989 0.56054 0.82502 0.0
H813 H 0.10912 0.5152 0.80216 0.0
H814 H 0.08408 0.51208 0.83065 0.0
H815 H 0.10746 0.48298 0.82234 0.0
H816 H 0.17251 0.46488 0.9104 0.0
H817 H 0.13387 0.46813 0.94509 0.0
H818 H 0.08434 0.51907 0.8869 0.0
C819 C 0.17325 0.5154 0.81165 0.0
C820 C 0.20123 0.50476 0.80864 0.0
C821 C 0.21298 0.48765 0.83017 0.0
C822 C 0.19735 0.48145 0.85441 0.0
C823 C 0.16993 0.49234 0.85673 0.0
C824 C 0.15788 0.5089 0.83597 0.0
C825 C 0.12815 0.51837 0.84411 0.0
C826 C 0.12627 0.55084 0.84598 0.0
C827 C 0.10589 0.50644 0.82359 0.0
C828 C 0.1256 0.50485 0.87286 0.0
C829 C 0.14995 0.48988 0.8796 0.0
C830 C 0.15326 0.47639 0.90535 0.0
C831 C 0.13123 0.47849 0.92494 0.0
C832 C 0.10614 0.49391 0.91869 0.0
C833 C 0.10315 0.50692 0.89212 0.0
H834 H 0.4927 0.15764 0.79719 0.0
H835 H 0.54409 0.22597 0.83148 0.0
H836 H 0.54836 0.20007 0.87605 0.0
H837 H 0.45594 0.1389 0.85967 0.0
H838 H 0.45755 0.10129 0.8534 0.0
H839 H 0.45751 0.12549 0.82418 0.0
H840 H 0.50445 0.10343 0.80579 0.0
H841 H 0.50451 0.07902 0.83485 0.0
H842 H 0.53486 0.10145 0.82881 0.0
H843 H 0.54528 0.16816 0.91755 0.0
H844 H 0.5394 0.12975 0.95196 0.0
H845 H 0.49465 0.07967 0.8894 0.0
C846 C 0.50523 0.16709 0.81383 0.0
C847 C 0.51765 0.1942 0.81074 0.0
C848 C 0.53358 0.2057 0.8334 0.0
C849 C 0.53637 0.19103 0.8588 0.0
C850 C 0.52362 0.1646 0.86114 0.0
C851 C 0.50877 0.15248 0.83916 0.0
C852 C 0.49798 0.1233 0.84697 0.0
C853 C 0.4653 0.1222 0.846 0.0
C854 C 0.51125 0.10045 0.82798 0.0
C855 C 0.50891 0.1211 0.87686 0.0
C856 C 0.52334 0.14533 0.88467 0.0
C857 C 0.53438 0.14891 0.91159 0.0
C858 C 0.53089 0.12696 0.931 0.0
C859 C 0.51696 0.10154 0.92326 0.0
C860 C 0.50577 0.09868 0.8958 0.0
H861 H 0.84266 0.52055 0.81428 0.0
H862 H 0.79329 0.45164 0.84937 0.0
H863 H 0.83035 0.44356 0.88508 0.0
H864 H 0.91452 0.48801 0.82843 0.0
H865 H 0.93 0.52179 0.83713 0.0
H866 H 0.90154 0.51976 0.81177 0.0
H867 H 0.87261 0.55611 0.84095 0.0
H868 H 0.90075 0.55798 0.86654 0.0
H869 H 0.86523 0.54887 0.87744 0.0
H870 H 0.86773 0.44747 0.92071 0.0
H871 H 0.90696 0.46021 0.95266 0.0
H872 H 0.93465 0.52505 0.89432 0.0
C873 C 0.84021 0.50324 0.82898 0.0
C874 C 0.8152 0.48673 0.82924 0.0
C875 C 0.81229 0.46459 0.84904 0.0
C876 C 0.83323 0.45978 0.8693 0.0
C877 C 0.85713 0.47707 0.86925 0.0
C878 C 0.86108 0.49807 0.84942 0.0
C879 C 0.88795 0.51477 0.8555 0.0
C880 C 0.9098 0.51084 0.8318 0.0
C881 C 0.88121 0.54629 0.8604 0.0
C882 C 0.89775 0.50053 0.88239 0.0
C883 C 0.87959 0.47878 0.88978 0.0
C884 C 0.88248 0.46401 0.91491 0.0
C885 C 0.90461 0.47156 0.933 0.0
C886 C 0.92368 0.49348 0.92575 0.0
C887 C 0.92049 0.50794 0.9 0.0
H888 H 0.72785 0.65646 0.02386 0.0
H889 H 0.69586 0.71964 0.96545 0.0
H890 H 0.6518 0.69214 0.95971 0.0
H891 H 0.6998 0.59573 0.98564 0.0
H892 H 0.69163 0.57632 0.01722 0.0
H893 H 0.72069 0.60114 0.017 0.0
H894 H 0.69838 0.62734 0.05951 0.0
H895 H 0.66914 0.6028 0.05968 0.0
H896 H 0.66236 0.64026 0.05708 0.0
H897 H 0.61062 0.65918 0.96168 0.0
H898 H 0.5756 0.62116 0.96932 0.0
H899 H 0.63547 0.57749 0.02368 0.0
C900 C 0.71181 0.66437 0.00953 0.0
C901 C 0.71531 0.69041 0.9953 0.0
C902 C 0.69349 0.7001 0.97708 0.0
C903 C 0.66846 0.68452 0.97348 0.0
C904 C 0.66569 0.65909 0.98794 0.0
C905 C 0.68683 0.64889 0.00538 0.0
C906 C 0.67848 0.6208 0.0183 0.0
C907 C 0.69886 0.5971 0.00897 0.0
C908 C 0.677 0.62295 0.05055 0.0
C909 C 0.64922 0.617 0.00557 0.0
C910 C 0.64223 0.63944 0.98825 0.0
C911 C 0.6159 0.64137 0.975 0.0
C912 C 0.59614 0.61977 0.97958 0.0
C913 C 0.60295 0.59644 0.99701 0.0
C914 C 0.62991 0.59495 0.00998 0.0
H915 H 0.36516 0.72114 0.03064 0.0
H916 H 0.2929 0.68537 0.98613 0.0
H917 H 0.31995 0.64142 0.97813 0.0
H918 H 0.41936 0.69039 0.98439 0.0
H919 H 0.44404 0.68444 0.0128 0.0
H920 H 0.41916 0.71344 0.01464 0.0
H921 H 0.40056 0.69457 0.06235 0.0
H922 H 0.42528 0.66549 0.06057 0.0
H923 H 0.3878 0.65868 0.06463 0.0
H924 H 0.35331 0.60064 0.9774 0.0
H925 H 0.39228 0.56593 0.98175 0.0
H926 H 0.4442 0.62892 0.02402 0.0
C927 C 0.35516 0.70426 0.01882 0.0
C928 C 0.32676 0.70662 0.00928 0.0
C929 C 0.31437 0.68384 0.9942 0.0
C930 C 0.32965 0.65888 0.98933 0.0
C931 C 0.35741 0.65716 0.9993 0.0
C932 C 0.37021 0.67929 0.01347 0.0
C933 C 0.4003 0.67177 0.02216 0.0
C934 C 0.422 0.69116 0.00762 0.0
C935 C 0.40366 0.67267 0.05434 0.0
C936 C 0.40217 0.64177 0.01107 0.0
C937 C 0.37715 0.6338 0.99802 0.0
C938 C 0.37313 0.60668 0.98729 0.0
C939 C 0.3953 0.58711 0.99001 0.0
C940 C 0.42119 0.59486 1.00314 0.0
C941 C 0.42474 0.62262 0.01356 0.0
H942 H 0.31382 0.33636 0.04414 0.0
H943 H 0.34068 0.2876 0.97162 0.0
H944 H 0.37433 0.32535 0.95862 0.0
H945 H 0.32412 0.40951 0.01065 0.0
H946 H 0.33691 0.42394 0.04342 0.0
H947 H 0.3106 0.39621 0.04353 0.0
H948 H 0.34337 0.36626 0.07567 0.0
H949 H 0.36995 0.39356 0.07511 0.0
H950 H 0.37901 0.3581 0.06422 0.0
H951 H 0.41126 0.36185 0.95923 0.0
H952 H 0.44623 0.39922 0.96991 0.0
H953 H 0.39528 0.42666 0.04086 0.0
C954 C 0.32585 0.33444 0.02482 0.0
C955 C 0.32457 0.30944 0.00857 0.0
C956 C 0.34127 0.30686 0.98401 0.0
C957 C 0.36041 0.32814 0.97652 0.0
C958 C 0.36234 0.35194 0.99372 0.0
C959 C 0.34514 0.35562 0.01703 0.0
C960 C 0.35369 0.38187 0.03345 0.0
C961 C 0.32991 0.40421 0.03271 0.0
C962 C 0.362 0.37448 0.0639 0.0
C963 C 0.37928 0.39135 0.01657 0.0
C964 C 0.38369 0.37383 0.99365 0.0
C965 C 0.40763 0.37622 0.97661 0.0
C966 C 0.42751 0.39722 0.98301 0.0
C967 C 0.42321 0.41564 0.00607 0.0
C968 C 0.39865 0.41299 0.02285 0.0
H969 H 0.72353 0.35048 0.04088 0.0
H970 H 0.69273 0.28516 0.98407 0.0
H971 H 0.64899 0.31302 0.97623 0.0
H972 H 0.65679 0.37074 0.07086 0.0
H973 H 0.66533 0.40791 0.07172 0.0
H974 H 0.69327 0.38192 0.07428 0.0
H975 H 0.7187 0.40463 0.03157 0.0
H976 H 0.69079 0.43063 0.02883 0.0
H977 H 0.69964 0.40885 0.99893 0.0
H978 H 0.60865 0.34804 0.9747 0.0
H979 H 0.57517 0.3882 0.97847 0.0
H980 H 0.63467 0.43261 0.03248 0.0
C981 C 0.70785 0.34202 0.02649 0.0
C982 C 0.71181 0.31552 0.01302 0.0
C983 C 0.69017 0.30513 0.99499 0.0
C984 C 0.66532 0.32092 0.99021 0.0
C985 C 0.66255 0.34718 1.00338 0.0
C986 C 0.6833 0.35771 0.02103 0.0
C987 C 0.67566 0.38692 0.03189 0.0
C988 C 0.67257 0.38685 0.0641 0.0
C989 C 0.6975 0.40906 0.02222 0.0
C990 C 0.64725 0.39124 0.01759 0.0
C991 C 0.63996 0.36792 1.00147 0.0
C992 C 0.61422 0.36645 0.98709 0.0
C993 C 0.59537 0.38931 0.9894 0.0
C994 C 0.60253 0.41347 0.00561 0.0
C995 C 0.62893 0.41455 0.01963 0.0
H996 H 0.04914 0.6766 0.70633 0.0
H997 H 0.96948 0.71725 0.68433 0.0
H998 H 0.95763 0.67724 0.65304 0.0
H999 H 0.06557 0.65331 0.63932 0.0
H1000 H 0.08101 0.61986 0.64937 0.0
H1001 H 0.08139 0.64911 0.67363 0.0
H1002 H 0.05579 0.61842 0.71091 0.0
H1003 H 0.05553 0.58901 0.68669 0.0
H1004 H 0.02272 0.60134 0.70203 0.0
H1005 H 0.95727 0.63761 0.61975 0.0
H1006 H 0.96794 0.5992 0.58621 0.0
H1007 H 0.04751 0.5824 0.62922 0.0
C1008 C 0.02886 0.6765 0.69554 0.0
C1009 C 0.01005 0.69977 0.69777 0.0
C1010 C 0.98404 0.69951 0.68284 0.0
C1011 C 0.97711 0.67685 0.66518 0.0
C1012 C 0.99639 0.65458 0.66275 0.0
C1013 C 0.02167 0.65401 0.6776 0.0
C1014 C 0.03975 0.62876 0.66893 0.0
C1015 C 0.06863 0.63835 0.6571 0.0
C1016 C 0.04367 0.60816 0.69362 0.0
C1017 C 0.02113 0.61597 0.64615 0.0
C1018 C 0.99607 0.6311 0.64329 0.0
C1019 C 0.97648 0.6252 0.62215 0.0
C1020 C 0.98276 0.60348 0.60317 0.0
C1021 C 0.0083 0.58786 0.60552 0.0
C1022 C 0.02754 0.59374 0.62754 0.0
H1023 H 0.3065 0.98031 0.66256 0.0
H1024 H 0.33373 0.04388 0.72292 0.0
H1025 H 0.37651 0.05294 0.6941 0.0
H1026 H 0.37527 0.95315 0.64511 0.0
H1027 H 0.36707 0.94839 0.60838 0.0
H1028 H 0.33922 0.94615 0.63423 0.0
H1029 H 0.31079 0.98505 0.60808 0.0
H1030 H 0.3385 0.9874 0.58207 0.0
H1031 H 0.3274 0.01864 0.60094 0.0
H1032 H 0.41592 0.05502 0.65879 0.0
H1033 H 0.44999 0.04963 0.61972 0.0
H1034 H 0.39518 0.98694 0.58085 0.0
C1035 C 0.32128 0.99635 0.66968 0.0
C1036 C 0.31666 0.01155 0.69495 0.0
C1037 C 0.33695 0.03181 0.7038 0.0
C1038 C 0.36115 0.03725 0.68746 0.0
C1039 C 0.3646 0.02234 0.66236 0.0
C1040 C 0.34524 1.00229 0.65352 0.0
C1041 C 0.35369 0.98935 0.62558 0.0
C1042 C 0.35914 0.95737 0.62852 0.0
C1043 C 0.33126 0.99549 0.60283 0.0
C1044 C 0.38095 0.00528 0.62002 0.0
C1045 C 0.3869 0.0241 0.64158 0.0
C1046 C 0.41143 0.04048 0.64175 0.0
C1047 C 0.43062 0.03724 0.61951 0.0
C1048 C 0.42501 0.01797 0.59733 0.0
C1049 C 0.39967 1.00212 0.59736 0.0
H1050 H 0.03707 0.35065 0.7198 0.0
H1051 H 0.98196 0.2847 0.68671 0.0
H1052 H 0.97866 0.31039 0.6418 0.0
H1053 H 0.99826 0.40871 0.68793 0.0
H1054 H 0.02989 0.4292 0.6815 0.0
H1055 H 0.02867 0.40509 0.71077 0.0
H1056 H 0.07406 0.38007 0.69222 0.0
H1057 H 0.07525 0.40396 0.66278 0.0
H1058 H 0.07452 0.36627 0.65685 0.0
H1059 H 0.98215 0.3426 0.60014 0.0
H1060 H 0.98918 0.38095 0.56575 0.0
H1061 H 0.03908 0.42758 0.62716 0.0
C1062 C 0.02393 0.34169 0.70335 0.0
C1063 C 0.00998 0.3154 0.7069 0.0
C1064 C 0.99341 0.30442 0.68445 0.0
C1065 C 0.99123 0.31896 0.65887 0.0
C1066 C 0.00539 0.34466 0.65613 0.0
C1067 C 0.02112 0.35612 0.67786 0.0
C1068 C 0.03361 0.3845 0.66972 0.0
C1069 C 0.0219 0.40828 0.6886 0.0
C1070 C 0.0663 0.38363 0.67043 0.0
C1071 C 0.02259 0.38708 0.63992 0.0
C1072 C 0.00656 0.36376 0.63243 0.0
C1073 C 0.99457 0.36103 0.60579 0.0
C1074 C 0.99883 0.38286 0.58636 0.0
C1075 C 0.01471 0.40726 0.59377 0.0
C1076 C 0.02674 0.40928 0.62092 0.0
H1077 H 0.72778 0.98988 0.66472 0.0
H1078 H 0.69455 0.04542 0.72986 0.0
H1079 H 0.65058 0.05183 0.70232 0.0
H1080 H 0.70059 0.03079 0.60635 0.0
H1081 H 0.693 1.00001 0.58521 0.0
H1082 H 0.72155 0.99908 0.61048 0.0
H1083 H 0.69898 0.95497 0.63389 0.0
H1084 H 0.67037 0.95581 0.60873 0.0
H1085 H 0.66264 0.9566 0.64584 0.0
H1086 H 0.60996 0.05151 0.66824 0.0
H1087 H 0.57598 0.04569 0.6291 0.0
H1088 H 0.63715 0.99318 0.58472 0.0
C1089 C 0.71148 0.0037 0.67312 0.0
C1090 C 0.71468 0.01704 0.69959 0.0
C1091 C 0.69246 0.03451 0.70992 0.0
C1092 C 0.66748 0.03849 0.69433 0.0
C1093 C 0.66516 0.02512 0.66832 0.0
C1094 C 0.68661 0.00824 0.65769 0.0
C1095 C 0.67896 0.9966 0.62898 0.0
C1096 C 0.69976 0.00727 0.60643 0.0
C1097 C 0.67766 0.96407 0.62941 0.0
C1098 C 0.64973 0.00945 0.62521 0.0
C1099 C 0.64211 0.02569 0.64823 0.0
C1100 C 0.61573 0.03896 0.65005 0.0
C1101 C 0.59657 0.03545 0.62777 0.0
C1102 C 0.60402 0.01904 0.60391 0.0
C1103 C 0.63104 0.00609 0.60258 0.0
H1104 H 0.98514 0.295 0.35819 0.0
H1105 H 0.036 0.32796 0.28932 0.0
H1106 H 0.0415 0.37296 0.31487 0.0
H1107 H 0.95004 0.35909 0.37766 0.0
H1108 H 0.95227 0.35243 0.41491 0.0
H1109 H 0.95085 0.32323 0.39056 0.0
H1110 H 0.99767 0.30312 0.41136 0.0
H1111 H 0.9991 0.33221 0.43584 0.0
H1112 H 0.02879 0.32532 0.41286 0.0
H1113 H 0.04072 0.41474 0.34738 0.0
H1114 H 0.03717 0.44903 0.38657 0.0
H1115 H 0.99106 0.38709 0.43596 0.0
C1116 C 0.99776 0.31143 0.3485 0.0
C1117 C 0.00986 0.30781 0.32148 0.0
C1118 C 0.02584 0.33028 0.30961 0.0
C1119 C 0.0293 0.35591 0.32406 0.0
C1120 C 0.01707 0.35865 0.35056 0.0
C1121 C 0.00196 0.33691 0.36285 0.0
C1122 C 0.99201 0.34487 0.39209 0.0
C1123 C 0.95935 0.34491 0.39389 0.0
C1124 C 0.00519 0.32521 0.41435 0.0
C1125 C 0.00386 0.37455 0.39426 0.0
C1126 C 0.01792 0.38222 0.36994 0.0
C1127 C 0.02994 0.40894 0.36661 0.0
C1128 C 0.0277 0.42826 0.38888 0.0
C1129 C 0.01397 0.42055 0.41421 0.0
C1130 C 0.00194 0.39335 0.41689 0.0
H1131 H 0.66716 0.97687 0.29924 0.0
H1132 H 0.73327 0.0347 0.32703 0.0
H1133 H 0.70809 0.04141 0.37195 0.0
H1134 H 0.60842 0.01621 0.3292 0.0
H1135 H 0.58893 0.98484 0.33878 0.0
H1136 H 0.61256 0.98413 0.30901 0.0
H1137 H 0.63892 0.94143 0.33089 0.0
H1138 H 0.61609 0.94239 0.36128 0.0
H1139 H 0.65406 0.94459 0.36561 0.0
H1140 H 0.67665 0.041 0.41418 0.0
H1141 H 0.63892 0.03621 0.44989 0.0
H1142 H 0.59173 0.98107 0.3936 0.0
C1143 C 0.6762 0.99123 0.31458 0.0
C1144 C 0.70237 0.00505 0.30963 0.0
C1145 C 0.71358 0.02339 0.33052 0.0
C1146 C 0.69936 0.02749 0.35605 0.0
C1147 C 0.6738 0.01335 0.3603 0.0
C1148 C 0.66213 0.99583 0.34008 0.0
C1149 C 0.63413 0.98349 0.34987 0.0
C1150 C 0.60956 0.99273 0.33057 0.0
C1151 C 0.63593 0.95105 0.35203 0.0
C1152 C 0.63183 0.99702 0.37866 0.0
C1153 C 0.65512 0.01388 0.38438 0.0
C1154 C 0.65822 0.028 0.40992 0.0
C1155 C 0.63676 0.02503 0.43009 0.0
C1156 C 0.61241 0.00837 0.42443 0.0
C1157 C 0.61 0.99417 0.39838 0.0
H1158 H 0.99542 0.65419 0.29928 0.0
H1159 H 0.03631 0.72693 0.33814 0.0
H1160 H 0.03514 0.70284 0.38386 0.0
H1161 H 0.95092 0.6338 0.35831 0.0
H1162 H 0.95642 0.59643 0.35286 0.0
H1163 H 0.95765 0.62038 0.32343 0.0
H1164 H 0.00804 0.6021 0.31069 0.0
H1165 H 0.0069 0.57807 0.34001 0.0
H1166 H 0.03573 0.60297 0.33693 0.0
H1167 H 0.03128 0.67075 0.4249 0.0
H1168 H 0.02769 0.63133 0.4584 0.0
H1169 H 0.99258 0.57784 0.39254 0.0
C1170 C 0.00416 0.66512 0.31734 0.0
C1171 C 0.01556 0.69272 0.31501 0.0
C1172 C 0.02667 0.70617 0.33935 0.0
C1173 C 0.0263 0.69258 0.36546 0.0
C1174 C 0.01506 0.66541 0.36691 0.0
C1175 C 0.0044 0.65169 0.34352 0.0
C1176 C 0.99531 0.62176 0.35055 0.0
C1177 C 0.96317 0.61788 0.34602 0.0
C1178 C 0.01253 0.59995 0.33354 0.0
C1179 C 0.0029 0.62078 0.38148 0.0
C1180 C 0.01387 0.64634 0.39052 0.0
C1181 C 0.02266 0.65064 0.41813 0.0
C1182 C 0.02046 0.62808 0.43701 0.0
C1183 C 0.00989 0.60144 0.4281 0.0
C1184 C 0.00084 0.59789 0.39997 0.0
H1185 H 0.30302 0.98278 0.36188 0.0
H1186 H 0.33984 0.02718 0.29074 0.0
H1187 H 0.38469 0.03262 0.31701 0.0
H1188 H 0.33678 0.02709 0.41586 0.0
H1189 H 0.34153 0.9978 0.43965 0.0
H1190 H 0.31208 0.99794 0.41538 0.0
H1191 H 0.3284 0.94923 0.39599 0.0
H1192 H 0.35805 0.94912 0.41997 0.0
H1193 H 0.3641 0.94526 0.38273 0.0
H1194 H 0.42622 0.03073 0.34958 0.0
H1195 H 0.46093 0.02505 0.38798 0.0
H1196 H 0.39635 0.98452 0.4392 0.0
C1197 C 0.32027 0.99416 0.35196 0.0
C1198 C 0.3179 0.00432 0.32408 0.0
C1199 C 0.34126 0.01867 0.31182 0.0
C1200 C 0.36678 0.02206 0.32664 0.0
C1201 C 0.36849 0.01134 0.35384 0.0
C1202 C 0.34577 0.99805 0.36657 0.0
C1203 C 0.35328 0.98845 0.39605 0.0
C1204 C 0.33482 0.00374 0.41803 0.0
C1205 C 0.35081 0.9561 0.39883 0.0
C1206 C 0.38395 0.99798 0.39768 0.0
C1207 C 0.39229 0.01105 0.37305 0.0
C1208 C 0.4199 0.02075 0.36906 0.0
C1209 C 0.4395 0.01722 0.39094 0.0
C1210 C 0.43134 0.00428 0.41656 0.0
C1211 C 0.40314 0.99463 0.41993 0.0
H1212 H 0.02821 0.2136 0.35525 0.0
H1213 H 0.96953 0.18188 0.2919 0.0
H1214 H 0.96562 0.13713 0.31792 0.0
H1215 H 0.06327 0.14816 0.37165 0.0
H1216 H 0.06498 0.15517 0.40889 0.0
H1217 H 0.06494 0.18412 0.38428 0.0
H1218 H 0.02116 0.20592 0.40938 0.0
H1219 H 0.02114 0.17703 0.43405 0.0
H1220 H 0.98959 0.18483 0.41394 0.0
H1221 H 0.968 0.09552 0.35072 0.0
H1222 H 0.97442 0.06126 0.38935 0.0
H1223 H 0.02761 0.12162 0.43377 0.0
C1224 C 0.01426 0.1975 0.34681 0.0
C1225 C 0.99939 0.20157 0.32112 0.0
C1226 C 0.98182 0.17936 0.31098 0.0
C1227 C 0.97921 0.15383 0.32579 0.0
C1228 C 0.99393 0.15078 0.35103 0.0
C1229 C 0.0109 0.1721 0.36162 0.0
C1230 C 0.02343 0.1639 0.3899 0.0
C1231 C 0.05609 0.16277 0.38858 0.0
C1232 C 0.01321 0.18412 0.41319 0.0
C1233 C 0.01088 0.13458 0.3935 0.0
C1234 C 0.99419 0.12732 0.37066 0.0
C1235 C 0.98092 0.10104 0.36876 0.0
C1236 C 0.98477 0.08168 0.39077 0.0
C1237 C 0.00141 0.08881 0.41461 0.0
C1238 C 0.01452 0.1157 0.41596 0.0
H1239 H 0.86448 1.00266 0.29434 0.0
H1240 H 0.78766 0.97149 0.33381 0.0
H1241 H 0.81196 0.97107 0.37996 0.0
H1242 H 0.9132 0.96029 0.33605 0.0
H1243 H 0.93999 0.98747 0.33776 0.0
H1244 H 0.91635 0.98571 0.30798 0.0
H1245 H 0.90124 0.03781 0.31677 0.0
H1246 H 0.92473 0.03962 0.34666 0.0
H1247 H 0.88754 0.04788 0.35075 0.0
H1248 H 0.84442 0.97511 0.42199 0.0
H1249 H 0.88342 0.98057 0.45638 0.0
H1250 H 0.93972 0.00744 0.38915 0.0
C1251 C 0.85291 0.99573 0.31277 0.0
C1252 C 0.82421 0.98742 0.31082 0.0
C1253 C 0.8096 0.97828 0.33511 0.0
C1254 C 0.82324 0.97791 0.36136 0.0
C1255 C 0.85156 0.98648 0.36278 0.0
C1256 C 0.86634 0.99497 0.33911 0.0
C1257 C 0.89678 1.00256 0.34634 0.0
C1258 C 0.91781 0.98283 0.33113 0.0
C1259 C 0.90292 0.03383 0.33974 0.0
C1260 C 0.89672 0.9972 0.37774 0.0
C1261 C 0.87042 0.98807 0.38685 0.0
C1262 C 0.86515 0.98213 0.41508 0.0
C1263 C 0.88744 0.9854 0.43448 0.0
C1264 C 0.91472 0.99434 0.42555 0.0
C1265 C 0.91922 1.00036 0.39674 0.0
H1266 H 0.04093 0.80644 0.33139 0.0
H1267 H 0.96676 0.83447 0.28496 0.0
H1268 H 0.95552 0.86874 0.32277 0.0
H1269 H 0.00933 0.81321 0.40211 0.0
H1270 H 0.04169 0.8259 0.41807 0.0
H1271 H 0.04331 0.80245 0.38815 0.0
H1272 H 0.07422 0.83889 0.36147 0.0
H1273 H 0.07273 0.86234 0.39133 0.0
H1274 H 0.0614 0.87462 0.35724 0.0
H1275 H 0.95388 0.90189 0.36346 0.0
H1276 H 0.96174 0.93234 0.40489 0.0
H1277 H 0.03627 0.88307 0.42718 0.0
C1278 C 0.02222 0.81969 0.32945 0.0
C1279 C 0.00456 0.8179 0.30536 0.0
C1280 C 0.98041 0.83556 0.3033 0.0
C1281 C 0.97387 0.85502 0.3247 0.0
C1282 C 0.99165 0.8565 0.34817 0.0
C1283 C 0.01532 0.83931 0.35081 0.0
C1284 C 0.03128 0.84604 0.37793 0.0
C1285 C 0.0314 0.82037 0.39774 0.0
C1286 C 0.06171 0.85607 0.3716 0.0
C1287 C 0.01317 0.87 0.38981 0.0
C1288 C 0.99037 0.87549 0.37221 0.0
C1289 C 0.97141 0.89752 0.37757 0.0
C1290 C 0.97604 0.9147 0.40118 0.0
C1291 C 0.99929 0.9098 0.4195 0.0
C1292 C 0.0179 0.88684 0.41395 0.0
H1293 H 0.22696 0.97938 0.36018 0.0
H1294 H 0.18827 0.00957 0.28279 0.0
H1295 H 0.14196 0.0128 0.30687 0.0
H1296 H 0.16737 0.93903 0.38598 0.0
H1297 H 0.17302 0.94925 0.42209 0.0
H1298 H 0.20269 0.94733 0.39823 0.0
H1299 H 0.21561 0.99937 0.40985 0.0
H1300 H 0.18597 1.00142 0.43372 0.0
H1301 H 0.18913 0.02665 0.4055 0.0
H1302 H 0.09974 0.01377 0.3399 0.0
H1303 H 0.06563 0.0138 0.37937 0.0
H1304 H 0.13272 0.98601 0.43577 0.0
C1305 C 0.20888 0.98686 0.34818 0.0
C1306 C 0.21154 0.99411 0.31937 0.0
C1307 C 0.18695 1.00331 0.30463 0.0
C1308 C 0.1605 0.00544 0.31822 0.0
C1309 C 0.15885 0.99848 0.34665 0.0
C1310 C 0.18244 0.98948 0.36149 0.0
C1311 C 0.17527 0.98438 0.39216 0.0
C1312 C 0.17986 0.95314 0.40007 0.0
C1313 C 0.19252 0.00414 0.41144 0.0
C1314 C 0.14398 0.99207 0.39231 0.0
C1315 C 0.13484 0.99989 0.36581 0.0
C1316 C 0.10669 0.00769 0.36073 0.0
C1317 C 0.08744 0.00758 0.38331 0.0
C1318 C 0.09643 1.00001 0.41077 0.0
C1319 C 0.12514 0.99214 0.41515 0.0
H1320 H 0.03921 0.78729 0.65769 0.0
H1321 H 0.01124 0.82949 0.73415 0.0
H1322 H 0.00829 0.87454 0.70832 0.0
H1323 H 0.08009 0.84495 0.62861 0.0
H1324 H 0.06893 0.83821 0.59295 0.0
H1325 H 0.07089 0.80952 0.61781 0.0
H1326 H 0.01819 0.79717 0.60782 0.0
H1327 H 0.01606 0.82582 0.58296 0.0
H1328 H 0.99133 0.82415 0.61184 0.0
H1329 H 0.00713 0.91488 0.67411 0.0
H1330 H 0.00689 0.94757 0.634 0.0
H1331 H 0.03247 0.87898 0.57848 0.0
C1332 C 0.03228 0.80587 0.66914 0.0
C1333 C 0.02558 0.80451 0.69826 0.0
C1334 C 0.01711 0.82975 0.71216 0.0
C1335 C 0.01512 0.85551 0.69756 0.0
C1336 C 0.02144 0.85586 0.66891 0.0
C1337 C 0.02976 0.8317 0.6548 0.0
C1338 C 0.0343 0.83767 0.6237 0.0
C1339 C 0.0654 0.83227 0.61528 0.0
C1340 C 0.01374 0.82016 0.60551 0.0
C1341 C 0.0271 0.86898 0.62251 0.0
C1342 C 0.01997 0.87903 0.64892 0.0
C1343 C 0.01269 0.90723 0.65336 0.0
C1344 C 0.01268 0.92569 0.63031 0.0
C1345 C 0.01967 0.91601 0.60287 0.0
C1346 C 0.02691 0.88713 0.59905 0.0
H1347 H 0.18807 0.02419 0.70523 0.0
H1348 H 0.2358 0.95146 0.6757 0.0
H1349 H 0.20056 0.94375 0.63806 0.0
H1350 H 0.11535 0.99429 0.68798 0.0
H1351 H 0.10196 0.02841 0.67734 0.0
H1352 H 0.12882 0.02602 0.70432 0.0
H1353 H 0.16081 0.05989 0.67561 0.0
H1354 H 0.13431 0.0619 0.64835 0.0
H1355 H 0.17 0.05084 0.6399 0.0
H1356 H 0.16568 0.94848 0.59949 0.0
H1357 H 0.12771 0.96065 0.56574 0.0
H1358 H 0.09938 0.02836 0.62077 0.0
C1359 C 0.19031 0.006 0.69152 0.0
C1360 C 0.2144 0.98813 0.6935 0.0
C1361 C 0.21727 0.96508 0.67466 0.0
C1362 C 0.19746 0.96065 0.65315 0.0
C1363 C 0.17462 0.97927 0.65089 0.0
C1364 C 0.17042 1.00109 0.6699 0.0
C1365 C 0.14462 0.01869 0.66163 0.0
C1366 C 0.1213 0.01672 0.68416 0.0
C1367 C 0.15295 0.04966 0.65604 0.0
C1368 C 0.13568 0.00386 0.63464 0.0
C1369 C 0.1535 0.9813 0.62884 0.0
C1370 C 0.15118 0.96568 0.60407 0.0
C1371 C 0.12977 0.97293 0.58489 0.0
C1372 C 0.11065 0.99533 0.59073 0.0
C1373 C 0.11357 0.01092 0.616 0.0
H1374 H 0.03427 0.15324 0.72313 0.0
H1375 H 0.99125 0.22515 0.6857 0.0
H1376 H 0.98696 0.19905 0.64087 0.0
H1377 H 0.07363 0.13133 0.66152 0.0
H1378 H 0.06921 0.09397 0.66776 0.0
H1379 H 0.06947 0.11837 0.69691 0.0
H1380 H 0.0204 0.0996 0.71303 0.0
H1381 H 0.02006 0.07512 0.68393 0.0
H1382 H 0.99104 0.09964 0.68863 0.0
H1383 H 0.98813 0.16583 0.59989 0.0
H1384 H 0.99225 0.12679 0.56584 0.0
H1385 H 0.03271 0.07464 0.62959 0.0
C1386 C 0.02398 0.16338 0.70541 0.0
C1387 C 0.01342 0.19135 0.70765 0.0
C1388 C 0.99986 0.20394 0.68427 0.0
C1389 C 0.99725 0.18922 0.65873 0.0
C1390 C 0.00804 0.16175 0.657 0.0
C1391 C 0.02093 0.14879 0.67974 0.0
C1392 C 0.03009 0.1188 0.67225 0.0
C1393 C 0.06253 0.11543 0.67476 0.0
C1394 C 0.01446 0.097 0.69055 0.0
C1395 C 0.02049 0.11706 0.64176 0.0
C1396 C 0.00798 0.14218 0.63343 0.0
C1397 C 0.99782 0.14604 0.60619 0.0
C1398 C 1.0004 0.12368 0.58692 0.0
C1399 C 0.01286 0.09751 0.59487 0.0
C1400 C 0.02296 0.09426 0.6228 0.0
H1401 H 0.80896 0.03521 0.6688 0.0
H1402 H 0.8405 0.97704 0.73245 0.0
H1403 H 0.88508 0.97182 0.70581 0.0
H1404 H 0.83453 0.99466 0.61096 0.0
H1405 H 0.84271 0.02509 0.58965 0.0
H1406 H 0.81466 0.02703 0.61533 0.0
H1407 H 0.83897 0.07046 0.63842 0.0
H1408 H 0.8671 0.06866 0.61277 0.0
H1409 H 0.87547 0.06779 0.64976 0.0
H1410 H 0.92589 0.9719 0.67154 0.0
H1411 H 0.95863 0.97523 0.63111 0.0
H1412 H 0.89804 0.02878 0.58741 0.0
C1413 C 0.825 0.02115 0.67725 0.0
C1414 C 0.82089 0.00661 0.703 0.0
C1415 C 0.84307 0.989 0.71323 0.0
C1416 C 0.86847 0.98566 0.69808 0.0
C1417 C 0.87134 0.99977 0.67253 0.0
C1418 C 0.85011 0.01699 0.66209 0.0
C1419 C 0.85763 0.02825 0.6332 0.0
C1420 C 0.8361 0.01814 0.61098 0.0
C1421 C 0.85993 0.06072 0.63358 0.0
C1422 C 0.88642 0.01455 0.62894 0.0
C1423 C 0.89413 0.99856 0.65208 0.0
C1424 C 0.92003 0.9843 0.65331 0.0
C1425 C 0.9385 0.98638 0.63029 0.0
C1426 C 0.93079 1.00219 0.60615 0.0
C1427 C 0.90435 0.01635 0.6055 0.0
H1428 H 0.34411 0.95949 0.20455 0.0
H1429 H 0.29349 0.03403 0.18662 0.0
H1430 H 0.32955 0.04997 0.15228 0.0
H1431 H 0.41436 0.99408 0.19776 0.0
H1432 H 0.4306 0.96371 0.18128 0.0
H1433 H 0.40185 0.95898 0.20587 0.0
H1434 H 0.37365 0.93081 0.16831 0.0
H1435 H 0.40233 0.93546 0.1437 0.0
H1436 H 0.36688 0.94669 0.1345 0.0
H1437 H 0.36834 0.05579 0.11737 0.0
H1438 H 0.40844 0.05184 0.08415 0.0
H1439 H 0.43605 0.97457 0.12506 0.0
C1440 C 0.34096 0.97932 0.19357 0.0
C1441 C 0.31622 0.99573 0.1981 0.0
C1442 C 0.31244 0.02136 0.18336 0.0
C1443 C 0.3328 0.03055 0.1639 0.0
C1444 C 0.35693 0.0139 0.15961 0.0
C1445 C 0.36127 0.9889 0.17408 0.0
C1446 C 0.38861 0.97457 0.16453 0.0
C1447 C 0.41013 0.97273 0.18881 0.0
C1448 C 0.38249 0.94514 0.15201 0.0
C1449 C 0.39857 0.99512 0.14205 0.0
C1450 C 0.37993 0.01767 0.13971 0.0
C1451 C 0.38332 0.03849 0.11929 0.0
C1452 C 0.40612 0.03606 0.10051 0.0
C1453 C 0.42545 0.01315 0.10235 0.0
C1454 C 0.42192 0.99264 0.12368 0.0
H1455 H 0.98299 0.33253 0.20963 0.0
H1456 H 0.04053 0.27145 0.17223 0.0
H1457 H 0.05262 0.30574 0.1349 0.0
H1458 H 0.95586 0.36037 0.14561 0.0
H1459 H 0.95384 0.39658 0.15745 0.0
H1460 H 0.95101 0.36813 0.18243 0.0
H1461 H 0.99286 0.38917 0.21104 0.0
H1462 H 0.99578 0.41773 0.18612 0.0
H1463 H 0.02629 0.39591 0.19378 0.0
H1464 H 0.05579 0.34436 0.10009 0.0
H1465 H 0.05094 0.3861 0.06955 0.0
H1466 H 0.99245 0.42421 0.1292 0.0
C1467 C 0.99839 0.3267 0.19371 0.0
C1468 C 0.01105 0.29954 0.19363 0.0
C1469 C 0.03084 0.29227 0.17253 0.0
C1470 C 0.03781 0.3116 0.15132 0.0
C1471 C 0.02488 0.33816 0.15168 0.0
C1472 C 0.00571 0.34591 0.17234 0.0
C1473 C 0.99426 0.37557 0.16701 0.0
C1474 C 0.96182 0.37512 0.16288 0.0
C1475 C 0.00281 0.39579 0.19091 0.0
C1476 C 0.00953 0.38295 0.13983 0.0
C1477 C 0.02712 0.36098 0.13154 0.0
C1478 C 0.04235 0.36183 0.10649 0.0
C1479 C 0.03935 0.38559 0.08923 0.0
C1480 C 0.02142 0.40839 0.09706 0.0
C1481 C 0.00663 0.40725 0.12294 0.0
H1482 H 0.66919 0.02119 0.21634 0.0
H1483 H 0.73309 0.96244 0.18504 0.0
H1484 H 0.70671 0.95847 0.14047 0.0
H1485 H 0.60988 0.98269 0.18814 0.0
H1486 H 0.58953 0.0141 0.18044 0.0
H1487 H 0.61466 0.0142 0.20904 0.0
H1488 H 0.63997 0.05765 0.18723 0.0
H1489 H 0.61493 0.05763 0.15855 0.0
H1490 H 0.65253 0.0558 0.15146 0.0
H1491 H 0.67322 0.96088 0.09903 0.0
H1492 H 0.63378 0.96725 0.06523 0.0
H1493 H 0.58945 0.02026 0.12562 0.0
C1494 C 0.67768 0.00718 0.20039 0.0
C1495 C 0.70354 0.99227 0.2045 0.0
C1496 C 0.71382 0.9747 0.18247 0.0
C1497 C 0.69881 0.97207 0.15706 0.0
C1498 C 0.6733 0.98679 0.15402 0.0
C1499 C 0.66268 0.00378 0.1752 0.0
C1500 C 0.63408 0.01626 0.1672 0.0
C1501 C 0.61066 0.0062 0.18741 0.0
C1502 C 0.63548 0.04876 0.16604 0.0
C1503 C 0.63028 0.00365 0.13815 0.0
C1504 C 0.65331 0.987 0.13079 0.0
C1505 C 0.65502 0.97374 0.10465 0.0
C1506 C 0.63257 0.97755 0.08557 0.0
C1507 C 0.60853 0.99411 0.0929 0.0
C1508 C 0.60741 0.00721 0.11959 0.0
H1509 H 0.99745 0.69947 0.18541 0.0
H1510 H 0.07136 0.67091 0.23203 0.0
H1511 H 0.08155 0.63557 0.19519 0.0
H1512 H 0.9749 0.63239 0.1631 0.0
H1513 H 0.96355 0.64275 0.12839 0.0
H1514 H 0.96347 0.66824 0.15658 0.0
H1515 H 0.9956 0.70153 0.12737 0.0
H1516 H 0.99553 0.6762 0.09896 0.0
H1517 H 0.02876 0.68835 0.11351 0.0
H1518 H 0.08044 0.59938 0.15737 0.0
H1519 H 0.07044 0.56679 0.11797 0.0
H1520 H 0.99879 0.61889 0.093 0.0
C1521 C 0.01624 0.68634 0.18732 0.0
C1522 C 0.03375 0.68806 0.21156 0.0
C1523 C 0.05774 0.67001 0.21366 0.0
C1524 C 0.06369 0.64984 0.19283 0.0
C1525 C 0.0456 0.64797 0.1697 0.0
C1526 C 0.02258 0.66594 0.16649 0.0
C1527 C 0.00584 0.65819 0.14011 0.0
C1528 C 0.97512 0.6499 0.1475 0.0
C1529 C 0.00648 0.68252 0.11872 0.0
C1530 C 0.02268 0.63275 0.12953 0.0
C1531 C 0.0455 0.6273 0.14706 0.0
C1532 C 0.06299 0.60376 0.14317 0.0
C1533 C 0.05708 0.58528 0.12082 0.0
C1534 C 0.03412 0.59051 0.10228 0.0
C1535 C 0.01686 0.61476 0.10653 0.0
H1536 H 0.34294 0.98703 0.80726 0.0
H1537 H 0.27754 0.03721 0.84786 0.0
H1538 H 0.3105 0.04792 0.88701 0.0
H1539 H 0.37152 0.95634 0.86957 0.0
H1540 H 0.40813 0.95756 0.85844 0.0
H1541 H 0.38017 0.95511 0.83265 0.0
H1542 H 0.39905 1.00025 0.80815 0.0
H1543 H 0.42712 1.00277 0.83387 0.0
H1544 H 0.40346 0.0323 0.82832 0.0
H1545 H 0.34877 0.05059 0.92302 0.0
H1546 H 0.39075 0.04627 0.95368 0.0
H1547 H 0.43308 0.99535 0.89014 0.0
C1548 C 0.33585 1.00057 0.82428 0.0
C1549 C 0.30784 0.01154 0.82466 0.0
C1550 C 0.29901 0.02885 0.84725 0.0
C1551 C 0.31757 0.03502 0.86953 0.0
C1552 C 0.34499 0.02377 0.86883 0.0
C1553 C 0.35428 0.00705 0.84676 0.0
C1554 C 0.38466 0.9971 0.85182 0.0
C1555 C 0.38619 0.9646 0.8532 0.0
C1556 C 0.40476 0.00881 0.82919 0.0
C1557 C 0.39071 0.01038 0.88037 0.0
C1558 C 0.36747 0.0257 0.88966 0.0
C1559 C 0.3672 0.03888 0.91587 0.0
C1560 C 0.39116 0.0362 0.9332 0.0
C1561 C 0.41532 0.02058 0.92434 0.0
C1562 C 0.41514 0.00779 0.89735 0.0
H1563 H 0.98606 0.30667 0.83238 0.0
H1564 H 0.0663 0.3294 0.79387 0.0
H1565 H 0.0751 0.36411 0.83168 0.0
H1566 H 0.9661 0.37524 0.85206 0.0
H1567 H 0.95037 0.36617 0.8854 0.0
H1568 H 0.9515 0.3404 0.85748 0.0
H1569 H 0.97786 0.30519 0.89005 0.0
H1570 H 0.97651 0.33077 0.9182 0.0
H1571 H 0.01017 0.31608 0.90736 0.0
H1572 H 0.07259 0.40034 0.86898 0.0
H1573 H 0.06099 0.43389 0.90706 0.0
H1574 H 0.98336 0.38771 0.92446 0.0
C1575 C 0.00586 0.31833 0.83259 0.0
C1576 C 0.0258 0.31511 0.8105 0.0
C1577 C 0.05105 0.33133 0.81084 0.0
C1578 C 0.05617 0.35114 0.83217 0.0
C1579 C 0.03586 0.35448 0.85322 0.0
C1580 C 0.01138 0.33832 0.85398 0.0
C1581 C 0.99247 0.34754 0.87835 0.0
C1582 C 0.96339 0.35795 0.86767 0.0
C1583 C 0.98906 0.32346 0.89977 0.0
C1584 C 0.00984 0.37179 0.89058 0.0
C1585 C 0.03476 0.37532 0.87559 0.0
C1586 C 0.05343 0.39747 0.88122 0.0
C1587 C 0.04658 0.41652 0.90276 0.0
C1588 C 0.02145 0.41323 0.91876 0.0
C1589 C 0.00294 0.39038 0.91281 0.0
H1590 H 0.72993 0.01054 0.86219 0.0
H1591 H 0.6882 0.98628 0.78452 0.0
H1592 H 0.64209 0.98397 0.80931 0.0
H1593 H 0.68796 0.96449 0.90751 0.0
H1594 H 0.68702 0.98944 0.9362 0.0
H1595 H 0.71675 0.98919 0.91234 0.0
H1596 H 0.70847 0.04241 0.90184 0.0
H1597 H 0.67869 0.04277 0.92562 0.0
H1598 H 0.67405 0.05404 0.88971 0.0
H1599 H 0.60041 0.98583 0.84213 0.0
H1600 H 0.56611 0.98951 0.88115 0.0
H1601 H 0.63501 0.01087 0.93826 0.0
C1602 C 0.71101 0.00468 0.85055 0.0
C1603 C 0.71233 0.99892 0.82147 0.0
C1604 C 0.68743 0.99115 0.80675 0.0
C1605 C 0.66119 0.98968 0.82068 0.0
C1606 C 0.66041 0.99574 0.84937 0.0
C1607 C 0.68467 1.00284 0.86424 0.0
C1608 C 0.67793 0.00807 0.895 0.0
C1609 C 0.69333 0.98651 0.91387 0.0
C1610 C 0.68521 0.03864 0.90353 0.0
C1611 C 0.64608 1.00318 0.89499 0.0
C1612 C 0.63642 0.99613 0.86845 0.0
C1613 C 0.60773 0.9912 0.86304 0.0
C1614 C 0.58838 0.99346 0.88537 0.0
C1615 C 0.59778 1.00046 0.91285 0.0
C1616 C 0.6271 0.00528 0.91759 0.0
H1617 H 0.02235 0.71943 0.85819 0.0
H1618 H 0.05339 0.67217 0.78627 0.0
H1619 H 0.05393 0.62838 0.81476 0.0
H1620 H 0.06366 0.68186 0.91108 0.0
H1621 H 0.03584 0.68241 0.93713 0.0
H1622 H 0.03795 0.71021 0.91132 0.0
H1623 H 0.98609 0.70007 0.89603 0.0
H1624 H 0.98381 0.67229 0.92184 0.0
H1625 H 0.97629 0.66475 0.88542 0.0
H1626 H 0.05075 0.5901 0.85021 0.0
H1627 H 0.04358 0.55851 0.8904 0.0
H1628 H 0.01479 0.62963 0.94106 0.0
C1629 C 0.02925 0.69977 0.8486 0.0
C1630 C 0.0378 0.69891 0.82009 0.0
C1631 C 0.04672 0.67306 0.80806 0.0
C1632 C 0.04714 0.64817 0.8241 0.0
C1633 C 0.03863 0.64958 0.85217 0.0
C1634 C 0.02984 0.67464 0.86442 0.0
C1635 C 0.0216 0.67 0.89504 0.0
C1636 C 0.04092 0.68714 0.91481 0.0
C1637 C 0.99007 0.67721 0.89986 0.0
C1638 C 0.027 0.6384 0.898 0.0
C1639 C 0.03684 0.62722 0.87292 0.0
C1640 C 0.04299 0.5986 0.86993 0.0
C1641 C 0.0387 0.58078 0.89299 0.0
C1642 C 0.02836 0.59143 0.919 0.0
C1643 C 0.02277 0.62081 0.92157 0.0
H1644 H 0.21663 0.33349 0.042 0.0
H1645 H 0.17302 0.26345 1.00196 0.0
H1646 H 0.13406 0.29566 0.98762 0.0
H1647 H 0.15524 0.36702 0.06976 0.0
H1648 H 0.16733 0.40266 0.0637 0.0
H1649 H 0.19279 0.37473 0.06921 0.0
H1650 H 0.21707 0.38697 0.02189 0.0
H1651 H 0.19168 0.41505 0.01637 0.0
H1652 H 0.19613 0.38782 0.99012 0.0
H1653 H 0.0987 0.33412 0.98068 0.0
H1654 H 0.06863 0.37682 0.98106 0.0
H1655 H 0.13517 0.42303 0.02467 0.0
C1656 C 0.19896 0.32519 0.02992 0.0
C1657 C 0.19754 0.29622 0.02286 0.0
C1658 C 0.17425 0.28572 0.00734 0.0
C1659 C 0.15215 0.30383 0.99911 0.0
C1660 C 0.15389 0.33234 0.00651 0.0
C1661 C 0.17671 0.34307 0.02146 0.0
C1662 C 0.17265 0.37436 0.02761 0.0
C1663 C 0.17196 0.37999 0.05947 0.0
C1664 C 0.19576 0.39209 0.01313 0.0
C1665 C 0.14375 0.37934 0.01432 0.0
C1666 C 0.13345 0.3548 1.00217 0.0
C1667 C 0.10662 0.35354 0.98988 0.0
C1668 C 0.08966 0.3779 0.99032 0.0
C1669 C 0.09955 0.40326 1.00291 0.0
C1670 C 0.12718 0.40406 0.01462 0.0
H1671 H 0.16545 0.71402 0.04288 0.0
H1672 H 0.2402 0.68213 0.99993 0.0
H1673 H 0.21643 0.63614 0.99256 0.0
H1674 H 0.14535 0.64914 0.07746 0.0
H1675 H 0.10774 0.65438 0.07225 0.0
H1676 H 0.13103 0.68449 0.07511 0.0
H1677 H 0.11297 0.70308 0.02702 0.0
H1678 H 0.08957 0.67309 0.02411 0.0
H1679 H 0.11481 0.68037 0.99656 0.0
H1680 H 0.18476 0.59324 0.99071 0.0
H1681 H 0.14603 0.55787 0.99111 0.0
H1682 H 0.09097 0.61862 0.03289 0.0
C1683 C 0.17672 0.69724 0.03201 0.0
C1684 C 0.20477 0.70122 0.02244 0.0
C1685 C 0.2189 0.67918 0.00796 0.0
C1686 C 0.20553 0.65303 1.00358 0.0
C1687 C 0.17791 0.64952 0.01351 0.0
C1688 C 0.16351 0.67112 0.02714 0.0
C1689 C 0.13358 0.66218 0.03474 0.0
C1690 C 0.12918 0.66257 0.06679 0.0
C1691 C 0.11143 0.68079 0.0197 0.0
C1692 C 0.13346 0.63223 0.02333 0.0
C1693 C 0.1593 0.62522 0.01141 0.0
C1694 C 0.16437 0.59852 0.99988 0.0
C1695 C 0.14231 0.57854 1.0003 0.0
C1696 C 0.11546 0.58553 0.01186 0.0
C1697 C 0.11116 0.61272 0.02361 0.0
H1698 H 0.31422 0.1817 0.01531 0.0
H1699 H 0.35973 0.23676 0.07272 0.0
H1700 H 0.39746 0.20078 0.07776 0.0
H1701 H 0.33572 0.11276 0.04987 0.0
H1702 H 0.33903 0.09504 0.01642 0.0
H1703 H 0.31332 0.12305 0.02083 0.0
H1704 H 0.33536 0.14946 0.97844 0.0
H1705 H 0.36138 0.12182 0.9742 0.0
H1706 H 0.37273 0.15795 0.97886 0.0
H1707 H 0.43324 0.16328 0.07094 0.0
H1708 H 0.46374 0.12356 0.05609 0.0
H1709 H 0.39535 0.09097 1.00398 0.0
C1710 C 0.33161 0.18556 0.02975 0.0
C1711 C 0.33408 0.21176 0.04391 0.0
C1712 C 0.3575 0.21666 0.06193 0.0
C1713 C 0.37898 0.19639 0.0649 0.0
C1714 C 0.37661 0.17123 0.04982 0.0
C1715 C 0.35336 0.16543 0.03294 0.0
C1716 C 0.35735 0.13759 0.01739 0.0
C1717 C 0.33503 0.11582 0.02669 0.0
C1718 C 0.35667 0.14199 0.98533 0.0
C1719 C 0.38685 0.12931 0.02739 0.0
C1720 C 0.39743 0.14902 0.04618 0.0
C1721 C 0.42502 0.14739 0.05668 0.0
C1722 C 0.44227 0.12493 0.04789 0.0
C1723 C 0.43185 0.10427 0.02892 0.0
C1724 C 0.40367 0.10633 0.01878 0.0
H1725 H 0.84081 0.30547 0.99689 0.0
H1726 H 0.79463 0.33627 0.06964 0.0
H1727 H 0.83052 0.3736 0.0767 0.0
H1728 H 0.91406 0.32159 0.02529 0.0
H1729 H 0.92704 0.33211 0.99122 0.0
H1730 H 0.89976 0.30548 0.99394 0.0
H1731 H 0.86761 0.33504 0.96086 0.0
H1732 H 0.89455 0.36195 0.95846 0.0
H1733 H 0.85924 0.37116 0.97003 0.0
H1734 H 0.86626 0.41157 0.07174 0.0
H1735 H 0.90453 0.44483 0.05896 0.0
H1736 H 0.93037 0.38908 0.99104 0.0
C1737 C 0.839 0.31943 0.01489 0.0
C1738 C 0.81519 0.31788 0.03297 0.0
C1739 C 0.81291 0.33701 0.0558 0.0
C1740 C 0.83311 0.35833 0.05989 0.0
C1741 C 0.85571 0.36012 0.04112 0.0
C1742 C 0.85923 0.3409 0.01941 0.0
C1743 C 0.88483 0.34874 1.00153 0.0
C1744 C 0.90779 0.3256 1.0031 0.0
C1745 C 0.87602 0.35457 0.97091 0.0
C1746 C 0.89451 0.37569 0.01615 0.0
C1747 C 0.87723 0.38186 0.03885 0.0
C1748 C 0.88033 0.4067 0.05439 0.0
C1749 C 0.90193 0.42558 0.04683 0.0
C1750 C 0.92041 0.41942 0.02417 0.0
C1751 C 0.91673 0.39406 0.00872 0.0
H1752 H 0.72846 0.85587 0.9995 0.0
H1753 H 0.6841 0.77695 0.01447 0.0
H1754 H 0.6382 0.80229 0.01382 0.0
H1755 H 0.68295 0.89877 0.04397 0.0
H1756 H 0.68425 0.92936 0.02141 0.0
H1757 H 0.71371 0.90494 0.02223 0.0
H1758 H 0.70974 0.89826 0.96826 0.0
H1759 H 0.68024 0.92261 0.96732 0.0
H1760 H 0.67631 0.88743 0.95313 0.0
H1761 H 0.59699 0.83604 0.01127 0.0
H1762 H 0.56341 0.87604 0.00929 0.0
H1763 H 0.63414 0.93392 0.99747 0.0
C1764 C 0.70901 0.84402 1.00257 0.0
C1765 C 0.70972 0.8144 0.00663 0.0
C1766 C 0.68401 0.79955 0.01087 0.0
C1767 C 0.6578 0.8138 0.01062 0.0
C1768 C 0.65768 0.84299 0.00636 0.0
C1769 C 0.6826 0.85803 1.00262 0.0
C1770 C 0.67645 0.88943 0.99922 0.0
C1771 C 0.69015 0.90664 0.02313 0.0
C1772 C 0.68627 0.90005 0.97026 0.0
C1773 C 0.64424 0.88962 1.0015 0.0
C1774 C 0.63388 0.86259 0.00551 0.0
C1775 C 0.60486 0.85732 0.00818 0.0
C1776 C 0.58591 0.88027 0.00694 0.0
C1777 C 0.59593 0.90833 1.0032 0.0
C1778 C 0.62561 0.91286 1.00036 0.0
H1779 H 0.81024 0.66026 0.97985 0.0
H1780 H 0.84063 0.72695 0.03533 0.0
H1781 H 0.88578 0.70105 0.04124 0.0
H1782 H 0.83741 0.60371 0.02156 0.0
H1783 H 0.8459 0.58157 0.99181 0.0
H1784 H 0.81724 0.60678 0.98945 0.0
H1785 H 0.84074 0.62925 0.94557 0.0
H1786 H 0.86946 0.60408 0.94779 0.0
H1787 H 0.87697 0.64148 0.94766 0.0
H1788 H 0.92761 0.66701 0.04194 0.0
H1789 H 0.9613 0.62688 0.03928 0.0
H1790 H 0.90128 0.58032 0.98765 0.0
C1791 C 0.82611 0.66954 0.99351 0.0
C1792 C 0.82145 0.69593 0.00711 0.0
C1793 C 0.84352 0.70719 0.02415 0.0
C1794 C 0.86928 0.69247 0.02785 0.0
C1795 C 0.87269 0.66628 0.01467 0.0
C1796 C 0.8516 0.65485 0.99799 0.0
C1797 C 0.85978 0.6256 0.98748 0.0
C1798 C 0.83884 0.60309 0.99823 0.0
C1799 C 0.86186 0.62509 0.95521 0.0
C1800 C 0.88878 0.62225 1.00097 0.0
C1801 C 0.89604 0.64612 0.01623 0.0
C1802 C 0.92207 0.64821 0.03012 0.0
C1803 C 0.9411 0.62532 0.02842 0.0
C1804 C 0.93387 0.60042 0.01337 0.0
C1805 C 0.90729 0.59895 0.99955 0.0
H1806 H 0.36077 0.79744 0.03621 0.0
H1807 H 0.2843 0.83433 1.00022 0.0
H1808 H 0.30889 0.88024 0.99608 0.0
H1809 H 0.3854 0.85916 0.07441 0.0
H1810 H 0.42226 0.85259 0.06626 0.0
H1811 H 0.39777 0.82343 0.06892 0.0
H1812 H 0.41162 0.80707 0.01868 0.0
H1813 H 0.43608 0.83621 0.01589 0.0
H1814 H 0.40861 0.83161 0.98983 0.0
H1815 H 0.34253 0.92172 0.99421 0.0
H1816 H 0.38285 0.95516 0.99364 0.0
H1817 H 0.43798 0.88985 0.02775 0.0
C1818 C 0.34909 0.81509 0.02738 0.0
C1819 C 0.32048 0.81214 0.01859 0.0
C1820 C 0.30601 0.83604 0.00758 0.0
C1821 C 0.31987 0.8622 1.00497 0.0
C1822 C 0.34823 0.86409 0.01332 0.0
C1823 C 0.36268 0.84114 0.02425 0.0
C1824 C 0.39348 0.84825 0.03026 0.0
C1825 C 0.4001 0.84571 0.06184 0.0
C1826 C 0.41363 0.82968 0.0126 0.0
C1827 C 0.39418 0.87876 0.02073 0.0
C1828 C 0.36781 0.88762 0.01134 0.0
C1829 C 0.36326 0.91503 1.00156 0.0
C1830 C 0.38628 0.93386 1.00136 0.0
C1831 C 0.41357 0.92507 0.01056 0.0
C1832 C 0.41745 0.89713 0.02035 0.0
H1833 H 0.73227 0.15396 0.03784 0.0
H1834 H 0.69885 0.22088 0.98499 0.0
H1835 H 0.65657 0.19165 0.9744 0.0
H1836 H 0.70755 0.09492 0.99418 0.0
H1837 H 0.69881 0.07271 0.02371 0.0
H1838 H 0.7269 0.09845 0.02674 0.0
H1839 H 0.70195 0.12058 0.07009 0.0
H1840 H 0.67387 0.09485 0.06721 0.0
H1841 H 0.6655 0.1321 0.06717 0.0
H1842 H 0.6174 0.15663 0.97108 0.0
H1843 H 0.58301 0.11766 0.97494 0.0
H1844 H 0.64128 0.07156 0.02883 0.0
C1845 C 0.71601 0.16226 0.02396 0.0
C1846 C 0.71856 0.18963 0.01222 0.0
C1847 C 0.69709 0.2 0.99421 0.0
C1848 C 0.67309 0.18351 0.98803 0.0
C1849 C 0.67104 0.15661 0.99992 0.0
C1850 C 0.69188 0.14593 0.01745 0.0
C1851 C 0.68397 0.11647 0.02775 0.0
C1852 C 0.7056 0.09433 0.01748 0.0
C1853 C 0.68115 0.11598 0.05997 0.0
C1854 C 0.65527 0.11246 0.01354 0.0
C1855 C 0.64839 0.13596 0.99758 0.0
C1856 C 0.62264 0.13807 0.98334 0.0
C1857 C 0.60319 0.11582 0.98574 0.0
C1858 C 0.60944 0.09156 1.00209 0.0
C1859 C 0.63609 0.08966 0.01584 0.0
H1860 H 0.52979 0.71948 0.86153 0.0
H1861 H 0.49899 0.68024 0.78469 0.0
H1862 H 0.49634 0.63423 0.80915 0.0
H1863 H 0.5714 0.65978 0.88708 0.0
H1864 H 0.56183 0.66585 0.92328 0.0
H1865 H 0.56352 0.69514 0.89912 0.0
H1866 H 0.51155 0.70861 0.91148 0.0
H1867 H 0.50969 0.67932 0.93559 0.0
H1868 H 0.48389 0.6825 0.90771 0.0
H1869 H 0.49474 0.59287 0.84278 0.0
H1870 H 0.495 0.55939 0.88251 0.0
H1871 H 0.52499 0.62625 0.93787 0.0
C1872 C 0.52248 0.70126 0.84974 0.0
C1873 C 0.51458 0.70363 0.82106 0.0
C1874 C 0.50557 0.67902 0.80648 0.0
C1875 C 0.5038 0.65279 0.82027 0.0
C1876 C 0.51113 0.65143 0.84867 0.0
C1877 C 0.5204 0.67501 0.86321 0.0
C1878 C 0.52602 0.66816 0.89387 0.0
C1879 C 0.55757 0.67249 0.90126 0.0
C1880 C 0.50663 0.68569 0.9133 0.0
C1881 C 0.51812 0.6371 0.89442 0.0
C1882 C 0.50978 0.6278 0.8681 0.0
C1883 C 0.50137 0.59992 0.86343 0.0
C1884 C 0.50161 0.58104 0.88619 0.0
C1885 C 0.51001 0.5901 0.91343 0.0
C1886 C 0.5183 0.6186 0.91743 0.0
H1887 H 0.36488 0.53283 0.79802 0.0
H1888 H 0.28923 0.49435 0.83313 0.0
H1889 H 0.31503 0.4847 0.87733 0.0
H1890 H 0.41488 0.48294 0.8293 0.0
H1891 H 0.44179 0.50936 0.83549 0.0
H1892 H 0.41735 0.51334 0.80656 0.0
H1893 H 0.40253 0.56271 0.82547 0.0
H1894 H 0.42693 0.55882 0.85441 0.0
H1895 H 0.3899 0.56601 0.86112 0.0
H1896 H 0.34827 0.4811 0.91827 0.0
H1897 H 0.38763 0.48152 0.95265 0.0
H1898 H 0.44272 0.52013 0.89036 0.0
C1899 C 0.3539 0.52234 0.81508 0.0
C1900 C 0.32506 0.51467 0.81255 0.0
C1901 C 0.31121 0.50079 0.83496 0.0
C1902 C 0.32573 0.4951 0.86008 0.0
C1903 C 0.35415 0.50314 0.86216 0.0
C1904 C 0.36822 0.51622 0.84022 0.0
C1905 C 0.39888 0.52239 0.8479 0.0
C1906 C 0.41943 0.50602 0.82867 0.0
C1907 C 0.4049 0.55438 0.84719 0.0
C1908 C 0.3997 0.51107 0.87769 0.0
C1909 C 0.37364 0.50015 0.88551 0.0
C1910 C 0.36885 0.48938 0.91234 0.0
C1911 C 0.39129 0.48981 0.93174 0.0
C1912 C 0.41825 0.50071 0.92412 0.0
C1913 C 0.42246 0.5113 0.89666 0.0
H1914 H 0.51637 0.35737 0.79532 0.0
H1915 H 0.48867 0.28056 0.83675 0.0
H1916 H 0.48829 0.30555 0.88243 0.0
H1917 H 0.56191 0.3831 0.8505 0.0
H1918 H 0.5521 0.41971 0.84595 0.0
H1919 H 0.55065 0.39573 0.8165 0.0
H1920 H 0.49767 0.40865 0.80848 0.0
H1921 H 0.49901 0.43274 0.83786 0.0
H1922 H 0.47277 0.40499 0.83704 0.0
H1923 H 0.49205 0.33842 0.92361 0.0
H1924 H 0.49677 0.37771 0.9574 0.0
H1925 H 0.51994 0.4342 0.88915 0.0
C1926 C 0.51022 0.34595 0.81409 0.0
C1927 C 0.50294 0.31703 0.8128 0.0
C1928 C 0.49476 0.30262 0.8375 0.0
C1929 C 0.49439 0.31667 0.8635 0.0
C1930 C 0.50194 0.34517 0.86425 0.0
C1931 C 0.50943 0.35978 0.8402 0.0
C1932 C 0.516 0.3905 0.84682 0.0
C1933 C 0.54701 0.39767 0.83951 0.0
C1934 C 0.49511 0.41039 0.83165 0.0
C1935 C 0.5112 0.39079 0.87834 0.0
C1936 C 0.50327 0.36439 0.88796 0.0
C1937 C 0.49812 0.35924 0.91632 0.0
C1938 C 0.50096 0.38173 0.93538 0.0
C1939 C 0.50864 0.40915 0.926 0.0
C1940 C 0.51385 0.41359 0.89703 0.0
H1941 H 0.72138 0.4727 0.85437 0.0
H1942 H 0.69303 0.53368 0.79194 0.0
H1943 H 0.64783 0.53921 0.81775 0.0
H1944 H 0.65349 0.44126 0.87079 0.0
H1945 H 0.66118 0.43884 0.90785 0.0
H1946 H 0.68969 0.43711 0.88263 0.0
H1947 H 0.71485 0.47891 0.90771 0.0
H1948 H 0.68638 0.48084 0.93293 0.0
H1949 H 0.6959 0.51172 0.91284 0.0
H1950 H 0.60625 0.53912 0.85141 0.0
H1951 H 0.5726 0.53513 0.89111 0.0
H1952 H 0.63099 0.47865 0.93404 0.0
C1953 C 0.70589 0.48743 0.84603 0.0
C1954 C 0.71107 0.50285 0.821 0.0
C1955 C 0.6896 0.52125 0.81073 0.0
C1956 C 0.66389 0.52471 0.82539 0.0
C1957 C 0.66006 0.50984 0.85042 0.0
C1958 C 0.68056 0.49169 0.86071 0.0
C1959 C 0.67221 0.47965 0.88903 0.0
C1960 C 0.66894 0.4473 0.88746 0.0
C1961 C 0.6936 0.48831 0.91197 0.0
C1962 C 0.64379 0.49405 0.89325 0.0
C1963 C 0.63694 0.511 0.87051 0.0
C1964 C 0.61145 0.52598 0.86931 0.0
C1965 C 0.59249 0.52354 0.89191 0.0
C1966 C 0.59937 0.50671 0.9156 0.0
C1967 C 0.62541 0.4919 0.91629 0.0
H1968 H 0.54149 0.29625 0.16249 0.0
H1969 H 0.49832 0.33241 0.23491 0.0
H1970 H 0.49311 0.37759 0.2094 0.0
H1971 H 0.57829 0.35942 0.14004 0.0
H1972 H 0.5732 0.35207 0.10317 0.0
H1973 H 0.5755 0.32334 0.12794 0.0
H1974 H 0.5268 0.30443 0.11069 0.0
H1975 H 0.52433 0.33312 0.08593 0.0
H1976 H 0.49627 0.32755 0.11111 0.0
H1977 H 0.4916 0.41862 0.17541 0.0
H1978 H 0.49281 0.4518 0.13538 0.0
H1979 H 0.53392 0.38759 0.08411 0.0
C1980 C 0.5308 0.31355 0.17307 0.0
C1981 C 0.52036 0.31058 0.20087 0.0
C1982 C 0.50698 0.33412 0.21389 0.0
C1983 C 0.50372 0.35986 0.19947 0.0
C1984 C 0.51382 0.36177 0.17197 0.0
C1985 C 0.52703 0.33921 0.1589 0.0
C1986 C 0.53499 0.34632 0.12884 0.0
C1987 C 0.56742 0.34523 0.12477 0.0
C1988 C 0.51967 0.32669 0.10791 0.0
C1989 C 0.52393 0.37637 0.12691 0.0
C1990 C 0.51209 0.38501 0.15212 0.0
C1991 C 0.50081 0.41207 0.15558 0.0
C1992 C 0.50165 0.43078 0.13271 0.0
C1993 C 0.51337 0.42228 0.10656 0.0
C1994 C 0.52457 0.39464 0.10372 0.0
H1995 H 0.72834 0.53831 0.16112 0.0
H1996 H 0.69475 0.48439 0.2272 0.0
H1997 H 0.65153 0.47654 0.19908 0.0
H1998 H 0.66194 0.56962 0.1395 0.0
H1999 H 0.67054 0.56918 0.10258 0.0
H2000 H 0.6985 0.57193 0.12835 0.0
H2001 H 0.72312 0.52776 0.10704 0.0
H2002 H 0.69523 0.52491 0.08119 0.0
H2003 H 0.7034 0.49523 0.10358 0.0
H2004 H 0.61228 0.47404 0.16424 0.0
H2005 H 0.57881 0.47714 0.12454 0.0
H2006 H 0.63851 0.52994 0.07899 0.0
C2007 C 0.71203 0.5247 0.16971 0.0
C2008 C 0.7151 0.51212 0.19664 0.0
C2009 C 0.69285 0.49483 0.20704 0.0
C2010 C 0.66828 0.48998 0.19106 0.0
C2011 C 0.66623 0.50232 0.16456 0.0
C2012 C 0.68746 0.5193 0.15387 0.0
C2013 C 0.68003 0.52954 0.12447 0.0
C2014 C 0.67761 0.56199 0.1237 0.0
C2015 C 0.70174 0.51871 0.1028 0.0
C2016 C 0.65126 0.51563 0.12036 0.0
C2017 C 0.64376 0.50017 0.14389 0.0
C2018 C 0.61793 0.48601 0.14569 0.0
C2019 C 0.59906 0.48796 0.12304 0.0
C2020 C 0.6061 0.50374 0.0987 0.0
C2021 C 0.63275 0.51746 0.0972 0.0
H2022 H 0.54068 0.65886 0.22077 0.0
H2023 H 0.50264 0.73305 0.18248 0.0
H2024 H 0.49625 0.70673 0.13808 0.0
H2025 H 0.57815 0.63359 0.15969 0.0
H2026 H 0.57116 0.59672 0.16644 0.0
H2027 H 0.57312 0.62143 0.19526 0.0
H2028 H 0.52285 0.60631 0.21164 0.0
H2029 H 0.52079 0.58151 0.18288 0.0
H2030 H 0.49354 0.60803 0.18723 0.0
H2031 H 0.49497 0.6729 0.09757 0.0
H2032 H 0.49663 0.6331 0.0641 0.0
H2033 H 0.53366 0.5796 0.12876 0.0
C2034 C 0.53103 0.66944 0.20295 0.0
C2035 C 0.52253 0.69806 0.20478 0.0
C2036 C 0.50973 0.7113 0.18133 0.0
C2037 C 0.50591 0.69646 0.15604 0.0
C2038 C 0.51471 0.66831 0.15471 0.0
C2039 C 0.52678 0.65479 0.17758 0.0
C2040 C 0.53385 0.62421 0.17059 0.0
C2041 C 0.56598 0.61868 0.17315 0.0
C2042 C 0.51673 0.60381 0.18919 0.0
C2043 C 0.52411 0.62277 0.14019 0.0
C2044 C 0.51325 0.64849 0.13147 0.0
C2045 C 0.50336 0.65263 0.10417 0.0
C2046 C 0.50452 0.62986 0.08526 0.0
C2047 C 0.51532 0.60315 0.0937 0.0
C2048 C 0.52515 0.59966 0.12164 0.0
H2049 H 0.3115 0.46815 0.16936 0.0
H2050 H 0.33364 0.5346 0.22878 0.0
H2051 H 0.37725 0.54427 0.20169 0.0
H2052 H 0.38266 0.44415 0.15248 0.0
H2053 H 0.37451 0.4392 0.11575 0.0
H2054 H 0.347 0.43519 0.14176 0.0
H2055 H 0.31633 0.4725 0.1157 0.0
H2056 H 0.34386 0.4767 0.08977 0.0
H2057 H 0.33092 0.50709 0.10888 0.0
H2058 H 0.41769 0.54772 0.16716 0.0
H2059 H 0.45107 0.54568 0.12702 0.0
H2060 H 0.39923 0.48082 0.08774 0.0
C2061 C 0.32535 0.48484 0.17678 0.0
C2062 C 0.31892 0.50061 0.20133 0.0
C2063 C 0.33818 0.52182 0.21041 0.0
C2064 C 0.36293 0.52765 0.19501 0.0
C2065 C 0.36799 0.51228 0.17047 0.0
C2066 C 0.34968 0.49138 0.16136 0.0
C2067 C 0.35889 0.47919 0.13333 0.0
C2068 C 0.36621 0.44756 0.13601 0.0
C2069 C 0.33615 0.48419 0.11059 0.0
C2070 C 0.38519 0.49671 0.12794 0.0
C2071 C 0.39033 0.51536 0.14981 0.0
C2072 C 0.41382 0.53329 0.14988 0.0
C2073 C 0.4326 0.53199 0.12705 0.0
C2074 C 0.42743 0.51332 0.10429 0.0
C2075 C 0.40335 0.49561 0.1047 0.0
H2076 H 0.80542 0.51529 0.66589 0.0
H2077 H 0.8465 0.47869 0.73893 0.0
H2078 H 0.89126 0.47381 0.71212 0.0
H2079 H 0.83954 0.47026 0.61457 0.0
H2080 H 0.8428 0.49773 0.58852 0.0
H2081 H 0.81415 0.49888 0.61361 0.0
H2082 H 0.82978 0.54915 0.62909 0.0
H2083 H 0.85846 0.54812 0.60403 0.0
H2084 H 0.86585 0.55487 0.64062 0.0
H2085 H 0.93159 0.47355 0.67762 0.0
H2086 H 0.96456 0.4766 0.63742 0.0
H2087 H 0.89691 0.51206 0.58607 0.0
C2088 C 0.82393 0.5063 0.67612 0.0
C2089 C 0.82282 0.49757 0.70443 0.0
C2090 C 0.84715 0.48575 0.71731 0.0
C2091 C 0.87261 0.48283 0.70223 0.0
C2092 C 0.87317 0.4917 0.67428 0.0
C2093 C 0.84947 0.5031 0.66128 0.0
C2094 C 0.8557 0.5106 0.63092 0.0
C2095 C 0.83693 0.49333 0.61072 0.0
C2096 C 0.85225 0.54259 0.62588 0.0
C2097 C 0.88659 0.50167 0.62892 0.0
C2098 C 0.89628 0.49096 0.6542 0.0
C2099 C 0.92423 0.48182 0.65769 0.0
C2100 C 0.94282 0.48372 0.63473 0.0
C2101 C 0.93333 0.49448 0.60854 0.0
C2102 C 0.90477 0.50346 0.6057 0.0
H2103 H 0.5269 0.79493 0.66468 0.0
H2104 H 0.52746 0.84254 0.74268 0.0
H2105 H 0.52464 0.88726 0.71592 0.0
H2106 H 0.57068 0.84428 0.62518 0.0
H2107 H 0.55146 0.83927 0.59275 0.0
H2108 H 0.55341 0.81099 0.61804 0.0
H2109 H 0.49835 0.80829 0.61899 0.0
H2110 H 0.49632 0.83665 0.5938 0.0
H2111 H 0.47804 0.83969 0.62698 0.0
H2112 H 0.52116 0.92655 0.68097 0.0
H2113 H 0.5186 0.95838 0.64023 0.0
H2114 H 0.5213 0.88569 0.58406 0.0
C2115 C 0.52645 0.81485 0.67599 0.0
C2116 C 0.52712 0.81549 0.70566 0.0
C2117 C 0.52665 0.84171 0.71995 0.0
C2118 C 0.52514 0.86719 0.70491 0.0
C2119 C 0.52433 0.86598 0.67562 0.0
C2120 C 0.52514 0.84054 0.66124 0.0
C2121 C 0.52426 0.8453 0.62967 0.0
C2122 C 0.55158 0.83431 0.61559 0.0
C2123 C 0.49766 0.83167 0.6166 0.0
C2124 C 0.52262 0.87736 0.6286 0.0
C2125 C 0.52267 0.88879 0.65536 0.0
C2126 C 0.52117 0.91786 0.6599 0.0
C2127 C 0.51967 0.93579 0.6365 0.0
C2128 C 0.51973 0.9247 0.60873 0.0
C2129 C 0.52121 0.89498 0.60489 0.0
H2130 H 0.16731 0.53303 0.71811 0.0
H2131 H 0.24379 0.49582 0.68245 0.0
H2132 H 0.21942 0.491 0.63676 0.0
H2133 H 0.11976 0.4858 0.68493 0.0
H2134 H 0.09221 0.51184 0.67969 0.0
H2135 H 0.11661 0.51546 0.70864 0.0
H2136 H 0.13034 0.56564 0.69132 0.0
H2137 H 0.10588 0.56216 0.66236 0.0
H2138 H 0.14271 0.57028 0.65575 0.0
H2139 H 0.18596 0.48821 0.59546 0.0
H2140 H 0.14557 0.48645 0.56222 0.0
H2141 H 0.09031 0.52214 0.62627 0.0
C2142 C 0.17905 0.52387 0.70076 0.0
C2143 C 0.20759 0.51492 0.70399 0.0
C2144 C 0.22214 0.50338 0.6805 0.0
C2145 C 0.20841 0.50036 0.65446 0.0
C2146 C 0.18011 0.50884 0.65228 0.0
C2147 C 0.16558 0.52031 0.67482 0.0
C2148 C 0.13478 0.5261 0.66754 0.0
C2149 C 0.11466 0.50876 0.68631 0.0
C2150 C 0.12805 0.55793 0.66935 0.0
C2151 C 0.13415 0.51573 0.63745 0.0
C2152 C 0.16057 0.50621 0.6289 0.0
C2153 C 0.16518 0.49564 0.60191 0.0
C2154 C 0.14213 0.49474 0.58319 0.0
C2155 C 0.11479 0.50398 0.59174 0.0
C2156 C 0.11088 0.51462 0.61923 0.0
H2157 H 0.53674 0.16307 0.71662 0.0
H2158 H 0.4787 0.22787 0.68605 0.0
H2159 H 0.47481 0.20249 0.64099 0.0
H2160 H 0.57174 0.14674 0.65134 0.0
H2161 H 0.57284 0.1092 0.65802 0.0
H2162 H 0.5733 0.13383 0.68697 0.0
H2163 H 0.52915 0.1092 0.70846 0.0
H2164 H 0.52864 0.08453 0.67956 0.0
H2165 H 0.49744 0.10527 0.68749 0.0
H2166 H 0.47666 0.16962 0.59918 0.0
H2167 H 0.48189 0.1303 0.56517 0.0
H2168 H 0.53452 0.08485 0.62504 0.0
C2169 C 0.52297 0.17199 0.70069 0.0
C2170 C 0.5082 0.19779 0.70516 0.0
C2171 C 0.49088 0.20863 0.68319 0.0
C2172 C 0.4883 0.19422 0.65749 0.0
C2173 C 0.50283 0.16873 0.65409 0.0
C2174 C 0.51962 0.15758 0.67519 0.0
C2175 C 0.53164 0.12899 0.66687 0.0
C2176 C 0.56432 0.12976 0.66573 0.0
C2177 C 0.52108 0.10563 0.68678 0.0
C2178 C 0.51895 0.1258 0.63778 0.0
C2179 C 0.5027 0.14912 0.63064 0.0
C2180 C 0.48925 0.15122 0.60459 0.0
C2181 C 0.49241 0.12885 0.5854 0.0
C2182 C 0.50848 0.10452 0.59257 0.0
C2183 C 0.52186 0.10306 0.61912 0.0
H2184 H 0.84618 0.52291 0.30727 0.0
H2185 H 0.77309 0.50253 0.35888 0.0
H2186 H 0.80424 0.49779 0.40043 0.0
H2187 H 0.89568 0.47442 0.34191 0.0
H2188 H 0.92563 0.49807 0.33968 0.0
H2189 H 0.89787 0.49964 0.31358 0.0
H2190 H 0.89069 0.55297 0.32414 0.0
H2191 H 0.91841 0.55152 0.35028 0.0
H2192 H 0.88353 0.56423 0.35968 0.0
H2193 H 0.84192 0.49634 0.43616 0.0
H2194 H 0.8848 0.49713 0.46523 0.0
H2195 H 0.93563 0.51773 0.39167 0.0
C2196 C 0.83696 0.51735 0.32738 0.0
C2197 C 0.80734 0.513 0.33015 0.0
C2198 C 0.79577 0.50586 0.35655 0.0
C2199 C 0.81327 0.50314 0.38021 0.0
C2200 C 0.84235 0.50761 0.37704 0.0
C2201 C 0.85429 0.51448 0.35139 0.0
C2202 C 0.88634 0.5182 0.35425 0.0
C2203 C 0.90232 0.49627 0.33629 0.0
C2204 C 0.89526 0.54854 0.34664 0.0
C2205 C 0.89034 0.5125 0.3855 0.0
C2206 C 0.86456 0.50649 0.39803 0.0
C2207 C 0.86227 0.50093 0.42661 0.0
C2208 C 0.88694 0.50151 0.44299 0.0
C2209 C 0.91387 0.50747 0.43091 0.0
C2210 C 0.9155 0.51297 0.40162 0.0
H2211 H 0.5361 0.85728 0.29794 0.0
H2212 H 0.50369 0.78063 0.33681 0.0
H2213 H 0.50287 0.80489 0.38271 0.0
H2214 H 0.57933 0.88203 0.35566 0.0
H2215 H 0.56992 0.91863 0.35025 0.0
H2216 H 0.5702 0.89444 0.32096 0.0
H2217 H 0.51788 0.90795 0.30989 0.0
H2218 H 0.51765 0.93198 0.33933 0.0
H2219 H 0.49128 0.90442 0.33694 0.0
H2220 H 0.50465 0.83788 0.42449 0.0
H2221 H 0.50688 0.87748 0.4583 0.0
H2222 H 0.53496 0.93344 0.39149 0.0
C2223 C 0.52862 0.84549 0.31596 0.0
C2224 C 0.52012 0.81679 0.31348 0.0
C2225 C 0.51094 0.80233 0.33798 0.0
C2226 C 0.51018 0.81602 0.36421 0.0
C2227 C 0.51844 0.8443 0.36572 0.0
C2228 C 0.52732 0.85892 0.3422 0.0
C2229 C 0.53374 0.88959 0.34921 0.0
C2230 C 0.56518 0.89655 0.3437 0.0
C2231 C 0.51395 0.90966 0.33287 0.0
C2232 C 0.52711 0.88993 0.38039 0.0
C2233 C 0.51855 0.86354 0.38955 0.0
C2234 C 0.51134 0.85863 0.41753 0.0
C2235 C 0.51275 0.88129 0.43662 0.0
C2236 C 0.52105 0.90868 0.42763 0.0
C2237 C 0.52839 0.91287 0.39908 0.0
H2238 H 0.22719 0.49363 0.35856 0.0
H2239 H 0.18383 0.51448 0.28086 0.0
H2240 H 0.13817 0.51814 0.30659 0.0
H2241 H 0.17086 0.45138 0.38899 0.0
H2242 H 0.17698 0.46408 0.42424 0.0
H2243 H 0.20595 0.46251 0.39954 0.0
H2244 H 0.21587 0.51587 0.40783 0.0
H2245 H 0.18685 0.51753 0.43246 0.0
H2246 H 0.1876 0.54119 0.40277 0.0
H2247 H 0.09758 0.51968 0.34082 0.0
H2248 H 0.06463 0.51943 0.38106 0.0
H2249 H 0.13478 0.49815 0.4368 0.0
C2250 C 0.20797 0.49885 0.34709 0.0
C2251 C 0.20863 0.50363 0.31789 0.0
C2252 C 0.18342 0.51059 0.3033 0.0
C2253 C 0.15751 0.51274 0.31772 0.0
C2254 C 0.15741 0.50794 0.34665 0.0
C2255 C 0.18197 0.50115 0.3612 0.0
C2256 C 0.1761 0.49743 0.39229 0.0
C2257 C 0.18287 0.46704 0.40181 0.0
C2258 C 0.19258 0.51931 0.40986 0.0
C2259 C 0.14444 0.5032 0.39294 0.0
C2260 C 0.13407 0.50915 0.36641 0.0
C2261 C 0.10544 0.51506 0.36171 0.0
C2262 C 0.08688 0.51484 0.38476 0.0
C2263 C 0.09703 0.50883 0.41222 0.0
C2264 C 0.12626 0.50299 0.41619 0.0
H2265 H 0.53768 0.21987 0.35967 0.0
H2266 H 0.51229 0.17772 0.28261 0.0
H2267 H 0.50792 0.13259 0.30815 0.0
H2268 H 0.57845 0.1625 0.38933 0.0
H2269 H 0.56651 0.16856 0.42484 0.0
H2270 H 0.5683 0.1976 0.40043 0.0
H2271 H 0.51513 0.20881 0.4096 0.0
H2272 H 0.51332 0.17979 0.43406 0.0
H2273 H 0.48897 0.18136 0.40481 0.0
H2274 H 0.50728 0.09176 0.34171 0.0
H2275 H 0.50785 0.05842 0.38152 0.0
H2276 H 0.53159 0.12702 0.43776 0.0
C2277 C 0.53126 0.20106 0.34828 0.0
C2278 C 0.52579 0.20208 0.3191 0.0
C2279 C 0.51711 0.17729 0.30483 0.0
C2280 C 0.51444 0.15154 0.31921 0.0
C2281 C 0.52021 0.15105 0.34795 0.0
C2282 C 0.52819 0.17517 0.36245 0.0
C2283 C 0.53242 0.16887 0.39347 0.0
C2284 C 0.56326 0.17473 0.40253 0.0
C2285 C 0.51119 0.18571 0.41155 0.0
C2286 C 0.52587 0.13743 0.39403 0.0
C2287 C 0.51899 0.12759 0.36752 0.0
C2288 C 0.51254 0.09923 0.3626 0.0
C2289 C 0.51302 0.08042 0.38539 0.0
C2290 C 0.51971 0.09 0.41287 0.0
C2291 C 0.5262 0.11897 0.4171 0.0
H2292 H 0.66284 0.78869 0.53288 0.0
H2293 H 0.73904 0.82572 0.49741 0.0
H2294 H 0.71477 0.87204 0.49398 0.0
H2295 H 0.61334 0.82719 0.48877 0.0
H2296 H 0.58705 0.83128 0.51604 0.0
H2297 H 0.61062 0.8012 0.51635 0.0
H2298 H 0.62667 0.8143 0.56687 0.0
H2299 H 0.60328 0.84453 0.56661 0.0
H2300 H 0.64062 0.84916 0.57376 0.0
H2301 H 0.68285 0.91418 0.49524 0.0
H2302 H 0.64422 0.94929 0.49807 0.0
H2303 H 0.58759 0.88476 0.53101 0.0
C2304 C 0.67426 0.80664 0.52439 0.0
C2305 C 0.70278 0.80403 0.51567 0.0
C2306 C 0.71724 0.82762 0.50449 0.0
C2307 C 0.70363 0.85393 0.50243 0.0
C2308 C 0.67552 0.85605 0.51142 0.0
C2309 C 0.66085 0.83304 0.52194 0.0
C2310 C 0.63053 0.84101 0.52943 0.0
C2311 C 0.60913 0.82417 0.51158 0.0
C2312 C 0.62496 0.83701 0.56105 0.0
C2313 C 0.63053 0.87207 0.52152 0.0
C2314 C 0.65677 0.88031 0.51139 0.0
C2315 C 0.66217 0.908 0.50305 0.0
C2316 C 0.64008 0.92782 0.50486 0.0
C2317 C 0.61281 0.91983 0.51473 0.0
C2318 C 0.60811 0.89153 0.52322 0.0
H2319 H 0.66462 0.2255 0.49427 0.0
H2320 H 0.73084 0.19123 0.5478 0.0
H2321 H 0.70287 0.14735 0.55403 0.0
H2322 H 0.6045 0.19564 0.53292 0.0
H2323 H 0.58414 0.18828 0.50162 0.0
H2324 H 0.60885 0.2174 0.50212 0.0
H2325 H 0.63409 0.19672 0.45827 0.0
H2326 H 0.60968 0.1674 0.45777 0.0
H2327 H 0.64742 0.16092 0.4592 0.0
H2328 H 0.66942 0.10709 0.55279 0.0
H2329 H 0.63161 0.07207 0.54512 0.0
H2330 H 0.58568 0.13219 0.49297 0.0
C2331 C 0.67295 0.20874 0.50746 0.0
C2332 C 0.69964 0.21136 0.5207 0.0
C2333 C 0.71029 0.18929 0.53764 0.0
C2334 C 0.69459 0.16443 0.54129 0.0
C2335 C 0.66831 0.16226 0.52789 0.0
C2336 C 0.65743 0.18379 0.5114 0.0
C2337 C 0.62886 0.17562 0.49895 0.0
C2338 C 0.60519 0.19542 0.50955 0.0
C2339 C 0.63011 0.17514 0.46663 0.0
C2340 C 0.62557 0.14605 0.51083 0.0
C2341 C 0.64864 0.13889 0.52743 0.0
C2342 C 0.65117 0.11246 0.53997 0.0
C2343 C 0.62963 0.09268 0.53533 0.0
C2344 C 0.60576 0.09941 0.51837 0.0
C2345 C 0.60357 0.12659 0.50621 0.0
H2346 H 0.85905 0.71426 0.50653 0.0
H2347 H 0.79189 0.67612 0.55627 0.0
H2348 H 0.8204 0.63226 0.56019 0.0
H2349 H 0.88068 0.65148 0.46913 0.0
H2350 H 0.91791 0.66043 0.4702 0.0
H2351 H 0.8915 0.68807 0.47016 0.0
H2352 H 0.91314 0.70859 0.51602 0.0
H2353 H 0.93947 0.68086 0.51632 0.0
H2354 H 0.91678 0.68612 0.54642 0.0
H2355 H 0.85669 0.5934 0.55978 0.0
H2356 H 0.89735 0.56111 0.5535 0.0
H2357 H 0.9418 0.62563 0.50576 0.0
C2358 C 0.85031 0.69673 0.51833 0.0
C2359 C 0.82327 0.69864 0.53122 0.0
C2360 C 0.8124 0.67502 0.54599 0.0
C2361 C 0.82853 0.65015 0.54852 0.0
C2362 C 0.85541 0.64934 0.53618 0.0
C2363 C 0.86617 0.67196 0.52127 0.0
C2364 C 0.89581 0.6659 0.51039 0.0
C2365 C 0.8965 0.6665 0.47805 0.0
C2366 C 0.91758 0.6866 0.52305 0.0
C2367 C 0.90012 0.63625 0.52152 0.0
C2368 C 0.87653 0.62711 0.53629 0.0
C2369 C 0.87523 0.60029 0.54821 0.0
C2370 C 0.89844 0.58213 0.54447 0.0
C2371 C 0.92268 0.59089 0.52905 0.0
C2372 C 0.92366 0.61848 0.51783 0.0
H2373 H 0.30403 0.85415 0.53243 0.0
H2374 H 0.34517 0.77925 0.49806 0.0
H2375 H 0.39032 0.8055 0.49515 0.0
H2376 H 0.33864 0.90305 0.48662 0.0
H2377 H 0.3413 0.93065 0.5127 0.0
H2378 H 0.31272 0.90538 0.51445 0.0
H2379 H 0.32745 0.89232 0.56536 0.0
H2380 H 0.35595 0.91769 0.56371 0.0
H2381 H 0.36349 0.8813 0.57235 0.0
H2382 H 0.43061 0.84007 0.49468 0.0
H2383 H 0.46329 0.88067 0.4959 0.0
H2384 H 0.39526 0.93434 0.52733 0.0
C2385 C 0.32242 0.84316 0.52414 0.0
C2386 C 0.32083 0.81442 0.51553 0.0
C2387 C 0.34575 0.80097 0.50531 0.0
C2388 C 0.3715 0.81581 0.50335 0.0
C2389 C 0.37204 0.84417 0.51148 0.0
C2390 C 0.34815 0.85775 0.5216 0.0
C2391 C 0.35412 0.88873 0.52775 0.0
C2392 C 0.3356 0.90809 0.50927 0.0
C2393 C 0.35002 0.89538 0.55916 0.0
C2394 C 0.38517 0.89045 0.51945 0.0
C2395 C 0.39508 0.86442 0.51035 0.0
C2396 C 0.42309 0.86052 0.50179 0.0
C2397 C 0.44151 0.88377 0.50264 0.0
C2398 C 0.43187 0.91074 0.51175 0.0
C2399 C 0.40322 0.91408 0.5201 0.0
H2400 H 0.23323 0.35342 0.48185 0.0
H2401 H 0.19491 0.28271 0.52566 0.0
H2402 H 0.15068 0.31028 0.53184 0.0
H2403 H 0.20146 0.40857 0.52565 0.0
H2404 H 0.19618 0.43288 0.49694 0.0
H2405 H 0.22499 0.40771 0.49575 0.0
H2406 H 0.20639 0.3889 0.44799 0.0
H2407 H 0.17746 0.41391 0.44912 0.0
H2408 H 0.17019 0.37666 0.44527 0.0
H2409 H 0.11057 0.34428 0.5322 0.0
H2410 H 0.07663 0.38361 0.52858 0.0
H2411 H 0.14035 0.43439 0.486 0.0
C2412 C 0.21546 0.34391 0.49278 0.0
C2413 C 0.21719 0.3159 0.50311 0.0
C2414 C 0.19378 0.30402 0.51738 0.0
C2415 C 0.16864 0.31956 0.52105 0.0
C2416 C 0.16738 0.34706 0.51051 0.0
C2417 C 0.19015 0.35932 0.49683 0.0
C2418 C 0.18297 0.38941 0.48781 0.0
C2419 C 0.20257 0.41091 0.50242 0.0
C2420 C 0.18433 0.39238 0.45564 0.0
C2421 C 0.15257 0.39199 0.49841 0.0
C2422 C 0.14413 0.36718 0.51131 0.0
C2423 C 0.11694 0.36384 0.52223 0.0
C2424 C 0.09774 0.38637 0.51991 0.0
C2425 C 0.10569 0.41218 0.5069 0.0
C2426 C 0.13365 0.41504 0.49619 0.0
H2427 H 0.33951 0.20265 0.51524 0.0
H2428 H 0.29688 0.17101 0.44068 0.0
H2429 H 0.33452 0.13524 0.43437 0.0
H2430 H 0.41422 0.18973 0.48875 0.0
H2431 H 0.42667 0.17938 0.52309 0.0
H2432 H 0.39842 0.20502 0.5198 0.0
H2433 H 0.36656 0.17403 0.55169 0.0
H2434 H 0.39451 0.14814 0.55471 0.0
H2435 H 0.35994 0.1377 0.54203 0.0
H2436 H 0.37136 0.0984 0.44031 0.0
H2437 H 0.40988 0.06587 0.45467 0.0
H2438 H 0.4318 0.12211 0.52348 0.0
C2439 C 0.33876 0.18882 0.49707 0.0
C2440 C 0.31533 0.18956 0.4784 0.0
C2441 C 0.31464 0.17072 0.45521 0.0
C2442 C 0.33591 0.15034 0.45146 0.0
C2443 C 0.35805 0.14926 0.47085 0.0
C2444 C 0.36009 0.16832 0.49287 0.0
C2445 C 0.38548 0.16131 0.51145 0.0
C2446 C 0.40751 0.18529 0.51072 0.0
C2447 C 0.37604 0.15492 0.54176 0.0
C2448 C 0.39666 0.13487 0.49692 0.0
C2449 C 0.38038 0.12834 0.47358 0.0
C2450 C 0.38472 0.10363 0.45811 0.0
C2451 C 0.40646 0.0852 0.46652 0.0
C2452 C 0.42382 0.09173 0.48991 0.0
C2453 C 0.41906 0.117 0.50518 0.0
H2454 H 0.86373 0.28982 0.51833 0.0
H2455 H 0.794 0.32974 0.47321 0.0
H2456 H 0.82217 0.37355 0.46937 0.0
H2457 H 0.88646 0.34924 0.55702 0.0
H2458 H 0.92387 0.34155 0.55378 0.0
H2459 H 0.89837 0.31318 0.55288 0.0
H2460 H 0.91817 0.29665 0.50468 0.0
H2461 H 0.94384 0.32492 0.50552 0.0
H2462 H 0.92004 0.32147 0.47599 0.0
H2463 H 0.85664 0.41332 0.47238 0.0
H2464 H 0.89626 0.44644 0.48031 0.0
H2465 H 0.94503 0.37962 0.52033 0.0
C2466 C 0.85447 0.30754 0.50718 0.0
C2467 C 0.82655 0.3063 0.49613 0.0
C2468 C 0.81512 0.33029 0.48227 0.0
C2469 C 0.83104 0.35518 0.47976 0.0
C2470 C 0.85844 0.35558 0.49088 0.0
C2471 C 0.8702 0.33234 0.50407 0.0
C2472 C 0.90013 0.33835 0.51423 0.0
C2473 C 0.90232 0.33541 0.54638 0.0
C2474 C 0.92182 0.31921 0.4992 0.0
C2475 C 0.90316 0.36884 0.50513 0.0
C2476 C 0.87882 0.37833 0.49175 0.0
C2477 C 0.8759 0.4061 0.48258 0.0
C2478 C 0.89843 0.42475 0.48733 0.0
C2479 C 0.92359 0.41548 0.50091 0.0
C2480 C 0.92612 0.38709 0.50962 0.0
H2481 H 0.23137 0.65386 0.53407 0.0
H2482 H 0.19181 0.72762 0.49647 0.0
H2483 H 0.14778 0.70039 0.48859 0.0
H2484 H 0.1995 0.60241 0.48607 0.0
H2485 H 0.19501 0.57573 0.51274 0.0
H2486 H 0.22359 0.60093 0.51554 0.0
H2487 H 0.20577 0.61567 0.565 0.0
H2488 H 0.17715 0.59051 0.56232 0.0
H2489 H 0.16948 0.62724 0.56932 0.0
H2490 H 0.10758 0.66625 0.48668 0.0
H2491 H 0.0739 0.62643 0.4887 0.0
H2492 H 0.13949 0.57312 0.52516 0.0
C2493 C 0.21338 0.66412 0.52414 0.0
C2494 C 0.21469 0.69289 0.51619 0.0
C2495 C 0.19101 0.70574 0.50309 0.0
C2496 C 0.16596 0.69039 0.49841 0.0
C2497 C 0.16512 0.6621 0.50666 0.0
C2498 C 0.18822 0.64894 0.51902 0.0
C2499 C 0.18156 0.61819 0.52567 0.0
C2500 C 0.20108 0.59813 0.50901 0.0
C2501 C 0.18361 0.61258 0.55747 0.0
C2502 C 0.15104 0.6163 0.51542 0.0
C2503 C 0.14204 0.64196 0.50464 0.0
C2504 C 0.11443 0.64599 0.49487 0.0
C2505 C 0.09542 0.62325 0.49621 0.0
C2506 C 0.10407 0.59665 0.507 0.0
C2507 C 0.13238 0.5931 0.51649 0.0
loop_
_geom_bond_atom_site_label_1
_geom_bond_atom_site_label_2
_geom_bond_distance
_geom_bond_site_symmetry_2
_ccdc_geom_bond_type
H0 C3 0.929 . S
H1 C6 0.929 . S
H2 C8 0.930 . S
C3 H0 0.929 . S
C3 C4 1.398 . S
C3 C5 1.396 . S
C4 C3 1.398 . S
C4 C8 1.407 . S
C5 C3 1.396 . S
C5 C6 1.394 . S
C6 H1 0.929 . S
C6 C5 1.394 . S
C6 C7 1.382 . S
C7 C6 1.382 . S
C7 C8 1.392 . S
C7 N9 1.420 . S
C8 H2 0.930 . S
C8 C4 1.407 . S
C8 C7 1.392 . S
N9 C7 1.420 . S
N9 C10 1.244 . S
C10 N9 1.244 . S
H11 C14 0.929 . S
H12 C17 0.929 . S
H13 C19 0.930 . S
C14 H11 0.929 . S
C14 C15 1.395 1_545 S
C14 C16 1.394 1_545 S
C15 C14 1.395 1_565 S
C15 C19 1.414 . S
C16 C14 1.394 1_565 S
C16 C17 1.397 . S
C17 H12 0.929 . S
C17 C16 1.397 . S
C17 C18 1.382 . S
C18 C17 1.382 . S
C18 C19 1.392 . S
C18 N20 1.420 . S
C19 H13 0.930 . S
C19 C15 1.414 . S
C19 C18 1.392 . S
N20 C18 1.420 . S
N20 C21 1.232 1_565 S
C21 N20 1.232 1_545 S
H22 C25 0.929 . S
H23 C28 0.929 . S
H24 C30 0.930 . S
C25 H22 0.929 . S
C25 C26 1.398 . S
C25 C27 1.396 . S
C26 C25 1.398 . S
C26 C30 1.407 . S
C27 C25 1.396 . S
C27 C28 1.394 . S
C28 H23 0.929 . S
C28 C27 1.394 . S
C28 C29 1.382 . S
C29 C28 1.382 . S
C29 C30 1.392 . S
C29 N31 1.420 . S
C30 H24 0.930 . S
C30 C26 1.407 . S
C30 C29 1.392 . S
N31 C29 1.420 . S
N31 C32 1.244 . S
C32 N31 1.244 . S
H33 C36 0.929 . S
H34 C39 0.929 . S
H35 C41 0.930 . S
C36 H33 0.929 . S
C36 C37 1.395 1_545 S
C36 C38 1.394 1_545 S
C37 C36 1.395 1_565 S
C37 C41 1.414 . S
C38 C36 1.394 1_565 S
C38 C39 1.397 . S
C39 H34 0.929 . S
C39 C38 1.397 . S
C39 C40 1.382 . S
C40 C39 1.382 . S
C40 C41 1.392 . S
C40 N42 1.420 . S
C41 H35 0.930 . S
C41 C37 1.414 . S
C41 C40 1.392 . S
N42 C40 1.420 . S
N42 C43 1.232 1_565 S
C43 N42 1.232 1_545 S
H44 C47 0.929 . S
H45 C50 0.929 . S
H46 C52 0.930 . S
C47 H44 0.929 . S
C47 C48 1.398 . S
C47 C49 1.396 . S
C48 C47 1.398 . S
C48 C52 1.407 . S
C49 C47 1.396 . S
C49 C50 1.394 . S
C50 H45 0.929 . S
C50 C49 1.394 . S
C50 C51 1.382 . S
C51 C50 1.382 . S
C51 C52 1.392 . S
C51 N53 1.420 . S
C52 H46 0.930 . S
C52 C48 1.407 . S
C52 C51 1.392 . S
N53 C51 1.420 . S
N53 C54 1.244 . S
C54 N53 1.244 . S
H55 C58 0.929 . S
H56 C61 0.929 . S
H57 C63 0.930 . S
C58 H55 0.929 . S
C58 C59 1.398 1_565 S
C58 C60 1.393 1_565 S
C59 C58 1.398 1_545 S
C59 C63 1.407 . S
C60 C58 1.393 1_545 S
C60 C61 1.402 . S
C61 H56 0.929 . S
C61 C60 1.402 . S
C61 C62 1.382 . S
C62 C61 1.382 . S
C62 C63 1.392 . S
C62 N64 1.420 . S
C63 H57 0.930 . S
C63 C59 1.407 . S
C63 C62 1.392 . S
N64 C62 1.420 . S
N64 C65 1.244 1_545 S
C65 N64 1.244 1_565 S
H66 C69 0.929 . S
H67 C72 0.929 . S
H68 C74 0.930 . S
C69 H66 0.929 . S
C69 C70 1.398 . S
C69 C71 1.396 . S
C70 C69 1.398 . S
C70 C74 1.407 . S
C71 C69 1.396 . S
C71 C72 1.394 . S
C72 H67 0.929 . S
C72 C71 1.394 . S
C72 C73 1.382 . S
C73 C72 1.382 . S
C73 C74 1.392 . S
C73 N75 1.420 . S
C74 H68 0.930 . S
C74 C70 1.407 . S
C74 C73 1.392 . S
N75 C73 1.420 . S
N75 C76 1.244 . S
C76 N75 1.244 . S
H77 C80 0.929 . S
H78 C83 0.929 . S
H79 C85 0.930 . S
C80 H77 0.929 . S
C80 C81 1.397 1_545 S
C80 C82 1.396 1_545 S
C81 C80 1.397 1_565 S
C81 C85 1.410 . S
C82 C80 1.396 1_565 S
C82 C83 1.394 . S
C83 H78 0.929 . S
C83 C82 1.394 . S
C83 C84 1.382 . S
C84 C83 1.382 . S
C84 C85 1.392 . S
C84 N86 1.420 . S
C85 H79 0.930 . S
C85 C81 1.410 . S
C85 C84 1.392 . S
N86 C84 1.420 . S
N86 C87 1.244 1_565 S
C87 N86 1.244 1_545 S
H88 C91 0.929 . S
H89 C94 0.931 . S
H90 C96 0.930 . S
C91 H88 0.929 . S
C91 C92 1.398 . S
C91 C93 1.396 . S
C92 C91 1.398 . S
C92 C96 1.407 1_554 S
C93 C91 1.396 . S
C93 C94 1.391 1_554 S
C94 H89 0.931 . S
C94 C93 1.391 1_556 S
C94 C95 1.383 . S
C95 C94 1.383 . S
C95 C96 1.392 . S
C95 N97 1.420 . S
C96 H90 0.930 . S
C96 C92 1.407 1_556 S
C96 C95 1.392 . S
N97 C95 1.420 . S
N97 C98 1.244 1_556 S
C98 N97 1.244 1_554 S
H99 C102 0.923 1_556 S
H100 C105 0.929 . S
H101 C107 0.930 . S
C102 H99 0.923 1_554 S
C102 C103 1.398 . S
C102 C104 1.396 . S
C103 C102 1.398 . S
C103 C107 1.407 . S
C104 C102 1.396 . S
C104 C105 1.394 . S
C105 H100 0.929 . S
C105 C104 1.394 . S
C105 C106 1.382 . S
C106 C105 1.382 . S
C106 C107 1.392 . S
C106 N108 1.420 . S
C107 H101 0.930 . S
C107 C103 1.407 . S
C107 C106 1.392 . S
N108 C106 1.420 . S
N108 C109 1.244 . S
C109 N108 1.244 . S
H110 C113 0.929 . S
H111 C116 0.930 . S
H112 C118 0.930 . S
C113 H110 0.929 . S
C113 C114 1.398 . S
C113 C115 1.396 . S
C114 C113 1.398 . S
C114 C118 1.407 1_554 S
C115 C113 1.396 . S
C115 C116 1.392 1_554 S
C116 H111 0.930 . S
C116 C115 1.392 1_556 S
C116 C117 1.383 . S
C117 C116 1.383 . S
C117 C118 1.392 . S
C117 N119 1.420 . S
C118 H112 0.930 . S
C118 C114 1.407 1_556 S
C118 C117 1.392 . S
N119 C117 1.420 . S
N119 C120 1.244 1_556 S
C120 N119 1.244 1_554 S
H121 C124 0.929 1_556 S
H122 C127 0.929 . S
H123 C129 0.930 . S
C124 H121 0.929 1_554 S
C124 C125 1.398 . S
C124 C126 1.396 . S
C125 C124 1.398 . S
C125 C129 1.407 . S
C126 C124 1.396 . S
C126 C127 1.394 . S
C127 H122 0.929 . S
C127 C126 1.394 . S
C127 C128 1.382 . S
C128 C127 1.382 . S
C128 C129 1.392 . S
C128 N130 1.420 . S
C129 H123 0.930 . S
C129 C125 1.407 . S
C129 C128 1.392 . S
N130 C128 1.420 . S
N130 C131 1.244 . S
C131 N130 1.244 . S
H132 C135 0.929 . S
H133 C138 0.929 . S
H134 C140 0.930 . S
C135 H132 0.929 . S
C135 C136 1.398 . S
C135 C137 1.396 . S
C136 C135 1.398 . S
C136 C140 1.407 . S
C137 C135 1.396 . S
C137 C138 1.394 . S
C138 H133 0.929 . S
C138 C137 1.394 . S
C138 C139 1.382 . S
C139 C138 1.382 . S
C139 C140 1.392 . S
C139 N141 1.420 . S
C140 H134 0.930 . S
C140 C136 1.407 . S
C140 C139 1.392 . S
N141 C139 1.420 . S
N141 C142 1.244 . S
C142 N141 1.244 . S
H143 C146 0.929 . S
H144 C149 0.929 . S
H145 C151 0.930 . S
C146 H143 0.929 . S
C146 C147 1.398 . S
C146 C148 1.396 . S
C147 C146 1.398 . S
C147 C151 1.407 . S
C148 C146 1.396 . S
C148 C149 1.394 . S
C149 H144 0.929 . S
C149 C148 1.394 . S
C149 C150 1.382 . S
C150 C149 1.382 . S
C150 C151 1.392 . S
C150 N152 1.420 . S
C151 H145 0.930 . S
C151 C147 1.407 . S
C151 C150 1.392 . S
N152 C150 1.420 . S
N152 C153 1.244 . S
C153 N152 1.244 . S
H154 C157 0.929 . S
H155 C160 0.929 . S
H156 C162 0.930 . S
C157 H154 0.929 . S
C157 C158 1.398 . S
C157 C159 1.396 . S
C158 C157 1.398 . S
C158 C162 1.407 . S
C159 C157 1.396 . S
C159 C160 1.394 . S
C160 H155 0.929 . S
C160 C159 1.394 . S
C160 C161 1.382 . S
C161 C160 1.382 . S
C161 C162 1.392 . S
C161 N163 1.420 . S
C162 H156 0.930 . S
C162 C158 1.407 . S
C162 C161 1.392 . S
N163 C161 1.420 . S
N163 C164 1.244 . S
C164 N163 1.244 . S
H165 C168 0.929 . S
H166 C171 0.929 . S
H167 C173 0.930 . S
C168 H165 0.929 . S
C168 C169 1.398 . S
C168 C170 1.396 . S
C169 C168 1.398 . S
C169 C173 1.407 . S
C170 C168 1.396 . S
C170 C171 1.394 . S
C171 H166 0.929 . S
C171 C170 1.394 . S
C171 C172 1.382 . S
C172 C171 1.382 . S
C172 C173 1.392 . S
C172 N174 1.420 . S
C173 H167 0.930 . S
C173 C169 1.407 . S
C173 C172 1.392 . S
N174 C172 1.420 . S
N174 C175 1.244 . S
C175 N174 1.244 . S
H176 C179 0.929 . S
H177 C182 0.929 . S
H178 C184 0.930 . S
C179 H176 0.929 . S
C179 C180 1.398 . S
C179 C181 1.396 . S
C180 C179 1.398 . S
C180 C184 1.407 . S
C181 C179 1.396 . S
C181 C182 1.394 . S
C182 H177 0.929 . S
C182 C181 1.394 . S
C182 C183 1.382 . S
C183 C182 1.382 . S
C183 C184 1.392 . S
C183 N185 1.420 . S
C184 H178 0.930 . S
C184 C180 1.407 . S
C184 C183 1.392 . S
N185 C183 1.420 . S
N185 C186 1.244 . S
C186 N185 1.244 . S
H187 C190 0.929 . S
H188 C193 0.929 . S
H189 C195 0.930 . S
C190 H187 0.929 . S
C190 C191 1.398 . S
C190 C192 1.396 . S
C191 C190 1.398 . S
C191 C195 1.407 . S
C192 C190 1.396 . S
C192 C193 1.394 . S
C193 H188 0.929 . S
C193 C192 1.394 . S
C193 C194 1.382 . S
C194 C193 1.382 . S
C194 C195 1.392 . S
C194 N196 1.420 . S
C195 H189 0.930 . S
C195 C191 1.407 . S
C195 C194 1.392 . S
N196 C194 1.420 . S
N196 C197 1.244 . S
C197 N196 1.244 . S
H198 C201 0.929 . S
H199 C204 0.929 . S
H200 C206 0.930 . S
C201 H198 0.929 . S
C201 C202 1.398 . S
C201 C203 1.396 . S
C202 C201 1.398 . S
C202 C206 1.407 . S
C203 C201 1.396 . S
C203 C204 1.394 . S
C204 H199 0.929 . S
C204 C203 1.394 . S
C204 C205 1.382 . S
C205 C204 1.382 . S
C205 C206 1.392 . S
C205 N207 1.420 . S
C206 H200 0.930 . S
C206 C202 1.407 . S
C206 C205 1.392 . S
N207 C205 1.420 . S
N207 C208 1.244 . S
C208 N207 1.244 . S
H209 C212 0.929 . S
H210 C215 0.929 . S
H211 C217 0.930 . S
C212 H209 0.929 . S
C212 C213 1.398 . S
C212 C214 1.396 . S
C213 C212 1.398 . S
C213 C217 1.407 . S
C214 C212 1.396 . S
C214 C215 1.394 . S
C215 H210 0.929 . S
C215 C214 1.394 . S
C215 C216 1.382 . S
C216 C215 1.382 . S
C216 C217 1.392 . S
C216 N218 1.420 . S
C217 H211 0.930 . S
C217 C213 1.407 . S
C217 C216 1.392 . S
N218 C216 1.420 . S
N218 C219 1.244 . S
C219 N218 1.244 . S
H220 C223 0.929 . S
H221 C226 0.929 . S
H222 C228 0.930 . S
C223 H220 0.929 . S
C223 C224 1.398 . S
C223 C225 1.396 . S
C224 C223 1.398 . S
C224 C228 1.407 . S
C225 C223 1.396 . S
C225 C226 1.394 . S
C226 H221 0.929 . S
C226 C225 1.394 . S
C226 C227 1.382 . S
C227 C226 1.382 . S
C227 C228 1.392 . S
C227 N229 1.420 . S
C228 H222 0.930 . S
C228 C224 1.407 . S
C228 C227 1.392 . S
N229 C227 1.420 . S
N229 C230 1.244 . S
C230 N229 1.244 . S
H231 C234 0.929 . S
H232 C237 0.929 . S
H233 C239 0.930 . S
C234 H231 0.929 . S
C234 C235 1.398 . S
C234 C236 1.396 . S
C235 C234 1.398 . S
C235 C239 1.407 . S
C236 C234 1.396 . S
C236 C237 1.394 . S
C237 H232 0.929 . S
C237 C236 1.394 . S
C237 C238 1.382 . S
C238 C237 1.382 . S
C238 C239 1.392 . S
C238 N240 1.420 . S
C239 H233 0.930 . S
C239 C235 1.407 . S
C239 C238 1.392 . S
N240 C238 1.420 . S
N240 C241 1.244 . S
C241 N240 1.244 . S
H242 C245 0.929 . S
H243 C248 0.929 . S
H244 C250 0.930 . S
C245 H242 0.929 . S
C245 C246 1.398 . S
C245 C247 1.396 . S
C246 C245 1.398 . S
C246 C250 1.407 . S
C247 C245 1.396 . S
C247 C248 1.394 . S
C248 H243 0.929 . S
C248 C247 1.394 . S
C248 C249 1.382 . S
C249 C248 1.382 . S
C249 C250 1.392 . S
C249 N251 1.420 . S
C250 H244 0.930 . S
C250 C246 1.407 . S
C250 C249 1.392 . S
N251 C249 1.420 . S
N251 C252 1.244 . S
C252 N251 1.244 . S
H253 C256 0.929 . S
H254 C259 0.929 . S
H255 C261 0.930 . S
C256 H253 0.929 . S
C256 C257 1.398 . S
C256 C258 1.396 . S
C257 C256 1.398 . S
C257 C261 1.407 . S
C258 C256 1.396 . S
C258 C259 1.394 . S
C259 H254 0.929 . S
C259 C258 1.394 . S
C259 C260 1.382 . S
C260 C259 1.382 . S
C260 C261 1.392 . S
C260 N262 1.420 . S
C261 H255 0.930 . S
C261 C257 1.407 . S
C261 C260 1.392 . S
N262 C260 1.420 . S
N262 C263 1.244 . S
C263 N262 1.244 . S
C264 O290 1.283 . S
C264 O308 1.283 . S
C265 O291 1.283 . S
C265 O306 1.283 . S
C266 O292 1.283 . S
C266 O309 1.283 . S
C267 O293 1.283 . S
C267 O307 1.283 . S
C268 O294 1.283 . S
C268 O303 1.283 . S
C269 O295 1.283 . S
C269 O305 1.283 . S
C270 O296 1.283 . S
C270 O302 1.283 . S
C271 O297 1.283 . S
C271 O304 1.283 . S
C272 O298 1.283 . S
C272 O313 1.283 . S
C273 O299 1.283 . S
C273 O311 1.283 . S
C274 O300 1.283 . S
C274 O312 1.283 . S
C275 O301 1.283 . S
C275 O310 1.283 . S
Eu276 O277 2.370 1_455 S
Eu276 O278 2.370 . S
Eu276 O281 2.348 1_455 S
Eu276 O282 2.370 . S
Eu276 O290 2.363 . S
Eu276 O291 2.363 . S
Eu276 O304 2.363 . S
Eu276 O305 2.363 1_455 S
O277 Eu276 2.370 1_655 S
O277 Eu279 2.367 1_565 S
O277 Eu284 2.368 1_665 S
O278 Eu276 2.370 . S
O278 Eu280 2.367 1_565 S
O278 Eu283 2.366 1_565 S
Eu279 O277 2.367 1_545 S
Eu279 O281 2.395 1_545 S
Eu279 O285 2.401 . S
Eu279 O286 2.373 . S
Eu279 O294 2.368 . S
Eu279 O295 2.358 1_545 S
Eu279 O310 2.363 . S
Eu279 O311 2.363 . S
Eu280 O278 2.367 1_545 S
Eu280 O282 2.367 1_545 S
Eu280 O287 2.373 . S
Eu280 O288 2.373 . S
Eu280 O296 2.368 . S
Eu280 O297 2.358 1_545 S
Eu280 O312 2.363 . S
Eu280 O313 2.363 . S
O281 Eu276 2.348 1_655 S
O281 Eu279 2.395 1_565 S
O281 Eu283 2.344 1_665 S
O282 Eu276 2.370 . S
O282 Eu280 2.367 1_565 S
O282 Eu284 2.368 1_565 S
Eu283 O278 2.366 1_545 S
Eu283 O281 2.344 1_445 S
Eu283 O285 2.351 1_455 S
Eu283 O288 2.374 . S
Eu283 O300 2.363 . S
Eu283 O301 2.363 1_455 S
Eu283 O308 2.356 1_545 S
Eu283 O309 2.369 . S
Eu284 O277 2.368 1_445 S
Eu284 O282 2.368 1_545 S
Eu284 O286 2.372 1_455 S
Eu284 O287 2.372 . S
Eu284 O298 2.363 . S
Eu284 O299 2.363 1_455 S
Eu284 O306 2.359 1_545 S
Eu284 O307 2.367 . S
O285 Eu279 2.401 . S
O285 Eu283 2.351 1_655 S
O285 Eu289 2.348 1_655 S
O286 Eu279 2.373 . S
O286 Eu284 2.372 1_655 S
O286 Eu289 2.370 1_655 S
O287 Eu280 2.373 . S
O287 Eu284 2.372 . S
O287 Eu289 2.370 . S
O288 Eu280 2.373 . S
O288 Eu283 2.374 . S
O288 Eu289 2.370 . S
Eu289 O285 2.348 1_455 S
Eu289 O286 2.370 1_455 S
Eu289 O287 2.370 . S
Eu289 O288 2.370 . S
Eu289 O292 2.363 . S
Eu289 O293 2.363 . S
Eu289 O302 2.363 . S
Eu289 O303 2.363 1_455 S
O290 C264 1.283 . S
O290 Eu276 2.363 . S
O291 C265 1.283 . S
O291 Eu276 2.363 . S
O292 C266 1.283 . S
O292 Eu289 2.363 . S
O293 C267 1.283 . S
O293 Eu289 2.363 . S
O294 C268 1.283 . S
O294 Eu279 2.368 . S
O295 C269 1.283 . S
O295 Eu279 2.358 1_565 S
O296 C270 1.283 . S
O296 Eu280 2.368 . S
O297 C271 1.283 . S
O297 Eu280 2.358 1_565 S
O298 C272 1.283 . S
O298 Eu284 2.363 . S
O299 C273 1.283 . S
O299 Eu284 2.363 1_655 S
O300 C274 1.283 . S
O300 Eu283 2.363 . S
O301 C275 1.283 . S
O301 Eu283 2.363 1_655 S
O302 C270 1.283 . S
O302 Eu289 2.363 . S
O303 C268 1.283 . S
O303 Eu289 2.363 1_655 S
O304 C271 1.283 . S
O304 Eu276 2.363 . S
O305 C269 1.283 . S
O305 Eu276 2.363 1_655 S
O306 C265 1.283 . S
O306 Eu284 2.359 1_565 S
O307 C267 1.283 . S
O307 Eu284 2.367 . S
O308 C264 1.283 . S
O308 Eu283 2.356 1_565 S
O309 C266 1.283 . S
O309 Eu283 2.369 . S
O310 C275 1.283 . S
O310 Eu279 2.363 . S
O311 C273 1.283 . S
O311 Eu279 2.363 . S
O312 C274 1.283 . S
O312 Eu280 2.363 . S
O313 C272 1.283 . S
O313 Eu280 2.363 . S
C314 O340 1.283 . S
C314 O358 1.283 . S
C315 O341 1.283 . S
C315 O356 1.283 . S
C316 O342 1.283 . S
C316 O359 1.283 . S
C317 O343 1.283 . S
C317 O357 1.283 . S
C318 O344 1.283 . S
C318 O353 1.283 . S
C319 O345 1.283 . S
C319 O355 1.283 . S
C320 O346 1.283 . S
C320 O352 1.283 . S
C321 O347 1.283 . S
C321 O354 1.283 . S
C322 O348 1.283 . S
C322 O363 1.283 . S
C323 O349 1.283 . S
C323 O361 1.283 . S
C324 O350 1.283 . S
C324 O362 1.283 . S
C325 O351 1.283 . S
C325 O360 1.283 . S
Eu326 O327 2.372 . S
Eu326 O328 2.368 1_545 S
Eu326 O331 2.368 1_545 S
Eu326 O332 2.372 . S
Eu326 O340 2.360 1_545 S
Eu326 O341 2.366 . S
Eu326 O354 2.363 . S
Eu326 O355 2.363 . S
O327 Eu326 2.372 . S
O327 Eu329 2.373 . S
O327 Eu334 2.370 . S
O328 Eu326 2.368 1_565 S
O328 Eu330 2.367 1_565 S
O328 Eu333 2.370 . S
Eu329 O327 2.373 . S
Eu329 O331 2.367 1_545 S
Eu329 O335 2.367 1_544 S
Eu329 O336 2.373 1_554 S
Eu329 O344 2.363 1_554 S
Eu329 O345 2.363 . S
Eu329 O360 2.358 1_545 S
Eu329 O361 2.368 . S
Eu330 O328 2.367 1_545 S
Eu330 O332 2.373 . S
Eu330 O337 2.373 1_554 S
Eu330 O338 2.367 1_544 S
Eu330 O346 2.363 1_554 S
Eu330 O347 2.363 . S
Eu330 O362 2.358 1_545 S
Eu330 O363 2.368 . S
O331 Eu326 2.368 1_565 S
O331 Eu329 2.367 1_565 S
O331 Eu333 2.370 . S
O332 Eu326 2.372 . S
O332 Eu330 2.373 . S
O332 Eu334 2.370 . S
Eu333 O328 2.370 . S
Eu333 O331 2.370 . S
Eu333 O335 2.370 1_554 S
Eu333 O338 2.370 1_554 S
Eu333 O350 2.363 . S
Eu333 O351 2.363 . S
Eu333 O358 2.363 . S
Eu333 O359 2.363 1_554 S
Eu334 O327 2.370 . S
Eu334 O332 2.370 . S
Eu334 O336 2.370 1_554 S
Eu334 O337 2.370 1_554 S
Eu334 O348 2.363 . S
Eu334 O349 2.363 . S
Eu334 O356 2.363 . S
Eu334 O357 2.363 1_554 S
O335 Eu329 2.367 1_566 S
O335 Eu333 2.370 1_556 S
O335 Eu339 2.366 1_565 S
O336 Eu329 2.373 1_556 S
O336 Eu334 2.370 1_556 S
O336 Eu339 2.374 . S
O337 Eu330 2.373 1_556 S
O337 Eu334 2.370 1_556 S
O337 Eu339 2.374 . S
O338 Eu330 2.367 1_566 S
O338 Eu333 2.370 1_556 S
O338 Eu339 2.366 1_565 S
Eu339 O335 2.366 1_545 S
Eu339 O336 2.374 . S
Eu339 O337 2.374 . S
Eu339 O338 2.366 1_545 S
Eu339 O342 2.356 1_545 S
Eu339 O343 2.370 . S
Eu339 O352 2.363 . S
Eu339 O353 2.363 . S
O340 C314 1.283 . S
O340 Eu326 2.360 1_565 S
O341 C315 1.283 . S
O341 Eu326 2.366 . S
O342 C316 1.283 . S
O342 Eu339 2.356 1_565 S
O343 C317 1.283 . S
O343 Eu339 2.370 . S
O344 C318 1.283 . S
O344 Eu329 2.363 1_556 S
O345 C319 1.283 . S
O345 Eu329 2.363 . S
O346 C320 1.283 . S
O346 Eu330 2.363 1_556 S
O347 C321 1.283 . S
O347 Eu330 2.363 . S
O348 C322 1.283 . S
O348 Eu334 2.363 . S
O349 C323 1.283 . S
O349 Eu334 2.363 . S
O350 C324 1.283 . S
O350 Eu333 2.363 . S
O351 C325 1.283 . S
O351 Eu333 2.363 . S
O352 C320 1.283 . S
O352 Eu339 2.363 . S
O353 C318 1.283 . S
O353 Eu339 2.363 . S
O354 C321 1.283 . S
O354 Eu326 2.363 . S
O355 C319 1.283 . S
O355 Eu326 2.363 . S
O356 C315 1.283 . S
O356 Eu334 2.363 . S
O357 C317 1.283 . S
O357 Eu334 2.363 1_556 S
O358 C314 1.283 . S
O358 Eu333 2.363 . S
O359 C316 1.283 . S
O359 Eu333 2.363 1_556 S
O360 C325 1.283 . S
O360 Eu329 2.358 1_565 S
O361 C323 1.283 . S
O361 Eu329 2.368 . S
O362 C324 1.283 . S
O362 Eu330 2.358 1_565 S
O363 C322 1.283 . S
O363 Eu330 2.368 . S
C364 O390 1.283 . S
C364 O408 1.283 . S
C365 O391 1.283 . S
C365 O406 1.283 . S
C366 O392 1.283 . S
C366 O409 1.283 . S
C367 O393 1.283 . S
C367 O407 1.283 . S
C368 O394 1.283 . S
C368 O403 1.283 . S
C369 O395 1.283 . S
C369 O405 1.283 . S
C370 O396 1.283 . S
C370 O402 1.283 . S
C371 O397 1.284 . S
C371 O404 1.284 . S
C372 O398 1.283 . S
C372 O413 1.283 . S
C373 O399 1.283 . S
C373 O411 1.283 . S
C374 O400 1.283 . S
C374 O412 1.283 . S
C375 O401 1.283 . S
C375 O410 1.283 . S
Eu376 O377 2.348 1_454 S
Eu376 O378 2.393 . S
Eu376 O381 2.393 1_455 S
Eu376 O382 2.348 1_554 S
Eu376 O390 2.401 . S
Eu376 O391 2.325 1_554 S
Eu376 O404 2.363 . S
Eu376 O405 2.363 1_455 S
O377 Eu376 2.348 1_656 S
O377 Eu379 2.349 1_556 S
O377 Eu384 2.370 1_655 S
O378 Eu376 2.393 . S
O378 Eu380 2.393 . S
O378 Eu383 2.370 . S
Eu379 O377 2.349 1_554 S
Eu379 O381 2.391 . S
Eu379 O385 2.391 . S
Eu379 O386 2.349 1_554 S
Eu379 O394 2.363 . S
Eu379 O395 2.363 . S
Eu379 O410 2.398 . S
Eu379 O411 2.328 1_554 S
Eu380 O378 2.393 . S
Eu380 O382 2.348 1_554 S
Eu380 O387 2.348 1_554 S
Eu380 O388 2.392 . S
Eu380 O396 2.363 . S
Eu380 O397 2.363 . S
Eu380 O412 2.400 . S
Eu380 O413 2.326 1_554 S
O381 Eu376 2.393 1_655 S
O381 Eu379 2.391 . S
O381 Eu383 2.370 1_655 S
O382 Eu376 2.348 1_556 S
O382 Eu380 2.348 1_556 S
O382 Eu384 2.370 . S
Eu383 O378 2.370 . S
Eu383 O381 2.370 1_455 S
Eu383 O385 2.370 1_455 S
Eu383 O388 2.370 . S
Eu383 O400 2.363 . S
Eu383 O401 2.363 1_455 S
Eu383 O408 2.363 . S
Eu383 O409 2.363 . S
Eu384 O377 2.370 1_455 S
Eu384 O382 2.370 . S
Eu384 O386 2.370 1_455 S
Eu384 O387 2.370 . S
Eu384 O398 2.363 . S
Eu384 O399 2.363 1_455 S
Eu384 O406 2.363 . S
Eu384 O407 2.363 . S
O385 Eu379 2.391 . S
O385 Eu383 2.370 1_655 S
O385 Eu389 2.391 1_655 S
O386 Eu379 2.349 1_556 S
O386 Eu384 2.370 1_655 S
O386 Eu389 2.350 1_656 S
O387 Eu380 2.348 1_556 S
O387 Eu384 2.370 . S
O387 Eu389 2.350 1_556 S
O388 Eu380 2.392 . S
O388 Eu383 2.370 . S
O388 Eu389 2.391 . S
Eu389 O385 2.391 1_455 S
Eu389 O386 2.350 1_454 S
Eu389 O387 2.350 1_554 S
Eu389 O388 2.391 . S
Eu389 O392 2.398 . S
Eu389 O393 2.328 1_554 S
Eu389 O402 2.363 . S
Eu389 O403 2.363 1_455 S
O390 C364 1.283 . S
O390 Eu376 2.401 . S
O391 C365 1.283 . S
O391 Eu376 2.325 1_556 S
O392 C366 1.283 . S
O392 Eu389 2.398 . S
O393 C367 1.283 . S
O393 Eu389 2.328 1_556 S
O394 C368 1.283 . S
O394 Eu379 2.363 . S
O395 C369 1.283 . S
O395 Eu379 2.363 . S
O396 C370 1.283 . S
O396 Eu380 2.363 . S
O397 C371 1.284 . S
O397 Eu380 2.363 . S
O398 C372 1.283 . S
O398 Eu384 2.363 . S
O399 C373 1.283 . S
O399 Eu384 2.363 1_655 S
O400 C374 1.283 . S
O400 Eu383 2.363 . S
O401 C375 1.283 . S
O401 Eu383 2.363 1_655 S
O402 C370 1.283 . S
O402 Eu389 2.363 . S
O403 C368 1.283 . S
O403 Eu389 2.363 1_655 S
O404 C371 1.284 . S
O404 Eu376 2.363 . S
O405 C369 1.283 . S
O405 Eu376 2.363 1_655 S
O406 C365 1.283 . S
O406 Eu384 2.363 . S
O407 C367 1.283 . S
O407 Eu384 2.363 . S
O408 C364 1.283 . S
O408 Eu383 2.363 . S
O409 C366 1.283 . S
O409 Eu383 2.363 . S
O410 C375 1.283 . S
O410 Eu379 2.398 . S
O411 C373 1.283 . S
O411 Eu379 2.328 1_556 S
O412 C374 1.283 . S
O412 Eu380 2.400 . S
O413 C372 1.283 . S
O413 Eu380 2.326 1_556 S
C414 O440 1.283 . S
C414 O458 1.283 . S
C415 O441 1.283 . S
C415 O456 1.283 . S
C416 O442 1.283 . S
C416 O459 1.283 . S
C417 O443 1.283 . S
C417 O457 1.283 . S
C418 O444 1.283 . S
C418 O453 1.283 . S
C419 O445 1.283 . S
C419 O455 1.283 . S
C420 O446 1.283 . S
C420 O452 1.283 . S
C421 O447 1.283 . S
C421 O454 1.283 . S
C422 O448 1.283 . S
C422 O463 1.283 . S
C423 O449 1.283 . S
C423 O461 1.283 . S
C424 O450 1.283 . S
C424 O462 1.283 . S
C425 O451 1.283 . S
C425 O460 1.283 . S
Eu426 O427 2.370 . S
Eu426 O428 2.370 . S
Eu426 O431 2.370 . S
Eu426 O432 2.370 . S
Eu426 O440 2.363 . S
Eu426 O441 2.363 . S
Eu426 O454 2.363 . S
Eu426 O455 2.363 . S
O427 Eu426 2.370 . S
O427 Eu429 2.370 . S
O427 Eu434 2.370 . S
O428 Eu426 2.370 . S
O428 Eu430 2.370 . S
O428 Eu433 2.370 . S
Eu429 O427 2.370 . S
Eu429 O431 2.370 . S
Eu429 O435 2.370 1_554 S
Eu429 O436 2.370 1_554 S
Eu429 O444 2.363 1_554 S
Eu429 O445 2.363 . S
Eu429 O460 2.363 . S
Eu429 O461 2.363 . S
Eu430 O428 2.370 . S
Eu430 O432 2.370 . S
Eu430 O437 2.370 1_554 S
Eu430 O438 2.370 1_554 S
Eu430 O446 2.363 1_554 S
Eu430 O447 2.363 . S
Eu430 O462 2.363 . S
Eu430 O463 2.363 . S
O431 Eu426 2.370 . S
O431 Eu429 2.370 . S
O431 Eu433 2.370 . S
O432 Eu426 2.370 . S
O432 Eu430 2.370 . S
O432 Eu434 2.370 . S
Eu433 O428 2.370 . S
Eu433 O431 2.370 . S
Eu433 O435 2.370 1_554 S
Eu433 O438 2.370 1_554 S
Eu433 O450 2.363 . S
Eu433 O451 2.363 . S
Eu433 O458 2.363 . S
Eu433 O459 2.363 1_554 S
Eu434 O427 2.370 . S
Eu434 O432 2.370 . S
Eu434 O436 2.370 1_554 S
Eu434 O437 2.370 1_554 S
Eu434 O448 2.363 . S
Eu434 O449 2.363 . S
Eu434 O456 2.363 . S
Eu434 O457 2.363 1_554 S
O435 Eu429 2.370 1_556 S
O435 Eu433 2.370 1_556 S
O435 Eu439 2.370 . S
O436 Eu429 2.370 1_556 S
O436 Eu434 2.370 1_556 S
O436 Eu439 2.370 . S
O437 Eu430 2.370 1_556 S
O437 Eu434 2.370 1_556 S
O437 Eu439 2.370 . S
O438 Eu430 2.370 1_556 S
O438 Eu433 2.370 1_556 S
O438 Eu439 2.370 . S
Eu439 O435 2.370 . S
Eu439 O436 2.370 . S
Eu439 O437 2.370 . S
Eu439 O438 2.370 . S
Eu439 O442 2.363 . S
Eu439 O443 2.363 . S
Eu439 O452 2.363 . S
Eu439 O453 2.363 . S
O440 C414 1.283 . S
O440 Eu426 2.363 . S
O441 C415 1.283 . S
O441 Eu426 2.363 . S
O442 C416 1.283 . S
O442 Eu439 2.363 . S
O443 C417 1.283 . S
O443 Eu439 2.363 . S
O444 C418 1.283 . S
O444 Eu429 2.363 1_556 S
O445 C419 1.283 . S
O445 Eu429 2.363 . S
O446 C420 1.283 . S
O446 Eu430 2.363 1_556 S
O447 C421 1.283 . S
O447 Eu430 2.363 . S
O448 C422 1.283 . S
O448 Eu434 2.363 . S
O449 C423 1.283 . S
O449 Eu434 2.363 . S
O450 C424 1.283 . S
O450 Eu433 2.363 . S
O451 C425 1.283 . S
O451 Eu433 2.363 . S
O452 C420 1.283 . S
O452 Eu439 2.363 . S
O453 C418 1.283 . S
O453 Eu439 2.363 . S
O454 C421 1.283 . S
O454 Eu426 2.363 . S
O455 C419 1.283 . S
O455 Eu426 2.363 . S
O456 C415 1.283 . S
O456 Eu434 2.363 . S
O457 C417 1.283 . S
O457 Eu434 2.363 1_556 S
O458 C414 1.283 . S
O458 Eu433 2.363 . S
O459 C416 1.283 . S
O459 Eu433 2.363 1_556 S
O460 C425 1.283 . S
O460 Eu429 2.363 . S
O461 C423 1.283 . S
O461 Eu429 2.363 . S
O462 C424 1.283 . S
O462 Eu430 2.363 . S
O463 C422 1.283 . S
O463 Eu430 2.363 . S
C464 O490 1.283 . S
C464 O508 1.283 . S
C465 O491 1.283 . S
C465 O506 1.283 . S
C466 O492 1.283 . S
C466 O509 1.283 . S
C467 O493 1.283 . S
C467 O507 1.283 . S
C468 O494 1.283 . S
C468 O503 1.283 . S
C469 O495 1.283 . S
C469 O505 1.283 . S
C470 O496 1.283 . S
C470 O502 1.283 . S
C471 O497 1.283 . S
C471 O504 1.283 . S
C472 O498 1.283 . S
C472 O513 1.283 . S
C473 O499 1.283 . S
C473 O511 1.283 . S
C474 O500 1.283 . S
C474 O512 1.283 . S
C475 O501 1.283 . S
C475 O510 1.283 . S
Eu476 O477 2.370 1_455 S
Eu476 O478 2.370 . S
Eu476 O481 2.370 1_455 S
Eu476 O482 2.370 . S
Eu476 O490 2.363 . S
Eu476 O491 2.363 . S
Eu476 O504 2.363 . S
Eu476 O505 2.363 1_455 S
O477 Eu476 2.370 1_655 S
O477 Eu479 2.370 . S
O477 Eu484 2.370 1_655 S
O478 Eu476 2.370 . S
O478 Eu480 2.370 . S
O478 Eu483 2.370 . S
Eu479 O477 2.370 . S
Eu479 O481 2.370 . S
Eu479 O485 2.370 . S
Eu479 O486 2.370 . S
Eu479 O494 2.363 . S
Eu479 O495 2.363 . S
Eu479 O510 2.363 . S
Eu479 O511 2.363 . S
Eu480 O478 2.370 . S
Eu480 O482 2.370 . S
Eu480 O487 2.370 . S
Eu480 O488 2.370 . S
Eu480 O496 2.363 . S
Eu480 O497 2.363 . S
Eu480 O512 2.363 . S
Eu480 O513 2.363 . S
O481 Eu476 2.370 1_655 S
O481 Eu479 2.370 . S
O481 Eu483 2.370 1_655 S
O482 Eu476 2.370 . S
O482 Eu480 2.370 . S
O482 Eu484 2.370 . S
Eu483 O478 2.370 . S
Eu483 O481 2.370 1_455 S
Eu483 O485 2.370 1_455 S
Eu483 O488 2.370 . S
Eu483 O500 2.363 . S
Eu483 O501 2.363 1_455 S
Eu483 O508 2.363 . S
Eu483 O509 2.363 . S
Eu484 O477 2.370 1_455 S
Eu484 O482 2.370 . S
Eu484 O486 2.370 1_455 S
Eu484 O487 2.370 . S
Eu484 O498 2.363 . S
Eu484 O499 2.363 1_455 S
Eu484 O506 2.363 . S
Eu484 O507 2.363 . S
O485 Eu479 2.370 . S
O485 Eu483 2.370 1_655 S
O485 Eu489 2.370 1_655 S
O486 Eu479 2.370 . S
O486 Eu484 2.370 1_655 S
O486 Eu489 2.370 1_655 S
O487 Eu480 2.370 . S
O487 Eu484 2.370 . S
O487 Eu489 2.370 . S
O488 Eu480 2.370 . S
O488 Eu483 2.370 . S
O488 Eu489 2.370 . S
Eu489 O485 2.370 1_455 S
Eu489 O486 2.370 1_455 S
Eu489 O487 2.370 . S
Eu489 O488 2.370 . S
Eu489 O492 2.363 . S
Eu489 O493 2.363 . S
Eu489 O502 2.363 . S
Eu489 O503 2.363 1_455 S
O490 C464 1.283 . S
O490 Eu476 2.363 . S
O491 C465 1.283 . S
O491 Eu476 2.363 . S
O492 C466 1.283 . S
O492 Eu489 2.363 . S
O493 C467 1.283 . S
O493 Eu489 2.363 . S
O494 C468 1.283 . S
O494 Eu479 2.363 . S
O495 C469 1.283 . S
O495 Eu479 2.363 . S
O496 C470 1.283 . S
O496 Eu480 2.363 . S
O497 C471 1.283 . S
O497 Eu480 2.363 . S
O498 C472 1.283 . S
O498 Eu484 2.363 . S
O499 C473 1.283 . S
O499 Eu484 2.363 1_655 S
O500 C474 1.283 . S
O500 Eu483 2.363 . S
O501 C475 1.283 . S
O501 Eu483 2.363 1_655 S
O502 C470 1.283 . S
O502 Eu489 2.363 . S
O503 C468 1.283 . S
O503 Eu489 2.363 1_655 S
O504 C471 1.283 . S
O504 Eu476 2.363 . S
O505 C469 1.283 . S
O505 Eu476 2.363 1_655 S
O506 C465 1.283 . S
O506 Eu484 2.363 . S
O507 C467 1.283 . S
O507 Eu484 2.363 . S
O508 C464 1.283 . S
O508 Eu483 2.363 . S
O509 C466 1.283 . S
O509 Eu483 2.363 . S
O510 C475 1.283 . S
O510 Eu479 2.363 . S
O511 C473 1.283 . S
O511 Eu479 2.363 . S
O512 C474 1.283 . S
O512 Eu480 2.363 . S
O513 C472 1.283 . S
O513 Eu480 2.363 . S
C514 O540 1.283 . S
C514 O558 1.283 . S
C515 O541 1.283 . S
C515 O556 1.283 . S
C516 O542 1.283 . S
C516 O559 1.283 . S
C517 O543 1.283 . S
C517 O557 1.283 . S
C518 O544 1.283 . S
C518 O553 1.283 . S
C519 O545 1.283 . S
C519 O555 1.283 . S
C520 O546 1.283 . S
C520 O552 1.283 . S
C521 O547 1.283 . S
C521 O554 1.283 . S
C522 O548 1.283 . S
C522 O563 1.283 . S
C523 O549 1.283 . S
C523 O561 1.283 . S
C524 O550 1.283 . S
C524 O562 1.283 . S
C525 O551 1.283 . S
C525 O560 1.283 . S
Eu526 O527 2.370 . S
Eu526 O528 2.370 . S
Eu526 O531 2.370 . S
Eu526 O532 2.370 . S
Eu526 O540 2.363 . S
Eu526 O541 2.363 . S
Eu526 O554 2.363 . S
Eu526 O555 2.363 . S
O527 Eu526 2.370 . S
O527 Eu529 2.367 1_565 S
O527 Eu534 2.368 1_565 S
O528 Eu526 2.370 . S
O528 Eu530 2.367 1_565 S
O528 Eu533 2.366 1_565 S
Eu529 O527 2.367 1_545 S
Eu529 O531 2.367 1_545 S
Eu529 O535 2.373 . S
Eu529 O536 2.373 . S
Eu529 O544 2.368 . S
Eu529 O545 2.357 1_545 S
Eu529 O560 2.363 . S
Eu529 O561 2.363 . S
Eu530 O528 2.367 1_545 S
Eu530 O532 2.367 1_545 S
Eu530 O537 2.373 . S
Eu530 O538 2.373 . S
Eu530 O546 2.368 . S
Eu530 O547 2.357 1_545 S
Eu530 O562 2.363 . S
Eu530 O563 2.363 . S
O531 Eu526 2.370 . S
O531 Eu529 2.367 1_565 S
O531 Eu533 2.366 1_565 S
O532 Eu526 2.370 . S
O532 Eu530 2.367 1_565 S
O532 Eu534 2.368 1_565 S
Eu533 O528 2.366 1_545 S
Eu533 O531 2.366 1_545 S
Eu533 O535 2.374 . S
Eu533 O538 2.374 . S
Eu533 O550 2.363 . S
Eu533 O551 2.363 . S
Eu533 O558 2.356 1_545 S
Eu533 O559 2.370 . S
Eu534 O527 2.368 1_545 S
Eu534 O532 2.368 1_545 S
Eu534 O536 2.373 . S
Eu534 O537 2.373 . S
Eu534 O548 2.363 . S
Eu534 O549 2.363 . S
Eu534 O556 2.359 1_545 S
Eu534 O557 2.367 . S
O535 Eu529 2.373 . S
O535 Eu533 2.374 . S
O535 Eu539 2.370 . S
O536 Eu529 2.373 . S
O536 Eu534 2.373 . S
O536 Eu539 2.370 . S
O537 Eu530 2.373 . S
O537 Eu534 2.373 . S
O537 Eu539 2.370 . S
O538 Eu530 2.373 . S
O538 Eu533 2.374 . S
O538 Eu539 2.370 . S
Eu539 O535 2.370 . S
Eu539 O536 2.370 . S
Eu539 O537 2.370 . S
Eu539 O538 2.370 . S
Eu539 O542 2.363 . S
Eu539 O543 2.363 . S
Eu539 O552 2.363 . S
Eu539 O553 2.363 . S
O540 C514 1.283 . S
O540 Eu526 2.363 . S
O541 C515 1.283 . S
O541 Eu526 2.363 . S
O542 C516 1.283 . S
O542 Eu539 2.363 . S
O543 C517 1.283 . S
O543 Eu539 2.363 . S
O544 C518 1.283 . S
O544 Eu529 2.368 . S
O545 C519 1.283 . S
O545 Eu529 2.357 1_565 S
O546 C520 1.283 . S
O546 Eu530 2.368 . S
O547 C521 1.283 . S
O547 Eu530 2.357 1_565 S
O548 C522 1.283 . S
O548 Eu534 2.363 . S
O549 C523 1.283 . S
O549 Eu534 2.363 . S
O550 C524 1.283 . S
O550 Eu533 2.363 . S
O551 C525 1.283 . S
O551 Eu533 2.363 . S
O552 C520 1.283 . S
O552 Eu539 2.363 . S
O553 C518 1.283 . S
O553 Eu539 2.363 . S
O554 C521 1.283 . S
O554 Eu526 2.363 . S
O555 C519 1.283 . S
O555 Eu526 2.363 . S
O556 C515 1.283 . S
O556 Eu534 2.359 1_565 S
O557 C517 1.283 . S
O557 Eu534 2.367 . S
O558 C514 1.283 . S
O558 Eu533 2.356 1_565 S
O559 C516 1.283 . S
O559 Eu533 2.370 . S
O560 C525 1.283 . S
O560 Eu529 2.363 . S
O561 C523 1.283 . S
O561 Eu529 2.363 . S
O562 C524 1.283 . S
O562 Eu530 2.363 . S
O563 C522 1.283 . S
O563 Eu530 2.363 . S
H564 C576 0.930 . S
H565 C578 0.930 . S
H566 C579 0.930 . S
H567 C583 0.959 . S
H568 C583 0.959 . S
H569 C583 0.961 . S
H570 C584 0.960 . S
H571 C584 0.961 . S
H572 C584 0.959 . S
H573 C587 0.929 . S
H574 C588 0.931 . S
H575 C590 0.930 . S
C576 H564 0.930 . S
C576 C577 1.399 . S
C576 C581 1.399 . S
C577 C576 1.399 . S
C577 C578 1.376 . S
C578 H565 0.930 . S
C578 C577 1.376 . S
C578 C579 1.388 . S
C579 H566 0.930 . S
C579 C578 1.388 . S
C579 C580 1.390 . S
C580 C579 1.390 . S
C580 C581 1.394 . S
C580 C586 1.465 . S
C581 C576 1.399 . S
C581 C580 1.394 . S
C581 C582 1.516 . S
C582 C581 1.516 . S
C582 C583 1.502 . S
C582 C584 1.561 . S
C582 C585 1.526 . S
C583 H567 0.959 . S
C583 H568 0.959 . S
C583 H569 0.961 . S
C583 C582 1.502 . S
C584 H570 0.960 . S
C584 H571 0.961 . S
C584 H572 0.959 . S
C584 C582 1.561 . S
C585 C582 1.526 . S
C585 C586 1.396 . S
C585 C590 1.390 . S
C586 C580 1.465 . S
C586 C585 1.396 . S
C586 C587 1.399 . S
C587 H573 0.929 . S
C587 C586 1.399 . S
C587 C588 1.385 . S
C588 H574 0.931 . S
C588 C587 1.385 . S
C588 C589 1.389 . S
C589 C588 1.389 . S
C589 C590 1.387 . S
C590 H575 0.930 . S
C590 C585 1.390 . S
C590 C589 1.387 . S
H591 C603 0.930 . S
H592 C605 0.930 . S
H593 C606 0.930 . S
H594 C610 0.959 . S
H595 C610 0.959 . S
H596 C610 0.961 . S
H597 C611 0.960 . S
H598 C611 0.961 . S
H599 C611 0.959 . S
H600 C614 0.929 . S
H601 C615 0.931 . S
H602 C617 0.930 . S
C603 H591 0.930 . S
C603 C604 1.399 . S
C603 C608 1.399 . S
C604 C603 1.399 . S
C604 C605 1.376 . S
C605 H592 0.930 . S
C605 C604 1.376 . S
C605 C606 1.388 . S
C606 H593 0.930 . S
C606 C605 1.388 . S
C606 C607 1.390 . S
C607 C606 1.390 . S
C607 C608 1.394 . S
C607 C613 1.465 . S
C608 C603 1.399 . S
C608 C607 1.394 . S
C608 C609 1.516 . S
C609 C608 1.516 . S
C609 C610 1.502 . S
C609 C611 1.561 . S
C609 C612 1.526 . S
C610 H594 0.959 . S
C610 H595 0.959 . S
C610 H596 0.961 . S
C610 C609 1.502 . S
C611 H597 0.960 . S
C611 H598 0.961 . S
C611 H599 0.959 . S
C611 C609 1.561 . S
C612 C609 1.526 . S
C612 C613 1.396 . S
C612 C617 1.390 . S
C613 C607 1.465 . S
C613 C612 1.396 . S
C613 C614 1.399 . S
C614 H600 0.929 . S
C614 C613 1.399 . S
C614 C615 1.385 . S
C615 H601 0.931 . S
C615 C614 1.385 . S
C615 C616 1.389 . S
C616 C615 1.389 . S
C616 C617 1.387 . S
C617 H602 0.930 . S
C617 C612 1.390 . S
C617 C616 1.387 . S
H618 C630 0.930 . S
H619 C632 0.930 . S
H620 C633 0.930 . S
H621 C637 0.959 . S
H622 C637 0.959 . S
H623 C637 0.961 . S
H624 C638 0.960 . S
H625 C638 0.961 . S
H626 C638 0.959 . S
H627 C641 0.929 . S
H628 C642 0.931 . S
H629 C644 0.930 . S
C630 H618 0.930 . S
C630 C631 1.399 . S
C630 C635 1.399 . S
C631 C630 1.399 . S
C631 C632 1.376 . S
C632 H619 0.930 . S
C632 C631 1.376 . S
C632 C633 1.388 . S
C633 H620 0.930 . S
C633 C632 1.388 . S
C633 C634 1.390 . S
C634 C633 1.390 . S
C634 C635 1.394 . S
C634 C640 1.465 . S
C635 C630 1.399 . S
C635 C634 1.394 . S
C635 C636 1.516 . S
C636 C635 1.516 . S
C636 C637 1.502 . S
C636 C638 1.561 . S
C636 C639 1.526 . S
C637 H621 0.959 . S
C637 H622 0.959 . S
C637 H623 0.961 . S
C637 C636 1.502 . S
C638 H624 0.960 . S
C638 H625 0.961 . S
C638 H626 0.959 . S
C638 C636 1.561 . S
C639 C636 1.526 . S
C639 C640 1.396 . S
C639 C644 1.390 . S
C640 C634 1.465 . S
C640 C639 1.396 . S
C640 C641 1.399 . S
C641 H627 0.929 . S
C641 C640 1.399 . S
C641 C642 1.385 . S
C642 H628 0.931 . S
C642 C641 1.385 . S
C642 C643 1.389 . S
C643 C642 1.389 . S
C643 C644 1.387 . S
C644 H629 0.930 . S
C644 C639 1.390 . S
C644 C643 1.387 . S
H645 C657 0.930 . S
H646 C659 0.930 . S
H647 C660 0.930 . S
H648 C664 0.959 . S
H649 C664 0.959 . S
H650 C664 0.961 . S
H651 C665 0.960 . S
H652 C665 0.961 . S
H653 C665 0.959 . S
H654 C668 0.929 . S
H655 C669 0.931 . S
H656 C671 0.930 . S
C657 H645 0.930 . S
C657 C658 1.399 . S
C657 C662 1.399 . S
C658 C657 1.399 . S
C658 C659 1.376 . S
C659 H646 0.930 . S
C659 C658 1.376 . S
C659 C660 1.388 . S
C660 H647 0.930 . S
C660 C659 1.388 . S
C660 C661 1.390 . S
C661 C660 1.390 . S
C661 C662 1.394 . S
C661 C667 1.465 . S
C662 C657 1.399 . S
C662 C661 1.394 . S
C662 C663 1.516 . S
C663 C662 1.516 . S
C663 C664 1.502 . S
C663 C665 1.561 . S
C663 C666 1.526 . S
C664 H648 0.959 . S
C664 H649 0.959 . S
C664 H650 0.961 . S
C664 C663 1.502 . S
C665 H651 0.960 . S
C665 H652 0.961 . S
C665 H653 0.959 . S
C665 C663 1.561 . S
C666 C663 1.526 . S
C666 C667 1.396 . S
C666 C671 1.390 . S
C667 C661 1.465 . S
C667 C666 1.396 . S
C667 C668 1.399 . S
C668 H654 0.929 . S
C668 C667 1.399 . S
C668 C669 1.385 . S
C669 H655 0.931 . S
C669 C668 1.385 . S
C669 C670 1.389 . S
C670 C669 1.389 . S
C670 C671 1.387 . S
C671 H656 0.930 . S
C671 C666 1.390 . S
C671 C670 1.387 . S
H672 C684 0.930 . S
H673 C686 0.930 . S
H674 C687 0.930 . S
H675 C691 0.959 . S
H676 C691 0.959 . S
H677 C691 0.961 . S
H678 C692 0.960 . S
H679 C692 0.961 . S
H680 C692 0.959 . S
H681 C695 0.929 . S
H682 C696 0.931 . S
H683 C698 0.930 . S
C684 H672 0.930 . S
C684 C685 1.399 . S
C684 C689 1.399 . S
C685 C684 1.399 . S
C685 C686 1.376 . S
C686 H673 0.930 . S
C686 C685 1.376 . S
C686 C687 1.388 . S
C687 H674 0.930 . S
C687 C686 1.388 . S
C687 C688 1.390 . S
C688 C687 1.390 . S
C688 C689 1.394 . S
C688 C694 1.465 . S
C689 C684 1.399 . S
C689 C688 1.394 . S
C689 C690 1.516 . S
C690 C689 1.516 . S
C690 C691 1.502 . S
C690 C692 1.561 . S
C690 C693 1.526 . S
C691 H675 0.959 . S
C691 H676 0.959 . S
C691 H677 0.961 . S
C691 C690 1.502 . S
C692 H678 0.960 . S
C692 H679 0.961 . S
C692 H680 0.959 . S
C692 C690 1.561 . S
C693 C690 1.526 . S
C693 C694 1.396 . S
C693 C698 1.390 . S
C694 C688 1.465 . S
C694 C693 1.396 . S
C694 C695 1.399 . S
C695 H681 0.929 . S
C695 C694 1.399 . S
C695 C696 1.385 . S
C696 H682 0.931 . S
C696 C695 1.385 . S
C696 C697 1.389 . S
C697 C696 1.389 . S
C697 C698 1.387 . S
C698 H683 0.930 . S
C698 C693 1.390 . S
C698 C697 1.387 . S
H699 C711 0.930 . S
H700 C713 0.930 . S
H701 C714 0.930 . S
H702 C718 0.959 . S
H703 C718 0.959 . S
H704 C718 0.961 . S
H705 C719 0.960 . S
H706 C719 0.961 . S
H707 C719 0.959 . S
H708 C722 0.929 . S
H709 C723 0.931 . S
H710 C725 0.930 . S
C711 H699 0.930 . S
C711 C712 1.399 . S
C711 C716 1.399 . S
C712 C711 1.399 . S
C712 C713 1.376 . S
C713 H700 0.930 . S
C713 C712 1.376 . S
C713 C714 1.388 . S
C714 H701 0.930 . S
C714 C713 1.388 . S
C714 C715 1.390 . S
C715 C714 1.390 . S
C715 C716 1.394 . S
C715 C721 1.465 . S
C716 C711 1.399 . S
C716 C715 1.394 . S
C716 C717 1.516 . S
C717 C716 1.516 . S
C717 C718 1.502 . S
C717 C719 1.561 . S
C717 C720 1.526 . S
C718 H702 0.959 . S
C718 H703 0.959 . S
C718 H704 0.961 . S
C718 C717 1.502 . S
C719 H705 0.960 . S
C719 H706 0.961 . S
C719 H707 0.959 . S
C719 C717 1.561 . S
C720 C717 1.526 . S
C720 C721 1.396 . S
C720 C725 1.390 . S
C721 C715 1.465 . S
C721 C720 1.396 . S
C721 C722 1.399 . S
C722 H708 0.929 . S
C722 C721 1.399 . S
C722 C723 1.385 . S
C723 H709 0.931 . S
C723 C722 1.385 . S
C723 C724 1.389 . S
C724 C723 1.389 . S
C724 C725 1.387 . S
C725 H710 0.930 . S
C725 C720 1.390 . S
C725 C724 1.387 . S
H726 C738 0.930 . S
H727 C740 0.930 . S
H728 C741 0.930 . S
H729 C745 0.959 . S
H730 C745 0.959 . S
H731 C745 0.961 . S
H732 C746 0.960 . S
H733 C746 0.961 . S
H734 C746 0.959 . S
H735 C749 0.929 . S
H736 C750 0.931 . S
H737 C752 0.930 . S
C738 H726 0.930 . S
C738 C739 1.399 . S
C738 C743 1.399 . S
C739 C738 1.399 . S
C739 C740 1.376 . S
C740 H727 0.930 . S
C740 C739 1.376 . S
C740 C741 1.388 . S
C741 H728 0.930 . S
C741 C740 1.388 . S
C741 C742 1.390 . S
C742 C741 1.390 . S
C742 C743 1.394 . S
C742 C748 1.465 . S
C743 C738 1.399 . S
C743 C742 1.394 . S
C743 C744 1.516 . S
C744 C743 1.516 . S
C744 C745 1.502 . S
C744 C746 1.561 . S
C744 C747 1.526 . S
C745 H729 0.959 . S
C745 H730 0.959 . S
C745 H731 0.961 . S
C745 C744 1.502 . S
C746 H732 0.960 . S
C746 H733 0.961 . S
C746 H734 0.959 . S
C746 C744 1.561 . S
C747 C744 1.526 . S
C747 C748 1.396 . S
C747 C752 1.390 . S
C748 C742 1.465 . S
C748 C747 1.396 . S
C748 C749 1.399 . S
C749 H735 0.929 . S
C749 C748 1.399 . S
C749 C750 1.385 . S
C750 H736 0.931 . S
C750 C749 1.385 . S
C750 C751 1.389 . S
C751 C750 1.389 . S
C751 C752 1.387 . S
C752 H737 0.930 . S
C752 C747 1.390 . S
C752 C751 1.387 . S
H753 C765 0.930 . S
H754 C767 0.930 . S
H755 C768 0.930 . S
H756 C772 0.959 . S
H757 C772 0.959 . S
H758 C772 0.961 . S
H759 C773 0.960 . S
H760 C773 0.961 . S
H761 C773 0.959 . S
H762 C776 0.929 . S
H763 C777 0.931 . S
H764 C779 0.930 . S
C765 H753 0.930 . S
C765 C766 1.399 . S
C765 C770 1.399 . S
C766 C765 1.399 . S
C766 C767 1.376 . S
C767 H754 0.930 . S
C767 C766 1.376 . S
C767 C768 1.388 . S
C768 H755 0.930 . S
C768 C767 1.388 . S
C768 C769 1.390 . S
C769 C768 1.390 . S
C769 C770 1.394 . S
C769 C775 1.465 . S
C770 C765 1.399 . S
C770 C769 1.394 . S
C770 C771 1.516 . S
C771 C770 1.516 . S
C771 C772 1.502 . S
C771 C773 1.561 . S
C771 C774 1.526 . S
C772 H756 0.959 . S
C772 H757 0.959 . S
C772 H758 0.961 . S
C772 C771 1.502 . S
C773 H759 0.960 . S
C773 H760 0.961 . S
C773 H761 0.959 . S
C773 C771 1.561 . S
C774 C771 1.526 . S
C774 C775 1.396 . S
C774 C779 1.390 . S
C775 C769 1.465 . S
C775 C774 1.396 . S
C775 C776 1.399 . S
C776 H762 0.929 . S
C776 C775 1.399 . S
C776 C777 1.385 . S
C777 H763 0.931 . S
C777 C776 1.385 . S
C777 C778 1.389 . S
C778 C777 1.389 . S
C778 C779 1.387 . S
C779 H764 0.930 . S
C779 C774 1.390 . S
C779 C778 1.387 . S
H780 C792 0.930 . S
H781 C794 0.930 . S
H782 C795 0.930 . S
H783 C799 0.959 . S
H784 C799 0.959 . S
H785 C799 0.961 . S
H786 C800 0.960 . S
H787 C800 0.961 . S
H788 C800 0.959 . S
H789 C803 0.929 . S
H790 C804 0.931 . S
H791 C806 0.930 . S
C792 H780 0.930 . S
C792 C793 1.399 . S
C792 C797 1.399 . S
C793 C792 1.399 . S
C793 C794 1.376 . S
C794 H781 0.930 . S
C794 C793 1.376 . S
C794 C795 1.388 . S
C795 H782 0.930 . S
C795 C794 1.388 . S
C795 C796 1.390 . S
C796 C795 1.390 . S
C796 C797 1.394 . S
C796 C802 1.465 . S
C797 C792 1.399 . S
C797 C796 1.394 . S
C797 C798 1.516 . S
C798 C797 1.516 . S
C798 C799 1.502 . S
C798 C800 1.561 . S
C798 C801 1.526 . S
C799 H783 0.959 . S
C799 H784 0.959 . S
C799 H785 0.961 . S
C799 C798 1.502 . S
C800 H786 0.960 . S
C800 H787 0.961 . S
C800 H788 0.959 . S
C800 C798 1.561 . S
C801 C798 1.526 . S
C801 C802 1.396 . S
C801 C806 1.390 . S
C802 C796 1.465 . S
C802 C801 1.396 . S
C802 C803 1.399 . S
C803 H789 0.929 . S
C803 C802 1.399 . S
C803 C804 1.385 . S
C804 H790 0.931 . S
C804 C803 1.385 . S
C804 C805 1.389 . S
C805 C804 1.389 . S
C805 C806 1.387 . S
C806 H791 0.930 . S
C806 C801 1.390 . S
C806 C805 1.387 . S
H807 C819 0.930 . S
H808 C821 0.930 . S
H809 C822 0.930 . S
H810 C826 0.959 . S
H811 C826 0.959 . S
H812 C826 0.961 . S
H813 C827 0.960 . S
H814 C827 0.961 . S
H815 C827 0.959 . S
H816 C830 0.929 . S
H817 C831 0.931 . S
H818 C833 0.930 . S
C819 H807 0.930 . S
C819 C820 1.399 . S
C819 C824 1.399 . S
C820 C819 1.399 . S
C820 C821 1.376 . S
C821 H808 0.930 . S
C821 C820 1.376 . S
C821 C822 1.388 . S
C822 H809 0.930 . S
C822 C821 1.388 . S
C822 C823 1.390 . S
C823 C822 1.390 . S
C823 C824 1.394 . S
C823 C829 1.465 . S
C824 C819 1.399 . S
C824 C823 1.394 . S
C824 C825 1.516 . S
C825 C824 1.516 . S
C825 C826 1.502 . S
C825 C827 1.561 . S
C825 C828 1.526 . S
C826 H810 0.959 . S
C826 H811 0.959 . S
C826 H812 0.961 . S
C826 C825 1.502 . S
C827 H813 0.960 . S
C827 H814 0.961 . S
C827 H815 0.959 . S
C827 C825 1.561 . S
C828 C825 1.526 . S
C828 C829 1.396 . S
C828 C833 1.390 . S
C829 C823 1.465 . S
C829 C828 1.396 . S
C829 C830 1.399 . S
C830 H816 0.929 . S
C830 C829 1.399 . S
C830 C831 1.385 . S
C831 H817 0.931 . S
C831 C830 1.385 . S
C831 C832 1.389 . S
C832 C831 1.389 . S
C832 C833 1.387 . S
C833 H818 0.930 . S
C833 C828 1.390 . S
C833 C832 1.387 . S
H834 C846 0.930 . S
H835 C848 0.930 . S
H836 C849 0.930 . S
H837 C853 0.959 . S
H838 C853 0.959 . S
H839 C853 0.961 . S
H840 C854 0.960 . S
H841 C854 0.961 . S
H842 C854 0.959 . S
H843 C857 0.929 . S
H844 C858 0.931 . S
H845 C860 0.930 . S
C846 H834 0.930 . S
C846 C847 1.399 . S
C846 C851 1.399 . S
C847 C846 1.399 . S
C847 C848 1.376 . S
C848 H835 0.930 . S
C848 C847 1.376 . S
C848 C849 1.388 . S
C849 H836 0.930 . S
C849 C848 1.388 . S
C849 C850 1.390 . S
C850 C849 1.390 . S
C850 C851 1.394 . S
C850 C856 1.465 . S
C851 C846 1.399 . S
C851 C850 1.394 . S
C851 C852 1.516 . S
C852 C851 1.516 . S
C852 C853 1.502 . S
C852 C854 1.561 . S
C852 C855 1.526 . S
C853 H837 0.959 . S
C853 H838 0.959 . S
C853 H839 0.961 . S
C853 C852 1.502 . S
C854 H840 0.960 . S
C854 H841 0.961 . S
C854 H842 0.959 . S
C854 C852 1.561 . S
C855 C852 1.526 . S
C855 C856 1.396 . S
C855 C860 1.390 . S
C856 C850 1.465 . S
C856 C855 1.396 . S
C856 C857 1.399 . S
C857 H843 0.929 . S
C857 C856 1.399 . S
C857 C858 1.385 . S
C858 H844 0.931 . S
C858 C857 1.385 . S
C858 C859 1.389 . S
C859 C858 1.389 . S
C859 C860 1.387 . S
C860 H845 0.930 . S
C860 C855 1.390 . S
C860 C859 1.387 . S
H861 C873 0.930 . S
H862 C875 0.930 . S
H863 C876 0.930 . S
H864 C880 0.959 . S
H865 C880 0.959 . S
H866 C880 0.961 . S
H867 C881 0.960 . S
H868 C881 0.961 . S
H869 C881 0.959 . S
H870 C884 0.929 . S
H871 C885 0.931 . S
H872 C887 0.930 . S
C873 H861 0.930 . S
C873 C874 1.399 . S
C873 C878 1.399 . S
C874 C873 1.399 . S
C874 C875 1.376 . S
C875 H862 0.930 . S
C875 C874 1.376 . S
C875 C876 1.388 . S
C876 H863 0.930 . S
C876 C875 1.388 . S
C876 C877 1.390 . S
C877 C876 1.390 . S
C877 C878 1.394 . S
C877 C883 1.465 . S
C878 C873 1.399 . S
C878 C877 1.394 . S
C878 C879 1.516 . S
C879 C878 1.516 . S
C879 C880 1.502 . S
C879 C881 1.561 . S
C879 C882 1.526 . S
C880 H864 0.959 . S
C880 H865 0.959 . S
C880 H866 0.961 . S
C880 C879 1.502 . S
C881 H867 0.960 . S
C881 H868 0.961 . S
C881 H869 0.959 . S
C881 C879 1.561 . S
C882 C879 1.526 . S
C882 C883 1.396 . S
C882 C887 1.390 . S
C883 C877 1.465 . S
C883 C882 1.396 . S
C883 C884 1.399 . S
C884 H870 0.929 . S
C884 C883 1.399 . S
C884 C885 1.385 . S
C885 H871 0.931 . S
C885 C884 1.385 . S
C885 C886 1.389 . S
C886 C885 1.389 . S
C886 C887 1.387 . S
C887 H872 0.930 . S
C887 C882 1.390 . S
C887 C886 1.387 . S
H888 C900 0.930 . S
H889 C902 0.930 . S
H890 C903 0.930 . S
H891 C907 0.959 . S
H892 C907 0.959 . S
H893 C907 0.961 . S
H894 C908 0.960 . S
H895 C908 0.961 . S
H896 C908 0.959 . S
H897 C911 0.929 . S
H898 C912 0.931 . S
H899 C914 0.930 . S
C900 H888 0.930 . S
C900 C901 1.399 . S
C900 C905 1.399 . S
C901 C900 1.399 . S
C901 C902 1.376 1_554 S
C902 H889 0.930 . S
C902 C901 1.376 1_556 S
C902 C903 1.388 . S
C903 H890 0.930 . S
C903 C902 1.388 . S
C903 C904 1.390 . S
C904 C903 1.390 . S
C904 C905 1.394 1_556 S
C904 C910 1.465 . S
C905 C900 1.399 . S
C905 C904 1.394 1_554 S
C905 C906 1.516 . S
C906 C905 1.516 . S
C906 C907 1.502 . S
C906 C908 1.561 . S
C906 C909 1.526 . S
C907 H891 0.959 . S
C907 H892 0.959 . S
C907 H893 0.961 . S
C907 C906 1.502 . S
C908 H894 0.960 . S
C908 H895 0.961 . S
C908 H896 0.959 . S
C908 C906 1.561 . S
C909 C906 1.526 . S
C909 C910 1.396 1_554 S
C909 C914 1.390 . S
C910 C904 1.465 . S
C910 C909 1.396 1_556 S
C910 C911 1.399 . S
C911 H897 0.929 . S
C911 C910 1.399 . S
C911 C912 1.385 . S
C912 H898 0.931 . S
C912 C911 1.385 . S
C912 C913 1.389 1_556 S
C913 C912 1.389 1_554 S
C913 C914 1.387 . S
C914 H899 0.930 . S
C914 C909 1.390 . S
C914 C913 1.387 . S
H915 C927 0.930 . S
H916 C929 0.930 . S
H917 C930 0.930 . S
H918 C934 0.959 . S
H919 C934 0.959 . S
H920 C934 0.961 . S
H921 C935 0.960 . S
H922 C935 0.961 . S
H923 C935 0.959 . S
H924 C938 0.929 . S
H925 C939 0.931 . S
H926 C941 0.930 . S
C927 H915 0.930 . S
C927 C928 1.399 . S
C927 C932 1.399 . S
C928 C927 1.399 . S
C928 C929 1.376 1_554 S
C929 H916 0.930 . S
C929 C928 1.376 1_556 S
C929 C930 1.388 . S
C930 H917 0.930 . S
C930 C929 1.388 . S
C930 C931 1.390 . S
C931 C930 1.390 . S
C931 C932 1.394 1_556 S
C931 C937 1.465 . S
C932 C927 1.399 . S
C932 C931 1.394 1_554 S
C932 C933 1.516 . S
C933 C932 1.516 . S
C933 C934 1.502 . S
C933 C935 1.561 . S
C933 C936 1.526 . S
C934 H918 0.959 . S
C934 H919 0.959 . S
C934 H920 0.961 . S
C934 C933 1.502 . S
C935 H921 0.960 . S
C935 H922 0.961 . S
C935 H923 0.959 . S
C935 C933 1.561 . S
C936 C933 1.526 . S
C936 C937 1.396 1_554 S
C936 C941 1.390 . S
C937 C931 1.465 . S
C937 C936 1.396 1_556 S
C937 C938 1.399 . S
C938 H924 0.929 . S
C938 C937 1.399 . S
C938 C939 1.385 . S
C939 H925 0.931 . S
C939 C938 1.385 . S
C939 C940 1.389 1_556 S
C940 C939 1.389 1_554 S
C940 C941 1.387 . S
C941 H926 0.930 . S
C941 C936 1.390 . S
C941 C940 1.387 . S
H942 C954 0.930 . S
H943 C956 0.930 . S
H944 C957 0.930 . S
H945 C961 0.959 . S
H946 C961 0.959 . S
H947 C961 0.961 . S
H948 C962 0.960 . S
H949 C962 0.961 . S
H950 C962 0.959 . S
H951 C965 0.929 . S
H952 C966 0.931 . S
H953 C968 0.930 . S
C954 H942 0.930 . S
C954 C955 1.399 . S
C954 C959 1.399 . S
C955 C954 1.399 . S
C955 C956 1.376 1_554 S
C956 H943 0.930 . S
C956 C955 1.376 1_556 S
C956 C957 1.388 . S
C957 H944 0.930 . S
C957 C956 1.388 . S
C957 C958 1.390 . S
C958 C957 1.390 . S
C958 C959 1.394 1_556 S
C958 C964 1.465 . S
C959 C954 1.399 . S
C959 C958 1.394 1_554 S
C959 C960 1.516 . S
C960 C959 1.516 . S
C960 C961 1.502 . S
C960 C962 1.561 . S
C960 C963 1.526 . S
C961 H945 0.959 . S
C961 H946 0.959 . S
C961 H947 0.961 . S
C961 C960 1.502 . S
C962 H948 0.960 . S
C962 H949 0.961 . S
C962 H950 0.959 . S
C962 C960 1.561 . S
C963 C960 1.526 . S
C963 C964 1.396 1_554 S
C963 C968 1.390 . S
C964 C958 1.465 . S
C964 C963 1.396 1_556 S
C964 C965 1.399 . S
C965 H951 0.929 . S
C965 C964 1.399 . S
C965 C966 1.385 . S
C966 H952 0.931 . S
C966 C965 1.385 . S
C966 C967 1.389 1_556 S
C967 C966 1.389 1_554 S
C967 C968 1.387 . S
C968 H953 0.930 . S
C968 C963 1.390 . S
C968 C967 1.387 . S
H969 C981 0.930 . S
H970 C983 0.930 . S
H971 C984 0.930 . S
H972 C988 0.959 . S
H973 C988 0.959 . S
H974 C988 0.961 . S
H975 C989 0.960 . S
H976 C989 0.961 . S
H977 C989 0.959 . S
H978 C992 0.929 . S
H979 C993 0.931 . S
H980 C995 0.930 . S
C981 H969 0.930 . S
C981 C982 1.399 . S
C981 C986 1.399 . S
C982 C981 1.399 . S
C982 C983 1.376 1_554 S
C983 H970 0.930 . S
C983 C982 1.376 1_556 S
C983 C984 1.388 . S
C984 H971 0.930 . S
C984 C983 1.388 . S
C984 C985 1.390 . S
C985 C984 1.390 . S
C985 C986 1.394 1_556 S
C985 C991 1.465 . S
C986 C981 1.399 . S
C986 C985 1.394 1_554 S
C986 C987 1.516 . S
C987 C986 1.516 . S
C987 C988 1.502 . S
C987 C989 1.561 . S
C987 C990 1.526 . S
C988 H972 0.959 . S
C988 H973 0.959 . S
C988 H974 0.961 . S
C988 C987 1.502 . S
C989 H975 0.960 . S
C989 H976 0.961 . S
C989 H977 0.959 . S
C989 C987 1.561 . S
C990 C987 1.526 . S
C990 C991 1.396 1_554 S
C990 C995 1.390 . S
C991 C985 1.465 . S
C991 C990 1.396 1_556 S
C991 C992 1.399 . S
C992 H978 0.929 . S
C992 C991 1.399 . S
C992 C993 1.385 . S
C993 H979 0.931 . S
C993 C992 1.385 . S
C993 C994 1.389 1_556 S
C994 C993 1.389 1_554 S
C994 C995 1.387 . S
C995 H980 0.930 . S
C995 C990 1.390 . S
C995 C994 1.387 . S
H996 C1008 0.930 . S
H997 C1010 0.930 . S
H998 C1011 0.930 . S
H999 C1015 0.959 . S
H1000 C1015 0.959 . S
H1001 C1015 0.961 . S
H1002 C1016 0.960 . S
H1003 C1016 0.961 . S
H1004 C1016 0.959 1_655 S
H1005 C1019 0.929 . S
H1006 C1020 0.931 . S
H1007 C1022 0.930 . S
C1008 H996 0.930 . S
C1008 C1009 1.399 . S
C1008 C1013 1.399 . S
C1009 C1008 1.399 . S
C1009 C1010 1.376 1_455 S
C1010 H997 0.930 . S
C1010 C1009 1.376 1_655 S
C1010 C1011 1.388 . S
C1011 H998 0.930 . S
C1011 C1010 1.388 . S
C1011 C1012 1.390 1_655 S
C1012 C1011 1.390 1_455 S
C1012 C1013 1.394 . S
C1012 C1018 1.465 . S
C1013 C1008 1.399 . S
C1013 C1012 1.394 . S
C1013 C1014 1.516 . S
C1014 C1013 1.516 . S
C1014 C1015 1.502 . S
C1014 C1016 1.561 . S
C1014 C1017 1.526 . S
C1015 H999 0.959 . S
C1015 H1000 0.959 . S
C1015 H1001 0.961 . S
C1015 C1014 1.502 . S
C1016 H1002 0.960 . S
C1016 H1003 0.961 . S
C1016 H1004 0.959 1_455 S
C1016 C1014 1.561 . S
C1017 C1014 1.526 . S
C1017 C1018 1.396 . S
C1017 C1022 1.390 . S
C1018 C1012 1.465 . S
C1018 C1017 1.396 . S
C1018 C1019 1.399 1_455 S
C1019 H1005 0.929 . S
C1019 C1018 1.399 1_655 S
C1019 C1020 1.385 . S
C1020 H1006 0.931 . S
C1020 C1019 1.385 . S
C1020 C1021 1.389 1_655 S
C1021 C1020 1.389 1_455 S
C1021 C1022 1.387 . S
C1022 H1007 0.930 . S
C1022 C1017 1.390 . S
C1022 C1021 1.387 . S
H1023 C1035 0.930 . S
H1024 C1037 0.930 . S
H1025 C1038 0.930 . S
H1026 C1042 0.959 . S
H1027 C1042 0.959 . S
H1028 C1042 0.961 . S
H1029 C1043 0.960 . S
H1030 C1043 0.961 . S
H1031 C1043 0.959 . S
H1032 C1046 0.929 . S
H1033 C1047 0.931 . S
H1034 C1049 0.930 . S
C1035 H1023 0.930 . S
C1035 C1036 1.399 1_565 S
C1035 C1040 1.399 . S
C1036 C1035 1.399 1_545 S
C1036 C1037 1.376 . S
C1037 H1024 0.930 . S
C1037 C1036 1.376 . S
C1037 C1038 1.388 . S
C1038 H1025 0.930 . S
C1038 C1037 1.388 . S
C1038 C1039 1.390 . S
C1039 C1038 1.390 . S
C1039 C1040 1.394 1_545 S
C1039 C1045 1.465 . S
C1040 C1035 1.399 . S
C1040 C1039 1.394 1_565 S
C1040 C1041 1.516 . S
C1041 C1040 1.516 . S
C1041 C1042 1.502 . S
C1041 C1043 1.561 . S
C1041 C1044 1.526 . S
C1042 H1026 0.959 . S
C1042 H1027 0.959 . S
C1042 H1028 0.961 . S
C1042 C1041 1.502 . S
C1043 H1029 0.960 . S
C1043 H1030 0.961 . S
C1043 H1031 0.959 . S
C1043 C1041 1.561 . S
C1044 C1041 1.526 . S
C1044 C1045 1.396 1_565 S
C1044 C1049 1.390 . S
C1045 C1039 1.465 . S
C1045 C1044 1.396 1_545 S
C1045 C1046 1.399 . S
C1046 H1032 0.929 . S
C1046 C1045 1.399 . S
C1046 C1047 1.385 . S
C1047 H1033 0.931 . S
C1047 C1046 1.385 . S
C1047 C1048 1.389 . S
C1048 C1047 1.389 . S
C1048 C1049 1.387 1_545 S
C1049 H1034 0.930 . S
C1049 C1044 1.390 . S
C1049 C1048 1.387 1_565 S
H1050 C1062 0.930 . S
H1051 C1064 0.930 . S
H1052 C1065 0.930 . S
H1053 C1069 0.959 . S
H1054 C1069 0.959 . S
H1055 C1069 0.961 . S
H1056 C1070 0.960 . S
H1057 C1070 0.961 . S
H1058 C1070 0.959 . S
H1059 C1073 0.929 . S
H1060 C1074 0.931 . S
H1061 C1076 0.930 . S
C1062 H1050 0.930 . S
C1062 C1063 1.399 . S
C1062 C1067 1.399 . S
C1063 C1062 1.399 . S
C1063 C1064 1.376 . S
C1064 H1051 0.930 . S
C1064 C1063 1.376 . S
C1064 C1065 1.388 . S
C1065 H1052 0.930 . S
C1065 C1064 1.388 . S
C1065 C1066 1.390 . S
C1066 C1065 1.390 . S
C1066 C1067 1.394 . S
C1066 C1072 1.465 . S
C1067 C1062 1.399 . S
C1067 C1066 1.394 . S
C1067 C1068 1.516 . S
C1068 C1067 1.516 . S
C1068 C1069 1.502 1_455 S
C1068 C1070 1.561 . S
C1068 C1071 1.526 . S
C1069 H1053 0.959 . S
C1069 H1054 0.959 . S
C1069 H1055 0.961 . S
C1069 C1068 1.502 1_655 S
C1070 H1056 0.960 . S
C1070 H1057 0.961 . S
C1070 H1058 0.959 . S
C1070 C1068 1.561 . S
C1071 C1068 1.526 . S
C1071 C1072 1.396 . S
C1071 C1076 1.390 . S
C1072 C1066 1.465 . S
C1072 C1071 1.396 . S
C1072 C1073 1.399 . S
C1073 H1059 0.929 . S
C1073 C1072 1.399 . S
C1073 C1074 1.385 . S
C1074 H1060 0.931 . S
C1074 C1073 1.385 . S
C1074 C1075 1.389 . S
C1075 C1074 1.389 . S
C1075 C1076 1.387 . S
C1076 H1061 0.930 . S
C1076 C1071 1.390 . S
C1076 C1075 1.387 . S
H1077 C1089 0.930 . S
H1078 C1091 0.930 . S
H1079 C1092 0.930 . S
H1080 C1096 0.959 . S
H1081 C1096 0.959 . S
H1082 C1096 0.961 . S
H1083 C1097 0.960 . S
H1084 C1097 0.961 . S
H1085 C1097 0.959 . S
H1086 C1100 0.929 . S
H1087 C1101 0.931 . S
H1088 C1103 0.930 . S
C1089 H1077 0.930 . S
C1089 C1090 1.399 1_565 S
C1089 C1094 1.399 . S
C1090 C1089 1.399 1_545 S
C1090 C1091 1.376 . S
C1091 H1078 0.930 . S
C1091 C1090 1.376 . S
C1091 C1092 1.388 . S
C1092 H1079 0.930 . S
C1092 C1091 1.388 . S
C1092 C1093 1.390 . S
C1093 C1092 1.390 . S
C1093 C1094 1.394 1_545 S
C1093 C1099 1.465 . S
C1094 C1089 1.399 . S
C1094 C1093 1.394 1_565 S
C1094 C1095 1.516 . S
C1095 C1094 1.516 . S
C1095 C1096 1.502 . S
C1095 C1097 1.561 . S
C1095 C1098 1.526 . S
C1096 H1080 0.959 . S
C1096 H1081 0.959 . S
C1096 H1082 0.961 . S
C1096 C1095 1.502 . S
C1097 H1083 0.960 . S
C1097 H1084 0.961 . S
C1097 H1085 0.959 . S
C1097 C1095 1.561 . S
C1098 C1095 1.526 . S
C1098 C1099 1.396 1_565 S
C1098 C1103 1.390 . S
C1099 C1093 1.465 . S
C1099 C1098 1.396 1_545 S
C1099 C1100 1.399 . S
C1100 H1086 0.929 . S
C1100 C1099 1.399 . S
C1100 C1101 1.385 . S
C1101 H1087 0.931 . S
C1101 C1100 1.385 . S
C1101 C1102 1.389 . S
C1102 C1101 1.389 . S
C1102 C1103 1.387 1_545 S
C1103 H1088 0.930 . S
C1103 C1098 1.390 . S
C1103 C1102 1.387 1_565 S
H1104 C1116 0.930 1_655 S
H1105 C1118 0.930 . S
H1106 C1119 0.930 . S
H1107 C1123 0.959 . S
H1108 C1123 0.959 . S
H1109 C1123 0.961 . S
H1110 C1124 0.960 . S
H1111 C1124 0.961 . S
H1112 C1124 0.959 . S
H1113 C1127 0.929 . S
H1114 C1128 0.931 . S
H1115 C1130 0.930 1_655 S
C1116 H1104 0.930 1_455 S
C1116 C1117 1.399 . S
C1116 C1121 1.399 . S
C1117 C1116 1.399 . S
C1117 C1118 1.376 . S
C1118 H1105 0.930 . S
C1118 C1117 1.376 . S
C1118 C1119 1.388 . S
C1119 H1106 0.930 . S
C1119 C1118 1.388 . S
C1119 C1120 1.390 . S
C1120 C1119 1.390 . S
C1120 C1121 1.394 . S
C1120 C1126 1.465 . S
C1121 C1116 1.399 . S
C1121 C1120 1.394 . S
C1121 C1122 1.516 1_455 S
C1122 C1121 1.516 1_655 S
C1122 C1123 1.502 . S
C1122 C1124 1.561 1_655 S
C1122 C1125 1.526 1_655 S
C1123 H1107 0.959 . S
C1123 H1108 0.959 . S
C1123 H1109 0.961 . S
C1123 C1122 1.502 . S
C1124 H1110 0.960 . S
C1124 H1111 0.961 . S
C1124 H1112 0.959 . S
C1124 C1122 1.561 1_455 S
C1125 C1122 1.526 1_455 S
C1125 C1126 1.396 . S
C1125 C1130 1.390 . S
C1126 C1120 1.465 . S
C1126 C1125 1.396 . S
C1126 C1127 1.399 . S
C1127 H1113 0.929 . S
C1127 C1126 1.399 . S
C1127 C1128 1.385 . S
C1128 H1114 0.931 . S
C1128 C1127 1.385 . S
C1128 C1129 1.389 . S
C1129 C1128 1.389 . S
C1129 C1130 1.387 . S
C1130 H1115 0.930 1_455 S
C1130 C1125 1.390 . S
C1130 C1129 1.387 . S
H1131 C1143 0.930 . S
H1132 C1145 0.930 . S
H1133 C1146 0.930 . S
H1134 C1150 0.959 . S
H1135 C1150 0.959 . S
H1136 C1150 0.961 . S
H1137 C1151 0.960 . S
H1138 C1151 0.961 . S
H1139 C1151 0.959 . S
H1140 C1154 0.929 . S
H1141 C1155 0.931 . S
H1142 C1157 0.930 . S
C1143 H1131 0.930 . S
C1143 C1144 1.399 1_565 S
C1143 C1148 1.399 . S
C1144 C1143 1.399 1_545 S
C1144 C1145 1.376 . S
C1145 H1132 0.930 . S
C1145 C1144 1.376 . S
C1145 C1146 1.388 . S
C1146 H1133 0.930 . S
C1146 C1145 1.388 . S
C1146 C1147 1.390 . S
C1147 C1146 1.390 . S
C1147 C1148 1.394 1_545 S
C1147 C1153 1.465 . S
C1148 C1143 1.399 . S
C1148 C1147 1.394 1_565 S
C1148 C1149 1.516 . S
C1149 C1148 1.516 . S
C1149 C1150 1.502 . S
C1149 C1151 1.561 . S
C1149 C1152 1.526 . S
C1150 H1134 0.959 . S
C1150 H1135 0.959 . S
C1150 H1136 0.961 . S
C1150 C1149 1.502 . S
C1151 H1137 0.960 . S
C1151 H1138 0.961 . S
C1151 H1139 0.959 . S
C1151 C1149 1.561 . S
C1152 C1149 1.526 . S
C1152 C1153 1.396 1_565 S
C1152 C1157 1.390 . S
C1153 C1147 1.465 . S
C1153 C1152 1.396 1_545 S
C1153 C1154 1.399 . S
C1154 H1140 0.929 . S
C1154 C1153 1.399 . S
C1154 C1155 1.385 . S
C1155 H1141 0.931 . S
C1155 C1154 1.385 . S
C1155 C1156 1.389 . S
C1156 C1155 1.389 . S
C1156 C1157 1.387 1_545 S
C1157 H1142 0.930 . S
C1157 C1152 1.390 . S
C1157 C1156 1.387 1_565 S
H1158 C1170 0.930 . S
H1159 C1172 0.930 . S
H1160 C1173 0.930 . S
H1161 C1177 0.959 . S
H1162 C1177 0.959 . S
H1163 C1177 0.961 . S
H1164 C1178 0.960 . S
H1165 C1178 0.961 . S
H1166 C1178 0.959 . S
H1167 C1181 0.929 . S
H1168 C1182 0.931 . S
H1169 C1184 0.930 . S
C1170 H1158 0.930 . S
C1170 C1171 1.399 . S
C1170 C1175 1.399 . S
C1171 C1170 1.399 . S
C1171 C1172 1.376 . S
C1172 H1159 0.930 . S
C1172 C1171 1.376 . S
C1172 C1173 1.388 . S
C1173 H1160 0.930 . S
C1173 C1172 1.388 . S
C1173 C1174 1.390 . S
C1174 C1173 1.390 . S
C1174 C1175 1.394 . S
C1174 C1180 1.465 . S
C1175 C1170 1.399 . S
C1175 C1174 1.394 . S
C1175 C1176 1.516 . S
C1176 C1175 1.516 . S
C1176 C1177 1.502 1_455 S
C1176 C1178 1.561 . S
C1176 C1179 1.526 . S
C1177 H1161 0.959 . S
C1177 H1162 0.959 . S
C1177 H1163 0.961 . S
C1177 C1176 1.502 1_655 S
C1178 H1164 0.960 . S
C1178 H1165 0.961 . S
C1178 H1166 0.959 . S
C1178 C1176 1.561 . S
C1179 C1176 1.526 . S
C1179 C1180 1.396 . S
C1179 C1184 1.390 . S
C1180 C1174 1.465 . S
C1180 C1179 1.396 . S
C1180 C1181 1.399 . S
C1181 H1167 0.929 . S
C1181 C1180 1.399 . S
C1181 C1182 1.385 . S
C1182 H1168 0.931 . S
C1182 C1181 1.385 . S
C1182 C1183 1.389 . S
C1183 C1182 1.389 . S
C1183 C1184 1.387 . S
C1184 H1169 0.930 . S
C1184 C1179 1.390 . S
C1184 C1183 1.387 . S
H1185 C1197 0.930 . S
H1186 C1199 0.930 . S
H1187 C1200 0.930 . S
H1188 C1204 0.959 . S
H1189 C1204 0.959 . S
H1190 C1204 0.961 . S
H1191 C1205 0.960 . S
H1192 C1205 0.961 . S
H1193 C1205 0.959 . S
H1194 C1208 0.929 . S
H1195 C1209 0.931 . S
H1196 C1211 0.930 . S
C1197 H1185 0.930 . S
C1197 C1198 1.399 1_565 S
C1197 C1202 1.399 . S
C1198 C1197 1.399 1_545 S
C1198 C1199 1.376 . S
C1199 H1186 0.930 . S
C1199 C1198 1.376 . S
C1199 C1200 1.388 . S
C1200 H1187 0.930 . S
C1200 C1199 1.388 . S
C1200 C1201 1.390 . S
C1201 C1200 1.390 . S
C1201 C1202 1.394 1_545 S
C1201 C1207 1.465 . S
C1202 C1197 1.399 . S
C1202 C1201 1.394 1_565 S
C1202 C1203 1.516 . S
C1203 C1202 1.516 . S
C1203 C1204 1.502 . S
C1203 C1205 1.561 . S
C1203 C1206 1.526 . S
C1204 H1188 0.959 . S
C1204 H1189 0.959 . S
C1204 H1190 0.961 . S
C1204 C1203 1.502 . S
C1205 H1191 0.960 . S
C1205 H1192 0.961 . S
C1205 H1193 0.959 . S
C1205 C1203 1.561 . S
C1206 C1203 1.526 . S
C1206 C1207 1.396 1_565 S
C1206 C1211 1.390 . S
C1207 C1201 1.465 . S
C1207 C1206 1.396 1_545 S
C1207 C1208 1.399 . S
C1208 H1194 0.929 . S
C1208 C1207 1.399 . S
C1208 C1209 1.385 . S
C1209 H1195 0.931 . S
C1209 C1208 1.385 . S
C1209 C1210 1.389 . S
C1210 C1209 1.389 . S
C1210 C1211 1.387 1_545 S
C1211 H1196 0.930 . S
C1211 C1206 1.390 . S
C1211 C1210 1.387 1_565 S
H1212 C1224 0.930 . S
H1213 C1226 0.919 1_655 S
H1214 C1227 0.930 . S
H1215 C1231 0.959 . S
H1216 C1231 0.959 . S
H1217 C1231 0.961 . S
H1218 C1232 0.960 . S
H1219 C1232 0.961 . S
H1220 C1232 0.959 1_655 S
H1221 C1235 0.929 1_655 S
H1222 C1236 0.931 . S
H1223 C1238 0.930 . S
C1224 H1212 0.930 . S
C1224 C1225 1.399 . S
C1224 C1229 1.399 . S
C1225 C1224 1.399 . S
C1225 C1226 1.390 . S
C1226 H1213 0.919 1_455 S
C1226 C1225 1.390 . S
C1226 C1227 1.387 1_455 S
C1227 H1214 0.930 . S
C1227 C1226 1.387 1_655 S
C1227 C1228 1.390 1_655 S
C1228 C1227 1.390 1_455 S
C1228 C1229 1.394 . S
C1228 C1234 1.465 . S
C1229 C1224 1.399 . S
C1229 C1228 1.394 . S
C1229 C1230 1.516 . S
C1230 C1229 1.516 . S
C1230 C1231 1.502 . S
C1230 C1232 1.561 . S
C1230 C1233 1.526 . S
C1231 H1215 0.959 . S
C1231 H1216 0.959 . S
C1231 H1217 0.961 . S
C1231 C1230 1.502 . S
C1232 H1218 0.960 . S
C1232 H1219 0.961 . S
C1232 H1220 0.959 1_455 S
C1232 C1230 1.561 . S
C1233 C1230 1.526 . S
C1233 C1234 1.396 . S
C1233 C1238 1.390 . S
C1234 C1228 1.465 . S
C1234 C1233 1.396 . S
C1234 C1235 1.399 . S
C1235 H1221 0.929 1_455 S
C1235 C1234 1.399 . S
C1235 C1236 1.385 . S
C1236 H1222 0.931 . S
C1236 C1235 1.385 . S
C1236 C1237 1.389 . S
C1237 C1236 1.389 . S
C1237 C1238 1.387 . S
C1238 H1223 0.930 . S
C1238 C1233 1.390 . S
C1238 C1237 1.387 . S
H1239 C1251 0.930 . S
H1240 C1253 0.930 . S
H1241 C1254 0.930 . S
H1242 C1258 0.959 . S
H1243 C1258 0.959 . S
H1244 C1258 0.961 . S
H1245 C1259 0.960 . S
H1246 C1259 0.961 . S
H1247 C1259 0.959 . S
H1248 C1262 0.929 . S
H1249 C1263 0.931 . S
H1250 C1265 0.930 . S
C1251 H1239 0.930 . S
C1251 C1252 1.399 1_545 S
C1251 C1256 1.399 . S
C1252 C1251 1.399 1_565 S
C1252 C1253 1.376 . S
C1253 H1240 0.930 . S
C1253 C1252 1.376 . S
C1253 C1254 1.388 . S
C1254 H1241 0.930 . S
C1254 C1253 1.388 . S
C1254 C1255 1.390 . S
C1255 C1254 1.390 . S
C1255 C1256 1.394 1_565 S
C1255 C1261 1.465 . S
C1256 C1251 1.399 . S
C1256 C1255 1.394 1_545 S
C1256 C1257 1.516 . S
C1257 C1256 1.516 . S
C1257 C1258 1.502 . S
C1257 C1259 1.561 . S
C1257 C1260 1.526 . S
C1258 H1242 0.959 . S
C1258 H1243 0.959 . S
C1258 H1244 0.961 . S
C1258 C1257 1.502 . S
C1259 H1245 0.960 . S
C1259 H1246 0.961 . S
C1259 H1247 0.959 . S
C1259 C1257 1.561 . S
C1260 C1257 1.526 . S
C1260 C1261 1.396 1_545 S
C1260 C1265 1.390 . S
C1261 C1255 1.465 . S
C1261 C1260 1.396 1_565 S
C1261 C1262 1.399 . S
C1262 H1248 0.929 . S
C1262 C1261 1.399 . S
C1262 C1263 1.385 . S
C1263 H1249 0.931 . S
C1263 C1262 1.385 . S
C1263 C1264 1.389 . S
C1264 C1263 1.389 . S
C1264 C1265 1.387 1_565 S
C1265 H1250 0.930 . S
C1265 C1260 1.390 . S
C1265 C1264 1.387 1_545 S
H1266 C1278 0.930 . S
H1267 C1280 0.930 . S
H1268 C1281 0.930 . S
H1269 C1285 0.959 1_655 S
H1270 C1285 0.959 . S
H1271 C1285 0.961 . S
H1272 C1286 0.960 . S
H1273 C1286 0.961 . S
H1274 C1286 0.959 . S
H1275 C1289 0.929 . S
H1276 C1290 0.931 . S
H1277 C1292 0.930 . S
C1278 H1266 0.930 . S
C1278 C1279 1.399 . S
C1278 C1283 1.399 . S
C1279 C1278 1.399 . S
C1279 C1280 1.376 . S
C1280 H1267 0.930 . S
C1280 C1279 1.376 . S
C1280 C1281 1.388 . S
C1281 H1268 0.930 . S
C1281 C1280 1.388 . S
C1281 C1282 1.390 . S
C1282 C1281 1.390 . S
C1282 C1283 1.394 . S
C1282 C1288 1.465 . S
C1283 C1278 1.399 . S
C1283 C1282 1.394 . S
C1283 C1284 1.516 . S
C1284 C1283 1.516 . S
C1284 C1285 1.502 . S
C1284 C1286 1.561 . S
C1284 C1287 1.526 . S
C1285 H1269 0.959 1_455 S
C1285 H1270 0.959 . S
C1285 H1271 0.961 . S
C1285 C1284 1.502 . S
C1286 H1272 0.960 . S
C1286 H1273 0.961 . S
C1286 H1274 0.959 . S
C1286 C1284 1.561 . S
C1287 C1284 1.526 . S
C1287 C1288 1.396 . S
C1287 C1292 1.390 . S
C1288 C1282 1.465 . S
C1288 C1287 1.396 . S
C1288 C1289 1.399 . S
C1289 H1275 0.929 . S
C1289 C1288 1.399 . S
C1289 C1290 1.385 . S
C1290 H1276 0.931 . S
C1290 C1289 1.385 . S
C1290 C1291 1.389 . S
C1291 C1290 1.389 . S
C1291 C1292 1.387 . S
C1292 H1277 0.930 . S
C1292 C1287 1.390 . S
C1292 C1291 1.387 . S
H1293 C1305 0.930 . S
H1294 C1307 0.930 . S
H1295 C1308 0.930 . S
H1296 C1312 0.959 . S
H1297 C1312 0.959 . S
H1298 C1312 0.961 . S
H1299 C1313 0.960 . S
H1300 C1313 0.961 . S
H1301 C1313 0.959 . S
H1302 C1316 0.929 . S
H1303 C1317 0.931 . S
H1304 C1319 0.930 . S
C1305 H1293 0.930 . S
C1305 C1306 1.399 1_565 S
C1305 C1310 1.399 . S
C1306 C1305 1.399 1_545 S
C1306 C1307 1.376 . S
C1307 H1294 0.930 . S
C1307 C1306 1.376 . S
C1307 C1308 1.388 . S
C1308 H1295 0.930 . S
C1308 C1307 1.388 . S
C1308 C1309 1.390 . S
C1309 C1308 1.390 . S
C1309 C1310 1.394 1_545 S
C1309 C1315 1.465 . S
C1310 C1305 1.399 . S
C1310 C1309 1.394 1_565 S
C1310 C1311 1.516 . S
C1311 C1310 1.516 . S
C1311 C1312 1.502 . S
C1311 C1313 1.561 . S
C1311 C1314 1.526 . S
C1312 H1296 0.959 . S
C1312 H1297 0.959 . S
C1312 H1298 0.961 . S
C1312 C1311 1.502 . S
C1313 H1299 0.960 . S
C1313 H1300 0.961 . S
C1313 H1301 0.959 . S
C1313 C1311 1.561 . S
C1314 C1311 1.526 . S
C1314 C1315 1.396 1_565 S
C1314 C1319 1.390 . S
C1315 C1309 1.465 . S
C1315 C1314 1.396 1_545 S
C1315 C1316 1.399 . S
C1316 H1302 0.929 . S
C1316 C1315 1.399 . S
C1316 C1317 1.385 . S
C1317 H1303 0.931 . S
C1317 C1316 1.385 . S
C1317 C1318 1.389 . S
C1318 C1317 1.389 . S
C1318 C1319 1.387 1_545 S
C1319 H1304 0.930 . S
C1319 C1314 1.390 . S
C1319 C1318 1.387 1_565 S
H1320 C1332 0.930 . S
H1321 C1334 0.930 . S
H1322 C1335 0.930 . S
H1323 C1339 0.959 . S
H1324 C1339 0.959 . S
H1325 C1339 0.961 . S
H1326 C1340 0.960 . S
H1327 C1340 0.961 . S
H1328 C1340 0.959 . S
H1329 C1343 0.929 . S
H1330 C1344 0.950 . S
H1331 C1346 0.930 . S
C1332 H1320 0.930 . S
C1332 C1333 1.399 . S
C1332 C1337 1.399 . S
C1333 C1332 1.399 . S
C1333 C1334 1.376 1_455 S
C1334 H1321 0.930 . S
C1334 C1333 1.376 1_655 S
C1334 C1335 1.388 . S
C1335 H1322 0.930 . S
C1335 C1334 1.388 . S
C1335 C1336 1.390 1_655 S
C1336 C1335 1.390 1_455 S
C1336 C1337 1.394 . S
C1336 C1342 1.465 . S
C1337 C1332 1.399 . S
C1337 C1336 1.394 . S
C1337 C1338 1.516 . S
C1338 C1337 1.516 . S
C1338 C1339 1.502 . S
C1338 C1340 1.561 . S
C1338 C1341 1.526 . S
C1339 H1323 0.959 . S
C1339 H1324 0.959 . S
C1339 H1325 0.961 . S
C1339 C1338 1.502 . S
C1340 H1326 0.960 . S
C1340 H1327 0.961 . S
C1340 H1328 0.959 . S
C1340 C1338 1.561 . S
C1341 C1338 1.526 . S
C1341 C1342 1.396 . S
C1341 C1346 1.390 . S
C1342 C1336 1.465 . S
C1342 C1341 1.396 . S
C1342 C1343 1.399 1_455 S
C1343 H1329 0.929 . S
C1343 C1342 1.399 1_655 S
C1343 C1344 1.394 . S
C1344 H1330 0.950 . S
C1344 C1343 1.394 . S
C1344 C1345 1.363 1_655 S
C1345 C1344 1.363 1_455 S
C1345 C1346 1.387 . S
C1346 H1331 0.930 . S
C1346 C1341 1.390 . S
C1346 C1345 1.387 . S
H1347 C1359 0.930 . S
H1348 C1361 0.930 . S
H1349 C1362 0.930 . S
H1350 C1366 0.959 . S
H1351 C1366 0.959 . S
H1352 C1366 0.961 . S
H1353 C1367 0.960 . S
H1354 C1367 0.961 . S
H1355 C1367 0.959 . S
H1356 C1370 0.929 . S
H1357 C1371 0.931 . S
H1358 C1373 0.930 . S
C1359 H1347 0.930 . S
C1359 C1360 1.388 1_545 S
C1359 C1364 1.399 . S
C1360 C1359 1.388 1_565 S
C1360 C1361 1.390 . S
C1361 H1348 0.930 . S
C1361 C1360 1.390 . S
C1361 C1362 1.388 . S
C1362 H1349 0.930 . S
C1362 C1361 1.388 . S
C1362 C1363 1.390 . S
C1363 C1362 1.390 . S
C1363 C1364 1.394 1_565 S
C1363 C1369 1.465 . S
C1364 C1359 1.399 . S
C1364 C1363 1.394 1_545 S
C1364 C1365 1.516 . S
C1365 C1364 1.516 . S
C1365 C1366 1.502 . S
C1365 C1367 1.561 . S
C1365 C1368 1.526 . S
C1366 H1350 0.959 . S
C1366 H1351 0.959 . S
C1366 H1352 0.961 . S
C1366 C1365 1.502 . S
C1367 H1353 0.960 . S
C1367 H1354 0.961 . S
C1367 H1355 0.959 . S
C1367 C1365 1.561 . S
C1368 C1365 1.526 . S
C1368 C1369 1.396 1_545 S
C1368 C1373 1.390 . S
C1369 C1363 1.465 . S
C1369 C1368 1.396 1_565 S
C1369 C1370 1.399 . S
C1370 H1356 0.929 . S
C1370 C1369 1.399 . S
C1370 C1371 1.385 . S
C1371 H1357 0.931 . S
C1371 C1370 1.385 . S
C1371 C1372 1.389 . S
C1372 C1371 1.389 . S
C1372 C1373 1.387 1_565 S
C1373 H1358 0.930 . S
C1373 C1368 1.390 . S
C1373 C1372 1.387 1_545 S
H1374 C1386 0.930 . S
H1375 C1388 0.930 . S
H1376 C1389 0.930 . S
H1377 C1393 0.959 . S
H1378 C1393 0.959 . S
H1379 C1393 0.961 . S
H1380 C1394 0.960 . S
H1381 C1394 0.961 . S
H1382 C1394 0.959 . S
H1383 C1397 0.929 . S
H1384 C1398 0.931 . S
H1385 C1400 0.930 . S
C1386 H1374 0.930 . S
C1386 C1387 1.399 . S
C1386 C1391 1.399 . S
C1387 C1386 1.399 . S
C1387 C1388 1.376 1_455 S
C1388 H1375 0.930 . S
C1388 C1387 1.376 1_655 S
C1388 C1389 1.388 . S
C1389 H1376 0.930 . S
C1389 C1388 1.388 . S
C1389 C1390 1.390 1_655 S
C1390 C1389 1.390 1_455 S
C1390 C1391 1.394 . S
C1390 C1396 1.465 . S
C1391 C1386 1.399 . S
C1391 C1390 1.394 . S
C1391 C1392 1.516 . S
C1392 C1391 1.516 . S
C1392 C1393 1.502 . S
C1392 C1394 1.561 . S
C1392 C1395 1.526 . S
C1393 H1377 0.959 . S
C1393 H1378 0.959 . S
C1393 H1379 0.961 . S
C1393 C1392 1.502 . S
C1394 H1380 0.960 . S
C1394 H1381 0.961 . S
C1394 H1382 0.959 . S
C1394 C1392 1.561 . S
C1395 C1392 1.526 . S
C1395 C1396 1.396 . S
C1395 C1400 1.390 . S
C1396 C1390 1.465 . S
C1396 C1395 1.396 . S
C1396 C1397 1.399 1_455 S
C1397 H1383 0.929 . S
C1397 C1396 1.399 1_655 S
C1397 C1398 1.385 . S
C1398 H1384 0.931 . S
C1398 C1397 1.385 . S
C1398 C1399 1.389 1_655 S
C1399 C1398 1.389 1_455 S
C1399 C1400 1.387 . S
C1400 H1385 0.930 . S
C1400 C1395 1.390 . S
C1400 C1399 1.387 . S
H1401 C1413 0.930 . S
H1402 C1415 0.930 . S
H1403 C1416 0.930 . S
H1404 C1420 0.959 . S
H1405 C1420 0.959 . S
H1406 C1420 0.961 . S
H1407 C1421 0.960 . S
H1408 C1421 0.961 . S
H1409 C1421 0.959 . S
H1410 C1424 0.929 . S
H1411 C1425 0.931 . S
H1412 C1427 0.930 . S
C1413 H1401 0.930 . S
C1413 C1414 1.399 1_545 S
C1413 C1418 1.399 . S
C1414 C1413 1.399 1_565 S
C1414 C1415 1.376 . S
C1415 H1402 0.930 . S
C1415 C1414 1.376 . S
C1415 C1416 1.388 . S
C1416 H1403 0.930 . S
C1416 C1415 1.388 . S
C1416 C1417 1.390 . S
C1417 C1416 1.390 . S
C1417 C1418 1.394 1_565 S
C1417 C1423 1.465 . S
C1418 C1413 1.399 . S
C1418 C1417 1.394 1_545 S
C1418 C1419 1.516 . S
C1419 C1418 1.516 . S
C1419 C1420 1.502 . S
C1419 C1421 1.561 . S
C1419 C1422 1.526 . S
C1420 H1404 0.959 . S
C1420 H1405 0.959 . S
C1420 H1406 0.961 . S
C1420 C1419 1.502 . S
C1421 H1407 0.960 . S
C1421 H1408 0.961 . S
C1421 H1409 0.959 . S
C1421 C1419 1.561 . S
C1422 C1419 1.526 . S
C1422 C1423 1.396 1_545 S
C1422 C1427 1.390 . S
C1423 C1417 1.465 . S
C1423 C1422 1.396 1_565 S
C1423 C1424 1.399 . S
C1424 H1410 0.929 . S
C1424 C1423 1.399 . S
C1424 C1425 1.385 . S
C1425 H1411 0.931 . S
C1425 C1424 1.385 . S
C1425 C1426 1.389 . S
C1426 C1425 1.389 . S
C1426 C1427 1.387 1_565 S
C1427 H1412 0.930 . S
C1427 C1422 1.390 . S
C1427 C1426 1.387 1_545 S
H1428 C1440 0.930 . S
H1429 C1442 0.930 . S
H1430 C1443 0.930 . S
H1431 C1447 0.959 . S
H1432 C1447 0.959 . S
H1433 C1447 0.961 . S
H1434 C1448 0.960 . S
H1435 C1448 0.961 . S
H1436 C1448 0.959 . S
H1437 C1451 0.929 . S
H1438 C1452 0.931 . S
H1439 C1454 0.930 . S
C1440 H1428 0.930 . S
C1440 C1441 1.399 1_565 S
C1440 C1445 1.399 . S
C1441 C1440 1.399 1_545 S
C1441 C1442 1.376 . S
C1442 H1429 0.930 . S
C1442 C1441 1.376 . S
C1442 C1443 1.388 . S
C1443 H1430 0.930 . S
C1443 C1442 1.388 . S
C1443 C1444 1.390 . S
C1444 C1443 1.390 . S
C1444 C1445 1.394 1_545 S
C1444 C1450 1.465 . S
C1445 C1440 1.399 . S
C1445 C1444 1.394 1_565 S
C1445 C1446 1.516 . S
C1446 C1445 1.516 . S
C1446 C1447 1.502 . S
C1446 C1448 1.561 . S
C1446 C1449 1.526 . S
C1447 H1431 0.959 . S
C1447 H1432 0.959 . S
C1447 H1433 0.961 . S
C1447 C1446 1.502 . S
C1448 H1434 0.960 . S
C1448 H1435 0.961 . S
C1448 H1436 0.959 . S
C1448 C1446 1.561 . S
C1449 C1446 1.526 . S
C1449 C1450 1.396 1_565 S
C1449 C1454 1.390 . S
C1450 C1444 1.465 . S
C1450 C1449 1.396 1_545 S
C1450 C1451 1.399 . S
C1451 H1437 0.929 . S
C1451 C1450 1.399 . S
C1451 C1452 1.385 . S
C1452 H1438 0.931 . S
C1452 C1451 1.385 . S
C1452 C1453 1.389 . S
C1453 C1452 1.389 . S
C1453 C1454 1.387 1_545 S
C1454 H1439 0.930 . S
C1454 C1449 1.390 . S
C1454 C1453 1.387 1_565 S
H1455 C1467 0.930 . S
H1456 C1469 0.930 . S
H1457 C1470 0.930 . S
H1458 C1474 0.959 . S
H1459 C1474 0.959 . S
H1460 C1474 0.961 . S
H1461 C1475 0.960 . S
H1462 C1475 0.961 . S
H1463 C1475 0.959 . S
H1464 C1478 0.929 . S
H1465 C1479 0.931 . S
H1466 C1481 0.930 . S
C1467 H1455 0.930 . S
C1467 C1468 1.399 . S
C1467 C1472 1.399 . S
C1468 C1467 1.399 . S
C1468 C1469 1.376 . S
C1469 H1456 0.930 . S
C1469 C1468 1.376 . S
C1469 C1470 1.388 . S
C1470 H1457 0.930 . S
C1470 C1469 1.388 . S
C1470 C1471 1.390 . S
C1471 C1470 1.390 . S
C1471 C1472 1.394 . S
C1471 C1477 1.465 . S
C1472 C1467 1.399 . S
C1472 C1471 1.394 . S
C1472 C1473 1.516 . S
C1473 C1472 1.516 . S
C1473 C1474 1.502 1_455 S
C1473 C1475 1.561 . S
C1473 C1476 1.526 . S
C1474 H1458 0.959 . S
C1474 H1459 0.959 . S
C1474 H1460 0.961 . S
C1474 C1473 1.502 1_655 S
C1475 H1461 0.960 . S
C1475 H1462 0.961 . S
C1475 H1463 0.959 . S
C1475 C1473 1.561 . S
C1476 C1473 1.526 . S
C1476 C1477 1.396 . S
C1476 C1481 1.390 . S
C1477 C1471 1.465 . S
C1477 C1476 1.396 . S
C1477 C1478 1.399 . S
C1478 H1464 0.929 . S
C1478 C1477 1.399 . S
C1478 C1479 1.385 . S
C1479 H1465 0.931 . S
C1479 C1478 1.385 . S
C1479 C1480 1.389 . S
C1480 C1479 1.389 . S
C1480 C1481 1.387 . S
C1481 H1466 0.930 . S
C1481 C1476 1.390 . S
C1481 C1480 1.387 . S
H1482 C1494 0.930 . S
H1483 C1496 0.930 . S
H1484 C1497 0.930 . S
H1485 C1501 0.959 . S
H1486 C1501 0.959 . S
H1487 C1501 0.961 . S
H1488 C1502 0.960 . S
H1489 C1502 0.961 . S
H1490 C1502 0.959 . S
H1491 C1505 0.929 . S
H1492 C1506 0.931 . S
H1493 C1508 0.930 . S
C1494 H1482 0.930 . S
C1494 C1495 1.399 1_545 S
C1494 C1499 1.399 . S
C1495 C1494 1.399 1_565 S
C1495 C1496 1.376 . S
C1496 H1483 0.930 . S
C1496 C1495 1.376 . S
C1496 C1497 1.388 . S
C1497 H1484 0.930 . S
C1497 C1496 1.388 . S
C1497 C1498 1.390 . S
C1498 C1497 1.390 . S
C1498 C1499 1.394 1_565 S
C1498 C1504 1.465 . S
C1499 C1494 1.399 . S
C1499 C1498 1.394 1_545 S
C1499 C1500 1.516 . S
C1500 C1499 1.516 . S
C1500 C1501 1.502 . S
C1500 C1502 1.561 . S
C1500 C1503 1.526 . S
C1501 H1485 0.959 . S
C1501 H1486 0.959 . S
C1501 H1487 0.961 . S
C1501 C1500 1.502 . S
C1502 H1488 0.960 . S
C1502 H1489 0.961 . S
C1502 H1490 0.959 . S
C1502 C1500 1.561 . S
C1503 C1500 1.526 . S
C1503 C1504 1.396 1_545 S
C1503 C1508 1.390 . S
C1504 C1498 1.465 . S
C1504 C1503 1.396 1_565 S
C1504 C1505 1.399 . S
C1505 H1491 0.929 . S
C1505 C1504 1.399 . S
C1505 C1506 1.385 . S
C1506 H1492 0.931 . S
C1506 C1505 1.385 . S
C1506 C1507 1.389 . S
C1507 C1506 1.389 . S
C1507 C1508 1.387 1_565 S
C1508 H1493 0.930 . S
C1508 C1503 1.390 . S
C1508 C1507 1.387 1_545 S
H1509 C1521 0.930 1_655 S
H1510 C1523 0.930 . S
H1511 C1524 0.930 . S
H1512 C1528 0.959 . S
H1513 C1528 0.959 . S
H1514 C1528 0.961 . S
H1515 C1529 0.960 . S
H1516 C1529 0.961 . S
H1517 C1529 0.959 . S
H1518 C1532 0.929 . S
H1519 C1533 0.931 . S
H1520 C1535 0.930 . S
C1521 H1509 0.930 1_455 S
C1521 C1522 1.399 . S
C1521 C1526 1.399 . S
C1522 C1521 1.399 . S
C1522 C1523 1.376 . S
C1523 H1510 0.930 . S
C1523 C1522 1.376 . S
C1523 C1524 1.388 . S
C1524 H1511 0.930 . S
C1524 C1523 1.388 . S
C1524 C1525 1.390 . S
C1525 C1524 1.390 . S
C1525 C1526 1.394 . S
C1525 C1531 1.465 . S
C1526 C1521 1.399 . S
C1526 C1525 1.394 . S
C1526 C1527 1.516 1_455 S
C1527 C1526 1.516 1_655 S
C1527 C1528 1.502 . S
C1527 C1529 1.561 1_655 S
C1527 C1530 1.526 1_655 S
C1528 H1512 0.959 . S
C1528 H1513 0.959 . S
C1528 H1514 0.961 . S
C1528 C1527 1.502 . S
C1529 H1515 0.960 . S
C1529 H1516 0.961 . S
C1529 H1517 0.959 . S
C1529 C1527 1.561 1_455 S
C1530 C1527 1.526 1_455 S
C1530 C1531 1.396 . S
C1530 C1535 1.390 1_455 S
C1531 C1525 1.465 . S
C1531 C1530 1.396 . S
C1531 C1532 1.399 . S
C1532 H1518 0.929 . S
C1532 C1531 1.399 . S
C1532 C1533 1.385 . S
C1533 H1519 0.931 . S
C1533 C1532 1.385 . S
C1533 C1534 1.389 . S
C1534 C1533 1.389 . S
C1534 C1535 1.387 1_455 S
C1535 H1520 0.930 . S
C1535 C1530 1.390 1_655 S
C1535 C1534 1.387 1_655 S
H1536 C1548 0.930 . S
H1537 C1550 0.930 . S
H1538 C1551 0.930 . S
H1539 C1555 0.959 . S
H1540 C1555 0.959 . S
H1541 C1555 0.961 . S
H1542 C1556 0.960 . S
H1543 C1556 0.961 . S
H1544 C1556 0.959 . S
H1545 C1559 0.929 . S
H1546 C1560 0.931 . S
H1547 C1562 0.930 . S
C1548 H1536 0.930 . S
C1548 C1549 1.399 1_545 S
C1548 C1553 1.399 . S
C1549 C1548 1.399 1_565 S
C1549 C1550 1.376 . S
C1550 H1537 0.930 . S
C1550 C1549 1.376 . S
C1550 C1551 1.388 . S
C1551 H1538 0.930 . S
C1551 C1550 1.388 . S
C1551 C1552 1.390 . S
C1552 C1551 1.390 . S
C1552 C1553 1.394 1_565 S
C1552 C1558 1.465 . S
C1553 C1548 1.399 . S
C1553 C1552 1.394 1_545 S
C1553 C1554 1.516 . S
C1554 C1553 1.516 . S
C1554 C1555 1.502 . S
C1554 C1556 1.561 . S
C1554 C1557 1.526 . S
C1555 H1539 0.959 . S
C1555 H1540 0.959 . S
C1555 H1541 0.961 . S
C1555 C1554 1.502 . S
C1556 H1542 0.960 . S
C1556 H1543 0.961 . S
C1556 H1544 0.959 . S
C1556 C1554 1.561 . S
C1557 C1554 1.526 . S
C1557 C1558 1.396 1_545 S
C1557 C1562 1.390 . S
C1558 C1552 1.465 . S
C1558 C1557 1.396 1_565 S
C1558 C1559 1.399 . S
C1559 H1545 0.929 . S
C1559 C1558 1.399 . S
C1559 C1560 1.385 . S
C1560 H1546 0.931 . S
C1560 C1559 1.385 . S
C1560 C1561 1.389 . S
C1561 C1560 1.389 . S
C1561 C1562 1.387 1_565 S
C1562 H1547 0.930 . S
C1562 C1557 1.390 . S
C1562 C1561 1.387 1_545 S
H1563 C1575 0.930 . S
H1564 C1577 0.930 . S
H1565 C1578 0.930 . S
H1566 C1582 0.959 . S
H1567 C1582 0.959 . S
H1568 C1582 0.961 . S
H1569 C1583 0.960 . S
H1570 C1583 0.961 . S
H1571 C1583 0.959 . S
H1572 C1586 0.929 . S
H1573 C1587 0.931 . S
H1574 C1589 0.924 1_655 S
C1575 H1563 0.930 . S
C1575 C1576 1.399 . S
C1575 C1580 1.399 . S
C1576 C1575 1.399 . S
C1576 C1577 1.376 . S
C1577 H1564 0.930 . S
C1577 C1576 1.376 . S
C1577 C1578 1.388 . S
C1578 H1565 0.930 . S
C1578 C1577 1.388 . S
C1578 C1579 1.390 . S
C1579 C1578 1.390 . S
C1579 C1580 1.394 . S
C1579 C1585 1.465 . S
C1580 C1575 1.399 . S
C1580 C1579 1.394 . S
C1580 C1581 1.516 . S
C1581 C1580 1.516 . S
C1581 C1582 1.502 1_455 S
C1581 C1583 1.561 . S
C1581 C1584 1.526 . S
C1582 H1566 0.959 . S
C1582 H1567 0.959 . S
C1582 H1568 0.961 . S
C1582 C1581 1.502 1_655 S
C1583 H1569 0.960 . S
C1583 H1570 0.961 . S
C1583 H1571 0.959 . S
C1583 C1581 1.561 . S
C1584 C1581 1.526 . S
C1584 C1585 1.396 . S
C1584 C1589 1.390 . S
C1585 C1579 1.465 . S
C1585 C1584 1.396 . S
C1585 C1586 1.399 . S
C1586 H1572 0.929 . S
C1586 C1585 1.399 . S
C1586 C1587 1.385 . S
C1587 H1573 0.931 . S
C1587 C1586 1.385 . S
C1587 C1588 1.389 . S
C1588 C1587 1.389 . S
C1588 C1589 1.387 . S
C1589 H1574 0.924 1_455 S
C1589 C1584 1.390 . S
C1589 C1588 1.387 . S
H1590 C1602 0.930 . S
H1591 C1604 0.930 . S
H1592 C1605 0.930 . S
H1593 C1609 0.959 . S
H1594 C1609 0.959 . S
H1595 C1609 0.961 . S
H1596 C1610 0.960 . S
H1597 C1610 0.961 . S
H1598 C1610 0.959 . S
H1599 C1613 0.929 . S
H1600 C1614 0.931 . S
H1601 C1616 0.930 . S
C1602 H1590 0.930 . S
C1602 C1603 1.399 1_545 S
C1602 C1607 1.399 . S
C1603 C1602 1.399 1_565 S
C1603 C1604 1.376 . S
C1604 H1591 0.930 . S
C1604 C1603 1.376 . S
C1604 C1605 1.388 . S
C1605 H1592 0.930 . S
C1605 C1604 1.388 . S
C1605 C1606 1.390 . S
C1606 C1605 1.390 . S
C1606 C1607 1.394 1_565 S
C1606 C1612 1.465 . S
C1607 C1602 1.399 . S
C1607 C1606 1.394 1_545 S
C1607 C1608 1.516 . S
C1608 C1607 1.516 . S
C1608 C1609 1.502 . S
C1608 C1610 1.561 . S
C1608 C1611 1.526 . S
C1609 H1593 0.959 . S
C1609 H1594 0.959 . S
C1609 H1595 0.961 . S
C1609 C1608 1.502 . S
C1610 H1596 0.960 . S
C1610 H1597 0.961 . S
C1610 H1598 0.959 . S
C1610 C1608 1.561 . S
C1611 C1608 1.526 . S
C1611 C1612 1.396 1_545 S
C1611 C1616 1.390 . S
C1612 C1606 1.465 . S
C1612 C1611 1.396 1_565 S
C1612 C1613 1.399 . S
C1613 H1599 0.929 . S
C1613 C1612 1.399 . S
C1613 C1614 1.385 . S
C1614 H1600 0.931 . S
C1614 C1613 1.385 . S
C1614 C1615 1.389 . S
C1615 C1614 1.389 . S
C1615 C1616 1.387 1_565 S
C1616 H1601 0.930 . S
C1616 C1611 1.390 . S
C1616 C1615 1.387 1_545 S
H1617 C1629 0.930 . S
H1618 C1631 0.930 . S
H1619 C1632 0.930 . S
H1620 C1636 0.959 . S
H1621 C1636 0.959 . S
H1622 C1636 0.961 . S
H1623 C1637 0.960 . S
H1624 C1637 0.961 . S
H1625 C1637 0.959 . S
H1626 C1640 0.929 . S
H1627 C1641 0.931 . S
H1628 C1643 0.930 . S
C1629 H1617 0.930 . S
C1629 C1630 1.399 . S
C1629 C1634 1.399 . S
C1630 C1629 1.399 . S
C1630 C1631 1.376 . S
C1631 H1618 0.930 . S
C1631 C1630 1.376 . S
C1631 C1632 1.388 . S
C1632 H1619 0.930 . S
C1632 C1631 1.388 . S
C1632 C1633 1.390 . S
C1633 C1632 1.390 . S
C1633 C1634 1.394 . S
C1633 C1639 1.465 . S
C1634 C1629 1.399 . S
C1634 C1633 1.394 . S
C1634 C1635 1.516 . S
C1635 C1634 1.516 . S
C1635 C1636 1.502 . S
C1635 C1637 1.561 1_455 S
C1635 C1638 1.526 . S
C1636 H1620 0.959 . S
C1636 H1621 0.959 . S
C1636 H1622 0.961 . S
C1636 C1635 1.502 . S
C1637 H1623 0.960 . S
C1637 H1624 0.961 . S
C1637 H1625 0.959 . S
C1637 C1635 1.561 1_655 S
C1638 C1635 1.526 . S
C1638 C1639 1.396 . S
C1638 C1643 1.390 . S
C1639 C1633 1.465 . S
C1639 C1638 1.396 . S
C1639 C1640 1.399 . S
C1640 H1626 0.929 . S
C1640 C1639 1.399 . S
C1640 C1641 1.385 . S
C1641 H1627 0.931 . S
C1641 C1640 1.385 . S
C1641 C1642 1.389 . S
C1642 C1641 1.389 . S
C1642 C1643 1.387 . S
C1643 H1628 0.930 . S
C1643 C1638 1.390 . S
C1643 C1642 1.387 . S
H1644 C1656 0.930 . S
H1645 C1658 0.930 . S
H1646 C1659 0.930 . S
H1647 C1663 0.959 . S
H1648 C1663 0.959 . S
H1649 C1663 0.961 . S
H1650 C1664 0.960 . S
H1651 C1664 0.961 . S
H1652 C1664 0.959 . S
H1653 C1667 0.929 . S
H1654 C1668 0.931 . S
H1655 C1670 0.930 . S
C1656 H1644 0.930 . S
C1656 C1657 1.399 1_556 S
C1656 C1661 1.399 . S
C1657 C1656 1.399 1_554 S
C1657 C1658 1.376 . S
C1658 H1645 0.930 . S
C1658 C1657 1.376 . S
C1658 C1659 1.388 . S
C1659 H1646 0.930 . S
C1659 C1658 1.388 . S
C1659 C1660 1.390 . S
C1660 C1659 1.390 . S
C1660 C1661 1.394 1_554 S
C1660 C1666 1.465 . S
C1661 C1656 1.399 . S
C1661 C1660 1.394 1_556 S
C1661 C1662 1.516 . S
C1662 C1661 1.516 . S
C1662 C1663 1.502 . S
C1662 C1664 1.561 . S
C1662 C1665 1.526 . S
C1663 H1647 0.959 . S
C1663 H1648 0.959 . S
C1663 H1649 0.961 . S
C1663 C1662 1.502 . S
C1664 H1650 0.960 . S
C1664 H1651 0.961 . S
C1664 H1652 0.959 . S
C1664 C1662 1.561 . S
C1665 C1662 1.526 . S
C1665 C1666 1.396 1_556 S
C1665 C1670 1.390 . S
C1666 C1660 1.465 . S
C1666 C1665 1.396 1_554 S
C1666 C1667 1.399 . S
C1667 H1653 0.929 . S
C1667 C1666 1.399 . S
C1667 C1668 1.385 . S
C1668 H1654 0.931 . S
C1668 C1667 1.385 . S
C1668 C1669 1.389 . S
C1669 C1668 1.389 . S
C1669 C1670 1.387 1_554 S
C1670 H1655 0.930 . S
C1670 C1665 1.390 . S
C1670 C1669 1.387 1_556 S
H1671 C1683 0.930 . S
H1672 C1685 0.930 . S
H1673 C1686 0.930 . S
H1674 C1690 0.959 . S
H1675 C1690 0.959 . S
H1676 C1690 0.961 . S
H1677 C1691 0.960 . S
H1678 C1691 0.961 . S
H1679 C1691 0.959 . S
H1680 C1694 0.929 . S
H1681 C1695 0.931 . S
H1682 C1697 0.930 . S
C1683 H1671 0.930 . S
C1683 C1684 1.413 . S
C1683 C1688 1.399 . S
C1684 C1683 1.413 . S
C1684 C1685 1.358 1_554 S
C1685 H1672 0.930 . S
C1685 C1684 1.358 1_556 S
C1685 C1686 1.388 . S
C1686 H1673 0.930 . S
C1686 C1685 1.388 . S
C1686 C1687 1.390 . S
C1687 C1686 1.390 . S
C1687 C1688 1.394 1_556 S
C1687 C1693 1.465 . S
C1688 C1683 1.399 . S
C1688 C1687 1.394 1_554 S
C1688 C1689 1.516 . S
C1689 C1688 1.516 . S
C1689 C1690 1.502 . S
C1689 C1691 1.561 1_554 S
C1689 C1692 1.526 . S
C1690 H1674 0.959 . S
C1690 H1675 0.959 . S
C1690 H1676 0.961 . S
C1690 C1689 1.502 . S
C1691 H1677 0.960 . S
C1691 H1678 0.961 . S
C1691 H1679 0.959 . S
C1691 C1689 1.561 1_556 S
C1692 C1689 1.526 . S
C1692 C1693 1.396 1_554 S
C1692 C1697 1.390 . S
C1693 C1687 1.465 . S
C1693 C1692 1.396 1_556 S
C1693 C1694 1.399 . S
C1694 H1680 0.929 . S
C1694 C1693 1.399 . S
C1694 C1695 1.385 . S
C1695 H1681 0.931 . S
C1695 C1694 1.385 . S
C1695 C1696 1.398 . S
C1696 C1695 1.398 . S
C1696 C1697 1.381 1_556 S
C1697 H1682 0.930 . S
C1697 C1692 1.390 . S
C1697 C1696 1.381 1_554 S
H1698 C1710 0.930 . S
H1699 C1712 0.930 . S
H1700 C1713 0.930 . S
H1701 C1717 0.959 . S
H1702 C1717 0.959 . S
H1703 C1717 0.961 . S
H1704 C1718 0.960 . S
H1705 C1718 0.961 . S
H1706 C1718 0.959 . S
H1707 C1721 0.929 . S
H1708 C1722 0.931 . S
H1709 C1724 0.930 . S
C1710 H1698 0.930 . S
C1710 C1711 1.399 1_556 S
C1710 C1715 1.399 . S
C1711 C1710 1.399 1_554 S
C1711 C1712 1.376 . S
C1712 H1699 0.930 . S
C1712 C1711 1.376 . S
C1712 C1713 1.388 . S
C1713 H1700 0.930 . S
C1713 C1712 1.388 . S
C1713 C1714 1.390 . S
C1714 C1713 1.390 . S
C1714 C1715 1.394 1_554 S
C1714 C1720 1.465 . S
C1715 C1710 1.399 . S
C1715 C1714 1.394 1_556 S
C1715 C1716 1.516 . S
C1716 C1715 1.516 . S
C1716 C1717 1.502 . S
C1716 C1718 1.561 . S
C1716 C1719 1.526 . S
C1717 H1701 0.959 . S
C1717 H1702 0.959 . S
C1717 H1703 0.961 . S
C1717 C1716 1.502 . S
C1718 H1704 0.960 . S
C1718 H1705 0.961 . S
C1718 H1706 0.959 . S
C1718 C1716 1.561 . S
C1719 C1716 1.526 . S
C1719 C1720 1.396 1_556 S
C1719 C1724 1.390 . S
C1720 C1714 1.465 . S
C1720 C1719 1.396 1_554 S
C1720 C1721 1.399 . S
C1721 H1707 0.929 . S
C1721 C1720 1.399 . S
C1721 C1722 1.385 . S
C1722 H1708 0.931 . S
C1722 C1721 1.385 . S
C1722 C1723 1.389 . S
C1723 C1722 1.389 . S
C1723 C1724 1.387 1_554 S
C1724 H1709 0.930 . S
C1724 C1719 1.390 . S
C1724 C1723 1.387 1_556 S
H1725 C1737 0.930 . S
H1726 C1739 0.930 . S
H1727 C1740 0.930 . S
H1728 C1744 0.959 1_554 S
H1729 C1744 0.959 . S
H1730 C1744 0.961 . S
H1731 C1745 0.960 . S
H1732 C1745 0.961 . S
H1733 C1745 0.959 . S
H1734 C1748 0.929 . S
H1735 C1749 0.931 . S
H1736 C1751 0.930 . S
C1737 H1725 0.930 . S
C1737 C1738 1.399 1_556 S
C1737 C1742 1.399 . S
C1738 C1737 1.399 1_554 S
C1738 C1739 1.376 . S
C1739 H1726 0.930 . S
C1739 C1738 1.376 . S
C1739 C1740 1.388 . S
C1740 H1727 0.930 . S
C1740 C1739 1.388 . S
C1740 C1741 1.390 . S
C1741 C1740 1.390 . S
C1741 C1742 1.394 1_554 S
C1741 C1747 1.465 . S
C1742 C1737 1.399 . S
C1742 C1741 1.394 1_556 S
C1742 C1743 1.516 . S
C1743 C1742 1.516 . S
C1743 C1744 1.502 . S
C1743 C1745 1.561 . S
C1743 C1746 1.526 . S
C1744 H1728 0.959 1_556 S
C1744 H1729 0.959 . S
C1744 H1730 0.961 . S
C1744 C1743 1.502 . S
C1745 H1731 0.960 . S
C1745 H1732 0.961 . S
C1745 H1733 0.959 . S
C1745 C1743 1.561 . S
C1746 C1743 1.526 . S
C1746 C1747 1.396 1_556 S
C1746 C1751 1.390 . S
C1747 C1741 1.465 . S
C1747 C1746 1.396 1_554 S
C1747 C1748 1.399 . S
C1748 H1734 0.929 . S
C1748 C1747 1.399 . S
C1748 C1749 1.385 . S
C1749 H1735 0.931 . S
C1749 C1748 1.385 . S
C1749 C1750 1.389 . S
C1750 C1749 1.389 . S
C1750 C1751 1.387 1_554 S
C1751 H1736 0.930 . S
C1751 C1746 1.390 . S
C1751 C1750 1.387 1_556 S
H1752 C1764 0.930 . S
H1753 C1766 0.930 . S
H1754 C1767 0.930 . S
H1755 C1771 0.959 . S
H1756 C1771 0.959 . S
H1757 C1771 0.961 . S
H1758 C1772 0.960 . S
H1759 C1772 0.961 . S
H1760 C1772 0.959 . S
H1761 C1775 0.929 . S
H1762 C1776 0.931 . S
H1763 C1778 0.930 . S
C1764 H1752 0.930 . S
C1764 C1765 1.399 1_556 S
C1764 C1769 1.399 . S
C1765 C1764 1.399 1_554 S
C1765 C1766 1.376 . S
C1766 H1753 0.930 . S
C1766 C1765 1.376 . S
C1766 C1767 1.388 . S
C1767 H1754 0.930 . S
C1767 C1766 1.388 . S
C1767 C1768 1.390 . S
C1768 C1767 1.390 . S
C1768 C1769 1.394 1_554 S
C1768 C1774 1.465 . S
C1769 C1764 1.399 . S
C1769 C1768 1.394 1_556 S
C1769 C1770 1.516 . S
C1770 C1769 1.516 . S
C1770 C1771 1.502 . S
C1770 C1772 1.561 . S
C1770 C1773 1.526 . S
C1771 H1755 0.959 . S
C1771 H1756 0.959 . S
C1771 H1757 0.961 . S
C1771 C1770 1.502 . S
C1772 H1758 0.960 . S
C1772 H1759 0.961 . S
C1772 H1760 0.959 . S
C1772 C1770 1.561 . S
C1773 C1770 1.526 . S
C1773 C1774 1.396 1_556 S
C1773 C1778 1.390 . S
C1774 C1768 1.465 . S
C1774 C1773 1.396 1_554 S
C1774 C1775 1.399 . S
C1775 H1761 0.929 . S
C1775 C1774 1.399 . S
C1775 C1776 1.385 . S
C1776 H1762 0.931 . S
C1776 C1775 1.385 . S
C1776 C1777 1.389 . S
C1777 C1776 1.389 . S
C1777 C1778 1.387 1_554 S
C1778 H1763 0.930 . S
C1778 C1773 1.390 . S
C1778 C1777 1.387 1_556 S
H1779 C1791 0.930 . S
H1780 C1793 0.930 . S
H1781 C1794 0.930 . S
H1782 C1798 0.959 . S
H1783 C1798 0.959 . S
H1784 C1798 0.961 . S
H1785 C1799 0.960 . S
H1786 C1799 0.961 . S
H1787 C1799 0.959 . S
H1788 C1802 0.929 . S
H1789 C1803 0.931 . S
H1790 C1805 0.930 . S
C1791 H1779 0.930 . S
C1791 C1792 1.399 1_556 S
C1791 C1796 1.399 . S
C1792 C1791 1.399 1_554 S
C1792 C1793 1.376 . S
C1793 H1780 0.930 . S
C1793 C1792 1.376 . S
C1793 C1794 1.388 . S
C1794 H1781 0.930 . S
C1794 C1793 1.388 . S
C1794 C1795 1.390 . S
C1795 C1794 1.390 . S
C1795 C1796 1.394 1_554 S
C1795 C1801 1.465 . S
C1796 C1791 1.399 . S
C1796 C1795 1.394 1_556 S
C1796 C1797 1.516 . S
C1797 C1796 1.516 . S
C1797 C1798 1.502 . S
C1797 C1799 1.561 . S
C1797 C1800 1.526 . S
C1798 H1782 0.959 . S
C1798 H1783 0.959 . S
C1798 H1784 0.961 . S
C1798 C1797 1.502 . S
C1799 H1785 0.960 . S
C1799 H1786 0.961 . S
C1799 H1787 0.959 . S
C1799 C1797 1.561 . S
C1800 C1797 1.526 . S
C1800 C1801 1.396 1_556 S
C1800 C1805 1.390 . S
C1801 C1795 1.465 . S
C1801 C1800 1.396 1_554 S
C1801 C1802 1.399 . S
C1802 H1788 0.929 . S
C1802 C1801 1.399 . S
C1802 C1803 1.385 . S
C1803 H1789 0.931 . S
C1803 C1802 1.385 . S
C1803 C1804 1.389 . S
C1804 C1803 1.389 . S
C1804 C1805 1.387 1_554 S
C1805 H1790 0.930 . S
C1805 C1800 1.390 . S
C1805 C1804 1.387 1_556 S
H1806 C1818 0.930 . S
H1807 C1820 0.930 . S
H1808 C1821 0.930 . S
H1809 C1825 0.959 . S
H1810 C1825 0.959 . S
H1811 C1825 0.961 . S
H1812 C1826 0.960 . S
H1813 C1826 0.961 . S
H1814 C1826 0.959 . S
H1815 C1829 0.929 . S
H1816 C1830 0.931 . S
H1817 C1832 0.930 . S
C1818 H1806 0.930 . S
C1818 C1819 1.399 . S
C1818 C1823 1.399 . S
C1819 C1818 1.399 . S
C1819 C1820 1.376 1_554 S
C1820 H1807 0.930 . S
C1820 C1819 1.376 1_556 S
C1820 C1821 1.388 . S
C1821 H1808 0.930 . S
C1821 C1820 1.388 . S
C1821 C1822 1.390 . S
C1822 C1821 1.390 . S
C1822 C1823 1.394 1_556 S
C1822 C1828 1.465 . S
C1823 C1818 1.399 . S
C1823 C1822 1.394 1_554 S
C1823 C1824 1.516 . S
C1824 C1823 1.516 . S
C1824 C1825 1.502 . S
C1824 C1826 1.561 . S
C1824 C1827 1.526 . S
C1825 H1809 0.959 . S
C1825 H1810 0.959 . S
C1825 H1811 0.961 . S
C1825 C1824 1.502 . S
C1826 H1812 0.960 . S
C1826 H1813 0.961 . S
C1826 H1814 0.959 . S
C1826 C1824 1.561 . S
C1827 C1824 1.526 . S
C1827 C1828 1.396 1_554 S
C1827 C1832 1.390 . S
C1828 C1822 1.465 . S
C1828 C1827 1.396 1_556 S
C1828 C1829 1.399 . S
C1829 H1815 0.929 . S
C1829 C1828 1.399 . S
C1829 C1830 1.385 . S
C1830 H1816 0.931 . S
C1830 C1829 1.385 . S
C1830 C1831 1.389 1_556 S
C1831 C1830 1.389 1_554 S
C1831 C1832 1.387 . S
C1832 H1817 0.930 . S
C1832 C1827 1.390 . S
C1832 C1831 1.387 . S
H1833 C1845 0.930 . S
H1834 C1847 0.930 . S
H1835 C1848 0.930 . S
H1836 C1852 0.959 . S
H1837 C1852 0.959 . S
H1838 C1852 0.961 . S
H1839 C1853 0.960 . S
H1840 C1853 0.961 . S
H1841 C1853 0.959 . S
H1842 C1856 0.929 . S
H1843 C1857 0.931 . S
H1844 C1859 0.930 . S
C1845 H1833 0.930 . S
C1845 C1846 1.399 . S
C1845 C1850 1.399 . S
C1846 C1845 1.399 . S
C1846 C1847 1.376 1_554 S
C1847 H1834 0.930 . S
C1847 C1846 1.376 1_556 S
C1847 C1848 1.388 . S
C1848 H1835 0.930 . S
C1848 C1847 1.388 . S
C1848 C1849 1.390 . S
C1849 C1848 1.390 . S
C1849 C1850 1.394 1_556 S
C1849 C1855 1.465 . S
C1850 C1845 1.399 . S
C1850 C1849 1.394 1_554 S
C1850 C1851 1.516 . S
C1851 C1850 1.516 . S
C1851 C1852 1.502 . S
C1851 C1853 1.561 . S
C1851 C1854 1.526 . S
C1852 H1836 0.959 . S
C1852 H1837 0.959 . S
C1852 H1838 0.961 . S
C1852 C1851 1.502 . S
C1853 H1839 0.960 . S
C1853 H1840 0.961 . S
C1853 H1841 0.959 . S
C1853 C1851 1.561 . S
C1854 C1851 1.526 . S
C1854 C1855 1.396 1_554 S
C1854 C1859 1.390 . S
C1855 C1849 1.465 . S
C1855 C1854 1.396 1_556 S
C1855 C1856 1.399 . S
C1856 H1842 0.929 . S
C1856 C1855 1.399 . S
C1856 C1857 1.385 . S
C1857 H1843 0.931 . S
C1857 C1856 1.385 . S
C1857 C1858 1.389 1_556 S
C1858 C1857 1.389 1_554 S
C1858 C1859 1.387 . S
C1859 H1844 0.930 . S
C1859 C1854 1.390 . S
C1859 C1858 1.387 . S
H1860 C1872 0.930 . S
H1861 C1874 0.930 . S
H1862 C1875 0.930 . S
H1863 C1879 0.959 . S
H1864 C1879 0.959 . S
H1865 C1879 0.961 . S
H1866 C1880 0.960 . S
H1867 C1880 0.961 . S
H1868 C1880 0.959 . S
H1869 C1883 0.929 . S
H1870 C1884 0.931 . S
H1871 C1886 0.930 . S
C1872 H1860 0.930 . S
C1872 C1873 1.399 . S
C1872 C1877 1.399 . S
C1873 C1872 1.399 . S
C1873 C1874 1.376 . S
C1874 H1861 0.930 . S
C1874 C1873 1.376 . S
C1874 C1875 1.388 . S
C1875 H1862 0.930 . S
C1875 C1874 1.388 . S
C1875 C1876 1.390 . S
C1876 C1875 1.390 . S
C1876 C1877 1.394 . S
C1876 C1882 1.465 . S
C1877 C1872 1.399 . S
C1877 C1876 1.394 . S
C1877 C1878 1.516 . S
C1878 C1877 1.516 . S
C1878 C1879 1.502 . S
C1878 C1880 1.561 . S
C1878 C1881 1.526 . S
C1879 H1863 0.959 . S
C1879 H1864 0.959 . S
C1879 H1865 0.961 . S
C1879 C1878 1.502 . S
C1880 H1866 0.960 . S
C1880 H1867 0.961 . S
C1880 H1868 0.959 . S
C1880 C1878 1.561 . S
C1881 C1878 1.526 . S
C1881 C1882 1.396 . S
C1881 C1886 1.390 . S
C1882 C1876 1.465 . S
C1882 C1881 1.396 . S
C1882 C1883 1.399 . S
C1883 H1869 0.929 . S
C1883 C1882 1.399 . S
C1883 C1884 1.385 . S
C1884 H1870 0.931 . S
C1884 C1883 1.385 . S
C1884 C1885 1.389 . S
C1885 C1884 1.389 . S
C1885 C1886 1.387 . S
C1886 H1871 0.930 . S
C1886 C1881 1.390 . S
C1886 C1885 1.387 . S
H1887 C1899 0.930 . S
H1888 C1901 0.930 . S
H1889 C1902 0.930 . S
H1890 C1906 0.959 . S
H1891 C1906 0.959 . S
H1892 C1906 0.961 . S
H1893 C1907 0.960 . S
H1894 C1907 0.961 . S
H1895 C1907 0.959 . S
H1896 C1910 0.929 . S
H1897 C1911 0.931 . S
H1898 C1913 0.930 . S
C1899 H1887 0.930 . S
C1899 C1900 1.399 . S
C1899 C1904 1.399 . S
C1900 C1899 1.399 . S
C1900 C1901 1.376 . S
C1901 H1888 0.930 . S
C1901 C1900 1.376 . S
C1901 C1902 1.388 . S
C1902 H1889 0.930 . S
C1902 C1901 1.388 . S
C1902 C1903 1.390 . S
C1903 C1902 1.390 . S
C1903 C1904 1.394 . S
C1903 C1909 1.465 . S
C1904 C1899 1.399 . S
C1904 C1903 1.394 . S
C1904 C1905 1.516 . S
C1905 C1904 1.516 . S
C1905 C1906 1.502 . S
C1905 C1907 1.561 . S
C1905 C1908 1.526 . S
C1906 H1890 0.959 . S
C1906 H1891 0.959 . S
C1906 H1892 0.961 . S
C1906 C1905 1.502 . S
C1907 H1893 0.960 . S
C1907 H1894 0.961 . S
C1907 H1895 0.959 . S
C1907 C1905 1.561 . S
C1908 C1905 1.526 . S
C1908 C1909 1.396 . S
C1908 C1913 1.390 . S
C1909 C1903 1.465 . S
C1909 C1908 1.396 . S
C1909 C1910 1.399 . S
C1910 H1896 0.929 . S
C1910 C1909 1.399 . S
C1910 C1911 1.385 . S
C1911 H1897 0.931 . S
C1911 C1910 1.385 . S
C1911 C1912 1.389 . S
C1912 C1911 1.389 . S
C1912 C1913 1.387 . S
C1913 H1898 0.930 . S
C1913 C1908 1.390 . S
C1913 C1912 1.387 . S
H1914 C1926 0.930 . S
H1915 C1928 0.930 . S
H1916 C1929 0.930 . S
H1917 C1933 0.959 . S
H1918 C1933 0.959 . S
H1919 C1933 0.961 . S
H1920 C1934 0.960 . S
H1921 C1934 0.961 . S
H1922 C1934 0.959 . S
H1923 C1937 0.929 . S
H1924 C1938 0.931 . S
H1925 C1940 0.930 . S
C1926 H1914 0.930 . S
C1926 C1927 1.399 . S
C1926 C1931 1.399 . S
C1927 C1926 1.399 . S
C1927 C1928 1.376 . S
C1928 H1915 0.930 . S
C1928 C1927 1.376 . S
C1928 C1929 1.388 . S
C1929 H1916 0.930 . S
C1929 C1928 1.388 . S
C1929 C1930 1.390 . S
C1930 C1929 1.390 . S
C1930 C1931 1.394 . S
C1930 C1936 1.465 . S
C1931 C1926 1.399 . S
C1931 C1930 1.394 . S
C1931 C1932 1.516 . S
C1932 C1931 1.516 . S
C1932 C1933 1.502 . S
C1932 C1934 1.561 . S
C1932 C1935 1.526 . S
C1933 H1917 0.959 . S
C1933 H1918 0.959 . S
C1933 H1919 0.961 . S
C1933 C1932 1.502 . S
C1934 H1920 0.960 . S
C1934 H1921 0.961 . S
C1934 H1922 0.959 . S
C1934 C1932 1.561 . S
C1935 C1932 1.526 . S
C1935 C1936 1.396 . S
C1935 C1940 1.390 . S
C1936 C1930 1.465 . S
C1936 C1935 1.396 . S
C1936 C1937 1.399 . S
C1937 H1923 0.929 . S
C1937 C1936 1.399 . S
C1937 C1938 1.385 . S
C1938 H1924 0.931 . S
C1938 C1937 1.385 . S
C1938 C1939 1.389 . S
C1939 C1938 1.389 . S
C1939 C1940 1.387 . S
C1940 H1925 0.930 . S
C1940 C1935 1.390 . S
C1940 C1939 1.387 . S
H1941 C1953 0.930 . S
H1942 C1955 0.930 . S
H1943 C1956 0.930 . S
H1944 C1960 0.959 . S
H1945 C1960 0.959 . S
H1946 C1960 0.961 . S
H1947 C1961 0.960 . S
H1948 C1961 0.961 . S
H1949 C1961 0.959 . S
H1950 C1964 0.929 . S
H1951 C1965 0.931 . S
H1952 C1967 0.930 . S
C1953 H1941 0.930 . S
C1953 C1954 1.399 . S
C1953 C1958 1.399 . S
C1954 C1953 1.399 . S
C1954 C1955 1.376 . S
C1955 H1942 0.930 . S
C1955 C1954 1.376 . S
C1955 C1956 1.388 . S
C1956 H1943 0.930 . S
C1956 C1955 1.388 . S
C1956 C1957 1.390 . S
C1957 C1956 1.390 . S
C1957 C1958 1.394 . S
C1957 C1963 1.465 . S
C1958 C1953 1.399 . S
C1958 C1957 1.394 . S
C1958 C1959 1.516 . S
C1959 C1958 1.516 . S
C1959 C1960 1.502 . S
C1959 C1961 1.561 . S
C1959 C1962 1.526 . S
C1960 H1944 0.959 . S
C1960 H1945 0.959 . S
C1960 H1946 0.961 . S
C1960 C1959 1.502 . S
C1961 H1947 0.960 . S
C1961 H1948 0.961 . S
C1961 H1949 0.959 . S
C1961 C1959 1.561 . S
C1962 C1959 1.526 . S
C1962 C1963 1.396 . S
C1962 C1967 1.390 . S
C1963 C1957 1.465 . S
C1963 C1962 1.396 . S
C1963 C1964 1.399 . S
C1964 H1950 0.929 . S
C1964 C1963 1.399 . S
C1964 C1965 1.385 . S
C1965 H1951 0.931 . S
C1965 C1964 1.385 . S
C1965 C1966 1.389 . S
C1966 C1965 1.389 . S
C1966 C1967 1.387 . S
C1967 H1952 0.930 . S
C1967 C1962 1.390 . S
C1967 C1966 1.387 . S
H1968 C1980 0.930 . S
H1969 C1982 0.930 . S
H1970 C1983 0.930 . S
H1971 C1987 0.959 . S
H1972 C1987 0.959 . S
H1973 C1987 0.961 . S
H1974 C1988 0.960 . S
H1975 C1988 0.961 . S
H1976 C1988 0.959 . S
H1977 C1991 0.929 . S
H1978 C1992 0.931 . S
H1979 C1994 0.930 . S
C1980 H1968 0.930 . S
C1980 C1981 1.399 . S
C1980 C1985 1.399 . S
C1981 C1980 1.399 . S
C1981 C1982 1.376 . S
C1982 H1969 0.930 . S
C1982 C1981 1.376 . S
C1982 C1983 1.388 . S
C1983 H1970 0.930 . S
C1983 C1982 1.388 . S
C1983 C1984 1.390 . S
C1984 C1983 1.390 . S
C1984 C1985 1.394 . S
C1984 C1990 1.465 . S
C1985 C1980 1.399 . S
C1985 C1984 1.394 . S
C1985 C1986 1.516 . S
C1986 C1985 1.516 . S
C1986 C1987 1.502 . S
C1986 C1988 1.561 . S
C1986 C1989 1.526 . S
C1987 H1971 0.959 . S
C1987 H1972 0.959 . S
C1987 H1973 0.961 . S
C1987 C1986 1.502 . S
C1988 H1974 0.960 . S
C1988 H1975 0.961 . S
C1988 H1976 0.959 . S
C1988 C1986 1.561 . S
C1989 C1986 1.526 . S
C1989 C1990 1.396 . S
C1989 C1994 1.390 . S
C1990 C1984 1.465 . S
C1990 C1989 1.396 . S
C1990 C1991 1.399 . S
C1991 H1977 0.929 . S
C1991 C1990 1.399 . S
C1991 C1992 1.385 . S
C1992 H1978 0.931 . S
C1992 C1991 1.385 . S
C1992 C1993 1.389 . S
C1993 C1992 1.389 . S
C1993 C1994 1.387 . S
C1994 H1979 0.930 . S
C1994 C1989 1.390 . S
C1994 C1993 1.387 . S
H1995 C2007 0.930 . S
H1996 C2009 0.930 . S
H1997 C2010 0.930 . S
H1998 C2014 0.959 . S
H1999 C2014 0.959 . S
H2000 C2014 0.961 . S
H2001 C2015 0.960 . S
H2002 C2015 0.961 . S
H2003 C2015 0.959 . S
H2004 C2018 0.929 . S
H2005 C2019 0.931 . S
H2006 C2021 0.930 . S
C2007 H1995 0.930 . S
C2007 C2008 1.399 . S
C2007 C2012 1.399 . S
C2008 C2007 1.399 . S
C2008 C2009 1.376 . S
C2009 H1996 0.930 . S
C2009 C2008 1.376 . S
C2009 C2010 1.388 . S
C2010 H1997 0.930 . S
C2010 C2009 1.388 . S
C2010 C2011 1.390 . S
C2011 C2010 1.390 . S
C2011 C2012 1.394 . S
C2011 C2017 1.465 . S
C2012 C2007 1.399 . S
C2012 C2011 1.394 . S
C2012 C2013 1.516 . S
C2013 C2012 1.516 . S
C2013 C2014 1.502 . S
C2013 C2015 1.561 . S
C2013 C2016 1.526 . S
C2014 H1998 0.959 . S
C2014 H1999 0.959 . S
C2014 H2000 0.961 . S
C2014 C2013 1.502 . S
C2015 H2001 0.960 . S
C2015 H2002 0.961 . S
C2015 H2003 0.959 . S
C2015 C2013 1.561 . S
C2016 C2013 1.526 . S
C2016 C2017 1.396 . S
C2016 C2021 1.390 . S
C2017 C2011 1.465 . S
C2017 C2016 1.396 . S
C2017 C2018 1.399 . S
C2018 H2004 0.929 . S
C2018 C2017 1.399 . S
C2018 C2019 1.385 . S
C2019 H2005 0.931 . S
C2019 C2018 1.385 . S
C2019 C2020 1.389 . S
C2020 C2019 1.389 . S
C2020 C2021 1.387 . S
C2021 H2006 0.930 . S
C2021 C2016 1.390 . S
C2021 C2020 1.387 . S
H2022 C2034 0.930 . S
H2023 C2036 0.930 . S
H2024 C2037 0.930 . S
H2025 C2041 0.959 . S
H2026 C2041 0.959 . S
H2027 C2041 0.961 . S
H2028 C2042 0.960 . S
H2029 C2042 0.961 . S
H2030 C2042 0.959 . S
H2031 C2045 0.929 . S
H2032 C2046 0.931 . S
H2033 C2048 0.930 . S
C2034 H2022 0.930 . S
C2034 C2035 1.399 . S
C2034 C2039 1.399 . S
C2035 C2034 1.399 . S
C2035 C2036 1.376 . S
C2036 H2023 0.930 . S
C2036 C2035 1.376 . S
C2036 C2037 1.388 . S
C2037 H2024 0.930 . S
C2037 C2036 1.388 . S
C2037 C2038 1.390 . S
C2038 C2037 1.390 . S
C2038 C2039 1.394 . S
C2038 C2044 1.465 . S
C2039 C2034 1.399 . S
C2039 C2038 1.394 . S
C2039 C2040 1.516 . S
C2040 C2039 1.516 . S
C2040 C2041 1.502 . S
C2040 C2042 1.561 . S
C2040 C2043 1.526 . S
C2041 H2025 0.959 . S
C2041 H2026 0.959 . S
C2041 H2027 0.961 . S
C2041 C2040 1.502 . S
C2042 H2028 0.960 . S
C2042 H2029 0.961 . S
C2042 H2030 0.959 . S
C2042 C2040 1.561 . S
C2043 C2040 1.526 . S
C2043 C2044 1.396 . S
C2043 C2048 1.390 . S
C2044 C2038 1.465 . S
C2044 C2043 1.396 . S
C2044 C2045 1.399 . S
C2045 H2031 0.929 . S
C2045 C2044 1.399 . S
C2045 C2046 1.385 . S
C2046 H2032 0.931 . S
C2046 C2045 1.385 . S
C2046 C2047 1.389 . S
C2047 C2046 1.389 . S
C2047 C2048 1.387 . S
C2048 H2033 0.930 . S
C2048 C2043 1.390 . S
C2048 C2047 1.387 . S
H2049 C2061 0.930 . S
H2050 C2063 0.930 . S
H2051 C2064 0.930 . S
H2052 C2068 0.959 . S
H2053 C2068 0.959 . S
H2054 C2068 0.961 . S
H2055 C2069 0.960 . S
H2056 C2069 0.961 . S
H2057 C2069 0.959 . S
H2058 C2072 0.929 . S
H2059 C2073 0.931 . S
H2060 C2075 0.930 . S
C2061 H2049 0.930 . S
C2061 C2062 1.399 . S
C2061 C2066 1.399 . S
C2062 C2061 1.399 . S
C2062 C2063 1.376 . S
C2063 H2050 0.930 . S
C2063 C2062 1.376 . S
C2063 C2064 1.388 . S
C2064 H2051 0.930 . S
C2064 C2063 1.388 . S
C2064 C2065 1.390 . S
C2065 C2064 1.390 . S
C2065 C2066 1.394 . S
C2065 C2071 1.465 . S
C2066 C2061 1.399 . S
C2066 C2065 1.394 . S
C2066 C2067 1.516 . S
C2067 C2066 1.516 . S
C2067 C2068 1.502 . S
C2067 C2069 1.561 . S
C2067 C2070 1.526 . S
C2068 H2052 0.959 . S
C2068 H2053 0.959 . S
C2068 H2054 0.961 . S
C2068 C2067 1.502 . S
C2069 H2055 0.960 . S
C2069 H2056 0.961 . S
C2069 H2057 0.959 . S
C2069 C2067 1.561 . S
C2070 C2067 1.526 . S
C2070 C2071 1.396 . S
C2070 C2075 1.390 . S
C2071 C2065 1.465 . S
C2071 C2070 1.396 . S
C2071 C2072 1.399 . S
C2072 H2058 0.929 . S
C2072 C2071 1.399 . S
C2072 C2073 1.385 . S
C2073 H2059 0.931 . S
C2073 C2072 1.385 . S
C2073 C2074 1.389 . S
C2074 C2073 1.389 . S
C2074 C2075 1.387 . S
C2075 H2060 0.930 . S
C2075 C2070 1.390 . S
C2075 C2074 1.387 . S
H2076 C2088 0.930 . S
H2077 C2090 0.930 . S
H2078 C2091 0.930 . S
H2079 C2095 0.959 . S
H2080 C2095 0.959 . S
H2081 C2095 0.961 . S
H2082 C2096 0.960 . S
H2083 C2096 0.961 . S
H2084 C2096 0.959 . S
H2085 C2099 0.929 . S
H2086 C2100 0.931 . S
H2087 C2102 0.930 . S
C2088 H2076 0.930 . S
C2088 C2089 1.399 . S
C2088 C2093 1.399 . S
C2089 C2088 1.399 . S
C2089 C2090 1.376 . S
C2090 H2077 0.930 . S
C2090 C2089 1.376 . S
C2090 C2091 1.388 . S
C2091 H2078 0.930 . S
C2091 C2090 1.388 . S
C2091 C2092 1.390 . S
C2092 C2091 1.390 . S
C2092 C2093 1.394 . S
C2092 C2098 1.465 . S
C2093 C2088 1.399 . S
C2093 C2092 1.394 . S
C2093 C2094 1.516 . S
C2094 C2093 1.516 . S
C2094 C2095 1.502 . S
C2094 C2096 1.561 . S
C2094 C2097 1.526 . S
C2095 H2079 0.959 . S
C2095 H2080 0.959 . S
C2095 H2081 0.961 . S
C2095 C2094 1.502 . S
C2096 H2082 0.960 . S
C2096 H2083 0.961 . S
C2096 H2084 0.959 . S
C2096 C2094 1.561 . S
C2097 C2094 1.526 . S
C2097 C2098 1.396 . S
C2097 C2102 1.390 . S
C2098 C2092 1.465 . S
C2098 C2097 1.396 . S
C2098 C2099 1.399 . S
C2099 H2085 0.929 . S
C2099 C2098 1.399 . S
C2099 C2100 1.385 . S
C2100 H2086 0.931 . S
C2100 C2099 1.385 . S
C2100 C2101 1.389 . S
C2101 C2100 1.389 . S
C2101 C2102 1.387 . S
C2102 H2087 0.930 . S
C2102 C2097 1.390 . S
C2102 C2101 1.387 . S
H2103 C2115 0.930 . S
H2104 C2117 0.930 . S
H2105 C2118 0.930 . S
H2106 C2122 0.959 . S
H2107 C2122 0.959 . S
H2108 C2122 0.961 . S
H2109 C2123 0.960 . S
H2110 C2123 0.961 . S
H2111 C2123 0.959 . S
H2112 C2126 0.929 . S
H2113 C2127 0.931 . S
H2114 C2129 0.930 . S
C2115 H2103 0.930 . S
C2115 C2116 1.399 . S
C2115 C2120 1.399 . S
C2116 C2115 1.399 . S
C2116 C2117 1.376 . S
C2117 H2104 0.930 . S
C2117 C2116 1.376 . S
C2117 C2118 1.388 . S
C2118 H2105 0.930 . S
C2118 C2117 1.388 . S
C2118 C2119 1.390 . S
C2119 C2118 1.390 . S
C2119 C2120 1.394 . S
C2119 C2125 1.465 . S
C2120 C2115 1.399 . S
C2120 C2119 1.394 . S
C2120 C2121 1.516 . S
C2121 C2120 1.516 . S
C2121 C2122 1.502 . S
C2121 C2123 1.561 . S
C2121 C2124 1.526 . S
C2122 H2106 0.959 . S
C2122 H2107 0.959 . S
C2122 H2108 0.961 . S
C2122 C2121 1.502 . S
C2123 H2109 0.960 . S
C2123 H2110 0.961 . S
C2123 H2111 0.959 . S
C2123 C2121 1.561 . S
C2124 C2121 1.526 . S
C2124 C2125 1.396 . S
C2124 C2129 1.390 . S
C2125 C2119 1.465 . S
C2125 C2124 1.396 . S
C2125 C2126 1.399 . S
C2126 H2112 0.929 . S
C2126 C2125 1.399 . S
C2126 C2127 1.385 . S
C2127 H2113 0.931 . S
C2127 C2126 1.385 . S
C2127 C2128 1.389 . S
C2128 C2127 1.389 . S
C2128 C2129 1.387 . S
C2129 H2114 0.930 . S
C2129 C2124 1.390 . S
C2129 C2128 1.387 . S
H2130 C2142 0.930 . S
H2131 C2144 0.930 . S
H2132 C2145 0.930 . S
H2133 C2149 0.959 . S
H2134 C2149 0.959 . S
H2135 C2149 0.961 . S
H2136 C2150 0.960 . S
H2137 C2150 0.961 . S
H2138 C2150 0.959 . S
H2139 C2153 0.929 . S
H2140 C2154 0.931 . S
H2141 C2156 0.930 . S
C2142 H2130 0.930 . S
C2142 C2143 1.399 . S
C2142 C2147 1.399 . S
C2143 C2142 1.399 . S
C2143 C2144 1.376 . S
C2144 H2131 0.930 . S
C2144 C2143 1.376 . S
C2144 C2145 1.388 . S
C2145 H2132 0.930 . S
C2145 C2144 1.388 . S
C2145 C2146 1.390 . S
C2146 C2145 1.390 . S
C2146 C2147 1.394 . S
C2146 C2152 1.465 . S
C2147 C2142 1.399 . S
C2147 C2146 1.394 . S
C2147 C2148 1.516 . S
C2148 C2147 1.516 . S
C2148 C2149 1.502 . S
C2148 C2150 1.561 . S
C2148 C2151 1.526 . S
C2149 H2133 0.959 . S
C2149 H2134 0.959 . S
C2149 H2135 0.961 . S
C2149 C2148 1.502 . S
C2150 H2136 0.960 . S
C2150 H2137 0.961 . S
C2150 H2138 0.959 . S
C2150 C2148 1.561 . S
C2151 C2148 1.526 . S
C2151 C2152 1.396 . S
C2151 C2156 1.390 . S
C2152 C2146 1.465 . S
C2152 C2151 1.396 . S
C2152 C2153 1.399 . S
C2153 H2139 0.929 . S
C2153 C2152 1.399 . S
C2153 C2154 1.385 . S
C2154 H2140 0.931 . S
C2154 C2153 1.385 . S
C2154 C2155 1.389 . S
C2155 C2154 1.389 . S
C2155 C2156 1.387 . S
C2156 H2141 0.930 . S
C2156 C2151 1.390 . S
C2156 C2155 1.387 . S
H2157 C2169 0.930 . S
H2158 C2171 0.930 . S
H2159 C2172 0.930 . S
H2160 C2176 0.959 . S
H2161 C2176 0.959 . S
H2162 C2176 0.961 . S
H2163 C2177 0.960 . S
H2164 C2177 0.961 . S
H2165 C2177 0.959 . S
H2166 C2180 0.929 . S
H2167 C2181 0.931 . S
H2168 C2183 0.930 . S
C2169 H2157 0.930 . S
C2169 C2170 1.399 . S
C2169 C2174 1.399 . S
C2170 C2169 1.399 . S
C2170 C2171 1.376 . S
C2171 H2158 0.930 . S
C2171 C2170 1.376 . S
C2171 C2172 1.388 . S
C2172 H2159 0.930 . S
C2172 C2171 1.388 . S
C2172 C2173 1.390 . S
C2173 C2172 1.390 . S
C2173 C2174 1.394 . S
C2173 C2179 1.465 . S
C2174 C2169 1.399 . S
C2174 C2173 1.394 . S
C2174 C2175 1.516 . S
C2175 C2174 1.516 . S
C2175 C2176 1.502 . S
C2175 C2177 1.561 . S
C2175 C2178 1.526 . S
C2176 H2160 0.959 . S
C2176 H2161 0.959 . S
C2176 H2162 0.961 . S
C2176 C2175 1.502 . S
C2177 H2163 0.960 . S
C2177 H2164 0.961 . S
C2177 H2165 0.959 . S
C2177 C2175 1.561 . S
C2178 C2175 1.526 . S
C2178 C2179 1.396 . S
C2178 C2183 1.390 . S
C2179 C2173 1.465 . S
C2179 C2178 1.396 . S
C2179 C2180 1.399 . S
C2180 H2166 0.929 . S
C2180 C2179 1.399 . S
C2180 C2181 1.385 . S
C2181 H2167 0.931 . S
C2181 C2180 1.385 . S
C2181 C2182 1.389 . S
C2182 C2181 1.389 . S
C2182 C2183 1.387 . S
C2183 H2168 0.930 . S
C2183 C2178 1.390 . S
C2183 C2182 1.387 . S
H2184 C2196 0.930 . S
H2185 C2198 0.930 . S
H2186 C2199 0.930 . S
H2187 C2203 0.959 . S
H2188 C2203 0.959 . S
H2189 C2203 0.961 . S
H2190 C2204 0.960 . S
H2191 C2204 0.961 . S
H2192 C2204 0.959 . S
H2193 C2207 0.929 . S
H2194 C2208 0.931 . S
H2195 C2210 0.930 . S
C2196 H2184 0.930 . S
C2196 C2197 1.399 . S
C2196 C2201 1.399 . S
C2197 C2196 1.399 . S
C2197 C2198 1.376 . S
C2198 H2185 0.930 . S
C2198 C2197 1.376 . S
C2198 C2199 1.388 . S
C2199 H2186 0.930 . S
C2199 C2198 1.388 . S
C2199 C2200 1.390 . S
C2200 C2199 1.390 . S
C2200 C2201 1.394 . S
C2200 C2206 1.465 . S
C2201 C2196 1.399 . S
C2201 C2200 1.394 . S
C2201 C2202 1.516 . S
C2202 C2201 1.516 . S
C2202 C2203 1.502 . S
C2202 C2204 1.561 . S
C2202 C2205 1.526 . S
C2203 H2187 0.959 . S
C2203 H2188 0.959 . S
C2203 H2189 0.961 . S
C2203 C2202 1.502 . S
C2204 H2190 0.960 . S
C2204 H2191 0.961 . S
C2204 H2192 0.959 . S
C2204 C2202 1.561 . S
C2205 C2202 1.526 . S
C2205 C2206 1.396 . S
C2205 C2210 1.390 . S
C2206 C2200 1.465 . S
C2206 C2205 1.396 . S
C2206 C2207 1.399 . S
C2207 H2193 0.929 . S
C2207 C2206 1.399 . S
C2207 C2208 1.385 . S
C2208 H2194 0.931 . S
C2208 C2207 1.385 . S
C2208 C2209 1.389 . S
C2209 C2208 1.389 . S
C2209 C2210 1.387 . S
C2210 H2195 0.930 . S
C2210 C2205 1.390 . S
C2210 C2209 1.387 . S
H2211 C2223 0.930 . S
H2212 C2225 0.930 . S
H2213 C2226 0.930 . S
H2214 C2230 0.959 . S
H2215 C2230 0.959 . S
H2216 C2230 0.961 . S
H2217 C2231 0.960 . S
H2218 C2231 0.961 . S
H2219 C2231 0.959 . S
H2220 C2234 0.929 . S
H2221 C2235 0.931 . S
H2222 C2237 0.930 . S
C2223 H2211 0.930 . S
C2223 C2224 1.399 . S
C2223 C2228 1.399 . S
C2224 C2223 1.399 . S
C2224 C2225 1.376 . S
C2225 H2212 0.930 . S
C2225 C2224 1.376 . S
C2225 C2226 1.388 . S
C2226 H2213 0.930 . S
C2226 C2225 1.388 . S
C2226 C2227 1.390 . S
C2227 C2226 1.390 . S
C2227 C2228 1.394 . S
C2227 C2233 1.465 . S
C2228 C2223 1.399 . S
C2228 C2227 1.394 . S
C2228 C2229 1.516 . S
C2229 C2228 1.516 . S
C2229 C2230 1.502 . S
C2229 C2231 1.561 . S
C2229 C2232 1.526 . S
C2230 H2214 0.959 . S
C2230 H2215 0.959 . S
C2230 H2216 0.961 . S
C2230 C2229 1.502 . S
C2231 H2217 0.960 . S
C2231 H2218 0.961 . S
C2231 H2219 0.959 . S
C2231 C2229 1.561 . S
C2232 C2229 1.526 . S
C2232 C2233 1.396 . S
C2232 C2237 1.390 . S
C2233 C2227 1.465 . S
C2233 C2232 1.396 . S
C2233 C2234 1.399 . S
C2234 H2220 0.929 . S
C2234 C2233 1.399 . S
C2234 C2235 1.385 . S
C2235 H2221 0.931 . S
C2235 C2234 1.385 . S
C2235 C2236 1.389 . S
C2236 C2235 1.389 . S
C2236 C2237 1.387 . S
C2237 H2222 0.930 . S
C2237 C2232 1.390 . S
C2237 C2236 1.387 . S
H2238 C2250 0.930 . S
H2239 C2252 0.930 . S
H2240 C2253 0.930 . S
H2241 C2257 0.959 . S
H2242 C2257 0.959 . S
H2243 C2257 0.961 . S
H2244 C2258 0.960 . S
H2245 C2258 0.961 . S
H2246 C2258 0.959 . S
H2247 C2261 0.929 . S
H2248 C2262 0.931 . S
H2249 C2264 0.930 . S
C2250 H2238 0.930 . S
C2250 C2251 1.399 . S
C2250 C2255 1.399 . S
C2251 C2250 1.399 . S
C2251 C2252 1.376 . S
C2252 H2239 0.930 . S
C2252 C2251 1.376 . S
C2252 C2253 1.388 . S
C2253 H2240 0.930 . S
C2253 C2252 1.388 . S
C2253 C2254 1.390 . S
C2254 C2253 1.390 . S
C2254 C2255 1.394 . S
C2254 C2260 1.465 . S
C2255 C2250 1.399 . S
C2255 C2254 1.394 . S
C2255 C2256 1.516 . S
C2256 C2255 1.516 . S
C2256 C2257 1.502 . S
C2256 C2258 1.561 . S
C2256 C2259 1.526 . S
C2257 H2241 0.959 . S
C2257 H2242 0.959 . S
C2257 H2243 0.961 . S
C2257 C2256 1.502 . S
C2258 H2244 0.960 . S
C2258 H2245 0.961 . S
C2258 H2246 0.959 . S
C2258 C2256 1.561 . S
C2259 C2256 1.526 . S
C2259 C2260 1.396 . S
C2259 C2264 1.390 . S
C2260 C2254 1.465 . S
C2260 C2259 1.396 . S
C2260 C2261 1.399 . S
C2261 H2247 0.929 . S
C2261 C2260 1.399 . S
C2261 C2262 1.385 . S
C2262 H2248 0.931 . S
C2262 C2261 1.385 . S
C2262 C2263 1.389 . S
C2263 C2262 1.389 . S
C2263 C2264 1.387 . S
C2264 H2249 0.930 . S
C2264 C2259 1.390 . S
C2264 C2263 1.387 . S
H2265 C2277 0.930 . S
H2266 C2279 0.930 . S
H2267 C2280 0.930 . S
H2268 C2284 0.959 . S
H2269 C2284 0.959 . S
H2270 C2284 0.961 . S
H2271 C2285 0.960 . S
H2272 C2285 0.961 . S
H2273 C2285 0.959 . S
H2274 C2288 0.929 . S
H2275 C2289 0.931 . S
H2276 C2291 0.930 . S
C2277 H2265 0.930 . S
C2277 C2278 1.399 . S
C2277 C2282 1.399 . S
C2278 C2277 1.399 . S
C2278 C2279 1.376 . S
C2279 H2266 0.930 . S
C2279 C2278 1.376 . S
C2279 C2280 1.388 . S
C2280 H2267 0.930 . S
C2280 C2279 1.388 . S
C2280 C2281 1.390 . S
C2281 C2280 1.390 . S
C2281 C2282 1.394 . S
C2281 C2287 1.465 . S
C2282 C2277 1.399 . S
C2282 C2281 1.394 . S
C2282 C2283 1.516 . S
C2283 C2282 1.516 . S
C2283 C2284 1.502 . S
C2283 C2285 1.561 . S
C2283 C2286 1.526 . S
C2284 H2268 0.959 . S
C2284 H2269 0.959 . S
C2284 H2270 0.961 . S
C2284 C2283 1.502 . S
C2285 H2271 0.960 . S
C2285 H2272 0.961 . S
C2285 H2273 0.959 . S
C2285 C2283 1.561 . S
C2286 C2283 1.526 . S
C2286 C2287 1.396 . S
C2286 C2291 1.390 . S
C2287 C2281 1.465 . S
C2287 C2286 1.396 . S
C2287 C2288 1.399 . S
C2288 H2274 0.929 . S
C2288 C2287 1.399 . S
C2288 C2289 1.385 . S
C2289 H2275 0.931 . S
C2289 C2288 1.385 . S
C2289 C2290 1.389 . S
C2290 C2289 1.389 . S
C2290 C2291 1.387 . S
C2291 H2276 0.930 . S
C2291 C2286 1.390 . S
C2291 C2290 1.387 . S
H2292 C2304 0.930 . S
H2293 C2306 0.930 . S
H2294 C2307 0.930 . S
H2295 C2311 0.959 . S
H2296 C2311 0.959 . S
H2297 C2311 0.961 . S
H2298 C2312 0.960 . S
H2299 C2312 0.961 . S
H2300 C2312 0.959 . S
H2301 C2315 0.929 . S
H2302 C2316 0.931 . S
H2303 C2318 0.930 . S
C2304 H2292 0.930 . S
C2304 C2305 1.399 . S
C2304 C2309 1.399 . S
C2305 C2304 1.399 . S
C2305 C2306 1.376 . S
C2306 H2293 0.930 . S
C2306 C2305 1.376 . S
C2306 C2307 1.388 . S
C2307 H2294 0.930 . S
C2307 C2306 1.388 . S
C2307 C2308 1.390 . S
C2308 C2307 1.390 . S
C2308 C2309 1.394 . S
C2308 C2314 1.465 . S
C2309 C2304 1.399 . S
C2309 C2308 1.394 . S
C2309 C2310 1.516 . S
C2310 C2309 1.516 . S
C2310 C2311 1.502 . S
C2310 C2312 1.561 . S
C2310 C2313 1.526 . S
C2311 H2295 0.959 . S
C2311 H2296 0.959 . S
C2311 H2297 0.961 . S
C2311 C2310 1.502 . S
C2312 H2298 0.960 . S
C2312 H2299 0.961 . S
C2312 H2300 0.959 . S
C2312 C2310 1.561 . S
C2313 C2310 1.526 . S
C2313 C2314 1.396 . S
C2313 C2318 1.390 . S
C2314 C2308 1.465 . S
C2314 C2313 1.396 . S
C2314 C2315 1.399 . S
C2315 H2301 0.929 . S
C2315 C2314 1.399 . S
C2315 C2316 1.385 . S
C2316 H2302 0.931 . S
C2316 C2315 1.385 . S
C2316 C2317 1.389 . S
C2317 C2316 1.389 . S
C2317 C2318 1.387 . S
C2318 H2303 0.930 . S
C2318 C2313 1.390 . S
C2318 C2317 1.387 . S
H2319 C2331 0.930 . S
H2320 C2333 0.930 . S
H2321 C2334 0.930 . S
H2322 C2338 0.959 . S
H2323 C2338 0.959 . S
H2324 C2338 0.961 . S
H2325 C2339 0.960 . S
H2326 C2339 0.961 . S
H2327 C2339 0.959 . S
H2328 C2342 0.929 . S
H2329 C2343 0.931 . S
H2330 C2345 0.930 . S
C2331 H2319 0.930 . S
C2331 C2332 1.399 . S
C2331 C2336 1.399 . S
C2332 C2331 1.399 . S
C2332 C2333 1.376 . S
C2333 H2320 0.930 . S
C2333 C2332 1.376 . S
C2333 C2334 1.388 . S
C2334 H2321 0.930 . S
C2334 C2333 1.388 . S
C2334 C2335 1.390 . S
C2335 C2334 1.390 . S
C2335 C2336 1.394 . S
C2335 C2341 1.465 . S
C2336 C2331 1.399 . S
C2336 C2335 1.394 . S
C2336 C2337 1.516 . S
C2337 C2336 1.516 . S
C2337 C2338 1.502 . S
C2337 C2339 1.561 . S
C2337 C2340 1.526 . S
C2338 H2322 0.959 . S
C2338 H2323 0.959 . S
C2338 H2324 0.961 . S
C2338 C2337 1.502 . S
C2339 H2325 0.960 . S
C2339 H2326 0.961 . S
C2339 H2327 0.959 . S
C2339 C2337 1.561 . S
C2340 C2337 1.526 . S
C2340 C2341 1.396 . S
C2340 C2345 1.390 . S
C2341 C2335 1.465 . S
C2341 C2340 1.396 . S
C2341 C2342 1.399 . S
C2342 H2328 0.929 . S
C2342 C2341 1.399 . S
C2342 C2343 1.385 . S
C2343 H2329 0.931 . S
C2343 C2342 1.385 . S
C2343 C2344 1.389 . S
C2344 C2343 1.389 . S
C2344 C2345 1.387 . S
C2345 H2330 0.930 . S
C2345 C2340 1.390 . S
C2345 C2344 1.387 . S
H2346 C2358 0.930 . S
H2347 C2360 0.930 . S
H2348 C2361 0.930 . S
H2349 C2365 0.959 . S
H2350 C2365 0.959 . S
H2351 C2365 0.961 . S
H2352 C2366 0.960 . S
H2353 C2366 0.961 . S
H2354 C2366 0.959 . S
H2355 C2369 0.929 . S
H2356 C2370 0.931 . S
H2357 C2372 0.930 . S
C2358 H2346 0.930 . S
C2358 C2359 1.399 . S
C2358 C2363 1.399 . S
C2359 C2358 1.399 . S
C2359 C2360 1.376 . S
C2360 H2347 0.930 . S
C2360 C2359 1.376 . S
C2360 C2361 1.388 . S
C2361 H2348 0.930 . S
C2361 C2360 1.388 . S
C2361 C2362 1.390 . S
C2362 C2361 1.390 . S
C2362 C2363 1.394 . S
C2362 C2368 1.465 . S
C2363 C2358 1.399 . S
C2363 C2362 1.394 . S
C2363 C2364 1.516 . S
C2364 C2363 1.516 . S
C2364 C2365 1.502 . S
C2364 C2366 1.561 . S
C2364 C2367 1.526 . S
C2365 H2349 0.959 . S
C2365 H2350 0.959 . S
C2365 H2351 0.961 . S
C2365 C2364 1.502 . S
C2366 H2352 0.960 . S
C2366 H2353 0.961 . S
C2366 H2354 0.959 . S
C2366 C2364 1.561 . S
C2367 C2364 1.526 . S
C2367 C2368 1.396 . S
C2367 C2372 1.390 . S
C2368 C2362 1.465 . S
C2368 C2367 1.396 . S
C2368 C2369 1.399 . S
C2369 H2355 0.929 . S
C2369 C2368 1.399 . S
C2369 C2370 1.385 . S
C2370 H2356 0.931 . S
C2370 C2369 1.385 . S
C2370 C2371 1.389 . S
C2371 C2370 1.389 . S
C2371 C2372 1.387 . S
C2372 H2357 0.930 . S
C2372 C2367 1.390 . S
C2372 C2371 1.387 . S
H2373 C2385 0.930 . S
H2374 C2387 0.930 . S
H2375 C2388 0.930 . S
H2376 C2392 0.959 . S
H2377 C2392 0.959 . S
H2378 C2392 0.961 . S
H2379 C2393 0.960 . S
H2380 C2393 0.961 . S
H2381 C2393 0.959 . S
H2382 C2396 0.929 . S
H2383 C2397 0.931 . S
H2384 C2399 0.930 . S
C2385 H2373 0.930 . S
C2385 C2386 1.399 . S
C2385 C2390 1.399 . S
C2386 C2385 1.399 . S
C2386 C2387 1.376 . S
C2387 H2374 0.930 . S
C2387 C2386 1.376 . S
C2387 C2388 1.388 . S
C2388 H2375 0.930 . S
C2388 C2387 1.388 . S
C2388 C2389 1.390 . S
C2389 C2388 1.390 . S
C2389 C2390 1.394 . S
C2389 C2395 1.465 . S
C2390 C2385 1.399 . S
C2390 C2389 1.394 . S
C2390 C2391 1.516 . S
C2391 C2390 1.516 . S
C2391 C2392 1.502 . S
C2391 C2393 1.561 . S
C2391 C2394 1.526 . S
C2392 H2376 0.959 . S
C2392 H2377 0.959 . S
C2392 H2378 0.961 . S
C2392 C2391 1.502 . S
C2393 H2379 0.960 . S
C2393 H2380 0.961 . S
C2393 H2381 0.959 . S
C2393 C2391 1.561 . S
C2394 C2391 1.526 . S
C2394 C2395 1.396 . S
C2394 C2399 1.390 . S
C2395 C2389 1.465 . S
C2395 C2394 1.396 . S
C2395 C2396 1.399 . S
C2396 H2382 0.929 . S
C2396 C2395 1.399 . S
C2396 C2397 1.385 . S
C2397 H2383 0.931 . S
C2397 C2396 1.385 . S
C2397 C2398 1.389 . S
C2398 C2397 1.389 . S
C2398 C2399 1.387 . S
C2399 H2384 0.930 . S
C2399 C2394 1.390 . S
C2399 C2398 1.387 . S
H2400 C2412 0.930 . S
H2401 C2414 0.930 . S
H2402 C2415 0.930 . S
H2403 C2419 0.959 . S
H2404 C2419 0.959 . S
H2405 C2419 0.961 . S
H2406 C2420 0.960 . S
H2407 C2420 0.961 . S
H2408 C2420 0.959 . S
H2409 C2423 0.929 . S
H2410 C2424 0.931 . S
H2411 C2426 0.930 . S
C2412 H2400 0.930 . S
C2412 C2413 1.399 . S
C2412 C2417 1.399 . S
C2413 C2412 1.399 . S
C2413 C2414 1.376 . S
C2414 H2401 0.930 . S
C2414 C2413 1.376 . S
C2414 C2415 1.388 . S
C2415 H2402 0.930 . S
C2415 C2414 1.388 . S
C2415 C2416 1.390 . S
C2416 C2415 1.390 . S
C2416 C2417 1.394 . S
C2416 C2422 1.465 . S
C2417 C2412 1.399 . S
C2417 C2416 1.394 . S
C2417 C2418 1.516 . S
C2418 C2417 1.516 . S
C2418 C2419 1.502 . S
C2418 C2420 1.561 . S
C2418 C2421 1.526 . S
C2419 H2403 0.959 . S
C2419 H2404 0.959 . S
C2419 H2405 0.961 . S
C2419 C2418 1.502 . S
C2420 H2406 0.960 . S
C2420 H2407 0.961 . S
C2420 H2408 0.959 . S
C2420 C2418 1.561 . S
C2421 C2418 1.526 . S
C2421 C2422 1.396 . S
C2421 C2426 1.390 . S
C2422 C2416 1.465 . S
C2422 C2421 1.396 . S
C2422 C2423 1.399 . S
C2423 H2409 0.929 . S
C2423 C2422 1.399 . S
C2423 C2424 1.385 . S
C2424 H2410 0.931 . S
C2424 C2423 1.385 . S
C2424 C2425 1.389 . S
C2425 C2424 1.389 . S
C2425 C2426 1.387 . S
C2426 H2411 0.930 . S
C2426 C2421 1.390 . S
C2426 C2425 1.387 . S
H2427 C2439 0.930 . S
H2428 C2441 0.930 . S
H2429 C2442 0.930 . S
H2430 C2446 0.959 . S
H2431 C2446 0.959 . S
H2432 C2446 0.961 . S
H2433 C2447 0.960 . S
H2434 C2447 0.961 . S
H2435 C2447 0.959 . S
H2436 C2450 0.929 . S
H2437 C2451 0.931 . S
H2438 C2453 0.930 . S
C2439 H2427 0.930 . S
C2439 C2440 1.399 . S
C2439 C2444 1.399 . S
C2440 C2439 1.399 . S
C2440 C2441 1.376 . S
C2441 H2428 0.930 . S
C2441 C2440 1.376 . S
C2441 C2442 1.388 . S
C2442 H2429 0.930 . S
C2442 C2441 1.388 . S
C2442 C2443 1.390 . S
C2443 C2442 1.390 . S
C2443 C2444 1.394 . S
C2443 C2449 1.465 . S
C2444 C2439 1.399 . S
C2444 C2443 1.394 . S
C2444 C2445 1.516 . S
C2445 C2444 1.516 . S
C2445 C2446 1.502 . S
C2445 C2447 1.561 . S
C2445 C2448 1.526 . S
C2446 H2430 0.959 . S
C2446 H2431 0.959 . S
C2446 H2432 0.961 . S
C2446 C2445 1.502 . S
C2447 H2433 0.960 . S
C2447 H2434 0.961 . S
C2447 H2435 0.959 . S
C2447 C2445 1.561 . S
C2448 C2445 1.526 . S
C2448 C2449 1.396 . S
C2448 C2453 1.390 . S
C2449 C2443 1.465 . S
C2449 C2448 1.396 . S
C2449 C2450 1.399 . S
C2450 H2436 0.929 . S
C2450 C2449 1.399 . S
C2450 C2451 1.385 . S
C2451 H2437 0.931 . S
C2451 C2450 1.385 . S
C2451 C2452 1.389 . S
C2452 C2451 1.389 . S
C2452 C2453 1.387 . S
C2453 H2438 0.930 . S
C2453 C2448 1.390 . S
C2453 C2452 1.387 . S
H2454 C2466 0.930 . S
H2455 C2468 0.930 . S
H2456 C2469 0.930 . S
H2457 C2473 0.959 . S
H2458 C2473 0.959 . S
H2459 C2473 0.961 . S
H2460 C2474 0.960 . S
H2461 C2474 0.961 . S
H2462 C2474 0.959 . S
H2463 C2477 0.929 . S
H2464 C2478 0.931 . S
H2465 C2480 0.930 . S
C2466 H2454 0.930 . S
C2466 C2467 1.399 . S
C2466 C2471 1.399 . S
C2467 C2466 1.399 . S
C2467 C2468 1.376 . S
C2468 H2455 0.930 . S
C2468 C2467 1.376 . S
C2468 C2469 1.388 . S
C2469 H2456 0.930 . S
C2469 C2468 1.388 . S
C2469 C2470 1.390 . S
C2470 C2469 1.390 . S
C2470 C2471 1.394 . S
C2470 C2476 1.465 . S
C2471 C2466 1.399 . S
C2471 C2470 1.394 . S
C2471 C2472 1.516 . S
C2472 C2471 1.516 . S
C2472 C2473 1.502 . S
C2472 C2474 1.561 . S
C2472 C2475 1.526 . S
C2473 H2457 0.959 . S
C2473 H2458 0.959 . S
C2473 H2459 0.961 . S
C2473 C2472 1.502 . S
C2474 H2460 0.960 . S
C2474 H2461 0.961 . S
C2474 H2462 0.959 . S
C2474 C2472 1.561 . S
C2475 C2472 1.526 . S
C2475 C2476 1.396 . S
C2475 C2480 1.390 . S
C2476 C2470 1.465 . S
C2476 C2475 1.396 . S
C2476 C2477 1.399 . S
C2477 H2463 0.929 . S
C2477 C2476 1.399 . S
C2477 C2478 1.385 . S
C2478 H2464 0.931 . S
C2478 C2477 1.385 . S
C2478 C2479 1.389 . S
C2479 C2478 1.389 . S
C2479 C2480 1.387 . S
C2480 H2465 0.930 . S
C2480 C2475 1.390 . S
C2480 C2479 1.387 . S
H2481 C2493 0.930 . S
H2482 C2495 0.930 . S
H2483 C2496 0.930 . S
H2484 C2500 0.959 . S
H2485 C2500 0.959 . S
H2486 C2500 0.961 . S
H2487 C2501 0.960 . S
H2488 C2501 0.961 . S
H2489 C2501 0.959 . S
H2490 C2504 0.929 . S
H2491 C2505 0.931 . S
H2492 C2507 0.930 . S
C2493 H2481 0.930 . S
C2493 C2494 1.399 . S
C2493 C2498 1.399 . S
C2494 C2493 1.399 . S
C2494 C2495 1.376 . S
C2495 H2482 0.930 . S
C2495 C2494 1.376 . S
C2495 C2496 1.388 . S
C2496 H2483 0.930 . S
C2496 C2495 1.388 . S
C2496 C2497 1.390 . S
C2497 C2496 1.390 . S
C2497 C2498 1.394 . S
C2497 C2503 1.465 . S
C2498 C2493 1.399 . S
C2498 C2497 1.394 . S
C2498 C2499 1.516 . S
C2499 C2498 1.516 . S
C2499 C2500 1.502 . S
C2499 C2501 1.561 . S
C2499 C2502 1.526 . S
C2500 H2484 0.959 . S
C2500 H2485 0.959 . S
C2500 H2486 0.961 . S
C2500 C2499 1.502 . S
C2501 H2487 0.960 . S
C2501 H2488 0.961 . S
C2501 H2489 0.959 . S
C2501 C2499 1.561 . S
C2502 C2499 1.526 . S
C2502 C2503 1.396 . S
C2502 C2507 1.390 . S
C2503 C2497 1.465 . S
C2503 C2502 1.396 . S
C2503 C2504 1.399 . S
C2504 H2490 0.929 . S
C2504 C2503 1.399 . S
C2504 C2505 1.385 . S
C2505 H2491 0.931 . S
C2505 C2504 1.385 . S
C2505 C2506 1.389 . S
C2506 C2505 1.389 . S
C2506 C2507 1.387 . S
C2507 H2492 0.930 . S
C2507 C2502 1.390 . S
C2507 C2506 1.387 . S
C589 C270 1.310 . S
C577 C258 1.315 . S
C604 C236 1.584 . S
C616 C268 1.580 . S
C643 C269 1.580 . S
C631 C225 1.583 . S
C658 C247 1.304 . S
C670 C271 1.311 . S
C697 C315 1.450 . S
C685 C181 1.449 . S
C724 C375 1.376 . S
C712 C192 1.365 . S
C739 C203 1.446 . S
C751 C314 1.447 . S
C778 C374 1.650 . S
C766 C214 1.648 . S
C793 C137 1.530 . S
C805 C316 1.530 . S
C832 C372 1.560 . S
C820 C148 1.562 . S
C847 C159 1.540 . S
C859 C317 1.545 . S
C874 C170 1.274 . S
C886 C373 1.282 . S
C913 C423 1.310 . S
C901 C126 1.312 . S
C928 C104 1.584 . S
C940 C422 1.580 . S
C955 C93 1.571 . S
C967 C424 1.579 . S
C994 C425 1.310 . S
C982 C115 1.301 . S
C1009 C49 1.446 . S
C1021 C466 1.442 . S
C1036 C60 1.369 . S
C1048 C525 1.377 . S
C1063 C71 1.445 . S
C1075 C464 1.447 . S
C1090 C82 1.655 1_545 S
C1102 C524 1.652 . S
C1129 C465 1.534 . S
C1117 C5 1.531 . S
C1156 C522 1.560 . S
C1144 C16 1.563 1_545 S
C1171 C27 1.541 . S
C1183 C467 1.546 . S
C1210 C523 1.284 . S
C1198 C38 1.287 1_545 S
C1237 C267 1.666 . S
C1225 C4 1.646 . S
C1252 C21 1.372 1_565 S
C1264 C273 1.459 1_565 S
C1279 C32 1.384 . S
C1291 C265 1.421 . S
C1306 C37 1.386 1_545 S
C1318 C272 1.438 . S
C1333 C48 1.623 . S
C1345 C264 1.651 . S
C1372 C274 1.490 1_565 S
C1360 C59 1.397 1_565 S
C1387 C76 1.356 . S
C1399 C266 1.411 . S
C1426 C275 1.769 1_565 S
C1414 C81 1.744 . S
C1453 C321 1.349 . S
C1441 C43 1.308 . S
C1468 C10 1.443 . S
C1480 C364 1.483 . S
C1507 C319 1.655 1_565 S
C1495 C15 1.633 . S
C1534 C366 1.741 . S
C1522 C26 1.690 . S
C1549 C65 1.362 . S
C1561 C320 1.408 1_565 S
C1588 C365 1.637 . S
C1576 C70 1.569 . S
C1615 C318 1.480 1_565 S
C1603 C87 1.359 1_565 S
C1642 C367 1.412 . S
C1630 C54 1.252 . S
C1669 C371 1.442 . S
C1657 C98 1.405 . S
C1684 C109 1.329 . S
C1696 C370 1.450 1_556 S
C1723 C322 1.658 . S
C1711 C92 1.600 . S
C1750 C369 1.459 . S
C1738 C114 1.363 . S
C1765 C131 1.203 . S
C1777 C325 1.316 . S
C1792 C125 1.433 . S
C1804 C368 1.449 . S
C1831 C324 1.656 . S
C1819 C103 1.597 . S
C1858 C323 1.318 . S
C1846 C120 1.182 . S
C1885 C417 1.667 . S
C1873 C136 1.652 . S
C1912 C420 1.464 . S
C1900 C153 1.340 . S
C1927 C164 1.306 . S
C1939 C416 1.432 . S
C1966 C418 1.443 . S
C1954 C169 1.357 . S
C1993 C414 1.655 . S
C1981 C180 1.581 . S
C2008 C191 1.414 . S
C2020 C419 1.487 . S
C2035 C208 1.300 . S
C2047 C415 1.421 . S
C2074 C421 1.768 . S
C2062 C213 1.719 . S
C2101 C475 1.359 . S
C2089 C175 1.224 . S
C2116 C142 1.349 . S
C2128 C514 1.496 . S
C2155 C474 1.655 . S
C2143 C147 1.629 . S
C2182 C516 1.747 . S
C2170 C158 1.716 . S
C2209 C473 1.409 . S
C2197 C197 1.361 . S
C2224 C202 1.616 . S
C2236 C515 1.639 . S
C2263 C472 1.481 . S
C2251 C219 1.351 . S
C2290 C517 1.412 . S
C2278 C186 1.278 . S
C2317 C521 1.450 . S
C2305 C230 1.331 . S
C2332 C241 1.322 . S
C2344 C520 1.449 . S
C2371 C468 1.658 . S
C2359 C224 1.600 . S
C2386 C246 1.429 . S
C2398 C519 1.449 . S
C2425 C471 1.320 . S
C2413 C263 1.183 . S
C2452 C518 1.455 . S
C2440 C257 1.372 . S
C2479 C469 1.656 . S
C2467 C235 1.611 . S
C2494 C252 1.193 . S
C2506 C470 1.316 . S
