# Generated by pormake.
# Topology llj, (12,3)-cn, num edge types: 1
# Building blocks:
#     Node 0, Type 0, BuildingBlock: QEWDON_clean_sbu_0, # of connection points: 12
#     Node 1, Type 0, BuildingBlock: QEWDON_clean_sbu_0, # of connection points: 12
#     Node 2, Type 1, BuildingBlock: KAKCAD_clean_linker_0, # of connection points: 3
#     Node 3, Type 1, BuildingBlock: KAKCAD_clean_linker_0, # of connection points: 3
#     Node 4, Type 1, BuildingBlock: KAKCAD_clean_linker_0, # of connection points: 3
#     Node 5, Type 1, BuildingBlock: KAKCAD_clean_linker_0, # of connection points: 3
#     Node 6, Type 1, BuildingBlock: KAKCAD_clean_linker_0, # of connection points: 3
#     Node 7, Type 1, BuildingBlock: KAKCAD_clean_linker_0, # of connection points: 3
#     Node 8, Type 1, BuildingBlock: KAKCAD_clean_linker_0, # of connection points: 3
#     Node 9, Type 1, BuildingBlock: KAKCAD_clean_linker_0, # of connection points: 3
#     Edge 10, Type (0, 1), None
#     Edge 11, Type (0, 1), None
#     Edge 12, Type (0, 1), None
#     Edge 13, Type (0, 1), None
#     Edge 14, Type (0, 1), None
#     Edge 15, Type (0, 1), None
#     Edge 16, Type (0, 1), None
#     Edge 17, Type (0, 1), None
#     Edge 18, Type (0, 1), None
#     Edge 19, Type (0, 1), None
#     Edge 20, Type (0, 1), None
#     Edge 21, Type (0, 1), None
#     Edge 22, Type (0, 1), None
#     Edge 23, Type (0, 1), None
#     Edge 24, Type (0, 1), None
#     Edge 25, Type (0, 1), None
#     Edge 26, Type (0, 1), None
#     Edge 27, Type (0, 1), None
#     Edge 28, Type (0, 1), None
#     Edge 29, Type (0, 1), None
#     Edge 30, Type (0, 1), None
#     Edge 31, Type (0, 1), None
#     Edge 32, Type (0, 1), None
#     Edge 33, Type (0, 1), None
# Relax obj value: 0.010
# Max RMSD: 0.061
# Mean RMSD: 0.056
data_MOF--net-llj--node1-QEWDON_clean_sbu_0--node2-KAKCAD_clean_linker_0--edge1-none
_symmetry_space_group_name_H-M    P1
_symmetry_Int_Tables_number       1
_symmetry_cell_setting            triclinic
loop_
_symmetry_equiv_pos_as_xyz
'x, y, z'
_cell_length_a     26.923396
_cell_length_b     26.987997
_cell_length_c     18.684451
_cell_angle_alpha  90.082267
_cell_angle_beta   89.539161
_cell_angle_gamma 90.066819
loop_
_atom_site_label
_atom_site_type_symbol
_atom_site_fract_x
_atom_site_fract_y
_atom_site_fract_z
_atom_type_partial_charge
Zn0 Zn 0.91802 0.09241 0.9129 0.0
Zn1 Zn 0.92285 0.0976 0.08112 0.0
O2 O 0.96596 0.08704 -0.00491 0.0
H3 H 0.99404 0.06497 -0.00841 0.0
C4 C 0.86374 0.99384 0.8156 0.0
O5 O 0.83623 0.00352 0.87232 0.0
Zn6 Zn 0.07597 0.89627 0.07906 0.0
Zn7 Zn 0.0784 0.88994 0.91023 0.0
O8 O 0.03362 0.90593 -0.00604 0.0
H9 H 0.00635 0.92901 -0.00893 0.0
Zn10 Zn 0.899 0.9209 0.91436 0.0
O11 O 0.91185 0.96532 -0.00149 0.0
Zn12 Zn 0.89924 0.9223 0.08313 0.0
H13 H 0.93681 0.99096 -0.00432 0.0
Zn14 Zn 0.09633 0.07791 0.9108 0.0
O15 O 0.0864 0.03055 -0.00633 0.0
H16 H 0.06441 0.00235 -0.00912 0.0
Zn17 Zn 0.09638 0.07304 0.07899 0.0
C18 C 0.12268 -0.00133 0.81553 0.0
O19 O 0.12915 0.97753 0.87801 0.0
O20 O 0.86026 0.14028 0.93715 0.0
O21 O 0.86803 0.14594 0.0558 0.0
O22 O 0.14085 0.84981 0.93582 0.0
O23 O 0.1342 0.85059 0.05479 0.0
O24 O 0.85198 0.86229 0.93772 0.0
O25 O 0.84936 0.86778 0.05684 0.0
C26 C 0.00986 0.11544 0.16228 0.0
O27 O 0.14044 0.13768 0.93661 0.0
O28 O 0.14345 0.12937 0.05521 0.0
O29 O 0.04221 0.8764 0.81534 0.0
C30 C 0.84702 0.1585 -0.00257 0.0
O31 O 0.95386 0.09743 0.8143 0.0
C32 C 0.9874 0.87476 0.16098 0.0
O33 O 0.89448 0.9583 0.8181 0.0
C34 C 0.1562 0.83673 -0.00271 0.0
O35 O 0.10854 0.04355 0.8133 0.0
C36 C 0.88093 0.01116 0.16273 0.0
O37 O 0.96324 0.12226 0.16521 0.0
O38 O 0.02849 0.09706 0.10574 0.0
C39 C 0.83548 0.84759 -0.00173 0.0
O40 O 0.03414 0.86823 0.15909 0.0
O41 O 0.96698 0.89515 0.1074 0.0
C42 C 0.11813 0.98598 0.16105 0.0
O43 O 0.87525 0.96451 0.16642 0.0
O44 O 0.89713 0.02985 0.10491 0.0
C45 C 0.15657 0.15128 -0.00249 0.0
O46 O 0.12305 0.03281 0.16 0.0
O47 O 0.09899 0.96496 0.10684 0.0
C48 C 0.99637 0.86548 0.81805 0.0
O49 O 0.97433 0.86135 0.88071 0.0
C50 C 0.98857 0.12934 0.81197 0.0
O51 O 0.99695 0.1566 0.86896 0.0
Zn52 Zn 0.41803 0.5924 0.41291 0.0
Zn53 Zn 0.42285 0.59759 0.58113 0.0
O54 O 0.46596 0.58703 0.4951 0.0
H55 H 0.49404 0.56496 0.4916 0.0
C56 C 0.36374 0.49383 0.3156 0.0
O57 O 0.33623 0.50352 0.37233 0.0
Zn58 Zn 0.57597 0.39628 0.57906 0.0
Zn59 Zn 0.5784 0.38995 0.41022 0.0
O60 O 0.53362 0.40594 0.49396 0.0
H61 H 0.50635 0.42902 0.49107 0.0
Zn62 Zn 0.399 0.42089 0.41437 0.0
O63 O 0.41184 0.46532 0.49851 0.0
Zn64 Zn 0.39924 0.4223 0.58313 0.0
H65 H 0.4368 0.49096 0.49568 0.0
Zn66 Zn 0.59633 0.57792 0.4108 0.0
O67 O 0.5864 0.53056 0.49367 0.0
H68 H 0.56441 0.50236 0.49088 0.0
Zn69 Zn 0.59638 0.57305 0.57899 0.0
C70 C 0.62268 0.49868 0.31552 0.0
O71 O 0.62915 0.47754 0.37801 0.0
O72 O 0.36027 0.64028 0.43715 0.0
O73 O 0.36803 0.64593 0.5558 0.0
O74 O 0.64085 0.34982 0.43582 0.0
O75 O 0.6342 0.35059 0.55478 0.0
O76 O 0.35198 0.36228 0.43772 0.0
O77 O 0.34936 0.36777 0.55684 0.0
C78 C 0.50986 0.61544 0.66228 0.0
O79 O 0.64043 0.63769 0.43661 0.0
O80 O 0.64345 0.62938 0.55521 0.0
O81 O 0.54221 0.37641 0.31534 0.0
C82 C 0.34702 0.6585 0.49743 0.0
O83 O 0.45387 0.59743 0.31431 0.0
C84 C 0.4874 0.37476 0.66098 0.0
O85 O 0.39448 0.45829 0.3181 0.0
C86 C 0.65619 0.33674 0.49729 0.0
O87 O 0.60855 0.54356 0.3133 0.0
C88 C 0.38092 0.51115 0.66274 0.0
O89 O 0.46324 0.62225 0.66521 0.0
O90 O 0.52849 0.59706 0.60574 0.0
C91 C 0.33548 0.34759 0.49827 0.0
O92 O 0.53414 0.36823 0.65909 0.0
O93 O 0.46698 0.39515 0.6074 0.0
C94 C 0.61813 0.48599 0.66105 0.0
O95 O 0.37525 0.46451 0.66642 0.0
O96 O 0.39713 0.52984 0.60491 0.0
C97 C 0.65657 0.65129 0.49751 0.0
O98 O 0.62305 0.53282 0.66 0.0
O99 O 0.59899 0.46497 0.60684 0.0
C100 C 0.49637 0.36548 0.31805 0.0
O101 O 0.47433 0.36135 0.38071 0.0
C102 C 0.48858 0.62934 0.31197 0.0
O103 O 0.49696 0.6566 0.36896 0.0
C104 C 0.4076 0.36241 0.73018 0.0
C105 C 0.45973 0.36293 0.72745 0.0
C106 C 0.38255 0.35338 0.79476 0.0
C107 C 0.40927 0.34398 0.85764 0.0
C108 C 0.46143 0.34303 0.85415 0.0
C109 C 0.48628 0.35263 0.79011 0.0
C110 C 0.38355 0.33406 0.92676 0.0
C111 C 0.34089 0.30414 0.9297 0.0
C112 C 0.31942 0.29085 -0.00416 0.0
C113 C 0.34214 0.30695 0.0593 0.0
C114 C 0.38545 0.33604 0.05742 0.0
C115 C 0.40427 0.3513 -0.00919 0.0
C116 C 0.41357 0.34653 0.12416 0.0
C117 C 0.38895 0.35161 0.19048 0.0
C118 C 0.46591 0.34824 0.12269 0.0
C119 C 0.49271 0.35502 0.18548 0.0
C120 C 0.46798 0.3588 0.25159 0.0
C121 C 0.27548 0.25728 -0.00124 0.0
C122 C 0.23846 0.25963 0.94608 0.0
C123 C 0.27093 0.2215 0.05322 0.0
C124 C 0.23087 0.18876 0.05459 0.0
C125 C 0.19509 0.19002 0.00048 0.0
C126 C 0.19899 0.22594 0.94646 0.0
C127 C 0.4159 0.35661 0.25354 0.0
H128 H 0.3861 0.36879 0.6827 0.0
H129 H 0.34233 0.35423 0.79553 0.0
H130 H 0.48332 0.33445 0.90091 0.0
H131 H 0.52653 0.35229 0.79007 0.0
H132 H 0.32591 0.28919 0.88056 0.0
H133 H 0.43613 0.37581 -0.01139 0.0
H134 H 0.32686 0.29547 0.1103 0.0
H135 H 0.34882 0.35151 0.19409 0.0
H136 H 0.48659 0.34304 0.07335 0.0
H137 H 0.5329 0.35619 0.18228 0.0
H138 H 0.2401 0.28722 0.90411 0.0
H139 H 0.29913 0.21742 0.09373 0.0
H140 H 0.39579 0.35926 0.30376 0.0
H141 H 0.17172 0.22777 0.90422 0.0
H142 H 0.22918 0.16095 0.09631 0.0
C143 C 0.63285 0.40673 0.72917 0.0
C144 C 0.63117 0.45871 0.72685 0.0
C145 C 0.64307 0.38215 0.7933 0.0
C146 C 0.65245 0.40927 0.85605 0.0
C147 C 0.65243 0.46129 0.85286 0.0
C148 C 0.64175 0.48561 0.78932 0.0
C149 C 0.66313 0.38426 0.92492 0.0
C150 C 0.69436 0.34271 0.92765 0.0
C151 C 0.70842 0.32234 -0.00625 0.0
C152 C 0.69193 0.34535 0.05732 0.0
C153 C 0.66118 0.38745 0.05556 0.0
C154 C 0.6451 0.40481 -0.01101 0.0
C155 C 0.64898 0.41563 0.12224 0.0
C156 C 0.64549 0.3916 0.18886 0.0
C157 C 0.64333 0.4676 0.12029 0.0
C158 C 0.63394 0.49448 0.18278 0.0
C159 C 0.63155 0.47036 0.24909 0.0
C160 C 0.7425 0.27883 -0.00361 0.0
C161 C 0.7402 0.24131 0.94403 0.0
C162 C 0.77829 0.27483 0.05064 0.0
C163 C 0.81078 0.23463 0.05243 0.0
C164 C 0.80928 0.1981 -0.00101 0.0
C165 C 0.77362 0.2017 0.94485 0.0
C166 C 0.63805 0.41879 0.25157 0.0
H167 H 0.62653 0.38498 0.68175 0.0
H168 H 0.64306 0.34203 0.79389 0.0
H169 H 0.66103 0.48347 0.89952 0.0
H170 H 0.64158 0.52575 0.78953 0.0
H171 H 0.70955 0.32772 0.87834 0.0
H172 H 0.61923 0.43545 0.98669 0.0
H173 H 0.70406 0.33103 0.10823 0.0
H174 H 0.64858 0.35175 0.19307 0.0
H175 H 0.64732 0.48809 0.07083 0.0
H176 H 0.62981 0.53433 0.17925 0.0
H177 H 0.71263 0.24249 0.9022 0.0
H178 H 0.78236 0.30338 0.0909 0.0
H179 H 0.63705 0.3992 0.30204 0.0
H180 H 0.77156 0.1739 0.90309 0.0
H181 H 0.8384 0.23321 0.09424 0.0
C182 C 0.54829 0.67903 0.23884 0.0
C183 C 0.51924 0.63615 0.24671 0.0
C184 C 0.57693 0.68645 0.17726 0.0
C185 C 0.57799 0.65077 0.12226 0.0
C186 C 0.54951 0.60732 0.13078 0.0
C187 C 0.52026 0.6002 0.19224 0.0
C188 C 0.60682 0.66049 0.0552 0.0
C189 C 0.65183 0.68692 0.05747 0.0
C190 C 0.6757 0.70308 -0.00562 0.0
C191 C 0.65555 0.68899 0.92799 0.0
C192 C 0.61182 0.6605 0.92441 0.0
C193 C 0.58749 0.64701 -0.01165 0.0
C194 C 0.58949 0.64732 0.85418 0.0
C195 C 0.5887 0.6818 0.79765 0.0
C196 C 0.5666 0.60089 0.84428 0.0
C197 C 0.54202 0.58996 0.78059 0.0
C198 C 0.54029 0.625 0.72546 0.0
C199 C 0.7193 0.7375 -0.00194 0.0
C200 C 0.72289 0.77257 0.05384 0.0
C201 C 0.75635 0.73757 0.94435 0.0
C202 C 0.7945 0.77286 0.9449 0.0
C203 C 0.79735 0.80808 0.00016 0.0
C204 C 0.76176 0.8069 0.05536 0.0
C205 C 0.56434 0.67063 0.73375 0.0
H206 H 0.54821 0.70751 0.27976 0.0
H207 H 0.5973 0.7209 0.17221 0.0
H208 H 0.54994 0.57867 0.09015 0.0
H209 H 0.49885 0.56639 0.19736 0.0
H210 H 0.66791 0.6956 0.1089 0.0
H211 H 0.55203 0.62811 0.98584 0.0
H212 H 0.67316 0.7011 0.87877 0.0
H213 H 0.60524 0.71813 0.80362 0.0
H214 H 0.56723 0.57314 0.88609 0.0
H215 H 0.52369 0.55444 0.77479 0.0
H216 H 0.69477 0.7749 0.09541 0.0
H217 H 0.75584 0.71066 0.90137 0.0
H218 H 0.56293 0.69822 0.69174 0.0
H219 H 0.76272 0.8339 0.0983 0.0
H220 H 0.82176 0.77263 0.90193 0.0
C221 C 0.31857 0.55632 0.24268 0.0
C222 C 0.35899 0.52406 0.25021 0.0
C223 C 0.31332 0.58453 0.18076 0.0
C224 C 0.34891 0.582 0.12526 0.0
C225 C 0.38988 0.55019 0.1334 0.0
C226 C 0.39463 0.52119 0.19497 0.0
C227 C 0.34172 0.61089 0.05821 0.0
C228 C 0.31894 0.65763 0.06067 0.0
C229 C 0.30433 0.68191 -0.00221 0.0
C230 C 0.31786 0.66106 0.9313 0.0
C231 C 0.3429 0.61533 0.92728 0.0
C232 C 0.35364 0.59017 -0.00874 0.0
C233 C 0.35491 0.59198 0.85665 0.0
C234 C 0.32333 0.59801 0.79738 0.0
C235 C 0.39713 0.56156 0.84871 0.0
C236 C 0.40596 0.53591 0.78492 0.0
C237 C 0.37385 0.54153 0.72696 0.0
C238 C 0.27051 0.72576 0.00183 0.0
C239 C 0.23478 0.72927 0.05725 0.0
C240 C 0.27051 0.76221 0.94791 0.0
C241 C 0.23412 0.79918 0.94727 0.0
C242 C 0.19786 0.80142 0.00162 0.0
C243 C 0.19944 0.76701 0.05765 0.0
C244 C 0.33314 0.57347 0.73284 0.0
H245 H 0.29034 0.55916 0.28412 0.0
H246 H 0.28058 0.60751 0.17596 0.0
H247 H 0.4184 0.54773 0.09235 0.0
H248 H 0.42643 0.49687 0.19955 0.0
H249 H 0.31128 0.67458 0.11213 0.0
H250 H 0.36914 0.5532 -0.01108 0.0
H251 H 0.30756 0.67966 0.88245 0.0
H252 H 0.28996 0.62018 0.80123 0.0
H253 H 0.42313 0.55688 0.8921 0.0
H254 H 0.43767 0.51133 0.78099 0.0
H255 H 0.23233 0.70158 0.09896 0.0
H256 H 0.29795 0.76178 0.90528 0.0
H257 H 0.30778 0.5778 0.68855 0.0
H258 H 0.17166 0.76759 0.09993 0.0
H259 H 0.23399 0.82567 0.90376 0.0
C260 C 0.9076 0.86241 0.23018 0.0
C261 C 0.95973 0.86293 0.22745 0.0
C262 C 0.88254 0.85339 0.29476 0.0
C263 C 0.90927 0.84399 0.35764 0.0
C264 C 0.96143 0.84303 0.35415 0.0
C265 C 0.98628 0.85263 0.29011 0.0
C266 C 0.88355 0.83407 0.42676 0.0
C267 C 0.84088 0.80416 0.4297 0.0
C268 C 0.81941 0.79086 0.49585 0.0
C269 C 0.84214 0.80697 0.5593 0.0
C270 C 0.88544 0.83606 0.55742 0.0
C271 C 0.90427 0.85131 0.49081 0.0
C272 C 0.91357 0.84654 0.62416 0.0
C273 C 0.88895 0.85162 0.69048 0.0
C274 C 0.96591 0.84824 0.62269 0.0
C275 C 0.99271 0.85502 0.68548 0.0
C276 C 0.96798 0.85881 0.75159 0.0
C277 C 0.77548 0.75729 0.49876 0.0
C278 C 0.73845 0.75964 0.44608 0.0
C279 C 0.77093 0.72151 0.55322 0.0
C280 C 0.73086 0.68878 0.55459 0.0
C281 C 0.69509 0.69003 0.50048 0.0
C282 C 0.69899 0.72595 0.44646 0.0
C283 C 0.9159 0.85662 0.75355 0.0
H284 H 0.8861 0.86879 0.1827 0.0
H285 H 0.84233 0.85424 0.29553 0.0
H286 H 0.98331 0.83445 0.40091 0.0
H287 H 0.02652 0.85228 0.29007 0.0
H288 H 0.8259 0.7892 0.38057 0.0
H289 H 0.93612 0.87582 0.48861 0.0
H290 H 0.82685 0.79549 0.61031 0.0
H291 H 0.84881 0.85153 0.6941 0.0
H292 H 0.98659 0.84305 0.57335 0.0
H293 H 0.0329 0.85619 0.68228 0.0
H294 H 0.7401 0.78723 0.40411 0.0
H295 H 0.79912 0.71743 0.59374 0.0
H296 H 0.89579 0.85927 0.80377 0.0
H297 H 0.67172 0.72779 0.40422 0.0
H298 H 0.72918 0.66097 0.59632 0.0
C299 C 0.13285 0.90673 0.22917 0.0
C300 C 0.13117 0.9587 0.22685 0.0
C301 C 0.14307 0.88214 0.2933 0.0
C302 C 0.15245 0.90926 0.35606 0.0
C303 C 0.15243 0.96128 0.35286 0.0
C304 C 0.14175 0.98561 0.28933 0.0
C305 C 0.16313 0.88426 0.42492 0.0
C306 C 0.19436 0.84271 0.42765 0.0
C307 C 0.20842 0.82233 0.49376 0.0
C308 C 0.19193 0.84535 0.55732 0.0
C309 C 0.16118 0.88744 0.55556 0.0
C310 C 0.1451 0.90481 0.489 0.0
C311 C 0.14898 0.91562 0.62224 0.0
C312 C 0.1455 0.89159 0.68886 0.0
C313 C 0.14333 0.9676 0.6203 0.0
C314 C 0.13394 0.99447 0.68278 0.0
C315 C 0.13154 0.97035 0.74909 0.0
C316 C 0.2425 0.77883 0.49639 0.0
C317 C 0.2402 0.74131 0.44403 0.0
C318 C 0.27829 0.77482 0.55065 0.0
C319 C 0.31079 0.73463 0.55243 0.0
C320 C 0.30928 0.6981 0.49899 0.0
C321 C 0.27362 0.7017 0.44485 0.0
C322 C 0.13805 0.91878 0.75157 0.0
H323 H 0.12653 0.88498 0.18175 0.0
H324 H 0.14306 0.84202 0.29389 0.0
H325 H 0.16102 0.98346 0.39953 0.0
H326 H 0.14158 0.02574 0.28954 0.0
H327 H 0.20956 0.82772 0.37835 0.0
H328 H 0.11923 0.93544 0.48669 0.0
H329 H 0.20406 0.83103 0.60823 0.0
H330 H 0.14858 0.85174 0.69308 0.0
H331 H 0.14732 0.98808 0.57084 0.0
H332 H 0.12981 0.03432 0.67925 0.0
H333 H 0.21263 0.74249 0.4022 0.0
H334 H 0.28237 0.80337 0.5909 0.0
H335 H 0.13705 0.89919 0.80204 0.0
H336 H 0.27156 0.67389 0.40309 0.0
H337 H 0.3384 0.73321 0.59424 0.0
C338 C 0.04828 0.17903 0.73884 0.0
C339 C 0.01923 0.13615 0.74671 0.0
C340 C 0.07693 0.18645 0.67726 0.0
C341 C 0.07798 0.15077 0.62226 0.0
C342 C 0.04951 0.10732 0.63078 0.0
C343 C 0.02025 0.1002 0.69224 0.0
C344 C 0.10682 0.16049 0.5552 0.0
C345 C 0.15182 0.18692 0.55747 0.0
C346 C 0.17569 0.20307 0.49438 0.0
C347 C 0.15554 0.18899 0.42798 0.0
C348 C 0.11182 0.16049 0.42441 0.0
C349 C 0.08749 0.14701 0.48835 0.0
C350 C 0.08949 0.14732 0.35418 0.0
C351 C 0.08869 0.1818 0.29765 0.0
C352 C 0.0666 0.10088 0.34427 0.0
C353 C 0.04202 0.08996 0.28058 0.0
C354 C 0.04029 0.125 0.22546 0.0
C355 C 0.2193 0.23749 0.49806 0.0
C356 C 0.22289 0.27256 0.55384 0.0
C357 C 0.25635 0.23757 0.44435 0.0
C358 C 0.2945 0.27285 0.44491 0.0
C359 C 0.29735 0.30807 0.50016 0.0
C360 C 0.26176 0.30689 0.55536 0.0
C361 C 0.06434 0.17064 0.23375 0.0
H362 H 0.0482 0.20752 0.77975 0.0
H363 H 0.09729 0.2209 0.6722 0.0
H364 H 0.04994 0.07866 0.59015 0.0
H365 H 0.99884 0.06639 0.69736 0.0
H366 H 0.1679 0.1956 0.6089 0.0
H367 H 0.05203 0.12811 0.48583 0.0
H368 H 0.17315 0.20109 0.37877 0.0
H369 H 0.10523 0.21814 0.30363 0.0
H370 H 0.06723 0.07313 0.38608 0.0
H371 H 0.0237 0.05443 0.27478 0.0
H372 H 0.19477 0.27489 0.59541 0.0
H373 H 0.25584 0.21066 0.40137 0.0
H374 H 0.06292 0.19822 0.19174 0.0
H375 H 0.26272 0.3339 0.5983 0.0
H376 H 0.32176 0.27262 0.40193 0.0
C377 C 0.81857 0.05632 0.74268 0.0
C378 C 0.85898 0.02406 0.7502 0.0
C379 C 0.81331 0.08453 0.68076 0.0
C380 C 0.84891 0.082 0.62525 0.0
C381 C 0.88988 0.0502 0.6334 0.0
C382 C 0.89462 0.0212 0.69497 0.0
C383 C 0.84171 0.1109 0.5582 0.0
C384 C 0.81894 0.15764 0.56066 0.0
C385 C 0.80433 0.18191 0.49778 0.0
C386 C 0.81786 0.16107 0.43129 0.0
C387 C 0.8429 0.11534 0.42727 0.0
C388 C 0.85364 0.09017 0.49126 0.0
C389 C 0.85491 0.09199 0.35665 0.0
C390 C 0.82333 0.09802 0.29738 0.0
C391 C 0.89713 0.06156 0.34871 0.0
C392 C 0.90596 0.03592 0.28492 0.0
C393 C 0.87385 0.04154 0.22696 0.0
C394 C 0.7705 0.22576 0.50182 0.0
C395 C 0.73478 0.22927 0.55724 0.0
C396 C 0.77051 0.26221 0.4479 0.0
C397 C 0.73412 0.29919 0.44726 0.0
C398 C 0.69785 0.30142 0.50162 0.0
C399 C 0.69944 0.26702 0.55765 0.0
C400 C 0.83315 0.07348 0.23283 0.0
H401 H 0.79034 0.05916 0.78412 0.0
H402 H 0.78058 0.10751 0.67595 0.0
H403 H 0.91839 0.04774 0.59235 0.0
H404 H 0.92642 0.99687 0.69954 0.0
H405 H 0.81128 0.17458 0.61212 0.0
H406 H 0.86913 0.0532 0.48892 0.0
H407 H 0.80756 0.17967 0.38244 0.0
H408 H 0.78996 0.12018 0.30122 0.0
H409 H 0.92312 0.05689 0.3921 0.0
H410 H 0.93767 0.01133 0.28099 0.0
H411 H 0.73232 0.20159 0.59896 0.0
H412 H 0.79795 0.26178 0.40527 0.0
H413 H 0.80779 0.07781 0.18854 0.0
H414 H 0.67166 0.26759 0.59993 0.0
H415 H 0.73399 0.32568 0.40375 0.0
loop_
_geom_bond_atom_site_label_1
_geom_bond_atom_site_label_2
_geom_bond_distance
_geom_bond_site_symmetry_2
_ccdc_geom_bond_type
Zn0 O2 1.933 1_556 S
Zn0 O20 1.985 . S
Zn0 O31 1.955 . S
Zn1 O2 1.911 . S
Zn1 O21 1.970 . S
Zn1 O37 1.945 . S
Zn1 O44 1.981 . S
O2 Zn0 1.933 1_554 S
O2 Zn1 1.911 . S
O2 H3 0.841 1_655 S
H3 O2 0.841 1_455 S
C4 O5 1.246 . S
C4 O33 1.276 1_545 S
O5 C4 1.246 . S
Zn6 O8 1.911 . S
Zn6 O23 1.970 . S
Zn6 O40 1.945 . S
Zn6 O47 1.981 . S
Zn7 O8 1.933 1_556 S
Zn7 O22 1.985 . S
Zn7 O29 1.955 . S
O8 Zn6 1.911 . S
O8 Zn7 1.933 1_554 S
O8 H9 0.841 1_455 S
H9 O8 0.841 1_655 S
Zn10 O11 1.933 1_556 S
Zn10 O24 1.985 . S
Zn10 O33 1.955 . S
O11 Zn10 1.933 1_554 S
O11 Zn12 1.911 . S
O11 H13 0.841 1_565 S
Zn12 O11 1.911 . S
Zn12 O25 1.970 . S
Zn12 O41 1.981 . S
Zn12 O43 1.945 . S
H13 O11 0.841 1_545 S
Zn14 O15 1.933 1_556 S
Zn14 O27 1.985 . S
Zn14 O35 1.955 . S
O15 Zn14 1.933 1_554 S
O15 H16 0.841 1_545 S
O15 Zn17 1.911 . S
H16 O15 0.841 1_565 S
Zn17 O15 1.911 . S
Zn17 O28 1.970 . S
Zn17 O38 1.981 . S
Zn17 O46 1.945 . S
C18 O19 1.246 . S
C18 O35 1.276 1_565 S
O19 C18 1.246 . S
O20 Zn0 1.985 . S
O20 C30 1.245 1_556 S
O21 Zn1 1.970 . S
O21 C30 1.263 . S
O22 Zn7 1.985 . S
O22 C34 1.245 1_556 S
O23 Zn6 1.970 . S
O23 C34 1.263 . S
O24 Zn10 1.985 . S
O24 C39 1.245 1_556 S
O25 Zn12 1.970 . S
O25 C39 1.263 . S
C26 O37 1.262 1_455 S
C26 O38 1.245 . S
O27 Zn14 1.985 . S
O27 C45 1.245 1_556 S
O28 Zn17 1.970 . S
O28 C45 1.263 . S
O29 Zn7 1.955 . S
O29 C48 1.276 1_455 S
C30 O20 1.245 1_554 S
C30 O21 1.263 . S
O31 Zn0 1.955 . S
O31 C50 1.276 1_655 S
C32 O40 1.262 1_655 S
C32 O41 1.245 . S
O33 C4 1.276 1_565 S
O33 Zn10 1.955 . S
C34 O22 1.245 1_554 S
C34 O23 1.263 . S
O35 Zn14 1.955 . S
O35 C18 1.276 1_545 S
C36 O43 1.262 1_545 S
C36 O44 1.245 . S
O37 Zn1 1.945 . S
O37 C26 1.262 1_655 S
O38 Zn17 1.981 . S
O38 C26 1.245 . S
C39 O24 1.245 1_554 S
C39 O25 1.263 . S
O40 Zn6 1.945 . S
O40 C32 1.262 1_455 S
O41 Zn12 1.981 . S
O41 C32 1.245 . S
C42 O46 1.262 1_565 S
C42 O47 1.245 . S
O43 Zn12 1.945 . S
O43 C36 1.262 1_565 S
O44 Zn1 1.981 . S
O44 C36 1.245 . S
C45 O27 1.245 1_554 S
C45 O28 1.263 . S
O46 Zn17 1.945 . S
O46 C42 1.262 1_545 S
O47 Zn6 1.981 . S
O47 C42 1.245 . S
C48 O29 1.276 1_655 S
C48 O49 1.246 . S
O49 C48 1.246 . S
C50 O31 1.276 1_455 S
C50 O51 1.246 . S
O51 C50 1.246 . S
Zn52 O54 1.933 . S
Zn52 O72 1.985 . S
Zn52 O83 1.955 . S
Zn53 O54 1.911 . S
Zn53 O73 1.970 . S
Zn53 O89 1.945 . S
Zn53 O96 1.981 . S
O54 Zn52 1.933 . S
O54 Zn53 1.911 . S
O54 H55 0.841 . S
H55 O54 0.841 . S
C56 O57 1.246 . S
C56 O85 1.276 . S
O57 C56 1.246 . S
Zn58 O60 1.911 . S
Zn58 O75 1.970 . S
Zn58 O92 1.945 . S
Zn58 O99 1.981 . S
Zn59 O60 1.933 . S
Zn59 O74 1.985 . S
Zn59 O81 1.955 . S
O60 Zn58 1.911 . S
O60 Zn59 1.933 . S
O60 H61 0.841 . S
H61 O60 0.841 . S
Zn62 O63 1.933 . S
Zn62 O76 1.985 . S
Zn62 O85 1.955 . S
O63 Zn62 1.933 . S
O63 Zn64 1.911 . S
O63 H65 0.841 . S
Zn64 O63 1.911 . S
Zn64 O77 1.970 . S
Zn64 O93 1.981 . S
Zn64 O95 1.945 . S
H65 O63 0.841 . S
Zn66 O67 1.933 . S
Zn66 O79 1.985 . S
Zn66 O87 1.955 . S
O67 Zn66 1.933 . S
O67 H68 0.841 . S
O67 Zn69 1.911 . S
H68 O67 0.841 . S
Zn69 O67 1.911 . S
Zn69 O80 1.970 . S
Zn69 O90 1.981 . S
Zn69 O98 1.945 . S
C70 O71 1.246 . S
C70 O87 1.276 . S
O71 C70 1.246 . S
O72 Zn52 1.985 . S
O72 C82 1.245 . S
O73 Zn53 1.970 . S
O73 C82 1.263 . S
O74 Zn59 1.985 . S
O74 C86 1.245 . S
O75 Zn58 1.970 . S
O75 C86 1.263 . S
O76 Zn62 1.985 . S
O76 C91 1.245 . S
O77 Zn64 1.970 . S
O77 C91 1.263 . S
C78 O89 1.262 . S
C78 O90 1.245 . S
O79 Zn66 1.985 . S
O79 C97 1.245 . S
O80 Zn69 1.970 . S
O80 C97 1.263 . S
O81 Zn59 1.955 . S
O81 C100 1.276 . S
C82 O72 1.245 . S
C82 O73 1.263 . S
O83 Zn52 1.955 . S
O83 C102 1.276 . S
C84 O92 1.262 . S
C84 O93 1.245 . S
O85 C56 1.276 . S
O85 Zn62 1.955 . S
C86 O74 1.245 . S
C86 O75 1.263 . S
O87 Zn66 1.955 . S
O87 C70 1.276 . S
C88 O95 1.262 . S
C88 O96 1.245 . S
O89 Zn53 1.945 . S
O89 C78 1.262 . S
O90 Zn69 1.981 . S
O90 C78 1.245 . S
C91 O76 1.245 . S
C91 O77 1.263 . S
O92 Zn58 1.945 . S
O92 C84 1.262 . S
O93 Zn64 1.981 . S
O93 C84 1.245 . S
C94 O98 1.262 . S
C94 O99 1.245 . S
O95 Zn64 1.945 . S
O95 C88 1.262 . S
O96 Zn53 1.981 . S
O96 C88 1.245 . S
C97 O79 1.245 . S
C97 O80 1.263 . S
O98 Zn69 1.945 . S
O98 C94 1.262 . S
O99 Zn58 1.981 . S
O99 C94 1.245 . S
C100 O81 1.276 . S
C100 O101 1.246 . S
O101 C100 1.246 . S
C102 O83 1.276 . S
C102 O103 1.246 . S
O103 C102 1.246 . S
C104 C105 1.386 . S
C104 C106 1.397 . S
C104 H128 0.931 . S
C105 C104 1.386 . S
C105 C109 1.397 . S
C106 C104 1.397 . S
C106 C107 1.384 . S
C106 H129 0.930 . S
C107 C106 1.384 . S
C107 C108 1.377 . S
C107 C110 1.481 . S
C108 C107 1.377 . S
C108 C109 1.389 . S
C108 H130 0.929 . S
C109 C105 1.397 . S
C109 C108 1.389 . S
C109 H131 0.931 . S
C110 C107 1.481 . S
C110 C111 1.387 . S
C110 C115 1.390 1_556 S
C111 C110 1.387 . S
C111 C112 1.401 1_556 S
C111 H132 0.930 . S
C112 C111 1.401 1_554 S
C112 C113 1.376 . S
C112 C121 1.511 . S
C113 C112 1.376 . S
C113 C114 1.392 . S
C113 H134 0.931 . S
C114 C113 1.392 . S
C114 C115 1.361 . S
C114 C116 1.500 . S
C115 C110 1.390 1_554 S
C115 C114 1.361 . S
C115 H133 0.931 . S
C116 C114 1.500 . S
C116 C117 1.371 . S
C116 C118 1.365 . S
C117 C116 1.371 . S
C117 C127 1.386 . S
C117 H135 0.931 . S
C118 C116 1.365 . S
C118 C119 1.409 . S
C118 H136 0.929 . S
C119 C118 1.409 . S
C119 C120 1.380 . S
C119 H137 0.930 . S
C120 C119 1.380 . S
C120 C127 1.357 . S
C121 C112 1.511 . S
C121 C122 1.341 1_554 S
C121 C123 1.371 . S
C122 C121 1.341 1_556 S
C122 C126 1.394 . S
C122 H138 0.930 . S
C123 C121 1.371 . S
C123 C124 1.392 . S
C123 H139 0.931 . S
C124 C123 1.392 . S
C124 C125 1.331 . S
C124 H142 0.932 . S
C125 C124 1.331 . S
C125 C126 1.336 1_554 S
C126 C122 1.394 . S
C126 C125 1.336 1_556 S
C126 H141 0.929 . S
C127 C117 1.386 . S
C127 C120 1.357 . S
C127 H140 0.928 . S
H128 C104 0.931 . S
H129 C106 0.930 . S
H130 C108 0.929 . S
H131 C109 0.931 . S
H132 C111 0.930 . S
H133 C115 0.931 . S
H134 C113 0.931 . S
H135 C117 0.931 . S
H136 C118 0.929 . S
H137 C119 0.930 . S
H138 C122 0.930 . S
H139 C123 0.931 . S
H140 C127 0.928 . S
H141 C126 0.929 . S
H142 C124 0.932 . S
C143 C144 1.386 . S
C143 C145 1.397 . S
C143 H167 0.931 . S
C144 C143 1.386 . S
C144 C148 1.397 . S
C145 C143 1.397 . S
C145 C146 1.384 . S
C145 H168 0.930 . S
C146 C145 1.384 . S
C146 C147 1.377 . S
C146 C149 1.481 . S
C147 C146 1.377 . S
C147 C148 1.389 . S
C147 H169 0.929 . S
C148 C144 1.397 . S
C148 C147 1.389 . S
C148 H170 0.931 . S
C149 C146 1.481 . S
C149 C150 1.387 . S
C149 C154 1.390 1_556 S
C150 C149 1.387 . S
C150 C151 1.401 1_556 S
C150 H171 0.930 . S
C151 C150 1.401 1_554 S
C151 C152 1.376 . S
C151 C160 1.511 . S
C152 C151 1.376 . S
C152 C153 1.392 . S
C152 H173 0.931 . S
C153 C152 1.392 . S
C153 C154 1.361 . S
C153 C155 1.500 . S
C154 C149 1.390 1_554 S
C154 C153 1.361 . S
C154 H172 0.931 . S
C155 C153 1.500 . S
C155 C156 1.371 . S
C155 C157 1.365 . S
C156 C155 1.371 . S
C156 C166 1.386 . S
C156 H174 0.931 . S
C157 C155 1.365 . S
C157 C158 1.409 . S
C157 H175 0.929 . S
C158 C157 1.409 . S
C158 C159 1.380 . S
C158 H176 0.930 . S
C159 C158 1.380 . S
C159 C166 1.357 . S
C160 C151 1.511 . S
C160 C161 1.341 1_554 S
C160 C162 1.371 . S
C161 C160 1.341 1_556 S
C161 C165 1.394 . S
C161 H177 0.930 . S
C162 C160 1.371 . S
C162 C163 1.392 . S
C162 H178 0.931 . S
C163 C162 1.392 . S
C163 C164 1.331 . S
C163 H181 0.932 . S
C164 C163 1.331 . S
C164 C165 1.336 1_554 S
C165 C161 1.394 . S
C165 C164 1.336 1_556 S
C165 H180 0.929 . S
C166 C156 1.386 . S
C166 C159 1.357 . S
C166 H179 0.928 . S
H167 C143 0.931 . S
H168 C145 0.930 . S
H169 C147 0.929 . S
H170 C148 0.931 . S
H171 C150 0.930 . S
H172 C154 0.931 . S
H173 C152 0.931 . S
H174 C156 0.931 . S
H175 C157 0.929 . S
H176 C158 0.930 . S
H177 C161 0.930 . S
H178 C162 0.931 . S
H179 C166 0.928 . S
H180 C165 0.929 . S
H181 C163 0.932 . S
C182 C183 1.386 . S
C182 C184 1.397 . S
C182 H206 0.931 . S
C183 C182 1.386 . S
C183 C187 1.397 . S
C184 C182 1.397 . S
C184 C185 1.384 . S
C184 H207 0.930 . S
C185 C184 1.384 . S
C185 C186 1.377 . S
C185 C188 1.481 . S
C186 C185 1.377 . S
C186 C187 1.389 . S
C186 H208 0.929 . S
C187 C183 1.397 . S
C187 C186 1.389 . S
C187 H209 0.931 . S
C188 C185 1.481 . S
C188 C189 1.387 . S
C188 C193 1.390 . S
C189 C188 1.387 . S
C189 C190 1.401 . S
C189 H210 0.930 . S
C190 C189 1.401 . S
C190 C191 1.376 1_554 S
C190 C199 1.511 . S
C191 C190 1.376 1_556 S
C191 C192 1.392 . S
C191 H212 0.931 . S
C192 C191 1.392 . S
C192 C193 1.361 1_556 S
C192 C194 1.500 . S
C193 C188 1.390 . S
C193 C192 1.361 1_554 S
C193 H211 0.931 . S
C194 C192 1.500 . S
C194 C195 1.371 . S
C194 C196 1.365 . S
C195 C194 1.371 . S
C195 C205 1.386 . S
C195 H213 0.931 . S
C196 C194 1.365 . S
C196 C197 1.409 . S
C196 H214 0.929 . S
C197 C196 1.409 . S
C197 C198 1.380 . S
C197 H215 0.930 . S
C198 C197 1.380 . S
C198 C205 1.357 . S
C199 C190 1.511 . S
C199 C200 1.341 . S
C199 C201 1.371 1_554 S
C200 C199 1.341 . S
C200 C204 1.394 . S
C200 H216 0.930 . S
C201 C199 1.371 1_556 S
C201 C202 1.392 . S
C201 H217 0.931 . S
C202 C201 1.392 . S
C202 C203 1.331 1_556 S
C202 H220 0.932 . S
C203 C202 1.331 1_554 S
C203 C204 1.336 . S
C204 C200 1.394 . S
C204 C203 1.336 . S
C204 H219 0.929 . S
C205 C195 1.386 . S
C205 C198 1.357 . S
C205 H218 0.928 . S
H206 C182 0.931 . S
H207 C184 0.930 . S
H208 C186 0.929 . S
H209 C187 0.931 . S
H210 C189 0.930 . S
H211 C193 0.931 . S
H212 C191 0.931 . S
H213 C195 0.931 . S
H214 C196 0.929 . S
H215 C197 0.930 . S
H216 C200 0.930 . S
H217 C201 0.931 . S
H218 C205 0.928 . S
H219 C204 0.929 . S
H220 C202 0.932 . S
C221 C222 1.386 . S
C221 C223 1.397 . S
C221 H245 0.931 . S
C222 C221 1.386 . S
C222 C226 1.397 . S
C223 C221 1.397 . S
C223 C224 1.384 . S
C223 H246 0.930 . S
C224 C223 1.384 . S
C224 C225 1.377 . S
C224 C227 1.481 . S
C225 C224 1.377 . S
C225 C226 1.389 . S
C225 H247 0.929 . S
C226 C222 1.397 . S
C226 C225 1.389 . S
C226 H248 0.931 . S
C227 C224 1.481 . S
C227 C228 1.387 . S
C227 C232 1.390 . S
C228 C227 1.387 . S
C228 C229 1.401 . S
C228 H249 0.930 . S
C229 C228 1.401 . S
C229 C230 1.376 1_554 S
C229 C238 1.511 . S
C230 C229 1.376 1_556 S
C230 C231 1.392 . S
C230 H251 0.931 . S
C231 C230 1.392 . S
C231 C232 1.361 1_556 S
C231 C233 1.500 . S
C232 C227 1.390 . S
C232 C231 1.361 1_554 S
C232 H250 0.931 . S
C233 C231 1.500 . S
C233 C234 1.371 . S
C233 C235 1.365 . S
C234 C233 1.371 . S
C234 C244 1.386 . S
C234 H252 0.931 . S
C235 C233 1.365 . S
C235 C236 1.409 . S
C235 H253 0.929 . S
C236 C235 1.409 . S
C236 C237 1.380 . S
C236 H254 0.930 . S
C237 C236 1.380 . S
C237 C244 1.357 . S
C238 C229 1.511 . S
C238 C239 1.341 . S
C238 C240 1.371 1_554 S
C239 C238 1.341 . S
C239 C243 1.394 . S
C239 H255 0.930 . S
C240 C238 1.371 1_556 S
C240 C241 1.392 . S
C240 H256 0.931 . S
C241 C240 1.392 . S
C241 C242 1.331 1_556 S
C241 H259 0.932 . S
C242 C241 1.331 1_554 S
C242 C243 1.336 . S
C243 C239 1.394 . S
C243 C242 1.336 . S
C243 H258 0.929 . S
C244 C234 1.386 . S
C244 C237 1.357 . S
C244 H257 0.928 . S
H245 C221 0.931 . S
H246 C223 0.930 . S
H247 C225 0.929 . S
H248 C226 0.931 . S
H249 C228 0.930 . S
H250 C232 0.931 . S
H251 C230 0.931 . S
H252 C234 0.931 . S
H253 C235 0.929 . S
H254 C236 0.930 . S
H255 C239 0.930 . S
H256 C240 0.931 . S
H257 C244 0.928 . S
H258 C243 0.929 . S
H259 C241 0.932 . S
C260 C261 1.386 . S
C260 C262 1.397 . S
C260 H284 0.931 . S
C261 C260 1.386 . S
C261 C265 1.401 . S
C262 C260 1.397 . S
C262 C263 1.384 . S
C262 H285 0.930 . S
C263 C262 1.384 . S
C263 C264 1.377 . S
C263 C266 1.481 . S
C264 C263 1.377 . S
C264 C265 1.391 . S
C264 H286 0.929 1_655 S
C265 C261 1.401 . S
C265 C264 1.391 . S
C265 H287 0.926 1_655 S
C266 C263 1.481 . S
C266 C267 1.387 . S
C266 C271 1.390 . S
C267 C266 1.387 . S
C267 C268 1.401 . S
C267 H288 0.930 . S
C268 C267 1.401 . S
C268 C269 1.376 . S
C268 C277 1.511 . S
C269 C268 1.376 . S
C269 C270 1.392 . S
C269 H290 0.931 . S
C270 C269 1.392 . S
C270 C271 1.361 . S
C270 C272 1.500 . S
C271 C266 1.390 . S
C271 C270 1.361 . S
C271 H289 0.931 . S
C272 C270 1.500 . S
C272 C273 1.371 . S
C272 C274 1.365 . S
C273 C272 1.371 . S
C273 C283 1.386 . S
C273 H291 0.931 . S
C274 C272 1.365 . S
C274 C275 1.410 . S
C274 H292 0.929 1_655 S
C275 C274 1.410 . S
C275 C276 1.382 . S
C275 H293 0.928 1_655 S
C276 C275 1.382 . S
C276 C283 1.357 . S
C277 C268 1.511 . S
C277 C278 1.341 . S
C277 C279 1.371 . S
C278 C277 1.341 . S
C278 C282 1.394 . S
C278 H294 0.930 . S
C279 C277 1.371 . S
C279 C280 1.392 . S
C279 H295 0.931 . S
C280 C279 1.392 . S
C280 C281 1.331 . S
C280 H298 0.932 . S
C281 C280 1.331 . S
C281 C282 1.336 . S
C282 C278 1.394 . S
C282 C281 1.336 . S
C282 H297 0.929 . S
C283 C273 1.386 . S
C283 C276 1.357 . S
C283 H296 0.928 . S
H284 C260 0.931 . S
H285 C262 0.930 . S
H286 C264 0.929 1_455 S
H287 C265 0.926 1_455 S
H288 C267 0.930 . S
H289 C271 0.931 . S
H290 C269 0.931 . S
H291 C273 0.931 . S
H292 C274 0.929 1_455 S
H293 C275 0.928 1_455 S
H294 C278 0.930 . S
H295 C279 0.931 . S
H296 C283 0.928 . S
H297 C282 0.929 . S
H298 C280 0.932 . S
C299 C300 1.386 . S
C299 C301 1.397 . S
C299 H323 0.931 . S
C300 C299 1.386 . S
C300 C304 1.403 . S
C301 C299 1.397 . S
C301 C302 1.384 . S
C301 H324 0.930 . S
C302 C301 1.384 . S
C302 C303 1.377 . S
C302 C305 1.481 . S
C303 C302 1.377 . S
C303 C304 1.393 . S
C303 H325 0.929 1_565 S
C304 C300 1.403 . S
C304 C303 1.393 . S
C304 H326 0.921 1_565 S
C305 C302 1.481 . S
C305 C306 1.387 . S
C305 C310 1.390 . S
C306 C305 1.387 . S
C306 C307 1.401 . S
C306 H327 0.930 . S
C307 C306 1.401 . S
C307 C308 1.376 . S
C307 C316 1.511 . S
C308 C307 1.376 . S
C308 C309 1.392 . S
C308 H329 0.931 . S
C309 C308 1.392 . S
C309 C310 1.361 . S
C309 C311 1.500 . S
C310 C305 1.390 . S
C310 C309 1.361 . S
C310 H328 0.931 . S
C311 C309 1.500 . S
C311 C312 1.371 . S
C311 C313 1.365 . S
C312 C311 1.371 . S
C312 C322 1.386 . S
C312 H330 0.931 . S
C313 C311 1.365 . S
C313 C314 1.412 . S
C313 H331 0.929 1_565 S
C314 C313 1.412 . S
C314 C315 1.385 . S
C314 H332 0.923 1_565 S
C315 C314 1.385 . S
C315 C322 1.357 . S
C316 C307 1.511 . S
C316 C317 1.341 . S
C316 C318 1.371 . S
C317 C316 1.341 . S
C317 C321 1.394 . S
C317 H333 0.930 . S
C318 C316 1.371 . S
C318 C319 1.392 . S
C318 H334 0.931 . S
C319 C318 1.392 . S
C319 C320 1.331 . S
C319 H337 0.932 . S
C320 C319 1.331 . S
C320 C321 1.336 . S
C321 C317 1.394 . S
C321 C320 1.336 . S
C321 H336 0.929 . S
C322 C312 1.386 . S
C322 C315 1.357 . S
C322 H335 0.928 . S
H323 C299 0.931 . S
H324 C301 0.930 . S
H325 C303 0.929 1_545 S
H326 C304 0.921 1_545 S
H327 C306 0.930 . S
H328 C310 0.931 . S
H329 C308 0.931 . S
H330 C312 0.931 . S
H331 C313 0.929 1_545 S
H332 C314 0.923 1_545 S
H333 C317 0.930 . S
H334 C318 0.931 . S
H335 C322 0.928 . S
H336 C321 0.929 . S
H337 C319 0.932 . S
C338 C339 1.386 . S
C338 C340 1.397 . S
C338 H362 0.931 . S
C339 C338 1.386 . S
C339 C343 1.397 . S
C340 C338 1.397 . S
C340 C341 1.384 . S
C340 H363 0.930 . S
C341 C340 1.384 . S
C341 C342 1.377 . S
C341 C344 1.481 . S
C342 C341 1.377 . S
C342 C343 1.389 . S
C342 H364 0.929 . S
C343 C339 1.397 . S
C343 C342 1.389 . S
C343 H365 0.931 . S
C344 C341 1.481 . S
C344 C345 1.387 . S
C344 C349 1.390 . S
C345 C344 1.387 . S
C345 C346 1.401 . S
C345 H366 0.930 . S
C346 C345 1.401 . S
C346 C347 1.376 . S
C346 C355 1.511 . S
C347 C346 1.376 . S
C347 C348 1.392 . S
C347 H368 0.931 . S
C348 C347 1.392 . S
C348 C349 1.361 . S
C348 C350 1.500 . S
C349 C344 1.390 . S
C349 C348 1.361 . S
C349 H367 0.931 . S
C350 C348 1.500 . S
C350 C351 1.371 . S
C350 C352 1.365 . S
C351 C350 1.371 . S
C351 C361 1.386 . S
C351 H369 0.931 . S
C352 C350 1.365 . S
C352 C353 1.409 . S
C352 H370 0.929 . S
C353 C352 1.409 . S
C353 C354 1.380 . S
C353 H371 0.930 . S
C354 C353 1.380 . S
C354 C361 1.357 . S
C355 C346 1.511 . S
C355 C356 1.341 . S
C355 C357 1.371 . S
C356 C355 1.341 . S
C356 C360 1.394 . S
C356 H372 0.930 . S
C357 C355 1.371 . S
C357 C358 1.392 . S
C357 H373 0.931 . S
C358 C357 1.392 . S
C358 C359 1.331 . S
C358 H376 0.932 . S
C359 C358 1.331 . S
C359 C360 1.336 . S
C360 C356 1.394 . S
C360 C359 1.336 . S
C360 H375 0.929 . S
C361 C351 1.386 . S
C361 C354 1.357 . S
C361 H374 0.928 . S
H362 C338 0.931 . S
H363 C340 0.930 . S
H364 C342 0.929 . S
H365 C343 0.931 . S
H366 C345 0.930 . S
H367 C349 0.931 . S
H368 C347 0.931 . S
H369 C351 0.931 . S
H370 C352 0.929 . S
H371 C353 0.930 . S
H372 C356 0.930 . S
H373 C357 0.931 . S
H374 C361 0.928 . S
H375 C360 0.929 . S
H376 C358 0.932 . S
C377 C378 1.386 . S
C377 C379 1.397 . S
C377 H401 0.931 . S
C378 C377 1.386 . S
C378 C382 1.397 . S
C379 C377 1.397 . S
C379 C380 1.384 . S
C379 H402 0.930 . S
C380 C379 1.384 . S
C380 C381 1.377 . S
C380 C383 1.481 . S
C381 C380 1.377 . S
C381 C382 1.389 . S
C381 H403 0.929 . S
C382 C378 1.397 . S
C382 C381 1.389 . S
C382 H404 0.931 . S
C383 C380 1.481 . S
C383 C384 1.387 . S
C383 C388 1.390 . S
C384 C383 1.387 . S
C384 C385 1.401 . S
C384 H405 0.930 . S
C385 C384 1.401 . S
C385 C386 1.376 . S
C385 C394 1.511 . S
C386 C385 1.376 . S
C386 C387 1.392 . S
C386 H407 0.931 . S
C387 C386 1.392 . S
C387 C388 1.361 . S
C387 C389 1.500 . S
C388 C383 1.390 . S
C388 C387 1.361 . S
C388 H406 0.931 . S
C389 C387 1.500 . S
C389 C390 1.371 . S
C389 C391 1.365 . S
C390 C389 1.371 . S
C390 C400 1.386 . S
C390 H408 0.931 . S
C391 C389 1.365 . S
C391 C392 1.409 . S
C391 H409 0.929 . S
C392 C391 1.409 . S
C392 C393 1.380 . S
C392 H410 0.930 . S
C393 C392 1.380 . S
C393 C400 1.357 . S
C394 C385 1.511 . S
C394 C395 1.341 . S
C394 C396 1.371 . S
C395 C394 1.341 . S
C395 C399 1.394 . S
C395 H411 0.930 . S
C396 C394 1.371 . S
C396 C397 1.392 . S
C396 H412 0.931 . S
C397 C396 1.392 . S
C397 C398 1.331 . S
C397 H415 0.932 . S
C398 C397 1.331 . S
C398 C399 1.336 . S
C399 C395 1.394 . S
C399 C398 1.336 . S
C399 H414 0.929 . S
C400 C390 1.386 . S
C400 C393 1.357 . S
C400 H413 0.928 . S
H401 C377 0.931 . S
H402 C379 0.930 . S
H403 C381 0.929 . S
H404 C382 0.931 . S
H405 C384 0.930 . S
H406 C388 0.931 . S
H407 C386 0.931 . S
H408 C390 0.931 . S
H409 C391 0.929 . S
H410 C392 0.930 . S
H411 C395 0.930 . S
H412 C396 0.931 . S
H413 C400 0.928 . S
H414 C399 0.929 . S
H415 C397 0.932 . S
C45 C125 1.880 . S
C30 C164 1.880 . S
C39 C203 1.920 . S
C242 C34 1.920 . S
C97 C281 1.880 . S
C320 C82 1.880 . S
C359 C91 1.920 . S
C398 C86 1.920 . S
C354 C26 1.676 . S
C393 C36 1.675 . S
C261 C32 1.676 . S
C300 C42 1.678 . S
C18 C315 1.877 . S
C339 C50 1.887 . S
C4 C378 1.889 . S
C48 C276 1.879 . S
C198 C78 1.677 . S
C88 C237 1.675 . S
C105 C84 1.676 . S
C144 C94 1.678 . S
C159 C70 1.877 . S
C183 C102 1.887 . S
C56 C222 1.889 . S
C100 C120 1.879 . S
