# Generated by pormake.
# Topology pth, (4,4)-cn, num edge types: 1
# Building blocks:
#     Node 0, Type 0, BuildingBlock: AZAVOO_clean_sbu_0, # of connection points: 4
#     Node 1, Type 0, BuildingBlock: AZAVOO_clean_sbu_0, # of connection points: 4
#     Node 2, Type 0, BuildingBlock: AZAVOO_clean_sbu_0, # of connection points: 4
#     Node 3, Type 1, BuildingBlock: AZAVOO_clean_linker_0, # of connection points: 4
#     Node 4, Type 1, BuildingBlock: AZAVOO_clean_linker_0, # of connection points: 4
#     Node 5, Type 1, BuildingBlock: AZAVOO_clean_linker_0, # of connection points: 4
#     Edge 6, Type (0, 1), BuildingBlock: XUDNAN_clean_linker_2, # of connection points: 2
#     Edge 7, Type (0, 1), BuildingBlock: XUDNAN_clean_linker_2, # of connection points: 2
#     Edge 8, Type (0, 1), BuildingBlock: XUDNAN_clean_linker_2, # of connection points: 2
#     Edge 9, Type (0, 1), BuildingBlock: XUDNAN_clean_linker_2, # of connection points: 2
#     Edge 10, Type (0, 1), BuildingBlock: XUDNAN_clean_linker_2, # of connection points: 2
#     Edge 11, Type (0, 1), BuildingBlock: XUDNAN_clean_linker_2, # of connection points: 2
#     Edge 12, Type (0, 1), BuildingBlock: XUDNAN_clean_linker_2, # of connection points: 2
#     Edge 13, Type (0, 1), BuildingBlock: XUDNAN_clean_linker_2, # of connection points: 2
#     Edge 14, Type (0, 1), BuildingBlock: XUDNAN_clean_linker_2, # of connection points: 2
#     Edge 15, Type (0, 1), BuildingBlock: XUDNAN_clean_linker_2, # of connection points: 2
#     Edge 16, Type (0, 1), BuildingBlock: XUDNAN_clean_linker_2, # of connection points: 2
#     Edge 17, Type (0, 1), BuildingBlock: XUDNAN_clean_linker_2, # of connection points: 2
# Relax obj value: 0.174
# Max RMSD: 0.231
# Mean RMSD: 0.224
data_MOF--net-pth--node1-AZAVOO_clean_sbu_0--node2-AZAVOO_clean_linker_0--edge1-XUDNAN_clean_linker_2
_symmetry_space_group_name_H-M    P1
_symmetry_Int_Tables_number       1
_symmetry_cell_setting            triclinic
loop_
_symmetry_equiv_pos_as_xyz
'x, y, z'
_cell_length_a     26.000542
_cell_length_b     26.698743
_cell_length_c     69.822034
_cell_angle_alpha  92.339924
_cell_angle_beta   91.891411
_cell_angle_gamma 122.10438
loop_
_atom_site_label
_atom_site_type_symbol
_atom_site_fract_x
_atom_site_fract_y
_atom_site_fract_z
_atom_type_partial_charge
Mg0 Mg 0.17286 0.13795 0.09193 0.0
O1 O 0.10643 0.06979 0.06818 0.0
O2 O 0.07172 0.11508 0.05055 0.0
Mg3 Mg 0.11533 0.21068 0.0629 0.0
C4 C 0.07362 0.0695 0.05408 0.0
C5 C 0.16073 0.01664 0.10585 0.0
O6 O 0.1601 -0.00084 0.08794 0.0
O7 O 0.09478 0.12999 0.1076 0.0
O8 O 0.06356 0.17892 0.09052 0.0
O9 O 0.24888 0.16706 0.07245 0.0
O10 O 0.19199 0.20564 0.0747 0.0
C11 C 0.06017 0.14971 0.105 0.0
C12 C 0.23417 0.20336 0.06639 0.0
O13 O 0.1669 0.06646 0.10978 0.0
Mg14 Mg 0.91371 0.96877 0.41538 0.0
O15 O 0.01326 0.01938 0.42619 0.0
O16 O 0.03807 0.1025 0.44333 0.0
Mg17 Mg 0.9531 0.10784 0.44134 0.0
C18 C 0.05164 0.06643 0.4363 0.0
C19 C 0.92019 0.85945 0.3985 0.0
O20 O 0.88603 0.83112 0.41254 0.0
O21 O 0.93602 0.03266 0.39195 0.0
O22 O 0.95858 0.11577 0.4087 0.0
O23 O 0.88754 0.92618 0.44346 0.0
O24 O 0.89456 0.01006 0.43732 0.0
C25 C 0.95172 0.08688 0.39278 0.0
C26 C 0.88548 0.9716 0.44946 0.0
O27 O 0.93492 0.9123 0.39617 0.0
Mg28 Mg 0.0354 0.11065 0.74086 0.0
O29 O 0.11619 0.1927 0.75625 0.0
O30 O 0.08724 0.22726 0.78039 0.0
Mg31 Mg 0.98388 0.16164 0.78094 0.0
C32 C 0.1285 0.2307 0.77008 0.0
C33 C 0.11261 0.09119 0.71064 0.0
O34 O 0.08559 0.03759 0.71676 0.0
O35 O 0.00289 0.16559 0.72748 0.0
O36 O 0.96594 0.1906 0.75201 0.0
O37 O 0.04625 0.05231 0.7603 0.0
O38 O 0.98947 0.08973 0.76598 0.0
C39 C 0.97566 0.18991 0.73419 0.0
C40 C 0.01143 0.05902 0.77157 0.0
O41 O 0.09808 0.12702 0.7169 0.0
H42 H 0.9402 0.42564 0.11608 0.0
H43 H 0.1486 0.88966 0.28746 0.0
H44 H 0.87777 0.378 0.2154 0.0
H45 H 0.85663 0.28687 0.19791 0.0
H46 H 0.02486 0.31444 0.22273 0.0
H47 H 0.04648 0.40623 0.2398 0.0
H48 H 0.91295 0.49041 0.19451 0.0
H49 H 0.91013 0.46532 0.16021 0.0
H50 H 0.07039 0.45701 0.17023 0.0
H51 H 0.07303 0.48272 0.20444 0.0
H52 H 0.93948 0.60452 0.22133 0.0
H53 H 0.96394 0.68691 0.20143 0.0
H54 H 0.12964 0.698 0.1868 0.0
H55 H 0.1055 0.61614 0.20711 0.0
H56 H 0.93712 0.60566 0.26363 0.0
H57 H 0.96469 0.70301 0.2776 0.0
H58 H 0.15186 0.77366 0.26482 0.0
H59 H 0.12376 0.67574 0.25118 0.0
H60 H 0.90737 0.5018 0.28465 0.0
H61 H 0.91198 0.55878 0.31361 0.0
H62 H 0.10846 0.6552 0.31577 0.0
H63 H 0.10317 0.599 0.28645 0.0
H64 H 0.88461 0.36687 0.2615 0.0
H65 H 0.87625 0.29048 0.28187 0.0
H66 H 0.06477 0.40687 0.302 0.0
H67 H 0.07327 0.48238 0.28127 0.0
O68 O 0.9423 0.43578 0.12969 0.0
O69 O 0.02832 0.43823 0.1353 0.0
O70 O 0.03955 0.81221 0.28816 0.0
O71 O 0.13628 0.85095 0.28172 0.0
C72 C 0.98186 0.45925 0.23605 0.0
C73 C 0.9943 0.50254 0.22282 0.0
C74 C 0.0091 0.55949 0.2295 0.0
C75 C 0.01245 0.5735 0.24938 0.0
C76 C 0.00202 0.53085 0.26264 0.0
C77 C 0.98697 0.47376 0.25603 0.0
C78 C 0.96393 0.3989 0.22868 0.0
C79 C 0.90936 0.3636 0.21737 0.0
C80 C 0.89726 0.31166 0.20747 0.0
C81 C 0.93914 0.29387 0.20901 0.0
C82 C 0.99149 0.32686 0.22152 0.0
C83 C 0.00401 0.37931 0.23121 0.0
C84 C 0.99323 0.48846 0.20193 0.0
C85 C 0.94759 0.4835 0.18923 0.0
C86 C 0.94597 0.46894 0.16967 0.0
C87 C 0.99005 0.45917 0.16248 0.0
C88 C 0.03582 0.46435 0.17528 0.0
C89 C 0.0374 0.47894 0.19482 0.0
C90 C 0.02101 0.60486 0.21578 0.0
C91 C 0.98084 0.62449 0.21373 0.0
C92 C 0.99482 0.67137 0.20239 0.0
C93 C 0.04882 0.69883 0.19273 0.0
C94 C 0.08759 0.67725 0.19404 0.0
C95 C 0.07394 0.63074 0.20562 0.0
C96 C 0.02851 0.63369 0.2565 0.0
C97 C 0.98401 0.64229 0.26383 0.0
C98 C -0.00012 0.69792 0.27179 0.0
C99 C 0.06056 0.74611 0.27238 0.0
C100 C 0.10478 0.73751 0.26463 0.0
C101 C 0.08885 0.68173 0.25675 0.0
C102 C 0.00491 0.54688 0.28338 0.0
C103 C 0.9513 0.53321 0.29191 0.0
C104 C 0.9541 0.56603 0.30846 0.0
C105 C 0.01066 0.61257 0.31669 0.0
C106 C 0.06424 0.62055 0.30948 0.0
C107 C 0.06136 0.58801 0.29289 0.0
C108 C 0.97953 0.43015 0.26992 0.0
C109 C 0.92394 0.37595 0.2704 0.0
C110 C 0.91933 0.33238 0.28193 0.0
C111 C 0.96999 0.3428 0.29338 0.0
C112 C 0.02497 0.39792 0.29339 0.0
C113 C 0.02979 0.44109 0.28165 0.0
C114 C 0.98825 0.44375 0.1417 0.0
C115 C 0.07789 0.80497 0.28122 0.0
H116 H 0.60042 0.95174 0.46094 0.0
H117 H 0.24939 0.18347 0.54357 0.0
H118 H 0.57763 0.99645 0.56542 0.0
H119 H 0.65316 0.97231 0.55776 0.0
H120 H 0.79313 0.1589 0.56226 0.0
H121 H 0.71648 0.18265 0.56953 0.0
H122 H 0.49781 0.98734 0.52973 0.0
H123 H 0.52477 0.95599 0.50029 0.0
H124 H 0.68818 0.13027 0.49994 0.0
H125 H 0.66044 0.1611 0.52932 0.0
H126 H 0.39596 0.0142 0.53854 0.0
H127 H 0.33005 0.00929 0.51161 0.0
H128 H 0.48182 0.16634 0.4906 0.0
H129 H 0.5476 0.17218 0.5179 0.0
H130 H 0.38519 0.05206 0.58005 0.0
H131 H 0.295 0.05855 0.57624 0.0
H132 H 0.39617 0.21344 0.54392 0.0
H133 H 0.48628 0.2072 0.54819 0.0
H134 H 0.48762 0.0668 0.61381 0.0
H135 H 0.435 0.07927 0.64012 0.0
H136 H 0.46735 0.24139 0.61744 0.0
H137 H 0.52357 0.23053 0.59206 0.0
H138 H 0.59852 0.05431 0.60583 0.0
H139 H 0.67108 0.08465 0.63367 0.0
H140 H 0.72005 0.26583 0.63015 0.0
H141 H 0.64845 0.23547 0.60199 0.0
O142 O 0.59094 0.96487 0.47268 0.0
O143 O 0.66729 0.05823 0.47103 0.0
O144 O 0.23568 0.10333 0.56351 0.0
O145 O 0.28492 0.18114 0.54593 0.0
C146 C 0.5935 0.10508 0.56706 0.0
C147 C 0.56042 0.09549 0.54938 0.0
C148 C 0.51164 0.10422 0.54859 0.0
C149 C 0.49554 0.12245 0.56543 0.0
C150 C 0.52937 0.13324 0.58306 0.0
C151 C 0.57938 0.12588 0.58378 0.0
C152 C 0.64161 0.09125 0.56772 0.0
C153 C 0.62498 0.03197 0.56539 0.0
C154 C 0.66834 0.01826 0.56117 0.0
C155 C 0.72901 0.06376 0.55919 0.0
C156 C 0.74654 0.12298 0.5635 0.0
C157 C 0.70301 0.13666 0.5677 0.0
C158 C 0.5771 0.07647 0.53159 0.0
C159 C 0.53933 0.01865 0.52324 0.0
C160 C 0.55495 0.00085 0.50647 0.0
C161 C 0.60851 0.04071 0.49773 0.0
C162 C 0.64645 0.09858 0.50625 0.0
C163 C 0.63082 0.11626 0.52304 0.0
C164 C 0.47626 0.09379 0.53019 0.0
C165 C 0.41534 0.04668 0.52787 0.0
C166 C 0.37791 0.04392 0.51259 0.0
C167 C 0.40137 0.08753 0.49927 0.0
C168 C 0.46332 0.1322 0.50075 0.0
C169 C 0.5007 0.1354 0.51621 0.0
C170 C 0.44225 0.12918 0.56442 0.0
C171 C 0.38798 0.08783 0.5724 0.0
C172 C 0.33647 0.09146 0.5701 0.0
C173 C 0.33829 0.13635 0.55967 0.0
C174 C 0.39313 0.17826 0.55199 0.0
C175 C 0.44469 0.17484 0.55442 0.0
C176 C 0.50878 0.1474 0.60091 0.0
C177 C 0.48506 0.10601 0.61493 0.0
C178 C 0.45413 0.11276 0.62978 0.0
C179 C 0.44556 0.1606 0.63069 0.0
C180 C 0.47318 0.20414 0.61733 0.0
C181 C 0.50507 0.19787 0.6027 0.0
C182 C 0.6188 0.1428 0.60173 0.0
C183 C 0.62496 0.10054 0.61105 0.0
C184 C 0.66634 0.11791 0.6269 0.0
C185 C 0.70148 0.17767 0.6339 0.0
C186 C 0.69339 0.21951 0.62505 0.0
C187 C 0.65259 0.20223 0.60902 0.0
C188 C 0.62429 0.02202 0.4797 0.0
C189 C 0.28314 0.13915 0.55657 0.0
H190 H 0.66518 0.63339 0.03331 0.0
H191 H 0.34979 0.20714 0.85617 0.0
H192 H 0.68518 0.71051 0.93252 0.0
H193 H 0.76367 0.78751 0.95524 0.0
H194 H 0.8836 0.72668 0.94181 0.0
H195 H 0.80398 0.64892 0.91931 0.0
H196 H 0.58634 0.59959 0.95185 0.0
H197 H 0.60541 0.61632 0.98678 0.0
H198 H 0.75188 0.58498 0.98296 0.0
H199 H 0.73168 0.56751 0.94806 0.0
H200 H 0.4809 0.49826 0.91972 0.0
H201 H 0.40668 0.43914 0.94244 0.0
H202 H 0.53169 0.39573 0.96732 0.0
H203 H 0.60381 0.45113 0.94325 0.0
H204 H 0.47738 0.49513 0.88103 0.0
H205 H 0.39146 0.40192 0.8662 0.0
H206 H 0.487 0.31433 0.87951 0.0
H207 H 0.57295 0.40803 0.89406 0.0
H208 H 0.57313 0.61698 0.86937 0.0
H209 H 0.50861 0.58235 0.83957 0.0
H210 H 0.56189 0.45681 0.82735 0.0
H211 H 0.62743 0.49272 0.85698 0.0
H212 H 0.66565 0.70886 0.88934 0.0
H213 H 0.73345 0.7962 0.87227 0.0
H214 H 0.84111 0.72126 0.85861 0.0
H215 H 0.77111 0.63282 0.87515 0.0
O216 O 0.65808 0.6261 0.0195 0.0
O217 O 0.73329 0.61015 0.01674 0.0
O218 O 0.3335 0.29029 0.8571 0.0
O219 O 0.38341 0.2448 0.86172 0.0
C220 C 0.6867 0.61928 0.91477 0.0
C221 C 0.64681 0.5736 0.92623 0.0
C222 C 0.59502 0.52178 0.91758 0.0
C223 C 0.58428 0.5149 0.89743 0.0
C224 C 0.6231 0.56162 0.88599 0.0
C225 C 0.67428 0.6139 0.89473 0.0
C226 C 0.73907 0.67432 0.92434 0.0
C227 C 0.72914 0.71513 0.93405 0.0
C228 C 0.77404 0.759 0.94703 0.0
C229 C 0.82959 0.76269 0.95049 0.0
C230 C 0.84089 0.72429 0.93966 0.0
C231 C 0.79589 0.68041 0.92665 0.0
C232 C 0.65751 0.58216 0.94748 0.0
C233 C 0.62222 0.59595 0.95862 0.0
C234 C 0.63335 0.60567 0.97855 0.0
C235 C 0.68022 0.60204 0.98767 0.0
C236 C 0.71543 0.5881 0.9764 0.0
C237 C 0.70405 0.57814 0.95648 0.0
C238 C 0.54773 0.47894 0.92979 0.0
C239 C 0.49142 0.47425 0.92961 0.0
C240 C 0.44948 0.44128 0.94288 0.0
C241 C 0.46371 0.41374 0.95702 0.0
C242 C 0.51905 0.41608 0.95659 0.0
C243 C 0.56054 0.44806 0.94295 0.0
C244 C 0.53166 0.45845 0.88843 0.0
C245 C 0.4799 0.45591 0.88056 0.0
C246 C 0.43075 0.40253 0.87219 0.0
C247 C 0.43238 0.35064 0.87167 0.0
C248 C 0.4843 0.35344 0.87963 0.0
C249 C 0.53341 0.40685 0.88798 0.0
C250 C 0.60481 0.55722 0.86537 0.0
C251 C 0.57357 0.58437 0.85974 0.0
C252 C 0.53598 0.56389 0.84285 0.0
C253 C 0.52924 0.51604 0.83136 0.0
C254 C 0.56627 0.49385 0.83587 0.0
C255 C 0.60395 0.51444 0.85277 0.0
C256 C 0.71327 0.66452 0.88325 0.0
C257 C 0.70345 0.71111 0.88241 0.0
C258 C 0.74275 0.76127 0.87287 0.0
C259 C 0.79321 0.76612 0.86421 0.0
C260 C 0.80242 0.71878 0.86494 0.0
C261 C 0.76264 0.6683 0.87438 0.0
C262 C 0.6923 0.61294 0.00883 0.0
C263 C 0.38005 0.2936 0.86302 0.0
H264 H 0.99534 0.20326 0.10836 0.0
H265 H 0.03728 0.08672 0.13701 0.0
H266 H 0.98941 0.09533 0.16573 0.0
H267 H 0.03643 0.30219 0.14521 0.0
H268 H 0.97789 0.31829 0.1415 0.0
H269 H 0.00039 0.29131 0.12158 0.0
H270 H 0.8889 0.20405 0.11432 0.0
H271 H 0.86594 0.23141 0.1342 0.0
H272 H 0.84812 0.15618 0.13302 0.0
H273 H 0.96101 0.13516 0.19332 0.0
H274 H 0.94931 0.1996 0.21693 0.0
H275 H 0.92266 0.28758 0.1704 0.0
C276 C 0.99224 0.17757 0.12037 0.0
C277 C 0.02017 0.14443 0.12041 0.0
C278 C 0.01623 0.11246 0.1366 0.0
C279 C 0.98879 0.1168 0.15298 0.0
C280 C 0.96459 0.15246 0.15286 0.0
C281 C 0.96504 0.18149 0.13683 0.0
C282 C 0.94379 0.22339 0.14121 0.0
C283 C 0.99257 0.28754 0.13714 0.0
C284 C 0.88306 0.20247 0.13003 0.0
C285 C 0.93554 0.21652 0.16248 0.0
C286 C 0.94651 0.17451 0.16889 0.0
C287 C 0.95018 0.16663 0.18842 0.0
C288 C 0.9438 0.20348 0.20172 0.0
C289 C 0.93379 0.2474 0.19537 0.0
C290 C 0.92788 0.25268 0.17553 0.0
H291 H 0.88053 0.06382 0.465 0.0
H292 H 0.86258 0.89889 0.47925 0.0
H293 H 0.83541 0.91227 0.51197 0.0
H294 H 0.9433 0.14432 0.51296 0.0
H295 H 0.90159 0.18048 0.51058 0.0
H296 H 0.92772 0.16132 0.48957 0.0
H297 H 0.81737 0.10227 0.47409 0.0
H298 H 0.79081 0.12088 0.49497 0.0
H299 H 0.75782 0.04423 0.48689 0.0
H300 H 0.79583 0.93789 0.54141 0.0
H301 H 0.74741 0.97208 0.56401 0.0
H302 H 0.79709 0.12157 0.52987 0.0
C303 C 0.87318 0.03139 0.47509 0.0
C304 C 0.87461 0.98075 0.4696 0.0
C305 C 0.86226 0.93836 0.48319 0.0
C306 C 0.84711 0.94578 0.50183 0.0
C307 C 0.84559 0.99626 0.50665 0.0
C308 C 0.85896 0.03853 0.49363 0.0
C309 C 0.84883 0.086 0.50138 0.0
C310 C 0.90896 0.14662 0.50377 0.0
C311 C 0.80088 0.08846 0.48858 0.0
C312 C 0.82535 0.06291 0.52058 0.0
C313 C 0.82428 0.01147 0.52357 0.0
C314 C 0.79785 0.97887 0.53942 0.0
C315 C 0.77038 -0.00149 0.55215 0.0
C316 C 0.76951 0.05011 0.54888 0.0
C317 C 0.79906 0.08335 0.53321 0.0
H318 H 0.9833 0.94755 0.77749 0.0
H319 H 0.99574 0.10167 0.80561 0.0
H320 H 0.95124 0.04563 0.83417 0.0
H321 H 0.83994 0.84693 0.7918 0.0
H322 H 0.85239 0.78742 0.79497 0.0
H323 H 0.89529 0.8422 0.77828 0.0
H324 H 0.99606 0.86578 0.79571 0.0
H325 H 0.95337 0.81065 0.81243 0.0
H326 H 0.00926 0.88575 0.82118 0.0
H327 H 0.89713 0.97068 0.85824 0.0
H328 H 0.83342 0.88145 0.87565 0.0
H329 H 0.84915 0.7739 0.83069 0.0
C330 C 0.97852 0.96994 0.78995 0.0
C331 C 0.9936 0.02902 0.78957 0.0
C332 C 0.98463 0.05646 0.80574 0.0
C333 C 0.95971 0.02508 0.82203 0.0
C334 C 0.94354 0.96619 0.82178 0.0
C335 C 0.95248 0.9388 0.80614 0.0
C336 C 0.92453 0.8733 0.80855 0.0
C337 C 0.87511 0.83525 0.79245 0.0
C338 C 0.97375 0.85799 0.80953 0.0
C339 C 0.89728 0.86788 0.82776 0.0
C340 C 0.90973 0.92215 0.8353 0.0
C341 C 0.88731 0.92797 0.85252 0.0
C342 C 0.8506 0.87687 0.8622 0.0
C343 C 0.83577 0.82043 0.85449 0.0
C344 C 0.86029 0.81633 0.83715 0.0
H345 H 0.15162 0.90837 0.10476 0.0
H346 H 0.14008 0.03492 0.14265 0.0
H347 H 0.11262 0.96811 0.16874 0.0
H348 H 0.02628 0.77797 0.1216 0.0
H349 H 0.06121 0.73505 0.12036 0.0
H350 H 0.08249 0.79357 0.10446 0.0
H351 H 0.19555 0.84279 0.11648 0.0
H352 H 0.17463 0.78424 0.13237 0.0
H353 H 0.21658 0.86042 0.14184 0.0
H354 H 0.08065 0.88702 0.19017 0.0
H355 H 0.05142 0.79645 0.20667 0.0
H356 H 0.0862 0.72211 0.15597 0.0
C357 C 0.14383 0.92215 0.11859 0.0
C358 C 0.14806 0.97696 0.1216 0.0
C359 C 0.13742 0.99335 0.13994 0.0
C360 C 0.12165 0.95566 0.1549 0.0
C361 C 0.11722 0.90187 0.15144 0.0
C362 C 0.12853 0.88514 0.13387 0.0
C363 C 0.1201 0.82442 0.13415 0.0
C364 C 0.0695 0.78015 0.11926 0.0
C365 C 0.18031 0.82822 0.13103 0.0
C366 C 0.10124 0.80952 0.15449 0.0
C367 C 0.09985 0.85495 0.16414 0.0
C368 C 0.08193 0.85121 0.18286 0.0
C369 C 0.06508 0.79958 0.19205 0.0
C370 C 0.06653 0.75256 0.18254 0.0
C371 C 0.08521 0.75776 0.16356 0.0
H372 H 0.12223 0.11635 0.46968 0.0
H373 H 0.11597 0.0369 0.41354 0.0
H374 H 0.21257 0.04401 0.42245 0.0
H375 H 0.29013 0.21563 0.47737 0.0
H376 H 0.28903 0.20155 0.50243 0.0
H377 H 0.22513 0.19935 0.49058 0.0
H378 H 0.1534 0.09312 0.50113 0.0
H379 H 0.21688 0.09452 0.5128 0.0
H380 H 0.16852 0.03621 0.49476 0.0
H381 H 0.3049 0.05196 0.43835 0.0
H382 H 0.38301 0.05549 0.46085 0.0
H383 H 0.32494 0.12395 0.50694 0.0
C384 C 0.1423 0.10221 0.45909 0.0
C385 C 0.11248 0.07701 0.44084 0.0
C386 C 0.13865 0.05683 0.42755 0.0
C387 C 0.1935 0.06088 0.43245 0.0
C388 C 0.22117 0.08472 0.45074 0.0
C389 C 0.19635 0.10485 0.46389 0.0
C390 C 0.23112 0.12213 0.48329 0.0
C391 C 0.26061 0.18863 0.48873 0.0
C392 C 0.19002 0.08422 0.4989 0.0
C393 C 0.27856 0.10753 0.47909 0.0
C394 C 0.27285 0.087 0.46016 0.0
C395 C 0.31026 0.06854 0.45315 0.0
C396 C 0.35428 0.0706 0.46593 0.0
C397 C 0.35943 0.09013 0.48539 0.0
C398 C 0.32168 0.10929 0.492 0.0
H399 H 0.17718 0.31514 0.80048 0.0
H400 H 0.22626 0.25468 0.7496 0.0
H401 H 0.33438 0.32955 0.75786 0.0
H402 H 0.29799 0.4746 0.79956 0.0
H403 H 0.30986 0.48385 0.82537 0.0
H404 H 0.23562 0.43029 0.81424 0.0
H405 H 0.23442 0.34807 0.83297 0.0
H406 H 0.30869 0.4008 0.84405 0.0
H407 H 0.29538 0.33519 0.83074 0.0
H408 H 0.43779 0.40359 0.77332 0.0
H409 H 0.52828 0.47106 0.79512 0.0
H410 H 0.41179 0.48305 0.83567 0.0
C411 C 0.2105 0.31836 0.79086 0.0
C412 C 0.19297 0.27893 0.77439 0.0
C413 C 0.2383 0.28426 0.76233 0.0
C414 C 0.29997 0.3269 0.76683 0.0
C415 C 0.31576 0.36435 0.78335 0.0
C416 C 0.27233 0.36078 0.79512 0.0
C417 C 0.30163 0.4033 0.81276 0.0
C418 C 0.2853 0.45083 0.81298 0.0
C419 C 0.284 0.36985 0.83123 0.0
C420 C 0.36822 0.42978 0.80938 0.0
C421 C 0.37551 0.40736 0.79222 0.0
C422 C 0.43276 0.42226 0.78665 0.0
C423 C 0.48382 0.4604 0.79911 0.0
C424 C 0.47716 0.48306 0.8169 0.0
C425 C 0.41858 0.46805 0.82188 0.0
H426 H 0.95284 0.16219 0.69556 0.0
H427 H 0.92964 0.25985 0.74211 0.0
H428 H 0.86527 0.27751 0.72011 0.0
H429 H 0.94837 0.24884 0.65544 0.0
H430 H 0.9058 0.18272 0.63959 0.0
H431 H 0.95931 0.1881 0.65792 0.0
H432 H 0.87388 0.09071 0.671 0.0
H433 H 0.81999 0.08545 0.65296 0.0
H434 H 0.80513 0.0855 0.678 0.0
H435 H 0.79326 0.27368 0.69407 0.0
H436 H 0.7194 0.24774 0.66636 0.0
H437 H 0.78726 0.14908 0.63771 0.0
C438 C 0.93611 0.18914 0.70101 0.0
C439 C 0.9468 0.21015 0.72052 0.0
C440 C 0.92242 0.24368 0.72718 0.0
C441 C 0.88589 0.25401 0.71478 0.0
C442 C 0.87423 0.23052 0.6958 0.0
C443 C 0.899 0.19908 0.68893 0.0
C444 C 0.8742 0.17264 0.66868 0.0
C445 C 0.92495 0.19972 0.65458 0.0
C446 C 0.84135 0.10457 0.66762 0.0
C447 C 0.82996 0.19226 0.66545 0.0
C448 C 0.8314 0.22661 0.68107 0.0
C449 C 0.79236 0.24751 0.68166 0.0
C450 C 0.75061 0.23257 0.66591 0.0
C451 C 0.74767 0.19629 0.65002 0.0
C452 C 0.78837 0.17659 0.64976 0.0
H453 H 0.00159 0.05337 0.02188 0.0
H454 H 0.0682 0.96414 0.05586 0.0
H455 H 0.01534 0.87704 0.03255 0.0
H456 H 0.85367 0.92439 0.00823 0.0
H457 H 0.85119 0.94717 0.98445 0.0
H458 H 0.89382 0.00208 0.00395 0.0
H459 H 0.99034 0.04738 0.98459 0.0
H460 H 0.94812 0.99232 0.96508 0.0
H461 H 0.01656 0.00082 0.97582 0.0
H462 H 0.95601 0.80005 0.00532 0.0
H463 H 0.89054 0.73702 0.97703 0.0
H464 H 0.86449 0.87758 0.96069 0.0
C465 C 0.00493 0.0155 0.02454 0.0
C466 C 0.03919 0.01577 0.04075 0.0
C467 C 0.04227 0.96512 0.04359 0.0
C468 C 0.01252 0.91544 0.03039 0.0
C469 C 0.97988 0.91709 0.01446 0.0
C470 C 0.97563 0.96566 0.01154 0.0
C471 C 0.93752 0.95621 0.9933 0.0
C472 C 0.88068 0.95753 -0.00224 0.0
C473 C 0.97542 0.0019 0.97885 0.0
C474 C 0.9209 0.89464 0.98641 0.0
C475 C 0.94594 0.87292 -0.00124 0.0
C476 C 0.93641 0.81671 0.99549 0.0
C477 C 0.89962 0.78146 0.97928 0.0
C478 C 0.87281 0.80256 0.96655 0.0
C479 C 0.88418 0.86015 0.97017 0.0
H480 H 0.88395 0.74184 0.3942 0.0
H481 H 0.01278 0.91552 0.37475 0.0
H482 H 0.05556 0.87156 0.35407 0.0
H483 H 0.98521 0.68544 0.39407 0.0
H484 H 0.92587 0.61173 0.38516 0.0
H485 H 0.90753 0.65698 0.39961 0.0
H486 H 0.8293 0.64391 0.37275 0.0
H487 H 0.84712 0.59838 0.3583 0.0
H488 H 0.85349 0.6631 0.3488 0.0
H489 H 0.08175 0.80967 0.33459 0.0
H490 H 0.0855 0.73216 0.31569 0.0
H491 H 0.9398 0.59729 0.34723 0.0
C492 C 0.92149 0.77062 0.38571 0.0
C493 C 0.94509 0.83213 0.38613 0.0
C494 C 0.99377 0.86825 0.37463 0.0
C495 C 0.01871 0.84379 0.36293 0.0
C496 C 0.99443 0.78311 0.36282 0.0
C497 C 0.9467 0.74681 0.37377 0.0
C498 C 0.9269 0.68245 0.37005 0.0
C499 C 0.937 0.65771 0.38831 0.0
C500 C 0.86026 0.64476 0.36199 0.0
C501 C 0.97029 0.68832 0.35504 0.0
C502 C 0.00937 0.74693 0.35133 0.0
C503 C 0.05202 0.76366 0.33755 0.0
C504 C 0.05412 0.71921 0.32699 0.0
C505 C 0.01356 0.65858 0.33016 0.0
C506 C 0.97167 0.6432 0.34459 0.0
H507 H 0.1445 0.02552 0.68853 0.0
H508 H 0.20062 0.20637 0.70612 0.0
H509 H 0.29323 0.24372 0.68838 0.0
H510 H 0.29167 0.04591 0.69142 0.0
H511 H 0.27804 -0.00149 0.67024 0.0
H512 H 0.21552 0.98538 0.68422 0.0
H513 H 0.15939 0.9922 0.65401 0.0
H514 H 0.22139 0.00456 0.6399 0.0
H515 H 0.19764 0.05689 0.64036 0.0
H516 H 0.38225 0.26143 0.67014 0.0
H517 H 0.45666 0.25855 0.64984 0.0
H518 H 0.33904 0.06668 0.64235 0.0
C519 C 0.17613 0.07296 0.68855 0.0
C520 C 0.1654 0.11299 0.69872 0.0
C521 C 0.20769 0.17482 0.69833 0.0
C522 C 0.26065 0.19652 0.68839 0.0
C523 C 0.2703 0.15589 0.67873 0.0
C524 C 0.22884 0.09548 0.67846 0.0
C525 C 0.2495 0.0615 0.66653 0.0
C526 C 0.25926 0.02041 0.67884 0.0
C527 C 0.2043 0.02676 0.64917 0.0
C528 C 0.30928 0.11224 0.66034 0.0
C529 C 0.32069 0.16627 0.66765 0.0
C530 C 0.37355 0.2194 0.66413 0.0
C531 C 0.41543 0.21731 0.65252 0.0
C532 C 0.40389 0.16246 0.64438 0.0
C533 C 0.35009 0.10936 0.64855 0.0
H534 H 0.30526 0.19251 0.04024 0.0
H535 H 0.22769 0.29676 0.05587 0.0
H536 H 0.2756 0.3594 0.02906 0.0
H537 H 0.44804 0.31271 0.02683 0.0
H538 H 0.45373 0.27163 0.00676 0.0
H539 H 0.41218 0.23347 0.02697 0.0
H540 H 0.31659 0.16478 0.00423 0.0
H541 H 0.35789 0.20269 0.98394 0.0
H542 H 0.28723 0.19706 0.98852 0.0
H543 H 0.3351 0.41361 0.00206 0.0
H544 H 0.40084 0.45524 0.97525 0.0
H545 H 0.43649 0.31354 0.97549 0.0
C546 C 0.29834 0.22846 0.03796 0.0
C547 C 0.26268 0.23974 0.05009 0.0
C548 C 0.25444 0.28702 0.04666 0.0
C549 C 0.28156 0.32297 0.0315 0.0
C550 C 0.31642 0.31079 0.01983 0.0
C551 C 0.32471 0.2646 0.02274 0.0
C552 C 0.36466 0.26158 0.008 0.0
C553 C 0.42312 0.27039 0.01773 0.0
C554 C 0.32948 0.20305 0.99543 0.0
C555 C 0.37814 0.31387 0.99659 0.0
C556 C 0.34977 0.34147 0.00371 0.0
C557 C 0.35682 0.3919 0.99611 0.0
C558 C 0.39392 0.41489 0.98074 0.0
C559 C 0.42312 0.38714 0.97296 0.0
C560 C 0.4149 0.33584 0.98106 0.0
H561 H -0.00063 0.20499 0.38884 0.0
H562 H 0.91681 0.03541 0.35599 0.0
H563 H 0.91675 0.08347 0.32651 0.0
H564 H 0.91624 0.25562 0.36577 0.0
H565 H 0.97823 0.33189 0.36617 0.0
H566 H 0.97693 0.28541 0.38434 0.0
H567 H 0.0834 0.30873 0.37576 0.0
H568 H 0.08532 0.35579 0.35765 0.0
H569 H 0.09581 0.29583 0.35128 0.0
H570 H 0.9164 0.14824 0.30132 0.0
H571 H 0.92308 0.22664 0.28182 0.0
H572 H 0.00758 0.35353 0.33116 0.0
C573 C 0.98207 0.17798 0.37542 0.0
C574 C 0.95796 0.11636 0.37475 0.0
C575 C 0.93576 0.08273 0.35686 0.0
C576 C 0.9354 0.1096 0.34005 0.0
C577 C 0.95808 0.17016 0.34134 0.0
C578 C 0.98178 0.20407 0.35853 0.0
C579 C 0.00156 0.26788 0.35622 0.0
C580 C 0.9661 0.28624 0.36887 0.0
C581 C 0.07063 0.30951 0.36047 0.0
C582 C 0.98391 0.26432 0.33513 0.0
C583 C 0.95895 0.20762 0.32678 0.0
C584 C 0.93653 0.19294 0.30764 0.0
C585 C 0.94007 0.23752 0.29674 0.0
C586 C 0.966 0.29596 0.30502 0.0
C587 C 0.98834 0.30937 0.32443 0.0
loop_
_geom_bond_atom_site_label_1
_geom_bond_atom_site_label_2
_geom_bond_distance
_geom_bond_site_symmetry_2
_ccdc_geom_bond_type
Mg0 O1 2.028 . S
Mg0 O7 1.986 . S
Mg0 O9 2.114 . S
Mg0 O10 2.251 . S
Mg0 O13 2.010 . S
O1 Mg0 2.028 . S
O1 C4 1.250 . S
O2 Mg3 2.028 . S
O2 C4 1.248 . S
Mg3 O2 2.028 . S
Mg3 O8 2.032 . S
Mg3 O10 2.079 . S
C4 O1 1.250 . S
C4 O2 1.248 . S
C5 O6 1.264 . S
C5 O13 1.249 . S
O6 C5 1.264 . S
O7 Mg0 1.986 . S
O7 C11 1.246 . S
O8 Mg3 2.032 . S
O8 C11 1.259 . S
O9 Mg0 2.114 . S
O9 C12 1.252 . S
O10 Mg0 2.251 . S
O10 Mg3 2.079 . S
O10 C12 1.273 . S
C11 O7 1.246 . S
C11 O8 1.259 . S
C12 O9 1.252 . S
C12 O10 1.273 . S
O13 Mg0 2.010 . S
O13 C5 1.249 . S
Mg14 O15 2.028 1_655 S
Mg14 O21 1.986 1_655 S
Mg14 O23 2.114 1_545 S
Mg14 O24 2.251 . S
Mg14 O27 2.010 1_545 S
O15 Mg14 2.028 1_455 S
O15 C18 1.250 . S
O16 Mg17 2.028 . S
O16 C18 1.248 . S
Mg17 O16 2.028 . S
Mg17 O22 2.032 . S
Mg17 O24 2.079 1_455 S
C18 O15 1.250 . S
C18 O16 1.248 . S
C19 O20 1.264 . S
C19 O27 1.249 . S
O20 C19 1.264 . S
O21 Mg14 1.986 1_455 S
O21 C25 1.246 . S
O22 Mg17 2.032 . S
O22 C25 1.259 . S
O23 Mg14 2.114 1_565 S
O23 C26 1.252 . S
O24 Mg14 2.251 . S
O24 Mg17 2.079 1_655 S
O24 C26 1.273 1_545 S
C25 O21 1.246 . S
C25 O22 1.259 . S
C26 O23 1.252 . S
C26 O24 1.273 1_565 S
O27 Mg14 2.010 1_565 S
O27 C19 1.249 . S
Mg28 O29 2.028 . S
Mg28 O35 1.986 . S
Mg28 O37 2.114 . S
Mg28 O38 2.251 . S
Mg28 O41 2.010 . S
O29 Mg28 2.028 . S
O29 C32 1.250 . S
O30 Mg31 2.028 . S
O30 C32 1.248 . S
Mg31 O30 2.028 . S
Mg31 O36 2.032 . S
Mg31 O38 2.079 . S
C32 O29 1.250 . S
C32 O30 1.248 . S
C33 O34 1.264 . S
C33 O41 1.249 . S
O34 C33 1.264 . S
O35 Mg28 1.986 . S
O35 C39 1.246 . S
O36 Mg31 2.032 . S
O36 C39 1.259 . S
O37 Mg28 2.114 . S
O37 C40 1.252 . S
O38 Mg28 2.251 . S
O38 Mg31 2.079 . S
O38 C40 1.273 . S
C39 O35 1.246 . S
C39 O36 1.259 . S
C40 O37 1.252 . S
C40 O38 1.273 . S
O41 Mg28 2.010 . S
O41 C33 1.249 . S
H42 O68 0.856 . S
H43 O71 0.854 . S
H44 C79 0.930 . S
H45 C80 0.930 . S
H46 C82 0.930 . S
H47 C83 0.930 . S
H48 C85 0.931 1_655 S
H49 C86 0.930 . S
H50 C88 0.930 . S
H51 C89 0.929 . S
H52 C91 0.930 1_655 S
H53 C92 0.931 . S
H54 C94 0.930 . S
H55 C95 0.929 . S
H56 C97 0.931 1_655 S
H57 C98 0.930 1_655 S
H58 C100 0.930 . S
H59 C101 0.932 . S
H60 C103 0.930 . S
H61 C104 0.929 . S
H62 C106 0.931 . S
H63 C107 0.930 . S
H64 C109 0.929 . S
H65 C110 0.934 . S
H66 C112 0.930 . S
H67 C113 0.929 . S
O68 H42 0.856 . S
O68 C114 1.300 . S
O69 C114 1.209 . S
O70 C115 1.199 . S
O71 H43 0.854 . S
O71 C115 1.297 . S
C72 C73 1.404 . S
C72 C77 1.397 . S
C72 C78 1.492 . S
C73 C72 1.404 . S
C73 C74 1.396 . S
C73 C84 1.492 . S
C74 C73 1.396 . S
C74 C75 1.397 . S
C74 C90 1.509 . S
C75 C74 1.397 . S
C75 C76 1.412 . S
C75 C96 1.485 . S
C76 C75 1.412 . S
C76 C77 1.388 . S
C76 C102 1.490 . S
C77 C72 1.397 . S
C77 C76 1.388 . S
C77 C108 1.519 . S
C78 C72 1.492 . S
C78 C79 1.363 1_455 S
C78 C83 1.390 . S
C79 H44 0.930 . S
C79 C78 1.363 1_655 S
C79 C80 1.372 . S
C80 H45 0.930 . S
C80 C79 1.372 . S
C80 C81 1.383 1_655 S
C81 C80 1.383 1_455 S
C81 C82 1.395 . S
C82 H46 0.930 . S
C82 C81 1.395 . S
C82 C83 1.362 . S
C83 H47 0.930 . S
C83 C78 1.390 . S
C83 C82 1.362 . S
C84 C73 1.492 . S
C84 C85 1.377 . S
C84 C89 1.397 . S
C85 H48 0.931 1_455 S
C85 C84 1.377 . S
C85 C86 1.376 . S
C86 H49 0.930 . S
C86 C85 1.376 . S
C86 C87 1.376 . S
C87 C86 1.376 . S
C87 C88 1.378 . S
C87 C114 1.486 . S
C88 H50 0.930 . S
C88 C87 1.378 . S
C88 C89 1.376 . S
C89 H51 0.929 . S
C89 C84 1.397 . S
C89 C88 1.376 . S
C90 C74 1.509 . S
C90 C91 1.391 . S
C90 C95 1.386 . S
C91 H52 0.930 1_455 S
C91 C90 1.391 . S
C91 C92 1.375 . S
C92 H53 0.931 . S
C92 C91 1.375 . S
C92 C93 1.375 . S
C93 C92 1.375 . S
C93 C94 1.361 . S
C94 H54 0.930 . S
C94 C93 1.361 . S
C94 C95 1.399 . S
C95 H55 0.929 . S
C95 C90 1.386 . S
C95 C94 1.399 . S
C96 C75 1.485 . S
C96 C97 1.394 . S
C96 C101 1.360 . S
C97 H56 0.931 1_455 S
C97 C96 1.394 . S
C97 C98 1.372 . S
C98 H57 0.930 1_455 S
C98 C97 1.372 . S
C98 C99 1.397 . S
C99 C98 1.397 . S
C99 C100 1.390 . S
C99 C115 1.476 . S
C100 H58 0.930 . S
C100 C99 1.390 . S
C100 C101 1.366 . S
C101 H59 0.932 . S
C101 C96 1.360 . S
C101 C100 1.366 . S
C102 C76 1.490 . S
C102 C103 1.380 1_455 S
C102 C107 1.386 . S
C103 H60 0.930 . S
C103 C102 1.380 1_655 S
C103 C104 1.381 . S
C104 H61 0.929 . S
C104 C103 1.381 . S
C104 C105 1.371 1_655 S
C105 C104 1.371 1_455 S
C105 C106 1.380 . S
C106 H62 0.931 . S
C106 C105 1.380 . S
C106 C107 1.387 . S
C107 H63 0.930 . S
C107 C102 1.386 . S
C107 C106 1.387 . S
C108 C77 1.519 . S
C108 C109 1.377 1_455 S
C108 C113 1.361 . S
C109 H64 0.929 . S
C109 C108 1.377 1_655 S
C109 C110 1.388 . S
C110 H65 0.934 . S
C110 C109 1.388 . S
C110 C111 1.359 1_655 S
C111 C110 1.359 1_455 S
C111 C112 1.385 . S
C112 H66 0.930 . S
C112 C111 1.385 . S
C112 C113 1.396 . S
C113 H67 0.929 . S
C113 C108 1.361 . S
C113 C112 1.396 . S
C114 O68 1.300 . S
C114 O69 1.209 . S
C114 C87 1.486 . S
C115 O70 1.199 . S
C115 O71 1.297 . S
C115 C99 1.476 . S
H116 O142 0.856 . S
H117 O145 0.854 . S
H118 C153 0.930 . S
H119 C154 0.930 1_565 S
H120 C156 0.930 . S
H121 C157 0.930 . S
H122 C159 0.931 . S
H123 C160 0.930 . S
H124 C162 0.930 . S
H125 C163 0.929 . S
H126 C165 0.930 . S
H127 C166 0.931 . S
H128 C168 0.930 . S
H129 C169 0.929 . S
H130 C171 0.931 . S
H131 C172 0.930 . S
H132 C174 0.930 . S
H133 C175 0.932 . S
H134 C177 0.930 . S
H135 C178 0.929 . S
H136 C180 0.931 . S
H137 C181 0.930 . S
H138 C183 0.929 . S
H139 C184 0.931 . S
H140 C186 0.930 . S
H141 C187 0.929 . S
O142 H116 0.856 . S
O142 C188 1.300 . S
O143 C188 1.209 . S
O144 C189 1.199 . S
O145 H117 0.854 . S
O145 C189 1.297 . S
C146 C147 1.404 . S
C146 C151 1.397 . S
C146 C152 1.492 . S
C147 C146 1.404 . S
C147 C148 1.396 . S
C147 C158 1.492 . S
C148 C147 1.396 . S
C148 C149 1.397 . S
C148 C164 1.509 . S
C149 C148 1.397 . S
C149 C150 1.412 . S
C149 C170 1.485 . S
C150 C149 1.412 . S
C150 C151 1.388 . S
C150 C176 1.490 . S
C151 C146 1.397 . S
C151 C150 1.388 . S
C151 C182 1.519 . S
C152 C146 1.492 . S
C152 C153 1.363 . S
C152 C157 1.390 . S
C153 H118 0.930 . S
C153 C152 1.363 . S
C153 C154 1.372 . S
C154 H119 0.930 1_545 S
C154 C153 1.372 . S
C154 C155 1.383 . S
C155 C154 1.383 . S
C155 C156 1.395 . S
C156 H120 0.930 . S
C156 C155 1.395 . S
C156 C157 1.362 . S
C157 H121 0.930 . S
C157 C152 1.390 . S
C157 C156 1.362 . S
C158 C147 1.492 . S
C158 C159 1.377 . S
C158 C163 1.397 . S
C159 H122 0.931 . S
C159 C158 1.377 . S
C159 C160 1.376 . S
C160 H123 0.930 . S
C160 C159 1.376 . S
C160 C161 1.376 . S
C161 C160 1.376 . S
C161 C162 1.378 . S
C161 C188 1.486 . S
C162 H124 0.930 . S
C162 C161 1.378 . S
C162 C163 1.376 . S
C163 H125 0.929 . S
C163 C158 1.397 . S
C163 C162 1.376 . S
C164 C148 1.509 . S
C164 C165 1.391 . S
C164 C169 1.386 . S
C165 H126 0.930 . S
C165 C164 1.391 . S
C165 C166 1.375 . S
C166 H127 0.931 . S
C166 C165 1.375 . S
C166 C167 1.375 . S
C167 C166 1.375 . S
C167 C168 1.361 . S
C168 H128 0.930 . S
C168 C167 1.361 . S
C168 C169 1.399 . S
C169 H129 0.929 . S
C169 C164 1.386 . S
C169 C168 1.399 . S
C170 C149 1.485 . S
C170 C171 1.394 . S
C170 C175 1.360 . S
C171 H130 0.931 . S
C171 C170 1.394 . S
C171 C172 1.372 . S
C172 H131 0.930 . S
C172 C171 1.372 . S
C172 C173 1.397 . S
C173 C172 1.397 . S
C173 C174 1.390 . S
C173 C189 1.476 . S
C174 H132 0.930 . S
C174 C173 1.390 . S
C174 C175 1.366 . S
C175 H133 0.932 . S
C175 C170 1.360 . S
C175 C174 1.366 . S
C176 C150 1.490 . S
C176 C177 1.380 . S
C176 C181 1.386 . S
C177 H134 0.930 . S
C177 C176 1.380 . S
C177 C178 1.381 . S
C178 H135 0.929 . S
C178 C177 1.381 . S
C178 C179 1.371 . S
C179 C178 1.371 . S
C179 C180 1.380 . S
C180 H136 0.931 . S
C180 C179 1.380 . S
C180 C181 1.387 . S
C181 H137 0.930 . S
C181 C176 1.386 . S
C181 C180 1.387 . S
C182 C151 1.519 . S
C182 C183 1.377 . S
C182 C187 1.361 . S
C183 H138 0.929 . S
C183 C182 1.377 . S
C183 C184 1.386 . S
C184 H139 0.931 . S
C184 C183 1.386 . S
C184 C185 1.363 . S
C185 C184 1.363 . S
C185 C186 1.385 . S
C186 H140 0.930 . S
C186 C185 1.385 . S
C186 C187 1.396 . S
C187 H141 0.929 . S
C187 C182 1.361 . S
C187 C186 1.396 . S
C188 O142 1.300 . S
C188 O143 1.209 . S
C188 C161 1.486 . S
C189 O144 1.199 . S
C189 O145 1.297 . S
C189 C173 1.476 . S
H190 O216 0.856 . S
H191 O219 0.854 . S
H192 C227 0.930 . S
H193 C228 0.930 . S
H194 C230 0.930 . S
H195 C231 0.930 . S
H196 C233 0.931 . S
H197 C234 0.954 . S
H198 C236 0.941 . S
H199 C237 0.929 . S
H200 C239 0.930 . S
H201 C240 0.931 . S
H202 C242 0.930 . S
H203 C243 0.929 . S
H204 C245 0.931 . S
H205 C246 0.930 . S
H206 C248 0.930 . S
H207 C249 0.932 . S
H208 C251 0.930 . S
H209 C252 0.929 . S
H210 C254 0.931 . S
H211 C255 0.930 . S
H212 C257 0.929 . S
H213 C258 0.931 . S
H214 C260 0.930 . S
H215 C261 0.929 . S
O216 H190 0.856 . S
O216 C262 1.300 . S
O217 C262 1.209 . S
O218 C263 1.199 . S
O219 H191 0.854 . S
O219 C263 1.297 . S
C220 C221 1.404 . S
C220 C225 1.397 . S
C220 C226 1.492 . S
C221 C220 1.404 . S
C221 C222 1.396 . S
C221 C232 1.492 . S
C222 C221 1.396 . S
C222 C223 1.397 . S
C222 C238 1.509 . S
C223 C222 1.397 . S
C223 C224 1.412 . S
C223 C244 1.485 . S
C224 C223 1.412 . S
C224 C225 1.388 . S
C224 C250 1.490 . S
C225 C220 1.397 . S
C225 C224 1.388 . S
C225 C256 1.519 . S
C226 C220 1.492 . S
C226 C227 1.363 . S
C226 C231 1.390 . S
C227 H192 0.930 . S
C227 C226 1.363 . S
C227 C228 1.372 . S
C228 H193 0.930 . S
C228 C227 1.372 . S
C228 C229 1.383 . S
C229 C228 1.383 . S
C229 C230 1.395 . S
C230 H194 0.930 . S
C230 C229 1.395 . S
C230 C231 1.362 . S
C231 H195 0.930 . S
C231 C226 1.390 . S
C231 C230 1.362 . S
C232 C221 1.492 . S
C232 C233 1.377 . S
C232 C237 1.397 . S
C233 H196 0.931 . S
C233 C232 1.377 . S
C233 C234 1.340 1_556 S
C234 H197 0.954 . S
C234 C233 1.340 1_554 S
C234 C235 1.388 . S
C235 C234 1.388 . S
C235 C236 1.378 1_554 S
C235 C262 1.486 . S
C236 H198 0.941 . S
C236 C235 1.378 1_556 S
C236 C237 1.376 . S
C237 H199 0.929 . S
C237 C232 1.397 . S
C237 C236 1.376 . S
C238 C222 1.509 . S
C238 C239 1.391 . S
C238 C243 1.386 . S
C239 H200 0.930 . S
C239 C238 1.391 . S
C239 C240 1.375 . S
C240 H201 0.931 . S
C240 C239 1.375 . S
C240 C241 1.375 . S
C241 C240 1.375 . S
C241 C242 1.361 . S
C242 H202 0.930 . S
C242 C241 1.361 . S
C242 C243 1.399 . S
C243 H203 0.929 . S
C243 C238 1.386 . S
C243 C242 1.399 . S
C244 C223 1.485 . S
C244 C245 1.394 . S
C244 C249 1.360 . S
C245 H204 0.931 . S
C245 C244 1.394 . S
C245 C246 1.372 . S
C246 H205 0.930 . S
C246 C245 1.372 . S
C246 C247 1.397 . S
C247 C246 1.397 . S
C247 C248 1.390 . S
C247 C263 1.476 . S
C248 H206 0.930 . S
C248 C247 1.390 . S
C248 C249 1.366 . S
C249 H207 0.932 . S
C249 C244 1.360 . S
C249 C248 1.366 . S
C250 C224 1.490 . S
C250 C251 1.380 . S
C250 C255 1.386 . S
C251 H208 0.930 . S
C251 C250 1.380 . S
C251 C252 1.381 . S
C252 H209 0.929 . S
C252 C251 1.381 . S
C252 C253 1.371 . S
C253 C252 1.371 . S
C253 C254 1.380 . S
C254 H210 0.931 . S
C254 C253 1.380 . S
C254 C255 1.387 . S
C255 H211 0.930 . S
C255 C250 1.386 . S
C255 C254 1.387 . S
C256 C225 1.519 . S
C256 C257 1.377 . S
C256 C261 1.361 . S
C257 H212 0.929 . S
C257 C256 1.377 . S
C257 C258 1.386 . S
C258 H213 0.931 . S
C258 C257 1.386 . S
C258 C259 1.363 . S
C259 C258 1.363 . S
C259 C260 1.385 . S
C260 H214 0.930 . S
C260 C259 1.385 . S
C260 C261 1.396 . S
C261 H215 0.929 . S
C261 C256 1.361 . S
C261 C260 1.396 . S
C262 O216 1.300 . S
C262 O217 1.209 . S
C262 C235 1.486 . S
C263 O218 1.199 . S
C263 O219 1.297 . S
C263 C247 1.476 . S
H264 C276 0.930 1_655 S
H265 C278 0.930 . S
H266 C279 0.930 . S
H267 C283 0.959 . S
H268 C283 0.959 . S
H269 C283 0.961 . S
H270 C284 0.959 . S
H271 C284 0.964 . S
H272 C284 0.954 1_455 S
H273 C287 0.929 . S
H274 C288 0.931 . S
H275 C290 0.930 1_655 S
C276 H264 0.930 1_455 S
C276 C277 1.399 . S
C276 C281 1.399 . S
C277 C276 1.399 . S
C277 C278 1.376 . S
C278 H265 0.930 . S
C278 C277 1.376 . S
C278 C279 1.388 . S
C279 H266 0.930 . S
C279 C278 1.388 . S
C279 C280 1.390 . S
C280 C279 1.390 . S
C280 C281 1.394 . S
C280 C286 1.465 . S
C281 C276 1.399 . S
C281 C280 1.394 . S
C281 C282 1.516 1_455 S
C282 C281 1.516 1_655 S
C282 C283 1.502 . S
C282 C284 1.564 . S
C282 C285 1.526 1_655 S
C283 H267 0.959 . S
C283 H268 0.959 . S
C283 H269 0.961 . S
C283 C282 1.502 . S
C284 H270 0.959 . S
C284 H271 0.964 . S
C284 H272 0.954 1_655 S
C284 C282 1.564 . S
C285 C282 1.526 1_455 S
C285 C286 1.396 . S
C285 C290 1.390 . S
C286 C280 1.465 . S
C286 C285 1.396 . S
C286 C287 1.399 . S
C287 H273 0.929 . S
C287 C286 1.399 . S
C287 C288 1.385 . S
C288 H274 0.931 . S
C288 C287 1.385 . S
C288 C289 1.389 . S
C289 C288 1.389 . S
C289 C290 1.387 . S
C290 H275 0.930 1_455 S
C290 C285 1.390 . S
C290 C289 1.387 . S
H291 C303 0.930 . S
H292 C305 0.930 . S
H293 C306 0.930 . S
H294 C310 0.959 . S
H295 C310 0.959 . S
H296 C310 0.961 . S
H297 C311 0.960 . S
H298 C311 0.961 . S
H299 C311 0.959 . S
H300 C314 0.929 . S
H301 C315 0.927 1_565 S
H302 C317 0.930 . S
C303 H291 0.930 . S
C303 C304 1.399 1_545 S
C303 C308 1.399 . S
C304 C303 1.399 1_565 S
C304 C305 1.376 . S
C305 H292 0.930 . S
C305 C304 1.376 . S
C305 C306 1.388 . S
C306 H293 0.930 . S
C306 C305 1.388 . S
C306 C307 1.404 . S
C307 C306 1.404 . S
C307 C308 1.385 1_565 S
C307 C313 1.457 1_565 S
C308 C303 1.399 . S
C308 C307 1.385 1_545 S
C308 C309 1.516 . S
C309 C308 1.516 . S
C309 C310 1.502 . S
C309 C311 1.561 . S
C309 C312 1.526 . S
C310 H294 0.959 . S
C310 H295 0.959 . S
C310 H296 0.961 . S
C310 C309 1.502 . S
C311 H297 0.960 . S
C311 H298 0.961 . S
C311 H299 0.959 . S
C311 C309 1.561 . S
C312 C309 1.526 . S
C312 C313 1.396 . S
C312 C317 1.390 . S
C313 C307 1.457 1_545 S
C313 C312 1.396 . S
C313 C314 1.399 1_545 S
C314 H300 0.929 . S
C314 C313 1.399 1_565 S
C314 C315 1.375 1_565 S
C315 H301 0.927 1_545 S
C315 C314 1.375 1_545 S
C315 C316 1.404 . S
C316 C315 1.404 . S
C316 C317 1.387 . S
C317 H302 0.930 . S
C317 C312 1.390 . S
C317 C316 1.387 . S
H318 C330 0.930 . S
H319 C332 0.930 1_545 S
H320 C333 0.930 1_455 S
H321 C337 0.959 . S
H322 C337 0.959 . S
H323 C337 0.961 . S
H324 C338 0.960 . S
H325 C338 0.961 . S
H326 C338 0.959 . S
H327 C341 0.929 . S
H328 C342 0.931 . S
H329 C344 0.930 . S
C330 H318 0.930 . S
C330 C331 1.399 . S
C330 C335 1.399 . S
C331 C330 1.399 . S
C331 C332 1.376 1_655 S
C332 H319 0.930 1_565 S
C332 C331 1.376 1_455 S
C332 C333 1.388 1_455 S
C333 H320 0.930 1_655 S
C333 C332 1.388 1_655 S
C333 C334 1.390 . S
C334 C333 1.390 . S
C334 C335 1.394 . S
C334 C340 1.465 . S
C335 C330 1.399 . S
C335 C334 1.394 . S
C335 C336 1.516 . S
C336 C335 1.516 . S
C336 C337 1.502 . S
C336 C338 1.561 . S
C336 C339 1.526 . S
C337 H321 0.959 . S
C337 H322 0.959 . S
C337 H323 0.961 . S
C337 C336 1.502 . S
C338 H324 0.960 . S
C338 H325 0.961 . S
C338 H326 0.959 . S
C338 C336 1.561 . S
C339 C336 1.526 . S
C339 C340 1.396 . S
C339 C344 1.390 . S
C340 C334 1.465 . S
C340 C339 1.396 . S
C340 C341 1.399 . S
C341 H327 0.929 . S
C341 C340 1.399 . S
C341 C342 1.385 . S
C342 H328 0.931 . S
C342 C341 1.385 . S
C342 C343 1.389 . S
C343 C342 1.389 . S
C343 C344 1.387 . S
C344 H329 0.930 . S
C344 C339 1.390 . S
C344 C343 1.387 . S
H345 C357 0.930 . S
H346 C359 0.930 . S
H347 C360 0.930 . S
H348 C364 0.959 . S
H349 C364 0.959 . S
H350 C364 0.961 . S
H351 C365 0.960 . S
H352 C365 0.961 . S
H353 C365 0.959 . S
H354 C368 0.929 . S
H355 C369 0.931 . S
H356 C371 0.930 . S
C357 H345 0.930 . S
C357 C358 1.399 . S
C357 C362 1.399 . S
C358 C357 1.399 . S
C358 C359 1.376 1_565 S
C359 H346 0.930 . S
C359 C358 1.376 1_545 S
C359 C360 1.388 1_545 S
C360 H347 0.930 . S
C360 C359 1.388 1_565 S
C360 C361 1.390 . S
C361 C360 1.390 . S
C361 C362 1.394 . S
C361 C367 1.465 . S
C362 C357 1.399 . S
C362 C361 1.394 . S
C362 C363 1.516 . S
C363 C362 1.516 . S
C363 C364 1.502 . S
C363 C365 1.561 . S
C363 C366 1.526 . S
C364 H348 0.959 . S
C364 H349 0.959 . S
C364 H350 0.961 . S
C364 C363 1.502 . S
C365 H351 0.960 . S
C365 H352 0.961 . S
C365 H353 0.959 . S
C365 C363 1.561 . S
C366 C363 1.526 . S
C366 C367 1.396 . S
C366 C371 1.390 . S
C367 C361 1.465 . S
C367 C366 1.396 . S
C367 C368 1.399 . S
C368 H354 0.929 . S
C368 C367 1.399 . S
C368 C369 1.385 . S
C369 H355 0.931 . S
C369 C368 1.385 . S
C369 C370 1.389 . S
C370 C369 1.389 . S
C370 C371 1.387 . S
C371 H356 0.930 . S
C371 C366 1.390 . S
C371 C370 1.387 . S
H372 C384 0.930 . S
H373 C386 0.930 . S
H374 C387 0.930 . S
H375 C391 0.959 . S
H376 C391 0.959 . S
H377 C391 0.961 . S
H378 C392 0.960 . S
H379 C392 0.961 . S
H380 C392 0.959 . S
H381 C395 0.929 . S
H382 C396 0.931 . S
H383 C398 0.930 . S
C384 H372 0.930 . S
C384 C385 1.399 . S
C384 C389 1.399 . S
C385 C384 1.399 . S
C385 C386 1.376 . S
C386 H373 0.930 . S
C386 C385 1.376 . S
C386 C387 1.388 . S
C387 H374 0.930 . S
C387 C386 1.388 . S
C387 C388 1.390 . S
C388 C387 1.390 . S
C388 C389 1.394 . S
C388 C394 1.465 . S
C389 C384 1.399 . S
C389 C388 1.394 . S
C389 C390 1.516 . S
C390 C389 1.516 . S
C390 C391 1.502 . S
C390 C392 1.561 1_545 S
C390 C393 1.526 . S
C391 H375 0.959 . S
C391 H376 0.959 . S
C391 H377 0.961 . S
C391 C390 1.502 . S
C392 H378 0.960 . S
C392 H379 0.961 . S
C392 H380 0.959 . S
C392 C390 1.561 1_565 S
C393 C390 1.526 . S
C393 C394 1.396 . S
C393 C398 1.390 . S
C394 C388 1.465 . S
C394 C393 1.396 . S
C394 C395 1.399 . S
C395 H381 0.929 . S
C395 C394 1.399 . S
C395 C396 1.385 . S
C396 H382 0.931 . S
C396 C395 1.385 . S
C396 C397 1.389 . S
C397 C396 1.389 . S
C397 C398 1.387 . S
C398 H383 0.930 . S
C398 C393 1.390 . S
C398 C397 1.387 . S
H399 C411 0.930 . S
H400 C413 0.930 . S
H401 C414 0.930 . S
H402 C418 0.959 . S
H403 C418 0.959 . S
H404 C418 0.961 . S
H405 C419 0.960 . S
H406 C419 0.961 . S
H407 C419 0.959 . S
H408 C422 0.929 . S
H409 C423 0.931 . S
H410 C425 0.930 . S
C411 H399 0.930 . S
C411 C412 1.399 . S
C411 C416 1.399 . S
C412 C411 1.399 . S
C412 C413 1.376 . S
C413 H400 0.930 . S
C413 C412 1.376 . S
C413 C414 1.388 . S
C414 H401 0.930 . S
C414 C413 1.388 . S
C414 C415 1.390 . S
C415 C414 1.390 . S
C415 C416 1.394 . S
C415 C421 1.465 . S
C416 C411 1.399 . S
C416 C415 1.394 . S
C416 C417 1.516 . S
C417 C416 1.516 . S
C417 C418 1.502 . S
C417 C419 1.561 . S
C417 C420 1.526 . S
C418 H402 0.959 . S
C418 H403 0.959 . S
C418 H404 0.961 . S
C418 C417 1.502 . S
C419 H405 0.960 . S
C419 H406 0.961 . S
C419 H407 0.959 . S
C419 C417 1.561 . S
C420 C417 1.526 . S
C420 C421 1.396 . S
C420 C425 1.390 . S
C421 C415 1.465 . S
C421 C420 1.396 . S
C421 C422 1.399 . S
C422 H408 0.929 . S
C422 C421 1.399 . S
C422 C423 1.385 . S
C423 H409 0.931 . S
C423 C422 1.385 . S
C423 C424 1.389 . S
C424 C423 1.389 . S
C424 C425 1.387 . S
C425 H410 0.930 . S
C425 C420 1.390 . S
C425 C424 1.387 . S
H426 C438 0.930 . S
H427 C440 0.930 . S
H428 C441 0.930 . S
H429 C445 0.959 . S
H430 C445 0.959 . S
H431 C445 0.961 . S
H432 C446 0.960 1_565 S
H433 C446 0.961 1_565 S
H434 C446 0.959 . S
H435 C449 0.929 . S
H436 C450 0.931 . S
H437 C452 0.930 . S
C438 H426 0.930 . S
C438 C439 1.399 . S
C438 C443 1.399 . S
C439 C438 1.399 . S
C439 C440 1.376 . S
C440 H427 0.930 . S
C440 C439 1.376 . S
C440 C441 1.388 . S
C441 H428 0.930 . S
C441 C440 1.388 . S
C441 C442 1.390 . S
C442 C441 1.390 . S
C442 C443 1.394 . S
C442 C448 1.465 . S
C443 C438 1.399 . S
C443 C442 1.394 . S
C443 C444 1.516 . S
C444 C443 1.516 . S
C444 C445 1.502 . S
C444 C446 1.561 . S
C444 C447 1.526 . S
C445 H429 0.959 . S
C445 H430 0.959 . S
C445 H431 0.961 . S
C445 C444 1.502 . S
C446 H432 0.960 1_545 S
C446 H433 0.961 1_545 S
C446 H434 0.959 . S
C446 C444 1.561 . S
C447 C444 1.526 . S
C447 C448 1.396 . S
C447 C452 1.390 . S
C448 C442 1.465 . S
C448 C447 1.396 . S
C448 C449 1.399 . S
C449 H435 0.929 . S
C449 C448 1.399 . S
C449 C450 1.385 . S
C450 H436 0.931 . S
C450 C449 1.385 . S
C450 C451 1.389 . S
C451 C450 1.389 . S
C451 C452 1.387 . S
C452 H437 0.930 . S
C452 C447 1.390 . S
C452 C451 1.387 . S
H453 C465 0.927 1_545 S
H454 C467 0.930 1_455 S
H455 C468 0.930 . S
H456 C472 0.959 . S
H457 C472 0.961 . S
H458 C472 0.961 . S
H459 C473 0.940 1_554 S
H460 C473 0.961 . S
H461 C473 0.959 . S
H462 C476 0.929 . S
H463 C477 0.931 . S
H464 C479 0.930 . S
C465 H453 0.927 1_565 S
C465 C466 1.401 . S
C465 C470 1.400 . S
C466 C465 1.401 . S
C466 C467 1.376 . S
C467 H454 0.930 1_655 S
C467 C466 1.376 . S
C467 C468 1.388 . S
C468 H455 0.930 . S
C468 C467 1.388 . S
C468 C469 1.390 . S
C469 C468 1.390 . S
C469 C470 1.394 . S
C469 C475 1.465 1_554 S
C470 C465 1.400 . S
C470 C469 1.394 . S
C470 C471 1.516 . S
C471 C470 1.516 . S
C471 C472 1.502 . S
C471 C473 1.561 1_564 S
C471 C474 1.526 1_554 S
C472 H456 0.959 . S
C472 H457 0.961 . S
C472 H458 0.961 . S
C472 C471 1.502 . S
C473 H459 0.940 1_556 S
C473 H460 0.961 . S
C473 H461 0.959 . S
C473 C471 1.561 1_546 S
C474 C471 1.526 1_556 S
C474 C475 1.396 . S
C474 C479 1.390 . S
C475 C469 1.465 1_556 S
C475 C474 1.396 . S
C475 C476 1.399 . S
C476 H462 0.929 . S
C476 C475 1.399 . S
C476 C477 1.385 . S
C477 H463 0.931 . S
C477 C476 1.385 . S
C477 C478 1.389 . S
C478 C477 1.389 . S
C478 C479 1.387 . S
C479 H464 0.930 . S
C479 C474 1.390 . S
C479 C478 1.387 . S
H480 C492 0.930 . S
H481 C494 0.930 . S
H482 C495 0.930 . S
H483 C499 0.959 . S
H484 C499 0.959 . S
H485 C499 0.961 . S
H486 C500 0.960 . S
H487 C500 0.961 . S
H488 C500 0.959 . S
H489 C503 0.929 . S
H490 C504 0.931 1_455 S
H491 C506 0.930 . S
C492 H480 0.930 . S
C492 C493 1.399 . S
C492 C497 1.399 . S
C493 C492 1.399 . S
C493 C494 1.376 . S
C494 H481 0.930 . S
C494 C493 1.376 . S
C494 C495 1.388 . S
C495 H482 0.930 . S
C495 C494 1.388 . S
C495 C496 1.390 . S
C496 C495 1.390 . S
C496 C497 1.394 . S
C496 C502 1.465 . S
C497 C492 1.399 . S
C497 C496 1.394 . S
C497 C498 1.516 . S
C498 C497 1.516 . S
C498 C499 1.502 1_655 S
C498 C500 1.561 . S
C498 C501 1.526 . S
C499 H483 0.959 . S
C499 H484 0.959 . S
C499 H485 0.961 . S
C499 C498 1.502 1_455 S
C500 H486 0.960 . S
C500 H487 0.961 . S
C500 H488 0.959 . S
C500 C498 1.561 . S
C501 C498 1.526 . S
C501 C502 1.396 . S
C501 C506 1.390 . S
C502 C496 1.465 . S
C502 C501 1.396 . S
C502 C503 1.399 . S
C503 H489 0.929 . S
C503 C502 1.399 . S
C503 C504 1.385 . S
C504 H490 0.931 1_655 S
C504 C503 1.385 . S
C504 C505 1.389 . S
C505 C504 1.389 . S
C505 C506 1.387 . S
C506 H491 0.930 . S
C506 C501 1.390 . S
C506 C505 1.387 . S
H507 C519 0.930 1_565 S
H508 C521 0.930 . S
H509 C522 0.930 . S
H510 C526 0.959 1_545 S
H511 C526 0.959 . S
H512 C526 0.961 . S
H513 C527 0.960 . S
H514 C527 0.961 . S
H515 C527 0.959 . S
H516 C530 0.929 . S
H517 C531 0.931 . S
H518 C533 0.930 . S
C519 H507 0.930 1_545 S
C519 C520 1.399 . S
C519 C524 1.399 . S
C520 C519 1.399 . S
C520 C521 1.376 . S
C521 H508 0.930 . S
C521 C520 1.376 . S
C521 C522 1.388 . S
C522 H509 0.930 . S
C522 C521 1.388 . S
C522 C523 1.390 . S
C523 C522 1.390 . S
C523 C524 1.394 . S
C523 C529 1.465 . S
C524 C519 1.399 . S
C524 C523 1.394 . S
C524 C525 1.516 . S
C525 C524 1.516 . S
C525 C526 1.502 1_545 S
C525 C527 1.561 1_545 S
C525 C528 1.526 . S
C526 H510 0.959 1_565 S
C526 H511 0.959 . S
C526 H512 0.961 . S
C526 C525 1.502 1_565 S
C527 H513 0.960 . S
C527 H514 0.961 . S
C527 H515 0.959 . S
C527 C525 1.561 1_565 S
C528 C525 1.526 . S
C528 C529 1.396 . S
C528 C533 1.390 . S
C529 C523 1.465 . S
C529 C528 1.396 . S
C529 C530 1.399 . S
C530 H516 0.929 . S
C530 C529 1.399 . S
C530 C531 1.385 . S
C531 H517 0.931 . S
C531 C530 1.385 . S
C531 C532 1.389 . S
C532 C531 1.389 . S
C532 C533 1.387 . S
C533 H518 0.930 . S
C533 C528 1.390 . S
C533 C532 1.387 . S
H534 C546 0.930 . S
H535 C548 0.930 . S
H536 C549 0.930 . S
H537 C553 0.959 . S
H538 C553 0.959 1_556 S
H539 C553 0.961 . S
H540 C554 0.960 . S
H541 C554 0.961 . S
H542 C554 0.959 . S
H543 C557 0.929 . S
H544 C558 0.931 . S
H545 C560 0.930 . S
C546 H534 0.930 . S
C546 C547 1.399 . S
C546 C551 1.399 . S
C547 C546 1.399 . S
C547 C548 1.376 . S
C548 H535 0.930 . S
C548 C547 1.376 . S
C548 C549 1.388 . S
C549 H536 0.930 . S
C549 C548 1.388 . S
C549 C550 1.390 . S
C550 C549 1.390 . S
C550 C551 1.394 . S
C550 C556 1.465 . S
C551 C546 1.399 . S
C551 C550 1.394 . S
C551 C552 1.516 . S
C552 C551 1.516 . S
C552 C553 1.502 . S
C552 C554 1.561 1_554 S
C552 C555 1.526 . S
C553 H537 0.959 . S
C553 H538 0.959 1_554 S
C553 H539 0.961 . S
C553 C552 1.502 . S
C554 H540 0.960 . S
C554 H541 0.961 . S
C554 H542 0.959 . S
C554 C552 1.561 1_556 S
C555 C552 1.526 . S
C555 C556 1.396 . S
C555 C560 1.390 1_554 S
C556 C550 1.465 . S
C556 C555 1.396 . S
C556 C557 1.399 . S
C557 H543 0.929 . S
C557 C556 1.399 . S
C557 C558 1.385 . S
C558 H544 0.931 . S
C558 C557 1.385 . S
C558 C559 1.389 1_554 S
C559 C558 1.389 1_556 S
C559 C560 1.387 . S
C560 H545 0.930 . S
C560 C555 1.390 1_556 S
C560 C559 1.387 . S
H561 C573 0.930 . S
H562 C575 0.930 . S
H563 C576 0.930 . S
H564 C580 0.959 1_655 S
H565 C580 0.959 . S
H566 C580 0.961 . S
H567 C581 0.960 . S
H568 C581 0.961 . S
H569 C581 0.959 . S
H570 C584 0.929 . S
H571 C585 0.931 . S
H572 C587 0.930 . S
C573 H561 0.930 . S
C573 C574 1.399 . S
C573 C578 1.399 . S
C574 C573 1.399 . S
C574 C575 1.376 . S
C575 H562 0.930 . S
C575 C574 1.376 . S
C575 C576 1.388 . S
C576 H563 0.930 . S
C576 C575 1.388 . S
C576 C577 1.390 . S
C577 C576 1.390 . S
C577 C578 1.394 . S
C577 C583 1.465 . S
C578 C573 1.399 . S
C578 C577 1.394 . S
C578 C579 1.516 . S
C579 C578 1.516 . S
C579 C580 1.502 . S
C579 C581 1.561 . S
C579 C582 1.526 . S
C580 H564 0.959 1_455 S
C580 H565 0.959 . S
C580 H566 0.961 . S
C580 C579 1.502 . S
C581 H567 0.960 . S
C581 H568 0.961 . S
C581 H569 0.959 . S
C581 C579 1.561 . S
C582 C579 1.526 . S
C582 C583 1.396 . S
C582 C587 1.390 . S
C583 C577 1.465 . S
C583 C582 1.396 . S
C583 C584 1.399 . S
C584 H570 0.929 . S
C584 C583 1.399 . S
C584 C585 1.385 . S
C585 H571 0.931 . S
C585 C584 1.385 . S
C585 C586 1.389 . S
C586 C585 1.389 . S
C586 C587 1.387 . S
C587 H572 0.930 . S
C587 C582 1.390 . S
C587 C586 1.387 . S
C289 C81 1.259 . S
C277 C11 1.369 . S
C304 C26 1.479 . S
C316 C155 1.389 . S
C331 C40 2.013 1_665 S
C343 C259 2.020 . S
C358 C5 0.597 1_565 S
C370 C93 0.696 . S
C397 C167 0.918 . S
C385 C18 0.906 . S
C412 C32 1.479 . S
C424 C253 1.351 . S
C451 C185 1.951 . S
C439 C39 1.933 1_655 S
C466 C4 1.376 1_665 S
C478 C229 1.327 . S
C505 C105 1.313 1_655 S
C493 C19 1.254 . S
C532 C179 1.221 . S
C520 C33 1.201 . S
C559 C241 0.759 . S
C547 C12 0.730 . S
C574 C25 2.091 . S
C586 C111 2.094 . S
