# Generated by pormake.
# Topology rtl, (3,6)-cn, num edge types: 1
# Building blocks:
#     Node 0, Type 0, BuildingBlock: BETDAH_clean_linker_0, # of connection points: 3
#     Node 1, Type 0, BuildingBlock: BETDAH_clean_linker_0, # of connection points: 3
#     Node 2, Type 0, BuildingBlock: BETDAH_clean_linker_0, # of connection points: 3
#     Node 3, Type 0, BuildingBlock: BETDAH_clean_linker_0, # of connection points: 3
#     Node 4, Type 1, BuildingBlock: LEVNOQ01_clean_sbu_1, # of connection points: 6
#     Node 5, Type 1, BuildingBlock: LEVNOQ01_clean_sbu_1, # of connection points: 6
#     Edge 6, Type (0, 1), BuildingBlock: XIVTED_clean_linker_0, # of connection points: 2
#     Edge 7, Type (0, 1), BuildingBlock: XIVTED_clean_linker_0, # of connection points: 2
#     Edge 8, Type (0, 1), BuildingBlock: XIVTED_clean_linker_0, # of connection points: 2
#     Edge 9, Type (0, 1), BuildingBlock: XIVTED_clean_linker_0, # of connection points: 2
#     Edge 10, Type (0, 1), BuildingBlock: XIVTED_clean_linker_0, # of connection points: 2
#     Edge 11, Type (0, 1), BuildingBlock: XIVTED_clean_linker_0, # of connection points: 2
#     Edge 12, Type (0, 1), BuildingBlock: XIVTED_clean_linker_0, # of connection points: 2
#     Edge 13, Type (0, 1), BuildingBlock: XIVTED_clean_linker_0, # of connection points: 2
#     Edge 14, Type (0, 1), BuildingBlock: XIVTED_clean_linker_0, # of connection points: 2
#     Edge 15, Type (0, 1), BuildingBlock: XIVTED_clean_linker_0, # of connection points: 2
#     Edge 16, Type (0, 1), BuildingBlock: XIVTED_clean_linker_0, # of connection points: 2
#     Edge 17, Type (0, 1), BuildingBlock: XIVTED_clean_linker_0, # of connection points: 2
# Relax obj value: 0.016
# Max RMSD: 0.115
# Mean RMSD: 0.086
data_MOF--net-rtl--node1-LEVNOQ01_clean_sbu_1--node2-BETDAH_clean_linker_0--edge1-XIVTED_clean_linker_0
_symmetry_space_group_name_H-M    P1
_symmetry_Int_Tables_number       1
_symmetry_cell_setting            triclinic
loop_
_symmetry_equiv_pos_as_xyz
'x, y, z'
_cell_length_a     35.981493
_cell_length_b     35.994935
_cell_length_c     22.511538
_cell_angle_alpha  91.168593
_cell_angle_beta   98.941769
_cell_angle_gamma 90.171235
loop_
_atom_site_label
_atom_site_type_symbol
_atom_site_fract_x
_atom_site_fract_y
_atom_site_fract_z
_atom_type_partial_charge
H0 H 0.15323 0.89048 0.04651 0.0
H1 H 0.17933 0.80722 0.18124 0.0
H2 H 0.19201 0.78278 -0.00194 0.0
C3 C 0.16313 0.86297 0.05964 0.0
C4 C 0.17194 0.83792 0.01537 0.0
C5 C 0.16557 0.85237 0.11984 0.0
C6 C 0.17822 0.81652 0.13552 0.0
C7 C 0.18882 0.7919 0.09242 0.0
C8 C 0.18532 0.80239 0.03196 0.0
N9 N 0.20032 0.75578 0.11049 0.0
C10 C 0.23409 0.74067 0.09966 0.0
H11 H 0.62622 0.64532 0.54826 0.0
H12 H 0.69182 0.74078 0.51547 0.0
H13 H 0.67997 0.71329 0.69651 0.0
C14 C 0.6435 0.66906 0.56547 0.0
C15 C 0.65185 0.67578 0.62775 0.0
C16 C 0.65714 0.69257 0.52459 0.0
C17 C 0.68126 0.72238 0.54659 0.0
C18 C 0.68953 0.72954 0.60913 0.0
C19 C 0.67439 0.70658 0.64881 0.0
N20 N 0.7104 0.7611 0.6343 0.0
C21 C 0.73995 0.77765 0.61151 0.0
H22 H 0.87071 0.13958 0.00784 0.0
H23 H 0.83886 0.23882 0.09631 0.0
H24 H 0.81471 0.22873 0.90443 0.0
C25 C 0.85713 0.16645 0.0054 0.0
C26 C 0.84296 0.18136 0.94896 0.0
C27 C 0.85499 0.18661 0.05895 0.0
C28 C 0.83928 0.22226 0.05565 0.0
C29 C 0.82466 0.23717 0.00016 0.0
C30 C 0.82577 0.21652 0.9471 0.0
N31 N 0.81258 0.27449 -0.00188 0.0
C32 C 0.77613 0.28448 0.97473 0.0
H33 H 0.37088 0.36614 0.50899 0.0
H34 H 0.26775 0.3487 0.58037 0.0
H35 H 0.26646 0.3494 0.38988 0.0
C36 C 0.3409 0.36081 0.50267 0.0
C37 C 0.32101 0.35864 0.44372 0.0
C38 C 0.32234 0.35773 0.55309 0.0
C39 C 0.28331 0.35031 0.54302 0.0
C40 C 0.26355 0.34632 0.48435 0.0
C41 C 0.28226 0.35111 0.43496 0.0
N42 N 0.22409 0.341 0.47507 0.0
C43 C 0.20806 0.30584 0.46498 0.0
O44 O 0.00359 0.08318 0.6622 0.0
Mg45 Mg 0.05178 0.06029 0.63578 0.0
O46 O 0.96982 0.04108 0.6046 0.0
Mg47 Mg 0.00872 0.01278 0.54136 0.0
O48 O 0.05377 0.06139 0.54557 0.0
O49 O 0.08877 0.09794 0.61538 0.0
O50 O 0.04504 0.98432 0.47676 0.0
O51 O 0.97937 0.05359 0.46405 0.0
Mg52 Mg 0.96058 0.98997 0.46074 0.0
O53 O 0.9644 0.96108 0.53841 0.0
O54 O -6e-05 0.98696 0.39984 0.0
O55 O 0.92157 0.03341 0.4498 0.0
O56 O 0.93272 0.94165 0.44889 0.0
C57 C 0.06779 0.98217 0.6647 0.0
C58 C 0.97239 0.06755 0.64364 0.0
C59 C 0.07871 0.0878 0.55992 0.0
C60 C 0.0341 0.98141 0.42036 0.0
C61 C 0.94486 0.05825 0.44184 0.0
C62 C 0.94195 0.93728 0.50587 0.0
O63 O 0.07769 0.01506 0.68047 0.0
O64 O 0.04256 0.97592 0.61878 0.0
O65 O 0.59052 0.52335 0.15819 0.0
Mg66 Mg 0.55699 0.47685 0.13304 0.0
O67 O 0.53678 0.54901 0.12275 0.0
Mg68 Mg 0.506 0.50634 0.04618 0.0
O69 O 0.55179 0.45861 0.0454 0.0
O70 O 0.58918 0.43268 0.12308 0.0
O71 O 0.47797 0.46216 0.96856 0.0
O72 O 0.53911 0.53621 0.98019 0.0
Mg73 Mg 0.4562 0.52359 0.97037 0.0
O74 O 0.46008 0.556 0.04636 0.0
O75 O 0.41931 0.47764 0.9632 0.0
O76 O 0.49305 0.52865 0.9055 0.0
O77 O 0.42513 0.56938 0.95764 0.0
C78 C 0.48197 0.46156 0.16326 0.0
C79 C 0.56965 0.55145 0.15405 0.0
C80 C 0.57683 0.4341 0.0663 0.0
C81 C 0.44328 0.45472 0.95029 0.0
C82 C 0.52684 0.53769 0.92422 0.0
C83 C 0.43606 0.57726 0.01362 0.0
O84 O 0.51647 0.46076 0.18512 0.0
O85 O 0.47162 0.47597 0.11207 0.0
H86 H 0.13457 0.29225 0.42466 0.0
H87 H 0.15138 0.08606 0.54404 0.0
H88 H 0.23936 0.23877 0.49044 0.0
H89 H 0.04557 0.13807 0.47996 0.0
H90 H 0.18422 0.13615 0.50169 0.0
H91 H 0.1019 0.23223 0.42461 0.0
C92 C 0.15068 0.26761 0.43818 0.0
C93 C 0.18947 0.27009 0.45792 0.0
C94 C 0.15377 0.13622 0.49519 0.0
C95 C 0.15261 0.2017 0.45847 0.0
C96 C 0.13502 0.10731 0.51862 0.0
C97 C 0.09582 0.10792 0.51488 0.0
C98 C 0.13315 0.16648 0.46923 0.0
C99 C 0.07585 0.13647 0.48296 0.0
C100 C 0.13212 0.23342 0.43812 0.0
C101 C 0.2093 0.23774 0.47512 0.0
N102 N 0.0948 0.16512 0.46241 0.0
N103 N 0.19059 0.20488 0.4756 0.0
H104 H 0.27759 0.75208 0.014 0.0
H105 H 0.41543 0.58482 0.12583 0.0
H106 H 0.27016 0.69001 0.1733 0.0
H107 H 0.41459 0.64148 0.95871 0.0
H108 H 0.37123 0.63116 0.15522 0.0
H109 H 0.33581 0.71913 0.00284 0.0
C110 C 0.28852 0.73161 0.04672 0.0
C111 C 0.26931 0.72318 0.09411 0.0
C112 C 0.38133 0.63382 0.11263 0.0
C113 C 0.33539 0.68549 0.0821 0.0
C114 C 0.4068 0.60762 0.09622 0.0
C115 C 0.41812 0.60916 0.03952 0.0
C116 C 0.36745 0.6616 0.07199 0.0
C117 C 0.40601 0.63906 0.00252 0.0
C118 C 0.32169 0.71288 0.04059 0.0
C119 C 0.28434 0.6968 0.13584 0.0
N120 N 0.381 0.66379 0.01904 0.0
N121 N 0.31643 0.67857 0.12863 0.0
H122 H 0.77297 0.83473 0.67786 0.0
H123 H 0.9219 0.86955 0.45637 0.0
H124 H 0.78144 0.76602 0.52174 0.0
H125 H 0.91652 0.93737 0.61484 0.0
H126 H 0.87621 0.82675 0.48721 0.0
H127 H 0.82923 0.86922 0.66138 0.0
C128 C 0.78683 0.82705 0.64 0.0
C129 C 0.77269 0.79799 0.60059 0.0
C130 C 0.88537 0.85061 0.51589 0.0
C131 C 0.837 0.8368 0.58171 0.0
C132 C 0.91168 0.87494 0.49852 0.0
C133 C 0.92279 0.90714 0.53298 0.0
C134 C 0.86952 0.85877 0.56775 0.0
C135 C 0.90878 0.91276 0.58716 0.0
C136 C 0.81898 0.84653 0.6308 0.0
C137 C 0.79151 0.7886 0.55264 0.0
N138 N 0.88231 0.88912 0.60241 0.0
N139 N 0.82269 0.80812 0.54432 0.0
H140 H 0.71311 0.25346 0.00237 0.0
H141 H 0.6063 0.44706 0.96337 0.0
H142 H 0.75475 0.34847 0.91928 0.0
H143 H 0.58331 0.36029 0.08186 0.0
H144 H 0.64755 0.40416 0.91772 0.0
H145 H 0.65278 0.28498 0.00176 0.0
C146 C 0.70899 0.28056 0.98236 0.0
C147 C 0.73852 0.29866 0.96104 0.0
C148 C 0.6326 0.39426 0.95255 0.0
C149 C 0.67044 0.33521 0.96145 0.0
C150 C 0.6089 0.4186 0.97814 0.0
C151 C 0.59195 0.40709 0.02668 0.0
C152 C 0.63888 0.35839 0.97569 0.0
C153 C 0.59633 0.37017 0.04483 0.0
C154 C 0.67474 0.29863 0.98225 0.0
C155 C 0.73233 0.33382 0.93611 0.0
N156 N 0.61973 0.34726 0.01987 0.0
N157 N 0.69905 0.35131 0.93782 0.0
H158 H 0.19499 0.8628 0.23979 0.0
H159 H 0.02456 0.99258 0.30038 0.0
H160 H 0.10496 0.89891 0.10377 0.0
H161 H 0.10173 0.94451 0.44402 0.0
H162 H 0.06161 0.9672 0.22792 0.0
H163 H 0.16812 0.89995 0.31493 0.0
C164 C 0.16974 0.87864 0.22558 0.0
C165 C 0.15213 0.87747 0.16523 0.0
C166 C 0.07071 0.9623 0.27525 0.0
C167 C 0.12169 0.92038 0.2508 0.0
C168 C 0.04954 0.97682 0.31672 0.0
C169 C 0.05975 0.97008 0.37822 0.0
C170 C 0.10226 0.94046 0.29508 0.0
C171 C 0.09278 0.95008 0.39688 0.0
C172 C 0.15459 0.89997 0.26847 0.0
C173 C 0.11992 0.89918 0.14936 0.0
N174 N 0.11268 0.93547 0.3553 0.0
N175 N 0.10571 0.91948 0.19187 0.0
H176 H 0.58211 0.64273 0.61285 0.0
H177 H 0.5967 0.57143 0.94788 0.0
H178 H 0.68446 0.65404 0.7408 0.0
H179 H 0.50973 0.53766 0.80224 0.0
H180 H 0.63018 0.60186 0.8748 0.0
H181 H 0.55556 0.60452 0.6835 0.0
C182 C 0.59929 0.63685 0.65546 0.0
C183 C 0.63574 0.65168 0.67052 0.0
C184 C 0.60396 0.58742 0.85898 0.0
C185 C 0.60484 0.60842 0.75286 0.0
C186 C 0.58489 0.57002 0.9006 0.0
C187 C 0.55013 0.5524 0.88124 0.0
C188 C 0.58794 0.58725 0.79789 0.0
C189 C 0.53616 0.55133 0.81943 0.0
C190 C 0.58394 0.61512 0.6961 0.0
C191 C 0.65605 0.64373 0.72743 0.0
N192 N 0.55492 0.5688 0.78019 0.0
N193 N 0.64024 0.62284 0.76671 0.0
H194 H 0.92334 0.15376 0.09421 0.0
H195 H 0.87468 0.0859 0.40592 0.0
H196 H 0.82084 0.18469 0.15902 0.0
H197 H 0.98884 0.0925 0.37009 0.0
H198 H 0.85388 0.12129 0.31533 0.0
H199 H 0.94729 0.12865 0.19326 0.0
C200 C 0.90588 0.15515 0.12928 0.0
C201 C 0.87002 0.17116 0.11844 0.0
C202 C 0.88357 0.11555 0.32779 0.0
C203 C 0.89719 0.1427 0.23162 0.0
C204 C 0.89547 0.09549 0.3796 0.0
C205 C 0.93352 0.08623 0.39547 0.0
C206 C 0.90978 0.12577 0.29084 0.0
C207 C 0.95926 0.09921 0.35964 0.0
C208 C 0.91967 0.14118 0.18588 0.0
C209 C 0.84871 0.1727 0.16563 0.0
N210 N 0.94683 0.11778 0.30837 0.0
N211 N 0.86246 0.15836 0.21997 0.0
H212 H 0.30923 0.32786 0.66082 0.0
H213 H 0.48229 0.43247 0.86119 0.0
H214 H 0.38362 0.40385 0.58925 0.0
H215 H 0.3765 0.41697 0.92518 0.0
H216 H 0.45554 0.40177 0.76576 0.0
H217 H 0.34202 0.34295 0.76221 0.0
C218 C 0.33238 0.34751 0.66587 0.0
C219 C 0.34334 0.3645 0.61541 0.0
C220 C 0.43856 0.40432 0.80135 0.0
C221 C 0.38193 0.38048 0.7316 0.0
C222 C 0.45391 0.42141 0.85603 0.0
C223 C 0.4315 0.42735 0.90103 0.0
C224 C 0.40082 0.39249 0.79216 0.0
C225 C 0.39464 0.413 0.89147 0.0
C226 C 0.35127 0.35576 0.72387 0.0
C227 C 0.37434 0.38911 0.6257 0.0
N228 N 0.38032 0.39642 0.83789 0.0
N229 N 0.39248 0.39622 0.68236 0.0
H230 H 0.58515 0.68991 0.46642 0.0
H231 H 0.64153 0.57497 0.19129 0.0
H232 H 0.69973 0.67783 0.43564 0.0
H233 H 0.5267 0.60187 0.20674 0.0
H234 H 0.66325 0.61982 0.27202 0.0
H235 H 0.56312 0.66557 0.36482 0.0
C236 C 0.60565 0.68283 0.43755 0.0
C237 C 0.64431 0.68563 0.45941 0.0
C238 C 0.6333 0.61653 0.25719 0.0
C239 C 0.61934 0.65697 0.34334 0.0
C240 C 0.62085 0.59092 0.21095 0.0
C241 C 0.58221 0.58439 0.19267 0.0
C242 C 0.60698 0.63539 0.2864 0.0
C243 C 0.55672 0.60601 0.21946 0.0
C244 C 0.59307 0.66887 0.37959 0.0
C245 C 0.66971 0.67613 0.42038 0.0
N246 N 0.56955 0.63002 0.2658 0.0
N247 N 0.65679 0.6616 0.36457 0.0
H248 H 0.84073 0.10609 0.92103 0.0
H249 H 0.94492 0.13708 0.63947 0.0
H250 H 0.86148 0.21276 0.84763 0.0
H251 H 0.92716 0.02862 0.7077 0.0
H252 H 0.90185 0.16336 0.70247 0.0
H253 H 0.86123 0.07571 0.83333 0.0
C254 C 0.84919 0.12316 0.88634 0.0
C255 C 0.84977 0.16214 0.89238 0.0
C256 C 0.90666 0.13369 0.70309 0.0
C257 C 0.87283 0.1275 0.79161 0.0
C258 C 0.93104 0.11871 0.66679 0.0
C259 C 0.93943 0.0808 0.66875 0.0
C260 C 0.89142 0.11073 0.7431 0.0
C261 C 0.92108 0.05803 0.70497 0.0
C262 C 0.86063 0.10576 0.83607 0.0
C263 C 0.8602 0.18273 0.84518 0.0
N264 N 0.89843 0.07349 0.74184 0.0
N265 N 0.87166 0.16518 0.79737 0.0
H266 H 0.38899 0.33266 0.42203 0.0
H267 H 0.4043 0.46777 0.14774 0.0
H268 H 0.29813 0.40435 0.34888 0.0
H269 H 0.49785 0.41415 0.25567 0.0
H270 H 0.36151 0.43797 0.20834 0.0
H271 H 0.42547 0.3543 0.34672 0.0
C272 C 0.37661 0.35276 0.38971 0.0
C273 C 0.34071 0.36711 0.39226 0.0
C274 C 0.39143 0.43275 0.21832 0.0
C275 C 0.38243 0.3923 0.30589 0.0
C276 C 0.41579 0.44971 0.18384 0.0
C277 C 0.45475 0.44379 0.19704 0.0
C278 C 0.40624 0.40941 0.26549 0.0
C279 C 0.46813 0.41999 0.24417 0.0
C280 C 0.39743 0.36516 0.34671 0.0
C281 C 0.32573 0.39258 0.34844 0.0
N282 N 0.444 0.40379 0.27648 0.0
N283 N 0.34684 0.40474 0.30739 0.0
H284 H 0.20886 0.8901 0.96124 0.0
H285 H 0.03953 0.91363 0.69083 0.0
H286 H 0.11602 0.81285 0.92762 0.0
H287 H 0.13926 0.98246 0.72276 0.0
H288 H 0.06984 0.87052 0.76724 0.0
H289 H 0.18747 0.91828 0.86418 0.0
C290 C 0.18446 0.87853 0.9324 0.0
C291 C 0.1643 0.84906 0.95186 0.0
C292 C 0.08524 0.89478 0.75663 0.0
C293 C 0.13853 0.88197 0.84165 0.0
C294 C 0.06801 0.91921 0.71291 0.0
C295 C 0.08669 0.95192 0.70123 0.0
C296 C 0.12132 0.90321 0.78836 0.0
C297 C 0.12353 0.95791 0.73116 0.0
C298 C 0.17201 0.8947 0.87718 0.0
C299 C 0.13247 0.83536 0.91354 0.0
N300 N 0.13937 0.93413 0.7735 0.0
N301 N 0.12015 0.8523 0.86059 0.0
loop_
_geom_bond_atom_site_label_1
_geom_bond_atom_site_label_2
_geom_bond_distance
_geom_bond_site_symmetry_2
_ccdc_geom_bond_type
H0 C3 0.929 . S
H1 C6 0.929 . S
H2 C8 0.930 1_556 S
C3 H0 0.929 . S
C3 C4 1.398 . S
C3 C5 1.396 . S
C4 C3 1.398 . S
C4 C8 1.407 . S
C5 C3 1.396 . S
C5 C6 1.394 . S
C6 H1 0.929 . S
C6 C5 1.394 . S
C6 C7 1.382 . S
C7 C6 1.382 . S
C7 C8 1.392 . S
C7 N9 1.420 . S
C8 H2 0.930 1_554 S
C8 C4 1.407 . S
C8 C7 1.392 . S
N9 C7 1.420 . S
N9 C10 1.244 . S
C10 N9 1.244 . S
H11 C14 0.929 . S
H12 C17 0.929 . S
H13 C19 0.930 . S
C14 H11 0.929 . S
C14 C15 1.398 . S
C14 C16 1.396 . S
C15 C14 1.398 . S
C15 C19 1.407 . S
C16 C14 1.396 . S
C16 C17 1.394 . S
C17 H12 0.929 . S
C17 C16 1.394 . S
C17 C18 1.382 . S
C18 C17 1.382 . S
C18 C19 1.392 . S
C18 N20 1.420 . S
C19 H13 0.930 . S
C19 C15 1.407 . S
C19 C18 1.392 . S
N20 C18 1.420 . S
N20 C21 1.244 . S
C21 N20 1.244 . S
H22 C25 0.929 . S
H23 C28 0.929 . S
H24 C30 0.930 . S
C25 H22 0.929 . S
C25 C26 1.398 1_554 S
C25 C27 1.396 . S
C26 C25 1.398 1_556 S
C26 C30 1.407 . S
C27 C25 1.396 . S
C27 C28 1.394 . S
C28 H23 0.929 . S
C28 C27 1.394 . S
C28 C29 1.382 1_554 S
C29 C28 1.382 1_556 S
C29 C30 1.392 . S
C29 N31 1.420 . S
C30 H24 0.930 . S
C30 C26 1.407 . S
C30 C29 1.392 . S
N31 C29 1.420 . S
N31 C32 1.244 1_556 S
C32 N31 1.244 1_554 S
H33 C36 0.929 . S
H34 C39 0.929 . S
H35 C41 0.930 . S
C36 H33 0.929 . S
C36 C37 1.398 . S
C36 C38 1.396 . S
C37 C36 1.398 . S
C37 C41 1.407 . S
C38 C36 1.396 . S
C38 C39 1.394 . S
C39 H34 0.929 . S
C39 C38 1.394 . S
C39 C40 1.382 . S
C40 C39 1.382 . S
C40 C41 1.392 . S
C40 N42 1.420 . S
C41 H35 0.930 . S
C41 C37 1.407 . S
C41 C40 1.392 . S
N42 C40 1.420 . S
N42 C43 1.244 . S
C43 N42 1.244 . S
O44 Mg45 1.990 . S
O44 C58 1.253 1_455 S
Mg45 O44 1.990 . S
Mg45 O48 2.180 . S
Mg45 O49 2.117 . S
Mg45 O63 2.030 . S
O46 Mg47 2.072 1_655 S
O46 C58 1.260 . S
Mg47 O46 2.072 1_455 S
Mg47 O48 2.099 . S
Mg47 O50 2.079 1_545 S
Mg47 O51 2.072 1_455 S
Mg47 O53 2.099 1_445 S
Mg47 O64 2.079 1_545 S
O48 Mg45 2.180 . S
O48 Mg47 2.099 . S
O48 C59 1.279 . S
O49 Mg45 2.117 . S
O49 C59 1.250 . S
O50 Mg47 2.079 1_565 S
O50 C60 1.264 . S
O51 Mg47 2.072 1_655 S
O51 C61 1.260 . S
Mg52 O53 2.180 . S
Mg52 O54 2.030 1_655 S
Mg52 O55 1.990 1_565 S
Mg52 O56 2.117 . S
O53 Mg47 2.099 1_665 S
O53 Mg52 2.180 . S
O53 C62 1.279 . S
O54 Mg52 2.030 1_455 S
O54 C60 1.248 . S
O55 Mg52 1.990 1_545 S
O55 C61 1.253 . S
O56 Mg52 2.117 . S
O56 C62 1.250 . S
C57 O63 1.248 1_565 S
C57 O64 1.264 . S
C58 O44 1.253 1_655 S
C58 O46 1.260 . S
C59 O48 1.279 . S
C59 O49 1.250 . S
C60 O50 1.264 . S
C60 O54 1.248 . S
C61 O51 1.260 . S
C61 O55 1.253 . S
C62 O53 1.279 . S
C62 O56 1.250 . S
O63 Mg45 2.030 . S
O63 C57 1.248 1_545 S
O64 Mg47 2.079 1_565 S
O64 C57 1.264 . S
O65 Mg66 1.990 . S
O65 C79 1.253 . S
Mg66 O65 1.990 . S
Mg66 O69 2.180 . S
Mg66 O70 2.117 . S
Mg66 O84 2.030 . S
O67 Mg68 2.072 . S
O67 C79 1.260 . S
Mg68 O67 2.072 . S
Mg68 O69 2.099 . S
Mg68 O71 2.079 1_554 S
Mg68 O72 2.072 1_554 S
Mg68 O74 2.099 . S
Mg68 O85 2.079 . S
O69 Mg66 2.180 . S
O69 Mg68 2.099 . S
O69 C80 1.279 . S
O70 Mg66 2.117 . S
O70 C80 1.250 . S
O71 Mg68 2.079 1_556 S
O71 C81 1.264 . S
O72 Mg68 2.072 1_556 S
O72 C82 1.260 . S
Mg73 O74 2.180 1_556 S
Mg73 O75 2.030 . S
Mg73 O76 1.990 . S
Mg73 O77 2.117 . S
O74 Mg68 2.099 . S
O74 Mg73 2.180 1_554 S
O74 C83 1.279 . S
O75 Mg73 2.030 . S
O75 C81 1.248 . S
O76 Mg73 1.990 . S
O76 C82 1.253 . S
O77 Mg73 2.117 . S
O77 C83 1.250 1_556 S
C78 O84 1.248 . S
C78 O85 1.264 . S
C79 O65 1.253 . S
C79 O67 1.260 . S
C80 O69 1.279 . S
C80 O70 1.250 . S
C81 O71 1.264 . S
C81 O75 1.248 . S
C82 O72 1.260 . S
C82 O76 1.253 . S
C83 O74 1.279 . S
C83 O77 1.250 1_554 S
O84 Mg66 2.030 . S
O84 C78 1.248 . S
O85 Mg68 2.079 . S
O85 C78 1.264 . S
H86 C92 0.930 . S
H87 C96 0.930 . S
H88 C101 0.929 . S
H89 C99 0.929 . S
H90 C94 0.929 . S
H91 C100 0.929 . S
C92 H86 0.930 . S
C92 C93 1.367 . S
C92 C100 1.378 . S
C93 C92 1.367 . S
C93 C101 1.433 . S
C94 H90 0.929 . S
C94 C96 1.378 . S
C94 C98 1.350 . S
C95 C98 1.463 . S
C95 C100 1.350 . S
C95 N103 1.427 . S
C96 H87 0.930 . S
C96 C94 1.378 . S
C96 C97 1.367 . S
C97 C96 1.367 . S
C97 C99 1.433 . S
C98 C94 1.350 . S
C98 C95 1.463 . S
C98 N102 1.427 . S
C99 H89 0.929 . S
C99 C97 1.433 . S
C99 N102 1.384 . S
C100 H91 0.929 . S
C100 C92 1.378 . S
C100 C95 1.350 . S
C101 H88 0.929 . S
C101 C93 1.433 . S
C101 N103 1.384 . S
N102 C98 1.427 . S
N102 C99 1.384 . S
N103 C95 1.427 . S
N103 C101 1.384 . S
H104 C110 0.944 . S
H105 C114 0.930 . S
H106 C119 0.929 . S
H107 C117 0.929 1_556 S
H108 C112 0.929 . S
H109 C118 0.929 1_556 S
C110 H104 0.944 . S
C110 C111 1.367 . S
C110 C118 1.378 . S
C111 C110 1.367 . S
C111 C119 1.433 . S
C112 H108 0.929 . S
C112 C114 1.378 . S
C112 C116 1.350 . S
C113 C116 1.463 . S
C113 C118 1.350 . S
C113 N121 1.427 . S
C114 H105 0.930 . S
C114 C112 1.378 . S
C114 C115 1.367 . S
C115 C114 1.367 . S
C115 C117 1.433 . S
C116 C112 1.350 . S
C116 C113 1.463 . S
C116 N120 1.427 . S
C117 H107 0.929 1_554 S
C117 C115 1.433 . S
C117 N120 1.384 . S
C118 H109 0.929 1_554 S
C118 C110 1.378 . S
C118 C113 1.350 . S
C119 H106 0.929 . S
C119 C111 1.433 . S
C119 N121 1.384 . S
N120 C116 1.427 . S
N120 C117 1.384 . S
N121 C113 1.427 . S
N121 C119 1.384 . S
H122 C128 0.930 . S
H123 C132 0.930 . S
H124 C137 0.929 . S
H125 C135 0.929 . S
H126 C130 0.929 . S
H127 C136 0.929 . S
C128 H122 0.930 . S
C128 C129 1.367 . S
C128 C136 1.378 . S
C129 C128 1.367 . S
C129 C137 1.433 . S
C130 H126 0.929 . S
C130 C132 1.378 . S
C130 C134 1.350 . S
C131 C134 1.463 . S
C131 C136 1.350 . S
C131 N139 1.427 . S
C132 H123 0.930 . S
C132 C130 1.378 . S
C132 C133 1.367 . S
C133 C132 1.367 . S
C133 C135 1.433 . S
C134 C130 1.350 . S
C134 C131 1.463 . S
C134 N138 1.427 . S
C135 H125 0.929 . S
C135 C133 1.433 . S
C135 N138 1.384 . S
C136 H127 0.929 . S
C136 C128 1.378 . S
C136 C131 1.350 . S
C137 H124 0.929 . S
C137 C129 1.433 . S
C137 N139 1.384 . S
N138 C134 1.427 . S
N138 C135 1.384 . S
N139 C131 1.427 . S
N139 C137 1.384 . S
H140 C146 0.930 . S
H141 C150 0.930 . S
H142 C155 0.929 . S
H143 C153 0.929 . S
H144 C148 0.929 . S
H145 C154 0.929 . S
C146 H140 0.930 . S
C146 C147 1.367 . S
C146 C154 1.378 . S
C147 C146 1.367 . S
C147 C155 1.433 1_554 S
C148 H144 0.929 . S
C148 C150 1.378 . S
C148 C152 1.350 1_556 S
C149 C152 1.463 . S
C149 C154 1.350 . S
C149 N157 1.427 1_554 S
C150 H141 0.930 . S
C150 C148 1.378 . S
C150 C151 1.367 1_556 S
C151 C150 1.367 1_554 S
C151 C153 1.433 . S
C152 C148 1.350 1_554 S
C152 C149 1.463 . S
C152 N156 1.427 . S
C153 H143 0.929 . S
C153 C151 1.433 . S
C153 N156 1.384 . S
C154 H145 0.929 . S
C154 C146 1.378 . S
C154 C149 1.350 . S
C155 H142 0.929 . S
C155 C147 1.433 1_556 S
C155 N157 1.384 . S
N156 C152 1.427 . S
N156 C153 1.384 . S
N157 C149 1.427 1_556 S
N157 C155 1.384 . S
H158 C164 0.930 . S
H159 C168 0.930 . S
H160 C173 0.929 . S
H161 C171 0.929 . S
H162 C166 0.929 . S
H163 C172 0.929 . S
C164 H158 0.930 . S
C164 C165 1.367 . S
C164 C172 1.378 . S
C165 C164 1.367 . S
C165 C173 1.433 . S
C166 H162 0.929 . S
C166 C168 1.378 . S
C166 C170 1.350 . S
C167 C170 1.463 . S
C167 C172 1.350 . S
C167 N175 1.427 . S
C168 H159 0.930 . S
C168 C166 1.378 . S
C168 C169 1.367 . S
C169 C168 1.367 . S
C169 C171 1.433 . S
C170 C166 1.350 . S
C170 C167 1.463 . S
C170 N174 1.427 . S
C171 H161 0.929 . S
C171 C169 1.433 . S
C171 N174 1.384 . S
C172 H163 0.929 . S
C172 C164 1.378 . S
C172 C167 1.350 . S
C173 H160 0.929 . S
C173 C165 1.433 . S
C173 N175 1.384 . S
N174 C170 1.427 . S
N174 C171 1.384 . S
N175 C167 1.427 . S
N175 C173 1.384 . S
H176 C182 0.930 . S
H177 C186 0.930 . S
H178 C191 0.929 . S
H179 C189 0.929 . S
H180 C184 0.929 . S
H181 C190 0.929 . S
C182 H176 0.930 . S
C182 C183 1.367 . S
C182 C190 1.378 . S
C183 C182 1.367 . S
C183 C191 1.433 . S
C184 H180 0.929 . S
C184 C186 1.378 . S
C184 C188 1.350 . S
C185 C188 1.463 . S
C185 C190 1.350 . S
C185 N193 1.427 . S
C186 H177 0.930 . S
C186 C184 1.378 . S
C186 C187 1.367 . S
C187 C186 1.367 . S
C187 C189 1.433 . S
C188 C184 1.350 . S
C188 C185 1.463 . S
C188 N192 1.427 . S
C189 H179 0.929 . S
C189 C187 1.433 . S
C189 N192 1.384 . S
C190 H181 0.929 . S
C190 C182 1.378 . S
C190 C185 1.350 . S
C191 H178 0.929 . S
C191 C183 1.433 . S
C191 N193 1.384 . S
N192 C188 1.427 . S
N192 C189 1.384 . S
N193 C185 1.427 . S
N193 C191 1.384 . S
H194 C200 0.930 . S
H195 C204 0.930 . S
H196 C209 0.929 . S
H197 C207 0.929 1_455 S
H198 C202 0.929 . S
H199 C208 0.929 . S
C200 H194 0.930 . S
C200 C201 1.367 . S
C200 C208 1.378 . S
C201 C200 1.367 . S
C201 C209 1.433 . S
C202 H198 0.929 . S
C202 C204 1.378 . S
C202 C206 1.350 . S
C203 C206 1.463 . S
C203 C208 1.350 . S
C203 N211 1.427 . S
C204 H195 0.930 . S
C204 C202 1.378 . S
C204 C205 1.367 . S
C205 C204 1.367 . S
C205 C207 1.433 . S
C206 C202 1.350 . S
C206 C203 1.463 . S
C206 N210 1.427 . S
C207 H197 0.929 1_655 S
C207 C205 1.433 . S
C207 N210 1.384 . S
C208 H199 0.929 . S
C208 C200 1.378 . S
C208 C203 1.350 . S
C209 H196 0.929 . S
C209 C201 1.433 . S
C209 N211 1.384 . S
N210 C206 1.427 . S
N210 C207 1.384 . S
N211 C203 1.427 . S
N211 C209 1.384 . S
H212 C218 0.930 . S
H213 C222 0.930 . S
H214 C227 0.929 . S
H215 C225 0.929 . S
H216 C220 0.929 . S
H217 C226 0.929 . S
C218 H212 0.930 . S
C218 C219 1.367 . S
C218 C226 1.378 . S
C219 C218 1.367 . S
C219 C227 1.433 . S
C220 H216 0.929 . S
C220 C222 1.378 . S
C220 C224 1.350 . S
C221 C224 1.463 . S
C221 C226 1.350 . S
C221 N229 1.427 . S
C222 H213 0.930 . S
C222 C220 1.378 . S
C222 C223 1.367 . S
C223 C222 1.367 . S
C223 C225 1.433 . S
C224 C220 1.350 . S
C224 C221 1.463 . S
C224 N228 1.427 . S
C225 H215 0.929 . S
C225 C223 1.433 . S
C225 N228 1.384 . S
C226 H217 0.929 . S
C226 C218 1.378 . S
C226 C221 1.350 . S
C227 H214 0.929 . S
C227 C219 1.433 . S
C227 N229 1.384 . S
N228 C224 1.427 . S
N228 C225 1.384 . S
N229 C221 1.427 . S
N229 C227 1.384 . S
H230 C236 0.930 . S
H231 C240 0.930 . S
H232 C245 0.929 . S
H233 C243 0.929 . S
H234 C238 0.929 . S
H235 C244 0.929 . S
C236 H230 0.930 . S
C236 C237 1.367 . S
C236 C244 1.378 . S
C237 C236 1.367 . S
C237 C245 1.433 . S
C238 H234 0.929 . S
C238 C240 1.378 . S
C238 C242 1.350 . S
C239 C242 1.463 . S
C239 C244 1.350 . S
C239 N247 1.427 . S
C240 H231 0.930 . S
C240 C238 1.378 . S
C240 C241 1.367 . S
C241 C240 1.367 . S
C241 C243 1.433 . S
C242 C238 1.350 . S
C242 C239 1.463 . S
C242 N246 1.427 . S
C243 H233 0.929 . S
C243 C241 1.433 . S
C243 N246 1.384 . S
C244 H235 0.929 . S
C244 C236 1.378 . S
C244 C239 1.350 . S
C245 H232 0.929 . S
C245 C237 1.433 . S
C245 N247 1.384 . S
N246 C242 1.427 . S
N246 C243 1.384 . S
N247 C239 1.427 . S
N247 C245 1.384 . S
H248 C254 0.930 . S
H249 C258 0.930 . S
H250 C263 0.929 . S
H251 C261 0.929 . S
H252 C256 0.929 . S
H253 C262 0.929 . S
C254 H248 0.930 . S
C254 C255 1.367 . S
C254 C262 1.378 . S
C255 C254 1.367 . S
C255 C263 1.433 . S
C256 H252 0.929 . S
C256 C258 1.378 . S
C256 C260 1.350 . S
C257 C260 1.463 . S
C257 C262 1.350 . S
C257 N265 1.427 . S
C258 H249 0.930 . S
C258 C256 1.378 . S
C258 C259 1.367 . S
C259 C258 1.367 . S
C259 C261 1.433 . S
C260 C256 1.350 . S
C260 C257 1.463 . S
C260 N264 1.427 . S
C261 H251 0.929 . S
C261 C259 1.433 . S
C261 N264 1.384 . S
C262 H253 0.929 . S
C262 C254 1.378 . S
C262 C257 1.350 . S
C263 H250 0.929 . S
C263 C255 1.433 . S
C263 N265 1.384 . S
N264 C260 1.427 . S
N264 C261 1.384 . S
N265 C257 1.427 . S
N265 C263 1.384 . S
H266 C272 0.930 . S
H267 C276 0.930 . S
H268 C281 0.929 . S
H269 C279 0.929 . S
H270 C274 0.929 . S
H271 C280 0.929 . S
C272 H266 0.930 . S
C272 C273 1.367 . S
C272 C280 1.378 . S
C273 C272 1.367 . S
C273 C281 1.433 . S
C274 H270 0.929 . S
C274 C276 1.378 . S
C274 C278 1.350 . S
C275 C278 1.463 . S
C275 C280 1.350 . S
C275 N283 1.427 . S
C276 H267 0.930 . S
C276 C274 1.378 . S
C276 C277 1.367 . S
C277 C276 1.367 . S
C277 C279 1.433 . S
C278 C274 1.350 . S
C278 C275 1.463 . S
C278 N282 1.427 . S
C279 H269 0.929 . S
C279 C277 1.433 . S
C279 N282 1.384 . S
C280 H271 0.929 . S
C280 C272 1.378 . S
C280 C275 1.350 . S
C281 H268 0.929 . S
C281 C273 1.433 . S
C281 N283 1.384 . S
N282 C278 1.427 . S
N282 C279 1.384 . S
N283 C275 1.427 . S
N283 C281 1.384 . S
H284 C290 0.930 . S
H285 C294 0.930 . S
H286 C299 0.929 . S
H287 C297 0.929 1_545 S
H288 C292 0.929 . S
H289 C298 0.929 . S
C290 H284 0.930 . S
C290 C291 1.367 . S
C290 C298 1.378 . S
C291 C290 1.367 . S
C291 C299 1.433 . S
C292 H288 0.929 . S
C292 C294 1.378 . S
C292 C296 1.350 . S
C293 C296 1.463 . S
C293 C298 1.350 . S
C293 N301 1.427 . S
C294 H285 0.930 . S
C294 C292 1.378 . S
C294 C295 1.367 . S
C295 C294 1.367 . S
C295 C297 1.433 . S
C296 C292 1.350 . S
C296 C293 1.463 . S
C296 N300 1.427 . S
C297 H287 0.929 1_565 S
C297 C295 1.433 . S
C297 N300 1.384 . S
C298 H289 0.929 . S
C298 C290 1.378 . S
C298 C293 1.350 . S
C299 H286 0.929 . S
C299 C291 1.433 . S
C299 N301 1.384 . S
N300 C296 1.427 . S
N300 C297 1.384 . S
N301 C293 1.427 . S
N301 C299 1.384 . S
C97 C59 1.269 . S
C93 C43 1.449 . S
C111 C10 1.480 . S
C115 C83 1.301 . S
C129 C21 1.596 . S
C133 C62 1.389 . S
C147 C32 1.589 . S
C151 C80 1.397 . S
C169 C60 1.491 . S
C165 C5 1.510 . S
C187 C82 1.542 . S
C183 C15 1.606 . S
C201 C27 1.590 . S
C205 C61 1.547 . S
C219 C38 1.513 . S
C223 C81 1.455 . S
C241 C79 1.477 . S
C237 C16 1.517 . S
C259 C58 1.467 . S
C255 C26 1.532 . S
C277 C78 1.423 . S
C273 C37 1.450 . S
C291 C4 1.454 1_556 S
C295 C57 1.407 . S
