# Generated by pormake.
# Topology tsx, (6,3)-cn, num edge types: 1
# Building blocks:
#     Node 0, Type 0, BuildingBlock: FUNLAD_clean_sbu_0, # of connection points: 6
#     Node 1, Type 0, BuildingBlock: FUNLAD_clean_sbu_0, # of connection points: 6
#     Node 2, Type 1, BuildingBlock: INOVEN_clean_linker_0, # of connection points: 3
#     Node 3, Type 1, BuildingBlock: INOVEN_clean_linker_0, # of connection points: 3
#     Node 4, Type 1, BuildingBlock: INOVEN_clean_linker_0, # of connection points: 3
#     Node 5, Type 1, BuildingBlock: INOVEN_clean_linker_0, # of connection points: 3
#     Edge 6, Type (0, 1), BuildingBlock: XIVTED_clean_linker_0, # of connection points: 2
#     Edge 7, Type (0, 1), BuildingBlock: XIVTED_clean_linker_0, # of connection points: 2
#     Edge 8, Type (0, 1), BuildingBlock: XIVTED_clean_linker_0, # of connection points: 2
#     Edge 9, Type (0, 1), BuildingBlock: XIVTED_clean_linker_0, # of connection points: 2
#     Edge 10, Type (0, 1), BuildingBlock: XIVTED_clean_linker_0, # of connection points: 2
#     Edge 11, Type (0, 1), BuildingBlock: XIVTED_clean_linker_0, # of connection points: 2
#     Edge 12, Type (0, 1), BuildingBlock: XIVTED_clean_linker_0, # of connection points: 2
#     Edge 13, Type (0, 1), BuildingBlock: XIVTED_clean_linker_0, # of connection points: 2
#     Edge 14, Type (0, 1), BuildingBlock: XIVTED_clean_linker_0, # of connection points: 2
#     Edge 15, Type (0, 1), BuildingBlock: XIVTED_clean_linker_0, # of connection points: 2
#     Edge 16, Type (0, 1), BuildingBlock: XIVTED_clean_linker_0, # of connection points: 2
#     Edge 17, Type (0, 1), BuildingBlock: XIVTED_clean_linker_0, # of connection points: 2
# Relax obj value: 0.103
# Max RMSD: 0.111
# Mean RMSD: 0.105
data_MOF--net-tsx--node1-FUNLAD_clean_sbu_0--node2-INOVEN_clean_linker_0--edge1-XIVTED_clean_linker_0
_symmetry_space_group_name_H-M    P1
_symmetry_Int_Tables_number       1
_symmetry_cell_setting            triclinic
loop_
_symmetry_equiv_pos_as_xyz
'x, y, z'
_cell_length_a     19.531206
_cell_length_b     21.528437
_cell_length_c     39.531149
_cell_angle_alpha  91.537846
_cell_angle_beta   101.51957
_cell_angle_gamma 89.647284
loop_
_atom_site_label
_atom_site_type_symbol
_atom_site_fract_x
_atom_site_fract_y
_atom_site_fract_z
_atom_type_partial_charge
C0 C 0.98638 0.89686 0.02181 0.0
N1 N 0.12426 0.00473 0.09477 0.0
C2 C 0.0697 0.01954 0.11013 0.0
C3 C 0.08114 0.03411 0.14533 0.0
C4 C 0.14925 0.0325 0.16507 0.0
C5 C 0.20465 0.0162 0.1488 0.0
C6 C 0.19096 0.00293 0.11328 0.0
Zn7 Zn 0.10344 0.98802 0.04275 0.0
C8 C 0.1849 0.88344 0.02106 0.0
N9 N 0.05514 0.95583 0.93356 0.0
C10 C 0.98819 0.96102 0.91583 0.0
C11 C 0.10877 0.94565 0.91681 0.0
C12 C 0.09627 0.94185 0.88078 0.0
C13 C 0.028 0.94958 0.86167 0.0
C14 C 0.97346 0.95844 0.87979 0.0
Zn15 Zn 0.07655 0.97004 0.98594 0.0
O16 O 0.02312 0.92572 0.04755 0.0
C17 C 0.99407 0.07425 0.00703 0.0
O18 O -0.00233 0.90554 0.99169 0.0
H19 H 0.16166 0.94183 0.93137 0.0
H20 H 0.01704 0.02014 0.09505 0.0
H21 H 0.94626 0.96905 0.92962 0.0
O22 O 0.03032 0.06293 0.03662 0.0
O23 O 0.00322 0.04189 0.98103 0.0
H24 H 0.23359 0.99138 0.10049 0.0
O25 O 0.15618 0.03608 0.98108 0.0
O26 O 0.18267 0.04915 0.03746 0.0
O27 O 0.1495 0.89744 0.99171 0.0
O28 O 0.17682 0.91392 0.04796 0.0
C29 C 0.19354 0.06171 0.00782 0.0
H30 H 0.03694 0.04528 0.15715 0.0
H31 H 0.25785 0.01434 0.16333 0.0
H32 H 0.1399 0.93364 0.86812 0.0
H33 H 0.92011 0.96554 0.86638 0.0
C34 C 0.33981 0.42485 0.48792 0.0
N35 N 0.47111 0.52441 0.56736 0.0
C36 C 0.42134 0.52693 0.58703 0.0
C37 C 0.44071 0.52908 0.623 0.0
C38 C 0.51178 0.52755 0.63861 0.0
C39 C 0.56194 0.5247 0.61777 0.0
C40 C 0.54037 0.52375 0.582 0.0
Zn41 Zn 0.44372 0.5241 0.51499 0.0
C42 C 0.53376 0.4389 0.48225 0.0
N43 N 0.38927 0.52556 0.40519 0.0
C44 C 0.32299 0.52443 0.38607 0.0
C45 C 0.44543 0.53204 0.39008 0.0
C46 C 0.4364 0.53949 0.3547 0.0
C47 C 0.36887 0.54032 0.33434 0.0
C48 C 0.31151 0.53139 0.35019 0.0
Zn49 Zn 0.41218 0.52344 0.45784 0.0
O50 O 0.37605 0.44959 0.51516 0.0
C51 C 0.32199 0.60792 0.49059 0.0
O52 O 0.34257 0.44682 0.4586 0.0
H53 H 0.49768 0.53268 0.40559 0.0
H54 H 0.36662 0.5273 0.57483 0.0
H55 H 0.2791 0.51937 0.39868 0.0
O56 O 0.3623 0.58912 0.51772 0.0
O57 O 0.33006 0.58708 0.46122 0.0
H58 H 0.5791 0.52274 0.56591 0.0
O59 O 0.48224 0.60103 0.45834 0.0
O60 O 0.51068 0.59854 0.51476 0.0
O61 O 0.49438 0.45892 0.45519 0.0
O62 O 0.52492 0.45905 0.51155 0.0
C63 C 0.51626 0.62344 0.48678 0.0
H64 H 0.4007 0.5307 0.63844 0.0
H65 H 0.61725 0.52385 0.62905 0.0
H66 H 0.48211 0.54477 0.34338 0.0
H67 H 0.25864 0.5315 0.33521 0.0
H68 H 0.96806 0.01248 0.47352 0.0
H69 H 0.14198 0.97504 0.42492 0.0
H70 H -0.00278 0.12169 0.3883 0.0
N71 N 0.92173 0.1141 0.43506 0.0
N72 N 0.8915 0.11471 0.46004 0.0
C73 C -0.00118 0.0245 0.4548 0.0
C74 C 0.05803 0.989 0.45198 0.0
C75 C 0.97897 0.07445 0.4326 0.0
C76 C 0.01596 0.08566 0.40647 0.0
C77 C 0.07433 0.04948 0.40287 0.0
C78 C 0.09655 0.00305 0.42685 0.0
H79 H 0.87406 0.0113 0.50396 0.0
H80 H 0.83723 0.92773 0.59612 0.0
H81 H 0.00806 0.05503 0.60191 0.0
N82 N 0.98752 0.07501 0.53404 0.0
N83 N 0.05004 0.08559 0.54711 0.0
C84 C 0.88834 0.00543 0.53159 0.0
C85 C 0.84839 0.96661 0.54798 0.0
C86 C 0.94688 0.03638 0.55089 0.0
C87 C 0.96432 0.02934 0.58692 0.0
C88 C 0.92438 0.99107 0.60372 0.0
C89 C 0.86699 0.95943 0.58383 0.0
H90 H 0.63715 0.45762 0.99198 0.0
H91 H 0.70243 0.41673 0.8963 0.0
H92 H 0.56125 0.5685 0.90374 0.0
N93 N 0.55676 0.5536 0.96972 0.0
N94 N 0.54761 0.61045 0.96568 0.0
C95 C 0.63698 0.46851 0.96537 0.0
C96 C 0.67404 0.43114 0.94569 0.0
C97 C 0.59815 0.51913 0.95042 0.0
C98 C 0.59519 0.53171 0.91549 0.0
C99 C 0.63114 0.494 0.8953 0.0
C100 C 0.67239 0.44516 0.9111 0.0
H101 H 0.53375 0.46471 0.01853 0.0
H102 H 0.39495 0.43132 0.08751 0.0
H103 H 0.51323 0.60108 0.09737 0.0
N104 N 0.58444 0.57224 0.04754 0.0
N105 N 0.6049 0.62185 0.06324 0.0
C106 C 0.50981 0.48039 0.03969 0.0
C107 C 0.45951 0.44341 0.0502 0.0
C108 C 0.53036 0.53688 0.05707 0.0
C109 C 0.49878 0.55666 0.08457 0.0
C110 C 0.45036 0.51883 0.0963 0.0
C111 C 0.4307 0.46231 0.07858 0.0
H112 H 0.1941 0.14423 0.95611 0.0
H113 H 0.51406 0.33178 0.07085 0.0
H114 H 0.31339 0.08595 0.05401 0.0
H115 H 0.35724 0.41744 0.99394 0.0
H116 H 0.46224 0.22993 0.05261 0.0
H117 H 0.27371 0.23311 0.95831 0.0
C118 C 0.23797 0.14937 0.9776 0.0
C119 C 0.24689 0.10842 0.00516 0.0
C120 C 0.44001 0.27078 0.03916 0.0
C121 C 0.33769 0.20892 0.00771 0.0
C122 C 0.46985 0.32862 0.0494 0.0
C123 C 0.43961 0.38236 0.03373 0.0
C124 C 0.37906 0.26701 0.01337 0.0
C125 C 0.3819 0.37656 0.0064 0.0
C126 C 0.28304 0.20008 0.97892 0.0
C127 C 0.30423 0.11707 0.03248 0.0
N128 N 0.35272 0.31977 -0.0027 0.0
N129 N 0.34714 0.16654 0.03317 0.0
H130 H 0.17005 0.77075 0.98851 0.0
H131 H 0.55947 0.72952 0.98557 0.0
H132 H 0.31953 0.88652 0.05668 0.0
H133 H 0.42969 0.56777 0.98305 0.0
H134 H 0.47291 0.79129 0.00948 0.0
H135 H 0.26342 0.69654 0.98373 0.0
C136 C 0.22246 0.77975 0.00295 0.0
C137 C 0.23766 0.83437 0.02299 0.0
C138 C 0.46422 0.742 0.00432 0.0
C139 C 0.34432 0.75137 0.01683 0.0
C140 C 0.51302 0.7072 0.99051 0.0
C141 C 0.50121 0.64411 0.98252 0.0
C142 C 0.40231 0.71353 0.00882 0.0
C143 C 0.44053 0.61648 0.98915 0.0
C144 C 0.27548 0.73752 0.00032 0.0
C145 C 0.30614 0.84449 0.04115 0.0
N146 N 0.3925 0.65173 0.00136 0.0
N147 N 0.35766 0.80395 0.03698 0.0
H148 H 0.93152 0.88809 0.07964 0.0
H149 H 0.68093 0.6009 0.0127 0.0
H150 H 0.91318 0.81002 0.97647 0.0
H151 H 0.65197 0.72631 0.09543 0.0
H152 H 0.77413 0.66859 0.00115 0.0
H153 H 0.83809 0.81989 0.08861 0.0
C154 C 0.90796 0.85643 0.05886 0.0
C155 C 0.93016 0.85482 0.02722 0.0
C156 C 0.74709 0.68135 0.02171 0.0
C157 C 0.82301 0.77629 0.03743 0.0
C158 C 0.69398 0.64287 0.02826 0.0
C159 C 0.65885 0.65876 0.05502 0.0
C160 C 0.76563 0.73505 0.04246 0.0
C161 C 0.67819 0.71297 0.07466 0.0
C162 C 0.85436 0.81768 0.06397 0.0
C163 C 0.89744 0.8129 0.00122 0.0
N164 N 0.73051 0.74907 0.06817 0.0
N165 N 0.84559 0.77498 0.00694 0.0
H166 H 0.977 0.16979 0.05229 0.0
H167 H 0.66046 0.31499 0.91733 0.0
H168 H 0.89015 0.09134 0.95127 0.0
H169 H 0.77076 0.41911 0.0061 0.0
H170 H 0.73129 0.22424 0.93621 0.0
H171 H 0.89053 0.25417 0.04177 0.0
C172 C 0.93955 0.17012 0.02806 0.0
C173 C 0.94114 0.12399 0.00244 0.0
C174 C 0.74 0.26672 0.95176 0.0
C175 C 0.84236 0.21929 0.99052 0.0
C176 C 0.69959 0.31846 0.94097 0.0
C177 C 0.71098 0.37467 0.95987 0.0
C178 C 0.79264 0.27116 0.98161 0.0
C179 C 0.76101 0.37651 0.99074 0.0
C180 C 0.8904 0.21817 0.0221 0.0
C181 C 0.89142 0.12634 0.97157 0.0
N182 N 0.80091 0.32551 0.00051 0.0
N183 N 0.84427 0.1732 0.9665 0.0
H184 H 0.59115 0.6665 0.43981 0.0
H185 H 0.7166 0.96573 0.55997 0.0
H186 H 0.5335 0.71153 0.5374 0.0
H187 H 0.84391 0.8861 0.49252 0.0
H188 H 0.62559 0.88964 0.53756 0.0
H189 H 0.66398 0.76135 0.44666 0.0
C190 C 0.59334 0.6966 0.4624 0.0
C191 C 0.55732 0.68098 0.48836 0.0
C192 C 0.67292 0.88936 0.5272 0.0
C193 C 0.63792 0.78907 0.49578 0.0
C194 C 0.72459 0.93289 0.53985 0.0
C195 C 0.78798 0.93128 0.52842 0.0
C196 C 0.68488 0.8435 0.50313 0.0
C197 C 0.79567 0.88839 0.50205 0.0
C198 C 0.63467 0.7504 0.46627 0.0
C199 C 0.56141 0.72135 0.51707 0.0
N200 N 0.74503 0.84518 0.49062 0.0
N201 N 0.60084 0.77341 0.51997 0.0
H202 H 0.61439 0.3736 0.53443 0.0
H203 H 0.82365 0.18848 0.40904 0.0
H204 H 0.5747 0.39407 0.4239 0.0
H205 H 0.83491 0.13979 0.51506 0.0
H206 H 0.7357 0.26686 0.4148 0.0
H207 H 0.69948 0.29178 0.52889 0.0
C208 C 0.62373 0.36111 0.50902 0.0
C209 C 0.58733 0.39087 0.47958 0.0
C210 C 0.75699 0.23893 0.43682 0.0
C211 C 0.68459 0.29714 0.47309 0.0
C212 C 0.80728 0.19411 0.43354 0.0
C213 C 0.8366 0.15769 0.46179 0.0
C214 C 0.73615 0.24801 0.46861 0.0
C215 C 0.81323 0.16693 0.49279 0.0
C216 C 0.67208 0.31417 0.50587 0.0
C217 C 0.60143 0.37248 0.44731 0.0
N218 N 0.76468 0.21151 0.49552 0.0
N219 N 0.64898 0.32701 0.44496 0.0
H220 H 0.22209 0.37955 0.44352 0.0
H221 H 0.18652 0.09656 0.56644 0.0
H222 H 0.36278 0.34364 0.53995 0.0
H223 H 0.00932 0.16837 0.49552 0.0
H224 H 0.2611 0.17342 0.54701 0.0
H225 H 0.15142 0.28936 0.45304 0.0
C226 C 0.23832 0.35247 0.46645 0.0
C227 C 0.2978 0.36937 0.49119 0.0
C228 C 0.20601 0.17197 0.53534 0.0
C229 C 0.21861 0.2666 0.50185 0.0
C230 C 0.16379 0.12812 0.54636 0.0
C231 C 0.09233 0.12621 0.53248 0.0
C232 C 0.17625 0.21457 0.51027 0.0
C233 C 0.06454 0.16791 0.50651 0.0
C234 C 0.19806 0.30133 0.47188 0.0
C235 C 0.31678 0.33282 0.52043 0.0
N236 N 0.10664 0.21088 0.49633 0.0
N237 N 0.27742 0.28331 0.5249 0.0
H238 H 0.3229 0.69393 0.54289 0.0
H239 H 0.99336 0.87776 0.43934 0.0
H240 H 0.20337 0.63472 0.4435 0.0
H241 H 0.16779 0.96938 0.5052 0.0
H242 H 0.0473 0.77686 0.45578 0.0
H243 H 0.24463 0.78363 0.54274 0.0
C244 C 0.2794 0.69911 0.52137 0.0
C245 C 0.26997 0.65723 0.49296 0.0
C246 C 0.07266 0.819 0.46746 0.0
C247 C 0.18005 0.75888 0.49298 0.0
C248 C 0.0415 0.87637 0.45849 0.0
C249 C 0.07623 0.93149 0.47117 0.0
C250 C 0.13869 0.81706 0.48939 0.0
C251 C 0.13938 0.9276 0.49518 0.0
C252 C 0.235 0.75031 0.5213 0.0
C253 C 0.21293 0.66629 0.46572 0.0
N254 N 0.16914 0.87123 0.50327 0.0
N255 N 0.17024 0.71625 0.46634 0.0
H256 H 0.22245 0.96177 0.21626 0.0
H257 H 0.09352 0.15497 0.36735 0.0
H258 H 0.10145 0.13036 0.19922 0.0
H259 H 0.12841 0.9564 0.36716 0.0
H260 H 0.13011 0.15884 0.31168 0.0
H261 H 0.22405 0.97351 0.27827 0.0
C262 C 0.19763 0.00197 0.22572 0.0
C263 C 0.16091 0.04472 0.20273 0.0
C264 C 0.13079 0.11478 0.32433 0.0
C265 C 0.16241 0.05831 0.2732 0.0
C266 C 0.10945 0.11234 0.35597 0.0
C267 C 0.1068 0.05514 0.37203 0.0
C268 C 0.15057 0.05985 0.30893 0.0
C269 C 0.13013 0.0018 0.35631 0.0
C270 C 0.19823 0.00846 0.26097 0.0
C271 C 0.12932 0.0959 0.21619 0.0
N272 N 0.15051 0.00546 0.3256 0.0
N273 N 0.13023 0.10105 0.25059 0.0
H274 H 0.91211 0.90724 0.81526 0.0
H275 H 0.05458 0.98733 0.64639 0.0
H276 H 0.1119 0.99586 0.81996 0.0
H277 H 0.83445 0.9786 0.64846 0.0
H278 H 0.08129 0.97526 0.70899 0.0
H279 H 0.88767 0.91669 0.7526 0.0
C280 C 0.95087 0.9288 0.80328 0.0
C281 C 0.0141 0.95112 0.82323 0.0
C282 C 0.02721 0.97597 0.6956 0.0
C283 C 0.98678 0.96068 0.75126 0.0
C284 C 0.0118 0.98327 0.65988 0.0
C285 C 0.94203 0.98398 0.64188 0.0
C286 C 0.97261 0.96845 0.71343 0.0
C287 C 0.88903 0.97713 0.66092 0.0
C288 C 0.93689 0.93388 0.76745 0.0
C289 C 0.06288 0.9771 0.80585 0.0
N290 N 0.90543 0.96939 0.69557 0.0
N291 N 0.04822 0.9811 0.7709 0.0
H292 H 0.47403 0.60822 0.68627 0.0
H293 H 0.62568 0.4026 0.84511 0.0
H294 H 0.59909 0.44536 0.6766 0.0
H295 H 0.60994 0.60196 0.85819 0.0
H296 H 0.60347 0.41428 0.78302 0.0
H297 H 0.50952 0.60387 0.74947 0.0
C298 C 0.50896 0.57168 0.69755 0.0
C299 C 0.53371 0.52696 0.67649 0.0
C300 C 0.60554 0.45547 0.79955 0.0
C301 C 0.57359 0.52144 0.74802 0.0
C302 C 0.61887 0.44905 0.83515 0.0
C303 C 0.62057 0.50149 0.85728 0.0
C304 C 0.59197 0.51448 0.78572 0.0
C305 C 0.60835 0.56009 0.8423 0.0
C306 C 0.52949 0.5695 0.7334 0.0
C307 C 0.57921 0.48076 0.69209 0.0
N308 N 0.59387 0.56498 0.80736 0.0
N309 N 0.59712 0.47875 0.727 0.0
H310 H 0.28781 0.47501 0.2802 0.0
H311 H 0.52236 0.58104 0.15394 0.0
H312 H 0.43147 0.62885 0.30334 0.0
H313 H 0.32302 0.49322 0.11386 0.0
H314 H 0.48707 0.5994 0.20855 0.0
H315 H 0.29461 0.48107 0.21891 0.0
C316 C 0.31943 0.51089 0.27226 0.0
C317 C 0.3604 0.55059 0.29685 0.0
C318 C 0.45053 0.57687 0.18768 0.0
C319 C 0.36916 0.55716 0.22742 0.0
C320 C 0.47046 0.56668 0.15615 0.0
C321 C 0.42581 0.53536 0.12882 0.0
C322 C 0.38612 0.55431 0.19257 0.0
C323 C 0.36004 0.51631 0.13426 0.0
C324 C 0.32346 0.51422 0.23738 0.0
C325 C 0.40052 0.59628 0.28528 0.0
N326 N 0.34259 0.52519 0.1657 0.0
N327 N 0.40482 0.59763 0.25154 0.0
loop_
_geom_bond_atom_site_label_1
_geom_bond_atom_site_label_2
_geom_bond_distance
_geom_bond_site_symmetry_2
_ccdc_geom_bond_type
C0 O16 1.251 . S
C0 O18 1.254 1_554 S
N1 C2 1.333 1_445 S
N1 C6 1.307 . S
N1 Zn7 2.020 . S
C2 N1 1.333 1_665 S
C2 C3 1.379 . S
C2 H20 0.952 . S
C3 C2 1.379 . S
C3 C4 1.390 1_665 S
C3 H30 0.949 . S
C4 C3 1.390 1_445 S
C4 C5 1.357 . S
C5 C4 1.357 . S
C5 C6 1.370 . S
C5 H31 0.950 . S
C6 N1 1.307 . S
C6 C5 1.370 . S
C6 H24 0.948 . S
Zn7 N1 2.020 . S
Zn7 O16 2.039 1_445 S
Zn7 O22 2.034 1_455 S
Zn7 O26 2.025 . S
Zn7 O28 2.024 1_545 S
C8 O27 1.246 1_554 S
C8 O28 1.249 . S
N9 C10 1.319 1_545 S
N9 C11 1.318 1_655 S
N9 Zn15 2.022 1_655 S
C10 N9 1.319 1_565 S
C10 C14 1.370 . S
C10 H21 0.948 . S
C11 N9 1.318 1_455 S
C11 C12 1.379 . S
C11 H19 0.952 . S
C12 C11 1.379 . S
C12 C13 1.390 1_455 S
C12 H32 0.949 . S
C13 C12 1.390 1_655 S
C13 C14 1.357 1_545 S
C14 C10 1.370 . S
C14 C13 1.357 1_565 S
C14 H33 0.950 . S
Zn15 N9 2.022 1_455 S
Zn15 O18 2.025 1_445 S
Zn15 O23 2.024 1_455 S
Zn15 O25 2.039 . S
Zn15 O27 2.034 1_545 S
O16 C0 1.251 . S
O16 Zn7 2.039 1_665 S
C17 O22 1.246 . S
C17 O23 1.249 1_554 S
O18 C0 1.254 1_556 S
O18 Zn15 2.025 1_665 S
H19 C11 0.952 . S
H20 C2 0.952 . S
H21 C10 0.948 . S
O22 Zn7 2.034 1_655 S
O22 C17 1.246 . S
O23 Zn15 2.024 1_655 S
O23 C17 1.249 1_556 S
H24 C6 0.948 . S
O25 Zn15 2.039 . S
O25 C29 1.251 1_556 S
O26 Zn7 2.025 . S
O26 C29 1.254 . S
O27 C8 1.246 1_556 S
O27 Zn15 2.034 1_565 S
O28 Zn7 2.024 1_565 S
O28 C8 1.249 . S
C29 O25 1.251 1_554 S
C29 O26 1.254 . S
H30 C3 0.949 . S
H31 C5 0.950 . S
H32 C12 0.949 . S
H33 C14 0.950 . S
C34 O50 1.251 . S
C34 O52 1.254 . S
N35 C36 1.333 . S
N35 C40 1.307 . S
N35 Zn41 2.020 . S
C36 N35 1.333 . S
C36 C37 1.379 . S
C36 H54 0.952 . S
C37 C36 1.379 . S
C37 C38 1.390 . S
C37 H64 0.949 . S
C38 C37 1.390 . S
C38 C39 1.357 . S
C39 C38 1.357 . S
C39 C40 1.370 . S
C39 H65 0.950 . S
C40 N35 1.307 . S
C40 C39 1.370 . S
C40 H58 0.948 . S
Zn41 N35 2.020 . S
Zn41 O50 2.039 . S
Zn41 O56 2.034 . S
Zn41 O60 2.025 . S
Zn41 O62 2.024 . S
C42 O61 1.246 . S
C42 O62 1.249 . S
N43 C44 1.307 . S
N43 C45 1.333 . S
N43 Zn49 2.020 . S
C44 N43 1.307 . S
C44 C48 1.370 . S
C44 H55 0.948 . S
C45 N43 1.333 . S
C45 C46 1.379 . S
C45 H53 0.952 . S
C46 C45 1.379 . S
C46 C47 1.390 . S
C46 H66 0.949 . S
C47 C46 1.390 . S
C47 C48 1.357 . S
C48 C44 1.370 . S
C48 C47 1.357 . S
C48 H67 0.950 . S
Zn49 N43 2.020 . S
Zn49 O52 2.025 . S
Zn49 O57 2.024 . S
Zn49 O59 2.039 . S
Zn49 O61 2.034 . S
O50 C34 1.251 . S
O50 Zn41 2.039 . S
C51 O56 1.246 . S
C51 O57 1.249 . S
O52 C34 1.254 . S
O52 Zn49 2.025 . S
H53 C45 0.952 . S
H54 C36 0.952 . S
H55 C44 0.948 . S
O56 Zn41 2.034 . S
O56 C51 1.246 . S
O57 Zn49 2.024 . S
O57 C51 1.249 . S
H58 C40 0.948 . S
O59 Zn49 2.039 . S
O59 C63 1.251 . S
O60 Zn41 2.025 . S
O60 C63 1.254 . S
O61 C42 1.246 . S
O61 Zn49 2.034 . S
O62 Zn41 2.024 . S
O62 C42 1.249 . S
C63 O59 1.251 . S
C63 O60 1.254 . S
H64 C37 0.949 . S
H65 C39 0.950 . S
H66 C46 0.949 . S
H67 C48 0.950 . S
H68 C73 0.929 . S
H69 C78 0.931 . S
H70 C76 0.930 1_655 S
N71 N72 1.234 . S
N71 C75 1.453 1_655 S
N72 N71 1.234 . S
C73 H68 0.929 . S
C73 C74 1.373 . S
C73 C75 1.368 1_565 S
C74 C73 1.373 . S
C74 C78 1.397 . S
C75 N71 1.453 1_455 S
C75 C73 1.368 1_545 S
C75 C76 1.373 . S
C76 H70 0.930 1_455 S
C76 C75 1.373 . S
C76 C77 1.371 . S
C77 C76 1.371 . S
C77 C78 1.383 1_545 S
C78 H69 0.931 . S
C78 C74 1.397 . S
C78 C77 1.383 1_565 S
H79 C84 0.929 . S
H80 C89 0.931 . S
H81 C87 0.930 . S
N82 N83 1.234 . S
N82 C86 1.453 . S
N83 N82 1.234 . S
C84 H79 0.929 . S
C84 C85 1.373 . S
C84 C86 1.368 1_665 S
C85 C84 1.373 . S
C85 C89 1.397 . S
C86 N82 1.453 . S
C86 C84 1.368 1_445 S
C86 C87 1.373 . S
C87 H81 0.930 . S
C87 C86 1.373 . S
C87 C88 1.371 1_455 S
C88 C87 1.371 1_655 S
C88 C89 1.383 1_545 S
C89 H80 0.931 . S
C89 C85 1.397 . S
C89 C88 1.383 1_565 S
H90 C95 0.929 1_554 S
H91 C100 0.931 . S
H92 C98 0.930 . S
N93 N94 1.234 . S
N93 C97 1.453 . S
N94 N93 1.234 . S
C95 H90 0.929 1_556 S
C95 C96 1.373 . S
C95 C97 1.368 . S
C96 C95 1.373 . S
C96 C100 1.397 . S
C97 N93 1.453 . S
C97 C95 1.368 . S
C97 C98 1.373 . S
C98 H92 0.930 . S
C98 C97 1.373 . S
C98 C99 1.371 . S
C99 C98 1.371 . S
C99 C100 1.383 . S
C100 H91 0.931 . S
C100 C96 1.397 . S
C100 C99 1.383 . S
H101 C106 0.929 1_556 S
H102 C111 0.931 . S
H103 C109 0.930 . S
N104 N105 1.234 . S
N104 C108 1.453 . S
N105 N104 1.234 . S
C106 H101 0.929 1_554 S
C106 C107 1.373 . S
C106 C108 1.368 . S
C107 C106 1.373 . S
C107 C111 1.397 . S
C108 N104 1.453 . S
C108 C106 1.368 . S
C108 C109 1.373 . S
C109 H103 0.930 . S
C109 C108 1.373 . S
C109 C110 1.371 . S
C110 C109 1.371 . S
C110 C111 1.383 . S
C111 H102 0.931 . S
C111 C107 1.397 . S
C111 C110 1.383 . S
H112 C118 0.930 . S
H113 C122 0.930 . S
H114 C127 0.929 . S
H115 C125 0.929 . S
H116 C120 0.929 . S
H117 C126 0.929 . S
C118 H112 0.930 . S
C118 C119 1.367 . S
C118 C126 1.378 . S
C119 C118 1.367 . S
C119 C127 1.433 . S
C120 H116 0.929 . S
C120 C122 1.378 . S
C120 C124 1.350 . S
C121 C124 1.463 . S
C121 C126 1.350 . S
C121 N129 1.427 . S
C122 H113 0.930 . S
C122 C120 1.378 . S
C122 C123 1.367 . S
C123 C122 1.367 . S
C123 C125 1.433 . S
C124 C120 1.350 . S
C124 C121 1.463 . S
C124 N128 1.427 . S
C125 H115 0.929 . S
C125 C123 1.433 . S
C125 N128 1.384 . S
C126 H117 0.929 . S
C126 C118 1.378 . S
C126 C121 1.350 . S
C127 H114 0.929 . S
C127 C119 1.433 . S
C127 N129 1.384 . S
N128 C124 1.427 . S
N128 C125 1.384 . S
N129 C121 1.427 . S
N129 C127 1.384 . S
H130 C136 0.930 . S
H131 C140 0.930 . S
H132 C145 0.929 . S
H133 C143 0.929 . S
H134 C138 0.929 . S
H135 C144 0.929 . S
C136 H130 0.930 . S
C136 C137 1.367 1_556 S
C136 C144 1.378 . S
C137 C136 1.367 1_554 S
C137 C145 1.433 . S
C138 H134 0.929 . S
C138 C140 1.378 . S
C138 C142 1.350 . S
C139 C142 1.463 . S
C139 C144 1.350 1_554 S
C139 N147 1.427 . S
C140 H131 0.930 . S
C140 C138 1.378 . S
C140 C141 1.352 1_554 S
C141 C140 1.352 1_556 S
C141 C143 1.445 . S
C142 C138 1.350 . S
C142 C139 1.463 . S
C142 N146 1.427 1_554 S
C143 H133 0.929 . S
C143 C141 1.445 . S
C143 N146 1.384 . S
C144 H135 0.929 . S
C144 C136 1.378 . S
C144 C139 1.350 1_556 S
C145 H132 0.929 . S
C145 C137 1.433 . S
C145 N147 1.384 . S
N146 C142 1.427 1_556 S
N146 C143 1.384 . S
N147 C139 1.427 . S
N147 C145 1.384 . S
H148 C154 0.930 . S
H149 C158 0.930 . S
H150 C163 0.929 . S
H151 C161 0.929 . S
H152 C156 0.929 . S
H153 C162 0.929 . S
C154 H148 0.930 . S
C154 C155 1.367 . S
C154 C162 1.378 . S
C155 C154 1.367 . S
C155 C163 1.433 1_554 S
C156 H152 0.929 . S
C156 C158 1.378 . S
C156 C160 1.350 1_556 S
C157 C160 1.463 . S
C157 C162 1.350 . S
C157 N165 1.427 1_554 S
C158 H149 0.930 . S
C158 C156 1.378 . S
C158 C159 1.367 1_556 S
C159 C158 1.367 1_554 S
C159 C161 1.433 . S
C160 C156 1.350 1_554 S
C160 C157 1.463 . S
C160 N164 1.427 . S
C161 H151 0.929 . S
C161 C159 1.433 . S
C161 N164 1.384 . S
C162 H153 0.929 . S
C162 C154 1.378 . S
C162 C157 1.350 . S
C163 H150 0.929 . S
C163 C155 1.433 1_556 S
C163 N165 1.384 . S
N164 C160 1.427 . S
N164 C161 1.384 . S
N165 C157 1.427 1_556 S
N165 C163 1.384 . S
H166 C172 0.930 . S
H167 C176 0.930 . S
H168 C181 0.929 . S
H169 C179 0.929 . S
H170 C174 0.929 . S
H171 C180 0.929 . S
C172 H166 0.930 . S
C172 C173 1.367 . S
C172 C180 1.378 . S
C173 C172 1.367 . S
C173 C181 1.433 1_554 S
C174 H170 0.929 . S
C174 C176 1.378 . S
C174 C178 1.350 . S
C175 C178 1.463 . S
C175 C180 1.350 1_556 S
C175 N183 1.427 . S
C176 H167 0.930 . S
C176 C174 1.378 . S
C176 C177 1.367 . S
C177 C176 1.367 . S
C177 C179 1.433 1_556 S
C178 C174 1.350 . S
C178 C175 1.463 . S
C178 N182 1.427 1_556 S
C179 H169 0.929 . S
C179 C177 1.433 1_554 S
C179 N182 1.384 . S
C180 H171 0.929 . S
C180 C172 1.378 . S
C180 C175 1.350 1_554 S
C181 H168 0.929 . S
C181 C173 1.433 1_556 S
C181 N183 1.384 . S
N182 C178 1.427 1_554 S
N182 C179 1.384 . S
N183 C175 1.427 . S
N183 C181 1.384 . S
H184 C190 0.930 . S
H185 C194 0.930 . S
H186 C199 0.929 . S
H187 C197 0.929 . S
H188 C192 0.929 . S
H189 C198 0.929 . S
C190 H184 0.930 . S
C190 C191 1.367 . S
C190 C198 1.378 . S
C191 C190 1.367 . S
C191 C199 1.433 . S
C192 H188 0.929 . S
C192 C194 1.378 . S
C192 C196 1.350 . S
C193 C196 1.463 . S
C193 C198 1.350 . S
C193 N201 1.427 . S
C194 H185 0.930 . S
C194 C192 1.378 . S
C194 C195 1.367 . S
C195 C194 1.367 . S
C195 C197 1.433 . S
C196 C192 1.350 . S
C196 C193 1.463 . S
C196 N200 1.427 . S
C197 H187 0.929 . S
C197 C195 1.433 . S
C197 N200 1.384 . S
C198 H189 0.929 . S
C198 C190 1.378 . S
C198 C193 1.350 . S
C199 H186 0.929 . S
C199 C191 1.433 . S
C199 N201 1.384 . S
N200 C196 1.427 . S
N200 C197 1.384 . S
N201 C193 1.427 . S
N201 C199 1.384 . S
H202 C208 0.930 . S
H203 C212 0.930 . S
H204 C217 0.929 . S
H205 C215 0.929 . S
H206 C210 0.929 . S
H207 C216 0.929 . S
C208 H202 0.930 . S
C208 C209 1.367 . S
C208 C216 1.378 . S
C209 C208 1.367 . S
C209 C217 1.433 . S
C210 H206 0.929 . S
C210 C212 1.378 . S
C210 C214 1.350 . S
C211 C214 1.463 . S
C211 C216 1.350 . S
C211 N219 1.427 . S
C212 H203 0.930 . S
C212 C210 1.378 . S
C212 C213 1.367 . S
C213 C212 1.367 . S
C213 C215 1.433 . S
C214 C210 1.350 . S
C214 C211 1.463 . S
C214 N218 1.427 . S
C215 H205 0.929 . S
C215 C213 1.433 . S
C215 N218 1.384 . S
C216 H207 0.929 . S
C216 C208 1.378 . S
C216 C211 1.350 . S
C217 H204 0.929 . S
C217 C209 1.433 . S
C217 N219 1.384 . S
N218 C214 1.427 . S
N218 C215 1.384 . S
N219 C211 1.427 . S
N219 C217 1.384 . S
H220 C226 0.930 . S
H221 C230 0.930 . S
H222 C235 0.929 . S
H223 C233 0.929 . S
H224 C228 0.929 . S
H225 C234 0.929 . S
C226 H220 0.930 . S
C226 C227 1.367 . S
C226 C234 1.378 . S
C227 C226 1.367 . S
C227 C235 1.433 . S
C228 H224 0.929 . S
C228 C230 1.378 . S
C228 C232 1.350 . S
C229 C232 1.463 . S
C229 C234 1.350 . S
C229 N237 1.427 . S
C230 H221 0.930 . S
C230 C228 1.378 . S
C230 C231 1.367 . S
C231 C230 1.367 . S
C231 C233 1.433 . S
C232 C228 1.350 . S
C232 C229 1.463 . S
C232 N236 1.427 . S
C233 H223 0.929 . S
C233 C231 1.433 . S
C233 N236 1.384 . S
C234 H225 0.929 . S
C234 C226 1.378 . S
C234 C229 1.350 . S
C235 H222 0.929 . S
C235 C227 1.433 . S
C235 N237 1.384 . S
N236 C232 1.427 . S
N236 C233 1.384 . S
N237 C229 1.427 . S
N237 C235 1.384 . S
H238 C244 0.930 . S
H239 C248 0.930 . S
H240 C253 0.929 . S
H241 C251 0.929 . S
H242 C246 0.929 . S
H243 C252 0.929 . S
C244 H238 0.930 . S
C244 C245 1.367 . S
C244 C252 1.378 . S
C245 C244 1.367 . S
C245 C253 1.433 . S
C246 H242 0.929 . S
C246 C248 1.378 . S
C246 C250 1.350 . S
C247 C250 1.463 . S
C247 C252 1.350 . S
C247 N255 1.427 . S
C248 H239 0.930 . S
C248 C246 1.378 . S
C248 C249 1.367 . S
C249 C248 1.367 . S
C249 C251 1.433 . S
C250 C246 1.350 . S
C250 C247 1.463 . S
C250 N254 1.427 . S
C251 H241 0.929 . S
C251 C249 1.433 . S
C251 N254 1.384 . S
C252 H243 0.929 . S
C252 C244 1.378 . S
C252 C247 1.350 . S
C253 H240 0.929 . S
C253 C245 1.433 . S
C253 N255 1.384 . S
N254 C250 1.427 . S
N254 C251 1.384 . S
N255 C247 1.427 . S
N255 C253 1.384 . S
H256 C262 0.930 . S
H257 C266 0.930 1_655 S
H258 C271 0.929 1_655 S
H259 C269 0.929 . S
H260 C264 0.929 1_655 S
H261 C270 0.929 . S
C262 H256 0.930 . S
C262 C263 1.367 1_565 S
C262 C270 1.378 . S
C263 C262 1.367 1_545 S
C263 C271 1.433 . S
C264 H260 0.929 1_455 S
C264 C266 1.378 . S
C264 C268 1.350 . S
C265 C268 1.463 . S
C265 C270 1.350 1_545 S
C265 N273 1.427 . S
C266 H257 0.930 1_455 S
C266 C264 1.378 . S
C266 C267 1.367 . S
C267 C266 1.367 . S
C267 C269 1.433 1_545 S
C268 C264 1.350 . S
C268 C265 1.463 . S
C268 N272 1.427 1_545 S
C269 H259 0.929 . S
C269 C267 1.433 1_565 S
C269 N272 1.384 . S
C270 H261 0.929 . S
C270 C262 1.378 . S
C270 C265 1.350 1_565 S
C271 H258 0.929 1_455 S
C271 C263 1.433 . S
C271 N273 1.384 . S
N272 C268 1.427 1_565 S
N272 C269 1.384 . S
N273 C265 1.427 . S
N273 C271 1.384 . S
H274 C280 0.930 . S
H275 C284 0.930 . S
H276 C289 0.929 . S
H277 C287 0.929 . S
H278 C282 0.929 . S
H279 C288 0.929 . S
C280 H274 0.930 . S
C280 C281 1.367 1_565 S
C280 C288 1.378 . S
C281 C280 1.367 1_545 S
C281 C289 1.433 1_655 S
C282 H278 0.929 . S
C282 C284 1.378 . S
C282 C286 1.350 1_455 S
C283 C286 1.463 . S
C283 C288 1.350 1_545 S
C283 N291 1.427 1_655 S
C284 H275 0.930 . S
C284 C282 1.378 . S
C284 C285 1.367 1_455 S
C285 C284 1.367 1_655 S
C285 C287 1.433 1_545 S
C286 C282 1.350 1_655 S
C286 C283 1.463 . S
C286 N290 1.427 1_545 S
C287 H277 0.929 . S
C287 C285 1.433 1_565 S
C287 N290 1.384 . S
C288 H279 0.929 . S
C288 C280 1.378 . S
C288 C283 1.350 1_565 S
C289 H276 0.929 . S
C289 C281 1.433 1_455 S
C289 N291 1.384 . S
N290 C286 1.427 1_565 S
N290 C287 1.384 . S
N291 C283 1.427 1_455 S
N291 C289 1.384 . S
H292 C298 0.930 . S
H293 C302 0.930 . S
H294 C307 0.929 . S
H295 C305 0.929 . S
H296 C300 0.929 . S
H297 C306 0.929 . S
C298 H292 0.930 . S
C298 C299 1.367 . S
C298 C306 1.378 . S
C299 C298 1.367 . S
C299 C307 1.433 . S
C300 H296 0.929 . S
C300 C302 1.378 . S
C300 C304 1.350 . S
C301 C304 1.463 . S
C301 C306 1.350 . S
C301 N309 1.427 . S
C302 H293 0.930 . S
C302 C300 1.378 . S
C302 C303 1.367 . S
C303 C302 1.367 . S
C303 C305 1.433 . S
C304 C300 1.350 . S
C304 C301 1.463 . S
C304 N308 1.427 . S
C305 H295 0.929 . S
C305 C303 1.433 . S
C305 N308 1.384 . S
C306 H297 0.929 . S
C306 C298 1.378 . S
C306 C301 1.350 . S
C307 H294 0.929 . S
C307 C299 1.433 . S
C307 N309 1.384 . S
N308 C304 1.427 . S
N308 C305 1.384 . S
N309 C301 1.427 . S
N309 C307 1.384 . S
H310 C316 0.930 . S
H311 C320 0.930 . S
H312 C325 0.929 . S
H313 C323 0.929 . S
H314 C318 0.929 . S
H315 C324 0.929 . S
C316 H310 0.930 . S
C316 C317 1.367 . S
C316 C324 1.378 . S
C317 C316 1.367 . S
C317 C325 1.433 . S
C318 H314 0.929 . S
C318 C320 1.378 . S
C318 C322 1.350 . S
C319 C322 1.463 . S
C319 C324 1.350 . S
C319 N327 1.427 . S
C320 H311 0.930 . S
C320 C318 1.378 . S
C320 C321 1.367 . S
C321 C320 1.367 . S
C321 C323 1.433 . S
C322 C318 1.350 . S
C322 C319 1.463 . S
C322 N326 1.427 . S
C323 H313 0.929 . S
C323 C321 1.433 . S
C323 N326 1.384 . S
C324 H315 0.929 . S
C324 C316 1.378 . S
C324 C319 1.350 . S
C325 H312 0.929 . S
C325 C317 1.433 . S
C325 N327 1.384 . S
N326 C322 1.427 . S
N326 C323 1.384 . S
N327 C319 1.427 . S
N327 C325 1.384 . S
C123 C107 1.454 . S
C119 C29 1.483 . S
C137 C8 1.406 . S
C141 N94 1.372 . S
C155 C0 1.410 . S
C159 N105 1.371 . S
C173 C17 1.487 . S
C177 C96 1.454 . S
C191 C63 1.485 . S
C195 C85 1.449 . S
C209 C42 1.406 . S
C213 N72 1.348 . S
C231 N83 1.355 . S
C227 C34 1.413 . S
C249 C74 1.454 . S
C245 C51 1.487 . S
C263 C4 1.517 . S
C267 C77 1.513 . S
C281 C13 1.509 . S
C285 C88 1.505 . S
C303 C99 1.507 . S
C299 C38 1.514 . S
C317 C47 1.508 . S
C321 C110 1.505 . S
