# Generated by pormake.
# Topology anh, (6,3)-cn, num edge types: 1
# Building blocks:
#     Node 0, Type 0, BuildingBlock: PAMTUU_clean_sbu_0, # of connection points: 6
#     Node 1, Type 0, BuildingBlock: PAMTUU_clean_sbu_0, # of connection points: 6
#     Node 2, Type 0, BuildingBlock: PAMTUU_clean_sbu_0, # of connection points: 6
#     Node 3, Type 1, BuildingBlock: KAKCAD_clean_linker_0, # of connection points: 3
#     Node 4, Type 1, BuildingBlock: KAKCAD_clean_linker_0, # of connection points: 3
#     Node 5, Type 1, BuildingBlock: KAKCAD_clean_linker_0, # of connection points: 3
#     Node 6, Type 1, BuildingBlock: KAKCAD_clean_linker_0, # of connection points: 3
#     Node 7, Type 1, BuildingBlock: KAKCAD_clean_linker_0, # of connection points: 3
#     Node 8, Type 1, BuildingBlock: KAKCAD_clean_linker_0, # of connection points: 3
#     Edge 9, Type (0, 1), BuildingBlock: AJUNOK_clean_linker_0, # of connection points: 2
#     Edge 10, Type (0, 1), BuildingBlock: AJUNOK_clean_linker_0, # of connection points: 2
#     Edge 11, Type (0, 1), BuildingBlock: AJUNOK_clean_linker_0, # of connection points: 2
#     Edge 12, Type (0, 1), BuildingBlock: AJUNOK_clean_linker_0, # of connection points: 2
#     Edge 13, Type (0, 1), BuildingBlock: AJUNOK_clean_linker_0, # of connection points: 2
#     Edge 14, Type (0, 1), BuildingBlock: AJUNOK_clean_linker_0, # of connection points: 2
#     Edge 15, Type (0, 1), BuildingBlock: AJUNOK_clean_linker_0, # of connection points: 2
#     Edge 16, Type (0, 1), BuildingBlock: AJUNOK_clean_linker_0, # of connection points: 2
#     Edge 17, Type (0, 1), BuildingBlock: AJUNOK_clean_linker_0, # of connection points: 2
#     Edge 18, Type (0, 1), BuildingBlock: AJUNOK_clean_linker_0, # of connection points: 2
#     Edge 19, Type (0, 1), BuildingBlock: AJUNOK_clean_linker_0, # of connection points: 2
#     Edge 20, Type (0, 1), BuildingBlock: AJUNOK_clean_linker_0, # of connection points: 2
#     Edge 21, Type (0, 1), BuildingBlock: AJUNOK_clean_linker_0, # of connection points: 2
#     Edge 22, Type (0, 1), BuildingBlock: AJUNOK_clean_linker_0, # of connection points: 2
#     Edge 23, Type (0, 1), BuildingBlock: AJUNOK_clean_linker_0, # of connection points: 2
#     Edge 24, Type (0, 1), BuildingBlock: AJUNOK_clean_linker_0, # of connection points: 2
#     Edge 25, Type (0, 1), BuildingBlock: AJUNOK_clean_linker_0, # of connection points: 2
#     Edge 26, Type (0, 1), BuildingBlock: AJUNOK_clean_linker_0, # of connection points: 2
# Relax obj value: 0.300
# Max RMSD: 0.198
# Mean RMSD: 0.163
data_MOF--net-anh--node1-PAMTUU_clean_sbu_0--node2-KAKCAD_clean_linker_0--edge1-AJUNOK_clean_linker_0
_symmetry_space_group_name_H-M    P1
_symmetry_Int_Tables_number       1
_symmetry_cell_setting            triclinic
loop_
_symmetry_equiv_pos_as_xyz
'x, y, z'
_cell_length_a     27.987321
_cell_length_b     28.139371
_cell_length_c     52.796234
_cell_angle_alpha  93.153734
_cell_angle_beta   90.434821
_cell_angle_gamma 120.06777
loop_
_atom_site_label
_atom_site_type_symbol
_atom_site_fract_x
_atom_site_fract_y
_atom_site_fract_z
_atom_type_partial_charge
Tb0 Tb 0.18801 0.71177 0.15912 0.0
Tb1 Tb 0.24845 0.64353 0.17135 0.0
C2 C 0.2283 0.66276 0.11633 0.0
C3 C 1.07792 0.74162 0.14841 0.0
C4 C 0.96389 0.66983 0.14419 0.0
C5 C 0.99138 0.70146 0.12391 0.0
C6 C 1.04827 0.73763 0.12608 0.0
C7 C 1.04906 0.7151 0.16972 0.0
C8 C 0.99206 0.67973 0.16762 0.0
C9 C 1.13683 0.75971 0.14686 0.0
O10 O 1.1183 0.62519 0.15932 0.0
O11 O 0.16174 0.57961 0.17332 0.0
O12 O 0.24405 0.68369 0.20715 0.0
O13 O 0.16631 0.68639 0.19692 0.0
O14 O 0.30935 0.62405 0.16117 0.0
O15 O 0.25979 0.5912 0.19461 0.0
O16 O 0.31601 0.72794 0.16683 0.0
O17 O 0.27111 0.77653 0.1733 0.0
O18 O 0.23248 0.70823 0.12629 0.0
O19 O 0.22076 0.62407 0.13125 0.0
C20 C 1.11638 0.58027 0.16728 0.0
O21 O 0.16536 0.77132 0.16829 0.0
O22 O 0.14654 0.72851 0.13104 0.0
C23 C 0.20061 0.68683 0.21393 0.0
C24 C 0.32837 0.56425 0.18561 0.0
C25 C 0.37048 0.49238 0.18366 0.0
C26 C 0.32387 0.48027 0.19779 0.0
C27 C 0.30299 0.51619 0.19884 0.0
C28 C 0.37828 0.57924 0.17393 0.0
C29 C 0.39924 0.54361 0.17297 0.0
C30 C 0.29865 0.59346 0.18039 0.0
C31 C 0.31745 0.77518 0.17156 0.0
H32 H 0.96998 0.69412 0.10566 0.0
H33 H 1.06983 0.7576 0.10944 0.0
H34 H 1.07087 0.71739 0.1872 0.0
H35 H 0.97083 0.65646 0.18355 0.0
H36 H 0.30107 0.44106 0.20618 0.0
H37 H 0.2645 0.50401 0.20811 0.0
H38 H 0.39881 0.61643 0.1638 0.0
H39 H 0.43477 0.55381 0.1616 0.0
Tb40 Tb 0.65548 1.08142 0.49014 0.0
Tb41 Tb 0.7856 0.14563 0.50476 0.0
C42 C 0.73947 0.12368 0.44819 0.0
C43 C 0.50681 1.03626 0.4904 0.0
C44 C 0.41673 1.04817 0.5048 0.0
C45 C 0.40997 0.99562 0.49897 0.0
C46 C 0.45463 0.9898 0.49185 0.0
C47 C 0.51462 1.08858 0.49744 0.0
C48 C 0.46971 0.09466 0.50435 0.0
C49 C 0.55255 1.02906 0.48183 0.0
O50 O 0.67326 1.01712 0.50128 0.0
O51 O 0.76716 1.06006 0.49817 0.0
O52 O 0.74125 0.10984 0.53889 0.0
O53 O 0.66677 0.11691 0.52826 0.0
O54 O 0.86679 0.16834 0.49531 0.0
O55 O 0.84969 0.19493 0.53157 0.0
O56 O 0.76502 0.21174 0.50851 0.0
O57 O 0.67734 0.16887 0.49 0.0
O58 O 0.69571 1.08006 0.45551 0.0
O59 O 0.77509 0.16044 0.46525 0.0
C60 C 0.71933 1.01501 0.50077 0.0
O61 O 0.58714 1.06524 0.46689 0.0
O62 O 0.57766 1.01821 0.49951 0.0
C63 C 0.69723 0.11195 0.54547 0.0
C64 C 0.92227 0.26104 0.51002 0.0
C65 C 0.97003 0.37469 0.50605 0.0
C66 C 0.98878 0.35481 0.52531 0.0
C67 C 0.96463 0.29797 0.52739 0.0
C68 C 0.90595 0.28135 0.49005 0.0
C69 C 0.92962 0.33761 0.48807 0.0
C70 C 0.88732 0.20311 0.51524 0.0
C71 C 0.72158 0.21377 0.50002 0.0
H72 H 0.36944 0.95902 0.49838 0.0
H73 H 0.44808 0.94905 0.48676 0.0
H74 H 0.55511 0.12455 0.49693 0.0
H75 H 0.4759 0.13554 0.50848 0.0
H76 H 1.01997 0.38307 0.53935 0.0
H77 H 0.9769 0.28298 0.54322 0.0
H78 H 0.87259 0.25381 0.47674 0.0
H79 H 0.91494 0.35225 0.47297 0.0
Tb80 Tb 0.71041 0.55693 0.82823 0.0
Tb81 Tb 0.77164 0.68878 0.83588 0.0
C82 C 0.73859 0.62727 0.78182 0.0
C83 C 0.60646 0.40639 0.82355 0.0
C84 C 0.49942 0.31399 0.8201 0.0
C85 C 0.54593 0.30837 0.82473 0.0
C86 C 0.59876 0.35413 0.8266 0.0
C87 C 0.56063 0.41284 0.8189 0.0
C88 C 0.50725 0.36677 0.81712 0.0
C89 C 0.66249 0.45345 0.82682 0.0
O90 O 0.79731 0.58334 0.82151 0.0
O91 O 0.83744 0.66856 0.84268 0.0
O92 O 0.73064 0.65489 0.87071 0.0
O93 O 0.74948 0.58638 0.86568 0.0
O94 O 0.79661 0.7644 0.82055 0.0
O95 O 0.82038 0.76097 0.85917 0.0
O96 O 0.68359 0.66491 0.83075 0.0
O97 O 0.6428 0.57271 0.83729 0.0
O98 O 0.6992 0.58417 0.79204 0.0
O99 O 0.77871 0.66696 0.79625 0.0
C100 C 0.84108 0.6263 0.83278 0.0
O101 O 0.68416 0.48178 0.8071 0.0
O102 O 0.67182 0.48484 0.84743 0.0
C103 C 0.73634 0.61632 0.88041 0.0
C104 C 0.8002 0.83093 0.85014 0.0
C105 C 0.74571 0.8915 0.85744 0.0
C106 C 0.73989 0.85285 0.87476 0.0
C107 C 0.76628 0.82212 0.87092 0.0
C108 C 0.81058 0.87336 0.8345 0.0
C109 C 0.78341 0.90312 0.83799 0.0
C110 C 0.81872 0.79212 0.84216 0.0
C111 C 0.63916 0.61731 0.83493 0.0
H112 H 0.54188 0.26823 0.82598 0.0
H113 H 0.63379 0.34859 0.83022 0.0
H114 H 0.56628 0.45327 0.81648 0.0
H115 H 0.47235 0.37217 0.81304 0.0
H116 H 0.71269 0.84421 0.89046 0.0
H117 H 0.75787 0.78971 0.88338 0.0
H118 H 0.83669 0.88083 0.81841 0.0
H119 H 0.78886 0.93231 0.82416 0.0
C120 C 0.76182 0.20728 0.32968 0.0
C121 C 0.75102 0.15699 0.33898 0.0
C122 C 0.75939 0.21269 0.30348 0.0
C123 C 0.74556 0.16781 0.28589 0.0
C124 C 0.73547 0.11781 0.29521 0.0
C125 C 0.73818 0.11251 0.32134 0.0
C126 C 0.73948 0.17217 0.25803 0.0
C127 C 0.77803 0.2185 0.24582 0.0
C128 C 0.77274 0.22372 0.21956 0.0
C129 C 0.72675 0.179 0.20533 0.0
C130 C 0.68745 0.13112 0.21745 0.0
C131 C 0.6947 0.12945 0.24372 0.0
C132 C 0.63833 1.08082 0.2042 0.0
C133 C 0.59562 1.08347 0.19116 0.0
C134 C 0.629 1.02798 0.2089 0.0
C135 C 0.57861 0.97995 0.20188 0.0
C136 C 0.53509 0.98215 0.1894 0.0
C137 C 0.81656 0.27644 0.20831 0.0
C138 C 0.83981 0.32726 0.2229 0.0
C139 C 0.83979 0.27689 0.18459 0.0
C140 C 0.88546 0.32579 0.17637 0.0
C141 C 0.90954 0.37621 0.19147 0.0
C142 C 0.88546 0.37544 0.21493 0.0
C143 C 0.54482 1.03495 0.18394 0.0
H144 H 0.77056 0.24207 0.34267 0.0
H145 H 0.76668 0.25157 0.29702 0.0
H146 H 0.72543 1.08257 0.28226 0.0
H147 H 0.73007 1.07333 0.32775 0.0
H148 H 0.81344 0.25032 0.25695 0.0
H149 H 0.66433 0.09432 0.25332 0.0
H150 H 0.72165 0.18131 0.18518 0.0
H151 H 0.60042 0.12314 0.18761 0.0
H152 H 0.66022 1.02385 0.2192 0.0
H153 H 0.57314 0.94106 0.20731 0.0
H154 H 0.82339 0.32986 0.2411 0.0
H155 H 0.82394 0.23907 0.17271 0.0
H156 H 0.51275 1.0389 0.17438 0.0
H157 H 0.90287 0.41187 0.22783 0.0
H158 H 0.90217 0.32392 0.15816 0.0
C159 C 0.69483 0.63916 0.65781 0.0
C160 C 0.73437 0.63186 0.67093 0.0
C161 C 0.69323 0.6381 0.63118 0.0
C162 C 0.73054 0.62874 0.61704 0.0
C163 C 0.76986 0.62116 0.63024 0.0
C164 C 0.77186 0.6229 0.65682 0.0
C165 C 0.7281 0.62591 0.58864 0.0
C166 C 0.72326 0.66545 0.57555 0.0
C167 C 0.72148 0.66405 0.54876 0.0
C168 C 0.72511 0.62065 0.53493 0.0
C169 C 0.73007 0.5798 0.54797 0.0
C170 C 0.73102 0.58359 0.57474 0.0
C171 C 0.73418 0.53204 0.53521 0.0
C172 C 0.69733 0.49656 0.5154 0.0
C173 C 0.77101 0.51693 0.54558 0.0
C174 C 0.76898 0.46724 0.53779 0.0
C175 C 0.73043 0.43006 0.51891 0.0
C176 C 0.71579 0.70908 0.5367 0.0
C177 C 0.67811 0.72438 0.54639 0.0
C178 C 0.75205 0.74228 0.51846 0.0
C179 C 0.75165 0.78985 0.51094 0.0
C180 C 0.7146 0.80565 0.52117 0.0
C181 C 0.67773 0.77152 0.53896 0.0
C182 C 0.69565 0.44666 0.50733 0.0
H183 H 0.66538 0.6461 0.66818 0.0
H184 H 0.66215 0.64362 0.62162 0.0
H185 H 0.79941 0.61421 0.61998 0.0
H186 H 0.80235 0.61645 0.66636 0.0
H187 H 0.72218 0.69864 0.58647 0.0
H188 H 0.73294 0.55231 0.58507 0.0
H189 H 0.72403 0.61869 0.51439 0.0
H190 H 0.6682 0.50619 0.50682 0.0
H191 H 0.80067 0.54298 0.56063 0.0
H192 H 0.79673 0.45719 0.54741 0.0
H193 H 0.64955 0.7005 0.56053 0.0
H194 H 0.78231 0.73282 0.51077 0.0
H195 H 0.66659 0.42097 0.49208 0.0
H196 H 0.64947 0.78219 0.54799 0.0
H197 H 0.78081 0.81461 0.49721 0.0
C198 C 0.28506 0.66668 0.99291 0.0
C199 C 0.23596 0.63565 0.00564 0.0
C200 C 0.28553 0.66266 0.96635 0.0
C201 C 0.23688 0.62744 0.95171 0.0
C202 C 0.18789 0.59559 0.96449 0.0
C203 C 0.18752 0.59945 0.99113 0.0
C204 C 0.23738 0.62419 0.92327 0.0
C205 C 0.28105 0.62301 0.91083 0.0
C206 C 0.28265 0.61924 0.88407 0.0
C207 C 0.23919 0.61922 0.8696 0.0
C208 C 0.19438 0.62032 0.88192 0.0
C209 C 0.19435 0.62239 0.90861 0.0
C210 C 0.1455 0.61779 0.86817 0.0
C211 C 0.14937 0.66435 0.85748 0.0
C212 C 1.0922 0.57222 0.87045 0.0
C213 C 1.04442 0.57322 0.86266 0.0
C214 C 1.04787 0.62013 0.85246 0.0
C215 C 0.32964 0.61376 0.87254 0.0
C216 C 0.34871 0.58198 0.8842 0.0
C217 C 0.35923 0.64307 0.85179 0.0
C218 C 0.40697 0.64182 0.84369 0.0
C219 C 0.4266 0.61091 0.85592 0.0
C220 C 0.39625 0.58123 0.87637 0.0
C221 C 1.10137 0.66557 0.84983 0.0
H222 H 0.32325 0.69441 0.00355 0.0
H223 H 0.32394 0.68808 0.95726 0.0
H224 H 0.1498 0.56746 0.9539 0.0
H225 H 0.14904 0.57501 0.00036 0.0
H226 H 0.31408 0.62442 0.92227 0.0
H227 H 0.16076 0.62373 0.91809 0.0
H228 H 0.23917 0.61648 0.84907 0.0
H229 H 0.18945 0.70083 0.85612 0.0
H230 H 1.08736 0.5363 0.87929 0.0
H231 H 1.00448 0.53783 0.86571 0.0
H232 H 0.32732 0.55805 0.89999 0.0
H233 H 0.34661 0.6684 0.84232 0.0
H234 H 1.10615 0.70256 0.84217 0.0
H235 H 0.41002 0.55833 0.8871 0.0
H236 H 0.4287 0.66542 0.82788 0.0
C237 C 1.13094 0.76033 0.32063 0.0
C238 C 0.15439 0.7265 0.31737 0.0
C239 C 1.11632 0.77081 0.34464 0.0
C240 C 1.12452 0.7473 0.36581 0.0
C241 C 0.14846 0.71383 0.36254 0.0
C242 C 0.16319 0.70347 0.33854 0.0
C243 C 1.10934 0.75831 0.3914 0.0
C244 C 1.08394 0.71558 0.40772 0.0
C245 C 1.07657 0.72648 0.43315 0.0
C246 C 1.0941 0.78065 0.44224 0.0
C247 C 1.11882 0.82414 0.42608 0.0
C248 C 1.12488 0.81219 0.40043 0.0
C249 C 0.14726 0.88196 0.43718 0.0
C250 C 1.12665 0.89758 0.45837 0.0
C251 C 0.2002 0.9194 0.42931 0.0
C252 C 0.23402 0.96789 0.44389 0.0
C253 C 0.21616 0.98005 0.46691 0.0
C254 C 1.05671 0.68178 0.45062 0.0
C255 C 1.0095 0.63085 0.44386 0.0
C256 C 1.08825 0.68778 0.47266 0.0
C257 C 1.07454 0.64255 0.48689 0.0
C258 C 1.02893 0.59097 0.47933 0.0
C259 C 0.99559 0.58587 0.45816 0.0
C260 C 0.16094 0.94626 0.47319 0.0
H261 H 1.12386 0.77864 0.30455 0.0
H262 H 1.09791 0.79666 0.34659 0.0
H263 H 0.15617 0.69589 0.3786 0.0
H264 H 0.18055 0.6767 0.33647 0.0
H265 H 1.07216 0.67393 0.40092 0.0
H266 H 0.14491 0.84529 0.38785 0.0
H267 H 1.09111 0.78899 0.46227 0.0
H268 H 1.0854 0.87036 0.46454 0.0
H269 H 0.21808 0.90909 0.41333 0.0
H270 H 0.27643 0.99258 0.43847 0.0
H271 H 0.98454 0.62539 0.42697 0.0
H272 H 1.12515 0.72661 0.47811 0.0
H273 H 0.1457 0.95512 0.49056 0.0
H274 H 0.96033 0.54636 0.4519 0.0
H275 H 1.10051 0.64738 0.50327 0.0
C276 C 0.59512 1.01172 0.65505 0.0
C277 C 0.61178 1.06405 0.64653 0.0
C278 C 0.56732 0.99592 0.67771 0.0
C279 C 0.55555 1.03216 0.692 0.0
C280 C 0.57441 1.08524 0.68397 0.0
C281 C 0.60252 0.10112 0.66156 0.0
C282 C 0.52455 1.01591 0.71554 0.0
C283 C 0.54187 0.99541 0.735 0.0
C284 C 0.5194 0.99004 0.75905 0.0
C285 C 0.4785 1.00405 0.76341 0.0
C286 C 0.45984 1.02354 0.74392 0.0
C287 C 0.48216 1.02789 0.71984 0.0
C288 C 0.42609 1.04953 0.75013 0.0
C289 C 0.38447 1.02807 0.76795 0.0
C290 C 0.44187 0.10124 0.74122 0.0
C291 C 0.42171 0.13347 0.75203 0.0
C292 C 0.38536 0.11509 0.77216 0.0
C293 C 0.5434 0.97586 0.78028 0.0
C294 C 0.54707 0.92798 0.77808 0.0
C295 C 0.56624 1.0121 0.80207 0.0
C296 C 0.5941 1.00144 0.82102 0.0
C297 C 0.59829 0.95381 0.81862 0.0
C298 C 0.57398 0.91687 0.79718 0.0
C299 C 0.36386 1.06048 0.77874 0.0
H300 H 0.60191 0.98247 0.64375 0.0
H301 H 0.55366 0.95499 0.68369 0.0
H302 H 0.56734 0.11456 0.69505 0.0
H303 H 0.6162 0.14218 0.65573 0.0
H304 H 0.57567 0.98755 0.73202 0.0
H305 H 0.46876 1.04363 0.70472 0.0
H306 H 0.46365 1.00268 0.78241 0.0
H307 H 0.37047 0.98769 0.77472 0.0
H308 H 0.47407 0.11952 0.72769 0.0
H309 H 0.43971 0.17526 0.74637 0.0
H310 H 0.53 0.89974 0.76137 0.0
H311 H 0.56442 1.04969 0.80393 0.0
H312 H 0.33443 1.04431 0.79357 0.0
H313 H 0.5778 0.88044 0.79469 0.0
H314 H 0.61324 1.03073 0.83725 0.0
C315 C 0.63465 0.43871 0.96406 0.0
C316 C 0.63057 0.48654 0.96413 0.0
C317 C 0.61214 0.40274 0.98335 0.0
C318 C 0.58406 0.41325 0.00272 0.0
C319 C 0.57595 0.45854 0.0017 0.0
C320 C 0.59911 0.49502 0.9825 0.0
C321 C 0.57336 0.38415 0.02626 0.0
C322 C 0.61895 0.39051 0.04046 0.0
C323 C 0.61342 0.37456 0.06546 0.0
C324 C 0.56058 0.34707 0.07519 0.0
C325 C 0.51489 0.34313 0.0619 0.0
C326 C 0.52136 0.3606 0.03703 0.0
C327 C 0.46782 0.3371 0.07697 0.0
C328 C 0.45039 0.30288 0.09748 0.0
C329 C 0.45152 0.37673 0.07542 0.0
C330 C 0.42515 0.38684 0.09548 0.0
C331 C 0.4147 0.35761 0.11732 0.0
C332 C 0.66292 0.3998 0.08306 0.0
C333 C 0.71432 0.40943 0.07461 0.0
C334 C 0.66093 0.42371 0.10692 0.0
C335 C 0.70933 0.45986 0.12089 0.0
C336 C 0.7608 0.47352 0.11124 0.0
C337 C 0.7629 0.44645 0.08844 0.0
C338 C 0.42479 0.31376 0.11781 0.0
H339 H 0.65708 0.43019 0.94959 0.0
H340 H 0.61892 0.36811 0.98385 0.0
H341 H 0.55506 0.46782 0.01669 0.0
H342 H 0.59497 0.53131 0.98282 0.0
H343 H 0.65975 0.41398 0.03299 0.0
H344 H 0.48713 0.35961 0.02679 0.0
H345 H 0.55676 0.33585 0.09468 0.0
H346 H 0.46156 0.27141 0.09899 0.0
H347 H 0.46449 0.40429 0.06017 0.0
H348 H 0.41746 0.4209 0.09491 0.0
H349 H 0.71727 0.3913 0.05648 0.0
H350 H 0.62247 0.41834 0.11401 0.0
H351 H 0.41661 0.29072 0.13457 0.0
H352 H 0.80207 0.45673 0.08032 0.0
H353 H 0.70664 0.47987 0.13851 0.0
C354 C 0.3374 0.4006 0.16157 0.0
C355 C 0.381 0.44803 0.17444 0.0
C356 C 0.34802 0.36727 0.14464 0.0
C357 C 0.40237 0.37994 0.1405 0.0
H358 H 0.29528 0.39234 0.16249 0.0
H359 H 0.31406 0.3343 0.13321 0.0
S360 S 0.52999 0.49311 0.17278 0.0
N361 N 0.47974 0.50108 0.18459 0.0
N362 N 0.49964 0.43817 0.15266 0.0
C363 C 0.44576 0.42353 0.15519 0.0
C364 C 0.43506 0.45762 0.17231 0.0
C365 C 0.95047 0.45126 0.50545 0.0
C366 C 0.98945 0.4337 0.5049 0.0
C367 C 0.96464 0.50405 0.49893 0.0
C368 C 1.01833 0.54096 0.49166 0.0
H369 H 0.90801 0.42287 0.50967 0.0
H370 H 0.93273 0.51511 0.49831 0.0
S371 S 1.13624 0.51571 0.48893 0.0
N372 N 1.08441 0.45781 0.49821 0.0
N373 N 1.11148 0.55752 0.48574 0.0
C374 C 1.05862 0.52508 0.49264 0.0
C375 C 1.04405 0.4712 0.49933 0.0
C376 C 0.72639 0.96709 0.84898 0.0
C377 C 0.70707 0.91328 0.85644 0.0
C378 C 0.68992 0.98245 0.83905 0.0
C379 C 0.63298 0.9447 0.83664 0.0
H380 H 0.77035 0.99597 0.84875 0.0
H381 H 0.70686 1.02223 0.83116 0.0
S382 S 0.55963 0.80524 0.86013 0.0
N383 N 0.62573 0.82616 0.86525 0.0
N384 N 0.55764 0.85647 0.84741 0.0
C385 C 0.61249 0.89389 0.84727 0.0
C386 C 0.64945 0.87784 0.85712 0.0
C387 C 0.8618 0.61953 0.13633 0.0
C388 C 0.91112 0.61865 0.139 0.0
C389 C 0.81261 0.57144 0.1285 0.0
C390 C 0.81155 0.52128 0.12293 0.0
H391 H 0.86163 0.65779 0.1396 0.0
H392 H 0.77571 0.57418 0.12567 0.0
S393 S 0.93059 0.49844 0.1275 0.0
N394 N 0.95673 0.56454 0.13578 0.0
N395 N 0.86392 0.47366 0.1217 0.0
C396 C 0.86059 0.51989 0.12631 0.0
C397 C 0.91053 0.56879 0.13419 0.0
C398 C 0.35842 1.08301 0.48761 0.0
C399 C 0.36671 1.05339 0.50606 0.0
C400 C 0.30506 1.06596 0.47799 0.0
C401 C 0.25926 1.01815 0.48618 0.0
H402 H 0.39315 0.1138 0.47785 0.0
H403 H 0.30082 1.08439 0.46125 0.0
S404 S 0.25881 0.94326 0.54196 0.0
N405 N 0.32466 0.98813 0.5384 0.0
N406 N 0.22434 0.95406 0.51964 0.0
C407 C 0.26637 0.99682 0.50851 0.0
C408 C 0.32057 1.01492 0.51858 0.0
C409 C 0.41781 0.25642 0.79091 0.0
C410 C 0.44516 0.26345 0.81444 0.0
C411 C 0.38595 0.20377 0.77877 0.0
C412 C 0.38294 0.15749 0.78941 0.0
H413 H 0.42713 0.29165 0.78023 0.0
H414 H 0.37164 0.20061 0.75929 0.0
S415 S 0.42593 0.15344 0.85562 0.0
N416 N 0.44933 0.21927 0.85193 0.0
N417 N 0.39343 0.12061 0.82849 0.0
C418 C 0.39947 0.16318 0.8152 0.0
C419 C 0.43014 0.21655 0.82785 0.0
C420 C 0.76624 0.95805 0.50778 0.0
C421 C 0.71732 0.96061 0.5045 0.0
C422 C 0.76515 0.90824 0.51247 0.0
C423 C 0.71509 0.85798 0.51423 0.0
H424 H 0.80607 0.99516 0.50717 0.0
H425 H 0.80414 0.90957 0.51541 0.0
S426 S 0.57489 0.83997 0.50475 0.0
N427 N 0.61695 0.90632 0.50197 0.0
N428 N 0.61503 0.81398 0.51026 0.0
C429 C 0.66592 0.85966 0.51023 0.0
C430 C 0.667 0.91029 0.50552 0.0
C431 C 0.94164 0.66975 0.84894 0.0
C432 C 0.89462 0.62526 0.83608 0.0
C433 C 0.99093 0.66838 0.85356 0.0
C434 C 0.99595 0.62224 0.84579 0.0
H435 H 0.94028 0.70596 0.8559 0.0
H436 H 1.02498 0.70339 0.86397 0.0
S437 S 0.88713 0.496 0.80987 0.0
N438 N 0.85822 0.53428 0.81461 0.0
N439 N 0.94986 0.532 0.82319 0.0
C440 C 0.94977 0.57798 0.83243 0.0
C441 C 0.89969 0.57943 0.82761 0.0
C442 C 0.37724 0.87866 0.18351 0.0
C443 C 0.37313 0.82811 0.17502 0.0
C444 C 0.429 0.92802 0.18749 0.0
C445 C 0.47969 0.92975 0.18322 0.0
H446 H 0.34011 0.88013 0.18752 0.0
H447 H 0.42922 0.96494 0.19463 0.0
S448 S 0.49268 0.8104 0.15858 0.0
N449 N 0.42554 0.78446 0.16114 0.0
N450 N 0.52127 0.87617 0.16803 0.0
C451 C 0.47601 0.87981 0.17401 0.0
C452 C 0.42347 0.8296 0.17008 0.0
C453 C 0.77275 0.3185 0.50823 0.0
C454 C 0.72248 0.26856 0.503 0.0
C455 C 0.77485 0.36975 0.51251 0.0
C456 C 0.72683 0.37458 0.51214 0.0
H457 H 0.81128 0.31821 0.50914 0.0
H458 H 0.81494 0.40615 0.51626 0.0
S459 S 0.58393 0.25651 0.49996 0.0
N460 N 0.62312 0.22814 0.49755 0.0
N461 N 0.6267 0.32291 0.50647 0.0
C462 C 0.67624 0.32496 0.50673 0.0
C463 C 0.6742 0.27275 0.50202 0.0
C464 C 0.57775 0.66102 0.83725 0.0
C465 C 0.58364 0.61412 0.83857 0.0
C466 C 0.5269 0.65917 0.84181 0.0
C467 C 0.47913 0.61067 0.84834 0.0
H468 H 0.61296 0.69998 0.83295 0.0
H469 H 0.52544 0.69659 0.84076 0.0
S470 S 0.4695 0.47429 0.85141 0.0
N471 N 0.53463 0.51619 0.84515 0.0
N472 N 0.44037 0.51278 0.85308 0.0
C473 C 0.48386 0.56295 0.84867 0.0
C474 C 0.53547 0.56471 0.84402 0.0
C475 C 1.05402 0.4757 0.16608 0.0
C476 C 1.06137 0.52887 0.17131 0.0
C477 C 1.00477 0.4271 0.17174 0.0
C478 C 0.9603 0.42876 0.18352 0.0
H479 H 1.08703 0.47152 0.15769 0.0
H480 H 1.00243 0.38787 0.16759 0.0
S481 S 0.95859 0.5575 0.20187 0.0
N482 N 1.01959 0.5797 0.18947 0.0
N483 N 0.9277 0.48973 0.19961 0.0
C484 C 0.96716 0.48187 0.18866 0.0
C485 C 1.01717 0.53125 0.18272 0.0
C486 C 0.2118 0.60378 0.07561 0.0
C487 C 0.2323 0.65623 0.08823 0.0
C488 C 0.21271 0.59718 0.04895 0.0
C489 C 0.23499 0.64283 0.03389 0.0
H490 H 0.19401 0.56741 0.08634 0.0
H491 H 0.1962 0.55607 0.04007 0.0
S492 S 0.29393 0.78892 0.05731 0.0
N493 N 0.27573 0.7547 0.08322 0.0
N494 N 0.27725 0.74204 0.03356 0.0
C495 C 0.25588 0.69536 0.04626 0.0
C496 C 0.25458 0.70211 0.07326 0.0
C497 C 0.70433 0.09434 0.4028 0.0
C498 C 0.74545 0.13292 0.42043 0.0
C499 C 0.70677 0.10249 0.37673 0.0
C500 C 0.75042 0.14965 0.36691 0.0
H501 H 0.66927 1.05751 0.40913 0.0
H502 H 0.67347 1.07183 0.36419 0.0
S503 S 0.87016 0.2625 0.40449 0.0
N504 N 0.83221 0.21988 0.42583 0.0
N505 N 0.83702 0.23472 0.37685 0.0
C506 C 0.79224 0.18839 0.38419 0.0
C507 C 0.78977 0.18011 0.41085 0.0
C508 C 0.68958 0.59644 0.73874 0.0
C509 C 0.73844 0.6302 0.75363 0.0
C510 C 0.68831 0.59798 0.71215 0.0
C511 C 0.73605 0.63267 0.69925 0.0
H512 H 0.65177 0.56862 0.74768 0.0
H513 H 0.64985 0.57101 0.70154 0.0
S514 S 0.87428 0.73012 0.72902 0.0
N515 N 0.8357 0.70032 0.75317 0.0
N516 N 0.83318 0.70257 0.70336 0.0
C517 C 0.78504 0.66683 0.71383 0.0
C518 C 0.78625 0.66582 0.74092 0.0
C519 C 0.7016 1.08551 0.58973 0.0
C520 C 0.67819 0.10407 0.57183 0.0
C521 C 0.68025 1.07284 0.61399 0.0
C522 C 0.63516 1.07881 0.6212 0.0
H523 H 0.73577 1.07946 0.58481 0.0
H524 H 0.69901 1.05816 0.62716 0.0
S525 S 0.55895 0.1261 0.58166 0.0
N526 N 0.60768 0.12869 0.56344 0.0
N527 N 0.56744 0.10387 0.60865 0.0
C528 C 0.61188 0.09797 0.60367 0.0
C529 C 0.63346 0.11091 0.57909 0.0
C530 C 0.66086 0.58234 0.91098 0.0
C531 C 0.71507 0.59609 0.90522 0.0
C532 C 0.63421 0.54876 0.93092 0.0
C533 C 0.66119 0.52822 0.9456 0.0
H534 H 0.63758 0.59413 0.8989 0.0
H535 H 0.59136 0.53629 0.93391 0.0
S536 S 0.80676 0.5613 0.94067 0.0
N537 N 0.79685 0.59244 0.91729 0.0
N538 N 0.74782 0.53112 0.95531 0.0
C539 C 0.71696 0.54575 0.94123 0.0
C540 C 0.74365 0.57925 0.92086 0.0
C541 C 1.13748 0.68483 0.24723 0.0
C542 C 0.18985 0.69316 0.24093 0.0
C543 C 1.1264 0.6949 0.27204 0.0
C544 C 0.1671 0.71352 0.29165 0.0
H545 H 1.10463 0.67101 0.23281 0.0
H546 H 1.08562 0.68833 0.2759 0.0
S547 S 0.31029 0.74011 0.28568 0.0
N548 N 0.28243 0.71957 0.25662 0.0
N549 N 0.26139 0.73866 0.30352 0.0
C550 C 0.21915 0.72046 0.28594 0.0
C551 C 0.23057 0.71021 0.26052 0.0
loop_
_geom_bond_atom_site_label_1
_geom_bond_atom_site_label_2
_geom_bond_distance
_geom_bond_site_symmetry_2
_ccdc_geom_bond_type
Tb0 C9 2.764 1_455 S
Tb0 O10 2.325 1_455 S
Tb0 O13 2.303 . S
Tb0 O17 2.322 . S
Tb0 O18 2.349 . S
Tb0 O21 2.415 1_455 S
Tb0 O22 2.399 1_455 S
Tb1 O11 2.322 1_455 S
Tb1 O12 2.349 . S
Tb1 O14 2.415 . S
Tb1 O15 2.399 . S
Tb1 O16 2.325 . S
Tb1 O19 2.303 . S
Tb1 C30 2.764 . S
C2 O18 1.261 . S
C2 O19 1.257 . S
C3 C6 1.358 . S
C3 C7 1.332 . S
C3 C9 1.504 . S
C4 C5 1.373 . S
C4 C8 1.308 . S
C5 C4 1.373 . S
C5 C6 1.429 . S
C5 H32 0.932 . S
C6 C3 1.358 . S
C6 C5 1.429 . S
C6 H33 0.930 . S
C7 C3 1.332 . S
C7 C8 1.394 . S
C7 H34 0.932 . S
C8 C4 1.308 . S
C8 C7 1.394 . S
C8 H35 0.929 . S
C9 Tb0 2.764 1_655 S
C9 C3 1.504 . S
C9 O21 1.239 . S
C9 O22 1.263 . S
O10 Tb0 2.325 1_655 S
O10 C20 1.236 . S
O11 Tb1 2.322 1_655 S
O11 C20 1.257 . S
O12 Tb1 2.349 . S
O12 C23 1.261 . S
O13 Tb0 2.303 . S
O13 C23 1.257 . S
O14 Tb1 2.415 . S
O14 C30 1.239 . S
O15 Tb1 2.399 . S
O15 C30 1.263 . S
O16 Tb1 2.325 . S
O16 C31 1.236 . S
O17 Tb0 2.322 . S
O17 C31 1.257 . S
O18 Tb0 2.349 . S
O18 C2 1.261 . S
O19 Tb1 2.303 . S
O19 C2 1.257 . S
C20 O10 1.236 . S
C20 O11 1.257 . S
O21 Tb0 2.415 1_655 S
O21 C9 1.239 . S
O22 Tb0 2.399 1_655 S
O22 C9 1.263 . S
C23 O12 1.261 . S
C23 O13 1.257 . S
C24 C27 1.358 . S
C24 C28 1.332 . S
C24 C30 1.504 . S
C25 C26 1.373 . S
C25 C29 1.308 . S
C26 C25 1.373 . S
C26 C27 1.429 . S
C26 H36 0.932 . S
C27 C24 1.358 . S
C27 C26 1.429 . S
C27 H37 0.930 . S
C28 C24 1.332 . S
C28 C29 1.394 . S
C28 H38 0.932 . S
C29 C25 1.308 . S
C29 C28 1.394 . S
C29 H39 0.929 . S
C30 Tb1 2.764 . S
C30 O14 1.239 . S
C30 O15 1.263 . S
C30 C24 1.504 . S
C31 O16 1.236 . S
C31 O17 1.257 . S
H32 C5 0.932 . S
H33 C6 0.930 . S
H34 C7 0.932 . S
H35 C8 0.929 . S
H36 C26 0.932 . S
H37 C27 0.930 . S
H38 C28 0.932 . S
H39 C29 0.929 . S
Tb40 C49 2.764 . S
Tb40 O50 2.325 . S
Tb40 O53 2.303 1_565 S
Tb40 O57 2.322 1_565 S
Tb40 O58 2.349 1_565 S
Tb40 O61 2.415 . S
Tb40 O62 2.399 . S
Tb41 O51 2.322 1_545 S
Tb41 O52 2.349 . S
Tb41 O54 2.415 . S
Tb41 O55 2.399 . S
Tb41 O56 2.325 . S
Tb41 O59 2.303 . S
Tb41 C70 2.764 . S
C42 O58 1.261 . S
C42 O59 1.257 . S
C43 C46 1.358 . S
C43 C47 1.332 . S
C43 C49 1.504 . S
C44 C45 1.373 . S
C44 C48 1.308 . S
C45 C44 1.373 . S
C45 C46 1.429 . S
C45 H72 0.932 . S
C46 C43 1.358 . S
C46 C45 1.429 . S
C46 H73 0.930 . S
C47 C43 1.332 . S
C47 C48 1.394 . S
C47 H74 0.932 . S
C48 C44 1.308 . S
C48 C47 1.394 . S
C48 H75 0.929 . S
C49 Tb40 2.764 . S
C49 C43 1.504 . S
C49 O61 1.239 . S
C49 O62 1.263 . S
O50 Tb40 2.325 . S
O50 C60 1.236 . S
O51 Tb41 2.322 1_565 S
O51 C60 1.257 . S
O52 Tb41 2.349 . S
O52 C63 1.261 . S
O53 Tb40 2.303 1_545 S
O53 C63 1.257 . S
O54 Tb41 2.415 . S
O54 C70 1.239 . S
O55 Tb41 2.399 . S
O55 C70 1.263 . S
O56 Tb41 2.325 . S
O56 C71 1.236 . S
O57 Tb40 2.322 1_545 S
O57 C71 1.257 . S
O58 Tb40 2.349 1_545 S
O58 C42 1.261 . S
O59 Tb41 2.303 . S
O59 C42 1.257 . S
C60 O50 1.236 . S
C60 O51 1.257 . S
O61 Tb40 2.415 . S
O61 C49 1.239 . S
O62 Tb40 2.399 . S
O62 C49 1.263 . S
C63 O52 1.261 . S
C63 O53 1.257 . S
C64 C67 1.358 . S
C64 C68 1.332 . S
C64 C70 1.504 . S
C65 C66 1.373 . S
C65 C69 1.308 . S
C66 C65 1.373 . S
C66 C67 1.429 . S
C66 H76 0.932 . S
C67 C64 1.358 . S
C67 C66 1.429 . S
C67 H77 0.930 . S
C68 C64 1.332 . S
C68 C69 1.394 . S
C68 H78 0.932 . S
C69 C65 1.308 . S
C69 C68 1.394 . S
C69 H79 0.929 . S
C70 Tb41 2.764 . S
C70 O54 1.239 . S
C70 O55 1.263 . S
C70 C64 1.504 . S
C71 O56 1.236 . S
C71 O57 1.257 . S
H72 C45 0.932 . S
H73 C46 0.930 . S
H74 C47 0.932 . S
H75 C48 0.929 . S
H76 C66 0.932 . S
H77 C67 0.930 . S
H78 C68 0.932 . S
H79 C69 0.929 . S
Tb80 C89 2.764 . S
Tb80 O90 2.325 . S
Tb80 O93 2.303 . S
Tb80 O97 2.322 . S
Tb80 O98 2.349 . S
Tb80 O101 2.415 . S
Tb80 O102 2.399 . S
Tb81 O91 2.322 . S
Tb81 O92 2.349 . S
Tb81 O94 2.415 . S
Tb81 O95 2.399 . S
Tb81 O96 2.325 . S
Tb81 O99 2.303 . S
Tb81 C110 2.764 . S
C82 O98 1.261 . S
C82 O99 1.257 . S
C83 C86 1.358 . S
C83 C87 1.332 . S
C83 C89 1.504 . S
C84 C85 1.373 . S
C84 C88 1.308 . S
C85 C84 1.373 . S
C85 C86 1.429 . S
C85 H112 0.932 . S
C86 C83 1.358 . S
C86 C85 1.429 . S
C86 H113 0.930 . S
C87 C83 1.332 . S
C87 C88 1.394 . S
C87 H114 0.932 . S
C88 C84 1.308 . S
C88 C87 1.394 . S
C88 H115 0.929 . S
C89 Tb80 2.764 . S
C89 C83 1.504 . S
C89 O101 1.239 . S
C89 O102 1.263 . S
O90 Tb80 2.325 . S
O90 C100 1.236 . S
O91 Tb81 2.322 . S
O91 C100 1.257 . S
O92 Tb81 2.349 . S
O92 C103 1.261 . S
O93 Tb80 2.303 . S
O93 C103 1.257 . S
O94 Tb81 2.415 . S
O94 C110 1.239 . S
O95 Tb81 2.399 . S
O95 C110 1.263 . S
O96 Tb81 2.325 . S
O96 C111 1.236 . S
O97 Tb80 2.322 . S
O97 C111 1.257 . S
O98 Tb80 2.349 . S
O98 C82 1.261 . S
O99 Tb81 2.303 . S
O99 C82 1.257 . S
C100 O90 1.236 . S
C100 O91 1.257 . S
O101 Tb80 2.415 . S
O101 C89 1.239 . S
O102 Tb80 2.399 . S
O102 C89 1.263 . S
C103 O92 1.261 . S
C103 O93 1.257 . S
C104 C107 1.358 . S
C104 C108 1.332 . S
C104 C110 1.504 . S
C105 C106 1.373 . S
C105 C109 1.308 . S
C106 C105 1.373 . S
C106 C107 1.429 . S
C106 H116 0.932 . S
C107 C104 1.358 . S
C107 C106 1.429 . S
C107 H117 0.930 . S
C108 C104 1.332 . S
C108 C109 1.394 . S
C108 H118 0.932 . S
C109 C105 1.308 . S
C109 C108 1.394 . S
C109 H119 0.929 . S
C110 Tb81 2.764 . S
C110 O94 1.239 . S
C110 O95 1.263 . S
C110 C104 1.504 . S
C111 O96 1.236 . S
C111 O97 1.257 . S
H112 C85 0.932 . S
H113 C86 0.930 . S
H114 C87 0.932 . S
H115 C88 0.929 . S
H116 C106 0.932 . S
H117 C107 0.930 . S
H118 C108 0.932 . S
H119 C109 0.929 . S
C120 C121 1.386 . S
C120 C122 1.397 . S
C120 H144 0.931 . S
C121 C120 1.386 . S
C121 C125 1.397 . S
C122 C120 1.397 . S
C122 C123 1.384 . S
C122 H145 0.930 . S
C123 C122 1.384 . S
C123 C124 1.377 . S
C123 C126 1.481 . S
C124 C123 1.377 . S
C124 C125 1.389 . S
C124 H146 0.929 1_545 S
C125 C121 1.397 . S
C125 C124 1.389 . S
C125 H147 0.931 1_545 S
C126 C123 1.481 . S
C126 C127 1.387 . S
C126 C131 1.390 1_545 S
C127 C126 1.387 . S
C127 C128 1.401 . S
C127 H148 0.930 . S
C128 C127 1.401 . S
C128 C129 1.376 . S
C128 C137 1.511 . S
C129 C128 1.376 . S
C129 C130 1.392 1_545 S
C129 H150 0.931 . S
C130 C129 1.392 1_565 S
C130 C131 1.361 . S
C130 C132 1.500 . S
C131 C126 1.390 1_565 S
C131 C130 1.361 . S
C131 H149 0.931 . S
C132 C130 1.500 . S
C132 C133 1.371 . S
C132 C134 1.365 . S
C133 C132 1.371 . S
C133 C143 1.386 . S
C133 H151 0.931 . S
C134 C132 1.365 . S
C134 C135 1.409 . S
C134 H152 0.929 . S
C135 C134 1.409 . S
C135 C136 1.380 . S
C135 H153 0.930 . S
C136 C135 1.380 . S
C136 C143 1.357 . S
C137 C128 1.511 . S
C137 C138 1.341 . S
C137 C139 1.371 . S
C138 C137 1.341 . S
C138 C142 1.394 . S
C138 H154 0.930 . S
C139 C137 1.371 . S
C139 C140 1.392 . S
C139 H155 0.931 . S
C140 C139 1.392 . S
C140 C141 1.331 . S
C140 H158 0.932 . S
C141 C140 1.331 . S
C141 C142 1.336 . S
C142 C138 1.394 . S
C142 C141 1.336 . S
C142 H157 0.929 . S
C143 C133 1.386 . S
C143 C136 1.357 . S
C143 H156 0.928 . S
H144 C120 0.931 . S
H145 C122 0.930 . S
H146 C124 0.929 1_565 S
H147 C125 0.931 1_565 S
H148 C127 0.930 . S
H149 C131 0.931 . S
H150 C129 0.931 . S
H151 C133 0.931 . S
H152 C134 0.929 . S
H153 C135 0.930 . S
H154 C138 0.930 . S
H155 C139 0.931 . S
H156 C143 0.928 . S
H157 C142 0.929 . S
H158 C140 0.932 . S
C159 C160 1.386 . S
C159 C161 1.397 . S
C159 H183 0.931 . S
C160 C159 1.386 . S
C160 C164 1.397 . S
C161 C159 1.397 . S
C161 C162 1.384 . S
C161 H184 0.930 . S
C162 C161 1.384 . S
C162 C163 1.377 . S
C162 C165 1.481 . S
C163 C162 1.377 . S
C163 C164 1.389 . S
C163 H185 0.929 . S
C164 C160 1.397 . S
C164 C163 1.389 . S
C164 H186 0.931 . S
C165 C162 1.481 . S
C165 C166 1.387 . S
C165 C170 1.390 . S
C166 C165 1.387 . S
C166 C167 1.401 . S
C166 H187 0.930 . S
C167 C166 1.401 . S
C167 C168 1.376 . S
C167 C176 1.511 . S
C168 C167 1.376 . S
C168 C169 1.392 . S
C168 H189 0.931 . S
C169 C168 1.392 . S
C169 C170 1.361 . S
C169 C171 1.500 . S
C170 C165 1.390 . S
C170 C169 1.361 . S
C170 H188 0.931 . S
C171 C169 1.500 . S
C171 C172 1.371 . S
C171 C173 1.365 . S
C172 C171 1.371 . S
C172 C182 1.386 . S
C172 H190 0.931 . S
C173 C171 1.365 . S
C173 C174 1.409 . S
C173 H191 0.929 . S
C174 C173 1.409 . S
C174 C175 1.380 . S
C174 H192 0.930 . S
C175 C174 1.380 . S
C175 C182 1.357 . S
C176 C167 1.511 . S
C176 C177 1.341 . S
C176 C178 1.371 . S
C177 C176 1.341 . S
C177 C181 1.394 . S
C177 H193 0.930 . S
C178 C176 1.371 . S
C178 C179 1.392 . S
C178 H194 0.931 . S
C179 C178 1.392 . S
C179 C180 1.331 . S
C179 H197 0.932 . S
C180 C179 1.331 . S
C180 C181 1.336 . S
C181 C177 1.394 . S
C181 C180 1.336 . S
C181 H196 0.929 . S
C182 C172 1.386 . S
C182 C175 1.357 . S
C182 H195 0.928 . S
H183 C159 0.931 . S
H184 C161 0.930 . S
H185 C163 0.929 . S
H186 C164 0.931 . S
H187 C166 0.930 . S
H188 C170 0.931 . S
H189 C168 0.931 . S
H190 C172 0.931 . S
H191 C173 0.929 . S
H192 C174 0.930 . S
H193 C177 0.930 . S
H194 C178 0.931 . S
H195 C182 0.928 . S
H196 C181 0.929 . S
H197 C179 0.932 . S
C198 C199 1.364 1_556 S
C198 C200 1.397 . S
C198 H222 0.923 1_556 S
C199 C198 1.364 1_554 S
C199 C203 1.373 1_554 S
C200 C198 1.397 . S
C200 C201 1.384 . S
C200 H223 0.930 . S
C201 C200 1.384 . S
C201 C202 1.377 . S
C201 C204 1.481 . S
C202 C201 1.377 . S
C202 C203 1.389 . S
C202 H224 0.929 1_455 S
C203 C199 1.373 1_556 S
C203 C202 1.389 . S
C203 H225 0.931 1_455 S
C204 C201 1.481 . S
C204 C205 1.387 . S
C204 C209 1.390 . S
C205 C204 1.387 . S
C205 C206 1.401 . S
C205 H226 0.930 . S
C206 C205 1.401 . S
C206 C207 1.376 . S
C206 C215 1.511 . S
C207 C206 1.376 . S
C207 C208 1.392 . S
C207 H228 0.931 . S
C208 C207 1.392 . S
C208 C209 1.361 . S
C208 C210 1.500 1_455 S
C209 C204 1.390 . S
C209 C208 1.361 . S
C209 H227 0.931 . S
C210 C208 1.500 1_655 S
C210 C211 1.371 . S
C210 C212 1.365 . S
C211 C210 1.371 . S
C211 C221 1.386 . S
C211 H229 0.931 1_655 S
C212 C210 1.365 . S
C212 C213 1.409 . S
C212 H230 0.929 . S
C213 C212 1.409 . S
C213 C214 1.380 . S
C213 H231 0.930 . S
C214 C213 1.380 . S
C214 C221 1.357 . S
C215 C206 1.511 . S
C215 C216 1.341 . S
C215 C217 1.371 . S
C216 C215 1.341 . S
C216 C220 1.394 . S
C216 H232 0.930 . S
C217 C215 1.371 . S
C217 C218 1.392 . S
C217 H233 0.931 . S
C218 C217 1.392 . S
C218 C219 1.331 . S
C218 H236 0.932 . S
C219 C218 1.331 . S
C219 C220 1.336 . S
C220 C216 1.394 . S
C220 C219 1.336 . S
C220 H235 0.929 . S
C221 C211 1.386 . S
C221 C214 1.357 . S
C221 H234 0.928 . S
H222 C198 0.923 1_554 S
H223 C200 0.930 . S
H224 C202 0.929 1_655 S
H225 C203 0.931 1_655 S
H226 C205 0.930 . S
H227 C209 0.931 . S
H228 C207 0.931 . S
H229 C211 0.931 1_455 S
H230 C212 0.929 . S
H231 C213 0.930 . S
H232 C216 0.930 . S
H233 C217 0.931 . S
H234 C221 0.928 . S
H235 C220 0.929 . S
H236 C218 0.932 . S
C237 C238 1.386 . S
C237 C239 1.397 . S
C237 H261 0.931 . S
C238 C237 1.386 . S
C238 C242 1.397 1_655 S
C239 C237 1.397 . S
C239 C240 1.384 . S
C239 H262 0.930 . S
C240 C239 1.384 . S
C240 C241 1.377 1_655 S
C240 C243 1.481 . S
C241 C240 1.377 1_455 S
C241 C242 1.389 . S
C241 H263 0.929 . S
C242 C238 1.397 1_455 S
C242 C241 1.389 . S
C242 H264 0.931 . S
C243 C240 1.481 . S
C243 C244 1.387 . S
C243 C248 1.390 1_655 S
C244 C243 1.387 . S
C244 C245 1.401 . S
C244 H265 0.930 . S
C245 C244 1.401 . S
C245 C246 1.367 1_655 S
C245 C254 1.511 . S
C246 C245 1.367 1_455 S
C246 C247 1.403 . S
C246 H267 0.930 . S
C247 C246 1.403 . S
C247 C248 1.361 . S
C247 C249 1.500 . S
C248 C243 1.390 1_455 S
C248 C247 1.361 . S
C248 H266 0.931 . S
C249 C247 1.500 . S
C249 C250 1.371 . S
C249 C251 1.365 . S
C250 C249 1.371 . S
C250 C260 1.386 . S
C250 H268 0.931 . S
C251 C249 1.365 . S
C251 C252 1.409 . S
C251 H269 0.929 . S
C252 C251 1.409 . S
C252 C253 1.380 . S
C252 H270 0.930 . S
C253 C252 1.380 . S
C253 C260 1.357 . S
C254 C245 1.511 . S
C254 C255 1.341 . S
C254 C256 1.371 . S
C255 C254 1.341 . S
C255 C259 1.394 . S
C255 H271 0.930 . S
C256 C254 1.371 . S
C256 C257 1.392 . S
C256 H272 0.931 . S
C257 C256 1.392 . S
C257 C258 1.331 . S
C257 H275 0.932 . S
C258 C257 1.331 . S
C258 C259 1.336 . S
C259 C255 1.394 . S
C259 C258 1.336 . S
C259 H274 0.929 . S
C260 C250 1.386 . S
C260 C253 1.357 . S
C260 H273 0.928 . S
H261 C237 0.931 . S
H262 C239 0.930 . S
H263 C241 0.929 . S
H264 C242 0.931 . S
H265 C244 0.930 . S
H266 C248 0.931 . S
H267 C246 0.930 . S
H268 C250 0.931 . S
H269 C251 0.929 . S
H270 C252 0.930 . S
H271 C255 0.930 . S
H272 C256 0.931 . S
H273 C260 0.928 . S
H274 C259 0.929 . S
H275 C257 0.932 . S
C276 C277 1.386 . S
C276 C278 1.397 . S
C276 H300 0.931 . S
C277 C276 1.386 . S
C277 C281 1.397 1_565 S
C278 C276 1.397 . S
C278 C279 1.384 . S
C278 H301 0.930 . S
C279 C278 1.384 . S
C279 C280 1.377 1_565 S
C279 C282 1.481 . S
C280 C279 1.377 1_545 S
C280 C281 1.389 . S
C280 H302 0.929 . S
C281 C277 1.397 1_545 S
C281 C280 1.389 . S
C281 H303 0.931 . S
C282 C279 1.481 . S
C282 C283 1.387 . S
C282 C287 1.390 1_565 S
C283 C282 1.387 . S
C283 C284 1.401 . S
C283 H304 0.930 . S
C284 C283 1.401 . S
C284 C285 1.376 1_565 S
C284 C293 1.511 . S
C285 C284 1.376 1_545 S
C285 C286 1.392 . S
C285 H306 0.931 . S
C286 C285 1.392 . S
C286 C287 1.361 . S
C286 C288 1.500 . S
C287 C282 1.390 1_545 S
C287 C286 1.361 . S
C287 H305 0.931 . S
C288 C286 1.500 . S
C288 C289 1.371 . S
C288 C290 1.365 . S
C289 C288 1.371 . S
C289 C299 1.386 . S
C289 H307 0.931 . S
C290 C288 1.365 . S
C290 C291 1.409 . S
C290 H308 0.929 . S
C291 C290 1.409 . S
C291 C292 1.380 . S
C291 H309 0.930 . S
C292 C291 1.380 . S
C292 C299 1.357 . S
C293 C284 1.511 . S
C293 C294 1.341 . S
C293 C295 1.371 . S
C294 C293 1.341 . S
C294 C298 1.394 . S
C294 H310 0.930 . S
C295 C293 1.371 . S
C295 C296 1.392 . S
C295 H311 0.931 . S
C296 C295 1.392 . S
C296 C297 1.331 . S
C296 H314 0.932 . S
C297 C296 1.331 . S
C297 C298 1.336 . S
C298 C294 1.394 . S
C298 C297 1.336 . S
C298 H313 0.929 . S
C299 C289 1.386 . S
C299 C292 1.357 . S
C299 H312 0.928 . S
H300 C276 0.931 . S
H301 C278 0.930 . S
H302 C280 0.929 . S
H303 C281 0.931 . S
H304 C283 0.930 . S
H305 C287 0.931 . S
H306 C285 0.931 . S
H307 C289 0.931 . S
H308 C290 0.929 . S
H309 C291 0.930 . S
H310 C294 0.930 . S
H311 C295 0.931 . S
H312 C299 0.928 . S
H313 C298 0.929 . S
H314 C296 0.932 . S
C315 C316 1.386 . S
C315 C317 1.397 1_556 S
C315 H339 0.931 . S
C316 C315 1.386 . S
C316 C320 1.397 . S
C317 C315 1.397 1_554 S
C317 C318 1.384 . S
C317 H340 0.930 . S
C318 C317 1.384 . S
C318 C319 1.377 . S
C318 C321 1.481 . S
C319 C318 1.377 . S
C319 C320 1.389 1_554 S
C319 H341 0.929 . S
C320 C316 1.397 . S
C320 C319 1.389 1_556 S
C320 H342 0.931 . S
C321 C318 1.481 . S
C321 C322 1.387 . S
C321 C326 1.390 . S
C322 C321 1.387 . S
C322 C323 1.401 . S
C322 H343 0.930 . S
C323 C322 1.401 . S
C323 C324 1.376 . S
C323 C332 1.511 . S
C324 C323 1.376 . S
C324 C325 1.392 . S
C324 H345 0.931 . S
C325 C324 1.392 . S
C325 C326 1.361 . S
C325 C327 1.500 . S
C326 C321 1.390 . S
C326 C325 1.361 . S
C326 H344 0.931 . S
C327 C325 1.500 . S
C327 C328 1.371 . S
C327 C329 1.365 . S
C328 C327 1.371 . S
C328 C338 1.386 . S
C328 H346 0.931 . S
C329 C327 1.365 . S
C329 C330 1.409 . S
C329 H347 0.929 . S
C330 C329 1.409 . S
C330 C331 1.380 . S
C330 H348 0.930 . S
C331 C330 1.380 . S
C331 C338 1.357 . S
C332 C323 1.511 . S
C332 C333 1.341 . S
C332 C334 1.371 . S
C333 C332 1.341 . S
C333 C337 1.394 . S
C333 H349 0.930 . S
C334 C332 1.371 . S
C334 C335 1.392 . S
C334 H350 0.931 . S
C335 C334 1.392 . S
C335 C336 1.331 . S
C335 H353 0.932 . S
C336 C335 1.331 . S
C336 C337 1.336 . S
C337 C333 1.394 . S
C337 C336 1.336 . S
C337 H352 0.929 . S
C338 C328 1.386 . S
C338 C331 1.357 . S
C338 H351 0.928 . S
H339 C315 0.931 . S
H340 C317 0.930 . S
H341 C319 0.929 . S
H342 C320 0.931 . S
H343 C322 0.930 . S
H344 C326 0.931 . S
H345 C324 0.931 . S
H346 C328 0.931 . S
H347 C329 0.929 . S
H348 C330 0.930 . S
H349 C333 0.930 . S
H350 C334 0.931 . S
H351 C338 0.928 . S
H352 C337 0.929 . S
H353 C335 0.932 . S
C354 C355 1.369 . S
C354 C356 1.419 . S
C354 H358 0.930 . S
C355 C354 1.369 . S
C355 C364 1.429 . S
C356 C354 1.419 . S
C356 C357 1.363 . S
C356 H359 0.929 . S
C357 C356 1.363 . S
C357 C363 1.428 . S
H358 C354 0.930 . S
H359 C356 0.929 . S
S360 N361 1.613 . S
S360 N362 1.610 . S
N361 S360 1.613 . S
N361 C364 1.350 . S
N362 S360 1.610 . S
N362 C363 1.351 . S
C363 C357 1.428 . S
C363 N362 1.351 . S
C363 C364 1.434 . S
C364 C355 1.429 . S
C364 N361 1.350 . S
C364 C363 1.434 . S
C365 C366 1.369 . S
C365 C367 1.419 . S
C365 H369 0.930 . S
C366 C365 1.369 . S
C366 C375 1.429 . S
C367 C365 1.419 . S
C367 C368 1.363 . S
C367 H370 0.929 . S
C368 C367 1.363 . S
C368 C374 1.428 . S
H369 C365 0.930 . S
H370 C367 0.929 . S
S371 N372 1.613 . S
S371 N373 1.610 . S
N372 S371 1.613 . S
N372 C375 1.350 . S
N373 S371 1.610 . S
N373 C374 1.351 . S
C374 C368 1.428 . S
C374 N373 1.351 . S
C374 C375 1.434 . S
C375 C366 1.429 . S
C375 N372 1.350 . S
C375 C374 1.434 . S
C376 C377 1.369 . S
C376 C378 1.419 . S
C376 H380 0.930 . S
C377 C376 1.369 . S
C377 C386 1.429 . S
C378 C376 1.419 . S
C378 C379 1.363 . S
C378 H381 0.929 . S
C379 C378 1.363 . S
C379 C385 1.428 . S
H380 C376 0.930 . S
H381 C378 0.929 . S
S382 N383 1.613 . S
S382 N384 1.610 . S
N383 S382 1.613 . S
N383 C386 1.350 . S
N384 S382 1.610 . S
N384 C385 1.351 . S
C385 C379 1.428 . S
C385 N384 1.351 . S
C385 C386 1.434 . S
C386 C377 1.429 . S
C386 N383 1.350 . S
C386 C385 1.434 . S
C387 C388 1.369 . S
C387 C389 1.419 . S
C387 H391 0.930 . S
C388 C387 1.369 . S
C388 C397 1.429 . S
C389 C387 1.419 . S
C389 C390 1.363 . S
C389 H392 0.929 . S
C390 C389 1.363 . S
C390 C396 1.428 . S
H391 C387 0.930 . S
H392 C389 0.929 . S
S393 N394 1.613 . S
S393 N395 1.610 . S
N394 S393 1.613 . S
N394 C397 1.350 . S
N395 S393 1.610 . S
N395 C396 1.351 . S
C396 C390 1.428 . S
C396 N395 1.351 . S
C396 C397 1.434 . S
C397 C388 1.429 . S
C397 N394 1.350 . S
C397 C396 1.434 . S
C398 C399 1.369 . S
C398 C400 1.419 . S
C398 H402 0.930 . S
C399 C398 1.369 . S
C399 C408 1.429 . S
C400 C398 1.419 . S
C400 C401 1.363 . S
C400 H403 0.929 . S
C401 C400 1.363 . S
C401 C407 1.428 . S
H402 C398 0.930 . S
H403 C400 0.929 . S
S404 N405 1.613 . S
S404 N406 1.610 . S
N405 S404 1.613 . S
N405 C408 1.350 . S
N406 S404 1.610 . S
N406 C407 1.351 . S
C407 C401 1.428 . S
C407 N406 1.351 . S
C407 C408 1.434 . S
C408 C399 1.429 . S
C408 N405 1.350 . S
C408 C407 1.434 . S
C409 C410 1.369 . S
C409 C411 1.419 . S
C409 H413 0.930 . S
C410 C409 1.369 . S
C410 C419 1.429 . S
C411 C409 1.419 . S
C411 C412 1.363 . S
C411 H414 0.929 . S
C412 C411 1.363 . S
C412 C418 1.428 . S
H413 C409 0.930 . S
H414 C411 0.929 . S
S415 N416 1.613 . S
S415 N417 1.610 . S
N416 S415 1.613 . S
N416 C419 1.350 . S
N417 S415 1.610 . S
N417 C418 1.351 . S
C418 C412 1.428 . S
C418 N417 1.351 . S
C418 C419 1.434 . S
C419 C410 1.429 . S
C419 N416 1.350 . S
C419 C418 1.434 . S
C420 C421 1.369 . S
C420 C422 1.419 . S
C420 H424 0.930 . S
C421 C420 1.369 . S
C421 C430 1.429 . S
C422 C420 1.419 . S
C422 C423 1.363 . S
C422 H425 0.929 . S
C423 C422 1.363 . S
C423 C429 1.428 . S
H424 C420 0.930 . S
H425 C422 0.929 . S
S426 N427 1.613 . S
S426 N428 1.610 . S
N427 S426 1.613 . S
N427 C430 1.350 . S
N428 S426 1.610 . S
N428 C429 1.351 . S
C429 C423 1.428 . S
C429 N428 1.351 . S
C429 C430 1.434 . S
C430 C421 1.429 . S
C430 N427 1.350 . S
C430 C429 1.434 . S
C431 C432 1.369 . S
C431 C433 1.419 . S
C431 H435 0.930 . S
C432 C431 1.369 . S
C432 C441 1.429 . S
C433 C431 1.419 . S
C433 C434 1.363 . S
C433 H436 0.929 . S
C434 C433 1.363 . S
C434 C440 1.428 . S
H435 C431 0.930 . S
H436 C433 0.929 . S
S437 N438 1.613 . S
S437 N439 1.610 . S
N438 S437 1.613 . S
N438 C441 1.350 . S
N439 S437 1.610 . S
N439 C440 1.351 . S
C440 C434 1.428 . S
C440 N439 1.351 . S
C440 C441 1.434 . S
C441 C432 1.429 . S
C441 N438 1.350 . S
C441 C440 1.434 . S
C442 C443 1.369 . S
C442 C444 1.419 . S
C442 H446 0.930 . S
C443 C442 1.369 . S
C443 C452 1.429 . S
C444 C442 1.419 . S
C444 C445 1.363 . S
C444 H447 0.929 . S
C445 C444 1.363 . S
C445 C451 1.428 . S
H446 C442 0.930 . S
H447 C444 0.929 . S
S448 N449 1.613 . S
S448 N450 1.610 . S
N449 S448 1.613 . S
N449 C452 1.350 . S
N450 S448 1.610 . S
N450 C451 1.351 . S
C451 C445 1.428 . S
C451 N450 1.351 . S
C451 C452 1.434 . S
C452 C443 1.429 . S
C452 N449 1.350 . S
C452 C451 1.434 . S
C453 C454 1.369 . S
C453 C455 1.419 . S
C453 H457 0.930 . S
C454 C453 1.369 . S
C454 C463 1.429 . S
C455 C453 1.419 . S
C455 C456 1.363 . S
C455 H458 0.929 . S
C456 C455 1.363 . S
C456 C462 1.428 . S
H457 C453 0.930 . S
H458 C455 0.929 . S
S459 N460 1.613 . S
S459 N461 1.610 . S
N460 S459 1.613 . S
N460 C463 1.350 . S
N461 S459 1.610 . S
N461 C462 1.351 . S
C462 C456 1.428 . S
C462 N461 1.351 . S
C462 C463 1.434 . S
C463 C454 1.429 . S
C463 N460 1.350 . S
C463 C462 1.434 . S
C464 C465 1.369 . S
C464 C466 1.419 . S
C464 H468 0.930 . S
C465 C464 1.369 . S
C465 C474 1.429 . S
C466 C464 1.419 . S
C466 C467 1.363 . S
C466 H469 0.929 . S
C467 C466 1.363 . S
C467 C473 1.428 . S
H468 C464 0.930 . S
H469 C466 0.929 . S
S470 N471 1.613 . S
S470 N472 1.610 . S
N471 S470 1.613 . S
N471 C474 1.350 . S
N472 S470 1.610 . S
N472 C473 1.351 . S
C473 C467 1.428 . S
C473 N472 1.351 . S
C473 C474 1.434 . S
C474 C465 1.429 . S
C474 N471 1.350 . S
C474 C473 1.434 . S
C475 C476 1.369 . S
C475 C477 1.419 . S
C475 H479 0.930 . S
C476 C475 1.369 . S
C476 C485 1.429 . S
C477 C475 1.419 . S
C477 C478 1.363 . S
C477 H480 0.929 . S
C478 C477 1.363 . S
C478 C484 1.428 . S
H479 C475 0.930 . S
H480 C477 0.929 . S
S481 N482 1.613 . S
S481 N483 1.610 . S
N482 S481 1.613 . S
N482 C485 1.350 . S
N483 S481 1.610 . S
N483 C484 1.351 . S
C484 C478 1.428 . S
C484 N483 1.351 . S
C484 C485 1.434 . S
C485 C476 1.429 . S
C485 N482 1.350 . S
C485 C484 1.434 . S
C486 C487 1.369 . S
C486 C488 1.419 . S
C486 H490 0.930 . S
C487 C486 1.369 . S
C487 C496 1.429 . S
C488 C486 1.419 . S
C488 C489 1.363 . S
C488 H491 0.929 . S
C489 C488 1.363 . S
C489 C495 1.428 . S
H490 C486 0.930 . S
H491 C488 0.929 . S
S492 N493 1.613 . S
S492 N494 1.610 . S
N493 S492 1.613 . S
N493 C496 1.350 . S
N494 S492 1.610 . S
N494 C495 1.351 . S
C495 C489 1.428 . S
C495 N494 1.351 . S
C495 C496 1.434 . S
C496 C487 1.429 . S
C496 N493 1.350 . S
C496 C495 1.434 . S
C497 C498 1.369 . S
C497 C499 1.419 . S
C497 H501 0.930 1_545 S
C498 C497 1.369 . S
C498 C507 1.429 . S
C499 C497 1.419 . S
C499 C500 1.363 . S
C499 H502 0.929 1_545 S
C500 C499 1.363 . S
C500 C506 1.428 . S
H501 C497 0.930 1_565 S
H502 C499 0.929 1_565 S
S503 N504 1.613 . S
S503 N505 1.610 . S
N504 S503 1.613 . S
N504 C507 1.350 . S
N505 S503 1.610 . S
N505 C506 1.351 . S
C506 C500 1.428 . S
C506 N505 1.351 . S
C506 C507 1.434 . S
C507 C498 1.429 . S
C507 N504 1.350 . S
C507 C506 1.434 . S
C508 C509 1.369 . S
C508 C510 1.419 . S
C508 H512 0.930 . S
C509 C508 1.369 . S
C509 C518 1.429 . S
C510 C508 1.419 . S
C510 C511 1.363 . S
C510 H513 0.929 . S
C511 C510 1.363 . S
C511 C517 1.428 . S
H512 C508 0.930 . S
H513 C510 0.929 . S
S514 N515 1.613 . S
S514 N516 1.610 . S
N515 S514 1.613 . S
N515 C518 1.350 . S
N516 S514 1.610 . S
N516 C517 1.351 . S
C517 C511 1.428 . S
C517 N516 1.351 . S
C517 C518 1.434 . S
C518 C509 1.429 . S
C518 N515 1.350 . S
C518 C517 1.434 . S
C519 C520 1.369 1_565 S
C519 C521 1.419 . S
C519 H523 0.930 . S
C520 C519 1.369 1_545 S
C520 C529 1.429 . S
C521 C519 1.419 . S
C521 C522 1.363 . S
C521 H524 0.929 . S
C522 C521 1.363 . S
C522 C528 1.428 1_565 S
H523 C519 0.930 . S
H524 C521 0.929 . S
S525 N526 1.613 . S
S525 N527 1.610 . S
N526 S525 1.613 . S
N526 C529 1.350 . S
N527 S525 1.610 . S
N527 C528 1.351 . S
C528 C522 1.428 1_545 S
C528 N527 1.351 . S
C528 C529 1.434 . S
C529 C520 1.429 . S
C529 N526 1.350 . S
C529 C528 1.434 . S
C530 C531 1.369 . S
C530 C532 1.419 . S
C530 H534 0.930 . S
C531 C530 1.369 . S
C531 C540 1.429 . S
C532 C530 1.419 . S
C532 C533 1.363 . S
C532 H535 0.929 . S
C533 C532 1.363 . S
C533 C539 1.428 . S
H534 C530 0.930 . S
H535 C532 0.929 . S
S536 N537 1.613 . S
S536 N538 1.610 . S
N537 S536 1.613 . S
N537 C540 1.350 . S
N538 S536 1.610 . S
N538 C539 1.351 . S
C539 C533 1.428 . S
C539 N538 1.351 . S
C539 C540 1.434 . S
C540 C531 1.429 . S
C540 N537 1.350 . S
C540 C539 1.434 . S
C541 C542 1.369 1_655 S
C541 C543 1.419 . S
C541 H545 0.930 . S
C542 C541 1.369 1_455 S
C542 C551 1.429 . S
C543 C541 1.419 . S
C543 C544 1.363 1_655 S
C543 H546 0.929 . S
C544 C543 1.363 1_455 S
C544 C550 1.428 . S
H545 C541 0.930 . S
H546 C543 0.929 . S
S547 N548 1.613 . S
S547 N549 1.610 . S
N548 S547 1.613 . S
N548 C551 1.350 . S
N549 S547 1.610 . S
N549 C550 1.351 . S
C550 C544 1.428 . S
C550 N549 1.351 . S
C550 C551 1.434 . S
C551 C542 1.429 . S
C551 N548 1.350 . S
C551 C550 1.434 . S
C355 C25 0.681 . S
C357 C331 0.655 . S
C366 C65 0.629 . S
C368 C258 0.539 . S
C377 C105 0.712 . S
C379 C297 0.718 . S
C388 C4 0.715 . S
C390 C336 0.718 . S
C401 C253 0.558 . S
C399 C44 0.599 . S
C412 C292 0.655 . S
C410 C84 0.672 . S
C421 C60 3.028 . S
C423 C180 2.968 . S
C432 C100 3.193 . S
C434 C214 3.114 . S
C443 C31 3.209 . S
C445 C136 3.112 . S
C456 C175 3.121 . S
C454 C71 3.206 . S
C467 C219 2.983 . S
C465 C111 3.043 . S
C476 C20 3.033 . S
C478 C141 2.975 . S
C489 C199 1.871 . S
C487 C2 1.748 . S
C498 C42 1.779 . S
C500 C121 1.818 . S
C509 C82 1.770 . S
C511 C160 1.821 . S
C522 C277 1.056 . S
C520 C63 1.069 . S
C533 C316 1.118 . S
C531 C103 1.132 . S
C542 C23 1.029 . S
C544 C238 1.025 1_455 S
