# Generated by pormake.
# Topology cml, (3,6)-cn, num edge types: 1
# Building blocks:
#     Node 0, Type 0, BuildingBlock: MIDCAF_clean_linker_0, # of connection points: 3
#     Node 1, Type 0, BuildingBlock: MIDCAF_clean_linker_0, # of connection points: 3
#     Node 2, Type 0, BuildingBlock: MIDCAF_clean_linker_0, # of connection points: 3
#     Node 3, Type 0, BuildingBlock: MIDCAF_clean_linker_0, # of connection points: 3
#     Node 4, Type 0, BuildingBlock: MIDCAF_clean_linker_0, # of connection points: 3
#     Node 5, Type 0, BuildingBlock: MIDCAF_clean_linker_0, # of connection points: 3
#     Node 6, Type 0, BuildingBlock: MIDCAF_clean_linker_0, # of connection points: 3
#     Node 7, Type 0, BuildingBlock: MIDCAF_clean_linker_0, # of connection points: 3
#     Node 8, Type 1, BuildingBlock: OJICUG_clean_sbu_0, # of connection points: 6
#     Node 9, Type 1, BuildingBlock: OJICUG_clean_sbu_0, # of connection points: 6
#     Node 10, Type 1, BuildingBlock: OJICUG_clean_sbu_0, # of connection points: 6
#     Node 11, Type 1, BuildingBlock: OJICUG_clean_sbu_0, # of connection points: 6
#     Edge 12, Type (0, 1), BuildingBlock: ZUJKAS_clean_linker_0, # of connection points: 2
#     Edge 13, Type (0, 1), BuildingBlock: ZUJKAS_clean_linker_0, # of connection points: 2
#     Edge 14, Type (0, 1), BuildingBlock: ZUJKAS_clean_linker_0, # of connection points: 2
#     Edge 15, Type (0, 1), BuildingBlock: ZUJKAS_clean_linker_0, # of connection points: 2
#     Edge 16, Type (0, 1), BuildingBlock: ZUJKAS_clean_linker_0, # of connection points: 2
#     Edge 17, Type (0, 1), BuildingBlock: ZUJKAS_clean_linker_0, # of connection points: 2
#     Edge 18, Type (0, 1), BuildingBlock: ZUJKAS_clean_linker_0, # of connection points: 2
#     Edge 19, Type (0, 1), BuildingBlock: ZUJKAS_clean_linker_0, # of connection points: 2
#     Edge 20, Type (0, 1), BuildingBlock: ZUJKAS_clean_linker_0, # of connection points: 2
#     Edge 21, Type (0, 1), BuildingBlock: ZUJKAS_clean_linker_0, # of connection points: 2
#     Edge 22, Type (0, 1), BuildingBlock: ZUJKAS_clean_linker_0, # of connection points: 2
#     Edge 23, Type (0, 1), BuildingBlock: ZUJKAS_clean_linker_0, # of connection points: 2
#     Edge 24, Type (0, 1), BuildingBlock: ZUJKAS_clean_linker_0, # of connection points: 2
#     Edge 25, Type (0, 1), BuildingBlock: ZUJKAS_clean_linker_0, # of connection points: 2
#     Edge 26, Type (0, 1), BuildingBlock: ZUJKAS_clean_linker_0, # of connection points: 2
#     Edge 27, Type (0, 1), BuildingBlock: ZUJKAS_clean_linker_0, # of connection points: 2
#     Edge 28, Type (0, 1), BuildingBlock: ZUJKAS_clean_linker_0, # of connection points: 2
#     Edge 29, Type (0, 1), BuildingBlock: ZUJKAS_clean_linker_0, # of connection points: 2
#     Edge 30, Type (0, 1), BuildingBlock: ZUJKAS_clean_linker_0, # of connection points: 2
#     Edge 31, Type (0, 1), BuildingBlock: ZUJKAS_clean_linker_0, # of connection points: 2
#     Edge 32, Type (0, 1), BuildingBlock: ZUJKAS_clean_linker_0, # of connection points: 2
#     Edge 33, Type (0, 1), BuildingBlock: ZUJKAS_clean_linker_0, # of connection points: 2
#     Edge 34, Type (0, 1), BuildingBlock: ZUJKAS_clean_linker_0, # of connection points: 2
#     Edge 35, Type (0, 1), BuildingBlock: ZUJKAS_clean_linker_0, # of connection points: 2
# Relax obj value: 0.074
# Max RMSD: 0.086
# Mean RMSD: 0.082
data_MOF--net-cml--node1-OJICUG_clean_sbu_0--node2-MIDCAF_clean_linker_0--edge1-ZUJKAS_clean_linker_0
_symmetry_space_group_name_H-M    P1
_symmetry_Int_Tables_number       1
_symmetry_cell_setting            triclinic
loop_
_symmetry_equiv_pos_as_xyz
'x, y, z'
_cell_length_a     58.44277
_cell_length_b     58.880126
_cell_length_c     55.814931
_cell_angle_alpha  89.993442
_cell_angle_beta   90.014958
_cell_angle_gamma 89.969144
loop_
_atom_site_label
_atom_site_type_symbol
_atom_site_fract_x
_atom_site_fract_y
_atom_site_fract_z
_atom_type_partial_charge
C0 C 0.3009 0.40047 0.09207 0.0
C1 C 0.29475 0.37912 0.1013 0.0
C2 C 0.27723 0.36681 0.08994 0.0
C3 C 0.26647 0.37546 0.06947 0.0
H4 H 0.21674 0.36152 0.01876 0.0
H5 H 0.18989 0.33832 0.99607 0.0
H6 H 0.19381 0.38551 0.93698 0.0
H7 H 0.22085 0.40861 0.95938 0.0
H8 H 0.25426 0.44927 0.96101 0.0
H9 H 0.27395 0.48022 0.94067 0.0
H10 H 0.31657 0.49032 0.00301 0.0
H11 H 0.29673 0.45976 0.02355 0.0
H12 H 0.29576 0.42542 0.06491 0.0
H13 H 0.31455 0.41027 0.10015 0.0
H14 H 0.27193 0.35042 0.09677 0.0
H15 H 0.25329 0.36537 0.06094 0.0
N16 N 0.24656 0.39321 0.02558 0.0
N17 N 0.24704 0.41967 0.99416 0.0
N18 N 0.27151 0.42431 0.02698 0.0
C19 C 0.23836 0.40045 0.00408 0.0
C20 C 0.26356 0.43175 0.00552 0.0
C21 C 0.26311 0.40511 0.03718 0.0
C22 C 0.22109 0.38691 0.9909 0.0
C23 C 0.21184 0.36704 0.00098 0.0
C24 C 0.19635 0.35378 0.98803 0.0
C25 C 0.18983 0.36006 0.96471 0.0
C26 C 0.19877 0.38008 0.95478 0.0
C27 C 0.21418 0.39338 0.96773 0.0
C28 C 0.27401 0.45185 0.99388 0.0
C29 C 0.26764 0.45824 0.97052 0.0
C30 C 0.27899 0.47591 0.95879 0.0
C31 C 0.29689 0.48763 0.97018 0.0
C32 C 0.30268 0.4818 0.99382 0.0
C33 C 0.29139 0.46412 0.00554 0.0
C34 C 0.27307 0.39658 0.0599 0.0
C35 C 0.29019 0.40909 0.07168 0.0
C36 C 0.69346 0.5934 0.59189 0.0
C37 C 0.69963 0.61439 0.60196 0.0
C38 C 0.71731 0.62699 0.59127 0.0
C39 C 0.72826 0.61896 0.57065 0.0
H40 H 0.77614 0.63624 0.51961 0.0
H41 H 0.80394 0.6595 0.49827 0.0
H42 H 0.80688 0.60955 0.44168 0.0
H43 H 0.77945 0.58609 0.46305 0.0
H44 H 0.74289 0.54797 0.46042 0.0
H45 H 0.72308 0.51847 0.43795 0.0
H46 H 0.67639 0.50889 0.49708 0.0
H47 H 0.69635 0.53797 0.51976 0.0
H48 H 0.69877 0.56934 0.56389 0.0
H49 H 0.67968 0.58342 0.59947 0.0
H50 H 0.72261 0.64312 0.59877 0.0
H51 H 0.74159 0.62925 0.56267 0.0
N52 N 0.749 0.60231 0.52675 0.0
N53 N 0.74882 0.57698 0.49433 0.0
N54 N 0.72338 0.5717 0.52621 0.0
C55 C 0.75761 0.59566 0.50524 0.0
C56 C 0.73174 0.56488 0.5047 0.0
C57 C 0.73193 0.59034 0.53741 0.0
C58 C 0.77544 0.6093 0.49304 0.0
C59 C 0.78281 0.6301 0.50271 0.0
C60 C 0.79863 0.64352 0.49041 0.0
C61 C 0.80749 0.6364 0.46824 0.0
C62 C 0.80052 0.6154 0.45883 0.0
C63 C 0.78467 0.60201 0.47106 0.0
C64 C 0.72112 0.54553 0.49187 0.0
C65 C 0.72856 0.53942 0.46878 0.0
C66 C 0.71715 0.52258 0.45582 0.0
C67 C 0.69809 0.51145 0.46567 0.0
C68 C 0.69117 0.51697 0.48907 0.0
C69 C 0.70256 0.53379 0.50202 0.0
C70 C 0.72166 0.5982 0.56024 0.0
C71 C 0.70433 0.5854 0.57132 0.0
C72 C 0.6926 0.40491 0.08782 0.0
C73 C 0.69538 0.3824 0.09565 0.0
C74 C 0.71171 0.36859 0.08424 0.0
C75 C 0.72435 0.37689 0.06485 0.0
H76 H 0.77039 0.35768 0.01289 0.0
H77 H 0.79646 0.33329 0.99074 0.0
H78 H 0.81258 0.38897 0.9432 0.0
H79 H 0.786 0.41321 0.96488 0.0
H80 H 0.74771 0.45152 0.95947 0.0
H81 H 0.72942 0.48229 0.93743 0.0
H82 H 0.68369 0.49389 0.99698 0.0
H83 H 0.70213 0.46353 0.01922 0.0
H84 H 0.7022 0.43051 0.0627 0.0
H85 H 0.68052 0.41615 0.09656 0.0
H86 H 0.71417 0.35113 0.08977 0.0
H87 H 0.73634 0.36561 0.05605 0.0
N88 N 0.74906 0.39474 0.02378 0.0
N89 N 0.75186 0.42158 0.99285 0.0
N90 N 0.72583 0.42718 0.02416 0.0
C91 C 0.75889 0.40179 0.00299 0.0
C92 C 0.73535 0.43439 0.00333 0.0
C93 C 0.73261 0.40744 0.03456 0.0
C94 C 0.77598 0.38739 0.99061 0.0
C95 C 0.77959 0.3648 0.99782 0.0
C96 C 0.79463 0.35081 0.98515 0.0
C97 C 0.80655 0.35913 0.96511 0.0
C98 C 0.80335 0.38188 0.95827 0.0
C99 C 0.7882 0.39583 0.97082 0.0
C100 C 0.72624 0.45482 0.99105 0.0
C101 C 0.73398 0.46083 0.96804 0.0
C102 C 0.72343 0.4784 0.95533 0.0
C103 C 0.70499 0.4904 0.96537 0.0
C104 C 0.698 0.48513 0.9888 0.0
C105 C 0.7085 0.46756 0.0015 0.0
C106 C 0.72089 0.39917 0.05644 0.0
C107 C 0.70515 0.41318 0.06845 0.0
C108 C 0.30019 0.59431 0.59357 0.0
C109 C 0.29385 0.61518 0.60383 0.0
C110 C 0.27622 0.62784 0.59306 0.0
C111 C 0.2656 0.62006 0.57214 0.0
H112 H 0.21327 0.6338 0.52284 0.0
H113 H 0.18604 0.65758 0.50129 0.0
H114 H 0.19793 0.61853 0.43692 0.0
H115 H 0.2245 0.59439 0.45851 0.0
H116 H 0.2536 0.5504 0.46049 0.0
H117 H 0.27354 0.52069 0.43846 0.0
H118 H 0.31898 0.51061 0.49859 0.0
H119 H 0.29886 0.53989 0.52084 0.0
H120 H 0.29537 0.5706 0.56515 0.0
H121 H 0.31392 0.58427 0.60118 0.0
H122 H 0.27077 0.64387 0.60068 0.0
H123 H 0.25237 0.63043 0.56407 0.0
N124 N 0.24619 0.60433 0.52713 0.0
N125 N 0.24738 0.57956 0.49424 0.0
N126 N 0.27154 0.57346 0.52705 0.0
C127 C 0.23835 0.59814 0.50513 0.0
C128 C 0.26392 0.56707 0.5051 0.0
C129 C 0.26277 0.59201 0.53824 0.0
C130 C 0.22113 0.61217 0.49245 0.0
C131 C 0.20999 0.6302 0.50413 0.0
C132 C 0.19446 0.64394 0.49172 0.0
C133 C 0.18984 0.64002 0.46734 0.0
C134 C 0.2008 0.62183 0.45577 0.0
C135 C 0.21617 0.60803 0.46818 0.0
C136 C 0.27471 0.54772 0.49241 0.0
C137 C 0.26769 0.54171 0.46915 0.0
C138 C 0.27918 0.52475 0.45644 0.0
C139 C 0.29793 0.51339 0.46671 0.0
C140 C 0.30445 0.51885 0.49025 0.0
C141 C 0.29297 0.53579 0.50296 0.0
C142 C 0.27245 0.59948 0.56151 0.0
C143 C 0.28962 0.58655 0.57273 0.0
C144 C 0.7979 0.90009 0.09498 0.0
C145 C 0.79189 0.87859 0.1039 0.0
C146 C 0.77486 0.86606 0.09198 0.0
C147 C 0.76454 0.87462 0.07122 0.0
H148 H 0.71613 0.86032 0.01876 0.0
H149 H 0.68975 0.8373 0.9952 0.0
H150 H 0.69565 0.88454 0.93633 0.0
H151 H 0.72216 0.90742 0.95957 0.0
H152 H 0.75974 0.94413 0.95998 0.0
H153 H 0.7816 0.97346 0.93965 0.0
H154 H 0.81515 0.99039 0.00629 0.0
H155 H 0.79377 0.96062 0.02657 0.0
H156 H 0.79314 0.92504 0.06775 0.0
H157 H 0.81118 0.91006 0.10349 0.0
H158 H 0.76967 0.84954 0.09856 0.0
H159 H 0.75181 0.86433 0.06222 0.0
N160 N 0.74567 0.89223 0.02669 0.0
N161 N 0.74767 0.91812 0.99482 0.0
N162 N 0.77094 0.92309 0.02852 0.0
C163 C 0.73836 0.8992 0.00475 0.0
C164 C 0.7639 0.93021 0.00661 0.0
C165 C 0.76193 0.90416 0.03873 0.0
C166 C 0.7214 0.88571 0.99107 0.0
C167 C 0.71176 0.86588 0.00083 0.0
C168 C 0.69655 0.85272 0.98738 0.0
C169 C 0.69074 0.85906 0.96388 0.0
C170 C 0.70008 0.87904 0.95427 0.0
C171 C 0.71519 0.89223 0.9677 0.0
C172 C 0.77518 0.94979 0.99487 0.0
C173 C 0.77158 0.95424 0.9704 0.0
C174 C 0.78405 0.97118 0.95873 0.0
C175 C 0.8003 0.98413 0.97129 0.0
C176 C 0.80311 0.98039 0.99599 0.0
C177 C 0.79075 0.96338 0.00764 0.0
C178 C 0.77112 0.89584 0.0619 0.0
C179 C 0.78764 0.90861 0.0743 0.0
C180 C 0.19683 0.09373 0.59484 0.0
C181 C 0.2032 0.11472 0.60478 0.0
C182 C 0.22093 0.12714 0.59392 0.0
C183 C 0.23156 0.11904 0.57314 0.0
H184 H 0.28478 0.13095 0.52452 0.0
H185 H 0.31257 0.15429 0.50335 0.0
H186 H 0.29858 0.11748 0.43798 0.0
H187 H 0.27138 0.09372 0.45921 0.0
H188 H 0.23514 0.05537 0.45836 0.0
H189 H 0.21306 0.02706 0.43662 0.0
H190 H 0.18106 0.00599 0.50277 0.0
H191 H 0.2026 0.03472 0.52444 0.0
H192 H 0.2016 0.06965 0.56674 0.0
H193 H 0.18304 0.08385 0.60255 0.0
H194 H 0.2264 0.14325 0.60131 0.0
H195 H 0.24481 0.12927 0.56494 0.0
N196 N 0.2508 0.10283 0.52831 0.0
N197 N 0.24863 0.07858 0.49504 0.0
N198 N 0.22474 0.07259 0.52809 0.0
C199 C 0.25826 0.09674 0.50615 0.0
C200 C 0.23195 0.06635 0.50594 0.0
C201 C 0.23404 0.09079 0.53943 0.0
C202 C 0.27578 0.11046 0.49359 0.0
C203 C 0.2877 0.12775 0.50566 0.0
C204 C 0.30355 0.14123 0.49348 0.0
C205 C 0.30774 0.13783 0.46893 0.0
C206 C 0.29603 0.12036 0.45696 0.0
C207 C 0.2803 0.10679 0.46915 0.0
C208 C 0.22046 0.04752 0.49313 0.0
C209 C 0.22358 0.04456 0.46834 0.0
C210 C 0.21098 0.02823 0.45585 0.0
C211 C 0.19511 0.01441 0.46791 0.0
C212 C 0.19277 0.0167 0.49286 0.0
C213 C 0.20523 0.03312 0.50531 0.0
C214 C 0.2246 0.09839 0.56274 0.0
C215 C 0.2074 0.08565 0.57413 0.0
C216 C 0.19619 0.90277 0.09441 0.0
C217 C 0.19928 0.88013 0.10169 0.0
C218 C 0.21463 0.86631 0.08895 0.0
C219 C 0.22624 0.87479 0.06896 0.0
H220 H 0.27209 0.85704 0.01671 0.0
H221 H 0.29832 0.83319 0.99416 0.0
H222 H 0.31007 0.88813 0.94432 0.0
H223 H 0.28333 0.91184 0.96646 0.0
H224 H 0.24579 0.95044 0.96363 0.0
H225 H 0.22665 0.98103 0.94214 0.0
H226 H 0.18086 0.99067 0.00203 0.0
H227 H 0.20016 0.96046 0.02374 0.0
H228 H 0.20444 0.92859 0.06896 0.0
H229 H 0.18428 0.91377 0.10371 0.0
H230 H 0.21749 0.84885 0.0943 0.0
H231 H 0.23762 0.86354 0.05928 0.0
N232 N 0.24952 0.89329 0.02742 0.0
N233 N 0.25064 0.92001 0.9963 0.0
N234 N 0.22559 0.92522 0.02857 0.0
C235 C 0.25845 0.90043 0.00624 0.0
C236 C 0.23423 0.93253 0.00735 0.0
C237 C 0.23318 0.90567 0.03878 0.0
C238 C 0.27549 0.88636 0.99337 0.0
C239 C 0.28034 0.86413 0.00103 0.0
C240 C 0.29548 0.85045 0.98814 0.0
C241 C 0.30626 0.85872 0.96738 0.0
C242 C 0.30176 0.8811 0.95999 0.0
C243 C 0.28651 0.89474 0.97279 0.0
C244 C 0.22438 0.95276 0.99535 0.0
C245 C 0.23184 0.95925 0.97239 0.0
C246 C 0.22081 0.97673 0.95999 0.0
C247 C 0.20213 0.98814 0.97029 0.0
C248 C 0.19534 0.98236 0.99366 0.0
C249 C 0.20634 0.96489 0.00606 0.0
C250 C 0.22255 0.89723 0.06117 0.0
C251 C 0.20764 0.9112 0.07435 0.0
C252 C 0.79755 0.09259 0.59505 0.0
C253 C 0.79436 0.11509 0.60272 0.0
C254 C 0.77908 0.12909 0.59007 0.0
C255 C 0.76768 0.12091 0.56979 0.0
H256 H 0.71864 0.13723 0.51924 0.0
H257 H 0.69176 0.16078 0.49693 0.0
H258 H 0.6888 0.11008 0.44109 0.0
H259 H 0.71529 0.08632 0.46344 0.0
H260 H 0.74997 0.04642 0.46303 0.0
H261 H 0.7696 0.01622 0.44143 0.0
H262 H 0.81549 0.00703 0.50134 0.0
H263 H 0.79569 0.0368 0.52317 0.0
H264 H 0.78963 0.06718 0.56907 0.0
H265 H 0.80942 0.08145 0.60424 0.0
H266 H 0.77615 0.14646 0.5957 0.0
H267 H 0.75637 0.13229 0.56016 0.0
N268 N 0.74489 0.10284 0.52753 0.0
N269 N 0.74467 0.07665 0.49587 0.0
N270 N 0.76931 0.07126 0.52844 0.0
C271 C 0.73639 0.09593 0.50605 0.0
C272 C 0.7611 0.06419 0.50694 0.0
C273 C 0.76127 0.0905 0.5389 0.0
C274 C 0.71924 0.10987 0.49314 0.0
C275 C 0.71218 0.131 0.50228 0.0
C276 C 0.69688 0.14459 0.48943 0.0
C277 C 0.68826 0.13733 0.4672 0.0
C278 C 0.69497 0.11605 0.45827 0.0
C279 C 0.71029 0.10249 0.47107 0.0
C280 C 0.77137 0.04426 0.49479 0.0
C281 C 0.76406 0.03779 0.47176 0.0
C282 C 0.77538 0.02055 0.45929 0.0
C283 C 0.79421 0.00936 0.46958 0.0
C284 C 0.80089 0.01515 0.49298 0.0
C285 C 0.7896 0.03237 0.50545 0.0
C286 C 0.77152 0.09862 0.56163 0.0
C287 C 0.78632 0.08447 0.57473 0.0
Sc288 Sc 0.99656 0.80093 0.30814 0.0
Sc289 Sc 0.99524 0.86088 0.3109 0.0
Sc290 Sc 0.99746 0.82893 0.36399 0.0
O291 O 0.99643 0.83022 0.32765 0.0
C292 C 0.96411 0.78749 0.35172 0.0
C293 C 0.96042 0.83161 0.27962 0.0
C294 C 0.96182 0.86899 0.35546 0.0
C295 C 0.02921 0.83278 0.27709 0.0
C296 C 0.03223 0.78948 0.34994 0.0
C297 C 0.03052 0.8709 0.35301 0.0
O298 O 0.97063 0.78524 0.33011 0.0
O299 O 0.96769 0.85032 0.28803 0.0
O300 O 0.96985 0.85275 0.36788 0.0
O301 O 0.0227 0.8133 0.28417 0.0
O302 O 0.02505 0.80487 0.36401 0.0
O303 O 0.02273 0.8747 0.33212 0.0
O304 O 0.02339 0.78577 0.32947 0.0
O305 O 0.02047 0.85116 0.28479 0.0
O306 O 0.02264 0.8554 0.36652 0.0
O307 O 0.9695 0.81255 0.2847 0.0
O308 O 0.97253 0.80223 0.3658 0.0
O309 O 0.96968 0.87423 0.33495 0.0
Sc310 Sc -0.00171 0.19508 0.8079 0.0
Sc311 Sc -0.00064 0.13522 0.81247 0.0
Sc312 Sc -0.00098 0.16855 0.86464 0.0
O313 O -0.00113 0.16632 0.82832 0.0
C314 C 0.03248 0.20903 0.85011 0.0
C315 C 0.03365 0.16355 0.77948 0.0
C316 C 0.03366 0.12749 0.85624 0.0
C317 C 0.96471 0.16247 0.7787 0.0
C318 C 0.96421 0.20818 0.85037 0.0
C319 C 0.96483 0.12711 0.85588 0.0
O320 O 0.02441 0.21153 0.8291 0.0
O321 O 0.02605 0.14507 0.78816 0.0
O322 O 0.0257 0.14372 0.86869 0.0
O323 O 0.97196 0.18209 0.78445 0.0
O324 O 0.97255 0.1938 0.86493 0.0
O325 O 0.97265 0.1222 0.83526 0.0
O326 O 0.97152 0.21053 0.82904 0.0
O327 O 0.97313 0.14431 0.78727 0.0
O328 O 0.97279 0.14321 0.86856 0.0
O329 O 0.02518 0.18287 0.78462 0.0
O330 O 0.02512 0.19413 0.86465 0.0
O331 O 0.02577 0.12233 0.83574 0.0
Sc332 Sc 0.49776 0.30033 0.30712 0.0
Sc333 Sc 0.49688 0.36034 0.30965 0.0
Sc334 Sc 0.49743 0.3286 0.36289 0.0
O335 O 0.49737 0.32972 0.32653 0.0
C336 C 0.46359 0.288 0.34988 0.0
C337 C 0.46248 0.3311 0.27767 0.0
C338 C 0.4629 0.36958 0.35327 0.0
C339 C 0.53138 0.33194 0.27679 0.0
C340 C 0.5318 0.28819 0.34993 0.0
C341 C 0.53176 0.36956 0.35256 0.0
O342 O 0.47165 0.28465 0.32899 0.0
O343 O 0.47013 0.34981 0.28573 0.0
O344 O 0.47101 0.3538 0.36625 0.0
O345 O 0.5241 0.31251 0.28319 0.0
O346 O 0.52364 0.30309 0.36401 0.0
O347 O 0.52364 0.37407 0.33196 0.0
O348 O 0.52444 0.2853 0.3287 0.0
O349 O 0.52302 0.35038 0.28475 0.0
O350 O 0.52397 0.35372 0.36571 0.0
O351 O 0.4709 0.31193 0.28346 0.0
O352 O 0.47103 0.30336 0.36383 0.0
O353 O 0.47056 0.37399 0.33249 0.0
Sc354 Sc 0.4976 0.69592 0.80781 0.0
Sc355 Sc 0.49769 0.63607 0.81284 0.0
Sc356 Sc 0.50005 0.66983 0.86467 0.0
O357 O 0.49844 0.6673 0.82842 0.0
C358 C 0.53364 0.70954 0.8485 0.0
C359 C 0.53102 0.6637 0.77796 0.0
C360 C 0.5338 0.62819 0.85485 0.0
C361 C 0.46207 0.66363 0.78064 0.0
C362 C 0.46535 0.70992 0.8514 0.0
C363 C 0.46499 0.62886 0.85805 0.0
O364 O 0.52451 0.7123 0.828 0.0
O365 O 0.523 0.64541 0.78667 0.0
O366 O 0.52618 0.64428 0.86775 0.0
O367 O 0.47048 0.68305 0.78529 0.0
O368 O 0.47431 0.69582 0.86587 0.0
O369 O 0.47229 0.6233 0.8374 0.0
O370 O 0.4716 0.71172 0.82966 0.0
O371 O 0.47004 0.64534 0.78941 0.0
O372 O 0.47328 0.64534 0.86991 0.0
O373 O 0.52363 0.68325 0.78386 0.0
O374 O 0.52686 0.69461 0.86331 0.0
O375 O 0.52533 0.62326 0.83453 0.0
H376 H 0.15053 0.33945 0.97993 0.0
H377 H 0.12523 0.31456 0.95684 0.0
H378 H 0.16796 0.32333 0.89456 0.0
H379 H 0.19362 0.34787 0.91763 0.0
H380 H 0.10142 0.32484 0.91253 0.0
H381 H 0.16316 0.25324 0.9043 0.0
H382 H 0.1665 0.27556 0.9262 0.0
H383 H 0.17338 0.28077 0.89535 0.0
C384 C 0.15462 0.33595 0.96137 0.0
C385 C 0.1741 0.34553 0.95061 0.0
C386 C 0.14009 0.32188 0.94818 0.0
C387 C 0.14491 0.317 0.92412 0.0
C388 C 0.16414 0.32674 0.9132 0.0
H389 H 0.04866 0.24759 0.82819 0.0
H390 H 0.07699 0.2744 0.8439 0.0
C391 C 0.17864 0.34089 0.92635 0.0
C392 C 0.12978 0.30159 0.91054 0.0
H393 H 0.12745 0.24892 0.88515 0.0
C394 C 0.1071 0.3083 0.90636 0.0
C395 C 0.13732 0.28001 0.90273 0.0
C396 C 0.16136 0.27178 0.90747 0.0
C397 C 0.0916 0.29383 0.89475 0.0
C398 C 0.09913 0.27222 0.887 0.0
C399 C 0.12188 0.26561 0.89095 0.0
C400 C 0.08313 0.25554 0.87655 0.0
C401 C 0.06711 0.30139 0.8916 0.0
C402 C 0.07776 0.23585 0.88944 0.0
C403 C 0.06167 0.22054 0.88058 0.0
C404 C 0.0507 0.22458 0.85853 0.0
C405 C 0.05671 0.244 0.84525 0.0
C406 C 0.0728 0.25939 0.85423 0.0
H407 H 0.06319 0.31692 0.90214 0.0
H408 H 0.06391 0.30514 0.87241 0.0
H409 H 0.05515 0.2877 0.89712 0.0
H410 H 0.08566 0.23258 0.90667 0.0
H411 H 0.05762 0.20569 0.89121 0.0
H412 H 0.80487 0.68227 0.46137 0.0
H413 H 0.83121 0.70638 0.43875 0.0
H414 H 0.87228 0.6478 0.42131 0.0
H415 H 0.84633 0.62361 0.44444 0.0
H416 H 0.89749 0.68487 0.43809 0.0
H417 H 0.83793 0.71036 0.36548 0.0
H418 H 0.82689 0.71508 0.39509 0.0
H419 H 0.83241 0.68658 0.38509 0.0
C420 C 0.81959 0.67454 0.45285 0.0
C421 C 0.82354 0.65104 0.45466 0.0
C422 C 0.83444 0.68828 0.43968 0.0
C423 C 0.85341 0.67877 0.42803 0.0
C424 C 0.85756 0.65538 0.42999 0.0
H425 H 0.94356 0.75139 0.32909 0.0
H426 H 0.91673 0.72403 0.34652 0.0
C427 C 0.8427 0.64161 0.44311 0.0
C428 C 0.86949 0.69343 0.41468 0.0
H429 H 0.87277 0.73138 0.36856 0.0
C430 C 0.89215 0.6949 0.42276 0.0
C431 C 0.86251 0.70623 0.39451 0.0
C432 C 0.83866 0.70437 0.38434 0.0
C433 C 0.90788 0.70948 0.41171 0.0
C434 C 0.9006 0.72311 0.39229 0.0
C435 C 0.87817 0.72105 0.38363 0.0
C436 C 0.91589 0.74014 0.38133 0.0
C437 C 0.93214 0.71023 0.42093 0.0
C438 C 0.92374 0.7585 0.395 0.0
C439 C 0.93899 0.77413 0.38518 0.0
C440 C 0.94665 0.77174 0.3614 0.0
C441 C 0.93811 0.75369 0.34748 0.0
C442 C 0.9228 0.73805 0.35738 0.0
H443 H 0.93649 0.69477 0.43142 0.0
H444 H 0.94453 0.71192 0.40595 0.0
H445 H 0.93418 0.72517 0.43286 0.0
H446 H 0.91822 0.76063 0.4134 0.0
H447 H 0.945 0.7879 0.39639 0.0
H448 H 0.81182 0.35723 0.91634 0.0
H449 H 0.83671 0.33185 0.89338 0.0
H450 H 0.86032 0.30106 0.95895 0.0
H451 H 0.83604 0.32674 0.98215 0.0
H452 H 0.88716 0.32593 0.8996 0.0
H453 H 0.83611 0.24767 0.91506 0.0
H454 H 0.82425 0.27586 0.9183 0.0
H455 H 0.84232 0.26431 0.94129 0.0
C456 C 0.82251 0.34526 0.92592 0.0
C457 C 0.82189 0.34399 0.95111 0.0
C458 C 0.83658 0.3307 0.91275 0.0
C459 C 0.85005 0.31448 0.92451 0.0
C460 C 0.84971 0.31327 0.94959 0.0
H461 H 0.94658 0.21035 0.89562 0.0
H462 H 0.9179 0.23654 0.91092 0.0
C463 C 0.83577 0.32791 0.96279 0.0
C464 C 0.86477 0.29891 0.91067 0.0
H465 H 0.87297 0.24286 0.89797 0.0
C466 C 0.884 0.30778 0.89895 0.0
C467 C 0.86044 0.27533 0.90993 0.0
C468 C 0.83957 0.26514 0.92164 0.0
C469 C 0.8997 0.29347 0.88736 0.0
C470 C 0.89566 0.26977 0.88709 0.0
C471 C 0.876 0.26103 0.8982 0.0
C472 C 0.91247 0.25356 0.87704 0.0
C473 C 0.92097 0.30372 0.8765 0.0
C474 C 0.91866 0.25419 0.85275 0.0
C475 C 0.93525 0.23926 0.84388 0.0
C476 C 0.94576 0.22332 0.85915 0.0
C477 C 0.93895 0.2224 0.88331 0.0
C478 C 0.92251 0.23735 0.89213 0.0
H479 H 0.9239 0.32138 0.8828 0.0
H480 H 0.9363 0.29337 0.88091 0.0
H481 H 0.91915 0.30414 0.85672 0.0
H482 H 0.91073 0.26627 0.8407 0.0
H483 H 0.93995 0.24032 0.82514 0.0
H484 H 0.15836 0.62798 0.43322 0.0
H485 H 0.13366 0.65304 0.40977 0.0
H486 H 0.15991 0.71101 0.44817 0.0
H487 H 0.18551 0.68625 0.47083 0.0
H488 H 0.09986 0.68089 0.42455 0.0
H489 H 0.16725 0.73146 0.37955 0.0
H490 H 0.17341 0.70544 0.3954 0.0
H491 H 0.16995 0.73167 0.41156 0.0
C492 C 0.15915 0.6461 0.43643 0.0
C493 C 0.17407 0.65511 0.45379 0.0
C494 C 0.14491 0.66037 0.42312 0.0
C495 C 0.1453 0.68392 0.42688 0.0
C496 C 0.15977 0.69294 0.44454 0.0
H497 H 0.06081 0.79655 0.38794 0.0
H498 H 0.08911 0.77028 0.40443 0.0
C499 C 0.17413 0.6787 0.45776 0.0
C500 C 0.12993 0.69896 0.41296 0.0
H501 H 0.12909 0.74616 0.37736 0.0
C502 C 0.10627 0.69499 0.414 0.0
C503 C 0.13836 0.71729 0.39911 0.0
C504 C 0.16365 0.72161 0.39611 0.0
C505 C 0.09076 0.70932 0.4022 0.0
C506 C 0.09918 0.72799 0.38902 0.0
C507 C 0.1228 0.73179 0.38758 0.0
C508 C 0.08349 0.74438 0.37763 0.0
C509 C 0.06543 0.70486 0.40443 0.0
C510 C 0.07143 0.73859 0.35681 0.0
C511 C 0.0553 0.75359 0.34722 0.0
C512 C 0.0509 0.77453 0.35847 0.0
C513 C 0.06364 0.7805 0.37893 0.0
C514 C 0.07986 0.76557 0.38835 0.0
H515 H 0.0616 0.69103 0.41736 0.0
H516 H 0.05642 0.72053 0.41026 0.0
H517 H 0.05845 0.69999 0.38666 0.0
H518 H 0.07418 0.72228 0.34829 0.0
H519 H 0.04579 0.74846 0.33146 0.0
H520 H 0.69581 0.84693 0.91694 0.0
H521 H 0.67028 0.82326 0.89275 0.0
H522 H 0.62569 0.81462 0.95362 0.0
H523 H 0.65087 0.83867 0.97781 0.0
H524 H 0.65745 0.7777 0.90198 0.0
H525 H 0.5824 0.83542 0.89924 0.0
H526 H 0.61071 0.84497 0.90744 0.0
H527 H 0.59322 0.83023 0.92887 0.0
C528 C 0.68041 0.84023 0.92508 0.0
C529 C 0.67526 0.84474 0.94924 0.0
C530 C 0.66594 0.82663 0.91128 0.0
C531 C 0.64599 0.8175 0.92134 0.0
C532 C 0.64084 0.82186 0.94545 0.0
H533 H 0.56165 0.70484 0.88733 0.0
H534 H 0.59053 0.73136 0.9017 0.0
C535 C 0.65534 0.83538 0.9593 0.0
C536 C 0.63094 0.8027 0.9069 0.0
H537 H 0.57604 0.79706 0.88701 0.0
C538 C 0.63972 0.78201 0.89846 0.0
C539 C 0.60795 0.80858 0.90204 0.0
C540 C 0.59802 0.8311 0.90966 0.0
C541 C 0.62575 0.76654 0.88619 0.0
C542 C 0.60243 0.77187 0.88252 0.0
C543 C 0.59392 0.79299 0.89 0.0
C544 C 0.58617 0.75516 0.87253 0.0
C545 C 0.63598 0.7445 0.87748 0.0
C546 C 0.57404 0.75988 0.85141 0.0
C547 C 0.5574 0.74473 0.8431 0.0
C548 C 0.55244 0.72479 0.856 0.0
C549 C 0.56496 0.72004 0.87695 0.0
C550 C 0.58162 0.73509 0.88513 0.0
H551 H 0.65485 0.74577 0.8755 0.0
H552 H 0.6323 0.73092 0.89072 0.0
H553 H 0.62847 0.73939 0.86002 0.0
H554 H 0.57725 0.7754 0.84156 0.0
H555 H 0.54804 0.74895 0.82696 0.0
H556 H 0.33848 0.12576 0.43402 0.0
H557 H 0.36433 0.15071 0.41169 0.0
H558 H 0.33974 0.20833 0.45175 0.0
H559 H 0.31335 0.18376 0.47369 0.0
H560 H 0.35037 0.1937 0.38446 0.0
H561 H 0.41245 0.20607 0.45896 0.0
H562 H 0.39337 0.18196 0.45756 0.0
H563 H 0.38262 0.2093 0.46621 0.0
C564 C 0.33839 0.14377 0.43795 0.0
C565 C 0.32388 0.15275 0.45571 0.0
C566 C 0.35323 0.15794 0.42524 0.0
C567 C 0.35395 0.18124 0.43025 0.0
C568 C 0.33953 0.19031 0.44787 0.0
H569 H 0.43505 0.29562 0.38765 0.0
H570 H 0.40742 0.26943 0.40514 0.0
C571 C 0.32459 0.17621 0.46048 0.0
C572 C 0.3698 0.19619 0.4171 0.0
H573 H 0.41772 0.2284 0.42428 0.0
C574 C 0.36519 0.20124 0.39303 0.0
C575 C 0.389 0.20591 0.42849 0.0
C576 C 0.39487 0.20049 0.45419 0.0
C577 C 0.37905 0.21641 0.38013 0.0
C578 C 0.39822 0.22628 0.39158 0.0
C579 C 0.40296 0.22087 0.41558 0.0
C580 C 0.41344 0.24266 0.37933 0.0
C581 C 0.37262 0.22227 0.35469 0.0
C582 C 0.42579 0.2364 0.3588 0.0
C583 C 0.44151 0.25145 0.34857 0.0
C584 C 0.44539 0.27286 0.359 0.0
C585 C 0.43261 0.2792 0.37927 0.0
C586 C 0.41679 0.26427 0.3893 0.0
H587 H 0.35445 0.21811 0.35082 0.0
H588 H 0.37544 0.24059 0.35101 0.0
H589 H 0.38346 0.21231 0.3422 0.0
H590 H 0.42381 0.21963 0.35111 0.0
H591 H 0.45121 0.246 0.33307 0.0
H592 H 0.3099 0.85545 0.91852 0.0
H593 H 0.33519 0.83049 0.8955 0.0
H594 H 0.36266 0.8032 0.96115 0.0
H595 H 0.33796 0.82847 0.98436 0.0
H596 H 0.3859 0.82706 0.89953 0.0
H597 H 0.33952 0.74718 0.92073 0.0
H598 H 0.32647 0.77489 0.92349 0.0
H599 H 0.34605 0.765 0.94599 0.0
C600 C 0.32152 0.84435 0.92809 0.0
C601 C 0.32185 0.84391 0.95331 0.0
C602 C 0.33582 0.83002 0.9149 0.0
C603 C 0.35049 0.81488 0.92669 0.0
C604 C 0.35112 0.81455 0.95179 0.0
H605 H 0.45048 0.7139 0.89759 0.0
H606 H 0.42172 0.7398 0.91333 0.0
C607 C 0.33695 0.82894 0.965 0.0
C608 C 0.3654 0.79948 0.91286 0.0
H609 H 0.37596 0.74341 0.90235 0.0
C610 C 0.38366 0.80878 0.89985 0.0
C611 C 0.36227 0.77571 0.91339 0.0
C612 C 0.34242 0.76502 0.92647 0.0
C613 C 0.39959 0.79476 0.8882 0.0
C614 C 0.39678 0.77091 0.88922 0.0
C615 C 0.37806 0.7617 0.90162 0.0
C616 C 0.4139 0.7551 0.87905 0.0
C617 C 0.41983 0.80555 0.87585 0.0
C618 C 0.41883 0.75492 0.85444 0.0
C619 C 0.43545 0.74016 0.84532 0.0
C620 C 0.44723 0.7252 0.86065 0.0
C621 C 0.44181 0.72517 0.88521 0.0
C622 C 0.42534 0.73996 0.89428 0.0
H623 H 0.42212 0.82358 0.88121 0.0
H624 H 0.43583 0.79614 0.87996 0.0
H625 H 0.41713 0.80504 0.85618 0.0
H626 H 0.40983 0.76616 0.84231 0.0
H627 H 0.43906 0.7405 0.82629 0.0
H628 H 0.6496 0.12482 0.44292 0.0
H629 H 0.62411 0.14915 0.41937 0.0
H630 H 0.66567 0.20736 0.43674 0.0
H631 H 0.69157 0.1831 0.45978 0.0
H632 H 0.5992 0.1864 0.43595 0.0
H633 H 0.65906 0.21147 0.36351 0.0
H634 H 0.66441 0.18766 0.38315 0.0
H635 H 0.67005 0.21614 0.39316 0.0
C636 C 0.65346 0.14276 0.44146 0.0
C637 C 0.67262 0.15205 0.45315 0.0
C638 C 0.63885 0.15662 0.4281 0.0
C639 C 0.64324 0.17995 0.42603 0.0
C640 C 0.66225 0.18931 0.43775 0.0
H641 H 0.55227 0.28962 0.39394 0.0
H642 H 0.57948 0.26263 0.41079 0.0
C643 C 0.67685 0.17548 0.45116 0.0
C644 C 0.6273 0.19474 0.41261 0.0
H645 H 0.62429 0.23267 0.36643 0.0
C646 C 0.60462 0.19637 0.42063 0.0
C647 C 0.63438 0.20749 0.39245 0.0
C648 C 0.65825 0.20549 0.38237 0.0
C649 C 0.589 0.21104 0.40952 0.0
C650 C 0.59638 0.22459 0.39009 0.0
C651 C 0.61882 0.22239 0.3815 0.0
C652 C 0.58113 0.24164 0.37905 0.0
C653 C 0.56473 0.212 0.41869 0.0
C654 C 0.57372 0.23917 0.3553 0.0
C655 C 0.55813 0.25463 0.34549 0.0
C656 C 0.54983 0.27286 0.35931 0.0
C657 C 0.55809 0.2757 0.38281 0.0
C658 C 0.5736 0.26025 0.39255 0.0
H659 H 0.56034 0.19674 0.42947 0.0
H660 H 0.5627 0.22716 0.43031 0.0
H661 H 0.55237 0.21347 0.40365 0.0
H662 H 0.57953 0.22495 0.34458 0.0
H663 H 0.55222 0.25198 0.32732 0.0
H664 H 0.31253 0.52855 0.98676 0.0
H665 H 0.33844 0.55488 0.96639 0.0
H666 H 0.3382 0.51185 0.90387 0.0
H667 H 0.31247 0.48539 0.92411 0.0
H668 H 0.38195 0.54273 0.95011 0.0
H669 H 0.32842 0.57537 0.87547 0.0
H670 H 0.31638 0.56147 0.90142 0.0
H671 H 0.3291 0.54495 0.87784 0.0
C672 C 0.31785 0.5248 0.9686 0.0
C673 C 0.31048 0.50488 0.95705 0.0
C674 C 0.33254 0.53989 0.95696 0.0
C675 C 0.34001 0.53542 0.93355 0.0
C676 C 0.33222 0.51587 0.92174 0.0
H677 H 0.44321 0.59151 0.8395 0.0
H678 H 0.41255 0.56932 0.85797 0.0
C679 C 0.31752 0.50077 0.93335 0.0
C680 C 0.3575 0.55008 0.9223 0.0
H681 H 0.36834 0.58334 0.87352 0.0
C682 C 0.37893 0.55179 0.93347 0.0
C683 C 0.35351 0.56167 0.90051 0.0
C684 C 0.33055 0.56099 0.88817 0.0
C685 C 0.39669 0.56447 0.92321 0.0
C686 C 0.39272 0.57606 0.90141 0.0
C687 C 0.37128 0.57441 0.89023 0.0
C688 C 0.41072 0.58995 0.88997 0.0
C689 C 0.41971 0.56487 0.93546 0.0
C690 C 0.41953 0.60908 0.90173 0.0
C691 C 0.43708 0.62174 0.89132 0.0
C692 C 0.44607 0.6156 0.86884 0.0
C693 C 0.43681 0.59667 0.85687 0.0
C694 C 0.41925 0.58399 0.86735 0.0
H695 H 0.42157 0.55074 0.94852 0.0
H696 H 0.43381 0.56371 0.92218 0.0
H697 H 0.42162 0.5811 0.94536 0.0
H698 H 0.41285 0.61417 0.91902 0.0
H699 H 0.44361 0.63632 0.90097 0.0
H700 H 0.68581 0.5152 0.41857 0.0
H701 H 0.66072 0.49002 0.39571 0.0
H702 H 0.6539 0.44626 0.45724 0.0
H703 H 0.67958 0.47096 0.48005 0.0
H704 H 0.65992 0.42299 0.41271 0.0
H705 H 0.59125 0.48837 0.40871 0.0
H706 H 0.6187 0.49715 0.39757 0.0
H707 H 0.61534 0.4906 0.42881 0.0
C708 C 0.67934 0.49998 0.42711 0.0
C709 C 0.68456 0.49514 0.45119 0.0
C710 C 0.66482 0.48577 0.41409 0.0
C711 C 0.65518 0.46655 0.42496 0.0
C712 C 0.66107 0.46113 0.44863 0.0
H713 H 0.55433 0.36475 0.39524 0.0
H714 H 0.58558 0.38787 0.41075 0.0
C715 C 0.6756 0.47533 0.46167 0.0
C716 C 0.63823 0.45255 0.41202 0.0
H717 H 0.5842 0.45377 0.38886 0.0
C718 C 0.64339 0.42969 0.4074 0.0
C719 C 0.61672 0.46143 0.40513 0.0
C720 C 0.61 0.48567 0.41043 0.0
C721 C 0.62752 0.41541 0.39607 0.0
C722 C 0.60584 0.42419 0.38961 0.0
C723 C 0.60087 0.44715 0.3938 0.0
C724 C 0.58761 0.40962 0.37958 0.0
C725 C 0.6341 0.3911 0.39101 0.0
C726 C 0.57808 0.4145 0.3571 0.0
C727 C 0.56005 0.40141 0.34819 0.0
C728 C 0.55111 0.3833 0.36173 0.0
C729 C 0.56078 0.3785 0.38427 0.0
C730 C 0.57879 0.39158 0.39312 0.0
H731 H 0.65298 0.38888 0.39064 0.0
H732 H 0.62717 0.38004 0.40537 0.0
H733 H 0.62694 0.38529 0.37363 0.0
H734 H 0.58457 0.4285 0.34649 0.0
H735 H 0.55304 0.40561 0.33078 0.0
H736 H 0.69184 0.48657 0.91859 0.0
H737 H 0.66654 0.51186 0.89613 0.0
H738 H 0.66199 0.5564 0.95728 0.0
H739 H 0.68787 0.53157 0.97965 0.0
H740 H 0.6221 0.52113 0.91017 0.0
H741 H 0.67199 0.60083 0.90195 0.0
H742 H 0.68506 0.57393 0.9094 0.0
H743 H 0.67042 0.59011 0.93202 0.0
C744 C 0.686 0.50209 0.92704 0.0
C745 C 0.69187 0.50708 0.95091 0.0
C746 C 0.67143 0.51643 0.91423 0.0
C747 C 0.66258 0.53609 0.92496 0.0
C748 C 0.66895 0.54152 0.94851 0.0
H749 H 0.55586 0.63265 0.89787 0.0
H750 H 0.58771 0.61006 0.9131 0.0
C751 C 0.68353 0.52718 0.96136 0.0
C752 C 0.64498 0.5497 0.91242 0.0
H753 H 0.63192 0.60334 0.8937 0.0
C754 C 0.62433 0.53905 0.90628 0.0
C755 C 0.64796 0.57307 0.9075 0.0
C756 C 0.67013 0.58514 0.91285 0.0
C757 C 0.60622 0.5513 0.89605 0.0
C758 C 0.60904 0.57475 0.8915 0.0
C759 C 0.62984 0.58535 0.89725 0.0
C760 C 0.59024 0.58875 0.88166 0.0
C761 C 0.58394 0.53924 0.89105 0.0
C762 C 0.58133 0.5844 0.85878 0.0
C763 C 0.56301 0.59721 0.85001 0.0
C764 C 0.55339 0.61471 0.86393 0.0
C765 C 0.56273 0.61926 0.88668 0.0
C766 C 0.581 0.60642 0.89542 0.0
H767 H 0.58289 0.52265 0.90048 0.0
H768 H 0.56914 0.54985 0.89656 0.0
H769 H 0.58248 0.53598 0.87153 0.0
H770 H 0.58852 0.57106 0.84773 0.0
H771 H 0.55641 0.59335 0.83234 0.0
H772 H 0.31584 0.47276 0.48159 0.0
H773 H 0.34151 0.44762 0.45929 0.0
H774 H 0.33597 0.49114 0.39742 0.0
H775 H 0.31093 0.51677 0.41978 0.0
H776 H 0.33578 0.42412 0.41505 0.0
H777 H 0.40519 0.4886 0.411 0.0
H778 H 0.38092 0.49135 0.43078 0.0
H779 H 0.378 0.49773 0.39945 0.0
C780 C 0.32011 0.47699 0.46325 0.0
C781 C 0.31152 0.49687 0.45253 0.0
C782 C 0.33464 0.46254 0.4505 0.0
C783 C 0.34088 0.46776 0.42688 0.0
C784 C 0.33161 0.48704 0.41578 0.0
H785 H 0.44142 0.40576 0.33196 0.0
H786 H 0.41033 0.42885 0.34829 0.0
C787 C 0.31711 0.50152 0.42851 0.0
C788 C 0.35777 0.45344 0.4142 0.0
H789 H 0.41174 0.45398 0.3909 0.0
C790 C 0.35238 0.43062 0.40971 0.0
C791 C 0.37937 0.46204 0.40728 0.0
C792 C 0.38638 0.48621 0.41251 0.0
C793 C 0.36807 0.41612 0.39837 0.0
C794 C 0.38979 0.42465 0.39177 0.0
C795 C 0.39503 0.44755 0.39594 0.0
C796 C 0.40774 0.40993 0.38141 0.0
C797 C 0.36124 0.39187 0.3934 0.0
C798 C 0.41666 0.3918 0.39474 0.0
C799 C 0.43445 0.3786 0.38552 0.0
C800 C 0.44376 0.38338 0.36282 0.0
C801 C 0.43469 0.40157 0.34948 0.0
C802 C 0.4169 0.41478 0.35876 0.0
H803 H 0.34234 0.38978 0.3934 0.0
H804 H 0.36806 0.38604 0.37588 0.0
H805 H 0.36837 0.38074 0.4076 0.0
H806 H 0.41015 0.3881 0.41248 0.0
H807 H 0.44101 0.36477 0.39633 0.0
H808 H 0.78854 0.01371 0.93525 0.0
H809 H 0.81411 0.03849 0.91231 0.0
H810 H 0.87111 0.0167 0.95569 0.0
H811 H 0.84601 0.99129 0.97798 0.0
H812 H 0.84169 0.07409 0.92691 0.0
H813 H 0.89373 0.00476 0.88782 0.0
H814 H 0.86665 -0.00028 0.90242 0.0
H815 H 0.89228 0.00329 0.91989 0.0
C816 C 0.80655 0.01407 0.93978 0.0
C817 C 0.81525 0.00043 0.95838 0.0
C818 C 0.82109 0.02832 0.92675 0.0
C819 C 0.84454 0.02907 0.93203 0.0
C820 C 0.85314 0.016 0.95101 0.0
H821 H 0.94719 0.12831 0.90125 0.0
H822 H 0.91629 0.10526 0.91761 0.0
C823 C 0.83868 0.00173 0.96397 0.0
C824 C 0.86015 0.0436 0.91789 0.0
H825 H 0.90955 0.04218 0.88541 0.0
C826 C 0.85641 0.06713 0.9176 0.0
C827 C 0.87905 0.03441 0.90537 0.0
C828 C 0.88306 0.00914 0.90364 0.0
C829 C 0.87168 0.08185 0.90599 0.0
C830 C 0.8914 0.07276 0.89483 0.0
C831 C 0.89457 0.04915 0.89423 0.0
C832 C 0.90945 0.0874 0.88448 0.0
C833 C 0.86652 0.10696 0.90578 0.0
C834 C 0.9163 0.0846 0.86057 0.0
C835 C 0.93422 0.09754 0.8512 0.0
C836 C 0.94566 0.11352 0.86562 0.0
C837 C 0.93868 0.1163 0.88957 0.0
C838 C 0.92086 0.10326 0.89893 0.0
H839 H 0.84792 0.11025 0.90797 0.0
H840 H 0.87554 0.11521 0.92096 0.0
H841 H 0.87237 0.11502 0.88887 0.0
H842 H 0.90781 0.07232 0.84917 0.0
H843 H 0.9391 0.09499 0.83268 0.0
H844 H 0.14967 0.00625 0.47513 0.0
H845 H 0.12466 0.98095 0.45259 0.0
H846 H 0.18094 0.96256 0.40653 0.0
H847 H 0.20646 0.98716 0.42972 0.0
H848 H 0.11374 0.98325 0.40471 0.0
H849 H 0.15537 0.90091 0.42675 0.0
H850 H 0.16149 0.92673 0.44295 0.0
H851 H 0.17388 0.922 0.41392 0.0
C852 C 0.1569 0.99649 0.46053 0.0
C853 C 0.18015 -0.00143 0.45439 0.0
C854 C 0.14251 0.98222 0.4475 0.0
C855 C 0.151 0.96973 0.42806 0.0
C856 C 0.17414 0.97178 0.42173 0.0
H857 H 0.05552 0.90304 0.32877 0.0
H858 H 0.08629 0.92687 0.34465 0.0
C859 C 0.18863 0.98602 0.43485 0.0
C860 C 0.1353 0.955 0.41425 0.0
H861 H 0.12406 0.89975 0.40008 0.0
C862 C 0.11603 0.965 0.40355 0.0
C863 C 0.13834 0.93121 0.41294 0.0
C864 C 0.15827 0.91947 0.4249 0.0
C865 C 0.0994 0.95179 0.392 0.0
C866 C 0.10241 0.92799 0.39071 0.0
C867 C 0.12193 0.91803 0.40097 0.0
C868 C 0.08464 0.91295 0.38049 0.0
C869 C 0.07831 0.96333 0.3822 0.0
C870 C 0.07402 0.8968 0.3952 0.0
C871 C 0.05661 0.88306 0.38619 0.0
C872 C 0.04944 0.88518 0.36223 0.0
C873 C 0.06044 0.90111 0.34737 0.0
C874 C 0.07798 0.9148 0.35641 0.0
H875 H 0.0763 0.98084 0.38931 0.0
H876 H 0.07965 0.96444 0.36241 0.0
H877 H 0.06267 0.95347 0.38662 0.0
H878 H 0.07895 0.8951 0.41384 0.0
H879 H 0.0486 0.87096 0.39816 0.0
H880 H 0.18903 0.98493 0.92346 0.0
H881 H 0.16377 0.01049 0.90129 0.0
H882 H 0.15846 0.05388 0.96328 0.0
H883 H 0.18429 0.02876 0.98539 0.0
H884 H 0.11902 0.01979 0.91502 0.0
H885 H 0.16982 0.09915 0.90878 0.0
H886 H 0.18255 0.07199 0.91584 0.0
H887 H 0.1677 0.08782 0.93858 0.0
C888 C 0.18299 0.00023 0.93219 0.0
C889 C 0.18869 0.00484 0.95619 0.0
C890 C 0.16845 0.01472 0.91954 0.0
C891 C 0.15945 0.03417 0.93057 0.0
C892 C 0.16555 0.03916 0.9543 0.0
H893 H 0.05435 0.13218 0.89999 0.0
H894 H 0.0854 0.10937 0.91665 0.0
C895 C 0.1801 0.02467 0.96699 0.0
C896 C 0.14215 0.0481 0.91798 0.0
H897 H 0.13016 0.10194 0.89911 0.0
C898 C 0.12152 0.0377 0.91129 0.0
C899 C 0.14549 0.07146 0.91329 0.0
C900 C 0.16766 0.08326 0.91929 0.0
C901 C 0.10381 0.05019 0.90062 0.0
C902 C 0.10704 0.07361 0.89616 0.0
C903 C 0.12778 0.08397 0.90258 0.0
C904 C 0.08877 0.08777 0.88551 0.0
C905 C 0.08154 0.03839 0.89495 0.0
C906 C 0.08064 0.08335 0.86233 0.0
C907 C 0.0628 0.09628 0.85275 0.0
C908 C 0.05287 0.11399 0.86615 0.0
C909 C 0.06147 0.11864 0.88919 0.0
C910 C 0.07927 0.10566 0.89874 0.0
H911 H 0.07997 0.0219 0.90451 0.0
H912 H 0.06671 0.04924 0.89984 0.0
H913 H 0.08067 0.03496 0.87543 0.0
H914 H 0.08806 0.06985 0.85168 0.0
H915 H 0.05677 0.09235 0.83488 0.0
H916 H 0.81263 0.96899 0.48469 0.0
H917 H 0.83875 0.94416 0.46254 0.0
H918 H 0.83246 0.98724 0.40041 0.0
H919 H 0.80694 0.01253 0.42258 0.0
H920 H 0.8337 0.92039 0.41805 0.0
H921 H 0.90172 0.98634 0.41474 0.0
H922 H 0.8773 0.98847 0.43439 0.0
H923 H 0.8744 0.99494 0.40308 0.0
C924 C 0.8168 0.97317 0.46631 0.0
C925 C 0.80788 0.99284 0.45547 0.0
C926 C 0.83159 0.9589 0.45365 0.0
C927 C 0.83777 0.96412 0.43001 0.0
C928 C 0.82813 0.98315 0.41878 0.0
H929 H 0.93976 0.90521 0.3349 0.0
H930 H 0.90828 0.92746 0.35165 0.0
C931 C 0.81336 0.99743 0.43141 0.0
C932 C 0.85506 0.95016 0.41748 0.0
H933 H 0.90911 0.95198 0.39444 0.0
C934 C 0.85018 0.92725 0.41284 0.0
C935 C 0.87651 0.95924 0.41074 0.0
C936 C 0.88297 0.98354 0.41613 0.0
C937 C 0.86623 0.91316 0.40147 0.0
C938 C 0.88778 0.92219 0.395 0.0
C939 C 0.89252 0.94516 0.39938 0.0
C940 C 0.90602 0.90796 0.38441 0.0
C941 C 0.8599 0.88881 0.39626 0.0
C942 C 0.91528 0.88977 0.39741 0.0
C943 C 0.93328 0.87702 0.38794 0.0
C944 C 0.94249 0.88234 0.36533 0.0
C945 C 0.93312 0.90061 0.35235 0.0
C946 C 0.9151 0.91335 0.36186 0.0
H947 H 0.84106 0.88633 0.39619 0.0
H948 H 0.86687 0.88327 0.3787 0.0
H949 H 0.86724 0.87771 0.41038 0.0
H950 H 0.90884 0.88566 0.41508 0.0
H951 H 0.94009 0.86313 0.39849 0.0
H952 H 0.30892 0.40112 0.14182 0.0
H953 H 0.33416 0.38657 0.17314 0.0
H954 H 0.33399 0.32062 0.13955 0.0
H955 H 0.30948 0.3353 0.10752 0.0
H956 H 0.33057 0.35113 0.20583 0.0
H957 H 0.40189 0.33664 0.14148 0.0
H958 H 0.37663 0.35259 0.13359 0.0
H959 H 0.37562 0.32211 0.13483 0.0
C960 C 0.31427 0.38352 0.14106 0.0
C961 C 0.30748 0.36947 0.12197 0.0
C962 C 0.32853 0.37519 0.15908 0.0
C963 C 0.33628 0.35265 0.1584 0.0
C964 C 0.32855 0.3382 0.14012 0.0
H965 H 0.44486 0.29645 0.25031 0.0
H966 H 0.4125 0.29841 0.22239 0.0
C967 C 0.31433 0.34655 0.122 0.0
C968 C 0.35334 0.34487 0.17622 0.0
H969 H 0.40929 0.329 0.18204 0.0
C970 C 0.34771 0.34605 0.20063 0.0
C971 C 0.37569 0.33823 0.16936 0.0
C972 C 0.38298 0.33745 0.14342 0.0
C973 C 0.36402 0.34136 0.2184 0.0
C974 C 0.38655 0.33557 0.21153 0.0
C975 C 0.39194 0.33341 0.18716 0.0
C976 C 0.4053 0.33386 0.22922 0.0
C977 C 0.35716 0.34302 0.24439 0.0
C978 C 0.41205 0.35321 0.242 0.0
C979 C 0.43055 0.35224 0.25774 0.0
C980 C 0.44273 0.33185 0.26103 0.0
C981 C 0.43583 0.3124 0.24825 0.0
C982 C 0.41736 0.31346 0.23232 0.0
H983 H 0.33835 0.34127 0.24667 0.0
H984 H 0.36584 0.32977 0.25527 0.0
H985 H 0.36227 0.35989 0.25146 0.0
H986 H 0.40321 0.36922 0.23949 0.0
H987 H 0.43531 0.36754 0.2673 0.0
H988 H 0.68457 0.65789 0.60924 0.0
H989 H 0.66002 0.67172 0.64163 0.0
H990 H 0.65999 0.60491 0.67335 0.0
H991 H 0.68517 0.59121 0.64162 0.0
H992 H 0.6171 0.65629 0.65055 0.0
H993 H 0.6705 0.64454 0.7314 0.0
H994 H 0.68233 0.64414 0.70152 0.0
H995 H 0.66898 0.61914 0.71376 0.0
C996 C 0.67986 0.64631 0.62348 0.0
C997 C 0.68679 0.62343 0.62285 0.0
C998 C 0.66572 0.6542 0.64188 0.0
C999 C 0.6584 0.63942 0.66005 0.0
C1000 C 0.66581 0.61675 0.65981 0.0
H1001 H 0.55432 0.62553 0.76442 0.0
H1002 H 0.58592 0.62266 0.73607 0.0
C1003 C 0.67996 0.60886 0.64148 0.0
C1004 C 0.6413 0.64695 0.67796 0.0
H1005 H 0.62977 0.64712 0.7379 0.0
C1006 C 0.62 0.65472 0.66967 0.0
C1007 C 0.64515 0.6449 0.70288 0.0
C1008 C 0.66808 0.63794 0.71292 0.0
C1009 C 0.60203 0.65932 0.68561 0.0
C1010 C 0.60558 0.65625 0.71044 0.0
C1011 C 0.62712 0.64933 0.71881 0.0
C1012 C 0.58667 0.65853 0.72784 0.0
C1013 C 0.57904 0.66638 0.67577 0.0
C1014 C 0.57675 0.67973 0.73265 0.0
C1015 C 0.55861 0.68149 0.74889 0.0
C1016 C 0.5501 0.66204 0.76056 0.0
C1017 C 0.56029 0.64086 0.7557 0.0
C1018 C 0.57843 0.63916 0.73958 0.0
H1019 H 0.5782 0.66474 0.65596 0.0
H1020 H 0.56521 0.65593 0.6838 0.0
H1021 H 0.57573 0.68438 0.68053 0.0
H1022 H 0.58308 0.6949 0.72389 0.0
H1023 H 0.55126 0.69808 0.75227 0.0
H1024 H 0.64962 0.38922 0.1017 0.0
H1025 H 0.62525 0.37535 0.13399 0.0
H1026 H 0.68272 0.34002 0.16504 0.0
H1027 H 0.70754 0.35453 0.13307 0.0
H1028 H 0.61531 0.3307 0.14772 0.0
H1029 H 0.65838 0.37913 0.22057 0.0
H1030 H 0.66311 0.38526 0.18929 0.0
H1031 H 0.67632 0.3609 0.20283 0.0
C1032 C 0.65718 0.37872 0.11553 0.0
C1033 C 0.6806 0.37324 0.115 0.0
C1034 C 0.64317 0.37062 0.13384 0.0
C1035 C 0.65224 0.35687 0.15202 0.0
C1036 C 0.67548 0.35088 0.15134 0.0
H1037 H 0.55573 0.297 0.25619 0.0
H1038 H 0.58689 0.30004 0.22699 0.0
C1039 C 0.68957 0.35903 0.13297 0.0
C1040 C 0.63715 0.34931 0.17176 0.0
H1041 H 0.62622 0.35744 0.2312 0.0
C1042 C 0.61781 0.33627 0.16606 0.0
C1043 C 0.64046 0.35677 0.19559 0.0
C1044 C 0.66057 0.37143 0.20255 0.0
C1045 C 0.6012 0.33115 0.18339 0.0
C1046 C 0.60427 0.33902 0.20711 0.0
C1047 C 0.62403 0.35136 0.213 0.0
C1048 C 0.5861 0.33675 0.22543 0.0
C1049 C 0.57996 0.31842 0.17591 0.0
C1050 C 0.57573 0.35638 0.23457 0.0
C1051 C 0.55808 0.35475 0.25128 0.0
C1052 C 0.5504 0.3334 0.25926 0.0
C1053 C 0.56108 0.31371 0.25031 0.0
C1054 C 0.57884 0.31538 0.23357 0.0
H1055 H 0.57836 0.3172 0.15612 0.0
H1056 H 0.58063 0.30093 0.18327 0.0
H1057 H 0.56439 0.32682 0.18311 0.0
H1058 H 0.58109 0.37303 0.22851 0.0
H1059 H 0.55037 0.3703 0.25777 0.0
H1060 H 0.30812 0.65883 0.61198 0.0
H1061 H 0.33272 0.67242 0.64443 0.0
H1062 H 0.33388 0.60516 0.675 0.0
H1063 H 0.30855 0.59165 0.64324 0.0
H1064 H 0.33026 0.63932 0.70932 0.0
H1065 H 0.40079 0.65686 0.64496 0.0
H1066 H 0.37437 0.67139 0.63899 0.0
H1067 H 0.37562 0.64097 0.63669 0.0
C1068 C 0.31319 0.64704 0.62589 0.0
C1069 C 0.30659 0.62408 0.62487 0.0
C1070 C 0.32747 0.65478 0.64426 0.0
C1071 C 0.33552 0.63967 0.66178 0.0
C1072 C 0.32802 0.61705 0.66151 0.0
H1073 H 0.43591 0.62625 0.771 0.0
H1074 H 0.40372 0.6233 0.74341 0.0
C1075 C 0.31368 0.60932 0.64325 0.0
C1076 C 0.35266 0.64693 0.67976 0.0
H1077 H 0.4082 0.66406 0.68565 0.0
C1078 C 0.34724 0.64491 0.70417 0.0
C1079 C 0.37481 0.65421 0.67295 0.0
C1080 C 0.38191 0.65584 0.647 0.0
C1081 C 0.36353 0.64961 0.72197 0.0
C1082 C 0.38584 0.65623 0.71512 0.0
C1083 C 0.39103 0.65902 0.69078 0.0
C1084 C 0.40455 0.65862 0.73278 0.0
C1085 C 0.35683 0.64724 0.74794 0.0
C1086 C 0.41594 0.67941 0.73564 0.0
C1087 C 0.43448 0.68118 0.7514 0.0
C1088 C 0.44211 0.66209 0.76432 0.0
C1089 C 0.43056 0.6413 0.76136 0.0
C1090 C 0.412 0.63961 0.74573 0.0
H1091 H 0.33799 0.64837 0.75034 0.0
H1092 H 0.36249 0.6304 0.75463 0.0
H1093 H 0.36512 0.66053 0.75907 0.0
H1094 H 0.41054 0.69422 0.72559 0.0
H1095 H 0.44299 0.69743 0.75319 0.0
H1096 H 0.80507 0.90043 0.14491 0.0
H1097 H 0.83036 0.88609 0.1763 0.0
H1098 H 0.83175 0.82046 0.14203 0.0
H1099 H 0.80722 0.83495 0.10995 0.0
H1100 H 0.82766 0.85032 0.20866 0.0
H1101 H 0.89923 0.83798 0.14414 0.0
H1102 H 0.87359 0.8534 0.13641 0.0
H1103 H 0.87333 0.8229 0.13731 0.0
C1104 C 0.81074 0.88294 0.14403 0.0
C1105 C 0.80442 0.86895 0.12472 0.0
C1106 C 0.82505 0.87472 0.16208 0.0
C1107 C 0.83329 0.85236 0.16121 0.0
C1108 C 0.82594 0.83791 0.14276 0.0
H1109 H 0.94327 0.79711 0.25174 0.0
H1110 H 0.91068 0.79891 0.22412 0.0
C1111 C 0.8117 0.84616 0.12459 0.0
C1112 C 0.85052 0.84479 0.17897 0.0
H1113 H 0.90676 0.8299 0.18457 0.0
C1114 C 0.84489 0.84563 0.20339 0.0
C1115 C 0.873 0.83867 0.17202 0.0
C1116 C 0.88031 0.83832 0.14608 0.0
C1117 C 0.86129 0.84104 0.2211 0.0
C1118 C 0.88392 0.83571 0.21416 0.0
C1119 C 0.88934 0.83394 0.18976 0.0
C1120 C 0.90272 0.83403 0.23181 0.0
C1121 C 0.8544 0.84226 0.24711 0.0
C1122 C 0.90909 0.85325 0.24501 0.0
C1123 C 0.92772 0.85237 0.2606 0.0
C1124 C 0.94041 0.83221 0.2633 0.0
C1125 C 0.93385 0.81288 0.25014 0.0
C1126 C 0.91525 0.81385 0.23438 0.0
H1127 H 0.83564 0.8401 0.24937 0.0
H1128 H 0.86336 0.82909 0.25783 0.0
H1129 H 0.85914 0.85916 0.25438 0.0
H1130 H 0.8999 0.86912 0.24291 0.0
H1131 H 0.93222 0.86758 0.27045 0.0
H1132 H 0.18818 0.092 0.64456 0.0
H1133 H 0.16256 0.10617 0.67574 0.0
H1134 H 0.16399 0.1728 0.64368 0.0
H1135 H 0.18891 0.15854 0.61182 0.0
H1136 H 0.16594 0.14117 0.70929 0.0
H1137 H 0.09588 0.15715 0.64381 0.0
H1138 H 0.12113 0.14107 0.63619 0.0
H1139 H 0.12238 0.17152 0.63784 0.0
C1140 C 0.18306 0.10968 0.64412 0.0
C1141 C 0.19032 0.12406 0.6255 0.0
C1142 C 0.16856 0.11779 0.66206 0.0
C1143 C 0.16105 0.14041 0.66173 0.0
C1144 C 0.16926 0.15516 0.64397 0.0
H1145 H 0.05196 0.1977 0.75191 0.0
H1146 H 0.08455 0.19507 0.72438 0.0
C1147 C 0.18371 0.14704 0.62594 0.0
C1148 C 0.14374 0.14803 0.67935 0.0
H1149 H 0.08794 0.16463 0.68431 0.0
C1150 C 0.14895 0.14651 0.70384 0.0
C1151 C 0.12159 0.15501 0.67216 0.0
C1152 C 0.11474 0.15615 0.6461 0.0
C1153 C 0.13243 0.1513 0.72136 0.0
C1154 C 0.1101 0.1575 0.71415 0.0
C1155 C 0.10512 0.15991 0.68971 0.0
C1156 C 0.09114 0.15957 0.73153 0.0
C1157 C 0.13889 0.14939 0.74745 0.0
C1158 C 0.08395 0.14039 0.74436 0.0
C1159 C 0.06533 0.14175 0.75991 0.0
C1160 C 0.05345 0.16235 0.76294 0.0
C1161 C 0.06075 0.18159 0.75006 0.0
C1162 C 0.07935 0.18015 0.73435 0.0
H1163 H 0.15768 0.15087 0.75006 0.0
H1164 H 0.13022 0.16267 0.75829 0.0
H1165 H 0.13346 0.13253 0.75431 0.0
H1166 H 0.09256 0.12424 0.74205 0.0
H1167 H 0.06026 0.12659 0.76952 0.0
H1168 H 0.19023 0.89972 0.14509 0.0
H1169 H 0.16381 0.88613 0.17594 0.0
H1170 H 0.15049 0.82597 0.13415 0.0
H1171 H 0.17661 0.83962 0.10303 0.0
H1172 H 0.11105 0.85048 0.14805 0.0
H1173 H 0.16831 0.83402 0.22545 0.0
H1174 H 0.17246 0.86125 0.21159 0.0
H1175 H 0.17867 0.83583 0.195 0.0
C1176 C 0.18186 0.88348 0.14261 0.0
C1177 C 0.18545 0.87075 0.12164 0.0
C1178 C 0.16696 0.87564 0.16034 0.0
C1179 C 0.15543 0.85494 0.15741 0.0
C1180 C 0.15941 0.8419 0.1368 0.0
H1181 H 0.05814 0.79895 0.26188 0.0
H1182 H 0.08907 0.80202 0.23236 0.0
C1183 C 0.17441 0.84967 0.11912 0.0
C1184 C 0.13758 0.84808 0.17473 0.0
H1185 H 0.12822 0.83685 0.23394 0.0
C1186 C 0.11483 0.84719 0.16676 0.0
C1187 C 0.14261 0.84367 0.19907 0.0
C1188 C 0.16686 0.84352 0.20831 0.0
C1189 C 0.09683 0.84296 0.18274 0.0
C1190 C 0.10177 0.83964 0.20726 0.0
C1191 C 0.12457 0.83956 0.2151 0.0
C1192 C 0.0833 0.83764 0.22516 0.0
C1193 C 0.07259 0.84251 0.17345 0.0
C1194 C 0.07008 0.85673 0.2309 0.0
C1195 C 0.05255 0.85511 0.24777 0.0
C1196 C 0.04783 0.83431 0.25915 0.0
C1197 C 0.06121 0.81518 0.25335 0.0
C1198 C 0.07892 0.8169 0.23658 0.0
H1199 H 0.072 0.84073 0.15364 0.0
H1200 H 0.06287 0.8283 0.18166 0.0
H1201 H 0.0639 0.85861 0.17838 0.0
H1202 H 0.07338 0.87292 0.22235 0.0
H1203 H 0.04262 0.87018 0.25176 0.0
H1204 H 0.81679 0.15574 0.60518 0.0
H1205 H 0.8435 0.16836 0.63632 0.0
H1206 H 0.83031 0.10729 0.67656 0.0
H1207 H 0.80339 0.09461 0.64568 0.0
H1208 H 0.83403 0.16088 0.70015 0.0
H1209 H 0.90504 0.12168 0.64764 0.0
H1210 H 0.88193 0.13625 0.63262 0.0
H1211 H 0.87666 0.10959 0.64705 0.0
C1212 C 0.81913 0.14527 0.62094 0.0
C1213 C 0.8081 0.12412 0.62294 0.0
C1214 C 0.83442 0.15248 0.63863 0.0
C1215 C 0.83878 0.1387 0.65859 0.0
C1216 C 0.82705 0.11812 0.66123 0.0
H1217 H 0.94504 0.12357 0.76172 0.0
H1218 H 0.91398 0.12003 0.73286 0.0
C1219 C 0.81183 0.11085 0.64353 0.0
C1220 C 0.85716 0.14464 0.67556 0.0
H1221 H 0.91428 0.13717 0.68517 0.0
C1222 C 0.85164 0.15595 0.69689 0.0
C1223 C 0.87997 0.13799 0.67111 0.0
C1224 C 0.88647 0.12568 0.6484 0.0
C1225 C 0.86848 0.16044 0.71423 0.0
C1226 C 0.89129 0.15351 0.7099 0.0
C1227 C 0.89678 0.14251 0.68836 0.0
C1228 C 0.90955 0.1562 0.72802 0.0
C1229 C 0.86168 0.17181 0.73737 0.0
C1230 C 0.9174 0.17778 0.73479 0.0
C1231 C 0.93527 0.17993 0.75134 0.0
C1232 C 0.94561 0.16049 0.76131 0.0
C1233 C 0.93756 0.13893 0.75445 0.0
C1234 C 0.91978 0.13683 0.73793 0.0
H1235 H 0.8428 0.17243 0.73967 0.0
H1236 H 0.8693 0.16279 0.75291 0.0
H1237 H 0.86824 0.18949 0.73747 0.0
H1238 H 0.90992 0.19293 0.72703 0.0
H1239 H 0.94104 0.19679 0.75618 0.0
loop_
_geom_bond_atom_site_label_1
_geom_bond_atom_site_label_2
_geom_bond_distance
_geom_bond_site_symmetry_2
_ccdc_geom_bond_type
C0 C1 1.384 . S
C0 H13 0.947 . S
C0 C35 1.382 . S
C1 C0 1.384 . S
C1 C2 1.378 . S
C2 C1 1.378 . S
C2 C3 1.378 . S
C2 H14 0.952 . S
C3 C2 1.378 . S
C3 H15 0.950 . S
C3 C34 1.383 . S
H4 C23 0.947 . S
H5 C24 0.946 1_554 S
H6 C26 0.953 . S
H7 C27 0.945 . S
H8 C29 0.952 . S
H9 C30 0.949 . S
H10 C32 0.950 . S
H11 C33 0.948 1_554 S
H12 C35 0.951 . S
H13 C0 0.947 . S
H14 C2 0.952 . S
H15 C3 0.950 . S
N16 C19 1.382 1_554 S
N16 C21 1.363 . S
N17 C19 1.371 . S
N17 C20 1.372 . S
N18 C20 1.361 1_554 S
N18 C21 1.377 . S
C19 N16 1.382 1_556 S
C19 N17 1.371 . S
C19 C22 1.480 . S
C20 N17 1.372 . S
C20 N18 1.361 1_556 S
C20 C28 1.457 . S
C21 N16 1.363 . S
C21 N18 1.377 . S
C21 C34 1.479 . S
C22 C19 1.480 . S
C22 C23 1.383 1_556 S
C22 C27 1.385 . S
C23 H4 0.947 . S
C23 C22 1.383 1_554 S
C23 C24 1.388 1_554 S
C24 H5 0.946 1_556 S
C24 C23 1.388 1_556 S
C24 C25 1.384 . S
C25 C24 1.384 . S
C25 C26 1.377 . S
C26 H6 0.953 . S
C26 C25 1.377 . S
C26 C27 1.369 . S
C27 H7 0.945 . S
C27 C22 1.385 . S
C27 C26 1.369 . S
C28 C20 1.457 . S
C28 C29 1.372 . S
C28 C33 1.364 . S
C29 H8 0.952 . S
C29 C28 1.372 . S
C29 C30 1.389 . S
C30 H9 0.949 . S
C30 C29 1.389 . S
C30 C31 1.387 . S
C31 C30 1.387 . S
C31 C32 1.372 . S
C32 H10 0.950 . S
C32 C31 1.372 . S
C32 C33 1.379 . S
C33 H11 0.948 1_556 S
C33 C28 1.364 . S
C33 C32 1.379 . S
C34 C3 1.383 . S
C34 C21 1.479 . S
C34 C35 1.398 . S
C35 C0 1.382 . S
C35 H12 0.951 . S
C35 C34 1.398 . S
C36 C37 1.384 . S
C36 H49 0.947 . S
C36 C71 1.382 . S
C37 C36 1.384 . S
C37 C38 1.378 . S
C38 C37 1.378 . S
C38 C39 1.378 . S
C38 H50 0.952 . S
C39 C38 1.378 . S
C39 H51 0.950 . S
C39 C70 1.383 . S
H40 C59 0.947 . S
H41 C60 0.946 . S
H42 C62 0.953 . S
H43 C63 0.945 . S
H44 C65 0.952 . S
H45 C66 0.949 . S
H46 C68 0.950 . S
H47 C69 0.948 . S
H48 C71 0.951 . S
H49 C36 0.947 . S
H50 C38 0.952 . S
H51 C39 0.950 . S
N52 C55 1.382 . S
N52 C57 1.363 . S
N53 C55 1.371 . S
N53 C56 1.372 . S
N54 C56 1.361 . S
N54 C57 1.377 . S
C55 N52 1.382 . S
C55 N53 1.371 . S
C55 C58 1.480 . S
C56 N53 1.372 . S
C56 N54 1.361 . S
C56 C64 1.457 . S
C57 N52 1.363 . S
C57 N54 1.377 . S
C57 C70 1.479 . S
C58 C55 1.480 . S
C58 C59 1.383 . S
C58 C63 1.385 . S
C59 H40 0.947 . S
C59 C58 1.383 . S
C59 C60 1.388 . S
C60 H41 0.946 . S
C60 C59 1.388 . S
C60 C61 1.384 . S
C61 C60 1.384 . S
C61 C62 1.377 . S
C62 H42 0.953 . S
C62 C61 1.377 . S
C62 C63 1.369 . S
C63 H43 0.945 . S
C63 C58 1.385 . S
C63 C62 1.369 . S
C64 C56 1.457 . S
C64 C65 1.372 . S
C64 C69 1.364 . S
C65 H44 0.952 . S
C65 C64 1.372 . S
C65 C66 1.389 . S
C66 H45 0.949 . S
C66 C65 1.389 . S
C66 C67 1.387 . S
C67 C66 1.387 . S
C67 C68 1.372 . S
C68 H46 0.950 . S
C68 C67 1.372 . S
C68 C69 1.379 . S
C69 H47 0.948 . S
C69 C64 1.364 . S
C69 C68 1.379 . S
C70 C39 1.383 . S
C70 C57 1.479 . S
C70 C71 1.398 . S
C71 C36 1.382 . S
C71 H48 0.951 . S
C71 C70 1.398 . S
C72 C73 1.384 . S
C72 H85 0.947 . S
C72 C107 1.382 . S
C73 C72 1.384 . S
C73 C74 1.378 . S
C74 C73 1.378 . S
C74 C75 1.378 . S
C74 H86 0.952 . S
C75 C74 1.378 . S
C75 H87 0.950 . S
C75 C106 1.383 . S
H76 C95 0.947 . S
H77 C96 0.946 1_554 S
H78 C98 0.953 . S
H79 C99 0.945 . S
H80 C101 0.952 . S
H81 C102 0.949 . S
H82 C104 0.950 . S
H83 C105 0.948 1_554 S
H84 C107 0.951 . S
H85 C72 0.947 . S
H86 C74 0.952 . S
H87 C75 0.950 . S
N88 C91 1.382 . S
N88 C93 1.363 . S
N89 C91 1.371 1_556 S
N89 C92 1.378 . S
N90 C92 1.349 1_554 S
N90 C93 1.377 . S
C91 N88 1.382 . S
C91 N89 1.371 1_554 S
C91 C94 1.480 1_554 S
C92 N89 1.378 . S
C92 N90 1.349 1_556 S
C92 C100 1.464 . S
C93 N88 1.363 . S
C93 N90 1.377 . S
C93 C106 1.479 . S
C94 C91 1.480 1_556 S
C94 C95 1.383 1_556 S
C94 C99 1.385 . S
C95 H76 0.947 . S
C95 C94 1.383 1_554 S
C95 C96 1.388 1_554 S
C96 H77 0.946 1_556 S
C96 C95 1.388 1_556 S
C96 C97 1.384 . S
C97 C96 1.384 . S
C97 C98 1.377 . S
C98 H78 0.953 . S
C98 C97 1.377 . S
C98 C99 1.369 . S
C99 H79 0.945 . S
C99 C94 1.385 . S
C99 C98 1.369 . S
C100 C92 1.464 . S
C100 C101 1.372 . S
C100 C105 1.364 . S
C101 H80 0.952 . S
C101 C100 1.372 . S
C101 C102 1.389 . S
C102 H81 0.949 . S
C102 C101 1.389 . S
C102 C103 1.387 . S
C103 C102 1.387 . S
C103 C104 1.372 . S
C104 H82 0.950 . S
C104 C103 1.372 . S
C104 C105 1.379 . S
C105 H83 0.948 1_556 S
C105 C100 1.364 . S
C105 C104 1.379 . S
C106 C75 1.383 . S
C106 C93 1.479 . S
C106 C107 1.398 . S
C107 C72 1.382 . S
C107 H84 0.951 . S
C107 C106 1.398 . S
C108 C109 1.384 . S
C108 H121 0.947 . S
C108 C143 1.382 . S
C109 C108 1.384 . S
C109 C110 1.378 . S
C110 C109 1.378 . S
C110 C111 1.378 . S
C110 H122 0.952 . S
C111 C110 1.378 . S
C111 H123 0.950 . S
C111 C142 1.383 . S
H112 C131 0.947 . S
H113 C132 0.946 . S
H114 C134 0.953 . S
H115 C135 0.945 . S
H116 C137 0.952 . S
H117 C138 0.949 . S
H118 C140 0.950 . S
H119 C141 0.948 . S
H120 C143 0.951 . S
H121 C108 0.947 . S
H122 C110 0.952 . S
H123 C111 0.950 . S
N124 C127 1.382 . S
N124 C129 1.363 . S
N125 C127 1.371 . S
N125 C128 1.372 . S
N126 C128 1.361 . S
N126 C129 1.377 . S
C127 N124 1.382 . S
C127 N125 1.371 . S
C127 C130 1.480 . S
C128 N125 1.372 . S
C128 N126 1.361 . S
C128 C136 1.457 . S
C129 N124 1.363 . S
C129 N126 1.377 . S
C129 C142 1.479 . S
C130 C127 1.480 . S
C130 C131 1.383 . S
C130 C135 1.385 . S
C131 H112 0.947 . S
C131 C130 1.383 . S
C131 C132 1.388 . S
C132 H113 0.946 . S
C132 C131 1.388 . S
C132 C133 1.384 . S
C133 C132 1.384 . S
C133 C134 1.377 . S
C134 H114 0.953 . S
C134 C133 1.377 . S
C134 C135 1.369 . S
C135 H115 0.945 . S
C135 C130 1.385 . S
C135 C134 1.369 . S
C136 C128 1.457 . S
C136 C137 1.372 . S
C136 C141 1.364 . S
C137 H116 0.952 . S
C137 C136 1.372 . S
C137 C138 1.389 . S
C138 H117 0.949 . S
C138 C137 1.389 . S
C138 C139 1.387 . S
C139 C138 1.387 . S
C139 C140 1.372 . S
C140 H118 0.950 . S
C140 C139 1.372 . S
C140 C141 1.379 . S
C141 H119 0.948 . S
C141 C136 1.364 . S
C141 C140 1.379 . S
C142 C111 1.383 . S
C142 C129 1.479 . S
C142 C143 1.398 . S
C143 C108 1.382 . S
C143 H120 0.951 . S
C143 C142 1.398 . S
C144 C145 1.384 . S
C144 H157 0.947 . S
C144 C179 1.382 . S
C145 C144 1.384 . S
C145 C146 1.378 . S
C146 C145 1.378 . S
C146 C147 1.378 . S
C146 H158 0.952 . S
C147 C146 1.378 . S
C147 H159 0.950 . S
C147 C178 1.383 . S
H148 C167 0.947 . S
H149 C168 0.946 1_554 S
H150 C170 0.953 . S
H151 C171 0.945 . S
H152 C173 0.952 . S
H153 C174 0.949 . S
H154 C176 0.950 . S
H155 C177 0.948 1_554 S
H156 C179 0.951 . S
H157 C144 0.947 . S
H158 C146 0.952 . S
H159 C147 0.950 . S
N160 C163 1.382 1_554 S
N160 C165 1.363 . S
N161 C163 1.371 . S
N161 C164 1.372 . S
N162 C164 1.361 1_554 S
N162 C165 1.377 . S
C163 N160 1.382 1_556 S
C163 N161 1.371 . S
C163 C166 1.480 . S
C164 N161 1.372 . S
C164 N162 1.361 1_556 S
C164 C172 1.457 . S
C165 N160 1.363 . S
C165 N162 1.377 . S
C165 C178 1.479 . S
C166 C163 1.480 . S
C166 C167 1.383 1_556 S
C166 C171 1.385 . S
C167 H148 0.947 . S
C167 C166 1.383 1_554 S
C167 C168 1.388 1_554 S
C168 H149 0.946 1_556 S
C168 C167 1.388 1_556 S
C168 C169 1.384 . S
C169 C168 1.384 . S
C169 C170 1.377 . S
C170 H150 0.953 . S
C170 C169 1.377 . S
C170 C171 1.369 . S
C171 H151 0.945 . S
C171 C166 1.385 . S
C171 C170 1.369 . S
C172 C164 1.457 . S
C172 C173 1.372 . S
C172 C177 1.364 . S
C173 H152 0.952 . S
C173 C172 1.372 . S
C173 C174 1.389 . S
C174 H153 0.949 . S
C174 C173 1.389 . S
C174 C175 1.387 . S
C175 C174 1.387 . S
C175 C176 1.372 . S
C176 H154 0.950 . S
C176 C175 1.372 . S
C176 C177 1.379 . S
C177 H155 0.948 1_556 S
C177 C172 1.364 . S
C177 C176 1.379 . S
C178 C147 1.383 . S
C178 C165 1.479 . S
C178 C179 1.398 . S
C179 C144 1.382 . S
C179 H156 0.951 . S
C179 C178 1.398 . S
C180 C181 1.384 . S
C180 H193 0.947 . S
C180 C215 1.382 . S
C181 C180 1.384 . S
C181 C182 1.378 . S
C182 C181 1.378 . S
C182 C183 1.378 . S
C182 H194 0.952 . S
C183 C182 1.378 . S
C183 H195 0.950 . S
C183 C214 1.383 . S
H184 C203 0.947 . S
H185 C204 0.946 . S
H186 C206 0.953 . S
H187 C207 0.945 . S
H188 C209 0.952 . S
H189 C210 0.949 . S
H190 C212 0.950 . S
H191 C213 0.948 . S
H192 C215 0.951 . S
H193 C180 0.947 . S
H194 C182 0.952 . S
H195 C183 0.950 . S
N196 C199 1.382 . S
N196 C201 1.363 . S
N197 C199 1.371 . S
N197 C200 1.372 . S
N198 C200 1.361 . S
N198 C201 1.377 . S
C199 N196 1.382 . S
C199 N197 1.371 . S
C199 C202 1.480 . S
C200 N197 1.372 . S
C200 N198 1.361 . S
C200 C208 1.457 . S
C201 N196 1.363 . S
C201 N198 1.377 . S
C201 C214 1.479 . S
C202 C199 1.480 . S
C202 C203 1.383 . S
C202 C207 1.385 . S
C203 H184 0.947 . S
C203 C202 1.383 . S
C203 C204 1.388 . S
C204 H185 0.946 . S
C204 C203 1.388 . S
C204 C205 1.384 . S
C205 C204 1.384 . S
C205 C206 1.377 . S
C206 H186 0.953 . S
C206 C205 1.377 . S
C206 C207 1.369 . S
C207 H187 0.945 . S
C207 C202 1.385 . S
C207 C206 1.369 . S
C208 C200 1.457 . S
C208 C209 1.372 . S
C208 C213 1.364 . S
C209 H188 0.952 . S
C209 C208 1.372 . S
C209 C210 1.389 . S
C210 H189 0.949 . S
C210 C209 1.389 . S
C210 C211 1.387 . S
C211 C210 1.387 . S
C211 C212 1.372 . S
C212 H190 0.950 . S
C212 C211 1.372 . S
C212 C213 1.379 . S
C213 H191 0.948 . S
C213 C208 1.364 . S
C213 C212 1.379 . S
C214 C183 1.383 . S
C214 C201 1.479 . S
C214 C215 1.398 . S
C215 C180 1.382 . S
C215 H192 0.951 . S
C215 C214 1.398 . S
C216 C217 1.384 . S
C216 H229 0.947 . S
C216 C251 1.382 . S
C217 C216 1.384 . S
C217 C218 1.378 . S
C218 C217 1.378 . S
C218 C219 1.378 . S
C218 H230 0.952 . S
C219 C218 1.378 . S
C219 H231 0.950 . S
C219 C250 1.383 . S
H220 C239 0.947 . S
H221 C240 0.946 1_554 S
H222 C242 0.953 . S
H223 C243 0.945 . S
H224 C245 0.952 . S
H225 C246 0.949 . S
H226 C248 0.950 . S
H227 C249 0.948 1_554 S
H228 C251 0.951 . S
H229 C216 0.947 . S
H230 C218 0.952 . S
H231 C219 0.950 . S
N232 C235 1.382 . S
N232 C237 1.363 . S
N233 C235 1.371 1_556 S
N233 C236 1.378 . S
N234 C236 1.349 1_554 S
N234 C237 1.377 . S
C235 N232 1.382 . S
C235 N233 1.371 1_554 S
C235 C238 1.480 1_554 S
C236 N233 1.378 . S
C236 N234 1.349 1_556 S
C236 C244 1.464 . S
C237 N232 1.363 . S
C237 N234 1.377 . S
C237 C250 1.479 . S
C238 C235 1.480 1_556 S
C238 C239 1.383 1_556 S
C238 C243 1.385 . S
C239 H220 0.947 . S
C239 C238 1.383 1_554 S
C239 C240 1.388 1_554 S
C240 H221 0.946 1_556 S
C240 C239 1.388 1_556 S
C240 C241 1.384 . S
C241 C240 1.384 . S
C241 C242 1.377 . S
C242 H222 0.953 . S
C242 C241 1.377 . S
C242 C243 1.369 . S
C243 H223 0.945 . S
C243 C238 1.385 . S
C243 C242 1.369 . S
C244 C236 1.464 . S
C244 C245 1.372 . S
C244 C249 1.364 . S
C245 H224 0.952 . S
C245 C244 1.372 . S
C245 C246 1.389 . S
C246 H225 0.949 . S
C246 C245 1.389 . S
C246 C247 1.387 . S
C247 C246 1.387 . S
C247 C248 1.372 . S
C248 H226 0.950 . S
C248 C247 1.372 . S
C248 C249 1.379 . S
C249 H227 0.948 1_556 S
C249 C244 1.364 . S
C249 C248 1.379 . S
C250 C219 1.383 . S
C250 C237 1.479 . S
C250 C251 1.398 . S
C251 C216 1.382 . S
C251 H228 0.951 . S
C251 C250 1.398 . S
C252 C253 1.384 . S
C252 H265 0.947 . S
C252 C287 1.382 . S
C253 C252 1.384 . S
C253 C254 1.378 . S
C254 C253 1.378 . S
C254 C255 1.378 . S
C254 H266 0.952 . S
C255 C254 1.378 . S
C255 H267 0.950 . S
C255 C286 1.383 . S
H256 C275 0.947 . S
H257 C276 0.946 . S
H258 C278 0.953 . S
H259 C279 0.945 . S
H260 C281 0.952 . S
H261 C282 0.949 . S
H262 C284 0.950 . S
H263 C285 0.948 . S
H264 C287 0.951 . S
H265 C252 0.947 . S
H266 C254 0.952 . S
H267 C255 0.950 . S
N268 C271 1.382 . S
N268 C273 1.363 . S
N269 C271 1.371 . S
N269 C272 1.372 . S
N270 C272 1.361 . S
N270 C273 1.377 . S
C271 N268 1.382 . S
C271 N269 1.371 . S
C271 C274 1.480 . S
C272 N269 1.372 . S
C272 N270 1.361 . S
C272 C280 1.457 . S
C273 N268 1.363 . S
C273 N270 1.377 . S
C273 C286 1.479 . S
C274 C271 1.480 . S
C274 C275 1.383 . S
C274 C279 1.385 . S
C275 H256 0.947 . S
C275 C274 1.383 . S
C275 C276 1.388 . S
C276 H257 0.946 . S
C276 C275 1.388 . S
C276 C277 1.384 . S
C277 C276 1.384 . S
C277 C278 1.377 . S
C278 H258 0.953 . S
C278 C277 1.377 . S
C278 C279 1.369 . S
C279 H259 0.945 . S
C279 C274 1.385 . S
C279 C278 1.369 . S
C280 C272 1.457 . S
C280 C281 1.372 . S
C280 C285 1.364 . S
C281 H260 0.952 . S
C281 C280 1.372 . S
C281 C282 1.389 . S
C282 H261 0.949 . S
C282 C281 1.389 . S
C282 C283 1.387 . S
C283 C282 1.387 . S
C283 C284 1.372 . S
C284 H262 0.950 . S
C284 C283 1.372 . S
C284 C285 1.379 . S
C285 H263 0.948 . S
C285 C280 1.364 . S
C285 C284 1.379 . S
C286 C255 1.383 . S
C286 C273 1.479 . S
C286 C287 1.398 . S
C287 C252 1.382 . S
C287 H264 0.951 . S
C287 C286 1.398 . S
Sc288 O291 2.025 . S
Sc288 O298 2.105 1_455 S
Sc288 O301 2.105 . S
Sc288 O304 2.105 . S
Sc288 O307 2.105 1_455 S
Sc289 O291 2.025 . S
Sc289 O299 2.105 1_455 S
Sc289 O303 2.105 . S
Sc289 O305 2.105 . S
Sc289 O309 2.105 1_455 S
Sc290 O291 2.025 . S
Sc290 O300 2.105 1_455 S
Sc290 O302 2.105 . S
Sc290 O306 2.105 . S
Sc290 O308 2.105 1_455 S
O291 Sc288 2.025 . S
O291 Sc289 2.025 . S
O291 Sc290 2.025 . S
C292 O298 1.268 . S
C292 O308 1.268 . S
C293 O299 1.268 . S
C293 O307 1.268 . S
C294 O300 1.268 . S
C294 O309 1.268 . S
C295 O301 1.268 . S
C295 O305 1.268 . S
C296 O302 1.268 . S
C296 O304 1.268 . S
C297 O303 1.268 . S
C297 O306 1.268 . S
O298 Sc288 2.105 1_655 S
O298 C292 1.268 . S
O299 Sc289 2.105 1_655 S
O299 C293 1.268 . S
O300 Sc290 2.105 1_655 S
O300 C294 1.268 . S
O301 Sc288 2.105 . S
O301 C295 1.268 . S
O302 Sc290 2.105 . S
O302 C296 1.268 . S
O303 Sc289 2.105 . S
O303 C297 1.268 . S
O304 Sc288 2.105 . S
O304 C296 1.268 . S
O305 Sc289 2.105 . S
O305 C295 1.268 . S
O306 Sc290 2.105 . S
O306 C297 1.268 . S
O307 Sc288 2.105 1_655 S
O307 C293 1.268 . S
O308 Sc290 2.105 1_655 S
O308 C292 1.268 . S
O309 Sc289 2.105 1_655 S
O309 C294 1.268 . S
Sc310 O313 2.025 . S
Sc310 O320 2.105 . S
Sc310 O323 2.105 1_455 S
Sc310 O326 2.105 1_455 S
Sc310 O329 2.105 . S
Sc311 O313 2.025 . S
Sc311 O321 2.105 . S
Sc311 O325 2.105 1_455 S
Sc311 O327 2.105 1_455 S
Sc311 O331 2.105 . S
Sc312 O313 2.025 . S
Sc312 O322 2.105 . S
Sc312 O324 2.105 1_455 S
Sc312 O328 2.105 1_455 S
Sc312 O330 2.105 . S
O313 Sc310 2.025 . S
O313 Sc311 2.025 . S
O313 Sc312 2.025 . S
C314 O320 1.268 . S
C314 O330 1.268 . S
C315 O321 1.268 . S
C315 O329 1.268 . S
C316 O322 1.268 . S
C316 O331 1.268 . S
C317 O323 1.268 . S
C317 O327 1.268 . S
C318 O324 1.268 . S
C318 O326 1.268 . S
C319 O325 1.268 . S
C319 O328 1.268 . S
O320 Sc310 2.105 . S
O320 C314 1.268 . S
O321 Sc311 2.105 . S
O321 C315 1.268 . S
O322 Sc312 2.105 . S
O322 C316 1.268 . S
O323 Sc310 2.105 1_655 S
O323 C317 1.268 . S
O324 Sc312 2.105 1_655 S
O324 C318 1.268 . S
O325 Sc311 2.105 1_655 S
O325 C319 1.268 . S
O326 Sc310 2.105 1_655 S
O326 C318 1.268 . S
O327 Sc311 2.105 1_655 S
O327 C317 1.268 . S
O328 Sc312 2.105 1_655 S
O328 C319 1.268 . S
O329 Sc310 2.105 . S
O329 C315 1.268 . S
O330 Sc312 2.105 . S
O330 C314 1.268 . S
O331 Sc311 2.105 . S
O331 C316 1.268 . S
Sc332 O335 2.025 . S
Sc332 O342 2.105 . S
Sc332 O345 2.105 . S
Sc332 O348 2.105 . S
Sc332 O351 2.105 . S
Sc333 O335 2.025 . S
Sc333 O343 2.105 . S
Sc333 O347 2.105 . S
Sc333 O349 2.105 . S
Sc333 O353 2.105 . S
Sc334 O335 2.025 . S
Sc334 O344 2.105 . S
Sc334 O346 2.105 . S
Sc334 O350 2.105 . S
Sc334 O352 2.105 . S
O335 Sc332 2.025 . S
O335 Sc333 2.025 . S
O335 Sc334 2.025 . S
C336 O342 1.268 . S
C336 O352 1.268 . S
C337 O343 1.268 . S
C337 O351 1.268 . S
C338 O344 1.268 . S
C338 O353 1.268 . S
C339 O345 1.268 . S
C339 O349 1.268 . S
C340 O346 1.268 . S
C340 O348 1.268 . S
C341 O347 1.268 . S
C341 O350 1.268 . S
O342 Sc332 2.105 . S
O342 C336 1.268 . S
O343 Sc333 2.105 . S
O343 C337 1.268 . S
O344 Sc334 2.105 . S
O344 C338 1.268 . S
O345 Sc332 2.105 . S
O345 C339 1.268 . S
O346 Sc334 2.105 . S
O346 C340 1.268 . S
O347 Sc333 2.105 . S
O347 C341 1.268 . S
O348 Sc332 2.105 . S
O348 C340 1.268 . S
O349 Sc333 2.105 . S
O349 C339 1.268 . S
O350 Sc334 2.105 . S
O350 C341 1.268 . S
O351 Sc332 2.105 . S
O351 C337 1.268 . S
O352 Sc334 2.105 . S
O352 C336 1.268 . S
O353 Sc333 2.105 . S
O353 C338 1.268 . S
Sc354 O357 2.025 . S
Sc354 O364 2.105 . S
Sc354 O367 2.105 . S
Sc354 O370 2.105 . S
Sc354 O373 2.105 . S
Sc355 O357 2.025 . S
Sc355 O365 2.105 . S
Sc355 O369 2.105 . S
Sc355 O371 2.105 . S
Sc355 O375 2.105 . S
Sc356 O357 2.025 . S
Sc356 O366 2.105 . S
Sc356 O368 2.105 . S
Sc356 O372 2.105 . S
Sc356 O374 2.105 . S
O357 Sc354 2.025 . S
O357 Sc355 2.025 . S
O357 Sc356 2.025 . S
C358 O364 1.268 . S
C358 O374 1.268 . S
C359 O365 1.268 . S
C359 O373 1.268 . S
C360 O366 1.268 . S
C360 O375 1.268 . S
C361 O367 1.268 . S
C361 O371 1.268 . S
C362 O368 1.268 . S
C362 O370 1.268 . S
C363 O369 1.268 . S
C363 O372 1.268 . S
O364 Sc354 2.105 . S
O364 C358 1.268 . S
O365 Sc355 2.105 . S
O365 C359 1.268 . S
O366 Sc356 2.105 . S
O366 C360 1.268 . S
O367 Sc354 2.105 . S
O367 C361 1.268 . S
O368 Sc356 2.105 . S
O368 C362 1.268 . S
O369 Sc355 2.105 . S
O369 C363 1.268 . S
O370 Sc354 2.105 . S
O370 C362 1.268 . S
O371 Sc355 2.105 . S
O371 C361 1.268 . S
O372 Sc356 2.105 . S
O372 C363 1.268 . S
O373 Sc354 2.105 . S
O373 C359 1.268 . S
O374 Sc356 2.105 . S
O374 C358 1.268 . S
O375 Sc355 2.105 . S
O375 C360 1.268 . S
H376 C384 0.929 . S
H377 C386 0.930 . S
H378 C388 0.930 . S
H379 C391 0.929 . S
H380 C394 0.930 . S
H381 C396 0.960 . S
H382 C396 0.960 . S
H383 C396 0.960 . S
C384 H376 0.929 . S
C384 C385 1.377 . S
C384 C386 1.384 . S
C385 C384 1.377 . S
C385 C391 1.390 . S
C386 H377 0.930 . S
C386 C384 1.384 . S
C386 C387 1.372 . S
C387 C386 1.372 . S
C387 C388 1.400 . S
C387 C392 1.490 . S
C388 H378 0.930 . S
C388 C387 1.400 . S
C388 C391 1.386 . S
H389 C405 0.930 . S
H390 C406 0.931 . S
C391 H379 0.929 . S
C391 C385 1.390 . S
C391 C388 1.386 . S
C392 C387 1.490 . S
C392 C394 1.395 . S
C392 C395 1.403 . S
H393 C399 0.930 . S
C394 H380 0.930 . S
C394 C392 1.395 . S
C394 C397 1.403 . S
C395 C392 1.403 . S
C395 C396 1.524 . S
C395 C399 1.400 . S
C396 H381 0.960 . S
C396 H382 0.960 . S
C396 H383 0.960 . S
C396 C395 1.524 . S
C397 C394 1.403 . S
C397 C398 1.392 . S
C397 C401 1.495 . S
C398 C397 1.392 . S
C398 C399 1.385 . S
C398 C400 1.478 . S
C399 H393 0.930 . S
C399 C395 1.400 . S
C399 C398 1.385 . S
C400 C398 1.478 . S
C400 C402 1.381 . S
C400 C406 1.383 . S
C401 C397 1.495 . S
C401 H407 0.959 . S
C401 H408 0.961 . S
C401 H409 0.960 . S
C402 C400 1.381 . S
C402 C403 1.394 . S
C402 H410 0.930 . S
C403 C402 1.394 . S
C403 C404 1.383 . S
C403 H411 0.929 . S
C404 C403 1.383 . S
C404 C405 1.377 . S
C405 H389 0.930 . S
C405 C404 1.377 . S
C405 C406 1.379 . S
C406 H390 0.931 . S
C406 C400 1.383 . S
C406 C405 1.379 . S
H407 C401 0.959 . S
H408 C401 0.961 . S
H409 C401 0.960 . S
H410 C402 0.930 . S
H411 C403 0.929 . S
H412 C420 0.929 . S
H413 C422 0.930 . S
H414 C424 0.930 . S
H415 C427 0.929 . S
H416 C430 0.930 . S
H417 C432 0.960 . S
H418 C432 0.960 . S
H419 C432 0.960 . S
C420 H412 0.929 . S
C420 C421 1.377 . S
C420 C422 1.384 . S
C421 C420 1.377 . S
C421 C427 1.390 . S
C422 H413 0.930 . S
C422 C420 1.384 . S
C422 C423 1.372 . S
C423 C422 1.372 . S
C423 C424 1.400 . S
C423 C428 1.490 . S
C424 H414 0.930 . S
C424 C423 1.400 . S
C424 C427 1.386 . S
H425 C441 0.930 . S
H426 C442 0.931 . S
C427 H415 0.929 . S
C427 C421 1.390 . S
C427 C424 1.386 . S
C428 C423 1.490 . S
C428 C430 1.395 . S
C428 C431 1.403 . S
H429 C435 0.930 . S
C430 H416 0.930 . S
C430 C428 1.395 . S
C430 C433 1.403 . S
C431 C428 1.403 . S
C431 C432 1.524 . S
C431 C435 1.400 . S
C432 H417 0.960 . S
C432 H418 0.960 . S
C432 H419 0.960 . S
C432 C431 1.524 . S
C433 C430 1.403 . S
C433 C434 1.392 . S
C433 C437 1.495 . S
C434 C433 1.392 . S
C434 C435 1.385 . S
C434 C436 1.478 . S
C435 H429 0.930 . S
C435 C431 1.400 . S
C435 C434 1.385 . S
C436 C434 1.478 . S
C436 C438 1.381 . S
C436 C442 1.383 . S
C437 C433 1.495 . S
C437 H443 0.959 . S
C437 H444 0.961 . S
C437 H445 0.960 . S
C438 C436 1.381 . S
C438 C439 1.394 . S
C438 H446 0.930 . S
C439 C438 1.394 . S
C439 C440 1.383 . S
C439 H447 0.929 . S
C440 C439 1.383 . S
C440 C441 1.377 . S
C441 H425 0.930 . S
C441 C440 1.377 . S
C441 C442 1.379 . S
C442 H426 0.931 . S
C442 C436 1.383 . S
C442 C441 1.379 . S
H443 C437 0.959 . S
H444 C437 0.961 . S
H445 C437 0.960 . S
H446 C438 0.930 . S
H447 C439 0.929 . S
H448 C456 0.929 . S
H449 C458 0.930 . S
H450 C460 0.930 . S
H451 C463 0.929 . S
H452 C466 0.930 . S
H453 C468 0.960 . S
H454 C468 0.960 . S
H455 C468 0.960 . S
C456 H448 0.929 . S
C456 C457 1.377 . S
C456 C458 1.384 . S
C457 C456 1.377 . S
C457 C463 1.390 . S
C458 H449 0.930 . S
C458 C456 1.384 . S
C458 C459 1.372 . S
C459 C458 1.372 . S
C459 C460 1.400 . S
C459 C464 1.490 . S
C460 H450 0.930 . S
C460 C459 1.400 . S
C460 C463 1.386 . S
H461 C477 0.930 . S
H462 C478 0.931 . S
C463 H451 0.929 . S
C463 C457 1.390 . S
C463 C460 1.386 . S
C464 C459 1.490 . S
C464 C466 1.395 . S
C464 C467 1.403 . S
H465 C471 0.930 . S
C466 H452 0.930 . S
C466 C464 1.395 . S
C466 C469 1.403 . S
C467 C464 1.403 . S
C467 C468 1.524 . S
C467 C471 1.400 . S
C468 H453 0.960 . S
C468 H454 0.960 . S
C468 H455 0.960 . S
C468 C467 1.524 . S
C469 C466 1.403 . S
C469 C470 1.392 . S
C469 C473 1.495 . S
C470 C469 1.392 . S
C470 C471 1.385 . S
C470 C472 1.478 . S
C471 H465 0.930 . S
C471 C467 1.400 . S
C471 C470 1.385 . S
C472 C470 1.478 . S
C472 C474 1.381 . S
C472 C478 1.383 . S
C473 C469 1.495 . S
C473 H479 0.959 . S
C473 H480 0.961 . S
C473 H481 0.960 . S
C474 C472 1.381 . S
C474 C475 1.394 . S
C474 H482 0.930 . S
C475 C474 1.394 . S
C475 C476 1.383 . S
C475 H483 0.929 . S
C476 C475 1.383 . S
C476 C477 1.377 . S
C477 H461 0.930 . S
C477 C476 1.377 . S
C477 C478 1.379 . S
C478 H462 0.931 . S
C478 C472 1.383 . S
C478 C477 1.379 . S
H479 C473 0.959 . S
H480 C473 0.961 . S
H481 C473 0.960 . S
H482 C474 0.930 . S
H483 C475 0.929 . S
H484 C492 0.929 . S
H485 C494 0.930 . S
H486 C496 0.930 . S
H487 C499 0.929 . S
H488 C502 0.930 . S
H489 C504 0.960 . S
H490 C504 0.960 . S
H491 C504 0.960 . S
C492 H484 0.929 . S
C492 C493 1.377 . S
C492 C494 1.384 . S
C493 C492 1.377 . S
C493 C499 1.390 . S
C494 H485 0.930 . S
C494 C492 1.384 . S
C494 C495 1.372 . S
C495 C494 1.372 . S
C495 C496 1.400 . S
C495 C500 1.490 . S
C496 H486 0.930 . S
C496 C495 1.400 . S
C496 C499 1.386 . S
H497 C513 0.930 . S
H498 C514 0.931 . S
C499 H487 0.929 . S
C499 C493 1.390 . S
C499 C496 1.386 . S
C500 C495 1.490 . S
C500 C502 1.395 . S
C500 C503 1.403 . S
H501 C507 0.930 . S
C502 H488 0.930 . S
C502 C500 1.395 . S
C502 C505 1.403 . S
C503 C500 1.403 . S
C503 C504 1.524 . S
C503 C507 1.400 . S
C504 H489 0.960 . S
C504 H490 0.960 . S
C504 H491 0.960 . S
C504 C503 1.524 . S
C505 C502 1.403 . S
C505 C506 1.392 . S
C505 C509 1.495 . S
C506 C505 1.392 . S
C506 C507 1.385 . S
C506 C508 1.478 . S
C507 H501 0.930 . S
C507 C503 1.400 . S
C507 C506 1.385 . S
C508 C506 1.478 . S
C508 C510 1.381 . S
C508 C514 1.383 . S
C509 C505 1.495 . S
C509 H515 0.959 . S
C509 H516 0.961 . S
C509 H517 0.960 . S
C510 C508 1.381 . S
C510 C511 1.394 . S
C510 H518 0.930 . S
C511 C510 1.394 . S
C511 C512 1.383 . S
C511 H519 0.929 . S
C512 C511 1.383 . S
C512 C513 1.377 . S
C513 H497 0.930 . S
C513 C512 1.377 . S
C513 C514 1.379 . S
C514 H498 0.931 . S
C514 C508 1.383 . S
C514 C513 1.379 . S
H515 C509 0.959 . S
H516 C509 0.961 . S
H517 C509 0.960 . S
H518 C510 0.930 . S
H519 C511 0.929 . S
H520 C528 0.929 . S
H521 C530 0.930 . S
H522 C532 0.930 . S
H523 C535 0.929 . S
H524 C538 0.930 . S
H525 C540 0.960 . S
H526 C540 0.960 . S
H527 C540 0.960 . S
C528 H520 0.929 . S
C528 C529 1.377 . S
C528 C530 1.384 . S
C529 C528 1.377 . S
C529 C535 1.390 . S
C530 H521 0.930 . S
C530 C528 1.384 . S
C530 C531 1.372 . S
C531 C530 1.372 . S
C531 C532 1.400 . S
C531 C536 1.490 . S
C532 H522 0.930 . S
C532 C531 1.400 . S
C532 C535 1.386 . S
H533 C549 0.930 . S
H534 C550 0.931 . S
C535 H523 0.929 . S
C535 C529 1.390 . S
C535 C532 1.386 . S
C536 C531 1.490 . S
C536 C538 1.395 . S
C536 C539 1.403 . S
H537 C543 0.930 . S
C538 H524 0.930 . S
C538 C536 1.395 . S
C538 C541 1.403 . S
C539 C536 1.403 . S
C539 C540 1.524 . S
C539 C543 1.400 . S
C540 H525 0.960 . S
C540 H526 0.960 . S
C540 H527 0.960 . S
C540 C539 1.524 . S
C541 C538 1.403 . S
C541 C542 1.392 . S
C541 C545 1.495 . S
C542 C541 1.392 . S
C542 C543 1.385 . S
C542 C544 1.478 . S
C543 H537 0.930 . S
C543 C539 1.400 . S
C543 C542 1.385 . S
C544 C542 1.478 . S
C544 C546 1.381 . S
C544 C550 1.383 . S
C545 C541 1.495 . S
C545 H551 0.959 . S
C545 H552 0.961 . S
C545 H553 0.960 . S
C546 C544 1.381 . S
C546 C547 1.394 . S
C546 H554 0.930 . S
C547 C546 1.394 . S
C547 C548 1.383 . S
C547 H555 0.929 . S
C548 C547 1.383 . S
C548 C549 1.377 . S
C549 H533 0.930 . S
C549 C548 1.377 . S
C549 C550 1.379 . S
C550 H534 0.931 . S
C550 C544 1.383 . S
C550 C549 1.379 . S
H551 C545 0.959 . S
H552 C545 0.961 . S
H553 C545 0.960 . S
H554 C546 0.930 . S
H555 C547 0.929 . S
H556 C564 0.929 . S
H557 C566 0.930 . S
H558 C568 0.930 . S
H559 C571 0.929 . S
H560 C574 0.930 . S
H561 C576 0.960 . S
H562 C576 0.960 . S
H563 C576 0.960 . S
C564 H556 0.929 . S
C564 C565 1.377 . S
C564 C566 1.384 . S
C565 C564 1.377 . S
C565 C571 1.390 . S
C566 H557 0.930 . S
C566 C564 1.384 . S
C566 C567 1.372 . S
C567 C566 1.372 . S
C567 C568 1.400 . S
C567 C572 1.490 . S
C568 H558 0.930 . S
C568 C567 1.400 . S
C568 C571 1.386 . S
H569 C585 0.930 . S
H570 C586 0.931 . S
C571 H559 0.929 . S
C571 C565 1.390 . S
C571 C568 1.386 . S
C572 C567 1.490 . S
C572 C574 1.395 . S
C572 C575 1.403 . S
H573 C579 0.930 . S
C574 H560 0.930 . S
C574 C572 1.395 . S
C574 C577 1.403 . S
C575 C572 1.403 . S
C575 C576 1.524 . S
C575 C579 1.400 . S
C576 H561 0.960 . S
C576 H562 0.960 . S
C576 H563 0.960 . S
C576 C575 1.524 . S
C577 C574 1.403 . S
C577 C578 1.392 . S
C577 C581 1.495 . S
C578 C577 1.392 . S
C578 C579 1.385 . S
C578 C580 1.478 . S
C579 H573 0.930 . S
C579 C575 1.400 . S
C579 C578 1.385 . S
C580 C578 1.478 . S
C580 C582 1.381 . S
C580 C586 1.383 . S
C581 C577 1.495 . S
C581 H587 0.959 . S
C581 H588 0.961 . S
C581 H589 0.960 . S
C582 C580 1.381 . S
C582 C583 1.394 . S
C582 H590 0.930 . S
C583 C582 1.394 . S
C583 C584 1.383 . S
C583 H591 0.929 . S
C584 C583 1.383 . S
C584 C585 1.377 . S
C585 H569 0.930 . S
C585 C584 1.377 . S
C585 C586 1.379 . S
C586 H570 0.931 . S
C586 C580 1.383 . S
C586 C585 1.379 . S
H587 C581 0.959 . S
H588 C581 0.961 . S
H589 C581 0.960 . S
H590 C582 0.930 . S
H591 C583 0.929 . S
H592 C600 0.929 . S
H593 C602 0.930 . S
H594 C604 0.930 . S
H595 C607 0.929 . S
H596 C610 0.930 . S
H597 C612 0.960 . S
H598 C612 0.960 . S
H599 C612 0.960 . S
C600 H592 0.929 . S
C600 C601 1.377 . S
C600 C602 1.384 . S
C601 C600 1.377 . S
C601 C607 1.390 . S
C602 H593 0.930 . S
C602 C600 1.384 . S
C602 C603 1.372 . S
C603 C602 1.372 . S
C603 C604 1.400 . S
C603 C608 1.490 . S
C604 H594 0.930 . S
C604 C603 1.400 . S
C604 C607 1.386 . S
H605 C621 0.930 . S
H606 C622 0.931 . S
C607 H595 0.929 . S
C607 C601 1.390 . S
C607 C604 1.386 . S
C608 C603 1.490 . S
C608 C610 1.395 . S
C608 C611 1.403 . S
H609 C615 0.930 . S
C610 H596 0.930 . S
C610 C608 1.395 . S
C610 C613 1.403 . S
C611 C608 1.403 . S
C611 C612 1.524 . S
C611 C615 1.400 . S
C612 H597 0.960 . S
C612 H598 0.960 . S
C612 H599 0.960 . S
C612 C611 1.524 . S
C613 C610 1.403 . S
C613 C614 1.392 . S
C613 C617 1.495 . S
C614 C613 1.392 . S
C614 C615 1.385 . S
C614 C616 1.478 . S
C615 H609 0.930 . S
C615 C611 1.400 . S
C615 C614 1.385 . S
C616 C614 1.478 . S
C616 C618 1.381 . S
C616 C622 1.383 . S
C617 C613 1.495 . S
C617 H623 0.959 . S
C617 H624 0.961 . S
C617 H625 0.960 . S
C618 C616 1.381 . S
C618 C619 1.394 . S
C618 H626 0.930 . S
C619 C618 1.394 . S
C619 C620 1.383 . S
C619 H627 0.929 . S
C620 C619 1.383 . S
C620 C621 1.377 . S
C621 H605 0.930 . S
C621 C620 1.377 . S
C621 C622 1.379 . S
C622 H606 0.931 . S
C622 C616 1.383 . S
C622 C621 1.379 . S
H623 C617 0.959 . S
H624 C617 0.961 . S
H625 C617 0.960 . S
H626 C618 0.930 . S
H627 C619 0.929 . S
H628 C636 0.929 . S
H629 C638 0.930 . S
H630 C640 0.930 . S
H631 C643 0.929 . S
H632 C646 0.930 . S
H633 C648 0.960 . S
H634 C648 0.960 . S
H635 C648 0.960 . S
C636 H628 0.929 . S
C636 C637 1.377 . S
C636 C638 1.384 . S
C637 C636 1.377 . S
C637 C643 1.390 . S
C638 H629 0.930 . S
C638 C636 1.384 . S
C638 C639 1.372 . S
C639 C638 1.372 . S
C639 C640 1.400 . S
C639 C644 1.490 . S
C640 H630 0.930 . S
C640 C639 1.400 . S
C640 C643 1.386 . S
H641 C657 0.930 . S
H642 C658 0.931 . S
C643 H631 0.929 . S
C643 C637 1.390 . S
C643 C640 1.386 . S
C644 C639 1.490 . S
C644 C646 1.395 . S
C644 C647 1.403 . S
H645 C651 0.930 . S
C646 H632 0.930 . S
C646 C644 1.395 . S
C646 C649 1.403 . S
C647 C644 1.403 . S
C647 C648 1.524 . S
C647 C651 1.400 . S
C648 H633 0.960 . S
C648 H634 0.960 . S
C648 H635 0.960 . S
C648 C647 1.524 . S
C649 C646 1.403 . S
C649 C650 1.392 . S
C649 C653 1.495 . S
C650 C649 1.392 . S
C650 C651 1.385 . S
C650 C652 1.478 . S
C651 H645 0.930 . S
C651 C647 1.400 . S
C651 C650 1.385 . S
C652 C650 1.478 . S
C652 C654 1.381 . S
C652 C658 1.383 . S
C653 C649 1.495 . S
C653 H659 0.959 . S
C653 H660 0.961 . S
C653 H661 0.960 . S
C654 C652 1.381 . S
C654 C655 1.394 . S
C654 H662 0.930 . S
C655 C654 1.394 . S
C655 C656 1.383 . S
C655 H663 0.929 . S
C656 C655 1.383 . S
C656 C657 1.377 . S
C657 H641 0.930 . S
C657 C656 1.377 . S
C657 C658 1.379 . S
C658 H642 0.931 . S
C658 C652 1.383 . S
C658 C657 1.379 . S
H659 C653 0.959 . S
H660 C653 0.961 . S
H661 C653 0.960 . S
H662 C654 0.930 . S
H663 C655 0.929 . S
H664 C672 0.929 . S
H665 C674 0.930 . S
H666 C676 0.930 . S
H667 C679 0.929 . S
H668 C682 0.930 . S
H669 C684 0.960 . S
H670 C684 0.960 . S
H671 C684 0.960 . S
C672 H664 0.929 . S
C672 C673 1.377 . S
C672 C674 1.384 . S
C673 C672 1.377 . S
C673 C679 1.390 . S
C674 H665 0.930 . S
C674 C672 1.384 . S
C674 C675 1.372 . S
C675 C674 1.372 . S
C675 C676 1.400 . S
C675 C680 1.490 . S
C676 H666 0.930 . S
C676 C675 1.400 . S
C676 C679 1.386 . S
H677 C693 0.930 . S
H678 C694 0.931 . S
C679 H667 0.929 . S
C679 C673 1.390 . S
C679 C676 1.386 . S
C680 C675 1.490 . S
C680 C682 1.395 . S
C680 C683 1.403 . S
H681 C687 0.930 . S
C682 H668 0.930 . S
C682 C680 1.395 . S
C682 C685 1.403 . S
C683 C680 1.403 . S
C683 C684 1.524 . S
C683 C687 1.400 . S
C684 H669 0.960 . S
C684 H670 0.960 . S
C684 H671 0.960 . S
C684 C683 1.524 . S
C685 C682 1.403 . S
C685 C686 1.392 . S
C685 C689 1.495 . S
C686 C685 1.392 . S
C686 C687 1.385 . S
C686 C688 1.478 . S
C687 H681 0.930 . S
C687 C683 1.400 . S
C687 C686 1.385 . S
C688 C686 1.478 . S
C688 C690 1.381 . S
C688 C694 1.383 . S
C689 C685 1.495 . S
C689 H695 0.959 . S
C689 H696 0.961 . S
C689 H697 0.960 . S
C690 C688 1.381 . S
C690 C691 1.394 . S
C690 H698 0.930 . S
C691 C690 1.394 . S
C691 C692 1.383 . S
C691 H699 0.929 . S
C692 C691 1.383 . S
C692 C693 1.377 . S
C693 H677 0.930 . S
C693 C692 1.377 . S
C693 C694 1.379 . S
C694 H678 0.931 . S
C694 C688 1.383 . S
C694 C693 1.379 . S
H695 C689 0.959 . S
H696 C689 0.961 . S
H697 C689 0.960 . S
H698 C690 0.930 . S
H699 C691 0.929 . S
H700 C708 0.929 . S
H701 C710 0.930 . S
H702 C712 0.930 . S
H703 C715 0.929 . S
H704 C718 0.930 . S
H705 C720 0.960 . S
H706 C720 0.960 . S
H707 C720 0.960 . S
C708 H700 0.929 . S
C708 C709 1.377 . S
C708 C710 1.384 . S
C709 C708 1.377 . S
C709 C715 1.390 . S
C710 H701 0.930 . S
C710 C708 1.384 . S
C710 C711 1.372 . S
C711 C710 1.372 . S
C711 C712 1.400 . S
C711 C716 1.490 . S
C712 H702 0.930 . S
C712 C711 1.400 . S
C712 C715 1.386 . S
H713 C729 0.930 . S
H714 C730 0.931 . S
C715 H703 0.929 . S
C715 C709 1.390 . S
C715 C712 1.386 . S
C716 C711 1.490 . S
C716 C718 1.395 . S
C716 C719 1.403 . S
H717 C723 0.930 . S
C718 H704 0.930 . S
C718 C716 1.395 . S
C718 C721 1.403 . S
C719 C716 1.403 . S
C719 C720 1.524 . S
C719 C723 1.400 . S
C720 H705 0.960 . S
C720 H706 0.960 . S
C720 H707 0.960 . S
C720 C719 1.524 . S
C721 C718 1.403 . S
C721 C722 1.392 . S
C721 C725 1.495 . S
C722 C721 1.392 . S
C722 C723 1.385 . S
C722 C724 1.478 . S
C723 H717 0.930 . S
C723 C719 1.400 . S
C723 C722 1.385 . S
C724 C722 1.478 . S
C724 C726 1.381 . S
C724 C730 1.383 . S
C725 C721 1.495 . S
C725 H731 0.959 . S
C725 H732 0.961 . S
C725 H733 0.960 . S
C726 C724 1.381 . S
C726 C727 1.394 . S
C726 H734 0.930 . S
C727 C726 1.394 . S
C727 C728 1.383 . S
C727 H735 0.929 . S
C728 C727 1.383 . S
C728 C729 1.377 . S
C729 H713 0.930 . S
C729 C728 1.377 . S
C729 C730 1.379 . S
C730 H714 0.931 . S
C730 C724 1.383 . S
C730 C729 1.379 . S
H731 C725 0.959 . S
H732 C725 0.961 . S
H733 C725 0.960 . S
H734 C726 0.930 . S
H735 C727 0.929 . S
H736 C744 0.929 . S
H737 C746 0.930 . S
H738 C748 0.930 . S
H739 C751 0.929 . S
H740 C754 0.930 . S
H741 C756 0.960 . S
H742 C756 0.960 . S
H743 C756 0.960 . S
C744 H736 0.929 . S
C744 C745 1.377 . S
C744 C746 1.384 . S
C745 C744 1.377 . S
C745 C751 1.390 . S
C746 H737 0.930 . S
C746 C744 1.384 . S
C746 C747 1.372 . S
C747 C746 1.372 . S
C747 C748 1.400 . S
C747 C752 1.490 . S
C748 H738 0.930 . S
C748 C747 1.400 . S
C748 C751 1.386 . S
H749 C765 0.930 . S
H750 C766 0.931 . S
C751 H739 0.929 . S
C751 C745 1.390 . S
C751 C748 1.386 . S
C752 C747 1.490 . S
C752 C754 1.395 . S
C752 C755 1.403 . S
H753 C759 0.930 . S
C754 H740 0.930 . S
C754 C752 1.395 . S
C754 C757 1.403 . S
C755 C752 1.403 . S
C755 C756 1.524 . S
C755 C759 1.400 . S
C756 H741 0.960 . S
C756 H742 0.960 . S
C756 H743 0.960 . S
C756 C755 1.524 . S
C757 C754 1.403 . S
C757 C758 1.392 . S
C757 C761 1.495 . S
C758 C757 1.392 . S
C758 C759 1.385 . S
C758 C760 1.478 . S
C759 H753 0.930 . S
C759 C755 1.400 . S
C759 C758 1.385 . S
C760 C758 1.478 . S
C760 C762 1.381 . S
C760 C766 1.383 . S
C761 C757 1.495 . S
C761 H767 0.959 . S
C761 H768 0.961 . S
C761 H769 0.960 . S
C762 C760 1.381 . S
C762 C763 1.394 . S
C762 H770 0.930 . S
C763 C762 1.394 . S
C763 C764 1.383 . S
C763 H771 0.929 . S
C764 C763 1.383 . S
C764 C765 1.377 . S
C765 H749 0.930 . S
C765 C764 1.377 . S
C765 C766 1.379 . S
C766 H750 0.931 . S
C766 C760 1.383 . S
C766 C765 1.379 . S
H767 C761 0.959 . S
H768 C761 0.961 . S
H769 C761 0.960 . S
H770 C762 0.930 . S
H771 C763 0.929 . S
H772 C780 0.929 . S
H773 C782 0.930 . S
H774 C784 0.930 . S
H775 C787 0.929 . S
H776 C790 0.930 . S
H777 C792 0.960 . S
H778 C792 0.960 . S
H779 C792 0.960 . S
C780 H772 0.929 . S
C780 C781 1.377 . S
C780 C782 1.384 . S
C781 C780 1.377 . S
C781 C787 1.390 . S
C782 H773 0.930 . S
C782 C780 1.384 . S
C782 C783 1.372 . S
C783 C782 1.372 . S
C783 C784 1.400 . S
C783 C788 1.490 . S
C784 H774 0.930 . S
C784 C783 1.400 . S
C784 C787 1.386 . S
H785 C801 0.930 . S
H786 C802 0.931 . S
C787 H775 0.929 . S
C787 C781 1.390 . S
C787 C784 1.386 . S
C788 C783 1.490 . S
C788 C790 1.395 . S
C788 C791 1.403 . S
H789 C795 0.930 . S
C790 H776 0.930 . S
C790 C788 1.395 . S
C790 C793 1.403 . S
C791 C788 1.403 . S
C791 C792 1.524 . S
C791 C795 1.400 . S
C792 H777 0.960 . S
C792 H778 0.960 . S
C792 H779 0.960 . S
C792 C791 1.524 . S
C793 C790 1.403 . S
C793 C794 1.392 . S
C793 C797 1.495 . S
C794 C793 1.392 . S
C794 C795 1.385 . S
C794 C796 1.478 . S
C795 H789 0.930 . S
C795 C791 1.400 . S
C795 C794 1.385 . S
C796 C794 1.478 . S
C796 C798 1.381 . S
C796 C802 1.383 . S
C797 C793 1.495 . S
C797 H803 0.959 . S
C797 H804 0.961 . S
C797 H805 0.960 . S
C798 C796 1.381 . S
C798 C799 1.394 . S
C798 H806 0.930 . S
C799 C798 1.394 . S
C799 C800 1.383 . S
C799 H807 0.929 . S
C800 C799 1.383 . S
C800 C801 1.377 . S
C801 H785 0.930 . S
C801 C800 1.377 . S
C801 C802 1.379 . S
C802 H786 0.931 . S
C802 C796 1.383 . S
C802 C801 1.379 . S
H803 C797 0.959 . S
H804 C797 0.961 . S
H805 C797 0.960 . S
H806 C798 0.930 . S
H807 C799 0.929 . S
H808 C816 0.929 . S
H809 C818 0.930 . S
H810 C820 0.930 . S
H811 C823 0.929 . S
H812 C826 0.930 . S
H813 C828 0.960 . S
H814 C828 0.960 . S
H815 C828 0.960 . S
C816 H808 0.929 . S
C816 C817 1.377 1_545 S
C816 C818 1.384 . S
C817 C816 1.377 1_565 S
C817 C823 1.390 . S
C818 H809 0.930 . S
C818 C816 1.384 . S
C818 C819 1.372 . S
C819 C818 1.372 . S
C819 C820 1.400 . S
C819 C824 1.490 . S
C820 H810 0.930 . S
C820 C819 1.400 . S
C820 C823 1.386 1_545 S
H821 C837 0.930 . S
H822 C838 0.931 . S
C823 H811 0.929 . S
C823 C817 1.390 . S
C823 C820 1.386 1_565 S
C824 C819 1.490 . S
C824 C826 1.395 . S
C824 C827 1.403 . S
H825 C831 0.930 . S
C826 H812 0.930 . S
C826 C824 1.395 . S
C826 C829 1.403 . S
C827 C824 1.403 . S
C827 C828 1.524 . S
C827 C831 1.400 . S
C828 H813 0.960 . S
C828 H814 0.960 . S
C828 H815 0.960 . S
C828 C827 1.524 . S
C829 C826 1.403 . S
C829 C830 1.392 . S
C829 C833 1.495 . S
C830 C829 1.392 . S
C830 C831 1.385 . S
C830 C832 1.478 . S
C831 H825 0.930 . S
C831 C827 1.400 . S
C831 C830 1.385 . S
C832 C830 1.478 . S
C832 C834 1.381 . S
C832 C838 1.383 . S
C833 C829 1.495 . S
C833 H839 0.959 . S
C833 H840 0.961 . S
C833 H841 0.960 . S
C834 C832 1.381 . S
C834 C835 1.394 . S
C834 H842 0.930 . S
C835 C834 1.394 . S
C835 C836 1.383 . S
C835 H843 0.929 . S
C836 C835 1.383 . S
C836 C837 1.377 . S
C837 H821 0.930 . S
C837 C836 1.377 . S
C837 C838 1.379 . S
C838 H822 0.931 . S
C838 C832 1.383 . S
C838 C837 1.379 . S
H839 C833 0.959 . S
H840 C833 0.961 . S
H841 C833 0.960 . S
H842 C834 0.930 . S
H843 C835 0.929 . S
H844 C852 0.932 1_545 S
H845 C854 0.930 . S
H846 C856 0.930 . S
H847 C859 0.929 . S
H848 C862 0.930 . S
H849 C864 0.960 . S
H850 C864 0.960 . S
H851 C864 0.960 . S
C852 H844 0.932 1_565 S
C852 C853 1.378 1_565 S
C852 C854 1.380 . S
C853 C852 1.378 1_545 S
C853 C859 1.390 1_545 S
C854 H845 0.930 . S
C854 C852 1.380 . S
C854 C855 1.372 . S
C855 C854 1.372 . S
C855 C856 1.400 . S
C855 C860 1.490 . S
C856 H846 0.930 . S
C856 C855 1.400 . S
C856 C859 1.386 . S
H857 C873 0.930 . S
H858 C874 0.931 . S
C859 H847 0.929 . S
C859 C853 1.390 1_565 S
C859 C856 1.386 . S
C860 C855 1.490 . S
C860 C862 1.395 . S
C860 C863 1.403 . S
H861 C867 0.930 . S
C862 H848 0.930 . S
C862 C860 1.395 . S
C862 C865 1.403 . S
C863 C860 1.403 . S
C863 C864 1.524 . S
C863 C867 1.400 . S
C864 H849 0.960 . S
C864 H850 0.960 . S
C864 H851 0.960 . S
C864 C863 1.524 . S
C865 C862 1.403 . S
C865 C866 1.392 . S
C865 C869 1.495 . S
C866 C865 1.392 . S
C866 C867 1.385 . S
C866 C868 1.478 . S
C867 H861 0.930 . S
C867 C863 1.400 . S
C867 C866 1.385 . S
C868 C866 1.478 . S
C868 C870 1.381 . S
C868 C874 1.383 . S
C869 C865 1.495 . S
C869 H875 0.959 . S
C869 H876 0.961 . S
C869 H877 0.960 . S
C870 C868 1.381 . S
C870 C871 1.394 . S
C870 H878 0.930 . S
C871 C870 1.394 . S
C871 C872 1.383 . S
C871 H879 0.929 . S
C872 C871 1.383 . S
C872 C873 1.377 . S
C873 H857 0.930 . S
C873 C872 1.377 . S
C873 C874 1.379 . S
C874 H858 0.931 . S
C874 C868 1.383 . S
C874 C873 1.379 . S
H875 C869 0.959 . S
H876 C869 0.961 . S
H877 C869 0.960 . S
H878 C870 0.930 . S
H879 C871 0.929 . S
H880 C888 0.929 . S
H881 C890 0.930 . S
H882 C892 0.930 . S
H883 C895 0.929 . S
H884 C898 0.930 . S
H885 C900 0.960 . S
H886 C900 0.960 . S
H887 C900 0.960 . S
C888 H880 0.929 . S
C888 C889 1.377 . S
C888 C890 1.384 1_565 S
C889 C888 1.377 . S
C889 C895 1.390 1_565 S
C890 H881 0.930 . S
C890 C888 1.384 1_545 S
C890 C891 1.372 . S
C891 C890 1.372 . S
C891 C892 1.400 . S
C891 C896 1.490 . S
C892 H882 0.930 . S
C892 C891 1.400 . S
C892 C895 1.386 . S
H893 C909 0.930 . S
H894 C910 0.931 . S
C895 H883 0.929 . S
C895 C889 1.390 1_545 S
C895 C892 1.386 . S
C896 C891 1.490 . S
C896 C898 1.395 . S
C896 C899 1.403 . S
H897 C903 0.930 . S
C898 H884 0.930 . S
C898 C896 1.395 . S
C898 C901 1.403 . S
C899 C896 1.403 . S
C899 C900 1.524 . S
C899 C903 1.400 . S
C900 H885 0.960 . S
C900 H886 0.960 . S
C900 H887 0.960 . S
C900 C899 1.524 . S
C901 C898 1.403 . S
C901 C902 1.392 . S
C901 C905 1.495 . S
C902 C901 1.392 . S
C902 C903 1.385 . S
C902 C904 1.478 . S
C903 H897 0.930 . S
C903 C899 1.400 . S
C903 C902 1.385 . S
C904 C902 1.478 . S
C904 C906 1.381 . S
C904 C910 1.383 . S
C905 C901 1.495 . S
C905 H911 0.959 . S
C905 H912 0.961 . S
C905 H913 0.960 . S
C906 C904 1.381 . S
C906 C907 1.394 . S
C906 H914 0.930 . S
C907 C906 1.394 . S
C907 C908 1.383 . S
C907 H915 0.929 . S
C908 C907 1.383 . S
C908 C909 1.377 . S
C909 H893 0.930 . S
C909 C908 1.377 . S
C909 C910 1.379 . S
C910 H894 0.931 . S
C910 C904 1.383 . S
C910 C909 1.379 . S
H911 C905 0.959 . S
H912 C905 0.961 . S
H913 C905 0.960 . S
H914 C906 0.930 . S
H915 C907 0.929 . S
H916 C924 0.929 . S
H917 C926 0.930 . S
H918 C928 0.927 1_545 S
H919 C931 0.929 . S
H920 C934 0.930 . S
H921 C936 0.960 . S
H922 C936 0.960 . S
H923 C936 0.960 . S
C924 H916 0.929 . S
C924 C925 1.377 1_565 S
C924 C926 1.384 . S
C925 C924 1.377 1_545 S
C925 C931 1.390 . S
C926 H917 0.930 . S
C926 C924 1.384 . S
C926 C927 1.372 . S
C927 C926 1.372 . S
C927 C928 1.400 . S
C927 C932 1.490 . S
C928 H918 0.927 1_565 S
C928 C927 1.400 . S
C928 C931 1.386 1_565 S
H929 C945 0.930 . S
H930 C946 0.931 . S
C931 H919 0.929 . S
C931 C925 1.390 . S
C931 C928 1.386 1_545 S
C932 C927 1.490 . S
C932 C934 1.395 . S
C932 C935 1.403 . S
H933 C939 0.930 . S
C934 H920 0.930 . S
C934 C932 1.395 . S
C934 C937 1.403 . S
C935 C932 1.403 . S
C935 C936 1.524 . S
C935 C939 1.400 . S
C936 H921 0.960 . S
C936 H922 0.960 . S
C936 H923 0.960 . S
C936 C935 1.524 . S
C937 C934 1.403 . S
C937 C938 1.392 . S
C937 C941 1.495 . S
C938 C937 1.392 . S
C938 C939 1.385 . S
C938 C940 1.478 . S
C939 H933 0.930 . S
C939 C935 1.400 . S
C939 C938 1.385 . S
C940 C938 1.478 . S
C940 C942 1.381 . S
C940 C946 1.383 . S
C941 C937 1.495 . S
C941 H947 0.959 . S
C941 H948 0.961 . S
C941 H949 0.960 . S
C942 C940 1.381 . S
C942 C943 1.394 . S
C942 H950 0.930 . S
C943 C942 1.394 . S
C943 C944 1.383 . S
C943 H951 0.929 . S
C944 C943 1.383 . S
C944 C945 1.377 . S
C945 H929 0.930 . S
C945 C944 1.377 . S
C945 C946 1.379 . S
C946 H930 0.931 . S
C946 C940 1.383 . S
C946 C945 1.379 . S
H947 C941 0.959 . S
H948 C941 0.961 . S
H949 C941 0.960 . S
H950 C942 0.930 . S
H951 C943 0.929 . S
H952 C960 0.929 . S
H953 C962 0.930 . S
H954 C964 0.930 . S
H955 C967 0.929 . S
H956 C970 0.930 . S
H957 C972 0.960 . S
H958 C972 0.960 . S
H959 C972 0.960 . S
C960 H952 0.929 . S
C960 C961 1.377 . S
C960 C962 1.384 . S
C961 C960 1.377 . S
C961 C967 1.390 . S
C962 H953 0.930 . S
C962 C960 1.384 . S
C962 C963 1.372 . S
C963 C962 1.372 . S
C963 C964 1.400 . S
C963 C968 1.490 . S
C964 H954 0.930 . S
C964 C963 1.400 . S
C964 C967 1.386 . S
H965 C981 0.930 . S
H966 C982 0.931 . S
C967 H955 0.929 . S
C967 C961 1.390 . S
C967 C964 1.386 . S
C968 C963 1.490 . S
C968 C970 1.395 . S
C968 C971 1.403 . S
H969 C975 0.930 . S
C970 H956 0.930 . S
C970 C968 1.395 . S
C970 C973 1.403 . S
C971 C968 1.403 . S
C971 C972 1.524 . S
C971 C975 1.400 . S
C972 H957 0.960 . S
C972 H958 0.960 . S
C972 H959 0.960 . S
C972 C971 1.524 . S
C973 C970 1.403 . S
C973 C974 1.392 . S
C973 C977 1.495 . S
C974 C973 1.392 . S
C974 C975 1.385 . S
C974 C976 1.478 . S
C975 H969 0.930 . S
C975 C971 1.400 . S
C975 C974 1.385 . S
C976 C974 1.478 . S
C976 C978 1.381 . S
C976 C982 1.383 . S
C977 C973 1.495 . S
C977 H983 0.959 . S
C977 H984 0.961 . S
C977 H985 0.960 . S
C978 C976 1.381 . S
C978 C979 1.394 . S
C978 H986 0.930 . S
C979 C978 1.394 . S
C979 C980 1.383 . S
C979 H987 0.929 . S
C980 C979 1.383 . S
C980 C981 1.377 . S
C981 H965 0.930 . S
C981 C980 1.377 . S
C981 C982 1.379 . S
C982 H966 0.931 . S
C982 C976 1.383 . S
C982 C981 1.379 . S
H983 C977 0.959 . S
H984 C977 0.961 . S
H985 C977 0.960 . S
H986 C978 0.930 . S
H987 C979 0.929 . S
H988 C996 0.929 . S
H989 C998 0.930 . S
H990 C1000 0.930 . S
H991 C1003 0.929 . S
H992 C1006 0.930 . S
H993 C1008 0.960 . S
H994 C1008 0.960 . S
H995 C1008 0.960 . S
C996 H988 0.929 . S
C996 C997 1.377 . S
C996 C998 1.384 . S
C997 C996 1.377 . S
C997 C1003 1.390 . S
C998 H989 0.930 . S
C998 C996 1.384 . S
C998 C999 1.372 . S
C999 C998 1.372 . S
C999 C1000 1.400 . S
C999 C1004 1.490 . S
C1000 H990 0.930 . S
C1000 C999 1.400 . S
C1000 C1003 1.386 . S
H1001 C1017 0.930 . S
H1002 C1018 0.931 . S
C1003 H991 0.929 . S
C1003 C997 1.390 . S
C1003 C1000 1.386 . S
C1004 C999 1.490 . S
C1004 C1006 1.395 . S
C1004 C1007 1.403 . S
H1005 C1011 0.930 . S
C1006 H992 0.930 . S
C1006 C1004 1.395 . S
C1006 C1009 1.403 . S
C1007 C1004 1.403 . S
C1007 C1008 1.524 . S
C1007 C1011 1.400 . S
C1008 H993 0.960 . S
C1008 H994 0.960 . S
C1008 H995 0.960 . S
C1008 C1007 1.524 . S
C1009 C1006 1.403 . S
C1009 C1010 1.392 . S
C1009 C1013 1.495 . S
C1010 C1009 1.392 . S
C1010 C1011 1.385 . S
C1010 C1012 1.478 . S
C1011 H1005 0.930 . S
C1011 C1007 1.400 . S
C1011 C1010 1.385 . S
C1012 C1010 1.478 . S
C1012 C1014 1.381 . S
C1012 C1018 1.383 . S
C1013 C1009 1.495 . S
C1013 H1019 0.959 . S
C1013 H1020 0.961 . S
C1013 H1021 0.960 . S
C1014 C1012 1.381 . S
C1014 C1015 1.394 . S
C1014 H1022 0.930 . S
C1015 C1014 1.394 . S
C1015 C1016 1.383 . S
C1015 H1023 0.929 . S
C1016 C1015 1.383 . S
C1016 C1017 1.377 . S
C1017 H1001 0.930 . S
C1017 C1016 1.377 . S
C1017 C1018 1.379 . S
C1018 H1002 0.931 . S
C1018 C1012 1.383 . S
C1018 C1017 1.379 . S
H1019 C1013 0.959 . S
H1020 C1013 0.961 . S
H1021 C1013 0.960 . S
H1022 C1014 0.930 . S
H1023 C1015 0.929 . S
H1024 C1032 0.929 . S
H1025 C1034 0.930 . S
H1026 C1036 0.930 . S
H1027 C1039 0.929 . S
H1028 C1042 0.930 . S
H1029 C1044 0.960 . S
H1030 C1044 0.960 . S
H1031 C1044 0.960 . S
C1032 H1024 0.929 . S
C1032 C1033 1.377 . S
C1032 C1034 1.384 . S
C1033 C1032 1.377 . S
C1033 C1039 1.390 . S
C1034 H1025 0.930 . S
C1034 C1032 1.384 . S
C1034 C1035 1.372 . S
C1035 C1034 1.372 . S
C1035 C1036 1.400 . S
C1035 C1040 1.490 . S
C1036 H1026 0.930 . S
C1036 C1035 1.400 . S
C1036 C1039 1.386 . S
H1037 C1053 0.930 . S
H1038 C1054 0.931 . S
C1039 H1027 0.929 . S
C1039 C1033 1.390 . S
C1039 C1036 1.386 . S
C1040 C1035 1.490 . S
C1040 C1042 1.395 . S
C1040 C1043 1.403 . S
H1041 C1047 0.930 . S
C1042 H1028 0.930 . S
C1042 C1040 1.395 . S
C1042 C1045 1.403 . S
C1043 C1040 1.403 . S
C1043 C1044 1.524 . S
C1043 C1047 1.400 . S
C1044 H1029 0.960 . S
C1044 H1030 0.960 . S
C1044 H1031 0.960 . S
C1044 C1043 1.524 . S
C1045 C1042 1.403 . S
C1045 C1046 1.392 . S
C1045 C1049 1.495 . S
C1046 C1045 1.392 . S
C1046 C1047 1.385 . S
C1046 C1048 1.478 . S
C1047 H1041 0.930 . S
C1047 C1043 1.400 . S
C1047 C1046 1.385 . S
C1048 C1046 1.478 . S
C1048 C1050 1.381 . S
C1048 C1054 1.383 . S
C1049 C1045 1.495 . S
C1049 H1055 0.959 . S
C1049 H1056 0.961 . S
C1049 H1057 0.960 . S
C1050 C1048 1.381 . S
C1050 C1051 1.394 . S
C1050 H1058 0.930 . S
C1051 C1050 1.394 . S
C1051 C1052 1.383 . S
C1051 H1059 0.929 . S
C1052 C1051 1.383 . S
C1052 C1053 1.377 . S
C1053 H1037 0.930 . S
C1053 C1052 1.377 . S
C1053 C1054 1.379 . S
C1054 H1038 0.931 . S
C1054 C1048 1.383 . S
C1054 C1053 1.379 . S
H1055 C1049 0.959 . S
H1056 C1049 0.961 . S
H1057 C1049 0.960 . S
H1058 C1050 0.930 . S
H1059 C1051 0.929 . S
H1060 C1068 0.929 . S
H1061 C1070 0.930 . S
H1062 C1072 0.930 . S
H1063 C1075 0.929 . S
H1064 C1078 0.930 . S
H1065 C1080 0.960 . S
H1066 C1080 0.960 . S
H1067 C1080 0.960 . S
C1068 H1060 0.929 . S
C1068 C1069 1.377 . S
C1068 C1070 1.384 . S
C1069 C1068 1.377 . S
C1069 C1075 1.390 . S
C1070 H1061 0.930 . S
C1070 C1068 1.384 . S
C1070 C1071 1.372 . S
C1071 C1070 1.372 . S
C1071 C1072 1.400 . S
C1071 C1076 1.490 . S
C1072 H1062 0.930 . S
C1072 C1071 1.400 . S
C1072 C1075 1.386 . S
H1073 C1089 0.930 . S
H1074 C1090 0.931 . S
C1075 H1063 0.929 . S
C1075 C1069 1.390 . S
C1075 C1072 1.386 . S
C1076 C1071 1.490 . S
C1076 C1078 1.395 . S
C1076 C1079 1.403 . S
H1077 C1083 0.930 . S
C1078 H1064 0.930 . S
C1078 C1076 1.395 . S
C1078 C1081 1.403 . S
C1079 C1076 1.403 . S
C1079 C1080 1.524 . S
C1079 C1083 1.400 . S
C1080 H1065 0.960 . S
C1080 H1066 0.960 . S
C1080 H1067 0.960 . S
C1080 C1079 1.524 . S
C1081 C1078 1.403 . S
C1081 C1082 1.392 . S
C1081 C1085 1.495 . S
C1082 C1081 1.392 . S
C1082 C1083 1.385 . S
C1082 C1084 1.478 . S
C1083 H1077 0.930 . S
C1083 C1079 1.400 . S
C1083 C1082 1.385 . S
C1084 C1082 1.478 . S
C1084 C1086 1.381 . S
C1084 C1090 1.383 . S
C1085 C1081 1.495 . S
C1085 H1091 0.959 . S
C1085 H1092 0.961 . S
C1085 H1093 0.960 . S
C1086 C1084 1.381 . S
C1086 C1087 1.394 . S
C1086 H1094 0.930 . S
C1087 C1086 1.394 . S
C1087 C1088 1.383 . S
C1087 H1095 0.929 . S
C1088 C1087 1.383 . S
C1088 C1089 1.377 . S
C1089 H1073 0.930 . S
C1089 C1088 1.377 . S
C1089 C1090 1.379 . S
C1090 H1074 0.931 . S
C1090 C1084 1.383 . S
C1090 C1089 1.379 . S
H1091 C1085 0.959 . S
H1092 C1085 0.961 . S
H1093 C1085 0.960 . S
H1094 C1086 0.930 . S
H1095 C1087 0.929 . S
H1096 C1104 0.929 . S
H1097 C1106 0.930 . S
H1098 C1108 0.930 . S
H1099 C1111 0.929 . S
H1100 C1114 0.930 . S
H1101 C1116 0.960 . S
H1102 C1116 0.960 . S
H1103 C1116 0.960 . S
C1104 H1096 0.929 . S
C1104 C1105 1.377 . S
C1104 C1106 1.384 . S
C1105 C1104 1.377 . S
C1105 C1111 1.390 . S
C1106 H1097 0.930 . S
C1106 C1104 1.384 . S
C1106 C1107 1.372 . S
C1107 C1106 1.372 . S
C1107 C1108 1.400 . S
C1107 C1112 1.490 . S
C1108 H1098 0.930 . S
C1108 C1107 1.400 . S
C1108 C1111 1.386 . S
H1109 C1125 0.930 . S
H1110 C1126 0.931 . S
C1111 H1099 0.929 . S
C1111 C1105 1.390 . S
C1111 C1108 1.386 . S
C1112 C1107 1.490 . S
C1112 C1114 1.395 . S
C1112 C1115 1.403 . S
H1113 C1119 0.930 . S
C1114 H1100 0.930 . S
C1114 C1112 1.395 . S
C1114 C1117 1.403 . S
C1115 C1112 1.403 . S
C1115 C1116 1.524 . S
C1115 C1119 1.400 . S
C1116 H1101 0.960 . S
C1116 H1102 0.960 . S
C1116 H1103 0.960 . S
C1116 C1115 1.524 . S
C1117 C1114 1.403 . S
C1117 C1118 1.392 . S
C1117 C1121 1.495 . S
C1118 C1117 1.392 . S
C1118 C1119 1.385 . S
C1118 C1120 1.478 . S
C1119 H1113 0.930 . S
C1119 C1115 1.400 . S
C1119 C1118 1.385 . S
C1120 C1118 1.478 . S
C1120 C1122 1.381 . S
C1120 C1126 1.383 . S
C1121 C1117 1.495 . S
C1121 H1127 0.959 . S
C1121 H1128 0.961 . S
C1121 H1129 0.960 . S
C1122 C1120 1.381 . S
C1122 C1123 1.394 . S
C1122 H1130 0.930 . S
C1123 C1122 1.394 . S
C1123 C1124 1.383 . S
C1123 H1131 0.929 . S
C1124 C1123 1.383 . S
C1124 C1125 1.377 . S
C1125 H1109 0.930 . S
C1125 C1124 1.377 . S
C1125 C1126 1.379 . S
C1126 H1110 0.931 . S
C1126 C1120 1.383 . S
C1126 C1125 1.379 . S
H1127 C1121 0.959 . S
H1128 C1121 0.961 . S
H1129 C1121 0.960 . S
H1130 C1122 0.930 . S
H1131 C1123 0.929 . S
H1132 C1140 0.929 . S
H1133 C1142 0.930 . S
H1134 C1144 0.930 . S
H1135 C1147 0.929 . S
H1136 C1150 0.930 . S
H1137 C1152 0.960 . S
H1138 C1152 0.960 . S
H1139 C1152 0.960 . S
C1140 H1132 0.929 . S
C1140 C1141 1.377 . S
C1140 C1142 1.384 . S
C1141 C1140 1.377 . S
C1141 C1147 1.390 . S
C1142 H1133 0.930 . S
C1142 C1140 1.384 . S
C1142 C1143 1.372 . S
C1143 C1142 1.372 . S
C1143 C1144 1.400 . S
C1143 C1148 1.490 . S
C1144 H1134 0.930 . S
C1144 C1143 1.400 . S
C1144 C1147 1.386 . S
H1145 C1161 0.930 . S
H1146 C1162 0.931 . S
C1147 H1135 0.929 . S
C1147 C1141 1.390 . S
C1147 C1144 1.386 . S
C1148 C1143 1.490 . S
C1148 C1150 1.395 . S
C1148 C1151 1.403 . S
H1149 C1155 0.930 . S
C1150 H1136 0.930 . S
C1150 C1148 1.395 . S
C1150 C1153 1.403 . S
C1151 C1148 1.403 . S
C1151 C1152 1.524 . S
C1151 C1155 1.400 . S
C1152 H1137 0.960 . S
C1152 H1138 0.960 . S
C1152 H1139 0.960 . S
C1152 C1151 1.524 . S
C1153 C1150 1.403 . S
C1153 C1154 1.392 . S
C1153 C1157 1.495 . S
C1154 C1153 1.392 . S
C1154 C1155 1.385 . S
C1154 C1156 1.478 . S
C1155 H1149 0.930 . S
C1155 C1151 1.400 . S
C1155 C1154 1.385 . S
C1156 C1154 1.478 . S
C1156 C1158 1.381 . S
C1156 C1162 1.383 . S
C1157 C1153 1.495 . S
C1157 H1163 0.959 . S
C1157 H1164 0.961 . S
C1157 H1165 0.960 . S
C1158 C1156 1.381 . S
C1158 C1159 1.394 . S
C1158 H1166 0.930 . S
C1159 C1158 1.394 . S
C1159 C1160 1.383 . S
C1159 H1167 0.929 . S
C1160 C1159 1.383 . S
C1160 C1161 1.377 . S
C1161 H1145 0.930 . S
C1161 C1160 1.377 . S
C1161 C1162 1.379 . S
C1162 H1146 0.931 . S
C1162 C1156 1.383 . S
C1162 C1161 1.379 . S
H1163 C1157 0.959 . S
H1164 C1157 0.961 . S
H1165 C1157 0.960 . S
H1166 C1158 0.930 . S
H1167 C1159 0.929 . S
H1168 C1176 0.929 . S
H1169 C1178 0.930 . S
H1170 C1180 0.930 . S
H1171 C1183 0.929 . S
H1172 C1186 0.930 . S
H1173 C1188 0.960 . S
H1174 C1188 0.960 . S
H1175 C1188 0.960 . S
C1176 H1168 0.929 . S
C1176 C1177 1.377 . S
C1176 C1178 1.384 . S
C1177 C1176 1.377 . S
C1177 C1183 1.390 . S
C1178 H1169 0.930 . S
C1178 C1176 1.384 . S
C1178 C1179 1.372 . S
C1179 C1178 1.372 . S
C1179 C1180 1.400 . S
C1179 C1184 1.490 . S
C1180 H1170 0.930 . S
C1180 C1179 1.400 . S
C1180 C1183 1.386 . S
H1181 C1197 0.930 . S
H1182 C1198 0.931 . S
C1183 H1171 0.929 . S
C1183 C1177 1.390 . S
C1183 C1180 1.386 . S
C1184 C1179 1.490 . S
C1184 C1186 1.395 . S
C1184 C1187 1.403 . S
H1185 C1191 0.930 . S
C1186 H1172 0.930 . S
C1186 C1184 1.395 . S
C1186 C1189 1.403 . S
C1187 C1184 1.403 . S
C1187 C1188 1.524 . S
C1187 C1191 1.400 . S
C1188 H1173 0.960 . S
C1188 H1174 0.960 . S
C1188 H1175 0.960 . S
C1188 C1187 1.524 . S
C1189 C1186 1.403 . S
C1189 C1190 1.392 . S
C1189 C1193 1.495 . S
C1190 C1189 1.392 . S
C1190 C1191 1.385 . S
C1190 C1192 1.478 . S
C1191 H1185 0.930 . S
C1191 C1187 1.400 . S
C1191 C1190 1.385 . S
C1192 C1190 1.478 . S
C1192 C1194 1.381 . S
C1192 C1198 1.383 . S
C1193 C1189 1.495 . S
C1193 H1199 0.959 . S
C1193 H1200 0.961 . S
C1193 H1201 0.960 . S
C1194 C1192 1.381 . S
C1194 C1195 1.394 . S
C1194 H1202 0.930 . S
C1195 C1194 1.394 . S
C1195 C1196 1.383 . S
C1195 H1203 0.929 . S
C1196 C1195 1.383 . S
C1196 C1197 1.377 . S
C1197 H1181 0.930 . S
C1197 C1196 1.377 . S
C1197 C1198 1.379 . S
C1198 H1182 0.931 . S
C1198 C1192 1.383 . S
C1198 C1197 1.379 . S
H1199 C1193 0.959 . S
H1200 C1193 0.961 . S
H1201 C1193 0.960 . S
H1202 C1194 0.930 . S
H1203 C1195 0.929 . S
H1204 C1212 0.929 . S
H1205 C1214 0.930 . S
H1206 C1216 0.930 . S
H1207 C1219 0.929 . S
H1208 C1222 0.930 . S
H1209 C1224 0.960 . S
H1210 C1224 0.960 . S
H1211 C1224 0.960 . S
C1212 H1204 0.929 . S
C1212 C1213 1.377 . S
C1212 C1214 1.384 . S
C1213 C1212 1.377 . S
C1213 C1219 1.390 . S
C1214 H1205 0.930 . S
C1214 C1212 1.384 . S
C1214 C1215 1.372 . S
C1215 C1214 1.372 . S
C1215 C1216 1.400 . S
C1215 C1220 1.490 . S
C1216 H1206 0.930 . S
C1216 C1215 1.400 . S
C1216 C1219 1.386 . S
H1217 C1233 0.930 . S
H1218 C1234 0.931 . S
C1219 H1207 0.929 . S
C1219 C1213 1.390 . S
C1219 C1216 1.386 . S
C1220 C1215 1.490 . S
C1220 C1222 1.395 . S
C1220 C1223 1.403 . S
H1221 C1227 0.930 . S
C1222 H1208 0.930 . S
C1222 C1220 1.395 . S
C1222 C1225 1.403 . S
C1223 C1220 1.403 . S
C1223 C1224 1.524 . S
C1223 C1227 1.400 . S
C1224 H1209 0.960 . S
C1224 H1210 0.960 . S
C1224 H1211 0.960 . S
C1224 C1223 1.524 . S
C1225 C1222 1.403 . S
C1225 C1226 1.392 . S
C1225 C1229 1.495 . S
C1226 C1225 1.392 . S
C1226 C1227 1.385 . S
C1226 C1228 1.478 . S
C1227 H1221 0.930 . S
C1227 C1223 1.400 . S
C1227 C1226 1.385 . S
C1228 C1226 1.478 . S
C1228 C1230 1.381 . S
C1228 C1234 1.383 . S
C1229 C1225 1.495 . S
C1229 H1235 0.959 . S
C1229 H1236 0.961 . S
C1229 H1237 0.960 . S
C1230 C1228 1.381 . S
C1230 C1231 1.394 . S
C1230 H1238 0.930 . S
C1231 C1230 1.394 . S
C1231 C1232 1.383 . S
C1231 H1239 0.929 . S
C1232 C1231 1.383 . S
C1232 C1233 1.377 . S
C1233 H1217 0.930 . S
C1233 C1232 1.377 . S
C1233 C1234 1.379 . S
C1234 H1218 0.931 . S
C1234 C1228 1.383 . S
C1234 C1233 1.379 . S
H1235 C1229 0.959 . S
H1236 C1229 0.961 . S
H1237 C1229 0.960 . S
H1238 C1230 0.930 . S
H1239 C1231 0.929 . S
C385 C25 1.514 . S
C404 C314 1.495 . S
C440 C292 1.482 . S
C421 C61 1.510 . S
C476 C318 1.487 . S
C457 C97 1.537 . S
C512 C296 1.484 . S
C493 C133 1.533 . S
C548 C358 1.511 . S
C529 C169 1.509 . S
C584 C336 1.510 . S
C565 C205 1.515 . S
C601 C241 1.536 . S
C620 C362 1.502 . S
C656 C340 1.484 . S
C637 C277 1.536 . S
C673 C31 1.514 . S
C692 C363 1.515 . S
C728 C341 1.544 . S
C709 C67 1.510 . S
C745 C103 1.536 . S
C764 C360 1.514 . S
C781 C139 1.531 . S
C800 C338 1.543 . S
C836 C319 1.534 . S
C817 C175 1.515 . S
C853 C211 1.510 . S
C872 C297 1.515 . S
C908 C316 1.514 . S
C889 C247 1.535 . S
C944 C294 1.544 . S
C925 C283 1.532 . S
C980 C337 1.499 . S
C961 C1 1.479 . S
C1016 C359 1.477 . S
C997 C37 1.483 . S
C1033 C73 1.497 . S
C1052 C339 1.484 . S
C1088 C361 1.495 . S
C1069 C109 1.499 . S
C1124 C293 1.497 . S
C1105 C145 1.479 . S
C1141 C181 1.479 . S
C1160 C315 1.497 . S
C1177 C217 1.500 . S
C1196 C295 1.464 . S
C1213 C253 1.497 . S
C1232 C317 1.502 . S
