# Generated by pormake.
# Topology pto, (3,4)-cn, num edge types: 1
# Building blocks:
#     Node 0, Type 0, BuildingBlock: CUQRIR_clean_linker_1, # of connection points: 3
#     Node 1, Type 0, BuildingBlock: CUQRIR_clean_linker_1, # of connection points: 3
#     Node 2, Type 0, BuildingBlock: CUQRIR_clean_linker_1, # of connection points: 3
#     Node 3, Type 0, BuildingBlock: CUQRIR_clean_linker_1, # of connection points: 3
#     Node 4, Type 0, BuildingBlock: CUQRIR_clean_linker_1, # of connection points: 3
#     Node 5, Type 0, BuildingBlock: CUQRIR_clean_linker_1, # of connection points: 3
#     Node 6, Type 0, BuildingBlock: CUQRIR_clean_linker_1, # of connection points: 3
#     Node 7, Type 0, BuildingBlock: CUQRIR_clean_linker_1, # of connection points: 3
#     Node 8, Type 1, BuildingBlock: NAWXER_clean_sbu_0, # of connection points: 4
#     Node 9, Type 1, BuildingBlock: NAWXER_clean_sbu_0, # of connection points: 4
#     Node 10, Type 1, BuildingBlock: NAWXER_clean_sbu_0, # of connection points: 4
#     Node 11, Type 1, BuildingBlock: NAWXER_clean_sbu_0, # of connection points: 4
#     Node 12, Type 1, BuildingBlock: NAWXER_clean_sbu_0, # of connection points: 4
#     Node 13, Type 1, BuildingBlock: NAWXER_clean_sbu_0, # of connection points: 4
#     Edge 14, Type (0, 1), BuildingBlock: ZUJKAS_clean_linker_0, # of connection points: 2
#     Edge 15, Type (0, 1), BuildingBlock: ZUJKAS_clean_linker_0, # of connection points: 2
#     Edge 16, Type (0, 1), BuildingBlock: ZUJKAS_clean_linker_0, # of connection points: 2
#     Edge 17, Type (0, 1), BuildingBlock: ZUJKAS_clean_linker_0, # of connection points: 2
#     Edge 18, Type (0, 1), BuildingBlock: ZUJKAS_clean_linker_0, # of connection points: 2
#     Edge 19, Type (0, 1), BuildingBlock: ZUJKAS_clean_linker_0, # of connection points: 2
#     Edge 20, Type (0, 1), BuildingBlock: ZUJKAS_clean_linker_0, # of connection points: 2
#     Edge 21, Type (0, 1), BuildingBlock: ZUJKAS_clean_linker_0, # of connection points: 2
#     Edge 22, Type (0, 1), BuildingBlock: ZUJKAS_clean_linker_0, # of connection points: 2
#     Edge 23, Type (0, 1), BuildingBlock: ZUJKAS_clean_linker_0, # of connection points: 2
#     Edge 24, Type (0, 1), BuildingBlock: ZUJKAS_clean_linker_0, # of connection points: 2
#     Edge 25, Type (0, 1), BuildingBlock: ZUJKAS_clean_linker_0, # of connection points: 2
#     Edge 26, Type (0, 1), BuildingBlock: ZUJKAS_clean_linker_0, # of connection points: 2
#     Edge 27, Type (0, 1), BuildingBlock: ZUJKAS_clean_linker_0, # of connection points: 2
#     Edge 28, Type (0, 1), BuildingBlock: ZUJKAS_clean_linker_0, # of connection points: 2
#     Edge 29, Type (0, 1), BuildingBlock: ZUJKAS_clean_linker_0, # of connection points: 2
#     Edge 30, Type (0, 1), BuildingBlock: ZUJKAS_clean_linker_0, # of connection points: 2
#     Edge 31, Type (0, 1), BuildingBlock: ZUJKAS_clean_linker_0, # of connection points: 2
#     Edge 32, Type (0, 1), BuildingBlock: ZUJKAS_clean_linker_0, # of connection points: 2
#     Edge 33, Type (0, 1), BuildingBlock: ZUJKAS_clean_linker_0, # of connection points: 2
#     Edge 34, Type (0, 1), BuildingBlock: ZUJKAS_clean_linker_0, # of connection points: 2
#     Edge 35, Type (0, 1), BuildingBlock: ZUJKAS_clean_linker_0, # of connection points: 2
#     Edge 36, Type (0, 1), BuildingBlock: ZUJKAS_clean_linker_0, # of connection points: 2
#     Edge 37, Type (0, 1), BuildingBlock: ZUJKAS_clean_linker_0, # of connection points: 2
# Relax obj value: 0.020
# Max RMSD: 0.157
# Mean RMSD: 0.075
data_MOF--net-pto--node1-NAWXER_clean_sbu_0--node2-CUQRIR_clean_linker_1--edge1-ZUJKAS_clean_linker_0
_symmetry_space_group_name_H-M    P1
_symmetry_Int_Tables_number       1
_symmetry_cell_setting            triclinic
loop_
_symmetry_equiv_pos_as_xyz
'x, y, z'
_cell_length_a     53.068207
_cell_length_b     48.951143
_cell_length_c     45.985565
_cell_angle_alpha  78.842356
_cell_angle_beta   95.453028
_cell_angle_gamma 95.336381
loop_
_atom_site_label
_atom_site_type_symbol
_atom_site_fract_x
_atom_site_fract_y
_atom_site_fract_z
_atom_type_partial_charge
C0 C 0.26768 0.3177 0.22111 0.0
N1 N 0.28653 0.30236 0.21697 0.0
N2 N 0.26216 0.33665 0.19623 0.0
C3 C 0.25346 0.31291 0.24868 0.0
C4 C 0.27816 0.33215 0.17671 0.0
N5 N 0.29284 0.31109 0.18925 0.0
C6 C 0.28069 0.3496 0.14624 0.0
H7 H 0.23408 0.3202 0.24359 0.0
H8 H 0.26392 0.32474 0.26494 0.0
H9 H 0.25205 0.29045 0.25909 0.0
H10 H 0.27365 0.37052 0.14466 0.0
H11 H 0.2693 0.33887 0.12965 0.0
H12 H 0.30077 0.35211 0.14064 0.0
C13 C 0.28686 0.74302 0.75269 0.0
N14 N 0.30647 0.75828 0.76427 0.0
N15 N 0.28213 0.71843 0.77126 0.0
C16 C 0.27083 0.75323 0.72451 0.0
C17 C 0.29933 0.71946 0.79485 0.0
N18 N 0.31407 0.74388 0.79072 0.0
C19 C 0.30285 0.69576 0.82073 0.0
H20 H 0.25107 0.74366 0.72555 0.0
H21 H 0.27912 0.74741 0.70551 0.0
H22 H 0.27037 0.77628 0.72035 0.0
H23 H 0.2959 0.67547 0.81437 0.0
H24 H 0.29182 0.69889 0.83898 0.0
H25 H 0.32314 0.69504 0.82909 0.0
C26 C 0.86176 0.79401 0.28564 0.0
N27 N 0.84881 0.78164 0.26422 0.0
N28 N 0.84856 0.81422 0.29195 0.0
C29 C 0.88806 0.7876 0.299 0.0
C30 C 0.82713 0.81381 0.2734 0.0
N31 N 0.82741 0.79421 0.25624 0.0
C32 C 0.80488 0.83056 0.27418 0.0
H33 H 0.88659 0.77016 0.3183 0.0
H34 H 0.8983 0.80601 0.30675 0.0
H35 H 0.89919 0.7811 0.2826 0.0
H36 H 0.8068 0.85027 0.25768 0.0
H37 H 0.80421 0.83585 0.29647 0.0
H38 H 0.78673 0.81892 0.26841 0.0
C39 C 0.75212 0.24301 0.73674 0.0
N40 N 0.77468 0.24843 0.72435 0.0
N41 N 0.74711 0.26457 0.74932 0.0
C42 C 0.73604 0.21584 0.73879 0.0
C43 C 0.7674 0.28322 0.74425 0.0
N44 N 0.78417 0.27338 0.72921 0.0
C45 C 0.77024 0.31153 0.75288 0.0
H46 H 0.72317 0.21655 0.71822 0.0
H47 H 0.7243 0.21226 0.75808 0.0
H48 H 0.74806 0.1981 0.74075 0.0
H49 H 0.78115 0.31002 0.77487 0.0
H50 H 0.75143 0.31902 0.7546 0.0
H51 H 0.78075 0.32695 0.73647 0.0
C52 C 0.78009 0.67225 0.82602 0.0
N53 N 0.79451 0.68535 0.80382 0.0
N54 N 0.76321 0.68945 0.8314 0.0
C55 C 0.78235 0.64263 0.84215 0.0
C56 C 0.76804 0.71352 0.812 0.0
N57 N 0.78717 0.71112 0.79542 0.0
C58 C 0.7537 0.73918 0.8089 0.0
H59 H 0.77364 0.63842 0.86366 0.0
H60 H 0.80258 0.63794 0.84605 0.0
H61 H 0.7724 0.62823 0.82817 0.0
H62 H 0.74646 0.74064 0.83037 0.0
H63 H 0.73724 0.73783 0.79232 0.0
H64 H 0.76572 0.75845 0.80103 0.0
C65 C 0.77966 0.27714 0.26179 0.0
N66 N 0.80086 0.28559 0.27742 0.0
N67 N 0.77807 0.29217 0.23382 0.0
C68 C 0.76128 0.25303 0.27337 0.0
C69 C 0.79915 0.31008 0.23289 0.0
N70 N 0.81326 0.30577 0.25934 0.0
C71 C 0.80617 0.33127 0.20602 0.0
H72 H 0.77042 0.23322 0.27516 0.0
H73 H 0.7435 0.25244 0.25868 0.0
H74 H 0.75641 0.25448 0.29591 0.0
H75 H 0.78928 0.3368 0.19062 0.0
H76 H 0.81953 0.32235 0.19392 0.0
H77 H 0.81573 0.35048 0.21276 0.0
C78 C 0.25535 0.24432 0.78762 0.0
N79 N 0.27147 0.22921 0.7774 0.0
N80 N 0.23878 0.25566 0.7653 0.0
C81 C 0.25692 0.24959 0.81893 0.0
C82 C 0.24552 0.247 0.74104 0.0
N83 N 0.26564 0.23114 0.74837 0.0
C84 C 0.23314 0.25493 0.7101 0.0
H85 H 0.23898 0.25697 0.824 0.0
H86 H 0.27263 0.26573 0.82168 0.0
H87 H 0.26115 0.23036 0.83513 0.0
H88 H 0.24331 0.27427 0.69865 0.0
H89 H 0.21303 0.25912 0.71042 0.0
H90 H 0.23413 0.23818 0.69718 0.0
C91 C 0.32285 0.76707 0.33184 0.0
N92 N 0.32374 0.74861 0.31342 0.0
N93 N 0.34618 0.77986 0.33698 0.0
C94 C 0.29915 0.77322 0.34419 0.0
C95 C 0.36132 0.76836 0.32134 0.0
N96 N 0.34781 0.74917 0.30736 0.0
C97 C 0.38905 0.77703 0.31827 0.0
H98 H 0.29012 0.79032 0.3284 0.0
H99 H 0.30344 0.78015 0.36577 0.0
H100 H 0.28545 0.75455 0.34728 0.0
H101 H 0.39721 0.78866 0.33584 0.0
H102 H 0.39124 0.79055 0.29618 0.0
H103 H 0.39988 0.75849 0.31946 0.0
C104 C 0.01975 0.51274 0.2637 0.0
C105 C 0.09216 0.58261 0.26258 0.0
O106 O 0.0336 0.51925 0.28583 0.0
Zn107 Zn 0.05476 0.54885 0.26359 0.0
O108 O 0.02375 0.52604 0.2374 0.0
Zn109 Zn 0.04966 0.55944 0.21676 0.0
O110 O 0.06605 0.5408 0.19129 0.0
O111 O 0.07514 0.52547 0.23923 0.0
O112 O 0.08203 0.58127 0.23638 0.0
O113 O 0.0819 0.56814 0.285 0.0
O114 O 0.02832 0.58004 0.24719 0.0
O115 O 0.02748 0.58825 0.19833 0.0
C116 C 0.07778 0.52448 0.21199 0.0
C117 C 0.0196 0.59317 0.22188 0.0
C118 C 0.99296 0.46553 0.71097 0.0
C119 C 0.06186 0.53625 0.72566 0.0
O120 O 0.99981 0.4661 0.73834 0.0
Zn121 Zn 0.02603 0.48919 0.76432 0.0
O122 O 1.00343 0.48319 0.69074 0.0
Zn123 Zn 0.02682 0.50186 0.71719 0.0
O124 O 0.05069 0.46914 0.73742 0.0
O125 O 0.0472 0.46031 0.78585 0.0
O126 O 0.05161 0.53114 0.70094 0.0
O127 O 0.05381 0.52232 0.75001 0.0
O128 O 1.00383 0.50646 0.78537 0.0
O129 O 1.00214 0.52389 0.7373 0.0
C130 C 0.05685 0.45523 0.76334 0.0
C131 C 0.99496 0.52364 0.76322 0.0
C132 C 0.31423 0.007 0.55407 0.0
C133 C 0.31495 0.07582 0.46125 0.0
O134 O 0.295 0.01382 0.53628 0.0
Zn135 Zn 0.31333 0.04072 0.50719 0.0
O136 O 0.33638 0.01799 0.54781 0.0
Zn137 Zn 0.35409 0.04738 0.51386 0.0
O138 O 0.36881 0.07537 0.53697 0.0
O139 O 0.32685 0.07264 0.53172 0.0
O140 O 0.33703 0.07229 0.47472 0.0
O141 O 0.29565 0.06153 0.4722 0.0
O142 O 0.33405 0.01406 0.48889 0.0
O143 O 0.37513 0.02394 0.49752 0.0
C144 C 0.34786 0.08379 0.54179 0.0
C145 C 0.35698 0.00925 0.4865 0.0
C146 C 0.59023 0.75219 0.08924 0.0
C147 C 0.51788 0.75184 0.01473 0.0
O148 O 0.57962 0.72758 0.08897 0.0
Zn149 Zn 0.54772 0.70854 0.06542 0.0
O150 O 0.5806 0.77297 0.07235 0.0
Zn151 Zn 0.55305 0.75252 0.05305 0.0
O152 O 0.52718 0.738 0.08704 0.0
O153 O 0.52531 0.69201 0.09599 0.0
O154 O 0.53172 0.7728 0.02117 0.0
O155 O 0.52189 0.72733 0.02946 0.0
O156 O 0.56469 0.68411 0.04646 0.0
O157 O 0.57342 0.72899 0.02929 0.0
C158 C 0.51816 0.7145 0.10128 0.0
C159 C 0.57636 0.70335 0.02886 0.0
C160 C 0.81735 0.96219 0.58119 0.0
C161 C 0.81976 0.04938 0.50751 0.0
O162 O 0.79845 0.97375 0.56632 0.0
Zn163 Zn 0.81725 0.00582 0.54418 0.0
O164 O 0.83978 0.97388 0.57771 0.0
Zn165 Zn 0.85798 0.01014 0.55183 0.0
O166 O 0.8732 0.03176 0.58147 0.0
O167 O 0.8313 0.02931 0.57749 0.0
O168 O 0.84161 0.04238 0.51942 0.0
O169 O 0.79998 0.03386 0.51518 0.0
O170 O 0.83761 0.9871 0.51643 0.0
O171 O 0.87878 0.99351 0.528 0.0
C172 C 0.85252 0.03808 0.58949 0.0
C173 C 0.8605 0.98365 0.51212 0.0
C174 C 0.56376 0.24257 0.0333 0.0
C175 C 0.49332 0.22145 0.96266 0.0
O176 O 0.55358 0.21857 0.03044 0.0
Zn177 Zn 0.52811 0.23111 0.99878 0.0
O178 O 0.55506 0.26442 0.01682 0.0
Zn179 Zn 0.52594 0.27477 0.982 0.0
O180 O 0.50412 0.29571 0.99959 0.0
O181 O 0.50278 0.25105 0.02018 0.0
O182 O 0.49943 0.24766 0.96081 0.0
O183 O 0.50505 0.20395 0.98212 0.0
O184 O 0.55103 0.24842 0.96259 0.0
O185 O 0.54536 0.29336 0.9491 0.0
C186 C 0.49527 0.27549 0.01854 0.0
C187 C 0.55598 0.27206 0.9457 0.0
H188 H 0.22313 0.34317 0.15418 0.0
H189 H 0.19048 0.37685 0.14875 0.0
H190 H 0.22741 0.40949 0.22393 0.0
H191 H 0.25999 0.37601 0.22909 0.0
H192 H 0.15796 0.38073 0.19366 0.0
H193 H 0.21602 0.47997 0.15933 0.0
H194 H 0.22598 0.44639 0.15627 0.0
H195 H 0.22962 0.45761 0.19152 0.0
C196 C 0.2243 0.35788 0.16917 0.0
C197 C 0.24388 0.35724 0.192 0.0
C198 C 0.20574 0.37696 0.16615 0.0
C199 C 0.20675 0.39586 0.18571 0.0
C200 C 0.22654 0.39542 0.20829 0.0
H201 H 0.09936 0.48193 0.25056 0.0
H202 H 0.12888 0.45037 0.24013 0.0
C203 C 0.24497 0.37625 0.21139 0.0
C204 C 0.18634 0.41491 0.1839 0.0
H205 H 0.17576 0.48366 0.17724 0.0
C206 C 0.16173 0.40325 0.18964 0.0
C207 C 0.19128 0.44426 0.17835 0.0
C208 C 0.2171 0.45788 0.17074 0.0
C209 C 0.14222 0.42017 0.19147 0.0
C210 C 0.14755 0.44943 0.18762 0.0
C211 C 0.1718 0.46118 0.18038 0.0
C212 C 0.12876 0.46795 0.1932 0.0
C213 C 0.11616 0.40663 0.19805 0.0
C214 C 0.11912 0.4885 0.17026 0.0
C215 C 0.10211 0.50661 0.17612 0.0
C216 C 0.09481 0.50468 0.20512 0.0
C217 C 0.10455 0.484 0.22797 0.0
C218 C 0.12133 0.46583 0.22205 0.0
H219 H 0.11341 0.38531 0.19271 0.0
H220 H 0.11378 0.40485 0.22207 0.0
H221 H 0.10114 0.41941 0.18526 0.0
H222 H 0.12481 0.49055 0.14788 0.0
H223 H 0.09503 0.5224 0.15808 0.0
H224 H 0.24616 0.69697 0.80862 0.0
H225 H 0.20943 0.66463 0.79895 0.0
H226 H 0.23595 0.66123 0.71395 0.0
H227 H 0.27304 0.69274 0.72422 0.0
H228 H 0.17281 0.67534 0.7529 0.0
H229 H 0.21841 0.57932 0.74654 0.0
H230 H 0.23508 0.6076 0.76224 0.0
H231 H 0.23071 0.6101 0.72258 0.0
C232 C 0.24438 0.68863 0.7883 0.0
C233 C 0.26229 0.69711 0.76717 0.0
C234 C 0.22339 0.67041 0.78266 0.0
C235 C 0.22007 0.66033 0.75583 0.0
C236 C 0.23835 0.66828 0.73503 0.0
H237 H 0.09275 0.56053 0.68149 0.0
H238 H 0.13087 0.59253 0.68615 0.0
C239 C 0.25938 0.68639 0.74076 0.0
C240 C 0.1966 0.64316 0.74876 0.0
H241 H 0.17438 0.58003 0.73144 0.0
C242 C 0.17317 0.65447 0.74827 0.0
C243 C 0.19712 0.61605 0.74245 0.0
C244 C 0.22165 0.6024 0.74371 0.0
C245 C 0.15023 0.63936 0.74181 0.0
C246 C 0.15075 0.61217 0.73589 0.0
C247 C 0.17413 0.601 0.73579 0.0
C248 C 0.12716 0.59416 0.73222 0.0
C249 C 0.12557 0.65253 0.74139 0.0
C250 C 0.1126 0.58464 0.75654 0.0
C251 C 0.09107 0.56639 0.75402 0.0
C252 C 0.08361 0.5573 0.72707 0.0
C253 C 0.09794 0.5673 0.70247 0.0
C254 C 0.11972 0.58545 0.70512 0.0
H255 H 0.12853 0.67559 0.73915 0.0
H256 H 0.11206 0.64751 0.72284 0.0
H257 H 0.11673 0.64411 0.76254 0.0
H258 H 0.11821 0.59089 0.77772 0.0
H259 H 0.08045 0.55912 0.7734 0.0
H260 H 0.859 0.78316 0.20756 0.0
H261 H 0.88223 0.74889 0.19003 0.0
H262 H 0.88231 0.69694 0.27733 0.0
H263 H 0.85881 0.73081 0.29429 0.0
H264 H 0.92956 0.73623 0.21248 0.0
H265 H 0.86703 0.63883 0.22594 0.0
H266 H 0.85534 0.67241 0.22551 0.0
H267 H 0.8701 0.65316 0.25925 0.0
C268 C 0.86324 0.76386 0.22247 0.0
C269 C 0.85719 0.75935 0.25214 0.0
C270 C 0.87661 0.74444 0.21261 0.0
C271 C 0.88382 0.72015 0.23227 0.0
C272 C 0.87649 0.71509 0.2615 0.0
H273 H 0.99533 0.60362 0.26786 0.0
H274 H 0.96158 0.6348 0.26563 0.0
C275 C 0.8632 0.73445 0.27127 0.0
C276 C 0.90166 0.70184 0.22384 0.0
H277 H 0.91227 0.63331 0.22837 0.0
C278 C 0.92557 0.71379 0.21523 0.0
C279 C 0.89649 0.67254 0.22744 0.0
C280 C 0.87073 0.65855 0.23474 0.0
C281 C 0.94491 0.69709 0.212 0.0
C282 C 0.94016 0.66774 0.21736 0.0
C283 C 0.91592 0.65585 0.22452 0.0
C284 C 0.96066 0.64897 0.21803 0.0
C285 C 0.97073 0.71079 0.20451 0.0
C286 C 0.97133 0.64661 0.19192 0.0
C287 C 0.99068 0.62869 0.19308 0.0
C288 C 0.99971 0.61292 0.2204 0.0
C289 C 0.98896 0.61551 0.24646 0.0
C290 C 0.96958 0.63324 0.24524 0.0
H291 H 0.97216 0.7336 0.20439 0.0
H292 H 0.98568 0.70108 0.22075 0.0
H293 H 0.97461 0.70758 0.18216 0.0
H294 H 0.96456 0.65844 0.17067 0.0
H295 H 0.99847 0.62712 0.17259 0.0
H296 H 0.82356 0.29055 0.76391 0.0
H297 H 0.86156 0.31978 0.74742 0.0
H298 H 0.83543 0.31777 0.65606 0.0
H299 H 0.79725 0.28836 0.6728 0.0
H300 H 0.89986 0.31022 0.7059 0.0
H301 H 0.84379 0.40318 0.66647 0.0
H302 H 0.83191 0.37367 0.69293 0.0
H303 H 0.83317 0.3706 0.6549 0.0
C304 C 0.8262 0.29617 0.74038 0.0
C305 C 0.80767 0.28762 0.71951 0.0
C306 C 0.84781 0.31269 0.73098 0.0
C307 C 0.85111 0.32106 0.70055 0.0
C308 C 0.83308 0.31161 0.67962 0.0
H309 H 0.96867 0.45992 0.65636 0.0
H310 H 0.93567 0.42341 0.64612 0.0
C311 C 0.81147 0.29483 0.68911 0.0
C312 C 0.87275 0.34108 0.6913 0.0
H313 H 0.88812 0.41109 0.67162 0.0
C314 C 0.89735 0.33219 0.69769 0.0
C315 C 0.86935 0.36966 0.68035 0.0
C316 C 0.84319 0.38009 0.67325 0.0
C317 C 0.91868 0.35143 0.69522 0.0
C318 C 0.9152 0.38028 0.68681 0.0
C319 C 0.8907 0.38896 0.67813 0.0
C320 C 0.93596 0.40165 0.69182 0.0
C321 C 0.94472 0.34082 0.70294 0.0
C322 C 0.94662 0.4017 0.72087 0.0
C323 C 0.96511 0.4224 0.72677 0.0
C324 C 0.97339 0.44372 0.70376 0.0
C325 C 0.96274 0.44373 0.67453 0.0
C326 C 0.94396 0.42292 0.66865 0.0
H327 H 0.94497 0.31931 0.69856 0.0
H328 H 0.95923 0.35464 0.69012 0.0
H329 H 0.95003 0.34012 0.72699 0.0
H330 H 0.94027 0.38592 0.73919 0.0
H331 H 0.97283 0.42169 0.74956 0.0
H332 H 0.30937 0.30287 0.27151 0.0
H333 H 0.31709 0.26194 0.31053 0.0
H334 H 0.29039 0.20787 0.24841 0.0
H335 H 0.28321 0.24904 0.20934 0.0
H336 H 0.27927 0.2242 0.33107 0.0
H337 H 0.35243 0.17026 0.29022 0.0
H338 H 0.34604 0.20597 0.27476 0.0
H339 H 0.32548 0.17767 0.26406 0.0
C340 C 0.30592 0.28219 0.26616 0.0
C341 C 0.29584 0.27885 0.23766 0.0
C342 C 0.31017 0.25887 0.28836 0.0
C343 C 0.30438 0.2318 0.28241 0.0
C344 C 0.29545 0.22849 0.25343 0.0
H345 H 0.27175 0.08865 0.42489 0.0
H346 H 0.2681 0.12491 0.38001 0.0
C347 C 0.29137 0.25191 0.23114 0.0
C348 C 0.30533 0.20738 0.30724 0.0
H349 H 0.33193 0.14538 0.3323 0.0
C350 C 0.29083 0.20698 0.33135 0.0
C351 C 0.32043 0.18497 0.3076 0.0
C352 C 0.33717 0.18475 0.28292 0.0
C353 C 0.29115 0.18494 0.35593 0.0
C354 C 0.30593 0.1623 0.35612 0.0
C355 C 0.32037 0.16261 0.33195 0.0
C356 C 0.30801 0.13907 0.38211 0.0
C357 C 0.27627 0.18657 0.38186 0.0
C358 C 0.33172 0.1344 0.3976 0.0
C359 C 0.33389 0.11363 0.423 0.0
C360 C 0.31236 0.09699 0.43351 0.0
C361 C 0.28866 0.10123 0.41755 0.0
C362 C 0.28653 0.12202 0.39197 0.0
H363 H 0.27096 0.20812 0.38125 0.0
H364 H 0.25851 0.17276 0.38107 0.0
H365 H 0.28732 0.1795 0.40332 0.0
H366 H 0.34855 0.14725 0.39038 0.0
H367 H 0.35248 0.11092 0.43463 0.0
H368 H 0.31315 0.74501 0.84895 0.0
H369 H 0.3496 0.75314 0.88389 0.0
H370 H 0.39851 0.77034 0.81167 0.0
H371 H 0.36203 0.76094 0.77695 0.0
H372 H 0.41768 0.73359 0.85675 0.0
H373 H 0.39002 0.82221 0.9018 0.0
H374 H 0.36576 0.79399 0.90521 0.0
H375 H 0.37388 0.81182 0.86884 0.0
C376 C 0.33169 0.75076 0.84062 0.0
C377 C 0.33492 0.75221 0.81041 0.0
C378 C 0.35245 0.75575 0.86048 0.0
C379 C 0.37682 0.76278 0.85041 0.0
C380 C 0.37989 0.76514 0.81996 0.0
H381 H 0.50676 0.79949 0.97471 0.0
H382 H 0.47396 0.80405 0.93307 0.0
C383 C 0.35909 0.75997 0.80011 0.0
C384 C 0.39926 0.76499 0.87207 0.0
H385 H 0.42207 0.79487 0.93158 0.0
C386 C 0.41879 0.7473 0.87282 0.0
C387 C 0.40099 0.78314 0.89283 0.0
C388 C 0.38166 0.80407 0.89194 0.0
C389 C 0.43933 0.74635 0.89452 0.0
C390 C 0.44012 0.76306 0.91656 0.0
C391 C 0.42126 0.78172 0.91499 0.0
C392 C 0.4598 0.76059 0.94201 0.0
C393 C 0.45997 0.72738 0.89361 0.0
C394 C 0.46239 0.73482 0.96124 0.0
C395 C 0.48111 0.73212 0.98489 0.0
C396 C 0.49753 0.75524 0.9901 0.0
C397 C 0.49449 0.78125 0.97128 0.0
C398 C 0.47576 0.7839 0.94747 0.0
H399 H 0.4609 0.72319 0.87085 0.0
H400 H 0.47884 0.73651 0.90116 0.0
H401 H 0.45585 0.70706 0.90853 0.0
H402 H 0.44986 0.71671 0.95798 0.0
H403 H 0.4827 0.71184 0.99907 0.0
H404 H 0.8488 0.87025 0.28504 0.0
H405 H 0.85758 0.89843 0.32407 0.0
H406 H 0.87258 0.82399 0.38862 0.0
H407 H 0.86254 0.79579 0.34981 0.0
H408 H 0.84161 0.8537 0.40843 0.0
H409 H 0.92257 0.92475 0.36599 0.0
H410 H 0.89588 0.92583 0.33889 0.0
H411 H 0.91149 0.89396 0.3509 0.0
C412 C 0.85404 0.86006 0.30759 0.0
C413 C 0.85507 0.83096 0.31452 0.0
C414 C 0.85943 0.87615 0.32978 0.0
C415 C 0.86631 0.86343 0.35922 0.0
C416 C 0.8676 0.83432 0.36604 0.0
H417 H 0.90418 0.96073 0.50328 0.0
H418 H 0.90868 0.93052 0.46728 0.0
C419 C 0.86199 0.81825 0.3439 0.0
C420 C 0.86989 0.88008 0.38333 0.0
H421 H 0.90016 0.93937 0.40302 0.0
C422 C 0.85472 0.87218 0.40741 0.0
C423 C 0.88727 0.90398 0.38236 0.0
C424 C 0.90542 0.91245 0.3583 0.0
C425 C 0.85552 0.8882 0.4297 0.0
C426 C 0.87151 0.91317 0.42756 0.0
C427 C 0.88767 0.9204 0.40439 0.0
C428 C 0.86998 0.93295 0.44789 0.0
C429 C 0.83889 0.87844 0.45516 0.0
C430 C 0.84708 0.94496 0.44816 0.0
C431 C 0.84445 0.96195 0.46854 0.0
C432 C 0.86477 0.96761 0.48903 0.0
C433 C 0.88818 0.95667 0.48786 0.0
C434 C 0.89076 0.93943 0.46737 0.0
H435 H 0.83399 0.85554 0.45848 0.0
H436 H 0.84832 0.88367 0.47621 0.0
H437 H 0.82091 0.88894 0.45014 0.0
H438 H 0.831 0.94075 0.43287 0.0
H439 H 0.82626 0.97035 0.46846 0.0
H440 H 0.69746 0.26332 0.73043 0.0
H441 H 0.66198 0.26881 0.75916 0.0
H442 H 0.71474 0.27466 0.83557 0.0
H443 H 0.75 0.27003 0.80649 0.0
H444 H 0.64416 0.2379 0.8075 0.0
H445 H 0.67645 0.34191 0.83271 0.0
H446 H 0.69071 0.32718 0.80575 0.0
H447 H 0.70047 0.31785 0.84478 0.0
C448 C 0.70125 0.26586 0.75335 0.0
C449 C 0.72623 0.26652 0.76637 0.0
C450 C 0.68112 0.26906 0.76971 0.0
C451 C 0.68574 0.27288 0.79934 0.0
C452 C 0.71075 0.27273 0.81249 0.0
H453 H 0.58746 0.23292 0.9401 0.0
H454 H 0.61694 0.23498 0.90219 0.0
C455 C 0.73083 0.26984 0.79605 0.0
C456 C 0.66442 0.2758 0.817 0.0
H457 H 0.64556 0.31481 0.86396 0.0
C458 C 0.64432 0.25493 0.81952 0.0
C459 C 0.66421 0.29836 0.83217 0.0
C460 C 0.68399 0.32274 0.82844 0.0
C461 C 0.62475 0.25523 0.83794 0.0
C462 C 0.6257 0.27654 0.85501 0.0
C463 C 0.64505 0.29821 0.8513 0.0
C464 C 0.60768 0.27578 0.87804 0.0
C465 C 0.6033 0.23264 0.83893 0.0
C466 C 0.59336 0.29858 0.87789 0.0
C467 C 0.57665 0.29767 0.89999 0.0
C468 C 0.57402 0.27392 0.92256 0.0
C469 C 0.58873 0.2514 0.92284 0.0
C470 C 0.6055 0.25243 0.901 0.0
H471 H 0.60058 0.22443 0.81785 0.0
H472 H 0.60793 0.21497 0.85717 0.0
H473 H 0.58517 0.24038 0.84294 0.0
H474 H 0.59495 0.31696 0.86055 0.0
H475 H 0.56564 0.31538 0.8992 0.0
H476 H 0.32683 0.77344 0.71206 0.0
H477 H 0.33201 0.82096 0.68351 0.0
H478 H 0.31073 0.8533 0.75787 0.0
H479 H 0.30494 0.80527 0.78613 0.0
H480 H 0.28225 0.87204 0.70761 0.0
H481 H 0.38295 0.8868 0.68329 0.0
H482 H 0.36846 0.85492 0.67351 0.0
H483 H 0.37125 0.85906 0.71182 0.0
C484 C 0.32414 0.79086 0.72251 0.0
C485 C 0.31565 0.78602 0.75113 0.0
C486 C 0.32713 0.81797 0.7063 0.0
C487 C 0.32199 0.84077 0.71862 0.0
C488 C 0.31492 0.83603 0.74799 0.0
H489 H 0.34512 1.00381 0.60476 0.0
H490 H 0.3454 0.9663 0.64823 0.0
C491 C 0.31186 0.80876 0.76421 0.0
C492 C 0.32111 0.86884 0.69945 0.0
H493 H 0.35411 0.91493 0.64865 0.0
C494 C 0.29812 0.88174 0.69512 0.0
C495 C 0.34185 0.88166 0.68338 0.0
C496 C 0.36758 0.87001 0.68849 0.0
C497 C 0.29496 0.9064 0.67412 0.0
C498 C 0.31512 0.91805 0.65645 0.0
C499 C 0.33847 0.90584 0.66183 0.0
C500 C 0.3125 0.9425 0.63184 0.0
C501 C 0.27004 0.91962 0.6711 0.0
C502 C 0.29352 0.94203 0.60834 0.0
C503 C 0.29305 0.96382 0.58357 0.0
C504 C 0.31194 0.98602 0.58165 0.0
C505 C 0.33041 0.98684 0.60556 0.0
C506 C 0.33061 0.9654 0.63042 0.0
H507 H 0.26041 0.91411 0.69211 0.0
H508 H 0.27274 0.94271 0.66495 0.0
H509 H 0.25728 0.91173 0.65351 0.0
H510 H 0.27971 0.92429 0.60852 0.0
H511 H 0.27878 0.96254 0.56531 0.0
H512 H 0.80194 0.74374 0.25706 0.0
H513 H 0.76305 0.73346 0.22615 0.0
H514 H 0.76777 0.81868 0.17866 0.0
H515 H 0.80684 0.82854 0.20902 0.0
H516 H 0.71889 0.7587 0.22466 0.0
H517 H 0.7511 0.77644 0.11103 0.0
H518 H 0.77293 0.77191 0.1439 0.0
H519 H 0.76045 0.80526 0.12956 0.0
C520 C 0.79501 0.7599 0.23935 0.0
C521 C 0.80727 0.78686 0.23519 0.0
C522 C 0.77274 0.75415 0.2219 0.0
C523 C 0.76256 0.77523 0.19986 0.0
C524 C 0.77546 0.8019 0.19503 0.0
H525 H 0.62118 0.8002 0.09054 0.0
H526 H 0.66266 0.80505 0.11821 0.0
C527 C 0.79766 0.8076 0.21243 0.0
C528 C 0.73734 0.77025 0.18383 0.0
H529 H 0.70631 0.7759 0.11455 0.0
C530 C 0.71619 0.76213 0.20058 0.0
C531 C 0.73377 0.7749 0.15241 0.0
C532 C 0.75581 0.78234 0.13317 0.0
C533 C 0.69153 0.7593 0.1868 0.0
C534 C 0.68792 0.7644 0.1554 0.0
C535 C 0.70908 0.77219 0.13862 0.0
C536 C 0.66236 0.76158 0.13952 0.0
C537 C 0.66944 0.75167 0.20595 0.0
C538 C 0.6484 0.73554 0.14234 0.0
C539 C 0.62471 0.73269 0.1266 0.0
C540 C 0.61447 0.75584 0.10761 0.0
C541 C 0.62839 0.78198 0.10508 0.0
C542 C 0.65216 0.78478 0.12078 0.0
H543 H 0.67464 0.75499 0.22906 0.0
H544 H 0.65313 0.7641 0.19644 0.0
H545 H 0.66318 0.72926 0.20692 0.0
H546 H 0.65606 0.71727 0.15631 0.0
H547 H 0.61462 0.71221 0.12898 0.0
H548 H 0.75706 0.22332 0.67847 0.0
H549 H 0.77796 0.1887 0.65889 0.0
H550 H 0.84261 0.19683 0.72184 0.0
H551 H 0.82138 0.23101 0.74175 0.0
H552 H 0.82634 0.19283 0.63464 0.0
H553 H 0.81994 0.11228 0.73781 0.0
H554 H 0.8016 0.14248 0.73039 0.0
H555 H 0.83478 0.14595 0.74217 0.0
C556 C 0.77573 0.21764 0.68798 0.0
C557 C 0.78764 0.22957 0.71159 0.0
C558 C 0.78769 0.19805 0.67678 0.0
C559 C 0.81171 0.18999 0.68915 0.0
C560 C 0.82395 0.20251 0.71223 0.0
H561 H 0.88941 0.07822 0.60265 0.0
H562 H 0.88435 0.11567 0.62997 0.0
C563 C 0.81197 0.22213 0.7234 0.0
C564 C 0.82344 0.16786 0.67832 0.0
H565 H 0.83813 0.09991 0.69797 0.0
C566 C 0.82927 0.17262 0.64854 0.0
C567 C 0.82707 0.1415 0.69655 0.0
C568 C 0.82039 0.135 0.72846 0.0
C569 C 0.83797 0.15144 0.63623 0.0
C570 C 0.84113 0.1249 0.6543 0.0
C571 C 0.83599 0.1204 0.68431 0.0
C572 C 0.84624 0.10061 0.64142 0.0
C573 C 0.84244 0.15714 0.60361 0.0
C574 C 0.82699 0.07918 0.64 0.0
C575 C 0.82983 0.05794 0.62457 0.0
C576 C 0.85208 0.05751 0.61038 0.0
C577 C 0.87209 0.07796 0.61344 0.0
C578 C 0.86914 0.09947 0.62879 0.0
H579 H 0.83576 0.17753 0.59187 0.0
H580 H 0.86305 0.15738 0.60112 0.0
H581 H 0.83257 0.14038 0.59262 0.0
H582 H 0.80922 0.0796 0.64968 0.0
H583 H 0.81412 0.04239 0.62278 0.0
H584 H 0.34202 0.31543 0.20917 0.0
H585 H 0.37843 0.30908 0.18242 0.0
H586 H 0.32692 0.28126 0.11374 0.0
H587 H 0.29071 0.2886 0.14013 0.0
H588 H 0.39649 0.26689 0.16369 0.0
H589 H 0.36663 0.34551 0.06593 0.0
H590 H 0.35178 0.34016 0.10048 0.0
H591 H 0.34261 0.31749 0.07413 0.0
C592 C 0.33869 0.30751 0.18861 0.0
C593 C 0.31383 0.30261 0.17643 0.0
C594 C 0.35937 0.30402 0.17328 0.0
C595 C 0.3554 0.29546 0.14562 0.0
C596 C 0.33046 0.28875 0.13453 0.0
H597 H 0.46556 0.2352 0.0517 0.0
H598 H 0.43304 0.24118 0.08342 0.0
C599 C 0.30983 0.29259 0.14967 0.0
C600 C 0.37723 0.29437 0.12795 0.0
H601 H 0.3995 0.31762 0.05951 0.0
C602 C 0.39722 0.27811 0.14097 0.0
C603 C 0.37858 0.30963 0.09856 0.0
C604 C 0.3589 0.32942 0.08406 0.0
C605 C 0.41808 0.27593 0.12508 0.0
C606 C 0.41859 0.28974 0.09504 0.0
C607 C 0.399 0.30672 0.08237 0.0
C608 C 0.43884 0.28628 0.07606 0.0
C609 C 0.43949 0.25917 0.14088 0.0
C610 C 0.4524 0.30969 0.06034 0.0
C611 C 0.47076 0.30635 0.04158 0.0
C612 C 0.47597 0.27952 0.03831 0.0
C613 C 0.46229 0.25617 0.054 0.0
C614 C 0.44378 0.25953 0.07239 0.0
H615 H 0.4405 0.25835 0.16528 0.0
H616 H 0.43613 0.23741 0.13699 0.0
H617 H 0.45808 0.26804 0.13266 0.0
H618 H 0.44878 0.33057 0.06259 0.0
H619 H 0.48094 0.32475 0.02978 0.0
H620 H 0.7921 0.63829 0.78121 0.0
H621 H 0.82811 0.61422 0.77189 0.0
H622 H 0.87926 0.68361 0.7907 0.0
H623 H 0.84316 0.70681 0.80186 0.0
H624 H 0.86409 0.62388 0.73499 0.0
H625 H 0.90873 0.62098 0.84951 0.0
H626 H 0.87737 0.63241 0.83828 0.0
H627 H 0.90496 0.65572 0.82919 0.0
C628 C 0.81107 0.64832 0.78328 0.0
C629 C 0.81503 0.67406 0.79277 0.0
C630 C 0.83162 0.63468 0.77783 0.0
C631 C 0.85654 0.64669 0.78145 0.0
C632 C 0.86032 0.67349 0.78869 0.0
H633 H 0.98309 0.57171 0.72553 0.0
H634 H 0.95084 0.60284 0.72989 0.0
C635 C 0.83972 0.68697 0.79455 0.0
C636 C 0.87834 0.63053 0.77868 0.0
H637 H 0.93167 0.60327 0.81655 0.0
C638 C 0.8789 0.61943 0.7528 0.0
C639 C 0.89741 0.6242 0.80218 0.0
C640 C 0.89703 0.63369 0.83147 0.0
C641 C 0.89783 0.60215 0.74979 0.0
C642 C 0.91736 0.59656 0.77289 0.0
C643 C 0.91687 0.60774 0.79872 0.0
C644 C 0.93805 0.57852 0.77108 0.0
C645 C 0.89606 0.58925 0.72231 0.0
C646 C 0.94262 0.5552 0.79357 0.0
C647 C 0.96154 0.53768 0.7915 0.0
C648 C 0.97609 0.54302 0.76674 0.0
C649 C 0.97193 0.56677 0.74467 0.0
C650 C 0.95334 0.5845 0.74701 0.0
H651 H 0.87639 0.58857 0.71161 0.0
H652 H 0.90848 0.60206 0.70589 0.0
H653 H 0.90227 0.56768 0.72758 0.0
H654 H 0.93121 0.55023 0.81249 0.0
H655 H 0.96431 0.51957 0.80887 0.0
H656 H 0.8221 0.33385 0.30455 0.0
H657 H 0.85911 0.36639 0.31306 0.0
H658 H 0.89341 0.34541 0.23969 0.0
H659 H 0.85662 0.31263 0.23164 0.0
H660 H 0.9283 0.35211 0.29066 0.0
H661 H 0.86769 0.44112 0.25252 0.0
H662 H 0.85695 0.41487 0.28276 0.0
H663 H 0.85769 0.40621 0.24667 0.0
C664 C 0.83786 0.33584 0.29077 0.0
C665 C 0.83653 0.32121 0.26721 0.0
C666 C 0.85884 0.3545 0.29545 0.0
C667 C 0.87878 0.35868 0.27664 0.0
C668 C 0.87816 0.34265 0.25433 0.0
H669 H 0.98498 0.49679 0.22132 0.0
H670 H 0.95147 0.45894 0.22747 0.0
C671 C 0.85718 0.32408 0.24963 0.0
C672 C 0.89934 0.38115 0.27857 0.0
H673 H 0.91085 0.45214 0.26547 0.0
C674 C 0.92451 0.37399 0.28548 0.0
C675 C 0.89433 0.40968 0.27139 0.0
C676 C 0.86776 0.4186 0.26268 0.0
C677 C 0.94485 0.39464 0.28513 0.0
C678 C 0.93981 0.42314 0.27782 0.0
C679 C 0.91462 0.43027 0.27128 0.0
C680 C 0.96045 0.44592 0.27471 0.0
C681 C 0.97163 0.38587 0.29149 0.0
C682 C 0.97654 0.45136 0.29933 0.0
C683 C 0.99577 0.47314 0.29593 0.0
C684 C 0.99924 0.48985 0.26781 0.0
C685 C 0.98295 0.48435 0.24329 0.0
C686 C 0.96373 0.46272 0.24674 0.0
H687 H 0.97255 0.36325 0.29172 0.0
H688 H 0.98404 0.39799 0.27463 0.0
H689 H 0.97931 0.39023 0.31357 0.0
H690 H 0.9741 0.43888 0.3212 0.0
H691 H 0.00794 0.47683 0.31528 0.0
H692 H 0.24905 0.30654 0.77922 0.0
H693 H 0.21835 0.33995 0.78321 0.0
H694 H 0.15716 0.28293 0.75718 0.0
H695 H 0.18796 0.24911 0.75459 0.0
H696 H 0.18659 0.36665 0.74217 0.0
H697 H 0.13076 0.30146 0.82947 0.0
H698 H 0.16068 0.29181 0.82047 0.0
H699 H 0.13189 0.28489 0.79814 0.0
C700 C 0.22899 0.30124 0.7746 0.0
C701 C 0.22071 0.27549 0.76653 0.0
C702 C 0.21149 0.32023 0.77682 0.0
C703 C 0.18536 0.31379 0.771 0.0
C704 C 0.17712 0.28811 0.76253 0.0
H705 H 0.07251 0.43282 0.71908 0.0
H706 H 0.10375 0.39867 0.72281 0.0
C707 C 0.19466 0.269 0.76061 0.0
C708 C 0.16694 0.33448 0.77256 0.0
H709 H 0.11236 0.34282 0.80275 0.0
C710 C 0.17048 0.36146 0.75561 0.0
C711 C 0.14616 0.32795 0.79054 0.0
C712 C 0.14227 0.30005 0.81093 0.0
C713 C 0.15347 0.3818 0.75545 0.0
C714 C 0.13187 0.37477 0.77202 0.0
C715 C 0.12873 0.34809 0.78974 0.0
C716 C 0.11198 0.39457 0.77039 0.0
C717 C 0.159 0.41073 0.73767 0.0
C718 C 0.10528 0.40275 0.79613 0.0
C719 C 0.08702 0.42212 0.79413 0.0
C720 C 0.07521 0.43362 0.76634 0.0
C721 C 0.0815 0.42473 0.7408 0.0
C722 C 0.09949 0.40528 0.74285 0.0
H723 H 0.17957 0.41518 0.73447 0.0
H724 H 0.14866 0.41232 0.71534 0.0
H725 H 0.15279 0.42697 0.74867 0.0
H726 H 0.11452 0.39453 0.81766 0.0
H727 H 0.08253 0.42846 0.81422 0.0
H728 H 0.32109 0.69294 0.31528 0.0
H729 H 0.28368 0.66322 0.30162 0.0
H730 H 0.24094 0.73609 0.27561 0.0
H731 H 0.27882 0.7657 0.28677 0.0
H732 H 0.24155 0.65262 0.32526 0.0
H733 H 0.21761 0.69955 0.20819 0.0
H734 H 0.24727 0.70884 0.22772 0.0
H735 H 0.21906 0.72577 0.23067 0.0
C736 C 0.30388 0.70255 0.30573 0.0
C737 C 0.30272 0.73153 0.30233 0.0
C738 C 0.28242 0.68559 0.29822 0.0
C739 C 0.25935 0.6973 0.28728 0.0
C740 C 0.2585 0.72642 0.28322 0.0
H741 H 0.11091 0.60651 0.31023 0.0
H742 H 0.15145 0.634 0.31593 0.0
C743 C 0.28006 0.74335 0.29011 0.0
C744 C 0.23576 0.67908 0.28228 0.0
H745 H 0.18343 0.67247 0.23408 0.0
C746 C 0.22904 0.65676 0.3051 0.0
C747 C 0.21947 0.68398 0.25585 0.0
C748 C 0.22641 0.70564 0.22914 0.0
C749 C 0.20636 0.63978 0.30259 0.0
C750 C 0.18917 0.64602 0.27709 0.0
C751 C 0.19622 0.66787 0.25393 0.0
C752 C 0.16406 0.62992 0.27359 0.0
C753 C 0.20149 0.61498 0.32711 0.0
C754 C 0.15684 0.61959 0.2473 0.0
C755 C 0.13328 0.60478 0.2436 0.0
C756 C 0.1165 0.59953 0.26628 0.0
C757 C 0.12357 0.60997 0.29251 0.0
C758 C 0.1469 0.62544 0.29589 0.0
H759 H 0.21955 0.60763 0.339 0.0
H760 H 0.19027 0.62117 0.34362 0.0
H761 H 0.19084 0.59728 0.31836 0.0
H762 H 0.16955 0.62273 0.22966 0.0
H763 H 0.12845 0.59687 0.22318 0.0
H764 H 0.77394 0.71354 0.73726 0.0
H765 H 0.78089 0.75452 0.69759 0.0
H766 H 0.826 0.79724 0.76068 0.0
H767 H 0.8187 0.7563 0.80015 0.0
H768 H 0.7855 0.8265 0.73044 0.0
H769 H 0.84231 0.79052 0.65159 0.0
H770 H 0.81442 0.76835 0.66198 0.0
H771 H 0.84012 0.77244 0.68953 0.0
C772 C 0.78606 0.7314 0.74216 0.0
C773 C 0.7961 0.73195 0.77137 0.0
C774 C 0.78997 0.75476 0.71965 0.0
C775 C 0.80407 0.77891 0.72615 0.0
C776 C 0.81514 0.77882 0.75515 0.0
H777 H 0.85451 0.93164 0.61315 0.0
H778 H 0.84977 0.88697 0.64716 0.0
C779 C 0.81121 0.75549 0.77757 0.0
C780 C 0.80516 0.80515 0.7037 0.0
H781 H 0.82614 0.83505 0.636 0.0
C782 C 0.79439 0.82839 0.70978 0.0
C783 C 0.81677 0.80754 0.67681 0.0
C784 C 0.82927 0.78349 0.66956 0.0
C785 C 0.795 0.854 0.68975 0.0
C786 C 0.80641 0.85634 0.66274 0.0
C787 C 0.81717 0.8331 0.65661 0.0
C788 C 0.80877 0.88324 0.64143 0.0
C789 C 0.78402 0.87855 0.69802 0.0
C790 C 0.78723 0.89595 0.6267 0.0
C791 C 0.78984 0.92167 0.60714 0.0
C792 C 0.81406 0.93507 0.60198 0.0
C793 C 0.83554 0.92205 0.61664 0.0
C794 C 0.83291 0.89641 0.63605 0.0
H795 H 0.78061 0.87486 0.72198 0.0
H796 H 0.7969 0.89777 0.69283 0.0
H797 H 0.76561 0.88227 0.68488 0.0
H798 H 0.76841 0.88594 0.63028 0.0
H799 H 0.77292 0.93102 0.59609 0.0
H800 H 0.74326 0.32717 0.20666 0.0
H801 H 0.70829 0.31706 0.17011 0.0
H802 H 0.73572 0.23639 0.17237 0.0
H803 H 0.77078 0.24676 0.20859 0.0
H804 H 0.71129 0.29724 0.11116 0.0
H805 H 0.65934 0.22328 0.19724 0.0
H806 H 0.68305 0.24979 0.20664 0.0
H807 H 0.69255 0.21929 0.19571 0.0
C808 C 0.74197 0.3076 0.19875 0.0
C809 C 0.75952 0.28774 0.21004 0.0
C810 C 0.72206 0.30178 0.17812 0.0
C811 C 0.71938 0.27589 0.16886 0.0
C812 C 0.73741 0.25638 0.17946 0.0
H813 H 0.5939 0.20212 0.06413 0.0
H814 H 0.63267 0.20901 0.09635 0.0
C815 C 0.75738 0.26229 0.19992 0.0
C816 C 0.69719 0.26891 0.14896 0.0
H817 H 0.64054 0.22972 0.14817 0.0
C818 C 0.69582 0.28244 0.11915 0.0
C819 C 0.67726 0.2494 0.15953 0.0
C820 C 0.67786 0.23462 0.19156 0.0
C821 C 0.67486 0.27703 0.09951 0.0
C822 C 0.65447 0.25817 0.11028 0.0
C823 C 0.65614 0.24421 0.14 0.0
C824 C 0.63078 0.25368 0.09139 0.0
C825 C 0.67491 0.29136 0.06735 0.0
C826 C 0.61652 0.27633 0.07868 0.0
C827 C 0.59456 0.2725 0.06027 0.0
C828 C 0.58614 0.24582 0.05449 0.0
C829 C 0.59991 0.22292 0.06812 0.0
C830 C 0.62208 0.22684 0.08645 0.0
H831 H 0.69454 0.29768 0.06082 0.0
H832 H 0.6654 0.27762 0.05234 0.0
H833 H 0.66456 0.31054 0.06406 0.0
H834 H 0.62244 0.29707 0.08292 0.0
H835 H 0.58425 0.29056 0.05044 0.0
H836 H 0.28551 0.25591 0.69678 0.0
H837 H 0.30468 0.23274 0.66239 0.0
H838 H 0.29568 0.15416 0.72329 0.0
H839 H 0.27542 0.17713 0.75688 0.0
H840 H 0.34668 0.20151 0.66738 0.0
H841 H 0.25721 0.13715 0.64737 0.0
H842 H 0.25853 0.16624 0.6664 0.0
H843 H 0.26884 0.13311 0.68578 0.0
C844 C 0.28743 0.23365 0.70255 0.0
C845 C 0.27848 0.21809 0.72902 0.0
C846 C 0.29863 0.22051 0.68313 0.0
C847 C 0.30118 0.19162 0.69001 0.0
C848 C 0.29342 0.17635 0.71722 0.0
H849 H 0.37916 0.09284 0.5907 0.0
H850 H 0.37067 0.12118 0.62687 0.0
C851 C 0.28203 0.18946 0.73647 0.0
C852 C 0.31067 0.17725 0.66804 0.0
H853 H 0.29322 0.12735 0.62595 0.0
C854 C 0.33504 0.18529 0.65827 0.0
C855 C 0.29531 0.15633 0.65592 0.0
C856 C 0.26844 0.14784 0.66415 0.0
C857 C 0.34446 0.17288 0.63673 0.0
C858 C 0.32923 0.15164 0.62504 0.0
C859 C 0.30495 0.14358 0.63498 0.0
C860 C 0.33725 0.13806 0.60153 0.0
C861 C 0.37031 0.18309 0.62614 0.0
C862 C 0.32161 0.13846 0.5751 0.0
C863 C 0.3262 0.12207 0.55482 0.0
C864 C 0.3467 0.10509 0.56032 0.0
C865 C 0.36342 0.10602 0.58577 0.0
C866 C 0.35858 0.12222 0.60642 0.0
H867 H 0.37681 0.20382 0.63172 0.0
H868 H 0.38426 0.16804 0.63707 0.0
H869 H 0.3702 0.1846 0.60172 0.0
H870 H 0.30512 0.15056 0.57076 0.0
H871 H 0.31306 0.12182 0.53532 0.0
H872 H 0.3771 0.706 0.31845 0.0
H873 H 0.40291 0.69237 0.2827 0.0
H874 H 0.36714 0.75097 0.2121 0.0
H875 H 0.34121 0.76425 0.24804 0.0
H876 H 0.37927 0.6987 0.19554 0.0
H877 H 0.46009 0.75303 0.25322 0.0
H878 H 0.44253 0.72545 0.27645 0.0
H879 H 0.42743 0.75643 0.25888 0.0
C880 C 0.37418 0.71506 0.29508 0.0
C881 C 0.3573 0.73599 0.28573 0.0
C882 C 0.38899 0.70751 0.27476 0.0
C883 C 0.38721 0.72101 0.24486 0.0
C884 C 0.3688 0.74031 0.23508 0.0
H885 H 0.50036 0.75895 0.11857 0.0
H886 H 0.46812 0.75836 0.15321 0.0
C887 C 0.35394 0.74779 0.25545 0.0
C888 C 0.40653 0.71769 0.22476 0.0
H889 H 0.46937 0.73285 0.21338 0.0
C890 C 0.39901 0.70595 0.19947 0.0
C891 C 0.43219 0.72762 0.22978 0.0
C892 C 0.44113 0.74156 0.25589 0.0
C893 C 0.41656 0.70384 0.17905 0.0
C894 C 0.44225 0.71356 0.18424 0.0
C895 C 0.44971 0.72522 0.20958 0.0
C896 C 0.46152 0.71337 0.1629 0.0
C897 C 0.40736 0.69203 0.15163 0.0
C898 C 0.46877 0.68821 0.15708 0.0
C899 C 0.48733 0.68844 0.13727 0.0
C900 C 0.499 0.71387 0.12298 0.0
C901 C 0.49179 0.73898 0.12912 0.0
C902 C 0.47333 0.73871 0.14892 0.0
H903 H 0.38632 0.69074 0.14791 0.0
H904 H 0.41551 0.70499 0.13163 0.0
H905 H 0.41369 0.67066 0.15419 0.0
H906 H 0.46023 0.66839 0.16804 0.0
H907 H 0.49246 0.66873 0.13309 0.0
H908 H 0.78391 0.2838 0.33094 0.0
H909 H 0.79095 0.2467 0.3745 0.0
H910 H 0.84604 0.21458 0.32928 0.0
H911 H 0.83857 0.2516 0.28566 0.0
H912 H 0.80544 0.17635 0.3462 0.0
H913 H 0.84668 0.22519 0.44113 0.0
H914 H 0.81939 0.24109 0.42112 0.0
H915 H 0.84812 0.24272 0.40289 0.0
C916 C 0.79831 0.26949 0.33104 0.0
C917 C 0.81086 0.27039 0.30534 0.0
C918 C 0.8023 0.2483 0.35579 0.0
C919 C 0.81904 0.22788 0.35514 0.0
C920 C 0.8331 0.23018 0.33026 0.0
H921 H 0.85881 0.08723 0.49 0.0
H922 H 0.85728 0.13046 0.45361 0.0
C923 C 0.82908 0.25139 0.30555 0.0
C924 C 0.81911 0.20215 0.37825 0.0
H925 H 0.83023 0.17772 0.45267 0.0
C926 C 0.81099 0.17662 0.36948 0.0
C927 C 0.82625 0.20261 0.40856 0.0
C928 C 0.83582 0.22932 0.41905 0.0
C929 C 0.80977 0.1515 0.3902 0.0
C930 C 0.81649 0.15198 0.42059 0.0
C931 C 0.82477 0.17749 0.42938 0.0
C932 C 0.81669 0.12596 0.44327 0.0
C933 C 0.80181 0.12457 0.37932 0.0
C934 C 0.79425 0.10912 0.44975 0.0
C935 C 0.79501 0.08415 0.47066 0.0
C936 C 0.81825 0.07572 0.4854 0.0
C937 C 0.84057 0.09293 0.47901 0.0
C938 C 0.83977 0.11777 0.45827 0.0
H939 H 0.80234 0.1271 0.35484 0.0
H940 H 0.81428 0.10792 0.39026 0.0
H941 H 0.78209 0.11754 0.38497 0.0
H942 H 0.77618 0.11529 0.43865 0.0
H943 H 0.77749 0.07147 0.47518 0.0
H944 H 0.31927 0.24928 0.76826 0.0
H945 H 0.35772 0.23467 0.79906 0.0
H946 H 0.31267 0.16991 0.85329 0.0
H947 H 0.27415 0.1852 0.82256 0.0
H948 H 0.34192 0.20064 0.88645 0.0
H949 H 0.40173 0.17099 0.80763 0.0
H950 H 0.39101 0.20504 0.79354 0.0
H951 H 0.36824 0.17514 0.7989 0.0
C952 C 0.31785 0.23159 0.78642 0.0
C953 C 0.29408 0.21834 0.79337 0.0
C954 C 0.33973 0.22307 0.80385 0.0
C955 C 0.33818 0.20084 0.82823 0.0
C956 C 0.31436 0.18696 0.83449 0.0
H957 H 0.46454 0.1712 0.9689 0.0
H958 H 0.42685 0.15908 0.937 0.0
C959 C 0.29245 0.19565 0.81711 0.0
C960 C 0.36091 0.19457 0.84905 0.0
H961 H 0.42434 0.18669 0.85097 0.0
C962 C 0.35978 0.19677 0.8789 0.0
C963 C 0.3842 0.18938 0.83926 0.0
C964 C 0.38629 0.1847 0.80814 0.0
C965 C 0.3817 0.19609 0.89858 0.0
C966 C 0.40527 0.19305 0.88812 0.0
C967 C 0.40619 0.1891 0.85885 0.0
C968 C 0.42934 0.19828 0.90581 0.0
C969 C 0.37989 0.20059 0.92984 0.0
C970 C 0.44331 0.224 0.89839 0.0
C971 C 0.46449 0.23103 0.91653 0.0
C972 C 0.4723 0.21234 0.94237 0.0
C973 C 0.45895 0.18599 0.94912 0.0
C974 C 0.43746 0.17906 0.931 0.0
H975 H 0.36023 0.20387 0.9341 0.0
H976 H 0.38631 0.18214 0.94597 0.0
H977 H 0.39258 0.21902 0.934 0.0
H978 H 0.43727 0.23908 0.87905 0.0
H979 H 0.47449 0.25139 0.91055 0.0
H980 H 0.36283 0.8316 0.3113 0.0
H981 H 0.37321 0.87226 0.33543 0.0
H982 H 0.35339 0.82183 0.41918 0.0
H983 H 0.34434 0.78097 0.39514 0.0
H984 H 0.34277 0.89799 0.35994 0.0
H985 H 0.41808 0.86135 0.44612 0.0
H986 H 0.40758 0.84299 0.41614 0.0
H987 H 0.39033 0.83746 0.44897 0.0
C988 C 0.36112 0.8293 0.33495 0.0
C989 C 0.35266 0.80343 0.35145 0.0
C990 C 0.367 0.85243 0.34872 0.0
C991 C 0.36448 0.8501 0.37928 0.0
C992 C 0.35617 0.82408 0.3958 0.0
H993 H 0.3218 0.97028 0.46978 0.0
H994 H 0.32735 0.93364 0.44274 0.0
C995 C 0.35059 0.80087 0.38204 0.0
C996 C 0.36837 0.87535 0.39325 0.0
H997 H 0.39595 0.89998 0.45437 0.0
C998 C 0.35476 0.89852 0.38031 0.0
C999 C 0.38438 0.87646 0.41955 0.0
C1000 C 0.40113 0.85333 0.43329 0.0
C1001 C 0.3556 0.922 0.39376 0.0
C1002 C 0.3699 0.9221 0.42133 0.0
C1003 C 0.3847 0.89971 0.43345 0.0
C1004 C 0.36757 0.94395 0.43903 0.0
C1005 C 0.34072 0.94632 0.37853 0.0
C1006 C 0.38863 0.96135 0.44708 0.0
C1007 C 0.38557 0.9825 0.46295 0.0
C1008 C 0.36141 0.9864 0.471 0.0
C1009 C 0.34064 0.96827 0.4636 0.0
C1010 C 0.34373 0.94727 0.448 0.0
H1011 H 0.33805 0.94719 0.35411 0.0
H1012 H 0.32163 0.94383 0.38711 0.0
H1013 H 0.35032 0.96647 0.38281 0.0
H1014 H 0.40727 0.95891 0.44061 0.0
H1015 H 0.40195 0.99602 0.46845 0.0
H1016 H 0.77175 0.67743 0.89093 0.0
H1017 H 0.73995 0.67145 0.9276 0.0
H1018 H 0.68092 0.68584 0.85625 0.0
H1019 H 0.7127 0.69047 0.81983 0.0
H1020 H 0.71122 0.70945 0.93605 0.0
H1021 H 0.64799 0.62005 0.9091 0.0
H1022 H 0.67887 0.62882 0.89491 0.0
H1023 H 0.65185 0.64681 0.87686 0.0
C1024 C 0.75186 0.67847 0.88331 0.0
C1025 C 0.74444 0.68391 0.85279 0.0
C1026 C 0.73375 0.67524 0.90413 0.0
C1027 C 0.70793 0.67764 0.89473 0.0
C1028 C 0.70056 0.68301 0.86412 0.0
H1029 H 0.59692 0.73889 0.98264 0.0
H1030 H 0.62882 0.7299 0.95166 0.0
C1031 C 0.71866 0.68595 0.84333 0.0
C1032 C 0.6891 0.67727 0.91676 0.0
H1033 H 0.63032 0.64981 0.93688 0.0
C1034 C 0.69371 0.69609 0.93648 0.0
C1035 C 0.66639 0.65957 0.91773 0.0
C1036 C 0.6611 0.63747 0.89872 0.0
C1037 C 0.67581 0.69858 0.95616 0.0
C1038 C 0.65233 0.68236 0.95558 0.0
C1039 C 0.64816 0.66257 0.93693 0.0
C1040 C 0.63156 0.68676 0.97318 0.0
C1041 C 0.68221 0.71874 0.9773 0.0
C1042 C 0.62157 0.66507 0.99466 0.0
C1043 C 0.60299 0.67007 0.01232 0.0
C1044 C 0.59416 0.69684 0.00869 0.0
C1045 C 0.60353 0.71813 0.98632 0.0
C1046 C 0.62189 0.71308 0.96865 0.0
H1047 H 0.70308 0.72264 0.98158 0.0
H1048 H 0.67444 0.73902 0.9673 0.0
H1049 H 0.67389 0.7108 0.99888 0.0
H1050 H 0.62864 0.64452 0.9983 0.0
H1051 H 0.59609 0.65323 0.02931 0.0
loop_
_geom_bond_atom_site_label_1
_geom_bond_atom_site_label_2
_geom_bond_distance
_geom_bond_site_symmetry_2
_ccdc_geom_bond_type
C0 N1 1.317 . S
C0 N2 1.348 . S
C0 C3 1.485 . S
N1 C0 1.317 . S
N1 N5 1.370 . S
N2 C0 1.348 . S
N2 C4 1.346 . S
C3 C0 1.485 . S
C3 H7 0.960 . S
C3 H8 0.961 . S
C3 H9 0.960 . S
C4 N2 1.346 . S
C4 N5 1.307 . S
C4 C6 1.486 . S
N5 N1 1.370 . S
N5 C4 1.307 . S
C6 C4 1.486 . S
C6 H10 0.960 . S
C6 H11 0.960 . S
C6 H12 0.959 . S
H7 C3 0.960 . S
H8 C3 0.961 . S
H9 C3 0.960 . S
H10 C6 0.960 . S
H11 C6 0.960 . S
H12 C6 0.959 . S
C13 N14 1.317 . S
C13 N15 1.348 . S
C13 C16 1.485 . S
N14 C13 1.317 . S
N14 N18 1.370 . S
N15 C13 1.348 . S
N15 C17 1.346 . S
C16 C13 1.485 . S
C16 H20 0.960 . S
C16 H21 0.961 . S
C16 H22 0.960 . S
C17 N15 1.346 . S
C17 N18 1.307 . S
C17 C19 1.486 . S
N18 N14 1.370 . S
N18 C17 1.307 . S
C19 C17 1.486 . S
C19 H23 0.960 . S
C19 H24 0.960 . S
C19 H25 0.959 . S
H20 C16 0.960 . S
H21 C16 0.961 . S
H22 C16 0.960 . S
H23 C19 0.960 . S
H24 C19 0.960 . S
H25 C19 0.959 . S
C26 N27 1.317 . S
C26 N28 1.348 . S
C26 C29 1.485 . S
N27 C26 1.317 . S
N27 N31 1.370 . S
N28 C26 1.348 . S
N28 C30 1.346 . S
C29 C26 1.485 . S
C29 H33 0.960 . S
C29 H34 0.961 . S
C29 H35 0.960 . S
C30 N28 1.346 . S
C30 N31 1.307 . S
C30 C32 1.486 . S
N31 N27 1.370 . S
N31 C30 1.307 . S
C32 C30 1.486 . S
C32 H36 0.960 . S
C32 H37 0.960 . S
C32 H38 0.959 . S
H33 C29 0.960 . S
H34 C29 0.961 . S
H35 C29 0.960 . S
H36 C32 0.960 . S
H37 C32 0.960 . S
H38 C32 0.959 . S
C39 N40 1.317 . S
C39 N41 1.348 . S
C39 C42 1.485 . S
N40 C39 1.317 . S
N40 N44 1.370 . S
N41 C39 1.348 . S
N41 C43 1.346 . S
C42 C39 1.485 . S
C42 H46 0.960 . S
C42 H47 0.961 . S
C42 H48 0.960 . S
C43 N41 1.346 . S
C43 N44 1.307 . S
C43 C45 1.486 . S
N44 N40 1.370 . S
N44 C43 1.307 . S
C45 C43 1.486 . S
C45 H49 0.960 . S
C45 H50 0.960 . S
C45 H51 0.959 . S
H46 C42 0.960 . S
H47 C42 0.961 . S
H48 C42 0.960 . S
H49 C45 0.960 . S
H50 C45 0.960 . S
H51 C45 0.959 . S
C52 N53 1.317 . S
C52 N54 1.348 . S
C52 C55 1.485 . S
N53 C52 1.317 . S
N53 N57 1.370 . S
N54 C52 1.348 . S
N54 C56 1.346 . S
C55 C52 1.485 . S
C55 H59 0.960 . S
C55 H60 0.961 . S
C55 H61 0.960 . S
C56 N54 1.346 . S
C56 N57 1.307 . S
C56 C58 1.486 . S
N57 N53 1.370 . S
N57 C56 1.307 . S
C58 C56 1.486 . S
C58 H62 0.960 . S
C58 H63 0.960 . S
C58 H64 0.959 . S
H59 C55 0.960 . S
H60 C55 0.961 . S
H61 C55 0.960 . S
H62 C58 0.960 . S
H63 C58 0.960 . S
H64 C58 0.959 . S
C65 N66 1.317 . S
C65 N67 1.348 . S
C65 C68 1.485 . S
N66 C65 1.317 . S
N66 N70 1.370 . S
N67 C65 1.348 . S
N67 C69 1.346 . S
C68 C65 1.485 . S
C68 H72 0.960 . S
C68 H73 0.961 . S
C68 H74 0.960 . S
C69 N67 1.346 . S
C69 N70 1.307 . S
C69 C71 1.486 . S
N70 N66 1.370 . S
N70 C69 1.307 . S
C71 C69 1.486 . S
C71 H75 0.960 . S
C71 H76 0.960 . S
C71 H77 0.959 . S
H72 C68 0.960 . S
H73 C68 0.961 . S
H74 C68 0.960 . S
H75 C71 0.960 . S
H76 C71 0.960 . S
H77 C71 0.959 . S
C78 N79 1.317 . S
C78 N80 1.348 . S
C78 C81 1.485 . S
N79 C78 1.317 . S
N79 N83 1.370 . S
N80 C78 1.348 . S
N80 C82 1.346 . S
C81 C78 1.485 . S
C81 H85 0.960 . S
C81 H86 0.961 . S
C81 H87 0.960 . S
C82 N80 1.346 . S
C82 N83 1.307 . S
C82 C84 1.486 . S
N83 N79 1.370 . S
N83 C82 1.307 . S
C84 C82 1.486 . S
C84 H88 0.960 . S
C84 H89 0.960 . S
C84 H90 0.959 . S
H85 C81 0.960 . S
H86 C81 0.961 . S
H87 C81 0.960 . S
H88 C84 0.960 . S
H89 C84 0.960 . S
H90 C84 0.959 . S
C91 N92 1.317 . S
C91 N93 1.348 . S
C91 C94 1.485 . S
N92 C91 1.317 . S
N92 N96 1.370 . S
N93 C91 1.348 . S
N93 C95 1.346 . S
C94 C91 1.485 . S
C94 H98 0.960 . S
C94 H99 0.961 . S
C94 H100 0.960 . S
C95 N93 1.346 . S
C95 N96 1.307 . S
C95 C97 1.486 . S
N96 N92 1.370 . S
N96 C95 1.307 . S
C97 C95 1.486 . S
C97 H101 0.960 . S
C97 H102 0.960 . S
C97 H103 0.959 . S
H98 C94 0.960 . S
H99 C94 0.961 . S
H100 C94 0.960 . S
H101 C97 0.960 . S
H102 C97 0.960 . S
H103 C97 0.959 . S
C104 O106 1.247 . S
C104 O108 1.258 . S
C105 O112 1.247 . S
C105 O113 1.258 . S
O106 C104 1.247 . S
O106 Zn107 2.028 . S
Zn107 O106 2.028 . S
Zn107 O111 2.035 . S
Zn107 O113 2.035 . S
Zn107 O114 2.028 . S
O108 C104 1.258 . S
O108 Zn109 2.035 . S
Zn109 O108 2.035 . S
Zn109 O110 2.028 . S
Zn109 O112 2.028 . S
Zn109 O115 2.035 . S
O110 Zn109 2.028 . S
O110 C116 1.247 . S
O111 Zn107 2.035 . S
O111 C116 1.258 . S
O112 C105 1.247 . S
O112 Zn109 2.028 . S
O113 C105 1.258 . S
O113 Zn107 2.035 . S
O114 Zn107 2.028 . S
O114 C117 1.247 . S
O115 Zn109 2.035 . S
O115 C117 1.258 . S
C116 O110 1.247 . S
C116 O111 1.258 . S
C117 O114 1.247 . S
C117 O115 1.258 . S
C118 O120 1.247 . S
C118 O122 1.258 . S
C119 O126 1.247 . S
C119 O127 1.258 . S
O120 C118 1.247 . S
O120 Zn121 2.028 1_655 S
Zn121 O120 2.028 1_455 S
Zn121 O125 2.035 . S
Zn121 O127 2.035 . S
Zn121 O128 2.028 1_455 S
O122 C118 1.258 . S
O122 Zn123 2.063 . S
Zn123 O122 2.063 . S
Zn123 O124 2.002 1_655 S
Zn123 O126 2.001 1_655 S
Zn123 O129 2.062 . S
O124 Zn123 2.002 1_455 S
O124 C130 1.247 . S
O125 Zn121 2.035 . S
O125 C130 1.258 . S
O126 C119 1.247 . S
O126 Zn123 2.001 1_455 S
O127 C119 1.258 . S
O127 Zn121 2.035 . S
O128 Zn121 2.028 1_655 S
O128 C131 1.247 . S
O129 Zn123 2.062 . S
O129 C131 1.258 . S
C130 O124 1.247 . S
C130 O125 1.258 . S
C131 O128 1.247 . S
C131 O129 1.258 . S
C132 O134 1.247 . S
C132 O136 1.258 1_565 S
C133 O140 1.247 . S
C133 O141 1.258 . S
O134 C132 1.247 . S
O134 Zn135 2.028 1_565 S
Zn135 O134 2.028 1_545 S
Zn135 O139 2.035 . S
Zn135 O141 2.035 . S
Zn135 O142 2.028 . S
O136 C132 1.258 1_545 S
O136 Zn137 2.035 . S
Zn137 O136 2.035 . S
Zn137 O138 2.028 . S
Zn137 O140 2.028 . S
Zn137 O143 2.035 . S
O138 Zn137 2.028 . S
O138 C144 1.247 . S
O139 Zn135 2.035 . S
O139 C144 1.258 . S
O140 C133 1.247 . S
O140 Zn137 2.028 . S
O141 C133 1.258 . S
O141 Zn135 2.035 . S
O142 Zn135 2.028 . S
O142 C145 1.247 1_545 S
O143 Zn137 2.035 . S
O143 C145 1.258 1_545 S
C144 O138 1.247 . S
C144 O139 1.258 . S
C145 O142 1.247 1_565 S
C145 O143 1.258 1_565 S
C146 O148 1.247 . S
C146 O150 1.258 . S
C147 O154 1.247 . S
C147 O155 1.258 . S
O148 C146 1.247 . S
O148 Zn149 2.028 . S
Zn149 O148 2.028 . S
Zn149 O153 2.035 . S
Zn149 O155 2.035 . S
Zn149 O156 2.028 . S
O150 C146 1.258 . S
O150 Zn151 2.035 . S
Zn151 O150 2.035 . S
Zn151 O152 2.028 . S
Zn151 O154 2.028 . S
Zn151 O157 2.035 . S
O152 Zn151 2.028 . S
O152 C158 1.247 . S
O153 Zn149 2.035 . S
O153 C158 1.258 . S
O154 C147 1.247 . S
O154 Zn151 2.028 . S
O155 C147 1.258 . S
O155 Zn149 2.035 . S
O156 Zn149 2.028 . S
O156 C159 1.247 . S
O157 Zn151 2.035 . S
O157 C159 1.258 . S
C158 O152 1.247 . S
C158 O153 1.258 . S
C159 O156 1.247 . S
C159 O157 1.258 . S
C160 O162 1.247 1_565 S
C160 O164 1.258 1_565 S
C161 O168 1.247 . S
C161 O169 1.258 . S
O162 C160 1.247 1_545 S
O162 Zn163 2.028 . S
Zn163 O162 2.028 . S
Zn163 O167 2.035 . S
Zn163 O169 2.035 . S
Zn163 O170 2.028 . S
O164 C160 1.258 1_545 S
O164 Zn165 2.035 . S
Zn165 O164 2.035 . S
Zn165 O166 2.028 . S
Zn165 O168 2.028 . S
Zn165 O171 2.035 . S
O166 Zn165 2.028 . S
O166 C172 1.247 . S
O167 Zn163 2.035 . S
O167 C172 1.258 . S
O168 C161 1.247 . S
O168 Zn165 2.028 . S
O169 C161 1.258 . S
O169 Zn163 2.035 . S
O170 Zn163 2.028 . S
O170 C173 1.247 . S
O171 Zn165 2.035 . S
O171 C173 1.258 . S
C172 O166 1.247 . S
C172 O167 1.258 . S
C173 O170 1.247 . S
C173 O171 1.258 . S
C174 O176 1.247 . S
C174 O178 1.258 . S
C175 O182 1.247 . S
C175 O183 1.258 . S
O176 C174 1.247 . S
O176 Zn177 2.028 . S
Zn177 O176 2.028 . S
Zn177 O181 2.035 . S
Zn177 O183 2.035 1_554 S
Zn177 O184 2.028 1_554 S
O178 C174 1.258 . S
O178 Zn179 2.035 1_554 S
Zn179 O178 2.035 1_556 S
Zn179 O180 2.028 1_556 S
Zn179 O182 2.028 . S
Zn179 O185 2.035 . S
O180 Zn179 2.028 1_554 S
O180 C186 1.247 . S
O181 Zn177 2.035 . S
O181 C186 1.258 . S
O182 C175 1.247 . S
O182 Zn179 2.028 . S
O183 C175 1.258 . S
O183 Zn177 2.035 1_556 S
O184 Zn177 2.028 1_556 S
O184 C187 1.247 . S
O185 Zn179 2.035 . S
O185 C187 1.258 . S
C186 O180 1.247 . S
C186 O181 1.258 . S
C187 O184 1.247 . S
C187 O185 1.258 . S
H188 C196 0.929 . S
H189 C198 0.930 . S
H190 C200 0.930 . S
H191 C203 0.929 . S
H192 C206 0.930 . S
H193 C208 0.960 . S
H194 C208 0.960 . S
H195 C208 0.960 . S
C196 H188 0.929 . S
C196 C197 1.377 . S
C196 C198 1.384 . S
C197 C196 1.377 . S
C197 C203 1.390 . S
C198 H189 0.930 . S
C198 C196 1.384 . S
C198 C199 1.372 . S
C199 C198 1.372 . S
C199 C200 1.400 . S
C199 C204 1.490 . S
C200 H190 0.930 . S
C200 C199 1.400 . S
C200 C203 1.386 . S
H201 C217 0.930 . S
H202 C218 0.931 . S
C203 H191 0.929 . S
C203 C197 1.390 . S
C203 C200 1.386 . S
C204 C199 1.490 . S
C204 C206 1.395 . S
C204 C207 1.403 . S
H205 C211 0.930 . S
C206 H192 0.930 . S
C206 C204 1.395 . S
C206 C209 1.403 . S
C207 C204 1.403 . S
C207 C208 1.524 . S
C207 C211 1.400 . S
C208 H193 0.960 . S
C208 H194 0.960 . S
C208 H195 0.960 . S
C208 C207 1.524 . S
C209 C206 1.403 . S
C209 C210 1.392 . S
C209 C213 1.495 . S
C210 C209 1.392 . S
C210 C211 1.385 . S
C210 C212 1.478 . S
C211 H205 0.930 . S
C211 C207 1.400 . S
C211 C210 1.385 . S
C212 C210 1.478 . S
C212 C214 1.381 . S
C212 C218 1.383 . S
C213 C209 1.495 . S
C213 H219 0.959 . S
C213 H220 0.961 . S
C213 H221 0.960 . S
C214 C212 1.381 . S
C214 C215 1.394 . S
C214 H222 0.930 . S
C215 C214 1.394 . S
C215 C216 1.383 . S
C215 H223 0.929 . S
C216 C215 1.383 . S
C216 C217 1.377 . S
C217 H201 0.930 . S
C217 C216 1.377 . S
C217 C218 1.379 . S
C218 H202 0.931 . S
C218 C212 1.383 . S
C218 C217 1.379 . S
H219 C213 0.959 . S
H220 C213 0.961 . S
H221 C213 0.960 . S
H222 C214 0.930 . S
H223 C215 0.929 . S
H224 C232 0.929 . S
H225 C234 0.930 . S
H226 C236 0.930 . S
H227 C239 0.929 . S
H228 C242 0.930 . S
H229 C244 0.960 . S
H230 C244 0.960 . S
H231 C244 0.960 . S
C232 H224 0.929 . S
C232 C233 1.377 . S
C232 C234 1.384 . S
C233 C232 1.377 . S
C233 C239 1.390 . S
C234 H225 0.930 . S
C234 C232 1.384 . S
C234 C235 1.372 . S
C235 C234 1.372 . S
C235 C236 1.400 . S
C235 C240 1.490 . S
C236 H226 0.930 . S
C236 C235 1.400 . S
C236 C239 1.386 . S
H237 C253 0.930 . S
H238 C254 0.931 . S
C239 H227 0.929 . S
C239 C233 1.390 . S
C239 C236 1.386 . S
C240 C235 1.490 . S
C240 C242 1.395 . S
C240 C243 1.403 . S
H241 C247 0.930 . S
C242 H228 0.930 . S
C242 C240 1.395 . S
C242 C245 1.403 . S
C243 C240 1.403 . S
C243 C244 1.524 . S
C243 C247 1.400 . S
C244 H229 0.960 . S
C244 H230 0.960 . S
C244 H231 0.960 . S
C244 C243 1.524 . S
C245 C242 1.403 . S
C245 C246 1.392 . S
C245 C249 1.495 . S
C246 C245 1.392 . S
C246 C247 1.385 . S
C246 C248 1.478 . S
C247 H241 0.930 . S
C247 C243 1.400 . S
C247 C246 1.385 . S
C248 C246 1.478 . S
C248 C250 1.381 . S
C248 C254 1.383 . S
C249 C245 1.495 . S
C249 H255 0.959 . S
C249 H256 0.961 . S
C249 H257 0.960 . S
C250 C248 1.381 . S
C250 C251 1.394 . S
C250 H258 0.930 . S
C251 C250 1.394 . S
C251 C252 1.383 . S
C251 H259 0.929 . S
C252 C251 1.383 . S
C252 C253 1.377 . S
C253 H237 0.930 . S
C253 C252 1.377 . S
C253 C254 1.379 . S
C254 H238 0.931 . S
C254 C248 1.383 . S
C254 C253 1.379 . S
H255 C249 0.959 . S
H256 C249 0.961 . S
H257 C249 0.960 . S
H258 C250 0.930 . S
H259 C251 0.929 . S
H260 C268 0.929 . S
H261 C270 0.930 . S
H262 C272 0.930 . S
H263 C275 0.929 . S
H264 C278 0.930 . S
H265 C280 0.960 . S
H266 C280 0.960 . S
H267 C280 0.960 . S
C268 H260 0.929 . S
C268 C269 1.377 . S
C268 C270 1.384 . S
C269 C268 1.377 . S
C269 C275 1.390 . S
C270 H261 0.930 . S
C270 C268 1.384 . S
C270 C271 1.372 . S
C271 C270 1.372 . S
C271 C272 1.400 . S
C271 C276 1.490 . S
C272 H262 0.930 . S
C272 C271 1.400 . S
C272 C275 1.386 . S
H273 C289 0.930 . S
H274 C290 0.931 . S
C275 H263 0.929 . S
C275 C269 1.390 . S
C275 C272 1.386 . S
C276 C271 1.490 . S
C276 C278 1.395 . S
C276 C279 1.403 . S
H277 C283 0.930 . S
C278 H264 0.930 . S
C278 C276 1.395 . S
C278 C281 1.403 . S
C279 C276 1.403 . S
C279 C280 1.524 . S
C279 C283 1.400 . S
C280 H265 0.960 . S
C280 H266 0.960 . S
C280 H267 0.960 . S
C280 C279 1.524 . S
C281 C278 1.403 . S
C281 C282 1.392 . S
C281 C285 1.495 . S
C282 C281 1.392 . S
C282 C283 1.385 . S
C282 C284 1.478 . S
C283 H277 0.930 . S
C283 C279 1.400 . S
C283 C282 1.385 . S
C284 C282 1.478 . S
C284 C286 1.381 . S
C284 C290 1.383 . S
C285 C281 1.495 . S
C285 H291 0.959 . S
C285 H292 0.961 . S
C285 H293 0.960 . S
C286 C284 1.381 . S
C286 C287 1.394 . S
C286 H294 0.930 . S
C287 C286 1.394 . S
C287 C288 1.383 . S
C287 H295 0.929 . S
C288 C287 1.383 . S
C288 C289 1.377 . S
C289 H273 0.930 . S
C289 C288 1.377 . S
C289 C290 1.379 . S
C290 H274 0.931 . S
C290 C284 1.383 . S
C290 C289 1.379 . S
H291 C285 0.959 . S
H292 C285 0.961 . S
H293 C285 0.960 . S
H294 C286 0.930 . S
H295 C287 0.929 . S
H296 C304 0.929 . S
H297 C306 0.930 . S
H298 C308 0.930 . S
H299 C311 0.929 . S
H300 C314 0.930 . S
H301 C316 0.960 . S
H302 C316 0.960 . S
H303 C316 0.960 . S
C304 H296 0.929 . S
C304 C305 1.377 . S
C304 C306 1.384 . S
C305 C304 1.377 . S
C305 C311 1.390 . S
C306 H297 0.930 . S
C306 C304 1.384 . S
C306 C307 1.372 . S
C307 C306 1.372 . S
C307 C308 1.400 . S
C307 C312 1.490 . S
C308 H298 0.930 . S
C308 C307 1.400 . S
C308 C311 1.386 . S
H309 C325 0.930 . S
H310 C326 0.931 . S
C311 H299 0.929 . S
C311 C305 1.390 . S
C311 C308 1.386 . S
C312 C307 1.490 . S
C312 C314 1.395 . S
C312 C315 1.403 . S
H313 C319 0.930 . S
C314 H300 0.930 . S
C314 C312 1.395 . S
C314 C317 1.403 . S
C315 C312 1.403 . S
C315 C316 1.524 . S
C315 C319 1.400 . S
C316 H301 0.960 . S
C316 H302 0.960 . S
C316 H303 0.960 . S
C316 C315 1.524 . S
C317 C314 1.403 . S
C317 C318 1.392 . S
C317 C321 1.495 . S
C318 C317 1.392 . S
C318 C319 1.385 . S
C318 C320 1.478 . S
C319 H313 0.930 . S
C319 C315 1.400 . S
C319 C318 1.385 . S
C320 C318 1.478 . S
C320 C322 1.381 . S
C320 C326 1.383 . S
C321 C317 1.495 . S
C321 H327 0.959 . S
C321 H328 0.961 . S
C321 H329 0.960 . S
C322 C320 1.381 . S
C322 C323 1.394 . S
C322 H330 0.930 . S
C323 C322 1.394 . S
C323 C324 1.383 . S
C323 H331 0.929 . S
C324 C323 1.383 . S
C324 C325 1.377 . S
C325 H309 0.930 . S
C325 C324 1.377 . S
C325 C326 1.379 . S
C326 H310 0.931 . S
C326 C320 1.383 . S
C326 C325 1.379 . S
H327 C321 0.959 . S
H328 C321 0.961 . S
H329 C321 0.960 . S
H330 C322 0.930 . S
H331 C323 0.929 . S
H332 C340 0.929 . S
H333 C342 0.930 . S
H334 C344 0.930 . S
H335 C347 0.929 . S
H336 C350 0.930 . S
H337 C352 0.960 . S
H338 C352 0.960 . S
H339 C352 0.960 . S
C340 H332 0.929 . S
C340 C341 1.377 . S
C340 C342 1.384 . S
C341 C340 1.377 . S
C341 C347 1.390 . S
C342 H333 0.930 . S
C342 C340 1.384 . S
C342 C343 1.372 . S
C343 C342 1.372 . S
C343 C344 1.400 . S
C343 C348 1.490 . S
C344 H334 0.930 . S
C344 C343 1.400 . S
C344 C347 1.386 . S
H345 C361 0.930 . S
H346 C362 0.931 . S
C347 H335 0.929 . S
C347 C341 1.390 . S
C347 C344 1.386 . S
C348 C343 1.490 . S
C348 C350 1.395 . S
C348 C351 1.403 . S
H349 C355 0.930 . S
C350 H336 0.930 . S
C350 C348 1.395 . S
C350 C353 1.403 . S
C351 C348 1.403 . S
C351 C352 1.524 . S
C351 C355 1.400 . S
C352 H337 0.960 . S
C352 H338 0.960 . S
C352 H339 0.960 . S
C352 C351 1.524 . S
C353 C350 1.403 . S
C353 C354 1.392 . S
C353 C357 1.495 . S
C354 C353 1.392 . S
C354 C355 1.385 . S
C354 C356 1.478 . S
C355 H349 0.930 . S
C355 C351 1.400 . S
C355 C354 1.385 . S
C356 C354 1.478 . S
C356 C358 1.381 . S
C356 C362 1.383 . S
C357 C353 1.495 . S
C357 H363 0.959 . S
C357 H364 0.961 . S
C357 H365 0.960 . S
C358 C356 1.381 . S
C358 C359 1.394 . S
C358 H366 0.930 . S
C359 C358 1.394 . S
C359 C360 1.383 . S
C359 H367 0.929 . S
C360 C359 1.383 . S
C360 C361 1.377 . S
C361 H345 0.930 . S
C361 C360 1.377 . S
C361 C362 1.379 . S
C362 H346 0.931 . S
C362 C356 1.383 . S
C362 C361 1.379 . S
H363 C357 0.959 . S
H364 C357 0.961 . S
H365 C357 0.960 . S
H366 C358 0.930 . S
H367 C359 0.929 . S
H368 C376 0.929 . S
H369 C378 0.930 . S
H370 C380 0.930 . S
H371 C383 0.929 . S
H372 C386 0.930 . S
H373 C388 0.960 . S
H374 C388 0.960 . S
H375 C388 0.960 . S
C376 H368 0.929 . S
C376 C377 1.377 . S
C376 C378 1.384 . S
C377 C376 1.377 . S
C377 C383 1.390 . S
C378 H369 0.930 . S
C378 C376 1.384 . S
C378 C379 1.372 . S
C379 C378 1.372 . S
C379 C380 1.400 . S
C379 C384 1.490 . S
C380 H370 0.930 . S
C380 C379 1.400 . S
C380 C383 1.386 . S
H381 C397 0.930 . S
H382 C398 0.931 . S
C383 H371 0.929 . S
C383 C377 1.390 . S
C383 C380 1.386 . S
C384 C379 1.490 . S
C384 C386 1.395 . S
C384 C387 1.403 . S
H385 C391 0.930 . S
C386 H372 0.930 . S
C386 C384 1.395 . S
C386 C389 1.403 . S
C387 C384 1.403 . S
C387 C388 1.524 . S
C387 C391 1.400 . S
C388 H373 0.960 . S
C388 H374 0.960 . S
C388 H375 0.960 . S
C388 C387 1.524 . S
C389 C386 1.403 . S
C389 C390 1.392 . S
C389 C393 1.495 . S
C390 C389 1.392 . S
C390 C391 1.385 . S
C390 C392 1.478 . S
C391 H385 0.930 . S
C391 C387 1.400 . S
C391 C390 1.385 . S
C392 C390 1.478 . S
C392 C394 1.381 . S
C392 C398 1.383 . S
C393 C389 1.495 . S
C393 H399 0.959 . S
C393 H400 0.961 . S
C393 H401 0.960 . S
C394 C392 1.381 . S
C394 C395 1.394 1_556 S
C394 H402 0.930 . S
C395 C394 1.394 1_554 S
C395 C396 1.385 . S
C395 H403 0.929 . S
C396 C395 1.385 . S
C396 C397 1.373 1_554 S
C397 H381 0.930 . S
C397 C396 1.373 1_556 S
C397 C398 1.379 . S
C398 H382 0.931 . S
C398 C392 1.383 . S
C398 C397 1.379 . S
H399 C393 0.959 . S
H400 C393 0.961 . S
H401 C393 0.960 . S
H402 C394 0.930 . S
H403 C395 0.929 . S
H404 C412 0.929 . S
H405 C414 0.930 . S
H406 C416 0.930 . S
H407 C419 0.929 . S
H408 C422 0.930 . S
H409 C424 0.960 . S
H410 C424 0.960 . S
H411 C424 0.960 . S
C412 H404 0.929 . S
C412 C413 1.377 . S
C412 C414 1.384 . S
C413 C412 1.377 . S
C413 C419 1.390 . S
C414 H405 0.930 . S
C414 C412 1.384 . S
C414 C415 1.372 . S
C415 C414 1.372 . S
C415 C416 1.400 . S
C415 C420 1.490 . S
C416 H406 0.930 . S
C416 C415 1.400 . S
C416 C419 1.386 . S
H417 C433 0.930 . S
H418 C434 0.931 . S
C419 H407 0.929 . S
C419 C413 1.390 . S
C419 C416 1.386 . S
C420 C415 1.490 . S
C420 C422 1.395 . S
C420 C423 1.403 . S
H421 C427 0.930 . S
C422 H408 0.930 . S
C422 C420 1.395 . S
C422 C425 1.403 . S
C423 C420 1.403 . S
C423 C424 1.524 . S
C423 C427 1.400 . S
C424 H409 0.960 . S
C424 H410 0.960 . S
C424 H411 0.960 . S
C424 C423 1.524 . S
C425 C422 1.403 . S
C425 C426 1.392 . S
C425 C429 1.495 . S
C426 C425 1.392 . S
C426 C427 1.385 . S
C426 C428 1.478 . S
C427 H421 0.930 . S
C427 C423 1.400 . S
C427 C426 1.385 . S
C428 C426 1.478 . S
C428 C430 1.381 . S
C428 C434 1.383 . S
C429 C425 1.495 . S
C429 H435 0.959 . S
C429 H436 0.961 . S
C429 H437 0.960 . S
C430 C428 1.381 . S
C430 C431 1.394 . S
C430 H438 0.930 . S
C431 C430 1.394 . S
C431 C432 1.383 . S
C431 H439 0.929 . S
C432 C431 1.383 . S
C432 C433 1.377 . S
C433 H417 0.930 . S
C433 C432 1.377 . S
C433 C434 1.379 . S
C434 H418 0.931 . S
C434 C428 1.383 . S
C434 C433 1.379 . S
H435 C429 0.959 . S
H436 C429 0.961 . S
H437 C429 0.960 . S
H438 C430 0.930 . S
H439 C431 0.929 . S
H440 C448 0.929 . S
H441 C450 0.930 . S
H442 C452 0.930 . S
H443 C455 0.929 . S
H444 C458 0.930 . S
H445 C460 0.960 . S
H446 C460 0.960 . S
H447 C460 0.960 . S
C448 H440 0.929 . S
C448 C449 1.377 . S
C448 C450 1.384 . S
C449 C448 1.377 . S
C449 C455 1.390 . S
C450 H441 0.930 . S
C450 C448 1.384 . S
C450 C451 1.372 . S
C451 C450 1.372 . S
C451 C452 1.400 . S
C451 C456 1.490 . S
C452 H442 0.930 . S
C452 C451 1.400 . S
C452 C455 1.386 . S
H453 C469 0.930 . S
H454 C470 0.931 . S
C455 H443 0.929 . S
C455 C449 1.390 . S
C455 C452 1.386 . S
C456 C451 1.490 . S
C456 C458 1.395 . S
C456 C459 1.403 . S
H457 C463 0.930 . S
C458 H444 0.930 . S
C458 C456 1.395 . S
C458 C461 1.403 . S
C459 C456 1.403 . S
C459 C460 1.524 . S
C459 C463 1.400 . S
C460 H445 0.960 . S
C460 H446 0.960 . S
C460 H447 0.960 . S
C460 C459 1.524 . S
C461 C458 1.403 . S
C461 C462 1.392 . S
C461 C465 1.495 . S
C462 C461 1.392 . S
C462 C463 1.385 . S
C462 C464 1.478 . S
C463 H457 0.930 . S
C463 C459 1.400 . S
C463 C462 1.385 . S
C464 C462 1.478 . S
C464 C466 1.381 . S
C464 C470 1.383 . S
C465 C461 1.495 . S
C465 H471 0.959 . S
C465 H472 0.961 . S
C465 H473 0.960 . S
C466 C464 1.381 . S
C466 C467 1.394 . S
C466 H474 0.930 . S
C467 C466 1.394 . S
C467 C468 1.383 . S
C467 H475 0.929 . S
C468 C467 1.383 . S
C468 C469 1.377 . S
C469 H453 0.930 . S
C469 C468 1.377 . S
C469 C470 1.379 . S
C470 H454 0.931 . S
C470 C464 1.383 . S
C470 C469 1.379 . S
H471 C465 0.959 . S
H472 C465 0.961 . S
H473 C465 0.960 . S
H474 C466 0.930 . S
H475 C467 0.929 . S
H476 C484 0.929 . S
H477 C486 0.930 . S
H478 C488 0.930 . S
H479 C491 0.929 . S
H480 C494 0.930 . S
H481 C496 0.960 . S
H482 C496 0.960 . S
H483 C496 0.960 . S
C484 H476 0.929 . S
C484 C485 1.377 . S
C484 C486 1.384 . S
C485 C484 1.377 . S
C485 C491 1.390 . S
C486 H477 0.930 . S
C486 C484 1.384 . S
C486 C487 1.372 . S
C487 C486 1.372 . S
C487 C488 1.400 . S
C487 C492 1.490 . S
C488 H478 0.930 . S
C488 C487 1.400 . S
C488 C491 1.386 . S
H489 C505 0.930 . S
H490 C506 0.931 . S
C491 H479 0.929 . S
C491 C485 1.390 . S
C491 C488 1.386 . S
C492 C487 1.490 . S
C492 C494 1.395 . S
C492 C495 1.403 . S
H493 C499 0.930 . S
C494 H480 0.930 . S
C494 C492 1.395 . S
C494 C497 1.403 . S
C495 C492 1.403 . S
C495 C496 1.524 . S
C495 C499 1.400 . S
C496 H481 0.960 . S
C496 H482 0.960 . S
C496 H483 0.960 . S
C496 C495 1.524 . S
C497 C494 1.403 . S
C497 C498 1.392 . S
C497 C501 1.495 . S
C498 C497 1.392 . S
C498 C499 1.385 . S
C498 C500 1.478 . S
C499 H493 0.930 . S
C499 C495 1.400 . S
C499 C498 1.385 . S
C500 C498 1.478 . S
C500 C502 1.381 . S
C500 C506 1.383 . S
C501 C497 1.495 . S
C501 H507 0.959 . S
C501 H508 0.961 . S
C501 H509 0.960 . S
C502 C500 1.381 . S
C502 C503 1.394 . S
C502 H510 0.930 . S
C503 C502 1.394 . S
C503 C504 1.383 . S
C503 H511 0.929 . S
C504 C503 1.383 . S
C504 C505 1.377 . S
C505 H489 0.930 . S
C505 C504 1.377 . S
C505 C506 1.379 . S
C506 H490 0.931 . S
C506 C500 1.383 . S
C506 C505 1.379 . S
H507 C501 0.959 . S
H508 C501 0.961 . S
H509 C501 0.960 . S
H510 C502 0.930 . S
H511 C503 0.929 . S
H512 C520 0.929 . S
H513 C522 0.930 . S
H514 C524 0.930 . S
H515 C527 0.929 . S
H516 C530 0.930 . S
H517 C532 0.960 . S
H518 C532 0.960 . S
H519 C532 0.960 . S
C520 H512 0.929 . S
C520 C521 1.377 . S
C520 C522 1.384 . S
C521 C520 1.377 . S
C521 C527 1.390 . S
C522 H513 0.930 . S
C522 C520 1.384 . S
C522 C523 1.372 . S
C523 C522 1.372 . S
C523 C524 1.400 . S
C523 C528 1.490 . S
C524 H514 0.930 . S
C524 C523 1.400 . S
C524 C527 1.386 . S
H525 C541 0.930 . S
H526 C542 0.931 . S
C527 H515 0.929 . S
C527 C521 1.390 . S
C527 C524 1.386 . S
C528 C523 1.490 . S
C528 C530 1.395 . S
C528 C531 1.403 . S
H529 C535 0.930 . S
C530 H516 0.930 . S
C530 C528 1.395 . S
C530 C533 1.403 . S
C531 C528 1.403 . S
C531 C532 1.524 . S
C531 C535 1.400 . S
C532 H517 0.960 . S
C532 H518 0.960 . S
C532 H519 0.960 . S
C532 C531 1.524 . S
C533 C530 1.403 . S
C533 C534 1.392 . S
C533 C537 1.495 . S
C534 C533 1.392 . S
C534 C535 1.385 . S
C534 C536 1.478 . S
C535 H529 0.930 . S
C535 C531 1.400 . S
C535 C534 1.385 . S
C536 C534 1.478 . S
C536 C538 1.381 . S
C536 C542 1.383 . S
C537 C533 1.495 . S
C537 H543 0.959 . S
C537 H544 0.961 . S
C537 H545 0.960 . S
C538 C536 1.381 . S
C538 C539 1.394 . S
C538 H546 0.930 . S
C539 C538 1.394 . S
C539 C540 1.383 . S
C539 H547 0.929 . S
C540 C539 1.383 . S
C540 C541 1.377 . S
C541 H525 0.930 . S
C541 C540 1.377 . S
C541 C542 1.379 . S
C542 H526 0.931 . S
C542 C536 1.383 . S
C542 C541 1.379 . S
H543 C537 0.959 . S
H544 C537 0.961 . S
H545 C537 0.960 . S
H546 C538 0.930 . S
H547 C539 0.929 . S
H548 C556 0.929 . S
H549 C558 0.930 . S
H550 C560 0.930 . S
H551 C563 0.929 . S
H552 C566 0.930 . S
H553 C568 0.960 . S
H554 C568 0.960 . S
H555 C568 0.960 . S
C556 H548 0.929 . S
C556 C557 1.377 . S
C556 C558 1.384 . S
C557 C556 1.377 . S
C557 C563 1.390 . S
C558 H549 0.930 . S
C558 C556 1.384 . S
C558 C559 1.372 . S
C559 C558 1.372 . S
C559 C560 1.400 . S
C559 C564 1.490 . S
C560 H550 0.930 . S
C560 C559 1.400 . S
C560 C563 1.386 . S
H561 C577 0.930 . S
H562 C578 0.931 . S
C563 H551 0.929 . S
C563 C557 1.390 . S
C563 C560 1.386 . S
C564 C559 1.490 . S
C564 C566 1.395 . S
C564 C567 1.403 . S
H565 C571 0.930 . S
C566 H552 0.930 . S
C566 C564 1.395 . S
C566 C569 1.403 . S
C567 C564 1.403 . S
C567 C568 1.524 . S
C567 C571 1.400 . S
C568 H553 0.960 . S
C568 H554 0.960 . S
C568 H555 0.960 . S
C568 C567 1.524 . S
C569 C566 1.403 . S
C569 C570 1.392 . S
C569 C573 1.495 . S
C570 C569 1.392 . S
C570 C571 1.385 . S
C570 C572 1.478 . S
C571 H565 0.930 . S
C571 C567 1.400 . S
C571 C570 1.385 . S
C572 C570 1.478 . S
C572 C574 1.381 . S
C572 C578 1.383 . S
C573 C569 1.495 . S
C573 H579 0.959 . S
C573 H580 0.961 . S
C573 H581 0.960 . S
C574 C572 1.381 . S
C574 C575 1.394 . S
C574 H582 0.930 . S
C575 C574 1.394 . S
C575 C576 1.383 . S
C575 H583 0.929 . S
C576 C575 1.383 . S
C576 C577 1.377 . S
C577 H561 0.930 . S
C577 C576 1.377 . S
C577 C578 1.379 . S
C578 H562 0.931 . S
C578 C572 1.383 . S
C578 C577 1.379 . S
H579 C573 0.959 . S
H580 C573 0.961 . S
H581 C573 0.960 . S
H582 C574 0.930 . S
H583 C575 0.929 . S
H584 C592 0.929 . S
H585 C594 0.930 . S
H586 C596 0.930 . S
H587 C599 0.929 . S
H588 C602 0.930 . S
H589 C604 0.960 . S
H590 C604 0.960 . S
H591 C604 0.960 . S
C592 H584 0.929 . S
C592 C593 1.377 . S
C592 C594 1.384 . S
C593 C592 1.377 . S
C593 C599 1.390 . S
C594 H585 0.930 . S
C594 C592 1.384 . S
C594 C595 1.372 . S
C595 C594 1.372 . S
C595 C596 1.400 . S
C595 C600 1.490 . S
C596 H586 0.930 . S
C596 C595 1.400 . S
C596 C599 1.386 . S
H597 C613 0.930 . S
H598 C614 0.931 . S
C599 H587 0.929 . S
C599 C593 1.390 . S
C599 C596 1.386 . S
C600 C595 1.490 . S
C600 C602 1.395 . S
C600 C603 1.403 . S
H601 C607 0.930 . S
C602 H588 0.930 . S
C602 C600 1.395 . S
C602 C605 1.403 . S
C603 C600 1.403 . S
C603 C604 1.524 . S
C603 C607 1.400 . S
C604 H589 0.960 . S
C604 H590 0.960 . S
C604 H591 0.960 . S
C604 C603 1.524 . S
C605 C602 1.403 . S
C605 C606 1.392 . S
C605 C609 1.495 . S
C606 C605 1.392 . S
C606 C607 1.385 . S
C606 C608 1.478 . S
C607 H601 0.930 . S
C607 C603 1.400 . S
C607 C606 1.385 . S
C608 C606 1.478 . S
C608 C610 1.381 . S
C608 C614 1.383 . S
C609 C605 1.495 . S
C609 H615 0.959 . S
C609 H616 0.961 . S
C609 H617 0.960 . S
C610 C608 1.381 . S
C610 C611 1.394 . S
C610 H618 0.930 . S
C611 C610 1.394 . S
C611 C612 1.383 . S
C611 H619 0.929 . S
C612 C611 1.383 . S
C612 C613 1.377 . S
C613 H597 0.930 . S
C613 C612 1.377 . S
C613 C614 1.379 . S
C614 H598 0.931 . S
C614 C608 1.383 . S
C614 C613 1.379 . S
H615 C609 0.959 . S
H616 C609 0.961 . S
H617 C609 0.960 . S
H618 C610 0.930 . S
H619 C611 0.929 . S
H620 C628 0.929 . S
H621 C630 0.930 . S
H622 C632 0.930 . S
H623 C635 0.929 . S
H624 C638 0.930 . S
H625 C640 0.960 . S
H626 C640 0.960 . S
H627 C640 0.960 . S
C628 H620 0.929 . S
C628 C629 1.377 . S
C628 C630 1.384 . S
C629 C628 1.377 . S
C629 C635 1.390 . S
C630 H621 0.930 . S
C630 C628 1.384 . S
C630 C631 1.372 . S
C631 C630 1.372 . S
C631 C632 1.400 . S
C631 C636 1.490 . S
C632 H622 0.930 . S
C632 C631 1.400 . S
C632 C635 1.386 . S
H633 C649 0.930 . S
H634 C650 0.931 . S
C635 H623 0.929 . S
C635 C629 1.390 . S
C635 C632 1.386 . S
C636 C631 1.490 . S
C636 C638 1.395 . S
C636 C639 1.403 . S
H637 C643 0.930 . S
C638 H624 0.930 . S
C638 C636 1.395 . S
C638 C641 1.403 . S
C639 C636 1.403 . S
C639 C640 1.524 . S
C639 C643 1.400 . S
C640 H625 0.960 . S
C640 H626 0.960 . S
C640 H627 0.960 . S
C640 C639 1.524 . S
C641 C638 1.403 . S
C641 C642 1.392 . S
C641 C645 1.495 . S
C642 C641 1.392 . S
C642 C643 1.385 . S
C642 C644 1.478 . S
C643 H637 0.930 . S
C643 C639 1.400 . S
C643 C642 1.385 . S
C644 C642 1.478 . S
C644 C646 1.381 . S
C644 C650 1.383 . S
C645 C641 1.495 . S
C645 H651 0.959 . S
C645 H652 0.961 . S
C645 H653 0.960 . S
C646 C644 1.381 . S
C646 C647 1.394 . S
C646 H654 0.930 . S
C647 C646 1.394 . S
C647 C648 1.383 . S
C647 H655 0.929 . S
C648 C647 1.383 . S
C648 C649 1.377 . S
C649 H633 0.930 . S
C649 C648 1.377 . S
C649 C650 1.379 . S
C650 H634 0.931 . S
C650 C644 1.383 . S
C650 C649 1.379 . S
H651 C645 0.959 . S
H652 C645 0.961 . S
H653 C645 0.960 . S
H654 C646 0.930 . S
H655 C647 0.929 . S
H656 C664 0.929 . S
H657 C666 0.930 . S
H658 C668 0.930 . S
H659 C671 0.929 . S
H660 C674 0.930 . S
H661 C676 0.960 . S
H662 C676 0.960 . S
H663 C676 0.960 . S
C664 H656 0.929 . S
C664 C665 1.377 . S
C664 C666 1.384 . S
C665 C664 1.377 . S
C665 C671 1.390 . S
C666 H657 0.930 . S
C666 C664 1.384 . S
C666 C667 1.372 . S
C667 C666 1.372 . S
C667 C668 1.400 . S
C667 C672 1.490 . S
C668 H658 0.930 . S
C668 C667 1.400 . S
C668 C671 1.386 . S
H669 C685 0.930 . S
H670 C686 0.931 . S
C671 H659 0.929 . S
C671 C665 1.390 . S
C671 C668 1.386 . S
C672 C667 1.490 . S
C672 C674 1.395 . S
C672 C675 1.403 . S
H673 C679 0.930 . S
C674 H660 0.930 . S
C674 C672 1.395 . S
C674 C677 1.403 . S
C675 C672 1.403 . S
C675 C676 1.524 . S
C675 C679 1.400 . S
C676 H661 0.960 . S
C676 H662 0.960 . S
C676 H663 0.960 . S
C676 C675 1.524 . S
C677 C674 1.403 . S
C677 C678 1.392 . S
C677 C681 1.495 . S
C678 C677 1.392 . S
C678 C679 1.385 . S
C678 C680 1.478 . S
C679 H673 0.930 . S
C679 C675 1.400 . S
C679 C678 1.385 . S
C680 C678 1.478 . S
C680 C682 1.381 . S
C680 C686 1.383 . S
C681 C677 1.495 . S
C681 H687 0.959 . S
C681 H688 0.961 . S
C681 H689 0.960 . S
C682 C680 1.381 . S
C682 C683 1.394 . S
C682 H690 0.930 . S
C683 C682 1.394 . S
C683 C684 1.383 . S
C683 H691 0.929 . S
C684 C683 1.383 . S
C684 C685 1.377 . S
C685 H669 0.930 . S
C685 C684 1.377 . S
C685 C686 1.379 . S
C686 H670 0.931 . S
C686 C680 1.383 . S
C686 C685 1.379 . S
H687 C681 0.959 . S
H688 C681 0.961 . S
H689 C681 0.960 . S
H690 C682 0.930 . S
H691 C683 0.929 . S
H692 C700 0.929 . S
H693 C702 0.930 . S
H694 C704 0.930 . S
H695 C707 0.929 . S
H696 C710 0.930 . S
H697 C712 0.960 . S
H698 C712 0.960 . S
H699 C712 0.960 . S
C700 H692 0.929 . S
C700 C701 1.377 . S
C700 C702 1.384 . S
C701 C700 1.377 . S
C701 C707 1.390 . S
C702 H693 0.930 . S
C702 C700 1.384 . S
C702 C703 1.372 . S
C703 C702 1.372 . S
C703 C704 1.400 . S
C703 C708 1.490 . S
C704 H694 0.930 . S
C704 C703 1.400 . S
C704 C707 1.386 . S
H705 C721 0.930 . S
H706 C722 0.931 . S
C707 H695 0.929 . S
C707 C701 1.390 . S
C707 C704 1.386 . S
C708 C703 1.490 . S
C708 C710 1.395 . S
C708 C711 1.403 . S
H709 C715 0.930 . S
C710 H696 0.930 . S
C710 C708 1.395 . S
C710 C713 1.403 . S
C711 C708 1.403 . S
C711 C712 1.524 . S
C711 C715 1.400 . S
C712 H697 0.960 . S
C712 H698 0.960 . S
C712 H699 0.960 . S
C712 C711 1.524 . S
C713 C710 1.403 . S
C713 C714 1.392 . S
C713 C717 1.495 . S
C714 C713 1.392 . S
C714 C715 1.385 . S
C714 C716 1.478 . S
C715 H709 0.930 . S
C715 C711 1.400 . S
C715 C714 1.385 . S
C716 C714 1.478 . S
C716 C718 1.381 . S
C716 C722 1.383 . S
C717 C713 1.495 . S
C717 H723 0.959 . S
C717 H724 0.961 . S
C717 H725 0.960 . S
C718 C716 1.381 . S
C718 C719 1.394 . S
C718 H726 0.930 . S
C719 C718 1.394 . S
C719 C720 1.383 . S
C719 H727 0.929 . S
C720 C719 1.383 . S
C720 C721 1.377 . S
C721 H705 0.930 . S
C721 C720 1.377 . S
C721 C722 1.379 . S
C722 H706 0.931 . S
C722 C716 1.383 . S
C722 C721 1.379 . S
H723 C717 0.959 . S
H724 C717 0.961 . S
H725 C717 0.960 . S
H726 C718 0.930 . S
H727 C719 0.929 . S
H728 C736 0.929 . S
H729 C738 0.930 . S
H730 C740 0.930 . S
H731 C743 0.929 . S
H732 C746 0.930 . S
H733 C748 0.960 . S
H734 C748 0.960 . S
H735 C748 0.960 . S
C736 H728 0.929 . S
C736 C737 1.377 . S
C736 C738 1.384 . S
C737 C736 1.377 . S
C737 C743 1.390 . S
C738 H729 0.930 . S
C738 C736 1.384 . S
C738 C739 1.372 . S
C739 C738 1.372 . S
C739 C740 1.400 . S
C739 C744 1.490 . S
C740 H730 0.930 . S
C740 C739 1.400 . S
C740 C743 1.386 . S
H741 C757 0.930 . S
H742 C758 0.931 . S
C743 H731 0.929 . S
C743 C737 1.390 . S
C743 C740 1.386 . S
C744 C739 1.490 . S
C744 C746 1.395 . S
C744 C747 1.403 . S
H745 C751 0.930 . S
C746 H732 0.930 . S
C746 C744 1.395 . S
C746 C749 1.403 . S
C747 C744 1.403 . S
C747 C748 1.524 . S
C747 C751 1.400 . S
C748 H733 0.960 . S
C748 H734 0.960 . S
C748 H735 0.960 . S
C748 C747 1.524 . S
C749 C746 1.403 . S
C749 C750 1.392 . S
C749 C753 1.495 . S
C750 C749 1.392 . S
C750 C751 1.385 . S
C750 C752 1.478 . S
C751 H745 0.930 . S
C751 C747 1.400 . S
C751 C750 1.385 . S
C752 C750 1.478 . S
C752 C754 1.381 . S
C752 C758 1.383 . S
C753 C749 1.495 . S
C753 H759 0.959 . S
C753 H760 0.961 . S
C753 H761 0.960 . S
C754 C752 1.381 . S
C754 C755 1.394 . S
C754 H762 0.930 . S
C755 C754 1.394 . S
C755 C756 1.383 . S
C755 H763 0.929 . S
C756 C755 1.383 . S
C756 C757 1.377 . S
C757 H741 0.930 . S
C757 C756 1.377 . S
C757 C758 1.379 . S
C758 H742 0.931 . S
C758 C752 1.383 . S
C758 C757 1.379 . S
H759 C753 0.959 . S
H760 C753 0.961 . S
H761 C753 0.960 . S
H762 C754 0.930 . S
H763 C755 0.929 . S
H764 C772 0.929 . S
H765 C774 0.930 . S
H766 C776 0.930 . S
H767 C779 0.929 . S
H768 C782 0.930 . S
H769 C784 0.960 . S
H770 C784 0.960 . S
H771 C784 0.960 . S
C772 H764 0.929 . S
C772 C773 1.377 . S
C772 C774 1.384 . S
C773 C772 1.377 . S
C773 C779 1.390 . S
C774 H765 0.930 . S
C774 C772 1.384 . S
C774 C775 1.372 . S
C775 C774 1.372 . S
C775 C776 1.400 . S
C775 C780 1.490 . S
C776 H766 0.930 . S
C776 C775 1.400 . S
C776 C779 1.386 . S
H777 C793 0.930 . S
H778 C794 0.931 . S
C779 H767 0.929 . S
C779 C773 1.390 . S
C779 C776 1.386 . S
C780 C775 1.490 . S
C780 C782 1.395 . S
C780 C783 1.403 . S
H781 C787 0.930 . S
C782 H768 0.930 . S
C782 C780 1.395 . S
C782 C785 1.403 . S
C783 C780 1.403 . S
C783 C784 1.524 . S
C783 C787 1.400 . S
C784 H769 0.960 . S
C784 H770 0.960 . S
C784 H771 0.960 . S
C784 C783 1.524 . S
C785 C782 1.403 . S
C785 C786 1.392 . S
C785 C789 1.495 . S
C786 C785 1.392 . S
C786 C787 1.385 . S
C786 C788 1.478 . S
C787 H781 0.930 . S
C787 C783 1.400 . S
C787 C786 1.385 . S
C788 C786 1.478 . S
C788 C790 1.381 . S
C788 C794 1.383 . S
C789 C785 1.495 . S
C789 H795 0.959 . S
C789 H796 0.961 . S
C789 H797 0.960 . S
C790 C788 1.381 . S
C790 C791 1.394 . S
C790 H798 0.930 . S
C791 C790 1.394 . S
C791 C792 1.383 . S
C791 H799 0.929 . S
C792 C791 1.383 . S
C792 C793 1.377 . S
C793 H777 0.930 . S
C793 C792 1.377 . S
C793 C794 1.379 . S
C794 H778 0.931 . S
C794 C788 1.383 . S
C794 C793 1.379 . S
H795 C789 0.959 . S
H796 C789 0.961 . S
H797 C789 0.960 . S
H798 C790 0.930 . S
H799 C791 0.929 . S
H800 C808 0.929 . S
H801 C810 0.930 . S
H802 C812 0.930 . S
H803 C815 0.929 . S
H804 C818 0.930 . S
H805 C820 0.960 . S
H806 C820 0.960 . S
H807 C820 0.960 . S
C808 H800 0.929 . S
C808 C809 1.377 . S
C808 C810 1.384 . S
C809 C808 1.377 . S
C809 C815 1.390 . S
C810 H801 0.930 . S
C810 C808 1.384 . S
C810 C811 1.372 . S
C811 C810 1.372 . S
C811 C812 1.400 . S
C811 C816 1.490 . S
C812 H802 0.930 . S
C812 C811 1.400 . S
C812 C815 1.386 . S
H813 C829 0.930 . S
H814 C830 0.931 . S
C815 H803 0.929 . S
C815 C809 1.390 . S
C815 C812 1.386 . S
C816 C811 1.490 . S
C816 C818 1.395 . S
C816 C819 1.403 . S
H817 C823 0.930 . S
C818 H804 0.930 . S
C818 C816 1.395 . S
C818 C821 1.403 . S
C819 C816 1.403 . S
C819 C820 1.524 . S
C819 C823 1.400 . S
C820 H805 0.960 . S
C820 H806 0.960 . S
C820 H807 0.960 . S
C820 C819 1.524 . S
C821 C818 1.403 . S
C821 C822 1.392 . S
C821 C825 1.495 . S
C822 C821 1.392 . S
C822 C823 1.385 . S
C822 C824 1.478 . S
C823 H817 0.930 . S
C823 C819 1.400 . S
C823 C822 1.385 . S
C824 C822 1.478 . S
C824 C826 1.381 . S
C824 C830 1.383 . S
C825 C821 1.495 . S
C825 H831 0.959 . S
C825 H832 0.961 . S
C825 H833 0.960 . S
C826 C824 1.381 . S
C826 C827 1.394 . S
C826 H834 0.930 . S
C827 C826 1.394 . S
C827 C828 1.383 . S
C827 H835 0.929 . S
C828 C827 1.383 . S
C828 C829 1.377 . S
C829 H813 0.930 . S
C829 C828 1.377 . S
C829 C830 1.379 . S
C830 H814 0.931 . S
C830 C824 1.383 . S
C830 C829 1.379 . S
H831 C825 0.959 . S
H832 C825 0.961 . S
H833 C825 0.960 . S
H834 C826 0.930 . S
H835 C827 0.929 . S
H836 C844 0.929 . S
H837 C846 0.930 . S
H838 C848 0.930 . S
H839 C851 0.929 . S
H840 C854 0.930 . S
H841 C856 0.960 . S
H842 C856 0.960 . S
H843 C856 0.960 . S
C844 H836 0.929 . S
C844 C845 1.377 . S
C844 C846 1.384 . S
C845 C844 1.377 . S
C845 C851 1.390 . S
C846 H837 0.930 . S
C846 C844 1.384 . S
C846 C847 1.372 . S
C847 C846 1.372 . S
C847 C848 1.400 . S
C847 C852 1.490 . S
C848 H838 0.930 . S
C848 C847 1.400 . S
C848 C851 1.386 . S
H849 C865 0.930 . S
H850 C866 0.931 . S
C851 H839 0.929 . S
C851 C845 1.390 . S
C851 C848 1.386 . S
C852 C847 1.490 . S
C852 C854 1.395 . S
C852 C855 1.403 . S
H853 C859 0.930 . S
C854 H840 0.930 . S
C854 C852 1.395 . S
C854 C857 1.403 . S
C855 C852 1.403 . S
C855 C856 1.524 . S
C855 C859 1.400 . S
C856 H841 0.960 . S
C856 H842 0.960 . S
C856 H843 0.960 . S
C856 C855 1.524 . S
C857 C854 1.403 . S
C857 C858 1.392 . S
C857 C861 1.495 . S
C858 C857 1.392 . S
C858 C859 1.385 . S
C858 C860 1.478 . S
C859 H853 0.930 . S
C859 C855 1.400 . S
C859 C858 1.385 . S
C860 C858 1.478 . S
C860 C862 1.381 . S
C860 C866 1.383 . S
C861 C857 1.495 . S
C861 H867 0.959 . S
C861 H868 0.961 . S
C861 H869 0.960 . S
C862 C860 1.381 . S
C862 C863 1.394 . S
C862 H870 0.930 . S
C863 C862 1.394 . S
C863 C864 1.383 . S
C863 H871 0.929 . S
C864 C863 1.383 . S
C864 C865 1.377 . S
C865 H849 0.930 . S
C865 C864 1.377 . S
C865 C866 1.379 . S
C866 H850 0.931 . S
C866 C860 1.383 . S
C866 C865 1.379 . S
H867 C861 0.959 . S
H868 C861 0.961 . S
H869 C861 0.960 . S
H870 C862 0.930 . S
H871 C863 0.929 . S
H872 C880 0.929 . S
H873 C882 0.930 . S
H874 C884 0.930 . S
H875 C887 0.929 . S
H876 C890 0.930 . S
H877 C892 0.960 . S
H878 C892 0.960 . S
H879 C892 0.960 . S
C880 H872 0.929 . S
C880 C881 1.377 . S
C880 C882 1.384 . S
C881 C880 1.377 . S
C881 C887 1.390 . S
C882 H873 0.930 . S
C882 C880 1.384 . S
C882 C883 1.372 . S
C883 C882 1.372 . S
C883 C884 1.400 . S
C883 C888 1.490 . S
C884 H874 0.930 . S
C884 C883 1.400 . S
C884 C887 1.386 . S
H885 C901 0.930 . S
H886 C902 0.931 . S
C887 H875 0.929 . S
C887 C881 1.390 . S
C887 C884 1.386 . S
C888 C883 1.490 . S
C888 C890 1.395 . S
C888 C891 1.403 . S
H889 C895 0.930 . S
C890 H876 0.930 . S
C890 C888 1.395 . S
C890 C893 1.403 . S
C891 C888 1.403 . S
C891 C892 1.524 . S
C891 C895 1.400 . S
C892 H877 0.960 . S
C892 H878 0.960 . S
C892 H879 0.960 . S
C892 C891 1.524 . S
C893 C890 1.403 . S
C893 C894 1.392 . S
C893 C897 1.495 . S
C894 C893 1.392 . S
C894 C895 1.385 . S
C894 C896 1.478 . S
C895 H889 0.930 . S
C895 C891 1.400 . S
C895 C894 1.385 . S
C896 C894 1.478 . S
C896 C898 1.381 . S
C896 C902 1.383 . S
C897 C893 1.495 . S
C897 H903 0.959 . S
C897 H904 0.961 . S
C897 H905 0.960 . S
C898 C896 1.381 . S
C898 C899 1.394 . S
C898 H906 0.930 . S
C899 C898 1.394 . S
C899 C900 1.383 . S
C899 H907 0.929 . S
C900 C899 1.383 . S
C900 C901 1.377 . S
C901 H885 0.930 . S
C901 C900 1.377 . S
C901 C902 1.379 . S
C902 H886 0.931 . S
C902 C896 1.383 . S
C902 C901 1.379 . S
H903 C897 0.959 . S
H904 C897 0.961 . S
H905 C897 0.960 . S
H906 C898 0.930 . S
H907 C899 0.929 . S
H908 C916 0.929 . S
H909 C918 0.930 . S
H910 C920 0.930 . S
H911 C923 0.929 . S
H912 C926 0.930 . S
H913 C928 0.960 . S
H914 C928 0.960 . S
H915 C928 0.960 . S
C916 H908 0.929 . S
C916 C917 1.377 . S
C916 C918 1.384 . S
C917 C916 1.377 . S
C917 C923 1.390 . S
C918 H909 0.930 . S
C918 C916 1.384 . S
C918 C919 1.372 . S
C919 C918 1.372 . S
C919 C920 1.400 . S
C919 C924 1.490 . S
C920 H910 0.930 . S
C920 C919 1.400 . S
C920 C923 1.386 . S
H921 C937 0.930 . S
H922 C938 0.931 . S
C923 H911 0.929 . S
C923 C917 1.390 . S
C923 C920 1.386 . S
C924 C919 1.490 . S
C924 C926 1.395 . S
C924 C927 1.403 . S
H925 C931 0.930 . S
C926 H912 0.930 . S
C926 C924 1.395 . S
C926 C929 1.403 . S
C927 C924 1.403 . S
C927 C928 1.524 . S
C927 C931 1.400 . S
C928 H913 0.960 . S
C928 H914 0.960 . S
C928 H915 0.960 . S
C928 C927 1.524 . S
C929 C926 1.403 . S
C929 C930 1.392 . S
C929 C933 1.495 . S
C930 C929 1.392 . S
C930 C931 1.385 . S
C930 C932 1.478 . S
C931 H925 0.930 . S
C931 C927 1.400 . S
C931 C930 1.385 . S
C932 C930 1.478 . S
C932 C934 1.381 . S
C932 C938 1.383 . S
C933 C929 1.495 . S
C933 H939 0.959 . S
C933 H940 0.961 . S
C933 H941 0.960 . S
C934 C932 1.381 . S
C934 C935 1.394 . S
C934 H942 0.930 . S
C935 C934 1.394 . S
C935 C936 1.383 . S
C935 H943 0.929 . S
C936 C935 1.383 . S
C936 C937 1.377 . S
C937 H921 0.930 . S
C937 C936 1.377 . S
C937 C938 1.379 . S
C938 H922 0.931 . S
C938 C932 1.383 . S
C938 C937 1.379 . S
H939 C933 0.959 . S
H940 C933 0.961 . S
H941 C933 0.960 . S
H942 C934 0.930 . S
H943 C935 0.929 . S
H944 C952 0.929 . S
H945 C954 0.930 . S
H946 C956 0.930 . S
H947 C959 0.929 . S
H948 C962 0.930 . S
H949 C964 0.960 . S
H950 C964 0.960 . S
H951 C964 0.960 . S
C952 H944 0.929 . S
C952 C953 1.377 . S
C952 C954 1.384 . S
C953 C952 1.377 . S
C953 C959 1.390 . S
C954 H945 0.930 . S
C954 C952 1.384 . S
C954 C955 1.372 . S
C955 C954 1.372 . S
C955 C956 1.400 . S
C955 C960 1.490 . S
C956 H946 0.930 . S
C956 C955 1.400 . S
C956 C959 1.386 . S
H957 C973 0.930 . S
H958 C974 0.931 . S
C959 H947 0.929 . S
C959 C953 1.390 . S
C959 C956 1.386 . S
C960 C955 1.490 . S
C960 C962 1.395 . S
C960 C963 1.403 . S
H961 C967 0.930 . S
C962 H948 0.930 . S
C962 C960 1.395 . S
C962 C965 1.403 . S
C963 C960 1.403 . S
C963 C964 1.524 . S
C963 C967 1.400 . S
C964 H949 0.960 . S
C964 H950 0.960 . S
C964 H951 0.960 . S
C964 C963 1.524 . S
C965 C962 1.403 . S
C965 C966 1.392 . S
C965 C969 1.495 . S
C966 C965 1.392 . S
C966 C967 1.385 . S
C966 C968 1.478 . S
C967 H961 0.930 . S
C967 C963 1.400 . S
C967 C966 1.385 . S
C968 C966 1.478 . S
C968 C970 1.381 . S
C968 C974 1.383 . S
C969 C965 1.495 . S
C969 H975 0.959 . S
C969 H976 0.961 . S
C969 H977 0.960 . S
C970 C968 1.381 . S
C970 C971 1.394 . S
C970 H978 0.930 . S
C971 C970 1.394 . S
C971 C972 1.383 . S
C971 H979 0.929 . S
C972 C971 1.383 . S
C972 C973 1.377 . S
C973 H957 0.930 . S
C973 C972 1.377 . S
C973 C974 1.379 . S
C974 H958 0.931 . S
C974 C968 1.383 . S
C974 C973 1.379 . S
H975 C969 0.959 . S
H976 C969 0.961 . S
H977 C969 0.960 . S
H978 C970 0.930 . S
H979 C971 0.929 . S
H980 C988 0.929 . S
H981 C990 0.930 . S
H982 C992 0.930 . S
H983 C995 0.929 . S
H984 C998 0.930 . S
H985 C1000 0.960 . S
H986 C1000 0.960 . S
H987 C1000 0.960 . S
C988 H980 0.929 . S
C988 C989 1.377 . S
C988 C990 1.384 . S
C989 C988 1.377 . S
C989 C995 1.390 . S
C990 H981 0.930 . S
C990 C988 1.384 . S
C990 C991 1.372 . S
C991 C990 1.372 . S
C991 C992 1.400 . S
C991 C996 1.490 . S
C992 H982 0.930 . S
C992 C991 1.400 . S
C992 C995 1.386 . S
H993 C1009 0.930 . S
H994 C1010 0.931 . S
C995 H983 0.929 . S
C995 C989 1.390 . S
C995 C992 1.386 . S
C996 C991 1.490 . S
C996 C998 1.395 . S
C996 C999 1.403 . S
H997 C1003 0.930 . S
C998 H984 0.930 . S
C998 C996 1.395 . S
C998 C1001 1.403 . S
C999 C996 1.403 . S
C999 C1000 1.524 . S
C999 C1003 1.400 . S
C1000 H985 0.960 . S
C1000 H986 0.960 . S
C1000 H987 0.960 . S
C1000 C999 1.524 . S
C1001 C998 1.403 . S
C1001 C1002 1.392 . S
C1001 C1005 1.495 . S
C1002 C1001 1.392 . S
C1002 C1003 1.385 . S
C1002 C1004 1.478 . S
C1003 H997 0.930 . S
C1003 C999 1.400 . S
C1003 C1002 1.385 . S
C1004 C1002 1.478 . S
C1004 C1006 1.381 . S
C1004 C1010 1.383 . S
C1005 C1001 1.495 . S
C1005 H1011 0.959 . S
C1005 H1012 0.961 . S
C1005 H1013 0.960 . S
C1006 C1004 1.381 . S
C1006 C1007 1.394 . S
C1006 H1014 0.930 . S
C1007 C1006 1.394 . S
C1007 C1008 1.383 . S
C1007 H1015 0.934 . S
C1008 C1007 1.383 . S
C1008 C1009 1.377 . S
C1009 H993 0.930 . S
C1009 C1008 1.377 . S
C1009 C1010 1.379 . S
C1010 H994 0.931 . S
C1010 C1004 1.383 . S
C1010 C1009 1.379 . S
H1011 C1005 0.959 . S
H1012 C1005 0.961 . S
H1013 C1005 0.960 . S
H1014 C1006 0.930 . S
H1015 C1007 0.934 . S
H1016 C1024 0.929 . S
H1017 C1026 0.930 . S
H1018 C1028 0.930 . S
H1019 C1031 0.929 . S
H1020 C1034 0.930 . S
H1021 C1036 0.960 . S
H1022 C1036 0.960 . S
H1023 C1036 0.960 . S
C1024 H1016 0.929 . S
C1024 C1025 1.377 . S
C1024 C1026 1.384 . S
C1025 C1024 1.377 . S
C1025 C1031 1.390 . S
C1026 H1017 0.930 . S
C1026 C1024 1.384 . S
C1026 C1027 1.372 . S
C1027 C1026 1.372 . S
C1027 C1028 1.400 . S
C1027 C1032 1.490 . S
C1028 H1018 0.930 . S
C1028 C1027 1.400 . S
C1028 C1031 1.386 . S
H1029 C1045 0.930 . S
H1030 C1046 0.931 . S
C1031 H1019 0.929 . S
C1031 C1025 1.390 . S
C1031 C1028 1.386 . S
C1032 C1027 1.490 . S
C1032 C1034 1.395 . S
C1032 C1035 1.403 . S
H1033 C1039 0.930 . S
C1034 H1020 0.930 . S
C1034 C1032 1.395 . S
C1034 C1037 1.403 . S
C1035 C1032 1.403 . S
C1035 C1036 1.524 . S
C1035 C1039 1.400 . S
C1036 H1021 0.960 . S
C1036 H1022 0.960 . S
C1036 H1023 0.960 . S
C1036 C1035 1.524 . S
C1037 C1034 1.403 . S
C1037 C1038 1.392 . S
C1037 C1041 1.495 . S
C1038 C1037 1.392 . S
C1038 C1039 1.385 . S
C1038 C1040 1.478 . S
C1039 H1033 0.930 . S
C1039 C1035 1.400 . S
C1039 C1038 1.385 . S
C1040 C1038 1.478 . S
C1040 C1042 1.381 . S
C1040 C1046 1.383 . S
C1041 C1037 1.495 . S
C1041 H1047 0.959 . S
C1041 H1048 0.961 . S
C1041 H1049 0.974 . S
C1042 C1040 1.381 . S
C1042 C1043 1.394 1_556 S
C1042 H1050 0.930 . S
C1043 C1042 1.394 1_554 S
C1043 C1044 1.383 . S
C1043 H1051 0.929 . S
C1044 C1043 1.383 . S
C1044 C1045 1.377 1_554 S
C1045 H1029 0.930 . S
C1045 C1044 1.377 1_556 S
C1045 C1046 1.379 . S
C1046 H1030 0.931 . S
C1046 C1040 1.383 . S
C1046 C1045 1.379 . S
H1047 C1041 0.959 . S
H1048 C1041 0.961 . S
H1049 C1041 0.974 . S
H1050 C1042 0.930 . S
H1051 C1043 0.929 . S
C216 C116 1.402 . S
C197 N2 1.418 . S
C252 C119 1.422 . S
C233 N15 1.438 . S
C288 C117 1.715 1_655 S
C269 N27 1.719 . S
C324 C118 1.443 . S
C305 N44 1.458 . S
C360 C133 1.675 . S
C341 N1 1.702 . S
C396 C147 1.733 . S
C377 N18 1.724 . S
C413 N28 1.726 . S
C432 C173 1.687 1_565 S
C468 C187 1.513 . S
C449 N41 1.514 . S
C504 C132 1.622 . S
C485 N14 1.643 . S
C521 N31 1.858 . S
C540 C146 1.849 . S
C576 C172 1.782 . S
C557 N40 1.788 . S
C612 C186 1.607 . S
C593 N5 1.612 . S
C629 N53 1.694 . S
C648 C131 1.693 . S
C684 C104 1.669 1_655 S
C665 N70 1.676 . S
C701 N80 1.509 . S
C720 C130 1.509 . S
C737 N92 1.822 . S
C756 C105 1.818 . S
C792 C160 1.743 . S
C773 N57 1.775 . S
C828 C174 1.393 . S
C809 N67 1.400 . S
C864 C144 1.706 . S
C845 N83 1.721 . S
C881 N96 1.756 . S
C900 C158 1.760 . S
C936 C161 1.644 . S
C917 N66 1.678 . S
C972 C175 1.386 . S
C953 N79 1.394 . S
C1008 C145 1.660 . S
C989 N93 1.703 . S
C1025 N54 1.479 . S
C1044 C159 1.469 . S
