# Generated by pormake.
# Topology pyr, (3,6)-cn, num edge types: 1
# Building blocks:
#     Node 0, Type 0, BuildingBlock: ESEHIV_clean_linker_0, # of connection points: 3
#     Node 1, Type 0, BuildingBlock: ESEHIV_clean_linker_0, # of connection points: 3
#     Node 2, Type 0, BuildingBlock: ESEHIV_clean_linker_0, # of connection points: 3
#     Node 3, Type 0, BuildingBlock: ESEHIV_clean_linker_0, # of connection points: 3
#     Node 4, Type 0, BuildingBlock: ESEHIV_clean_linker_0, # of connection points: 3
#     Node 5, Type 0, BuildingBlock: ESEHIV_clean_linker_0, # of connection points: 3
#     Node 6, Type 0, BuildingBlock: ESEHIV_clean_linker_0, # of connection points: 3
#     Node 7, Type 0, BuildingBlock: ESEHIV_clean_linker_0, # of connection points: 3
#     Node 8, Type 1, BuildingBlock: BETDIP_clean_sbu_0, # of connection points: 6
#     Node 9, Type 1, BuildingBlock: BETDIP_clean_sbu_0, # of connection points: 6
#     Node 10, Type 1, BuildingBlock: BETDIP_clean_sbu_0, # of connection points: 6
#     Node 11, Type 1, BuildingBlock: BETDIP_clean_sbu_0, # of connection points: 6
#     Edge 12, Type (0, 1), BuildingBlock: XIVTED_clean_linker_0, # of connection points: 2
#     Edge 13, Type (0, 1), BuildingBlock: XIVTED_clean_linker_0, # of connection points: 2
#     Edge 14, Type (0, 1), BuildingBlock: XIVTED_clean_linker_0, # of connection points: 2
#     Edge 15, Type (0, 1), BuildingBlock: XIVTED_clean_linker_0, # of connection points: 2
#     Edge 16, Type (0, 1), BuildingBlock: XIVTED_clean_linker_0, # of connection points: 2
#     Edge 17, Type (0, 1), BuildingBlock: XIVTED_clean_linker_0, # of connection points: 2
#     Edge 18, Type (0, 1), BuildingBlock: XIVTED_clean_linker_0, # of connection points: 2
#     Edge 19, Type (0, 1), BuildingBlock: XIVTED_clean_linker_0, # of connection points: 2
#     Edge 20, Type (0, 1), BuildingBlock: XIVTED_clean_linker_0, # of connection points: 2
#     Edge 21, Type (0, 1), BuildingBlock: XIVTED_clean_linker_0, # of connection points: 2
#     Edge 22, Type (0, 1), BuildingBlock: XIVTED_clean_linker_0, # of connection points: 2
#     Edge 23, Type (0, 1), BuildingBlock: XIVTED_clean_linker_0, # of connection points: 2
#     Edge 24, Type (0, 1), BuildingBlock: XIVTED_clean_linker_0, # of connection points: 2
#     Edge 25, Type (0, 1), BuildingBlock: XIVTED_clean_linker_0, # of connection points: 2
#     Edge 26, Type (0, 1), BuildingBlock: XIVTED_clean_linker_0, # of connection points: 2
#     Edge 27, Type (0, 1), BuildingBlock: XIVTED_clean_linker_0, # of connection points: 2
#     Edge 28, Type (0, 1), BuildingBlock: XIVTED_clean_linker_0, # of connection points: 2
#     Edge 29, Type (0, 1), BuildingBlock: XIVTED_clean_linker_0, # of connection points: 2
#     Edge 30, Type (0, 1), BuildingBlock: XIVTED_clean_linker_0, # of connection points: 2
#     Edge 31, Type (0, 1), BuildingBlock: XIVTED_clean_linker_0, # of connection points: 2
#     Edge 32, Type (0, 1), BuildingBlock: XIVTED_clean_linker_0, # of connection points: 2
#     Edge 33, Type (0, 1), BuildingBlock: XIVTED_clean_linker_0, # of connection points: 2
#     Edge 34, Type (0, 1), BuildingBlock: XIVTED_clean_linker_0, # of connection points: 2
#     Edge 35, Type (0, 1), BuildingBlock: XIVTED_clean_linker_0, # of connection points: 2
# Relax obj value: 0.156
# Max RMSD: 0.205
# Mean RMSD: 0.092
data_MOF--net-pyr--node1-BETDIP_clean_sbu_0--node2-ESEHIV_clean_linker_0--edge1-XIVTED_clean_linker_0
_symmetry_space_group_name_H-M    P1
_symmetry_Int_Tables_number       1
_symmetry_cell_setting            triclinic
loop_
_symmetry_equiv_pos_as_xyz
'x, y, z'
_cell_length_a     34.169541
_cell_length_b     37.059628
_cell_length_c     35.494773
_cell_angle_alpha  89.088253
_cell_angle_beta   93.484541
_cell_angle_gamma 105.01848
loop_
_atom_site_label
_atom_site_type_symbol
_atom_site_fract_x
_atom_site_fract_y
_atom_site_fract_z
_atom_type_partial_charge
H0 H 0.35738 0.36591 0.29227 0.0
H1 H 0.41271 0.27432 0.3011 0.0
H2 H 0.42344 0.34202 0.2008 0.0
C3 C 0.37702 0.35046 0.28106 0.0
C4 C 0.39052 0.35841 0.24457 0.0
C5 C 0.38427 0.31989 0.30146 0.0
C6 C 0.40855 0.29904 0.28636 0.0
C7 C 0.42304 0.307 0.25011 0.0
C8 C 0.41402 0.33685 0.22944 0.0
H9 H 0.12965 0.81422 0.80879 0.0
H10 H 0.19379 0.73016 0.79454 0.0
H11 H 0.14182 0.77597 0.69771 0.0
C12 C 0.13918 0.79504 0.7909 0.0
C13 C 0.13137 0.7965 0.75171 0.0
C14 C 0.1618 0.77125 0.80672 0.0
C15 C 0.17539 0.74784 0.78272 0.0
C16 C 0.16899 0.74978 0.74335 0.0
C17 C 0.14608 0.77359 0.72808 0.0
H18 H 0.67131 0.34226 0.9417 0.0
H19 H 0.68353 0.43262 0.86314 0.0
H20 H 0.57995 0.33648 0.85142 0.0
C21 C 0.65924 0.35481 0.91738 0.0
C22 C 0.62284 0.33505 0.89848 0.0
C23 C 0.68084 0.39016 0.90534 0.0
C24 C 0.66631 0.4056 0.87268 0.0
C25 C 0.62973 0.38689 0.85268 0.0
C26 C 0.60838 0.35114 0.86574 0.0
H27 H 0.83741 0.73659 0.42463 0.0
H28 H 0.92244 0.74314 0.33896 0.0
H29 H 0.83111 0.64018 0.35631 0.0
C30 C 0.84879 0.72328 0.40229 0.0
C31 C 0.83039 0.68555 0.39354 0.0
C32 C 0.88208 0.7443 0.38329 0.0
C33 C 0.89667 0.72719 0.35366 0.0
C34 C 0.87816 0.68954 0.34311 0.0
C35 C 0.8452 0.66906 0.36363 0.0
H36 H 0.58894 0.81888 0.84549 0.0
H37 H 0.66767 0.74662 0.83602 0.0
H38 H 0.60556 0.74688 0.93776 0.0
C39 C 0.60116 0.79645 0.85679 0.0
C40 C 0.59354 0.78402 0.89382 0.0
C41 C 0.62799 0.7832 0.83574 0.0
C42 C 0.6451 0.7553 0.85124 0.0
C43 C 0.63718 0.74184 0.88802 0.0
C44 C 0.61091 0.75609 0.90895 0.0
H45 H 0.84566 0.36682 0.32217 0.0
H46 H 0.90642 0.27853 0.32584 0.0
H47 H 0.86896 0.31591 0.42784 0.0
C48 C 0.85836 0.34688 0.33795 0.0
C49 C 0.85359 0.34336 0.37698 0.0
C50 C 0.87488 0.32208 0.31853 0.0
C51 C 0.89413 0.29854 0.33984 0.0
C52 C 0.89367 0.29743 0.37941 0.0
C53 C 0.87245 0.31924 0.39775 0.0
H54 H 0.34769 0.73666 0.20023 0.0
H55 H 0.32911 0.64633 0.27965 0.0
H56 H 0.43238 0.74223 0.29562 0.0
C57 C 0.35712 0.72427 0.2259 0.0
C58 C 0.39284 0.74346 0.24614 0.0
C59 C 0.33336 0.68968 0.23799 0.0
C60 C 0.34678 0.67342 0.27082 0.0
C61 C 0.38262 0.69177 0.29223 0.0
C62 C 0.40517 0.72727 0.27966 0.0
H63 H 0.08349 0.32904 0.7855 0.0
H64 H 0.17312 0.33669 0.70366 0.0
H65 H 0.18055 0.42952 0.77678 0.0
C66 C 0.11073 0.34448 0.77256 0.0
C67 C 0.13098 0.38093 0.78602 0.0
C68 C 0.12467 0.32877 0.74139 0.0
C69 C 0.16035 0.3495 0.7254 0.0
C70 C 0.18023 0.38616 0.73684 0.0
C71 C 0.16535 0.40146 0.7674 0.0
Tb72 Tb 0.959 1.02257 0.56713 0.0
Tb73 Tb 0.05067 0.05241 0.55186 0.0
C74 C 0.88705 0.98329 0.5629 0.0
C75 C 0.85625 0.96417 0.58848 0.0
C76 C 0.82273 0.93651 0.57409 0.0
C77 C 0.79334 0.91737 0.59804 0.0
C78 C 0.79705 0.92575 0.63678 0.0
C79 C 0.83077 0.95365 0.65106 0.0
C80 C 0.86025 0.97265 0.62708 0.0
C81 C 0.99613 0.07903 0.61412 0.0
C82 C 0.02517 0.99192 0.61456 0.0
C83 C 0.12344 0.08551 0.54296 0.0
C84 C 0.15061 0.12025 0.53011 0.0
C85 C 0.13588 0.14982 0.51537 0.0
C86 C 0.1621 0.17993 0.49786 0.0
C87 C 0.20323 0.18061 0.49457 0.0
C88 C 0.21793 0.15161 0.5112 0.0
C89 C 0.19184 0.12182 0.52884 0.0
C90 C 0.01123 0.98821 0.51884 0.0
C91 C 0.9856 0.0896 0.51115 0.0
O92 O 0.91863 0.96953 0.56155 0.0
O93 O 0.89698 1.01993 0.56394 0.0
O94 O 0.00986 0.06371 0.58857 0.0
O95 O 0.95835 0.06044 0.61545 0.0
O96 O 0.98687 0.98554 0.60139 0.0
O97 O 0.05423 1.02047 0.60327 0.0
O98 O 0.10592 0.08625 0.57473 0.0
O99 O 0.0991 0.06549 0.51672 0.0
O100 O 0.99743 1.01631 0.52336 0.0
O101 O 0.04879 0.99656 0.53144 0.0
O102 O 0.02417 0.09387 0.52276 0.0
O103 O 0.95654 0.06012 0.52022 0.0
H104 H 0.81934 0.92964 0.5443 0.0
H105 H 0.76756 0.89625 0.58621 0.0
H106 H 0.83474 0.96033 0.68087 0.0
H107 H 0.88622 0.99375 0.63865 0.0
H108 H 0.10401 0.14893 0.51617 0.0
H109 H 0.14987 0.20207 0.48592 0.0
H110 H 0.24908 0.15068 0.50878 0.0
H111 H 0.20356 0.099 0.5399 0.0
Tb112 Tb 0.55162 0.05164 0.09106 0.0
Tb113 Tb 0.46605 1.03177 1.06442 0.0
C114 C 0.62793 0.07212 0.09315 0.0
C115 C 0.66109 0.10593 0.10066 0.0
C116 C 0.65984 0.14081 0.0853 0.0
C117 C 0.69142 0.17254 0.09405 0.0
C118 C 0.72461 0.16999 0.11854 0.0
C119 C 0.72608 0.13471 0.13291 0.0
C120 C 0.69472 0.10306 0.12394 0.0
C121 C 0.50535 0.99754 0.13117 0.0
C122 C 0.49818 0.09602 0.12661 0.0
C123 C 0.38991 1.00955 1.06107 0.0
C124 C 0.36032 0.97424 1.05082 0.0
C125 C 0.36992 0.93989 1.05656 0.0
C126 C 0.34306 0.90687 1.04311 0.0
C127 C 0.3064 0.90773 1.02324 0.0
C128 C 0.29629 0.94213 1.019 0.0
C129 C 0.32302 0.97506 1.03273 0.0
C130 C 0.51267 0.08543 1.02399 0.0
C131 C 0.51874 0.98691 1.02898 0.0
O132 O 0.60469 0.0719 1.06241 0.0
O133 O 0.60726 0.0577 0.12205 0.0
O134 O 0.50293 1.00215 0.09596 0.0
O135 O 0.5362 1.02298 0.14497 0.0
O136 O 0.53587 0.09736 0.11896 0.0
O137 O 0.46728 0.07034 0.11104 0.0
O138 O 0.41268 1.00922 0.09202 0.0
O139 O 0.41069 1.02692 1.03342 0.0
O140 O 0.51486 0.08122 1.05928 0.0
O141 O 0.48177 0.05995 1.01034 0.0
O142 O 0.48124 0.98621 1.03638 0.0
O143 O 0.54997 1.01206 1.04491 0.0
H144 H 0.63428 0.14368 0.06701 0.0
H145 H 0.68946 0.19915 0.08217 0.0
H146 H 0.75061 0.13165 0.15245 0.0
H147 H 0.69629 0.07636 0.13593 0.0
H148 H 0.39866 0.9387 0.07044 0.0
H149 H 0.35159 0.88085 1.04727 0.0
H150 H 0.26873 0.94405 1.00328 0.0
H151 H 0.31524 1.00138 1.02794 0.0
Tb152 Tb 0.51247 0.57374 0.58633 0.0
Tb153 Tb 0.50317 0.4997 0.5523 0.0
C154 C 0.49758 0.63432 0.60261 0.0
C155 C 0.46148 0.64449 0.61521 0.0
C156 C 0.44537 0.66987 0.59368 0.0
C157 C 0.40989 0.67845 0.60361 0.0
C158 C 0.38988 0.66208 0.63558 0.0
C159 C 0.40627 0.63676 0.65726 0.0
C160 C 0.4416 0.62793 0.6471 0.0
C161 C 0.54658 0.52929 0.62827 0.0
C162 C 0.43218 0.50714 0.59974 0.0
C163 C 0.5186 0.43964 0.53492 0.0
C164 C 0.55279 0.4311 0.51676 0.0
C165 C 0.57045 0.4037 0.53253 0.0
C166 C 0.60509 0.39737 0.51775 0.0
C167 C 0.62264 0.41831 0.48684 0.0
C168 C 0.60466 0.44557 0.47092 0.0
C169 C 0.57011 0.45196 0.48579 0.0
C170 C 0.46909 0.54468 0.511 0.0
C171 C 0.58356 0.56639 0.53854 0.0
O172 O 0.49385 0.62107 0.56827 0.0
O173 O 0.51594 0.61575 0.62631 0.0
O174 O 0.51315 0.5199 0.60898 0.0
O175 O 0.561 0.56528 0.62569 0.0
O176 O 0.4503 0.54346 0.60077 0.0
O177 O 0.44907 0.48317 0.58421 0.0
O178 O 0.52793 0.45522 0.56819 0.0
O179 O 0.4948 0.45542 0.51396 0.0
O180 O 0.5027 0.55339 0.52987 0.0
O181 O 0.45413 0.50875 0.51336 0.0
O182 O 0.56431 0.53041 0.53567 0.0
O183 O 0.56793 0.59008 0.55613 0.0
H184 H 0.45995 0.68268 0.56874 0.0
H185 H 0.39787 0.69753 0.58581 0.0
H186 H 0.39209 0.624 0.68236 0.0
H187 H 0.45315 0.60802 0.66411 0.0
H188 H 0.55774 0.38753 0.55664 0.0
H189 H 0.61793 0.37586 0.53031 0.0
H190 H 0.61772 0.46246 0.44737 0.0
H191 H 0.55737 0.47362 0.47343 0.0
Tb192 Tb 0.0076 0.57 1.04069 0.0
Tb193 Tb 0.01404 0.50649 0.09157 0.0
C194 C 0.98194 0.61573 0.99935 0.0
C195 C 0.9435 0.62618 0.993 0.0
C196 C 0.91395 0.61849 1.0199 0.0
C197 C 0.87611 0.6257 1.01168 0.0
C198 C 0.86718 0.64015 0.97626 0.0
C199 C 0.89709 0.64812 0.94965 0.0
C200 C 0.93492 0.64122 0.958 0.0
C201 C 0.08097 0.57732 0.07414 0.0
C202 C 0.97584 0.56667 0.12443 0.0
C203 C 0.04173 0.46143 0.1319 0.0
C204 C 0.08177 0.45347 0.13603 0.0
C205 C 0.10557 0.45456 0.10491 0.0
C206 C 0.14526 0.45091 0.11011 0.0
C207 C 0.16191 0.4465 0.14654 0.0
C208 C 0.13776 0.44498 0.17754 0.0
C209 C 0.09808 0.44842 0.17229 0.0
C210 C 0.94109 0.49936 1.05798 0.0
C211 C 0.04414 0.50911 1.00706 0.0
O212 O 0.98053 0.58171 0.98916 0.0
O213 O 1.00203 0.62471 1.0319 0.0
O214 O 0.04732 0.56331 0.0879 0.0
O215 O 0.07384 0.59171 1.04174 0.0
O216 O 0.97275 0.57843 0.08907 0.0
O217 O 0.99431 0.54008 0.13291 0.0
O218 O 0.04142 0.49475 0.14301 0.0
O219 O 0.02037 0.45196 0.10003 0.0
O220 O 0.97482 0.51303 1.04432 0.0
O221 O 0.94764 0.48539 0.09078 0.0
O222 O 0.0475 0.49722 1.04234 0.0
O223 O 0.02627 0.53617 0.99904 0.0
H224 H 0.9198 0.60633 1.0469 0.0
H225 H 0.85353 0.61913 1.03261 0.0
H226 H 0.89126 0.65978 0.92234 0.0
H227 H 0.95727 0.64702 0.93681 0.0
H228 H 0.09389 0.4589 0.07667 0.0
H229 H 0.1632 0.45236 0.08573 0.0
H230 H 0.1495 0.44096 0.20589 0.0
H231 H 0.08033 0.44786 0.19669 0.0
H232 H 0.40876 0.29278 0.3693 0.0
H233 H 0.18195 0.21132 0.4282 0.0
H234 H 0.3037 0.31306 0.30765 0.0
H235 H 0.28537 0.21366 0.50536 0.0
H236 H 0.22688 0.2505 0.38484 0.0
H237 H 0.36519 0.26432 0.42023 0.0
C238 C 0.37672 0.29164 0.36671 0.0
C239 C 0.35995 0.30564 0.33437 0.0
C240 C 0.23978 0.24283 0.41144 0.0
C241 C 0.31008 0.27303 0.39203 0.0
C242 C 0.21398 0.22065 0.4365 0.0
C243 C 0.22976 0.20885 0.47057 0.0
C244 C 0.28185 0.25302 0.42013 0.0
C245 C 0.27185 0.22138 0.47911 0.0
C246 C 0.35193 0.27557 0.39575 0.0
C247 C 0.31819 0.30338 0.33235 0.0
N248 N 0.29651 0.2424 0.45386 0.0
N249 N 0.29475 0.28718 0.36058 0.0
H250 H 0.12215 0.78407 0.86868 0.0
H251 H 0.33253 0.85474 0.9864 0.0
H252 H 0.23741 0.77038 0.83655 0.0
H253 H 0.22303 0.88428 1.01281 0.0
H254 H 0.29275 0.80788 0.94251 0.0
H255 H 0.15367 0.80573 0.93087 0.0
C256 C 0.15381 0.78493 0.87484 0.0
C257 C 0.17723 0.77598 0.84694 0.0
C258 C 0.27725 0.82417 0.95833 0.0
C259 C 0.21328 0.80037 0.91806 0.0
C260 C 0.29996 0.85081 0.98377 0.0
C261 C 0.28128 0.87416 1.00284 0.0
C262 C 0.23562 0.8211 0.95145 0.0
C263 C 0.23891 0.8677 0.99785 0.0
C264 C 0.17171 0.79715 0.91039 0.0
C265 C 0.21787 0.77676 0.85692 0.0
N266 N 0.21758 0.84225 0.97209 0.0
N267 N 0.23467 0.78929 0.89139 0.0
H268 H 0.58718 0.35545 0.78646 0.0
H269 H 0.60632 0.55268 0.68379 0.0
H270 H 0.63573 0.46201 0.8417 0.0
H271 H 0.51549 0.45438 0.64498 0.0
H272 H 0.62461 0.51713 0.73757 0.0
H273 H 0.56601 0.38833 0.7312 0.0
C274 C 0.59331 0.3856 0.78727 0.0
C275 C 0.61412 0.40573 0.81905 0.0
C276 C 0.60073 0.5032 0.71728 0.0
C277 C 0.59059 0.44364 0.75518 0.0
C278 C 0.59036 0.52349 0.68638 0.0
C279 C 0.55926 0.50661 0.65967 0.0
C280 C 0.58035 0.46533 0.72161 0.0
C281 C 0.53974 0.46856 0.66475 0.0
C282 C 0.58136 0.40436 0.75551 0.0
C283 C 0.62117 0.44495 0.8178 0.0
N284 N 0.55066 0.44918 0.695 0.0
N285 N 0.60987 0.4624 0.78654 0.0
H286 H 0.88929 0.61843 0.33936 0.0
H287 H 0.94874 0.63102 0.12248 0.0
H288 H 0.90113 0.71867 0.27294 0.0
H289 H 0.96582 0.54367 0.1984 0.0
H290 H 0.92555 0.6611 0.17497 0.0
H291 H 0.91163 0.58866 0.28644 0.0
C292 C 0.89641 0.63425 0.31364 0.0
C293 C 0.8931 0.67133 0.31096 0.0
C294 C 0.9343 0.63532 0.18014 0.0
C295 C 0.91889 0.63691 0.24949 0.0
C296 C 0.94741 0.61794 0.15003 0.0
C297 C 0.95942 0.58454 0.15568 0.0
C298 C 0.93257 0.61914 0.21638 0.0
C299 C 0.95705 0.5693 0.19238 0.0
C300 C 0.90941 0.61719 0.28336 0.0
C301 C 0.90344 0.69025 0.27672 0.0
N302 N 0.94388 0.58653 0.22103 0.0
N303 N 0.91553 0.67286 0.24746 0.0
H304 H 0.48509 0.2767 0.27636 0.0
H305 H 0.42577 0.11345 0.12736 0.0
H306 H 0.39904 0.27435 0.18173 0.0
H307 H 0.54994 0.14933 0.17255 0.0
H308 H 0.41145 0.16694 0.15691 0.0
H309 H 0.50678 0.22576 0.24691 0.0
C310 C 0.47122 0.2658 0.24923 0.0
C311 C 0.44044 0.27982 0.23128 0.0
C312 C 0.44183 0.16309 0.16044 0.0
C313 C 0.46415 0.22149 0.19832 0.0
C314 C 0.45002 0.13235 0.14386 0.0
C315 C 0.48919 0.12687 0.14746 0.0
C316 C 0.47274 0.18839 0.18142 0.0
C317 C 0.51935 0.1526 0.16904 0.0
C318 C 0.48359 0.23691 0.23252 0.0
C319 C 0.42323 0.26471 0.19628 0.0
N320 N 0.51045 0.1823 0.18548 0.0
N321 N 0.43494 0.23606 0.18121 0.0
H322 H 0.15214 0.87095 0.7678 0.0
H323 H 0.98272 0.91955 0.62579 0.0
H324 H 0.06853 0.78792 0.69795 0.0
H325 H 0.09419 1.00034 0.66076 0.0
H326 H 1.00588 0.87164 0.66227 0.0
H327 H 0.12324 0.9192 0.73845 0.0
C328 C 0.12732 0.86285 0.74658 0.0
C329 C 0.11254 0.82542 0.73529 0.0
C330 C 0.02506 0.89994 0.66214 0.0
C331 C 0.07951 0.88042 0.70164 0.0
C332 C 0.01179 0.92738 0.64159 0.0
C333 C 0.03668 0.964 0.6401 0.0
C334 C 0.06321 0.90929 0.68177 0.0
C335 C 0.07416 0.97242 0.66092 0.0
C336 C 0.11107 0.8904 0.72972 0.0
C337 C 0.08081 0.8165 0.70729 0.0
N338 N 0.08631 0.94525 0.6809 0.0
N339 N 0.06523 0.84383 0.69144 0.0
H340 H 0.69249 0.39622 0.98224 0.0
H341 H 0.92635 0.51112 0.98254 0.0
H342 H 0.75405 0.43173 0.88018 0.0
H343 H 0.86668 0.46312 0.08203 0.0
H344 H 0.86213 0.48852 0.94501 0.0
H345 H 0.75443 0.42632 1.01932 0.0
C346 C 0.71909 0.41029 0.96755 0.0
C347 C 0.71805 0.41089 0.92789 0.0
C348 C 0.86302 0.48311 0.97507 0.0
C349 C 0.78944 0.44606 0.97053 0.0
C350 C 0.89963 0.49614 0.99655 0.0
C351 C 0.90188 0.48879 1.03544 0.0
C352 C 0.82835 0.46266 0.99264 0.0
C353 C 0.86636 0.46921 1.0521 0.0
C354 C 0.75448 0.42768 0.98882 0.0
C355 C 0.75331 0.43053 0.91062 0.0
N356 N 0.83118 0.45672 1.03062 0.0
N357 N 0.78761 0.4471 0.93202 0.0
H358 H 0.82015 0.6914 0.46954 0.0
H359 H 0.61057 0.53508 0.47878 0.0
H360 H 0.76163 0.62993 0.37022 0.0
H361 H 0.64338 0.63129 0.55198 0.0
H362 H 0.67134 0.56139 0.4438 0.0
H363 H 0.76143 0.66157 0.50484 0.0
C364 C 0.79497 0.67183 0.45487 0.0
C365 C 0.79592 0.66411 0.41622 0.0
C366 C 0.66527 0.57662 0.46761 0.0
C367 C 0.72852 0.62853 0.45759 0.0
C368 C 0.63072 0.56151 0.48782 0.0
C369 C 0.62172 0.58092 0.51853 0.0
C370 C 0.69163 0.61111 0.47857 0.0
C371 C 0.64891 0.61533 0.52852 0.0
C372 C 0.76145 0.65459 0.47532 0.0
C373 C 0.76266 0.637 0.39978 0.0
N374 N 0.68263 0.62915 0.5088 0.0
N375 N 0.73039 0.62028 0.42049 0.0
H376 H 0.38211 0.42789 0.26145 0.0
H377 H 0.20012 0.40504 0.10559 0.0
H378 H 0.3554 0.34483 0.17327 0.0
H379 H 0.21971 0.47974 0.2009 0.0
H380 H 0.2667 0.39364 0.12063 0.0
H381 H 0.33388 0.45854 0.22972 0.0
C382 C 0.36691 0.41673 0.23485 0.0
C383 C 0.37223 0.38342 0.22033 0.0
C384 C 0.25668 0.41292 0.13796 0.0
C385 C 0.31652 0.41785 0.18424 0.0
C386 C 0.21872 0.41952 0.12931 0.0
C387 C 0.20404 0.4428 0.15248 0.0
C388 C 0.28009 0.42971 0.17 0.0
C389 C 0.22941 0.46081 0.18288 0.0
C390 C 0.33924 0.43409 0.21683 0.0
C391 C 0.35218 0.37039 0.18554 0.0
N392 N 0.26597 0.45355 0.19101 0.0
N393 N 0.32457 0.38719 0.16908 0.0
H394 H 0.58602 0.26817 0.86151 0.0
H395 H 0.55955 0.15084 1.05484 0.0
H396 H 0.6096 0.31737 0.9726 0.0
H397 H 0.50452 0.10235 0.94862 0.0
H398 H 0.58341 0.21104 1.0233 0.0
H399 H 0.55882 0.20664 0.89082 0.0
C400 C 0.58504 0.26621 0.89193 0.0
C401 C 0.60074 0.29812 0.91452 0.0
C402 C 0.56614 0.18729 1.00676 0.0
C403 C 0.57047 0.22767 0.94831 0.0
C404 C 0.55272 0.15278 1.02479 0.0
C405 C 0.5299 0.12144 1.00441 0.0
C406 C 0.55704 0.19073 0.96785 0.0
C407 C 0.52195 0.1258 0.96546 0.0
C408 C 0.56981 0.23102 0.90868 0.0
C409 C 0.59877 0.29361 0.95391 0.0
N410 N 0.53549 0.15972 0.94844 0.0
N411 N 0.58444 0.25927 0.96939 0.0
H412 H 0.84562 0.80033 0.39752 0.0
H413 H 0.04431 0.93119 0.50369 0.0
H414 H 0.96316 0.77746 0.40072 0.0
H415 H 0.93366 0.96564 0.48376 0.0
H416 H 0.01427 0.87453 0.46711 0.0
H417 H 0.87637 0.86047 0.42859 0.0
C418 C 0.87805 0.80814 0.40435 0.0
C419 C 0.90177 0.78355 0.39644 0.0
C420 C 0.99643 0.89439 0.47056 0.0
C421 C 0.93726 0.85263 0.43277 0.0
C422 C 0.01355 0.92684 0.49165 0.0
C423 C 0.99152 0.95338 0.497 0.0
C424 C 0.95657 0.88783 0.45466 0.0
C425 C 0.95176 0.94598 0.48057 0.0
C426 C 0.89557 0.84255 0.42219 0.0
C427 C 0.94366 0.79546 0.4059 0.0
N428 N 0.93553 0.91388 0.46032 0.0
N429 N 0.9599 0.82881 0.42385 0.0
H430 H 0.21323 0.78162 0.68437 0.0
H431 H 0.32218 0.61649 0.66616 0.0
H432 H 0.18011 0.67888 0.74762 0.0
H433 H 0.37204 0.73017 0.63006 0.0
H434 H 0.26267 0.6344 0.68647 0.0
H435 H 0.26258 0.75754 0.65268 0.0
C436 C 0.21555 0.75357 0.69089 0.0
C437 C 0.1926 0.73227 0.71883 0.0
C438 C 0.28658 0.65527 0.67384 0.0
C439 C 0.24987 0.70491 0.68327 0.0
C440 C 0.32074 0.64519 0.6625 0.0
C441 C 0.35251 0.67189 0.64654 0.0
C442 C 0.28394 0.69224 0.66895 0.0
C443 C 0.34829 0.70843 0.64173 0.0
C444 C 0.24414 0.74003 0.67312 0.0
C445 C 0.19751 0.69635 0.72654 0.0
N446 N 0.31478 0.7175 0.65297 0.0
N447 N 0.22589 0.6839 0.70911 0.0
H448 H 0.64514 0.7537 0.76985 0.0
H449 H 0.76289 0.95408 0.69328 0.0
H450 H 0.64905 0.85852 0.82333 0.0
H451 H 0.76105 0.85051 0.63843 0.0
H452 H 0.7152 0.91931 0.73761 0.0
H453 H 0.68126 0.7884 0.71752 0.0
C454 C 0.65308 0.78395 0.77034 0.0
C455 C 0.64403 0.80317 0.80106 0.0
C456 C 0.72498 0.90414 0.71575 0.0
C457 C 0.68545 0.84298 0.74154 0.0
C458 C 0.75241 0.92399 0.69059 0.0
C459 C 0.76625 0.90512 0.66239 0.0
C460 C 0.71145 0.86504 0.71292 0.0
C461 C 0.75103 0.86617 0.65969 0.0
C462 C 0.67364 0.80373 0.74049 0.0
C463 C 0.65477 0.8424 0.80009 0.0
N464 N 0.7247 0.84736 0.68487 0.0
N465 N 0.67518 0.86093 0.77105 0.0
H466 H 0.91617 0.29523 0.26446 0.0
H467 H 0.71211 0.23787 0.13549 0.0
H468 H 0.80705 0.33144 0.27759 0.0
H469 H 0.80682 0.18012 0.13455 0.0
H470 H 0.75819 0.28792 0.17179 0.0
H471 H 0.88697 0.268 0.20343 0.0
C472 C 0.88659 0.2982 0.25454 0.0
C473 C 0.86387 0.31495 0.27733 0.0
C474 C 0.76919 0.26461 0.16309 0.0
C475 C 0.83092 0.2847 0.20692 0.0
C476 C 0.74291 0.23604 0.142 0.0
C477 C 0.75514 0.20409 0.13276 0.0
C478 C 0.80781 0.26105 0.17561 0.0
C479 C 0.79558 0.20358 0.14224 0.0
C480 C 0.87011 0.28285 0.21948 0.0
C481 C 0.82632 0.31908 0.2618 0.0
N482 N 0.82022 0.23122 0.1639 0.0
N483 N 0.81096 0.30362 0.22802 0.0
H484 H 0.46103 0.69579 0.32161 0.0
H485 H 0.39501 0.53235 0.47251 0.0
H486 H 0.33574 0.64514 0.34367 0.0
H487 H 0.51252 0.61128 0.48145 0.0
H488 H 0.37407 0.57003 0.42146 0.0
H489 H 0.48189 0.66277 0.37647 0.0
C490 C 0.43776 0.67811 0.33793 0.0
C491 C 0.39632 0.67332 0.32715 0.0
C492 C 0.40439 0.57927 0.43468 0.0
C493 C 0.42045 0.63437 0.38999 0.0
C494 C 0.41637 0.55771 0.46382 0.0
C495 C 0.45556 0.56863 0.48138 0.0
C496 C 0.43199 0.61178 0.42227 0.0
C497 C 0.48196 0.60183 0.46885 0.0
C498 C 0.44984 0.65902 0.36926 0.0
C499 C 0.36801 0.64927 0.34967 0.0
N500 N 0.46988 0.62198 0.43988 0.0
N501 N 0.38055 0.6306 0.37953 0.0
H502 H 0.10518 0.34923 0.85458 0.0
H503 H 0.0557 0.53397 0.93411 0.0
H504 H 0.12344 0.45288 0.79301 0.0
H505 H 0.06557 0.44171 1.00632 0.0
H506 H 0.07582 0.50259 0.88127 0.0
H507 H 0.08526 0.37983 0.90874 0.0
C508 C 0.10474 0.37829 0.85223 0.0
C509 C 0.11632 0.39836 0.8189 0.0
C510 C 0.07377 0.48916 0.90865 0.0
C511 C 0.0934 0.43382 0.88125 0.0
C512 C 0.06224 0.50716 0.93904 0.0
C513 C 0.05896 0.49076 0.97515 0.0
C514 C 0.08172 0.45394 0.91377 0.0
C515 C 0.0679 0.45576 0.97928 0.0
C516 C 0.09363 0.39587 0.88336 0.0
C517 C 0.11536 0.43618 0.81802 0.0
N518 N 0.07854 0.43852 0.94907 0.0
N519 N 0.10408 0.45245 0.84841 0.0
H520 H 0.62195 0.81161 0.96354 0.0
H521 H 0.46518 0.93546 0.98328 0.0
H522 H 0.52422 0.80791 0.87953 0.0
H523 H 0.58956 0.96616 1.02845 0.0
H524 H 0.47827 0.88076 0.9532 0.0
H525 H 0.60024 0.85865 0.99807 0.0
C526 C 0.59519 0.81992 0.95289 0.0
C527 C 0.57489 0.80591 0.91856 0.0
C528 C 0.50256 0.89964 0.96967 0.0
C529 C 0.55055 0.86043 0.95751 0.0
C530 C 0.49522 0.93083 0.98669 0.0
C531 C 0.52643 0.95553 1.00815 0.0
C532 C 0.54105 0.89284 0.97493 0.0
C533 C 0.5647 0.94812 1.01188 0.0
C534 C 0.5832 0.84717 0.97234 0.0
C535 C 0.54083 0.81827 0.90578 0.0
N536 N 0.57083 0.91732 0.99565 0.0
N537 N 0.52983 0.8451 0.92516 0.0
H538 H 0.96842 0.2838 0.37537 0.0
H539 H 0.90872 0.09581 0.4943 0.0
H540 H 0.85595 0.24631 0.43056 0.0
H541 H 0.03416 0.15272 0.4792 0.0
H542 H 0.88816 0.14742 0.46332 0.0
H543 H 0.99269 0.23339 0.40686 0.0
C544 C 0.94904 0.26513 0.39435 0.0
C545 C 0.91025 0.26932 0.4006 0.0
C546 C 0.9202 0.14865 0.46671 0.0
C547 C 0.93738 0.21149 0.43596 0.0
C548 C 0.93206 0.119 0.48418 0.0
C549 C 0.97336 0.11981 0.48945 0.0
C550 C 0.94967 0.17941 0.4539 0.0
C551 C 1.00201 0.1509 0.4758 0.0
C552 C 0.96288 0.2365 0.41228 0.0
C553 C 0.88624 0.24441 0.42535 0.0
N554 N 0.98962 0.17949 0.45852 0.0
N555 N 0.90006 0.2164 0.44184 0.0
H556 H 0.27863 0.72303 0.20132 0.0
H557 H 0.11089 0.54192 0.13349 0.0
H558 H 0.29843 0.61406 0.22418 0.0
H559 H 0.13846 0.64328 0.06795 0.0
H560 H 0.17246 0.56724 0.17449 0.0
H561 H 0.2193 0.69405 0.16066 0.0
C562 C 0.27088 0.69302 0.1977 0.0
C563 C 0.29463 0.67124 0.21581 0.0
C564 C 0.16501 0.58376 0.15101 0.0
C565 C 0.22505 0.63763 0.16987 0.0
C566 C 0.12987 0.56942 0.12774 0.0
C567 C 0.11945 0.5906 0.09742 0.0
C568 C 0.18917 0.61994 0.14444 0.0
C569 C 0.14537 0.62596 0.09094 0.0
C570 C 0.23669 0.67649 0.17454 0.0
C571 C 0.28133 0.63218 0.21102 0.0
N572 N 0.17864 0.6397 0.11453 0.0
N573 N 0.24742 0.61661 0.18857 0.0
H574 H 0.19268 0.38364 0.661 0.0
H575 H 0.40287 0.539 0.65786 0.0
H576 H 0.24967 0.43944 0.76377 0.0
H577 H 0.3736 0.44182 0.58596 0.0
H578 H 0.34106 0.51219 0.69159 0.0
H579 H 0.25279 0.41413 0.62795 0.0
C580 C 0.21781 0.40204 0.67692 0.0
C581 C 0.21599 0.40791 0.71585 0.0
C582 C 0.34821 0.49688 0.66835 0.0
C583 C 0.28497 0.44446 0.67703 0.0
C584 C 0.3833 0.51224 0.64889 0.0
C585 C 0.39355 0.49263 0.61896 0.0
C586 C 0.32259 0.46208 0.65723 0.0
C587 C 0.3671 0.4579 0.60887 0.0
C588 C 0.25212 0.41971 0.65774 0.0
C589 C 0.24929 0.43376 0.73393 0.0
N590 N 0.33283 0.44393 0.62773 0.0
N591 N 0.28235 0.45102 0.71442 0.0
H592 H 0.67297 0.74734 0.95974 0.0
H593 H 0.81941 0.62181 0.9113 0.0
H594 H 0.65855 0.6825 0.85747 0.0
H595 H 0.82347 0.67426 1.0196 0.0
H596 H 0.75641 0.63889 0.89347 0.0
H597 H 0.7227 0.71529 0.98507 0.0
C598 C 0.67945 0.7257 0.94291 0.0
C599 C 0.66171 0.71786 0.9062 0.0
C600 C 0.77077 0.64635 0.9213 0.0
C601 C 0.71972 0.68178 0.93476 0.0
C602 C 0.80687 0.6368 0.93139 0.0
C603 C 0.82694 0.64712 0.96677 0.0
C604 C 0.7548 0.66675 0.94662 0.0
C605 C 0.80898 0.66583 0.99202 0.0
C606 C 0.70822 0.70762 0.95732 0.0
C607 C 0.672 0.68994 0.88561 0.0
N608 N 0.77418 0.67549 0.98127 0.0
N609 N 0.70071 0.67329 0.89995 0.0
H610 H 0.41271 0.76118 0.17345 0.0
H611 H 0.50931 0.98068 0.20686 0.0
H612 H 0.42536 0.81043 0.28422 0.0
H613 H 0.46493 0.93081 0.09849 0.0
H614 H 0.4855 0.91899 0.23664 0.0
H615 H 0.44019 0.82289 0.14672 0.0
C616 C 0.42153 0.785 0.19228 0.0
C617 C 0.41607 0.78045 0.2312 0.0
C618 C 0.48083 0.92163 0.20639 0.0
C619 C 0.448 0.85191 0.20044 0.0
C620 C 0.49434 0.95683 0.18937 0.0
C621 C 0.48889 0.96102 0.15011 0.0
C622 C 0.46224 0.89023 0.18392 0.0
C623 C 0.46946 0.92909 0.12884 0.0
C624 C 0.43717 0.82036 0.17691 0.0
C625 C 0.429 0.81248 0.25412 0.0
N626 N 0.45711 0.89519 0.14593 0.0
N627 N 0.4441 0.84686 0.2384 0.0
H628 H 0.11687 0.30896 0.66629 0.0
H629 H 0.97533 0.1026 0.68105 0.0
H630 H 0.08066 0.26291 0.77511 0.0
H631 H 0.06219 0.1355 0.5958 0.0
H632 H 1.00546 0.16232 0.71387 0.0
H633 H 0.08827 0.24787 0.63791 0.0
C634 C 0.10327 0.28604 0.68455 0.0
C635 C 0.1026 0.29149 0.72376 0.0
C636 C 0.01815 0.15632 0.6882 0.0
C637 C 0.06783 0.22062 0.69028 0.0
C638 C 1.00099 0.12225 0.66941 0.0
C639 C 0.01648 0.1138 0.63575 0.0
C640 C 0.05039 0.18277 0.6727 0.0
C641 C 0.04958 0.14049 0.62187 0.0
C642 C 0.08667 0.25099 0.66803 0.0
C643 C 0.08236 0.26046 0.74496 0.0
N644 N 0.06502 0.17381 0.64009 0.0
N645 N 0.06582 0.22647 0.72799 0.0
H646 H 0.85479 0.37179 0.44914 0.0
H647 H 0.63711 0.41377 0.41246 0.0
H648 H 0.78145 0.3505 0.34431 0.0
H649 H 0.6911 0.40676 0.52456 0.0
H650 H 0.69601 0.40021 0.3862 0.0
H651 H 0.80044 0.39317 0.47672 0.0
C652 C 0.82763 0.37188 0.43181 0.0
C653 C 0.8232 0.3597 0.39409 0.0
C654 C 0.6951 0.40171 0.41657 0.0
C655 C 0.76122 0.38433 0.42539 0.0
C656 C 0.66155 0.40969 0.43156 0.0
C657 C 0.65908 0.41125 0.47076 0.0
C658 C 0.72665 0.39532 0.44086 0.0
C659 C 0.69154 0.40529 0.49416 0.0
C660 C 0.79669 0.38413 0.44756 0.0
C661 C 0.78719 0.3606 0.37307 0.0
N662 N 0.72402 0.39754 0.47885 0.0
N663 N 0.75782 0.37265 0.38896 0.0
loop_
_geom_bond_atom_site_label_1
_geom_bond_atom_site_label_2
_geom_bond_distance
_geom_bond_site_symmetry_2
_ccdc_geom_bond_type
H0 C3 0.931 . S
H1 C6 0.928 . S
H2 C8 0.930 . S
C3 H0 0.931 . S
C3 C4 1.413 . S
C3 C5 1.360 . S
C4 C3 1.413 . S
C4 C8 1.429 . S
C5 C3 1.360 . S
C5 C6 1.372 . S
C6 H1 0.928 . S
C6 C5 1.372 . S
C6 C7 1.404 . S
C7 C6 1.404 . S
C7 C8 1.391 . S
C8 H2 0.930 . S
C8 C4 1.429 . S
C8 C7 1.391 . S
H9 C12 0.931 . S
H10 C15 0.928 . S
H11 C17 0.930 . S
C12 H9 0.931 . S
C12 C13 1.413 . S
C12 C14 1.360 . S
C13 C12 1.413 . S
C13 C17 1.429 . S
C14 C12 1.360 . S
C14 C15 1.372 . S
C15 H10 0.928 . S
C15 C14 1.372 . S
C15 C16 1.404 . S
C16 C15 1.404 . S
C16 C17 1.391 . S
C17 H11 0.930 . S
C17 C13 1.429 . S
C17 C16 1.391 . S
H18 C21 0.931 . S
H19 C24 0.928 . S
H20 C26 0.930 . S
C21 H18 0.931 . S
C21 C22 1.413 . S
C21 C23 1.360 . S
C22 C21 1.413 . S
C22 C26 1.429 . S
C23 C21 1.360 . S
C23 C24 1.372 . S
C24 H19 0.928 . S
C24 C23 1.372 . S
C24 C25 1.404 . S
C25 C24 1.404 . S
C25 C26 1.391 . S
C26 H20 0.930 . S
C26 C22 1.429 . S
C26 C25 1.391 . S
H27 C30 0.931 . S
H28 C33 0.928 . S
H29 C35 0.930 . S
C30 H27 0.931 . S
C30 C31 1.413 . S
C30 C32 1.360 . S
C31 C30 1.413 . S
C31 C35 1.429 . S
C32 C30 1.360 . S
C32 C33 1.372 . S
C33 H28 0.928 . S
C33 C32 1.372 . S
C33 C34 1.404 . S
C34 C33 1.404 . S
C34 C35 1.391 . S
C35 H29 0.930 . S
C35 C31 1.429 . S
C35 C34 1.391 . S
H36 C39 0.931 . S
H37 C42 0.928 . S
H38 C44 0.930 . S
C39 H36 0.931 . S
C39 C40 1.413 . S
C39 C41 1.360 . S
C40 C39 1.413 . S
C40 C44 1.429 . S
C41 C39 1.360 . S
C41 C42 1.372 . S
C42 H37 0.928 . S
C42 C41 1.372 . S
C42 C43 1.404 . S
C43 C42 1.404 . S
C43 C44 1.391 . S
C44 H38 0.930 . S
C44 C40 1.429 . S
C44 C43 1.391 . S
H45 C48 0.931 . S
H46 C51 0.928 . S
H47 C53 0.930 . S
C48 H45 0.931 . S
C48 C49 1.413 . S
C48 C50 1.360 . S
C49 C48 1.413 . S
C49 C53 1.429 . S
C50 C48 1.360 . S
C50 C51 1.372 . S
C51 H46 0.928 . S
C51 C50 1.372 . S
C51 C52 1.404 . S
C52 C51 1.404 . S
C52 C53 1.391 . S
C53 H47 0.930 . S
C53 C49 1.429 . S
C53 C52 1.391 . S
H54 C57 0.931 . S
H55 C60 0.928 . S
H56 C62 0.930 . S
C57 H54 0.931 . S
C57 C58 1.413 . S
C57 C59 1.360 . S
C58 C57 1.413 . S
C58 C62 1.429 . S
C59 C57 1.360 . S
C59 C60 1.372 . S
C60 H55 0.928 . S
C60 C59 1.372 . S
C60 C61 1.404 . S
C61 C60 1.404 . S
C61 C62 1.391 . S
C62 H56 0.930 . S
C62 C58 1.429 . S
C62 C61 1.391 . S
H63 C66 0.931 . S
H64 C69 0.928 . S
H65 C71 0.930 . S
C66 H63 0.931 . S
C66 C67 1.413 . S
C66 C68 1.360 . S
C67 C66 1.413 . S
C67 C71 1.429 . S
C68 C66 1.360 . S
C68 C69 1.372 . S
C69 H64 0.928 . S
C69 C68 1.372 . S
C69 C70 1.404 . S
C70 C69 1.404 . S
C70 C71 1.391 . S
C71 H65 0.930 . S
C71 C67 1.429 . S
C71 C70 1.391 . S
Tb72 C74 2.809 1_545 S
Tb72 O92 2.484 1_545 S
Tb72 O93 2.440 1_545 S
Tb72 O94 2.658 1_655 S
Tb72 O95 2.409 . S
Tb72 O96 2.378 1_645 S
Tb72 O100 2.325 1_545 S
Tb72 O103 2.341 . S
Tb73 C83 2.809 . S
Tb73 O94 2.325 . S
Tb73 O97 2.341 1_545 S
Tb73 O98 2.484 . S
Tb73 O99 2.440 . S
Tb73 O100 2.658 1_445 S
Tb73 O101 2.409 1_545 S
Tb73 O102 2.378 . S
C74 Tb72 2.809 1_565 S
C74 C75 1.514 . S
C74 O92 1.248 . S
C74 O93 1.266 . S
C75 C74 1.514 . S
C75 C76 1.359 . S
C75 C80 1.348 . S
C76 C75 1.359 . S
C76 C77 1.380 . S
C76 H104 0.929 . S
C77 C76 1.380 . S
C77 C78 1.347 . S
C77 H105 0.931 . S
C78 C77 1.347 . S
C78 C79 1.369 . S
C79 C78 1.369 . S
C79 C80 1.408 . S
C79 H106 0.930 . S
C80 C75 1.348 . S
C80 C79 1.408 . S
C80 H107 0.930 . S
C81 O94 1.281 . S
C81 O95 1.254 1_455 S
C82 O96 1.236 . S
C82 O97 1.266 . S
C83 Tb73 2.809 . S
C83 C84 1.514 . S
C83 O98 1.248 . S
C83 O99 1.266 . S
C84 C83 1.514 . S
C84 C85 1.359 . S
C84 C89 1.348 . S
C85 C84 1.359 . S
C85 C86 1.380 . S
C85 H108 0.929 . S
C86 C85 1.380 . S
C86 C87 1.347 . S
C86 H109 0.931 . S
C87 C86 1.347 . S
C87 C88 1.369 . S
C88 C87 1.369 . S
C88 C89 1.408 . S
C88 H110 0.930 . S
C89 C84 1.348 . S
C89 C88 1.408 . S
C89 H111 0.930 . S
C90 O100 1.281 . S
C90 O101 1.254 1_655 S
C91 O102 1.236 1_655 S
C91 O103 1.266 . S
O92 Tb72 2.484 1_565 S
O92 C74 1.248 . S
O93 Tb72 2.440 1_565 S
O93 C74 1.266 . S
O94 Tb72 2.658 1_455 S
O94 Tb73 2.325 . S
O94 C81 1.281 . S
O95 Tb72 2.409 . S
O95 C81 1.254 1_655 S
O96 Tb72 2.378 1_465 S
O96 C82 1.236 . S
O97 Tb73 2.341 1_565 S
O97 C82 1.266 . S
O98 Tb73 2.484 . S
O98 C83 1.248 . S
O99 Tb73 2.440 . S
O99 C83 1.266 . S
O100 Tb72 2.325 1_565 S
O100 Tb73 2.658 1_665 S
O100 C90 1.281 . S
O101 Tb73 2.409 1_565 S
O101 C90 1.254 1_455 S
O102 Tb73 2.378 . S
O102 C91 1.236 1_455 S
O103 Tb72 2.341 . S
O103 C91 1.266 . S
H104 C76 0.929 . S
H105 C77 0.931 . S
H106 C79 0.930 . S
H107 C80 0.930 . S
H108 C85 0.929 . S
H109 C86 0.931 . S
H110 C88 0.930 . S
H111 C89 0.930 . S
Tb112 C114 2.809 . S
Tb112 O132 2.484 . S
Tb112 O133 2.440 . S
Tb112 O134 2.658 1_545 S
Tb112 O135 2.409 1_545 S
Tb112 O136 2.378 . S
Tb112 O140 2.325 1_554 S
Tb112 O143 2.341 1_544 S
Tb113 C123 2.809 . S
Tb113 O134 2.325 1_556 S
Tb113 O137 2.341 1_566 S
Tb113 O138 2.484 . S
Tb113 O139 2.440 . S
Tb113 O140 2.658 1_565 S
Tb113 O141 2.409 1_565 S
Tb113 O142 2.378 . S
C114 Tb112 2.809 . S
C114 C115 1.514 . S
C114 O132 1.248 . S
C114 O133 1.266 . S
C115 C114 1.514 . S
C115 C116 1.359 . S
C115 C120 1.348 . S
C116 C115 1.359 . S
C116 C117 1.380 . S
C116 H144 0.929 . S
C117 C116 1.380 . S
C117 C118 1.347 . S
C117 H145 0.931 . S
C118 C117 1.347 . S
C118 C119 1.369 . S
C119 C118 1.369 . S
C119 C120 1.408 . S
C119 H146 0.930 . S
C120 C115 1.348 . S
C120 C119 1.408 . S
C120 H147 0.930 . S
C121 O134 1.281 . S
C121 O135 1.254 . S
C122 O136 1.236 . S
C122 O137 1.266 . S
C123 Tb113 2.809 . S
C123 C124 1.514 . S
C123 O138 1.248 . S
C123 O139 1.266 . S
C124 C123 1.514 . S
C124 C125 1.359 . S
C124 C129 1.348 . S
C125 C124 1.359 . S
C125 C126 1.380 . S
C125 H148 0.929 . S
C126 C125 1.380 . S
C126 C127 1.347 . S
C126 H149 0.931 . S
C127 C126 1.347 . S
C127 C128 1.369 . S
C128 C127 1.369 . S
C128 C129 1.408 . S
C128 H150 0.930 . S
C129 C124 1.348 . S
C129 C128 1.408 . S
C129 H151 0.930 . S
C130 O140 1.281 . S
C130 O141 1.254 . S
C131 O142 1.236 . S
C131 O143 1.266 . S
O132 Tb112 2.484 . S
O132 C114 1.248 . S
O133 Tb112 2.440 . S
O133 C114 1.266 . S
O134 Tb112 2.658 1_565 S
O134 Tb113 2.325 1_554 S
O134 C121 1.281 . S
O135 Tb112 2.409 1_565 S
O135 C121 1.254 . S
O136 Tb112 2.378 . S
O136 C122 1.236 . S
O137 Tb113 2.341 1_544 S
O137 C122 1.266 . S
O138 Tb113 2.484 . S
O138 C123 1.248 . S
O139 Tb113 2.440 . S
O139 C123 1.266 . S
O140 Tb112 2.325 1_556 S
O140 Tb113 2.658 1_545 S
O140 C130 1.281 . S
O141 Tb113 2.409 1_545 S
O141 C130 1.254 . S
O142 Tb113 2.378 . S
O142 C131 1.236 . S
O143 Tb112 2.341 1_566 S
O143 C131 1.266 . S
H144 C116 0.929 . S
H145 C117 0.931 . S
H146 C119 0.930 . S
H147 C120 0.930 . S
H148 C125 0.929 . S
H149 C126 0.931 . S
H150 C128 0.930 . S
H151 C129 0.930 . S
Tb152 C154 2.809 . S
Tb152 O172 2.484 . S
Tb152 O173 2.440 . S
Tb152 O174 2.658 . S
Tb152 O175 2.409 . S
Tb152 O176 2.378 . S
Tb152 O180 2.325 . S
Tb152 O183 2.341 . S
Tb153 C163 2.809 . S
Tb153 O174 2.325 . S
Tb153 O177 2.341 . S
Tb153 O178 2.484 . S
Tb153 O179 2.440 . S
Tb153 O180 2.658 . S
Tb153 O181 2.409 . S
Tb153 O182 2.378 . S
C154 Tb152 2.809 . S
C154 C155 1.514 . S
C154 O172 1.248 . S
C154 O173 1.266 . S
C155 C154 1.514 . S
C155 C156 1.359 . S
C155 C160 1.348 . S
C156 C155 1.359 . S
C156 C157 1.380 . S
C156 H184 0.929 . S
C157 C156 1.380 . S
C157 C158 1.347 . S
C157 H185 0.931 . S
C158 C157 1.347 . S
C158 C159 1.369 . S
C159 C158 1.369 . S
C159 C160 1.408 . S
C159 H186 0.930 . S
C160 C155 1.348 . S
C160 C159 1.408 . S
C160 H187 0.930 . S
C161 O174 1.281 . S
C161 O175 1.254 . S
C162 O176 1.236 . S
C162 O177 1.266 . S
C163 Tb153 2.809 . S
C163 C164 1.514 . S
C163 O178 1.248 . S
C163 O179 1.266 . S
C164 C163 1.514 . S
C164 C165 1.359 . S
C164 C169 1.348 . S
C165 C164 1.359 . S
C165 C166 1.380 . S
C165 H188 0.929 . S
C166 C165 1.380 . S
C166 C167 1.347 . S
C166 H189 0.931 . S
C167 C166 1.347 . S
C167 C168 1.369 . S
C168 C167 1.369 . S
C168 C169 1.408 . S
C168 H190 0.930 . S
C169 C164 1.348 . S
C169 C168 1.408 . S
C169 H191 0.930 . S
C170 O180 1.281 . S
C170 O181 1.254 . S
C171 O182 1.236 . S
C171 O183 1.266 . S
O172 Tb152 2.484 . S
O172 C154 1.248 . S
O173 Tb152 2.440 . S
O173 C154 1.266 . S
O174 Tb152 2.658 . S
O174 Tb153 2.325 . S
O174 C161 1.281 . S
O175 Tb152 2.409 . S
O175 C161 1.254 . S
O176 Tb152 2.378 . S
O176 C162 1.236 . S
O177 Tb153 2.341 . S
O177 C162 1.266 . S
O178 Tb153 2.484 . S
O178 C163 1.248 . S
O179 Tb153 2.440 . S
O179 C163 1.266 . S
O180 Tb152 2.325 . S
O180 Tb153 2.658 . S
O180 C170 1.281 . S
O181 Tb153 2.409 . S
O181 C170 1.254 . S
O182 Tb153 2.378 . S
O182 C171 1.236 . S
O183 Tb152 2.341 . S
O183 C171 1.266 . S
H184 C156 0.929 . S
H185 C157 0.931 . S
H186 C159 0.930 . S
H187 C160 0.930 . S
H188 C165 0.929 . S
H189 C166 0.931 . S
H190 C168 0.930 . S
H191 C169 0.930 . S
Tb192 C194 2.809 . S
Tb192 O212 2.484 . S
Tb192 O213 2.440 . S
Tb192 O214 2.658 1_656 S
Tb192 O215 2.409 1_656 S
Tb192 O216 2.378 1_556 S
Tb192 O220 2.325 . S
Tb192 O223 2.341 1_655 S
Tb193 C203 2.809 . S
Tb193 O214 2.325 . S
Tb193 O217 2.341 1_455 S
Tb193 O218 2.484 . S
Tb193 O219 2.440 . S
Tb193 O220 2.658 1_454 S
Tb193 O221 2.409 1_455 S
Tb193 O222 2.378 1_554 S
C194 Tb192 2.809 . S
C194 C195 1.514 . S
C194 O212 1.248 . S
C194 O213 1.266 . S
C195 C194 1.514 . S
C195 C196 1.359 . S
C195 C200 1.348 . S
C196 C195 1.359 . S
C196 C197 1.380 . S
C196 H224 0.929 . S
C197 C196 1.380 . S
C197 C198 1.347 . S
C197 H225 0.931 . S
C198 C197 1.347 . S
C198 C199 1.369 . S
C199 C198 1.369 . S
C199 C200 1.408 . S
C199 H226 0.930 . S
C200 C195 1.348 . S
C200 C199 1.408 . S
C200 H227 0.930 . S
C201 O214 1.281 . S
C201 O215 1.254 . S
C202 O216 1.236 . S
C202 O217 1.266 . S
C203 Tb193 2.809 . S
C203 C204 1.514 . S
C203 O218 1.248 . S
C203 O219 1.266 . S
C204 C203 1.514 . S
C204 C205 1.359 . S
C204 C209 1.348 . S
C205 C204 1.359 . S
C205 C206 1.380 . S
C205 H228 0.929 . S
C206 C205 1.380 . S
C206 C207 1.347 . S
C206 H229 0.931 . S
C207 C206 1.347 . S
C207 C208 1.369 . S
C208 C207 1.369 . S
C208 C209 1.408 . S
C208 H230 0.930 . S
C209 C204 1.348 . S
C209 C208 1.408 . S
C209 H231 0.930 . S
C210 O220 1.281 . S
C210 O221 1.254 1_556 S
C211 O222 1.236 . S
C211 O223 1.266 . S
O212 Tb192 2.484 . S
O212 C194 1.248 . S
O213 Tb192 2.440 . S
O213 C194 1.266 . S
O214 Tb192 2.658 1_454 S
O214 Tb193 2.325 . S
O214 C201 1.281 . S
O215 Tb192 2.409 1_454 S
O215 C201 1.254 . S
O216 Tb192 2.378 1_554 S
O216 C202 1.236 . S
O217 Tb193 2.341 1_655 S
O217 C202 1.266 . S
O218 Tb193 2.484 . S
O218 C203 1.248 . S
O219 Tb193 2.440 . S
O219 C203 1.266 . S
O220 Tb192 2.325 . S
O220 Tb193 2.658 1_656 S
O220 C210 1.281 . S
O221 Tb193 2.409 1_655 S
O221 C210 1.254 1_554 S
O222 Tb193 2.378 1_556 S
O222 C211 1.236 . S
O223 Tb192 2.341 1_455 S
O223 C211 1.266 . S
H224 C196 0.929 . S
H225 C197 0.931 . S
H226 C199 0.930 . S
H227 C200 0.930 . S
H228 C205 0.929 . S
H229 C206 0.931 . S
H230 C208 0.930 . S
H231 C209 0.930 . S
H232 C238 0.930 . S
H233 C242 0.930 . S
H234 C247 0.929 . S
H235 C245 0.929 . S
H236 C240 0.929 . S
H237 C246 0.929 . S
C238 H232 0.930 . S
C238 C239 1.367 . S
C238 C246 1.378 . S
C239 C238 1.367 . S
C239 C247 1.433 . S
C240 H236 0.929 . S
C240 C242 1.378 . S
C240 C244 1.350 . S
C241 C244 1.463 . S
C241 C246 1.350 . S
C241 N249 1.427 . S
C242 H233 0.930 . S
C242 C240 1.378 . S
C242 C243 1.367 . S
C243 C242 1.367 . S
C243 C245 1.433 . S
C244 C240 1.350 . S
C244 C241 1.463 . S
C244 N248 1.427 . S
C245 H235 0.929 . S
C245 C243 1.433 . S
C245 N248 1.384 . S
C246 H237 0.929 . S
C246 C238 1.378 . S
C246 C241 1.350 . S
C247 H234 0.929 . S
C247 C239 1.433 . S
C247 N249 1.384 . S
N248 C244 1.427 . S
N248 C245 1.384 . S
N249 C241 1.427 . S
N249 C247 1.384 . S
H250 C256 0.930 . S
H251 C260 0.930 . S
H252 C265 0.929 . S
H253 C263 0.929 . S
H254 C258 0.929 . S
H255 C264 0.929 . S
C256 H250 0.930 . S
C256 C257 1.367 . S
C256 C264 1.378 . S
C257 C256 1.367 . S
C257 C265 1.433 . S
C258 H254 0.929 . S
C258 C260 1.378 . S
C258 C262 1.350 . S
C259 C262 1.463 . S
C259 C264 1.350 . S
C259 N267 1.427 . S
C260 H251 0.930 . S
C260 C258 1.378 . S
C260 C261 1.367 . S
C261 C260 1.367 . S
C261 C263 1.433 . S
C262 C258 1.350 . S
C262 C259 1.463 . S
C262 N266 1.427 . S
C263 H253 0.929 . S
C263 C261 1.433 . S
C263 N266 1.384 . S
C264 H255 0.929 . S
C264 C256 1.378 . S
C264 C259 1.350 . S
C265 H252 0.929 . S
C265 C257 1.433 . S
C265 N267 1.384 . S
N266 C262 1.427 . S
N266 C263 1.384 . S
N267 C259 1.427 . S
N267 C265 1.384 . S
H268 C274 0.930 . S
H269 C278 0.930 . S
H270 C283 0.929 . S
H271 C281 0.929 . S
H272 C276 0.929 . S
H273 C282 0.929 . S
C274 H268 0.930 . S
C274 C275 1.367 . S
C274 C282 1.378 . S
C275 C274 1.367 . S
C275 C283 1.433 . S
C276 H272 0.929 . S
C276 C278 1.378 . S
C276 C280 1.350 . S
C277 C280 1.463 . S
C277 C282 1.350 . S
C277 N285 1.427 . S
C278 H269 0.930 . S
C278 C276 1.378 . S
C278 C279 1.367 . S
C279 C278 1.367 . S
C279 C281 1.433 . S
C280 C276 1.350 . S
C280 C277 1.463 . S
C280 N284 1.427 . S
C281 H271 0.929 . S
C281 C279 1.433 . S
C281 N284 1.384 . S
C282 H273 0.929 . S
C282 C274 1.378 . S
C282 C277 1.350 . S
C283 H270 0.929 . S
C283 C275 1.433 . S
C283 N285 1.384 . S
N284 C280 1.427 . S
N284 C281 1.384 . S
N285 C277 1.427 . S
N285 C283 1.384 . S
H286 C292 0.930 . S
H287 C296 0.930 . S
H288 C301 0.929 . S
H289 C299 0.929 . S
H290 C294 0.929 . S
H291 C300 0.929 . S
C292 H286 0.930 . S
C292 C293 1.367 . S
C292 C300 1.378 . S
C293 C292 1.367 . S
C293 C301 1.433 . S
C294 H290 0.929 . S
C294 C296 1.378 . S
C294 C298 1.350 . S
C295 C298 1.463 . S
C295 C300 1.350 . S
C295 N303 1.427 . S
C296 H287 0.930 . S
C296 C294 1.378 . S
C296 C297 1.367 . S
C297 C296 1.367 . S
C297 C299 1.433 . S
C298 C294 1.350 . S
C298 C295 1.463 . S
C298 N302 1.427 . S
C299 H289 0.929 . S
C299 C297 1.433 . S
C299 N302 1.384 . S
C300 H291 0.929 . S
C300 C292 1.378 . S
C300 C295 1.350 . S
C301 H288 0.929 . S
C301 C293 1.433 . S
C301 N303 1.384 . S
N302 C298 1.427 . S
N302 C299 1.384 . S
N303 C295 1.427 . S
N303 C301 1.384 . S
H304 C310 0.930 . S
H305 C314 0.930 . S
H306 C319 0.929 . S
H307 C317 0.929 . S
H308 C312 0.929 . S
H309 C318 0.929 . S
C310 H304 0.930 . S
C310 C311 1.367 . S
C310 C318 1.378 . S
C311 C310 1.367 . S
C311 C319 1.433 . S
C312 H308 0.929 . S
C312 C314 1.378 . S
C312 C316 1.350 . S
C313 C316 1.463 . S
C313 C318 1.350 . S
C313 N321 1.427 . S
C314 H305 0.930 . S
C314 C312 1.378 . S
C314 C315 1.367 . S
C315 C314 1.367 . S
C315 C317 1.433 . S
C316 C312 1.350 . S
C316 C313 1.463 . S
C316 N320 1.427 . S
C317 H307 0.929 . S
C317 C315 1.433 . S
C317 N320 1.384 . S
C318 H309 0.929 . S
C318 C310 1.378 . S
C318 C313 1.350 . S
C319 H306 0.929 . S
C319 C311 1.433 . S
C319 N321 1.384 . S
N320 C316 1.427 . S
N320 C317 1.384 . S
N321 C313 1.427 . S
N321 C319 1.384 . S
H322 C328 0.930 . S
H323 C332 0.930 . S
H324 C337 0.929 . S
H325 C335 0.929 . S
H326 C330 0.929 . S
H327 C336 0.929 . S
C328 H322 0.930 . S
C328 C329 1.367 . S
C328 C336 1.378 . S
C329 C328 1.367 . S
C329 C337 1.433 . S
C330 H326 0.929 . S
C330 C332 1.378 . S
C330 C334 1.350 . S
C331 C334 1.463 . S
C331 C336 1.350 . S
C331 N339 1.427 . S
C332 H323 0.930 . S
C332 C330 1.378 . S
C332 C333 1.367 . S
C333 C332 1.367 . S
C333 C335 1.433 . S
C334 C330 1.350 . S
C334 C331 1.463 . S
C334 N338 1.427 . S
C335 H325 0.929 . S
C335 C333 1.433 . S
C335 N338 1.384 . S
C336 H327 0.929 . S
C336 C328 1.378 . S
C336 C331 1.350 . S
C337 H324 0.929 . S
C337 C329 1.433 . S
C337 N339 1.384 . S
N338 C334 1.427 . S
N338 C335 1.384 . S
N339 C331 1.427 . S
N339 C337 1.384 . S
H340 C346 0.930 . S
H341 C350 0.930 . S
H342 C355 0.929 . S
H343 C353 0.929 . S
H344 C348 0.929 . S
H345 C354 0.929 . S
C346 H340 0.930 . S
C346 C347 1.367 . S
C346 C354 1.378 . S
C347 C346 1.367 . S
C347 C355 1.433 . S
C348 H344 0.929 . S
C348 C350 1.378 . S
C348 C352 1.350 . S
C349 C352 1.463 . S
C349 C354 1.350 . S
C349 N357 1.427 . S
C350 H341 0.930 . S
C350 C348 1.378 . S
C350 C351 1.367 . S
C351 C350 1.367 . S
C351 C353 1.433 . S
C352 C348 1.350 . S
C352 C349 1.463 . S
C352 N356 1.427 . S
C353 H343 0.929 . S
C353 C351 1.433 . S
C353 N356 1.384 . S
C354 H345 0.929 . S
C354 C346 1.378 . S
C354 C349 1.350 . S
C355 H342 0.929 . S
C355 C347 1.433 . S
C355 N357 1.384 . S
N356 C352 1.427 . S
N356 C353 1.384 . S
N357 C349 1.427 . S
N357 C355 1.384 . S
H358 C364 0.930 . S
H359 C368 0.930 . S
H360 C373 0.929 . S
H361 C371 0.929 . S
H362 C366 0.929 . S
H363 C372 0.929 . S
C364 H358 0.930 . S
C364 C365 1.367 . S
C364 C372 1.378 . S
C365 C364 1.367 . S
C365 C373 1.433 . S
C366 H362 0.929 . S
C366 C368 1.378 . S
C366 C370 1.350 . S
C367 C370 1.463 . S
C367 C372 1.350 . S
C367 N375 1.427 . S
C368 H359 0.930 . S
C368 C366 1.378 . S
C368 C369 1.367 . S
C369 C368 1.367 . S
C369 C371 1.433 . S
C370 C366 1.350 . S
C370 C367 1.463 . S
C370 N374 1.427 . S
C371 H361 0.929 . S
C371 C369 1.433 . S
C371 N374 1.384 . S
C372 H363 0.929 . S
C372 C364 1.378 . S
C372 C367 1.350 . S
C373 H360 0.929 . S
C373 C365 1.433 . S
C373 N375 1.384 . S
N374 C370 1.427 . S
N374 C371 1.384 . S
N375 C367 1.427 . S
N375 C373 1.384 . S
H376 C382 0.930 . S
H377 C386 0.930 . S
H378 C391 0.929 . S
H379 C389 0.929 . S
H380 C384 0.929 . S
H381 C390 0.929 . S
C382 H376 0.930 . S
C382 C383 1.367 . S
C382 C390 1.378 . S
C383 C382 1.367 . S
C383 C391 1.433 . S
C384 H380 0.929 . S
C384 C386 1.378 . S
C384 C388 1.350 . S
C385 C388 1.463 . S
C385 C390 1.350 . S
C385 N393 1.427 . S
C386 H377 0.930 . S
C386 C384 1.378 . S
C386 C387 1.367 . S
C387 C386 1.367 . S
C387 C389 1.433 . S
C388 C384 1.350 . S
C388 C385 1.463 . S
C388 N392 1.427 . S
C389 H379 0.929 . S
C389 C387 1.433 . S
C389 N392 1.384 . S
C390 H381 0.929 . S
C390 C382 1.378 . S
C390 C385 1.350 . S
C391 H378 0.929 . S
C391 C383 1.433 . S
C391 N393 1.384 . S
N392 C388 1.427 . S
N392 C389 1.384 . S
N393 C385 1.427 . S
N393 C391 1.384 . S
H394 C400 0.930 . S
H395 C404 0.930 . S
H396 C409 0.929 . S
H397 C407 0.929 . S
H398 C402 0.929 . S
H399 C408 0.929 . S
C400 H394 0.930 . S
C400 C401 1.367 . S
C400 C408 1.378 . S
C401 C400 1.367 . S
C401 C409 1.433 . S
C402 H398 0.929 . S
C402 C404 1.378 . S
C402 C406 1.350 . S
C403 C406 1.463 . S
C403 C408 1.350 . S
C403 N411 1.427 . S
C404 H395 0.930 . S
C404 C402 1.378 . S
C404 C405 1.367 . S
C405 C404 1.367 . S
C405 C407 1.433 . S
C406 C402 1.350 . S
C406 C403 1.463 . S
C406 N410 1.427 . S
C407 H397 0.929 . S
C407 C405 1.433 . S
C407 N410 1.384 . S
C408 H399 0.929 . S
C408 C400 1.378 . S
C408 C403 1.350 . S
C409 H396 0.929 . S
C409 C401 1.433 . S
C409 N411 1.384 . S
N410 C406 1.427 . S
N410 C407 1.384 . S
N411 C403 1.427 . S
N411 C409 1.384 . S
H412 C418 0.930 . S
H413 C422 0.930 . S
H414 C427 0.929 . S
H415 C425 0.929 . S
H416 C420 0.929 . S
H417 C426 0.929 . S
C418 H412 0.930 . S
C418 C419 1.367 . S
C418 C426 1.378 . S
C419 C418 1.367 . S
C419 C427 1.433 . S
C420 H416 0.929 . S
C420 C422 1.378 . S
C420 C424 1.350 . S
C421 C424 1.463 . S
C421 C426 1.350 . S
C421 N429 1.427 . S
C422 H413 0.930 . S
C422 C420 1.378 . S
C422 C423 1.367 . S
C423 C422 1.367 . S
C423 C425 1.433 . S
C424 C420 1.350 . S
C424 C421 1.463 . S
C424 N428 1.427 . S
C425 H415 0.929 . S
C425 C423 1.433 . S
C425 N428 1.384 . S
C426 H417 0.929 . S
C426 C418 1.378 . S
C426 C421 1.350 . S
C427 H414 0.929 . S
C427 C419 1.433 . S
C427 N429 1.384 . S
N428 C424 1.427 . S
N428 C425 1.384 . S
N429 C421 1.427 . S
N429 C427 1.384 . S
H430 C436 0.930 . S
H431 C440 0.930 . S
H432 C445 0.929 . S
H433 C443 0.929 . S
H434 C438 0.929 . S
H435 C444 0.929 . S
C436 H430 0.930 . S
C436 C437 1.367 . S
C436 C444 1.378 . S
C437 C436 1.367 . S
C437 C445 1.433 . S
C438 H434 0.929 . S
C438 C440 1.378 . S
C438 C442 1.350 . S
C439 C442 1.463 . S
C439 C444 1.350 . S
C439 N447 1.427 . S
C440 H431 0.930 . S
C440 C438 1.378 . S
C440 C441 1.367 . S
C441 C440 1.367 . S
C441 C443 1.433 . S
C442 C438 1.350 . S
C442 C439 1.463 . S
C442 N446 1.427 . S
C443 H433 0.929 . S
C443 C441 1.433 . S
C443 N446 1.384 . S
C444 H435 0.929 . S
C444 C436 1.378 . S
C444 C439 1.350 . S
C445 H432 0.929 . S
C445 C437 1.433 . S
C445 N447 1.384 . S
N446 C442 1.427 . S
N446 C443 1.384 . S
N447 C439 1.427 . S
N447 C445 1.384 . S
H448 C454 0.930 . S
H449 C458 0.930 . S
H450 C463 0.929 . S
H451 C461 0.929 . S
H452 C456 0.929 . S
H453 C462 0.929 . S
C454 H448 0.930 . S
C454 C455 1.367 . S
C454 C462 1.378 . S
C455 C454 1.367 . S
C455 C463 1.433 . S
C456 H452 0.929 . S
C456 C458 1.378 . S
C456 C460 1.350 . S
C457 C460 1.463 . S
C457 C462 1.350 . S
C457 N465 1.427 . S
C458 H449 0.930 . S
C458 C456 1.378 . S
C458 C459 1.367 . S
C459 C458 1.367 . S
C459 C461 1.433 . S
C460 C456 1.350 . S
C460 C457 1.463 . S
C460 N464 1.427 . S
C461 H451 0.929 . S
C461 C459 1.433 . S
C461 N464 1.384 . S
C462 H453 0.929 . S
C462 C454 1.378 . S
C462 C457 1.350 . S
C463 H450 0.929 . S
C463 C455 1.433 . S
C463 N465 1.384 . S
N464 C460 1.427 . S
N464 C461 1.384 . S
N465 C457 1.427 . S
N465 C463 1.384 . S
H466 C472 0.930 . S
H467 C476 0.930 . S
H468 C481 0.929 . S
H469 C479 0.929 . S
H470 C474 0.929 . S
H471 C480 0.929 . S
C472 H466 0.930 . S
C472 C473 1.367 . S
C472 C480 1.378 . S
C473 C472 1.367 . S
C473 C481 1.433 . S
C474 H470 0.929 . S
C474 C476 1.378 . S
C474 C478 1.350 . S
C475 C478 1.463 . S
C475 C480 1.350 . S
C475 N483 1.427 . S
C476 H467 0.930 . S
C476 C474 1.378 . S
C476 C477 1.367 . S
C477 C476 1.367 . S
C477 C479 1.433 . S
C478 C474 1.350 . S
C478 C475 1.463 . S
C478 N482 1.427 . S
C479 H469 0.929 . S
C479 C477 1.433 . S
C479 N482 1.384 . S
C480 H471 0.929 . S
C480 C472 1.378 . S
C480 C475 1.350 . S
C481 H468 0.929 . S
C481 C473 1.433 . S
C481 N483 1.384 . S
N482 C478 1.427 . S
N482 C479 1.384 . S
N483 C475 1.427 . S
N483 C481 1.384 . S
H484 C490 0.930 . S
H485 C494 0.930 . S
H486 C499 0.929 . S
H487 C497 0.929 . S
H488 C492 0.929 . S
H489 C498 0.929 . S
C490 H484 0.930 . S
C490 C491 1.367 . S
C490 C498 1.378 . S
C491 C490 1.367 . S
C491 C499 1.433 . S
C492 H488 0.929 . S
C492 C494 1.378 . S
C492 C496 1.350 . S
C493 C496 1.463 . S
C493 C498 1.350 . S
C493 N501 1.427 . S
C494 H485 0.930 . S
C494 C492 1.378 . S
C494 C495 1.367 . S
C495 C494 1.367 . S
C495 C497 1.433 . S
C496 C492 1.350 . S
C496 C493 1.463 . S
C496 N500 1.427 . S
C497 H487 0.929 . S
C497 C495 1.433 . S
C497 N500 1.384 . S
C498 H489 0.929 . S
C498 C490 1.378 . S
C498 C493 1.350 . S
C499 H486 0.929 . S
C499 C491 1.433 . S
C499 N501 1.384 . S
N500 C496 1.427 . S
N500 C497 1.384 . S
N501 C493 1.427 . S
N501 C499 1.384 . S
H502 C508 0.930 . S
H503 C512 0.930 . S
H504 C517 0.929 . S
H505 C515 0.929 . S
H506 C510 0.929 . S
H507 C516 0.929 . S
C508 H502 0.930 . S
C508 C509 1.367 . S
C508 C516 1.378 . S
C509 C508 1.367 . S
C509 C517 1.433 . S
C510 H506 0.929 . S
C510 C512 1.378 . S
C510 C514 1.350 . S
C511 C514 1.463 . S
C511 C516 1.350 . S
C511 N519 1.427 . S
C512 H503 0.930 . S
C512 C510 1.378 . S
C512 C513 1.367 . S
C513 C512 1.367 . S
C513 C515 1.433 . S
C514 C510 1.350 . S
C514 C511 1.463 . S
C514 N518 1.427 . S
C515 H505 0.929 . S
C515 C513 1.433 . S
C515 N518 1.384 . S
C516 H507 0.929 . S
C516 C508 1.378 . S
C516 C511 1.350 . S
C517 H504 0.929 . S
C517 C509 1.433 . S
C517 N519 1.384 . S
N518 C514 1.427 . S
N518 C515 1.384 . S
N519 C511 1.427 . S
N519 C517 1.384 . S
H520 C526 0.930 . S
H521 C530 0.930 . S
H522 C535 0.929 . S
H523 C533 0.929 . S
H524 C528 0.929 . S
H525 C534 0.929 . S
C526 H520 0.930 . S
C526 C527 1.367 . S
C526 C534 1.378 . S
C527 C526 1.367 . S
C527 C535 1.433 . S
C528 H524 0.929 . S
C528 C530 1.378 . S
C528 C532 1.350 . S
C529 C532 1.463 . S
C529 C534 1.350 . S
C529 N537 1.427 . S
C530 H521 0.930 . S
C530 C528 1.378 . S
C530 C531 1.367 . S
C531 C530 1.367 . S
C531 C533 1.433 . S
C532 C528 1.350 . S
C532 C529 1.463 . S
C532 N536 1.427 . S
C533 H523 0.929 . S
C533 C531 1.433 . S
C533 N536 1.384 . S
C534 H525 0.929 . S
C534 C526 1.378 . S
C534 C529 1.350 . S
C535 H522 0.929 . S
C535 C527 1.433 . S
C535 N537 1.384 . S
N536 C532 1.427 . S
N536 C533 1.384 . S
N537 C529 1.427 . S
N537 C535 1.384 . S
H538 C544 0.930 . S
H539 C548 0.930 . S
H540 C553 0.929 . S
H541 C551 0.929 1_455 S
H542 C546 0.929 . S
H543 C552 0.929 . S
C544 H538 0.930 . S
C544 C545 1.367 . S
C544 C552 1.378 . S
C545 C544 1.367 . S
C545 C553 1.433 . S
C546 H542 0.929 . S
C546 C548 1.378 . S
C546 C550 1.350 . S
C547 C550 1.463 . S
C547 C552 1.350 . S
C547 N555 1.427 . S
C548 H539 0.930 . S
C548 C546 1.378 . S
C548 C549 1.367 . S
C549 C548 1.367 . S
C549 C551 1.433 . S
C550 C546 1.350 . S
C550 C547 1.463 . S
C550 N554 1.427 . S
C551 H541 0.929 1_655 S
C551 C549 1.433 . S
C551 N554 1.384 . S
C552 H543 0.929 . S
C552 C544 1.378 . S
C552 C547 1.350 . S
C553 H540 0.929 . S
C553 C545 1.433 . S
C553 N555 1.384 . S
N554 C550 1.427 . S
N554 C551 1.384 . S
N555 C547 1.427 . S
N555 C553 1.384 . S
H556 C562 0.930 . S
H557 C566 0.930 . S
H558 C571 0.929 . S
H559 C569 0.929 . S
H560 C564 0.929 . S
H561 C570 0.929 . S
C562 H556 0.930 . S
C562 C563 1.367 . S
C562 C570 1.378 . S
C563 C562 1.367 . S
C563 C571 1.433 . S
C564 H560 0.929 . S
C564 C566 1.378 . S
C564 C568 1.350 . S
C565 C568 1.463 . S
C565 C570 1.350 . S
C565 N573 1.427 . S
C566 H557 0.930 . S
C566 C564 1.378 . S
C566 C567 1.367 . S
C567 C566 1.367 . S
C567 C569 1.433 . S
C568 C564 1.350 . S
C568 C565 1.463 . S
C568 N572 1.427 . S
C569 H559 0.929 . S
C569 C567 1.433 . S
C569 N572 1.384 . S
C570 H561 0.929 . S
C570 C562 1.378 . S
C570 C565 1.350 . S
C571 H558 0.929 . S
C571 C563 1.433 . S
C571 N573 1.384 . S
N572 C568 1.427 . S
N572 C569 1.384 . S
N573 C565 1.427 . S
N573 C571 1.384 . S
H574 C580 0.930 . S
H575 C584 0.930 . S
H576 C589 0.929 . S
H577 C587 0.929 . S
H578 C582 0.929 . S
H579 C588 0.929 . S
C580 H574 0.930 . S
C580 C581 1.367 . S
C580 C588 1.378 . S
C581 C580 1.367 . S
C581 C589 1.433 . S
C582 H578 0.929 . S
C582 C584 1.378 . S
C582 C586 1.350 . S
C583 C586 1.463 . S
C583 C588 1.350 . S
C583 N591 1.427 . S
C584 H575 0.930 . S
C584 C582 1.378 . S
C584 C585 1.367 . S
C585 C584 1.367 . S
C585 C587 1.433 . S
C586 C582 1.350 . S
C586 C583 1.463 . S
C586 N590 1.427 . S
C587 H577 0.929 . S
C587 C585 1.433 . S
C587 N590 1.384 . S
C588 H579 0.929 . S
C588 C580 1.378 . S
C588 C583 1.350 . S
C589 H576 0.929 . S
C589 C581 1.433 . S
C589 N591 1.384 . S
N590 C586 1.427 . S
N590 C587 1.384 . S
N591 C583 1.427 . S
N591 C589 1.384 . S
H592 C598 0.930 . S
H593 C602 0.930 . S
H594 C607 0.929 . S
H595 C605 0.929 . S
H596 C600 0.929 . S
H597 C606 0.929 . S
C598 H592 0.930 . S
C598 C599 1.367 . S
C598 C606 1.378 . S
C599 C598 1.367 . S
C599 C607 1.433 . S
C600 H596 0.929 . S
C600 C602 1.378 . S
C600 C604 1.350 . S
C601 C604 1.463 . S
C601 C606 1.350 . S
C601 N609 1.427 . S
C602 H593 0.930 . S
C602 C600 1.378 . S
C602 C603 1.367 . S
C603 C602 1.367 . S
C603 C605 1.433 . S
C604 C600 1.350 . S
C604 C601 1.463 . S
C604 N608 1.427 . S
C605 H595 0.929 . S
C605 C603 1.433 . S
C605 N608 1.384 . S
C606 H597 0.929 . S
C606 C598 1.378 . S
C606 C601 1.350 . S
C607 H594 0.929 . S
C607 C599 1.433 . S
C607 N609 1.384 . S
N608 C604 1.427 . S
N608 C605 1.384 . S
N609 C601 1.427 . S
N609 C607 1.384 . S
H610 C616 0.930 . S
H611 C620 0.930 . S
H612 C625 0.929 . S
H613 C623 0.929 . S
H614 C618 0.929 . S
H615 C624 0.929 . S
C616 H610 0.930 . S
C616 C617 1.367 . S
C616 C624 1.378 . S
C617 C616 1.367 . S
C617 C625 1.433 . S
C618 H614 0.929 . S
C618 C620 1.378 . S
C618 C622 1.350 . S
C619 C622 1.463 . S
C619 C624 1.350 . S
C619 N627 1.427 . S
C620 H611 0.930 . S
C620 C618 1.378 . S
C620 C621 1.367 . S
C621 C620 1.367 . S
C621 C623 1.433 . S
C622 C618 1.350 . S
C622 C619 1.463 . S
C622 N626 1.427 . S
C623 H613 0.929 . S
C623 C621 1.433 . S
C623 N626 1.384 . S
C624 H615 0.929 . S
C624 C616 1.378 . S
C624 C619 1.350 . S
C625 H612 0.929 . S
C625 C617 1.433 . S
C625 N627 1.384 . S
N626 C622 1.427 . S
N626 C623 1.384 . S
N627 C619 1.427 . S
N627 C625 1.384 . S
H628 C634 0.930 . S
H629 C638 0.930 . S
H630 C643 0.929 . S
H631 C641 0.929 . S
H632 C636 0.929 . S
H633 C642 0.929 . S
C634 H628 0.930 . S
C634 C635 1.367 . S
C634 C642 1.378 . S
C635 C634 1.367 . S
C635 C643 1.433 . S
C636 H632 0.929 . S
C636 C638 1.378 . S
C636 C640 1.350 . S
C637 C640 1.463 . S
C637 C642 1.350 . S
C637 N645 1.427 . S
C638 H629 0.930 . S
C638 C636 1.378 . S
C638 C639 1.367 . S
C639 C638 1.367 . S
C639 C641 1.433 . S
C640 C636 1.350 . S
C640 C637 1.463 . S
C640 N644 1.427 . S
C641 H631 0.929 . S
C641 C639 1.433 . S
C641 N644 1.384 . S
C642 H633 0.929 . S
C642 C634 1.378 . S
C642 C637 1.350 . S
C643 H630 0.929 . S
C643 C635 1.433 . S
C643 N645 1.384 . S
N644 C640 1.427 . S
N644 C641 1.384 . S
N645 C637 1.427 . S
N645 C643 1.384 . S
H646 C652 0.930 . S
H647 C656 0.930 . S
H648 C661 0.929 . S
H649 C659 0.929 . S
H650 C654 0.929 . S
H651 C660 0.929 . S
C652 H646 0.930 . S
C652 C653 1.367 . S
C652 C660 1.378 . S
C653 C652 1.367 . S
C653 C661 1.433 . S
C654 H650 0.929 . S
C654 C656 1.378 . S
C654 C658 1.350 . S
C655 C658 1.463 . S
C655 C660 1.350 . S
C655 N663 1.427 . S
C656 H647 0.930 . S
C656 C654 1.378 . S
C656 C657 1.367 . S
C657 C656 1.367 . S
C657 C659 1.433 . S
C658 C654 1.350 . S
C658 C655 1.463 . S
C658 N662 1.427 . S
C659 H649 0.929 . S
C659 C657 1.433 . S
C659 N662 1.384 . S
C660 H651 0.929 . S
C660 C652 1.378 . S
C660 C655 1.350 . S
C661 H648 0.929 . S
C661 C653 1.433 . S
C661 N663 1.384 . S
N662 C658 1.427 . S
N662 C659 1.384 . S
N663 C655 1.427 . S
N663 C661 1.384 . S
C239 C5 1.145 . S
C243 C87 1.151 . S
C257 C14 0.992 . S
C261 C127 1.014 . S
C279 C161 2.311 . S
C275 C25 2.339 . S
C293 C34 2.641 . S
C297 C202 2.574 . S
C315 C122 1.244 . S
C311 C7 1.228 . S
C333 C82 1.787 . S
C329 C13 1.702 . S
C351 C210 1.633 . S
C347 C23 1.639 . S
C369 C171 1.790 . S
C365 C31 1.847 . S
C383 C4 1.251 . S
C387 C207 1.266 . S
C405 C130 2.022 . S
C401 C22 2.076 . S
C419 C32 2.408 . S
C423 C90 2.323 . S
C437 C16 1.354 . S
C441 C158 1.397 . S
C459 C78 1.129 . S
C455 C41 1.122 . S
C473 C50 1.000 . S
C477 C118 1.022 . S
C491 C61 2.335 . S
C495 C170 2.309 . S
C509 C67 2.652 . S
C513 C211 2.582 . S
C527 C40 1.242 . S
C531 C131 1.268 . S
C549 C91 1.765 . S
C545 C52 1.687 . S
C567 C201 1.640 . S
C563 C59 1.647 . S
C585 C162 1.789 . S
C581 C70 1.843 . S
C599 C43 1.241 . S
C603 C198 1.247 . S
C621 C121 2.034 . S
C617 C58 2.087 . S
C639 C81 2.310 . S
C635 C68 2.386 . S
C653 C49 1.375 . S
C657 C167 1.404 . S
