# Generated by pormake.
# Topology anh, (6,3)-cn, num edge types: 1
# Building blocks:
#     Node 0, Type 0, BuildingBlock: GEDQOX_clean_sbu_0, # of connection points: 6
#     Node 1, Type 0, BuildingBlock: GEDQOX_clean_sbu_0, # of connection points: 6
#     Node 2, Type 0, BuildingBlock: GEDQOX_clean_sbu_0, # of connection points: 6
#     Node 3, Type 1, BuildingBlock: MIDCAF_clean_linker_0, # of connection points: 3
#     Node 4, Type 1, BuildingBlock: MIDCAF_clean_linker_0, # of connection points: 3
#     Node 5, Type 1, BuildingBlock: MIDCAF_clean_linker_0, # of connection points: 3
#     Node 6, Type 1, BuildingBlock: MIDCAF_clean_linker_0, # of connection points: 3
#     Node 7, Type 1, BuildingBlock: MIDCAF_clean_linker_0, # of connection points: 3
#     Node 8, Type 1, BuildingBlock: MIDCAF_clean_linker_0, # of connection points: 3
#     Edge 9, Type (0, 1), BuildingBlock: EZIPEK_clean_linker_0, # of connection points: 2
#     Edge 10, Type (0, 1), BuildingBlock: EZIPEK_clean_linker_0, # of connection points: 2
#     Edge 11, Type (0, 1), BuildingBlock: EZIPEK_clean_linker_0, # of connection points: 2
#     Edge 12, Type (0, 1), BuildingBlock: EZIPEK_clean_linker_0, # of connection points: 2
#     Edge 13, Type (0, 1), BuildingBlock: EZIPEK_clean_linker_0, # of connection points: 2
#     Edge 14, Type (0, 1), BuildingBlock: EZIPEK_clean_linker_0, # of connection points: 2
#     Edge 15, Type (0, 1), BuildingBlock: EZIPEK_clean_linker_0, # of connection points: 2
#     Edge 16, Type (0, 1), BuildingBlock: EZIPEK_clean_linker_0, # of connection points: 2
#     Edge 17, Type (0, 1), BuildingBlock: EZIPEK_clean_linker_0, # of connection points: 2
#     Edge 18, Type (0, 1), BuildingBlock: EZIPEK_clean_linker_0, # of connection points: 2
#     Edge 19, Type (0, 1), BuildingBlock: EZIPEK_clean_linker_0, # of connection points: 2
#     Edge 20, Type (0, 1), BuildingBlock: EZIPEK_clean_linker_0, # of connection points: 2
#     Edge 21, Type (0, 1), BuildingBlock: EZIPEK_clean_linker_0, # of connection points: 2
#     Edge 22, Type (0, 1), BuildingBlock: EZIPEK_clean_linker_0, # of connection points: 2
#     Edge 23, Type (0, 1), BuildingBlock: EZIPEK_clean_linker_0, # of connection points: 2
#     Edge 24, Type (0, 1), BuildingBlock: EZIPEK_clean_linker_0, # of connection points: 2
#     Edge 25, Type (0, 1), BuildingBlock: EZIPEK_clean_linker_0, # of connection points: 2
#     Edge 26, Type (0, 1), BuildingBlock: EZIPEK_clean_linker_0, # of connection points: 2
# Relax obj value: 0.210
# Max RMSD: 0.227
# Mean RMSD: 0.166
data_MOF--net-anh--node1-GEDQOX_clean_sbu_0--node2-MIDCAF_clean_linker_0--edge1-EZIPEK_clean_linker_0
_symmetry_space_group_name_H-M    P1
_symmetry_Int_Tables_number       1
_symmetry_cell_setting            triclinic
loop_
_symmetry_equiv_pos_as_xyz
'x, y, z'
_cell_length_a     29.755844
_cell_length_b     27.815896
_cell_length_c     52.329269
_cell_angle_alpha  92.882281
_cell_angle_beta   90.406924
_cell_angle_gamma 103.50378
loop_
_atom_site_label
_atom_site_type_symbol
_atom_site_fract_x
_atom_site_fract_y
_atom_site_fract_z
_atom_type_partial_charge
Nd0 Nd 0.08916 0.54872 0.15553 0.0
Nd1 Nd 0.06666 0.44137 0.154 0.0
C2 C 0.12592 0.6427 0.14748 0.0
C3 C 0.17105 0.67691 0.15299 0.0
C4 C 0.21175 0.65958 0.15411 0.0
C5 C 0.25391 0.69211 0.16094 0.0
C6 C 0.25589 0.7424 0.16657 0.0
C7 C 0.21537 0.75983 0.16518 0.0
C8 C 0.17318 0.72723 0.1585 0.0
C9 C 0.07453 0.51306 0.20327 0.0
C10 C 0.17952 0.4904 0.15478 0.0
C11 C 1.02991 0.3478 0.16252 0.0
C12 C 0.98214 0.31865 0.16589 0.0
C13 C 0.96112 0.31846 0.18989 0.0
C14 C 0.91582 0.29159 0.19292 0.0
C15 C 0.89093 0.26417 0.17207 0.0
C16 C 0.9115 0.26413 0.14808 0.0
C17 C 0.95684 0.29113 0.14501 0.0
C18 C 0.08137 0.4789 0.10702 0.0
C19 C 0.97604 0.49835 0.15194 0.0
O20 O 0.12499 0.60663 0.13029 0.0
O21 O 0.10121 0.62839 0.16744 0.0
O22 O 0.06063 0.55092 0.19578 0.0
O23 O 0.09746 0.49643 0.18611 0.0
O24 O 0.16507 0.53236 0.15354 0.0
O25 O 0.14742 0.44845 0.1567 0.0
O26 O 1.04731 0.38105 0.18072 0.0
O27 O 1.04036 0.36343 0.13968 0.0
O28 O 0.09706 0.44164 0.11391 0.0
O29 O 1.05773 0.49403 0.12419 0.0
O30 O 0.99046 0.45708 0.15584 0.0
O31 O 1.00857 0.53969 0.14898 0.0
H32 H 0.21101 0.62095 0.14998 0.0
H33 H 0.28487 0.67807 0.16208 0.0
H34 H 0.21639 0.79853 0.16963 0.0
H35 H 0.14211 0.74116 0.15794 0.0
H36 H 0.97971 0.33869 0.20642 0.0
H37 H 0.90039 0.2915 0.21161 0.0
H38 H 0.89271 0.2426 0.13191 0.0
H39 H 0.97215 0.29028 0.12632 0.0
Nd40 Nd 0.50653 0.01288 0.51693 0.0
Nd41 Nd 0.60828 0.03769 0.51523 0.0
C42 C 0.42017 0.9728 0.52794 0.0
C43 C 0.39133 0.9226 0.52312 0.0
C44 C 0.36243 0.90005 0.54231 0.0
C45 C 0.33418 0.85266 0.53767 0.0
C46 C 0.33448 0.82774 0.51372 0.0
C47 C 0.3648 0.84931 0.49492 0.0
C48 C 0.39337 0.89636 0.49964 0.0
C49 C 0.53812 0.02394 0.46792 0.0
C50 C 0.56216 0.9214 0.51444 0.0
C51 C 0.69453 0.077 0.50402 0.0
C52 C 0.72347 0.12782 0.50454 0.0
C53 C 0.71502 0.16214 0.48732 0.0
C54 C 0.74518 0.20861 0.48653 0.0
C55 C 0.78403 0.22129 0.50291 0.0
C56 C 0.7909 0.18858 0.52126 0.0
C57 C 0.76085 0.14198 0.522 0.0
C58 C 0.57547 0.02358 0.56363 0.0
C59 C 0.55456 0.13001 0.51932 0.0
O60 O 0.45434 0.97689 0.5443 0.0
O61 O 0.4318 0.99866 0.50783 0.0
O62 O 0.50146 0.03694 0.4761 0.0
O63 O 0.55511 1.00255 0.48505 0.0
O64 O 0.52351 0.93558 0.51941 0.0
O65 O 0.60018 0.95393 0.50881 0.0
O66 O 0.66109 0.06549 0.48678 0.0
O67 O 0.68256 0.05897 0.52623 0.0
O68 O 0.61142 1.00951 0.55521 0.0
O69 O 0.55953 0.04754 0.54724 0.0
O70 O 0.59335 0.11576 0.51524 0.0
O71 O 0.51554 0.09703 0.52284 0.0
H72 H 0.36119 0.91941 0.56068 0.0
H73 H 0.31084 0.83621 0.55231 0.0
H74 H 0.36538 0.83027 0.47639 0.0
H75 H 0.41636 0.91252 0.48478 0.0
H76 H 0.6862 0.15258 0.4738 0.0
H77 H 0.73971 0.23354 0.47218 0.0
H78 H 0.82104 0.19797 0.53388 0.0
H79 H 0.76779 0.11635 0.53558 0.0
Nd80 Nd 0.5111 0.49584 0.84381 0.0
Nd81 Nd 0.61158 0.52432 0.84262 0.0
C82 C 0.42468 0.45675 0.8311 0.0
C83 C 0.39723 0.47469 0.81239 0.0
C84 C 0.41999 0.50374 0.79293 0.0
C85 C 0.39994 0.53889 0.78236 0.0
C86 C 0.3579 0.54566 0.79182 0.0
C87 C 0.33247 0.51152 0.8084 0.0
C88 C 0.35206 0.47594 0.81858 0.0
C89 C 0.55004 0.51768 0.89191 0.0
C90 C 0.55903 0.61253 0.8421 0.0
C91 C 0.69797 0.53761 0.85657 0.0
C92 C 0.73344 0.52113 0.84221 0.0
C93 C 0.77665 0.52474 0.85341 0.0
C94 C 0.81184 0.51436 0.83846 0.0
C95 C 0.80417 0.50158 0.81208 0.0
C96 C 0.75976 0.49363 0.8015 0.0
C97 C 0.72422 0.5026 0.81673 0.0
C98 C 0.58346 0.52485 0.79216 0.0
C99 C 0.5666 0.40713 0.83667 0.0
O100 O 0.45866 0.43945 0.82175 0.0
O101 O 0.43682 0.48721 0.85118 0.0
O102 O 0.51268 0.53011 0.88475 0.0
O103 O 0.56396 0.4928 0.8741 0.0
O104 O 0.52302 0.57794 0.83319 0.0
O105 O 0.59438 0.59949 0.85276 0.0
O106 O 0.66574 0.50157 0.86465 0.0
O107 O 0.68199 0.57222 0.84609 0.0
O108 O 0.62627 0.53492 0.79961 0.0
O109 O 0.5572 0.51433 0.81086 0.0
O110 O 0.60381 0.44158 0.83222 0.0
O111 O 0.52816 0.41895 0.84409 0.0
H112 H 0.45525 0.50335 0.78803 0.0
H113 H 0.41952 0.56433 0.76924 0.0
H114 H 0.29963 0.51595 0.81575 0.0
H115 H 0.33436 0.45395 0.83362 0.0
H116 H 0.78369 0.5377 0.87324 0.0
H117 H 0.84605 0.52053 0.84701 0.0
H118 H 0.75327 0.48354 0.78132 0.0
H119 H 0.69014 0.4972 0.80829 0.0
C120 C 0.45128 0.8666 0.22028 0.0
C121 C 0.42657 0.87931 0.19976 0.0
C122 C 0.44131 0.92619 0.18974 0.0
C123 C 0.47922 0.96065 0.20084 0.0
H124 H 0.62431 0.05075 0.18707 0.0
H125 H 0.69118 0.10253 0.16678 0.0
H126 H 0.72523 0.19208 0.23696 0.0
H127 H 0.65892 0.14071 0.25754 0.0
H128 H 0.63148 0.0853 0.30984 0.0
H129 H 0.63059 0.0876 0.35673 0.0
H130 H 0.5093 0.96714 0.35389 0.0
H131 H 0.50983 0.96407 0.30723 0.0
H132 H 0.50555 0.89139 0.24829 0.0
H133 H 0.44046 0.83053 0.22818 0.0
H134 H 0.42254 0.93658 0.17391 0.0
H135 H 0.48917 0.99718 0.19338 0.0
N136 N 0.56825 0.02114 0.22414 0.0
N137 N 0.60117 0.05712 0.26355 0.0
N138 N 0.53853 0.9882 0.26262 0.0
C139 C 0.60054 0.05622 0.23753 0.0
C140 C 0.57018 0.02331 0.27626 0.0
C141 C 0.53727 0.987 0.23666 0.0
C142 C 0.63662 0.09121 0.22405 0.0
C143 C 0.64544 0.08203 0.19807 0.0
C144 C 0.68349 0.11153 0.1864 0.0
C145 C 0.71282 0.15084 0.20048 0.0
C146 C 0.70269 0.16187 0.22588 0.0
C147 C 0.66496 0.13226 0.23761 0.0
C148 C 0.57065 0.02455 0.30467 0.0
C149 C 0.60467 0.05913 0.31914 0.0
C150 C 0.60434 0.0605 0.34593 0.0
C151 C 0.56984 0.02757 0.35867 0.0
C152 C 0.5362 0.9928 0.34435 0.0
C153 C 0.53659 0.99122 0.31764 0.0
C154 C 0.50192 0.94896 0.22249 0.0
C155 C 0.48824 0.90138 0.23178 0.0
C156 C 0.59424 0.36559 0.5502 0.0
C157 C 0.56242 0.34213 0.53106 0.0
C158 C 0.53561 0.37006 0.51874 0.0
C159 C 0.53886 0.42006 0.52664 0.0
H160 H 0.58107 0.60394 0.51334 0.0
H161 H 0.58258 0.6861 0.49702 0.0
H162 H 0.52656 0.72944 0.56784 0.0
H163 H 0.52469 0.64866 0.58412 0.0
H164 H 0.54774 0.60343 0.63585 0.0
H165 H 0.54527 0.59968 0.68162 0.0
H166 H 0.58383 0.45937 0.67562 0.0
H167 H 0.58637 0.46342 0.63012 0.0
H168 H 0.62113 0.43118 0.57366 0.0
H169 H 0.61551 0.34501 0.5598 0.0
H170 H 0.51091 0.35262 0.50381 0.0
H171 H 0.51598 0.43999 0.51799 0.0
N172 N 0.56039 0.53085 0.54814 0.0
N173 N 0.55855 0.573 0.5883 0.0
N174 N 0.56727 0.49181 0.58637 0.0
C175 C 0.55712 0.57289 0.56223 0.0
C176 C 0.56374 0.53273 0.60051 0.0
C177 C 0.56554 0.49002 0.56043 0.0
C178 C 0.55314 0.6195 0.55018 0.0
C179 C 0.56829 0.63065 0.52522 0.0
C180 C 0.56925 0.67762 0.51589 0.0
C181 C 0.55472 0.71398 0.53127 0.0
C182 C 0.53793 0.70211 0.55565 0.0
C183 C 0.5371 0.65569 0.56495 0.0
C184 C 0.56414 0.53215 0.62894 0.0
C185 C 0.5537 0.57067 0.64432 0.0
C186 C 0.55051 0.56736 0.67095 0.0
C187 C 0.555 0.52413 0.68307 0.0
C188 C 0.57206 0.48934 0.6676 0.0
C189 C 0.57513 0.49243 0.64108 0.0
C190 C 0.56894 0.44256 0.54698 0.0
C191 C 0.59751 0.41503 0.55801 0.0
C192 C 0.95525 0.56357 0.8626 0.0
C193 C 0.96363 0.57638 0.83713 0.0
C194 C 1.00459 0.60928 0.83099 0.0
C195 C 1.03737 0.62871 0.85001 0.0
H196 H 0.17549 0.70459 0.85913 0.0
H197 H 0.22903 0.70099 0.82425 0.0
H198 H 0.27475 0.58438 0.86039 0.0
H199 H 0.22061 0.58719 0.89533 0.0
H200 H 0.15961 0.55024 0.95206 0.0
H201 H 0.15155 0.51822 0.99507 0.0
H202 H 1.04209 0.59301 0.01034 0.0
H203 H 1.04872 0.62346 0.96702 0.0
H204 H 0.98286 0.56922 0.90083 0.0
H205 H 0.92346 0.53809 0.86755 0.0
H206 H 1.01133 0.61947 0.81143 0.0
H207 H 0.06913 0.65344 0.8444 0.0
N208 N 0.11301 0.63853 0.88244 0.0
N209 N 0.14997 0.62052 0.919 0.0
N210 N 0.06864 0.60714 0.91695 0.0
C211 C 0.15225 0.63762 0.89506 0.0
C212 C 0.10805 0.60691 0.93032 0.0
C213 C 0.07124 0.62289 0.89277 0.0
C214 C 0.19435 0.64638 0.87997 0.0
C215 C 0.19807 0.67925 0.86005 0.0
C216 C 0.22795 0.67686 0.83997 0.0
C217 C 0.25463 0.64176 0.83967 0.0
C218 C 0.25362 0.61127 0.86038 0.0
C219 C 0.22356 0.61356 0.88052 0.0
C220 C 0.10475 0.58921 0.95638 0.0
C221 C 0.13394 0.55986 0.96465 0.0
C222 C 0.12926 0.54146 0.98907 0.0
C223 C 0.09615 0.55323 0.00571 0.0
C224 C 0.06758 0.58335 -0.00237 0.0
C225 C 0.07143 0.60066 0.973 0.0
C226 C 1.03084 0.61347 0.8753 0.0
C227 C 0.98882 0.58188 0.88164 0.0
C228 C 0.21399 0.63617 0.45125 0.0
C229 C 0.20605 0.64986 0.47663 0.0
C230 C 0.16669 0.62446 0.48899 0.0
C231 C 0.13446 0.58688 0.47567 0.0
H232 H 1.02263 0.4711 0.48464 0.0
H233 H 0.96174 0.41286 0.5059 0.0
H234 H 0.89028 0.3689 0.43351 0.0
H235 H 0.95075 0.42661 0.41193 0.0
H236 H 1.00051 0.50108 0.361 0.0
H237 H 1.00443 0.50004 0.3142 0.0
H238 H 0.14851 0.49678 0.31877 0.0
H239 H 0.14533 0.50066 0.3657 0.0
H240 H 0.18805 0.59006 0.41801 0.0
H241 H 0.24426 0.6558 0.44151 0.0
H242 H 0.16013 0.63502 0.50857 0.0
H243 H 0.10357 0.56896 0.48544 0.0
N244 N 0.06675 0.51328 0.44669 0.0
N245 N 1.03336 0.47953 0.40715 0.0
N246 N 0.10637 0.53459 0.40883 0.0
C247 C 1.03128 0.4832 0.43309 0.0
C248 C 0.07092 0.5049 0.39496 0.0
C249 C 0.10429 0.53925 0.43475 0.0
C250 C 0.99187 0.45303 0.44648 0.0
C251 C 0.99357 0.44977 0.47325 0.0
C252 C 0.9588 0.41678 0.4855 0.0
C253 C 0.9218 0.38705 0.47118 0.0
C254 C 0.91866 0.392 0.44477 0.0
C255 C 0.9534 0.42474 0.43249 0.0
C256 C 0.07271 0.50128 0.36683 0.0
C257 C 1.03295 0.50005 0.35197 0.0
C258 C 1.03516 0.49946 0.3253 0.0
C259 C 0.07681 0.49853 0.31303 0.0
C260 C 0.11615 0.49781 0.32788 0.0
C261 C 0.11432 0.50011 0.3546 0.0
C262 C 0.14103 0.57459 0.44973 0.0
C263 C 0.18171 0.59882 0.43786 0.0
C264 C 0.60708 0.18889 0.8072 0.0
C265 C 0.5742 0.1991 0.82437 0.0
C266 C 0.544 0.15915 0.83555 0.0
C267 C 0.54496 0.10976 0.82835 0.0
H268 H 0.57727 0.93993 0.8428 0.0
H269 H 0.57783 0.85755 0.85826 0.0
H270 H 0.5489 0.79306 0.78166 0.0
H271 H 0.54832 0.87355 0.76615 0.0
H272 H 0.57776 0.94089 0.71861 0.0
H273 H 0.57746 0.94745 0.67208 0.0
H274 H 0.53654 0.086 0.68137 0.0
H275 H 0.53783 0.0805 0.72785 0.0
H276 H 0.63225 0.13359 0.78566 0.0
H277 H 0.63077 0.21888 0.79839 0.0
H278 H 0.51826 0.16616 0.84885 0.0
H279 H 0.51926 0.07972 0.83578 0.0
N280 N 0.56805 1.00677 0.8073 0.0
N281 N 0.56031 0.96545 0.76644 0.0
N282 N 0.56587 0.05048 0.77004 0.0
C283 C 0.56354 0.96363 0.79235 0.0
C284 C 0.56112 1.00845 0.75518 0.0
C285 C 0.56943 0.05054 0.79587 0.0
C286 C 0.56275 0.91415 0.80314 0.0
C287 C 0.57078 0.90821 0.82928 0.0
C288 C 0.57112 0.86104 0.83815 0.0
C289 C 0.56318 0.81878 0.82113 0.0
C290 C 0.55494 0.82474 0.79523 0.0
C291 C 0.55471 0.87136 0.7864 0.0
C292 C 0.55815 0.01032 0.72697 0.0
C293 C 0.56849 0.97264 0.71077 0.0
C294 C 0.56843 0.97637 0.6842 0.0
C295 C 0.55733 0.01742 0.67334 0.0
C296 C 0.54552 0.05426 0.6894 0.0
C297 C 0.54635 0.051 0.71596 0.0
C298 C 0.57625 0.09972 0.80994 0.0
C299 C 0.6081 0.13999 0.80011 0.0
C300 C 0.74936 0.4898 0.11789 0.0
C301 C 0.76872 0.49648 0.14281 0.0
C302 C 0.73632 0.50127 0.16247 0.0
C303 C 0.688 0.50035 0.15712 0.0
H304 H 0.49393 0.49944 0.1739 0.0
H305 H 0.41164 0.49705 0.18386 0.0
H306 H 0.37793 0.48641 0.10355 0.0
H307 H 0.45606 0.48631 0.09361 0.0
H308 H 0.50838 0.5202 0.0532 0.0
H309 H 0.50639 0.52274 0.00662 0.0
H310 H 0.64227 0.49363 0.00308 0.0
H311 H 0.64501 0.49143 0.04982 0.0
H312 H 0.69199 0.48353 0.09261 0.0
H313 H 0.77127 0.48553 0.1019 0.0
H314 H 0.74848 0.50638 0.18218 0.0
H315 H 0.66589 0.50506 0.17292 0.0
N316 N 0.5774 0.49471 0.13594 0.0
N317 N 0.53861 0.50088 0.097 0.0
N318 N 0.61653 0.50094 0.09647 0.0
C319 C 0.53597 0.4966 0.1227 0.0
C320 C 0.57755 0.5029 0.08376 0.0
C321 C 0.6189 0.49695 0.12221 0.0
C322 C 0.48498 0.49336 0.13263 0.0
C323 C 0.46928 0.49611 0.15823 0.0
C324 C 0.42123 0.49508 0.16399 0.0
C325 C 0.38603 0.49171 0.14457 0.0
C326 C 0.40211 0.48901 0.11942 0.0
C327 C 0.44881 0.48926 0.11377 0.0
C328 C 0.57693 0.50571 0.05541 0.0
C329 C 0.53803 0.51451 0.04264 0.0
C330 C 0.5368 0.51608 0.01597 0.0
C331 C 0.57424 0.50861 0.00143 0.0
C332 C 0.61315 0.49979 0.01399 0.0
C333 C 0.6146 0.4986 0.04073 0.0
C334 C 0.66915 0.49453 0.13171 0.0
C335 C 0.70217 0.48876 0.11263 0.0
C336 C 0.26812 0.52569 0.16739 0.0
C337 C 0.23272 0.49036 0.15306 0.0
C338 C 0.29699 0.45165 0.13731 0.0
C339 C 0.33293 0.49012 0.14924 0.0
N340 N 0.34938 0.56977 0.1721 0.0
N341 N 0.21875 0.42628 0.11923 0.0
C342 C 0.31732 0.5286 0.16336 0.0
C343 C 0.24885 0.45516 0.13672 0.0
N344 N 0.25503 0.55576 0.18587 0.0
N345 N 0.30833 0.40999 0.12714 0.0
H346 H 0.18451 0.42862 0.11719 0.0
H347 H 0.2291 0.40419 0.10483 0.0
H348 H 0.34182 0.40462 0.12807 0.0
H349 H 0.28378 0.37859 0.12048 0.0
H350 H 0.27824 0.57854 0.19884 0.0
H351 H 0.22051 0.55418 0.18997 0.0
H352 H 0.34066 0.60155 0.17982 0.0
H353 H 0.38471 0.57399 0.16934 0.0
C354 C 0.81806 0.31292 0.50548 0.0
C355 C 0.82152 0.26442 0.49758 0.0
C356 C 0.89598 0.29736 0.47816 0.0
C357 C 0.88952 0.34583 0.48288 0.0
N358 N 0.84454 0.40119 0.49997 0.0
N359 N 0.8601 0.21005 0.47335 0.0
C360 C 0.85076 0.35416 0.49648 0.0
C361 C 0.85966 0.25643 0.48326 0.0
N362 N 0.78383 0.31925 0.52168 0.0
N363 N 0.93714 0.29053 0.46905 0.0
H364 H 0.83417 0.17864 0.47649 0.0
H365 H 0.88421 0.20321 0.46017 0.0
H366 H 0.9647 0.31981 0.46501 0.0
H367 H 0.94559 0.25621 0.46782 0.0
H368 H 0.78182 0.35338 0.53008 0.0
H369 H 0.75916 0.28956 0.52828 0.0
H370 H 0.81461 0.40939 0.50729 0.0
H371 H 0.86856 0.4322 0.49415 0.0
C372 C 0.52744 0.68964 0.84905 0.0
C373 C 0.56165 0.66664 0.83856 0.0
C374 C 0.60193 0.74699 0.82218 0.0
C375 C 0.56454 0.76801 0.8296 0.0
N376 N 0.49016 0.75883 0.84902 0.0
N377 N 0.62968 0.67287 0.81274 0.0
C378 C 0.52698 0.73922 0.8429 0.0
C379 C 0.59868 0.69533 0.82469 0.0
N380 N 0.49629 0.6646 0.86564 0.0
N381 N 0.64122 0.77687 0.81324 0.0
H382 H 0.62891 0.63541 0.81384 0.0
H383 H 0.65379 0.69025 0.79981 0.0
H384 H 0.64487 0.81474 0.8113 0.0
H385 H 0.67171 0.76538 0.81011 0.0
H386 H 0.47344 0.68057 0.87612 0.0
H387 H 0.49586 0.62868 0.87066 0.0
H388 H 0.46005 0.73897 0.85699 0.0
H389 H 0.4886 0.79469 0.84488 0.0
C390 C 0.88836 0.46843 0.16601 0.0
C391 C 0.92254 0.49808 0.15028 0.0
C392 C 0.85702 0.53272 0.13388 0.0
C393 C 0.82214 0.4987 0.14703 0.0
N394 N 0.80739 0.42713 0.17239 0.0
N395 N 0.93251 0.5497 0.11402 0.0
C396 C 0.83885 0.46473 0.16219 0.0
C397 C 0.90477 0.52789 0.13291 0.0
N398 N 0.90291 0.44516 0.18572 0.0
N399 N 0.84511 0.57145 0.12277 0.0
H400 H 0.96563 0.54443 0.11101 0.0
H401 H 0.92056 0.56771 0.09934 0.0
H402 H 0.81186 0.57753 0.12371 0.0
H403 H 0.86931 0.60041 0.11528 0.0
H404 H 0.88078 0.42713 0.19938 0.0
H405 H 0.93764 0.44874 0.19025 0.0
H406 H 0.81659 0.39822 0.18141 0.0
H407 H 0.77184 0.42237 0.16977 0.0
C408 C 0.25617 0.78457 0.49699 0.0
C409 C 0.29967 0.78143 0.50714 0.0
C410 C 0.27758 0.69097 0.50193 0.0
C411 C 0.23649 0.69459 0.48911 0.0
N412 N 0.18702 0.74382 0.47267 0.0
N413 N 0.35398 0.73332 0.51813 0.0
C414 C 0.22563 0.7411 0.48637 0.0
C415 C 0.31093 0.73502 0.50948 0.0
N416 N 0.2441 0.82917 0.4976 0.0
N417 N 0.28423 0.64541 0.50712 0.0
H418 H 0.37864 0.76486 0.52461 0.0
H419 H 0.36634 0.70123 0.51756 0.0
H420 H 0.2605 0.61252 0.50155 0.0
H421 H 0.31124 0.64015 0.51856 0.0
H422 H 0.21099 0.83308 0.49328 0.0
H423 H 0.26626 0.86235 0.50422 0.0
H424 H 0.1802 0.77686 0.46712 0.0
H425 H 0.16279 0.71271 0.46533 0.0
C426 C 0.54016 0.3219 0.81487 0.0
C427 C 0.56803 0.35367 0.83391 0.0
C428 C 0.60016 0.28421 0.8468 0.0
C429 C 0.57003 0.25167 0.82895 0.0
N430 N 0.50727 0.23789 0.79802 0.0
N431 N 0.61923 0.3638 0.87068 0.0
C432 C 0.53869 0.27008 0.81366 0.0
C433 C 0.59671 0.33449 0.85056 0.0
N434 N 0.5168 0.34169 0.7971 0.0
N435 N 0.63277 0.26723 0.85985 0.0
H436 H 0.61734 0.40052 0.87417 0.0
H437 H 0.63667 0.35081 0.88514 0.0
H438 H 0.63484 0.23026 0.85857 0.0
H439 H 0.65955 0.29018 0.87069 0.0
H440 H 0.50009 0.32184 0.78097 0.0
H441 H 0.51728 0.37932 0.79724 0.0
H442 H 0.48008 0.2477 0.7886 0.0
H443 H 0.50622 0.20017 0.79586 0.0
C444 C 0.59655 0.85414 0.53217 0.0
C445 C 0.56284 0.86777 0.51633 0.0
C446 C 0.52479 0.77916 0.50857 0.0
C447 C 0.55994 0.766 0.52328 0.0
N448 N 0.63465 0.79027 0.54422 0.0
N449 N 0.49982 0.84229 0.48555 0.0
C450 C 0.59759 0.80336 0.53339 0.0
C451 C 0.52837 0.82993 0.50338 0.0
N452 N 0.62562 0.88912 0.54761 0.0
N453 N 0.48713 0.74328 0.50029 0.0
H454 H 0.50125 0.8787 0.48113 0.0
H455 H 0.47738 0.81639 0.47354 0.0
H456 H 0.48424 0.70576 0.50293 0.0
H457 H 0.45756 0.75085 0.49228 0.0
H458 H 0.64663 0.88054 0.56186 0.0
H459 H 0.6257 0.92647 0.5481 0.0
H460 H 0.66538 0.81567 0.54944 0.0
H461 H 0.63641 0.75348 0.54572 0.0
C462 C 0.87512 0.47864 0.80117 0.0
C463 C 0.84464 0.50845 0.79565 0.0
C464 C 0.90258 0.58347 0.80529 0.0
C465 C 0.92953 0.55424 0.81687 0.0
N466 N 0.95072 0.4757 0.81801 0.0
N467 N 0.83744 0.58284 0.77692 0.0
C468 C 0.91932 0.50209 0.81168 0.0
C469 C 0.86256 0.55857 0.79122 0.0
N470 N 0.8586 0.42858 0.79982 0.0
N471 N 0.91189 0.63361 0.81001 0.0
H472 H 0.80644 0.56396 0.76793 0.0
H473 H 0.84936 0.61962 0.77234 0.0
H474 H 0.93989 0.65329 0.82119 0.0
H475 H 0.8899 0.65531 0.8042 0.0
H476 H 0.87693 0.40351 0.8059 0.0
H477 H 0.8252 0.41283 0.79269 0.0
H478 H 0.94582 0.43776 0.8141 0.0
H479 H 0.98329 0.49288 0.82575 0.0
C480 C 0.33554 0.79186 0.15688 0.0
C481 C 0.30014 0.7768 0.17483 0.0
C482 C 0.34518 0.834 0.20763 0.0
C483 C 0.38272 0.84502 0.19062 0.0
N484 N 0.41659 0.82869 0.15028 0.0
N485 N 0.27526 0.77542 0.21863 0.0
C486 C 0.37876 0.82241 0.16552 0.0
C487 C 0.30614 0.79548 0.20063 0.0
N488 N 0.3274 0.77821 0.1315 0.0
N489 N 0.34598 0.86164 0.23006 0.0
H490 H 0.24639 0.74662 0.21432 0.0
H491 H 0.28072 0.78405 0.23819 0.0
H492 H 0.37322 0.89151 0.23555 0.0
H493 H 0.31758 0.85826 0.24194 0.0
H494 H 0.35006 0.79243 0.11718 0.0
H495 H 0.29619 0.7558 0.12447 0.0
H496 H 0.41696 0.809 0.13286 0.0
H497 H 0.44889 0.8505 0.15604 0.0
C498 C 0.58285 0.21817 0.50438 0.0
C499 C 0.55564 0.18461 0.5213 0.0
C500 C 0.52557 0.25373 0.54008 0.0
C501 C 0.5565 0.28766 0.52535 0.0
N502 N 0.61962 0.30338 0.49611 0.0
N503 N 0.51147 0.17542 0.56017 0.0
C504 C 0.58656 0.27017 0.50825 0.0
C505 C 0.52944 0.20363 0.54036 0.0
N506 N 0.60398 0.20082 0.48398 0.0
N507 N 0.49275 0.26947 0.55417 0.0
H508 H 0.51754 0.14063 0.56294 0.0
H509 H 0.49573 0.18905 0.57576 0.0
H510 H 0.48956 0.30607 0.55492 0.0
H511 H 0.46612 0.2453 0.5631 0.0
H512 H 0.6194 0.22307 0.46953 0.0
H513 H 0.60297 0.16367 0.47997 0.0
H514 H 0.64673 0.29358 0.48625 0.0
H515 H 0.62186 0.34143 0.49738 0.0
C516 C 0.36293 0.63105 0.80819 0.0
C517 C 0.34376 0.59264 0.78966 0.0
C518 C 0.26693 0.6057 0.79612 0.0
C519 C 0.28468 0.63676 0.81798 0.0
N520 N 0.34875 0.69416 0.83887 0.0
N521 N 0.28516 0.56043 0.758 0.0
C522 C 0.33271 0.65519 0.82171 0.0
C523 C 0.29842 0.58754 0.78033 0.0
N524 N 0.40867 0.64004 0.81483 0.0
N525 N 0.22035 0.59025 0.79189 0.0
H526 H 0.30881 0.54556 0.74738 0.0
H527 H 0.25282 0.55632 0.74929 0.0
H528 H 0.19656 0.60327 0.80322 0.0
H529 H 0.20538 0.56335 0.77783 0.0
H530 H 0.42326 0.66195 0.83083 0.0
H531 H 0.43201 0.62479 0.80432 0.0
H532 H 0.38349 0.71183 0.84122 0.0
H533 H 0.32651 0.71167 0.84909 0.0
C534 C 0.84069 0.18533 0.18588 0.0
C535 C 0.84437 0.23263 0.17607 0.0
C536 C 0.7602 0.22151 0.17733 0.0
C537 C 0.7573 0.17693 0.18989 0.0
N538 N 0.79371 0.11653 0.20737 0.0
N539 N 0.80937 0.29695 0.16221 0.0
C540 C 0.79722 0.15859 0.19428 0.0
C541 C 0.8045 0.25093 0.17147 0.0
N542 N 0.87879 0.16576 0.18676 0.0
N543 N 0.7205 0.23536 0.17104 0.0
H544 H 0.84127 0.31886 0.15726 0.0
H545 H 0.78244 0.3146 0.16034 0.0
H546 H 0.68773 0.21478 0.17549 0.0
H547 H 0.71939 0.26521 0.16007 0.0
H548 H 0.87764 0.1294 0.19109 0.0
H549 H 0.91144 0.18468 0.18115 0.0
H550 H 0.82203 0.10462 0.21413 0.0
H551 H 0.76224 0.09457 0.21288 0.0
C552 C 1.04596 0.48503 0.06415 0.0
C553 C 0.08508 0.49678 0.08093 0.0
C554 C 0.12904 0.55011 0.04959 0.0
C555 C 0.09178 0.53433 0.03177 0.0
N556 N 1.01781 0.47981 0.02032 0.0
N557 N 0.16662 0.53231 0.08785 0.0
C558 C 1.0509 0.49996 0.03856 0.0
C559 C 0.12753 0.52673 0.07309 0.0
N560 N 1.0042 0.45952 0.07259 0.0
N561 N 0.16503 0.58881 0.04453 0.0
H562 H 0.16695 0.51535 0.10507 0.0
H563 H 0.19943 0.54969 0.08182 0.0
H564 H 0.16686 0.60786 0.02776 0.0
H565 H 0.19066 0.60522 0.05802 0.0
H566 H 0.9734 0.45519 0.06221 0.0
H567 H 0.99971 0.44535 0.09072 0.0
H568 H 0.98958 0.45081 0.02357 0.0
H569 H 1.02064 0.48885 0.00121 0.0
C570 C 0.54875 0.06928 0.42717 0.0
C571 C 0.55196 0.02666 0.44048 0.0
C572 C 0.57799 0.99103 0.40084 0.0
C573 C 0.56774 0.02982 0.38708 0.0
N574 N 0.53773 0.10314 0.38648 0.0
N575 N 0.56214 0.94245 0.43802 0.0
C576 C 0.55189 0.06841 0.40007 0.0
C577 C 0.56514 0.98646 0.42692 0.0
N578 N 0.54374 0.11128 0.44039 0.0
N579 N 0.60024 0.95856 0.38898 0.0
H580 H 0.55067 0.93569 0.45646 0.0
H581 H 0.56632 0.91057 0.42796 0.0
H582 H 0.60998 0.96079 0.36988 0.0
H583 H 0.61303 0.93265 0.39871 0.0
H584 H 0.54693 0.14508 0.43201 0.0
H585 H 0.54082 0.11394 0.46017 0.0
H586 H 0.52056 0.12853 0.39468 0.0
H587 H 0.53959 0.10412 0.36662 0.0
C588 C 0.5503 0.55921 0.7544 0.0
C589 C 0.56778 0.52095 0.76489 0.0
C590 C 0.55263 0.47418 0.72353 0.0
C591 C 0.54733 0.51753 0.71177 0.0
N592 N 0.50274 0.57816 0.72063 0.0
N593 N 0.58366 0.4398 0.75935 0.0
C594 C 0.53524 0.55432 0.72834 0.0
C595 C 0.56818 0.47763 0.74946 0.0
N596 N 0.54872 0.60071 0.76902 0.0
N597 N 0.53552 0.42888 0.71148 0.0
H598 H 0.5939 0.44004 0.77846 0.0
H599 H 0.58893 0.40974 0.74803 0.0
H600 H 0.5163 0.42503 0.69441 0.0
H601 H 0.53453 0.39565 0.72006 0.0
H602 H 0.54104 0.63187 0.76142 0.0
H603 H 0.55804 0.60496 0.78832 0.0
H604 H 0.4896 0.60233 0.73269 0.0
H605 H 0.48383 0.56736 0.70358 0.0
C606 C 0.53464 0.98563 0.60216 0.0
C607 C 0.56587 0.02569 0.59134 0.0
C608 C 0.59249 0.06015 0.63431 0.0
C609 C 0.55879 0.02201 0.6451 0.0
N610 N 0.49046 0.95564 0.63919 0.0
N611 N 0.61809 0.10613 0.59682 0.0
C612 C 0.52752 0.98698 0.62896 0.0
C613 C 0.59253 0.06475 0.60736 0.0
N614 N 0.51331 0.94519 0.58704 0.0
N615 N 0.62616 0.09013 0.64959 0.0
H616 H 0.6195 0.11037 0.57712 0.0
H617 H 0.63449 0.13793 0.60763 0.0
H618 H 0.6283 0.08714 0.66931 0.0
H619 H 0.65449 0.11492 0.64245 0.0
H620 H 0.49411 0.91264 0.59428 0.0
H621 H 0.5181 0.94262 0.5674 0.0
H622 H 0.46404 0.9327 0.62807 0.0
H623 H 0.48374 0.95609 0.65873 0.0
C624 C 0.59516 0.54847 0.93266 0.0
C625 C 0.56004 0.51244 0.91937 0.0
C626 C 0.54113 0.46897 0.95903 0.0
C627 C 0.57171 0.50865 0.97293 0.0
N628 N 0.62509 0.58868 0.97357 0.0
N629 N 0.49777 0.43926 0.91967 0.0
C630 C 0.59835 0.54894 0.95988 0.0
C631 C 0.53262 0.47279 0.93248 0.0
N632 N 0.62581 0.58181 0.91921 0.0
N633 N 0.52133 0.42694 0.9711 0.0
H634 H 0.49201 0.43899 0.89997 0.0
H635 H 0.4728 0.41339 0.92872 0.0
H636 H 0.52713 0.42266 0.99045 0.0
H637 H 0.50255 0.39466 0.96158 0.0
H638 H 0.65508 0.60582 0.92744 0.0
H639 H 0.62421 0.58239 0.89932 0.0
H640 H 0.64134 0.62149 0.96544 0.0
H641 H 0.62831 0.59045 0.99347 0.0
C642 C 1.04694 0.46698 0.24234 0.0
C643 C 0.07901 0.50528 0.23084 0.0
C644 C 0.10875 0.54042 0.27316 0.0
C645 C 0.0793 0.49973 0.28463 0.0
N646 N 1.02813 0.41839 0.27955 0.0
N647 N 0.14695 0.57244 0.23471 0.0
C648 C 1.05071 0.46116 0.26902 0.0
C649 C 0.11217 0.53994 0.24609 0.0
N650 N 1.01167 0.43743 0.22802 0.0
N651 N 0.13121 0.581 0.28792 0.0
H652 H 0.1502 0.57348 0.2149 0.0
H653 H 0.17485 0.59508 0.2449 0.0
H654 H 0.12806 0.58412 0.30773 0.0
H655 H 0.14925 0.61367 0.2803 0.0
H656 H 0.98388 0.41321 0.23601 0.0
H657 H 1.00836 0.44011 0.20834 0.0
H658 H 1.01025 0.38734 0.26865 0.0
H659 H 1.03111 0.41215 0.29891 0.0
loop_
_geom_bond_atom_site_label_1
_geom_bond_atom_site_label_2
_geom_bond_distance
_geom_bond_site_symmetry_2
_ccdc_geom_bond_type
Nd0 C2 2.836 . S
Nd0 O20 2.500 . S
Nd0 O21 2.492 . S
Nd0 O22 2.487 . S
Nd0 O23 2.682 . S
Nd0 O24 2.410 . S
Nd0 O29 2.414 . S
Nd0 O31 2.424 1_455 S
Nd1 C11 2.836 . S
Nd1 O23 2.414 1_655 S
Nd1 O25 2.424 1_655 S
Nd1 O26 2.500 . S
Nd1 O27 2.492 . S
Nd1 O28 2.487 . S
Nd1 O29 2.682 1_655 S
Nd1 O30 2.410 . S
C2 Nd0 2.836 . S
C2 C3 1.498 . S
C2 O20 1.258 . S
C2 O21 1.239 . S
C3 C2 1.498 . S
C3 C4 1.366 . S
C3 C8 1.407 . S
C4 C3 1.366 . S
C4 C5 1.392 . S
C4 H32 0.930 . S
C5 C4 1.392 . S
C5 C6 1.398 . S
C5 H33 0.929 . S
C6 C5 1.398 . S
C6 C7 1.352 . S
C7 C6 1.352 . S
C7 C8 1.384 . S
C7 H34 0.930 . S
C8 C3 1.407 . S
C8 C7 1.384 . S
C8 H35 0.929 . S
C9 O22 1.241 . S
C9 O23 1.273 . S
C10 O24 1.251 . S
C10 O25 1.268 . S
C11 Nd1 2.836 . S
C11 C12 1.498 . S
C11 O26 1.258 . S
C11 O27 1.239 . S
C12 C11 1.498 . S
C12 C13 1.366 . S
C12 C17 1.407 . S
C13 C12 1.366 . S
C13 C14 1.392 . S
C13 H36 0.930 . S
C14 C13 1.392 . S
C14 C15 1.398 . S
C14 H37 0.929 . S
C15 C14 1.398 . S
C15 C16 1.352 . S
C16 C15 1.352 . S
C16 C17 1.384 . S
C16 H38 0.930 . S
C17 C12 1.407 . S
C17 C16 1.384 . S
C17 H39 0.929 . S
C18 O28 1.241 1_455 S
C18 O29 1.273 . S
C19 O30 1.251 . S
C19 O31 1.268 . S
O20 Nd0 2.500 . S
O20 C2 1.258 . S
O21 Nd0 2.492 . S
O21 C2 1.239 . S
O22 Nd0 2.487 . S
O22 C9 1.241 . S
O23 Nd0 2.682 . S
O23 Nd1 2.414 1_455 S
O23 C9 1.273 . S
O24 Nd0 2.410 . S
O24 C10 1.251 . S
O25 Nd1 2.424 1_455 S
O25 C10 1.268 . S
O26 Nd1 2.500 . S
O26 C11 1.258 . S
O27 Nd1 2.492 . S
O27 C11 1.239 . S
O28 Nd1 2.487 . S
O28 C18 1.241 1_655 S
O29 Nd0 2.414 . S
O29 Nd1 2.682 1_455 S
O29 C18 1.273 . S
O30 Nd1 2.410 . S
O30 C19 1.251 . S
O31 Nd0 2.424 1_655 S
O31 C19 1.268 . S
H32 C4 0.930 . S
H33 C5 0.929 . S
H34 C7 0.930 . S
H35 C8 0.929 . S
H36 C13 0.930 . S
H37 C14 0.929 . S
H38 C16 0.930 . S
H39 C17 0.929 . S
Nd40 C42 2.838 . S
Nd40 O60 2.502 . S
Nd40 O61 2.494 . S
Nd40 O62 2.487 . S
Nd40 O63 2.682 1_565 S
Nd40 O64 2.413 . S
Nd40 O69 2.415 1_565 S
Nd40 O71 2.421 1_565 S
Nd41 C51 2.836 . S
Nd41 O63 2.414 . S
Nd41 O65 2.424 1_545 S
Nd41 O66 2.500 . S
Nd41 O67 2.492 . S
Nd41 O68 2.487 . S
Nd41 O69 2.682 . S
Nd41 O70 2.410 . S
C42 Nd40 2.838 . S
C42 C43 1.498 . S
C42 O60 1.258 . S
C42 O61 1.239 . S
C43 C42 1.498 . S
C43 C44 1.366 . S
C43 C48 1.407 . S
C44 C43 1.366 . S
C44 C45 1.392 . S
C44 H72 0.930 . S
C45 C44 1.392 . S
C45 C46 1.398 . S
C45 H73 0.929 . S
C46 C45 1.398 . S
C46 C47 1.352 . S
C47 C46 1.352 . S
C47 C48 1.384 . S
C47 H74 0.930 . S
C48 C43 1.407 . S
C48 C47 1.384 . S
C48 H75 0.929 . S
C49 O62 1.241 1_545 S
C49 O63 1.273 . S
C50 O64 1.251 . S
C50 O65 1.268 . S
C51 Nd41 2.836 . S
C51 C52 1.498 . S
C51 O66 1.258 . S
C51 O67 1.239 . S
C52 C51 1.498 . S
C52 C53 1.366 . S
C52 C57 1.407 . S
C53 C52 1.366 . S
C53 C54 1.392 . S
C53 H76 0.930 . S
C54 C53 1.392 . S
C54 C55 1.398 . S
C54 H77 0.929 . S
C55 C54 1.398 . S
C55 C56 1.352 . S
C56 C55 1.352 . S
C56 C57 1.384 . S
C56 H78 0.930 . S
C57 C52 1.407 . S
C57 C56 1.384 . S
C57 H79 0.929 . S
C58 O68 1.241 . S
C58 O69 1.273 . S
C59 O70 1.251 . S
C59 O71 1.268 . S
O60 Nd40 2.502 . S
O60 C42 1.258 . S
O61 Nd40 2.494 . S
O61 C42 1.239 . S
O62 Nd40 2.487 . S
O62 C49 1.241 1_565 S
O63 Nd40 2.682 1_545 S
O63 Nd41 2.414 . S
O63 C49 1.273 . S
O64 Nd40 2.413 . S
O64 C50 1.251 . S
O65 Nd41 2.424 1_565 S
O65 C50 1.268 . S
O66 Nd41 2.500 . S
O66 C51 1.258 . S
O67 Nd41 2.492 . S
O67 C51 1.239 . S
O68 Nd41 2.487 . S
O68 C58 1.241 . S
O69 Nd40 2.415 1_545 S
O69 Nd41 2.682 . S
O69 C58 1.273 . S
O70 Nd41 2.410 . S
O70 C59 1.251 . S
O71 Nd40 2.421 1_545 S
O71 C59 1.268 . S
H72 C44 0.930 . S
H73 C45 0.929 . S
H74 C47 0.930 . S
H75 C48 0.929 . S
H76 C53 0.930 . S
H77 C54 0.929 . S
H78 C56 0.930 . S
H79 C57 0.929 . S
Nd80 C82 2.836 . S
Nd80 O100 2.500 . S
Nd80 O101 2.492 . S
Nd80 O102 2.487 . S
Nd80 O103 2.682 . S
Nd80 O104 2.410 . S
Nd80 O109 2.414 . S
Nd80 O111 2.424 . S
Nd81 C91 2.836 . S
Nd81 O103 2.414 . S
Nd81 O105 2.424 . S
Nd81 O106 2.500 . S
Nd81 O107 2.492 . S
Nd81 O108 2.487 . S
Nd81 O109 2.682 . S
Nd81 O110 2.410 . S
C82 Nd80 2.836 . S
C82 C83 1.498 . S
C82 O100 1.258 . S
C82 O101 1.239 . S
C83 C82 1.498 . S
C83 C84 1.366 . S
C83 C88 1.407 . S
C84 C83 1.366 . S
C84 C85 1.392 . S
C84 H112 0.930 . S
C85 C84 1.392 . S
C85 C86 1.398 . S
C85 H113 0.929 . S
C86 C85 1.398 . S
C86 C87 1.352 . S
C87 C86 1.352 . S
C87 C88 1.384 . S
C87 H114 0.930 . S
C88 C83 1.407 . S
C88 C87 1.384 . S
C88 H115 0.929 . S
C89 O102 1.241 . S
C89 O103 1.273 . S
C90 O104 1.251 . S
C90 O105 1.268 . S
C91 Nd81 2.836 . S
C91 C92 1.498 . S
C91 O106 1.258 . S
C91 O107 1.239 . S
C92 C91 1.498 . S
C92 C93 1.366 . S
C92 C97 1.407 . S
C93 C92 1.366 . S
C93 C94 1.392 . S
C93 H116 0.930 . S
C94 C93 1.392 . S
C94 C95 1.398 . S
C94 H117 0.929 . S
C95 C94 1.398 . S
C95 C96 1.352 . S
C96 C95 1.352 . S
C96 C97 1.384 . S
C96 H118 0.930 . S
C97 C92 1.407 . S
C97 C96 1.384 . S
C97 H119 0.929 . S
C98 O108 1.241 . S
C98 O109 1.273 . S
C99 O110 1.251 . S
C99 O111 1.268 . S
O100 Nd80 2.500 . S
O100 C82 1.258 . S
O101 Nd80 2.492 . S
O101 C82 1.239 . S
O102 Nd80 2.487 . S
O102 C89 1.241 . S
O103 Nd80 2.682 . S
O103 Nd81 2.414 . S
O103 C89 1.273 . S
O104 Nd80 2.410 . S
O104 C90 1.251 . S
O105 Nd81 2.424 . S
O105 C90 1.268 . S
O106 Nd81 2.500 . S
O106 C91 1.258 . S
O107 Nd81 2.492 . S
O107 C91 1.239 . S
O108 Nd81 2.487 . S
O108 C98 1.241 . S
O109 Nd80 2.414 . S
O109 Nd81 2.682 . S
O109 C98 1.273 . S
O110 Nd81 2.410 . S
O110 C99 1.251 . S
O111 Nd80 2.424 . S
O111 C99 1.268 . S
H112 C84 0.930 . S
H113 C85 0.929 . S
H114 C87 0.930 . S
H115 C88 0.929 . S
H116 C93 0.930 . S
H117 C94 0.929 . S
H118 C96 0.930 . S
H119 C97 0.929 . S
C120 C121 1.384 . S
C120 H133 0.947 . S
C120 C155 1.382 . S
C121 C120 1.384 . S
C121 C122 1.378 . S
C122 C121 1.378 . S
C122 C123 1.378 . S
C122 H134 0.952 . S
C123 C122 1.378 . S
C123 H135 0.950 . S
C123 C154 1.383 . S
H124 C143 0.947 . S
H125 C144 0.946 . S
H126 C146 0.953 . S
H127 C147 0.945 . S
H128 C149 0.952 . S
H129 C150 0.949 . S
H130 C152 0.950 . S
H131 C153 0.948 . S
H132 C155 0.951 . S
H133 C120 0.947 . S
H134 C122 0.952 . S
H135 C123 0.950 . S
N136 C139 1.382 . S
N136 C141 1.363 1_545 S
N137 C139 1.371 . S
N137 C140 1.372 . S
N138 C140 1.361 1_565 S
N138 C141 1.377 . S
C139 N136 1.382 . S
C139 N137 1.371 . S
C139 C142 1.480 . S
C140 N137 1.372 . S
C140 N138 1.361 1_545 S
C140 C148 1.457 . S
C141 N136 1.363 1_565 S
C141 N138 1.377 . S
C141 C154 1.479 . S
C142 C139 1.480 . S
C142 C143 1.383 . S
C142 C147 1.385 . S
C143 H124 0.947 . S
C143 C142 1.383 . S
C143 C144 1.388 . S
C144 H125 0.946 . S
C144 C143 1.388 . S
C144 C145 1.384 . S
C145 C144 1.384 . S
C145 C146 1.377 . S
C146 H126 0.953 . S
C146 C145 1.377 . S
C146 C147 1.369 . S
C147 H127 0.945 . S
C147 C142 1.385 . S
C147 C146 1.369 . S
C148 C140 1.457 . S
C148 C149 1.372 . S
C148 C153 1.364 1_545 S
C149 H128 0.952 . S
C149 C148 1.372 . S
C149 C150 1.389 . S
C150 H129 0.949 . S
C150 C149 1.389 . S
C150 C151 1.387 . S
C151 C150 1.387 . S
C151 C152 1.372 1_545 S
C152 H130 0.950 . S
C152 C151 1.372 1_565 S
C152 C153 1.379 . S
C153 H131 0.948 . S
C153 C148 1.364 1_565 S
C153 C152 1.379 . S
C154 C123 1.383 . S
C154 C141 1.479 . S
C154 C155 1.398 . S
C155 C120 1.382 . S
C155 H132 0.951 . S
C155 C154 1.398 . S
C156 C157 1.384 . S
C156 H169 0.947 . S
C156 C191 1.382 . S
C157 C156 1.384 . S
C157 C158 1.378 . S
C158 C157 1.378 . S
C158 C159 1.378 . S
C158 H170 0.952 . S
C159 C158 1.378 . S
C159 H171 0.950 . S
C159 C190 1.383 . S
H160 C179 0.947 . S
H161 C180 0.946 . S
H162 C182 0.953 . S
H163 C183 0.945 . S
H164 C185 0.952 . S
H165 C186 0.949 . S
H166 C188 0.950 . S
H167 C189 0.948 . S
H168 C191 0.951 . S
H169 C156 0.947 . S
H170 C158 0.952 . S
H171 C159 0.950 . S
N172 C175 1.382 . S
N172 C177 1.363 . S
N173 C175 1.371 . S
N173 C176 1.372 . S
N174 C176 1.361 . S
N174 C177 1.377 . S
C175 N172 1.382 . S
C175 N173 1.371 . S
C175 C178 1.480 . S
C176 N173 1.372 . S
C176 N174 1.361 . S
C176 C184 1.457 . S
C177 N172 1.363 . S
C177 N174 1.377 . S
C177 C190 1.479 . S
C178 C175 1.480 . S
C178 C179 1.383 . S
C178 C183 1.385 . S
C179 H160 0.947 . S
C179 C178 1.383 . S
C179 C180 1.388 . S
C180 H161 0.946 . S
C180 C179 1.388 . S
C180 C181 1.384 . S
C181 C180 1.384 . S
C181 C182 1.377 . S
C182 H162 0.953 . S
C182 C181 1.377 . S
C182 C183 1.369 . S
C183 H163 0.945 . S
C183 C178 1.385 . S
C183 C182 1.369 . S
C184 C176 1.457 . S
C184 C185 1.372 . S
C184 C189 1.364 . S
C185 H164 0.952 . S
C185 C184 1.372 . S
C185 C186 1.389 . S
C186 H165 0.949 . S
C186 C185 1.389 . S
C186 C187 1.387 . S
C187 C186 1.387 . S
C187 C188 1.372 . S
C188 H166 0.950 . S
C188 C187 1.372 . S
C188 C189 1.379 . S
C189 H167 0.948 . S
C189 C184 1.364 . S
C189 C188 1.379 . S
C190 C159 1.383 . S
C190 C177 1.479 . S
C190 C191 1.398 . S
C191 C156 1.382 . S
C191 H168 0.951 . S
C191 C190 1.398 . S
C192 C193 1.384 . S
C192 H205 0.947 . S
C192 C227 1.382 . S
C193 C192 1.384 . S
C193 C194 1.378 . S
C194 C193 1.378 . S
C194 C195 1.378 . S
C194 H206 0.952 . S
C195 C194 1.378 . S
C195 H207 0.950 . S
C195 C226 1.383 . S
H196 C215 0.947 . S
H197 C216 0.946 . S
H198 C218 0.953 . S
H199 C219 0.945 . S
H200 C221 0.952 . S
H201 C222 0.949 . S
H202 C224 0.950 . S
H203 C225 0.948 . S
H204 C227 0.951 . S
H205 C192 0.947 . S
H206 C194 0.952 . S
H207 C195 0.950 . S
N208 C211 1.382 . S
N208 C213 1.363 1_455 S
N209 C211 1.371 . S
N209 C212 1.372 . S
N210 C212 1.361 1_655 S
N210 C213 1.377 . S
C211 N208 1.382 . S
C211 N209 1.371 . S
C211 C214 1.480 . S
C212 N209 1.372 . S
C212 N210 1.361 1_455 S
C212 C220 1.457 . S
C213 N208 1.363 1_655 S
C213 N210 1.377 . S
C213 C226 1.479 . S
C214 C211 1.480 . S
C214 C215 1.383 . S
C214 C219 1.385 . S
C215 H196 0.947 . S
C215 C214 1.383 . S
C215 C216 1.388 . S
C216 H197 0.946 . S
C216 C215 1.388 . S
C216 C217 1.384 . S
C217 C216 1.384 . S
C217 C218 1.377 . S
C218 H198 0.953 . S
C218 C217 1.377 . S
C218 C219 1.369 . S
C219 H199 0.945 . S
C219 C214 1.385 . S
C219 C218 1.369 . S
C220 C212 1.457 . S
C220 C221 1.372 . S
C220 C225 1.364 1_455 S
C221 H200 0.952 . S
C221 C220 1.372 . S
C221 C222 1.389 1_556 S
C222 H201 0.949 . S
C222 C221 1.389 1_554 S
C222 C223 1.387 . S
C223 C222 1.387 . S
C223 C224 1.372 1_455 S
C224 H202 0.950 . S
C224 C223 1.372 1_655 S
C224 C225 1.379 1_554 S
C225 H203 0.948 . S
C225 C220 1.364 1_655 S
C225 C224 1.379 1_556 S
C226 C195 1.383 . S
C226 C213 1.479 . S
C226 C227 1.398 . S
C227 C192 1.382 . S
C227 H204 0.951 . S
C227 C226 1.398 . S
C228 C229 1.384 . S
C228 H241 0.947 . S
C228 C263 1.382 . S
C229 C228 1.384 . S
C229 C230 1.378 . S
C230 C229 1.378 . S
C230 C231 1.378 . S
C230 H242 0.952 . S
C231 C230 1.378 . S
C231 H243 0.950 . S
C231 C262 1.383 . S
H232 C251 0.947 . S
H233 C252 0.946 . S
H234 C254 0.953 . S
H235 C255 0.945 . S
H236 C257 0.952 . S
H237 C258 0.949 . S
H238 C260 0.950 . S
H239 C261 0.948 . S
H240 C263 0.951 . S
H241 C228 0.947 . S
H242 C230 0.952 . S
H243 C231 0.950 . S
N244 C247 1.382 1_455 S
N244 C249 1.363 . S
N245 C247 1.371 . S
N245 C248 1.372 1_655 S
N246 C248 1.361 . S
N246 C249 1.377 . S
C247 N244 1.382 1_655 S
C247 N245 1.371 . S
C247 C250 1.480 . S
C248 N245 1.372 1_455 S
C248 N246 1.361 . S
C248 C256 1.457 . S
C249 N244 1.363 . S
C249 N246 1.377 . S
C249 C262 1.479 . S
C250 C247 1.480 . S
C250 C251 1.383 . S
C250 C255 1.385 . S
C251 H232 0.947 . S
C251 C250 1.383 . S
C251 C252 1.388 . S
C252 H233 0.946 . S
C252 C251 1.388 . S
C252 C253 1.384 . S
C253 C252 1.384 . S
C253 C254 1.377 . S
C254 H234 0.953 . S
C254 C253 1.377 . S
C254 C255 1.369 . S
C255 H235 0.945 . S
C255 C250 1.385 . S
C255 C254 1.369 . S
C256 C248 1.457 . S
C256 C257 1.372 1_455 S
C256 C261 1.364 . S
C257 H236 0.952 . S
C257 C256 1.372 1_655 S
C257 C258 1.389 . S
C258 H237 0.949 . S
C258 C257 1.389 . S
C258 C259 1.387 1_655 S
C259 C258 1.387 1_455 S
C259 C260 1.372 . S
C260 H238 0.950 . S
C260 C259 1.372 . S
C260 C261 1.379 . S
C261 H239 0.948 . S
C261 C256 1.364 . S
C261 C260 1.379 . S
C262 C231 1.383 . S
C262 C249 1.479 . S
C262 C263 1.398 . S
C263 C228 1.382 . S
C263 H240 0.951 . S
C263 C262 1.398 . S
C264 C265 1.384 . S
C264 H277 0.947 . S
C264 C299 1.382 . S
C265 C264 1.384 . S
C265 C266 1.378 . S
C266 C265 1.378 . S
C266 C267 1.378 . S
C266 H278 0.952 . S
C267 C266 1.378 . S
C267 H279 0.950 . S
C267 C298 1.383 . S
H268 C287 0.947 . S
H269 C288 0.946 . S
H270 C290 0.953 . S
H271 C291 0.945 . S
H272 C293 0.952 . S
H273 C294 0.949 . S
H274 C296 0.950 . S
H275 C297 0.948 . S
H276 C299 0.951 . S
H277 C264 0.947 . S
H278 C266 0.952 . S
H279 C267 0.950 . S
N280 C283 1.382 1_545 S
N280 C285 1.363 . S
N281 C283 1.371 . S
N281 C284 1.372 1_565 S
N282 C284 1.361 . S
N282 C285 1.377 . S
C283 N280 1.382 1_565 S
C283 N281 1.371 . S
C283 C286 1.480 . S
C284 N281 1.372 1_545 S
C284 N282 1.361 . S
C284 C292 1.457 . S
C285 N280 1.363 . S
C285 N282 1.377 . S
C285 C298 1.479 . S
C286 C283 1.480 . S
C286 C287 1.383 . S
C286 C291 1.385 . S
C287 H268 0.947 . S
C287 C286 1.383 . S
C287 C288 1.388 . S
C288 H269 0.946 . S
C288 C287 1.388 . S
C288 C289 1.384 . S
C289 C288 1.384 . S
C289 C290 1.377 . S
C290 H270 0.953 . S
C290 C289 1.377 . S
C290 C291 1.369 . S
C291 H271 0.945 . S
C291 C286 1.385 . S
C291 C290 1.369 . S
C292 C284 1.457 . S
C292 C293 1.372 1_545 S
C292 C297 1.364 . S
C293 H272 0.952 . S
C293 C292 1.372 1_565 S
C293 C294 1.389 . S
C294 H273 0.949 . S
C294 C293 1.389 . S
C294 C295 1.387 1_565 S
C295 C294 1.387 1_545 S
C295 C296 1.372 . S
C296 H274 0.950 . S
C296 C295 1.372 . S
C296 C297 1.379 . S
C297 H275 0.948 . S
C297 C292 1.364 . S
C297 C296 1.379 . S
C298 C267 1.383 . S
C298 C285 1.479 . S
C298 C299 1.398 . S
C299 C264 1.382 . S
C299 H276 0.951 . S
C299 C298 1.398 . S
C300 C301 1.384 . S
C300 H313 0.947 . S
C300 C335 1.382 . S
C301 C300 1.384 . S
C301 C302 1.378 . S
C302 C301 1.378 . S
C302 C303 1.378 . S
C302 H314 0.952 . S
C303 C302 1.378 . S
C303 H315 0.950 . S
C303 C334 1.383 . S
H304 C323 0.947 . S
H305 C324 0.946 . S
H306 C326 0.953 . S
H307 C327 0.945 . S
H308 C329 0.952 . S
H309 C330 0.949 . S
H310 C332 0.950 . S
H311 C333 0.948 . S
H312 C335 0.951 . S
H313 C300 0.947 . S
H314 C302 0.952 . S
H315 C303 0.950 . S
N316 C319 1.382 . S
N316 C321 1.363 . S
N317 C319 1.371 . S
N317 C320 1.372 . S
N318 C320 1.361 . S
N318 C321 1.377 . S
C319 N316 1.382 . S
C319 N317 1.371 . S
C319 C322 1.480 . S
C320 N317 1.372 . S
C320 N318 1.361 . S
C320 C328 1.457 . S
C321 N316 1.363 . S
C321 N318 1.377 . S
C321 C334 1.479 . S
C322 C319 1.480 . S
C322 C323 1.383 . S
C322 C327 1.385 . S
C323 H304 0.947 . S
C323 C322 1.383 . S
C323 C324 1.388 . S
C324 H305 0.946 . S
C324 C323 1.388 . S
C324 C325 1.384 . S
C325 C324 1.384 . S
C325 C326 1.377 . S
C326 H306 0.953 . S
C326 C325 1.377 . S
C326 C327 1.369 . S
C327 H307 0.945 . S
C327 C322 1.385 . S
C327 C326 1.369 . S
C328 C320 1.457 . S
C328 C329 1.372 . S
C328 C333 1.364 . S
C329 H308 0.952 . S
C329 C328 1.372 . S
C329 C330 1.389 . S
C330 H309 0.949 . S
C330 C329 1.389 . S
C330 C331 1.387 1_554 S
C331 C330 1.387 1_556 S
C331 C332 1.372 1_556 S
C332 H310 0.950 . S
C332 C331 1.372 1_554 S
C332 C333 1.379 . S
C333 H311 0.948 . S
C333 C328 1.364 . S
C333 C332 1.379 . S
C334 C303 1.383 . S
C334 C321 1.479 . S
C334 C335 1.398 . S
C335 C300 1.382 . S
C335 H312 0.951 . S
C335 C334 1.398 . S
C336 C337 1.363 . S
C336 C342 1.379 . S
C336 N344 1.356 . S
C337 C336 1.363 . S
C337 C343 1.363 . S
C338 C339 1.363 . S
C338 C343 1.379 . S
C338 N345 1.356 . S
C339 C338 1.363 . S
C339 C342 1.363 . S
N340 C342 1.356 . S
N340 H352 0.984 . S
N340 H353 0.985 . S
N341 C343 1.356 . S
N341 H346 0.984 . S
N341 H347 0.985 . S
C342 C336 1.379 . S
C342 C339 1.363 . S
C342 N340 1.356 . S
C343 C337 1.363 . S
C343 C338 1.379 . S
C343 N341 1.356 . S
N344 C336 1.356 . S
N344 H350 0.984 . S
N344 H351 0.984 . S
N345 C338 1.356 . S
N345 H348 0.984 . S
N345 H349 0.985 . S
H346 N341 0.984 . S
H347 N341 0.985 . S
H348 N345 0.984 . S
H349 N345 0.985 . S
H350 N344 0.984 . S
H351 N344 0.984 . S
H352 N340 0.984 . S
H353 N340 0.985 . S
C354 C355 1.363 . S
C354 C360 1.379 . S
C354 N362 1.356 . S
C355 C354 1.363 . S
C355 C361 1.363 . S
C356 C357 1.363 . S
C356 C361 1.379 . S
C356 N363 1.356 . S
C357 C356 1.363 . S
C357 C360 1.363 . S
N358 C360 1.356 . S
N358 H370 0.984 . S
N358 H371 0.985 . S
N359 C361 1.356 . S
N359 H364 0.984 . S
N359 H365 0.985 . S
C360 C354 1.379 . S
C360 C357 1.363 . S
C360 N358 1.356 . S
C361 C355 1.363 . S
C361 C356 1.379 . S
C361 N359 1.356 . S
N362 C354 1.356 . S
N362 H368 0.984 . S
N362 H369 0.984 . S
N363 C356 1.356 . S
N363 H366 0.984 . S
N363 H367 0.985 . S
H364 N359 0.984 . S
H365 N359 0.985 . S
H366 N363 0.984 . S
H367 N363 0.985 . S
H368 N362 0.984 . S
H369 N362 0.984 . S
H370 N358 0.984 . S
H371 N358 0.985 . S
C372 C373 1.363 . S
C372 C378 1.379 . S
C372 N380 1.356 . S
C373 C372 1.363 . S
C373 C379 1.363 . S
C374 C375 1.363 . S
C374 C379 1.379 . S
C374 N381 1.356 . S
C375 C374 1.363 . S
C375 C378 1.363 . S
N376 C378 1.356 . S
N376 H388 0.984 . S
N376 H389 0.985 . S
N377 C379 1.356 . S
N377 H382 0.984 . S
N377 H383 0.985 . S
C378 C372 1.379 . S
C378 C375 1.363 . S
C378 N376 1.356 . S
C379 C373 1.363 . S
C379 C374 1.379 . S
C379 N377 1.356 . S
N380 C372 1.356 . S
N380 H386 0.984 . S
N380 H387 0.984 . S
N381 C374 1.356 . S
N381 H384 0.984 . S
N381 H385 0.985 . S
H382 N377 0.984 . S
H383 N377 0.985 . S
H384 N381 0.984 . S
H385 N381 0.985 . S
H386 N380 0.984 . S
H387 N380 0.984 . S
H388 N376 0.984 . S
H389 N376 0.985 . S
C390 C391 1.363 . S
C390 C396 1.379 . S
C390 N398 1.356 . S
C391 C390 1.363 . S
C391 C397 1.363 . S
C392 C393 1.363 . S
C392 C397 1.379 . S
C392 N399 1.356 . S
C393 C392 1.363 . S
C393 C396 1.363 . S
N394 C396 1.356 . S
N394 H406 0.984 . S
N394 H407 0.985 . S
N395 C397 1.356 . S
N395 H400 0.984 . S
N395 H401 0.985 . S
C396 C390 1.379 . S
C396 C393 1.363 . S
C396 N394 1.356 . S
C397 C391 1.363 . S
C397 C392 1.379 . S
C397 N395 1.356 . S
N398 C390 1.356 . S
N398 H404 0.984 . S
N398 H405 0.984 . S
N399 C392 1.356 . S
N399 H402 0.984 . S
N399 H403 0.985 . S
H400 N395 0.984 . S
H401 N395 0.985 . S
H402 N399 0.984 . S
H403 N399 0.985 . S
H404 N398 0.984 . S
H405 N398 0.984 . S
H406 N394 0.984 . S
H407 N394 0.985 . S
C408 C409 1.363 . S
C408 C414 1.379 . S
C408 N416 1.356 . S
C409 C408 1.363 . S
C409 C415 1.363 . S
C410 C411 1.363 . S
C410 C415 1.379 . S
C410 N417 1.356 . S
C411 C410 1.363 . S
C411 C414 1.363 . S
N412 C414 1.356 . S
N412 H424 0.984 . S
N412 H425 0.985 . S
N413 C415 1.356 . S
N413 H418 0.984 . S
N413 H419 0.985 . S
C414 C408 1.379 . S
C414 C411 1.363 . S
C414 N412 1.356 . S
C415 C409 1.363 . S
C415 C410 1.379 . S
C415 N413 1.356 . S
N416 C408 1.356 . S
N416 H422 0.984 . S
N416 H423 0.984 . S
N417 C410 1.356 . S
N417 H420 0.984 . S
N417 H421 0.985 . S
H418 N413 0.984 . S
H419 N413 0.985 . S
H420 N417 0.984 . S
H421 N417 0.985 . S
H422 N416 0.984 . S
H423 N416 0.984 . S
H424 N412 0.984 . S
H425 N412 0.985 . S
C426 C427 1.363 . S
C426 C432 1.379 . S
C426 N434 1.356 . S
C427 C426 1.363 . S
C427 C433 1.363 . S
C428 C429 1.363 . S
C428 C433 1.379 . S
C428 N435 1.356 . S
C429 C428 1.363 . S
C429 C432 1.363 . S
N430 C432 1.356 . S
N430 H442 0.984 . S
N430 H443 0.985 . S
N431 C433 1.356 . S
N431 H436 0.984 . S
N431 H437 0.985 . S
C432 C426 1.379 . S
C432 C429 1.363 . S
C432 N430 1.356 . S
C433 C427 1.363 . S
C433 C428 1.379 . S
C433 N431 1.356 . S
N434 C426 1.356 . S
N434 H440 0.984 . S
N434 H441 0.984 . S
N435 C428 1.356 . S
N435 H438 0.984 . S
N435 H439 0.985 . S
H436 N431 0.984 . S
H437 N431 0.985 . S
H438 N435 0.984 . S
H439 N435 0.985 . S
H440 N434 0.984 . S
H441 N434 0.984 . S
H442 N430 0.984 . S
H443 N430 0.985 . S
C444 C445 1.363 . S
C444 C450 1.379 . S
C444 N452 1.356 . S
C445 C444 1.363 . S
C445 C451 1.363 . S
C446 C447 1.363 . S
C446 C451 1.379 . S
C446 N453 1.356 . S
C447 C446 1.363 . S
C447 C450 1.363 . S
N448 C450 1.356 . S
N448 H460 0.984 . S
N448 H461 0.985 . S
N449 C451 1.356 . S
N449 H454 0.984 . S
N449 H455 0.985 . S
C450 C444 1.379 . S
C450 C447 1.363 . S
C450 N448 1.356 . S
C451 C445 1.363 . S
C451 C446 1.379 . S
C451 N449 1.356 . S
N452 C444 1.356 . S
N452 H458 0.984 . S
N452 H459 0.984 . S
N453 C446 1.356 . S
N453 H456 0.984 . S
N453 H457 0.985 . S
H454 N449 0.984 . S
H455 N449 0.985 . S
H456 N453 0.984 . S
H457 N453 0.985 . S
H458 N452 0.984 . S
H459 N452 0.984 . S
H460 N448 0.984 . S
H461 N448 0.985 . S
C462 C463 1.363 . S
C462 C468 1.379 . S
C462 N470 1.356 . S
C463 C462 1.363 . S
C463 C469 1.363 . S
C464 C465 1.363 . S
C464 C469 1.379 . S
C464 N471 1.356 . S
C465 C464 1.363 . S
C465 C468 1.363 . S
N466 C468 1.356 . S
N466 H478 0.984 . S
N466 H479 0.985 . S
N467 C469 1.356 . S
N467 H472 0.984 . S
N467 H473 0.985 . S
C468 C462 1.379 . S
C468 C465 1.363 . S
C468 N466 1.356 . S
C469 C463 1.363 . S
C469 C464 1.379 . S
C469 N467 1.356 . S
N470 C462 1.356 . S
N470 H476 0.984 . S
N470 H477 0.984 . S
N471 C464 1.356 . S
N471 H474 0.984 . S
N471 H475 0.985 . S
H472 N467 0.984 . S
H473 N467 0.985 . S
H474 N471 0.984 . S
H475 N471 0.985 . S
H476 N470 0.984 . S
H477 N470 0.984 . S
H478 N466 0.984 . S
H479 N466 0.985 . S
C480 C481 1.363 . S
C480 C486 1.379 . S
C480 N488 1.356 . S
C481 C480 1.363 . S
C481 C487 1.363 . S
C482 C483 1.363 . S
C482 C487 1.379 . S
C482 N489 1.356 . S
C483 C482 1.363 . S
C483 C486 1.363 . S
N484 C486 1.356 . S
N484 H496 0.984 . S
N484 H497 0.985 . S
N485 C487 1.356 . S
N485 H490 0.984 . S
N485 H491 0.985 . S
C486 C480 1.379 . S
C486 C483 1.363 . S
C486 N484 1.356 . S
C487 C481 1.363 . S
C487 C482 1.379 . S
C487 N485 1.356 . S
N488 C480 1.356 . S
N488 H494 0.984 . S
N488 H495 0.984 . S
N489 C482 1.356 . S
N489 H492 0.984 . S
N489 H493 0.985 . S
H490 N485 0.984 . S
H491 N485 0.985 . S
H492 N489 0.984 . S
H493 N489 0.985 . S
H494 N488 0.984 . S
H495 N488 0.984 . S
H496 N484 0.984 . S
H497 N484 0.985 . S
C498 C499 1.363 . S
C498 C504 1.379 . S
C498 N506 1.356 . S
C499 C498 1.363 . S
C499 C505 1.363 . S
C500 C501 1.363 . S
C500 C505 1.379 . S
C500 N507 1.356 . S
C501 C500 1.363 . S
C501 C504 1.363 . S
N502 C504 1.356 . S
N502 H514 0.984 . S
N502 H515 0.985 . S
N503 C505 1.356 . S
N503 H508 0.984 . S
N503 H509 0.985 . S
C504 C498 1.379 . S
C504 C501 1.363 . S
C504 N502 1.356 . S
C505 C499 1.363 . S
C505 C500 1.379 . S
C505 N503 1.356 . S
N506 C498 1.356 . S
N506 H512 0.984 . S
N506 H513 0.984 . S
N507 C500 1.356 . S
N507 H510 0.984 . S
N507 H511 0.985 . S
H508 N503 0.984 . S
H509 N503 0.985 . S
H510 N507 0.984 . S
H511 N507 0.985 . S
H512 N506 0.984 . S
H513 N506 0.984 . S
H514 N502 0.984 . S
H515 N502 0.985 . S
C516 C517 1.363 . S
C516 C522 1.379 . S
C516 N524 1.356 . S
C517 C516 1.363 . S
C517 C523 1.363 . S
C518 C519 1.363 . S
C518 C523 1.379 . S
C518 N525 1.356 . S
C519 C518 1.363 . S
C519 C522 1.363 . S
N520 C522 1.356 . S
N520 H532 0.984 . S
N520 H533 0.985 . S
N521 C523 1.356 . S
N521 H526 0.984 . S
N521 H527 0.985 . S
C522 C516 1.379 . S
C522 C519 1.363 . S
C522 N520 1.356 . S
C523 C517 1.363 . S
C523 C518 1.379 . S
C523 N521 1.356 . S
N524 C516 1.356 . S
N524 H530 0.984 . S
N524 H531 0.984 . S
N525 C518 1.356 . S
N525 H528 0.984 . S
N525 H529 0.985 . S
H526 N521 0.984 . S
H527 N521 0.985 . S
H528 N525 0.984 . S
H529 N525 0.985 . S
H530 N524 0.984 . S
H531 N524 0.984 . S
H532 N520 0.984 . S
H533 N520 0.985 . S
C534 C535 1.363 . S
C534 C540 1.379 . S
C534 N542 1.356 . S
C535 C534 1.363 . S
C535 C541 1.363 . S
C536 C537 1.363 . S
C536 C541 1.379 . S
C536 N543 1.356 . S
C537 C536 1.363 . S
C537 C540 1.363 . S
N538 C540 1.356 . S
N538 H550 0.984 . S
N538 H551 0.985 . S
N539 C541 1.356 . S
N539 H544 0.984 . S
N539 H545 0.985 . S
C540 C534 1.379 . S
C540 C537 1.363 . S
C540 N538 1.356 . S
C541 C535 1.363 . S
C541 C536 1.379 . S
C541 N539 1.356 . S
N542 C534 1.356 . S
N542 H548 0.984 . S
N542 H549 0.984 . S
N543 C536 1.356 . S
N543 H546 0.984 . S
N543 H547 0.985 . S
H544 N539 0.984 . S
H545 N539 0.985 . S
H546 N543 0.984 . S
H547 N543 0.985 . S
H548 N542 0.984 . S
H549 N542 0.984 . S
H550 N538 0.984 . S
H551 N538 0.985 . S
C552 C553 1.363 1_655 S
C552 C558 1.379 . S
C552 N560 1.356 . S
C553 C552 1.363 1_455 S
C553 C559 1.363 . S
C554 C555 1.363 . S
C554 C559 1.379 . S
C554 N561 1.356 . S
C555 C554 1.363 . S
C555 C558 1.363 1_455 S
N556 C558 1.356 . S
N556 H568 0.984 . S
N556 H569 0.985 . S
N557 C559 1.356 . S
N557 H562 0.984 . S
N557 H563 0.985 . S
C558 C552 1.379 . S
C558 C555 1.363 1_655 S
C558 N556 1.356 . S
C559 C553 1.363 . S
C559 C554 1.379 . S
C559 N557 1.356 . S
N560 C552 1.356 . S
N560 H566 0.984 . S
N560 H567 0.984 . S
N561 C554 1.356 . S
N561 H564 0.984 . S
N561 H565 0.985 . S
H562 N557 0.984 . S
H563 N557 0.985 . S
H564 N561 0.984 . S
H565 N561 0.985 . S
H566 N560 0.984 . S
H567 N560 0.984 . S
H568 N556 0.984 . S
H569 N556 0.985 . S
C570 C571 1.363 . S
C570 C576 1.379 . S
C570 N578 1.356 . S
C571 C570 1.363 . S
C571 C577 1.363 1_545 S
C572 C573 1.363 1_565 S
C572 C577 1.379 . S
C572 N579 1.356 . S
C573 C572 1.363 1_545 S
C573 C576 1.363 . S
N574 C576 1.356 . S
N574 H586 0.984 . S
N574 H587 0.985 . S
N575 C577 1.356 . S
N575 H580 0.984 . S
N575 H581 0.985 . S
C576 C570 1.379 . S
C576 C573 1.363 . S
C576 N574 1.356 . S
C577 C571 1.363 1_565 S
C577 C572 1.379 . S
C577 N575 1.356 . S
N578 C570 1.356 . S
N578 H584 0.984 . S
N578 H585 0.984 . S
N579 C572 1.356 . S
N579 H582 0.984 . S
N579 H583 0.985 . S
H580 N575 0.984 . S
H581 N575 0.985 . S
H582 N579 0.984 . S
H583 N579 0.985 . S
H584 N578 0.984 . S
H585 N578 0.984 . S
H586 N574 0.984 . S
H587 N574 0.985 . S
C588 C589 1.363 . S
C588 C594 1.379 . S
C588 N596 1.356 . S
C589 C588 1.363 . S
C589 C595 1.363 . S
C590 C591 1.363 . S
C590 C595 1.379 . S
C590 N597 1.356 . S
C591 C590 1.363 . S
C591 C594 1.363 . S
N592 C594 1.356 . S
N592 H604 0.984 . S
N592 H605 0.985 . S
N593 C595 1.356 . S
N593 H598 0.984 . S
N593 H599 0.985 . S
C594 C588 1.379 . S
C594 C591 1.363 . S
C594 N592 1.356 . S
C595 C589 1.363 . S
C595 C590 1.379 . S
C595 N593 1.356 . S
N596 C588 1.356 . S
N596 H602 0.984 . S
N596 H603 0.984 . S
N597 C590 1.356 . S
N597 H600 0.984 . S
N597 H601 0.985 . S
H598 N593 0.984 . S
H599 N593 0.985 . S
H600 N597 0.984 . S
H601 N597 0.985 . S
H602 N596 0.984 . S
H603 N596 0.984 . S
H604 N592 0.984 . S
H605 N592 0.985 . S
C606 C607 1.363 1_565 S
C606 C612 1.379 . S
C606 N614 1.356 . S
C607 C606 1.363 1_545 S
C607 C613 1.363 . S
C608 C609 1.363 . S
C608 C613 1.379 . S
C608 N615 1.356 . S
C609 C608 1.363 . S
C609 C612 1.363 1_545 S
N610 C612 1.356 . S
N610 H622 0.984 . S
N610 H623 0.985 . S
N611 C613 1.356 . S
N611 H616 0.984 . S
N611 H617 0.985 . S
C612 C606 1.379 . S
C612 C609 1.363 1_565 S
C612 N610 1.356 . S
C613 C607 1.363 . S
C613 C608 1.379 . S
C613 N611 1.356 . S
N614 C606 1.356 . S
N614 H620 0.984 . S
N614 H621 0.984 . S
N615 C608 1.356 . S
N615 H618 0.984 . S
N615 H619 0.985 . S
H616 N611 0.984 . S
H617 N611 0.985 . S
H618 N615 0.984 . S
H619 N615 0.985 . S
H620 N614 0.984 . S
H621 N614 0.984 . S
H622 N610 0.984 . S
H623 N610 0.985 . S
C624 C625 1.363 . S
C624 C630 1.379 . S
C624 N632 1.356 . S
C625 C624 1.363 . S
C625 C631 1.363 . S
C626 C627 1.363 . S
C626 C631 1.379 . S
C626 N633 1.356 . S
C627 C626 1.363 . S
C627 C630 1.363 . S
N628 C630 1.356 . S
N628 H640 0.984 . S
N628 H641 0.985 . S
N629 C631 1.356 . S
N629 H634 0.984 . S
N629 H635 0.985 . S
C630 C624 1.379 . S
C630 C627 1.363 . S
C630 N628 1.356 . S
C631 C625 1.363 . S
C631 C626 1.379 . S
C631 N629 1.356 . S
N632 C624 1.356 . S
N632 H638 0.984 . S
N632 H639 0.984 . S
N633 C626 1.356 . S
N633 H636 0.984 . S
N633 H637 0.985 . S
H634 N629 0.984 . S
H635 N629 0.985 . S
H636 N633 0.984 . S
H637 N633 0.985 . S
H638 N632 0.984 . S
H639 N632 0.984 . S
H640 N628 0.984 . S
H641 N628 0.985 . S
C642 C643 1.363 1_655 S
C642 C648 1.379 . S
C642 N650 1.356 . S
C643 C642 1.363 1_455 S
C643 C649 1.363 . S
C644 C645 1.363 . S
C644 C649 1.379 . S
C644 N651 1.356 . S
C645 C644 1.363 . S
C645 C648 1.363 1_455 S
N646 C648 1.356 . S
N646 H658 0.984 . S
N646 H659 0.985 . S
N647 C649 1.356 . S
N647 H652 0.984 . S
N647 H653 0.985 . S
C648 C642 1.379 . S
C648 C645 1.363 1_655 S
C648 N646 1.356 . S
C649 C643 1.363 . S
C649 C644 1.379 . S
C649 N647 1.356 . S
N650 C642 1.356 . S
N650 H656 0.984 . S
N650 H657 0.984 . S
N651 C644 1.356 . S
N651 H654 0.984 . S
N651 H655 0.985 . S
H652 N647 0.984 . S
H653 N647 0.985 . S
H654 N651 0.984 . S
H655 N651 0.985 . S
H656 N650 0.984 . S
H657 N650 0.984 . S
H658 N646 0.984 . S
H659 N646 0.985 . S
C337 C10 3.188 . S
C339 C325 3.090 . S
C355 C55 1.293 . S
C357 C253 1.329 . S
C373 C90 2.008 . S
C375 C289 1.943 . S
C391 C19 3.107 . S
C393 C301 3.065 . S
C411 C229 1.391 . S
C409 C46 1.352 . S
C429 C265 2.128 . S
C427 C99 2.200 . S
C445 C50 2.012 . S
C447 C181 1.923 . S
C463 C95 0.918 . S
C465 C193 0.962 . S
C481 C6 1.368 . S
C483 C121 1.388 . S
C501 C157 2.077 . S
C499 C59 2.168 . S
C519 C217 0.582 . S
C517 C86 0.667 . S
C535 C15 1.411 . S
C537 C145 1.431 . S
C555 C223 1.087 . S
C553 C18 1.102 . S
C571 C49 1.457 . S
C573 C151 1.483 . S
C589 C98 1.328 . S
C591 C187 1.352 . S
C609 C295 1.366 . S
C607 C58 1.332 . S
C627 C331 1.793 . S
C625 C89 1.721 . S
C643 C9 1.451 . S
C645 C259 1.503 . S
