# Generated by pormake.
# Topology hwx, (6,3)-cn, num edge types: 1
# Building blocks:
#     Node 0, Type 0, BuildingBlock: IZENUY_clean_sbu_0, # of connection points: 6
#     Node 1, Type 0, BuildingBlock: IZENUY_clean_sbu_0, # of connection points: 6
#     Node 2, Type 0, BuildingBlock: IZENUY_clean_sbu_0, # of connection points: 6
#     Node 3, Type 0, BuildingBlock: IZENUY_clean_sbu_0, # of connection points: 6
#     Node 4, Type 1, BuildingBlock: BETDAH_clean_linker_0, # of connection points: 3
#     Node 5, Type 1, BuildingBlock: BETDAH_clean_linker_0, # of connection points: 3
#     Node 6, Type 1, BuildingBlock: BETDAH_clean_linker_0, # of connection points: 3
#     Node 7, Type 1, BuildingBlock: BETDAH_clean_linker_0, # of connection points: 3
#     Node 8, Type 1, BuildingBlock: BETDAH_clean_linker_0, # of connection points: 3
#     Node 9, Type 1, BuildingBlock: BETDAH_clean_linker_0, # of connection points: 3
#     Node 10, Type 1, BuildingBlock: BETDAH_clean_linker_0, # of connection points: 3
#     Node 11, Type 1, BuildingBlock: BETDAH_clean_linker_0, # of connection points: 3
#     Edge 12, Type (0, 1), BuildingBlock: OJICUG_clean_linker_0, # of connection points: 2
#     Edge 13, Type (0, 1), BuildingBlock: OJICUG_clean_linker_0, # of connection points: 2
#     Edge 14, Type (0, 1), BuildingBlock: OJICUG_clean_linker_0, # of connection points: 2
#     Edge 15, Type (0, 1), BuildingBlock: OJICUG_clean_linker_0, # of connection points: 2
#     Edge 16, Type (0, 1), BuildingBlock: OJICUG_clean_linker_0, # of connection points: 2
#     Edge 17, Type (0, 1), BuildingBlock: OJICUG_clean_linker_0, # of connection points: 2
#     Edge 18, Type (0, 1), BuildingBlock: OJICUG_clean_linker_0, # of connection points: 2
#     Edge 19, Type (0, 1), BuildingBlock: OJICUG_clean_linker_0, # of connection points: 2
#     Edge 20, Type (0, 1), BuildingBlock: OJICUG_clean_linker_0, # of connection points: 2
#     Edge 21, Type (0, 1), BuildingBlock: OJICUG_clean_linker_0, # of connection points: 2
#     Edge 22, Type (0, 1), BuildingBlock: OJICUG_clean_linker_0, # of connection points: 2
#     Edge 23, Type (0, 1), BuildingBlock: OJICUG_clean_linker_0, # of connection points: 2
#     Edge 24, Type (0, 1), BuildingBlock: OJICUG_clean_linker_0, # of connection points: 2
#     Edge 25, Type (0, 1), BuildingBlock: OJICUG_clean_linker_0, # of connection points: 2
#     Edge 26, Type (0, 1), BuildingBlock: OJICUG_clean_linker_0, # of connection points: 2
#     Edge 27, Type (0, 1), BuildingBlock: OJICUG_clean_linker_0, # of connection points: 2
#     Edge 28, Type (0, 1), BuildingBlock: OJICUG_clean_linker_0, # of connection points: 2
#     Edge 29, Type (0, 1), BuildingBlock: OJICUG_clean_linker_0, # of connection points: 2
#     Edge 30, Type (0, 1), BuildingBlock: OJICUG_clean_linker_0, # of connection points: 2
#     Edge 31, Type (0, 1), BuildingBlock: OJICUG_clean_linker_0, # of connection points: 2
#     Edge 32, Type (0, 1), BuildingBlock: OJICUG_clean_linker_0, # of connection points: 2
#     Edge 33, Type (0, 1), BuildingBlock: OJICUG_clean_linker_0, # of connection points: 2
#     Edge 34, Type (0, 1), BuildingBlock: OJICUG_clean_linker_0, # of connection points: 2
#     Edge 35, Type (0, 1), BuildingBlock: OJICUG_clean_linker_0, # of connection points: 2
# Relax obj value: 0.004
# Max RMSD: 0.054
# Mean RMSD: 0.045
data_MOF--net-hwx--node1-IZENUY_clean_sbu_0--node2-BETDAH_clean_linker_0--edge1-OJICUG_clean_linker_0
_symmetry_space_group_name_H-M    P1
_symmetry_Int_Tables_number       1
_symmetry_cell_setting            triclinic
loop_
_symmetry_equiv_pos_as_xyz
'x, y, z'
_cell_length_a     37.671615
_cell_length_b     37.701279
_cell_length_c     15.162231
_cell_angle_alpha  92.479101
_cell_angle_beta   92.274078
_cell_angle_gamma 89.938286
loop_
_atom_site_label
_atom_site_type_symbol
_atom_site_fract_x
_atom_site_fract_y
_atom_site_fract_z
_atom_type_partial_charge
Fe0 Fe 0.25197 0.25667 0.07492 0.0
Fe1 Fe 0.25341 0.24794 0.87314 0.0
O2 O 0.2359 0.23579 0.97414 0.0
Fe3 Fe 0.20219 0.2028 0.97419 0.0
O4 O 0.18006 0.22244 0.07059 0.0
O5 O 0.20806 0.27291 0.10036 0.0
O6 O 0.26023 0.30001 0.02834 0.0
C7 C 0.24775 0.31337 0.95844 0.0
C8 C 0.24289 0.18468 0.11806 0.0
O9 O 0.23962 0.2938 0.89106 0.0
C10 C 0.24812 0.1759 0.84305 0.0
O11 O 0.29721 0.24194 0.05722 0.0
O12 O 0.29836 0.2573 0.9193 0.0
O13 O 0.22994 0.17472 0.04303 0.0
O14 O 0.2463 0.21735 0.13984 0.0
C15 C 0.17978 0.24084 0.83274 0.0
O16 O 0.2682 0.20279 0.84809 0.0
O17 O 0.21807 0.17705 0.87777 0.0
C18 C 0.31437 0.24823 0.98982 0.0
O19 O 0.21161 0.24109 0.80885 0.0
O20 O 0.17204 0.22868 0.90575 0.0
C21 C 0.18116 0.2534 0.1066 0.0
Fe22 Fe 0.26785 0.75275 0.60519 0.0
Fe23 Fe 0.31428 0.6995 0.50184 0.0
O24 O 0.2812 0.73329 0.50336 0.0
Fe25 Fe 0.26161 0.74758 0.40297 0.0
O26 O 0.27625 0.79313 0.42623 0.0
O27 O 0.25939 0.79707 0.56324 0.0
O28 O 0.31285 0.76751 0.63463 0.0
C29 C 0.3395 0.74728 0.6403 0.0
C30 C 0.20324 0.74715 0.51577 0.0
O31 O 0.33888 0.71679 0.60173 0.0
C32 C 0.26517 0.67609 0.36441 0.0
O33 O 0.27368 0.71201 0.66542 0.0
O34 O 0.28743 0.67062 0.56575 0.0
O35 O 0.21786 0.75691 0.44717 0.0
O36 O 0.22179 0.73945 0.58344 0.0
C37 C 0.33415 0.73929 0.3651 0.0
O38 O 0.29586 0.67581 0.40171 0.0
O39 O 0.24557 0.70314 0.37223 0.0
C40 C 0.27465 0.67968 0.63914 0.0
O41 O 0.34338 0.72612 0.43774 0.0
O42 O 0.30173 0.74099 0.34053 0.0
C43 C 0.26914 0.81168 0.49459 0.0
Fe44 Fe 0.7637 0.76659 0.91646 0.0
Fe45 Fe 0.76268 0.76879 0.11854 0.0
O46 O 0.77887 0.78541 0.02039 0.0
Fe47 Fe 0.81002 0.82095 0.02552 0.0
O48 O 0.78007 0.84892 0.96193 0.0
O49 O 0.76689 0.8079 0.85863 0.0
O50 O 0.71806 0.77875 0.93731 0.0
C51 C 0.7014 0.7702 0.00375 0.0
C52 C 0.83413 0.7751 0.8868 0.0
O53 O 0.71787 0.75871 0.07126 0.0
C54 C 0.83601 0.7808 0.16004 0.0
O55 O 0.7574 0.72156 0.95475 0.0
O56 O 0.77862 0.72431 0.09151 0.0
O57 O 0.83281 0.80535 0.92644 0.0
O58 O 0.80849 0.7536 0.8887 0.0
C59 C 0.7635 0.84033 0.16213 0.0
O60 O 0.80448 0.77584 0.18296 0.0
O61 O 0.84224 0.79577 0.08944 0.0
C62 C 0.77017 0.70641 0.02174 0.0
O63 O 0.74559 0.81203 0.15325 0.0
O64 O 0.79298 0.84289 0.12571 0.0
C65 C 0.76659 0.83996 0.88678 0.0
Fe66 Fe 0.70727 0.31601 0.5358 0.0
Fe67 Fe 0.7577 0.26588 0.6356 0.0
O68 O 0.73993 0.28196 0.53485 0.0
Fe69 Fe 0.75476 0.26399 0.4327 0.0
O70 O 0.77027 0.30713 0.40098 0.0
O71 O 0.72161 0.33584 0.43514 0.0
O72 O 0.73681 0.34677 0.59763 0.0
C73 C 0.75244 0.3405 0.6704 0.0
C74 C 0.68073 0.2725 0.40031 0.0
O75 O 0.75556 0.30905 0.69621 0.0
C76 C 0.74902 0.20346 0.52479 0.0
O77 O 0.68695 0.30252 0.63663 0.0
O78 O 0.71393 0.25294 0.67 0.0
O79 O 0.71194 0.26916 0.37309 0.0
O80 O 0.67513 0.28783 0.47404 0.0
C81 C 0.81803 0.26785 0.54014 0.0
O82 O 0.763 0.21973 0.59248 0.0
O83 O 0.74006 0.21996 0.45691 0.0
C84 C 0.68754 0.27352 0.67546 0.0
O85 O 0.80269 0.2779 0.60925 0.0
O86 O 0.80031 0.2551 0.47354 0.0
C87 C 0.75073 0.33428 0.39634 0.0
H88 H 0.25754 0.62448 0.00316 0.0
H89 H 0.2182 0.52993 0.1136 0.0
H90 H 0.22369 0.53599 0.83155 0.0
C91 C 0.24765 0.5975 0.99392 0.0
C92 C 0.24225 0.58244 0.90823 0.0
C93 C 0.2392 0.57887 0.06805 0.0
C94 C 0.22615 0.54404 0.05681 0.0
C95 C 0.22122 0.52825 0.97136 0.0
C96 C 0.22934 0.54751 0.89733 0.0
N97 N 0.20189 0.49613 0.95896 0.0
C98 C 0.21772 0.46281 0.95859 0.0
H99 H 0.8896 0.75136 0.52312 0.0
H100 H 0.98634 0.77859 0.39964 0.0
H101 H 0.9837 0.77683 0.68188 0.0
C102 C 0.91787 0.7568 0.52763 0.0
C103 C 0.93468 0.76158 0.61151 0.0
C104 C 0.936 0.76273 0.45022 0.0
C105 C 0.97207 0.77272 0.4579 0.0
C106 C 0.98929 0.77726 0.54156 0.0
C107 C 0.97055 0.77177 0.61771 0.0
N108 N 0.02294 0.79388 0.55066 0.0
C109 C 0.05471 0.77604 0.53791 0.0
H110 H 0.78064 0.39134 0.03579 0.0
H111 H 0.75731 0.49066 0.91537 0.0
H112 H 0.753 0.48296 0.19602 0.0
C113 C 0.77552 0.4196 0.04184 0.0
C114 C 0.76907 0.43494 0.12552 0.0
C115 C 0.77153 0.43921 0.9651 0.0
C116 C 0.76185 0.47535 0.97359 0.0
C117 C 0.75546 0.49102 0.05736 0.0
C118 C 0.75914 0.47079 0.13237 0.0
N119 N 0.73903 0.52468 0.06654 0.0
C120 C 0.75372 0.55627 0.04144 0.0
H121 H 0.12951 0.26443 0.47111 0.0
H122 H 0.03239 0.28729 0.60341 0.0
H123 H 0.03672 0.29589 0.32144 0.0
C124 C 0.10171 0.27207 0.46876 0.0
C125 C 0.08522 0.27922 0.38735 0.0
C126 C 0.08316 0.27502 0.54722 0.0
C127 C 0.04682 0.28404 0.54319 0.0
C128 C 0.03008 0.2917 0.46127 0.0
C129 C 0.04943 0.28924 0.38398 0.0
N130 N 0.99545 0.30637 0.45554 0.0
C131 C 0.96581 0.29272 0.49408 0.0
H132 H 0.74879 0.8923 0.52177 0.0
H133 H 0.71651 0.98796 0.39684 0.0
H134 H 0.71619 0.98302 0.68007 0.0
C135 C 0.73986 0.91967 0.52701 0.0
C136 C 0.7339 0.93554 0.61035 0.0
C137 C 0.7337 0.93818 0.44989 0.0
C138 C 0.72247 0.97374 0.45622 0.0
C139 C 0.71646 0.99002 0.5397 0.0
C140 C 0.72222 0.97085 0.61633 0.0
N141 N 0.69905 0.02322 0.54671 0.0
C142 C 0.71563 0.05532 0.5334 0.0
H143 H 0.62908 0.24534 0.03313 0.0
H144 H 0.53134 0.27164 0.15834 0.0
H145 H 0.53709 0.27512 0.87707 0.0
C146 C 0.60093 0.2512 0.02828 0.0
C147 C 0.5852 0.25776 0.94513 0.0
C148 C 0.58196 0.256 0.10599 0.0
C149 C 0.54614 0.26656 0.09929 0.0
C150 C 0.52992 0.27295 0.01662 0.0
C151 C 0.54946 0.2686 0.94005 0.0
N152 N 0.49685 0.2907 0.01194 0.0
C153 C 0.46431 0.27344 0.01248 0.0
H154 H 0.27814 0.1241 0.49323 0.0
H155 H 0.25097 0.02347 0.59599 0.0
H156 H 0.23812 0.0394 0.31822 0.0
C157 C 0.26953 0.09682 0.48211 0.0
C158 C 0.25895 0.08457 0.39631 0.0
C159 C 0.26582 0.07561 0.5551 0.0
C160 C 0.25482 0.04001 0.54047 0.0
C161 C 0.24628 0.02667 0.45398 0.0
C162 C 0.24754 0.04925 0.38314 0.0
N163 N 0.23092 0.99261 0.43756 0.0
C164 C 0.24593 0.96106 0.46511 0.0
H165 H 0.39052 0.75469 0.9969 0.0
H166 H 0.48732 0.79192 0.89176 0.0
H167 H 0.47684 0.78988 0.17325 0.0
C168 C 0.41746 0.76457 0.0077 0.0
C169 C 0.43143 0.7706 0.09413 0.0
C170 C 0.43724 0.77221 0.93466 0.0
C171 C 0.47221 0.7849 0.94779 0.0
C172 C 0.48664 0.79085 0.03432 0.0
C173 C 0.46612 0.78383 0.10691 0.0
N174 N 0.51943 0.80874 0.05009 0.0
C175 C 0.55181 0.79523 0.02351 0.0
C176 C 0.12142 0.24531 0.17076 0.0
C177 C 0.15373 0.26402 0.16997 0.0
H178 H 0.07383 0.23609 0.24 0.0
C179 C 0.16101 0.29072 0.23582 0.0
H180 H 0.11496 0.22471 0.12067 0.0
C181 C 0.13771 0.29683 0.30421 0.0
C182 C 0.10636 0.27689 0.30725 0.0
H183 H 0.1856 0.30563 0.2373 0.0
H184 H 0.14478 0.31628 0.35666 0.0
C185 C 0.0978 0.25188 0.23858 0.0
C186 C 0.24158 0.66317 0.76985 0.0
C187 C 0.26347 0.65269 0.70054 0.0
H188 H 0.21711 0.64892 0.88777 0.0
C189 C 0.27551 0.61734 0.6945 0.0
H190 H 0.23118 0.68995 0.77547 0.0
C191 C 0.26747 0.59363 0.75993 0.0
C192 C 0.24727 0.60502 0.83188 0.0
H193 H 0.29225 0.60845 0.64147 0.0
H194 H 0.27827 0.56699 0.75637 0.0
C195 C 0.23351 0.63966 0.83435 0.0
C196 C 0.89528 0.7949 0.2348 0.0
C197 C 0.86548 0.77257 0.22301 0.0
H198 H 0.94094 0.80963 0.31688 0.0
C199 C 0.86233 0.7438 0.27784 0.0
H200 H 0.89832 0.81727 0.19326 0.0
C201 C 0.8872 0.73876 0.34685 0.0
C202 C 0.91528 0.76297 0.3643 0.0
H203 H 0.83994 0.72579 0.26908 0.0
H204 H 0.88337 0.71685 0.38941 0.0
C205 C 0.91983 0.79032 0.30533 0.0
C206 C 0.79074 0.36657 0.79429 0.0
C207 C 0.76209 0.37021 0.73347 0.0
H208 H 0.81764 0.38695 0.91246 0.0
C209 C 0.74048 0.40055 0.74041 0.0
H210 H 0.80815 0.34372 0.78948 0.0
C211 C 0.74533 0.42496 0.81225 0.0
C212 C 0.77223 0.41969 0.87749 0.0
H213 H 0.71818 0.40399 0.69424 0.0
H214 H 0.72632 0.44631 0.82001 0.0
C215 C 0.7961 0.39132 0.86471 0.0
C216 C 0.65395 0.23505 0.27623 0.0
C217 C 0.6508 0.26368 0.33764 0.0
H218 H 0.63334 0.20891 0.15725 0.0
C219 C 0.62115 0.28613 0.33085 0.0
H220 H 0.67633 0.21705 0.28091 0.0
C221 C 0.59691 0.28204 0.25867 0.0
C222 C 0.6017 0.25507 0.19297 0.0
H223 H 0.6182 0.30846 0.37738 0.0
H224 H 0.57608 0.30161 0.25116 0.0
C225 C 0.62939 0.2305 0.20535 0.0
C226 C 0.23216 0.11737 0.76571 0.0
C227 C 0.25685 0.14509 0.78305 0.0
H228 H 0.21611 0.07295 0.68053 0.0
C229 C 0.28833 0.1446 0.7362 0.0
H230 H 0.20783 0.11654 0.80131 0.0
C231 C 0.29329 0.11916 0.66779 0.0
C232 C 0.26685 0.09373 0.64443 0.0
H233 H 0.30825 0.1651 0.74875 0.0
H234 H 0.31666 0.12099 0.62882 0.0
C235 C 0.2371 0.09198 0.69711 0.0
C236 C 0.34996 0.77044 0.23092 0.0
C237 C 0.36089 0.7499 0.30225 0.0
H238 H 0.36382 0.79356 0.11099 0.0
C239 C 0.3965 0.73869 0.30915 0.0
H240 H 0.32296 0.78018 0.22439 0.0
C241 C 0.42011 0.74639 0.24315 0.0
C242 C 0.40838 0.76537 0.16961 0.0
H243 H 0.40574 0.72298 0.36361 0.0
H244 H 0.44705 0.73638 0.24784 0.0
C245 C 0.37337 0.7781 0.16567 0.0
C246 C 0.76694 0.90208 0.83144 0.0
C247 C 0.75421 0.86696 0.82485 0.0
H248 H 0.77046 0.95174 0.76752 0.0
C249 C 0.73132 0.85645 0.75314 0.0
H250 H 0.78453 0.9109 0.88624 0.0
C251 C 0.72325 0.87961 0.68631 0.0
C252 C 0.73798 0.91383 0.68921 0.0
H253 H 0.72048 0.8298 0.74711 0.0
H254 H 0.7064 0.87029 0.63051 0.0
C255 C 0.75888 0.92541 0.76379 0.0
C256 C 0.89147 0.79209 0.8224 0.0
C257 C 0.86319 0.76788 0.82545 0.0
H258 H 0.93613 0.80909 0.75263 0.0
C259 C 0.86156 0.73875 0.76434 0.0
H260 H 0.89378 0.81466 0.86897 0.0
C261 C 0.8862 0.73539 0.69783 0.0
C262 C 0.913 0.761 0.69127 0.0
H263 H 0.84033 0.71943 0.76527 0.0
H264 H 0.88346 0.71348 0.64942 0.0
C265 C 0.91605 0.78871 0.75608 0.0
C266 C 0.78777 0.3596 0.2795 0.0
C267 C 0.75864 0.36234 0.3345 0.0
H268 H 0.81448 0.38097 0.17137 0.0
C269 C 0.73533 0.39127 0.32603 0.0
H270 H 0.80641 0.33783 0.28478 0.0
C271 C 0.73976 0.4157 0.26094 0.0
C272 C 0.76779 0.41205 0.20287 0.0
H273 H 0.7127 0.39442 0.3676 0.0
H274 H 0.72006 0.4364 0.25348 0.0
C275 C 0.79231 0.38424 0.21436 0.0
C276 C 0.11798 0.237 0.7619 0.0
C277 C 0.15175 0.25303 0.77016 0.0
H278 H 0.06915 0.23147 0.68345 0.0
C279 C 0.15999 0.27985 0.71307 0.0
H280 H 0.11093 0.21636 0.80556 0.0
C281 C 0.13615 0.28883 0.64528 0.0
C282 C 0.10363 0.27082 0.63177 0.0
H283 H 0.18549 0.29321 0.7191 0.0
H284 H 0.14395 0.30871 0.60026 0.0
C285 C 0.09405 0.24574 0.69259 0.0
C286 C 0.27737 0.61764 0.28466 0.0
C287 C 0.25491 0.64713 0.29867 0.0
H288 H 0.28951 0.57219 0.20057 0.0
C289 C 0.22427 0.65027 0.24347 0.0
H290 H 0.30109 0.61424 0.32618 0.0
C291 C 0.21776 0.62613 0.1721 0.0
C292 C 0.24141 0.5981 0.1551 0.0
H293 H 0.20629 0.67246 0.25233 0.0
H294 H 0.19523 0.63046 0.12716 0.0
C295 C 0.27068 0.59335 0.21335 0.0
C296 C 0.36874 0.78898 0.75477 0.0
C297 C 0.36915 0.7567 0.70472 0.0
H298 H 0.39088 0.81932 0.86658 0.0
C299 C 0.39646 0.73212 0.72276 0.0
H300 H 0.34832 0.80861 0.74257 0.0
C301 C 0.42103 0.73853 0.79348 0.0
C302 C 0.41892 0.76972 0.84671 0.0
H303 H 0.39773 0.70705 0.68536 0.0
H304 H 0.44019 0.71817 0.80999 0.0
C305 C 0.39329 0.79532 0.82528 0.0
C306 C 0.77324 0.89976 0.24193 0.0
C307 C 0.75242 0.86891 0.22584 0.0
H308 H 0.78311 0.94661 0.32537 0.0
C309 C 0.72229 0.86446 0.27607 0.0
H310 H 0.79648 0.9042 0.20406 0.0
C311 C 0.71472 0.8888 0.34484 0.0
C312 C 0.73682 0.91831 0.36433 0.0
H313 H 0.70547 0.84127 0.26523 0.0
H314 H 0.6926 0.88359 0.38599 0.0
C315 C 0.76548 0.92427 0.31069 0.0
C316 C 0.6305 0.2905 0.74539 0.0
C317 C 0.65886 0.2664 0.73677 0.0
H318 H 0.58526 0.30678 0.81747 0.0
C319 C 0.66029 0.23698 0.79064 0.0
H320 H 0.6283 0.31334 0.70457 0.0
C321 C 0.63509 0.23295 0.855 0.0
C322 C 0.60796 0.25826 0.86697 0.0
H323 H 0.6815 0.21769 0.78517 0.0
H324 H 0.6375 0.21059 0.89733 0.0
C325 C 0.60545 0.28653 0.8097 0.0
C326 C 0.24219 0.16935 0.2754 0.0
C327 C 0.24806 0.15868 0.18743 0.0
H328 H 0.23917 0.15441 0.40828 0.0
C329 C 0.25775 0.12334 0.16751 0.0
H330 H 0.23394 0.19623 0.2926 0.0
C331 C 0.26203 0.09925 0.23512 0.0
C332 C 0.25596 0.10995 0.32349 0.0
H333 H 0.26239 0.11449 0.10003 0.0
H334 H 0.2702 0.07236 0.21815 0.0
C335 C 0.24557 0.14527 0.34215 0.0
C336 C 0.22868 0.36804 0.8796 0.0
C337 C 0.24304 0.3525 0.9559 0.0
H338 H 0.20967 0.4157 0.82101 0.0
C339 C 0.25115 0.3746 0.03138 0.0
H340 H 0.22202 0.35192 0.8204 0.0
C341 C 0.24407 0.41109 0.03134 0.0
C342 C 0.22895 0.42612 0.95584 0.0
H343 H 0.26215 0.36361 0.09137 0.0
H344 H 0.24955 0.42735 0.091 0.0
C345 C 0.22168 0.40453 0.87972 0.0
C346 C 0.14687 0.74634 0.59982 0.0
C347 C 0.16398 0.7497 0.51973 0.0
H348 H 0.09808 0.75204 0.66794 0.0
C349 C 0.14337 0.75812 0.44385 0.0
H350 H 0.16185 0.73983 0.65941 0.0
C351 C 0.107 0.76487 0.44895 0.0
C352 C 0.09053 0.76314 0.52971 0.0
H353 H 0.15554 0.7607 0.38091 0.0
H354 H 0.09205 0.77281 0.3905 0.0
C355 C 0.11042 0.75318 0.60476 0.0
C356 C 0.7562 0.64655 0.94908 0.0
C357 C 0.77044 0.667 0.02208 0.0
H358 H 0.73996 0.59476 0.898 0.0
C359 C 0.78286 0.64943 0.09731 0.0
H360 H 0.7465 0.65912 0.88992 0.0
C361 C 0.77935 0.61259 0.10117 0.0
C362 C 0.76356 0.5927 0.02992 0.0
H363 H 0.79415 0.66424 0.15449 0.0
H364 H 0.78755 0.59987 0.16141 0.0
C365 C 0.75263 0.6097 0.95322 0.0
C366 C 0.87483 0.2541 0.46496 0.0
C367 C 0.85727 0.27063 0.53596 0.0
H368 H 0.92358 0.24787 0.39754 0.0
C369 C 0.87732 0.29159 0.59894 0.0
H370 H 0.86035 0.23766 0.41544 0.0
C371 C 0.91367 0.29735 0.58834 0.0
C372 C 0.93053 0.28186 0.51541 0.0
H373 H 0.86464 0.30479 0.65422 0.0
H374 H 0.92821 0.31502 0.63503 0.0
C375 C 0.91109 0.25968 0.4549 0.0
C376 C 0.75251 0.14516 0.59951 0.0
C377 C 0.74363 0.16441 0.52423 0.0
H378 H 0.7507 0.09486 0.66069 0.0
C379 C 0.72793 0.14617 0.4495 0.0
H380 H 0.76458 0.15827 0.65818 0.0
C381 C 0.72021 0.10992 0.45114 0.0
C382 C 0.72817 0.09124 0.52722 0.0
H383 H 0.7207 0.16007 0.39036 0.0
H384 H 0.70702 0.09675 0.39394 0.0
C385 C 0.74475 0.10887 0.60096 0.0
C386 C 0.37298 0.25369 0.91905 0.0
C387 C 0.3538 0.24988 0.99591 0.0
H388 H 0.42356 0.26374 0.86474 0.0
C389 C 0.37254 0.25024 0.07821 0.0
H390 H 0.35952 0.25329 0.85455 0.0
C391 C 0.40932 0.25623 0.08365 0.0
C392 C 0.42786 0.26149 0.00694 0.0
H393 H 0.35863 0.2474 0.13867 0.0
H394 H 0.42299 0.25807 0.14793 0.0
C395 C 0.40966 0.25947 0.92462 0.0
C396 C 0.25495 0.87179 0.56297 0.0
C397 C 0.26745 0.85103 0.49104 0.0
H398 H 0.23846 0.92347 0.6111 0.0
C399 C 0.27615 0.86814 0.41408 0.0
H400 H 0.24806 0.85962 0.6234 0.0
C401 C 0.27085 0.90473 0.40776 0.0
C402 C 0.25694 0.92487 0.4782 0.0
H403 H 0.28595 0.85312 0.35759 0.0
H404 H 0.27635 0.91703 0.34646 0.0
C405 C 0.24958 0.90837 0.55637 0.0
C406 C 0.64331 0.7905 0.93496 0.0
C407 C 0.66206 0.77322 0.00295 0.0
H408 H 0.59299 0.81097 0.88815 0.0
C409 C 0.64301 0.76063 0.07327 0.0
H410 H 0.65712 0.80063 0.87999 0.0
C411 C 0.60642 0.76637 0.07721 0.0
C412 C 0.58819 0.78472 0.01109 0.0
H413 H 0.65648 0.74716 0.12664 0.0
H414 H 0.5926 0.75754 0.13367 0.0
C415 C 0.60664 0.79635 0.93928 0.0
loop_
_geom_bond_atom_site_label_1
_geom_bond_atom_site_label_2
_geom_bond_distance
_geom_bond_site_symmetry_2
_ccdc_geom_bond_type
Fe0 O2 1.918 . S
Fe0 O5 1.997 . S
Fe0 O6 2.002 . S
Fe0 O11 1.976 . S
Fe0 O14 1.996 . S
Fe1 O2 1.918 1_556 S
Fe1 O9 1.997 . S
Fe1 O12 1.996 . S
Fe1 O16 1.976 . S
Fe1 O19 2.002 . S
O2 Fe0 1.918 . S
O2 Fe1 1.918 1_554 S
O2 Fe3 1.918 1_554 S
Fe3 O2 1.918 1_556 S
Fe3 O4 1.996 1_556 S
Fe3 O13 1.969 1_556 S
Fe3 O17 2.002 . S
Fe3 O20 2.003 . S
O4 Fe3 1.996 1_554 S
O4 C21 1.295 . S
O5 Fe0 1.997 . S
O5 C21 1.235 . S
O6 Fe0 2.002 . S
O6 C7 1.295 . S
C7 O6 1.295 . S
C7 O9 1.235 1_554 S
C8 O13 1.287 . S
C8 O14 1.255 . S
O9 Fe1 1.997 . S
O9 C7 1.235 1_556 S
C10 O16 1.287 . S
C10 O17 1.255 . S
O11 Fe0 1.976 . S
O11 C18 1.287 . S
O12 Fe1 1.996 . S
O12 C18 1.255 1_556 S
O13 Fe3 1.969 1_554 S
O13 C8 1.287 . S
O14 Fe0 1.996 . S
O14 C8 1.255 . S
C15 O19 1.295 . S
C15 O20 1.235 . S
O16 Fe1 1.976 . S
O16 C10 1.287 . S
O17 Fe3 2.002 . S
O17 C10 1.255 . S
C18 O11 1.287 . S
C18 O12 1.255 1_554 S
O19 Fe1 2.002 . S
O19 C15 1.295 . S
O20 Fe3 2.003 . S
O20 C15 1.235 . S
C21 O4 1.295 . S
C21 O5 1.235 . S
Fe22 O24 1.918 . S
Fe22 O27 1.997 . S
Fe22 O28 2.002 . S
Fe22 O33 1.976 . S
Fe22 O36 1.996 . S
Fe23 O24 1.918 . S
Fe23 O31 1.997 . S
Fe23 O34 1.996 . S
Fe23 O38 1.976 . S
Fe23 O41 2.002 . S
O24 Fe22 1.918 . S
O24 Fe23 1.918 . S
O24 Fe25 1.918 . S
Fe25 O24 1.918 . S
Fe25 O26 2.002 . S
Fe25 O35 1.976 . S
Fe25 O39 1.996 . S
Fe25 O42 1.997 . S
O26 Fe25 2.002 . S
O26 C43 1.295 . S
O27 Fe22 1.997 . S
O27 C43 1.235 . S
O28 Fe22 2.002 . S
O28 C29 1.295 . S
C29 O28 1.295 . S
C29 O31 1.235 . S
C30 O35 1.287 . S
C30 O36 1.255 . S
O31 Fe23 1.997 . S
O31 C29 1.235 . S
C32 O38 1.287 . S
C32 O39 1.255 . S
O33 Fe22 1.976 . S
O33 C40 1.287 . S
O34 Fe23 1.996 . S
O34 C40 1.255 . S
O35 Fe25 1.976 . S
O35 C30 1.287 . S
O36 Fe22 1.996 . S
O36 C30 1.255 . S
C37 O41 1.295 . S
C37 O42 1.235 . S
O38 Fe23 1.976 . S
O38 C32 1.287 . S
O39 Fe25 1.996 . S
O39 C32 1.255 . S
C40 O33 1.287 . S
C40 O34 1.255 . S
O41 Fe23 2.002 . S
O41 C37 1.295 . S
O42 Fe25 1.997 . S
O42 C37 1.235 . S
C43 O26 1.295 . S
C43 O27 1.235 . S
Fe44 O46 1.918 1_556 S
Fe44 O49 1.997 . S
Fe44 O50 2.002 . S
Fe44 O55 1.976 . S
Fe44 O58 1.996 . S
Fe45 O46 1.918 . S
Fe45 O53 1.997 . S
Fe45 O56 1.996 . S
Fe45 O60 1.976 . S
Fe45 O63 2.002 . S
O46 Fe44 1.918 1_554 S
O46 Fe45 1.918 . S
O46 Fe47 1.918 . S
Fe47 O46 1.918 . S
Fe47 O48 2.002 1_554 S
Fe47 O57 1.976 1_554 S
Fe47 O61 1.996 . S
Fe47 O64 1.997 . S
O48 Fe47 2.002 1_556 S
O48 C65 1.295 . S
O49 Fe44 1.997 . S
O49 C65 1.235 . S
O50 Fe44 2.002 . S
O50 C51 1.295 1_556 S
C51 O50 1.295 1_554 S
C51 O53 1.235 . S
C52 O57 1.287 . S
C52 O58 1.255 . S
O53 Fe45 1.997 . S
O53 C51 1.235 . S
C54 O60 1.287 . S
C54 O61 1.255 . S
O55 Fe44 1.976 . S
O55 C62 1.287 1_556 S
O56 Fe45 1.996 . S
O56 C62 1.255 . S
O57 Fe47 1.976 1_556 S
O57 C52 1.287 . S
O58 Fe44 1.996 . S
O58 C52 1.255 . S
C59 O63 1.295 . S
C59 O64 1.235 . S
O60 Fe45 1.976 . S
O60 C54 1.287 . S
O61 Fe47 1.996 . S
O61 C54 1.255 . S
C62 O55 1.287 1_554 S
C62 O56 1.255 . S
O63 Fe45 2.002 . S
O63 C59 1.295 . S
O64 Fe47 1.997 . S
O64 C59 1.235 . S
C65 O48 1.295 . S
C65 O49 1.235 . S
Fe66 O68 1.918 . S
Fe66 O71 1.997 . S
Fe66 O72 2.002 . S
Fe66 O77 1.976 . S
Fe66 O80 1.996 . S
Fe67 O68 1.918 . S
Fe67 O75 1.997 . S
Fe67 O78 1.996 . S
Fe67 O82 1.976 . S
Fe67 O85 2.002 . S
O68 Fe66 1.918 . S
O68 Fe67 1.918 . S
O68 Fe69 1.918 . S
Fe69 O68 1.918 . S
Fe69 O70 2.002 . S
Fe69 O79 1.976 . S
Fe69 O83 1.996 . S
Fe69 O86 1.997 . S
O70 Fe69 2.002 . S
O70 C87 1.295 . S
O71 Fe66 1.997 . S
O71 C87 1.235 . S
O72 Fe66 2.002 . S
O72 C73 1.295 . S
C73 O72 1.295 . S
C73 O75 1.235 . S
C74 O79 1.287 . S
C74 O80 1.255 . S
O75 Fe67 1.997 . S
O75 C73 1.235 . S
C76 O82 1.287 . S
C76 O83 1.255 . S
O77 Fe66 1.976 . S
O77 C84 1.287 . S
O78 Fe67 1.996 . S
O78 C84 1.255 . S
O79 Fe69 1.976 . S
O79 C74 1.287 . S
O80 Fe66 1.996 . S
O80 C74 1.255 . S
C81 O85 1.295 . S
C81 O86 1.235 . S
O82 Fe67 1.976 . S
O82 C76 1.287 . S
O83 Fe69 1.996 . S
O83 C76 1.255 . S
C84 O77 1.287 . S
C84 O78 1.255 . S
O85 Fe67 2.002 . S
O85 C81 1.295 . S
O86 Fe69 1.997 . S
O86 C81 1.235 . S
C87 O70 1.295 . S
C87 O71 1.235 . S
H88 C91 0.929 . S
H89 C94 0.929 . S
H90 C96 0.930 . S
C91 H88 0.929 . S
C91 C92 1.398 1_554 S
C91 C93 1.396 . S
C92 C91 1.398 1_556 S
C92 C96 1.407 . S
C93 C91 1.396 . S
C93 C94 1.394 . S
C94 H89 0.929 . S
C94 C93 1.394 . S
C94 C95 1.382 1_554 S
C95 C94 1.382 1_556 S
C95 C96 1.392 . S
C95 N97 1.420 . S
C96 H90 0.930 . S
C96 C92 1.407 . S
C96 C95 1.392 . S
N97 C95 1.420 . S
N97 C98 1.244 1_556 S
C98 N97 1.244 1_554 S
H99 C102 0.929 . S
H100 C105 0.931 1_455 S
H101 C107 0.930 . S
C102 H99 0.929 . S
C102 C103 1.398 . S
C102 C104 1.396 . S
C103 C102 1.398 . S
C103 C107 1.407 . S
C104 C102 1.396 . S
C104 C105 1.394 . S
C105 H100 0.931 1_655 S
C105 C104 1.394 . S
C105 C106 1.382 1_655 S
C106 C105 1.382 1_455 S
C106 C107 1.392 1_455 S
C106 N108 1.420 . S
C107 H101 0.930 . S
C107 C103 1.407 . S
C107 C106 1.392 1_655 S
N108 C106 1.420 . S
N108 C109 1.244 . S
C109 N108 1.244 . S
H110 C113 0.929 . S
H111 C116 0.929 . S
H112 C118 0.930 . S
C113 H110 0.929 . S
C113 C114 1.398 . S
C113 C115 1.396 1_554 S
C114 C113 1.398 . S
C114 C118 1.407 . S
C115 C113 1.396 1_556 S
C115 C116 1.394 . S
C116 H111 0.929 . S
C116 C115 1.394 . S
C116 C117 1.382 1_556 S
C117 C116 1.382 1_554 S
C117 C118 1.392 . S
C117 N119 1.420 . S
C118 H112 0.930 . S
C118 C114 1.407 . S
C118 C117 1.392 . S
N119 C117 1.420 . S
N119 C120 1.244 . S
C120 N119 1.244 . S
H121 C124 0.929 . S
H122 C127 0.946 . S
H123 C129 0.930 . S
C124 H121 0.929 . S
C124 C125 1.398 . S
C124 C126 1.396 . S
C125 C124 1.398 . S
C125 C129 1.407 . S
C126 C124 1.396 . S
C126 C127 1.394 . S
C127 H122 0.946 . S
C127 C126 1.394 . S
C127 C128 1.382 1_455 S
C128 C127 1.382 1_655 S
C128 C129 1.392 1_655 S
C128 N130 1.420 . S
C129 H123 0.930 . S
C129 C125 1.407 . S
C129 C128 1.392 1_455 S
N130 C128 1.420 . S
N130 C131 1.244 . S
C131 N130 1.244 . S
H132 C135 0.929 . S
H133 C138 0.929 1_545 S
H134 C140 0.930 . S
C135 H132 0.929 . S
C135 C136 1.398 . S
C135 C137 1.396 . S
C136 C135 1.398 . S
C136 C140 1.407 . S
C137 C135 1.396 . S
C137 C138 1.394 . S
C138 H133 0.929 1_565 S
C138 C137 1.394 . S
C138 C139 1.382 1_565 S
C139 C138 1.382 1_545 S
C139 C140 1.392 1_545 S
C139 N141 1.420 . S
C140 H134 0.930 . S
C140 C136 1.407 . S
C140 C139 1.392 1_565 S
N141 C139 1.420 . S
N141 C142 1.244 . S
C142 N141 1.244 . S
H143 C146 0.929 . S
H144 C149 0.929 . S
H145 C151 0.930 . S
C146 H143 0.929 . S
C146 C147 1.398 1_554 S
C146 C148 1.396 . S
C147 C146 1.398 1_556 S
C147 C151 1.407 . S
C148 C146 1.396 . S
C148 C149 1.394 . S
C149 H144 0.929 . S
C149 C148 1.394 . S
C149 C150 1.382 1_554 S
C150 C149 1.382 1_556 S
C150 C151 1.392 . S
C150 N152 1.420 . S
C151 H145 0.930 . S
C151 C147 1.407 . S
C151 C150 1.392 . S
N152 C150 1.420 . S
N152 C153 1.244 1_556 S
C153 N152 1.244 1_554 S
H154 C157 0.929 . S
H155 C160 0.929 1_565 S
H156 C162 0.930 . S
C157 H154 0.929 . S
C157 C158 1.398 . S
C157 C159 1.396 . S
C158 C157 1.398 . S
C158 C162 1.407 . S
C159 C157 1.396 . S
C159 C160 1.394 . S
C160 H155 0.929 1_545 S
C160 C159 1.394 . S
C160 C161 1.382 1_545 S
C161 C160 1.382 1_565 S
C161 C162 1.392 1_565 S
C161 N163 1.420 . S
C162 H156 0.930 . S
C162 C158 1.407 . S
C162 C161 1.392 1_545 S
N163 C161 1.420 . S
N163 C164 1.244 . S
C164 N163 1.244 . S
H165 C168 0.929 . S
H166 C171 0.929 . S
H167 C173 0.930 . S
C168 H165 0.929 . S
C168 C169 1.398 . S
C168 C170 1.396 1_554 S
C169 C168 1.398 . S
C169 C173 1.407 . S
C170 C168 1.396 1_556 S
C170 C171 1.394 . S
C171 H166 0.929 . S
C171 C170 1.394 . S
C171 C172 1.382 1_556 S
C172 C171 1.382 1_554 S
C172 C173 1.392 . S
C172 N174 1.420 . S
C173 H167 0.930 . S
C173 C169 1.407 . S
C173 C172 1.392 . S
N174 C172 1.420 . S
N174 C175 1.244 1_554 S
C175 N174 1.244 1_556 S
C176 C177 1.387 . S
C176 H180 0.950 . S
C176 C185 1.390 . S
C177 C176 1.387 . S
C177 C179 1.387 . S
H178 C185 0.950 . S
C179 C177 1.387 . S
C179 C181 1.390 . S
C179 H183 0.950 . S
H180 C176 0.950 . S
C181 C179 1.390 . S
C181 C182 1.387 . S
C181 H184 0.950 . S
C182 C181 1.387 . S
C182 C185 1.387 . S
H183 C179 0.950 . S
H184 C181 0.950 . S
C185 C176 1.390 . S
C185 H178 0.950 . S
C185 C182 1.387 . S
C186 C187 1.387 . S
C186 H190 0.950 . S
C186 C195 1.390 . S
C187 C186 1.387 . S
C187 C189 1.387 . S
H188 C195 0.950 . S
C189 C187 1.387 . S
C189 C191 1.390 . S
C189 H193 0.950 . S
H190 C186 0.950 . S
C191 C189 1.390 . S
C191 C192 1.387 . S
C191 H194 0.950 . S
C192 C191 1.387 . S
C192 C195 1.387 . S
H193 C189 0.950 . S
H194 C191 0.950 . S
C195 C186 1.390 . S
C195 H188 0.950 . S
C195 C192 1.387 . S
C196 C197 1.387 . S
C196 H200 0.950 . S
C196 C205 1.390 . S
C197 C196 1.387 . S
C197 C199 1.387 . S
H198 C205 0.950 . S
C199 C197 1.387 . S
C199 C201 1.390 . S
C199 H203 0.950 . S
H200 C196 0.950 . S
C201 C199 1.390 . S
C201 C202 1.387 . S
C201 H204 0.950 . S
C202 C201 1.387 . S
C202 C205 1.387 . S
H203 C199 0.950 . S
H204 C201 0.950 . S
C205 C196 1.390 . S
C205 H198 0.950 . S
C205 C202 1.387 . S
C206 C207 1.387 . S
C206 H210 0.950 . S
C206 C215 1.390 . S
C207 C206 1.387 . S
C207 C209 1.387 . S
H208 C215 0.950 . S
C209 C207 1.387 . S
C209 C211 1.390 . S
C209 H213 0.950 . S
H210 C206 0.950 . S
C211 C209 1.390 . S
C211 C212 1.387 . S
C211 H214 0.950 . S
C212 C211 1.387 . S
C212 C215 1.387 . S
H213 C209 0.950 . S
H214 C211 0.950 . S
C215 C206 1.390 . S
C215 H208 0.950 . S
C215 C212 1.387 . S
C216 C217 1.387 . S
C216 H220 0.950 . S
C216 C225 1.390 . S
C217 C216 1.387 . S
C217 C219 1.387 . S
H218 C225 0.950 . S
C219 C217 1.387 . S
C219 C221 1.390 . S
C219 H223 0.950 . S
H220 C216 0.950 . S
C221 C219 1.390 . S
C221 C222 1.387 . S
C221 H224 0.950 . S
C222 C221 1.387 . S
C222 C225 1.387 . S
H223 C219 0.950 . S
H224 C221 0.950 . S
C225 C216 1.390 . S
C225 H218 0.950 . S
C225 C222 1.387 . S
C226 C227 1.387 . S
C226 H230 0.950 . S
C226 C235 1.390 . S
C227 C226 1.387 . S
C227 C229 1.387 . S
H228 C235 0.950 . S
C229 C227 1.387 . S
C229 C231 1.390 . S
C229 H233 0.950 . S
H230 C226 0.950 . S
C231 C229 1.390 . S
C231 C232 1.387 . S
C231 H234 0.950 . S
C232 C231 1.387 . S
C232 C235 1.387 . S
H233 C229 0.950 . S
H234 C231 0.950 . S
C235 C226 1.390 . S
C235 H228 0.950 . S
C235 C232 1.387 . S
C236 C237 1.387 . S
C236 H240 0.950 . S
C236 C245 1.390 . S
C237 C236 1.387 . S
C237 C239 1.387 . S
H238 C245 0.950 . S
C239 C237 1.387 . S
C239 C241 1.390 . S
C239 H243 0.950 . S
H240 C236 0.950 . S
C241 C239 1.390 . S
C241 C242 1.387 . S
C241 H244 0.950 . S
C242 C241 1.387 . S
C242 C245 1.387 . S
H243 C239 0.950 . S
H244 C241 0.950 . S
C245 C236 1.390 . S
C245 H238 0.950 . S
C245 C242 1.387 . S
C246 C247 1.387 . S
C246 H250 0.950 . S
C246 C255 1.390 . S
C247 C246 1.387 . S
C247 C249 1.387 . S
H248 C255 0.950 . S
C249 C247 1.387 . S
C249 C251 1.390 . S
C249 H253 0.950 . S
H250 C246 0.950 . S
C251 C249 1.390 . S
C251 C252 1.387 . S
C251 H254 0.950 . S
C252 C251 1.387 . S
C252 C255 1.387 . S
H253 C249 0.950 . S
H254 C251 0.950 . S
C255 C246 1.390 . S
C255 H248 0.950 . S
C255 C252 1.387 . S
C256 C257 1.387 . S
C256 H260 0.950 . S
C256 C265 1.390 . S
C257 C256 1.387 . S
C257 C259 1.387 . S
H258 C265 0.950 . S
C259 C257 1.387 . S
C259 C261 1.390 . S
C259 H263 0.950 . S
H260 C256 0.950 . S
C261 C259 1.390 . S
C261 C262 1.387 . S
C261 H264 0.950 . S
C262 C261 1.387 . S
C262 C265 1.387 . S
H263 C259 0.950 . S
H264 C261 0.950 . S
C265 C256 1.390 . S
C265 H258 0.950 . S
C265 C262 1.387 . S
C266 C267 1.387 . S
C266 H270 0.950 . S
C266 C275 1.390 . S
C267 C266 1.387 . S
C267 C269 1.387 . S
H268 C275 0.950 . S
C269 C267 1.387 . S
C269 C271 1.390 . S
C269 H273 0.950 . S
H270 C266 0.950 . S
C271 C269 1.390 . S
C271 C272 1.387 . S
C271 H274 0.950 . S
C272 C271 1.387 . S
C272 C275 1.387 . S
H273 C269 0.950 . S
H274 C271 0.950 . S
C275 C266 1.390 . S
C275 H268 0.950 . S
C275 C272 1.387 . S
C276 C277 1.387 . S
C276 H280 0.950 . S
C276 C285 1.390 . S
C277 C276 1.387 . S
C277 C279 1.387 . S
H278 C285 0.950 . S
C279 C277 1.387 . S
C279 C281 1.390 . S
C279 H283 0.950 . S
H280 C276 0.950 . S
C281 C279 1.390 . S
C281 C282 1.387 . S
C281 H284 0.950 . S
C282 C281 1.387 . S
C282 C285 1.387 . S
H283 C279 0.950 . S
H284 C281 0.950 . S
C285 C276 1.390 . S
C285 H278 0.950 . S
C285 C282 1.387 . S
C286 C287 1.387 . S
C286 H290 0.950 . S
C286 C295 1.390 . S
C287 C286 1.387 . S
C287 C289 1.387 . S
H288 C295 0.950 . S
C289 C287 1.387 . S
C289 C291 1.390 . S
C289 H293 0.950 . S
H290 C286 0.950 . S
C291 C289 1.390 . S
C291 C292 1.387 . S
C291 H294 0.950 . S
C292 C291 1.387 . S
C292 C295 1.387 . S
H293 C289 0.950 . S
H294 C291 0.950 . S
C295 C286 1.390 . S
C295 H288 0.950 . S
C295 C292 1.387 . S
C296 C297 1.387 . S
C296 H300 0.950 . S
C296 C305 1.390 . S
C297 C296 1.387 . S
C297 C299 1.387 . S
H298 C305 0.950 . S
C299 C297 1.387 . S
C299 C301 1.390 . S
C299 H303 0.950 . S
H300 C296 0.950 . S
C301 C299 1.390 . S
C301 C302 1.387 . S
C301 H304 0.950 . S
C302 C301 1.387 . S
C302 C305 1.387 . S
H303 C299 0.950 . S
H304 C301 0.950 . S
C305 C296 1.390 . S
C305 H298 0.950 . S
C305 C302 1.387 . S
C306 C307 1.387 . S
C306 H310 0.950 . S
C306 C315 1.390 . S
C307 C306 1.387 . S
C307 C309 1.387 . S
H308 C315 0.950 . S
C309 C307 1.387 . S
C309 C311 1.390 . S
C309 H313 0.950 . S
H310 C306 0.950 . S
C311 C309 1.390 . S
C311 C312 1.387 . S
C311 H314 0.950 . S
C312 C311 1.387 . S
C312 C315 1.387 . S
H313 C309 0.950 . S
H314 C311 0.950 . S
C315 C306 1.390 . S
C315 H308 0.950 . S
C315 C312 1.387 . S
C316 C317 1.387 . S
C316 H320 0.950 . S
C316 C325 1.390 . S
C317 C316 1.387 . S
C317 C319 1.387 . S
H318 C325 0.950 . S
C319 C317 1.387 . S
C319 C321 1.390 . S
C319 H323 0.950 . S
H320 C316 0.950 . S
C321 C319 1.390 . S
C321 C322 1.387 . S
C321 H324 0.950 . S
C322 C321 1.387 . S
C322 C325 1.387 . S
H323 C319 0.950 . S
H324 C321 0.950 . S
C325 C316 1.390 . S
C325 H318 0.950 . S
C325 C322 1.387 . S
C326 C327 1.387 . S
C326 H330 0.950 . S
C326 C335 1.390 . S
C327 C326 1.387 . S
C327 C329 1.387 . S
H328 C335 0.950 . S
C329 C327 1.387 . S
C329 C331 1.390 . S
C329 H333 0.950 . S
H330 C326 0.950 . S
C331 C329 1.390 . S
C331 C332 1.387 . S
C331 H334 0.950 . S
C332 C331 1.387 . S
C332 C335 1.387 . S
H333 C329 0.950 . S
H334 C331 0.950 . S
C335 C326 1.390 . S
C335 H328 0.950 . S
C335 C332 1.387 . S
C336 C337 1.387 1_556 S
C336 H340 0.950 . S
C336 C345 1.390 . S
C337 C336 1.387 1_554 S
C337 C339 1.387 . S
H338 C345 0.950 . S
C339 C337 1.387 . S
C339 C341 1.390 . S
C339 H343 0.950 . S
H340 C336 0.950 . S
C341 C339 1.390 . S
C341 C342 1.387 . S
C341 H344 0.950 . S
C342 C341 1.387 . S
C342 C345 1.387 1_554 S
H343 C339 0.950 . S
H344 C341 0.950 . S
C345 C336 1.390 . S
C345 H338 0.950 . S
C345 C342 1.387 1_556 S
C346 C347 1.387 . S
C346 H350 0.950 . S
C346 C355 1.390 . S
C347 C346 1.387 . S
C347 C349 1.387 . S
H348 C355 0.950 . S
C349 C347 1.387 . S
C349 C351 1.390 . S
C349 H353 0.950 . S
H350 C346 0.950 . S
C351 C349 1.390 . S
C351 C352 1.387 . S
C351 H354 0.950 . S
C352 C351 1.387 . S
C352 C355 1.387 . S
H353 C349 0.950 . S
H354 C351 0.950 . S
C355 C346 1.390 . S
C355 H348 0.950 . S
C355 C352 1.387 . S
C356 C357 1.387 1_556 S
C356 H360 0.950 . S
C356 C365 1.390 . S
C357 C356 1.387 1_554 S
C357 C359 1.387 . S
H358 C365 0.950 . S
C359 C357 1.387 . S
C359 C361 1.390 . S
C359 H363 0.950 . S
H360 C356 0.950 . S
C361 C359 1.390 . S
C361 C362 1.387 . S
C361 H364 0.950 . S
C362 C361 1.387 . S
C362 C365 1.387 1_554 S
H363 C359 0.950 . S
H364 C361 0.950 . S
C365 C356 1.390 . S
C365 H358 0.950 . S
C365 C362 1.387 1_556 S
C366 C367 1.387 . S
C366 H370 0.950 . S
C366 C375 1.390 . S
C367 C366 1.387 . S
C367 C369 1.387 . S
H368 C375 0.950 . S
C369 C367 1.387 . S
C369 C371 1.390 . S
C369 H373 0.950 . S
H370 C366 0.950 . S
C371 C369 1.390 . S
C371 C372 1.387 . S
C371 H374 0.950 . S
C372 C371 1.387 . S
C372 C375 1.387 . S
H373 C369 0.950 . S
H374 C371 0.950 . S
C375 C366 1.390 . S
C375 H368 0.950 . S
C375 C372 1.387 . S
C376 C377 1.387 . S
C376 H380 0.950 . S
C376 C385 1.390 . S
C377 C376 1.387 . S
C377 C379 1.387 . S
H378 C385 0.950 . S
C379 C377 1.387 . S
C379 C381 1.390 . S
C379 H383 0.950 . S
H380 C376 0.950 . S
C381 C379 1.390 . S
C381 C382 1.387 . S
C381 H384 0.950 . S
C382 C381 1.387 . S
C382 C385 1.387 . S
H383 C379 0.950 . S
H384 C381 0.950 . S
C385 C376 1.390 . S
C385 H378 0.950 . S
C385 C382 1.387 . S
C386 C387 1.387 1_556 S
C386 H390 0.950 . S
C386 C395 1.390 . S
C387 C386 1.387 1_554 S
C387 C389 1.387 . S
H388 C395 0.950 . S
C389 C387 1.387 . S
C389 C391 1.390 . S
C389 H393 0.950 . S
H390 C386 0.950 . S
C391 C389 1.390 . S
C391 C392 1.387 . S
C391 H394 0.950 . S
C392 C391 1.387 . S
C392 C395 1.387 1_554 S
H393 C389 0.950 . S
H394 C391 0.950 . S
C395 C386 1.390 . S
C395 H388 0.950 . S
C395 C392 1.387 1_556 S
C396 C397 1.387 . S
C396 H400 0.950 . S
C396 C405 1.390 . S
C397 C396 1.387 . S
C397 C399 1.387 . S
H398 C405 0.950 . S
C399 C397 1.387 . S
C399 C401 1.390 . S
C399 H403 0.950 . S
H400 C396 0.950 . S
C401 C399 1.390 . S
C401 C402 1.387 . S
C401 H404 0.950 . S
C402 C401 1.387 . S
C402 C405 1.387 . S
H403 C399 0.950 . S
H404 C401 0.950 . S
C405 C396 1.390 . S
C405 H398 0.950 . S
C405 C402 1.387 . S
C406 C407 1.387 1_556 S
C406 H410 0.950 . S
C406 C415 1.390 . S
C407 C406 1.387 1_554 S
C407 C409 1.387 . S
H408 C415 0.950 . S
C409 C407 1.387 . S
C409 C411 1.390 . S
C409 H413 0.950 . S
H410 C406 0.950 . S
C411 C409 1.390 . S
C411 C412 1.387 . S
C411 H414 0.950 . S
C412 C411 1.387 . S
C412 C415 1.387 1_554 S
H413 C409 0.950 . S
H414 C411 0.950 . S
C415 C406 1.390 . S
C415 H408 0.950 . S
C415 C412 1.387 1_556 S
C177 C21 1.484 . S
C182 C125 1.492 . S
C187 C40 1.503 . S
C192 C92 1.492 . S
C202 C104 1.455 . S
C197 C54 1.482 . S
C207 C73 1.528 . S
C212 C115 1.506 . S
C222 C148 1.449 . S
C217 C74 1.472 . S
C232 C159 1.482 . S
C227 C10 1.524 . S
C242 C169 1.501 . S
C237 C37 1.495 . S
C252 C136 1.511 . S
C247 C65 1.510 . S
C257 C52 1.451 . S
C262 C103 1.449 . S
C267 C87 1.520 . S
C272 C114 1.509 . S
C277 C15 1.517 . S
C282 C126 1.503 . S
C292 C93 1.477 . S
C287 C32 1.507 . S
C297 C29 1.507 . S
C302 C170 1.493 . S
C312 C137 1.519 . S
C307 C59 1.539 . S
C322 C147 1.455 . S
C317 C84 1.459 . S
C327 C8 1.487 . S
C332 C158 1.469 . S
C342 C98 1.528 . S
C337 C7 1.535 . S
C352 C109 1.490 . S
C347 C30 1.492 . S
C357 C62 1.541 . S
C362 C120 1.532 . S
C367 C81 1.501 . S
C372 C131 1.513 . S
C382 C142 1.524 . S
C377 C76 1.541 . S
C387 C18 1.492 . S
C392 C153 1.490 . S
C397 C43 1.535 . S
C402 C164 1.533 . S
C407 C51 1.503 . S
C412 C175 1.513 1_554 S
