# Generated by pormake.
# Topology rtl, (3,6)-cn, num edge types: 1
# Building blocks:
#     Node 0, Type 0, BuildingBlock: CUQRIR_clean_linker_1, # of connection points: 3
#     Node 1, Type 0, BuildingBlock: CUQRIR_clean_linker_1, # of connection points: 3
#     Node 2, Type 0, BuildingBlock: CUQRIR_clean_linker_1, # of connection points: 3
#     Node 3, Type 0, BuildingBlock: CUQRIR_clean_linker_1, # of connection points: 3
#     Node 4, Type 1, BuildingBlock: KUMJIN_clean_sbu_1, # of connection points: 6
#     Node 5, Type 1, BuildingBlock: KUMJIN_clean_sbu_1, # of connection points: 6
#     Edge 6, Type (0, 1), BuildingBlock: EYOCIG_clean_linker_4, # of connection points: 2
#     Edge 7, Type (0, 1), BuildingBlock: EYOCIG_clean_linker_4, # of connection points: 2
#     Edge 8, Type (0, 1), BuildingBlock: EYOCIG_clean_linker_4, # of connection points: 2
#     Edge 9, Type (0, 1), BuildingBlock: EYOCIG_clean_linker_4, # of connection points: 2
#     Edge 10, Type (0, 1), BuildingBlock: EYOCIG_clean_linker_4, # of connection points: 2
#     Edge 11, Type (0, 1), BuildingBlock: EYOCIG_clean_linker_4, # of connection points: 2
#     Edge 12, Type (0, 1), BuildingBlock: EYOCIG_clean_linker_4, # of connection points: 2
#     Edge 13, Type (0, 1), BuildingBlock: EYOCIG_clean_linker_4, # of connection points: 2
#     Edge 14, Type (0, 1), BuildingBlock: EYOCIG_clean_linker_4, # of connection points: 2
#     Edge 15, Type (0, 1), BuildingBlock: EYOCIG_clean_linker_4, # of connection points: 2
#     Edge 16, Type (0, 1), BuildingBlock: EYOCIG_clean_linker_4, # of connection points: 2
#     Edge 17, Type (0, 1), BuildingBlock: EYOCIG_clean_linker_4, # of connection points: 2
# Relax obj value: 0.066
# Max RMSD: 0.244
# Mean RMSD: 0.186
data_MOF--net-rtl--node1-KUMJIN_clean_sbu_1--node2-CUQRIR_clean_linker_1--edge1-EYOCIG_clean_linker_4
_symmetry_space_group_name_H-M    P1
_symmetry_Int_Tables_number       1
_symmetry_cell_setting            triclinic
loop_
_symmetry_equiv_pos_as_xyz
'x, y, z'
_cell_length_a     25.660296
_cell_length_b     26.172545
_cell_length_c     19.995515
_cell_angle_alpha  72.665222
_cell_angle_beta   98.783161
_cell_angle_gamma 90.874079
loop_
_atom_site_label
_atom_site_type_symbol
_atom_site_fract_x
_atom_site_fract_y
_atom_site_fract_z
_atom_type_partial_charge
C0 C 0.27906 0.83233 0.98499 0.0
N1 N 0.24692 0.86849 0.9959 0.0
N2 N 0.3072 0.80282 0.04691 0.0
C3 C 0.28312 0.82569 0.91386 0.0
C4 C 0.29186 0.82291 0.09609 0.0
N5 N 0.25564 0.86344 0.06483 0.0
C6 C 0.31117 0.80178 0.17446 0.0
H7 H 0.25714 0.7932 0.90544 0.0
H8 H 0.32425 0.81431 0.91198 0.0
H9 H 0.27074 0.86315 0.87054 0.0
H10 H 0.35106 0.81701 0.18604 0.0
H11 H 0.31455 0.75739 0.19111 0.0
H12 H 0.28457 0.81461 0.20572 0.0
C13 C 0.71569 0.75869 0.73308 0.0
N14 N 0.677 0.72675 0.71596 0.0
N15 N 0.73843 0.78393 0.67558 0.0
C16 C 0.73055 0.76604 0.80517 0.0
C17 C 0.71228 0.76641 0.62313 0.0
N18 N 0.67481 0.73193 0.6474 0.0
C19 C 0.72504 0.78197 0.54886 0.0
H20 H 0.70648 0.79997 0.80806 0.0
H21 H 0.77278 0.77578 0.81425 0.0
H22 H 0.72247 0.72971 0.84752 0.0
H23 H 0.76511 0.76595 0.5502 0.0
H24 H 0.72581 0.82625 0.52795 0.0
H25 H 0.69632 0.76664 0.51267 0.0
C26 C 0.76235 0.19322 0.17633 0.0
N27 N 0.79327 0.15558 0.16645 0.0
N28 N 0.73179 0.21994 0.11485 0.0
C29 C 0.76059 0.20288 0.24642 0.0
C30 C 0.74482 0.19707 0.067 0.0
N31 N 0.78201 0.1575 0.09861 0.0
C32 C 0.72265 0.21511 0.98931 0.0
H33 H 0.72908 0.17844 0.27152 0.0
H34 H 0.75089 0.24558 0.23892 0.0
H35 H 0.79849 0.19093 0.28278 0.0
H36 H 0.73525 0.25644 0.96536 0.0
H37 H 0.67891 0.21641 0.98267 0.0
H38 H 0.73593 0.18853 0.96072 0.0
C39 C 0.32361 0.25755 0.43191 0.0
N40 N 0.36091 0.29109 0.44822 0.0
N41 N 0.29877 0.23469 0.48825 0.0
C42 C 0.31164 0.24684 0.36153 0.0
C43 C 0.32252 0.25497 0.53941 0.0
N44 N 0.36064 0.28868 0.51551 0.0
C45 C 0.30763 0.24209 0.61241 0.0
H46 H 0.27831 0.27365 0.32842 0.0
H47 H 0.29979 0.20479 0.36895 0.0
H48 H 0.34631 0.2546 0.33323 0.0
H49 H 0.32293 0.20116 0.64363 0.0
H50 H 0.26404 0.24228 0.60881 0.0
H51 H 0.32394 0.27081 0.64063 0.0
Eu52 Eu 0.0508 0.95405 0.54699 0.0
C53 C 0.9378 0.18222 0.52 0.0
N54 N 0.98528 0.15908 0.55514 0.0
C55 C 0.02583 0.24442 0.52217 0.0
C56 C 0.93274 0.2377 0.48406 0.0
C57 C 0.02887 0.18948 0.55774 0.0
C58 C 0.97765 0.26861 0.48485 0.0
C59 C 0.84352 0.17407 0.48847 0.0
C60 C 0.89376 0.1506 0.52143 0.0
C61 C 0.83852 0.22912 0.45205 0.0
C62 C 0.88305 0.26079 0.44955 0.0
Eu63 Eu 0.98551 0.06624 0.61675 0.0
N64 N 0.89977 0.09723 0.55648 0.0
C65 C 0.79956 0.14172 0.49442 0.0
C66 C 0.85684 0.0659 0.56407 0.0
C67 C 0.80621 0.08754 0.53295 0.0
H68 H 0.06592 0.17195 0.58878 0.0
H69 H 0.77225 0.06253 0.53935 0.0
H70 H 0.97032 0.84826 0.5746 0.0
H71 H 0.26408 0.95753 0.62358 0.0
H72 H 0.86126 0.02448 0.59558 0.0
H73 H 0.76029 0.15835 0.47059 0.0
H74 H 0.17501 0.99565 0.56772 0.0
H75 H 0.06054 0.26823 0.52438 0.0
H76 H 0.80031 0.24769 0.42621 0.0
H77 H 0.87852 0.30327 0.4217 0.0
H78 H 0.97571 0.75196 0.6387 0.0
H79 H 0.97538 0.31127 0.45788 0.0
H80 H 0.27605 0.86166 0.69214 0.0
N81 N 0.05093 0.86116 0.60843 0.0
C82 C 0.09844 0.83796 0.64338 0.0
C83 C 1.01042 0.77577 0.64104 0.0
C84 C 0.10351 0.78244 0.67912 0.0
C85 C 1.00736 0.83074 0.60567 0.0
C86 C 0.05859 0.75155 0.67827 0.0
N87 N 0.13653 0.9229 0.60691 0.0
C88 C 0.17946 0.95422 0.59918 0.0
C89 C 0.19278 0.846 0.67455 0.0
C90 C 0.14253 0.86952 0.64184 0.0
C91 C 0.23676 0.87833 0.6685 0.0
C92 C 0.23011 0.93253 0.63008 0.0
H93 H 0.06088 0.70885 0.70506 0.0
H94 H 0.15776 0.71679 0.74108 0.0
H95 H 0.23602 0.77231 0.73645 0.0
O96 O 0.09117 0.97421 0.45153 0.0
O97 O 0.06782 0.94172 0.66624 0.0
O98 O 0.06244 0.02601 0.68082 0.0
O99 O 0.04539 0.90179 0.48156 0.0
O100 O 0.08302 0.03836 0.51661 0.0
O101 O 0.07196 0.07687 0.60432 0.0
O102 O 0.94502 0.04624 0.71208 0.0
O103 O 0.97016 0.07915 0.49737 0.0
O104 O 0.97365 0.99448 0.484 0.0
O105 O 0.99082 0.11865 0.68199 0.0
O106 O 0.95288 0.98206 0.64692 0.0
O107 O 0.96449 0.94309 0.55984 0.0
C108 C 0.07709 0.97513 0.70416 0.0
C109 C 0.08191 0.91496 0.37441 0.0
C110 C 0.12674 0.91926 0.27405 0.0
C111 C 0.0931 0.88081 0.2571 0.0
C112 C 0.04887 0.87619 0.35625 0.0
C113 C 0.05442 0.85945 0.29795 0.0
C114 C 0.12118 0.937 0.33267 0.0
C115 C 0.09582 0.07284 0.55222 0.0
C116 C 0.07367 0.93108 0.43679 0.0
C117 C 0.15322 0.75929 0.71339 0.0
C118 C 0.19778 0.79093 0.71081 0.0
C119 C 0.96041 0.04568 0.45966 0.0
C120 C 0.95423 0.10555 0.78914 0.0
C121 C 0.91002 0.10053 0.89031 0.0
C122 C 0.94315 0.13957 0.90661 0.0
C123 C 0.98675 0.1449 0.80669 0.0
C124 C 0.91555 0.08284 0.83162 0.0
C125 C 0.98125 0.16157 0.86506 0.0
C126 C 0.94063 0.94707 0.61196 0.0
C127 C 0.96259 0.08934 0.72685 0.0
H128 H 0.09716 0.86669 0.21232 0.0
H129 H 0.01831 0.85865 0.38705 0.0
H130 H 0.02882 0.82955 0.2846 0.0
H131 H 0.14739 0.96652 0.34622 0.0
H132 H 0.93912 0.15366 0.95142 0.0
H133 H 0.01687 0.16293 0.77537 0.0
H134 H 0.88977 0.05283 0.81859 0.0
H135 H 1.00646 0.19191 0.87793 0.0
Eu136 Eu 0.46123 0.48686 1.01345 0.0
C137 C 0.68924 0.57258 0.11413 0.0
N138 N 0.66529 0.52573 0.14092 0.0
C139 C 0.74754 0.47704 0.16057 0.0
C140 C 0.74358 0.57318 0.10911 0.0
C141 C 0.69379 0.4784 0.1654 0.0
C142 C 0.7725 0.52456 0.13198 0.0
C143 C 0.68394 0.66967 0.06776 0.0
C144 C 0.65955 0.62034 0.09276 0.0
C145 C 0.7379 0.67026 0.06228 0.0
C146 C 0.76755 0.62215 0.08251 0.0
Eu147 Eu 0.57484 0.53328 0.14985 0.0
N148 N 0.60709 0.61865 0.09741 0.0
C149 C 0.65354 0.71708 0.05019 0.0
C150 C 0.57767 0.66475 0.08221 0.0
C151 C 0.60033 0.7146 0.05806 0.0
H152 H 0.67567 0.44162 0.19039 0.0
H153 H 0.57687 0.75111 0.04627 0.0
H154 H 0.36037 0.57849 0.97317 0.0
H155 H 0.45943 0.26904 0.11681 0.0
H156 H 0.53709 0.66328 0.09043 0.0
H157 H 0.67096 0.75575 0.03163 0.0
H158 H 0.49917 0.35695 0.07293 0.0
H159 H 0.76986 0.43938 0.17982 0.0
H160 H 0.75716 0.70776 0.04291 0.0
H161 H 0.80919 0.62328 0.07827 0.0
H162 H 0.26612 0.58059 0.98345 0.0
H163 H 0.81424 0.52336 0.1289 0.0
H164 H 0.36529 0.26429 0.13118 0.0
N165 N 0.3708 0.49437 0.0225 0.0
C166 C 0.34687 0.44746 0.0491 0.0
C167 C 0.28848 0.54295 1.00271 0.0
C168 C 0.29251 0.44679 0.05397 0.0
C169 C 0.34226 0.54167 0.99806 0.0
C170 C 0.26354 0.49539 0.03112 0.0
N171 N 0.42906 0.40147 0.06579 0.0
C172 C 0.45855 0.35541 0.08101 0.0
C173 C 0.35223 0.35036 0.0952 0.0
C174 C 0.37659 0.39972 0.07037 0.0
C175 C 0.38268 0.30298 0.11274 0.0
C176 C 0.43593 0.30553 0.10502 0.0
H177 H 0.22177 0.49652 0.03407 0.0
H178 H 0.2269 0.39659 0.0845 0.0
H179 H 0.279 0.31217 0.11978 0.0
O180 O 0.47433 0.44568 0.93439 0.0
O181 O 0.44927 0.46398 0.12946 0.0
O182 O 0.53114 0.45909 0.19991 0.0
O183 O 0.40898 0.50389 0.91361 0.0
O184 O 0.54381 0.44928 0.03545 0.0
O185 O 0.58121 0.44683 0.14965 0.0
O186 O 0.56152 0.57448 0.22881 0.0
O187 O 0.58705 0.55565 0.03403 0.0
O188 O 0.50512 0.56098 0.96366 0.0
O189 O 0.62704 0.51644 0.24976 0.0
O190 O 0.49228 0.57111 0.12735 0.0
O191 O 0.45488 0.57336 1.01323 0.0
C192 C 0.48067 0.44874 0.19089 0.0
C193 C 0.41513 0.46561 0.81908 0.0
C194 C 0.41634 0.42362 0.72535 0.0
C195 C 0.37756 0.46088 0.68176 0.0
C196 C 0.37591 0.50218 0.77401 0.0
C197 C 0.35753 0.49986 0.70595 0.0
C198 C 0.43564 0.42581 0.79446 0.0
C199 C 0.57656 0.42847 0.09454 0.0
C200 C 0.43349 0.47106 0.89043 0.0
C201 C 0.26856 0.39778 0.08037 0.0
C202 C 0.29825 0.3497 0.10055 0.0
C203 C 0.5557 0.57089 0.97259 0.0
C204 C 0.62067 0.55489 0.34415 0.0
C205 C 0.6191 0.59691 0.43783 0.0
C206 C 0.65826 0.56005 0.48129 0.0
C207 C 0.66028 0.51874 0.38911 0.0
C208 C 0.59977 0.59449 0.36882 0.0
C209 C 0.67866 0.52127 0.45707 0.0
C210 C 0.45975 0.59202 0.06808 0.0
C211 C 0.6024 0.54925 0.27285 0.0
H212 H 0.36227 0.45956 0.62867 0.0
H213 H 0.35936 0.53313 0.79109 0.0
H214 H 0.32744 0.52834 0.67185 0.0
H215 H 0.46547 0.39684 0.82853 0.0
H216 H 0.67358 0.56155 0.53429 0.0
H217 H 0.67715 0.48798 0.37201 0.0
H218 H 0.56965 0.62314 0.33483 0.0
H219 H 0.70907 0.49313 0.49107 0.0
C220 C 0.21972 0.16961 0.50365 0.0
C221 C 0.25614 0.19962 0.49355 0.0
C222 C 0.17663 0.13557 0.51982 0.0
C223 C 0.1398 0.10699 0.53462 0.0
C224 C 0.36931 0.72054 0.06137 0.0
C225 C 0.34097 0.75828 0.05708 0.0
C226 C 0.40074 0.67598 0.06269 0.0
C227 C 0.4272 0.63775 0.06385 0.0
C228 C 0.81755 0.84897 0.66018 0.0
C229 C 0.78121 0.81884 0.67012 0.0
C230 C 0.86035 0.88352 0.64437 0.0
C231 C 0.89692 0.91256 0.62977 0.0
C232 C 0.66806 0.3012 0.09939 0.0
C233 C 0.69696 0.26385 0.10377 0.0
C234 C 0.63621 0.3453 0.09866 0.0
C235 C 0.60949 0.38317 0.09819 0.0
C236 C 0.2155 0.91855 0.13516 0.0
C237 C 0.23239 0.89488 0.09919 0.0
C238 C 0.19341 0.9356 0.18575 0.0
C239 C 0.16774 0.93609 0.23128 0.0
C240 C 0.6229 0.66348 0.80703 0.0
C241 C 0.64688 0.69203 0.76303 0.0
C242 C 0.59761 0.63087 0.86267 0.0
C243 C 0.57771 0.60358 0.91209 0.0
C244 C 0.86561 0.10177 0.26878 0.0
C245 C 0.83349 0.12442 0.21792 0.0
C246 C 0.9002 0.08072 0.33376 0.0
C247 C 0.92767 0.06462 0.39117 0.0
C248 C 0.41714 0.33498 0.59927 0.0
C249 C 0.39361 0.31576 0.5559 0.0
C250 C 0.43257 0.35795 0.65473 0.0
C251 C 0.43239 0.38301 0.69658 0.0
C252 C 0.618 0.68568 0.56372 0.0
C253 C 0.64184 0.70477 0.60705 0.0
C254 C 0.60249 0.66256 0.50839 0.0
C255 C 0.60277 0.63744 0.4666 0.0
C256 C 0.82191 0.1009 0.02988 0.0
C257 C 0.80524 0.12538 0.0651 0.0
C258 C 0.84399 0.0835 0.97952 0.0
C259 C 0.86945 0.08315 0.93371 0.0
C260 C 0.41439 0.35478 0.35661 0.0
C261 C 0.39058 0.32609 0.40074 0.0
C262 C 0.43929 0.38783 0.30082 0.0
C263 C 0.45887 0.41555 0.25133 0.0
C264 C 0.17366 0.92106 0.89399 0.0
C265 C 0.20602 0.89882 0.94478 0.0
C266 C 0.13858 0.94125 0.82924 0.0
C267 C 0.11054 0.95662 0.77218 0.0
loop_
_geom_bond_atom_site_label_1
_geom_bond_atom_site_label_2
_geom_bond_distance
_geom_bond_site_symmetry_2
_ccdc_geom_bond_type
C0 N1 1.317 . S
C0 N2 1.348 1_556 S
C0 C3 1.485 . S
N1 C0 1.317 . S
N1 N5 1.370 1_556 S
N2 C0 1.348 1_554 S
N2 C4 1.346 . S
C3 C0 1.485 . S
C3 H7 0.960 . S
C3 H8 0.961 . S
C3 H9 0.960 . S
C4 N2 1.346 . S
C4 N5 1.307 . S
C4 C6 1.486 . S
N5 N1 1.370 1_554 S
N5 C4 1.307 . S
C6 C4 1.486 . S
C6 H10 0.960 . S
C6 H11 0.960 . S
C6 H12 0.959 . S
H7 C3 0.960 . S
H8 C3 0.961 . S
H9 C3 0.960 . S
H10 C6 0.960 . S
H11 C6 0.960 . S
H12 C6 0.959 . S
C13 N14 1.317 . S
C13 N15 1.348 . S
C13 C16 1.485 . S
N14 C13 1.317 . S
N14 N18 1.370 . S
N15 C13 1.348 . S
N15 C17 1.346 . S
C16 C13 1.485 . S
C16 H20 0.960 . S
C16 H21 0.961 . S
C16 H22 0.960 . S
C17 N15 1.346 . S
C17 N18 1.307 . S
C17 C19 1.486 . S
N18 N14 1.370 . S
N18 C17 1.307 . S
C19 C17 1.486 . S
C19 H23 0.960 . S
C19 H24 0.960 . S
C19 H25 0.959 . S
H20 C16 0.960 . S
H21 C16 0.961 . S
H22 C16 0.960 . S
H23 C19 0.960 . S
H24 C19 0.960 . S
H25 C19 0.959 . S
C26 N27 1.317 . S
C26 N28 1.348 . S
C26 C29 1.485 . S
N27 C26 1.317 . S
N27 N31 1.370 . S
N28 C26 1.348 . S
N28 C30 1.346 . S
C29 C26 1.485 . S
C29 H33 0.960 . S
C29 H34 0.961 . S
C29 H35 0.960 . S
C30 N28 1.346 . S
C30 N31 1.307 . S
C30 C32 1.486 1_554 S
N31 N27 1.370 . S
N31 C30 1.307 . S
C32 C30 1.486 1_556 S
C32 H36 0.960 . S
C32 H37 0.960 . S
C32 H38 0.959 . S
H33 C29 0.960 . S
H34 C29 0.961 . S
H35 C29 0.960 . S
H36 C32 0.960 . S
H37 C32 0.960 . S
H38 C32 0.959 . S
C39 N40 1.317 . S
C39 N41 1.348 . S
C39 C42 1.485 . S
N40 C39 1.317 . S
N40 N44 1.370 . S
N41 C39 1.348 . S
N41 C43 1.346 . S
C42 C39 1.485 . S
C42 H46 0.960 . S
C42 H47 0.961 . S
C42 H48 0.960 . S
C43 N41 1.346 . S
C43 N44 1.307 . S
C43 C45 1.486 . S
N44 N40 1.370 . S
N44 C43 1.307 . S
C45 C43 1.486 . S
C45 H49 0.960 . S
C45 H50 0.960 . S
C45 H51 0.959 . S
H46 C42 0.960 . S
H47 C42 0.961 . S
H48 C42 0.960 . S
H49 C45 0.960 . S
H50 C45 0.960 . S
H51 C45 0.959 . S
Eu52 N81 2.600 . S
Eu52 N87 2.562 . S
Eu52 O96 2.462 . S
Eu52 O97 2.373 . S
Eu52 O99 2.432 . S
Eu52 O100 2.291 1_565 S
Eu52 O104 2.335 1_465 S
Eu52 O107 2.372 1_455 S
Eu52 C116 2.787 . S
C53 N54 1.365 . S
C53 C56 1.405 . S
C53 C60 1.448 . S
N54 C53 1.365 . S
N54 C57 1.319 1_655 S
N54 Eu63 2.600 . S
C55 C57 1.397 . S
C55 C58 1.367 1_455 S
C55 H75 0.931 . S
C56 C53 1.405 . S
C56 C58 1.403 . S
C56 C62 1.439 . S
C57 N54 1.319 1_455 S
C57 C55 1.397 . S
C57 H68 0.930 . S
C58 C55 1.367 1_655 S
C58 C56 1.403 . S
C58 H79 0.929 . S
C59 C60 1.430 . S
C59 C61 1.387 . S
C59 C65 1.404 . S
C60 C53 1.448 . S
C60 C59 1.430 . S
C60 N64 1.351 . S
C61 C59 1.387 . S
C61 C62 1.374 . S
C61 H76 0.931 . S
C62 C56 1.439 . S
C62 C61 1.374 . S
C62 H77 0.931 . S
Eu63 N54 2.600 . S
Eu63 N64 2.562 . S
Eu63 O98 2.335 1_655 S
Eu63 O101 2.372 1_655 S
Eu63 O102 2.462 . S
Eu63 O103 2.373 . S
Eu63 O105 2.432 . S
Eu63 O106 2.291 1_545 S
Eu63 C127 2.787 . S
N64 C60 1.351 . S
N64 Eu63 2.562 . S
N64 C66 1.325 . S
C65 C59 1.404 . S
C65 C67 1.366 . S
C65 H73 0.930 . S
C66 N64 1.325 . S
C66 C67 1.416 . S
C66 H72 0.929 . S
C67 C65 1.366 . S
C67 C66 1.416 . S
C67 H69 0.930 . S
H68 C57 0.930 . S
H69 C67 0.930 . S
H70 C85 0.930 1_655 S
H71 C92 0.930 . S
H72 C66 0.929 . S
H73 C65 0.930 . S
H74 C88 0.929 . S
H75 C55 0.931 . S
H76 C61 0.931 . S
H77 C62 0.931 . S
H78 C83 0.931 1_655 S
H79 C58 0.929 . S
H80 C91 0.930 . S
N81 Eu52 2.600 . S
N81 C82 1.365 . S
N81 C85 1.319 . S
C82 N81 1.365 . S
C82 C84 1.405 . S
C82 C90 1.448 . S
C83 H78 0.931 1_455 S
C83 C85 1.397 . S
C83 C86 1.367 . S
C84 C82 1.405 . S
C84 C86 1.403 . S
C84 C117 1.439 . S
C85 H70 0.930 1_455 S
C85 N81 1.319 . S
C85 C83 1.397 . S
C86 C83 1.367 . S
C86 C84 1.403 . S
C86 H93 0.929 . S
N87 Eu52 2.562 . S
N87 C88 1.325 . S
N87 C90 1.351 . S
C88 H74 0.929 . S
C88 N87 1.325 . S
C88 C92 1.416 . S
C89 C90 1.430 . S
C89 C91 1.404 . S
C89 C118 1.387 . S
C90 C82 1.448 . S
C90 N87 1.351 . S
C90 C89 1.430 . S
C91 H80 0.930 . S
C91 C89 1.404 . S
C91 C92 1.366 . S
C92 H71 0.930 . S
C92 C88 1.416 . S
C92 C91 1.366 . S
H93 C86 0.929 . S
H94 C117 0.931 . S
H95 C118 0.931 . S
O96 Eu52 2.462 . S
O96 C116 1.252 . S
O97 Eu52 2.373 . S
O97 C108 1.249 . S
O98 Eu63 2.335 1_455 S
O98 C108 1.264 1_545 S
O99 Eu52 2.432 . S
O99 C116 1.268 . S
O100 Eu52 2.291 1_545 S
O100 C115 1.255 . S
O101 Eu63 2.372 1_455 S
O101 C115 1.257 . S
O102 Eu63 2.462 . S
O102 C127 1.252 . S
O103 Eu63 2.373 . S
O103 C119 1.249 . S
O104 Eu52 2.335 1_645 S
O104 C119 1.264 . S
O105 Eu63 2.432 . S
O105 C127 1.268 . S
O106 Eu63 2.291 1_565 S
O106 C126 1.255 . S
O107 Eu52 2.372 1_655 S
O107 C126 1.257 . S
C108 O97 1.249 . S
C108 O98 1.264 1_565 S
C109 C112 1.382 . S
C109 C114 1.390 . S
C109 C116 1.506 . S
C110 C111 1.398 . S
C110 C114 1.392 . S
C111 C110 1.398 . S
C111 C113 1.372 . S
C111 H128 0.931 . S
C112 C109 1.382 . S
C112 C113 1.390 . S
C112 H129 0.931 . S
C113 C111 1.372 . S
C113 C112 1.390 . S
C113 H130 0.929 . S
C114 C109 1.390 . S
C114 C110 1.392 . S
C114 H131 0.930 . S
C115 O100 1.255 . S
C115 O101 1.257 . S
C116 Eu52 2.787 . S
C116 O96 1.252 . S
C116 O99 1.268 . S
C116 C109 1.506 . S
C117 C84 1.439 . S
C117 H94 0.931 . S
C117 C118 1.374 . S
C118 C89 1.387 . S
C118 H95 0.931 . S
C118 C117 1.374 . S
C119 O103 1.249 . S
C119 O104 1.264 . S
C120 C123 1.382 . S
C120 C124 1.390 . S
C120 C127 1.506 . S
C121 C122 1.398 . S
C121 C124 1.392 . S
C122 C121 1.398 . S
C122 C125 1.372 . S
C122 H132 0.931 . S
C123 C120 1.382 . S
C123 C125 1.390 . S
C123 H133 0.931 . S
C124 C120 1.390 . S
C124 C121 1.392 . S
C124 H134 0.930 . S
C125 C122 1.372 . S
C125 C123 1.390 . S
C125 H135 0.929 . S
C126 O106 1.255 . S
C126 O107 1.257 . S
C127 Eu63 2.787 . S
C127 O102 1.252 . S
C127 O105 1.268 . S
C127 C120 1.506 . S
H128 C111 0.931 . S
H129 C112 0.931 . S
H130 C113 0.929 . S
H131 C114 0.930 . S
H132 C122 0.931 . S
H133 C123 0.931 . S
H134 C124 0.930 . S
H135 C125 0.929 . S
Eu136 N165 2.600 1_556 S
Eu136 N171 2.562 1_556 S
Eu136 O180 2.460 . S
Eu136 O181 2.374 1_556 S
Eu136 O183 2.430 . S
Eu136 O184 2.291 1_556 S
Eu136 O188 2.334 . S
Eu136 O191 2.372 1_556 S
Eu136 C200 2.785 . S
C137 N138 1.365 . S
C137 C140 1.405 . S
C137 C144 1.448 . S
N138 C137 1.365 . S
N138 C141 1.319 . S
N138 Eu147 2.600 . S
C139 C141 1.397 . S
C139 C142 1.367 . S
C139 H159 0.931 . S
C140 C137 1.405 . S
C140 C142 1.403 . S
C140 C146 1.439 . S
C141 N138 1.319 . S
C141 C139 1.397 . S
C141 H152 0.930 . S
C142 C139 1.367 . S
C142 C140 1.403 . S
C142 H163 0.929 . S
C143 C144 1.430 . S
C143 C145 1.387 . S
C143 C149 1.404 . S
C144 C137 1.448 . S
C144 C143 1.430 . S
C144 N148 1.351 . S
C145 C143 1.387 . S
C145 C146 1.374 . S
C145 H160 0.931 . S
C146 C140 1.439 . S
C146 C145 1.374 . S
C146 H161 0.931 . S
Eu147 N138 2.600 . S
Eu147 N148 2.562 . S
Eu147 O182 2.335 . S
Eu147 O185 2.372 . S
Eu147 O186 2.462 . S
Eu147 O187 2.373 . S
Eu147 O189 2.432 . S
Eu147 O190 2.291 . S
Eu147 C211 2.787 . S
N148 C144 1.351 . S
N148 Eu147 2.562 . S
N148 C150 1.325 . S
C149 C143 1.404 . S
C149 C151 1.366 . S
C149 H157 0.930 . S
C150 N148 1.325 . S
C150 C151 1.416 . S
C150 H156 0.929 . S
C151 C149 1.366 . S
C151 C150 1.416 . S
C151 H153 0.930 . S
H152 C141 0.930 . S
H153 C151 0.930 . S
H154 C169 0.930 . S
H155 C176 0.930 . S
H156 C150 0.929 . S
H157 C149 0.930 . S
H158 C172 0.929 . S
H159 C139 0.931 . S
H160 C145 0.931 . S
H161 C146 0.931 . S
H162 C167 0.931 . S
H163 C142 0.929 . S
H164 C175 0.930 . S
N165 Eu136 2.600 1_554 S
N165 C166 1.365 . S
N165 C169 1.319 1_554 S
C166 N165 1.365 . S
C166 C168 1.405 . S
C166 C174 1.448 . S
C167 H162 0.931 . S
C167 C169 1.397 . S
C167 C170 1.367 1_556 S
C168 C166 1.405 . S
C168 C170 1.403 . S
C168 C201 1.439 . S
C169 H154 0.930 . S
C169 N165 1.319 1_556 S
C169 C167 1.397 . S
C170 C167 1.367 1_554 S
C170 C168 1.403 . S
C170 H177 0.929 . S
N171 Eu136 2.562 1_554 S
N171 C172 1.325 . S
N171 C174 1.351 . S
C172 H158 0.929 . S
C172 N171 1.325 . S
C172 C176 1.416 . S
C173 C174 1.430 . S
C173 C175 1.404 . S
C173 C202 1.387 . S
C174 C166 1.448 . S
C174 N171 1.351 . S
C174 C173 1.430 . S
C175 H164 0.930 . S
C175 C173 1.404 . S
C175 C176 1.366 . S
C176 H155 0.930 . S
C176 C172 1.416 . S
C176 C175 1.366 . S
H177 C170 0.929 . S
H178 C201 0.931 . S
H179 C202 0.931 . S
O180 Eu136 2.460 . S
O180 C200 1.252 . S
O181 Eu136 2.374 1_554 S
O181 C192 1.249 . S
O182 Eu147 2.335 . S
O182 C192 1.264 . S
O183 Eu136 2.430 . S
O183 C200 1.268 . S
O184 Eu136 2.291 1_554 S
O184 C199 1.255 . S
O185 Eu147 2.372 . S
O185 C199 1.257 . S
O186 Eu147 2.462 . S
O186 C211 1.252 . S
O187 Eu147 2.373 . S
O187 C203 1.249 1_554 S
O188 Eu136 2.334 . S
O188 C203 1.264 . S
O189 Eu147 2.432 . S
O189 C211 1.268 . S
O190 Eu147 2.291 . S
O190 C210 1.255 . S
O191 Eu136 2.372 1_554 S
O191 C210 1.257 . S
C192 O181 1.249 . S
C192 O182 1.264 . S
C193 C196 1.382 . S
C193 C198 1.390 . S
C193 C200 1.506 . S
C194 C195 1.398 . S
C194 C198 1.392 . S
C195 C194 1.398 . S
C195 C197 1.372 . S
C195 H212 0.931 . S
C196 C193 1.382 . S
C196 C197 1.390 . S
C196 H213 0.931 . S
C197 C195 1.372 . S
C197 C196 1.390 . S
C197 H214 0.929 . S
C198 C193 1.390 . S
C198 C194 1.392 . S
C198 H215 0.930 . S
C199 O184 1.255 . S
C199 O185 1.257 . S
C200 Eu136 2.785 . S
C200 O180 1.252 . S
C200 O183 1.268 . S
C200 C193 1.506 . S
C201 C168 1.439 . S
C201 H178 0.931 . S
C201 C202 1.374 . S
C202 C173 1.387 . S
C202 H179 0.931 . S
C202 C201 1.374 . S
C203 O187 1.249 1_556 S
C203 O188 1.264 . S
C204 C207 1.382 . S
C204 C208 1.390 . S
C204 C211 1.506 . S
C205 C206 1.398 . S
C205 C208 1.392 . S
C206 C205 1.398 . S
C206 C209 1.372 . S
C206 H216 0.931 . S
C207 C204 1.382 . S
C207 C209 1.390 . S
C207 H217 0.931 . S
C208 C204 1.390 . S
C208 C205 1.392 . S
C208 H218 0.930 . S
C209 C206 1.372 . S
C209 C207 1.390 . S
C209 H219 0.929 . S
C210 O190 1.255 . S
C210 O191 1.257 . S
C211 Eu147 2.787 . S
C211 O186 1.252 . S
C211 O189 1.268 . S
C211 C204 1.506 . S
H212 C195 0.931 . S
H213 C196 0.931 . S
H214 C197 0.929 . S
H215 C198 0.930 . S
H216 C206 0.931 . S
H217 C207 0.931 . S
H218 C208 0.930 . S
H219 C209 0.929 . S
C220 C221 1.170 . S
C220 C222 1.380 . S
C221 C220 1.170 . S
C222 C220 1.380 . S
C222 C223 1.170 . S
C223 C222 1.170 . S
C224 C225 1.170 . S
C224 C226 1.380 . S
C225 C224 1.170 . S
C226 C224 1.380 . S
C226 C227 1.170 . S
C227 C226 1.170 . S
C228 C229 1.170 . S
C228 C230 1.380 . S
C229 C228 1.170 . S
C230 C228 1.380 . S
C230 C231 1.170 . S
C231 C230 1.170 . S
C232 C233 1.170 . S
C232 C234 1.380 . S
C233 C232 1.170 . S
C234 C232 1.380 . S
C234 C235 1.170 . S
C235 C234 1.170 . S
C236 C237 1.170 . S
C236 C238 1.380 . S
C237 C236 1.170 . S
C238 C236 1.380 . S
C238 C239 1.170 . S
C239 C238 1.170 . S
C240 C241 1.170 . S
C240 C242 1.380 . S
C241 C240 1.170 . S
C242 C240 1.380 . S
C242 C243 1.170 . S
C243 C242 1.170 . S
C244 C245 1.170 . S
C244 C246 1.380 . S
C245 C244 1.170 . S
C246 C244 1.380 . S
C246 C247 1.170 . S
C247 C246 1.170 . S
C248 C249 1.170 . S
C248 C250 1.380 . S
C249 C248 1.170 . S
C250 C248 1.380 . S
C250 C251 1.170 . S
C251 C250 1.170 . S
C252 C253 1.170 . S
C252 C254 1.380 . S
C253 C252 1.170 . S
C254 C252 1.380 . S
C254 C255 1.170 . S
C255 C254 1.170 . S
C256 C257 1.170 1_556 S
C256 C258 1.380 . S
C257 C256 1.170 1_554 S
C258 C256 1.380 . S
C258 C259 1.170 . S
C259 C258 1.170 . S
C260 C261 1.170 . S
C260 C262 1.380 . S
C261 C260 1.170 . S
C262 C260 1.380 . S
C262 C263 1.170 . S
C263 C262 1.170 . S
C264 C265 1.170 . S
C264 C266 1.380 . S
C265 C264 1.170 . S
C266 C264 1.380 . S
C266 C267 1.170 . S
C267 C266 1.170 . S
C223 C115 1.632 . S
C221 N41 1.668 . S
C225 N2 1.608 . S
C227 C210 1.600 . S
C229 N15 1.676 . S
C231 C126 1.645 . S
C233 N28 1.601 . S
C235 C199 1.603 . S
C239 C110 1.387 . S
C237 N5 1.586 . S
C243 C203 1.659 . S
C241 N14 1.655 . S
C245 N27 1.553 . S
C247 C119 1.607 . S
C249 N44 1.565 . S
C251 C194 1.376 . S
C255 C205 1.413 . S
C253 N18 1.582 . S
C259 C121 1.401 . S
C257 N31 1.592 . S
C263 C192 1.660 . S
C261 N40 1.659 . S
C265 N1 1.596 . S
C267 C108 1.610 . S
