# Generated by pormake.
# Topology ctn, (3,4)-cn, num edge types: 1
# Building blocks:
#     Node 0, Type 0, BuildingBlock: BELTOD_clean_linker_0, # of connection points: 3
#     Node 1, Type 0, BuildingBlock: BELTOD_clean_linker_0, # of connection points: 3
#     Node 2, Type 0, BuildingBlock: BELTOD_clean_linker_0, # of connection points: 3
#     Node 3, Type 0, BuildingBlock: BELTOD_clean_linker_0, # of connection points: 3
#     Node 4, Type 0, BuildingBlock: BELTOD_clean_linker_0, # of connection points: 3
#     Node 5, Type 0, BuildingBlock: BELTOD_clean_linker_0, # of connection points: 3
#     Node 6, Type 0, BuildingBlock: BELTOD_clean_linker_0, # of connection points: 3
#     Node 7, Type 0, BuildingBlock: BELTOD_clean_linker_0, # of connection points: 3
#     Node 8, Type 0, BuildingBlock: BELTOD_clean_linker_0, # of connection points: 3
#     Node 9, Type 0, BuildingBlock: BELTOD_clean_linker_0, # of connection points: 3
#     Node 10, Type 0, BuildingBlock: BELTOD_clean_linker_0, # of connection points: 3
#     Node 11, Type 0, BuildingBlock: BELTOD_clean_linker_0, # of connection points: 3
#     Node 12, Type 0, BuildingBlock: BELTOD_clean_linker_0, # of connection points: 3
#     Node 13, Type 0, BuildingBlock: BELTOD_clean_linker_0, # of connection points: 3
#     Node 14, Type 0, BuildingBlock: BELTOD_clean_linker_0, # of connection points: 3
#     Node 15, Type 0, BuildingBlock: BELTOD_clean_linker_0, # of connection points: 3
#     Node 16, Type 1, BuildingBlock: QUQFOY_clean_sbu_1, # of connection points: 4
#     Node 17, Type 1, BuildingBlock: QUQFOY_clean_sbu_1, # of connection points: 4
#     Node 18, Type 1, BuildingBlock: QUQFOY_clean_sbu_1, # of connection points: 4
#     Node 19, Type 1, BuildingBlock: QUQFOY_clean_sbu_1, # of connection points: 4
#     Node 20, Type 1, BuildingBlock: QUQFOY_clean_sbu_1, # of connection points: 4
#     Node 21, Type 1, BuildingBlock: QUQFOY_clean_sbu_1, # of connection points: 4
#     Node 22, Type 1, BuildingBlock: QUQFOY_clean_sbu_1, # of connection points: 4
#     Node 23, Type 1, BuildingBlock: QUQFOY_clean_sbu_1, # of connection points: 4
#     Node 24, Type 1, BuildingBlock: QUQFOY_clean_sbu_1, # of connection points: 4
#     Node 25, Type 1, BuildingBlock: QUQFOY_clean_sbu_1, # of connection points: 4
#     Node 26, Type 1, BuildingBlock: QUQFOY_clean_sbu_1, # of connection points: 4
#     Node 27, Type 1, BuildingBlock: QUQFOY_clean_sbu_1, # of connection points: 4
#     Edge 28, Type (0, 1), None
#     Edge 29, Type (0, 1), None
#     Edge 30, Type (0, 1), None
#     Edge 31, Type (0, 1), None
#     Edge 32, Type (0, 1), None
#     Edge 33, Type (0, 1), None
#     Edge 34, Type (0, 1), None
#     Edge 35, Type (0, 1), None
#     Edge 36, Type (0, 1), None
#     Edge 37, Type (0, 1), None
#     Edge 38, Type (0, 1), None
#     Edge 39, Type (0, 1), None
#     Edge 40, Type (0, 1), None
#     Edge 41, Type (0, 1), None
#     Edge 42, Type (0, 1), None
#     Edge 43, Type (0, 1), None
#     Edge 44, Type (0, 1), None
#     Edge 45, Type (0, 1), None
#     Edge 46, Type (0, 1), None
#     Edge 47, Type (0, 1), None
#     Edge 48, Type (0, 1), None
#     Edge 49, Type (0, 1), None
#     Edge 50, Type (0, 1), None
#     Edge 51, Type (0, 1), None
#     Edge 52, Type (0, 1), None
#     Edge 53, Type (0, 1), None
#     Edge 54, Type (0, 1), None
#     Edge 55, Type (0, 1), None
#     Edge 56, Type (0, 1), None
#     Edge 57, Type (0, 1), None
#     Edge 58, Type (0, 1), None
#     Edge 59, Type (0, 1), None
#     Edge 60, Type (0, 1), None
#     Edge 61, Type (0, 1), None
#     Edge 62, Type (0, 1), None
#     Edge 63, Type (0, 1), None
#     Edge 64, Type (0, 1), None
#     Edge 65, Type (0, 1), None
#     Edge 66, Type (0, 1), None
#     Edge 67, Type (0, 1), None
#     Edge 68, Type (0, 1), None
#     Edge 69, Type (0, 1), None
#     Edge 70, Type (0, 1), None
#     Edge 71, Type (0, 1), None
#     Edge 72, Type (0, 1), None
#     Edge 73, Type (0, 1), None
#     Edge 74, Type (0, 1), None
#     Edge 75, Type (0, 1), None
# Relax obj value: 0.039
# Max RMSD: 0.158
# Mean RMSD: 0.070
data_MOF--net-ctn--node1-QUQFOY_clean_sbu_1--node2-BELTOD_clean_linker_0--edge1-none
_symmetry_space_group_name_H-M    P1
_symmetry_Int_Tables_number       1
_symmetry_cell_setting            triclinic
loop_
_symmetry_equiv_pos_as_xyz
'x, y, z'
_cell_length_a     32.134698
_cell_length_b     32.213061
_cell_length_c     31.812261
_cell_angle_alpha  92.40823
_cell_angle_beta   90.709894
_cell_angle_gamma 95.877215
loop_
_atom_site_label
_atom_site_type_symbol
_atom_site_fract_x
_atom_site_fract_y
_atom_site_fract_z
_atom_type_partial_charge
P0 P 0.0799 0.10788 0.06417 0.0
H1 H 0.03852 0.1407 0.13814 0.0
H2 H 0.98329 0.10972 0.18315 0.0
H3 H 0.97326 -0.00331 0.10393 0.0
H4 H 0.02734 0.02817 0.05866 0.0
H5 H 0.11644 0.08823 0.98182 0.0
H6 H 0.1584 0.03269 0.95804 0.0
H7 H 0.14891 0.98047 0.0809 0.0
H8 H 0.1083 0.03667 0.10478 0.0
H9 H 0.11711 0.17381 0.01162 0.0
H10 H -0.00439 0.10611 0.02683 0.0
O11 O 0.11232 0.14058 0.09437 0.0
H12 H 0.08601 0.2207 0.96405 0.0
H13 H 0.96455 0.15313 0.98067 0.0
C14 C 0.03805 0.08608 0.09613 0.0
C15 C 0.0243 0.1093 0.13052 0.0
C16 C -0.0074 0.0917 0.15598 0.0
C17 C 0.97448 0.05059 0.14733 0.0
C18 C 0.98713 0.0282 0.11171 0.0
C19 C 0.01825 0.04605 0.086 0.0
C20 C 0.10873 0.0662 0.04487 0.0
C21 C 0.12312 0.0647 0.00351 0.0
C22 C 0.14701 0.03286 0.98994 0.0
C23 C 0.1565 0.00196 0.0175 0.0
C24 C 0.14156 0.0034 0.05874 0.0
C25 C 0.11844 0.0356 0.07244 0.0
C26 C 0.05858 0.13706 0.02348 0.0
C27 C 0.08393 0.16869 0.00429 0.0
C28 C 0.06618 0.19535 0.9771 0.0
C29 C 0.02279 0.1909 0.96928 0.0
C30 C -0.00199 0.15764 0.98663 0.0
C31 C 0.01582 0.1307 0.01315 0.0
P32 P 0.27814 0.68508 0.22082 0.0
H33 H 0.31453 0.69364 0.13878 0.0
H34 H 0.30374 0.73901 0.08143 0.0
H35 H 0.20521 0.79157 0.15062 0.0
H36 H 0.21629 0.74536 0.20846 0.0
H37 H 0.34155 0.65606 0.2746 0.0
H38 H 0.39272 0.69166 0.32457 0.0
H39 H 0.35248 0.81055 0.29252 0.0
H40 H 0.30027 0.77439 0.24327 0.0
H41 H 0.19243 0.65433 0.19624 0.0
H42 H 0.26577 0.6754 0.31126 0.0
O43 O 0.29699 0.6421 0.2011 0.0
H44 H 0.13864 0.61191 0.23382 0.0
H45 H 0.2132 0.6321 0.34807 0.0
C46 C 0.26594 0.71589 0.17753 0.0
C47 C 0.29008 0.71433 0.14138 0.0
C48 C 0.28384 0.74036 0.10859 0.0
C49 C 0.25354 0.76882 0.1115 0.0
C50 C 0.22844 0.7696 0.14735 0.0
C51 C 0.23484 0.7434 0.18039 0.0
C52 C 0.31779 0.71266 0.25466 0.0
C53 C 0.34392 0.68981 0.27812 0.0
C54 C 0.37279 0.71017 0.30706 0.0
C55 C 0.37648 0.75389 0.31256 0.0
C56 C 0.3503 0.77681 0.28888 0.0
C57 C 0.32072 0.75623 0.26051 0.0
C58 C 0.23321 0.66793 0.25077 0.0
C59 C 0.19625 0.65126 0.2298 0.0
C60 C 0.16555 0.62708 0.25129 0.0
C61 C 0.17224 0.61853 0.29363 0.0
C62 C 0.20755 0.63817 0.31534 0.0
C63 C 0.23774 0.66289 0.29411 0.0
P64 P 0.97365 0.50217 0.08554 0.0
H65 H 0.00302 0.50224 -4e-05 0.0
H66 H 0.0021 0.4481 0.94422 0.0
H67 H 0.95321 0.35597 0.03089 0.0
H68 H 0.95412 0.41091 0.08671 0.0
H69 H 0.94044 0.58109 0.10924 0.0
H70 H 0.87861 0.6128 0.08452 0.0
H71 H 0.83838 0.4995 0.01164 0.0
H72 H 0.89816 0.46728 0.03778 0.0
H73 H 0.03248 0.45189 0.12438 0.0
H74 H 0.93179 0.52233 0.16435 0.0
O75 O 0.01129 0.54053 0.07745 0.0
H76 H 0.05585 0.4491 0.19742 0.0
H77 H 0.95528 0.52025 0.2372 0.0
C78 C 0.97977 0.46035 0.04767 0.0
C79 C -0.007 0.47025 0.00723 0.0
C80 C -0.008 0.43924 0.97524 0.0
C81 C 0.9774 0.39766 0.98301 0.0
C82 C 0.96468 0.38768 0.02388 0.0
C83 C 0.96559 0.41892 0.05592 0.0
C84 C 0.92434 0.52204 0.07495 0.0
C85 C 0.91763 0.56271 0.08891 0.0
C86 C 0.88245 0.5808 0.07483 0.0
C87 C 0.85434 0.55864 0.04582 0.0
C88 C 0.86001 0.51729 0.03366 0.0
C89 C 0.89434 0.4989 0.04863 0.0
C90 C 0.98043 0.48734 0.13885 0.0
C91 C 0.01437 0.46531 0.149 0.0
C92 C 0.02773 0.46373 0.19084 0.0
C93 C 0.00776 0.48498 0.223 0.0
C94 C 0.97149 0.5038 0.21306 0.0
C95 C 0.958 0.50505 0.17127 0.0
P96 P 0.65292 0.86194 0.1636 0.0
H97 H 0.73525 0.87991 0.12728 0.0
H98 H 0.79939 0.9209 0.15332 0.0
H99 H 0.7392 0.94587 0.27127 0.0
H100 H 0.67577 0.90509 0.24523 0.0
H101 H 0.60306 0.81023 0.10141 0.0
H102 H 0.61361 0.74527 0.06289 0.0
H103 H 0.72768 0.7376 0.13442 0.0
H104 H 0.71643 0.80274 0.17335 0.0
H105 H 0.58541 0.91016 0.19009 0.0
H106 H 0.64014 0.80082 0.22883 0.0
O107 O 0.63467 0.89156 0.12721 0.0
H108 H 0.53741 0.9046 0.2487 0.0
H109 H 0.59193 0.79481 0.28785 0.0
C110 C 0.70099 0.88883 0.18445 0.0
C111 C 0.73618 0.8938 0.15892 0.0
C112 C 0.77273 0.91734 0.17383 0.0
C113 C 0.77439 0.93668 0.21441 0.0
C114 C 0.73902 0.93139 0.23991 0.0
C115 C 0.70263 0.9078 0.22501 0.0
C116 C 0.65972 0.81193 0.13903 0.0
C117 C 0.63018 0.79441 0.109 0.0
C118 C 0.63617 0.75711 0.08719 0.0
C119 C 0.6718 0.73655 0.09523 0.0
C120 C 0.70002 0.7528 0.1274 0.0
C121 C 0.69387 0.79023 0.14934 0.0
C122 C 0.61543 0.85525 0.20461 0.0
C123 C 0.58667 0.88459 0.21095 0.0
C124 C 0.55949 0.88155 0.24472 0.0
C125 C 0.56089 0.84922 0.2729 0.0
C126 C 0.59009 0.82001 0.26663 0.0
C127 C 0.61736 0.82317 0.23277 0.0
P128 P 0.05704 0.9171 0.43313 0.0
H129 H 0.14397 0.94057 0.41064 0.0
H130 H 0.19331 0.00119 0.42978 0.0
H131 H 0.09882 0.05307 0.50561 0.0
H132 H 0.04981 0.99175 0.48671 0.0
H133 H 0.97455 0.87499 0.45236 0.0
H134 H 0.94876 0.8368 0.51308 0.0
H135 H 0.06899 0.8665 0.57565 0.0
H136 H 0.09432 0.90506 0.51495 0.0
H137 H 0.04465 0.90916 0.34231 0.0
H138 H 0.98469 0.96436 0.44825 0.0
O139 O 0.08205 0.88115 0.40736 0.0
H140 H -0.0049 0.93576 0.29454 0.0
H141 H 0.93477 0.99174 0.40037 0.0
C142 C 0.09337 0.96166 0.44746 0.0
C143 C 0.13392 0.96488 0.43151 0.0
C144 C 0.16209 -0.00036 0.44248 0.0
C145 C 0.15 0.03199 0.46926 0.0
C146 C 0.10908 0.02877 0.48484 0.0
C147 C 0.08104 0.99377 0.47408 0.0
C148 C 0.03597 0.89378 0.47964 0.0
C149 C -0.00499 0.87416 0.47954 0.0
C150 C 0.98039 0.85214 0.51424 0.0
C151 C 0.00683 0.8487 0.54924 0.0
C152 C 0.04779 0.8687 0.54928 0.0
C153 C 0.06224 0.89093 0.51468 0.0
C154 C 0.01791 0.93419 0.39883 0.0
C155 C 0.02046 0.92666 0.35535 0.0
C156 C -0.00789 0.94211 0.32801 0.0
C157 C 0.96085 0.9659 0.3436 0.0
C158 C 0.95842 0.97352 0.38733 0.0
C159 C 0.98685 0.95782 0.41473 0.0
P160 P 0.28259 0.76713 0.7673 0.0
H161 H 0.31873 0.76184 0.85257 0.0
H162 H 0.30167 0.79302 0.92047 0.0
H163 H 0.21541 0.8663 0.8589 0.0
H164 H 0.23175 0.83424 0.79127 0.0
H165 H 0.34273 0.72148 0.72037 0.0
H166 H 0.36791 0.65296 0.7282 0.0
H167 H 0.28878 0.63333 0.83594 0.0
H168 H 0.26375 0.70137 0.82781 0.0
H169 H 0.2448 0.8101 0.69883 0.0
H170 H 0.20697 0.71379 0.78477 0.0
O171 O 0.31604 0.79691 0.73879 0.0
H172 H 0.17124 0.81362 0.67882 0.0
H173 H 0.13444 0.71728 0.7655 0.0
C174 C 0.27517 0.7942 0.81693 0.0
C175 C 0.29561 0.78401 0.85364 0.0
C176 C 0.28571 0.80183 0.89253 0.0
C177 C 0.2562 0.83121 0.89514 0.0
C178 C 0.23755 0.84309 0.85802 0.0
C179 C 0.24704 0.8248 0.81927 0.0
C180 C 0.30172 0.71689 0.77376 0.0
C181 C 0.33103 0.70253 0.74583 0.0
C182 C 0.34545 0.66336 0.75039 0.0
C183 C 0.33064 0.63781 0.78295 0.0
C184 C 0.30117 0.65232 0.81077 0.0
C185 C 0.28665 0.69128 0.806 0.0
C186 C 0.23154 0.76101 0.74269 0.0
C187 C 0.22091 0.78882 0.71242 0.0
C188 C 0.17887 0.79127 0.70146 0.0
C189 C 0.14706 0.76637 0.72123 0.0
C190 C 0.15813 0.73741 0.75014 0.0
C191 C 0.19987 0.73479 0.76071 0.0
P192 P 0.99146 0.51061 0.58196 0.0
H193 H 0.04724 0.45396 0.54379 0.0
H194 H 0.08032 0.45189 0.47462 0.0
H195 H 0.03037 0.56694 0.44553 0.0
H196 H -0.00048 0.57016 0.51496 0.0
H197 H 0.04238 0.56289 0.64374 0.0
H198 H 0.04135 0.63537 0.66871 0.0
H199 H 0.93236 0.6456 0.59012 0.0
H200 H 0.93329 0.57324 0.56586 0.0
H201 H 0.93688 0.51503 0.50834 0.0
H202 H 0.93143 0.45591 0.62776 0.0
O203 O 0.01393 0.48264 0.61718 0.0
H204 H 0.86581 0.4863 0.49184 0.0
H205 H 0.85976 0.42581 0.61071 0.0
C206 C 0.02136 0.51244 0.53469 0.0
C207 C 0.0443 0.47921 0.52288 0.0
C208 C 0.06279 0.47783 0.48336 0.0
C209 C 0.05711 0.5089 0.45479 0.0
C210 C 0.03456 0.54231 0.46688 0.0
C211 C 0.01738 0.54439 0.50677 0.0
C212 C 0.98772 0.56245 0.60338 0.0
C213 C 0.01787 0.58053 0.63249 0.0
C214 C 0.01718 0.62199 0.64667 0.0
C215 C 0.98668 0.64619 0.63131 0.0
C216 C 0.95618 0.62776 0.60253 0.0
C217 C 0.95666 0.58618 0.58875 0.0
C218 C 0.93985 0.48684 0.56895 0.0
C219 C 0.92066 0.49548 0.53092 0.0
C220 C 0.87963 0.47951 0.52169 0.0
C221 C 0.85731 0.45401 0.55005 0.0
C222 C 0.87642 0.44546 0.5883 0.0
C223 C 0.91737 0.46227 0.5979 0.0
P224 P 0.84444 0.84744 0.87176 0.0
H225 H 0.82794 0.83615 0.78051 0.0
H226 H 0.87227 0.81907 0.72188 0.0
H227 H 0.97778 0.821 0.80796 0.0
H228 H 0.93324 0.83811 0.86622 0.0
H229 H 0.83779 0.93449 0.89722 0.0
H230 H 0.78091 0.97848 0.89214 0.0
H231 H 0.70856 0.88144 0.81666 0.0
H232 H 0.76571 0.837 0.82257 0.0
H233 H 0.86718 0.76115 0.86866 0.0
H234 H 0.76612 0.82774 0.91524 0.0
O235 O 0.87449 0.86824 0.91201 0.0
H236 H 0.83537 0.6974 0.89969 0.0
H237 H 0.73374 0.76458 0.94477 0.0
C238 C 0.8774 0.83897 0.82766 0.0
C239 C 0.8607 0.83357 0.78668 0.0
C240 C 0.88617 0.82379 0.75312 0.0
C241 C 0.92864 0.81874 0.76018 0.0
C242 C 0.94528 0.8248 0.80132 0.0
C243 C 0.91983 0.83468 0.83472 0.0
C244 C 0.80591 0.88242 0.86047 0.0
C245 C 0.80999 0.92278 0.87911 0.0
C246 C 0.77728 0.94785 0.87634 0.0
C247 C 0.73998 0.93313 0.85453 0.0
C248 C 0.73685 0.89353 0.83381 0.0
C249 C 0.76961 0.86828 0.8369 0.0
C250 C 0.81849 0.799 0.88864 0.0
C251 C 0.83763 0.76184 0.8845 0.0
C252 C 0.81943 0.72541 0.90226 0.0
C253 C 0.78184 0.72577 0.92443 0.0
C254 C 0.76238 0.76291 0.92745 0.0
C255 C 0.78086 0.79923 0.91034 0.0
P256 P 0.34443 0.34744 0.37176 0.0
H257 H 0.32794 0.33615 0.28051 0.0
H258 H 0.37227 0.31907 0.22188 0.0
H259 H 0.47778 0.321 0.30796 0.0
H260 H 0.43324 0.33811 0.36622 0.0
H261 H 0.33779 0.43449 0.39721 0.0
H262 H 0.28091 0.47848 0.39214 0.0
H263 H 0.20856 0.38144 0.31665 0.0
H264 H 0.26571 0.337 0.32257 0.0
H265 H 0.36718 0.26115 0.36865 0.0
H266 H 0.26612 0.32774 0.41524 0.0
O267 O 0.37449 0.36824 0.41201 0.0
H268 H 0.33537 0.1974 0.39969 0.0
H269 H 0.23374 0.26458 0.44477 0.0
C270 C 0.3774 0.33897 0.32766 0.0
C271 C 0.3607 0.33357 0.28668 0.0
C272 C 0.38617 0.32379 0.25312 0.0
C273 C 0.42864 0.31874 0.26018 0.0
C274 C 0.44528 0.3248 0.30132 0.0
C275 C 0.41983 0.33468 0.33472 0.0
C276 C 0.30591 0.38242 0.36047 0.0
C277 C 0.30999 0.42278 0.37911 0.0
C278 C 0.27727 0.44785 0.37634 0.0
C279 C 0.23998 0.43313 0.35453 0.0
C280 C 0.23685 0.39353 0.33381 0.0
C281 C 0.26961 0.36828 0.33689 0.0
C282 C 0.31849 0.299 0.38864 0.0
C283 C 0.33763 0.26184 0.3845 0.0
C284 C 0.31943 0.22541 0.40226 0.0
C285 C 0.28184 0.22577 0.42443 0.0
C286 C 0.26238 0.26291 0.42745 0.0
C287 C 0.28086 0.29923 0.41034 0.0
P288 P 0.47365 0.00217 0.58554 0.0
H289 H 0.50302 0.00224 0.49996 0.0
H290 H 0.5021 0.9481 0.44422 0.0
H291 H 0.45321 0.85597 0.53089 0.0
H292 H 0.45412 0.91091 0.58671 0.0
H293 H 0.44044 0.08109 0.60924 0.0
H294 H 0.37861 0.1128 0.58452 0.0
H295 H 0.33838 -0.00049 0.51164 0.0
H296 H 0.39816 0.96728 0.53778 0.0
H297 H 0.53248 0.95189 0.62438 0.0
H298 H 0.43179 0.02233 0.66435 0.0
O299 O 0.51129 0.04053 0.57745 0.0
H300 H 0.55584 0.9491 0.69742 0.0
H301 H 0.45529 0.02025 0.7372 0.0
C302 C 0.47977 0.96035 0.54767 0.0
C303 C 0.493 0.97025 0.50723 0.0
C304 C 0.492 0.93924 0.47524 0.0
C305 C 0.4774 0.89766 0.48301 0.0
C306 C 0.46468 0.88768 0.52388 0.0
C307 C 0.46559 0.91892 0.55592 0.0
C308 C 0.42434 0.02204 0.57495 0.0
C309 C 0.41763 0.06272 0.58891 0.0
C310 C 0.38245 0.0808 0.57482 0.0
C311 C 0.35434 0.05864 0.54582 0.0
C312 C 0.36001 0.01729 0.53366 0.0
C313 C 0.39434 -0.0011 0.54863 0.0
C314 C 0.48043 0.98735 0.63885 0.0
C315 C 0.51437 0.96531 0.649 0.0
C316 C 0.52773 0.96374 0.69084 0.0
C317 C 0.50776 0.98498 0.723 0.0
C318 C 0.47149 0.0038 0.71306 0.0
C319 C 0.458 0.00506 0.67127 0.0
P320 P 0.15292 0.36194 0.6636 0.0
H321 H 0.23525 0.37991 0.62728 0.0
H322 H 0.29939 0.4209 0.65332 0.0
H323 H 0.2392 0.44587 0.77127 0.0
H324 H 0.17577 0.40509 0.74523 0.0
H325 H 0.10306 0.31023 0.60141 0.0
H326 H 0.11361 0.24527 0.56289 0.0
H327 H 0.22768 0.2376 0.63442 0.0
H328 H 0.21643 0.30274 0.67335 0.0
H329 H 0.08541 0.41016 0.69009 0.0
H330 H 0.14014 0.30082 0.72883 0.0
O331 O 0.13467 0.39156 0.62721 0.0
H332 H 0.03741 0.4046 0.7487 0.0
H333 H 0.09193 0.29481 0.78785 0.0
C334 C 0.20099 0.38883 0.68445 0.0
C335 C 0.23618 0.3938 0.65892 0.0
C336 C 0.27273 0.41734 0.67383 0.0
C337 C 0.27439 0.43668 0.71441 0.0
C338 C 0.23902 0.43139 0.73991 0.0
C339 C 0.20263 0.4078 0.72501 0.0
C340 C 0.15972 0.31193 0.63903 0.0
C341 C 0.13018 0.29441 0.609 0.0
C342 C 0.13617 0.25711 0.58719 0.0
C343 C 0.1718 0.23655 0.59522 0.0
C344 C 0.20002 0.25281 0.6274 0.0
C345 C 0.19387 0.29023 0.64934 0.0
C346 C 0.11543 0.35525 0.70461 0.0
C347 C 0.08667 0.38459 0.71095 0.0
C348 C 0.0595 0.38155 0.74472 0.0
C349 C 0.06089 0.34922 0.7729 0.0
C350 C 0.09009 0.32001 0.76663 0.0
C351 C 0.11736 0.32317 0.73277 0.0
P352 P 0.77814 0.18508 0.72082 0.0
H353 H 0.81454 0.19364 0.63878 0.0
H354 H 0.80374 0.23901 0.58143 0.0
H355 H 0.70521 0.29157 0.65062 0.0
H356 H 0.71629 0.24536 0.70846 0.0
H357 H 0.84156 0.15606 0.77459 0.0
H358 H 0.89272 0.19165 0.82457 0.0
H359 H 0.85248 0.31055 0.79252 0.0
H360 H 0.80027 0.27439 0.74326 0.0
H361 H 0.69244 0.15433 0.69624 0.0
H362 H 0.76577 0.1754 0.81126 0.0
O363 O 0.79699 0.1421 0.7011 0.0
H364 H 0.63865 0.11191 0.73382 0.0
H365 H 0.7132 0.1321 0.84807 0.0
C366 C 0.76594 0.21589 0.67753 0.0
C367 C 0.79008 0.21432 0.64138 0.0
C368 C 0.78384 0.24036 0.60859 0.0
C369 C 0.75354 0.26882 0.6115 0.0
C370 C 0.72844 0.2696 0.64735 0.0
C371 C 0.73484 0.2434 0.68039 0.0
C372 C 0.81779 0.21266 0.75466 0.0
C373 C 0.84392 0.18981 0.77812 0.0
C374 C 0.87279 0.21017 0.80705 0.0
C375 C 0.87648 0.25389 0.81256 0.0
C376 C 0.8503 0.27681 0.78888 0.0
C377 C 0.82072 0.25623 0.76051 0.0
C378 C 0.73322 0.16793 0.75077 0.0
C379 C 0.69625 0.15126 0.7298 0.0
C380 C 0.66555 0.12708 0.75129 0.0
C381 C 0.67224 0.11853 0.79362 0.0
C382 C 0.70756 0.13817 0.81534 0.0
C383 C 0.73774 0.16289 0.7941 0.0
P384 P 0.5799 0.60788 0.56417 0.0
H385 H 0.53852 0.6407 0.63814 0.0
H386 H 0.48329 0.60972 0.68315 0.0
H387 H 0.47326 0.49669 0.60393 0.0
H388 H 0.52734 0.52817 0.55866 0.0
H389 H 0.61644 0.58823 0.48182 0.0
H390 H 0.6584 0.53269 0.45804 0.0
H391 H 0.64891 0.48047 0.5809 0.0
H392 H 0.6083 0.53667 0.60478 0.0
H393 H 0.61711 0.67381 0.51162 0.0
H394 H 0.49561 0.60611 0.52683 0.0
O395 O 0.61232 0.64058 0.59437 0.0
H396 H 0.58601 0.7207 0.46405 0.0
H397 H 0.46455 0.65313 0.48067 0.0
C398 C 0.53805 0.58608 0.59613 0.0
C399 C 0.5243 0.6093 0.63052 0.0
C400 C 0.4926 0.5917 0.65598 0.0
C401 C 0.47448 0.55059 0.64733 0.0
C402 C 0.48713 0.5282 0.61171 0.0
C403 C 0.51825 0.54605 0.586 0.0
C404 C 0.60873 0.5662 0.54487 0.0
C405 C 0.62312 0.5647 0.50351 0.0
C406 C 0.64701 0.53286 0.48994 0.0
C407 C 0.6565 0.50196 0.5175 0.0
C408 C 0.64156 0.5034 0.55874 0.0
C409 C 0.61844 0.5356 0.57244 0.0
C410 C 0.55858 0.63706 0.52348 0.0
C411 C 0.58393 0.66869 0.50429 0.0
C412 C 0.56618 0.69535 0.4771 0.0
C413 C 0.52279 0.6909 0.46928 0.0
C414 C 0.49801 0.65764 0.48663 0.0
C415 C 0.51582 0.6307 0.51315 0.0
P416 P 0.55704 0.4171 0.93313 0.0
H417 H 0.64397 0.44057 0.91064 0.0
H418 H 0.69331 0.50119 0.92978 0.0
H419 H 0.59882 0.55307 0.00561 0.0
H420 H 0.54981 0.49175 0.98671 0.0
H421 H 0.47455 0.37499 0.95236 0.0
H422 H 0.44876 0.3368 0.01308 0.0
H423 H 0.56899 0.3665 0.07565 0.0
H424 H 0.59432 0.40506 0.01495 0.0
H425 H 0.54465 0.40916 0.84231 0.0
H426 H 0.48469 0.46436 0.94825 0.0
O427 O 0.58206 0.38115 0.90736 0.0
H428 H 0.4951 0.43576 0.79454 0.0
H429 H 0.43477 0.49174 0.90037 0.0
C430 C 0.59338 0.46166 0.94746 0.0
C431 C 0.63392 0.46488 0.93151 0.0
C432 C 0.66209 0.49964 0.94248 0.0
C433 C 0.65 0.53199 0.96926 0.0
C434 C 0.60908 0.52877 0.98484 0.0
C435 C 0.58104 0.49377 0.97408 0.0
C436 C 0.53597 0.39378 0.97964 0.0
C437 C 0.49501 0.37416 0.97954 0.0
C438 C 0.48039 0.35214 0.01424 0.0
C439 C 0.50683 0.3487 0.04924 0.0
C440 C 0.54779 0.3687 0.04928 0.0
C441 C 0.56224 0.39093 0.01468 0.0
C442 C 0.51791 0.43419 0.89883 0.0
C443 C 0.52046 0.42666 0.85535 0.0
C444 C 0.49211 0.44211 0.82801 0.0
C445 C 0.46085 0.4659 0.8436 0.0
C446 C 0.45842 0.47352 0.88733 0.0
C447 C 0.48685 0.45782 0.91473 0.0
P448 P 0.78259 0.26713 0.2673 0.0
H449 H 0.81873 0.26184 0.35256 0.0
H450 H 0.80167 0.29302 0.42046 0.0
H451 H 0.71541 0.3663 0.3589 0.0
H452 H 0.73175 0.33424 0.29126 0.0
H453 H 0.84273 0.22148 0.22037 0.0
H454 H 0.86791 0.15296 0.2282 0.0
H455 H 0.78878 0.13333 0.33594 0.0
H456 H 0.76375 0.20137 0.3278 0.0
H457 H 0.7448 0.3101 0.19883 0.0
H458 H 0.70697 0.21379 0.28477 0.0
O459 O 0.81604 0.29691 0.23879 0.0
H460 H 0.67124 0.31362 0.17882 0.0
H461 H 0.63444 0.21728 0.2655 0.0
C462 C 0.77517 0.2942 0.31693 0.0
C463 C 0.79561 0.28401 0.35364 0.0
C464 C 0.78571 0.30183 0.39252 0.0
C465 C 0.7562 0.33121 0.39514 0.0
C466 C 0.73755 0.34309 0.35802 0.0
C467 C 0.74704 0.3248 0.31927 0.0
C468 C 0.80172 0.21689 0.27376 0.0
C469 C 0.83103 0.20253 0.24583 0.0
C470 C 0.84545 0.16336 0.25039 0.0
C471 C 0.83064 0.13781 0.28295 0.0
C472 C 0.80117 0.15232 0.31077 0.0
C473 C 0.78665 0.19128 0.306 0.0
C474 C 0.73154 0.26101 0.24269 0.0
C475 C 0.7209 0.28882 0.21242 0.0
C476 C 0.67887 0.29127 0.20146 0.0
C477 C 0.64706 0.26637 0.22123 0.0
C478 C 0.65813 0.23741 0.25014 0.0
C479 C 0.69987 0.23479 0.26071 0.0
P480 P 0.49146 0.01061 0.08196 0.0
H481 H 0.54724 0.95396 0.04379 0.0
H482 H 0.58032 0.95189 0.97462 0.0
H483 H 0.53037 0.06694 0.94553 0.0
H484 H 0.49952 0.07016 0.01496 0.0
H485 H 0.54238 0.06289 0.14374 0.0
H486 H 0.54135 0.13537 0.16871 0.0
H487 H 0.43236 0.1456 0.09012 0.0
H488 H 0.43329 0.07324 0.06586 0.0
H489 H 0.43689 0.01503 0.00834 0.0
H490 H 0.43143 0.95591 0.12776 0.0
O491 O 0.51393 0.98264 0.11718 0.0
H492 H 0.36581 0.9863 0.99184 0.0
H493 H 0.35976 0.92581 0.11071 0.0
C494 C 0.52137 0.01244 0.03469 0.0
C495 C 0.5443 0.97921 0.02288 0.0
C496 C 0.56279 0.97783 0.98336 0.0
C497 C 0.55711 0.0089 0.95479 0.0
C498 C 0.53456 0.04231 0.96688 0.0
C499 C 0.51738 0.04439 0.00677 0.0
C500 C 0.48772 0.06245 0.10338 0.0
C501 C 0.51787 0.08053 0.13249 0.0
C502 C 0.51718 0.12199 0.14667 0.0
C503 C 0.48668 0.14619 0.13131 0.0
C504 C 0.45618 0.12776 0.10253 0.0
C505 C 0.45666 0.08618 0.08875 0.0
C506 C 0.43985 0.98684 0.06895 0.0
C507 C 0.42066 -0.00452 0.03092 0.0
C508 C 0.37963 0.97951 0.02169 0.0
C509 C 0.35731 0.95401 0.05005 0.0
C510 C 0.37642 0.94546 0.0883 0.0
C511 C 0.41737 0.96227 0.0979 0.0
O512 O 0.25937 0.8359 0.96967 0.0
Cd513 Cd 0.25741 0.8548 0.03238 0.0
Cd514 Cd 0.23563 0.92629 0.98907 0.0
O515 O 0.23231 0.88642 0.93716 0.0
O516 O 0.28322 0.80675 0.0546 0.0
O517 O 0.22233 0.82387 0.07643 0.0
C518 C 0.25222 0.80025 0.07925 0.0
C519 C 0.18479 0.97056 0.00462 0.0
C520 C 0.24767 0.85162 0.93607 0.0
C521 C 0.31572 0.9337 0.03797 0.0
O522 O 0.29483 0.94829 0.00897 0.0
O523 O 0.30311 0.89949 0.05405 0.0
O524 O 0.2092 0.97675 0.97313 0.0
O525 O 0.18795 0.93781 0.02613 0.0
O526 O 0.16706 0.55896 0.33396 0.0
Cd527 Cd 0.14981 0.50146 0.35731 0.0
Cd528 Cd 0.07213 0.52298 0.31964 0.0
O529 O 0.1095 0.57444 0.30222 0.0
O530 O 0.20471 0.49034 0.38127 0.0
O531 O 0.17218 0.45032 0.33051 0.0
C532 C 0.2044 0.45872 0.3552 0.0
C533 C 0.02913 0.49494 0.26413 0.0
C534 C 0.14772 0.58326 0.31227 0.0
C535 C 0.07542 0.50747 0.41282 0.0
O536 O 0.05509 0.51915 0.38165 0.0
O537 O 0.11228 0.49717 0.40895 0.0
O538 O 0.0197 0.52652 0.28697 0.0
O539 O 0.06156 0.47699 0.27503 0.0
O540 O 0.73024 0.69091 0.96653 0.0
Cd541 Cd 0.70289 0.65651 0.01378 0.0
Cd542 Cd 0.76923 0.60904 0.98954 0.0
O543 O 0.78703 0.65968 0.95418 0.0
O544 O 0.66028 0.69348 0.03218 0.0
O545 O 0.71403 0.68189 0.07243 0.0
C546 C 0.68166 0.70176 0.06652 0.0
C547 C 0.82154 0.57915 0.02482 0.0
C548 C 0.76501 0.68951 0.94829 0.0
C549 C 0.68015 0.56855 0.98105 0.0
O550 O 0.71832 0.56791 0.97152 0.0
O551 O 0.6679 0.60007 0.00073 0.0
O552 O 0.81505 0.57257 0.98497 0.0
O553 O 0.79875 0.60374 0.04511 0.0
O554 O 0.93348 0.9731 0.27494 0.0
Cd555 Cd 0.90206 -0.00383 0.2258 0.0
Cd556 Cd 0.85879 0.02627 0.28888 0.0
O557 O 0.90488 0.00661 0.32716 0.0
O558 O 0.93855 0.9898 0.17647 0.0
O559 O 0.92551 0.05123 0.20417 0.0
C560 C 0.94462 0.02997 0.17657 0.0
C561 C 0.84391 0.09539 0.28664 0.0
C562 C 0.93151 0.98269 0.31396 0.0
C563 C 0.81238 0.96295 0.2298 0.0
O564 O 0.81239 0.98227 0.26546 0.0
O565 O 0.84467 0.96657 0.20713 0.0
O566 O 0.83074 0.07223 0.31691 0.0
O567 O 0.86728 0.07969 0.25865 0.0
O568 O 0.23024 0.19091 0.46653 0.0
Cd569 Cd 0.20289 0.15651 0.51378 0.0
Cd570 Cd 0.26923 0.10904 0.48954 0.0
O571 O 0.28703 0.15968 0.45418 0.0
O572 O 0.16028 0.19348 0.53218 0.0
O573 O 0.21403 0.18189 0.57243 0.0
C574 C 0.18166 0.20176 0.56652 0.0
C575 C 0.32154 0.07916 0.52482 0.0
C576 C 0.26501 0.18951 0.44829 0.0
C577 C 0.18015 0.06855 0.48105 0.0
O578 O 0.21832 0.06791 0.47152 0.0
O579 O 0.1679 0.10007 0.50073 0.0
O580 O 0.31505 0.07258 0.48497 0.0
O581 O 0.29875 0.10374 0.54511 0.0
O582 O 0.43348 0.4731 0.77494 0.0
Cd583 Cd 0.40206 0.49617 0.7258 0.0
Cd584 Cd 0.35879 0.52627 0.78888 0.0
O585 O 0.40488 0.50661 0.82716 0.0
O586 O 0.43855 0.4898 0.67647 0.0
O587 O 0.42551 0.55123 0.70417 0.0
C588 C 0.44462 0.52997 0.67657 0.0
C589 C 0.34391 0.59539 0.78664 0.0
C590 C 0.43151 0.48269 0.81396 0.0
C591 C 0.31238 0.46295 0.7298 0.0
O592 O 0.31239 0.48227 0.76546 0.0
O593 O 0.34467 0.46657 0.70713 0.0
O594 O 0.33074 0.57223 0.81691 0.0
O595 O 0.36728 0.57969 0.75865 0.0
O596 O 0.75937 0.3359 0.46967 0.0
Cd597 Cd 0.75741 0.3548 0.53238 0.0
Cd598 Cd 0.73563 0.42629 0.48907 0.0
O599 O 0.73231 0.38642 0.43716 0.0
O600 O 0.78322 0.30675 0.5546 0.0
O601 O 0.72233 0.32387 0.57643 0.0
C602 C 0.75222 0.30025 0.57925 0.0
C603 C 0.68479 0.47056 0.50461 0.0
C604 C 0.74767 0.35162 0.43607 0.0
C605 C 0.81572 0.4337 0.53797 0.0
O606 O 0.79483 0.44829 0.50897 0.0
O607 O 0.80311 0.39949 0.55405 0.0
O608 O 0.7092 0.47675 0.47313 0.0
O609 O 0.68795 0.43781 0.52613 0.0
O610 O 0.66706 0.05896 0.83395 0.0
Cd611 Cd 0.64981 0.00146 0.8573 0.0
Cd612 Cd 0.57213 0.02298 0.81964 0.0
O613 O 0.6095 0.07444 0.80222 0.0
O614 O 0.70471 0.99034 0.88127 0.0
O615 O 0.67218 0.95032 0.83051 0.0
C616 C 0.7044 0.95872 0.8552 0.0
C617 C 0.52913 -0.00505 0.76413 0.0
C618 C 0.64772 0.08326 0.81227 0.0
C619 C 0.57542 0.00748 0.91282 0.0
O620 O 0.55509 0.01915 0.88165 0.0
O621 O 0.61228 -0.00282 0.90895 0.0
O622 O 0.5197 0.02653 0.78697 0.0
O623 O 0.56156 0.97699 0.77503 0.0
O624 O 0.96496 0.32717 0.95562 0.0
Cd625 Cd 0.96962 0.27518 0.91561 0.0
Cd626 Cd 0.98016 0.33806 0.8583 0.0
O627 O 0.98502 0.37602 0.91153 0.0
O628 O 0.96408 0.22808 0.95407 0.0
O629 O 0.02265 0.24702 0.92095 0.0
C630 C 0.0025 0.22268 0.9467 0.0
C631 C 0.031 0.34559 0.80769 0.0
C632 C 0.9755 0.36531 0.94839 0.0
C633 C 0.90921 0.27521 0.84108 0.0
O634 O 0.923 0.31276 0.83533 0.0
O635 O 0.92577 0.25475 0.86899 0.0
O636 O 0.00361 0.37196 0.81222 0.0
O637 O 0.03045 0.31544 0.83333 0.0
O638 O 0.46496 0.82717 0.45562 0.0
Cd639 Cd 0.46962 0.77518 0.41561 0.0
Cd640 Cd 0.48016 0.83806 0.3583 0.0
O641 O 0.48502 0.87602 0.41153 0.0
O642 O 0.46408 0.72808 0.45407 0.0
O643 O 0.52265 0.74703 0.42095 0.0
C644 C 0.5025 0.72268 0.4467 0.0
C645 C 0.53099 0.84559 0.30769 0.0
C646 C 0.4755 0.86532 0.44839 0.0
C647 C 0.40921 0.77521 0.34109 0.0
O648 O 0.423 0.81276 0.33533 0.0
O649 O 0.42577 0.75476 0.36899 0.0
O650 O 0.50361 0.87196 0.31222 0.0
O651 O 0.53045 0.81545 0.33333 0.0
O652 O 0.99126 0.7947 0.73382 0.0
Cd653 Cd 0.03122 0.76507 0.6951 0.0
Cd654 Cd 0.97046 0.7782 0.63683 0.0
O655 O 0.93958 0.7993 0.68838 0.0
O656 O 0.0744 0.75095 0.73538 0.0
O657 O 0.08982 0.78899 0.68052 0.0
C658 C 0.10235 0.76957 0.71224 0.0
C659 C -0.00756 0.82256 0.58438 0.0
C660 C 0.95472 0.80436 0.72556 0.0
C661 C 0.9885 0.69093 0.64364 0.0
O662 O 0.9672 0.715 0.62373 0.0
O663 O 0.01364 0.70542 0.67284 0.0
O664 O 0.95413 0.806 0.5855 0.0
O665 O 0.0181 0.8144 0.61386 0.0
O666 O 0.49126 0.2947 0.23382 0.0
Cd667 Cd 0.53122 0.26507 0.1951 0.0
Cd668 Cd 0.47046 0.2782 0.13683 0.0
O669 O 0.43958 0.2993 0.18838 0.0
O670 O 0.5744 0.25095 0.23538 0.0
O671 O 0.58982 0.28899 0.18052 0.0
C672 C 0.60234 0.26957 0.21224 0.0
C673 C 0.49244 0.32256 0.08438 0.0
C674 C 0.45471 0.30436 0.22556 0.0
C675 C 0.4885 0.19093 0.14364 0.0
O676 O 0.4672 0.215 0.12373 0.0
O677 O 0.51364 0.20542 0.17284 0.0
O678 O 0.45413 0.30599 0.0855 0.0
O679 O 0.5181 0.3144 0.11386 0.0
loop_
_geom_bond_atom_site_label_1
_geom_bond_atom_site_label_2
_geom_bond_distance
_geom_bond_site_symmetry_2
_ccdc_geom_bond_type
P0 O11 1.490 . S
P0 C14 1.812 . S
P0 C20 1.803 . S
P0 C26 1.819 . S
H1 C15 0.941 . S
H2 C16 0.939 . S
H3 C18 0.940 . S
H4 C19 0.940 . S
H5 C21 0.939 . S
H6 C22 0.942 . S
H7 C24 0.940 . S
H8 C25 0.939 . S
H9 C27 0.941 . S
H10 C31 0.939 . S
O11 P0 1.490 . S
H12 C28 0.939 . S
H13 C30 0.940 . S
C14 P0 1.812 . S
C14 C15 1.389 . S
C14 C19 1.391 . S
C15 H1 0.941 . S
C15 C14 1.389 . S
C15 C16 1.397 . S
C16 H2 0.939 . S
C16 C15 1.397 . S
C16 C17 1.378 . S
C17 C16 1.378 . S
C17 C18 1.378 . S
C18 H3 0.940 . S
C18 C17 1.378 . S
C18 C19 1.396 . S
C19 H4 0.940 . S
C19 C14 1.391 . S
C19 C18 1.396 . S
C20 P0 1.803 . S
C20 C21 1.378 . S
C20 C25 1.400 . S
C21 H5 0.939 . S
C21 C20 1.378 . S
C21 C22 1.361 . S
C22 H6 0.942 . S
C22 C21 1.361 . S
C22 C23 1.369 . S
C23 C22 1.369 . S
C23 C24 1.404 . S
C24 H7 0.940 . S
C24 C23 1.404 . S
C24 C25 1.389 . S
C25 H8 0.939 . S
C25 C20 1.400 . S
C25 C24 1.389 . S
C26 P0 1.819 . S
C26 C27 1.391 . S
C26 C31 1.391 . S
C27 H9 0.941 . S
C27 C26 1.391 . S
C27 C28 1.396 . S
C28 H12 0.939 . S
C28 C27 1.396 . S
C28 C29 1.397 . S
C29 C28 1.397 . S
C29 C30 1.385 . S
C30 H13 0.940 . S
C30 C29 1.385 . S
C30 C31 1.388 . S
C31 H10 0.939 . S
C31 C26 1.391 . S
C31 C30 1.388 . S
P32 O43 1.490 . S
P32 C46 1.812 . S
P32 C52 1.803 . S
P32 C58 1.819 . S
H33 C47 0.941 . S
H34 C48 0.939 . S
H35 C50 0.940 . S
H36 C51 0.940 . S
H37 C53 0.939 . S
H38 C54 0.942 . S
H39 C56 0.940 . S
H40 C57 0.939 . S
H41 C59 0.941 . S
H42 C63 0.939 . S
O43 P32 1.490 . S
H44 C60 0.939 . S
H45 C62 0.940 . S
C46 P32 1.812 . S
C46 C47 1.389 . S
C46 C51 1.391 . S
C47 H33 0.941 . S
C47 C46 1.389 . S
C47 C48 1.397 . S
C48 H34 0.939 . S
C48 C47 1.397 . S
C48 C49 1.378 . S
C49 C48 1.378 . S
C49 C50 1.378 . S
C50 H35 0.940 . S
C50 C49 1.378 . S
C50 C51 1.396 . S
C51 H36 0.940 . S
C51 C46 1.391 . S
C51 C50 1.396 . S
C52 P32 1.803 . S
C52 C53 1.378 . S
C52 C57 1.400 . S
C53 H37 0.939 . S
C53 C52 1.378 . S
C53 C54 1.361 . S
C54 H38 0.942 . S
C54 C53 1.361 . S
C54 C55 1.369 . S
C55 C54 1.369 . S
C55 C56 1.404 . S
C56 H39 0.940 . S
C56 C55 1.404 . S
C56 C57 1.389 . S
C57 H40 0.939 . S
C57 C52 1.400 . S
C57 C56 1.389 . S
C58 P32 1.819 . S
C58 C59 1.391 . S
C58 C63 1.391 . S
C59 H41 0.941 . S
C59 C58 1.391 . S
C59 C60 1.396 . S
C60 H44 0.939 . S
C60 C59 1.396 . S
C60 C61 1.397 . S
C61 C60 1.397 . S
C61 C62 1.385 . S
C62 H45 0.940 . S
C62 C61 1.385 . S
C62 C63 1.388 . S
C63 H42 0.939 . S
C63 C58 1.391 . S
C63 C62 1.388 . S
P64 O75 1.490 . S
P64 C78 1.812 . S
P64 C84 1.803 . S
P64 C90 1.819 . S
H65 C79 0.941 . S
H66 C80 0.939 . S
H67 C82 0.940 . S
H68 C83 0.940 . S
H69 C85 0.939 . S
H70 C86 0.942 . S
H71 C88 0.940 . S
H72 C89 0.939 . S
H73 C91 0.941 1_455 S
H74 C95 0.939 . S
O75 P64 1.490 . S
H76 C92 0.939 . S
H77 C94 0.940 . S
C78 P64 1.812 . S
C78 C79 1.389 1_554 S
C78 C83 1.391 . S
C79 H65 0.941 . S
C79 C78 1.389 1_556 S
C79 C80 1.397 . S
C80 H66 0.939 . S
C80 C79 1.397 . S
C80 C81 1.378 1_556 S
C81 C80 1.378 1_554 S
C81 C82 1.378 . S
C82 H67 0.940 . S
C82 C81 1.378 . S
C82 C83 1.396 . S
C83 H68 0.940 . S
C83 C78 1.391 . S
C83 C82 1.396 . S
C84 P64 1.803 . S
C84 C85 1.378 . S
C84 C89 1.400 . S
C85 H69 0.939 . S
C85 C84 1.378 . S
C85 C86 1.361 . S
C86 H70 0.942 . S
C86 C85 1.361 . S
C86 C87 1.369 . S
C87 C86 1.369 . S
C87 C88 1.404 . S
C88 H71 0.940 . S
C88 C87 1.404 . S
C88 C89 1.389 . S
C89 H72 0.939 . S
C89 C84 1.400 . S
C89 C88 1.389 . S
C90 P64 1.819 . S
C90 C91 1.391 . S
C90 C95 1.391 . S
C91 H73 0.941 1_655 S
C91 C90 1.391 . S
C91 C92 1.396 1_655 S
C92 H76 0.939 . S
C92 C91 1.396 1_455 S
C92 C93 1.397 1_455 S
C93 C92 1.397 1_655 S
C93 C94 1.385 . S
C94 H77 0.940 . S
C94 C93 1.385 . S
C94 C95 1.388 . S
C95 H74 0.939 . S
C95 C90 1.391 . S
C95 C94 1.388 . S
P96 O107 1.490 . S
P96 C110 1.812 . S
P96 C116 1.803 . S
P96 C122 1.819 . S
H97 C111 0.941 . S
H98 C112 0.939 . S
H99 C114 0.940 . S
H100 C115 0.940 . S
H101 C117 0.939 . S
H102 C118 0.942 . S
H103 C120 0.940 . S
H104 C121 0.939 . S
H105 C123 0.941 . S
H106 C127 0.939 . S
O107 P96 1.490 . S
H108 C124 0.939 . S
H109 C126 0.940 . S
C110 P96 1.812 . S
C110 C111 1.389 . S
C110 C115 1.391 . S
C111 H97 0.941 . S
C111 C110 1.389 . S
C111 C112 1.397 . S
C112 H98 0.939 . S
C112 C111 1.397 . S
C112 C113 1.378 . S
C113 C112 1.378 . S
C113 C114 1.378 . S
C114 H99 0.940 . S
C114 C113 1.378 . S
C114 C115 1.396 . S
C115 H100 0.940 . S
C115 C110 1.391 . S
C115 C114 1.396 . S
C116 P96 1.803 . S
C116 C117 1.378 . S
C116 C121 1.400 . S
C117 H101 0.939 . S
C117 C116 1.378 . S
C117 C118 1.361 . S
C118 H102 0.942 . S
C118 C117 1.361 . S
C118 C119 1.369 . S
C119 C118 1.369 . S
C119 C120 1.404 . S
C120 H103 0.940 . S
C120 C119 1.404 . S
C120 C121 1.389 . S
C121 H104 0.939 . S
C121 C116 1.400 . S
C121 C120 1.389 . S
C122 P96 1.819 . S
C122 C123 1.391 . S
C122 C127 1.391 . S
C123 H105 0.941 . S
C123 C122 1.391 . S
C123 C124 1.396 . S
C124 H108 0.939 . S
C124 C123 1.396 . S
C124 C125 1.397 . S
C125 C124 1.397 . S
C125 C126 1.385 . S
C126 H109 0.940 . S
C126 C125 1.385 . S
C126 C127 1.388 . S
C127 H106 0.939 . S
C127 C122 1.391 . S
C127 C126 1.388 . S
P128 O139 1.490 . S
P128 C142 1.812 . S
P128 C148 1.803 . S
P128 C154 1.819 . S
H129 C143 0.941 . S
H130 C144 0.939 . S
H131 C146 0.940 . S
H132 C147 0.939 1_545 S
H133 C149 0.939 . S
H134 C150 0.942 . S
H135 C152 0.940 . S
H136 C153 0.939 . S
H137 C155 0.941 . S
H138 C159 0.939 . S
O139 P128 1.490 . S
H140 C156 0.939 . S
H141 C158 0.940 . S
C142 P128 1.812 . S
C142 C143 1.389 . S
C142 C147 1.391 . S
C143 H129 0.941 . S
C143 C142 1.389 . S
C143 C144 1.397 . S
C144 H130 0.939 . S
C144 C143 1.397 . S
C144 C145 1.378 1_565 S
C145 C144 1.378 1_545 S
C145 C146 1.378 . S
C146 H131 0.940 . S
C146 C145 1.378 . S
C146 C147 1.396 1_545 S
C147 H132 0.939 1_565 S
C147 C142 1.391 . S
C147 C146 1.396 1_565 S
C148 P128 1.803 . S
C148 C149 1.378 . S
C148 C153 1.400 . S
C149 H133 0.939 . S
C149 C148 1.378 . S
C149 C150 1.361 . S
C150 H134 0.942 . S
C150 C149 1.361 . S
C150 C151 1.369 . S
C151 C150 1.369 . S
C151 C152 1.404 . S
C152 H135 0.940 . S
C152 C151 1.404 . S
C152 C153 1.389 . S
C153 H136 0.939 . S
C153 C148 1.400 . S
C153 C152 1.389 . S
C154 P128 1.819 . S
C154 C155 1.391 . S
C154 C159 1.391 . S
C155 H137 0.941 . S
C155 C154 1.391 . S
C155 C156 1.396 . S
C156 H140 0.939 . S
C156 C155 1.396 . S
C156 C157 1.397 1_455 S
C157 C156 1.397 1_655 S
C157 C158 1.385 . S
C158 H141 0.940 . S
C158 C157 1.385 . S
C158 C159 1.388 1_655 S
C159 H138 0.939 . S
C159 C154 1.391 . S
C159 C158 1.388 1_455 S
P160 O171 1.490 . S
P160 C174 1.812 . S
P160 C180 1.803 . S
P160 C186 1.819 . S
H161 C175 0.941 . S
H162 C176 0.939 . S
H163 C178 0.940 . S
H164 C179 0.940 . S
H165 C181 0.939 . S
H166 C182 0.942 . S
H167 C184 0.940 . S
H168 C185 0.939 . S
H169 C187 0.941 . S
H170 C191 0.939 . S
O171 P160 1.490 . S
H172 C188 0.939 . S
H173 C190 0.940 . S
C174 P160 1.812 . S
C174 C175 1.389 . S
C174 C179 1.391 . S
C175 H161 0.941 . S
C175 C174 1.389 . S
C175 C176 1.397 . S
C176 H162 0.939 . S
C176 C175 1.397 . S
C176 C177 1.378 . S
C177 C176 1.378 . S
C177 C178 1.378 . S
C178 H163 0.940 . S
C178 C177 1.378 . S
C178 C179 1.396 . S
C179 H164 0.940 . S
C179 C174 1.391 . S
C179 C178 1.396 . S
C180 P160 1.803 . S
C180 C181 1.378 . S
C180 C185 1.400 . S
C181 H165 0.939 . S
C181 C180 1.378 . S
C181 C182 1.361 . S
C182 H166 0.942 . S
C182 C181 1.361 . S
C182 C183 1.369 . S
C183 C182 1.369 . S
C183 C184 1.404 . S
C184 H167 0.940 . S
C184 C183 1.404 . S
C184 C185 1.389 . S
C185 H168 0.939 . S
C185 C180 1.400 . S
C185 C184 1.389 . S
C186 P160 1.819 . S
C186 C187 1.391 . S
C186 C191 1.391 . S
C187 H169 0.941 . S
C187 C186 1.391 . S
C187 C188 1.396 . S
C188 H172 0.939 . S
C188 C187 1.396 . S
C188 C189 1.397 . S
C189 C188 1.397 . S
C189 C190 1.385 . S
C190 H173 0.940 . S
C190 C189 1.385 . S
C190 C191 1.388 . S
C191 H170 0.939 . S
C191 C186 1.391 . S
C191 C190 1.388 . S
P192 O203 1.490 . S
P192 C206 1.812 . S
P192 C212 1.803 . S
P192 C218 1.819 . S
H193 C207 0.941 . S
H194 C208 0.939 . S
H195 C210 0.940 . S
H196 C211 0.940 . S
H197 C213 0.939 . S
H198 C214 0.942 . S
H199 C216 0.940 . S
H200 C217 0.939 . S
H201 C219 0.941 . S
H202 C223 0.939 . S
O203 P192 1.490 . S
H204 C220 0.939 . S
H205 C222 0.940 . S
C206 P192 1.812 . S
C206 C207 1.389 1_655 S
C206 C211 1.391 . S
C207 H193 0.941 . S
C207 C206 1.389 1_455 S
C207 C208 1.397 . S
C208 H194 0.939 . S
C208 C207 1.397 . S
C208 C209 1.378 . S
C209 C208 1.378 . S
C209 C210 1.378 1_455 S
C210 H195 0.940 . S
C210 C209 1.378 1_655 S
C210 C211 1.396 . S
C211 H196 0.940 . S
C211 C206 1.391 . S
C211 C210 1.396 . S
C212 P192 1.803 . S
C212 C213 1.378 . S
C212 C217 1.400 . S
C213 H197 0.939 . S
C213 C212 1.378 . S
C213 C214 1.361 . S
C214 H198 0.942 . S
C214 C213 1.361 . S
C214 C215 1.369 . S
C215 C214 1.369 . S
C215 C216 1.404 . S
C216 H199 0.940 . S
C216 C215 1.404 . S
C216 C217 1.389 . S
C217 H200 0.939 . S
C217 C212 1.400 . S
C217 C216 1.389 . S
C218 P192 1.819 . S
C218 C219 1.391 . S
C218 C223 1.391 . S
C219 H201 0.941 . S
C219 C218 1.391 . S
C219 C220 1.396 . S
C220 H204 0.939 . S
C220 C219 1.396 . S
C220 C221 1.397 . S
C221 C220 1.397 . S
C221 C222 1.385 . S
C222 H205 0.940 . S
C222 C221 1.385 . S
C222 C223 1.388 . S
C223 H202 0.939 . S
C223 C218 1.391 . S
C223 C222 1.388 . S
P224 O235 1.490 . S
P224 C238 1.812 . S
P224 C244 1.803 . S
P224 C250 1.819 . S
H225 C239 0.941 . S
H226 C240 0.939 . S
H227 C242 0.940 . S
H228 C243 0.940 . S
H229 C245 0.939 . S
H230 C246 0.942 . S
H231 C248 0.940 . S
H232 C249 0.939 . S
H233 C251 0.941 . S
H234 C255 0.939 . S
O235 P224 1.490 . S
H236 C252 0.939 . S
H237 C254 0.940 . S
C238 P224 1.812 . S
C238 C239 1.389 . S
C238 C243 1.391 . S
C239 H225 0.941 . S
C239 C238 1.389 . S
C239 C240 1.397 . S
C240 H226 0.939 . S
C240 C239 1.397 . S
C240 C241 1.378 . S
C241 C240 1.378 . S
C241 C242 1.378 . S
C242 H227 0.940 . S
C242 C241 1.378 . S
C242 C243 1.396 . S
C243 H228 0.940 . S
C243 C238 1.391 . S
C243 C242 1.396 . S
C244 P224 1.803 . S
C244 C245 1.378 . S
C244 C249 1.400 . S
C245 H229 0.939 . S
C245 C244 1.378 . S
C245 C246 1.361 . S
C246 H230 0.942 . S
C246 C245 1.361 . S
C246 C247 1.369 . S
C247 C246 1.369 . S
C247 C248 1.404 . S
C248 H231 0.940 . S
C248 C247 1.404 . S
C248 C249 1.389 . S
C249 H232 0.939 . S
C249 C244 1.400 . S
C249 C248 1.389 . S
C250 P224 1.819 . S
C250 C251 1.391 . S
C250 C255 1.391 . S
C251 H233 0.941 . S
C251 C250 1.391 . S
C251 C252 1.396 . S
C252 H236 0.939 . S
C252 C251 1.396 . S
C252 C253 1.397 . S
C253 C252 1.397 . S
C253 C254 1.385 . S
C254 H237 0.940 . S
C254 C253 1.385 . S
C254 C255 1.388 . S
C255 H234 0.939 . S
C255 C250 1.391 . S
C255 C254 1.388 . S
P256 O267 1.490 . S
P256 C270 1.812 . S
P256 C276 1.803 . S
P256 C282 1.819 . S
H257 C271 0.941 . S
H258 C272 0.939 . S
H259 C274 0.940 . S
H260 C275 0.940 . S
H261 C277 0.939 . S
H262 C278 0.942 . S
H263 C280 0.940 . S
H264 C281 0.939 . S
H265 C283 0.941 . S
H266 C287 0.939 . S
O267 P256 1.490 . S
H268 C284 0.939 . S
H269 C286 0.940 . S
C270 P256 1.812 . S
C270 C271 1.389 . S
C270 C275 1.391 . S
C271 H257 0.941 . S
C271 C270 1.389 . S
C271 C272 1.397 . S
C272 H258 0.939 . S
C272 C271 1.397 . S
C272 C273 1.378 . S
C273 C272 1.378 . S
C273 C274 1.378 . S
C274 H259 0.940 . S
C274 C273 1.378 . S
C274 C275 1.396 . S
C275 H260 0.940 . S
C275 C270 1.391 . S
C275 C274 1.396 . S
C276 P256 1.803 . S
C276 C277 1.378 . S
C276 C281 1.400 . S
C277 H261 0.939 . S
C277 C276 1.378 . S
C277 C278 1.361 . S
C278 H262 0.942 . S
C278 C277 1.361 . S
C278 C279 1.369 . S
C279 C278 1.369 . S
C279 C280 1.404 . S
C280 H263 0.940 . S
C280 C279 1.404 . S
C280 C281 1.389 . S
C281 H264 0.939 . S
C281 C276 1.400 . S
C281 C280 1.389 . S
C282 P256 1.819 . S
C282 C283 1.391 . S
C282 C287 1.391 . S
C283 H265 0.941 . S
C283 C282 1.391 . S
C283 C284 1.396 . S
C284 H268 0.939 . S
C284 C283 1.396 . S
C284 C285 1.397 . S
C285 C284 1.397 . S
C285 C286 1.385 . S
C286 H269 0.940 . S
C286 C285 1.385 . S
C286 C287 1.388 . S
C287 H266 0.939 . S
C287 C282 1.391 . S
C287 C286 1.388 . S
P288 O299 1.490 . S
P288 C302 1.812 . S
P288 C308 1.803 . S
P288 C314 1.819 . S
H289 C303 0.941 . S
H290 C304 0.939 . S
H291 C306 0.940 . S
H292 C307 0.940 . S
H293 C309 0.939 . S
H294 C310 0.942 . S
H295 C312 0.940 . S
H296 C313 0.939 . S
H297 C315 0.941 . S
H298 C319 0.939 . S
O299 P288 1.490 . S
H300 C316 0.939 . S
H301 C318 0.940 . S
C302 P288 1.812 . S
C302 C303 1.389 . S
C302 C307 1.391 . S
C303 H289 0.941 . S
C303 C302 1.389 . S
C303 C304 1.397 . S
C304 H290 0.939 . S
C304 C303 1.397 . S
C304 C305 1.378 . S
C305 C304 1.378 . S
C305 C306 1.378 . S
C306 H291 0.940 . S
C306 C305 1.378 . S
C306 C307 1.396 . S
C307 H292 0.940 . S
C307 C302 1.391 . S
C307 C306 1.396 . S
C308 P288 1.803 . S
C308 C309 1.378 1_565 S
C308 C313 1.400 . S
C309 H293 0.939 . S
C309 C308 1.378 1_545 S
C309 C310 1.361 . S
C310 H294 0.942 . S
C310 C309 1.361 . S
C310 C311 1.369 . S
C311 C310 1.369 . S
C311 C312 1.404 1_545 S
C312 H295 0.940 . S
C312 C311 1.404 1_565 S
C312 C313 1.389 . S
C313 H296 0.939 . S
C313 C308 1.400 . S
C313 C312 1.389 . S
C314 P288 1.819 . S
C314 C315 1.391 . S
C314 C319 1.391 . S
C315 H297 0.941 . S
C315 C314 1.391 . S
C315 C316 1.396 . S
C316 H300 0.939 . S
C316 C315 1.396 . S
C316 C317 1.397 . S
C317 C316 1.397 . S
C317 C318 1.385 . S
C318 H301 0.940 . S
C318 C317 1.385 . S
C318 C319 1.388 . S
C319 H298 0.939 . S
C319 C314 1.391 . S
C319 C318 1.388 . S
P320 O331 1.490 . S
P320 C334 1.812 . S
P320 C340 1.803 . S
P320 C346 1.819 . S
H321 C335 0.941 . S
H322 C336 0.939 . S
H323 C338 0.940 . S
H324 C339 0.940 . S
H325 C341 0.939 . S
H326 C342 0.942 . S
H327 C344 0.940 . S
H328 C345 0.939 . S
H329 C347 0.941 . S
H330 C351 0.939 . S
O331 P320 1.490 . S
H332 C348 0.939 . S
H333 C350 0.940 . S
C334 P320 1.812 . S
C334 C335 1.389 . S
C334 C339 1.391 . S
C335 H321 0.941 . S
C335 C334 1.389 . S
C335 C336 1.397 . S
C336 H322 0.939 . S
C336 C335 1.397 . S
C336 C337 1.378 . S
C337 C336 1.378 . S
C337 C338 1.378 . S
C338 H323 0.940 . S
C338 C337 1.378 . S
C338 C339 1.396 . S
C339 H324 0.940 . S
C339 C334 1.391 . S
C339 C338 1.396 . S
C340 P320 1.803 . S
C340 C341 1.378 . S
C340 C345 1.400 . S
C341 H325 0.939 . S
C341 C340 1.378 . S
C341 C342 1.361 . S
C342 H326 0.942 . S
C342 C341 1.361 . S
C342 C343 1.369 . S
C343 C342 1.369 . S
C343 C344 1.404 . S
C344 H327 0.940 . S
C344 C343 1.404 . S
C344 C345 1.389 . S
C345 H328 0.939 . S
C345 C340 1.400 . S
C345 C344 1.389 . S
C346 P320 1.819 . S
C346 C347 1.391 . S
C346 C351 1.391 . S
C347 H329 0.941 . S
C347 C346 1.391 . S
C347 C348 1.396 . S
C348 H332 0.939 . S
C348 C347 1.396 . S
C348 C349 1.397 . S
C349 C348 1.397 . S
C349 C350 1.385 . S
C350 H333 0.940 . S
C350 C349 1.385 . S
C350 C351 1.388 . S
C351 H330 0.939 . S
C351 C346 1.391 . S
C351 C350 1.388 . S
P352 O363 1.490 . S
P352 C366 1.812 . S
P352 C372 1.803 . S
P352 C378 1.819 . S
H353 C367 0.941 . S
H354 C368 0.939 . S
H355 C370 0.940 . S
H356 C371 0.940 . S
H357 C373 0.939 . S
H358 C374 0.942 . S
H359 C376 0.940 . S
H360 C377 0.939 . S
H361 C379 0.941 . S
H362 C383 0.939 . S
O363 P352 1.490 . S
H364 C380 0.939 . S
H365 C382 0.940 . S
C366 P352 1.812 . S
C366 C367 1.389 . S
C366 C371 1.391 . S
C367 H353 0.941 . S
C367 C366 1.389 . S
C367 C368 1.397 . S
C368 H354 0.939 . S
C368 C367 1.397 . S
C368 C369 1.378 . S
C369 C368 1.378 . S
C369 C370 1.378 . S
C370 H355 0.940 . S
C370 C369 1.378 . S
C370 C371 1.396 . S
C371 H356 0.940 . S
C371 C366 1.391 . S
C371 C370 1.396 . S
C372 P352 1.803 . S
C372 C373 1.378 . S
C372 C377 1.400 . S
C373 H357 0.939 . S
C373 C372 1.378 . S
C373 C374 1.361 . S
C374 H358 0.942 . S
C374 C373 1.361 . S
C374 C375 1.369 . S
C375 C374 1.369 . S
C375 C376 1.404 . S
C376 H359 0.940 . S
C376 C375 1.404 . S
C376 C377 1.389 . S
C377 H360 0.939 . S
C377 C372 1.400 . S
C377 C376 1.389 . S
C378 P352 1.819 . S
C378 C379 1.391 . S
C378 C383 1.391 . S
C379 H361 0.941 . S
C379 C378 1.391 . S
C379 C380 1.396 . S
C380 H364 0.939 . S
C380 C379 1.396 . S
C380 C381 1.397 . S
C381 C380 1.397 . S
C381 C382 1.385 . S
C382 H365 0.940 . S
C382 C381 1.385 . S
C382 C383 1.388 . S
C383 H362 0.939 . S
C383 C378 1.391 . S
C383 C382 1.388 . S
P384 O395 1.490 . S
P384 C398 1.812 . S
P384 C404 1.803 . S
P384 C410 1.819 . S
H385 C399 0.941 . S
H386 C400 0.939 . S
H387 C402 0.940 . S
H388 C403 0.940 . S
H389 C405 0.939 . S
H390 C406 0.942 . S
H391 C408 0.940 . S
H392 C409 0.939 . S
H393 C411 0.941 . S
H394 C415 0.939 . S
O395 P384 1.490 . S
H396 C412 0.939 . S
H397 C414 0.940 . S
C398 P384 1.812 . S
C398 C399 1.389 . S
C398 C403 1.391 . S
C399 H385 0.941 . S
C399 C398 1.389 . S
C399 C400 1.397 . S
C400 H386 0.939 . S
C400 C399 1.397 . S
C400 C401 1.378 . S
C401 C400 1.378 . S
C401 C402 1.378 . S
C402 H387 0.940 . S
C402 C401 1.378 . S
C402 C403 1.396 . S
C403 H388 0.940 . S
C403 C398 1.391 . S
C403 C402 1.396 . S
C404 P384 1.803 . S
C404 C405 1.378 . S
C404 C409 1.400 . S
C405 H389 0.939 . S
C405 C404 1.378 . S
C405 C406 1.361 . S
C406 H390 0.942 . S
C406 C405 1.361 . S
C406 C407 1.369 . S
C407 C406 1.369 . S
C407 C408 1.404 . S
C408 H391 0.940 . S
C408 C407 1.404 . S
C408 C409 1.389 . S
C409 H392 0.939 . S
C409 C404 1.400 . S
C409 C408 1.389 . S
C410 P384 1.819 . S
C410 C411 1.391 . S
C410 C415 1.391 . S
C411 H393 0.941 . S
C411 C410 1.391 . S
C411 C412 1.396 . S
C412 H396 0.939 . S
C412 C411 1.396 . S
C412 C413 1.397 . S
C413 C412 1.397 . S
C413 C414 1.385 . S
C414 H397 0.940 . S
C414 C413 1.385 . S
C414 C415 1.388 . S
C415 H394 0.939 . S
C415 C410 1.391 . S
C415 C414 1.388 . S
P416 O427 1.490 . S
P416 C430 1.812 . S
P416 C436 1.803 . S
P416 C442 1.819 . S
H417 C431 0.941 . S
H418 C432 0.939 . S
H419 C434 0.940 . S
H420 C435 0.940 . S
H421 C437 0.939 . S
H422 C438 0.942 . S
H423 C440 0.940 . S
H424 C441 0.939 . S
H425 C443 0.941 . S
H426 C447 0.939 . S
O427 P416 1.490 . S
H428 C444 0.939 . S
H429 C446 0.940 . S
C430 P416 1.812 . S
C430 C431 1.389 . S
C430 C435 1.391 . S
C431 H417 0.941 . S
C431 C430 1.389 . S
C431 C432 1.397 . S
C432 H418 0.939 . S
C432 C431 1.397 . S
C432 C433 1.378 . S
C433 C432 1.378 . S
C433 C434 1.378 . S
C434 H419 0.940 . S
C434 C433 1.378 . S
C434 C435 1.396 . S
C435 H420 0.940 . S
C435 C430 1.391 . S
C435 C434 1.396 . S
C436 P416 1.803 . S
C436 C437 1.378 . S
C436 C441 1.400 . S
C437 H421 0.939 . S
C437 C436 1.378 . S
C437 C438 1.361 . S
C438 H422 0.942 . S
C438 C437 1.361 . S
C438 C439 1.369 . S
C439 C438 1.369 . S
C439 C440 1.404 1_556 S
C440 H423 0.940 . S
C440 C439 1.404 1_554 S
C440 C441 1.389 1_554 S
C441 H424 0.939 . S
C441 C436 1.400 . S
C441 C440 1.389 1_556 S
C442 P416 1.819 . S
C442 C443 1.391 . S
C442 C447 1.391 . S
C443 H425 0.941 . S
C443 C442 1.391 . S
C443 C444 1.396 . S
C444 H428 0.939 . S
C444 C443 1.396 . S
C444 C445 1.397 . S
C445 C444 1.397 . S
C445 C446 1.385 . S
C446 H429 0.940 . S
C446 C445 1.385 . S
C446 C447 1.388 . S
C447 H426 0.939 . S
C447 C442 1.391 . S
C447 C446 1.388 . S
P448 O459 1.490 . S
P448 C462 1.812 . S
P448 C468 1.803 . S
P448 C474 1.819 . S
H449 C463 0.941 . S
H450 C464 0.939 . S
H451 C466 0.940 . S
H452 C467 0.940 . S
H453 C469 0.939 . S
H454 C470 0.942 . S
H455 C472 0.940 . S
H456 C473 0.939 . S
H457 C475 0.941 . S
H458 C479 0.939 . S
O459 P448 1.490 . S
H460 C476 0.939 . S
H461 C478 0.940 . S
C462 P448 1.812 . S
C462 C463 1.389 . S
C462 C467 1.391 . S
C463 H449 0.941 . S
C463 C462 1.389 . S
C463 C464 1.397 . S
C464 H450 0.939 . S
C464 C463 1.397 . S
C464 C465 1.378 . S
C465 C464 1.378 . S
C465 C466 1.378 . S
C466 H451 0.940 . S
C466 C465 1.378 . S
C466 C467 1.396 . S
C467 H452 0.940 . S
C467 C462 1.391 . S
C467 C466 1.396 . S
C468 P448 1.803 . S
C468 C469 1.378 . S
C468 C473 1.400 . S
C469 H453 0.939 . S
C469 C468 1.378 . S
C469 C470 1.361 . S
C470 H454 0.942 . S
C470 C469 1.361 . S
C470 C471 1.369 . S
C471 C470 1.369 . S
C471 C472 1.404 . S
C472 H455 0.940 . S
C472 C471 1.404 . S
C472 C473 1.389 . S
C473 H456 0.939 . S
C473 C468 1.400 . S
C473 C472 1.389 . S
C474 P448 1.819 . S
C474 C475 1.391 . S
C474 C479 1.391 . S
C475 H457 0.941 . S
C475 C474 1.391 . S
C475 C476 1.396 . S
C476 H460 0.939 . S
C476 C475 1.396 . S
C476 C477 1.397 . S
C477 C476 1.397 . S
C477 C478 1.385 . S
C478 H461 0.940 . S
C478 C477 1.385 . S
C478 C479 1.388 . S
C479 H458 0.939 . S
C479 C474 1.391 . S
C479 C478 1.388 . S
P480 O491 1.490 1_556 S
P480 C494 1.812 . S
P480 C500 1.803 1_556 S
P480 C506 1.819 . S
H481 C495 0.941 . S
H482 C496 0.939 . S
H483 C498 0.940 . S
H484 C499 0.940 . S
H485 C501 0.939 . S
H486 C502 0.942 . S
H487 C504 0.940 . S
H488 C505 0.939 . S
H489 C507 0.941 . S
H490 C511 0.939 1_554 S
O491 P480 1.490 1_554 S
H492 C508 0.939 . S
H493 C510 0.940 . S
C494 P480 1.812 . S
C494 C495 1.389 . S
C494 C499 1.391 . S
C495 H481 0.941 . S
C495 C494 1.389 . S
C495 C496 1.397 . S
C496 H482 0.939 . S
C496 C495 1.397 . S
C496 C497 1.378 . S
C497 C496 1.378 . S
C497 C498 1.378 . S
C498 H483 0.940 . S
C498 C497 1.378 . S
C498 C499 1.396 . S
C499 H484 0.940 . S
C499 C494 1.391 . S
C499 C498 1.396 . S
C500 P480 1.803 1_554 S
C500 C501 1.378 . S
C500 C505 1.400 1_554 S
C501 H485 0.939 . S
C501 C500 1.378 . S
C501 C502 1.361 . S
C502 H486 0.942 . S
C502 C501 1.361 . S
C502 C503 1.369 . S
C503 C502 1.369 . S
C503 C504 1.404 1_554 S
C504 H487 0.940 . S
C504 C503 1.404 1_556 S
C504 C505 1.389 . S
C505 H488 0.939 . S
C505 C500 1.400 1_556 S
C505 C504 1.389 . S
C506 P480 1.819 . S
C506 C507 1.391 1_545 S
C506 C511 1.391 . S
C507 H489 0.941 . S
C507 C506 1.391 1_565 S
C507 C508 1.396 . S
C508 H492 0.939 . S
C508 C507 1.396 . S
C508 C509 1.397 . S
C509 C508 1.397 . S
C509 C510 1.385 1_565 S
C510 H493 0.940 . S
C510 C509 1.385 1_545 S
C510 C511 1.388 . S
C511 H490 0.939 1_556 S
C511 C506 1.391 . S
C511 C510 1.388 . S
O512 Cd513 2.223 . S
O512 C520 1.315 1_554 S
Cd513 O512 2.223 . S
Cd513 O516 2.297 . S
Cd513 O517 2.439 . S
Cd513 O523 2.240 . S
Cd514 O515 2.240 . S
Cd514 O522 2.223 1_554 S
Cd514 O524 2.297 1_565 S
Cd514 O525 2.439 . S
O515 Cd514 2.240 . S
O515 C520 1.279 1_554 S
O516 Cd513 2.297 . S
O516 C518 1.247 . S
O517 Cd513 2.439 . S
O517 C518 1.208 . S
C518 O516 1.247 . S
C518 O517 1.208 . S
C519 O524 1.247 1_565 S
C519 O525 1.208 . S
C520 O512 1.315 1_556 S
C520 O515 1.279 1_556 S
C521 O522 1.315 1_554 S
C521 O523 1.279 . S
O522 Cd514 2.223 1_556 S
O522 C521 1.315 1_556 S
O523 Cd513 2.240 . S
O523 C521 1.279 . S
O524 Cd514 2.297 1_545 S
O524 C519 1.247 1_545 S
O525 Cd514 2.439 . S
O525 C519 1.208 . S
O526 Cd527 2.223 . S
O526 C534 1.315 . S
Cd527 O526 2.223 . S
Cd527 O530 2.297 . S
Cd527 O531 2.439 . S
Cd527 O537 2.240 . S
Cd528 O529 2.240 . S
Cd528 O536 2.223 . S
Cd528 O538 2.297 . S
Cd528 O539 2.439 . S
O529 Cd528 2.240 . S
O529 C534 1.279 . S
O530 Cd527 2.297 . S
O530 C532 1.247 . S
O531 Cd527 2.439 . S
O531 C532 1.208 . S
C532 O530 1.247 . S
C532 O531 1.208 . S
C533 O538 1.247 . S
C533 O539 1.208 . S
C534 O526 1.315 . S
C534 O529 1.279 . S
C535 O536 1.315 . S
C535 O537 1.279 . S
O536 Cd528 2.223 . S
O536 C535 1.315 . S
O537 Cd527 2.240 . S
O537 C535 1.279 . S
O538 Cd528 2.297 . S
O538 C533 1.247 . S
O539 Cd528 2.439 . S
O539 C533 1.208 . S
O540 Cd541 2.223 1_556 S
O540 C548 1.315 . S
Cd541 O540 2.223 1_554 S
Cd541 O544 2.297 . S
Cd541 O545 2.439 . S
Cd541 O551 2.240 . S
Cd542 O543 2.240 . S
Cd542 O550 2.223 . S
Cd542 O552 2.297 . S
Cd542 O553 2.439 1_556 S
O543 Cd542 2.240 . S
O543 C548 1.279 . S
O544 Cd541 2.297 . S
O544 C546 1.247 . S
O545 Cd541 2.439 . S
O545 C546 1.208 . S
C546 O544 1.247 . S
C546 O545 1.208 . S
C547 O552 1.247 1_554 S
C547 O553 1.208 . S
C548 O540 1.315 . S
C548 O543 1.279 . S
C549 O550 1.315 . S
C549 O551 1.279 1_556 S
O550 Cd542 2.223 . S
O550 C549 1.315 . S
O551 Cd541 2.240 . S
O551 C549 1.279 1_554 S
O552 Cd542 2.297 . S
O552 C547 1.247 1_556 S
O553 Cd542 2.439 1_554 S
O553 C547 1.208 . S
O554 Cd555 2.223 1_565 S
O554 C562 1.315 1_565 S
Cd555 O554 2.223 1_545 S
Cd555 O558 2.297 . S
Cd555 O559 2.439 . S
Cd555 O565 2.240 . S
Cd556 O557 2.240 . S
Cd556 O564 2.223 1_545 S
Cd556 O566 2.297 . S
Cd556 O567 2.439 . S
O557 Cd556 2.240 . S
O557 C562 1.279 . S
O558 Cd555 2.297 . S
O558 C560 1.247 . S
O559 Cd555 2.439 . S
O559 C560 1.208 . S
C560 O558 1.247 . S
C560 O559 1.208 . S
C561 O566 1.247 . S
C561 O567 1.208 . S
C562 O554 1.315 1_545 S
C562 O557 1.279 . S
C563 O564 1.315 . S
C563 O565 1.279 1_565 S
O564 Cd556 2.223 1_565 S
O564 C563 1.315 . S
O565 Cd555 2.240 . S
O565 C563 1.279 1_545 S
O566 Cd556 2.297 . S
O566 C561 1.247 . S
O567 Cd556 2.439 . S
O567 C561 1.208 . S
O568 Cd569 2.223 . S
O568 C576 1.315 . S
Cd569 O568 2.223 . S
Cd569 O572 2.297 . S
Cd569 O573 2.439 . S
Cd569 O579 2.240 . S
Cd570 O571 2.240 . S
Cd570 O578 2.223 . S
Cd570 O580 2.297 . S
Cd570 O581 2.439 . S
O571 Cd570 2.240 . S
O571 C576 1.279 . S
O572 Cd569 2.297 . S
O572 C574 1.247 . S
O573 Cd569 2.439 . S
O573 C574 1.208 . S
C574 O572 1.247 . S
C574 O573 1.208 . S
C575 O580 1.247 . S
C575 O581 1.208 . S
C576 O568 1.315 . S
C576 O571 1.279 . S
C577 O578 1.315 . S
C577 O579 1.279 . S
O578 Cd570 2.223 . S
O578 C577 1.315 . S
O579 Cd569 2.240 . S
O579 C577 1.279 . S
O580 Cd570 2.297 . S
O580 C575 1.247 . S
O581 Cd570 2.439 . S
O581 C575 1.208 . S
O582 Cd583 2.223 . S
O582 C590 1.315 . S
Cd583 O582 2.223 . S
Cd583 O586 2.297 . S
Cd583 O587 2.439 . S
Cd583 O593 2.240 . S
Cd584 O585 2.240 . S
Cd584 O592 2.223 . S
Cd584 O594 2.297 . S
Cd584 O595 2.439 . S
O585 Cd584 2.240 . S
O585 C590 1.279 . S
O586 Cd583 2.297 . S
O586 C588 1.247 . S
O587 Cd583 2.439 . S
O587 C588 1.208 . S
C588 O586 1.247 . S
C588 O587 1.208 . S
C589 O594 1.247 . S
C589 O595 1.208 . S
C590 O582 1.315 . S
C590 O585 1.279 . S
C591 O592 1.315 . S
C591 O593 1.279 . S
O592 Cd584 2.223 . S
O592 C591 1.315 . S
O593 Cd583 2.240 . S
O593 C591 1.279 . S
O594 Cd584 2.297 . S
O594 C589 1.247 . S
O595 Cd584 2.439 . S
O595 C589 1.208 . S
O596 Cd597 2.223 . S
O596 C604 1.315 . S
Cd597 O596 2.223 . S
Cd597 O600 2.297 . S
Cd597 O601 2.439 . S
Cd597 O607 2.240 . S
Cd598 O599 2.240 . S
Cd598 O606 2.223 . S
Cd598 O608 2.297 . S
Cd598 O609 2.439 . S
O599 Cd598 2.240 . S
O599 C604 1.279 . S
O600 Cd597 2.297 . S
O600 C602 1.247 . S
O601 Cd597 2.439 . S
O601 C602 1.208 . S
C602 O600 1.247 . S
C602 O601 1.208 . S
C603 O608 1.247 . S
C603 O609 1.208 . S
C604 O596 1.315 . S
C604 O599 1.279 . S
C605 O606 1.315 . S
C605 O607 1.279 . S
O606 Cd598 2.223 . S
O606 C605 1.315 . S
O607 Cd597 2.240 . S
O607 C605 1.279 . S
O608 Cd598 2.297 . S
O608 C603 1.247 . S
O609 Cd598 2.439 . S
O609 C603 1.208 . S
O610 Cd611 2.223 1_545 S
O610 C618 1.315 . S
Cd611 O610 2.223 1_565 S
Cd611 O614 2.297 . S
Cd611 O615 2.439 . S
Cd611 O621 2.240 1_565 S
Cd612 O613 2.240 . S
Cd612 O620 2.223 . S
Cd612 O622 2.297 . S
Cd612 O623 2.439 1_545 S
O613 Cd612 2.240 . S
O613 C618 1.279 . S
O614 Cd611 2.297 . S
O614 C616 1.247 . S
O615 Cd611 2.439 . S
O615 C616 1.208 . S
C616 O614 1.247 . S
C616 O615 1.208 . S
C617 O622 1.247 1_565 S
C617 O623 1.208 . S
C618 O610 1.315 . S
C618 O613 1.279 . S
C619 O620 1.315 . S
C619 O621 1.279 . S
O620 Cd612 2.223 . S
O620 C619 1.315 . S
O621 Cd611 2.240 1_545 S
O621 C619 1.279 . S
O622 Cd612 2.297 . S
O622 C617 1.247 1_545 S
O623 Cd612 2.439 1_565 S
O623 C617 1.208 . S
O624 Cd625 2.223 . S
O624 C632 1.315 . S
Cd625 O624 2.223 . S
Cd625 O628 2.297 1_656 S
Cd625 O629 2.439 1_655 S
Cd625 O635 2.240 . S
Cd626 O627 2.240 . S
Cd626 O634 2.223 1_455 S
Cd626 O636 2.297 . S
Cd626 O637 2.439 . S
O627 Cd626 2.240 . S
O627 C632 1.279 1_455 S
O628 Cd625 2.297 1_454 S
O628 C630 1.254 . S
O629 Cd625 2.439 1_455 S
O629 C630 1.189 1_556 S
C630 O628 1.254 . S
C630 O629 1.189 1_554 S
C631 O636 1.247 . S
C631 O637 1.208 . S
C632 O624 1.315 . S
C632 O627 1.279 1_655 S
C633 O634 1.315 . S
C633 O635 1.279 . S
O634 Cd626 2.223 1_655 S
O634 C633 1.315 . S
O635 Cd625 2.240 . S
O635 C633 1.279 . S
O636 Cd626 2.297 . S
O636 C631 1.247 . S
O637 Cd626 2.439 . S
O637 C631 1.208 . S
O638 Cd639 2.223 . S
O638 C646 1.315 . S
Cd639 O638 2.223 . S
Cd639 O642 2.297 . S
Cd639 O643 2.439 . S
Cd639 O649 2.240 . S
Cd640 O641 2.240 . S
Cd640 O648 2.223 . S
Cd640 O650 2.297 . S
Cd640 O651 2.439 . S
O641 Cd640 2.240 . S
O641 C646 1.279 . S
O642 Cd639 2.297 . S
O642 C644 1.247 . S
O643 Cd639 2.439 . S
O643 C644 1.208 . S
C644 O642 1.247 . S
C644 O643 1.208 . S
C645 O650 1.247 . S
C645 O651 1.208 . S
C646 O638 1.315 . S
C646 O641 1.279 . S
C647 O648 1.315 . S
C647 O649 1.279 . S
O648 Cd640 2.223 . S
O648 C647 1.315 . S
O649 Cd639 2.240 . S
O649 C647 1.279 . S
O650 Cd640 2.297 . S
O650 C645 1.247 . S
O651 Cd640 2.439 . S
O651 C645 1.208 . S
O652 Cd653 2.223 1_655 S
O652 C660 1.315 . S
Cd653 O652 2.223 1_455 S
Cd653 O656 2.297 . S
Cd653 O657 2.439 . S
Cd653 O663 2.238 1_455 S
Cd654 O655 2.240 . S
Cd654 O662 2.223 . S
Cd654 O664 2.297 . S
Cd654 O665 2.439 1_655 S
O655 Cd654 2.240 . S
O655 C660 1.279 . S
O656 Cd653 2.297 . S
O656 C658 1.247 . S
O657 Cd653 2.439 . S
O657 C658 1.208 . S
C658 O656 1.247 . S
C658 O657 1.208 . S
C659 O664 1.247 1_455 S
C659 O665 1.208 . S
C660 O652 1.315 . S
C660 O655 1.279 . S
C661 O662 1.315 . S
C661 O663 1.284 . S
O662 Cd654 2.223 . S
O662 C661 1.315 . S
O663 Cd653 2.238 1_655 S
O663 C661 1.284 . S
O664 Cd654 2.297 . S
O664 C659 1.247 1_655 S
O665 Cd654 2.439 1_455 S
O665 C659 1.208 . S
O666 Cd667 2.223 . S
O666 C674 1.315 . S
Cd667 O666 2.223 . S
Cd667 O670 2.297 . S
Cd667 O671 2.439 . S
Cd667 O677 2.240 . S
Cd668 O669 2.240 . S
Cd668 O676 2.223 . S
Cd668 O678 2.297 . S
Cd668 O679 2.439 . S
O669 Cd668 2.240 . S
O669 C674 1.279 . S
O670 Cd667 2.297 . S
O670 C672 1.247 . S
O671 Cd667 2.439 . S
O671 C672 1.208 . S
C672 O670 1.247 . S
C672 O671 1.208 . S
C673 O678 1.247 . S
C673 O679 1.208 . S
C674 O666 1.315 . S
C674 O669 1.279 . S
C675 O676 1.315 . S
C675 O677 1.279 . S
O676 Cd668 2.223 . S
O676 C675 1.315 . S
O677 Cd667 2.240 . S
O677 C675 1.279 . S
O678 Cd668 2.297 . S
O678 C673 1.247 . S
O679 Cd668 2.439 . S
O679 C673 1.208 . S
C520 C177 1.634 . S
C535 C209 1.831 . S
C253 C548 1.636 . S
C562 C157 2.033 1_545 S
C574 C343 1.641 . S
C588 C401 2.009 . S
C369 C602 1.695 . S
C617 C317 1.505 . S
C375 C633 1.677 . S
C646 C305 1.622 . S
C349 C631 1.512 . S
C644 C413 2.402 . S
C241 C660 1.909 . S
C151 C659 2.105 . S
C189 C658 1.674 . S
C215 C661 1.734 . S
C113 C563 2.029 . S
C471 C561 1.516 . S
C521 C509 1.478 1_554 S
C532 C279 1.765 . S
C145 C577 1.893 . S
C618 C381 2.032 . S
C575 C311 1.785 . S
C603 C407 2.294 . S
C604 C465 1.634 . S
C497 C619 1.831 . S
C285 C576 1.636 . S
C590 C445 2.033 . S
C119 C546 1.641 . S
C560 C17 2.009 1_655 S
C518 C49 1.695 . S
C533 C93 1.505 1_455 S
C55 C647 1.677 . S
C81 C632 1.622 1_554 S
C125 C645 1.511 . S
C29 C630 2.416 . S
C674 C273 1.909 . S
C673 C439 2.105 1_554 S
C672 C477 1.674 . S
C503 C675 1.734 . S
C337 C591 2.029 . S
C589 C183 1.517 . S
C605 C221 1.478 . S
C616 C247 1.765 . S
C433 C549 1.893 . S
C534 C61 2.032 . S
C87 C547 1.785 . S
C519 C23 2.294 1_565 S
