# Generated by pormake.
# Topology zzz, (3,6)-cn, num edge types: 1
# Building blocks:
#     Node 0, Type 0, BuildingBlock: KAKCAD_clean_linker_0, # of connection points: 3
#     Node 1, Type 0, BuildingBlock: KAKCAD_clean_linker_0, # of connection points: 3
#     Node 2, Type 0, BuildingBlock: KAKCAD_clean_linker_0, # of connection points: 3
#     Node 3, Type 0, BuildingBlock: KAKCAD_clean_linker_0, # of connection points: 3
#     Node 4, Type 0, BuildingBlock: KAKCAD_clean_linker_0, # of connection points: 3
#     Node 5, Type 0, BuildingBlock: KAKCAD_clean_linker_0, # of connection points: 3
#     Node 6, Type 0, BuildingBlock: KAKCAD_clean_linker_0, # of connection points: 3
#     Node 7, Type 0, BuildingBlock: KAKCAD_clean_linker_0, # of connection points: 3
#     Node 8, Type 1, BuildingBlock: VOLQOD_clean_sbu_1, # of connection points: 6
#     Node 9, Type 1, BuildingBlock: VOLQOD_clean_sbu_1, # of connection points: 6
#     Node 10, Type 1, BuildingBlock: VOLQOD_clean_sbu_1, # of connection points: 6
#     Node 11, Type 1, BuildingBlock: VOLQOD_clean_sbu_1, # of connection points: 6
#     Edge 12, Type (0, 1), BuildingBlock: CIFDUS_clean_linker_0, # of connection points: 2
#     Edge 13, Type (0, 1), BuildingBlock: CIFDUS_clean_linker_0, # of connection points: 2
#     Edge 14, Type (0, 1), BuildingBlock: CIFDUS_clean_linker_0, # of connection points: 2
#     Edge 15, Type (0, 1), BuildingBlock: CIFDUS_clean_linker_0, # of connection points: 2
#     Edge 16, Type (0, 1), BuildingBlock: CIFDUS_clean_linker_0, # of connection points: 2
#     Edge 17, Type (0, 1), BuildingBlock: CIFDUS_clean_linker_0, # of connection points: 2
#     Edge 18, Type (0, 1), BuildingBlock: CIFDUS_clean_linker_0, # of connection points: 2
#     Edge 19, Type (0, 1), BuildingBlock: CIFDUS_clean_linker_0, # of connection points: 2
#     Edge 20, Type (0, 1), BuildingBlock: CIFDUS_clean_linker_0, # of connection points: 2
#     Edge 21, Type (0, 1), BuildingBlock: CIFDUS_clean_linker_0, # of connection points: 2
#     Edge 22, Type (0, 1), BuildingBlock: CIFDUS_clean_linker_0, # of connection points: 2
#     Edge 23, Type (0, 1), BuildingBlock: CIFDUS_clean_linker_0, # of connection points: 2
#     Edge 24, Type (0, 1), BuildingBlock: CIFDUS_clean_linker_0, # of connection points: 2
#     Edge 25, Type (0, 1), BuildingBlock: CIFDUS_clean_linker_0, # of connection points: 2
#     Edge 26, Type (0, 1), BuildingBlock: CIFDUS_clean_linker_0, # of connection points: 2
#     Edge 27, Type (0, 1), BuildingBlock: CIFDUS_clean_linker_0, # of connection points: 2
#     Edge 28, Type (0, 1), BuildingBlock: CIFDUS_clean_linker_0, # of connection points: 2
#     Edge 29, Type (0, 1), BuildingBlock: CIFDUS_clean_linker_0, # of connection points: 2
#     Edge 30, Type (0, 1), BuildingBlock: CIFDUS_clean_linker_0, # of connection points: 2
#     Edge 31, Type (0, 1), BuildingBlock: CIFDUS_clean_linker_0, # of connection points: 2
#     Edge 32, Type (0, 1), BuildingBlock: CIFDUS_clean_linker_0, # of connection points: 2
#     Edge 33, Type (0, 1), BuildingBlock: CIFDUS_clean_linker_0, # of connection points: 2
#     Edge 34, Type (0, 1), BuildingBlock: CIFDUS_clean_linker_0, # of connection points: 2
#     Edge 35, Type (0, 1), BuildingBlock: CIFDUS_clean_linker_0, # of connection points: 2
# Relax obj value: 0.358
# Max RMSD: 0.257
# Mean RMSD: 0.208
data_MOF--net-zzz--node1-VOLQOD_clean_sbu_1--node2-KAKCAD_clean_linker_0--edge1-CIFDUS_clean_linker_0
_symmetry_space_group_name_H-M    P1
_symmetry_Int_Tables_number       1
_symmetry_cell_setting            triclinic
loop_
_symmetry_equiv_pos_as_xyz
'x, y, z'
_cell_length_a     52.423232
_cell_length_b     51.681319
_cell_length_c     20.578578
_cell_angle_alpha  90.070624
_cell_angle_beta   90.33808
_cell_angle_gamma 92.282778
loop_
_atom_site_label
_atom_site_type_symbol
_atom_site_fract_x
_atom_site_fract_y
_atom_site_fract_z
_atom_type_partial_charge
C0 C 0.84994 0.43854 0.97267 0.0
C1 C 0.86857 0.42572 0.00844 0.0
C2 C 0.82825 0.44745 0.00333 0.0
C3 C 0.82476 0.44364 0.07031 0.0
C4 C 0.84226 0.42881 0.1047 0.0
C5 C 0.86402 0.42004 0.07414 0.0
C6 C 0.80506 0.45789 0.10569 0.0
C7 C 0.78049 0.46067 0.0798 0.0
C8 C 0.76267 0.47578 0.11193 0.0
C9 C 0.7696 0.48816 0.17092 0.0
C10 C 0.79438 0.48597 0.1961 0.0
C11 C 0.81175 0.47072 0.16367 0.0
C12 C 0.80362 0.50006 0.25462 0.0
C13 C 0.82235 0.52001 0.24762 0.0
C14 C 0.7991 0.48942 0.31629 0.0
C15 C 0.8147 0.497 0.369 0.0
C16 C 0.83518 0.51518 0.36062 0.0
C17 C 0.73731 0.47923 0.08162 0.0
C18 C 0.73569 0.48744 0.01672 0.0
C19 C 0.71473 0.47306 0.11561 0.0
C20 C 0.69097 0.47422 0.08437 0.0
C21 C 0.6894 0.48208 0.01907 0.0
C22 C 0.71199 0.48904 0.98594 0.0
C23 C 0.83793 0.52759 0.30016 0.0
H24 H 0.85303 0.44344 0.92209 0.0
H25 H 0.81524 0.45893 0.97554 0.0
H26 H 0.83978 0.42508 0.15611 0.0
H27 H 0.87789 0.4099 0.10264 0.0
H28 H 0.77517 0.45104 0.03461 0.0
H29 H 0.83099 0.46961 0.18295 0.0
H30 H 0.7562 0.50018 0.19558 0.0
H31 H 0.8264 0.52815 0.2001 0.0
H32 H 0.78498 0.47374 0.32247 0.0
H33 H 0.81183 0.48735 0.41523 0.0
H34 H 0.75284 0.49239 0.98956 0.0
H35 H 0.71553 0.46658 0.16559 0.0
H36 H 0.85357 0.54149 0.29169 0.0
H37 H 0.71137 0.49498 0.9355 0.0
H38 H 0.67382 0.46885 0.11108 0.0
C39 C 0.05742 0.81418 0.98289 0.0
C40 C 0.0738 0.8342 0.0067 0.0
C41 C 0.04844 0.79444 0.02374 0.0
C42 C 0.05575 0.79399 0.08956 0.0
C43 C 0.07288 0.81357 0.11303 0.0
C44 C 0.08171 0.83357 0.07204 0.0
C45 C 0.04385 0.77422 0.1337 0.0
C46 C 0.03775 0.74914 0.11086 0.0
C47 C 0.02243 0.73158 0.14722 0.0
C48 C 0.01453 0.73883 0.20975 0.0
C49 C 0.02166 0.76345 0.23452 0.0
C50 C 0.0361 0.781 0.19629 0.0
C51 C 0.01268 0.77249 0.29803 0.0
C52 C 0.98843 0.78283 0.30276 0.0
C53 C 0.03018 0.77615 0.34933 0.0
C54 C 0.02416 0.7914 0.40281 0.0
C55 C 0.00069 0.80362 0.40514 0.0
C56 C 0.0142 0.70635 0.11728 0.0
C57 C 0.00768 0.70534 0.05094 0.0
C58 C 0.01443 0.68309 0.1525 0.0
C59 C 0.00978 0.65927 0.12093 0.0
C60 C 0.00495 0.65824 0.05342 0.0
C61 C 0.00344 0.6817 0.01936 0.0
C62 C 0.98249 0.79835 0.35589 0.0
H63 H 0.05045 0.81441 0.93323 0.0
H64 H 0.03479 0.78018 0.00409 0.0
H65 H 0.07914 0.81367 0.16326 0.0
H66 H 0.09439 0.84874 0.09161 0.0
H67 H 0.0446 0.74341 0.06361 0.0
H68 H 0.04014 0.80045 0.21445 0.0
H69 H 0.00246 0.72575 0.23834 0.0
H70 H 0.97485 0.78056 0.26309 0.0
H71 H 0.04915 0.76868 0.34589 0.0
H72 H 0.03866 0.79534 0.43961 0.0
H73 H 0.00665 0.72292 0.02259 0.0
H74 H 0.01924 0.6832 0.20375 0.0
H75 H 0.96424 0.80747 0.35661 0.0
H76 H 1.00014 0.682 0.96741 0.0
H77 H 0.01057 0.64167 0.14921 0.0
C78 C 0.69959 0.05509 0.94438 0.0
C79 C 0.68108 0.07058 0.97197 0.0
C80 C 0.71885 0.0451 0.98267 0.0
C81 C 0.72035 0.05057 0.0496 0.0
C82 C 0.70291 0.06766 0.07626 0.0
C83 C 0.68332 0.07739 0.03792 0.0
C84 C 0.73797 0.03597 0.09183 0.0
C85 C 0.76146 0.02808 0.06801 0.0
C86 C 0.77581 0.00993 0.10172 0.0
C87 C 0.76713 0.00064 0.16226 0.0
C88 C 0.74423 0.00932 0.18814 0.0
C89 C 0.72985 0.02686 0.15276 0.0
C90 C 0.73306 0.9982 0.24814 0.0
C91 C 0.72439 0.97216 0.24921 0.0
C92 C 0.72632 0.01471 0.29887 0.0
C93 C 0.70969 0.00584 0.34747 0.0
C94 C 0.69916 0.98041 0.34549 0.0
C95 C 0.79888 0.99984 0.07052 0.0
C96 C 0.79801 0.99312 0.00431 0.0
C97 C 0.82211 0.99843 0.10451 0.0
C98 C 0.8444 0.99204 0.07168 0.0
C99 C 0.84369 0.98699 0.00448 0.0
C100 C 0.82014 0.98683 0.9717 0.0
C101 C 0.70742 0.96336 0.29735 0.0
H102 H 0.69815 0.04907 0.89399 0.0
H103 H 0.73148 0.03167 0.96025 0.0
H104 H 0.70376 0.07275 0.1273 0.0
H105 H 0.66939 0.08944 0.06033 0.0
H106 H 0.76835 0.03554 0.02187 0.0
H107 H 0.71136 0.03192 0.17112 0.0
H108 H 0.77768 0.98622 0.18815 0.0
H109 H 0.7291 0.9592 0.21004 0.0
H110 H 0.73262 0.03494 0.29849 0.0
H111 H 0.70349 0.01948 0.38355 0.0
H112 H 0.78024 0.99338 0.97718 0.0
H113 H 0.8233 0.00346 0.15558 0.0
H114 H 0.69965 0.94364 0.2949 0.0
H115 H 0.81894 0.9825 0.92021 0.0
H116 H 0.86234 0.99232 0.09809 0.0
C117 C 0.54431 0.70726 0.42911 0.0
C118 C 0.5626 0.68831 0.42148 0.0
C119 C 0.53954 0.72455 0.37864 0.0
C120 C 0.5532 0.72329 0.32042 0.0
C121 C 0.57339 0.70638 0.31576 0.0
C122 C 0.57809 0.68903 0.36596 0.0
C123 C 0.54151 0.73251 0.25999 0.0
C124 C 0.54622 0.75759 0.2356 0.0
C125 C 0.53496 0.76472 0.17638 0.0
C126 C 0.51985 0.74642 0.14119 0.0
C127 C 0.51544 0.72118 0.16475 0.0
C128 C 0.52585 0.71474 0.22517 0.0
C129 C 0.50182 0.701 0.12433 0.0
C130 C 0.48175 0.70729 0.08211 0.0
C131 C 0.50999 0.67538 0.12482 0.0
C132 C 0.49901 0.65682 0.08302 0.0
C133 C 0.47991 0.66345 0.0388 0.0
C134 C 0.53915 0.79083 0.14836 0.0
C135 C 0.51796 0.80526 0.13205 0.0
C136 C 0.56357 0.79963 0.12857 0.0
C137 C 0.56646 0.82158 0.08885 0.0
C138 C 0.54494 0.83496 0.06864 0.0
C139 C 0.52084 0.82719 0.093 0.0
C140 C 0.47107 0.68874 0.03927 0.0
H141 H 0.53198 0.70705 0.47118 0.0
H142 H 0.52353 0.73708 0.38253 0.0
H143 H 0.58384 0.70483 0.27073 0.0
H144 H 0.59245 0.67478 0.35914 0.0
H145 H 0.55837 0.77136 0.26237 0.0
H146 H 0.52219 0.69556 0.2452 0.0
H147 H 0.51244 0.75171 0.09396 0.0
H148 H 0.47461 0.72666 0.08115 0.0
H149 H 0.52576 0.66981 0.15524 0.0
H150 H 0.50658 0.63761 0.08266 0.0
H151 H 0.49897 0.79885 0.14706 0.0
H152 H 0.58014 0.78861 0.1402 0.0
H153 H 0.45635 0.69429 0.00547 0.0
H154 H 0.50397 0.83746 0.07964 0.0
H155 H 0.58526 0.82709 0.07082 0.0
C156 C 0.177 0.57992 0.34258 0.0
C157 C 0.154 0.575 0.30827 0.0
C158 C 0.20059 0.57751 0.31186 0.0
C159 C 0.20183 0.56919 0.24664 0.0
C160 C 0.17861 0.56627 0.21168 0.0
C161 C 0.15527 0.56987 0.24149 0.0
C162 C 0.22643 0.56098 0.21682 0.0
C163 C 0.24685 0.55251 0.25539 0.0
C164 C 0.26794 0.54063 0.2273 0.0
C165 C 0.26741 0.53529 0.16006 0.0
C166 C 0.24735 0.54371 0.12112 0.0
C167 C 0.2283 0.55824 0.14907 0.0
C168 C 0.24244 0.53323 0.05503 0.0
C169 C 0.23623 0.55 0.00414 0.0
C170 C 0.23659 0.50661 0.04818 0.0
C171 C 0.22205 0.49739 0.99522 0.0
C172 C 0.21347 0.51461 0.94783 0.0
C173 C 0.28991 0.53312 0.26893 0.0
C174 C 0.29833 0.54912 0.32088 0.0
C175 C 0.30288 0.51027 0.25694 0.0
C176 C 0.3239 0.50386 0.29513 0.0
C177 C 0.3323 0.51997 0.34671 0.0
C178 C 0.31914 0.54255 0.35946 0.0
C179 C 0.22198 0.54073 0.95073 0.0
H180 H 0.17693 0.58414 0.3941 0.0
H181 H 0.2177 0.58117 0.34052 0.0
H182 H 0.17772 0.55962 0.16198 0.0
H183 H 0.13807 0.56697 0.21257 0.0
H184 H 0.24601 0.55385 0.30772 0.0
H185 H 0.21371 0.56545 0.11737 0.0
H186 H 0.28241 0.52462 0.1377 0.0
H187 H 0.24031 0.57065 0.00868 0.0
H188 H 0.24087 0.49333 0.0871 0.0
H189 H 0.21594 0.47712 0.99377 0.0
H190 H 0.28917 0.56708 0.33104 0.0
H191 H 0.29671 0.49715 0.21838 0.0
H192 H 0.21559 0.55447 0.91501 0.0
H193 H 0.32538 0.55554 0.39827 0.0
H194 H 0.3335 0.48618 0.28459 0.0
C195 C 0.007 0.18924 0.3368 0.0
C196 C 0.01858 0.16566 0.34808 0.0
C197 C 0.01893 0.208 0.29721 0.0
C198 C 0.0428 0.20359 0.26909 0.0
C199 C 0.0546 0.18021 0.28217 0.0
C200 C 0.04255 0.16141 0.3209 0.0
C201 C 0.05501 0.2228 0.22432 0.0
C202 C 0.05371 0.24936 0.23598 0.0
C203 C 0.06396 0.26758 0.19171 0.0
C204 C 0.07615 0.25905 0.13519 0.0
C205 C 0.07788 0.23232 0.12357 0.0
C206 C 0.06725 0.21451 0.16821 0.0
C207 C 0.0879 0.22177 0.06237 0.0
C208 C 0.07466 0.22564 0.00402 0.0
C209 C 0.10573 0.20219 0.06543 0.0
C210 C 0.10787 0.18472 0.01409 0.0
C211 C 0.09217 0.18653 0.95884 0.0
C212 C 0.06089 0.29528 0.20617 0.0
C213 C 0.03634 0.30385 0.21859 0.0
C214 C 0.08215 0.31177 0.21981 0.0
C215 C 0.07891 0.3357 0.25028 0.0
C216 C 0.05435 0.34342 0.26748 0.0
C217 C 0.03309 0.32758 0.24894 0.0
C218 C 0.07679 0.20814 0.95255 0.0
H219 H 0.98853 0.19292 0.35748 0.0
H220 H 0.00918 0.22568 0.28746 0.0
H221 H 0.07321 0.17641 0.26253 0.0
H222 H 0.05212 0.14357 0.33021 0.0
H223 H 0.0447 0.25602 0.27991 0.0
H224 H 0.06746 0.19398 0.15737 0.0
H225 H 0.08369 0.27297 0.1002 0.0
H226 H 0.0607 0.24049 0.00064 0.0
H227 H 0.11608 0.1988 0.11017 0.0
H228 H 0.11991 0.16836 0.02064 0.0
H229 H 0.01967 0.29135 0.2087 0.0
H230 H 0.10127 0.30542 0.21103 0.0
H231 H 0.06483 0.21033 0.90996 0.0
H232 H 0.01391 0.33257 0.26186 0.0
H233 H 0.09568 0.34761 0.26283 0.0
C234 C 0.33982 0.93803 0.33245 0.0
C235 C 0.36527 0.94768 0.33395 0.0
C236 C 0.32143 0.95058 0.29578 0.0
C237 C 0.3282 0.97305 0.26027 0.0
C238 C 0.35373 0.98235 0.26114 0.0
C239 C 0.372 0.96982 0.29734 0.0
C240 C 0.30881 0.98753 0.22405 0.0
C241 C 0.28496 0.992 0.25136 0.0
C242 C 0.26741 0.0074 0.21905 0.0
C243 C 0.27379 0.01851 0.15852 0.0
C244 C 0.29785 0.01444 0.13152 0.0
C245 C 0.3149 0.99862 0.16379 0.0
C246 C 0.30686 0.02724 0.07144 0.0
C247 C 0.30105 0.01589 0.01102 0.0
C248 C 0.32682 0.04609 0.076 0.0
C249 C 0.34244 0.05155 0.02263 0.0
C250 C 0.33844 0.03812 0.96374 0.0
C251 C 0.24296 0.0123 0.25114 0.0
C252 C 0.21987 0.00233 0.22496 0.0
C253 C 0.24304 0.02431 0.31231 0.0
C254 C 0.22053 0.02557 0.34787 0.0
C255 C 0.19749 0.0144 0.32355 0.0
C256 C 0.19734 0.00323 0.26097 0.0
C257 C 0.31664 0.02142 0.95738 0.0
H258 H 0.33408 0.92102 0.36025 0.0
H259 H 0.30193 0.94283 0.29555 0.0
H260 H 0.35951 0.99993 0.23568 0.0
H261 H 0.39124 0.97828 0.29891 0.0
H262 H 0.28019 0.98402 0.29867 0.0
H263 H 0.33327 0.9953 0.14196 0.0
H264 H 0.26057 0.03085 0.13393 0.0
H265 H 0.28593 0.00106 0.00674 0.0
H266 H 0.33183 0.05476 0.12258 0.0
H267 H 0.35907 0.06439 0.02962 0.0
H268 H 0.2195 0.9927 0.17815 0.0
H269 H 0.26072 0.03216 0.33328 0.0
H270 H 0.31275 0.01112 0.9123 0.0
H271 H 0.18007 0.99417 0.24081 0.0
H272 H 0.22133 0.03493 0.39498 0.0
C273 C 0.45066 0.29299 0.97624 0.0
C274 C 0.46978 0.29851 0.92992 0.0
C275 C 0.45533 0.27648 0.02847 0.0
C276 C 0.47896 0.26486 0.0346 0.0
C277 C 0.49677 0.26778 0.98442 0.0
C278 C 0.49229 0.28449 0.93263 0.0
C279 C 0.48837 0.25841 0.09995 0.0
C280 C 0.49003 0.23288 0.12269 0.0
C281 C 0.50073 0.2283 0.18458 0.0
C282 C 0.50966 0.24955 0.22252 0.0
C283 C 0.50831 0.27496 0.19956 0.0
C284 C 0.4974 0.27914 0.13858 0.0
C285 C 0.51789 0.29732 0.23915 0.0
C286 C 0.51278 0.29842 0.30599 0.0
C287 C 0.53113 0.31836 0.20959 0.0
C288 C 0.53804 0.3405 0.24544 0.0
C289 C 0.5321 0.34192 0.31169 0.0
C290 C 0.50254 0.20173 0.21159 0.0
C291 C 0.48183 0.18361 0.2077 0.0
C292 C 0.52429 0.19531 0.24764 0.0
C293 C 0.52457 0.17236 0.28305 0.0
C294 C 0.50335 0.15499 0.28225 0.0
C295 C 0.48229 0.16032 0.2426 0.0
C296 C 0.51987 0.32049 0.34194 0.0
H297 H 0.43284 0.30288 0.97489 0.0
H298 H 0.44147 0.2748 0.06726 0.0
H299 H 0.51535 0.25947 0.98899 0.0
H300 H 0.5076 0.28823 0.89844 0.0
H301 H 0.48338 0.21684 0.09227 0.0
H302 H 0.49588 0.29876 0.12063 0.0
H303 H 0.51772 0.24634 0.27029 0.0
H304 H 0.50238 0.28267 0.33001 0.0
H305 H 0.53581 0.31787 0.15842 0.0
H306 H 0.54769 0.35667 0.22118 0.0
H307 H 0.46479 0.188 0.18052 0.0
H308 H 0.54085 0.2085 0.2503 0.0
H309 H 0.51473 0.32122 0.3928 0.0
H310 H 0.46572 0.14712 0.2412 0.0
H311 H 0.54121 0.16842 0.31235 0.0
O312 O 0.08686 0.00632 0.64768 0.0
Zn313 Zn 0.05961 0.00656 0.71771 0.0
O314 O 0.0255 0.99811 0.67965 0.0
Zn315 Zn 0.00325 0.02673 0.69431 0.0
Zn316 Zn 0.02814 0.99296 0.58627 0.0
Zn317 Zn 0.00998 0.96663 0.71815 0.0
O318 O 0.97127 0.0151 0.74003 0.0
O319 O 0.97702 0.97396 0.76562 0.0
O320 O 0.06099 0.04236 0.76034 0.0
O321 O 0.02093 0.054 0.74875 0.0
O322 O 0.99411 0.04479 0.61164 0.0
O323 O 0.0107 0.02019 0.53594 0.0
O324 O 0.0136 0.95829 0.55845 0.0
O325 O 0.06841 0.97976 0.78579 0.0
O326 O 0.0025 0.93854 0.6504 0.0
O327 O 0.03449 0.9523 0.78196 0.0
C328 C 0.08577 0.00176 0.58675 0.0
C329 C 0.96378 0.99412 0.76753 0.0
C330 C 0.9984 0.03986 0.55226 0.0
C331 C 0.04356 0.05849 0.76965 0.0
C332 C 0.0046 0.93854 0.58872 0.0
C333 C 0.05637 0.95921 0.80449 0.0
O334 O 0.06466 0.99604 0.55838 0.0
O335 O 0.50935 0.05199 0.62355 0.0
Zn336 Zn 0.51062 0.02754 0.7004 0.0
O337 O 0.52165 0.99318 0.67133 0.0
Zn338 Zn 0.49524 0.96695 0.69098 0.0
Zn339 Zn 0.52737 0.99304 0.57752 0.0
Zn340 Zn 0.55317 0.98408 0.71575 0.0
O341 O 0.50815 0.93961 0.75012 0.0
O342 O 0.54824 0.9521 0.77241 0.0
O343 O 0.47523 0.0251 0.74183 0.0
O344 O 0.4661 0.98289 0.7357 0.0
O345 O 0.48027 0.9502 0.61075 0.0
O346 O 0.50335 0.96791 0.5314 0.0
O347 O 0.56341 0.98422 0.55606 0.0
O348 O 0.53585 0.04358 0.76595 0.0
O349 O 0.58185 0.97876 0.65227 0.0
O350 O 0.56485 0.01331 0.77318 0.0
C351 C 0.51377 0.04944 0.56303 0.0
C352 C 0.52914 0.93636 0.77982 0.0
C353 C 0.48545 0.9525 0.5507 0.0
C354 C 0.46013 0.00558 0.75223 0.0
C355 C 0.58291 0.97934 0.59045 0.0
C356 C 0.55659 0.03523 0.78892 0.0
O357 O 0.52081 0.02808 0.53949 0.0
O358 O 0.44541 0.49776 0.66228 0.0
Zn359 Zn 0.47272 0.49392 0.73207 0.0
O360 O 0.50702 0.49791 0.69302 0.0
Zn361 Zn 0.52706 0.4682 0.71576 0.0
Zn362 Zn 0.50431 0.5005 0.59853 0.0
Zn363 Zn 0.52489 0.52909 0.72542 0.0
O364 O 0.55696 0.47788 0.7749 0.0
O365 O 0.5565 0.52081 0.77687 0.0
O366 O 0.46726 0.45838 0.77423 0.0
O367 O 0.50496 0.44108 0.75927 0.0
O368 O 0.53968 0.45045 0.6362 0.0
O369 O 0.5202 0.47027 0.55539 0.0
O370 O 0.52181 0.5333 0.56476 0.0
O371 O 0.46748 0.52199 0.79941 0.0
O372 O 0.53524 0.55377 0.65409 0.0
O373 O 0.50183 0.54797 0.78379 0.0
C374 C 0.44623 0.50015 0.60058 0.0
C375 C 0.56651 0.49973 0.79353 0.0
C376 C 0.53431 0.45252 0.57609 0.0
C377 C 0.48206 0.43947 0.7794 0.0
C378 C 0.53289 0.55274 0.59259 0.0
C379 C 0.48042 0.54293 0.81069 0.0
O380 O 0.46742 0.50102 0.57048 0.0
O381 O 0.97027 0.52029 0.60124 0.0
Zn382 Zn 0.00452 0.52641 0.64876 0.0
O383 O 0.01977 0.49344 0.67526 0.0
Zn384 Zn 0.02227 0.49105 0.76981 0.0
Zn385 Zn 0.99863 0.46458 0.64185 0.0
Zn386 Zn 0.05404 0.49055 0.64067 0.0
O387 O 0.05837 0.48525 0.80099 0.0
O388 O 0.08095 0.48914 0.71052 0.0
O389 O 0.99857 0.5485 0.72832 0.0
O390 O 0.01211 0.52456 0.81036 0.0
O391 O 0.99799 0.46299 0.8033 0.0
O392 O 0.98381 0.44278 0.71415 0.0
O393 O 0.01728 0.44306 0.57731 0.0
O394 O 0.02874 0.54672 0.58862 0.0
O395 O 0.05704 0.45954 0.58173 0.0
O396 O 0.06219 0.52142 0.5864 0.0
C397 C 0.9587 0.4992 0.58378 0.0
C398 C 0.07978 0.48628 0.77184 0.0
C399 C 0.98426 0.44522 0.77574 0.0
C400 C 0.00284 0.54531 0.78883 0.0
C401 C 0.04047 0.44316 0.55934 0.0
C402 C 0.05116 0.54186 0.56972 0.0
O403 O 0.96815 0.47743 0.59583 0.0
H404 H 0.19429 0.00697 0.45482 0.0
H405 H 0.14774 0.01934 0.28457 0.0
H406 H 0.10933 0.0157 0.35073 0.0
H407 H 0.08892 0.00911 0.45656 0.0
H408 H 0.13541 0.99945 0.62797 0.0
H409 H 0.17399 0.00253 0.56161 0.0
C410 C 0.17582 0.00934 0.43211 0.0
C411 C 0.17406 0.01337 0.36446 0.0
C412 C 0.15379 0.00773 0.47066 0.0
C413 C 0.14978 0.0158 0.33615 0.0
C414 C 0.12777 0.01389 0.37406 0.0
C415 C 0.10749 0.00758 0.47948 0.0
C416 C 0.10926 0.00385 0.54711 0.0
C417 C 0.12955 0.00974 0.44125 0.0
C418 C 0.1335 0.00232 0.57606 0.0
C419 C 0.15556 0.00404 0.53812 0.0
H420 H 0.51 0.15551 0.41216 0.0
H421 H 0.49545 0.10392 0.25038 0.0
H422 H 0.49732 0.06644 0.32324 0.0
H423 H 0.5045 0.04857 0.43271 0.0
H424 H 0.51689 0.10067 0.59495 0.0
H425 H 0.51443 0.13781 0.52221 0.0
C426 C 0.50721 0.13601 0.39305 0.0
C427 C 0.50287 0.13232 0.32616 0.0
C428 C 0.50799 0.11475 0.43524 0.0
C429 C 0.49884 0.10711 0.3018 0.0
C430 C 0.5 0.08576 0.34337 0.0
C431 C 0.50665 0.06806 0.4521 0.0
C432 C 0.51111 0.07185 0.51909 0.0
C433 C 0.50481 0.08936 0.41011 0.0
C434 C 0.51344 0.09722 0.54365 0.0
C435 C 0.5121 0.11847 0.50207 0.0
H436 H 0.33782 0.52109 0.47859 0.0
H437 H 0.37832 0.50503 0.30216 0.0
H438 H 0.41683 0.4968 0.36506 0.0
H439 H 0.43944 0.49566 0.4697 0.0
H440 H 0.39889 0.51089 0.64677 0.0
H441 H 0.36002 0.51792 0.58417 0.0
C442 C 0.3551 0.5158 0.45401 0.0
C443 C 0.35523 0.51377 0.38576 0.0
C444 C 0.37718 0.51099 0.49057 0.0
C445 C 0.37765 0.50653 0.35462 0.0
C446 C 0.39972 0.50196 0.39055 0.0
C447 C 0.4221 0.50045 0.49473 0.0
C448 C 0.42221 0.5029 0.56293 0.0
C449 C 0.39977 0.50433 0.45848 0.0
C450 C 0.39942 0.50885 0.59441 0.0
C451 C 0.37717 0.51296 0.5586 0.0
H452 H 0.08408 0.35997 0.37017 0.0
H453 H 0.01605 0.378 0.26262 0.0
H454 H 0.00553 0.40984 0.34461 0.0
H455 H 0.01415 0.43067 0.45024 0.0
H456 H 0.08379 0.41575 0.55338 0.0
H457 H 0.09536 0.38469 0.4693 0.0
C458 C 0.0673 0.37129 0.36358 0.0
C459 C 0.05067 0.36616 0.31061 0.0
C460 C 0.06147 0.38988 0.41062 0.0
C461 C 0.02889 0.38101 0.30358 0.0
C462 C 0.02285 0.39929 0.35043 0.0
C463 C 0.03184 0.42055 0.45418 0.0
C464 C 0.04789 0.42496 0.50827 0.0
C465 C 0.03865 0.4034 0.40491 0.0
C466 C 0.07108 0.41237 0.51229 0.0
C467 C 0.07768 0.3947 0.46426 0.0
H468 H 0.85687 0.01169 0.89383 0.0
H469 H 0.88403 0.95631 0.03179 0.0
H470 H 0.92324 0.95228 0.96844 0.0
H471 H 0.95007 0.9654 0.8742 0.0
H472 H 0.92279 0.02254 0.74061 0.0
H473 H 0.88315 0.02465 0.80123 0.0
C474 C 0.87125 0.9985 0.90967 0.0
C475 C 0.8675 0.98412 0.96695 0.0
C476 C 0.89367 0.99657 0.87362 0.0
C477 C 0.88655 0.9676 0.98781 0.0
C478 C 0.90888 0.96524 0.9515 0.0
C479 C 0.9353 0.97808 0.85815 0.0
C480 C 0.93931 0.99373 0.80289 0.0
C481 C 0.91268 0.9797 0.89432 0.0
C482 C 0.92019 0.01037 0.78309 0.0
C483 C 0.89752 0.01161 0.81771 0.0
H484 H 0.51397 0.84016 0.96466 0.0
H485 H 0.58081 0.87508 0.05748 0.0
H486 H 0.58298 0.9088 0.97364 0.0
H487 H 0.56444 0.92936 0.8764 0.0
H488 H 0.49675 0.89413 0.78731 0.0
H489 H 0.49632 0.85964 0.86759 0.0
C490 C 0.52888 0.8553 0.96708 0.0
C491 C 0.54695 0.85536 0.01785 0.0
C492 C 0.52986 0.87457 0.91929 0.0
C493 C 0.56663 0.87465 0.01898 0.0
C494 C 0.56782 0.89395 0.97117 0.0
C495 C 0.54976 0.91399 0.87422 0.0
C496 C 0.53059 0.91445 0.82594 0.0
C497 C 0.54938 0.89423 0.92133 0.0
C498 C 0.51164 0.89442 0.82406 0.0
C499 C 0.51134 0.87465 0.87 0.0
H500 H 0.67045 0.52062 0.94566 0.0
H501 H 0.65268 0.44324 0.01419 0.0
H502 H 0.61308 0.44171 0.95041 0.0
H503 H 0.58419 0.46192 0.8722 0.0
H504 H 0.60124 0.54006 0.80742 0.0
H505 H 0.64041 0.54171 0.87235 0.0
C506 C 0.65783 0.50347 0.94667 0.0
C507 C 0.66449 0.48204 0.98431 0.0
C508 C 0.63504 0.50282 0.91028 0.0
C509 C 0.64786 0.46005 0.98592 0.0
C510 C 0.62531 0.45911 0.94917 0.0
C511 C 0.59649 0.4793 0.8723 0.0
C512 C 0.58988 0.50075 0.83457 0.0
C513 C 0.61882 0.48029 0.91066 0.0
C514 C 0.60585 0.52327 0.83599 0.0
C515 C 0.62829 0.52423 0.87305 0.0
H516 H 0.97595 0.64533 0.94593 0.0
H517 H 0.03132 0.61437 0.07821 0.0
H518 H 0.03345 0.5757 0.01124 0.0
H519 H 0.02309 0.55259 0.90965 0.0
H520 H 0.97145 0.58575 0.77155 0.0
H521 H 0.96505 0.62198 0.84535 0.0
C522 C 0.98867 0.63028 0.96015 0.0
C523 C 0.00362 0.63314 0.01713 0.0
C524 C 0.99081 0.60858 0.91971 0.0
C525 C 0.01928 0.61282 0.03537 0.0
C526 C 0.02079 0.59073 0.99654 0.0
C527 C 0.01024 0.56761 0.89591 0.0
C528 C 0.99784 0.5665 0.83502 0.0
C529 C 0.00714 0.58871 0.93783 0.0
C530 C 0.98139 0.58623 0.81787 0.0
C531 C 0.97767 0.60692 0.86013 0.0
H532 H 0.01057 0.11518 0.31827 0.0
H533 H 0.9994 0.17109 0.46998 0.0
H534 H 0.98683 0.13624 0.5452 0.0
H535 H 0.98634 0.08995 0.57172 0.0
H536 H 0.99991 0.03419 0.42053 0.0
H537 H 0.00363 0.06891 0.34073 0.0
C538 C 0.00496 0.11967 0.36756 0.0
C539 C 0.0063 0.14545 0.38923 0.0
C540 C 0.99833 0.09959 0.41057 0.0
C541 C 0.99856 0.15128 0.45257 0.0
C542 C 0.99153 0.13138 0.49556 0.0
C543 C 0.98939 0.08529 0.52102 0.0
C544 C 0.99339 0.05957 0.50236 0.0
C545 C 0.99237 0.10543 0.47574 0.0
C546 C 0.99715 0.05387 0.43636 0.0
C547 C 0.99942 0.07372 0.39072 0.0
H548 H 0.41507 0.93927 0.3089 0.0
H549 H 0.35852 0.9325 0.46003 0.0
H550 H 0.39201 0.9269 0.54095 0.0
H551 H 0.43701 0.93394 0.57087 0.0
H552 H 0.49343 0.94592 0.42075 0.0
H553 H 0.46049 0.93922 0.33748 0.0
C554 C 0.41009 0.93608 0.35943 0.0
C555 C 0.38443 0.93694 0.37867 0.0
C556 C 0.42949 0.93424 0.40608 0.0
C557 C 0.37812 0.93202 0.4439 0.0
C558 C 0.39731 0.92911 0.49037 0.0
C559 C 0.44226 0.93431 0.51996 0.0
C560 C 0.46753 0.94101 0.50199 0.0
C561 C 0.42306 0.93167 0.47242 0.0
C562 C 0.47402 0.94123 0.43582 0.0
C563 C 0.45518 0.93752 0.38817 0.0
H564 H 0.55285 0.34801 0.43216 0.0
H565 H 0.52098 0.39051 0.27289 0.0
H566 H 0.52219 0.4299 0.3386 0.0
H567 H 0.5272 0.45064 0.44516 0.0
H568 H 0.55795 0.40776 0.60571 0.0
H569 H 0.56258 0.3703 0.5354 0.0
C570 C 0.54644 0.366 0.41178 0.0
C571 C 0.53659 0.36635 0.3482 0.0
C572 C 0.54684 0.38845 0.45012 0.0
C573 C 0.52874 0.38981 0.32173 0.0
C574 C 0.52926 0.41229 0.35939 0.0
C575 C 0.53531 0.43326 0.46461 0.0
C576 C 0.54177 0.4319 0.5309 0.0
C577 C 0.53754 0.41162 0.42424 0.0
C578 C 0.55259 0.40932 0.555 0.0
C579 C 0.55514 0.3878 0.51491 0.0
H580 H 0.13699 0.60069 0.4165 0.0
H581 H 0.11501 0.54022 0.2792 0.0
H582 H 0.07741 0.52929 0.3419 0.0
H583 H 0.05486 0.53114 0.44449 0.0
H584 H 0.07842 0.5873 0.58941 0.0
H585 H 0.11108 0.60566 0.51557 0.0
C586 C 0.1239 0.58526 0.40001 0.0
C587 C 0.12916 0.57141 0.34284 0.0
C588 C 0.10255 0.57811 0.43811 0.0
C589 C 0.11155 0.55175 0.32194 0.0
C590 C 0.09 0.54516 0.35829 0.0
C591 C 0.06655 0.54805 0.45869 0.0
C592 C 0.06425 0.55819 0.52132 0.0
C593 C 0.08585 0.55752 0.41745 0.0
C594 C 0.07971 0.57963 0.54058 0.0
C595 C 0.09856 0.58982 0.49874 0.0
H596 H 0.07244 0.88532 0.03759 0.0
H597 H 0.08893 0.83347 0.88017 0.0
H598 H 0.08898 0.86946 0.80351 0.0
H599 H 0.07697 0.91387 0.77913 0.0
H600 H 0.05962 0.96569 0.93519 0.0
H601 H 0.06779 0.93172 0.01505 0.0
C602 C 0.07689 0.88206 0.9869 0.0
C603 C 0.08019 0.85671 0.96432 0.0
C604 C 0.07647 0.90281 0.94289 0.0
C605 C 0.08582 0.85276 0.89842 0.0
C606 C 0.08583 0.8733 0.85458 0.0
C607 C 0.07587 0.91786 0.83081 0.0
C608 C 0.06789 0.94201 0.85185 0.0
C609 C 0.08006 0.89814 0.87587 0.0
C610 C 0.06608 0.94718 0.91849 0.0
C611 C 0.07051 0.92772 0.9639 0.0
H612 H 0.63192 0.06422 0.01079 0.0
H613 H 0.67806 0.08789 0.84682 0.0
H614 H 0.64071 0.08391 0.77545 0.0
H615 H 0.59754 0.0649 0.75689 0.0
H616 H 0.55213 0.03897 0.91955 0.0
H617 H 0.5863 0.0532 0.99481 0.0
C618 C 0.6336 0.06949 0.95995 0.0
C619 C 0.65778 0.0759 0.93383 0.0
C620 C 0.61219 0.06643 0.91894 0.0
C621 C 0.6597 0.0825 0.86774 0.0
C622 C 0.63838 0.08014 0.82691 0.0
C623 C 0.59485 0.06342 0.80903 0.0
C624 C 0.57252 0.05119 0.8332 0.0
C625 C 0.61488 0.07081 0.85144 0.0
C626 C 0.56915 0.04873 0.90043 0.0
C627 C 0.58877 0.05659 0.94323 0.0
H628 H 0.464 0.61302 0.05267 0.0
H629 H 0.47937 0.67223 0.90907 0.0
H630 H 0.47724 0.63971 0.82292 0.0
H631 H 0.47829 0.59402 0.79144 0.0
H632 H 0.4628 0.53439 0.93351 0.0
H633 H 0.4574 0.56744 0.01756 0.0
C634 C 0.46624 0.61877 0.00228 0.0
C635 C 0.47212 0.64485 0.98709 0.0
C636 C 0.46531 0.5999 0.9531 0.0
C637 C 0.47474 0.65226 0.92178 0.0
C638 C 0.47377 0.63366 0.87261 0.0
C639 C 0.47311 0.58837 0.84055 0.0
C640 C 0.47124 0.56203 0.85698 0.0
C641 C 0.47016 0.60737 0.88812 0.0
C642 C 0.46428 0.55467 0.9202 0.0
C643 C 0.4614 0.57353 0.96816 0.0
H644 H 0.8797 0.40652 0.88881 0.0
H645 H 0.91475 0.43777 0.06372 0.0
H646 H 0.95587 0.44183 0.00941 0.0
H647 H 0.97965 0.44408 0.90743 0.0
H648 H 0.94436 0.41422 0.73112 0.0
H649 H 0.90592 0.40155 0.791 0.0
C650 C 0.89649 0.4137 0.91527 0.0
C651 C 0.8941 0.42217 0.97981 0.0
C652 C 0.92003 0.41651 0.88332 0.0
C653 C 0.91605 0.43105 0.01402 0.0
C654 C 0.93957 0.4336 0.98282 0.0
C655 C 0.96382 0.43421 0.88232 0.0
C656 C 0.9647 0.43077 0.81457 0.0
C657 C 0.94149 0.42751 0.91671 0.0
C658 C 0.94416 0.41747 0.78312 0.0
C659 C 0.92203 0.41036 0.81725 0.0
H660 H 0.04722 0.16592 0.91494 0.0
H661 H 0.12829 0.15509 0.90753 0.0
H662 H 0.12061 0.11419 0.84874 0.0
H663 H 0.0904 0.08064 0.80307 0.0
H664 H 0.00939 0.09262 0.81286 0.0
H665 H 0.01762 0.13392 0.86677 0.0
C666 C 0.06331 0.15501 0.89908 0.0
C667 C 0.08831 0.16375 0.91504 0.0
C668 C 0.05874 0.13147 0.86638 0.0
C669 C 0.10884 0.14884 0.89577 0.0
C670 C 0.10445 0.12541 0.86235 0.0
C671 C 0.07458 0.09227 0.81715 0.0
C672 C 0.04931 0.08336 0.80396 0.0
C673 C 0.07941 0.11632 0.84824 0.0
C674 C 0.02904 0.09885 0.82221 0.0
C675 C 0.0337 0.12258 0.85305 0.0
H676 H 0.35529 0.99656 0.89932 0.0
H677 H 0.36923 0.07898 0.92031 0.0
H678 H 0.40791 0.07656 0.8547 0.0
H679 H 0.43943 0.0502 0.7979 0.0
H680 H 0.42432 0.96767 0.77922 0.0
H681 H 0.38436 0.97118 0.8366 0.0
C682 C 0.36629 0.01419 0.88812 0.0
C683 C 0.35923 0.03793 0.91469 0.0
C684 C 0.38858 0.0126 0.85131 0.0
C685 C 0.37426 0.0604 0.90082 0.0
C686 C 0.39642 0.05902 0.86339 0.0
C687 C 0.42732 0.03303 0.80605 0.0
C688 C 0.43518 0.00869 0.78465 0.0
C689 C 0.40411 0.03508 0.8396 0.0
C690 C 0.41906 0.98667 0.79541 0.0
C691 C 0.39607 0.98861 0.82823 0.0
H692 H 0.44901 0.34513 0.9558 0.0
H693 H 0.48773 0.30389 0.80517 0.0
H694 H 0.49383 0.34399 0.7439 0.0
H695 H 0.49223 0.3914 0.73887 0.0
H696 H 0.45141 0.43235 0.88542 0.0
H697 H 0.44149 0.39144 0.942 0.0
C698 C 0.45806 0.34458 0.90864 0.0
C699 C 0.46832 0.3214 0.88597 0.0
C700 C 0.46135 0.36772 0.87328 0.0
C701 C 0.48022 0.32145 0.82484 0.0
C702 C 0.48367 0.34439 0.7896 0.0
C703 C 0.4809 0.39128 0.78283 0.0
C704 C 0.47289 0.41478 0.80873 0.0
C705 C 0.47508 0.36775 0.81444 0.0
C706 C 0.45782 0.41444 0.86487 0.0
C707 C 0.45226 0.3911 0.89724 0.0
H708 H 0.16916 0.48922 0.97836 0.0
H709 H 0.21022 0.52321 0.8167 0.0
H710 H 0.17289 0.51523 0.74615 0.0
H711 H 0.12756 0.5019 0.73324 0.0
H712 H 0.08589 0.47058 0.89755 0.0
H713 H 0.12459 0.47396 0.96417 0.0
C714 C 0.17013 0.49431 0.92728 0.0
C715 C 0.19248 0.50657 0.90253 0.0
C716 C 0.1484 0.49038 0.88776 0.0
C717 C 0.19325 0.51369 0.8367 0.0
C718 C 0.1719 0.50919 0.79652 0.0
C719 C 0.12699 0.49547 0.78338 0.0
C720 C 0.10378 0.48605 0.81036 0.0
C721 C 0.14919 0.49806 0.8219 0.0
C722 C 0.10342 0.47803 0.8756 0.0
C723 C 0.12555 0.47995 0.91376 0.0
H724 H 0.98537 0.85166 0.37873 0.0
H725 H 0.00929 0.80351 0.53686 0.0
H726 H 0.00976 0.84086 0.61055 0.0
H727 H 0.00754 0.88818 0.62668 0.0
H728 H 0.98684 0.93618 0.46485 0.0
H729 H 0.98053 0.89793 0.3962 0.0
C730 C 0.99004 0.84919 0.42972 0.0
C731 C 0.99713 0.82486 0.45247 0.0
C732 C 0.99106 0.87083 0.47097 0.0
C733 C 0.00377 0.82209 0.5183 0.0
C734 C 0.00409 0.84344 0.56031 0.0
C735 C 0.00119 0.89014 0.57674 0.0
C736 C 0.99773 0.91495 0.55077 0.0
C737 C 0.9984 0.86806 0.53677 0.0
C738 C 0.9898 0.9173 0.48577 0.0
C739 C 0.9862 0.89544 0.44648 0.0
H740 H 0.69418 0.9875 0.47627 0.0
H741 H 0.65388 0.95814 0.30657 0.0
H742 H 0.61454 0.95331 0.36887 0.0
H743 H 0.59061 0.96178 0.46825 0.0
H744 H 0.63069 0.99024 0.63917 0.0
H745 H 0.67105 0.99094 0.58002 0.0
C746 C 0.67684 0.97966 0.45339 0.0
C747 C 0.67691 0.97328 0.38691 0.0
C748 C 0.6542 0.97703 0.4895 0.0
C749 C 0.6544 0.96295 0.35783 0.0
C750 C 0.63182 0.96041 0.39326 0.0
C751 C 0.60824 0.96785 0.49273 0.0
C752 C 0.60764 0.97626 0.55765 0.0
C753 C 0.63135 0.96805 0.45859 0.0
C754 C 0.63065 0.98369 0.58914 0.0
C755 C 0.65372 0.98421 0.55526 0.0
H756 H 0.56046 0.63828 0.38421 0.0
H757 H 0.56213 0.68685 0.55479 0.0
H758 H 0.55507 0.64859 0.62373 0.0
H759 H 0.54504 0.60181 0.63406 0.0
H760 H 0.54092 0.55402 0.46172 0.0
H761 H 0.5526 0.59154 0.39483 0.0
C762 C 0.55992 0.64044 0.43662 0.0
C763 C 0.56206 0.6653 0.46453 0.0
C764 C 0.55514 0.61853 0.47545 0.0
C765 C 0.5606 0.66788 0.53234 0.0
C766 C 0.55649 0.64604 0.57161 0.0
C767 C 0.547 0.59953 0.58195 0.0
C768 C 0.542 0.57512 0.55294 0.0
C769 C 0.5532 0.62133 0.54354 0.0
C770 C 0.54447 0.57258 0.48529 0.0
C771 C 0.55118 0.59403 0.44698 0.0
H772 H 0.8561 0.47687 0.42961 0.0
H773 H 0.86185 0.55951 0.40066 0.0
H774 H 0.90018 0.56233 0.46952 0.0
H775 H 0.93379 0.54056 0.53226 0.0
H776 H 0.9271 0.45756 0.55759 0.0
H777 H 0.88737 0.45584 0.49666 0.0
C778 C 0.86526 0.49565 0.43964 0.0
C779 C 0.85596 0.51794 0.41018 0.0
C780 C 0.88741 0.49705 0.4782 0.0
C781 C 0.86863 0.542 0.42252 0.0
C782 C 0.89058 0.54361 0.46182 0.0
C783 C 0.92354 0.52216 0.52481 0.0
C784 C 0.93373 0.49923 0.54913 0.0
C785 C 0.90048 0.52115 0.48891 0.0
C786 C 0.92004 0.47555 0.53904 0.0
C787 C 0.89718 0.47448 0.50422 0.0
loop_
_geom_bond_atom_site_label_1
_geom_bond_atom_site_label_2
_geom_bond_distance
_geom_bond_site_symmetry_2
_ccdc_geom_bond_type
C0 C1 1.386 . S
C0 C2 1.397 . S
C0 H24 0.931 . S
C1 C0 1.386 . S
C1 C5 1.397 . S
C2 C0 1.397 . S
C2 C3 1.384 . S
C2 H25 0.930 . S
C3 C2 1.384 . S
C3 C4 1.377 . S
C3 C6 1.481 . S
C4 C3 1.377 . S
C4 C5 1.389 . S
C4 H26 0.929 . S
C5 C1 1.397 . S
C5 C4 1.389 . S
C5 H27 0.931 . S
C6 C3 1.481 . S
C6 C7 1.387 . S
C6 C11 1.390 1_556 S
C7 C6 1.387 . S
C7 C8 1.401 1_556 S
C7 H28 0.930 . S
C8 C7 1.401 1_554 S
C8 C9 1.376 . S
C8 C17 1.511 . S
C9 C8 1.376 . S
C9 C10 1.392 . S
C9 H30 0.931 . S
C10 C9 1.392 . S
C10 C11 1.361 . S
C10 C12 1.500 . S
C11 C6 1.390 1_554 S
C11 C10 1.361 . S
C11 H29 0.931 . S
C12 C10 1.500 . S
C12 C13 1.371 . S
C12 C14 1.365 . S
C13 C12 1.371 . S
C13 C23 1.386 . S
C13 H31 0.931 . S
C14 C12 1.365 . S
C14 C15 1.409 . S
C14 H32 0.929 . S
C15 C14 1.409 . S
C15 C16 1.380 . S
C15 H33 0.930 . S
C16 C15 1.380 . S
C16 C23 1.357 . S
C17 C8 1.511 . S
C17 C18 1.341 1_554 S
C17 C19 1.371 . S
C18 C17 1.341 1_556 S
C18 C22 1.394 . S
C18 H34 0.930 . S
C19 C17 1.371 . S
C19 C20 1.392 . S
C19 H35 0.931 . S
C20 C19 1.392 . S
C20 C21 1.331 1_554 S
C20 H38 0.932 . S
C21 C20 1.331 1_556 S
C21 C22 1.336 . S
C22 C18 1.394 . S
C22 C21 1.336 . S
C22 H37 0.929 . S
C23 C13 1.386 . S
C23 C16 1.357 . S
C23 H36 0.928 . S
H24 C0 0.931 . S
H25 C2 0.930 . S
H26 C4 0.929 . S
H27 C5 0.931 . S
H28 C7 0.930 . S
H29 C11 0.931 . S
H30 C9 0.931 . S
H31 C13 0.931 . S
H32 C14 0.929 . S
H33 C15 0.930 . S
H34 C18 0.930 . S
H35 C19 0.931 . S
H36 C23 0.928 . S
H37 C22 0.929 . S
H38 C20 0.932 . S
C39 C40 1.386 . S
C39 C41 1.397 . S
C39 H63 0.931 . S
C40 C39 1.386 . S
C40 C44 1.397 1_655 S
C41 C39 1.397 . S
C41 C42 1.384 1_556 S
C41 H64 0.930 . S
C42 C41 1.384 1_554 S
C42 C43 1.377 1_655 S
C42 C45 1.481 . S
C43 C42 1.377 1_455 S
C43 C44 1.389 1_554 S
C43 H65 0.929 . S
C44 C40 1.397 1_455 S
C44 C43 1.389 1_556 S
C44 H66 0.931 . S
C45 C42 1.481 . S
C45 C46 1.387 . S
C45 C50 1.390 . S
C46 C45 1.387 . S
C46 C47 1.401 . S
C46 H67 0.930 1_554 S
C47 C46 1.401 . S
C47 C48 1.376 . S
C47 C56 1.511 . S
C48 C47 1.376 . S
C48 C49 1.392 . S
C48 H69 0.931 . S
C49 C48 1.392 . S
C49 C50 1.361 . S
C49 C51 1.500 . S
C50 C45 1.390 . S
C50 C49 1.361 . S
C50 H68 0.931 . S
C51 C49 1.500 . S
C51 C52 1.371 . S
C51 C53 1.365 1_655 S
C52 C51 1.371 . S
C52 C62 1.386 . S
C52 H70 0.931 . S
C53 C51 1.365 1_455 S
C53 C54 1.409 . S
C53 H71 0.929 . S
C54 C53 1.409 . S
C54 C55 1.380 1_455 S
C54 H72 0.930 . S
C55 C54 1.380 1_655 S
C55 C62 1.357 . S
C56 C47 1.511 . S
C56 C57 1.341 . S
C56 C58 1.371 . S
C57 C56 1.341 . S
C57 C61 1.394 1_554 S
C57 H73 0.930 1_554 S
C58 C56 1.371 . S
C58 C59 1.392 . S
C58 H74 0.924 1_655 S
C59 C58 1.392 . S
C59 C60 1.331 . S
C59 H77 0.922 1_655 S
C60 C59 1.331 . S
C60 C61 1.336 1_554 S
C61 C57 1.394 1_556 S
C61 C60 1.336 1_556 S
C61 H76 0.929 . S
C62 C52 1.386 . S
C62 C55 1.357 . S
C62 H75 0.928 . S
H63 C39 0.931 . S
H64 C41 0.930 . S
H65 C43 0.929 . S
H66 C44 0.931 . S
H67 C46 0.930 1_556 S
H68 C50 0.931 . S
H69 C48 0.931 . S
H70 C52 0.931 . S
H71 C53 0.929 . S
H72 C54 0.930 . S
H73 C57 0.930 1_556 S
H74 C58 0.924 1_455 S
H75 C62 0.928 . S
H76 C61 0.929 . S
H77 C59 0.922 1_455 S
C78 C79 1.388 . S
C78 C80 1.397 . S
C78 H102 0.931 . S
C79 C78 1.388 . S
C79 C83 1.396 1_565 S
C80 C78 1.397 . S
C80 C81 1.385 . S
C80 H103 0.930 . S
C81 C80 1.385 . S
C81 C82 1.376 1_565 S
C81 C84 1.479 1_556 S
C82 C81 1.376 1_545 S
C82 C83 1.389 . S
C82 H104 0.929 1_556 S
C83 C79 1.396 1_545 S
C83 C82 1.389 . S
C83 H105 0.931 . S
C84 C81 1.479 1_554 S
C84 C85 1.390 . S
C84 C89 1.390 . S
C85 C84 1.390 . S
C85 C86 1.401 . S
C85 H106 0.930 1_554 S
C86 C85 1.401 . S
C86 C87 1.377 . S
C86 C95 1.515 . S
C87 C86 1.377 . S
C87 C88 1.392 . S
C87 H108 0.931 . S
C88 C87 1.392 . S
C88 C89 1.361 . S
C88 C90 1.499 1_565 S
C89 C84 1.390 . S
C89 C88 1.361 . S
C89 H107 0.931 . S
C90 C88 1.499 1_545 S
C90 C91 1.360 1_545 S
C90 C92 1.377 . S
C91 C90 1.360 1_565 S
C91 C101 1.386 . S
C91 H109 0.931 . S
C92 C90 1.377 . S
C92 C93 1.409 . S
C92 H110 0.929 . S
C93 C92 1.409 . S
C93 C94 1.382 . S
C93 H111 0.930 . S
C94 C93 1.382 . S
C94 C101 1.355 1_545 S
C95 C86 1.515 . S
C95 C96 1.341 1_554 S
C95 C97 1.371 1_565 S
C96 C95 1.341 1_556 S
C96 C100 1.394 . S
C96 H112 0.930 . S
C97 C95 1.371 1_545 S
C97 C98 1.392 . S
C97 H113 0.931 . S
C98 C97 1.392 . S
C98 C99 1.331 1_545 S
C98 H116 0.932 . S
C99 C98 1.331 1_565 S
C99 C100 1.336 1_554 S
C100 C96 1.394 . S
C100 C99 1.336 1_556 S
C100 H115 0.929 . S
C101 C91 1.386 . S
C101 C94 1.355 1_565 S
C101 H114 0.928 . S
H102 C78 0.931 . S
H103 C80 0.930 . S
H104 C82 0.929 1_554 S
H105 C83 0.931 . S
H106 C85 0.930 1_556 S
H107 C89 0.931 . S
H108 C87 0.931 . S
H109 C91 0.931 . S
H110 C92 0.929 . S
H111 C93 0.930 . S
H112 C96 0.930 . S
H113 C97 0.931 . S
H114 C101 0.928 . S
H115 C100 0.929 . S
H116 C98 0.932 . S
C117 C118 1.386 . S
C117 C119 1.397 . S
C117 H141 0.931 . S
C118 C117 1.386 . S
C118 C122 1.397 . S
C119 C117 1.397 . S
C119 C120 1.384 . S
C119 H142 0.930 . S
C120 C119 1.384 . S
C120 C121 1.377 . S
C120 C123 1.481 . S
C121 C120 1.377 . S
C121 C122 1.389 . S
C121 H143 0.929 . S
C122 C118 1.397 . S
C122 C121 1.389 . S
C122 H144 0.931 . S
C123 C120 1.481 . S
C123 C124 1.387 . S
C123 C128 1.390 . S
C124 C123 1.387 . S
C124 C125 1.401 . S
C124 H145 0.930 . S
C125 C124 1.401 . S
C125 C126 1.376 1_554 S
C125 C134 1.511 . S
C126 C125 1.376 1_556 S
C126 C127 1.392 1_556 S
C126 H147 0.931 . S
C127 C126 1.392 1_554 S
C127 C128 1.361 . S
C127 C129 1.500 1_554 S
C128 C123 1.390 . S
C128 C127 1.361 . S
C128 H146 0.931 . S
C129 C127 1.500 1_556 S
C129 C130 1.371 . S
C129 C131 1.365 . S
C130 C129 1.371 . S
C130 C140 1.386 . S
C130 H148 0.931 . S
C131 C129 1.365 . S
C131 C132 1.409 . S
C131 H149 0.929 . S
C132 C131 1.409 . S
C132 C133 1.380 . S
C132 H150 0.930 . S
C133 C132 1.380 . S
C133 C140 1.357 . S
C134 C125 1.511 . S
C134 C135 1.341 . S
C134 C136 1.371 1_554 S
C135 C134 1.341 . S
C135 C139 1.394 . S
C135 H151 0.930 . S
C136 C134 1.371 1_556 S
C136 C137 1.392 . S
C136 H152 0.931 . S
C137 C136 1.392 . S
C137 C138 1.331 . S
C137 H155 0.932 . S
C138 C137 1.331 . S
C138 C139 1.336 1_556 S
C139 C135 1.394 . S
C139 C138 1.336 1_554 S
C139 H154 0.929 . S
C140 C130 1.386 . S
C140 C133 1.357 . S
C140 H153 0.928 . S
H141 C117 0.931 . S
H142 C119 0.930 . S
H143 C121 0.929 . S
H144 C122 0.931 . S
H145 C124 0.930 . S
H146 C128 0.931 . S
H147 C126 0.931 . S
H148 C130 0.931 . S
H149 C131 0.929 . S
H150 C132 0.930 . S
H151 C135 0.930 . S
H152 C136 0.931 . S
H153 C140 0.928 . S
H154 C139 0.929 . S
H155 C137 0.932 . S
C156 C157 1.386 . S
C156 C158 1.397 . S
C156 H180 0.931 . S
C157 C156 1.386 . S
C157 C161 1.397 . S
C158 C156 1.397 . S
C158 C159 1.384 . S
C158 H181 0.930 . S
C159 C158 1.384 . S
C159 C160 1.377 . S
C159 C162 1.481 . S
C160 C159 1.377 . S
C160 C161 1.389 . S
C160 H182 0.929 . S
C161 C157 1.397 . S
C161 C160 1.389 . S
C161 H183 0.931 . S
C162 C159 1.481 . S
C162 C163 1.387 . S
C162 C167 1.390 . S
C163 C162 1.387 . S
C163 C164 1.401 . S
C163 H184 0.930 . S
C164 C163 1.401 . S
C164 C165 1.376 . S
C164 C173 1.511 . S
C165 C164 1.376 . S
C165 C166 1.392 . S
C165 H186 0.931 . S
C166 C165 1.392 . S
C166 C167 1.361 . S
C166 C168 1.500 . S
C167 C162 1.390 . S
C167 C166 1.361 . S
C167 H185 0.931 . S
C168 C166 1.500 . S
C168 C169 1.371 . S
C168 C170 1.365 . S
C169 C168 1.371 . S
C169 C179 1.386 . S
C169 H187 0.931 . S
C170 C168 1.365 . S
C170 C171 1.409 . S
C170 H188 0.929 . S
C171 C170 1.409 . S
C171 C172 1.380 1_554 S
C171 H189 0.930 . S
C172 C171 1.380 1_556 S
C172 C179 1.357 1_556 S
C173 C164 1.511 . S
C173 C174 1.341 . S
C173 C175 1.371 . S
C174 C173 1.341 . S
C174 C178 1.394 . S
C174 H190 0.930 . S
C175 C173 1.371 . S
C175 C176 1.392 . S
C175 H191 0.931 . S
C176 C175 1.392 . S
C176 C177 1.331 . S
C176 H194 0.932 . S
C177 C176 1.331 . S
C177 C178 1.336 . S
C178 C174 1.394 . S
C178 C177 1.336 . S
C178 H193 0.929 . S
C179 C169 1.386 . S
C179 C172 1.357 1_554 S
C179 H192 0.928 1_554 S
H180 C156 0.931 . S
H181 C158 0.930 . S
H182 C160 0.929 . S
H183 C161 0.931 . S
H184 C163 0.930 . S
H185 C167 0.931 . S
H186 C165 0.931 . S
H187 C169 0.931 . S
H188 C170 0.929 . S
H189 C171 0.930 . S
H190 C174 0.930 . S
H191 C175 0.931 . S
H192 C179 0.928 1_556 S
H193 C178 0.929 . S
H194 C176 0.932 . S
C195 C196 1.386 . S
C195 C197 1.397 . S
C195 H219 0.931 . S
C196 C195 1.386 . S
C196 C200 1.397 . S
C197 C195 1.397 . S
C197 C198 1.384 . S
C197 H220 0.930 . S
C198 C197 1.384 . S
C198 C199 1.377 . S
C198 C201 1.481 . S
C199 C198 1.377 . S
C199 C200 1.389 . S
C199 H221 0.929 . S
C200 C196 1.397 . S
C200 C199 1.389 . S
C200 H222 0.931 . S
C201 C198 1.481 . S
C201 C202 1.387 . S
C201 C206 1.390 . S
C202 C201 1.387 . S
C202 C203 1.401 . S
C202 H223 0.930 . S
C203 C202 1.401 . S
C203 C204 1.376 . S
C203 C212 1.511 . S
C204 C203 1.376 . S
C204 C205 1.392 . S
C204 H225 0.931 . S
C205 C204 1.392 . S
C205 C206 1.361 . S
C205 C207 1.500 . S
C206 C201 1.390 . S
C206 C205 1.361 . S
C206 H224 0.931 . S
C207 C205 1.500 . S
C207 C208 1.371 . S
C207 C209 1.365 . S
C208 C207 1.371 . S
C208 C218 1.386 . S
C208 H226 0.931 . S
C209 C207 1.365 . S
C209 C210 1.409 . S
C209 H227 0.929 . S
C210 C209 1.409 . S
C210 C211 1.380 . S
C210 H228 0.930 . S
C211 C210 1.380 . S
C211 C218 1.357 . S
C212 C203 1.511 . S
C212 C213 1.341 . S
C212 C214 1.371 . S
C213 C212 1.341 . S
C213 C217 1.394 . S
C213 H229 0.930 . S
C214 C212 1.371 . S
C214 C215 1.392 . S
C214 H230 0.931 . S
C215 C214 1.392 . S
C215 C216 1.331 . S
C215 H233 0.932 . S
C216 C215 1.331 . S
C216 C217 1.336 . S
C217 C213 1.394 . S
C217 C216 1.336 . S
C217 H232 0.929 . S
C218 C208 1.386 . S
C218 C211 1.357 . S
C218 H231 0.928 . S
H219 C195 0.931 . S
H220 C197 0.930 . S
H221 C199 0.929 . S
H222 C200 0.931 . S
H223 C202 0.930 . S
H224 C206 0.931 . S
H225 C204 0.931 . S
H226 C208 0.931 . S
H227 C209 0.929 . S
H228 C210 0.930 . S
H229 C213 0.930 . S
H230 C214 0.931 . S
H231 C218 0.928 . S
H232 C217 0.929 . S
H233 C215 0.932 . S
C234 C235 1.387 1_565 S
C234 C236 1.397 . S
C234 H258 0.931 . S
C235 C234 1.387 1_545 S
C235 C239 1.396 . S
C236 C234 1.397 . S
C236 C237 1.385 1_565 S
C236 H259 0.930 . S
C237 C236 1.385 1_545 S
C237 C238 1.376 . S
C237 C240 1.481 1_545 S
C238 C237 1.376 . S
C238 C239 1.389 . S
C238 H260 0.929 . S
C239 C235 1.396 . S
C239 C238 1.389 . S
C239 H261 0.931 . S
C240 C237 1.481 1_565 S
C240 C241 1.387 . S
C240 C245 1.390 . S
C241 C240 1.387 . S
C241 C242 1.403 . S
C241 H262 0.930 . S
C242 C241 1.403 . S
C242 C243 1.376 . S
C242 C251 1.511 . S
C243 C242 1.376 . S
C243 C244 1.393 1_565 S
C243 H264 0.933 . S
C244 C243 1.393 1_545 S
C244 C245 1.361 1_545 S
C244 C246 1.499 . S
C245 C240 1.390 . S
C245 C244 1.361 1_565 S
C245 H263 0.931 1_565 S
C246 C244 1.499 . S
C246 C247 1.357 1_545 S
C246 C248 1.380 . S
C247 C246 1.357 1_565 S
C247 C257 1.386 . S
C247 H265 0.931 . S
C248 C246 1.380 . S
C248 C249 1.409 . S
C248 H266 0.929 . S
C249 C248 1.409 . S
C249 C250 1.386 . S
C249 H267 0.930 . S
C250 C249 1.386 . S
C250 C257 1.352 1_545 S
C251 C242 1.511 . S
C251 C252 1.341 . S
C251 C253 1.371 1_565 S
C252 C251 1.341 . S
C252 C256 1.394 . S
C252 H268 0.930 . S
C253 C251 1.371 1_545 S
C253 C254 1.392 . S
C253 H269 0.931 . S
C254 C253 1.392 . S
C254 C255 1.321 1_545 S
C254 H272 0.932 . S
C255 C254 1.321 1_565 S
C255 C256 1.349 . S
C256 C252 1.394 . S
C256 C255 1.349 . S
C256 H271 0.929 . S
C257 C247 1.386 . S
C257 C250 1.352 1_565 S
C257 H270 0.928 . S
H258 C234 0.931 . S
H259 C236 0.930 . S
H260 C238 0.929 . S
H261 C239 0.931 . S
H262 C241 0.930 . S
H263 C245 0.931 1_545 S
H264 C243 0.933 . S
H265 C247 0.931 . S
H266 C248 0.929 . S
H267 C249 0.930 . S
H268 C252 0.930 . S
H269 C253 0.931 . S
H270 C257 0.928 . S
H271 C256 0.929 . S
H272 C254 0.932 . S
C273 C274 1.386 1_554 S
C273 C275 1.397 . S
C273 H297 0.931 1_554 S
C274 C273 1.386 1_556 S
C274 C278 1.397 1_556 S
C275 C273 1.397 . S
C275 C276 1.384 . S
C275 H298 0.930 . S
C276 C275 1.384 . S
C276 C277 1.377 . S
C276 C279 1.481 . S
C277 C276 1.377 . S
C277 C278 1.389 . S
C277 H299 0.929 . S
C278 C274 1.397 1_554 S
C278 C277 1.389 . S
C278 H300 0.931 . S
C279 C276 1.481 . S
C279 C280 1.387 . S
C279 C284 1.390 . S
C280 C279 1.387 . S
C280 C281 1.401 . S
C280 H301 0.930 . S
C281 C280 1.401 . S
C281 C282 1.376 . S
C281 C290 1.511 . S
C282 C281 1.376 . S
C282 C283 1.392 . S
C282 H303 0.931 . S
C283 C282 1.392 . S
C283 C284 1.361 . S
C283 C285 1.500 . S
C284 C279 1.390 . S
C284 C283 1.361 . S
C284 H302 0.931 . S
C285 C283 1.500 . S
C285 C286 1.371 . S
C285 C287 1.365 . S
C286 C285 1.371 . S
C286 C296 1.386 . S
C286 H304 0.931 . S
C287 C285 1.365 . S
C287 C288 1.409 . S
C287 H305 0.929 . S
C288 C287 1.409 . S
C288 C289 1.380 . S
C288 H306 0.930 . S
C289 C288 1.380 . S
C289 C296 1.357 . S
C290 C281 1.511 . S
C290 C291 1.341 . S
C290 C292 1.371 . S
C291 C290 1.341 . S
C291 C295 1.394 . S
C291 H307 0.930 . S
C292 C290 1.371 . S
C292 C293 1.392 . S
C292 H308 0.931 . S
C293 C292 1.392 . S
C293 C294 1.331 . S
C293 H311 0.932 . S
C294 C293 1.331 . S
C294 C295 1.336 . S
C295 C291 1.394 . S
C295 C294 1.336 . S
C295 H310 0.929 . S
C296 C286 1.386 . S
C296 C289 1.357 . S
C296 H309 0.928 . S
H297 C273 0.931 1_556 S
H298 C275 0.930 . S
H299 C277 0.929 . S
H300 C278 0.931 . S
H301 C280 0.930 . S
H302 C284 0.931 . S
H303 C282 0.931 . S
H304 C286 0.931 . S
H305 C287 0.929 . S
H306 C288 0.930 . S
H307 C291 0.930 . S
H308 C292 0.931 . S
H309 C296 0.928 . S
H310 C295 0.929 . S
H311 C293 0.932 . S
O312 Zn313 1.953 . S
O312 C328 1.233 . S
Zn313 O312 1.953 . S
Zn313 O314 1.950 . S
Zn313 O320 1.919 1_565 S
Zn313 O325 1.924 . S
O314 Zn313 1.950 . S
O314 Zn315 1.901 1_565 S
O314 Zn316 1.953 . S
O314 Zn317 1.963 . S
Zn315 O314 1.901 1_545 S
Zn315 O318 1.933 1_455 S
Zn315 O321 1.941 . S
Zn315 O322 1.965 . S
Zn316 O314 1.953 . S
Zn316 O323 1.938 1_565 S
Zn316 O324 1.906 . S
Zn316 O334 1.953 . S
Zn317 O314 1.963 . S
Zn317 O319 1.932 1_455 S
Zn317 O326 1.979 . S
Zn317 O327 1.910 . S
O318 Zn315 1.933 1_655 S
O318 C329 1.226 . S
O319 Zn317 1.932 1_655 S
O319 C329 1.307 1_565 S
O320 Zn313 1.919 1_545 S
O320 C331 1.253 . S
O321 Zn315 1.941 . S
O321 C331 1.283 . S
O322 Zn315 1.965 . S
O322 C330 1.303 . S
O323 Zn316 1.938 1_545 S
O323 C330 1.247 . S
O324 Zn316 1.906 . S
O324 C332 1.304 . S
O325 Zn313 1.924 . S
O325 C333 1.311 . S
O326 Zn317 1.979 . S
O326 C332 1.274 . S
O327 Zn317 1.910 . S
O327 C333 1.231 . S
C328 O312 1.233 . S
C328 O334 1.298 . S
C329 O318 1.226 . S
C329 O319 1.307 1_545 S
C330 O322 1.303 . S
C330 O323 1.247 . S
C331 O320 1.253 . S
C331 O321 1.283 . S
C332 O324 1.304 . S
C332 O326 1.274 . S
C333 O325 1.311 . S
C333 O327 1.231 . S
O334 Zn316 1.953 . S
O334 C328 1.298 . S
O335 Zn336 1.953 . S
O335 C351 1.225 . S
Zn336 O335 1.953 . S
Zn336 O337 1.949 . S
Zn336 O343 1.919 . S
Zn336 O348 1.924 . S
O337 Zn336 1.949 . S
O337 Zn338 1.923 1_545 S
O337 Zn339 1.950 . S
O337 Zn340 1.945 1_545 S
Zn338 O337 1.923 1_565 S
Zn338 O341 1.933 . S
Zn338 O344 1.941 . S
Zn338 O345 1.965 . S
Zn339 O337 1.950 . S
Zn339 O346 1.938 . S
Zn339 O347 1.886 1_545 S
Zn339 O357 1.953 . S
Zn340 O337 1.945 1_565 S
Zn340 O342 1.932 . S
Zn340 O349 1.977 . S
Zn340 O350 1.910 1_565 S
O341 Zn338 1.933 . S
O341 C352 1.226 . S
O342 Zn340 1.932 . S
O342 C352 1.307 . S
O343 Zn336 1.919 . S
O343 C354 1.253 . S
O344 Zn338 1.941 . S
O344 C354 1.283 1_565 S
O345 Zn338 1.965 . S
O345 C353 1.303 . S
O346 Zn339 1.938 . S
O346 C353 1.247 1_545 S
O347 Zn339 1.886 1_565 S
O347 C355 1.333 . S
O348 Zn336 1.924 . S
O348 C356 1.311 . S
O349 Zn340 1.977 . S
O349 C355 1.272 . S
O350 Zn340 1.910 1_545 S
O350 C356 1.231 . S
C351 O335 1.225 . S
C351 O357 1.298 . S
C352 O341 1.226 . S
C352 O342 1.307 . S
C353 O345 1.303 . S
C353 O346 1.247 1_565 S
C354 O343 1.253 . S
C354 O344 1.283 1_545 S
C355 O347 1.333 . S
C355 O349 1.272 . S
C356 O348 1.311 . S
C356 O350 1.231 . S
O357 Zn339 1.953 . S
O357 C351 1.298 . S
O358 Zn359 1.953 . S
O358 C374 1.225 . S
Zn359 O358 1.953 . S
Zn359 O360 1.949 . S
Zn359 O366 1.919 . S
Zn359 O371 1.924 . S
O360 Zn359 1.949 . S
O360 Zn361 1.923 . S
O360 Zn362 1.950 . S
O360 Zn363 1.945 . S
Zn361 O360 1.923 . S
Zn361 O364 1.933 . S
Zn361 O367 1.941 . S
Zn361 O368 1.965 . S
Zn362 O360 1.950 . S
Zn362 O369 1.938 . S
Zn362 O370 1.906 . S
Zn362 O380 1.953 . S
Zn363 O360 1.945 . S
Zn363 O365 1.932 . S
Zn363 O372 1.977 . S
Zn363 O373 1.910 . S
O364 Zn361 1.933 . S
O364 C375 1.226 . S
O365 Zn363 1.932 . S
O365 C375 1.307 . S
O366 Zn359 1.919 . S
O366 C377 1.253 . S
O367 Zn361 1.941 . S
O367 C377 1.283 . S
O368 Zn361 1.965 . S
O368 C376 1.303 . S
O369 Zn362 1.938 . S
O369 C376 1.247 . S
O370 Zn362 1.906 . S
O370 C378 1.304 . S
O371 Zn359 1.924 . S
O371 C379 1.311 . S
O372 Zn363 1.977 . S
O372 C378 1.272 . S
O373 Zn363 1.910 . S
O373 C379 1.231 . S
C374 O358 1.225 . S
C374 O380 1.298 . S
C375 O364 1.226 . S
C375 O365 1.307 . S
C376 O368 1.303 . S
C376 O369 1.247 . S
C377 O366 1.253 . S
C377 O367 1.283 . S
C378 O370 1.304 . S
C378 O372 1.272 . S
C379 O371 1.311 . S
C379 O373 1.231 . S
O380 Zn362 1.953 . S
O380 C374 1.298 . S
O381 Zn382 1.953 1_655 S
O381 C397 1.225 . S
Zn382 O381 1.953 1_455 S
Zn382 O383 1.949 . S
Zn382 O389 1.919 . S
Zn382 O394 1.924 . S
O383 Zn382 1.949 . S
O383 Zn384 1.923 . S
O383 Zn385 1.950 1_455 S
O383 Zn386 1.945 . S
Zn384 O383 1.923 . S
Zn384 O387 1.933 . S
Zn384 O390 1.940 1_455 S
Zn384 O391 1.965 1_455 S
Zn385 O383 1.950 1_655 S
Zn385 O392 1.938 . S
Zn385 O393 1.906 1_655 S
Zn385 O403 1.953 . S
Zn386 O383 1.945 . S
Zn386 O388 1.932 . S
Zn386 O395 1.977 . S
Zn386 O396 1.910 . S
O387 Zn384 1.933 . S
O387 C398 1.226 . S
O388 Zn386 1.932 . S
O388 C398 1.307 . S
O389 Zn382 1.919 . S
O389 C400 1.253 . S
O390 Zn384 1.940 1_655 S
O390 C400 1.281 1_655 S
O391 Zn384 1.965 1_655 S
O391 C399 1.303 . S
O392 Zn385 1.938 . S
O392 C399 1.247 . S
O393 Zn385 1.906 1_455 S
O393 C401 1.304 . S
O394 Zn382 1.924 . S
O394 C402 1.311 . S
O395 Zn386 1.977 . S
O395 C401 1.272 . S
O396 Zn386 1.910 . S
O396 C402 1.231 . S
C397 O381 1.225 . S
C397 O403 1.298 . S
C398 O387 1.226 . S
C398 O388 1.307 . S
C399 O391 1.303 . S
C399 O392 1.247 . S
C400 O389 1.253 . S
C400 O390 1.281 1_455 S
C401 O393 1.304 . S
C401 O395 1.272 . S
C402 O394 1.311 . S
C402 O396 1.231 . S
O403 Zn385 1.953 . S
O403 C397 1.298 . S
H404 C410 0.930 . S
H405 C413 0.930 . S
H406 C414 0.930 . S
H407 C415 0.930 . S
H408 C418 0.930 . S
H409 C419 0.930 . S
C410 H404 0.930 . S
C410 C411 1.355 1_545 S
C410 C412 1.415 . S
C411 C410 1.355 1_565 S
C411 C413 1.419 . S
C412 C410 1.415 . S
C412 C417 1.425 1_545 S
C412 C419 1.409 . S
C413 H405 0.930 . S
C413 C411 1.419 . S
C413 C414 1.362 . S
C414 H406 0.930 . S
C414 C413 1.362 . S
C414 C417 1.409 . S
C415 H407 0.930 . S
C415 C416 1.355 . S
C415 C417 1.415 . S
C416 C415 1.355 . S
C416 C418 1.419 1_565 S
C417 C412 1.425 1_565 S
C417 C414 1.409 . S
C417 C415 1.415 . S
C418 H408 0.930 . S
C418 C416 1.419 1_545 S
C418 C419 1.362 . S
C419 H409 0.930 . S
C419 C412 1.409 . S
C419 C418 1.362 . S
H420 C426 0.930 . S
H421 C429 0.930 . S
H422 C430 0.930 . S
H423 C431 0.930 . S
H424 C434 0.930 . S
H425 C435 0.930 . S
C426 H420 0.930 . S
C426 C427 1.355 . S
C426 C428 1.415 . S
C427 C426 1.355 . S
C427 C429 1.419 . S
C428 C426 1.415 . S
C428 C433 1.425 . S
C428 C435 1.409 . S
C429 H421 0.930 . S
C429 C427 1.419 . S
C429 C430 1.362 . S
C430 H422 0.930 . S
C430 C429 1.362 . S
C430 C433 1.409 . S
C431 H423 0.930 . S
C431 C432 1.355 . S
C431 C433 1.415 . S
C432 C431 1.355 . S
C432 C434 1.419 . S
C433 C428 1.425 . S
C433 C430 1.409 . S
C433 C431 1.415 . S
C434 H424 0.930 . S
C434 C432 1.419 . S
C434 C435 1.362 . S
C435 H425 0.930 . S
C435 C428 1.409 . S
C435 C434 1.362 . S
H436 C442 0.930 . S
H437 C445 0.930 . S
H438 C446 0.930 . S
H439 C447 0.930 . S
H440 C450 0.930 . S
H441 C451 0.930 . S
C442 H436 0.930 . S
C442 C443 1.355 . S
C442 C444 1.415 . S
C443 C442 1.355 . S
C443 C445 1.419 . S
C444 C442 1.415 . S
C444 C449 1.425 . S
C444 C451 1.409 . S
C445 H437 0.930 . S
C445 C443 1.419 . S
C445 C446 1.362 . S
C446 H438 0.930 . S
C446 C445 1.362 . S
C446 C449 1.409 . S
C447 H439 0.930 . S
C447 C448 1.355 . S
C447 C449 1.415 . S
C448 C447 1.355 . S
C448 C450 1.419 . S
C449 C444 1.425 . S
C449 C446 1.409 . S
C449 C447 1.415 . S
C450 H440 0.930 . S
C450 C448 1.419 . S
C450 C451 1.362 . S
C451 H441 0.930 . S
C451 C444 1.409 . S
C451 C450 1.362 . S
H452 C458 0.930 . S
H453 C461 0.930 . S
H454 C462 0.930 . S
H455 C463 0.930 . S
H456 C466 0.930 . S
H457 C467 0.930 . S
C458 H452 0.930 . S
C458 C459 1.355 . S
C458 C460 1.415 . S
C459 C458 1.355 . S
C459 C461 1.419 . S
C460 C458 1.415 . S
C460 C465 1.425 . S
C460 C467 1.409 . S
C461 H453 0.930 . S
C461 C459 1.419 . S
C461 C462 1.362 . S
C462 H454 0.930 . S
C462 C461 1.362 . S
C462 C465 1.409 . S
C463 H455 0.930 . S
C463 C464 1.355 . S
C463 C465 1.415 . S
C464 C463 1.355 . S
C464 C466 1.419 . S
C465 C460 1.425 . S
C465 C462 1.409 . S
C465 C463 1.415 . S
C466 H456 0.930 . S
C466 C464 1.419 . S
C466 C467 1.362 . S
C467 H457 0.930 . S
C467 C460 1.409 . S
C467 C466 1.362 . S
H468 C474 0.930 . S
H469 C477 0.927 1_554 S
H470 C478 0.930 . S
H471 C479 0.930 . S
H472 C482 0.930 1_565 S
H473 C483 0.930 . S
C474 H468 0.930 . S
C474 C475 1.353 1_565 S
C474 C476 1.412 1_565 S
C475 C474 1.353 1_545 S
C475 C477 1.423 . S
C476 C474 1.412 1_545 S
C476 C481 1.431 . S
C476 C483 1.407 1_545 S
C477 H469 0.927 1_556 S
C477 C475 1.423 . S
C477 C478 1.364 . S
C478 H470 0.930 . S
C478 C477 1.364 . S
C478 C481 1.409 . S
C479 H471 0.930 . S
C479 C480 1.355 . S
C479 C481 1.415 . S
C480 C479 1.355 . S
C480 C482 1.419 . S
C481 C476 1.431 . S
C481 C478 1.409 . S
C481 C479 1.415 . S
C482 H472 0.930 1_545 S
C482 C480 1.419 . S
C482 C483 1.362 1_545 S
C483 H473 0.930 . S
C483 C476 1.407 1_565 S
C483 C482 1.362 1_565 S
H484 C490 0.930 . S
H485 C493 0.930 . S
H486 C494 0.930 . S
H487 C495 0.930 . S
H488 C498 0.930 . S
H489 C499 0.930 . S
C490 H484 0.930 . S
C490 C491 1.355 . S
C490 C492 1.415 . S
C491 C490 1.355 . S
C491 C493 1.419 . S
C492 C490 1.415 . S
C492 C497 1.425 . S
C492 C499 1.409 . S
C493 H485 0.930 . S
C493 C491 1.419 . S
C493 C494 1.362 . S
C494 H486 0.930 . S
C494 C493 1.362 . S
C494 C497 1.409 . S
C495 H487 0.930 . S
C495 C496 1.355 . S
C495 C497 1.415 . S
C496 C495 1.355 . S
C496 C498 1.419 . S
C497 C492 1.425 . S
C497 C494 1.409 . S
C497 C495 1.415 . S
C498 H488 0.930 . S
C498 C496 1.419 . S
C498 C499 1.362 . S
C499 H489 0.930 . S
C499 C492 1.409 . S
C499 C498 1.362 . S
H500 C506 0.930 . S
H501 C509 0.930 . S
H502 C510 0.930 . S
H503 C511 0.930 . S
H504 C514 0.930 . S
H505 C515 0.930 . S
C506 H500 0.930 . S
C506 C507 1.355 . S
C506 C508 1.415 . S
C507 C506 1.355 . S
C507 C509 1.419 . S
C508 C506 1.415 . S
C508 C513 1.425 . S
C508 C515 1.409 . S
C509 H501 0.930 . S
C509 C507 1.419 . S
C509 C510 1.362 . S
C510 H502 0.930 . S
C510 C509 1.362 . S
C510 C513 1.409 . S
C511 H503 0.930 . S
C511 C512 1.355 . S
C511 C513 1.415 . S
C512 C511 1.355 . S
C512 C514 1.419 . S
C513 C508 1.425 . S
C513 C510 1.409 . S
C513 C511 1.415 . S
C514 H504 0.930 . S
C514 C512 1.419 . S
C514 C515 1.362 . S
C515 H505 0.930 . S
C515 C508 1.409 . S
C515 C514 1.362 . S
H516 C522 0.930 . S
H517 C525 0.930 . S
H518 C526 0.930 . S
H519 C527 0.930 . S
H520 C530 0.930 . S
H521 C531 0.930 . S
C522 H516 0.930 . S
C522 C523 1.355 . S
C522 C524 1.415 . S
C523 C522 1.355 . S
C523 C525 1.419 1_655 S
C524 C522 1.415 . S
C524 C529 1.425 1_655 S
C524 C531 1.409 . S
C525 H517 0.930 . S
C525 C523 1.419 1_455 S
C525 C526 1.362 . S
C526 H518 0.930 . S
C526 C525 1.362 . S
C526 C529 1.409 . S
C527 H519 0.930 . S
C527 C528 1.355 . S
C527 C529 1.415 . S
C528 C527 1.355 . S
C528 C530 1.419 1_455 S
C529 C524 1.425 1_455 S
C529 C526 1.409 . S
C529 C527 1.415 . S
C530 H520 0.930 . S
C530 C528 1.419 1_655 S
C530 C531 1.362 . S
C531 H521 0.930 . S
C531 C524 1.409 . S
C531 C530 1.362 . S
H532 C538 0.930 . S
H533 C541 0.930 . S
H534 C542 0.930 . S
H535 C543 0.930 . S
H536 C546 0.930 . S
H537 C547 0.930 . S
C538 H532 0.930 . S
C538 C539 1.355 . S
C538 C540 1.415 . S
C539 C538 1.355 . S
C539 C541 1.419 . S
C540 C538 1.415 . S
C540 C545 1.425 . S
C540 C547 1.409 . S
C541 H533 0.930 . S
C541 C539 1.419 . S
C541 C542 1.362 . S
C542 H534 0.930 . S
C542 C541 1.362 . S
C542 C545 1.409 . S
C543 H535 0.930 . S
C543 C544 1.355 . S
C543 C545 1.415 . S
C544 C543 1.355 . S
C544 C546 1.419 . S
C545 C540 1.425 . S
C545 C542 1.409 . S
C545 C543 1.415 . S
C546 H536 0.930 . S
C546 C544 1.419 . S
C546 C547 1.362 . S
C547 H537 0.930 . S
C547 C540 1.409 . S
C547 C546 1.362 . S
H548 C554 0.930 . S
H549 C557 0.930 . S
H550 C558 0.930 . S
H551 C559 0.930 . S
H552 C562 0.930 . S
H553 C563 0.930 . S
C554 H548 0.930 . S
C554 C555 1.355 1_565 S
C554 C556 1.415 . S
C555 C554 1.355 1_545 S
C555 C557 1.419 . S
C556 C554 1.415 . S
C556 C561 1.425 1_565 S
C556 C563 1.409 . S
C557 H549 0.930 . S
C557 C555 1.419 . S
C557 C558 1.362 . S
C558 H550 0.930 . S
C558 C557 1.362 . S
C558 C561 1.409 . S
C559 H551 0.930 . S
C559 C560 1.355 1_545 S
C559 C561 1.415 . S
C560 C559 1.355 1_565 S
C560 C562 1.419 . S
C561 C556 1.425 1_545 S
C561 C558 1.409 . S
C561 C559 1.415 . S
C562 H552 0.930 . S
C562 C560 1.419 . S
C562 C563 1.362 . S
C563 H553 0.930 . S
C563 C556 1.409 . S
C563 C562 1.362 . S
H564 C570 0.930 . S
H565 C573 0.930 . S
H566 C574 0.930 . S
H567 C575 0.930 . S
H568 C578 0.930 . S
H569 C579 0.930 . S
C570 H564 0.930 . S
C570 C571 1.355 . S
C570 C572 1.415 . S
C571 C570 1.355 . S
C571 C573 1.419 . S
C572 C570 1.415 . S
C572 C577 1.425 . S
C572 C579 1.409 . S
C573 H565 0.930 . S
C573 C571 1.419 . S
C573 C574 1.362 . S
C574 H566 0.930 . S
C574 C573 1.362 . S
C574 C577 1.409 . S
C575 H567 0.930 . S
C575 C576 1.355 . S
C575 C577 1.415 . S
C576 C575 1.355 . S
C576 C578 1.419 . S
C577 C572 1.425 . S
C577 C574 1.409 . S
C577 C575 1.415 . S
C578 H568 0.930 . S
C578 C576 1.419 . S
C578 C579 1.362 . S
C579 H569 0.930 . S
C579 C572 1.409 . S
C579 C578 1.362 . S
H580 C586 0.930 . S
H581 C589 0.930 . S
H582 C590 0.930 . S
H583 C591 0.930 . S
H584 C594 0.930 . S
H585 C595 0.930 . S
C586 H580 0.930 . S
C586 C587 1.355 . S
C586 C588 1.415 . S
C587 C586 1.355 . S
C587 C589 1.419 . S
C588 C586 1.415 . S
C588 C593 1.425 . S
C588 C595 1.409 . S
C589 H581 0.930 . S
C589 C587 1.419 . S
C589 C590 1.362 . S
C590 H582 0.930 . S
C590 C589 1.362 . S
C590 C593 1.409 . S
C591 H583 0.930 . S
C591 C592 1.355 . S
C591 C593 1.415 . S
C592 C591 1.355 . S
C592 C594 1.419 . S
C593 C588 1.425 . S
C593 C590 1.409 . S
C593 C591 1.415 . S
C594 H584 0.930 . S
C594 C592 1.419 . S
C594 C595 1.362 . S
C595 H585 0.930 . S
C595 C588 1.409 . S
C595 C594 1.362 . S
H596 C602 0.930 . S
H597 C605 0.930 . S
H598 C606 0.930 . S
H599 C607 0.930 . S
H600 C610 0.930 . S
H601 C611 0.930 1_655 S
C602 H596 0.930 . S
C602 C603 1.355 . S
C602 C604 1.415 1_655 S
C603 C602 1.355 . S
C603 C605 1.419 1_655 S
C604 C602 1.415 1_455 S
C604 C609 1.425 . S
C604 C611 1.409 . S
C605 H597 0.930 . S
C605 C603 1.419 1_455 S
C605 C606 1.362 . S
C606 H598 0.930 . S
C606 C605 1.362 . S
C606 C609 1.409 . S
C607 H599 0.930 . S
C607 C608 1.355 . S
C607 C609 1.415 . S
C608 C607 1.355 . S
C608 C610 1.419 . S
C609 C604 1.425 . S
C609 C606 1.409 . S
C609 C607 1.415 . S
C610 H600 0.930 . S
C610 C608 1.419 . S
C610 C611 1.362 . S
C611 H601 0.930 1_455 S
C611 C604 1.409 . S
C611 C610 1.362 . S
H612 C618 0.930 . S
H613 C621 0.930 . S
H614 C622 0.930 . S
H615 C623 0.930 . S
H616 C626 0.930 . S
H617 C627 0.930 . S
C618 H612 0.930 . S
C618 C619 1.355 1_545 S
C618 C620 1.415 . S
C619 C618 1.355 1_565 S
C619 C621 1.419 . S
C620 C618 1.415 . S
C620 C625 1.425 . S
C620 C627 1.409 . S
C621 H613 0.930 . S
C621 C619 1.419 . S
C621 C622 1.362 . S
C622 H614 0.930 . S
C622 C621 1.362 . S
C622 C625 1.409 1_565 S
C623 H615 0.930 . S
C623 C624 1.355 . S
C623 C625 1.415 . S
C624 C623 1.355 . S
C624 C626 1.419 . S
C625 C620 1.425 . S
C625 C622 1.409 1_545 S
C625 C623 1.415 . S
C626 H616 0.930 . S
C626 C624 1.419 . S
C626 C627 1.362 . S
C627 H617 0.930 . S
C627 C620 1.409 . S
C627 C626 1.362 . S
H628 C634 0.930 . S
H629 C637 0.930 . S
H630 C638 0.930 . S
H631 C639 0.930 . S
H632 C642 0.930 . S
H633 C643 0.930 . S
C634 H628 0.930 . S
C634 C635 1.355 . S
C634 C636 1.415 . S
C635 C634 1.355 . S
C635 C637 1.419 . S
C636 C634 1.415 . S
C636 C641 1.425 . S
C636 C643 1.409 . S
C637 H629 0.930 . S
C637 C635 1.419 . S
C637 C638 1.362 . S
C638 H630 0.930 . S
C638 C637 1.362 . S
C638 C641 1.409 . S
C639 H631 0.930 . S
C639 C640 1.355 . S
C639 C641 1.415 . S
C640 C639 1.355 . S
C640 C642 1.419 . S
C641 C636 1.425 . S
C641 C638 1.409 . S
C641 C639 1.415 . S
C642 H632 0.930 . S
C642 C640 1.419 . S
C642 C643 1.362 . S
C643 H633 0.930 . S
C643 C636 1.409 . S
C643 C642 1.362 . S
H644 C650 0.930 . S
H645 C653 0.930 . S
H646 C654 0.930 . S
H647 C655 0.930 . S
H648 C658 0.930 . S
H649 C659 0.930 . S
C650 H644 0.930 . S
C650 C651 1.355 . S
C650 C652 1.415 . S
C651 C650 1.355 . S
C651 C653 1.419 . S
C652 C650 1.415 . S
C652 C657 1.425 . S
C652 C659 1.409 . S
C653 H645 0.930 . S
C653 C651 1.419 . S
C653 C654 1.362 . S
C654 H646 0.930 . S
C654 C653 1.362 . S
C654 C657 1.409 . S
C655 H647 0.930 . S
C655 C656 1.355 . S
C655 C657 1.415 . S
C656 C655 1.355 . S
C656 C658 1.419 . S
C657 C652 1.425 . S
C657 C654 1.409 . S
C657 C655 1.415 . S
C658 H648 0.930 . S
C658 C656 1.419 . S
C658 C659 1.362 . S
C659 H649 0.930 . S
C659 C652 1.409 . S
C659 C658 1.362 . S
H660 C666 0.930 1_554 S
H661 C669 0.930 . S
H662 C670 0.930 . S
H663 C671 0.930 . S
H664 C674 0.930 . S
H665 C675 0.930 . S
C666 H660 0.930 1_556 S
C666 C667 1.355 1_556 S
C666 C668 1.415 . S
C667 C666 1.355 1_554 S
C667 C669 1.419 1_554 S
C668 C666 1.415 . S
C668 C673 1.425 . S
C668 C675 1.409 . S
C669 H661 0.930 . S
C669 C667 1.419 1_556 S
C669 C670 1.362 . S
C670 H662 0.930 . S
C670 C669 1.362 . S
C670 C673 1.409 . S
C671 H663 0.930 . S
C671 C672 1.355 . S
C671 C673 1.415 . S
C672 C671 1.355 . S
C672 C674 1.419 . S
C673 C668 1.425 . S
C673 C670 1.409 . S
C673 C671 1.415 . S
C674 H664 0.930 . S
C674 C672 1.419 . S
C674 C675 1.362 . S
C675 H665 0.930 . S
C675 C668 1.409 . S
C675 C674 1.362 . S
H676 C682 0.930 1_554 S
H677 C685 0.930 . S
H678 C686 0.930 . S
H679 C687 0.930 . S
H680 C690 0.930 . S
H681 C691 0.930 . S
C682 H676 0.930 1_556 S
C682 C683 1.355 1_565 S
C682 C684 1.415 . S
C683 C682 1.355 1_545 S
C683 C685 1.419 . S
C684 C682 1.415 . S
C684 C689 1.425 1_565 S
C684 C691 1.409 . S
C685 H677 0.930 . S
C685 C683 1.419 . S
C685 C686 1.362 . S
C686 H678 0.930 . S
C686 C685 1.362 . S
C686 C689 1.409 . S
C687 H679 0.930 . S
C687 C688 1.355 1_545 S
C687 C689 1.415 . S
C688 C687 1.355 1_565 S
C688 C690 1.419 . S
C689 C684 1.425 1_545 S
C689 C686 1.409 . S
C689 C687 1.415 . S
C690 H680 0.930 . S
C690 C688 1.419 . S
C690 C691 1.362 . S
C691 H681 0.930 . S
C691 C684 1.409 . S
C691 C690 1.362 . S
H692 C698 0.930 . S
H693 C701 0.930 . S
H694 C702 0.930 . S
H695 C703 0.930 . S
H696 C706 0.930 . S
H697 C707 0.930 . S
C698 H692 0.930 . S
C698 C699 1.355 . S
C698 C700 1.415 . S
C699 C698 1.355 . S
C699 C701 1.419 . S
C700 C698 1.415 . S
C700 C705 1.425 . S
C700 C707 1.409 . S
C701 H693 0.930 . S
C701 C699 1.419 . S
C701 C702 1.362 . S
C702 H694 0.930 . S
C702 C701 1.362 . S
C702 C705 1.409 . S
C703 H695 0.930 . S
C703 C704 1.355 . S
C703 C705 1.415 . S
C704 C703 1.355 . S
C704 C706 1.419 . S
C705 C700 1.425 . S
C705 C702 1.409 . S
C705 C703 1.415 . S
C706 H696 0.930 . S
C706 C704 1.419 . S
C706 C707 1.362 . S
C707 H697 0.930 . S
C707 C700 1.409 . S
C707 C706 1.362 . S
H708 C714 0.930 . S
H709 C717 0.930 . S
H710 C718 0.930 . S
H711 C719 0.930 . S
H712 C722 0.930 . S
H713 C723 0.930 . S
C714 H708 0.930 . S
C714 C715 1.355 . S
C714 C716 1.415 . S
C715 C714 1.355 . S
C715 C717 1.419 . S
C716 C714 1.415 . S
C716 C721 1.425 . S
C716 C723 1.409 . S
C717 H709 0.930 . S
C717 C715 1.419 . S
C717 C718 1.362 . S
C718 H710 0.930 . S
C718 C717 1.362 . S
C718 C721 1.409 . S
C719 H711 0.930 . S
C719 C720 1.355 . S
C719 C721 1.415 . S
C720 C719 1.355 . S
C720 C722 1.419 . S
C721 C716 1.425 . S
C721 C718 1.409 . S
C721 C719 1.415 . S
C722 H712 0.930 . S
C722 C720 1.419 . S
C722 C723 1.362 . S
C723 H713 0.930 . S
C723 C716 1.409 . S
C723 C722 1.362 . S
H724 C730 0.930 . S
H725 C733 0.930 . S
H726 C734 0.930 . S
H727 C735 0.930 . S
H728 C738 0.930 . S
H729 C739 0.930 . S
C730 H724 0.930 . S
C730 C731 1.355 . S
C730 C732 1.415 . S
C731 C730 1.355 . S
C731 C733 1.419 1_655 S
C732 C730 1.415 . S
C732 C737 1.425 1_655 S
C732 C739 1.409 . S
C733 H725 0.930 . S
C733 C731 1.419 1_455 S
C733 C734 1.362 . S
C734 H726 0.930 . S
C734 C733 1.362 . S
C734 C737 1.409 . S
C735 H727 0.930 . S
C735 C736 1.355 1_455 S
C735 C737 1.415 . S
C736 C735 1.355 1_655 S
C736 C738 1.419 . S
C737 C732 1.425 1_455 S
C737 C734 1.409 . S
C737 C735 1.415 . S
C738 H728 0.930 . S
C738 C736 1.419 . S
C738 C739 1.362 . S
C739 H729 0.930 . S
C739 C732 1.409 . S
C739 C738 1.362 . S
H740 C746 0.930 1_545 S
H741 C749 0.930 . S
H742 C750 0.930 . S
H743 C751 0.930 . S
H744 C754 0.930 . S
H745 C755 0.930 1_545 S
C746 H740 0.930 1_565 S
C746 C747 1.355 . S
C746 C748 1.415 . S
C747 C746 1.355 . S
C747 C749 1.419 . S
C748 C746 1.415 . S
C748 C753 1.425 . S
C748 C755 1.409 . S
C749 H741 0.930 . S
C749 C747 1.419 . S
C749 C750 1.362 . S
C750 H742 0.930 . S
C750 C749 1.362 . S
C750 C753 1.409 . S
C751 H743 0.930 . S
C751 C752 1.355 . S
C751 C753 1.415 . S
C752 C751 1.355 . S
C752 C754 1.419 . S
C753 C748 1.425 . S
C753 C750 1.409 . S
C753 C751 1.415 . S
C754 H744 0.930 . S
C754 C752 1.419 . S
C754 C755 1.362 . S
C755 H745 0.930 1_565 S
C755 C748 1.409 . S
C755 C754 1.362 . S
H756 C762 0.930 . S
H757 C765 0.930 . S
H758 C766 0.930 . S
H759 C767 0.930 . S
H760 C770 0.930 . S
H761 C771 0.930 . S
C762 H756 0.930 . S
C762 C763 1.355 . S
C762 C764 1.415 . S
C763 C762 1.355 . S
C763 C765 1.419 . S
C764 C762 1.415 . S
C764 C769 1.425 . S
C764 C771 1.409 . S
C765 H757 0.930 . S
C765 C763 1.419 . S
C765 C766 1.362 . S
C766 H758 0.930 . S
C766 C765 1.362 . S
C766 C769 1.409 . S
C767 H759 0.930 . S
C767 C768 1.355 . S
C767 C769 1.415 . S
C768 C767 1.355 . S
C768 C770 1.419 . S
C769 C764 1.425 . S
C769 C766 1.409 . S
C769 C767 1.415 . S
C770 H760 0.930 . S
C770 C768 1.419 . S
C770 C771 1.362 . S
C771 H761 0.930 . S
C771 C764 1.409 . S
C771 C770 1.362 . S
H772 C778 0.930 . S
H773 C781 0.930 . S
H774 C782 0.930 . S
H775 C783 0.930 . S
H776 C786 0.930 . S
H777 C787 0.930 . S
C778 H772 0.930 . S
C778 C779 1.355 . S
C778 C780 1.415 . S
C779 C778 1.355 . S
C779 C781 1.419 . S
C780 C778 1.415 . S
C780 C785 1.425 . S
C780 C787 1.409 . S
C781 H773 0.930 . S
C781 C779 1.419 . S
C781 C782 1.362 . S
C782 H774 0.930 . S
C782 C781 1.362 . S
C782 C785 1.409 . S
C783 H775 0.930 . S
C783 C784 1.355 . S
C783 C785 1.415 . S
C784 C783 1.355 . S
C784 C786 1.419 . S
C785 C780 1.425 . S
C785 C782 1.409 . S
C785 C783 1.415 . S
C786 H776 0.930 . S
C786 C784 1.419 . S
C786 C787 1.362 . S
C787 H777 0.930 . S
C787 C780 1.409 . S
C787 C786 1.362 . S
C411 C255 1.709 . S
C416 C328 1.709 . S
C432 C351 1.942 . S
C427 C294 1.921 . S
C448 C374 1.823 . S
C443 C177 1.814 . S
C464 C401 1.664 . S
C459 C216 1.739 . S
C480 C329 1.675 . S
C475 C99 1.666 1_546 S
C491 C138 1.677 . S
C496 C352 1.722 . S
C507 C21 1.511 . S
C512 C375 1.529 . S
C523 C60 1.760 1_556 S
C528 C400 1.757 . S
C544 C330 0.422 . S
C539 C196 0.577 . S
C560 C353 0.263 . S
C555 C235 0.524 . S
C576 C376 0.342 . S
C571 C289 0.620 . S
C587 C157 0.576 . S
C592 C402 0.744 . S
C603 C40 0.528 . S
C608 C333 0.544 . S
C624 C356 0.759 . S
C619 C79 0.626 . S
C640 C379 0.822 . S
C635 C133 0.780 . S
C651 C1 0.181 . S
C656 C399 0.184 . S
C667 C211 1.964 . S
C672 C331 1.986 . S
C683 C250 1.907 1_556 S
C688 C354 1.954 1_565 S
C704 C377 2.003 . S
C699 C274 1.956 . S
C720 C398 1.751 . S
C715 C172 1.653 . S
C731 C55 1.998 . S
C736 C332 2.013 1_655 S
C752 C355 1.794 . S
C747 C94 1.824 1_565 S
C768 C378 1.821 . S
C763 C118 1.875 . S
C779 C16 2.019 . S
C784 C397 2.110 . S
