# Generated by pormake.
# Topology cml, (3,6)-cn, num edge types: 1
# Building blocks:
#     Node 0, Type 0, BuildingBlock: VETTIZ_charged_linker_0, # of connection points: 3
#     Node 1, Type 0, BuildingBlock: VETTIZ_charged_linker_0, # of connection points: 3
#     Node 2, Type 0, BuildingBlock: VETTIZ_charged_linker_0, # of connection points: 3
#     Node 3, Type 0, BuildingBlock: VETTIZ_charged_linker_0, # of connection points: 3
#     Node 4, Type 0, BuildingBlock: VETTIZ_charged_linker_0, # of connection points: 3
#     Node 5, Type 0, BuildingBlock: VETTIZ_charged_linker_0, # of connection points: 3
#     Node 6, Type 0, BuildingBlock: VETTIZ_charged_linker_0, # of connection points: 3
#     Node 7, Type 0, BuildingBlock: VETTIZ_charged_linker_0, # of connection points: 3
#     Node 8, Type 1, BuildingBlock: IZENUY_clean_sbu_0, # of connection points: 6
#     Node 9, Type 1, BuildingBlock: IZENUY_clean_sbu_0, # of connection points: 6
#     Node 10, Type 1, BuildingBlock: IZENUY_clean_sbu_0, # of connection points: 6
#     Node 11, Type 1, BuildingBlock: IZENUY_clean_sbu_0, # of connection points: 6
#     Edge 12, Type (0, 1), BuildingBlock: AJUNOK_clean_linker_0, # of connection points: 2
#     Edge 13, Type (0, 1), BuildingBlock: AJUNOK_clean_linker_0, # of connection points: 2
#     Edge 14, Type (0, 1), BuildingBlock: AJUNOK_clean_linker_0, # of connection points: 2
#     Edge 15, Type (0, 1), BuildingBlock: AJUNOK_clean_linker_0, # of connection points: 2
#     Edge 16, Type (0, 1), BuildingBlock: AJUNOK_clean_linker_0, # of connection points: 2
#     Edge 17, Type (0, 1), BuildingBlock: AJUNOK_clean_linker_0, # of connection points: 2
#     Edge 18, Type (0, 1), BuildingBlock: AJUNOK_clean_linker_0, # of connection points: 2
#     Edge 19, Type (0, 1), BuildingBlock: AJUNOK_clean_linker_0, # of connection points: 2
#     Edge 20, Type (0, 1), BuildingBlock: AJUNOK_clean_linker_0, # of connection points: 2
#     Edge 21, Type (0, 1), BuildingBlock: AJUNOK_clean_linker_0, # of connection points: 2
#     Edge 22, Type (0, 1), BuildingBlock: AJUNOK_clean_linker_0, # of connection points: 2
#     Edge 23, Type (0, 1), BuildingBlock: AJUNOK_clean_linker_0, # of connection points: 2
#     Edge 24, Type (0, 1), BuildingBlock: AJUNOK_clean_linker_0, # of connection points: 2
#     Edge 25, Type (0, 1), BuildingBlock: AJUNOK_clean_linker_0, # of connection points: 2
#     Edge 26, Type (0, 1), BuildingBlock: AJUNOK_clean_linker_0, # of connection points: 2
#     Edge 27, Type (0, 1), BuildingBlock: AJUNOK_clean_linker_0, # of connection points: 2
#     Edge 28, Type (0, 1), BuildingBlock: AJUNOK_clean_linker_0, # of connection points: 2
#     Edge 29, Type (0, 1), BuildingBlock: AJUNOK_clean_linker_0, # of connection points: 2
#     Edge 30, Type (0, 1), BuildingBlock: AJUNOK_clean_linker_0, # of connection points: 2
#     Edge 31, Type (0, 1), BuildingBlock: AJUNOK_clean_linker_0, # of connection points: 2
#     Edge 32, Type (0, 1), BuildingBlock: AJUNOK_clean_linker_0, # of connection points: 2
#     Edge 33, Type (0, 1), BuildingBlock: AJUNOK_clean_linker_0, # of connection points: 2
#     Edge 34, Type (0, 1), BuildingBlock: AJUNOK_clean_linker_0, # of connection points: 2
#     Edge 35, Type (0, 1), BuildingBlock: AJUNOK_clean_linker_0, # of connection points: 2
# Relax obj value: 0.059
# Max RMSD: 0.074
# Mean RMSD: 0.071
data_MOF--net-cml--node1-IZENUY_clean_sbu_0--node2-VETTIZ_charged_linker_0--edge1-AJUNOK_clean_linker_0
_symmetry_space_group_name_H-M    P1
_symmetry_Int_Tables_number       1
_symmetry_cell_setting            triclinic
loop_
_symmetry_equiv_pos_as_xyz
'x, y, z'
_cell_length_a     33.349148
_cell_length_b     39.037681
_cell_length_c     36.595233
_cell_angle_alpha  90.016394
_cell_angle_beta   89.913251
_cell_angle_gamma 90.167944
loop_
_atom_site_label
_atom_site_type_symbol
_atom_site_fract_x
_atom_site_fract_y
_atom_site_fract_z
_atom_type_partial_charge
C0 C 0.34746 0.34436 0.12453 0.0
C1 C 0.37706 0.36368 0.14266 0.0
C2 C 0.3877 0.39616 0.12895 0.0
C3 C 0.34196 0.38897 0.0784 0.0
C4 C 0.33034 0.35755 0.09236 0.0
C5 C 0.29936 0.34042 0.06849 0.0
H6 H 0.1863 0.3431 0.91422 0.0
C7 C 0.32027 0.39477 0.04387 0.0
C8 C 0.29497 0.36659 0.03786 0.0
H9 H 0.18965 0.26505 0.99793 0.0
H10 H 0.23866 0.29789 0.0316 0.0
H11 H 0.18778 0.40766 0.9678 0.0
H12 H 0.28364 0.3551 0.91208 0.0
H13 H 0.29191 0.3994 0.90788 0.0
H14 H 0.2474 0.38067 0.88833 0.0
H15 H 0.19508 0.41096 0.9193 0.0
H16 H 0.22121 0.43871 0.95076 0.0
C17 C 0.26027 0.33655 0.09101 0.0
C18 C 0.31703 0.30618 0.05453 0.0
C19 C 0.35491 0.4993 0.96784 0.0
C20 C 0.34232 0.51105 0.93348 0.0
C21 C 0.31111 0.49346 0.91538 0.0
C22 C 0.29395 0.46381 0.93066 0.0
C23 C 0.30814 0.45157 0.96441 0.0
C24 C 0.33762 0.4697 0.98263 0.0
C25 C 0.34935 0.45313 0.01801 0.0
C26 C 0.32249 0.42171 0.01791 0.0
C27 C 0.29854 0.42073 0.98642 0.0
C28 C 0.3387 0.47808 0.04958 0.0
C29 C 0.39439 0.4435 0.01549 0.0
C30 C 0.19804 0.33288 0.93953 0.0
C31 C 0.18432 0.30129 0.95329 0.0
C32 C 0.19963 0.28936 0.98683 0.0
C33 C 0.22817 0.30843 0.00631 0.0
C34 C 0.24171 0.33986 0.99216 0.0
C35 C 0.22669 0.35159 0.95927 0.0
C36 C 0.24468 0.38549 0.94836 0.0
C37 C 0.27255 0.39237 0.98032 0.0
C38 C 0.27079 0.36547 0.00588 0.0
C39 C 0.21059 0.41225 0.94611 0.0
C40 C 0.26799 0.38025 0.91216 0.0
H41 H 0.38027 0.43359 0.088 0.0
H42 H 0.33879 0.31928 0.13449 0.0
H43 H 0.3495 0.30906 0.04814 0.0
H44 H 0.30324 0.2973 0.02881 0.0
H45 H 0.31397 0.28571 0.07544 0.0
H46 H 0.25594 0.35892 0.10945 0.0
H47 H 0.26108 0.31318 0.1083 0.0
H48 H 0.2331 0.33589 0.07383 0.0
H49 H 0.37898 0.51209 0.98234 0.0
H50 H 0.30037 0.50239 0.88916 0.0
H51 H 0.27072 0.45128 0.91536 0.0
H52 H 0.313 0.49482 0.0422 0.0
H53 H 0.36444 0.49504 0.05635 0.0
H54 H 0.3287 0.46461 0.07459 0.0
H55 H 0.40219 0.43467 0.98745 0.0
H56 H 0.40276 0.42199 0.03344 0.0
H57 H 0.41383 0.46586 0.0219 0.0
H58 H 0.41004 0.41164 0.14278 0.0
C59 C 0.37032 0.4089 0.09711 0.0
C60 C 0.81805 0.68516 0.43962 0.0
C61 C 0.83344 0.71597 0.45397 0.0
C62 C 0.81909 0.72763 0.48803 0.0
C63 C 0.77524 0.67819 0.49295 0.0
C64 C 0.78894 0.66688 0.45938 0.0
C65 C 0.76902 0.63394 0.44783 0.0
H66 H 0.63549 0.5071 0.48512 0.0
C67 C 0.74551 0.6531 0.50668 0.0
C68 C 0.74165 0.62709 0.48025 0.0
H69 H 0.70715 0.51926 0.38756 0.0
H70 H 0.73746 0.57062 0.41275 0.0
H71 H 0.70495 0.52517 0.54166 0.0
H72 H 0.61095 0.58368 0.49205 0.0
H73 H 0.61398 0.59792 0.53742 0.0
H74 H 0.60196 0.55365 0.52827 0.0
H75 H 0.65386 0.52249 0.55674 0.0
H76 H 0.68837 0.55353 0.57558 0.0
C77 C 0.80173 0.60613 0.44388 0.0
C78 C 0.74505 0.64091 0.4124 0.0
C79 C 0.68078 0.66897 0.63222 0.0
C80 C 0.65355 0.64859 0.65209 0.0
C81 C 0.6382 0.61851 0.63604 0.0
C82 C 0.65032 0.60826 0.60123 0.0
C83 C 0.67814 0.62829 0.58188 0.0
C84 C 0.69287 0.65815 0.59722 0.0
C85 C 0.72249 0.67575 0.57226 0.0
C86 C 0.72304 0.65138 0.53972 0.0
C87 C 0.6969 0.62375 0.54568 0.0
C88 C 0.76352 0.6771 0.59199 0.0
C89 C 0.7053 0.71127 0.56195 0.0
C90 C 0.65836 0.52037 0.46949 0.0
C91 C 0.66947 0.50883 0.4346 0.0
C92 C 0.69831 0.52759 0.41463 0.0
C93 C 0.71575 0.55742 0.42927 0.0
C94 C 0.70394 0.56882 0.46415 0.0
C95 C 0.67579 0.55018 0.48359 0.0
C96 C 0.66603 0.56614 0.5198 0.0
C97 C 0.69273 0.59763 0.51898 0.0
C98 C 0.71495 0.59919 0.4864 0.0
C99 C 0.67856 0.54063 0.55022 0.0
C100 C 0.62088 0.57573 0.51979 0.0
H101 H 0.78054 0.71927 0.53326 0.0
H102 H 0.82886 0.67515 0.41383 0.0
H103 H 0.73178 0.66703 0.41282 0.0
H104 H 0.71923 0.62345 0.40897 0.0
H105 H 0.76466 0.63914 0.38791 0.0
H106 H 0.82422 0.60841 0.46619 0.0
H107 H 0.81789 0.60873 0.41746 0.0
H108 H 0.78973 0.57985 0.44611 0.0
H109 H 0.69278 0.69236 0.64385 0.0
H110 H 0.61646 0.60288 0.65052 0.0
H111 H 0.63748 0.58504 0.59082 0.0
H112 H 0.76884 0.65305 0.60754 0.0
H113 H 0.76472 0.69874 0.61168 0.0
H114 H 0.78915 0.67918 0.57302 0.0
H115 H 0.6721 0.71009 0.55916 0.0
H116 H 0.71614 0.72058 0.5352 0.0
H117 H 0.71238 0.73067 0.58322 0.0
H118 H 0.83017 0.7514 0.49956 0.0
C119 C 0.79015 0.70898 0.50753 0.0
C120 C 0.67122 0.47985 0.93381 0.0
C121 C 0.64678 0.5045 0.95107 0.0
C122 C 0.64166 0.50286 0.98928 0.0
C123 C 0.6804 0.45074 0.99189 0.0
C124 C 0.68811 0.45344 0.9549 0.0
C125 C 0.71551 0.42524 0.94179 0.0
H126 H 0.82374 0.28281 0.98197 0.0
C127 C 0.69935 0.41917 0.00553 0.0
C128 C 0.72063 0.40425 0.97658 0.0
H129 H 0.82034 0.33871 0.88008 0.0
H130 H 0.7712 0.37748 0.90526 0.0
H131 H 0.82135 0.34779 0.03739 0.0
H132 H 0.72824 0.28334 0.99305 0.0
H133 H 0.71292 0.29505 0.03721 0.0
H134 H 0.75795 0.27 0.03127 0.0
H135 H 0.81648 0.30287 0.04727 0.0
H136 H 0.78899 0.33427 0.07289 0.0
C137 C 0.75544 0.44186 0.92913 0.0
C138 C 0.69354 0.40467 0.91168 0.0
C139 C 0.66676 0.37914 0.13383 0.0
C140 C 0.67506 0.34907 0.15329 0.0
C141 C 0.69948 0.32385 0.13715 0.0
C142 C 0.71569 0.32882 0.10201 0.0
C143 C 0.70673 0.35906 0.0827 0.0
C144 C 0.68245 0.38345 0.09872 0.0
C145 C 0.67381 0.41297 0.07375 0.0
C146 C 0.69679 0.40235 0.03983 0.0
C147 C 0.71637 0.37099 0.04524 0.0
C148 C 0.69132 0.44602 0.09122 0.0
C149 C 0.62788 0.41381 0.06708 0.0
C150 C 0.81225 0.30331 0.96506 0.0
C151 C 0.82675 0.30824 0.92931 0.0
C152 C 0.81066 0.33503 0.90807 0.0
C153 C 0.78204 0.35746 0.92269 0.0
C154 C 0.76906 0.35302 0.95892 0.0
C155 C 0.78359 0.32592 0.97927 0.0
C156 C 0.76551 0.32465 0.01696 0.0
C157 C 0.73966 0.3566 0.01658 0.0
C158 C 0.74167 0.37306 0.98241 0.0
C159 C 0.79972 0.32735 0.04535 0.0
C160 C 0.73999 0.29152 0.02014 0.0
H161 H 0.65222 0.47617 0.03843 0.0
H162 H 0.67606 0.4804 0.90456 0.0
H163 H 0.66176 0.40001 0.91958 0.0
H164 H 0.70659 0.37908 0.90711 0.0
H165 H 0.69361 0.41887 0.88538 0.0
H166 H 0.76211 0.46554 0.94498 0.0
H167 H 0.75423 0.44906 0.89979 0.0
H168 H 0.78165 0.42521 0.93381 0.0
H169 H 0.64723 0.39854 0.14527 0.0
H170 H 0.7059 0.30035 0.1517 0.0
H171 H 0.73424 0.30886 0.0911 0.0
H172 H 0.71659 0.44018 0.11003 0.0
H173 H 0.66823 0.45991 0.10728 0.0
H174 H 0.70444 0.46361 0.07066 0.0
H175 H 0.61583 0.38741 0.0635 0.0
H176 H 0.61929 0.42754 0.042 0.0
H177 H 0.61198 0.42561 0.09061 0.0
H178 H 0.62408 0.522 0.00349 0.0
C179 C 0.65815 0.4762 0.00965 0.0
C180 C 0.20795 0.6871 0.43167 0.0
C181 C 0.19131 0.71628 0.44841 0.0
C182 C 0.20329 0.72483 0.48422 0.0
C183 C 0.24875 0.67654 0.4855 0.0
C184 C 0.23653 0.66768 0.45065 0.0
C185 C 0.25726 0.63587 0.43703 0.0
H186 H 0.3945 0.51084 0.46668 0.0
C187 C 0.27881 0.65127 0.49768 0.0
C188 C 0.28383 0.62719 0.46943 0.0
H189 H 0.32093 0.52459 0.37073 0.0
H190 H 0.28956 0.57413 0.39862 0.0
H191 H 0.41516 0.58962 0.47932 0.0
H192 H 0.32601 0.52154 0.52306 0.0
H193 H 0.3377 0.54962 0.55893 0.0
H194 H 0.3763 0.5223 0.54028 0.0
H195 H 0.42625 0.55564 0.51071 0.0
H196 H 0.41252 0.59772 0.52647 0.0
C197 C 0.2821 0.64552 0.40278 0.0
C198 C 0.22507 0.60795 0.43023 0.0
C199 C 0.34577 0.66392 0.62241 0.0
C200 C 0.37348 0.64328 0.64107 0.0
C201 C 0.38786 0.61327 0.62438 0.0
C202 C 0.37504 0.60382 0.58948 0.0
C203 C 0.34732 0.6245 0.57096 0.0
C204 C 0.33276 0.6538 0.58749 0.0
C205 C 0.30213 0.67158 0.56398 0.0
C206 C 0.30137 0.64838 0.5305 0.0
C207 C 0.32819 0.62112 0.53478 0.0
C208 C 0.31835 0.70776 0.55475 0.0
C209 C 0.26149 0.6714 0.58462 0.0
C210 C 0.37136 0.52426 0.45172 0.0
C211 C 0.36042 0.51388 0.41637 0.0
C212 C 0.33041 0.53239 0.39778 0.0
C213 C 0.3121 0.56103 0.41411 0.0
C214 C 0.32384 0.57124 0.44944 0.0
C215 C 0.35283 0.55264 0.4676 0.0
C216 C 0.36159 0.56652 0.50496 0.0
C217 C 0.33342 0.59686 0.50633 0.0
C218 C 0.31137 0.59972 0.47379 0.0
C219 C 0.40621 0.57784 0.50581 0.0
C220 C 0.35018 0.53867 0.53346 0.0
H221 H 0.23978 0.71324 0.52984 0.0
H222 H 0.19921 0.67975 0.40427 0.0
H223 H 0.20116 0.60908 0.45144 0.0
H224 H 0.23716 0.58171 0.432 0.0
H225 H 0.21058 0.61142 0.40317 0.0
H226 H 0.29683 0.6709 0.40648 0.0
H227 H 0.26271 0.6471 0.37819 0.0
H228 H 0.30678 0.62749 0.39727 0.0
H229 H 0.33412 0.687 0.63491 0.0
H230 H 0.40941 0.59723 0.63836 0.0
H231 H 0.38738 0.58076 0.5783 0.0
H232 H 0.35094 0.70674 0.54828 0.0
H233 H 0.31436 0.72549 0.57822 0.0
H234 H 0.30418 0.7191 0.53039 0.0
H235 H 0.25867 0.64849 0.60253 0.0
H236 H 0.23546 0.66971 0.56604 0.0
H237 H 0.25834 0.69444 0.6022 0.0
H238 H 0.19011 0.74655 0.49816 0.0
C239 C 0.23193 0.70526 0.50273 0.0
C240 C 0.84341 0.84539 0.12389 0.0
C241 C 0.87215 0.86512 0.1426 0.0
C242 C 0.88743 0.89501 0.12615 0.0
C243 C 0.84581 0.88541 0.073 0.0
C244 C 0.83048 0.85618 0.08922 0.0
C245 C 0.79912 0.83921 0.06569 0.0
H246 H 0.6942 0.83502 0.90706 0.0
C247 C 0.82638 0.88964 0.03705 0.0
C248 C 0.79883 0.86279 0.03254 0.0
H249 H 0.68303 0.76781 1.00052 0.0
H250 H 0.73515 0.79906 0.03161 0.0
H251 H 0.69933 0.90513 0.95543 0.0
H252 H 0.79157 0.84161 0.90801 0.0
H253 H 0.80379 0.88486 0.90003 0.0
H254 H 0.75861 0.8672 0.88056 0.0
H255 H 0.70723 0.90251 0.90696 0.0
H256 H 0.73561 0.93176 0.93499 0.0
C257 C 0.75867 0.83987 0.08662 0.0
C258 C 0.81413 0.80286 0.05586 0.0
C259 C 0.86802 0.98926 0.95672 0.0
C260 C 0.85655 1.00047 0.92183 0.0
C261 C 0.8278 0.98131 0.90225 0.0
C262 C 0.81019 0.95182 0.91766 0.0
C263 C 0.82167 0.94127 0.95293 0.0
C264 C 0.85029 0.95995 0.97164 0.0
C265 C 0.85957 0.9451 0.00846 0.0
C266 C 0.83166 0.91441 0.00908 0.0
C267 C 0.80942 0.91215 0.97658 0.0
C268 C 0.84818 0.97201 0.03791 0.0
C269 C 0.9043 0.93428 0.0086 0.0
C270 C 0.70258 0.82731 0.93441 0.0
C271 C 0.68416 0.79891 0.95136 0.0
C272 C 0.69686 0.78934 0.98666 0.0
C273 C 0.72702 0.80767 0.00481 0.0
C274 C 0.74478 0.83613 0.98771 0.0
C275 C 0.73241 0.84566 0.95315 0.0
C276 C 0.75403 0.87721 0.93973 0.0
C277 C 0.78129 0.88501 0.97195 0.0
C278 C 0.77591 0.86063 0.99987 0.0
C279 C 0.72263 0.90577 0.93364 0.0
C280 C 0.77817 0.86754 0.90511 0.0
H281 H 0.88756 0.92815 0.08056 0.0
H282 H 0.83092 0.82248 0.13619 0.0
H283 H 0.84667 0.8034 0.0491 0.0
H284 H 0.79933 0.79204 0.0315 0.0
H285 H 0.80986 0.78496 0.07914 0.0
H286 H 0.75679 0.86249 0.10505 0.0
H287 H 0.75482 0.81659 0.10373 0.0
H288 H 0.73256 0.84246 0.06827 0.0
H289 H 0.89088 1.0028 0.97205 0.0
H290 H 0.81875 0.98932 0.87516 0.0
H291 H 0.78836 0.93838 0.90154 0.0
H292 H 0.82237 0.9879 0.02888 0.0
H293 H 0.8736 0.98965 0.04359 0.0
H294 H 0.838 0.96028 0.06381 0.0
H295 H 0.91361 0.92459 0.98128 0.0
H296 H 0.91059 0.91293 0.0275 0.0
H297 H 0.92411 0.95626 0.01551 0.0
H298 H 0.90976 0.91042 0.1401 0.0
C299 C 0.87456 0.9052 0.09151 0.0
C300 C 0.31609 0.18826 0.43379 0.0
C301 C 0.33317 0.21745 0.45025 0.0
C302 C 0.32233 0.22562 0.48649 0.0
C303 C 0.27729 0.17679 0.48879 0.0
C304 C 0.28834 0.16839 0.45348 0.0
C305 C 0.26751 0.13644 0.4402 0.0
H306 H 0.13123 0.01039 0.47141 0.0
C307 C 0.24784 0.15105 0.50164 0.0
C308 C 0.24207 0.1272 0.47327 0.0
H309 H 0.20391 0.02493 0.37472 0.0
H310 H 0.23551 0.07445 0.40246 0.0
H311 H 0.20093 0.02091 0.52683 0.0
H312 H 0.11116 0.08915 0.48542 0.0
H313 H 0.11479 0.09683 0.53259 0.0
H314 H 0.10048 0.05488 0.51667 0.0
H315 H 0.15082 0.02111 0.54464 0.0
H316 H 0.18957 0.04844 0.56324 0.0
C317 C 0.29975 0.10895 0.43222 0.0
C318 C 0.24149 0.14606 0.40678 0.0
C319 C 0.18449 0.16188 0.62828 0.0
C320 C 0.15622 0.14158 0.64707 0.0
C321 C 0.14126 0.11174 0.6302 0.0
C322 C 0.15363 0.10242 0.59509 0.0
C323 C 0.18141 0.12306 0.57637 0.0
C324 C 0.19674 0.15204 0.59303 0.0
C325 C 0.22665 0.17029 0.56892 0.0
C326 C 0.2263 0.1476 0.53505 0.0
C327 C 0.19951 0.12018 0.53965 0.0
C328 C 0.26791 0.16991 0.58834 0.0
C329 C 0.21026 0.20656 0.56081 0.0
C330 C 0.15421 0.02399 0.45624 0.0
C331 C 0.1647 0.01387 0.42065 0.0
C332 C 0.19461 0.03256 0.40188 0.0
C333 C 0.21311 0.06119 0.41815 0.0
C334 C 0.20177 0.07118 0.45366 0.0
C335 C 0.17305 0.05233 0.47211 0.0
C336 C 0.16507 0.06586 0.5098 0.0
C337 C 0.19345 0.09623 0.511 0.0
C338 C 0.21474 0.0995 0.47802 0.0
C339 C 0.17684 0.03774 0.53777 0.0
C340 C 0.12055 0.07713 0.51161 0.0
H341 H 0.28754 0.21324 0.53317 0.0
H342 H 0.32394 0.18117 0.40608 0.0
H343 H 0.22626 0.17103 0.41135 0.0
H344 H 0.21715 0.12754 0.4015 0.0
H345 H 0.26017 0.1485 0.38175 0.0
H346 H 0.32489 0.11081 0.45208 0.0
H347 H 0.31253 0.11217 0.40438 0.0
H348 H 0.28824 0.08254 0.43518 0.0
H349 H 0.19683 0.18475 0.64074 0.0
H350 H 0.11922 0.0959 0.644 0.0
H351 H 0.14068 0.0796 0.5838 0.0
H352 H 0.27168 0.14615 0.60475 0.0
H353 H 0.2711 0.19205 0.60719 0.0
H354 H 0.29337 0.16978 0.569 0.0
H355 H 0.17736 0.20564 0.55588 0.0
H356 H 0.22316 0.21808 0.5359 0.0
H357 H 0.21565 0.2241 0.58422 0.0
H358 H 0.33588 0.24732 0.50023 0.0
C359 C 0.29448 0.20558 0.50574 0.0
C360 C 0.18181 0.98881 0.93822 0.0
C361 C 0.15589 0.01267 0.95479 0.0
C362 C 0.14445 0.00786 0.99146 0.0
C363 C 0.18263 0.95531 0.99411 0.0
C364 C 0.19512 0.96051 0.95853 0.0
C365 C 0.22265 0.93238 0.9456 0.0
H366 H 0.32383 0.78615 0.98393 0.0
C367 C 0.19969 0.92267 0.00701 0.0
C368 C 0.22368 0.90919 0.97905 0.0
H369 H 0.32327 0.84341 0.88264 0.0
H370 H 0.27661 0.88367 0.90859 0.0
H371 H 0.32 0.84951 0.04189 0.0
H372 H 0.22749 0.78843 0.99112 0.0
H373 H 0.21224 0.79704 0.03608 0.0
H374 H 0.25707 0.77228 0.02818 0.0
H375 H 0.31376 0.80444 0.05023 0.0
H376 H 0.28526 0.83565 0.07532 0.0
C377 C 0.26414 0.94855 0.93745 0.0
C378 C 0.20289 0.91446 0.91239 0.0
C379 C 0.15321 0.87581 0.12851 0.0
C380 C 0.15925 0.84474 0.14681 0.0
C381 C 0.1881 0.82164 0.13332 0.0
C382 C 0.20897 0.8288 0.10066 0.0
C383 C 0.2007 0.8593 0.08148 0.0
C384 C 0.17363 0.88234 0.09598 0.0
C385 C 0.16728 0.91295 0.07203 0.0
C386 C 0.19416 0.90426 0.04001 0.0
C387 C 0.21389 0.87296 0.04555 0.0
C388 C 0.18217 0.94517 0.09293 0.0
C389 C 0.12233 0.91375 0.06102 0.0
C390 C 0.31323 0.80693 0.96698 0.0
C391 C 0.32753 0.81137 0.93099 0.0
C392 C 0.31338 0.8395 0.91054 0.0
C393 C 0.28609 0.86285 0.92561 0.0
C394 C 0.27224 0.85802 0.96152 0.0
C395 C 0.28525 0.83007 0.98135 0.0
C396 C 0.26507 0.82768 0.01814 0.0
C397 C 0.23948 0.85979 0.01782 0.0
C398 C 0.24399 0.8776 0.98461 0.0
C399 C 0.29758 0.82919 0.04819 0.0
C400 C 0.23926 0.7946 0.0188 0.0
H401 H 0.14724 0.97708 0.03875 0.0
H402 H 0.19105 0.99191 0.91002 0.0
H403 H 0.16975 0.91322 0.91573 0.0
H404 H 0.21234 0.88754 0.90922 0.0
H405 H 0.20933 0.92854 0.88666 0.0
H406 H 0.27171 0.96837 0.9582 0.0
H407 H 0.26442 0.96113 0.91022 0.0
H408 H 0.28891 0.92994 0.93874 0.0
H409 H 0.13183 0.89436 0.13875 0.0
H410 H 0.19349 0.79768 0.14736 0.0
H411 H 0.23015 0.81011 0.09122 0.0
H412 H 0.20591 0.93862 0.11308 0.0
H413 H 0.15733 0.95758 0.10818 0.0
H414 H 0.19649 0.96424 0.07468 0.0
H415 H 0.11074 0.88736 0.05622 0.0
H416 H 0.1167 0.92744 0.03519 0.0
H417 H 0.10375 0.92546 0.08289 0.0
H418 H 0.12388 0.02546 0.00457 0.0
C419 C 0.15776 0.97948 0.01119 0.0
C420 C 0.70233 0.18191 0.43717 0.0
C421 C 0.68286 0.20982 0.45399 0.0
C422 C 0.69291 0.21806 0.49043 0.0
C423 C 0.74061 0.17143 0.49244 0.0
C424 C 0.73031 0.16273 0.45708 0.0
C425 C 0.75145 0.13079 0.44435 0.0
H426 H 0.88224 1.00244 0.48209 0.0
C427 C 0.77024 0.14634 0.50569 0.0
C428 C 0.77611 0.12191 0.47791 0.0
H429 H 0.81772 0.01862 0.38141 0.0
H430 H 0.78573 0.06891 0.40735 0.0
H431 H 0.90757 0.07634 0.49142 0.0
H432 H 0.80951 0.01969 0.53731 0.0
H433 H 0.82772 0.04587 0.57265 0.0
H434 H 0.86047 0.01461 0.55192 0.0
H435 H 0.91387 0.04861 0.53 0.0
H436 H 0.90149 0.0933 0.53531 0.0
C437 C 0.77829 0.14025 0.41132 0.0
C438 C 0.71937 0.10315 0.43601 0.0
C439 C 0.84244 0.16559 0.62688 0.0
C440 C 0.87257 0.14672 0.64464 0.0
C441 C 0.88373 0.11454 0.6306 0.0
C442 C 0.86684 0.10196 0.59847 0.0
C443 C 0.83843 0.12172 0.57983 0.0
C444 C 0.82577 0.15254 0.59442 0.0
C445 C 0.79431 0.16921 0.57083 0.0
C446 C 0.79218 0.14417 0.53888 0.0
C447 C 0.81826 0.11661 0.54446 0.0
C448 C 0.81015 0.20476 0.5588 0.0
C449 C 0.75443 0.17046 0.59266 0.0
C450 C 0.8604 0.01624 0.46593 0.0
C451 C 0.85173 1.00616 0.43003 0.0
C452 C 0.82448 0.02576 0.40933 0.0
C453 C 0.80602 0.0549 0.42445 0.0
C454 C 0.81525 0.06472 0.4605 0.0
C455 C 0.8421 0.04537 0.48044 0.0
C456 C 0.85041 0.06024 0.51742 0.0
C457 C 0.82355 0.09146 0.51692 0.0
C458 C 0.80285 0.09409 0.48365 0.0
C459 C 0.89561 0.07 0.51902 0.0
C460 C 0.83669 0.03383 0.54656 0.0
H461 H 0.72799 0.20685 0.53712 0.0
H462 H 0.69619 0.17509 0.40907 0.0
H463 H 0.69462 0.10416 0.45641 0.0
H464 H 0.73114 0.07683 0.43773 0.0
H465 H 0.70604 0.1071 0.40854 0.0
H466 H 0.7929 0.1656 0.41561 0.0
H467 H 0.76037 0.14179 0.38581 0.0
H468 H 0.80316 0.12209 0.40713 0.0
H469 H 0.83314 0.1903 0.63729 0.0
H470 H 0.9063 0.0993 0.64428 0.0
H471 H 0.87733 0.07759 0.58903 0.0
H472 H 0.84155 0.20273 0.54871 0.0
H473 H 0.80991 0.22306 0.58205 0.0
H474 H 0.79277 0.21604 0.53623 0.0
H475 H 0.75365 0.15091 0.61478 0.0
H476 H 0.72809 0.1644 0.5754 0.0
H477 H 0.75001 0.19589 0.60567 0.0
H478 H 0.67812 0.23897 0.50442 0.0
C479 C 0.7217 0.1992 0.50958 0.0
Fe480 Fe 0.00991 0.80482 0.32273 0.0
Fe481 Fe 0.01248 0.85052 0.39101 0.0
O482 O 0.01062 0.84613 0.34295 0.0
Fe483 Fe 1.009 0.88308 0.31512 0.0
O484 O 0.96122 0.87029 0.29622 0.0
O485 O 0.97851 0.81747 0.28342 0.0
O486 O 0.96384 0.79368 0.34642 0.0
C487 C 0.95916 0.79473 0.38061 0.0
C488 C 0.05952 0.83791 0.27532 0.0
O489 O 0.9835 0.81133 0.40048 0.0
C490 C 0.06372 0.9039 0.36573 0.0
O491 O 0.04136 0.78477 0.35827 0.0
O492 O 0.05968 0.82794 0.39303 0.0
O493 O 0.03654 0.86361 0.27705 0.0
O494 O 0.05589 0.81331 0.29741 0.0
C495 C 0.95853 0.90082 0.37442 0.0
O496 O 0.04197 0.89042 0.3903 0.0
O497 O 0.05672 0.89844 0.33237 0.0
C498 C 0.06568 0.79822 0.38078 0.0
O499 O 0.96525 0.87363 0.39199 0.0
O500 O 0.98092 0.90928 0.34794 0.0
C501 C 0.95559 0.84297 0.27857 0.0
Fe502 Fe 1.00537 0.16693 0.89159 0.0
Fe503 Fe 0.01324 0.12921 0.81849 0.0
O504 O 0.01034 0.16792 0.84348 0.0
Fe505 Fe 0.01291 0.20776 0.82032 0.0
O506 O 0.058 0.21978 0.84501 0.0
O507 O 0.03471 0.20622 0.8993 0.0
O508 O 0.05194 0.1434 0.89672 0.0
C509 C 0.0596 0.11516 0.88148 0.0
C510 C 0.95474 0.21961 0.87557 0.0
O511 O 0.03928 0.1052 0.85429 0.0
C512 C 0.96484 0.17184 0.77403 0.0
O513 O 0.9753 0.12744 0.89251 0.0
O514 O 0.96453 0.11495 0.83478 0.0
O515 O 0.98053 0.23058 0.85293 0.0
O516 O 0.95847 0.19035 0.88975 0.0
C517 C 0.0687 0.16666 0.78101 0.0
O518 O 0.98778 0.14635 0.77818 0.0
O519 O 0.96799 0.19805 0.79402 0.0
C520 C 0.95515 0.11218 0.86806 0.0
O521 O 0.06217 0.14056 0.80045 0.0
O522 O 0.04569 0.19235 0.78325 0.0
C523 C 0.06068 0.22097 0.87939 0.0
Fe524 Fe 0.51421 0.30532 0.32168 0.0
Fe525 Fe 0.51242 0.35111 0.39044 0.0
O526 O 0.51535 0.34655 0.34238 0.0
Fe527 Fe 0.51963 0.38355 0.31464 0.0
O528 O 0.49381 0.36495 0.27533 0.0
O529 O 0.46979 0.31594 0.29498 0.0
O530 O 0.48039 0.28608 0.35586 0.0
C531 C 0.45748 0.2995 0.37949 0.0
C532 C 0.57348 0.34176 0.28096 0.0
O533 O 0.46478 0.32884 0.39223 0.0
C534 C 0.56763 0.40116 0.37543 0.0
O535 O 0.55817 0.29151 0.34655 0.0
O536 O 0.5408 0.312 0.40047 0.0
O537 O 0.56784 0.36957 0.29774 0.0
O538 O 0.54844 0.31728 0.28394 0.0
C539 C 0.46295 0.40477 0.36334 0.0
O540 O 0.56004 0.37389 0.39251 0.0
O541 O 0.54654 0.40958 0.34828 0.0
C542 C 0.56294 0.29333 0.38064 0.0
O543 O 0.48337 0.39107 0.38867 0.0
O544 O 0.47157 0.39968 0.33018 0.0
C545 C 0.4689 0.34064 0.27284 0.0
Fe546 Fe 0.50152 0.66651 0.89348 0.0
Fe547 Fe 0.5079 0.62792 0.82115 0.0
O548 O 0.50589 0.66719 0.8452 0.0
Fe549 Fe 0.50803 0.70683 0.82118 0.0
O550 O 0.53617 0.72927 0.85738 0.0
O551 O 0.54869 0.68929 0.89832 0.0
O552 O 0.52954 0.62651 0.89952 0.0
C553 C 0.55454 0.61128 0.87921 0.0
C554 C 0.45144 0.72154 0.87322 0.0
O555 O 0.55306 0.61463 0.84501 0.0
C556 C 0.45819 0.66479 0.77657 0.0
O557 O 0.454 0.64356 0.89151 0.0
O558 O 0.47533 0.6046 0.853 0.0
O559 O 0.46014 0.72049 0.83973 0.0
O560 O 0.47243 0.70613 0.89671 0.0
C561 C 0.56334 0.66959 0.78267 0.0
O562 O 0.46314 0.6384 0.79586 0.0
O563 O 0.48031 0.69099 0.78092 0.0
C564 C 0.44936 0.61513 0.87557 0.0
O565 O 0.5404 0.64387 0.78478 0.0
O566 O 0.55613 0.69662 0.80033 0.0
C567 C 0.55675 0.71787 0.88386 0.0
C568 C 0.12002 0.26807 0.95257 0.0
C569 C 0.1533 0.28113 0.93345 0.0
C570 C 0.09035 0.24886 0.9348 0.0
C571 C 0.09259 0.2419 0.89706 0.0
H572 H 0.11665 0.27299 0.98155 0.0
H573 H 0.06533 0.23954 0.95092 0.0
S574 S 0.17495 0.26884 0.83483 0.0
N575 N 0.18773 0.28473 0.87499 0.0
N576 N 0.13178 0.24893 0.84135 0.0
C577 C 0.12589 0.25471 0.87759 0.0
C578 C 0.15622 0.27426 0.8958 0.0
C579 C 0.8987 0.74798 0.45343 0.0
C580 C 0.8651 0.73565 0.43423 0.0
C581 C 0.92883 0.76691 0.43585 0.0
C582 C 0.92682 0.77421 0.39821 0.0
H583 H 0.90196 0.7427 0.48234 0.0
H584 H 0.95407 0.77568 0.45197 0.0
S585 S 0.84394 0.74943 0.33579 0.0
N586 N 0.83068 0.73334 0.37576 0.0
N587 N 0.88761 0.76843 0.34249 0.0
C588 C 0.89329 0.76212 0.37863 0.0
C589 C 0.86244 0.74296 0.39665 0.0
C590 C 0.8573 0.25023 0.91888 0.0
C591 C 0.85924 0.28604 0.91463 0.0
C592 C 0.88815 0.22896 0.90605 0.0
C593 C 0.92216 0.24264 0.88836 0.0
H594 H 0.83161 0.23851 0.93208 0.0
H595 H 0.8852 0.20155 0.9099 0.0
S596 S 0.94298 0.33504 0.87264 0.0
N597 N 0.8989 0.33437 0.89319 0.0
N598 N 0.95644 0.29458 0.86851 0.0
C599 C 0.92451 0.27847 0.88407 0.0
C600 C 0.89321 0.30009 0.89733 0.0
C601 C 0.12799 0.72196 0.41173 0.0
C602 C 0.16098 0.73753 0.4291 0.0
C603 C 0.09773 0.74167 0.39542 0.0
C604 C 0.09921 0.77773 0.39602 0.0
H605 H 0.12496 0.69432 0.4116 0.0
H606 H 0.07247 0.72853 0.38314 0.0
S607 S 0.18178 0.83089 0.43398 0.0
N608 N 0.1952 0.79107 0.44283 0.0
N609 N 0.13823 0.82809 0.4128 0.0
C610 C 0.13279 0.79356 0.41217 0.0
C611 C 0.16365 0.7735 0.42855 0.0
C612 C 0.65209 0.74295 0.93402 0.0
C613 C 0.65186 0.77902 0.93271 0.0
C614 C 0.62131 0.72351 0.91811 0.0
C615 C 0.58918 0.73926 0.89984 0.0
H616 H 0.67636 0.72955 0.94743 0.0
H617 H 0.62288 0.69584 0.91993 0.0
S618 S 0.57326 0.83287 0.88993 0.0
N619 N 0.61573 0.82972 0.9128 0.0
N620 N 0.55851 0.79316 0.88197 0.0
C621 C 0.58864 0.77528 0.89802 0.0
C622 C 0.6198 0.79513 0.91462 0.0
C623 C 0.39512 0.22335 0.41153 0.0
C624 C 0.36302 0.23888 0.43022 0.0
C625 C 0.42497 0.24309 0.39437 0.0
C626 C 0.424 0.27915 0.39537 0.0
H627 H 0.39784 0.19571 0.41102 0.0
H628 H 0.4496 0.22993 0.38115 0.0
S629 S 0.34374 0.33229 0.43684 0.0
N630 N 0.3301 0.29246 0.44573 0.0
N631 N 0.38639 0.32951 0.41409 0.0
C632 C 0.3913 0.29497 0.41288 0.0
C633 C 0.36082 0.27488 0.43014 0.0
C634 C 0.38963 0.8005 0.89357 0.0
C635 C 0.35778 0.78747 0.91497 0.0
C636 C 0.41921 0.77888 0.87905 0.0
C637 C 0.41848 0.74355 0.88599 0.0
H638 H 0.39233 0.82775 0.88862 0.0
H639 H 0.4435 0.79001 0.8633 0.0
S640 S 0.34058 0.69563 0.93711 0.0
N641 N 0.32596 0.73597 0.93931 0.0
N642 N 0.38299 0.69594 0.91378 0.0
C643 C 0.38684 0.72997 0.90672 0.0
C644 C 0.35615 0.75177 0.9208 0.0
C645 C 0.65115 0.26642 0.43874 0.0
C646 C 0.65226 0.23054 0.43408 0.0
C647 C 0.62197 0.28652 0.42152 0.0
C648 C 0.59343 0.27167 0.39822 0.0
H649 H 0.67311 0.27922 0.45575 0.0
H650 H 0.62206 0.31396 0.42606 0.0
S651 S 0.58121 0.17932 0.37791 0.0
N652 N 0.62002 0.18108 0.40582 0.0
N653 N 0.56687 0.21936 0.37184 0.0
C654 C 0.59414 0.23611 0.39291 0.0
C655 C 0.62317 0.21543 0.41117 0.0
C656 C 0.37306 0.56978 0.93594 0.0
C657 C 0.3642 0.53991 0.91589 0.0
C658 C 0.39892 0.59503 0.92197 0.0
C659 C 0.41732 0.59112 0.88758 0.0
H660 H 0.36083 0.57317 0.96315 0.0
H661 H 0.40593 0.61695 0.93898 0.0
S662 S 0.40115 0.51903 0.82286 0.0
N663 N 0.37384 0.50893 0.85896 0.0
N664 N 0.42197 0.55635 0.83248 0.0
C665 C 0.40695 0.56222 0.86646 0.0
C666 C 0.38052 0.53664 0.88064 0.0
C667 C 0.63034 0.48224 0.38374 0.0
C668 C 0.64835 0.479 0.41821 0.0
C669 C 0.60552 0.45639 0.36974 0.0
C670 C 0.59767 0.42612 0.38961 0.0
H671 H 0.63402 0.5056 0.36809 0.0
H672 H 0.59148 0.46072 0.34348 0.0
S673 S 0.64213 0.40338 0.47937 0.0
N674 N 0.66002 0.44198 0.47047 0.0
N675 N 0.61327 0.39328 0.44434 0.0
C676 C 0.61736 0.42177 0.42333 0.0
C677 C 0.64261 0.44824 0.4376 0.0
C678 C 0.58383 0.53704 0.93945 0.0
C679 C 0.62412 0.53078 0.93007 0.0
C680 C 0.56192 0.5631 0.92274 0.0
C681 C 0.579 0.58368 0.89534 0.0
H682 H 0.56898 0.52174 0.96017 0.0
H683 H 0.53111 0.56699 0.93124 0.0
S684 S 0.68282 0.57776 0.85977 0.0
N685 N 0.68018 0.54744 0.89121 0.0
N686 N 0.63812 0.59588 0.85875 0.0
C687 C 0.61874 0.5772 0.88465 0.0
C688 C 0.64148 0.55085 0.9022 0.0
C689 C 0.38839 0.45458 0.42043 0.0
C690 C 0.38139 0.4842 0.39946 0.0
C691 C 0.41346 0.42842 0.40777 0.0
C692 C 0.43228 0.43057 0.37343 0.0
H693 H 0.37535 0.45206 0.44743 0.0
H694 H 0.41893 0.40669 0.42548 0.0
S695 S 0.4219 0.50166 0.3068 0.0
N696 N 0.39402 0.51346 0.34192 0.0
N697 N 0.44039 0.46382 0.31767 0.0
C698 C 0.42379 0.45909 0.35123 0.0
C699 C 0.3985 0.486 0.36434 0.0
C700 C 0.89402 0.02985 0.8711 0.0
C701 C 0.87606 0.03135 0.90587 0.0
C702 C 0.9179 0.05695 0.85804 0.0
C703 C 0.9248 0.08641 0.87942 0.0
H704 H 0.89128 1.0069 0.85463 0.0
H705 H 0.93268 0.05399 0.83186 0.0
S706 S 0.87879 0.1053 0.96956 0.0
N707 N 0.86241 0.06653 0.95925 0.0
N708 N 0.90765 0.11712 0.93507 0.0
C709 C 0.90484 0.08908 0.91317 0.0
C710 C 0.8804 0.06166 0.92631 0.0
C711 C 0.13624 0.95448 0.42443 0.0
C712 C 0.14356 0.98422 0.40363 0.0
C713 C 0.11165 0.92808 0.41129 0.0
C714 C 0.09373 0.93007 0.3766 0.0
H715 H 0.1488 0.95197 0.45158 0.0
H716 H 0.10596 0.90621 0.4288 0.0
S717 S 0.10459 1.00164 0.31054 0.0
N718 N 0.13164 0.01362 0.3461 0.0
N719 N 0.08633 0.96351 0.32095 0.0
C720 C 0.10234 0.95883 0.35471 0.0
C721 C 0.12705 0.98599 0.36831 0.0
C722 C 0.11658 0.03307 0.90114 0.0
C723 C 0.13734 0.04076 0.93348 0.0
C724 C 0.09279 0.05772 0.88386 0.0
C725 C 0.08879 0.09109 0.89823 0.0
H726 H 0.11707 0.00732 0.89011 0.0
H727 H 0.07628 0.05004 0.85973 0.0
S728 S 0.14226 0.12534 0.97945 0.0
N729 N 0.1562 0.08484 0.97709 0.0
N730 N 0.11151 0.13136 0.94473 0.0
C731 C 0.11152 0.09966 0.92936 0.0
C732 C 0.13572 0.07446 0.94696 0.0
C733 C 0.89561 0.98172 0.38119 0.0
C734 C 0.87396 0.97699 0.41374 0.0
C735 C 0.92187 0.9565 0.36823 0.0
C736 C 0.92751 0.92544 0.38726 0.0
H737 H 0.89366 1.00574 0.36648 0.0
H738 H 0.93871 0.96193 0.34357 0.0
S739 S 0.87355 0.899 0.47162 0.0
N740 N 0.85675 0.93791 0.463 0.0
N741 N 0.90602 0.89036 0.4388 0.0
C742 C 0.90427 0.9197 0.41888 0.0
C743 C 0.8776 0.9455 0.43208 0.0
C744 C 0.44122 0.35116 0.1741 0.0
C745 C 0.39909 0.35032 0.17475 0.0
C746 C 0.46352 0.3457 0.2058 0.0
C747 C 0.4446 0.3388 0.23933 0.0
H748 H 0.45705 0.35778 0.14918 0.0
H749 H 0.49586 0.34833 0.20439 0.0
S750 S 0.33532 0.33054 0.25511 0.0
N751 N 0.33929 0.33965 0.21113 0.0
N752 N 0.38164 0.32877 0.27102 0.0
C753 C 0.40269 0.33539 0.24001 0.0
C754 C 0.37978 0.34127 0.20757 0.0
C755 C 0.61922 0.68903 0.69521 0.0
C756 C 0.63978 0.65808 0.68925 0.0
C757 C 0.59717 0.69436 0.72754 0.0
C758 C 0.59502 0.66877 0.75455 0.0
H759 H 0.61769 0.70806 0.67372 0.0
H760 H 0.5792 0.71731 0.73003 0.0
S761 S 0.6496 0.58624 0.75482 0.0
N762 N 0.66153 0.60401 0.71531 0.0
N763 N 0.61947 0.61366 0.77542 0.0
C764 C 0.61831 0.63917 0.75018 0.0
C765 C 0.64091 0.63392 0.71767 0.0
C766 C 0.62884 0.31628 0.19427 0.0
C767 C 0.65563 0.34372 0.18924 0.0
C768 C 0.60389 0.31471 0.22517 0.0
C769 C 0.60492 0.34055 0.25211 0.0
H770 H 0.62544 0.29702 0.17318 0.0
H771 H 0.58225 0.29404 0.2269 0.0
S772 S 0.67505 0.41471 0.25412 0.0
N773 N 0.68533 0.39496 0.21533 0.0
N774 N 0.63904 0.39205 0.27362 0.0
C775 C 0.63392 0.3667 0.24856 0.0
C776 C 0.65907 0.3683 0.21705 0.0
C777 C 0.41368 0.68088 0.68251 0.0
C778 C 0.38836 0.65242 0.67782 0.0
C779 C 0.43456 0.68591 0.71541 0.0
C780 C 0.43076 0.66258 0.74465 0.0
H781 H 0.41912 0.69825 0.65994 0.0
H782 H 0.45535 0.70721 0.71714 0.0
S783 S 0.36276 0.587 0.74737 0.0
N784 N 0.35702 0.60286 0.70589 0.0
N785 N 0.39542 0.61234 0.76791 0.0
C786 C 0.40307 0.63543 0.74097 0.0
C787 C 0.38213 0.63031 0.70748 0.0
C788 C 0.88443 0.87912 0.20799 0.0
C789 C 0.88684 0.85535 0.17929 0.0
C790 C 0.90437 0.87356 0.24105 0.0
C791 C 0.92804 0.84415 0.24662 0.0
H792 H 0.8683 0.90292 0.20427 0.0
H793 H 0.90276 0.89341 0.26169 0.0
S794 S 0.94057 0.77247 0.18077 0.0
N795 N 0.91169 0.80012 0.15917 0.0
N796 N 0.94947 0.78938 0.22134 0.0
C797 C 0.92841 0.81903 0.21889 0.0
C798 C 0.90782 0.82473 0.18518 0.0
C799 C 0.13917 0.12673 0.71167 0.0
C800 C 0.14065 0.15133 0.68365 0.0
C801 C 0.11816 0.13288 0.74417 0.0
C802 C 0.09738 0.16382 0.74989 0.0
H803 H 0.15307 0.10193 0.70782 0.0
H804 H 0.11663 0.11245 0.76415 0.0
S805 S 0.09583 0.23807 0.6863 0.0
N806 N 0.12258 0.20883 0.66471 0.0
N807 N 0.08321 0.22075 0.72585 0.0
C808 C 0.10101 0.18958 0.72301 0.0
C809 C 0.12258 0.18325 0.68989 0.0
C810 C 0.15032 0.82988 0.21327 0.0
C811 C 0.13353 0.83663 0.17874 0.0
C812 C 0.12599 0.82841 0.24474 0.0
C813 C 0.08443 0.83395 0.24236 0.0
H814 H 0.18251 0.82751 0.2162 0.0
H815 H 0.13995 0.82475 0.27115 0.0
S816 S 0.02538 0.84683 0.15777 0.0
N817 N 0.07234 0.8443 0.14364 0.0
N818 N 0.02709 0.84242 0.2026 0.0
C819 C 0.06718 0.83848 0.20777 0.0
C820 C 0.09164 0.83956 0.17596 0.0
C821 C 0.9369 0.15969 0.67571 0.0
C822 C 0.89475 0.16036 0.67653 0.0
C823 C 0.95935 0.16563 0.70723 0.0
C824 C 0.94053 0.17295 0.74064 0.0
H825 H 0.95262 0.15287 0.65081 0.0
H826 H 0.99169 0.16309 0.7058 0.0
S827 S 0.83139 0.18111 0.7568 0.0
N828 N 0.83511 0.17133 0.71296 0.0
N829 N 0.87781 0.18326 0.77246 0.0
C830 C 0.89866 0.17622 0.74147 0.0
C831 C 0.87559 0.16979 0.70926 0.0
loop_
_geom_bond_atom_site_label_1
_geom_bond_atom_site_label_2
_geom_bond_distance
_geom_bond_site_symmetry_2
_ccdc_geom_bond_type
C0 C1 1.391 . S
C0 C4 1.391 . S
C0 H42 0.948 . S
C1 C0 1.391 . S
C1 C2 1.391 . S
C2 C1 1.391 . S
C2 H58 0.947 . S
C2 C59 1.392 . S
C3 C4 1.391 . S
C3 C7 1.397 . S
C3 C59 1.419 . S
C4 C0 1.391 . S
C4 C3 1.391 . S
C4 C5 1.399 . S
C5 C4 1.399 . S
C5 C8 1.396 . S
C5 C17 1.453 . S
C5 C18 1.684 . S
H6 C30 0.948 . S
C7 C3 1.397 . S
C7 C8 1.394 . S
C7 C26 1.723 . S
C8 C5 1.396 . S
C8 C7 1.394 . S
C8 C38 1.746 . S
H9 C32 0.936 1_554 S
H10 C33 0.948 . S
H11 C39 0.982 . S
H12 C40 0.979 . S
H13 C40 0.980 . S
H14 C40 0.983 . S
H15 C39 0.979 . S
H16 C39 0.977 . S
C17 C5 1.453 . S
C17 H46 0.982 . S
C17 H47 0.979 . S
C17 H48 0.977 . S
C18 C5 1.684 . S
C18 H43 0.979 . S
C18 H44 0.980 . S
C18 H45 0.983 . S
C19 C20 1.391 . S
C19 C24 1.391 . S
C19 H49 0.948 . S
C20 C19 1.391 . S
C20 C21 1.391 . S
C21 C20 1.391 . S
C21 C22 1.392 . S
C21 H50 0.947 . S
C22 C21 1.392 . S
C22 C23 1.419 . S
C22 H51 0.948 . S
C23 C22 1.419 . S
C23 C24 1.391 . S
C23 C27 1.397 . S
C24 C19 1.391 . S
C24 C23 1.391 . S
C24 C25 1.399 1_556 S
C25 C24 1.399 1_554 S
C25 C26 1.396 . S
C25 C28 1.453 . S
C25 C29 1.684 . S
C26 C7 1.723 . S
C26 C25 1.396 . S
C26 C27 1.394 1_554 S
C27 C23 1.397 . S
C27 C26 1.394 1_556 S
C27 C37 1.723 . S
C28 C25 1.453 . S
C28 H52 0.982 . S
C28 H53 0.979 . S
C28 H54 0.977 . S
C29 C25 1.684 . S
C29 H55 0.979 . S
C29 H56 0.980 . S
C29 H57 0.983 . S
C30 H6 0.948 . S
C30 C31 1.391 . S
C30 C35 1.391 . S
C31 C30 1.391 . S
C31 C32 1.391 . S
C32 H9 0.936 1_556 S
C32 C31 1.391 . S
C32 C33 1.392 1_556 S
C33 H10 0.948 . S
C33 C32 1.392 1_554 S
C33 C34 1.419 1_554 S
C34 C33 1.419 1_556 S
C34 C35 1.391 . S
C34 C38 1.389 1_556 S
C35 C30 1.391 . S
C35 C34 1.391 . S
C35 C36 1.399 . S
C36 C35 1.399 . S
C36 C37 1.396 . S
C36 C39 1.453 . S
C36 C40 1.684 . S
C37 C27 1.723 . S
C37 C36 1.396 . S
C37 C38 1.376 1_556 S
C38 C8 1.746 . S
C38 C34 1.389 1_554 S
C38 C37 1.376 1_554 S
C39 H11 0.982 . S
C39 H15 0.979 . S
C39 H16 0.977 . S
C39 C36 1.453 . S
C40 H12 0.979 . S
C40 H13 0.980 . S
C40 H14 0.983 . S
C40 C36 1.684 . S
H41 C59 0.948 . S
H42 C0 0.948 . S
H43 C18 0.979 . S
H44 C18 0.980 . S
H45 C18 0.983 . S
H46 C17 0.982 . S
H47 C17 0.979 . S
H48 C17 0.977 . S
H49 C19 0.948 . S
H50 C21 0.947 . S
H51 C22 0.948 . S
H52 C28 0.982 . S
H53 C28 0.979 . S
H54 C28 0.977 . S
H55 C29 0.979 . S
H56 C29 0.980 . S
H57 C29 0.983 . S
H58 C2 0.947 . S
C59 C2 1.392 . S
C59 C3 1.419 . S
C59 H41 0.948 . S
C60 C61 1.391 . S
C60 C64 1.391 . S
C60 H102 0.948 . S
C61 C60 1.391 . S
C61 C62 1.391 . S
C62 C61 1.391 . S
C62 H118 0.947 . S
C62 C119 1.392 . S
C63 C64 1.391 . S
C63 C67 1.397 . S
C63 C119 1.419 . S
C64 C60 1.391 . S
C64 C63 1.391 . S
C64 C65 1.399 . S
C65 C64 1.399 . S
C65 C68 1.396 . S
C65 C77 1.453 . S
C65 C78 1.684 . S
H66 C90 0.948 . S
C67 C63 1.397 . S
C67 C68 1.394 . S
C67 C86 1.723 . S
C68 C65 1.396 . S
C68 C67 1.394 . S
C68 C98 1.723 . S
H69 C92 0.947 . S
H70 C93 0.948 . S
H71 C99 0.982 . S
H72 C100 0.979 . S
H73 C100 0.980 . S
H74 C100 0.983 . S
H75 C99 0.979 . S
H76 C99 0.977 . S
C77 C65 1.453 . S
C77 H106 0.982 . S
C77 H107 0.979 . S
C77 H108 0.977 . S
C78 C65 1.684 . S
C78 H103 0.979 . S
C78 H104 0.980 . S
C78 H105 0.983 . S
C79 C80 1.391 . S
C79 C84 1.391 . S
C79 H109 0.948 . S
C80 C79 1.391 . S
C80 C81 1.391 . S
C81 C80 1.391 . S
C81 C82 1.392 . S
C81 H110 0.947 . S
C82 C81 1.392 . S
C82 C83 1.419 . S
C82 H111 0.948 . S
C83 C82 1.419 . S
C83 C84 1.391 . S
C83 C87 1.397 . S
C84 C79 1.391 . S
C84 C83 1.391 . S
C84 C85 1.399 . S
C85 C84 1.399 . S
C85 C86 1.396 . S
C85 C88 1.453 . S
C85 C89 1.684 . S
C86 C67 1.723 . S
C86 C85 1.396 . S
C86 C87 1.394 . S
C87 C83 1.397 . S
C87 C86 1.394 . S
C87 C97 1.723 . S
C88 C85 1.453 . S
C88 H112 0.982 . S
C88 H113 0.979 . S
C88 H114 0.977 . S
C89 C85 1.684 . S
C89 H115 0.979 . S
C89 H116 0.980 . S
C89 H117 0.983 . S
C90 H66 0.948 . S
C90 C91 1.391 . S
C90 C95 1.391 . S
C91 C90 1.391 . S
C91 C92 1.391 . S
C92 H69 0.947 . S
C92 C91 1.391 . S
C92 C93 1.392 . S
C93 H70 0.948 . S
C93 C92 1.392 . S
C93 C94 1.419 . S
C94 C93 1.419 . S
C94 C95 1.391 . S
C94 C98 1.397 . S
C95 C90 1.391 . S
C95 C94 1.391 . S
C95 C96 1.399 . S
C96 C95 1.399 . S
C96 C97 1.396 . S
C96 C99 1.453 . S
C96 C100 1.684 . S
C97 C87 1.723 . S
C97 C96 1.396 . S
C97 C98 1.394 . S
C98 C68 1.723 . S
C98 C94 1.397 . S
C98 C97 1.394 . S
C99 H71 0.982 . S
C99 H75 0.979 . S
C99 H76 0.977 . S
C99 C96 1.453 . S
C100 H72 0.979 . S
C100 H73 0.980 . S
C100 H74 0.983 . S
C100 C96 1.684 . S
H101 C119 0.948 . S
H102 C60 0.948 . S
H103 C78 0.979 . S
H104 C78 0.980 . S
H105 C78 0.983 . S
H106 C77 0.982 . S
H107 C77 0.979 . S
H108 C77 0.977 . S
H109 C79 0.948 . S
H110 C81 0.947 . S
H111 C82 0.948 . S
H112 C88 0.982 . S
H113 C88 0.979 . S
H114 C88 0.977 . S
H115 C89 0.979 . S
H116 C89 0.980 . S
H117 C89 0.983 . S
H118 C62 0.947 . S
C119 C62 1.392 . S
C119 C63 1.419 . S
C119 H101 0.948 . S
C120 C121 1.391 . S
C120 C124 1.391 . S
C120 H162 0.948 . S
C121 C120 1.391 . S
C121 C122 1.391 . S
C122 C121 1.391 . S
C122 H178 0.947 . S
C122 C179 1.392 . S
C123 C124 1.391 . S
C123 C127 1.397 . S
C123 C179 1.419 . S
C124 C120 1.391 . S
C124 C123 1.391 . S
C124 C125 1.399 . S
C125 C124 1.399 . S
C125 C128 1.396 . S
C125 C137 1.453 . S
C125 C138 1.684 . S
H126 C150 0.948 . S
C127 C123 1.397 . S
C127 C128 1.394 . S
C127 C146 1.723 1_556 S
C128 C125 1.396 . S
C128 C127 1.394 . S
C128 C158 1.723 . S
H129 C152 0.947 . S
H130 C153 0.948 . S
H131 C159 0.982 . S
H132 C160 0.979 . S
H133 C160 0.980 . S
H134 C160 0.983 . S
H135 C159 0.979 . S
H136 C159 0.977 . S
C137 C125 1.453 . S
C137 H166 0.982 . S
C137 H167 0.979 . S
C137 H168 0.977 . S
C138 C125 1.684 . S
C138 H163 0.979 . S
C138 H164 0.980 . S
C138 H165 0.983 . S
C139 C140 1.391 . S
C139 C144 1.391 . S
C139 H169 0.948 . S
C140 C139 1.391 . S
C140 C141 1.391 . S
C141 C140 1.391 . S
C141 C142 1.392 . S
C141 H170 0.947 . S
C142 C141 1.392 . S
C142 C143 1.419 . S
C142 H171 0.948 . S
C143 C142 1.419 . S
C143 C144 1.391 . S
C143 C147 1.397 . S
C144 C139 1.391 . S
C144 C143 1.391 . S
C144 C145 1.399 . S
C145 C144 1.399 . S
C145 C146 1.396 . S
C145 C148 1.453 . S
C145 C149 1.684 . S
C146 C127 1.723 1_554 S
C146 C145 1.396 . S
C146 C147 1.394 . S
C147 C143 1.397 . S
C147 C146 1.394 . S
C147 C157 1.723 . S
C148 C145 1.453 . S
C148 H172 0.982 . S
C148 H173 0.979 . S
C148 H174 0.977 . S
C149 C145 1.684 . S
C149 H175 0.979 . S
C149 H176 0.980 . S
C149 H177 0.983 . S
C150 H126 0.948 . S
C150 C151 1.391 . S
C150 C155 1.391 . S
C151 C150 1.391 . S
C151 C152 1.391 . S
C152 H129 0.947 . S
C152 C151 1.391 . S
C152 C153 1.392 . S
C153 H130 0.948 . S
C153 C152 1.392 . S
C153 C154 1.419 . S
C154 C153 1.419 . S
C154 C155 1.391 . S
C154 C158 1.397 . S
C155 C150 1.391 . S
C155 C154 1.391 . S
C155 C156 1.399 1_556 S
C156 C155 1.399 1_554 S
C156 C157 1.396 . S
C156 C159 1.453 . S
C156 C160 1.684 . S
C157 C147 1.723 . S
C157 C156 1.396 . S
C157 C158 1.394 1_554 S
C158 C128 1.723 . S
C158 C154 1.397 . S
C158 C157 1.394 1_556 S
C159 H131 0.982 . S
C159 H135 0.979 . S
C159 H136 0.977 . S
C159 C156 1.453 . S
C160 H132 0.979 . S
C160 H133 0.980 . S
C160 H134 0.983 . S
C160 C156 1.684 . S
H161 C179 0.948 1_554 S
H162 C120 0.948 . S
H163 C138 0.979 . S
H164 C138 0.980 . S
H165 C138 0.983 . S
H166 C137 0.982 . S
H167 C137 0.979 . S
H168 C137 0.977 . S
H169 C139 0.948 . S
H170 C141 0.947 . S
H171 C142 0.948 . S
H172 C148 0.982 . S
H173 C148 0.979 . S
H174 C148 0.977 . S
H175 C149 0.979 . S
H176 C149 0.980 . S
H177 C149 0.983 . S
H178 C122 0.947 . S
C179 C122 1.392 . S
C179 C123 1.419 . S
C179 H161 0.948 1_556 S
C180 C181 1.391 . S
C180 C184 1.391 . S
C180 H222 0.948 . S
C181 C180 1.391 . S
C181 C182 1.391 . S
C182 C181 1.391 . S
C182 H238 0.947 . S
C182 C239 1.392 . S
C183 C184 1.391 . S
C183 C187 1.397 . S
C183 C239 1.419 . S
C184 C180 1.391 . S
C184 C183 1.391 . S
C184 C185 1.399 . S
C185 C184 1.399 . S
C185 C188 1.396 . S
C185 C197 1.453 . S
C185 C198 1.684 . S
H186 C210 0.948 . S
C187 C183 1.397 . S
C187 C188 1.394 . S
C187 C206 1.723 . S
C188 C185 1.396 . S
C188 C187 1.394 . S
C188 C218 1.723 . S
H189 C212 0.947 . S
H190 C213 0.948 . S
H191 C219 0.982 . S
H192 C220 0.979 . S
H193 C220 0.980 . S
H194 C220 0.983 . S
H195 C219 0.979 . S
H196 C219 0.977 . S
C197 C185 1.453 . S
C197 H226 0.982 . S
C197 H227 0.979 . S
C197 H228 0.977 . S
C198 C185 1.684 . S
C198 H223 0.979 . S
C198 H224 0.980 . S
C198 H225 0.983 . S
C199 C200 1.391 . S
C199 C204 1.391 . S
C199 H229 0.948 . S
C200 C199 1.391 . S
C200 C201 1.391 . S
C201 C200 1.391 . S
C201 C202 1.392 . S
C201 H230 0.947 . S
C202 C201 1.392 . S
C202 C203 1.419 . S
C202 H231 0.948 . S
C203 C202 1.419 . S
C203 C204 1.391 . S
C203 C207 1.397 . S
C204 C199 1.391 . S
C204 C203 1.391 . S
C204 C205 1.399 . S
C205 C204 1.399 . S
C205 C206 1.396 . S
C205 C208 1.453 . S
C205 C209 1.684 . S
C206 C187 1.723 . S
C206 C205 1.396 . S
C206 C207 1.394 . S
C207 C203 1.397 . S
C207 C206 1.394 . S
C207 C217 1.723 . S
C208 C205 1.453 . S
C208 H232 0.982 . S
C208 H233 0.979 . S
C208 H234 0.977 . S
C209 C205 1.684 . S
C209 H235 0.979 . S
C209 H236 0.980 . S
C209 H237 0.983 . S
C210 H186 0.948 . S
C210 C211 1.391 . S
C210 C215 1.391 . S
C211 C210 1.391 . S
C211 C212 1.391 . S
C212 H189 0.947 . S
C212 C211 1.391 . S
C212 C213 1.392 . S
C213 H190 0.948 . S
C213 C212 1.392 . S
C213 C214 1.419 . S
C214 C213 1.419 . S
C214 C215 1.391 . S
C214 C218 1.397 . S
C215 C210 1.391 . S
C215 C214 1.391 . S
C215 C216 1.399 . S
C216 C215 1.399 . S
C216 C217 1.396 . S
C216 C219 1.453 . S
C216 C220 1.684 . S
C217 C207 1.723 . S
C217 C216 1.396 . S
C217 C218 1.394 . S
C218 C188 1.723 . S
C218 C214 1.397 . S
C218 C217 1.394 . S
C219 H191 0.982 . S
C219 H195 0.979 . S
C219 H196 0.977 . S
C219 C216 1.453 . S
C220 H192 0.979 . S
C220 H193 0.980 . S
C220 H194 0.983 . S
C220 C216 1.684 . S
H221 C239 0.948 . S
H222 C180 0.948 . S
H223 C198 0.979 . S
H224 C198 0.980 . S
H225 C198 0.983 . S
H226 C197 0.982 . S
H227 C197 0.979 . S
H228 C197 0.977 . S
H229 C199 0.948 . S
H230 C201 0.947 . S
H231 C202 0.948 . S
H232 C208 0.982 . S
H233 C208 0.979 . S
H234 C208 0.977 . S
H235 C209 0.979 . S
H236 C209 0.980 . S
H237 C209 0.983 . S
H238 C182 0.947 . S
C239 C182 1.392 . S
C239 C183 1.419 . S
C239 H221 0.948 . S
C240 C241 1.391 . S
C240 C244 1.391 . S
C240 H282 0.948 . S
C241 C240 1.391 . S
C241 C242 1.391 . S
C242 C241 1.391 . S
C242 H298 0.947 . S
C242 C299 1.392 . S
C243 C244 1.391 . S
C243 C247 1.397 . S
C243 C299 1.419 . S
C244 C240 1.391 . S
C244 C243 1.391 . S
C244 C245 1.399 . S
C245 C244 1.399 . S
C245 C248 1.396 . S
C245 C257 1.453 . S
C245 C258 1.684 . S
H246 C270 0.948 . S
C247 C243 1.397 . S
C247 C248 1.394 . S
C247 C266 1.723 . S
C248 C245 1.396 . S
C248 C247 1.394 . S
C248 C278 1.746 . S
H249 C272 0.936 1_554 S
H250 C273 0.948 . S
H251 C279 0.982 . S
H252 C280 0.979 . S
H253 C280 0.980 . S
H254 C280 0.983 . S
H255 C279 0.979 . S
H256 C279 0.977 . S
C257 C245 1.453 . S
C257 H286 0.982 . S
C257 H287 0.979 . S
C257 H288 0.977 . S
C258 C245 1.684 . S
C258 H283 0.979 . S
C258 H284 0.980 . S
C258 H285 0.983 . S
C259 C260 1.391 1_565 S
C259 C264 1.391 . S
C259 H289 0.948 1_565 S
C260 C259 1.391 1_545 S
C260 C261 1.391 1_545 S
C261 C260 1.391 1_565 S
C261 C262 1.392 . S
C261 H290 0.947 . S
C262 C261 1.392 . S
C262 C263 1.419 . S
C262 H291 0.948 . S
C263 C262 1.419 . S
C263 C264 1.391 . S
C263 C267 1.397 . S
C264 C259 1.391 . S
C264 C263 1.391 . S
C264 C265 1.399 1_556 S
C265 C264 1.399 1_554 S
C265 C266 1.396 . S
C265 C268 1.453 . S
C265 C269 1.684 . S
C266 C247 1.723 . S
C266 C265 1.396 . S
C266 C267 1.394 1_554 S
C267 C263 1.397 . S
C267 C266 1.394 1_556 S
C267 C277 1.723 . S
C268 C265 1.453 . S
C268 H292 0.982 . S
C268 H293 0.979 . S
C268 H294 0.977 . S
C269 C265 1.684 . S
C269 H295 0.979 . S
C269 H296 0.980 . S
C269 H297 0.983 . S
C270 H246 0.948 . S
C270 C271 1.391 . S
C270 C275 1.391 . S
C271 C270 1.391 . S
C271 C272 1.391 . S
C272 H249 0.936 1_556 S
C272 C271 1.391 . S
C272 C273 1.392 1_556 S
C273 H250 0.948 . S
C273 C272 1.392 1_554 S
C273 C274 1.419 1_554 S
C274 C273 1.419 1_556 S
C274 C275 1.391 . S
C274 C278 1.389 1_556 S
C275 C270 1.391 . S
C275 C274 1.391 . S
C275 C276 1.399 . S
C276 C275 1.399 . S
C276 C277 1.396 . S
C276 C279 1.453 . S
C276 C280 1.684 . S
C277 C267 1.723 . S
C277 C276 1.396 . S
C277 C278 1.376 1_556 S
C278 C248 1.746 . S
C278 C274 1.389 1_554 S
C278 C277 1.376 1_554 S
C279 H251 0.982 . S
C279 H255 0.979 . S
C279 H256 0.977 . S
C279 C276 1.453 . S
C280 H252 0.979 . S
C280 H253 0.980 . S
C280 H254 0.983 . S
C280 C276 1.684 . S
H281 C299 0.948 . S
H282 C240 0.948 . S
H283 C258 0.979 . S
H284 C258 0.980 . S
H285 C258 0.983 . S
H286 C257 0.982 . S
H287 C257 0.979 . S
H288 C257 0.977 . S
H289 C259 0.948 1_545 S
H290 C261 0.947 . S
H291 C262 0.948 . S
H292 C268 0.982 . S
H293 C268 0.979 . S
H294 C268 0.977 . S
H295 C269 0.979 . S
H296 C269 0.980 . S
H297 C269 0.983 . S
H298 C242 0.947 . S
C299 C242 1.392 . S
C299 C243 1.419 . S
C299 H281 0.948 . S
C300 C301 1.391 . S
C300 C304 1.391 . S
C300 H342 0.948 . S
C301 C300 1.391 . S
C301 C302 1.391 . S
C302 C301 1.391 . S
C302 H358 0.947 . S
C302 C359 1.392 . S
C303 C304 1.391 . S
C303 C307 1.397 . S
C303 C359 1.419 . S
C304 C300 1.391 . S
C304 C303 1.391 . S
C304 C305 1.399 . S
C305 C304 1.399 . S
C305 C308 1.396 . S
C305 C317 1.453 . S
C305 C318 1.684 . S
H306 C330 0.948 1_565 S
C307 C303 1.397 . S
C307 C308 1.394 . S
C307 C326 1.723 . S
C308 C305 1.396 . S
C308 C307 1.394 . S
C308 C338 1.723 . S
H309 C332 0.947 . S
H310 C333 0.948 . S
H311 C339 0.982 . S
H312 C340 0.979 . S
H313 C340 0.980 . S
H314 C340 0.983 . S
H315 C339 0.979 . S
H316 C339 0.977 . S
C317 C305 1.453 . S
C317 H346 0.982 . S
C317 H347 0.979 . S
C317 H348 0.977 . S
C318 C305 1.684 . S
C318 H343 0.979 . S
C318 H344 0.980 . S
C318 H345 0.983 . S
C319 C320 1.391 . S
C319 C324 1.391 . S
C319 H349 0.948 . S
C320 C319 1.391 . S
C320 C321 1.391 . S
C321 C320 1.391 . S
C321 C322 1.392 . S
C321 H350 0.947 . S
C322 C321 1.392 . S
C322 C323 1.419 . S
C322 H351 0.948 . S
C323 C322 1.419 . S
C323 C324 1.391 . S
C323 C327 1.397 . S
C324 C319 1.391 . S
C324 C323 1.391 . S
C324 C325 1.399 . S
C325 C324 1.399 . S
C325 C326 1.396 . S
C325 C328 1.453 . S
C325 C329 1.684 . S
C326 C307 1.723 . S
C326 C325 1.396 . S
C326 C327 1.394 . S
C327 C323 1.397 . S
C327 C326 1.394 . S
C327 C337 1.723 . S
C328 C325 1.453 . S
C328 H352 0.982 . S
C328 H353 0.979 . S
C328 H354 0.977 . S
C329 C325 1.684 . S
C329 H355 0.979 . S
C329 H356 0.980 . S
C329 H357 0.983 . S
C330 H306 0.948 1_545 S
C330 C331 1.391 1_545 S
C330 C335 1.391 . S
C331 C330 1.391 1_565 S
C331 C332 1.391 1_565 S
C332 H309 0.947 . S
C332 C331 1.391 1_545 S
C332 C333 1.392 . S
C333 H310 0.948 . S
C333 C332 1.392 . S
C333 C334 1.419 . S
C334 C333 1.419 . S
C334 C335 1.391 . S
C334 C338 1.397 . S
C335 C330 1.391 . S
C335 C334 1.391 . S
C335 C336 1.399 . S
C336 C335 1.399 . S
C336 C337 1.396 . S
C336 C339 1.453 . S
C336 C340 1.684 . S
C337 C327 1.723 . S
C337 C336 1.396 . S
C337 C338 1.394 . S
C338 C308 1.723 . S
C338 C334 1.397 . S
C338 C337 1.394 . S
C339 H311 0.982 . S
C339 H315 0.979 . S
C339 H316 0.977 . S
C339 C336 1.453 . S
C340 H312 0.979 . S
C340 H313 0.980 . S
C340 H314 0.983 . S
C340 C336 1.684 . S
H341 C359 0.948 . S
H342 C300 0.948 . S
H343 C318 0.979 . S
H344 C318 0.980 . S
H345 C318 0.983 . S
H346 C317 0.982 . S
H347 C317 0.979 . S
H348 C317 0.977 . S
H349 C319 0.948 . S
H350 C321 0.947 . S
H351 C322 0.948 . S
H352 C328 0.982 . S
H353 C328 0.979 . S
H354 C328 0.977 . S
H355 C329 0.979 . S
H356 C329 0.980 . S
H357 C329 0.983 . S
H358 C302 0.947 . S
C359 C302 1.392 . S
C359 C303 1.419 . S
C359 H341 0.948 . S
C360 C361 1.391 1_565 S
C360 C364 1.391 . S
C360 H402 0.948 . S
C361 C360 1.391 1_545 S
C361 C362 1.391 . S
C362 C361 1.391 . S
C362 H418 0.947 . S
C362 C419 1.392 1_545 S
C363 C364 1.391 . S
C363 C367 1.397 . S
C363 C419 1.419 . S
C364 C360 1.391 . S
C364 C363 1.391 . S
C364 C365 1.399 . S
C365 C364 1.399 . S
C365 C368 1.396 . S
C365 C377 1.453 . S
C365 C378 1.684 . S
H366 C390 0.948 . S
C367 C363 1.397 . S
C367 C368 1.394 . S
C367 C386 1.723 1_556 S
C368 C365 1.396 . S
C368 C367 1.394 . S
C368 C398 1.723 . S
H369 C392 0.947 . S
H370 C393 0.948 . S
H371 C399 0.982 . S
H372 C400 0.979 . S
H373 C400 0.980 . S
H374 C400 0.983 . S
H375 C399 0.979 . S
H376 C399 0.977 . S
C377 C365 1.453 . S
C377 H406 0.982 . S
C377 H407 0.979 . S
C377 H408 0.977 . S
C378 C365 1.684 . S
C378 H403 0.979 . S
C378 H404 0.980 . S
C378 H405 0.983 . S
C379 C380 1.391 . S
C379 C384 1.391 . S
C379 H409 0.948 . S
C380 C379 1.391 . S
C380 C381 1.391 . S
C381 C380 1.391 . S
C381 C382 1.392 . S
C381 H410 0.947 . S
C382 C381 1.392 . S
C382 C383 1.419 . S
C382 H411 0.948 . S
C383 C382 1.419 . S
C383 C384 1.391 . S
C383 C387 1.397 . S
C384 C379 1.391 . S
C384 C383 1.391 . S
C384 C385 1.399 . S
C385 C384 1.399 . S
C385 C386 1.396 . S
C385 C388 1.453 . S
C385 C389 1.684 . S
C386 C367 1.723 1_554 S
C386 C385 1.396 . S
C386 C387 1.394 . S
C387 C383 1.397 . S
C387 C386 1.394 . S
C387 C397 1.723 . S
C388 C385 1.453 . S
C388 H412 0.982 . S
C388 H413 0.979 . S
C388 H414 0.977 . S
C389 C385 1.684 . S
C389 H415 0.979 . S
C389 H416 0.980 . S
C389 H417 0.983 . S
C390 H366 0.948 . S
C390 C391 1.391 . S
C390 C395 1.391 . S
C391 C390 1.391 . S
C391 C392 1.391 . S
C392 H369 0.947 . S
C392 C391 1.391 . S
C392 C393 1.392 . S
C393 H370 0.948 . S
C393 C392 1.392 . S
C393 C394 1.419 . S
C394 C393 1.419 . S
C394 C395 1.391 . S
C394 C398 1.397 . S
C395 C390 1.391 . S
C395 C394 1.391 . S
C395 C396 1.399 1_556 S
C396 C395 1.399 1_554 S
C396 C397 1.396 . S
C396 C399 1.453 . S
C396 C400 1.684 . S
C397 C387 1.723 . S
C397 C396 1.396 . S
C397 C398 1.394 1_554 S
C398 C368 1.723 . S
C398 C394 1.397 . S
C398 C397 1.394 1_556 S
C399 H371 0.982 . S
C399 H375 0.979 . S
C399 H376 0.977 . S
C399 C396 1.453 . S
C400 H372 0.979 . S
C400 H373 0.980 . S
C400 H374 0.983 . S
C400 C396 1.684 . S
H401 C419 0.948 1_554 S
H402 C360 0.948 . S
H403 C378 0.979 . S
H404 C378 0.980 . S
H405 C378 0.983 . S
H406 C377 0.982 . S
H407 C377 0.979 . S
H408 C377 0.977 . S
H409 C379 0.948 . S
H410 C381 0.947 . S
H411 C382 0.948 . S
H412 C388 0.982 . S
H413 C388 0.979 . S
H414 C388 0.977 . S
H415 C389 0.979 . S
H416 C389 0.980 . S
H417 C389 0.983 . S
H418 C362 0.947 . S
C419 C362 1.392 1_565 S
C419 C363 1.419 . S
C419 H401 0.948 1_556 S
C420 C421 1.391 . S
C420 C424 1.391 . S
C420 H462 0.948 . S
C421 C420 1.391 . S
C421 C422 1.391 . S
C422 C421 1.391 . S
C422 H478 0.947 . S
C422 C479 1.392 . S
C423 C424 1.391 . S
C423 C427 1.397 . S
C423 C479 1.419 . S
C424 C420 1.391 . S
C424 C423 1.391 . S
C424 C425 1.399 . S
C425 C424 1.399 . S
C425 C428 1.396 . S
C425 C437 1.453 . S
C425 C438 1.684 . S
H426 C450 0.948 . S
C427 C423 1.397 . S
C427 C428 1.394 . S
C427 C446 1.723 . S
C428 C425 1.396 . S
C428 C427 1.394 . S
C428 C458 1.723 . S
H429 C452 0.943 1_565 S
H430 C453 0.948 . S
H431 C459 0.982 . S
H432 C460 0.980 1_565 S
H433 C460 0.980 . S
H434 C460 0.983 1_565 S
H435 C459 0.979 . S
H436 C459 0.977 . S
C437 C425 1.453 . S
C437 H466 0.982 . S
C437 H467 0.979 . S
C437 H468 0.977 . S
C438 C425 1.684 . S
C438 H463 0.979 . S
C438 H464 0.980 . S
C438 H465 0.983 . S
C439 C440 1.391 . S
C439 C444 1.391 . S
C439 H469 0.948 . S
C440 C439 1.391 . S
C440 C441 1.391 . S
C441 C440 1.391 . S
C441 C442 1.392 . S
C441 H470 0.947 . S
C442 C441 1.392 . S
C442 C443 1.419 . S
C442 H471 0.948 . S
C443 C442 1.419 . S
C443 C444 1.391 . S
C443 C447 1.397 . S
C444 C439 1.391 . S
C444 C443 1.391 . S
C444 C445 1.399 . S
C445 C444 1.399 . S
C445 C446 1.396 . S
C445 C448 1.453 . S
C445 C449 1.684 . S
C446 C427 1.723 . S
C446 C445 1.396 . S
C446 C447 1.394 . S
C447 C443 1.397 . S
C447 C446 1.394 . S
C447 C457 1.723 . S
C448 C445 1.453 . S
C448 H472 0.982 . S
C448 H473 0.979 . S
C448 H474 0.977 . S
C449 C445 1.684 . S
C449 H475 0.979 . S
C449 H476 0.980 . S
C449 H477 0.983 . S
C450 H426 0.948 . S
C450 C451 1.391 . S
C450 C455 1.391 1_565 S
C451 C450 1.391 . S
C451 C452 1.391 1_565 S
C452 H429 0.943 1_545 S
C452 C451 1.391 1_545 S
C452 C453 1.392 . S
C453 H430 0.948 . S
C453 C452 1.392 . S
C453 C454 1.419 . S
C454 C453 1.419 . S
C454 C455 1.391 . S
C454 C458 1.397 . S
C455 C450 1.391 1_545 S
C455 C454 1.391 . S
C455 C456 1.399 . S
C456 C455 1.399 . S
C456 C457 1.396 . S
C456 C459 1.453 . S
C456 C460 1.684 . S
C457 C447 1.723 . S
C457 C456 1.396 . S
C457 C458 1.394 . S
C458 C428 1.723 . S
C458 C454 1.397 . S
C458 C457 1.394 . S
C459 H431 0.982 . S
C459 H435 0.979 . S
C459 H436 0.977 . S
C459 C456 1.453 . S
C460 H432 0.980 1_545 S
C460 H433 0.980 . S
C460 H434 0.983 1_545 S
C460 C456 1.684 . S
H461 C479 0.948 . S
H462 C420 0.948 . S
H463 C438 0.979 . S
H464 C438 0.980 . S
H465 C438 0.983 . S
H466 C437 0.982 . S
H467 C437 0.979 . S
H468 C437 0.977 . S
H469 C439 0.948 . S
H470 C441 0.947 . S
H471 C442 0.948 . S
H472 C448 0.982 . S
H473 C448 0.979 . S
H474 C448 0.977 . S
H475 C449 0.979 . S
H476 C449 0.980 . S
H477 C449 0.983 . S
H478 C422 0.947 . S
C479 C422 1.392 . S
C479 C423 1.419 . S
C479 H461 0.948 . S
Fe480 O482 1.918 . S
Fe480 O485 1.997 1_455 S
Fe480 O486 2.002 1_455 S
Fe480 O491 1.976 . S
Fe480 O494 1.996 . S
Fe481 O482 1.918 . S
Fe481 O489 1.997 1_455 S
Fe481 O492 1.996 . S
Fe481 O496 1.976 . S
Fe481 O499 2.002 1_455 S
O482 Fe480 1.918 . S
O482 Fe481 1.918 . S
O482 Fe483 1.918 . S
Fe483 O482 1.918 . S
Fe483 O484 2.002 1_455 S
Fe483 O493 1.976 . S
Fe483 O497 1.996 . S
Fe483 O500 1.997 1_455 S
O484 Fe483 2.002 1_655 S
O484 C501 1.295 . S
O485 Fe480 1.997 1_655 S
O485 C501 1.235 . S
O486 Fe480 2.002 1_655 S
O486 C487 1.295 . S
C487 O486 1.295 . S
C487 O489 1.235 . S
C488 O493 1.287 . S
C488 O494 1.255 . S
O489 Fe481 1.997 1_655 S
O489 C487 1.235 . S
C490 O496 1.287 . S
C490 O497 1.255 . S
O491 Fe480 1.976 . S
O491 C498 1.287 . S
O492 Fe481 1.996 . S
O492 C498 1.255 . S
O493 Fe483 1.976 . S
O493 C488 1.287 . S
O494 Fe480 1.996 . S
O494 C488 1.255 . S
C495 O499 1.295 . S
C495 O500 1.235 . S
O496 Fe481 1.976 . S
O496 C490 1.287 . S
O497 Fe483 1.996 . S
O497 C490 1.255 . S
C498 O491 1.287 . S
C498 O492 1.255 . S
O499 Fe481 2.002 1_655 S
O499 C495 1.295 . S
O500 Fe483 1.997 1_655 S
O500 C495 1.235 . S
C501 O484 1.295 . S
C501 O485 1.235 . S
Fe502 O504 1.918 . S
Fe502 O507 1.997 1_655 S
Fe502 O508 2.002 1_655 S
Fe502 O513 1.976 . S
Fe502 O516 1.996 . S
Fe503 O504 1.918 . S
Fe503 O511 1.997 1_655 S
Fe503 O514 1.996 . S
Fe503 O518 1.976 . S
Fe503 O521 2.002 1_655 S
O504 Fe502 1.918 . S
O504 Fe503 1.918 . S
O504 Fe505 1.918 . S
Fe505 O504 1.918 . S
Fe505 O506 2.002 1_655 S
Fe505 O515 1.976 . S
Fe505 O519 1.996 . S
Fe505 O522 1.997 1_655 S
O506 Fe505 2.002 1_455 S
O506 C523 1.295 . S
O507 Fe502 1.997 1_455 S
O507 C523 1.235 . S
O508 Fe502 2.002 1_455 S
O508 C509 1.295 . S
C509 O508 1.295 . S
C509 O511 1.235 . S
C510 O515 1.287 . S
C510 O516 1.255 . S
O511 Fe503 1.997 1_455 S
O511 C509 1.235 . S
C512 O518 1.287 . S
C512 O519 1.255 . S
O513 Fe502 1.976 . S
O513 C520 1.287 . S
O514 Fe503 1.996 . S
O514 C520 1.255 . S
O515 Fe505 1.976 . S
O515 C510 1.287 . S
O516 Fe502 1.996 . S
O516 C510 1.255 . S
C517 O521 1.295 . S
C517 O522 1.235 . S
O518 Fe503 1.976 . S
O518 C512 1.287 . S
O519 Fe505 1.996 . S
O519 C512 1.255 . S
C520 O513 1.287 . S
C520 O514 1.255 . S
O521 Fe503 2.002 1_455 S
O521 C517 1.295 . S
O522 Fe505 1.997 1_455 S
O522 C517 1.235 . S
C523 O506 1.295 . S
C523 O507 1.235 . S
Fe524 O526 1.918 . S
Fe524 O529 1.997 . S
Fe524 O530 2.002 . S
Fe524 O535 1.976 . S
Fe524 O538 1.996 . S
Fe525 O526 1.918 . S
Fe525 O533 1.997 . S
Fe525 O536 1.996 . S
Fe525 O540 1.976 . S
Fe525 O543 2.002 . S
O526 Fe524 1.918 . S
O526 Fe525 1.918 . S
O526 Fe527 1.918 . S
Fe527 O526 1.918 . S
Fe527 O528 2.002 . S
Fe527 O537 1.976 . S
Fe527 O541 1.996 . S
Fe527 O544 1.997 . S
O528 Fe527 2.002 . S
O528 C545 1.295 . S
O529 Fe524 1.997 . S
O529 C545 1.235 . S
O530 Fe524 2.002 . S
O530 C531 1.295 . S
C531 O530 1.295 . S
C531 O533 1.235 . S
C532 O537 1.287 . S
C532 O538 1.255 . S
O533 Fe525 1.997 . S
O533 C531 1.235 . S
C534 O540 1.287 . S
C534 O541 1.255 . S
O535 Fe524 1.976 . S
O535 C542 1.287 . S
O536 Fe525 1.996 . S
O536 C542 1.255 . S
O537 Fe527 1.976 . S
O537 C532 1.287 . S
O538 Fe524 1.996 . S
O538 C532 1.255 . S
C539 O543 1.295 . S
C539 O544 1.235 . S
O540 Fe525 1.976 . S
O540 C534 1.287 . S
O541 Fe527 1.996 . S
O541 C534 1.255 . S
C542 O535 1.287 . S
C542 O536 1.255 . S
O543 Fe525 2.002 . S
O543 C539 1.295 . S
O544 Fe527 1.997 . S
O544 C539 1.235 . S
C545 O528 1.295 . S
C545 O529 1.235 . S
Fe546 O548 1.918 . S
Fe546 O551 1.997 . S
Fe546 O552 2.002 . S
Fe546 O557 1.976 . S
Fe546 O560 1.996 . S
Fe547 O548 1.918 . S
Fe547 O555 1.997 . S
Fe547 O558 1.996 . S
Fe547 O562 1.976 . S
Fe547 O565 2.002 . S
O548 Fe546 1.918 . S
O548 Fe547 1.918 . S
O548 Fe549 1.918 . S
Fe549 O548 1.918 . S
Fe549 O550 2.002 . S
Fe549 O559 1.976 . S
Fe549 O563 1.996 . S
Fe549 O566 1.997 . S
O550 Fe549 2.002 . S
O550 C567 1.295 . S
O551 Fe546 1.997 . S
O551 C567 1.235 . S
O552 Fe546 2.002 . S
O552 C553 1.295 . S
C553 O552 1.295 . S
C553 O555 1.235 . S
C554 O559 1.287 . S
C554 O560 1.255 . S
O555 Fe547 1.997 . S
O555 C553 1.235 . S
C556 O562 1.287 . S
C556 O563 1.255 . S
O557 Fe546 1.976 . S
O557 C564 1.287 . S
O558 Fe547 1.996 . S
O558 C564 1.255 . S
O559 Fe549 1.976 . S
O559 C554 1.287 . S
O560 Fe546 1.996 . S
O560 C554 1.255 . S
C561 O565 1.295 . S
C561 O566 1.235 . S
O562 Fe547 1.976 . S
O562 C556 1.287 . S
O563 Fe549 1.996 . S
O563 C556 1.255 . S
C564 O557 1.287 . S
C564 O558 1.255 . S
O565 Fe547 2.002 . S
O565 C561 1.295 . S
O566 Fe549 1.997 . S
O566 C561 1.235 . S
C567 O550 1.295 . S
C567 O551 1.235 . S
C568 C569 1.369 . S
C568 C570 1.419 . S
C568 H572 0.930 . S
C569 C568 1.369 . S
C569 C578 1.429 . S
C570 C568 1.419 . S
C570 C571 1.363 . S
C570 H573 0.929 . S
C571 C570 1.363 . S
C571 C577 1.428 . S
H572 C568 0.930 . S
H573 C570 0.929 . S
S574 N575 1.613 . S
S574 N576 1.610 . S
N575 S574 1.613 . S
N575 C578 1.350 . S
N576 S574 1.610 . S
N576 C577 1.351 . S
C577 C571 1.428 . S
C577 N576 1.351 . S
C577 C578 1.434 . S
C578 C569 1.429 . S
C578 N575 1.350 . S
C578 C577 1.434 . S
C579 C580 1.369 . S
C579 C581 1.419 . S
C579 H583 0.930 . S
C580 C579 1.369 . S
C580 C589 1.429 . S
C581 C579 1.419 . S
C581 C582 1.363 . S
C581 H584 0.929 . S
C582 C581 1.363 . S
C582 C588 1.428 . S
H583 C579 0.930 . S
H584 C581 0.929 . S
S585 N586 1.613 . S
S585 N587 1.610 . S
N586 S585 1.613 . S
N586 C589 1.350 . S
N587 S585 1.610 . S
N587 C588 1.351 . S
C588 C582 1.428 . S
C588 N587 1.351 . S
C588 C589 1.434 . S
C589 C580 1.429 . S
C589 N586 1.350 . S
C589 C588 1.434 . S
C590 C591 1.369 . S
C590 C592 1.419 . S
C590 H594 0.930 . S
C591 C590 1.369 . S
C591 C600 1.429 . S
C592 C590 1.419 . S
C592 C593 1.363 . S
C592 H595 0.929 . S
C593 C592 1.363 . S
C593 C599 1.428 . S
H594 C590 0.930 . S
H595 C592 0.929 . S
S596 N597 1.613 . S
S596 N598 1.610 . S
N597 S596 1.613 . S
N597 C600 1.350 . S
N598 S596 1.610 . S
N598 C599 1.351 . S
C599 C593 1.428 . S
C599 N598 1.351 . S
C599 C600 1.434 . S
C600 C591 1.429 . S
C600 N597 1.350 . S
C600 C599 1.434 . S
C601 C602 1.369 . S
C601 C603 1.419 . S
C601 H605 0.930 . S
C602 C601 1.369 . S
C602 C611 1.429 . S
C603 C601 1.419 . S
C603 C604 1.363 . S
C603 H606 0.929 . S
C604 C603 1.363 . S
C604 C610 1.428 . S
H605 C601 0.930 . S
H606 C603 0.929 . S
S607 N608 1.613 . S
S607 N609 1.610 . S
N608 S607 1.613 . S
N608 C611 1.350 . S
N609 S607 1.610 . S
N609 C610 1.351 . S
C610 C604 1.428 . S
C610 N609 1.351 . S
C610 C611 1.434 . S
C611 C602 1.429 . S
C611 N608 1.350 . S
C611 C610 1.434 . S
C612 C613 1.369 . S
C612 C614 1.419 . S
C612 H616 0.930 . S
C613 C612 1.369 . S
C613 C622 1.429 . S
C614 C612 1.419 . S
C614 C615 1.363 . S
C614 H617 0.929 . S
C615 C614 1.363 . S
C615 C621 1.428 . S
H616 C612 0.930 . S
H617 C614 0.929 . S
S618 N619 1.613 . S
S618 N620 1.610 . S
N619 S618 1.613 . S
N619 C622 1.350 . S
N620 S618 1.610 . S
N620 C621 1.351 . S
C621 C615 1.428 . S
C621 N620 1.351 . S
C621 C622 1.434 . S
C622 C613 1.429 . S
C622 N619 1.350 . S
C622 C621 1.434 . S
C623 C624 1.369 . S
C623 C625 1.419 . S
C623 H627 0.930 . S
C624 C623 1.369 . S
C624 C633 1.429 . S
C625 C623 1.419 . S
C625 C626 1.363 . S
C625 H628 0.929 . S
C626 C625 1.363 . S
C626 C632 1.428 . S
H627 C623 0.930 . S
H628 C625 0.929 . S
S629 N630 1.613 . S
S629 N631 1.610 . S
N630 S629 1.613 . S
N630 C633 1.350 . S
N631 S629 1.610 . S
N631 C632 1.351 . S
C632 C626 1.428 . S
C632 N631 1.351 . S
C632 C633 1.434 . S
C633 C624 1.429 . S
C633 N630 1.350 . S
C633 C632 1.434 . S
C634 C635 1.369 . S
C634 C636 1.419 . S
C634 H638 0.930 . S
C635 C634 1.369 . S
C635 C644 1.429 . S
C636 C634 1.419 . S
C636 C637 1.363 . S
C636 H639 0.929 . S
C637 C636 1.363 . S
C637 C643 1.428 . S
H638 C634 0.930 . S
H639 C636 0.929 . S
S640 N641 1.613 . S
S640 N642 1.610 . S
N641 S640 1.613 . S
N641 C644 1.350 . S
N642 S640 1.610 . S
N642 C643 1.351 . S
C643 C637 1.428 . S
C643 N642 1.351 . S
C643 C644 1.434 . S
C644 C635 1.429 . S
C644 N641 1.350 . S
C644 C643 1.434 . S
C645 C646 1.369 . S
C645 C647 1.419 . S
C645 H649 0.930 . S
C646 C645 1.369 . S
C646 C655 1.429 . S
C647 C645 1.419 . S
C647 C648 1.363 . S
C647 H650 0.929 . S
C648 C647 1.363 . S
C648 C654 1.428 . S
H649 C645 0.930 . S
H650 C647 0.929 . S
S651 N652 1.613 . S
S651 N653 1.610 . S
N652 S651 1.613 . S
N652 C655 1.350 . S
N653 S651 1.610 . S
N653 C654 1.351 . S
C654 C648 1.428 . S
C654 N653 1.351 . S
C654 C655 1.434 . S
C655 C646 1.429 . S
C655 N652 1.350 . S
C655 C654 1.434 . S
C656 C657 1.369 . S
C656 C658 1.419 . S
C656 H660 0.930 . S
C657 C656 1.369 . S
C657 C666 1.429 . S
C658 C656 1.419 . S
C658 C659 1.363 . S
C658 H661 0.929 . S
C659 C658 1.363 . S
C659 C665 1.428 . S
H660 C656 0.930 . S
H661 C658 0.929 . S
S662 N663 1.613 . S
S662 N664 1.610 . S
N663 S662 1.613 . S
N663 C666 1.350 . S
N664 S662 1.610 . S
N664 C665 1.351 . S
C665 C659 1.428 . S
C665 N664 1.351 . S
C665 C666 1.434 . S
C666 C657 1.429 . S
C666 N663 1.350 . S
C666 C665 1.434 . S
C667 C668 1.369 . S
C667 C669 1.419 . S
C667 H671 0.930 . S
C668 C667 1.369 . S
C668 C677 1.429 . S
C669 C667 1.419 . S
C669 C670 1.363 . S
C669 H672 0.929 . S
C670 C669 1.363 . S
C670 C676 1.428 . S
H671 C667 0.930 . S
H672 C669 0.929 . S
S673 N674 1.613 . S
S673 N675 1.610 . S
N674 S673 1.613 . S
N674 C677 1.350 . S
N675 S673 1.610 . S
N675 C676 1.351 . S
C676 C670 1.428 . S
C676 N675 1.351 . S
C676 C677 1.434 . S
C677 C668 1.429 . S
C677 N674 1.350 . S
C677 C676 1.434 . S
C678 C679 1.369 . S
C678 C680 1.419 . S
C678 H682 0.930 . S
C679 C678 1.369 . S
C679 C688 1.429 . S
C680 C678 1.419 . S
C680 C681 1.363 . S
C680 H683 0.929 . S
C681 C680 1.363 . S
C681 C687 1.428 . S
H682 C678 0.930 . S
H683 C680 0.929 . S
S684 N685 1.613 . S
S684 N686 1.610 . S
N685 S684 1.613 . S
N685 C688 1.350 . S
N686 S684 1.610 . S
N686 C687 1.351 . S
C687 C681 1.428 . S
C687 N686 1.351 . S
C687 C688 1.434 . S
C688 C679 1.429 . S
C688 N685 1.350 . S
C688 C687 1.434 . S
C689 C690 1.369 . S
C689 C691 1.419 . S
C689 H693 0.930 . S
C690 C689 1.369 . S
C690 C699 1.429 . S
C691 C689 1.419 . S
C691 C692 1.363 . S
C691 H694 0.929 . S
C692 C691 1.363 . S
C692 C698 1.428 . S
H693 C689 0.930 . S
H694 C691 0.929 . S
S695 N696 1.613 . S
S695 N697 1.610 . S
N696 S695 1.613 . S
N696 C699 1.350 . S
N697 S695 1.610 . S
N697 C698 1.351 . S
C698 C692 1.428 . S
C698 N697 1.351 . S
C698 C699 1.434 . S
C699 C690 1.429 . S
C699 N696 1.350 . S
C699 C698 1.434 . S
C700 C701 1.369 . S
C700 C702 1.419 . S
C700 H704 0.930 . S
C701 C700 1.369 . S
C701 C710 1.429 . S
C702 C700 1.419 . S
C702 C703 1.363 . S
C702 H705 0.929 . S
C703 C702 1.363 . S
C703 C709 1.428 . S
H704 C700 0.930 . S
H705 C702 0.929 . S
S706 N707 1.613 . S
S706 N708 1.610 . S
N707 S706 1.613 . S
N707 C710 1.350 . S
N708 S706 1.610 . S
N708 C709 1.351 . S
C709 C703 1.428 . S
C709 N708 1.351 . S
C709 C710 1.434 . S
C710 C701 1.429 . S
C710 N707 1.350 . S
C710 C709 1.434 . S
C711 C712 1.369 . S
C711 C713 1.419 . S
C711 H715 0.930 . S
C712 C711 1.369 . S
C712 C721 1.429 . S
C713 C711 1.419 . S
C713 C714 1.363 . S
C713 H716 0.929 . S
C714 C713 1.363 . S
C714 C720 1.428 . S
H715 C711 0.930 . S
H716 C713 0.929 . S
S717 N718 1.613 . S
S717 N719 1.610 1_545 S
N718 S717 1.613 . S
N718 C721 1.350 1_545 S
N719 S717 1.610 1_565 S
N719 C720 1.351 . S
C720 C714 1.428 . S
C720 N719 1.351 . S
C720 C721 1.434 . S
C721 C712 1.429 . S
C721 N718 1.350 1_565 S
C721 C720 1.434 . S
C722 C723 1.369 . S
C722 C724 1.419 . S
C722 H726 0.930 . S
C723 C722 1.369 . S
C723 C732 1.429 . S
C724 C722 1.419 . S
C724 C725 1.363 . S
C724 H727 0.929 . S
C725 C724 1.363 . S
C725 C731 1.428 . S
H726 C722 0.930 . S
H727 C724 0.929 . S
S728 N729 1.613 . S
S728 N730 1.610 . S
N729 S728 1.613 . S
N729 C732 1.350 . S
N730 S728 1.610 . S
N730 C731 1.351 . S
C731 C725 1.428 . S
C731 N730 1.351 . S
C731 C732 1.434 . S
C732 C723 1.429 . S
C732 N729 1.350 . S
C732 C731 1.434 . S
C733 C734 1.369 . S
C733 C735 1.419 . S
C733 H737 0.930 . S
C734 C733 1.369 . S
C734 C743 1.429 . S
C735 C733 1.419 . S
C735 C736 1.363 . S
C735 H738 0.929 . S
C736 C735 1.363 . S
C736 C742 1.428 . S
H737 C733 0.930 . S
H738 C735 0.929 . S
S739 N740 1.613 . S
S739 N741 1.610 . S
N740 S739 1.613 . S
N740 C743 1.350 . S
N741 S739 1.610 . S
N741 C742 1.351 . S
C742 C736 1.428 . S
C742 N741 1.351 . S
C742 C743 1.434 . S
C743 C734 1.429 . S
C743 N740 1.350 . S
C743 C742 1.434 . S
C744 C745 1.369 . S
C744 C746 1.419 . S
C744 H748 0.930 . S
C745 C744 1.369 . S
C745 C754 1.429 . S
C746 C744 1.419 . S
C746 C747 1.363 . S
C746 H749 0.929 . S
C747 C746 1.363 . S
C747 C753 1.428 . S
H748 C744 0.930 . S
H749 C746 0.929 . S
S750 N751 1.613 . S
S750 N752 1.610 . S
N751 S750 1.613 . S
N751 C754 1.350 . S
N752 S750 1.610 . S
N752 C753 1.351 . S
C753 C747 1.428 . S
C753 N752 1.351 . S
C753 C754 1.434 . S
C754 C745 1.429 . S
C754 N751 1.350 . S
C754 C753 1.434 . S
C755 C756 1.369 . S
C755 C757 1.419 . S
C755 H759 0.930 . S
C756 C755 1.369 . S
C756 C765 1.429 . S
C757 C755 1.419 . S
C757 C758 1.363 . S
C757 H760 0.929 . S
C758 C757 1.363 . S
C758 C764 1.428 . S
H759 C755 0.930 . S
H760 C757 0.929 . S
S761 N762 1.613 . S
S761 N763 1.610 . S
N762 S761 1.613 . S
N762 C765 1.350 . S
N763 S761 1.610 . S
N763 C764 1.351 . S
C764 C758 1.428 . S
C764 N763 1.351 . S
C764 C765 1.434 . S
C765 C756 1.429 . S
C765 N762 1.350 . S
C765 C764 1.434 . S
C766 C767 1.369 . S
C766 C768 1.419 . S
C766 H770 0.930 . S
C767 C766 1.369 . S
C767 C776 1.429 . S
C768 C766 1.419 . S
C768 C769 1.363 . S
C768 H771 0.929 . S
C769 C768 1.363 . S
C769 C775 1.428 . S
H770 C766 0.930 . S
H771 C768 0.929 . S
S772 N773 1.613 . S
S772 N774 1.610 . S
N773 S772 1.613 . S
N773 C776 1.350 . S
N774 S772 1.610 . S
N774 C775 1.351 . S
C775 C769 1.428 . S
C775 N774 1.351 . S
C775 C776 1.434 . S
C776 C767 1.429 . S
C776 N773 1.350 . S
C776 C775 1.434 . S
C777 C778 1.369 . S
C777 C779 1.419 . S
C777 H781 0.930 . S
C778 C777 1.369 . S
C778 C787 1.429 . S
C779 C777 1.419 . S
C779 C780 1.363 . S
C779 H782 0.929 . S
C780 C779 1.363 . S
C780 C786 1.428 . S
H781 C777 0.930 . S
H782 C779 0.929 . S
S783 N784 1.613 . S
S783 N785 1.610 . S
N784 S783 1.613 . S
N784 C787 1.350 . S
N785 S783 1.610 . S
N785 C786 1.351 . S
C786 C780 1.428 . S
C786 N785 1.351 . S
C786 C787 1.434 . S
C787 C778 1.429 . S
C787 N784 1.350 . S
C787 C786 1.434 . S
C788 C789 1.369 . S
C788 C790 1.419 . S
C788 H792 0.930 . S
C789 C788 1.369 . S
C789 C798 1.429 . S
C790 C788 1.419 . S
C790 C791 1.363 . S
C790 H793 0.929 . S
C791 C790 1.363 . S
C791 C797 1.428 . S
H792 C788 0.930 . S
H793 C790 0.929 . S
S794 N795 1.613 . S
S794 N796 1.610 . S
N795 S794 1.613 . S
N795 C798 1.350 . S
N796 S794 1.610 . S
N796 C797 1.351 . S
C797 C791 1.428 . S
C797 N796 1.351 . S
C797 C798 1.434 . S
C798 C789 1.429 . S
C798 N795 1.350 . S
C798 C797 1.434 . S
C799 C800 1.369 . S
C799 C801 1.419 . S
C799 H803 0.930 . S
C800 C799 1.369 . S
C800 C809 1.429 . S
C801 C799 1.419 . S
C801 C802 1.363 . S
C801 H804 0.929 . S
C802 C801 1.363 . S
C802 C808 1.428 . S
H803 C799 0.930 . S
H804 C801 0.929 . S
S805 N806 1.613 . S
S805 N807 1.610 . S
N806 S805 1.613 . S
N806 C809 1.350 . S
N807 S805 1.610 . S
N807 C808 1.351 . S
C808 C802 1.428 . S
C808 N807 1.351 . S
C808 C809 1.434 . S
C809 C800 1.429 . S
C809 N806 1.350 . S
C809 C808 1.434 . S
C810 C811 1.369 . S
C810 C812 1.419 . S
C810 H814 0.930 . S
C811 C810 1.369 . S
C811 C820 1.429 . S
C812 C810 1.419 . S
C812 C813 1.363 . S
C812 H815 0.929 . S
C813 C812 1.363 . S
C813 C819 1.428 . S
H814 C810 0.930 . S
H815 C812 0.929 . S
S816 N817 1.613 . S
S816 N818 1.610 . S
N817 S816 1.613 . S
N817 C820 1.350 . S
N818 S816 1.610 . S
N818 C819 1.351 . S
C819 C813 1.428 . S
C819 N818 1.351 . S
C819 C820 1.434 . S
C820 C811 1.429 . S
C820 N817 1.350 . S
C820 C819 1.434 . S
C821 C822 1.369 . S
C821 C823 1.419 . S
C821 H825 0.930 . S
C822 C821 1.369 . S
C822 C831 1.429 . S
C823 C821 1.419 . S
C823 C824 1.363 . S
C823 H826 0.929 . S
C824 C823 1.363 . S
C824 C830 1.428 . S
H825 C821 0.930 . S
H826 C823 0.929 . S
S827 N828 1.613 . S
S827 N829 1.610 . S
N828 S827 1.613 . S
N828 C831 1.350 . S
N829 S827 1.610 . S
N829 C830 1.351 . S
C830 C824 1.428 . S
C830 N829 1.351 . S
C830 C831 1.434 . S
C831 C822 1.429 . S
C831 N828 1.350 . S
C831 C830 1.434 . S
C569 C31 1.532 . S
C571 C523 1.555 . S
C582 C487 1.554 . S
C580 C61 1.536 . S
C593 C510 1.548 . S
C591 C151 1.491 . S
C604 C498 1.548 . S
C602 C181 1.559 . S
C615 C567 1.549 . S
C613 C271 1.540 . S
C626 C531 1.554 . S
C624 C301 1.531 . S
C635 C391 1.489 . S
C637 C554 1.550 . S
C648 C542 1.549 . S
C646 C421 1.564 . S
C657 C20 1.529 . S
C659 C564 1.576 . S
C670 C534 1.576 . S
C668 C91 1.535 . S
C679 C121 1.483 . S
C681 C553 1.607 . S
C690 C211 1.604 . S
C692 C539 1.606 . S
C703 C520 1.576 . S
C701 C260 1.537 . S
C712 C331 1.529 . S
C714 C490 1.576 . S
C725 C509 1.607 . S
C723 C361 1.480 . S
C736 C495 1.607 . S
C734 C451 1.605 . S
C747 C545 1.588 . S
C745 C1 1.475 . S
C758 C561 1.586 . S
C756 C80 1.463 . S
C767 C140 1.511 . S
C769 C532 1.565 . S
C780 C556 1.565 . S
C778 C200 1.503 . S
C791 C501 1.587 . S
C789 C241 1.465 . S
C800 C320 1.470 . S
C802 C517 1.588 . S
C811 C380 1.510 . S
C813 C488 1.566 . S
C822 C440 1.509 . S
C824 C512 1.566 . S
