# Generated by pormake.
# Topology zzz, (3,6)-cn, num edge types: 1
# Building blocks:
#     Node 0, Type 0, BuildingBlock: ESEHIV_clean_linker_0, # of connection points: 3
#     Node 1, Type 0, BuildingBlock: ESEHIV_clean_linker_0, # of connection points: 3
#     Node 2, Type 0, BuildingBlock: ESEHIV_clean_linker_0, # of connection points: 3
#     Node 3, Type 0, BuildingBlock: ESEHIV_clean_linker_0, # of connection points: 3
#     Node 4, Type 0, BuildingBlock: ESEHIV_clean_linker_0, # of connection points: 3
#     Node 5, Type 0, BuildingBlock: ESEHIV_clean_linker_0, # of connection points: 3
#     Node 6, Type 0, BuildingBlock: ESEHIV_clean_linker_0, # of connection points: 3
#     Node 7, Type 0, BuildingBlock: ESEHIV_clean_linker_0, # of connection points: 3
#     Node 8, Type 1, BuildingBlock: BETDIP_clean_sbu_0, # of connection points: 6
#     Node 9, Type 1, BuildingBlock: BETDIP_clean_sbu_0, # of connection points: 6
#     Node 10, Type 1, BuildingBlock: BETDIP_clean_sbu_0, # of connection points: 6
#     Node 11, Type 1, BuildingBlock: BETDIP_clean_sbu_0, # of connection points: 6
#     Edge 12, Type (0, 1), BuildingBlock: OJICUG_clean_linker_0, # of connection points: 2
#     Edge 13, Type (0, 1), BuildingBlock: OJICUG_clean_linker_0, # of connection points: 2
#     Edge 14, Type (0, 1), BuildingBlock: OJICUG_clean_linker_0, # of connection points: 2
#     Edge 15, Type (0, 1), BuildingBlock: OJICUG_clean_linker_0, # of connection points: 2
#     Edge 16, Type (0, 1), BuildingBlock: OJICUG_clean_linker_0, # of connection points: 2
#     Edge 17, Type (0, 1), BuildingBlock: OJICUG_clean_linker_0, # of connection points: 2
#     Edge 18, Type (0, 1), BuildingBlock: OJICUG_clean_linker_0, # of connection points: 2
#     Edge 19, Type (0, 1), BuildingBlock: OJICUG_clean_linker_0, # of connection points: 2
#     Edge 20, Type (0, 1), BuildingBlock: OJICUG_clean_linker_0, # of connection points: 2
#     Edge 21, Type (0, 1), BuildingBlock: OJICUG_clean_linker_0, # of connection points: 2
#     Edge 22, Type (0, 1), BuildingBlock: OJICUG_clean_linker_0, # of connection points: 2
#     Edge 23, Type (0, 1), BuildingBlock: OJICUG_clean_linker_0, # of connection points: 2
#     Edge 24, Type (0, 1), BuildingBlock: OJICUG_clean_linker_0, # of connection points: 2
#     Edge 25, Type (0, 1), BuildingBlock: OJICUG_clean_linker_0, # of connection points: 2
#     Edge 26, Type (0, 1), BuildingBlock: OJICUG_clean_linker_0, # of connection points: 2
#     Edge 27, Type (0, 1), BuildingBlock: OJICUG_clean_linker_0, # of connection points: 2
#     Edge 28, Type (0, 1), BuildingBlock: OJICUG_clean_linker_0, # of connection points: 2
#     Edge 29, Type (0, 1), BuildingBlock: OJICUG_clean_linker_0, # of connection points: 2
#     Edge 30, Type (0, 1), BuildingBlock: OJICUG_clean_linker_0, # of connection points: 2
#     Edge 31, Type (0, 1), BuildingBlock: OJICUG_clean_linker_0, # of connection points: 2
#     Edge 32, Type (0, 1), BuildingBlock: OJICUG_clean_linker_0, # of connection points: 2
#     Edge 33, Type (0, 1), BuildingBlock: OJICUG_clean_linker_0, # of connection points: 2
#     Edge 34, Type (0, 1), BuildingBlock: OJICUG_clean_linker_0, # of connection points: 2
#     Edge 35, Type (0, 1), BuildingBlock: OJICUG_clean_linker_0, # of connection points: 2
# Relax obj value: 0.630
# Max RMSD: 0.249
# Mean RMSD: 0.241
data_MOF--net-zzz--node1-BETDIP_clean_sbu_0--node2-ESEHIV_clean_linker_0--edge1-OJICUG_clean_linker_0
_symmetry_space_group_name_H-M    P1
_symmetry_Int_Tables_number       1
_symmetry_cell_setting            triclinic
loop_
_symmetry_equiv_pos_as_xyz
'x, y, z'
_cell_length_a     32.013014
_cell_length_b     32.105067
_cell_length_c     10.501268
_cell_angle_alpha  89.816554
_cell_angle_beta   89.645652
_cell_angle_gamma 90.222054
loop_
_atom_site_label
_atom_site_type_symbol
_atom_site_fract_x
_atom_site_fract_y
_atom_site_fract_z
_atom_type_partial_charge
H0 H 0.80636 0.43128 0.39816 0.0
H1 H 0.6948 0.44143 0.1787 0.0
H2 H 0.73965 0.54783 0.39063 0.0
C3 C 0.77941 0.44946 0.3701 0.0
C4 C 0.77652 0.49093 0.41079 0.0
C5 C 0.75059 0.43208 0.28516 0.0
C6 C 0.71653 0.45541 0.24519 0.0
C7 C 0.71127 0.49698 0.28232 0.0
C8 C 0.74234 0.51546 0.36352 0.0
H9 H 0.0986 0.81065 0.39728 0.0
H10 H 0.09401 0.69421 0.19852 0.0
H11 H 0.98335 0.74158 0.38499 0.0
C12 C 0.08182 0.78266 0.37067 0.0
C13 C 0.0399 0.77908 0.4085 0.0
C14 C 0.10123 0.75302 0.29199 0.0
C15 C 0.07874 0.71755 0.25662 0.0
C16 C 0.03618 0.71276 0.28637 0.0
C17 C 1.01624 0.74432 0.36182 0.0
H18 H 0.73269 0.10625 0.39507 0.0
H19 H 0.84577 0.09481 0.17935 0.0
H20 H 0.79969 0.98993 0.39925 0.0
C21 C 0.75992 0.08802 0.36931 0.0
C22 C 0.76275 0.04687 0.41353 0.0
C23 C 0.78925 0.10488 0.28357 0.0
C24 C 0.82366 0.08136 0.24675 0.0
C25 C 0.82863 0.04009 0.28782 0.0
C26 C 0.79716 0.02212 0.36947 0.0
H27 H 0.43986 0.72767 0.39872 0.0
H28 H 0.55508 0.7969 0.38746 0.0
H29 H 0.44506 0.84489 0.20215 0.0
C30 C 0.4567 0.75581 0.37277 0.0
C31 C 0.43759 0.78572 0.2945 0.0
C32 C 0.49848 0.75931 0.41051 0.0
C33 C 0.52226 0.79425 0.36451 0.0
C34 C 0.50255 0.82609 0.28995 0.0
C35 C 0.46012 0.82141 0.26012 0.0
H36 H 0.22565 0.59912 0.17595 0.0
H37 H 0.34273 0.59675 0.37192 0.0
H38 H 0.29492 0.48491 0.19592 0.0
C39 C 0.25387 0.58285 0.20274 0.0
C40 C 0.25733 0.54087 0.16851 0.0
C41 C 0.28363 0.60281 0.27958 0.0
C42 C 0.31942 0.581 0.31497 0.0
C43 C 0.32426 0.53847 0.28816 0.0
C44 C 0.29234 0.51786 0.21589 0.0
H45 H 0.94666 0.22988 0.16106 0.0
H46 H 0.95275 0.34339 0.37543 0.0
H47 H 0.06478 0.29109 0.21239 0.0
C48 C 0.96396 0.25667 0.19471 0.0
C49 C 1.00691 0.2579 0.16854 0.0
C50 C 0.94427 0.28614 0.27348 0.0
C51 C 0.96777 0.31996 0.31718 0.0
C52 C 1.0111 0.32241 0.29854 0.0
C53 C 0.03122 0.29047 0.22533 0.0
H54 H 0.31361 0.93783 0.18575 0.0
H55 H 0.19578 0.94041 0.38214 0.0
H56 H 0.24304 0.05134 0.19586 0.0
C57 C 0.28512 0.95396 0.2113 0.0
C58 C 0.28126 0.99566 0.1737 0.0
C59 C 0.25522 0.93419 0.28964 0.0
C60 C 0.21912 0.95591 0.32348 0.0
C61 C 0.214 0.99817 0.29261 0.0
C62 C 0.2459 1.01858 0.21874 0.0
H63 H 0.5922 0.3058 0.15057 0.0
H64 H 0.47367 0.24531 0.20663 0.0
H65 H 0.58514 0.19259 0.36857 0.0
C66 C 0.57472 0.27913 0.18536 0.0
C67 C 0.59412 0.24968 0.26473 0.0
C68 C 0.53178 0.2781 0.16035 0.0
C69 C 0.50722 0.24575 0.21864 0.0
C70 C 0.52706 0.21379 0.29216 0.0
C71 C 0.57036 0.21603 0.30986 0.0
Tb72 Tb 0.05517 1.00729 0.86761 0.0
Tb73 Tb 0.98875 0.0279 0.72117 0.0
C74 C 0.10963 0.97414 1.00624 0.0
C75 C 0.13263 0.93474 0.99888 0.0
C76 C 0.11158 0.898 0.96748 0.0
C77 C 0.13181 0.85999 0.97431 0.0
C78 C 0.17344 0.85763 1.01655 0.0
C79 C 0.19577 0.89481 0.03598 0.0
C80 C 0.17545 0.93328 1.02649 0.0
C81 C 0.08111 0.0382 0.64367 0.0
C82 C 1.01671 0.9366 0.68238 0.0
C83 C 0.93458 0.06118 0.5816 0.0
C84 C 0.91267 0.10123 0.58393 0.0
C85 C 0.93449 0.13786 0.612 0.0
C86 C 0.91537 0.17628 0.59794 0.0
C87 C 0.87415 0.17896 0.5527 0.0
C88 C 0.85098 0.14214 0.5369 0.0
C89 C 0.87016 0.10337 0.55286 0.0
C90 C 0.9627 0.99714 0.94513 0.0
C91 C 0.0278 0.09853 0.90502 0.0
O92 O 0.06942 0.97125 1.02799 0.0
O93 O 0.11834 1.00115 0.91734 0.0
O94 O 0.0515 1.01242 0.66207 0.0
O95 O 0.09407 0.04974 0.75425 0.0
O96 O 0.03797 0.94454 0.78812 0.0
O97 O 0.99747 0.96781 0.6264 0.0
O98 O 0.97473 0.06269 0.55811 0.0
O99 O 0.92552 0.03571 0.67432 0.0
O100 O 0.99236 0.02292 0.92674 0.0
O101 O 0.95002 0.98532 0.83447 0.0
O102 O 1.00693 0.09066 0.79851 0.0
O103 O 0.04614 0.06715 0.96278 0.0
H104 H 0.07864 0.89822 0.94567 0.0
H105 H 0.1131 0.83226 0.95967 0.0
H106 H 0.22791 0.89383 0.06709 0.0
H107 H 0.19252 0.96161 0.04689 0.0
H108 H 0.96722 0.13707 0.63648 0.0
H109 H 0.93456 0.20386 0.60964 0.0
H110 H 0.81911 0.14348 0.50399 0.0
H111 H 0.85252 0.07522 0.53458 0.0
Tb112 Tb 0.53228 0.05359 0.88179 0.0
Tb113 Tb 0.51284 0.99039 0.72215 0.0
C114 C 0.5637 0.10197 0.04266 0.0
C115 C 0.59867 0.13102 0.05552 0.0
C116 C 0.61639 0.13529 0.17562 0.0
C117 C 0.65199 0.15935 0.19153 0.0
C118 C 0.67157 0.1789 0.08639 0.0
C119 C 0.65209 0.17677 0.96672 0.0
C120 C 0.61572 0.15291 0.95131 0.0
C121 C 0.50026 0.08477 0.66719 0.0
C122 C 0.60387 0.02174 0.6873 0.0
C123 C 0.48021 0.93805 0.57499 0.0
C124 C 0.44073 0.9146 0.58013 0.0
C125 C 0.40338 0.93514 0.60833 0.0
C126 C 0.36559 0.91401 0.60286 0.0
C127 C 0.36407 0.8719 0.56576 0.0
C128 C 0.40177 0.85037 0.54781 0.0
C129 C 0.43997 0.87162 0.55561 0.0
C130 C 0.54259 0.9608 0.94277 0.0
C131 C 0.44089 0.02341 0.91152 0.0
O132 O 0.57322 0.06251 0.03455 0.0
O133 O 0.53398 0.11267 0.96511 0.0
O134 O 0.52631 0.05496 0.67514 0.0
O135 O 0.49083 0.09596 0.78156 0.0
O136 O 0.5953 0.04178 0.79483 0.0
O137 O 0.57331 1.00185 0.6298 0.0
O138 O 0.47737 0.97837 0.55924 0.0
O139 O 0.50729 0.92829 0.66175 0.0
O140 O 0.51657 0.99006 0.92815 0.0
O141 O 0.55503 0.95007 0.83047 0.0
O142 O 0.44934 1.0054 0.80068 0.0
O143 O 0.47211 0.04036 0.97416 0.0
H144 H 0.60376 0.11847 0.25691 0.0
H145 H 0.66606 0.15925 0.28504 0.0
H146 H 0.66664 0.19096 0.8838 0.0
H147 H 0.60222 0.14989 0.85743 0.0
H148 H 0.40299 0.96819 0.62778 0.0
H149 H 0.33737 0.93209 0.61547 0.0
H150 H 0.40142 0.81796 0.51992 0.0
H151 H 0.46872 0.85501 0.53694 0.0
Tb152 Tb 0.48401 0.52941 0.86451 0.0
Tb153 Tb 0.54963 0.5092 0.71437 0.0
C154 C 0.43041 0.56287 1.00663 0.0
C155 C 0.40841 0.60288 1.00079 0.0
C156 C 0.4307 0.6395 0.97478 0.0
C157 C 0.41105 0.67782 0.98145 0.0
C158 C 0.36872 0.6806 1.01782 0.0
C159 C 0.34545 0.64372 0.03299 0.0
C160 C 0.3652 0.60496 1.02365 0.0
C161 C 0.45687 0.49973 0.6416 0.0
C162 C 0.52234 0.60081 0.67961 0.0
C163 C 0.60273 0.47567 0.57046 0.0
C164 C 0.62389 0.43521 0.57115 0.0
C165 C 0.60108 0.39863 0.59393 0.0
C166 C 0.61993 0.36008 0.57956 0.0
C167 C 0.6619 0.35723 0.53993 0.0
C168 C 0.68574 0.39383 0.52858 0.0
C169 C 0.66682 0.43272 0.54455 0.0
C170 C 0.57702 0.53856 0.93739 0.0
C171 C 0.51066 0.43794 0.89852 0.0
O172 O 0.47066 0.56463 1.02706 0.0
O173 O 0.42103 0.53642 0.91767 0.0
O174 O 0.48679 0.52522 0.65837 0.0
O175 O 0.44427 0.4878 0.75292 0.0
O176 O 0.50127 0.59242 0.78617 0.0
O177 O 0.5414 0.56984 0.6218 0.0
O178 O 0.56251 0.47502 0.54946 0.0
O179 O 0.61255 0.50076 0.66261 0.0
O180 O 0.54694 0.51318 0.92056 0.0
O181 O 0.58936 0.55076 0.82603 0.0
O182 O 0.53147 0.4462 0.79132 0.0
O183 O 0.49244 0.46908 0.95773 0.0
H184 H 0.46398 0.63888 0.95662 0.0
H185 H 0.43042 0.70537 0.97079 0.0
H186 H 0.31282 0.64508 0.06012 0.0
H187 H 0.34726 0.57679 0.04022 0.0
H188 H 0.568 0.39963 0.61526 0.0
H189 H 0.60029 0.33262 0.58739 0.0
H190 H 0.71815 0.39231 0.50003 0.0
H191 H 0.68515 0.46076 0.53018 0.0
Tb192 Tb 1.00558 0.48471 0.88321 0.0
Tb193 Tb 0.02581 0.54707 0.72068 0.0
C194 C 0.97399 0.43729 0.04864 0.0
C195 C 0.94001 0.40711 0.06375 0.0
C196 C 0.92206 0.40274 0.18427 0.0
C197 C 0.88719 0.3776 0.20182 0.0
C198 C 0.86862 0.35699 0.09791 0.0
C199 C 0.88864 0.35902 0.97827 0.0
C200 C 0.92422 0.38404 0.96118 0.0
C201 C 0.03733 0.45231 0.66902 0.0
C202 C 0.93447 0.51617 0.68731 0.0
C203 C 0.0591 0.5985 0.56984 0.0
C204 C 0.09845 0.62217 0.57343 0.0
C205 C 0.13598 0.60181 0.60003 0.0
C206 C 0.17363 0.62318 0.59218 0.0
C207 C 0.1748 0.66536 0.55488 0.0
C208 C 0.13697 0.68668 0.53888 0.0
C209 C 0.09892 0.66518 0.5486 0.0
C210 C 0.99637 0.57786 0.94106 0.0
C211 C 0.09741 0.51428 0.90978 0.0
O212 O 0.96317 0.47624 0.03433 0.0
O213 O 1.00478 0.42667 0.97407 0.0
O214 O 1.01173 0.48252 0.67637 0.0
O215 O 0.04636 0.44129 0.78369 0.0
O216 O 0.94268 0.49622 0.79555 0.0
O217 O 0.96537 0.53594 0.62944 0.0
O218 O 0.06218 0.55811 0.55748 0.0
O219 O 0.03146 0.60877 0.65524 0.0
O220 O 0.02197 0.54818 0.92693 0.0
O221 O 0.98415 0.58838 0.8286 0.0
O222 O 0.08926 0.53199 0.79821 0.0
O223 O 0.06584 0.49786 0.9737 0.0
H224 H 0.93386 0.42031 0.26444 0.0
H225 H 0.87277 0.37769 0.29537 0.0
H226 H 0.87496 0.34393 0.8963 0.0
H227 H 0.93802 0.38703 0.86712 0.0
H228 H 0.13661 0.56875 0.62018 0.0
H229 H 0.202 0.60528 0.60339 0.0
H230 H 0.13711 0.71916 0.51114 0.0
H231 H 0.07005 0.68166 0.53118 0.0
C232 C 0.18199 0.04934 0.44779 0.0
C233 C 0.17662 0.01907 0.35269 0.0
H234 H 0.1561 0.07935 0.61306 0.0
C235 C 0.13674 1.00026 0.3426 0.0
H236 H 0.21227 0.06381 0.46077 0.0
C237 C 0.10456 1.00869 0.43091 0.0
C238 C 0.11118 0.03621 0.53278 0.0
H239 H 0.13158 0.97615 0.27255 0.0
H240 H 0.07551 0.99144 0.42436 0.0
C241 C 0.14975 0.0578 0.53638 0.0
C242 C 0.48855 0.18851 0.48795 0.0
C243 C 0.50542 0.17967 0.36712 0.0
H244 H 0.47318 0.16587 0.67514 0.0
C245 C 0.51517 0.13768 0.34109 0.0
H246 H 0.48181 0.22043 0.5138 0.0
C247 C 0.51206 0.10631 0.43538 0.0
C248 C 0.49802 0.1158 0.55892 0.0
H249 H 0.52836 0.12976 0.25005 0.0
H250 H 0.52241 0.07508 0.41306 0.0
C251 C 0.48445 0.15706 0.58163 0.0
C252 C 0.35579 0.4884 0.4486 0.0
C253 C 0.36145 0.51789 0.35052 0.0
H254 H 0.38122 0.45936 0.61596 0.0
C255 C 0.40145 0.53658 0.33902 0.0
H256 H 0.32543 0.47409 0.46318 0.0
C257 C 0.43342 0.52864 0.42768 0.0
C258 C 0.42659 0.50174 0.53174 0.0
H259 H 0.40689 0.56024 0.26719 0.0
H260 H 0.46256 0.54572 0.41921 0.0
C261 C 0.38783 0.48043 0.53759 0.0
C262 C 0.02251 0.39869 0.34508 0.0
C263 C 0.03241 0.35675 0.37218 0.0
H264 H 1.0151 0.46141 0.4151 0.0
C265 C 0.04914 0.34818 0.49293 0.0
H266 H 1.00937 0.40641 0.25409 0.0
C267 C 0.05308 0.37981 0.58544 0.0
C268 C 0.0395 0.42102 0.56172 0.0
H269 H 0.05597 0.31633 0.51969 0.0
H270 H 0.06432 0.37118 0.67888 0.0
C271 C 0.02549 0.43024 0.43824 0.0
C272 C 0.90602 0.0362 0.24356 0.0
C273 C 0.86595 1.01787 0.23206 0.0
H274 H 0.96774 0.04418 0.16436 0.0
C275 C 0.86067 0.98761 0.13689 0.0
H276 H 0.91108 0.06048 0.31314 0.0
C277 C 0.89327 0.97857 0.04994 0.0
C278 C 0.93212 0.99965 0.05493 0.0
H279 H 0.83023 0.97364 0.12239 0.0
H280 H 0.88699 0.95702 0.97321 0.0
C281 C 0.93854 0.02723 0.15679 0.0
C282 C 0.55275 0.85802 0.12882 0.0
C283 C 0.52398 0.86333 0.22934 0.0
H284 H 0.58139 0.88436 0.96071 0.0
C285 C 0.50626 0.90333 0.24424 0.0
H286 H 0.56618 0.82763 0.11159 0.0
C287 C 0.51443 0.93581 0.15673 0.0
C288 C 0.54058 0.92949 0.05045 0.0
H289 H 0.48308 0.90846 0.31784 0.0
H290 H 0.49808 0.96506 0.16798 0.0
C291 C 0.56097 0.89059 0.04095 0.0
C292 C 0.67925 0.54836 0.12653 0.0
C293 C 0.67392 0.51854 0.22388 0.0
H294 H 0.65313 0.57831 0.96161 0.0
C295 C 0.6339 0.49992 0.23605 0.0
H296 H 0.70963 0.5625 0.11098 0.0
C297 C 0.6015 0.50843 0.14915 0.0
C298 C 0.60787 0.53584 0.04599 0.0
H299 H 0.62875 0.47584 0.30678 0.0
H300 H 0.57235 0.4914 0.15812 0.0
C301 C 0.64677 0.55693 0.03937 0.0
C302 C 0.03263 0.63553 0.24044 0.0
C303 C 1.01501 0.67559 0.22546 0.0
H304 H 0.04073 0.57375 0.16522 0.0
C305 C 0.98658 0.681 0.12501 0.0
H306 H 0.05557 0.63028 0.31386 0.0
C307 C 0.97845 0.64845 0.03775 0.0
C308 C 0.99859 0.60942 0.04768 0.0
H309 H 0.97324 0.71143 0.10752 0.0
H310 H 0.95821 0.65475 0.95779 0.0
C311 C 0.02454 0.60306 0.15359 0.0
C312 C 0.87715 0.24547 0.27788 0.0
C313 C 0.90313 0.27562 0.3341 0.0
H314 H 0.84674 0.18756 0.31024 0.0
C315 C 0.89667 0.28434 0.46451 0.0
H316 H 0.87789 0.24027 0.17606 0.0
C317 C 0.87491 0.25588 0.54089 0.0
C318 C 0.86197 0.21796 0.48776 0.0
H319 H 0.91375 0.30865 0.51276 0.0
H320 H 0.87676 0.2592 0.64338 0.0
C321 C 0.85745 0.21587 0.35504 0.0
C322 C 0.29568 0.86765 0.30143 0.0
C323 C 0.26633 0.89475 0.35642 0.0
H324 H 0.35297 0.83662 0.33369 0.0
C325 C 0.25831 0.89089 0.48816 0.0
H326 H 0.3005 0.8671 0.19925 0.0
C327 C 0.2869 0.87008 0.5652 0.0
C328 C 0.32453 0.85633 0.51062 0.0
H329 H 0.23464 0.90937 0.53508 0.0
H330 H 0.28441 0.87399 0.66745 0.0
C331 C 0.32524 0.84867 0.37907 0.0
C332 C 0.64094 0.25165 0.45556 0.0
C333 C 0.63508 0.26018 0.32482 0.0
H334 H 0.65942 0.27729 0.6339 0.0
C335 C 0.66123 0.29039 0.26795 0.0
H336 H 0.62376 0.22729 0.5044 0.0
C337 C 0.68037 0.3202 0.34443 0.0
C338 C 0.67503 0.31828 0.4771 0.0
H339 H 0.66098 0.29548 0.16597 0.0
H340 H 0.69126 0.3485 0.29898 0.0
C341 C 0.66198 0.2804 0.53134 0.0
C342 C 0.28061 0.64721 0.47511 0.0
C343 C 0.27258 0.64265 0.34392 0.0
H344 H 0.25438 0.66467 0.65426 0.0
C345 C 0.24316 0.66942 0.28836 0.0
H346 H 0.30438 0.62911 0.52241 0.0
C347 C 0.21339 0.68842 0.36593 0.0
C348 C 0.21415 0.68131 0.4979 0.0
H349 H 0.23837 0.66956 0.18633 0.0
H350 H 0.18552 0.69993 0.32085 0.0
C351 C 0.25188 0.66816 0.5519 0.0
C352 C 0.16957 0.7917 0.28557 0.0
C353 C 0.14179 0.7634 0.22856 0.0
H354 H 0.20566 0.84632 0.2538 0.0
C355 C 0.14772 0.75428 0.09836 0.0
H356 H 0.16874 0.79705 0.38734 0.0
C357 C 0.17214 0.78081 1.02283 0.0
C358 C 0.18694 0.81806 0.07618 0.0
H359 H 0.1288 0.73131 0.05017 0.0
H360 H 0.17019 0.7777 0.9203 0.0
C361 C 0.19227 0.81924 0.20878 0.0
C362 C 0.76097 0.17715 0.27835 0.0
C363 C 0.7787 0.14334 0.21349 0.0
H364 H 0.71312 0.22255 0.27547 0.0
C365 C 0.77415 0.14103 0.08072 0.0
H366 H 0.76527 0.18074 0.37995 0.0
C367 C 0.74343 0.16478 1.02152 0.0
C368 C 0.71666 0.18904 0.09733 0.0
H369 H 0.78868 0.1162 1.02688 0.0
H370 H 0.73493 0.15653 0.92511 0.0
C371 C 0.73135 0.2017 0.21721 0.0
C372 C 0.39318 0.78425 0.09851 0.0
C373 C 0.39767 0.7753 0.22933 0.0
H374 H 0.37321 0.76033 0.9196 0.0
C375 C 0.36955 0.74679 0.28527 0.0
H376 H 0.41251 0.80732 0.05105 0.0
C377 C 0.34795 0.71899 0.20778 0.0
C378 C 0.35466 0.72017 0.07554 0.0
H379 H 0.36944 0.74143 0.38717 0.0
H380 H 0.33437 0.69179 0.25254 0.0
C381 C 0.36997 0.75738 1.02203 0.0
C382 C 0.76619 0.39373 0.08655 0.0
C383 C 0.76127 0.39288 0.21958 0.0
H384 H 0.80574 0.37639 0.93255 0.0
C385 C 0.77858 0.35963 0.28814 0.0
H386 H 0.75189 0.41798 0.02984 0.0
C387 C 0.80836 0.33441 0.2297 0.0
C388 C 0.82363 0.346 0.10869 0.0
H389 H 0.77392 0.357 0.39007 0.0
H390 H 0.82632 0.31414 0.29029 0.0
C391 C 0.79698 0.36921 0.03 0.0
C392 C 1.00706 0.21532 0.96614 0.0
C393 C 0.02328 0.22186 0.08949 0.0
H394 H 0.99558 0.17279 0.81244 0.0
C395 C 0.04391 0.18801 0.14695 0.0
H396 H 0.9898 0.24 0.91983 0.0
C397 C 0.0467 0.1488 0.08546 0.0
C398 C 0.02859 0.14175 0.96459 0.0
H399 H 0.05548 0.19098 0.2432 0.0
H400 H 0.06157 0.1234 0.13564 0.0
C401 C 1.00975 0.17624 0.90494 0.0
C402 C 0.32488 0.9962 0.97236 0.0
C403 C 0.31706 1.01289 0.09446 0.0
H404 H 0.36871 0.98636 0.81972 0.0
C405 C 0.34965 0.03564 0.15149 0.0
H406 H 0.30122 0.97727 0.92692 0.0
C407 C 0.38902 0.04025 0.09052 0.0
C408 C 0.3974 0.02203 0.97049 0.0
H409 H 0.34561 0.04763 0.24706 0.0
H410 H 0.4135 0.0568 0.14021 0.0
C411 C 0.3641 1.0009 0.91133 0.0
C412 C 0.49401 0.34751 0.13868 0.0
C413 C 0.51557 0.31421 0.08141 0.0
H414 H 0.47552 0.41187 0.12763 0.0
C415 C 0.53248 0.32133 0.95846 0.0
H416 H 0.48182 0.34404 0.23459 0.0
C417 C 0.52964 0.36055 0.89762 0.0
C418 C 0.50992 0.39453 0.95728 0.0
H419 H 0.55038 0.29705 0.9123 0.0
H420 H 0.54446 0.36456 0.80559 0.0
C421 C 0.49108 0.38685 0.07758 0.0
C422 C 0.21384 0.54037 0.96779 0.0
C423 C 0.22141 0.52374 0.09033 0.0
H424 H 0.1703 0.55056 0.81571 0.0
C425 C 0.18836 0.50148 0.14864 0.0
H426 H 0.23777 0.55899 0.92114 0.0
C427 C 0.14898 0.49725 0.08858 0.0
C428 C 0.14092 0.51538 0.96808 0.0
H429 H 0.19208 0.48958 0.24451 0.0
H430 H 0.12424 0.48103 0.13937 0.0
C431 C 0.17461 0.53607 0.90767 0.0
C432 C 0.04159 0.82102 0.61224 0.0
C433 C 0.02367 0.81431 0.49127 0.0
H434 H 0.05353 0.86328 0.76626 0.0
C435 C 1.00081 0.84754 0.43847 0.0
H436 H 0.06063 0.79692 0.6547 0.0
C437 C 0.99727 0.88631 0.50225 0.0
C438 C 1.0168 0.89358 0.6209 0.0
H439 H 0.98786 0.84448 0.34392 0.0
H440 H 0.98058 0.91126 0.45546 0.0
C441 C 0.03807 0.85966 0.67587 0.0
C442 C 0.69583 1.00509 0.45158 0.0
C443 C 0.727 0.03204 0.49821 0.0
H444 H 0.6333 0.98081 0.47252 0.0
C445 C 0.71802 0.05339 0.61273 0.0
H446 H 0.70071 0.98917 0.36198 0.0
C447 C 0.6791 0.049 0.67607 0.0
C448 C 0.64717 0.02346 0.62658 0.0
H449 H 0.74056 0.07536 0.65014 0.0
H450 H 0.67349 0.06704 0.76141 0.0
C451 C 0.6567 1.00087 0.51453 0.0
C452 C 0.53842 0.69131 0.43882 0.0
C453 C 0.5146 0.72381 0.49219 0.0
H454 H 0.55965 0.62784 0.45429 0.0
C455 C 0.49606 0.71617 0.61252 0.0
H456 H 0.55192 0.69513 0.34472 0.0
C457 C 0.49986 0.67731 0.67505 0.0
C458 C 0.52209 0.64408 0.61945 0.0
H459 H 0.47633 0.73973 0.65534 0.0
H460 H 0.48384 0.6729 0.76477 0.0
C461 C 0.54222 0.65228 0.50147 0.0
C462 C 0.82027 0.48487 0.6115 0.0
C463 C 0.81195 0.50596 0.49577 0.0
H464 H 0.8639 0.47134 0.76168 0.0
C465 C 0.84366 0.53259 0.44876 0.0
H466 H 0.79741 0.46311 0.64953 0.0
C467 C 0.88249 0.53676 0.51242 0.0
C468 C 0.89135 0.51444 0.62577 0.0
H469 H 0.83945 0.5483 0.35837 0.0
H470 H 0.90623 0.55659 0.46991 0.0
C471 C 0.85891 0.48921 0.67549 0.0
loop_
_geom_bond_atom_site_label_1
_geom_bond_atom_site_label_2
_geom_bond_distance
_geom_bond_site_symmetry_2
_ccdc_geom_bond_type
H0 C3 0.931 . S
H1 C6 0.928 . S
H2 C8 0.930 . S
C3 H0 0.931 . S
C3 C4 1.413 . S
C3 C5 1.360 . S
C4 C3 1.413 . S
C4 C8 1.429 . S
C5 C3 1.360 . S
C5 C6 1.372 . S
C6 H1 0.928 . S
C6 C5 1.372 . S
C6 C7 1.404 . S
C7 C6 1.404 . S
C7 C8 1.391 . S
C8 H2 0.930 . S
C8 C4 1.429 . S
C8 C7 1.391 . S
H9 C12 0.931 . S
H10 C15 0.928 . S
H11 C17 0.930 . S
C12 H9 0.931 . S
C12 C13 1.413 . S
C12 C14 1.360 . S
C13 C12 1.413 . S
C13 C17 1.429 1_655 S
C14 C12 1.360 . S
C14 C15 1.372 . S
C15 H10 0.928 . S
C15 C14 1.372 . S
C15 C16 1.404 . S
C16 C15 1.404 . S
C16 C17 1.390 1_655 S
C17 H11 0.930 . S
C17 C13 1.429 1_455 S
C17 C16 1.390 1_455 S
H18 C21 0.931 . S
H19 C24 0.928 . S
H20 C26 0.929 . S
C21 H18 0.931 . S
C21 C22 1.413 . S
C21 C23 1.360 . S
C22 C21 1.413 . S
C22 C26 1.429 1_565 S
C23 C21 1.360 . S
C23 C24 1.373 . S
C24 H19 0.928 . S
C24 C23 1.373 . S
C24 C25 1.405 . S
C25 C24 1.405 . S
C25 C26 1.390 1_565 S
C26 H20 0.929 . S
C26 C22 1.429 1_545 S
C26 C25 1.390 1_545 S
H27 C30 0.931 . S
H28 C33 0.928 . S
H29 C35 0.930 . S
C30 H27 0.931 . S
C30 C31 1.413 . S
C30 C32 1.360 . S
C31 C30 1.413 . S
C31 C35 1.429 . S
C32 C30 1.360 . S
C32 C33 1.372 . S
C33 H28 0.928 . S
C33 C32 1.372 . S
C33 C34 1.404 . S
C34 C33 1.404 . S
C34 C35 1.391 . S
C35 H29 0.930 . S
C35 C31 1.429 . S
C35 C34 1.391 . S
H36 C39 0.931 1_556 S
H37 C42 0.928 . S
H38 C44 0.930 . S
C39 H36 0.931 1_554 S
C39 C40 1.413 1_554 S
C39 C41 1.360 . S
C40 C39 1.413 1_556 S
C40 C44 1.429 . S
C41 C39 1.360 . S
C41 C42 1.372 . S
C42 H37 0.928 . S
C42 C41 1.372 . S
C42 C43 1.404 . S
C43 C42 1.404 . S
C43 C44 1.391 1_554 S
C44 H38 0.930 . S
C44 C40 1.429 . S
C44 C43 1.391 1_556 S
H45 C48 0.932 . S
H46 C51 0.928 . S
H47 C53 0.930 . S
C48 H45 0.932 . S
C48 C49 1.413 1_554 S
C48 C50 1.360 . S
C49 C48 1.413 1_556 S
C49 C53 1.429 1_655 S
C50 C48 1.360 . S
C50 C51 1.372 . S
C51 H46 0.928 . S
C51 C50 1.372 . S
C51 C52 1.404 . S
C52 C51 1.404 . S
C52 C53 1.391 1_654 S
C53 H47 0.930 . S
C53 C49 1.429 1_455 S
C53 C52 1.391 1_456 S
H54 C57 0.931 1_556 S
H55 C60 0.928 . S
H56 C62 0.930 . S
C57 H54 0.931 1_554 S
C57 C58 1.413 1_554 S
C57 C59 1.360 . S
C58 C57 1.413 1_556 S
C58 C62 1.429 1_565 S
C59 C57 1.360 . S
C59 C60 1.372 . S
C60 H55 0.928 . S
C60 C59 1.372 . S
C60 C61 1.404 . S
C61 C60 1.404 . S
C61 C62 1.391 1_564 S
C62 H56 0.930 . S
C62 C58 1.429 1_545 S
C62 C61 1.391 1_546 S
H63 C66 0.931 1_556 S
H64 C69 0.928 . S
H65 C71 0.930 . S
C66 H63 0.931 1_554 S
C66 C67 1.413 . S
C66 C68 1.360 1_554 S
C67 C66 1.413 . S
C67 C71 1.429 . S
C68 C66 1.360 1_556 S
C68 C69 1.372 . S
C69 H64 0.928 . S
C69 C68 1.372 . S
C69 C70 1.404 1_556 S
C70 C69 1.404 1_554 S
C70 C71 1.391 . S
C71 H65 0.930 . S
C71 C67 1.429 . S
C71 C70 1.391 . S
Tb72 C74 2.809 1_556 S
Tb72 O92 2.484 1_556 S
Tb72 O93 2.440 . S
Tb72 O94 2.658 1_565 S
Tb72 O95 2.409 . S
Tb72 O96 2.378 . S
Tb72 O100 2.325 1_455 S
Tb72 O103 2.341 1_565 S
Tb73 C83 2.809 . S
Tb73 O94 2.325 1_655 S
Tb73 O97 2.341 1_545 S
Tb73 O98 2.484 . S
Tb73 O99 2.440 . S
Tb73 O100 2.658 1_545 S
Tb73 O101 2.409 . S
Tb73 O102 2.378 . S
C74 Tb72 2.809 1_554 S
C74 C75 1.514 . S
C74 O92 1.248 . S
C74 O93 1.266 1_554 S
C75 C74 1.514 . S
C75 C76 1.359 . S
C75 C80 1.348 . S
C76 C75 1.359 . S
C76 C77 1.380 . S
C76 H104 0.929 . S
C77 C76 1.380 . S
C77 C78 1.347 . S
C77 H105 0.931 . S
C78 C77 1.347 . S
C78 C79 1.369 . S
C79 C78 1.369 . S
C79 C80 1.408 . S
C79 H106 0.930 . S
C80 C75 1.348 . S
C80 C79 1.408 . S
C80 H107 0.930 . S
C81 O94 1.281 1_565 S
C81 O95 1.254 . S
C82 O96 1.236 1_655 S
C82 O97 1.266 . S
C83 Tb73 2.809 . S
C83 C84 1.514 . S
C83 O98 1.248 . S
C83 O99 1.266 . S
C84 C83 1.514 . S
C84 C85 1.359 . S
C84 C89 1.348 . S
C85 C84 1.359 . S
C85 C86 1.380 . S
C85 H108 0.929 . S
C86 C85 1.380 . S
C86 C87 1.347 . S
C86 H109 0.931 . S
C87 C86 1.347 . S
C87 C88 1.369 . S
C88 C87 1.369 . S
C88 C89 1.408 . S
C88 H110 0.930 . S
C89 C84 1.348 . S
C89 C88 1.408 . S
C89 H111 0.930 . S
C90 O100 1.281 1_545 S
C90 O101 1.254 . S
C91 O102 1.236 1_455 S
C91 O103 1.266 . S
O92 Tb72 2.484 1_554 S
O92 C74 1.248 . S
O93 Tb72 2.440 . S
O93 C74 1.266 1_556 S
O94 Tb72 2.658 1_545 S
O94 Tb73 2.325 1_455 S
O94 C81 1.281 1_545 S
O95 Tb72 2.409 . S
O95 C81 1.254 . S
O96 Tb72 2.378 . S
O96 C82 1.236 1_455 S
O97 Tb73 2.341 1_565 S
O97 C82 1.266 . S
O98 Tb73 2.484 . S
O98 C83 1.248 . S
O99 Tb73 2.440 . S
O99 C83 1.266 . S
O100 Tb72 2.325 1_655 S
O100 Tb73 2.658 1_565 S
O100 C90 1.281 1_565 S
O101 Tb73 2.409 . S
O101 C90 1.254 . S
O102 Tb73 2.378 . S
O102 C91 1.236 1_655 S
O103 Tb72 2.341 1_545 S
O103 C91 1.266 . S
H104 C76 0.929 . S
H105 C77 0.931 . S
H106 C79 0.930 . S
H107 C80 0.930 . S
H108 C85 0.929 . S
H109 C86 0.931 . S
H110 C88 0.930 . S
H111 C89 0.930 . S
Tb112 C114 2.809 1_556 S
Tb112 O132 2.484 1_556 S
Tb112 O133 2.440 . S
Tb112 O134 2.658 . S
Tb112 O135 2.409 . S
Tb112 O136 2.378 . S
Tb112 O140 2.325 1_545 S
Tb112 O143 2.341 . S
Tb113 C123 2.809 . S
Tb113 O134 2.325 1_565 S
Tb113 O137 2.341 . S
Tb113 O138 2.484 . S
Tb113 O139 2.440 . S
Tb113 O140 2.658 . S
Tb113 O141 2.409 . S
Tb113 O142 2.378 . S
C114 Tb112 2.809 1_554 S
C114 C115 1.514 . S
C114 O132 1.248 . S
C114 O133 1.266 1_554 S
C115 C114 1.514 . S
C115 C116 1.359 . S
C115 C120 1.348 . S
C116 C115 1.359 . S
C116 C117 1.380 . S
C116 H144 0.929 1_545 S
C117 C116 1.380 . S
C117 C118 1.347 . S
C117 H145 0.931 . S
C118 C117 1.347 . S
C118 C119 1.369 . S
C119 C118 1.369 . S
C119 C120 1.408 . S
C119 H146 0.930 . S
C120 C115 1.348 . S
C120 C119 1.408 . S
C120 H147 0.930 . S
C121 O134 1.281 . S
C121 O135 1.254 . S
C122 O136 1.236 1_565 S
C122 O137 1.266 . S
C123 Tb113 2.809 . S
C123 C124 1.514 . S
C123 O138 1.248 . S
C123 O139 1.266 . S
C124 C123 1.514 . S
C124 C125 1.359 . S
C124 C129 1.348 . S
C125 C124 1.359 . S
C125 C126 1.380 . S
C125 H148 0.929 1_565 S
C126 C125 1.380 . S
C126 C127 1.347 . S
C126 H149 0.931 . S
C127 C126 1.347 . S
C127 C128 1.369 . S
C128 C127 1.369 . S
C128 C129 1.408 . S
C128 H150 0.930 . S
C129 C124 1.348 . S
C129 C128 1.408 . S
C129 H151 0.930 . S
C130 O140 1.281 . S
C130 O141 1.254 . S
C131 O142 1.236 1_545 S
C131 O143 1.266 . S
O132 Tb112 2.484 1_554 S
O132 C114 1.248 . S
O133 Tb112 2.440 . S
O133 C114 1.266 1_556 S
O134 Tb112 2.658 . S
O134 Tb113 2.325 1_545 S
O134 C121 1.281 . S
O135 Tb112 2.409 . S
O135 C121 1.254 . S
O136 Tb112 2.378 . S
O136 C122 1.236 1_545 S
O137 Tb113 2.341 . S
O137 C122 1.266 . S
O138 Tb113 2.484 . S
O138 C123 1.248 . S
O139 Tb113 2.440 . S
O139 C123 1.266 . S
O140 Tb112 2.325 1_565 S
O140 Tb113 2.658 . S
O140 C130 1.281 . S
O141 Tb113 2.409 . S
O141 C130 1.254 . S
O142 Tb113 2.378 . S
O142 C131 1.236 1_565 S
O143 Tb112 2.341 . S
O143 C131 1.266 . S
H144 C116 0.929 1_565 S
H145 C117 0.931 . S
H146 C119 0.930 . S
H147 C120 0.930 . S
H148 C125 0.929 1_545 S
H149 C126 0.931 . S
H150 C128 0.930 . S
H151 C129 0.930 . S
Tb152 C154 2.809 1_556 S
Tb152 O172 2.484 1_556 S
Tb152 O173 2.440 . S
Tb152 O174 2.658 . S
Tb152 O175 2.409 . S
Tb152 O176 2.378 . S
Tb152 O180 2.325 . S
Tb152 O183 2.341 . S
Tb153 C163 2.809 . S
Tb153 O174 2.325 . S
Tb153 O177 2.341 . S
Tb153 O178 2.484 . S
Tb153 O179 2.440 . S
Tb153 O180 2.658 . S
Tb153 O181 2.409 . S
Tb153 O182 2.378 . S
C154 Tb152 2.809 1_554 S
C154 C155 1.514 . S
C154 O172 1.248 . S
C154 O173 1.266 1_554 S
C155 C154 1.514 . S
C155 C156 1.359 . S
C155 C160 1.348 . S
C156 C155 1.359 . S
C156 C157 1.380 . S
C156 H184 0.929 . S
C157 C156 1.380 . S
C157 C158 1.347 . S
C157 H185 0.931 . S
C158 C157 1.347 . S
C158 C159 1.369 . S
C159 C158 1.369 . S
C159 C160 1.408 . S
C159 H186 0.930 . S
C160 C155 1.348 . S
C160 C159 1.408 . S
C160 H187 0.930 . S
C161 O174 1.281 . S
C161 O175 1.254 . S
C162 O176 1.236 . S
C162 O177 1.266 . S
C163 Tb153 2.809 . S
C163 C164 1.514 . S
C163 O178 1.248 . S
C163 O179 1.266 . S
C164 C163 1.514 . S
C164 C165 1.359 . S
C164 C169 1.348 . S
C165 C164 1.359 . S
C165 C166 1.380 . S
C165 H188 0.929 . S
C166 C165 1.380 . S
C166 C167 1.347 . S
C166 H189 0.931 . S
C167 C166 1.347 . S
C167 C168 1.369 . S
C168 C167 1.369 . S
C168 C169 1.408 . S
C168 H190 0.930 . S
C169 C164 1.348 . S
C169 C168 1.408 . S
C169 H191 0.930 . S
C170 O180 1.281 . S
C170 O181 1.254 . S
C171 O182 1.236 . S
C171 O183 1.266 . S
O172 Tb152 2.484 1_554 S
O172 C154 1.248 . S
O173 Tb152 2.440 . S
O173 C154 1.266 1_556 S
O174 Tb152 2.658 . S
O174 Tb153 2.325 . S
O174 C161 1.281 . S
O175 Tb152 2.409 . S
O175 C161 1.254 . S
O176 Tb152 2.378 . S
O176 C162 1.236 . S
O177 Tb153 2.341 . S
O177 C162 1.266 . S
O178 Tb153 2.484 . S
O178 C163 1.248 . S
O179 Tb153 2.440 . S
O179 C163 1.266 . S
O180 Tb152 2.325 . S
O180 Tb153 2.658 . S
O180 C170 1.281 . S
O181 Tb153 2.409 . S
O181 C170 1.254 . S
O182 Tb153 2.378 . S
O182 C171 1.236 . S
O183 Tb152 2.341 . S
O183 C171 1.266 . S
H184 C156 0.929 . S
H185 C157 0.931 . S
H186 C159 0.930 . S
H187 C160 0.930 . S
H188 C165 0.929 . S
H189 C166 0.931 . S
H190 C168 0.930 . S
H191 C169 0.930 . S
Tb192 C194 2.809 1_556 S
Tb192 O212 2.484 1_556 S
Tb192 O213 2.440 . S
Tb192 O214 2.658 1_655 S
Tb192 O215 2.409 . S
Tb192 O216 2.378 . S
Tb192 O220 2.325 . S
Tb192 O223 2.341 1_655 S
Tb193 C203 2.809 . S
Tb193 O214 2.325 . S
Tb193 O217 2.341 1_455 S
Tb193 O218 2.484 . S
Tb193 O219 2.440 . S
Tb193 O220 2.658 1_455 S
Tb193 O221 2.409 . S
Tb193 O222 2.378 . S
C194 Tb192 2.809 1_554 S
C194 C195 1.514 . S
C194 O212 1.248 . S
C194 O213 1.266 1_554 S
C195 C194 1.514 . S
C195 C196 1.359 . S
C195 C200 1.348 . S
C196 C195 1.359 . S
C196 C197 1.380 . S
C196 H224 0.929 . S
C197 C196 1.380 . S
C197 C198 1.347 . S
C197 H225 0.931 . S
C198 C197 1.347 . S
C198 C199 1.369 . S
C199 C198 1.369 . S
C199 C200 1.408 . S
C199 H226 0.930 . S
C200 C195 1.348 . S
C200 C199 1.408 . S
C200 H227 0.930 . S
C201 O214 1.280 . S
C201 O215 1.254 1_455 S
C202 O216 1.236 . S
C202 O217 1.266 . S
C203 Tb193 2.809 . S
C203 C204 1.514 . S
C203 O218 1.248 . S
C203 O219 1.266 . S
C204 C203 1.514 . S
C204 C205 1.359 . S
C204 C209 1.348 . S
C205 C204 1.359 . S
C205 C206 1.380 . S
C205 H228 0.929 . S
C206 C205 1.380 . S
C206 C207 1.347 . S
C206 H229 0.931 . S
C207 C206 1.347 . S
C207 C208 1.369 . S
C208 C207 1.369 . S
C208 C209 1.408 . S
C208 H230 0.930 . S
C209 C204 1.348 . S
C209 C208 1.408 . S
C209 H231 0.930 . S
C210 O220 1.280 1_455 S
C210 O221 1.254 . S
C211 O222 1.236 . S
C211 O223 1.266 . S
O212 Tb192 2.484 1_554 S
O212 C194 1.248 . S
O213 Tb192 2.440 . S
O213 C194 1.266 1_556 S
O214 Tb192 2.658 1_455 S
O214 Tb193 2.325 . S
O214 C201 1.280 . S
O215 Tb192 2.409 . S
O215 C201 1.254 1_655 S
O216 Tb192 2.378 . S
O216 C202 1.236 . S
O217 Tb193 2.341 1_655 S
O217 C202 1.266 . S
O218 Tb193 2.484 . S
O218 C203 1.248 . S
O219 Tb193 2.440 . S
O219 C203 1.266 . S
O220 Tb192 2.325 . S
O220 Tb193 2.658 1_655 S
O220 C210 1.280 1_655 S
O221 Tb193 2.409 . S
O221 C210 1.254 . S
O222 Tb193 2.378 . S
O222 C211 1.236 . S
O223 Tb192 2.341 1_455 S
O223 C211 1.266 . S
H224 C196 0.929 . S
H225 C197 0.931 . S
H226 C199 0.930 . S
H227 C200 0.930 . S
H228 C205 0.929 . S
H229 C206 0.931 . S
H230 C208 0.930 . S
H231 C209 0.930 . S
C232 C233 1.381 1_545 S
C232 H236 0.950 . S
C232 C241 1.390 . S
C233 C232 1.381 1_565 S
C233 C235 1.394 . S
H234 C241 0.950 . S
C235 C233 1.394 . S
C235 C237 1.390 . S
C235 H239 0.950 . S
H236 C232 0.950 . S
C237 C235 1.390 . S
C237 C238 1.387 . S
C237 H240 0.950 . S
C238 C237 1.387 . S
C238 C241 1.387 1_565 S
H239 C235 0.950 . S
H240 C237 0.950 . S
C241 C232 1.390 . S
C241 H234 0.950 . S
C241 C238 1.387 1_545 S
C242 C243 1.387 . S
C242 H246 0.950 . S
C242 C251 1.390 . S
C243 C242 1.387 . S
C243 C245 1.387 . S
H244 C251 0.950 . S
C245 C243 1.387 . S
C245 C247 1.390 . S
C245 H249 0.950 . S
H246 C242 0.950 . S
C247 C245 1.390 . S
C247 C248 1.387 . S
C247 H250 0.950 . S
C248 C247 1.387 . S
C248 C251 1.387 . S
H249 C245 0.950 . S
H250 C247 0.950 . S
C251 C242 1.390 . S
C251 H244 0.950 . S
C251 C248 1.387 . S
C252 C253 1.387 . S
C252 H256 0.950 . S
C252 C261 1.390 . S
C253 C252 1.387 . S
C253 C255 1.387 . S
H254 C261 0.950 . S
C255 C253 1.387 . S
C255 C257 1.390 . S
C255 H259 0.950 . S
H256 C252 0.950 . S
C257 C255 1.390 . S
C257 C258 1.387 . S
C257 H260 0.950 . S
C258 C257 1.387 . S
C258 C261 1.387 . S
H259 C255 0.950 . S
H260 C257 0.950 . S
C261 C252 1.390 . S
C261 H254 0.950 . S
C261 C258 1.387 . S
C262 C263 1.371 1_655 S
C262 H266 0.950 . S
C262 C271 1.390 . S
C263 C262 1.371 1_455 S
C263 C265 1.404 . S
H264 C271 0.950 . S
C265 C263 1.404 . S
C265 C267 1.390 . S
C265 H269 0.950 . S
H266 C262 0.950 . S
C267 C265 1.390 . S
C267 C268 1.387 . S
C267 H270 0.950 . S
C268 C267 1.387 . S
C268 C271 1.387 1_455 S
H269 C265 0.950 . S
H270 C267 0.950 . S
C271 C262 1.390 . S
C271 H264 0.950 . S
C271 C268 1.387 1_655 S
C272 C273 1.400 . S
C272 H276 0.950 . S
C272 C281 1.390 . S
C273 C272 1.400 . S
C273 C275 1.375 1_545 S
H274 C281 0.950 . S
C275 C273 1.375 1_565 S
C275 C277 1.390 . S
C275 H279 0.950 . S
H276 C272 0.950 . S
C277 C275 1.390 . S
C277 C278 1.387 1_565 S
C277 H280 0.950 . S
C278 C277 1.387 1_545 S
C278 C281 1.387 . S
H279 C275 0.950 . S
H280 C277 0.950 . S
C281 C272 1.390 . S
C281 H274 0.950 . S
C281 C278 1.387 . S
C282 C283 1.387 . S
C282 H286 0.950 . S
C282 C291 1.390 . S
C283 C282 1.387 . S
C283 C285 1.387 . S
H284 C291 0.950 . S
C285 C283 1.387 . S
C285 C287 1.390 . S
C285 H289 0.950 . S
H286 C282 0.950 . S
C287 C285 1.390 . S
C287 C288 1.387 . S
C287 H290 0.950 . S
C288 C287 1.387 . S
C288 C291 1.387 . S
H289 C285 0.950 . S
H290 C287 0.950 . S
C291 C282 1.390 . S
C291 H284 0.950 . S
C291 C288 1.387 . S
C292 C293 1.387 . S
C292 H296 0.950 . S
C292 C301 1.390 . S
C293 C292 1.387 . S
C293 C295 1.387 . S
H294 C301 0.950 . S
C295 C293 1.387 . S
C295 C297 1.390 . S
C295 H299 0.950 . S
H296 C292 0.950 . S
C297 C295 1.390 . S
C297 C298 1.387 . S
C297 H300 0.950 . S
C298 C297 1.387 . S
C298 C301 1.387 . S
H299 C295 0.950 . S
H300 C297 0.950 . S
C301 C292 1.390 . S
C301 H294 0.950 . S
C301 C298 1.387 . S
C302 C303 1.372 1_455 S
C302 H306 0.950 . S
C302 C311 1.390 . S
C303 C302 1.372 1_655 S
C303 C305 1.403 . S
H304 C311 0.950 . S
C305 C303 1.403 . S
C305 C307 1.390 . S
C305 H309 0.950 . S
H306 C302 0.950 . S
C307 C305 1.390 . S
C307 C308 1.387 . S
C307 H310 0.950 . S
C308 C307 1.387 . S
C308 C311 1.387 1_655 S
H309 C305 0.950 . S
H310 C307 0.950 . S
C311 C302 1.390 . S
C311 H304 0.950 . S
C311 C308 1.387 1_455 S
C312 C313 1.387 . S
C312 H316 0.950 . S
C312 C321 1.390 . S
C313 C312 1.387 . S
C313 C315 1.387 . S
H314 C321 0.950 . S
C315 C313 1.387 . S
C315 C317 1.390 . S
C315 H319 0.950 . S
H316 C312 0.950 . S
C317 C315 1.390 . S
C317 C318 1.387 . S
C317 H320 0.950 . S
C318 C317 1.387 . S
C318 C321 1.387 . S
H319 C315 0.950 . S
H320 C317 0.950 . S
C321 C312 1.390 . S
C321 H314 0.950 . S
C321 C318 1.387 . S
C322 C323 1.387 . S
C322 H326 0.950 1_565 S
C322 C331 1.390 . S
C323 C322 1.387 . S
C323 C325 1.387 . S
H324 C331 0.950 . S
C325 C323 1.387 . S
C325 C327 1.390 . S
C325 H329 0.950 . S
H326 C322 0.950 1_545 S
C327 C325 1.390 . S
C327 C328 1.387 . S
C327 H330 0.950 . S
C328 C327 1.387 . S
C328 C331 1.387 . S
H329 C325 0.950 . S
H330 C327 0.950 . S
C331 C322 1.390 . S
C331 H324 0.950 . S
C331 C328 1.387 . S
C332 C333 1.387 . S
C332 H336 0.950 . S
C332 C341 1.390 . S
C333 C332 1.387 . S
C333 C335 1.387 . S
H334 C341 0.950 . S
C335 C333 1.387 . S
C335 C337 1.390 . S
C335 H339 0.950 . S
H336 C332 0.950 . S
C337 C335 1.390 . S
C337 C338 1.387 . S
C337 H340 0.950 . S
C338 C337 1.387 . S
C338 C341 1.387 . S
H339 C335 0.950 . S
H340 C337 0.950 . S
C341 C332 1.390 . S
C341 H334 0.950 . S
C341 C338 1.387 . S
C342 C343 1.387 . S
C342 H346 0.950 . S
C342 C351 1.390 . S
C343 C342 1.387 . S
C343 C345 1.387 . S
H344 C351 0.950 . S
C345 C343 1.387 . S
C345 C347 1.390 . S
C345 H349 0.950 . S
H346 C342 0.950 . S
C347 C345 1.390 . S
C347 C348 1.387 . S
C347 H350 0.950 . S
C348 C347 1.387 . S
C348 C351 1.387 . S
H349 C345 0.950 . S
H350 C347 0.950 . S
C351 C342 1.390 . S
C351 H344 0.950 . S
C351 C348 1.387 . S
C352 C353 1.387 . S
C352 H356 0.950 . S
C352 C361 1.390 . S
C353 C352 1.387 . S
C353 C355 1.387 . S
H354 C361 0.950 . S
C355 C353 1.387 . S
C355 C357 1.390 . S
C355 H359 0.938 1_455 S
H356 C352 0.950 . S
C357 C355 1.390 . S
C357 C358 1.387 . S
C357 H360 0.950 . S
C358 C357 1.387 . S
C358 C361 1.387 . S
H359 C355 0.938 1_655 S
H360 C357 0.950 . S
C361 C352 1.390 . S
C361 H354 0.950 . S
C361 C358 1.387 . S
C362 C363 1.387 . S
C362 H366 0.950 . S
C362 C371 1.390 . S
C363 C362 1.387 . S
C363 C365 1.387 1_545 S
H364 C371 0.950 . S
C365 C363 1.387 1_565 S
C365 C367 1.390 1_565 S
C365 H369 0.950 . S
H366 C362 0.950 . S
C367 C365 1.390 1_545 S
C367 C368 1.387 . S
C367 H370 0.950 . S
C368 C367 1.387 . S
C368 C371 1.387 . S
H369 C365 0.950 . S
H370 C367 0.950 . S
C371 C362 1.390 . S
C371 H364 0.950 . S
C371 C368 1.387 . S
C372 C373 1.387 . S
C372 H376 0.950 . S
C372 C381 1.390 . S
C373 C372 1.387 . S
C373 C375 1.387 . S
H374 C381 0.950 . S
C375 C373 1.387 . S
C375 C377 1.390 . S
C375 H379 0.950 . S
H376 C372 0.950 . S
C377 C375 1.390 . S
C377 C378 1.387 . S
C377 H380 0.950 . S
C378 C377 1.387 . S
C378 C381 1.387 . S
H379 C375 0.950 . S
H380 C377 0.950 . S
C381 C372 1.390 . S
C381 H374 0.950 . S
C381 C378 1.387 . S
C382 C383 1.387 . S
C382 H386 0.950 . S
C382 C391 1.390 . S
C383 C382 1.387 . S
C383 C385 1.387 . S
H384 C391 0.950 . S
C385 C383 1.387 . S
C385 C387 1.390 . S
C385 H389 0.950 . S
H386 C382 0.950 . S
C387 C385 1.390 . S
C387 C388 1.387 . S
C387 H390 0.950 . S
C388 C387 1.387 . S
C388 C391 1.387 . S
H389 C385 0.950 . S
H390 C387 0.950 . S
C391 C382 1.390 . S
C391 H384 0.950 . S
C391 C388 1.387 . S
C392 C393 1.387 . S
C392 H396 0.950 . S
C392 C401 1.390 . S
C393 C392 1.387 . S
C393 C395 1.387 . S
H394 C401 0.950 . S
C395 C393 1.387 . S
C395 C397 1.390 . S
C395 H399 0.950 1_556 S
H396 C392 0.950 . S
C397 C395 1.390 . S
C397 C398 1.387 . S
C397 H400 0.950 1_556 S
C398 C397 1.387 . S
C398 C401 1.387 . S
H399 C395 0.950 1_554 S
H400 C397 0.950 1_554 S
C401 C392 1.390 . S
C401 H394 0.950 . S
C401 C398 1.387 . S
C402 C403 1.387 1_565 S
C402 H406 0.950 . S
C402 C411 1.390 . S
C403 C402 1.387 1_545 S
C403 C405 1.387 . S
H404 C411 0.950 . S
C405 C403 1.387 . S
C405 C407 1.390 . S
C405 H409 0.950 1_556 S
H406 C402 0.950 . S
C407 C405 1.390 . S
C407 C408 1.387 . S
C407 H410 0.950 . S
C408 C407 1.387 . S
C408 C411 1.387 1_545 S
H409 C405 0.950 1_554 S
H410 C407 0.950 . S
C411 C402 1.390 . S
C411 H404 0.950 . S
C411 C408 1.387 1_565 S
C412 C413 1.387 . S
C412 H416 0.950 1_556 S
C412 C421 1.390 . S
C413 C412 1.387 . S
C413 C415 1.387 . S
H414 C421 0.950 1_554 S
C415 C413 1.387 . S
C415 C417 1.390 . S
C415 H419 0.950 . S
H416 C412 0.950 1_554 S
C417 C415 1.390 . S
C417 C418 1.387 . S
C417 H420 0.950 . S
C418 C417 1.387 . S
C418 C421 1.387 . S
H419 C415 0.950 . S
H420 C417 0.950 . S
C421 C412 1.390 . S
C421 H414 0.950 1_556 S
C421 C418 1.387 . S
C422 C423 1.387 . S
C422 H426 0.950 . S
C422 C431 1.390 . S
C423 C422 1.387 . S
C423 C425 1.387 . S
H424 C431 0.950 . S
C425 C423 1.387 . S
C425 C427 1.390 . S
C425 H429 0.950 1_556 S
H426 C422 0.950 . S
C427 C425 1.390 . S
C427 C428 1.387 . S
C427 H430 0.950 1_556 S
C428 C427 1.387 . S
C428 C431 1.387 . S
H429 C425 0.950 1_554 S
H430 C427 0.950 1_554 S
C431 C422 1.390 . S
C431 H424 0.950 . S
C431 C428 1.387 . S
C432 C433 1.387 . S
C432 H436 0.950 . S
C432 C441 1.390 . S
C433 C432 1.387 . S
C433 C435 1.387 . S
H434 C441 0.950 . S
C435 C433 1.387 . S
C435 C437 1.390 . S
C435 H439 0.950 . S
H436 C432 0.950 . S
C437 C435 1.390 . S
C437 C438 1.387 . S
C437 H440 0.950 . S
C438 C437 1.387 . S
C438 C441 1.387 . S
H439 C435 0.950 . S
H440 C437 0.950 . S
C441 C432 1.390 . S
C441 H434 0.950 . S
C441 C438 1.387 . S
C442 C443 1.387 . S
C442 H446 0.950 . S
C442 C451 1.390 . S
C443 C442 1.387 . S
C443 C445 1.387 . S
H444 C451 0.950 . S
C445 C443 1.387 . S
C445 C447 1.390 . S
C445 H449 0.953 . S
H446 C442 0.950 . S
C447 C445 1.390 . S
C447 C448 1.387 . S
C447 H450 0.950 . S
C448 C447 1.387 . S
C448 C451 1.387 . S
H449 C445 0.953 . S
H450 C447 0.950 . S
C451 C442 1.390 . S
C451 H444 0.950 . S
C451 C448 1.387 . S
C452 C453 1.387 . S
C452 H456 0.950 . S
C452 C461 1.390 . S
C453 C452 1.387 . S
C453 C455 1.387 . S
H454 C461 0.950 . S
C455 C453 1.387 . S
C455 C457 1.390 . S
C455 H459 0.950 . S
H456 C452 0.950 . S
C457 C455 1.390 . S
C457 C458 1.387 . S
C457 H460 0.950 . S
C458 C457 1.387 . S
C458 C461 1.387 . S
H459 C455 0.950 . S
H460 C457 0.950 . S
C461 C452 1.390 . S
C461 H454 0.950 . S
C461 C458 1.387 . S
C462 C463 1.387 . S
C462 H466 0.950 . S
C462 C471 1.390 . S
C463 C462 1.387 . S
C463 C465 1.387 . S
H464 C471 0.950 . S
C465 C463 1.387 . S
C465 C467 1.390 . S
C465 H469 0.950 . S
H466 C462 0.950 . S
C467 C465 1.390 . S
C467 C468 1.387 . S
C467 H470 0.950 . S
C468 C467 1.387 . S
C468 C471 1.387 . S
H469 C465 0.950 . S
H470 C467 0.950 . S
C471 C462 1.390 . S
C471 H464 0.950 . S
C471 C468 1.387 . S
C233 C61 1.978 . S
C238 C81 2.257 . S
C248 C121 2.288 . S
C243 C70 2.026 . S
C258 C161 2.300 . S
C253 C43 2.029 . S
C268 C201 2.276 . S
C263 C52 2.005 1_455 S
C278 C90 2.258 1_554 S
C273 C25 1.981 1_545 S
C283 C34 2.033 . S
C288 C130 2.289 1_554 S
C293 C7 2.030 . S
C298 C170 2.301 1_554 S
C303 C16 2.001 . S
C308 C210 2.276 1_654 S
C318 C87 0.862 . S
C313 C50 0.898 . S
C328 C127 0.845 . S
C323 C59 0.871 . S
C338 C167 0.835 . S
C333 C67 0.859 . S
C343 C41 0.876 . S
C348 C207 0.843 . S
C353 C14 0.909 1_455 S
C358 C78 0.874 . S
C368 C118 0.852 . S
C363 C23 0.878 1_545 S
C378 C158 0.826 . S
C373 C31 0.850 . S
C383 C5 0.879 . S
C388 C198 0.843 . S
C393 C49 2.306 1_455 S
C398 C91 2.615 . S
C403 C58 2.242 1_545 S
C408 C131 2.550 . S
C418 C171 2.530 . S
C413 C68 2.224 . S
C428 C211 2.597 . S
C423 C40 2.285 . S
C433 C13 2.305 . S
C438 C82 2.620 . S
C448 C122 2.550 . S
C443 C22 2.242 . S
C458 C162 2.532 . S
C453 C32 2.231 . S
C463 C4 2.286 . S
C468 C202 2.598 . S
