# Generated by pormake.
# Topology ptr, (4,4)-cn, num edge types: 1
# Building blocks:
#     Node 0, Type 0, BuildingBlock: AZAVOO_clean_sbu_0, # of connection points: 4
#     Node 1, Type 0, BuildingBlock: AZAVOO_clean_sbu_0, # of connection points: 4
#     Node 2, Type 0, BuildingBlock: AZAVOO_clean_sbu_0, # of connection points: 4
#     Node 3, Type 0, BuildingBlock: AZAVOO_clean_sbu_0, # of connection points: 4
#     Node 4, Type 0, BuildingBlock: AZAVOO_clean_sbu_0, # of connection points: 4
#     Node 5, Type 0, BuildingBlock: AZAVOO_clean_sbu_0, # of connection points: 4
#     Node 6, Type 0, BuildingBlock: AZAVOO_clean_sbu_0, # of connection points: 4
#     Node 7, Type 0, BuildingBlock: AZAVOO_clean_sbu_0, # of connection points: 4
#     Node 8, Type 0, BuildingBlock: AZAVOO_clean_sbu_0, # of connection points: 4
#     Node 9, Type 0, BuildingBlock: AZAVOO_clean_sbu_0, # of connection points: 4
#     Node 10, Type 0, BuildingBlock: AZAVOO_clean_sbu_0, # of connection points: 4
#     Node 11, Type 0, BuildingBlock: AZAVOO_clean_sbu_0, # of connection points: 4
#     Node 12, Type 0, BuildingBlock: AZAVOO_clean_sbu_0, # of connection points: 4
#     Node 13, Type 0, BuildingBlock: AZAVOO_clean_sbu_0, # of connection points: 4
#     Node 14, Type 0, BuildingBlock: AZAVOO_clean_sbu_0, # of connection points: 4
#     Node 15, Type 0, BuildingBlock: AZAVOO_clean_sbu_0, # of connection points: 4
#     Node 16, Type 0, BuildingBlock: AZAVOO_clean_sbu_0, # of connection points: 4
#     Node 17, Type 0, BuildingBlock: AZAVOO_clean_sbu_0, # of connection points: 4
#     Node 18, Type 1, BuildingBlock: GIZVER_clean_linker_0, # of connection points: 4
#     Node 19, Type 1, BuildingBlock: GIZVER_clean_linker_0, # of connection points: 4
#     Node 20, Type 1, BuildingBlock: GIZVER_clean_linker_0, # of connection points: 4
#     Node 21, Type 1, BuildingBlock: GIZVER_clean_linker_0, # of connection points: 4
#     Node 22, Type 1, BuildingBlock: GIZVER_clean_linker_0, # of connection points: 4
#     Node 23, Type 1, BuildingBlock: GIZVER_clean_linker_0, # of connection points: 4
#     Node 24, Type 1, BuildingBlock: GIZVER_clean_linker_0, # of connection points: 4
#     Node 25, Type 1, BuildingBlock: GIZVER_clean_linker_0, # of connection points: 4
#     Node 26, Type 1, BuildingBlock: GIZVER_clean_linker_0, # of connection points: 4
#     Node 27, Type 1, BuildingBlock: GIZVER_clean_linker_0, # of connection points: 4
#     Node 28, Type 1, BuildingBlock: GIZVER_clean_linker_0, # of connection points: 4
#     Node 29, Type 1, BuildingBlock: GIZVER_clean_linker_0, # of connection points: 4
#     Node 30, Type 1, BuildingBlock: GIZVER_clean_linker_0, # of connection points: 4
#     Node 31, Type 1, BuildingBlock: GIZVER_clean_linker_0, # of connection points: 4
#     Node 32, Type 1, BuildingBlock: GIZVER_clean_linker_0, # of connection points: 4
#     Node 33, Type 1, BuildingBlock: GIZVER_clean_linker_0, # of connection points: 4
#     Node 34, Type 1, BuildingBlock: GIZVER_clean_linker_0, # of connection points: 4
#     Node 35, Type 1, BuildingBlock: GIZVER_clean_linker_0, # of connection points: 4
#     Edge 36, Type (0, 1), BuildingBlock: FUNLAD_clean_linker_0, # of connection points: 2
#     Edge 37, Type (0, 1), BuildingBlock: FUNLAD_clean_linker_0, # of connection points: 2
#     Edge 38, Type (0, 1), BuildingBlock: FUNLAD_clean_linker_0, # of connection points: 2
#     Edge 39, Type (0, 1), BuildingBlock: FUNLAD_clean_linker_0, # of connection points: 2
#     Edge 40, Type (0, 1), BuildingBlock: FUNLAD_clean_linker_0, # of connection points: 2
#     Edge 41, Type (0, 1), BuildingBlock: FUNLAD_clean_linker_0, # of connection points: 2
#     Edge 42, Type (0, 1), BuildingBlock: FUNLAD_clean_linker_0, # of connection points: 2
#     Edge 43, Type (0, 1), BuildingBlock: FUNLAD_clean_linker_0, # of connection points: 2
#     Edge 44, Type (0, 1), BuildingBlock: FUNLAD_clean_linker_0, # of connection points: 2
#     Edge 45, Type (0, 1), BuildingBlock: FUNLAD_clean_linker_0, # of connection points: 2
#     Edge 46, Type (0, 1), BuildingBlock: FUNLAD_clean_linker_0, # of connection points: 2
#     Edge 47, Type (0, 1), BuildingBlock: FUNLAD_clean_linker_0, # of connection points: 2
#     Edge 48, Type (0, 1), BuildingBlock: FUNLAD_clean_linker_0, # of connection points: 2
#     Edge 49, Type (0, 1), BuildingBlock: FUNLAD_clean_linker_0, # of connection points: 2
#     Edge 50, Type (0, 1), BuildingBlock: FUNLAD_clean_linker_0, # of connection points: 2
#     Edge 51, Type (0, 1), BuildingBlock: FUNLAD_clean_linker_0, # of connection points: 2
#     Edge 52, Type (0, 1), BuildingBlock: FUNLAD_clean_linker_0, # of connection points: 2
#     Edge 53, Type (0, 1), BuildingBlock: FUNLAD_clean_linker_0, # of connection points: 2
#     Edge 54, Type (0, 1), BuildingBlock: FUNLAD_clean_linker_0, # of connection points: 2
#     Edge 55, Type (0, 1), BuildingBlock: FUNLAD_clean_linker_0, # of connection points: 2
#     Edge 56, Type (0, 1), BuildingBlock: FUNLAD_clean_linker_0, # of connection points: 2
#     Edge 57, Type (0, 1), BuildingBlock: FUNLAD_clean_linker_0, # of connection points: 2
#     Edge 58, Type (0, 1), BuildingBlock: FUNLAD_clean_linker_0, # of connection points: 2
#     Edge 59, Type (0, 1), BuildingBlock: FUNLAD_clean_linker_0, # of connection points: 2
#     Edge 60, Type (0, 1), BuildingBlock: FUNLAD_clean_linker_0, # of connection points: 2
#     Edge 61, Type (0, 1), BuildingBlock: FUNLAD_clean_linker_0, # of connection points: 2
#     Edge 62, Type (0, 1), BuildingBlock: FUNLAD_clean_linker_0, # of connection points: 2
#     Edge 63, Type (0, 1), BuildingBlock: FUNLAD_clean_linker_0, # of connection points: 2
#     Edge 64, Type (0, 1), BuildingBlock: FUNLAD_clean_linker_0, # of connection points: 2
#     Edge 65, Type (0, 1), BuildingBlock: FUNLAD_clean_linker_0, # of connection points: 2
#     Edge 66, Type (0, 1), BuildingBlock: FUNLAD_clean_linker_0, # of connection points: 2
#     Edge 67, Type (0, 1), BuildingBlock: FUNLAD_clean_linker_0, # of connection points: 2
#     Edge 68, Type (0, 1), BuildingBlock: FUNLAD_clean_linker_0, # of connection points: 2
#     Edge 69, Type (0, 1), BuildingBlock: FUNLAD_clean_linker_0, # of connection points: 2
#     Edge 70, Type (0, 1), BuildingBlock: FUNLAD_clean_linker_0, # of connection points: 2
#     Edge 71, Type (0, 1), BuildingBlock: FUNLAD_clean_linker_0, # of connection points: 2
#     Edge 72, Type (0, 1), BuildingBlock: FUNLAD_clean_linker_0, # of connection points: 2
#     Edge 73, Type (0, 1), BuildingBlock: FUNLAD_clean_linker_0, # of connection points: 2
#     Edge 74, Type (0, 1), BuildingBlock: FUNLAD_clean_linker_0, # of connection points: 2
#     Edge 75, Type (0, 1), BuildingBlock: FUNLAD_clean_linker_0, # of connection points: 2
#     Edge 76, Type (0, 1), BuildingBlock: FUNLAD_clean_linker_0, # of connection points: 2
#     Edge 77, Type (0, 1), BuildingBlock: FUNLAD_clean_linker_0, # of connection points: 2
#     Edge 78, Type (0, 1), BuildingBlock: FUNLAD_clean_linker_0, # of connection points: 2
#     Edge 79, Type (0, 1), BuildingBlock: FUNLAD_clean_linker_0, # of connection points: 2
#     Edge 80, Type (0, 1), BuildingBlock: FUNLAD_clean_linker_0, # of connection points: 2
#     Edge 81, Type (0, 1), BuildingBlock: FUNLAD_clean_linker_0, # of connection points: 2
#     Edge 82, Type (0, 1), BuildingBlock: FUNLAD_clean_linker_0, # of connection points: 2
#     Edge 83, Type (0, 1), BuildingBlock: FUNLAD_clean_linker_0, # of connection points: 2
#     Edge 84, Type (0, 1), BuildingBlock: FUNLAD_clean_linker_0, # of connection points: 2
#     Edge 85, Type (0, 1), BuildingBlock: FUNLAD_clean_linker_0, # of connection points: 2
#     Edge 86, Type (0, 1), BuildingBlock: FUNLAD_clean_linker_0, # of connection points: 2
#     Edge 87, Type (0, 1), BuildingBlock: FUNLAD_clean_linker_0, # of connection points: 2
#     Edge 88, Type (0, 1), BuildingBlock: FUNLAD_clean_linker_0, # of connection points: 2
#     Edge 89, Type (0, 1), BuildingBlock: FUNLAD_clean_linker_0, # of connection points: 2
#     Edge 90, Type (0, 1), BuildingBlock: FUNLAD_clean_linker_0, # of connection points: 2
#     Edge 91, Type (0, 1), BuildingBlock: FUNLAD_clean_linker_0, # of connection points: 2
#     Edge 92, Type (0, 1), BuildingBlock: FUNLAD_clean_linker_0, # of connection points: 2
#     Edge 93, Type (0, 1), BuildingBlock: FUNLAD_clean_linker_0, # of connection points: 2
#     Edge 94, Type (0, 1), BuildingBlock: FUNLAD_clean_linker_0, # of connection points: 2
#     Edge 95, Type (0, 1), BuildingBlock: FUNLAD_clean_linker_0, # of connection points: 2
#     Edge 96, Type (0, 1), BuildingBlock: FUNLAD_clean_linker_0, # of connection points: 2
#     Edge 97, Type (0, 1), BuildingBlock: FUNLAD_clean_linker_0, # of connection points: 2
#     Edge 98, Type (0, 1), BuildingBlock: FUNLAD_clean_linker_0, # of connection points: 2
#     Edge 99, Type (0, 1), BuildingBlock: FUNLAD_clean_linker_0, # of connection points: 2
#     Edge 100, Type (0, 1), BuildingBlock: FUNLAD_clean_linker_0, # of connection points: 2
#     Edge 101, Type (0, 1), BuildingBlock: FUNLAD_clean_linker_0, # of connection points: 2
#     Edge 102, Type (0, 1), BuildingBlock: FUNLAD_clean_linker_0, # of connection points: 2
#     Edge 103, Type (0, 1), BuildingBlock: FUNLAD_clean_linker_0, # of connection points: 2
#     Edge 104, Type (0, 1), BuildingBlock: FUNLAD_clean_linker_0, # of connection points: 2
#     Edge 105, Type (0, 1), BuildingBlock: FUNLAD_clean_linker_0, # of connection points: 2
#     Edge 106, Type (0, 1), BuildingBlock: FUNLAD_clean_linker_0, # of connection points: 2
#     Edge 107, Type (0, 1), BuildingBlock: FUNLAD_clean_linker_0, # of connection points: 2
# Relax obj value: 0.078
# Max RMSD: 0.235
# Mean RMSD: 0.123
data_MOF--net-ptr--node1-AZAVOO_clean_sbu_0--node2-GIZVER_clean_linker_0--edge1-FUNLAD_clean_linker_0
_symmetry_space_group_name_H-M    P1
_symmetry_Int_Tables_number       1
_symmetry_cell_setting            triclinic
loop_
_symmetry_equiv_pos_as_xyz
'x, y, z'
_cell_length_a     94.077137
_cell_length_b     92.854189
_cell_length_c     53.652056
_cell_angle_alpha  91.620974
_cell_angle_beta   91.295467
_cell_angle_gamma 120.03474
loop_
_atom_site_label
_atom_site_type_symbol
_atom_site_fract_x
_atom_site_fract_y
_atom_site_fract_z
_atom_type_partial_charge
Mg0 Mg 0.00018 0.35184 0.96848 0.0
O1 O 0.99702 0.36484 0.00366 0.0
O2 O 0.97604 0.369 -0.00538 0.0
Mg3 Mg 0.96553 0.35855 0.95546 0.0
C4 C 0.98745 0.37036 0.00956 0.0
C5 C 0.031 0.34931 0.97897 0.0
O6 O 0.03391 0.35691 0.95781 0.0
O7 O 0.97758 0.32702 0.97757 0.0
O8 O 0.95738 0.33226 0.9683 0.0
O9 O 0.01672 0.37692 0.95373 0.0
O10 O 0.98986 0.36269 0.94638 0.0
C11 C 0.96232 0.32249 0.97574 0.0
C12 C 0.0036 0.37632 0.94448 0.0
O13 O 0.01762 0.34543 0.98946 0.0
Mg14 Mg 0.63656 0.63953 0.05075 0.0
O15 O 0.62042 0.62554 0.01574 0.0
O16 O 0.59487 0.62022 0.02215 0.0
Mg17 Mg 0.59481 0.63116 0.06083 0.0
C18 C 0.60535 0.61927 0.00852 0.0
C19 C 0.67242 0.64844 0.04249 0.0
O20 O 0.67202 0.6481 0.06694 0.0
O21 O 0.63736 0.66357 0.03995 0.0
O22 O 0.61182 0.65767 0.04786 0.0
O23 O 0.62952 0.61514 0.06695 0.0
O24 O 0.61602 0.62872 0.0725 0.0
C25 C 0.6263 0.66771 0.04087 0.0
C26 C 0.61703 0.61556 0.07577 0.0
O27 O 0.65963 0.64577 0.02994 0.0
Mg28 Mg 0.36373 0.00293 0.9706 0.0
O29 O 0.38016 0.00906 0.00623 0.0
O30 O 0.40269 0.03377 0.0015 0.0
Mg31 Mg 0.40086 0.04309 0.96341 0.0
C32 C 0.39415 0.02103 0.01422 0.0
C33 C 0.32924 0.97258 0.97613 0.0
O34 O 0.32996 0.97345 0.95175 0.0
O35 O 0.35655 0.02202 0.98229 0.0
O36 O 0.37926 0.0462 0.97619 0.0
O37 O 0.37626 0.99027 0.9541 0.0
O38 O 0.38448 0.01696 0.9504 0.0
C39 C 0.36435 0.03789 0.98257 0.0
C40 C 0.38713 0.00473 0.94672 0.0
O41 O 0.34166 0.98291 0.98972 0.0
Mg42 Mg 0.99086 0.63803 0.03212 0.0
O43 O 0.99719 0.62606 -0.00128 0.0
O44 O 0.01926 0.62466 0.01156 0.0
Mg45 Mg 0.02721 0.63552 0.05125 0.0
C46 C 0.00819 0.62204 -0.00505 0.0
C47 C 0.96615 0.64929 0.01953 0.0
O48 O 0.9713 0.65516 0.04254 0.0
O49 O 0.01248 0.66397 0.02445 0.0
O50 O 0.03366 0.66118 0.03755 0.0
O51 O 0.97537 0.61269 0.04682 0.0
O52 O 0.00174 0.62906 0.05678 0.0
C53 C 0.02791 0.66988 0.02848 0.0
C54 C 0.98863 0.61477 0.05809 0.0
O55 O 0.97256 0.64179 0.00835 0.0
Mg56 Mg 0.36205 0.36418 0.97391 0.0
O57 O 0.37929 0.37644 0.00904 0.0
O58 O 0.4038 0.38003 -0.00096 0.0
Mg59 Mg 0.40248 0.37013 0.95931 0.0
C60 C 0.39443 0.38148 0.01453 0.0
C61 C 0.33132 0.36533 0.9881 0.0
O62 O 0.33722 0.37573 0.97 0.0
O63 O 0.35984 0.33902 0.98171 0.0
O64 O 0.38464 0.34368 0.97145 0.0
O65 O 0.37015 0.38945 0.96013 0.0
O66 O 0.38236 0.37501 0.95141 0.0
C67 C 0.37023 0.3341 0.97906 0.0
C68 C 0.38216 0.38875 0.9501 0.0
O69 O 0.33903 0.35808 -0.00466 0.0
Mg70 Mg 0.63537 0.00081 0.03444 0.0
O71 O 0.61785 0.99343 -0.00041 0.0
O72 O 0.59433 0.97086 0.00906 0.0
Mg73 Mg 0.59652 0.96399 0.04879 0.0
C74 C 0.60309 0.98194 -0.00613 0.0
C75 C 0.66712 0.03278 0.02097 0.0
O76 O 0.6631 0.038 0.04118 0.0
O77 O 0.63959 0.97899 0.02628 0.0
O78 O 0.61586 0.95726 0.03679 0.0
O79 O 0.62543 0.01671 0.04884 0.0
O80 O 0.61522 0.99022 0.05692 0.0
C81 C 0.63042 0.96339 0.02901 0.0
C82 C 0.61409 0.00347 0.05866 0.0
O83 O 0.6577 0.01793 0.01247 0.0
Mg84 Mg 0.66973 0.68965 0.3126 0.0
O85 O 0.66376 0.70223 0.34548 0.0
O86 O 0.6425 0.70478 0.33174 0.0
Mg87 Mg 0.63509 0.69449 0.29164 0.0
C88 C 0.65314 0.70682 0.34877 0.0
C89 C 0.69684 0.68126 0.32551 0.0
O90 O 0.68703 0.68412 0.33905 0.0
O91 O 0.64705 0.66448 0.31973 0.0
O92 O 0.62674 0.66817 0.30505 0.0
O93 O 0.68681 0.71466 0.29869 0.0
O94 O 0.66045 0.7 0.28745 0.0
C95 C 0.6318 0.65905 0.3148 0.0
C96 C 0.67423 0.71378 0.28687 0.0
O97 O 0.68702 0.68413 0.33788 0.0
Mg98 Mg 0.3026 0.97462 0.36845 0.0
O99 O 0.28609 0.96047 0.33339 0.0
O100 O 0.26107 0.95641 0.341 0.0
Mg101 Mg 0.26139 0.96768 0.37938 0.0
C102 C 0.27094 0.95469 0.32693 0.0
C103 C 0.33612 0.97836 0.36223 0.0
O104 O 0.33211 0.97334 0.38498 0.0
O105 O 0.30406 -0.00104 0.35743 0.0
O106 O 0.27891 0.99396 0.36608 0.0
O107 O 0.29528 0.95028 0.38482 0.0
O108 O 0.28192 0.96398 0.39024 0.0
C109 C 0.29338 0.00358 0.35869 0.0
C110 C 0.28272 0.95068 0.39333 0.0
O111 O 0.32609 0.98055 0.34877 0.0
Mg112 Mg 0.02717 0.33073 0.30175 0.0
O113 O 0.04309 0.33326 0.33665 0.0
O114 O 0.06859 0.35395 0.33073 0.0
Mg115 Mg 0.069 0.36463 0.29284 0.0
C116 C 0.05815 0.34248 0.34397 0.0
C117 C 0.9907 0.31447 0.31592 0.0
O118 O 0.9913 0.32497 0.29951 0.0
O119 O 0.02663 0.35403 0.31443 0.0
O120 O 0.0521 0.37414 0.30707 0.0
O121 O 0.03387 0.31311 0.28412 0.0
O122 O 0.04792 0.34037 0.28041 0.0
C123 C 0.03762 0.3694 0.31434 0.0
C124 C 0.04669 0.32604 0.27625 0.0
O125 O 0.00371 0.31411 0.32158 0.0
Mg126 Mg 0.65824 0.97027 0.3636 0.0
O127 O 0.6659 0.95902 0.33094 0.0
O128 O 0.68749 0.95748 0.346 0.0
Mg129 Mg 0.69336 0.96683 0.38661 0.0
C130 C 0.6772 0.95529 0.32831 0.0
C131 C 0.62801 0.96329 0.32957 0.0
O132 O 0.62496 0.94805 0.33288 0.0
O133 O 0.68047 0.99613 0.3584 0.0
O134 O 0.70099 0.99312 0.37412 0.0
O135 O 0.64156 0.9447 0.3762 0.0
O136 O 0.66756 0.96014 0.38901 0.0
C137 C 0.69569 0.00201 0.36428 0.0
C138 C 0.65411 0.94599 0.38867 0.0
O139 O 0.64153 0.97545 0.33834 0.0
Mg140 Mg 0.03133 0.69741 0.29703 0.0
O141 O 0.04941 0.70794 0.33145 0.0
O142 O 0.07238 0.70831 0.32028 0.0
Mg143 Mg 0.06924 0.69833 0.28011 0.0
C144 C 0.06411 0.7111 0.3363 0.0
C145 C 0.00081 0.69914 0.31214 0.0
O146 O 0.0053 0.7082 0.29238 0.0
O147 O 0.0263 0.67113 0.30381 0.0
O148 O 0.04957 0.6725 0.29211 0.0
O149 O 0.04178 0.72322 0.28384 0.0
O150 O 0.0511 0.7063 0.27383 0.0
C151 C 0.03509 0.66439 0.30028 0.0
C152 C 0.0527 0.72089 0.27311 0.0
O153 O 0.00955 0.69315 0.31998 0.0
Mg154 Mg 0.29743 0.33568 0.36973 0.0
O155 O 0.27967 0.3286 0.33539 0.0
O156 O 0.25612 0.30599 0.34447 0.0
Mg157 Mg 0.25883 0.29836 0.38348 0.0
C158 C 0.26485 0.31732 0.3296 0.0
C159 C 0.33207 0.36412 0.36023 0.0
O160 O 0.33196 0.36386 0.3847 0.0
O161 O 0.30194 0.31424 0.35987 0.0
O162 O 0.27825 0.29218 0.36978 0.0
O163 O 0.28731 0.35105 0.38539 0.0
O164 O 0.27748 0.32446 0.39255 0.0
C165 C 0.29278 0.29855 0.36179 0.0
C166 C 0.27614 0.33756 0.39492 0.0
O167 O 0.31922 0.35365 0.34757 0.0
Mg168 Mg 0.33873 0.02763 0.63594 0.0
O169 O 0.33175 0.03959 0.66845 0.0
O170 O 0.3102 0.04143 0.65399 0.0
Mg171 Mg 0.30386 0.03167 0.61356 0.0
C172 C 0.3207 0.04363 0.67135 0.0
C173 C 0.36544 0.01958 0.64986 0.0
O174 O 0.3655 0.02007 0.6254 0.0
O175 O 0.31625 0.00208 0.64192 0.0
O176 O 0.29585 0.00539 0.62654 0.0
O177 O 0.35569 0.05296 0.62293 0.0
O178 O 0.32954 0.0379 0.61057 0.0
C179 C 0.30102 0.9964 0.63641 0.0
C180 C 0.34316 0.0519 0.61068 0.0
O181 O 0.35518 0.02219 0.66131 0.0
Mg182 Mg 0.96542 0.30531 0.71163 0.0
O183 O 0.94733 0.29309 0.67758 0.0
O184 O 0.923 0.28933 0.68897 0.0
Mg185 Mg 0.92534 0.29886 0.72932 0.0
C186 C 0.93212 0.28804 0.67282 0.0
C187 C 0.00176 0.32046 0.69787 0.0
O188 O 0.00328 0.32706 0.72045 0.0
O189 O 0.96717 0.3304 0.70495 0.0
O190 O 0.94276 0.32558 0.71759 0.0
O191 O 0.95813 0.28012 0.7247 0.0
O192 O 0.9458 0.29416 0.73539 0.0
C193 C 0.95689 0.33528 0.70916 0.0
C194 C 0.94625 0.28051 0.73578 0.0
O195 O 0.98742 0.31133 0.68795 0.0
Mg196 Mg 0.6979 0.66752 0.63428 0.0
O197 O 0.7155 0.67035 0.66721 0.0
O198 O 0.73992 0.69246 0.66003 0.0
Mg199 Mg 0.73793 0.70411 0.62435 0.0
C200 C 0.73069 0.68022 0.6732 0.0
C201 C 0.66193 0.64817 0.64845 0.0
O202 O 0.6619 0.65838 0.63201 0.0
O203 O 0.69558 0.68918 0.65033 0.0
O204 O 0.72006 0.71094 0.64267 0.0
O205 O 0.70605 0.65206 0.6134 0.0
O206 O 0.71781 0.67941 0.61167 0.0
C207 C 0.70568 0.70483 0.65116 0.0
C208 C 0.71793 0.66592 0.60588 0.0
O209 O 0.67545 0.64893 0.65448 0.0
Mg210 Mg 0.33252 0.31338 0.68729 0.0
O211 O 0.33829 0.3009 0.65381 0.0
O212 O 0.35912 0.29766 0.66779 0.0
Mg213 Mg 0.36635 0.30715 0.70813 0.0
C214 C 0.34879 0.29612 0.65058 0.0
C215 C 0.30421 0.31857 0.67667 0.0
O216 O 0.30358 0.3144 0.7 0.0
O217 O 0.35563 0.3385 0.68103 0.0
O218 O 0.37525 0.33354 0.69514 0.0
O219 O 0.31493 0.28825 0.70049 0.0
O220 O 0.34127 0.30237 0.71192 0.0
C221 C 0.37075 0.34322 0.68583 0.0
C222 C 0.32733 0.28877 0.7123 0.0
O223 O 0.31589 0.31963 0.66381 0.0
Mg224 Mg 0.69282 0.02733 0.62857 0.0
O225 O 0.7104 0.04026 0.66302 0.0
O226 O 0.73501 0.04414 0.65314 0.0
Mg227 Mg 0.73313 0.03301 0.61406 0.0
C228 C 0.72562 0.04569 0.66844 0.0
C229 C 0.65648 0.01081 0.64196 0.0
O230 O 0.65573 0.00201 0.62184 0.0
O231 O 0.6907 0.00243 0.63803 0.0
O232 O 0.71555 0.00707 0.62811 0.0
O233 O 0.70081 0.05224 0.61329 0.0
O234 O 0.71274 0.03737 0.60553 0.0
C235 C 0.70122 0.99763 0.63611 0.0
C236 C 0.71268 0.05113 0.60345 0.0
O237 O 0.67048 0.02213 0.65069 0.0
Mg238 Mg 0.97017 0.66919 0.69652 0.0
O239 O 0.95174 0.66111 0.66273 0.0
O240 O 0.9285 0.63888 0.67388 0.0
Mg241 Mg 0.93173 0.63303 0.71386 0.0
C242 C 0.93687 0.64957 0.65796 0.0
C243 C 0.00438 0.69706 0.68564 0.0
O244 O 0.00418 0.69728 0.71013 0.0
O245 O 0.97417 0.64718 0.68872 0.0
O246 O 0.95077 0.62597 0.7014 0.0
O247 O 0.96096 0.68558 0.71104 0.0
O248 O 0.95076 0.65928 0.72042 0.0
C249 C 0.96506 0.63174 0.69268 0.0
C250 C 0.9499 0.67269 0.72195 0.0
O251 O 0.99163 0.6862 0.67316 0.0
H252 H 0.1474 0.30739 0.13628 0.0
H253 H 0.14158 0.31058 0.05703 0.0
H254 H 0.12589 0.33538 0.10884 0.0
H255 H 0.14637 0.28578 0.1021 0.0
H256 H 0.15152 0.29295 0.0713 0.0
H257 H 0.16679 0.29986 0.13814 0.0
H258 H 0.21752 0.32569 0.11973 0.0
H259 H 0.18 0.31193 0.06199 0.0
C260 C 0.14407 0.31241 0.12073 0.0
C261 C 0.13702 0.32237 0.12547 0.0
C262 C 0.14634 0.30854 0.09611 0.0
C263 C 0.1407 0.31415 0.07609 0.0
C264 C 0.13344 0.32396 0.08072 0.0
C265 C 0.13205 0.32833 0.10535 0.0
C266 C 0.15329 0.29716 0.09133 0.0
C267 C 0.17131 0.30543 0.09929 0.0
C268 C 0.17606 0.30573 0.12448 0.0
C269 C 0.19273 0.31346 0.13212 0.0
C270 C 0.20465 0.32046 0.11418 0.0
C271 C 0.2002 0.31981 0.0889 0.0
C272 C 0.1835 0.31245 0.08152 0.0
H273 H 0.69065 0.83751 0.15559 0.0
H274 H 0.68735 0.83022 0.0754 0.0
H275 H 0.66456 0.78809 0.12151 0.0
H276 H 0.70967 0.8601 0.12787 0.0
H277 H 0.70602 0.85757 0.09476 0.0
H278 H 0.6914 0.86504 0.15518 0.0
H279 H 0.66256 0.8836 0.12015 0.0
H280 H 0.68512 0.86234 0.075 0.0
C281 C 0.68608 0.8293 0.139 0.0
C282 C 0.67684 0.812 0.1414 0.0
C283 C 0.68963 0.83603 0.11521 0.0
C284 C 0.68423 0.82523 0.09377 0.0
C285 C 0.67504 0.80795 0.09612 0.0
C286 C 0.67118 0.80149 0.11983 0.0
C287 C 0.69982 0.85462 0.11285 0.0
C288 C 0.68925 0.86256 0.1149 0.0
C289 C 0.68611 0.86715 0.1385 0.0
C290 C 0.67637 0.87465 0.14061 0.0
C291 C 0.66961 0.87728 0.11885 0.0
C292 C 0.67278 0.87297 0.09525 0.0
C293 C 0.68257 0.86557 0.09328 0.0
H294 H 0.17071 0.82506 0.14272 0.0
H295 H 0.16349 0.80857 0.06539 0.0
H296 H 0.12189 0.7964 0.1099 0.0
H297 H 0.19058 0.81821 0.11811 0.0
H298 H 0.18982 0.819 0.08505 0.0
H299 H 0.20066 0.84348 0.14525 0.0
H300 H 0.22983 0.88986 0.11046 0.0
H301 H 0.19875 0.84548 0.06516 0.0
C302 C 0.16258 0.81915 0.12644 0.0
C303 C 0.14551 0.81154 0.12875 0.0
C304 C 0.16917 0.81823 0.1036 0.0
C305 C 0.15848 0.80978 0.08279 0.0
C306 C 0.14133 0.802 0.08481 0.0
C307 C 0.13506 0.80327 0.10775 0.0
C308 C 0.18722 0.82379 0.10259 0.0
C309 C 0.19803 0.84249 0.10497 0.0
C310 C 0.20418 0.85062 0.1286 0.0
C311 C 0.21572 0.86772 0.13063 0.0
C312 C 0.22066 0.87673 0.10892 0.0
C313 C 0.21466 0.86887 0.08524 0.0
C314 C 0.2032 0.85174 0.08339 0.0
H315 H 0.34705 0.18295 0.84549 0.0
H316 H 0.34968 0.19075 0.92534 0.0
H317 H 0.32774 0.2118 0.8786 0.0
H318 H 0.3683 0.18122 0.87413 0.0
H319 H 0.36506 0.17935 0.90678 0.0
H320 H 0.34866 0.15868 0.84349 0.0
H321 H 0.32166 0.10989 0.87179 0.0
H322 H 0.34721 0.1528 0.92258 0.0
C323 C 0.34403 0.1877 0.86197 0.0
C324 C 0.33616 0.19704 0.85926 0.0
C325 C 0.34869 0.18509 0.88575 0.0
C326 C 0.34555 0.19214 0.90702 0.0
C327 C 0.33778 0.20164 0.90457 0.0
C328 C 0.33287 0.20371 0.88068 0.0
C329 C 0.35859 0.17643 0.88812 0.0
C330 C 0.34795 0.15781 0.88365 0.0
C331 C 0.344 0.15075 0.85918 0.0
C332 C 0.33461 0.13344 0.85487 0.0
C333 C 0.32897 0.12323 0.8753 0.0
C334 C 0.334 0.12985 0.89993 0.0
C335 C 0.34303 0.1473 0.90391 0.0
H336 H 0.84418 0.15474 0.86402 0.0
H337 H 0.85509 0.1608 0.9435 0.0
H338 H 0.87241 0.20366 0.89906 0.0
H339 H 0.84427 0.13168 0.89235 0.0
H340 H 0.84106 0.13334 0.92471 0.0
H341 H 0.82271 0.12541 0.8606 0.0
H342 H 0.77383 0.10848 0.88503 0.0
H343 H 0.81467 0.13013 0.9384 0.0
C344 C 0.84943 0.16268 0.88076 0.0
C345 C 0.85803 0.18004 0.87888 0.0
C346 C 0.84785 0.15558 0.90415 0.0
C347 C 0.85558 0.16608 0.92556 0.0
C348 C 0.86432 0.18341 0.92366 0.0
C349 C 0.86519 0.19026 0.90048 0.0
C350 C 0.83903 0.13688 0.90589 0.0
C351 C 0.82081 0.12916 0.90001 0.0
C352 C 0.81447 0.12403 0.8753 0.0
C353 C 0.7975 0.11642 0.86974 0.0
C354 C 0.78696 0.11438 0.88908 0.0
C355 C 0.79301 0.11913 0.91381 0.0
C356 C 0.80996 0.12659 0.91924 0.0
H357 H 0.8253 0.64542 0.85759 0.0
H358 H 0.83054 0.64596 0.93763 0.0
H359 H 0.87317 0.66694 0.89318 0.0
H360 H 0.80181 0.62612 0.88511 0.0
H361 H 0.8036 0.63096 0.91786 0.0
H362 H 0.805 0.65004 0.85532 0.0
H363 H 0.7775 0.67243 0.88026 0.0
H364 H 0.78928 0.64449 0.931 0.0
C365 C 0.83295 0.64945 0.87453 0.0
C366 C 0.85006 0.65756 0.87271 0.0
C367 C 0.82573 0.64597 0.89792 0.0
C368 C 0.83593 0.64957 0.9196 0.0
C369 C 0.85307 0.65716 0.91786 0.0
C370 C 0.86 0.66159 0.89453 0.0
C371 C 0.80716 0.6366 0.89939 0.0
C372 C 0.79957 0.64741 0.89454 0.0
C373 C 0.79959 0.65318 0.8705 0.0
C374 C 0.79196 0.66249 0.8655 0.0
C375 C 0.78375 0.66558 0.88442 0.0
C376 C 0.78203 0.65852 0.90772 0.0
C377 C 0.79054 0.65001 0.91307 0.0
H378 H 0.82103 0.64261 0.47063 0.0
H379 H 0.81531 0.64968 0.39267 0.0
H380 H 0.79462 0.66694 0.44872 0.0
H381 H 0.82428 0.62536 0.43476 0.0
H382 H 0.82733 0.63313 0.40412 0.0
H383 H 0.845 0.642 0.46999 0.0
H384 H 0.89435 0.67372 0.44765 0.0
H385 H 0.85428 0.65466 0.3931 0.0
C386 C 0.81692 0.64768 0.45606 0.0
C387 C 0.8082 0.65569 0.46245 0.0
C388 C 0.82006 0.64594 0.43095 0.0
C389 C 0.81353 0.65156 0.41213 0.0
C390 C 0.80434 0.65923 0.41841 0.0
C391 C 0.80213 0.66155 0.44365 0.0
C392 C 0.82927 0.63698 0.42431 0.0
C393 C 0.84746 0.64761 0.43096 0.0
C394 C 0.85344 0.6488 0.4557 0.0
C395 C 0.87032 0.65849 0.46201 0.0
C396 C 0.88123 0.66686 0.44323 0.0
C397 C 0.87558 0.66538 0.4184 0.0
C398 C 0.85866 0.6559 0.41234 0.0
H399 H 0.35553 0.17404 0.47956 0.0
H400 H 0.35103 0.16448 0.39977 0.0
H401 H 0.3297 0.12379 0.44882 0.0
H402 H 0.37411 0.19574 0.44994 0.0
H403 H 0.36931 0.1924 0.41711 0.0
H404 H 0.35671 0.20127 0.47855 0.0
H405 H 0.32702 0.21934 0.44503 0.0
H406 H 0.34799 0.19697 0.3987 0.0
C407 C 0.35076 0.16538 0.46348 0.0
C408 C 0.34184 0.14821 0.46701 0.0
C409 C 0.3538 0.1714 0.43924 0.0
C410 C 0.34825 0.16 0.41848 0.0
C411 C 0.33936 0.1428 0.42191 0.0
C412 C 0.33599 0.13708 0.44614 0.0
C413 C 0.36376 0.1899 0.43571 0.0
C414 C 0.35326 0.19789 0.43839 0.0
C415 C 0.3509 0.20302 0.46216 0.0
C416 C 0.3413 0.21064 0.46478 0.0
C417 C 0.33394 0.2129 0.44339 0.0
C418 C 0.33638 0.20811 0.41962 0.0
C419 C 0.34598 0.20055 0.41712 0.0
H420 H 0.83075 0.16173 0.48012 0.0
H421 H 0.82768 0.14553 0.40326 0.0
H422 H 0.78369 0.13062 0.44305 0.0
H423 H 0.85288 0.15662 0.45801 0.0
H424 H 0.85349 0.15813 0.42505 0.0
H425 H 0.85886 0.1809 0.48597 0.0
H426 H 0.8889 0.22861 0.45533 0.0
H427 H 0.86325 0.18487 0.40645 0.0
C428 C 0.82348 0.15557 0.4632 0.0
C429 C 0.80626 0.14691 0.46386 0.0
C430 C 0.83133 0.15533 0.44133 0.0
C431 C 0.82172 0.14636 0.41985 0.0
C432 C 0.80446 0.13756 0.42023 0.0
C433 C 0.79692 0.13826 0.44214 0.0
C434 C 0.84969 0.16212 0.44219 0.0
C435 C 0.85946 0.18087 0.44574 0.0
C436 C 0.86341 0.18849 0.46989 0.0
C437 C 0.8737 0.2058 0.47343 0.0
C438 C 0.88013 0.21542 0.45254 0.0
C439 C 0.8766 0.20802 0.42833 0.0
C440 C 0.86594 0.19075 0.42503 0.0
H441 H 0.00296 0.505 0.18315 0.0
H442 H 0.0164 0.51918 0.26084 0.0
H443 H 0.98775 0.53608 0.22105 0.0
H444 H 0.02882 0.50752 0.20455 0.0
H445 H 0.03038 0.50817 0.23774 0.0
H446 H 0.0118 0.48172 0.18103 0.0
H447 H 0.99221 0.43653 0.22053 0.0
H448 H 0.01107 0.48358 0.26115 0.0
C449 C 0.00207 0.511 0.2002 0.0
C450 C 0.99365 0.51993 0.19975 0.0
C451 C 0.01022 0.51061 0.22223 0.0
C452 C 0.00969 0.51904 0.24406 0.0
C453 C 0.00148 0.52818 0.24387 0.0
C454 C 0.99322 0.52822 0.22177 0.0
C455 C 0.02141 0.50337 0.22148 0.0
C456 C 0.01192 0.48461 0.22108 0.0
C457 C 0.00828 0.47531 0.19834 0.0
C458 C 0.00124 0.45792 0.19803 0.0
C459 C 0.99732 0.4499 0.22071 0.0
C460 C 0.00089 0.45897 0.24364 0.0
C461 C 0.00797 0.47636 0.24362 0.0
H462 H 0.52131 0.48836 0.21147 0.0
H463 H 0.51634 0.49951 0.2884 0.0
H464 H 0.54496 0.53909 0.24022 0.0
H465 H 0.51223 0.46679 0.24351 0.0
H466 H 0.50823 0.47115 0.27433 0.0
H467 H 0.4934 0.46545 0.20704 0.0
H468 H 0.44281 0.44272 0.22618 0.0
H469 H 0.48097 0.46443 0.28393 0.0
C470 C 0.52357 0.49735 0.22656 0.0
C471 C 0.5339 0.51438 0.223 0.0
C472 C 0.51692 0.49184 0.25003 0.0
C473 C 0.52083 0.50361 0.27002 0.0
C474 C 0.53092 0.52065 0.26633 0.0
C475 C 0.53707 0.52588 0.24281 0.0
C476 C 0.50711 0.47343 0.25432 0.0
C477 C 0.48921 0.46605 0.24632 0.0
C478 C 0.48424 0.46233 0.2209 0.0
C479 C 0.46749 0.45416 0.21339 0.0
C480 C 0.45576 0.44986 0.23168 0.0
C481 C 0.46044 0.45347 0.25712 0.0
C482 C 0.47723 0.46174 0.26431 0.0
H483 H 0.49582 0.99117 0.19011 0.0
H484 H 0.50094 0.97797 0.26477 0.0
H485 H 0.54365 0.00732 0.22293 0.0
H486 H 0.47347 0.96383 0.21327 0.0
H487 H 0.47419 0.96632 0.24635 0.0
H488 H 0.4687 0.98254 0.18605 0.0
H489 H 0.44291 0.0049 0.21896 0.0
H490 H 0.4648 0.9838 0.26588 0.0
C491 C 0.50344 0.99227 0.20622 0.0
C492 C 0.52058 0.00086 0.20433 0.0
C493 C 0.49617 0.98433 0.22823 0.0
C494 C 0.50637 0.98478 0.24826 0.0
C495 C 0.52354 0.99326 0.24651 0.0
C496 C 0.53049 0.00159 0.22479 0.0
C497 C 0.47768 0.97335 0.22895 0.0
C498 C 0.46865 0.98293 0.22639 0.0
C499 C 0.465 0.98656 0.20258 0.0
C500 C 0.45618 0.99496 0.19994 0.0
C501 C 0.45057 -0.0007 0.2212 0.0
C502 C 0.45332 0.99508 0.245 0.0
C503 C 0.46268 0.98718 0.24757 0.0
H504 H 0.49133 0.98609 0.81143 0.0
H505 H 0.47827 0.98469 0.73338 0.0
H506 H 0.46091 0.0059 0.78865 0.0
H507 H 0.48989 0.96415 0.77651 0.0
H508 H 0.4927 0.97087 0.74535 0.0
H509 H 0.51178 0.98021 0.81018 0.0
H510 H 0.56085 0.00762 0.78478 0.0
H511 H 0.51978 0.991 0.7325 0.0
C512 C 0.4857 0.98939 0.79656 0.0
C513 C 0.47675 0.99723 0.80272 0.0
C514 C 0.48685 0.9853 0.77147 0.0
C515 C 0.47826 0.98859 0.75261 0.0
C516 C 0.46865 0.99575 0.75887 0.0
C517 C 0.46844 0.0005 0.78379 0.0
C518 C 0.49525 0.97543 0.76525 0.0
C519 C 0.51363 0.98522 0.77091 0.0
C520 C 0.52002 0.9863 0.79533 0.0
C521 C 0.53706 0.99481 0.80058 0.0
C522 C 0.54771 0.00191 0.78105 0.0
C523 C 0.54163 0.00039 0.75643 0.0
C524 C 0.52455 0.99229 0.75151 0.0
H525 H 0.03269 0.50896 0.81967 0.0
H526 H 0.02347 0.49995 0.73996 0.0
H527 H 0.00515 0.4589 0.78827 0.0
H528 H 0.04909 0.53102 0.78969 0.0
H529 H 0.0434 0.5277 0.75714 0.0
H530 H 0.03177 0.53551 0.82014 0.0
H531 H 0.00215 0.55476 0.78996 0.0
H532 H 0.02188 0.53255 0.74079 0.0
C533 C 0.02705 0.50041 0.8036 0.0
C534 C 0.01836 0.4832 0.80691 0.0
C535 C 0.02865 0.50661 0.77952 0.0
C536 C 0.02185 0.49536 0.75863 0.0
C537 C 0.01326 0.47816 0.76191 0.0
C538 C 0.01136 0.47224 0.78598 0.0
C539 C 0.03838 0.52513 0.77611 0.0
C540 C 0.02787 0.533 0.78009 0.0
C541 C 0.02586 0.53773 0.80435 0.0
C542 C 0.0165 0.54553 0.80821 0.0
C543 C 0.00891 0.54823 0.78747 0.0
C544 C 0.0108 0.54359 0.76324 0.0
C545 C 0.02027 0.53598 0.75956 0.0
H546 H 0.50683 0.49003 0.81993 0.0
H547 H 0.49872 0.48174 0.74025 0.0
H548 H 0.45774 0.46486 0.78785 0.0
H549 H 0.52759 0.489 0.79158 0.0
H550 H 0.52535 0.49 0.7587 0.0
H551 H 0.53265 0.51357 0.82024 0.0
H552 H 0.56133 0.561 0.78797 0.0
H553 H 0.53675 0.51649 0.74059 0.0
C554 C 0.49857 0.48587 0.8036 0.0
C555 C 0.48157 0.47799 0.80664 0.0
C556 C 0.5049 0.48757 0.77969 0.0
C557 C 0.49396 0.48111 0.75865 0.0
C558 C 0.47688 0.47303 0.76143 0.0
C559 C 0.47088 0.4719 0.78544 0.0
C560 C 0.52307 0.49422 0.77703 0.0
C561 C 0.5329 0.513 0.78 0.0
C562 C 0.53686 0.52096 0.80393 0.0
C563 C 0.54709 0.53831 0.80698 0.0
C564 C 0.5532 0.54765 0.78574 0.0
C565 C 0.54979 0.53991 0.76179 0.0
C566 C 0.53936 0.52259 0.75901 0.0
H567 H 0.67707 0.84239 0.52381 0.0
H568 H 0.67914 0.8517 0.6032 0.0
H569 H 0.65657 0.87093 0.55402 0.0
H570 H 0.69906 0.84293 0.55291 0.0
H571 H 0.69652 0.84243 0.58572 0.0
H572 H 0.68138 0.81822 0.52507 0.0
H573 H 0.66117 0.77145 0.5603 0.0
H574 H 0.67753 0.81667 0.60479 0.0
C575 C 0.67374 0.84728 0.53982 0.0
C576 C 0.66545 0.85614 0.53616 0.0
C577 C 0.67859 0.84551 0.56398 0.0
C578 C 0.67495 0.8526 0.58464 0.0
C579 C 0.66684 0.86171 0.58127 0.0
C580 C 0.66189 0.86308 0.55698 0.0
C581 C 0.68964 0.83822 0.56735 0.0
C582 C 0.68017 0.81944 0.56514 0.0
C583 C 0.67744 0.8111 0.5417 0.0
C584 C 0.67022 0.79369 0.53977 0.0
C585 C 0.66567 0.78472 0.5616 0.0
C586 C 0.66828 0.79281 0.5852 0.0
C587 C 0.67524 0.81021 0.58673 0.0
H588 H 0.17993 0.82938 0.52533 0.0
H589 H 0.18714 0.83876 0.60512 0.0
H590 H 0.2028 0.87944 0.55644 0.0
H591 H 0.18028 0.80844 0.55606 0.0
H592 H 0.17721 0.81098 0.58824 0.0
H593 H 0.15813 0.80178 0.52364 0.0
H594 H 0.10897 0.77876 0.54919 0.0
H595 H 0.14999 0.80367 0.60208 0.0
C596 C 0.18378 0.83793 0.54149 0.0
C597 C 0.19107 0.85507 0.53804 0.0
C598 C 0.18184 0.83184 0.56566 0.0
C599 C 0.18789 0.84321 0.58647 0.0
C600 C 0.19529 0.86038 0.58311 0.0
C601 C 0.19649 0.86613 0.55898 0.0
C602 C 0.1745 0.81339 0.569 0.0
C603 C 0.15614 0.80408 0.56344 0.0
C604 C 0.14982 0.79902 0.53872 0.0
C605 C 0.13279 0.79024 0.53342 0.0
C606 C 0.12211 0.78631 0.55312 0.0
C607 C 0.12813 0.79093 0.57793 0.0
C608 C 0.14521 0.80002 0.58298 0.0
H609 H 0.1592 0.32487 0.531 0.0
H610 H 0.16751 0.31611 0.60697 0.0
H611 H 0.20819 0.34255 0.55978 0.0
H612 H 0.13812 0.29897 0.55761 0.0
H613 H 0.14019 0.30287 0.5905 0.0
H614 H 0.13203 0.31635 0.52948 0.0
H615 H 0.10688 0.33943 0.5627 0.0
H616 H 0.13072 0.32033 0.60943 0.0
C617 C 0.16747 0.32682 0.54668 0.0
C618 C 0.18445 0.33534 0.54323 0.0
C619 C 0.1612 0.32013 0.56981 0.0
C620 C 0.17224 0.32179 0.58943 0.0
C621 C 0.18929 0.32999 0.58603 0.0
C622 C 0.19519 0.337 0.56305 0.0
C623 C 0.14285 0.30912 0.57241 0.0
C624 C 0.1335 0.31839 0.56976 0.0
C625 C 0.1289 0.32103 0.54592 0.0
C626 C 0.11936 0.32868 0.54316 0.0
C627 C 0.11445 0.33373 0.5646 0.0
C628 C 0.11821 0.3305 0.58846 0.0
C629 C 0.12796 0.32305 0.59102 0.0
C630 C 0.97845 0.38387 0.04165 0.0
C631 C 0.99 0.37943 0.03394 0.0
C632 C 0.98119 0.39342 0.06367 0.0
C633 C 0.99567 0.39895 0.07847 0.0
C634 C 0.00695 0.39405 0.07125 0.0
C635 C 0.00418 0.38442 0.0492 0.0
C636 C -0.00085 0.40941 0.10183 0.0
C637 C 0.99247 0.41911 0.1063 0.0
C638 C 0.99539 0.42926 0.12987 0.0
C639 C 0.99129 0.44189 0.13025 0.0
C640 C 0.99327 0.45131 0.15223 0.0
C641 C -0.0007 0.44821 0.1744 0.0
H642 H 0.00442 0.41638 0.15301 0.0
C643 C 0.00351 0.43565 0.17398 0.0
C644 C 0.00148 0.42621 0.1521 0.0
H645 H 0.00846 0.4331 0.19062 0.0
H646 H 0.96725 0.38004 0.03059 0.0
H647 H 0.97182 0.39626 0.06903 0.0
H648 H 0.0181 0.39791 0.0825 0.0
H649 H 0.01331 0.38119 0.04387 0.0
H650 H 0.00803 0.40952 0.1152 0.0
H651 H 0.98479 0.4201 0.09183 0.0
H652 H 0.98644 0.44444 0.11349 0.0
H653 H 0.98981 0.46082 0.15197 0.0
C654 C 0.60342 0.5859 0.08833 0.0
C655 C 0.60434 0.60149 0.08918 0.0
C656 C 0.59233 0.57312 0.10292 0.0
C657 C 0.58214 0.57584 0.1188 0.0
C658 C 0.58274 0.59125 0.11903 0.0
C659 C 0.59358 0.60388 0.10416 0.0
C660 C 0.57246 0.56388 0.13773 0.0
C661 C 0.56572 0.54726 0.13488 0.0
C662 C 0.55805 0.53681 0.15632 0.0
C663 C 0.54174 0.52359 0.15453 0.0
C664 C 0.53391 0.51553 0.17606 0.0
C665 C 0.54243 0.52055 0.19942 0.0
H666 H 0.57957 0.55081 0.18099 0.0
C667 C 0.55916 0.53281 0.20059 0.0
C668 C 0.56685 0.54092 0.17932 0.0
H669 H 0.56618 0.5366 0.21821 0.0
H670 H 0.61155 0.58371 0.07689 0.0
H671 H 0.59237 0.56148 0.10272 0.0
H672 H 0.5751 0.59367 0.13128 0.0
H673 H 0.59402 0.61576 0.10526 0.0
H674 H 0.57097 0.56912 0.15522 0.0
H675 H 0.56559 0.5414 0.11701 0.0
H676 H 0.53482 0.52015 0.13684 0.0
H677 H 0.52103 0.50604 0.17464 0.0
C678 C 0.39639 0.00411 0.04803 0.0
C679 C 0.40132 0.01974 0.03826 0.0
C680 C 0.40433 0.00284 0.06949 0.0
C681 C 0.41724 0.01723 0.08172 0.0
C682 C 0.42167 0.03286 0.07257 0.0
C683 C 0.41394 0.03411 0.0509 0.0
C684 C 0.42606 0.01639 0.10436 0.0
C685 C 0.42922 0.00392 0.10779 0.0
C686 C 0.43778 0.00257 0.13055 0.0
C687 C 0.43681 0.98724 0.13482 0.0
C688 C 0.44354 0.98496 0.15684 0.0
C689 C 0.45138 0.998 0.17503 0.0
H690 H 0.44827 0.02815 0.14542 0.0
C691 C 0.45314 0.01358 0.17025 0.0
C692 C 0.44654 0.01591 0.1482 0.0
H693 H 0.45937 0.0239 0.18386 0.0
H694 H 0.38669 0.99281 0.03871 0.0
H695 H 0.40029 0.99064 0.07654 0.0
H696 H 0.43142 0.04412 0.08188 0.0
H697 H 0.41793 0.04634 0.04394 0.0
H698 H 0.43034 0.02668 0.11803 0.0
H699 H 0.42501 0.99396 0.09348 0.0
H700 H 0.43034 0.9768 0.12147 0.0
H701 H 0.44193 0.97278 0.16013 0.0
C702 C 0.40581 0.99423 0.93354 0.0
C703 C 0.40229 0.00725 0.93522 0.0
C704 C 0.41958 0.99627 0.92119 0.0
C705 C 0.43016 0.01143 0.9103 0.0
C706 C 0.42681 0.02453 0.91257 0.0
C707 C 0.41308 0.02251 0.92495 0.0
C708 C 0.44352 0.01346 0.89397 0.0
C709 C 0.45041 0.00374 0.89416 0.0
C710 C 0.46074 0.00357 0.87371 0.0
C711 C 0.46025 0.98857 0.86714 0.0
C712 C 0.46684 0.98688 0.84488 0.0
C713 C 0.47406 0.00021 0.82894 0.0
H714 H 0.471 0.02944 0.86411 0.0
C715 C 0.47606 0.0157 0.83673 0.0
C716 C 0.46961 0.01743 0.85905 0.0
H717 H 0.48184 0.02622 0.82487 0.0
H718 H 0.3977 0.9823 0.94124 0.0
H719 H 0.42139 0.98568 0.91933 0.0
H720 H 0.43464 0.03628 0.90416 0.0
H721 H 0.41069 0.03276 0.92579 0.0
H722 H 0.44692 0.02274 0.88001 0.0
H723 H 0.44698 0.99436 0.90796 0.0
H724 H 0.4537 0.97778 0.87828 0.0
H725 H 0.46513 0.9748 0.83922 0.0
C726 C 0.0188 0.40655 0.93455 0.0
C727 C 0.00413 0.39109 0.93377 0.0
C728 C 0.01923 0.42043 0.92414 0.0
C729 C 0.00496 0.41906 0.91267 0.0
C730 C 0.99028 0.4037 0.91244 0.0
C731 C 0.98988 0.38986 0.92267 0.0
C732 C 0.00479 0.43301 0.89997 0.0
C733 C 0.0181 0.44554 0.8899 0.0
C734 C 0.01726 0.45715 0.87206 0.0
C735 C 0.03198 0.47121 0.86561 0.0
C736 C 0.03218 0.48068 0.84562 0.0
C737 C 0.01767 0.47616 0.83158 0.0
H738 H 0.99092 0.44267 0.86282 0.0
C739 C 0.00279 0.46288 0.8391 0.0
C740 C 0.00255 0.45344 0.85903 0.0
H741 H 0.99142 0.45918 0.82858 0.0
H742 H 0.02996 0.40795 0.94319 0.0
H743 H 0.0307 0.43213 0.92531 0.0
H744 H 0.9791 0.40226 0.90373 0.0
H745 H 0.9784 0.37814 0.92152 0.0
H746 H 0.99287 0.43197 0.89706 0.0
H747 H 0.03003 0.44662 0.89307 0.0
H748 H 0.0435 0.47438 0.87522 0.0
H749 H 0.04386 0.49078 0.84006 0.0
C750 C 0.58352 0.60405 0.9746 0.0
C751 C 0.5997 0.61005 0.98395 0.0
C752 C 0.57801 0.59492 0.95181 0.0
C753 C 0.58853 0.5914 0.93792 0.0
C754 C 0.60475 0.59762 0.94714 0.0
C755 C 0.61028 0.60681 0.96985 0.0
C756 C 0.58341 0.58189 0.91341 0.0
C757 C 0.56766 0.57237 0.90481 0.0
C758 C 0.56283 0.56342 0.87984 0.0
C759 C 0.5465 0.55057 0.87508 0.0
C760 C 0.54136 0.54225 0.8516 0.0
C761 C 0.55244 0.54667 0.83228 0.0
H762 H 0.58645 0.57787 0.86279 0.0
C763 C 0.5688 0.55941 0.83712 0.0
C764 C 0.5739 0.56779 0.86044 0.0
H765 H 0.57776 0.56298 0.82282 0.0
H766 H 0.57507 0.60644 0.98485 0.0
H767 H 0.5656 0.5909 0.94517 0.0
H768 H 0.61321 0.59529 0.93678 0.0
H769 H 0.62282 0.61124 0.97643 0.0
H770 H 0.59321 0.58248 0.90244 0.0
H771 H 0.55776 0.57062 0.91661 0.0
H772 H 0.53764 0.54701 0.88955 0.0
H773 H 0.52864 0.53258 0.84844 0.0
C774 C 0.02133 0.61131 0.96547 0.0
C775 C 0.0079 0.61336 0.97112 0.0
C776 C 0.02088 0.60217 0.94408 0.0
C777 C 0.00686 0.59461 0.92782 0.0
C778 C 0.99365 0.59712 0.93299 0.0
C779 C 0.99413 0.60638 0.95442 0.0
C780 C 0.00578 0.58446 0.90505 0.0
C781 C 0.01516 0.57735 0.90194 0.0
C782 C 0.01475 0.56805 0.87865 0.0
C783 C 0.02903 0.56785 0.87217 0.0
C784 C 0.02946 0.56005 0.84975 0.0
C785 C 0.01551 0.55205 0.83343 0.0
H786 H 0.98913 0.55872 0.86774 0.0
C787 C 0.00094 0.55149 0.8406 0.0
C788 C 0.00056 0.55942 0.86291 0.0
H789 H 0.98984 0.54507 0.82879 0.0
H790 H 0.03227 0.61674 0.97767 0.0
H791 H 0.03166 0.60126 0.9404 0.0
H792 H 0.98278 0.59168 0.92062 0.0
H793 H 0.98359 0.60774 0.95816 0.0
H794 H 0.99692 0.58287 0.89036 0.0
H795 H 0.02405 0.57886 0.9165 0.0
H796 H 0.04008 0.57424 0.8841 0.0
H797 H 0.04093 0.56088 0.8448 0.0
C798 C 0.40816 0.40235 0.92686 0.0
C799 C 0.39547 0.4034 0.93848 0.0
C800 C 0.42031 0.41596 0.91489 0.0
C801 C 0.42005 0.43098 0.91431 0.0
C802 C 0.40743 0.43206 0.92609 0.0
C803 C 0.39532 0.41846 0.93819 0.0
C804 C 0.43166 0.44497 0.89933 0.0
C805 C 0.44672 0.44763 0.89411 0.0
C806 C 0.45711 0.45869 0.87449 0.0
C807 C 0.47194 0.4591 0.86975 0.0
C808 C 0.48061 0.4665 0.8486 0.0
C809 C 0.47465 0.47371 0.83171 0.0
H810 H 0.44074 0.46747 0.86143 0.0
C811 C 0.4606 0.47457 0.83747 0.0
C812 C 0.4519 0.46715 0.8586 0.0
H813 H 0.45587 0.48028 0.82494 0.0
H814 H 0.4085 0.39087 0.92637 0.0
H815 H 0.42944 0.41437 0.90524 0.0
H816 H 0.4068 0.44339 0.92563 0.0
H817 H 0.38567 0.41967 0.94691 0.0
H818 H 0.42721 0.45276 0.89181 0.0
H819 H 0.45125 0.44039 0.90345 0.0
H820 H 0.47636 0.45281 0.88165 0.0
H821 H 0.49134 0.46552 0.84463 0.0
C822 C 0.60187 0.99615 0.95536 0.0
C823 C 0.59537 0.98183 0.96944 0.0
C824 C 0.59361 0.99636 0.93345 0.0
C825 C 0.57873 0.98219 0.92515 0.0
C826 C 0.57265 0.96771 0.93867 0.0
C827 C 0.58078 0.96756 0.96066 0.0
C828 C 0.56933 0.98188 0.90234 0.0
C829 C 0.56943 0.99547 0.89395 0.0
C830 C 0.56003 0.99515 0.87105 0.0
C831 C 0.56559 0.00988 0.85825 0.0
C832 C 0.55774 0.00991 0.83586 0.0
C833 C 0.54403 0.99523 0.82589 0.0
H834 H 0.54071 0.96917 0.8715 0.0
C835 C 0.53791 0.98068 0.83934 0.0
C836 C 0.5458 0.98063 0.86172 0.0
H837 H 0.52738 0.96917 0.83213 0.0
H838 H 0.61313 0.00733 0.96156 0.0
H839 H 0.59897 0.00758 0.92305 0.0
H840 H 0.56135 0.95656 0.93251 0.0
H841 H 0.5755 0.95626 0.97092 0.0
H842 H 0.56176 0.96987 0.89263 0.0
H843 H 0.57702 0.00746 0.90375 0.0
H844 H 0.57634 0.0213 0.86521 0.0
H845 H 0.56259 0.02138 0.82607 0.0
C846 C 0.59785 0.01724 0.0704 0.0
C847 C 0.59986 0.00322 0.07032 0.0
C848 C 0.58454 0.01697 0.08205 0.0
C849 C 0.57301 0.00264 0.09386 0.0
C850 C 0.57487 0.98855 0.09318 0.0
C851 C 0.58817 0.98886 0.08175 0.0
C852 C 0.55917 0.0018 0.10779 0.0
C853 C 0.55923 0.01518 0.11838 0.0
C854 C 0.54737 0.01335 0.13759 0.0
C855 C 0.55285 0.02489 0.15799 0.0
C856 C 0.54343 0.02158 0.17909 0.0
C857 C 0.52829 0.00669 0.18005 0.0
H858 H 0.52653 0.99059 0.12158 0.0
C859 C 0.522 0.99608 0.15853 0.0
C860 C 0.53142 -0.00059 0.13744 0.0
H861 H 0.51035 0.98454 0.1586 0.0
H862 H 0.60659 0.02846 0.06158 0.0
H863 H 0.58333 0.02795 0.08166 0.0
H864 H 0.5662 0.97734 0.10211 0.0
H865 H 0.58938 0.97789 0.08227 0.0
H866 H 0.5495 0.98943 0.11214 0.0
H867 H 0.56959 0.02755 0.11607 0.0
H868 H 0.56496 0.03589 0.15841 0.0
H869 H 0.54845 0.03014 0.19525 0.0
C870 C 0.97533 0.58479 0.06928 0.0
C871 C 0.98906 0.60097 0.07057 0.0
C872 C 0.97588 0.57184 0.08123 0.0
C873 C 0.9902 0.57489 0.09476 0.0
C874 C 0.00393 0.59101 0.09567 0.0
C875 C 0.00334 0.60391 0.0839 0.0
C876 C 0.99145 0.56187 0.10849 0.0
C877 C 0.97849 0.54821 0.11707 0.0
C878 C 0.98072 0.53764 0.13525 0.0
C879 C 0.96961 0.53092 0.15438 0.0
C880 C 0.97312 0.52385 0.17457 0.0
C881 C 0.98775 0.52323 0.17585 0.0
H882 H 0.003 0.53993 0.12031 0.0
C883 C -0.00199 0.52839 0.15543 0.0
C884 C 0.9945 0.53547 0.13527 0.0
H885 H 0.00936 0.52807 0.15578 0.0
H886 H 0.96417 0.5821 0.05899 0.0
H887 H 0.96516 0.55951 0.0796 0.0
H888 H 0.01511 0.59375 0.10595 0.0
H889 H 0.01408 0.61623 0.08554 0.0
H890 H 0.00378 0.56467 0.11407 0.0
H891 H 0.96615 0.54605 0.11365 0.0
H892 H 0.95876 0.53216 0.1546 0.0
H893 H 0.96485 0.51973 0.18987 0.0
C894 C 0.41766 0.39337 0.04657 0.0
C895 C 0.40179 0.38994 0.03918 0.0
C896 C 0.42521 0.4022 0.069 0.0
C897 C 0.41715 0.40803 0.08458 0.0
C898 C 0.4011 0.40419 0.07754 0.0
C899 C 0.39349 0.39526 0.05508 0.0
C900 C 0.42484 0.41767 0.10855 0.0
C901 C 0.44114 0.42558 0.11427 0.0
C902 C 0.44845 0.43426 0.13886 0.0
C903 C 0.46275 0.43476 0.14828 0.0
C904 C 0.46935 0.4418 0.1721 0.0
C905 C 0.4619 0.44871 0.18687 0.0
H906 H 0.43084 0.44236 0.14599 0.0
C907 C 0.44815 0.44908 0.17677 0.0
C908 C 0.44147 0.44191 0.15307 0.0
H909 H 0.44236 0.45468 0.18739 0.0
H910 H 0.42435 0.38925 0.03499 0.0
H911 H 0.43728 0.40418 0.07399 0.0
H912 H 0.39449 0.40831 0.0893 0.0
H913 H 0.38125 0.39281 0.05 0.0
H914 H 0.41662 0.41814 0.12202 0.0
H915 H 0.44952 0.42515 0.10113 0.0
H916 H 0.46848 0.42913 0.13757 0.0
H917 H 0.47986 0.44116 0.1793 0.0
C918 C 0.66715 0.72245 0.38929 0.0
C919 C 0.65336 0.71543 0.37261 0.0
C920 C 0.6676 0.73162 0.4108 0.0
C921 C 0.65421 0.73386 0.41607 0.0
C922 C 0.64025 0.72634 0.39984 0.0
C923 C 0.63986 0.71735 0.37831 0.0
C924 C 0.65406 0.74356 0.43849 0.0
C925 C 0.66774 0.75617 0.44989 0.0
C926 C 0.6675 0.76606 0.47209 0.0
C927 C 0.68127 0.78182 0.47788 0.0
C928 C 0.6819 0.79113 0.49928 0.0
C929 C 0.6688 0.78481 0.51551 0.0
H930 H 0.64357 0.74765 0.48486 0.0
C931 C 0.65488 0.76919 0.50947 0.0
C932 C 0.65425 0.75988 0.48813 0.0
H933 H 0.64456 0.76399 0.52157 0.0
H934 H 0.67772 0.72115 0.3855 0.0
H935 H 0.67837 0.7368 0.42329 0.0
H936 H 0.62968 0.72767 0.40359 0.0
H937 H 0.62896 0.71199 0.36602 0.0
H938 H 0.6421 0.7408 0.44472 0.0
H939 H 0.6796 0.7599 0.44215 0.0
H940 H 0.6917 0.78686 0.46599 0.0
H941 H 0.69293 0.80298 0.5036 0.0
C942 C 0.25628 0.93683 0.4156 0.0
C943 C 0.26944 0.93606 0.40509 0.0
C944 C 0.24416 0.92324 0.4277 0.0
C945 C 0.24492 0.90853 0.42948 0.0
C946 C 0.25797 0.90773 0.41867 0.0
C947 C 0.27006 0.9213 0.40653 0.0
C948 C 0.23342 0.8945 0.44457 0.0
C949 C 0.21848 0.89174 0.45077 0.0
C950 C 0.20889 0.88003 0.4702 0.0
C951 C 0.19924 0.88397 0.48536 0.0
C952 C 0.19242 0.87507 0.5066 0.0
C953 C 0.19493 0.8619 0.51288 0.0
H954 H 0.21701 0.86213 0.46344 0.0
C955 C 0.20327 0.85695 0.49646 0.0
C956 C 0.21019 0.86593 0.47527 0.0
H957 H 0.20536 0.84682 0.5008 0.0
H958 H 0.25555 0.94809 0.41509 0.0
H959 H 0.23466 0.92465 0.43646 0.0
H960 H 0.25898 0.89664 0.41997 0.0
H961 H 0.28004 0.92029 0.39862 0.0
H962 H 0.23801 0.88677 0.45199 0.0
H963 H 0.21385 0.89947 0.44351 0.0
H964 H 0.19783 0.89461 0.48167 0.0
H965 H 0.18584 0.87899 0.5188 0.0
C966 C 0.08003 0.35045 0.37764 0.0
C967 C 0.06389 0.3396 0.36828 0.0
C968 C 0.08569 0.34761 0.40022 0.0
C969 C 0.07537 0.33369 0.4139 0.0
C970 C 0.05917 0.323 0.40473 0.0
C971 C 0.05349 0.32588 0.38217 0.0
C972 C 0.08076 0.3303 0.43824 0.0
C973 C 0.09665 0.33672 0.44586 0.0
C974 C 0.10197 0.33394 0.47074 0.0
C975 C 0.11818 0.3372 0.47447 0.0
C976 C 0.12384 0.33535 0.49785 0.0
C977 C 0.11342 0.33032 0.51807 0.0
H978 H 0.07916 0.32668 0.48937 0.0
C979 C 0.09719 0.32696 0.51427 0.0
C980 C 0.09156 0.32888 0.49102 0.0
H981 H 0.08874 0.32281 0.52933 0.0
H982 H 0.08835 0.36126 0.36758 0.0
H983 H 0.09805 0.35654 0.40694 0.0
H984 H 0.05088 0.31229 0.415 0.0
H985 H 0.04097 0.31727 0.37557 0.0
H986 H 0.07112 0.32175 0.44989 0.0
H987 H 0.10628 0.34403 0.43326 0.0
H988 H 0.12653 0.34127 0.45928 0.0
H989 H 0.13646 0.33817 0.50021 0.0
C990 C 0.07302 0.33845 0.25386 0.0
C991 C 0.05974 0.32448 0.26377 0.0
C992 C 0.08491 0.33686 0.24093 0.0
C993 C 0.08381 0.32122 0.23769 0.0
C994 C 0.07064 0.30732 0.24791 0.0
C995 C 0.05876 0.30893 0.2609 0.0
C996 C 0.09505 0.31862 0.22159 0.0
C997 C 0.11006 0.33089 0.2158 0.0
C998 C 0.11935 0.3289 0.19529 0.0
C999 C 0.12907 0.34272 0.18117 0.0
C1000 C 0.13572 0.34081 0.15917 0.0
C1001 C 0.13296 0.32507 0.15107 0.0
H1002 H 0.11082 0.3026 0.19922 0.0
C1003 C 0.12447 0.31152 0.16633 0.0
C1004 C 0.11772 0.3134 0.18827 0.0
H1005 H 0.12219 0.29924 0.16057 0.0
H1006 H 0.07401 0.35057 0.25542 0.0
H1007 H 0.09448 0.34781 0.23266 0.0
H1008 H 0.06938 0.2951 0.24547 0.0
H1009 H 0.04867 0.29791 0.2683 0.0
H1010 H 0.0902 0.30623 0.213 0.0
H1011 H 0.11495 0.3433 0.22432 0.0
H1012 H 0.13071 0.35484 0.18635 0.0
H1013 H 0.14242 0.35151 0.14791 0.0
C1014 C 0.66199 0.72727 0.26099 0.0
C1015 C 0.67556 0.72836 0.27426 0.0
C1016 C 0.66344 0.74091 0.24844 0.0
C1017 C 0.67854 0.75599 0.24892 0.0
C1018 C 0.69206 0.75707 0.26227 0.0
C1019 C 0.69059 0.74346 0.27492 0.0
C1020 C 0.68103 0.77023 0.23386 0.0
C1021 C 0.66877 0.77288 0.22649 0.0
C1022 C 0.67074 0.78505 0.2075 0.0
C1023 C 0.65704 0.78161 0.19211 0.0
C1024 C 0.65881 0.79112 0.17149 0.0
C1025 C 0.67429 0.80445 0.16605 0.0
H1026 H 0.69671 0.80268 0.21524 0.0
C1027 C 0.68773 0.80884 0.18266 0.0
C1028 C 0.68599 0.79923 0.20323 0.0
H1029 H 0.6998 0.81908 0.17892 0.0
H1030 H 0.65031 0.71577 0.25977 0.0
H1031 H 0.65285 0.73932 0.23765 0.0
H1032 H 0.70389 0.76845 0.26271 0.0
H1033 H 0.70131 0.74473 0.28493 0.0
H1034 H 0.69338 0.77828 0.22775 0.0
H1035 H 0.65644 0.76483 0.23271 0.0
H1036 H 0.6451 0.77093 0.19517 0.0
H1037 H 0.64821 0.78759 0.15911 0.0
C1038 C 0.27281 0.93842 0.29008 0.0
C1039 C 0.26412 0.94467 0.30317 0.0
C1040 C 0.2656 0.92769 0.26894 0.0
C1041 C 0.24954 0.92311 0.26025 0.0
C1042 C 0.24108 0.92969 0.27311 0.0
C1043 C 0.24823 0.94028 0.29426 0.0
C1044 C 0.24092 0.91142 0.23827 0.0
C1045 C 0.248 0.90558 0.22248 0.0
C1046 C 0.23927 0.89483 0.19982 0.0
C1047 C 0.24857 0.8955 0.17937 0.0
C1048 C 0.2409 0.88638 0.1572 0.0
C1049 C 0.22372 0.8762 0.15501 0.0
H1050 H 0.21455 0.88278 0.2137 0.0
C1051 C 0.2144 0.87483 0.17582 0.0
C1052 C 0.22209 0.88409 0.19804 0.0
H1053 H 0.20115 0.86696 0.17467 0.0
H1054 H 0.28501 0.94142 0.29656 0.0
H1055 H 0.27263 0.92288 0.26001 0.0
H1056 H 0.22875 0.92648 0.26695 0.0
H1057 H 0.24116 0.94487 0.3038 0.0
H1058 H 0.2282 0.90801 0.23443 0.0
H1059 H 0.26095 0.90967 0.22491 0.0
H1060 H 0.26182 0.90344 0.18031 0.0
H1061 H 0.24843 0.88741 0.14161 0.0
C1062 C 0.66444 0.93847 0.28817 0.0
C1063 C 0.67826 0.94753 0.30447 0.0
C1064 C 0.66532 0.9298 0.26698 0.0
C1065 C 0.6801 0.93019 0.26166 0.0
C1066 C 0.69404 0.93985 0.27738 0.0
C1067 C 0.69311 0.94828 0.29864 0.0
C1068 C 0.68169 0.92098 0.23981 0.0
C1069 C 0.66918 0.90662 0.2297 0.0
C1070 C 0.6711 0.89737 0.20813 0.0
C1071 C 0.65736 0.88723 0.19226 0.0
C1072 C 0.6589 0.87923 0.1709 0.0
C1073 C 0.6742 0.88106 0.16507 0.0
H1074 H 0.69697 0.90558 0.21534 0.0
C1075 C 0.68776 0.89042 0.18171 0.0
C1076 C 0.68623 0.89846 0.20305 0.0
H1077 H 0.69971 0.89207 0.17775 0.0
H1078 H 0.65285 0.9377 0.29215 0.0
H1079 H 0.65445 0.9229 0.25484 0.0
H1080 H 0.70562 0.94055 0.27355 0.0
H1081 H 0.70403 0.95528 0.31068 0.0
H1082 H 0.69384 0.92605 0.23244 0.0
H1083 H 0.657 0.90159 0.23697 0.0
H1084 H 0.6455 0.88591 0.19596 0.0
H1085 H 0.64817 0.87189 0.15861 0.0
C1086 C 0.06963 0.75098 0.26304 0.0
C1087 C 0.067 0.73467 0.26161 0.0
C1088 C 0.08298 0.76386 0.25153 0.0
C1089 C 0.0939 0.76061 0.2383 0.0
C1090 C 0.09145 0.7444 0.23749 0.0
C1091 C 0.07812 0.73157 0.24885 0.0
C1092 C 0.10769 0.77344 0.22438 0.0
C1093 C 0.10812 0.78711 0.21562 0.0
C1094 C 0.11982 0.79707 0.19647 0.0
C1095 C 0.11452 0.80377 0.17774 0.0
C1096 C 0.12363 0.8099 0.15648 0.0
C1097 C 0.13826 0.8095 0.15364 0.0
H1098 H 0.14016 0.79404 0.20954 0.0
C1099 C 0.14444 0.8045 0.17365 0.0
C1100 C 0.13536 0.79844 0.19493 0.0
H1101 H 0.15569 0.80408 0.17217 0.0
H1102 H 0.06135 0.7538 0.27295 0.0
H1103 H 0.08466 0.77627 0.25314 0.0
H1104 H 0.09966 0.74152 0.22747 0.0
H1105 H 0.07643 0.71916 0.24721 0.0
H1106 H 0.11685 0.77032 0.21853 0.0
H1107 H 0.09824 0.78958 0.21944 0.0
H1108 H 0.10275 0.80318 0.17869 0.0
H1109 H 0.11873 0.814 0.14158 0.0
C1110 C 0.24122 0.30489 0.29812 0.0
C1111 C 0.2572 0.31768 0.30534 0.0
C1112 C 0.23359 0.3055 0.27587 0.0
C1113 C 0.2417 0.31901 0.26034 0.0
C1114 C 0.2578 0.33158 0.26728 0.0
C1115 C 0.26546 0.33096 0.28953 0.0
C1116 C 0.23408 0.32031 0.23651 0.0
C1117 C 0.2178 0.31164 0.23062 0.0
C1118 C 0.21073 0.31282 0.20626 0.0
C1119 C 0.19645 0.29885 0.19601 0.0
C1120 C 0.19017 0.29918 0.17228 0.0
C1121 C 0.19799 0.31359 0.15848 0.0
H1122 H 0.2286 0.33876 0.20078 0.0
C1123 C 0.2117 0.32788 0.1694 0.0
C1124 C 0.21801 0.32752 0.19302 0.0
H1125 H 0.21774 0.3393 0.15949 0.0
H1126 H 0.23454 0.29436 0.30968 0.0
H1127 H 0.22143 0.29521 0.27096 0.0
H1128 H 0.26443 0.34205 0.25557 0.0
H1129 H 0.27778 0.34101 0.29445 0.0
H1130 H 0.24237 0.32883 0.22326 0.0
H1131 H 0.20932 0.30288 0.2434 0.0
H1132 H 0.19048 0.28744 0.20599 0.0
H1133 H 0.17962 0.28795 0.16436 0.0
C1134 C 0.2592 0.35054 0.40657 0.0
C1135 C 0.26178 0.33689 0.40677 0.0
C1136 C 0.24576 0.3499 0.41831 0.0
C1137 C 0.2347 0.33556 0.43061 0.0
C1138 C 0.23711 0.32182 0.43018 0.0
C1139 C 0.25051 0.32249 0.41856 0.0
C1140 C 0.22087 0.33446 0.44496 0.0
C1141 C 0.22045 0.34778 0.45473 0.0
C1142 C 0.20898 0.34607 0.47452 0.0
C1143 C 0.21456 0.35838 0.49387 0.0
C1144 C 0.20578 0.35552 0.51558 0.0
C1145 C 0.19117 0.34034 0.51819 0.0
H1146 H 0.18845 0.32223 0.46097 0.0
C1147 C 0.18464 0.32883 0.49771 0.0
C1148 C 0.19344 0.33169 0.476 0.0
H1149 H 0.17337 0.31705 0.49911 0.0
H1150 H 0.26758 0.36176 0.3974 0.0
H1151 H 0.24412 0.36061 0.41764 0.0
H1152 H 0.2288 0.31061 0.43946 0.0
H1153 H 0.25216 0.31177 0.41922 0.0
H1154 H 0.21174 0.3221 0.45031 0.0
H1155 H 0.23029 0.36025 0.45134 0.0
H1156 H 0.22634 0.3697 0.49303 0.0
H1157 H 0.21095 0.36472 0.53097 0.0
C1158 C 0.66666 0.93319 0.41528 0.0
C1159 C 0.65319 0.93151 0.40097 0.0
C1160 C 0.66561 0.91965 0.42757 0.0
C1161 C 0.65103 0.90407 0.42577 0.0
C1162 C 0.63759 0.90239 0.4114 0.0
C1163 C 0.63868 0.91592 0.399 0.0
C1164 C 0.64897 0.88993 0.44066 0.0
C1165 C 0.6617 0.8882 0.44858 0.0
C1166 C 0.66071 0.87661 0.468 0.0
C1167 C 0.67461 0.87508 0.47307 0.0
C1168 C 0.67563 0.86717 0.49425 0.0
C1169 C 0.66276 0.86063 0.51085 0.0
H1170 H 0.63635 0.86975 0.48076 0.0
C1171 C 0.64831 0.86093 0.50474 0.0
C1172 C 0.64729 0.86888 0.48363 0.0
H1173 H 0.63814 0.85585 0.51712 0.0
H1174 H 0.67793 0.94507 0.41754 0.0
H1175 H 0.67605 0.92168 0.43921 0.0
H1176 H 0.62615 0.89061 0.40998 0.0
H1177 H 0.62804 0.91421 0.38817 0.0
H1178 H 0.63657 0.88102 0.44558 0.0
H1179 H 0.67378 0.89633 0.44154 0.0
H1180 H 0.68513 0.88088 0.46142 0.0
H1181 H 0.687 0.86728 0.49852 0.0
C1182 C 0.06639 0.7272 0.37611 0.0
C1183 C 0.07234 0.71903 0.36078 0.0
C1184 C 0.07508 0.73586 0.39818 0.0
C1185 C 0.08986 0.73642 0.40537 0.0
C1186 C 0.0954 0.72771 0.39054 0.0
C1187 C 0.08684 0.71923 0.36841 0.0
C1188 C 0.09965 0.74562 0.42839 0.0
C1189 C 0.1 0.7593 0.43827 0.0
C1190 C 0.10961 0.76832 0.46156 0.0
C1191 C 0.10431 0.77746 0.47594 0.0
C1192 C 0.11226 0.78516 0.49881 0.0
C1193 C 0.12583 0.78403 0.50769 0.0
H1194 H 0.12862 0.76158 0.45884 0.0
C1195 C 0.13175 0.7757 0.49268 0.0
C1196 C 0.12374 0.76793 0.46982 0.0
H1197 H 0.14218 0.77464 0.49903 0.0
H1198 H 0.05522 0.72722 0.37082 0.0
H1199 H 0.07013 0.74196 0.40958 0.0
H1200 H 0.1066 0.72774 0.39582 0.0
H1201 H 0.0917 0.71294 0.35717 0.0
H1202 H 0.10707 0.74104 0.43706 0.0
H1203 H 0.09255 0.76383 0.42953 0.0
H1204 H 0.09365 0.77821 0.46985 0.0
H1205 H 0.10758 0.79171 0.50983 0.0
C1206 C 0.33489 0.06239 0.70924 0.0
C1207 C 0.32036 0.05202 0.69498 0.0
C1208 C 0.33467 0.0718 0.72995 0.0
C1209 C 0.31987 0.0708 0.7369 0.0
C1210 C 0.30527 0.05982 0.72334 0.0
C1211 C 0.30554 0.0507 0.70241 0.0
C1212 C 0.31914 0.08076 0.75843 0.0
C1213 C 0.33115 0.0965 0.7643 0.0
C1214 C 0.33097 0.10682 0.786 0.0
C1215 C 0.3457 0.12131 0.7936 0.0
C1216 C 0.34661 0.13061 0.81514 0.0
C1217 C 0.33276 0.12564 0.82957 0.0
H1218 H 0.30503 0.09186 0.79402 0.0
C1219 C 0.31776 0.11176 0.82118 0.0
C1220 C 0.31682 0.10249 0.79958 0.0
H1221 H 0.30684 0.10778 0.83178 0.0
H1222 H 0.34648 0.06365 0.70393 0.0
H1223 H 0.34606 0.07981 0.74049 0.0
H1224 H 0.29369 0.05866 0.72854 0.0
H1225 H 0.29413 0.04272 0.69187 0.0
H1226 H 0.30808 0.07495 0.76895 0.0
H1227 H 0.34191 0.10204 0.75298 0.0
H1228 H 0.35675 0.12511 0.78341 0.0
H1229 H 0.35839 0.14116 0.82123 0.0
C1230 C 0.92088 0.2663 0.76054 0.0
C1231 C 0.93328 0.26558 0.74743 0.0
C1232 C 0.90906 0.25237 0.77242 0.0
C1233 C 0.90936 0.23734 0.77137 0.0
C1234 C 0.92167 0.23661 0.75804 0.0
C1235 C 0.93345 0.25052 0.74611 0.0
C1236 C 0.89815 0.22279 0.7859 0.0
C1237 C 0.88365 0.22016 0.79416 0.0
C1238 C 0.87446 0.20775 0.81303 0.0
C1239 C 0.86566 0.21144 0.83037 0.0
C1240 C 0.85923 0.20167 0.85098 0.0
C1241 C 0.86125 0.18786 0.85442 0.0
H1242 H 0.88146 0.18954 0.80185 0.0
C1243 C 0.86871 0.18324 0.83591 0.0
C1244 C 0.87529 0.19311 0.81536 0.0
H1245 H 0.8704 0.17262 0.83812 0.0
H1246 H 0.92052 0.27776 0.76222 0.0
H1247 H 0.90018 0.25372 0.78317 0.0
H1248 H 0.92232 0.22528 0.75713 0.0
H1249 H 0.94285 0.24954 0.73617 0.0
H1250 H 0.90261 0.21448 0.79109 0.0
H1251 H 0.87915 0.22845 0.78908 0.0
H1252 H 0.86463 0.2225 0.82883 0.0
H1253 H 0.8534 0.2054 0.86492 0.0
C1254 C 0.75514 0.68724 0.70132 0.0
C1255 C 0.73822 0.67706 0.69544 0.0
C1256 C 0.76254 0.684 0.72154 0.0
C1257 C 0.75317 0.67054 0.7366 0.0
C1258 C 0.73629 0.66031 0.73068 0.0
C1259 C 0.72887 0.66354 0.71039 0.0
C1260 C 0.76059 0.66663 0.75827 0.0
C1261 C 0.77458 0.678 0.77068 0.0
C1262 C 0.78094 0.67424 0.79367 0.0
C1263 C 0.78902 0.68684 0.81244 0.0
C1264 C 0.79353 0.68328 0.83542 0.0
C1265 C 0.79034 0.66711 0.83985 0.0
H1266 H 0.77295 0.64846 0.78315 0.0
C1267 C 0.78336 0.65479 0.82046 0.0
C1268 C 0.77866 0.65831 0.79755 0.0
H1269 H 0.78071 0.64221 0.82345 0.0
H1270 H 0.7628 0.69765 0.69007 0.0
H1271 H 0.77566 0.69189 0.7249 0.0
H1272 H 0.72879 0.64979 0.74186 0.0
H1273 H 0.71584 0.65537 0.70634 0.0
H1274 H 0.75366 0.65419 0.76523 0.0
H1275 H 0.78073 0.69088 0.76543 0.0
H1276 H 0.79112 0.69927 0.80977 0.0
H1277 H 0.79895 0.69299 0.85009 0.0
C1278 C 0.73344 0.65227 0.59024 0.0
C1279 C 0.73179 0.66646 0.59269 0.0
C1280 C 0.74649 0.65285 0.57742 0.0
C1281 C 0.75815 0.66768 0.56682 0.0
C1282 C 0.75648 0.68184 0.56946 0.0
C1283 C 0.74349 0.68126 0.58228 0.0
C1284 C 0.77132 0.66867 0.551 0.0
C1285 C 0.7768 0.65775 0.55086 0.0
C1286 C 0.78797 0.65791 0.53159 0.0
C1287 C 0.78614 0.64273 0.52246 0.0
C1288 C 0.79397 0.64211 0.50093 0.0
C1289 C 0.80377 0.65672 0.48838 0.0
H1290 H 0.80158 0.68473 0.52775 0.0
C1291 C 0.80692 0.67208 0.49892 0.0
C1292 C 0.79923 0.67271 0.52051 0.0
H1293 H 0.81463 0.68351 0.48967 0.0
H1294 H 0.72457 0.64066 0.59802 0.0
H1295 H 0.74702 0.64151 0.57525 0.0
H1296 H 0.76515 0.69337 0.56125 0.0
H1297 H 0.7425 0.69238 0.5836 0.0
H1298 H 0.77616 0.67861 0.53796 0.0
H1299 H 0.77188 0.64753 0.5634 0.0
H1300 H 0.77773 0.63119 0.53089 0.0
H1301 H 0.79137 0.63012 0.49306 0.0
C1302 C 0.33064 0.06525 0.58515 0.0
C1303 C 0.34426 0.06652 0.59853 0.0
C1304 C 0.3318 0.07896 0.57321 0.0
C1305 C 0.34665 0.09428 0.57436 0.0
C1306 C 0.36026 0.09554 0.58771 0.0
C1307 C 0.35906 0.08186 0.59981 0.0
C1308 C 0.34879 0.10859 0.55983 0.0
C1309 C 0.33627 0.11103 0.55324 0.0
C1310 C 0.33762 0.12294 0.5342 0.0
C1311 C 0.32351 0.11915 0.5196 0.0
C1312 C 0.32466 0.12821 0.49867 0.0
C1313 C 0.33993 0.14141 0.49214 0.0
H1314 H 0.36369 0.14078 0.54032 0.0
C1315 C 0.35379 0.14623 0.50804 0.0
C1316 C 0.35266 0.13707 0.52893 0.0
H1317 H 0.3657 0.15638 0.50345 0.0
H1318 H 0.31914 0.05357 0.58339 0.0
H1319 H 0.3212 0.07725 0.56233 0.0
H1320 H 0.37191 0.10712 0.5886 0.0
H1321 H 0.36982 0.08326 0.6099 0.0
H1322 H 0.36101 0.11677 0.55335 0.0
H1323 H 0.32412 0.10284 0.55998 0.0
H1324 H 0.31173 0.1085 0.52343 0.0
H1325 H 0.31376 0.12436 0.48682 0.0
C1326 C 0.93225 0.27376 0.63239 0.0
C1327 C 0.92446 0.27974 0.64824 0.0
C1328 C 0.9244 0.26494 0.60998 0.0
C1329 C 0.90864 0.26202 0.60293 0.0
C1330 C 0.90113 0.26849 0.61834 0.0
C1331 C 0.90887 0.27712 0.64083 0.0
C1332 C 0.89985 0.2527 0.57936 0.0
C1333 C 0.90182 0.24051 0.56883 0.0
C1334 C 0.89317 0.23119 0.54512 0.0
C1335 C 0.89161 0.21555 0.53986 0.0
C1336 C 0.8846 0.20692 0.51703 0.0
C1337 C 0.87915 0.21386 0.49883 0.0
H1338 H 0.88864 0.25013 0.53007 0.0
C1339 C 0.88036 0.22934 0.5043 0.0
C1340 C 0.88733 0.23794 0.52711 0.0
H1341 H 0.87625 0.23499 0.49064 0.0
H1342 H 0.94428 0.27562 0.63749 0.0
H1343 H 0.93078 0.26059 0.59816 0.0
H1344 H 0.8891 0.26661 0.61319 0.0
H1345 H 0.90257 0.28167 0.65247 0.0
H1346 H 0.8908 0.25542 0.57132 0.0
H1347 H 0.9097 0.23676 0.57832 0.0
H1348 H 0.89609 0.21009 0.55329 0.0
H1349 H 0.88408 0.19514 0.51324 0.0
C1350 C 0.33458 0.27862 0.61147 0.0
C1351 C 0.34895 0.28796 0.62658 0.0
C1352 C 0.33465 0.26941 0.59033 0.0
C1353 C 0.34917 0.26958 0.58386 0.0
C1354 C 0.36364 0.27956 0.59834 0.0
C1355 C 0.36351 0.2885 0.61957 0.0
C1356 C 0.34992 0.25975 0.56212 0.0
C1357 C 0.33713 0.24512 0.55336 0.0
C1358 C 0.3383 0.23522 0.532 0.0
C1359 C 0.32407 0.22466 0.51732 0.0
C1360 C 0.32489 0.21605 0.49611 0.0
C1361 C 0.33995 0.21766 0.48927 0.0
H1362 H 0.36433 0.24353 0.53738 0.0
C1363 C 0.35401 0.22742 0.5048 0.0
C1364 C 0.35321 0.23609 0.52597 0.0
H1365 H 0.36579 0.22892 0.50004 0.0
H1366 H 0.32319 0.278 0.61641 0.0
H1367 H 0.32337 0.26224 0.57914 0.0
H1368 H 0.37503 0.2801 0.59361 0.0
H1369 H 0.37483 0.29571 0.6307 0.0
H1370 H 0.36176 0.26457 0.5537 0.0
H1371 H 0.32526 0.24034 0.56165 0.0
H1372 H 0.31237 0.22349 0.52178 0.0
H1373 H 0.31379 0.20841 0.4847 0.0
C1374 C 0.72756 0.08121 0.59262 0.0
C1375 C 0.72635 0.06547 0.5918 0.0
C1376 C 0.74054 0.09468 0.58143 0.0
C1377 C 0.7525 0.0926 0.56912 0.0
C1378 C 0.75136 0.07694 0.56873 0.0
C1379 C 0.73841 0.06352 0.57976 0.0
C1380 C 0.76618 0.10613 0.55596 0.0
C1381 C 0.76587 0.11939 0.547 0.0
C1382 C 0.77798 0.13018 0.52889 0.0
C1383 C 0.77267 0.13631 0.50933 0.0
C1384 C 0.78253 0.14319 0.48897 0.0
C1385 C 0.7979 0.14414 0.48789 0.0
H1386 H 0.79886 0.12898 0.54448 0.0
C1387 C 0.80393 0.13973 0.50879 0.0
C1388 C 0.79411 0.13291 0.52916 0.0
H1389 H 0.81572 0.14033 0.50868 0.0
H1390 H 0.71852 0.08313 0.60195 0.0
H1391 H 0.74117 0.10663 0.58265 0.0
H1392 H 0.76037 0.07495 0.55938 0.0
H1393 H 0.73779 0.05156 0.57854 0.0
H1394 H 0.77611 0.10397 0.55098 0.0
H1395 H 0.75531 0.12092 0.54985 0.0
H1396 H 0.76042 0.13466 0.5089 0.0
H1397 H 0.77769 0.14682 0.47336 0.0
C1398 C 0.93493 0.66272 0.61868 0.0
C1399 C 0.92865 0.64885 0.63369 0.0
C1400 C 0.92639 0.66231 0.59671 0.0
C1401 C 0.91144 0.64795 0.58926 0.0
C1402 C 0.90552 0.63392 0.60379 0.0
C1403 C 0.91392 0.63439 0.62586 0.0
C1404 C 0.9019 0.64696 0.56619 0.0
C1405 C 0.90174 0.66024 0.55701 0.0
C1406 C 0.89249 0.65949 0.53365 0.0
C1407 C 0.89743 0.67426 0.52121 0.0
C1408 C 0.88981 0.67404 0.49844 0.0
C1409 C 0.87695 0.65903 0.48764 0.0
H1410 H 0.87439 0.633 0.53283 0.0
C1411 C 0.87141 0.64436 0.50067 0.0
C1412 C 0.87905 0.64458 0.52346 0.0
H1413 H 0.86155 0.63259 0.49284 0.0
H1414 H 0.94628 0.67402 0.62414 0.0
H1415 H 0.93161 0.67318 0.58554 0.0
H1416 H 0.89415 0.62263 0.5983 0.0
H1417 H 0.9088 0.62342 0.63685 0.0
H1418 H 0.89456 0.63474 0.55698 0.0
H1419 H 0.90908 0.67236 0.56656 0.0
H1420 H 0.90754 0.68597 0.52878 0.0
H1421 H 0.89418 0.6856 0.48905 0.0
C1422 C 0.92513 0.65934 0.74777 0.0
C1423 C 0.93646 0.67317 0.73497 0.0
C1424 C 0.91285 0.65994 0.76105 0.0
C1425 C 0.91158 0.67442 0.76178 0.0
C1426 C 0.92286 0.68823 0.7489 0.0
C1427 C 0.93514 0.6876 0.7355 0.0
C1428 C 0.89972 0.67597 0.77786 0.0
C1429 C 0.88562 0.66269 0.78448 0.0
C1430 C 0.87536 0.66312 0.80488 0.0
C1431 C 0.8601 0.6488 0.80816 0.0
C1432 C 0.85134 0.64736 0.82951 0.0
C1433 C 0.85769 0.66023 0.84811 0.0
H1434 H 0.89298 0.68762 0.82144 0.0
C1435 C 0.87243 0.67499 0.84415 0.0
C1436 C 0.88122 0.67642 0.82284 0.0
H1437 H 0.87753 0.68518 0.85808 0.0
H1438 H 0.92597 0.64814 0.74816 0.0
H1439 H 0.90484 0.64925 0.77151 0.0
H1440 H 0.92231 0.69962 0.74946 0.0
H1441 H 0.94373 0.6985 0.7259 0.0
H1442 H 0.90308 0.68839 0.78484 0.0
H1443 H 0.88173 0.65061 0.77542 0.0
H1444 H 0.85529 0.63833 0.79472 0.0
H1445 H 0.8401 0.63576 0.83211 0.0
C1446 C 0.33908 0.27507 0.7385 0.0
C1447 C 0.32571 0.27405 0.72477 0.0
C1448 C 0.33745 0.26137 0.751 0.0
C1449 C 0.32235 0.24628 0.75001 0.0
C1450 C 0.30898 0.24526 0.73627 0.0
C1451 C 0.31065 0.25897 0.72365 0.0
C1452 C 0.31983 0.23208 0.7651 0.0
C1453 C 0.33222 0.22952 0.77209 0.0
C1454 C 0.33118 0.21802 0.79166 0.0
C1455 C 0.3448 0.21593 0.79606 0.0
C1456 C 0.34591 0.208 0.81714 0.0
C1457 C 0.33338 0.20197 0.83434 0.0
H1458 H 0.30735 0.21216 0.8056 0.0
C1459 C 0.31918 0.2029 0.829 0.0
C1460 C 0.31808 0.21088 0.80797 0.0
H1461 H 0.30923 0.19818 0.84179 0.0
H1462 H 0.35076 0.28657 0.74016 0.0
H1463 H 0.34788 0.26292 0.76217 0.0
H1464 H 0.29716 0.23388 0.73551 0.0
H1465 H 0.30008 0.2578 0.7133 0.0
H1466 H 0.30747 0.22389 0.77099 0.0
H1467 H 0.34413 0.23695 0.76409 0.0
H1468 H 0.35508 0.22126 0.78388 0.0
H1469 H 0.35709 0.20763 0.8208 0.0
C1470 C 0.74971 0.06101 0.69872 0.0
C1471 C 0.73281 0.05424 0.6931 0.0
C1472 C 0.75665 0.06902 0.72187 0.0
C1473 C 0.74686 0.07054 0.74001 0.0
C1474 C 0.72997 0.06369 0.7345 0.0
C1475 C 0.72301 0.0557 0.71126 0.0
C1476 C 0.75368 0.07829 0.76527 0.0
C1477 C 0.76969 0.08951 0.7703 0.0
C1478 C 0.77655 0.09634 0.79592 0.0
C1479 C 0.79103 0.11189 0.7991 0.0
C1480 C 0.79793 0.11848 0.82301 0.0
C1481 C 0.79052 0.10956 0.84419 0.0
H1482 H 0.75863 0.07496 0.81544 0.0
C1483 C 0.77626 0.09383 0.84091 0.0
C1484 C 0.76937 0.08728 0.81711 0.0
H1485 H 0.77052 0.0864 0.85679 0.0
H1486 H 0.75765 0.06005 0.68528 0.0
H1487 H 0.76959 0.07361 0.72561 0.0
H1488 H 0.7221 0.06451 0.74824 0.0
H1489 H 0.70995 0.05059 0.70762 0.0
H1490 H 0.74504 0.07484 0.7801 0.0
H1491 H 0.77806 0.09426 0.75514 0.0
H1492 H 0.79694 0.11903 0.78307 0.0
H1493 H 0.80892 0.13063 0.82493 0.0
C1494 C 0.05827 0.35064 0.97891 0.0
C1495 C 0.04296 0.34495 0.98968 0.0
C1496 C 0.0695 0.34629 0.98844 0.0
C1497 C 0.06568 0.33612 0.00903 0.0
C1498 C 0.05033 0.3303 0.01964 0.0
C1499 C 0.03913 0.33475 0.01021 0.0
C1500 C 0.07723 0.33107 0.01956 0.0
C1501 C 0.0937 0.34032 0.01828 0.0
C1502 C 0.10502 0.33589 0.03121 0.0
C1503 C 0.11975 0.34863 0.04254 0.0
C1504 C 0.1297 0.34479 0.0574 0.0
C1505 C 0.12532 0.32814 0.06057 0.0
H1506 H 0.09005 0.30915 0.02419 0.0
C1507 C 0.11125 0.31541 0.04774 0.0
C1508 C 0.10112 0.31923 0.03325 0.0
H1509 H 0.10756 0.30247 0.05016 0.0
H1510 H 0.06159 0.35842 0.96296 0.0
H1511 H 0.081 0.35067 0.97931 0.0
H1512 H 0.04702 0.32236 0.03541 0.0
H1513 H 0.02741 0.33006 0.01884 0.0
H1514 H 0.07201 0.31994 0.03033 0.0
H1515 H 0.09914 0.35233 0.00982 0.0
H1516 H 0.12311 0.36156 0.04103 0.0
H1517 H 0.14043 0.35479 0.06732 0.0
C1518 C 0.64701 0.69776 0.03441 0.0
C1519 C 0.63055 0.68503 0.03589 0.0
C1520 C 0.65103 0.71446 0.03373 0.0
C1521 C 0.63862 0.71874 0.03432 0.0
C1522 C 0.62217 0.70591 0.03426 0.0
C1523 C 0.61816 0.68929 0.03498 0.0
C1524 C 0.64221 0.73618 0.03858 0.0
C1525 C 0.65678 0.7499 0.03478 0.0
C1526 C 0.66125 0.76678 0.04523 0.0
C1527 C 0.67795 0.77852 0.05012 0.0
C1528 C 0.68262 0.79305 0.06472 0.0
C1529 C 0.67064 0.79609 0.07455 0.0
H1530 H 0.63643 0.76266 0.04851 0.0
C1531 C 0.65405 0.78526 0.06772 0.0
C1532 C 0.64938 0.77085 0.05287 0.0
H1533 H 0.64463 0.78743 0.07515 0.0
H1534 H 0.65686 0.69493 0.0351 0.0
H1535 H 0.66389 0.72391 0.03424 0.0
H1536 H 0.61234 0.70879 0.03473 0.0
H1537 H 0.60534 0.67984 0.03584 0.0
H1538 H 0.63257 0.7375 0.04713 0.0
H1539 H 0.66641 0.74855 0.02619 0.0
H1540 H 0.68739 0.77588 0.04423 0.0
H1541 H 0.69549 0.80119 0.07001 0.0
C1542 C 0.30042 0.94837 0.97266 0.0
C1543 C 0.31388 0.96038 0.98758 0.0
C1544 C 0.28571 0.93721 0.98345 0.0
C1545 C 0.2842 0.93787 0.00942 0.0
C1546 C 0.29764 0.94993 0.02425 0.0
C1547 C 0.31234 0.96099 0.01351 0.0
C1548 C 0.26884 0.92653 0.02185 0.0
C1549 C 0.25757 0.91122 0.01261 0.0
C1550 C 0.24378 0.89961 0.02773 0.0
C1551 C 0.23919 0.88271 0.02724 0.0
C1552 C 0.22854 0.8722 0.04477 0.0
C1553 C 0.22218 0.87844 0.06287 0.0
H1554 H 0.23893 0.91823 0.04435 0.0
C1555 C 0.22544 0.89491 0.0616 0.0
C1556 C 0.23613 0.9054 0.04419 0.0
H1557 H 0.22042 0.89993 0.07499 0.0
H1558 H 0.30117 0.94765 0.95259 0.0
H1559 H 0.27551 0.92835 0.97135 0.0
H1560 H 0.29679 0.95077 0.0443 0.0
H1561 H 0.32243 0.97014 0.02553 0.0
H1562 H 0.26747 0.93047 0.04048 0.0
H1563 H 0.25956 0.90638 -0.00481 0.0
H1564 H 0.24476 0.87791 0.01448 0.0
H1565 H 0.22628 0.85957 0.04532 0.0
C1566 C 0.36389 0.06437 0.99049 0.0
C1567 C 0.35535 0.0469 0.98757 0.0
C1568 C 0.35542 0.07315 0.98977 0.0
C1569 C 0.33821 0.06462 0.98598 0.0
C1570 C 0.32961 0.04714 0.98536 0.0
C1571 C 0.33807 0.03835 0.98633 0.0
C1572 C 0.32952 0.07323 0.97688 0.0
C1573 C 0.33583 0.08982 0.9791 0.0
C1574 C 0.33251 0.09871 0.95935 0.0
C1575 C 0.33206 0.11332 0.965 0.0
C1576 C 0.33149 0.123 0.94579 0.0
C1577 C 0.33201 0.11855 0.92058 0.0
H1578 H 0.33326 0.08305 0.92924 0.0
C1579 C 0.33226 0.10373 0.91526 0.0
C1580 C 0.33228 0.09389 0.93426 0.0
H1581 H 0.33341 0.10002 0.89647 0.0
H1582 H 0.37719 0.07133 0.99179 0.0
H1583 H 0.36258 0.0866 0.99001 0.0
H1584 H 0.31637 0.04025 0.98234 0.0
H1585 H 0.33108 0.02489 0.98423 0.0
H1586 H 0.31894 0.06599 0.96411 0.0
H1587 H 0.34545 0.09729 -0.00686 0.0
H1588 H 0.33246 0.11739 0.98425 0.0
H1589 H 0.3311 0.13416 0.9508 0.0
C1590 C 0.9534 0.29226 0.981 0.0
C1591 C 0.94968 0.30516 0.98082 0.0
C1592 C 0.94083 0.27562 0.98211 0.0
C1593 C 0.92429 0.27161 0.9833 0.0
C1594 C 0.92079 0.28463 0.98462 0.0
C1595 C 0.93328 0.30116 0.98341 0.0
C1596 C 0.91015 0.25429 0.97995 0.0
C1597 C 0.91108 0.24032 0.98197 0.0
C1598 C 0.89755 0.22364 0.97257 0.0
C1599 C 0.9016 0.21174 0.96404 0.0
C1600 C 0.89004 0.19746 0.95017 0.0
C1601 C 0.87424 0.19482 0.94479 0.0
H1602 H 0.8772 0.22833 0.97673 0.0
C1603 C 0.86965 0.2058 0.95531 0.0
C1604 C 0.88112 0.21996 0.96943 0.0
H1605 H 0.8575 0.20396 0.95128 0.0
H1606 H 0.96591 0.29493 0.97899 0.0
H1607 H 0.94411 0.26602 0.98065 0.0
H1608 H 0.90822 0.28199 0.98559 0.0
H1609 H 0.92996 0.31077 0.98365 0.0
H1610 H 0.89863 0.25324 0.97361 0.0
H1611 H 0.9226 0.24126 0.98804 0.0
H1612 H 0.91406 0.21409 0.96645 0.0
H1613 H 0.89386 0.18921 0.94193 0.0
C1614 C 0.68705 0.64959 0.00357 0.0
C1615 C 0.68724 0.65095 0.02971 0.0
C1616 C 0.7007 0.65118 0.99146 0.0
C1617 C 0.71504 0.65444 0.00519 0.0
C1618 C 0.71521 0.65575 0.03134 0.0
C1619 C 0.70149 0.65409 0.04349 0.0
C1620 C 0.72958 0.65561 -0.00719 0.0
C1621 C 0.73278 0.65992 0.96898 0.0
C1622 C 0.74564 0.65904 0.95465 0.0
C1623 C 0.74282 0.65603 0.92881 0.0
C1624 C 0.75447 0.65544 0.91403 0.0
C1625 C 0.76956 0.65831 0.92453 0.0
H1626 H 0.76311 0.66396 0.98544 0.0
C1627 C 0.77237 0.66105 0.95055 0.0
C1628 C 0.76048 0.6614 0.96556 0.0
H1629 H 0.78386 0.66329 0.95918 0.0
H1630 H 0.6762 0.64695 0.9924 0.0
H1631 H 0.69969 0.64936 0.97137 0.0
H1632 H 0.72598 0.65805 0.0424 0.0
H1633 H 0.70201 0.65512 0.06369 0.0
H1634 H 0.73754 0.65246 0.00343 0.0
H1635 H 0.72497 0.66338 0.95865 0.0
H1636 H 0.73145 0.65399 0.91996 0.0
H1637 H 0.75159 0.65273 0.89419 0.0
C1638 C 0.94557 0.65894 0.02033 0.0
C1639 C 0.95209 0.6501 0.00798 0.0
C1640 C 0.9316 0.65881 0.01051 0.0
C1641 C 0.92381 0.64983 0.98803 0.0
C1642 C 0.9304 0.6411 0.97561 0.0
C1643 C 0.94443 0.64131 0.98536 0.0
C1644 C 0.90852 0.64875 0.97741 0.0
C1645 C 0.90414 0.66035 0.98191 0.0
C1646 C 0.88957 0.65955 0.9691 0.0
C1647 C 0.89058 0.6743 0.96116 0.0
C1648 C 0.87798 0.6737 0.94602 0.0
C1649 C 0.86393 0.65837 0.93916 0.0
H1650 H 0.87369 0.63277 0.97007 0.0
C1651 C 0.86228 0.64375 0.94887 0.0
C1652 C 0.87502 0.64431 0.96363 0.0
H1653 H 0.85165 0.63177 0.94358 0.0
H1654 H 0.9511 0.66577 0.03788 0.0
H1655 H 0.92673 0.66538 0.02099 0.0
H1656 H 0.92462 0.63401 0.95831 0.0
H1657 H 0.94906 0.63429 0.97543 0.0
H1658 H 0.90109 0.63847 0.96409 0.0
H1659 H 0.91226 0.67156 -0.00684 0.0
H1660 H 0.90158 0.68621 0.96536 0.0
H1661 H 0.87958 0.68512 0.93852 0.0
C1662 C 0.34878 0.30399 0.98312 0.0
C1663 C 0.3654 0.31656 0.98339 0.0
C1664 C 0.34446 0.2872 0.98363 0.0
C1665 C 0.35671 0.28269 0.98454 0.0
C1666 C 0.37324 0.29534 0.98671 0.0
C1667 C 0.37755 0.31205 0.98596 0.0
C1668 C 0.35305 0.26517 0.98123 0.0
C1669 C 0.33993 0.2534 0.96756 0.0
C1670 C 0.33855 0.23769 0.95689 0.0
C1671 C 0.32384 0.22621 0.94391 0.0
C1672 C 0.32306 0.21338 0.92861 0.0
C1673 C 0.33701 0.21174 0.92592 0.0
H1674 H 0.36372 0.24349 0.96541 0.0
C1675 C 0.35125 0.22217 0.94069 0.0
C1676 C 0.35206 0.23505 0.95597 0.0
H1677 H 0.36225 0.22131 0.93886 0.0
H1678 H 0.33912 0.30707 0.98143 0.0
H1679 H 0.33155 0.27784 0.98278 0.0
H1680 H 0.38294 0.29228 0.98771 0.0
H1681 H 0.39048 0.32142 0.98663 0.0
H1682 H 0.3626 0.26269 0.98755 0.0
H1683 H 0.33048 0.25609 0.96135 0.0
H1684 H 0.31318 0.22779 0.94431 0.0
H1685 H 0.31185 0.2054 0.91761 0.0
C1686 C 0.69278 0.06043 0.01771 0.0
C1687 C 0.68303 0.04362 0.00958 0.0
C1688 C 0.70822 0.07045 0.00794 0.0
C1689 C 0.71424 0.06383 0.98987 0.0
C1690 C 0.70449 0.04704 0.98178 0.0
C1691 C 0.689 0.03707 0.99136 0.0
C1692 C 0.73075 0.07385 0.97951 0.0
C1693 C 0.7383 0.09048 0.97747 0.0
C1694 C 0.75384 0.09966 0.96426 0.0
C1695 C 0.75582 0.11225 0.94841 0.0
C1696 C 0.76923 0.11945 0.93301 0.0
C1697 C 0.7811 0.1145 0.93376 0.0
H1698 H 0.76524 0.08608 0.97865 0.0
C1699 C 0.77983 0.1029 0.95105 0.0
C1700 C 0.76626 0.09546 0.96611 0.0
H1701 H 0.78879 0.09882 0.95179 0.0
H1702 H 0.68859 0.06583 0.03185 0.0
H1703 H 0.71553 0.08322 0.01505 0.0
H1704 H 0.70885 0.0416 0.96795 0.0
H1705 H 0.68186 0.02415 0.98481 0.0
H1706 H 0.73632 0.06706 0.97149 0.0
H1707 H 0.73211 0.09721 0.983 0.0
H1708 H 0.7465 0.11581 0.94684 0.0
H1709 H 0.76996 0.12835 0.91973 0.0
C1710 C 0.65399 0.95838 0.02209 0.0
C1711 C 0.63709 0.95206 0.02487 0.0
C1712 C 0.66045 0.94768 0.02181 0.0
C1713 C 0.65018 0.93045 0.02402 0.0
C1714 C 0.63314 0.92407 0.02543 0.0
C1715 C 0.62671 0.93475 0.02578 0.0
C1716 C 0.65784 0.92 0.02845 0.0
C1717 C 0.64943 0.90319 0.0273 0.0
C1718 C 0.65565 0.89331 0.04002 0.0
C1719 C 0.64441 0.87923 0.05244 0.0
C1720 C 0.64996 0.87165 0.06909 0.0
C1721 C 0.66685 0.87777 0.07307 0.0
H1722 H 0.68147 0.90911 0.03257 0.0
C1723 C 0.67806 0.89079 0.05884 0.0
C1724 C 0.67251 0.89857 0.04244 0.0
H1725 H 0.69115 0.89574 0.06176 0.0
H1726 H 0.66235 0.97165 0.0213 0.0
H1727 H 0.67362 0.95298 0.02085 0.0
H1728 H 0.62471 0.911 0.02773 0.0
H1729 H 0.61361 0.92942 0.0278 0.0
H1730 H 0.67053 0.92652 0.03553 0.0
H1731 H 0.63675 0.89651 0.02028 0.0
H1732 H 0.63136 0.87485 0.05076 0.0
H1733 H 0.64114 0.86166 0.08 0.0
C1734 C 0.05649 0.69294 0.02248 0.0
C1735 C 0.03971 0.68764 0.02436 0.0
C1736 C 0.0682 0.70985 0.02269 0.0
C1737 C 0.06345 0.72198 0.02476 0.0
C1738 C 0.0466 0.71668 0.02542 0.0
C1739 C 0.03481 0.69967 0.025 0.0
C1740 C 0.07578 0.73995 0.02982 0.0
C1741 C 0.09172 0.74686 0.02404 0.0
C1742 C 0.10501 0.76297 0.03552 0.0
C1743 C 0.12091 0.76527 0.03819 0.0
C1744 C 0.13314 0.77867 0.05275 0.0
C1745 C 0.12979 0.79023 0.06477 0.0
H1746 H 0.09019 0.77441 0.04324 0.0
C1747 C 0.11433 0.7888 0.06017 0.0
C1748 C 0.10205 0.77532 0.04571 0.0
H1749 H 0.11148 0.79772 0.06869 0.0
H1750 H 0.06068 0.68399 0.02188 0.0
H1751 H 0.081 0.71323 0.02279 0.0
H1752 H 0.04258 0.72573 0.02724 0.0
H1753 H 0.02199 0.696 0.02658 0.0
H1754 H 0.07174 0.74716 0.04071 0.0
H1755 H 0.09557 0.73962 0.01279 0.0
H1756 H 0.12362 0.75606 0.03035 0.0
H1757 H 0.14484 0.77928 0.05596 0.0
C1758 C 0.30636 0.34754 0.01239 0.0
C1759 C 0.31567 0.36189 -0.00102 0.0
C1760 C 0.29119 0.34409 0.02151 0.0
C1761 C 0.28516 0.35504 0.01758 0.0
C1762 C 0.29466 0.36953 0.00471 0.0
C1763 C 0.30966 0.37284 -0.00474 0.0
C1764 C 0.26949 0.3522 0.02785 0.0
C1765 C 0.25647 0.33691 0.03048 0.0
C1766 C 0.24127 0.33398 0.04272 0.0
C1767 C 0.22661 0.3188 0.03777 0.0
C1768 C 0.21268 0.31471 0.05144 0.0
C1769 C 0.21327 0.32565 0.07055 0.0
H1770 H 0.25259 0.35698 0.06576 0.0
C1771 C 0.22763 0.34118 0.07466 0.0
C1772 C 0.2415 0.34532 0.06094 0.0
H1773 H 0.22841 0.34978 0.08943 0.0
H1774 H 0.3107 0.33889 0.01557 0.0
H1775 H 0.28437 0.33303 0.03199 0.0
H1776 H 0.2904 0.37827 0.00173 0.0
H1777 H 0.31658 0.38406 0.98514 0.0
H1778 H 0.26856 0.36313 0.03259 0.0
H1779 H 0.25691 0.32607 0.02339 0.0
H1780 H 0.22611 0.30981 0.02393 0.0
H1781 H 0.20183 0.30256 0.04816 0.0
C1782 C 0.72002 0.67604 0.32172 0.0
C1783 C 0.71008 0.67927 0.3373 0.0
C1784 C 0.7332 0.67477 0.33168 0.0
C1785 C 0.73668 0.67667 0.35761 0.0
C1786 C 0.72666 0.67989 0.3732 0.0
C1787 C 0.71346 0.68112 0.36321 0.0
C1788 C 0.75094 0.67606 0.36909 0.0
C1789 C 0.7586 0.6687 0.35806 0.0
C1790 C 0.77223 0.66767 0.37092 0.0
C1791 C 0.77388 0.6536 0.36643 0.0
C1792 C 0.78528 0.65137 0.38058 0.0
C1793 C 0.79536 0.6633 0.39929 0.0
H1794 H 0.78284 0.69156 0.39134 0.0
C1795 C 0.7947 0.67805 0.40217 0.0
C1796 C 0.78327 0.68022 0.38817 0.0
H1797 H 0.80253 0.6876 0.41613 0.0
H1798 H 0.71774 0.67473 0.30166 0.0
H1799 H 0.74081 0.67273 0.31891 0.0
H1800 H 0.72909 0.68151 0.39322 0.0
H1801 H 0.70607 0.68372 0.37574 0.0
H1802 H 0.75475 0.68123 0.38808 0.0
H1803 H 0.75397 0.66205 0.3401 0.0
H1804 H 0.76571 0.64387 0.35293 0.0
H1805 H 0.78545 0.63985 0.37799 0.0
C1806 C 0.31461 0.03342 0.35183 0.0
C1807 C 0.29805 0.02099 0.35343 0.0
C1808 C 0.31901 0.0502 0.35062 0.0
C1809 C 0.30688 0.0549 0.35096 0.0
C1810 C 0.29031 0.04232 0.35072 0.0
C1811 C 0.28594 0.02562 0.35204 0.0
C1812 C 0.31069 0.07254 0.35391 0.0
C1813 C 0.32556 0.0855 0.36119 0.0
C1814 C 0.32798 0.10166 0.37161 0.0
C1815 C 0.34388 0.11568 0.37297 0.0
C1816 C 0.34731 0.12996 0.38742 0.0
C1817 C 0.33493 0.13034 0.40102 0.0
H1818 H 0.30301 0.09211 0.38379 0.0
C1819 C 0.31881 0.11685 0.39826 0.0
C1820 C 0.31534 0.10266 0.38372 0.0
H1821 H 0.30911 0.11681 0.40881 0.0
H1822 H 0.32425 0.03027 0.35257 0.0
H1823 H 0.33192 0.05934 0.35009 0.0
H1824 H 0.28065 0.04545 0.35073 0.0
H1825 H 0.27303 0.01639 0.35286 0.0
H1826 H 0.30032 0.07459 0.35248 0.0
H1827 H 0.33626 0.08399 0.3618 0.0
H1828 H 0.35387 0.11525 0.36402 0.0
H1829 H 0.35989 0.14011 0.38955 0.0
C1830 C 0.97371 0.28965 0.34104 0.0
C1831 C 0.97489 0.30257 0.32662 0.0
C1832 C 0.95869 0.27806 0.35044 0.0
C1833 C 0.94448 0.27913 0.34562 0.0
C1834 C 0.94574 0.29226 0.3317 0.0
C1835 C 0.96075 0.30379 0.3221 0.0
C1836 C 0.92851 0.26732 0.35617 0.0
C1837 C 0.92419 0.25145 0.36057 0.0
C1838 C 0.9096 0.23988 0.37454 0.0
C1839 C 0.90543 0.2231 0.37505 0.0
C1840 C 0.89375 0.21235 0.39123 0.0
C1841 C 0.88598 0.21818 0.40735 0.0
H1842 H 0.9038 0.25821 0.38999 0.0
C1843 C 0.88926 0.23463 0.40561 0.0
C1844 C 0.90098 0.24541 0.38948 0.0
H1845 H 0.88335 0.23943 0.41766 0.0
H1846 H 0.98438 0.28841 0.345 0.0
H1847 H 0.95835 0.26848 0.36188 0.0
H1848 H 0.93504 0.29351 0.32805 0.0
H1849 H 0.96127 0.31366 0.31117 0.0
H1850 H 0.92019 0.27191 0.36014 0.0
H1851 H 0.93206 0.24674 0.35427 0.0
H1852 H 0.91183 0.21846 0.36378 0.0
H1853 H 0.89165 0.1998 0.39227 0.0
C1854 C 0.01678 0.37788 0.32447 0.0
C1855 C 0.0332 0.38226 0.32082 0.0
C1856 C 0.01235 0.39017 0.32663 0.0
C1857 C 0.02429 0.40713 0.32507 0.0
C1858 C 0.04084 0.41145 0.32356 0.0
C1859 C 0.04524 0.39921 0.32139 0.0
C1860 C 0.02019 0.42057 0.32185 0.0
C1861 C 0.00493 0.41788 0.31656 0.0
C1862 C 0.002 0.43013 0.30336 0.0
C1863 C 0.98781 0.42401 0.28774 0.0
C1864 C 0.98659 0.434 0.26981 0.0
C1865 C -0.00041 0.45031 0.26712 0.0
H1866 H 0.0246 0.45269 0.31567 0.0
C1867 C 0.01277 0.45712 0.28492 0.0
C1868 C 0.0139 0.44717 0.30304 0.0
H1869 H 0.02292 0.46971 0.28364 0.0
H1870 H 0.00721 0.36493 0.32455 0.0
H1871 H -0.00049 0.38615 0.32859 0.0
H1872 H 0.05038 0.42437 0.32263 0.0
H1873 H 0.05806 0.40308 0.31907 0.0
H1874 H 0.03062 0.43293 0.3199 0.0
H1875 H 0.99442 0.40548 0.31765 0.0
H1876 H 0.97823 0.41107 0.28794 0.0
H1877 H 0.97602 0.42855 0.25686 0.0
C1878 C 0.60262 0.63573 0.31577 0.0
C1879 C 0.61951 0.64144 0.31928 0.0
C1880 C 0.59098 0.61887 0.31747 0.0
C1881 C 0.59593 0.60723 0.32285 0.0
C1882 C 0.61277 0.61303 0.32718 0.0
C1883 C 0.62443 0.62994 0.32556 0.0
C1884 C 0.58421 0.58891 0.3211 0.0
C1885 C 0.56772 0.58191 0.32177 0.0
C1886 C 0.5562 0.56435 0.31305 0.0
C1887 C 0.54145 0.56066 0.30038 0.0
C1888 C 0.53199 0.54541 0.28715 0.0
C1889 C 0.53691 0.53344 0.28692 0.0
H1890 H 0.57128 0.55394 0.32497 0.0
C1891 C 0.55069 0.53638 0.30169 0.0
C1892 C 0.56028 0.55173 0.31471 0.0
H1893 H 0.55481 0.52738 0.30147 0.0
H1894 H 0.59834 0.6442 0.31094 0.0
H1895 H 0.57825 0.61505 0.31331 0.0
H1896 H 0.61699 0.60437 0.33115 0.0
H1897 H 0.63733 0.63387 0.32838 0.0
H1898 H 0.58946 0.58105 0.31708 0.0
H1899 H 0.56236 0.58966 0.32575 0.0
H1900 H 0.53793 0.57009 0.29898 0.0
H1901 H 0.52156 0.54348 0.27552 0.0
C1902 C 0.35732 0.98798 0.32947 0.0
C1903 C 0.35185 0.98097 0.35264 0.0
C1904 C 0.37209 0.99009 0.32052 0.0
C1905 C 0.38167 0.98519 0.33458 0.0
C1906 C 0.37613 0.97815 0.35765 0.0
C1907 C 0.36148 0.97618 0.36669 0.0
C1908 C 0.39683 0.98618 0.32502 0.0
C1909 C 0.40649 0.99756 0.30893 0.0
C1910 C 0.42061 0.9976 0.29682 0.0
C1911 C 0.43165 0.01182 0.28444 0.0
C1912 C 0.44338 0.01152 0.26926 0.0
C1913 C 0.44428 0.99694 0.26602 0.0
H1914 H 0.41394 0.972 0.30376 0.0
C1915 C 0.43409 0.98308 0.2798 0.0
C1916 C 0.42231 0.98336 0.29496 0.0
H1917 H 0.43433 0.97159 0.27736 0.0
H1918 H 0.35014 0.99172 0.31815 0.0
H1919 H 0.37569 0.99511 0.30229 0.0
H1920 H 0.38316 0.9741 0.36874 0.0
H1921 H 0.35761 0.97067 0.38458 0.0
H1922 H 0.40017 0.97735 0.33193 0.0
H1923 H 0.40382 0.00726 0.304 0.0
H1924 H 0.43071 0.02299 0.28555 0.0
H1925 H 0.45114 0.02241 0.25892 0.0
C1926 C 0.61685 0.98211 0.3194 0.0
C1927 C 0.61498 0.9661 0.31885 0.0
C1928 C 0.60389 0.98444 0.31145 0.0
C1929 C 0.58873 0.97077 0.3028 0.0
C1930 C 0.58711 0.95488 0.30148 0.0
C1931 C 0.60002 0.95255 0.30951 0.0
C1932 C 0.5745 0.97248 0.29421 0.0
C1933 C 0.57247 0.98547 0.3007 0.0
C1934 C 0.55866 0.98725 0.29031 0.0
C1935 C 0.56135 0.00326 0.2861 0.0
C1936 C 0.54939 0.00533 0.27342 0.0
C1937 C 0.53437 0.99141 0.2651 0.0
H1938 H 0.54043 0.96088 0.28741 0.0
C1939 C 0.53113 0.97546 0.27116 0.0
C1940 C 0.54316 0.97338 0.28363 0.0
H1941 H 0.51969 0.96451 0.26489 0.0
H1942 H 0.62825 0.99284 0.32637 0.0
H1943 H 0.60592 0.99699 0.31196 0.0
H1944 H 0.57568 0.94415 0.29458 0.0
H1945 H 0.59815 0.94005 0.30873 0.0
H1946 H 0.56531 0.96252 0.28188 0.0
H1947 H 0.58162 0.99564 0.31273 0.0
H1948 H 0.57307 0.01416 0.29141 0.0
H1949 H 0.55217 0.01777 0.26903 0.0
C1950 C 0.03845 0.6395 0.30479 0.0
C1951 C 0.02812 0.64639 0.30425 0.0
C1952 C 0.03188 0.6223 0.30536 0.0
C1953 C 0.01476 0.61153 0.30543 0.0
C1954 C 0.00447 0.61845 0.30591 0.0
C1955 C 0.01107 0.63571 0.30555 0.0
C1956 C 0.0073 0.5932 0.30134 0.0
C1957 C 0.01532 0.58494 0.30673 0.0
C1958 C 0.01043 0.56821 0.29539 0.0
C1959 C 0.02283 0.56434 0.29108 0.0
C1960 C 0.01961 0.55049 0.27588 0.0
C1961 C 0.00384 0.54009 0.26488 0.0
H1962 H 0.98423 0.55904 0.29028 0.0
C1963 C 0.99104 0.54299 0.27133 0.0
C1964 C 0.99428 0.5569 0.28646 0.0
H1965 H 0.97867 0.53496 0.26362 0.0
H1966 H 0.05164 0.64736 0.30388 0.0
H1967 H 0.04027 0.61756 0.30425 0.0
H1968 H 0.99124 0.61045 0.30571 0.0
H1969 H 0.00276 0.64061 0.30512 0.0
H1970 H 0.99545 0.58676 0.29133 0.0
H1971 H 0.02707 0.59147 0.31704 0.0
H1972 H 0.03534 0.57272 0.29795 0.0
H1973 H 0.0298 0.54871 0.27126 0.0
C1974 C 0.36117 0.38775 0.36204 0.0
C1975 C 0.34697 0.3764 0.34779 0.0
C1976 C 0.37531 0.39931 0.35043 0.0
C1977 C 0.37559 0.39971 0.32424 0.0
C1978 C 0.36131 0.38854 0.31005 0.0
C1979 C 0.34718 0.37696 0.32166 0.0
C1980 C 0.39035 0.4117 0.31099 0.0
C1981 C 0.40584 0.419 0.32088 0.0
C1982 C 0.42042 0.42971 0.30628 0.0
C1983 C 0.43525 0.42996 0.31142 0.0
C1984 C 0.44865 0.43847 0.29628 0.0
C1985 C 0.4475 0.44703 0.27585 0.0
H1986 H 0.40869 0.43992 0.28305 0.0
C1987 C 0.43306 0.44778 0.27185 0.0
C1988 C 0.41967 0.43923 0.28691 0.0
H1989 H 0.43195 0.45459 0.25659 0.0
H1990 H 0.36139 0.38776 0.38223 0.0
H1991 H 0.38585 0.40801 0.3621 0.0
H1992 H 0.36111 0.38864 0.28986 0.0
H1993 H 0.33643 0.36846 0.31013 0.0
H1994 H 0.38839 0.41365 0.29164 0.0
H1995 H 0.40811 0.41589 0.33934 0.0
H1996 H 0.43623 0.42291 0.32645 0.0
H1997 H 0.45957 0.43759 0.2998 0.0
C1998 C 0.31631 0.29376 0.35313 0.0
C1999 C 0.29943 0.28735 0.35636 0.0
C2000 C 0.32276 0.28308 0.35156 0.0
C2001 C 0.31252 0.26577 0.35292 0.0
C2002 C 0.29549 0.25933 0.35477 0.0
C2003 C 0.28907 0.26998 0.3564 0.0
C2004 C 0.32022 0.25524 0.35604 0.0
C2005 C 0.31182 0.23844 0.35431 0.0
C2006 C 0.31823 0.22841 0.36603 0.0
C2007 C 0.30722 0.21426 0.37856 0.0
C2008 C 0.31308 0.20662 0.39458 0.0
C2009 C 0.33002 0.21276 0.39776 0.0
H2010 H 0.34385 0.24424 0.35758 0.0
C2011 C 0.34094 0.22581 0.38331 0.0
C2012 C 0.3351 0.23364 0.36756 0.0
H2013 H 0.35407 0.23078 0.38565 0.0
H2014 H 0.32466 0.30707 0.35297 0.0
H2015 H 0.33592 0.28843 0.35029 0.0
H2016 H 0.28707 0.24618 0.35644 0.0
H2017 H 0.27599 0.26458 0.35872 0.0
H2018 H 0.333 0.26167 0.36272 0.0
H2019 H 0.29905 0.23183 0.34772 0.0
H2020 H 0.29417 0.20991 0.37756 0.0
H2021 H 0.30449 0.19662 0.4057 0.0
C2022 C 0.72459 0.0256 0.36254 0.0
C2023 C 0.70763 0.01986 0.36096 0.0
C2024 C 0.73603 0.04259 0.3624 0.0
C2025 C 0.7308 0.05434 0.36065 0.0
C2026 C 0.71386 0.04858 0.3582 0.0
C2027 C 0.70238 0.03151 0.35811 0.0
C2028 C 0.74252 0.07253 0.36469 0.0
C2029 C 0.75873 0.0797 0.36061 0.0
C2030 C 0.77121 0.0965 0.3712 0.0
C2031 C 0.78732 0.09974 0.37596 0.0
C2032 C 0.79867 0.11389 0.39022 0.0
C2033 C 0.79418 0.12522 0.39986 0.0
H2034 H 0.75522 0.10705 0.37455 0.0
C2035 C 0.77861 0.12285 0.39297 0.0
C2036 C 0.76724 0.10866 0.37875 0.0
H2037 H 0.77492 0.13156 0.39969 0.0
H2038 H 0.72908 0.01698 0.36469 0.0
H2039 H 0.74889 0.04642 0.36506 0.0
H2040 H 0.70948 0.05734 0.35708 0.0
H2041 H 0.68941 0.02752 0.35693 0.0
H2042 H 0.73767 0.0798 0.37323 0.0
H2043 H 0.76335 0.07231 0.35166 0.0
H2044 H 0.79082 0.09072 0.37012 0.0
H2045 H 0.81051 0.11526 0.39525 0.0
C2046 C 0.97618 0.70258 0.31624 0.0
C2047 C 0.98511 0.69488 0.32369 0.0
C2048 C 0.96088 0.69789 0.326 0.0
C2049 C 0.95417 0.68536 0.34342 0.0
C2050 C 0.96311 0.6777 0.35087 0.0
C2051 C 0.97847 0.68249 0.34129 0.0
C2052 C 0.93772 0.67959 0.35363 0.0
C2053 C 0.93096 0.68933 0.35626 0.0
C2054 C 0.91536 0.68361 0.36912 0.0
C2055 C 0.91391 0.6947 0.38573 0.0
C2056 C 0.90034 0.68902 0.40076 0.0
C2057 C 0.88781 0.67225 0.3989 0.0
H2058 H 0.90293 0.65836 0.35298 0.0
C2059 C 0.8886 0.66147 0.38084 0.0
C2060 C 0.90231 0.66708 0.36613 0.0
H2061 H 0.87913 0.64846 0.37921 0.0
H2062 H 0.98091 0.7121 0.30259 0.0
H2063 H 0.9542 0.70381 0.31937 0.0
H2064 H 0.95819 0.66797 0.36418 0.0
H2065 H 0.98497 0.67623 0.3473 0.0
H2066 H 0.93148 0.66719 0.36093 0.0
H2067 H 0.93781 0.7023 0.35149 0.0
H2068 H 0.92373 0.70753 0.38816 0.0
H2069 H 0.89998 0.69753 0.41464 0.0
C2070 C 0.38801 0.01267 0.65033 0.0
C2071 C 0.37724 0.01615 0.66352 0.0
C2072 C 0.3992 0.00941 0.66299 0.0
C2073 C 0.39997 0.0097 0.68924 0.0
C2074 C 0.38913 0.01311 0.70237 0.0
C2075 C 0.37792 0.01633 0.6897 0.0
C2076 C 0.41135 0.00592 0.70372 0.0
C2077 C 0.42452 0.00576 0.69443 0.0
C2078 C 0.4355 0.00193 0.70983 0.0
C2079 C 0.45205 0.00851 0.70378 0.0
C2080 C 0.46285 0.00595 0.71899 0.0
C2081 C 0.45722 0.99673 0.74045 0.0
H2082 H 0.41696 0.98583 0.73514 0.0
C2083 C 0.4405 0.98937 0.74566 0.0
C2084 C 0.42975 0.99182 0.73048 0.0
H2085 H 0.4358 0.98191 0.76185 0.0
H2086 H 0.38775 0.01232 0.63012 0.0
H2087 H 0.40695 0.00642 0.65201 0.0
H2088 H 0.38932 0.0133 0.72258 0.0
H2089 H 0.3698 0.01894 0.70044 0.0
H2090 H 0.40898 0.00373 0.72336 0.0
H2091 H 0.42798 0.00938 0.67549 0.0
H2092 H 0.45675 0.01609 0.68772 0.0
H2093 H 0.47568 0.0117 0.71458 0.0
C2094 C 0.978 0.36509 0.70162 0.0
C2095 C 0.96165 0.35294 0.70578 0.0
C2096 C 0.98268 0.382 0.70163 0.0
C2097 C 0.97105 0.38708 0.70564 0.0
C2098 C 0.95462 0.37484 0.70857 0.0
C2099 C 0.94996 0.35802 0.70858 0.0
C2100 C 0.97567 0.40484 0.71005 0.0
C2101 C 0.9899 0.41804 0.7035 0.0
C2102 C 0.99551 0.43537 0.71319 0.0
C2103 C 0.01248 0.44673 0.71585 0.0
C2104 C 0.01838 0.4618 0.72961 0.0
C2105 C 0.00738 0.4658 0.74076 0.0
H2106 H 0.97138 0.43237 0.71948 0.0
C2107 C 0.99045 0.45529 0.7361 0.0
C2108 C 0.98454 0.44031 0.72213 0.0
H2109 H 0.98178 0.45816 0.74465 0.0
H2110 H 0.98733 0.36162 0.69944 0.0
H2111 H 0.99554 0.39099 0.69978 0.0
H2112 H 0.94539 0.37834 0.71173 0.0
H2113 H 0.93722 0.34905 0.7116 0.0
H2114 H 0.96717 0.40691 0.72078 0.0
H2115 H -0.0015 0.41602 0.69292 0.0
H2116 H 0.02123 0.4434 0.70889 0.0
H2117 H 0.0315 0.46966 0.73329 0.0
C2118 C 0.64585 0.62304 0.67355 0.0
C2119 C 0.64634 0.63557 0.65888 0.0
C2120 C 0.63103 0.61092 0.68286 0.0
C2121 C 0.61636 0.61106 0.67767 0.0
C2122 C 0.61692 0.62374 0.66338 0.0
C2123 C 0.63172 0.63579 0.65391 0.0
C2124 C 0.60056 0.59882 0.68825 0.0
C2125 C 0.59701 0.58332 0.69368 0.0
C2126 C 0.58249 0.57157 0.70763 0.0
C2127 C 0.57892 0.55501 0.70894 0.0
C2128 C 0.56729 0.54425 0.72518 0.0
C2129 C 0.559 0.54986 0.74056 0.0
H2130 H 0.57569 0.58947 0.72172 0.0
C2131 C 0.56168 0.56604 0.73799 0.0
C2132 C 0.57334 0.57682 0.7218 0.0
H2133 H 0.55536 0.57066 0.74947 0.0
H2134 H 0.65691 0.62257 0.67784 0.0
H2135 H 0.63121 0.6017 0.69455 0.0
H2136 H 0.60585 0.62428 0.65942 0.0
H2137 H 0.63169 0.64533 0.64277 0.0
H2138 H 0.59167 0.60281 0.69136 0.0
H2139 H 0.60542 0.57908 0.68826 0.0
H2140 H 0.58575 0.55059 0.69828 0.0
H2141 H 0.56564 0.53191 0.72689 0.0
C2142 C 0.68348 0.71091 0.66323 0.0
C2143 C 0.70021 0.71647 0.65999 0.0
C2144 C 0.6781 0.72237 0.6671 0.0
C2145 C 0.6894 0.73962 0.66771 0.0
C2146 C 0.70623 0.745 0.6669 0.0
C2147 C 0.71158 0.73359 0.66297 0.0
C2148 C 0.68438 0.75245 0.66596 0.0
C2149 C 0.66966 0.74918 0.65619 0.0
C2150 C 0.66707 0.76183 0.64346 0.0
C2151 C 0.65371 0.75606 0.62617 0.0
C2152 C 0.65317 0.76663 0.60863 0.0
C2153 C 0.66605 0.7832 0.60794 0.0
H2154 H 0.68876 0.78431 0.65879 0.0
C2155 C 0.67828 0.78953 0.62725 0.0
C2156 C 0.67871 0.77901 0.645 0.0
H2157 H 0.6883 0.80228 0.62755 0.0
H2158 H 0.67441 0.69777 0.66151 0.0
H2159 H 0.66508 0.71762 0.66867 0.0
H2160 H 0.71527 0.75817 0.66767 0.0
H2161 H 0.7246 0.73831 0.66109 0.0
H2162 H 0.69425 0.76525 0.66852 0.0
H2163 H 0.65997 0.73633 0.65308 0.0
H2164 H 0.64431 0.74302 0.62485 0.0
H2165 H 0.64327 0.76149 0.5945 0.0
C2166 C 0.27198 0.97306 0.63809 0.0
C2167 C 0.2889 0.97868 0.64036 0.0
C2168 C 0.26039 0.95616 0.63908 0.0
C2169 C 0.26542 0.94436 0.64247 0.0
C2170 C 0.28232 0.95003 0.64556 0.0
C2171 C 0.29394 0.96701 0.64473 0.0
C2172 C 0.25359 0.92612 0.63959 0.0
C2173 C 0.23727 0.91926 0.64241 0.0
C2174 C 0.22507 0.90228 0.63222 0.0
C2175 C 0.20985 0.89958 0.62275 0.0
C2176 C 0.19932 0.88511 0.60847 0.0
C2177 C 0.20364 0.87287 0.60392 0.0
H2178 H 0.24012 0.8908 0.63717 0.0
C2179 C 0.21806 0.87475 0.61543 0.0
C2180 C 0.22874 0.88937 0.62946 0.0
H2181 H 0.22167 0.86549 0.612 0.0
H2182 H 0.26762 0.98168 0.63476 0.0
H2183 H 0.2476 0.95242 0.63585 0.0
H2184 H 0.28657 0.94123 0.64793 0.0
H2185 H 0.30687 0.9709 0.64651 0.0
H2186 H 0.25845 0.91839 0.63278 0.0
H2187 H 0.23245 0.92697 0.64939 0.0
H2188 H 0.20663 0.90924 0.62479 0.0
H2189 H 0.1883 0.88394 0.59962 0.0
C2190 C 0.03227 0.33264 0.69607 0.0
C2191 C 0.01639 0.32214 0.68544 0.0
C2192 C 0.046 0.33321 0.6855 0.0
C2193 C 0.04413 0.32323 0.66406 0.0
C2194 C 0.02828 0.3129 0.65331 0.0
C2195 C 0.01459 0.31243 0.66374 0.0
C2196 C 0.05819 0.32268 0.65294 0.0
C2197 C 0.07388 0.33531 0.65503 0.0
C2198 C 0.08715 0.33464 0.6415 0.0
C2199 C 0.09895 0.34889 0.63004 0.0
C2200 C 0.11002 0.34792 0.61407 0.0
C2201 C 0.10973 0.33277 0.60983 0.0
H2202 H 0.07895 0.3087 0.64782 0.0
C2203 C 0.09888 0.31889 0.62302 0.0
C2204 C 0.08763 0.31978 0.63865 0.0
H2205 H 0.09833 0.30703 0.61993 0.0
H2206 H 0.03409 0.34022 0.71287 0.0
H2207 H 0.05795 0.34107 0.69465 0.0
H2208 H 0.02647 0.30505 0.63683 0.0
H2209 H 0.00254 0.30414 0.65513 0.0
H2210 H 0.05531 0.31176 0.64115 0.0
H2211 H 0.07678 0.347 0.66456 0.0
H2212 H 0.09895 0.36053 0.63219 0.0
H2213 H 0.11826 0.35878 0.60405 0.0
C2214 C 0.27827 0.31954 0.68071 0.0
C2215 C 0.2914 0.32177 0.66609 0.0
C2216 C 0.26604 0.32243 0.67116 0.0
C2217 C 0.26659 0.3276 0.64665 0.0
C2218 C 0.27984 0.3301 0.63215 0.0
C2219 C 0.29208 0.32712 0.64169 0.0
C2220 C 0.2538 0.33089 0.63591 0.0
C2221 C 0.2382 0.32349 0.64349 0.0
C2222 C 0.22534 0.32613 0.63147 0.0
C2223 C 0.20902 0.31294 0.62962 0.0
C2224 C 0.19696 0.3145 0.61619 0.0
C2225 C 0.20097 0.32941 0.60466 0.0
H2226 H 0.24143 0.35204 0.6234 0.0
C2227 C 0.21704 0.34304 0.6083 0.0
C2228 C 0.22911 0.34141 0.62145 0.0
H2229 H 0.22044 0.35483 0.60016 0.0
H2230 H 0.27741 0.31556 0.69967 0.0
H2231 H 0.25635 0.32087 0.68323 0.0
H2232 H 0.28066 0.33423 0.61328 0.0
H2233 H 0.30207 0.32905 0.63 0.0
H2234 H 0.25713 0.33892 0.62018 0.0
H2235 H 0.23431 0.31415 0.65744 0.0
H2236 H 0.20574 0.30111 0.63751 0.0
H2237 H 0.18477 0.30371 0.61365 0.0
C2238 C 0.68016 0.96758 0.64181 0.0
C2239 C 0.69668 0.98036 0.64184 0.0
C2240 C 0.67616 0.95093 0.64348 0.0
C2241 C 0.68866 0.94678 0.64547 0.0
C2242 C 0.70509 0.95974 0.6472 0.0
C2243 C 0.70906 0.97627 0.64534 0.0
C2244 C 0.68558 0.9294 0.6428 0.0
C2245 C 0.67064 0.91549 0.64095 0.0
C2246 C 0.66834 0.89925 0.63112 0.0
C2247 C 0.65375 0.88834 0.61742 0.0
C2248 C 0.65258 0.87499 0.60297 0.0
C2249 C 0.66601 0.8723 0.60191 0.0
H2250 H 0.69204 0.90281 0.64396 0.0
C2251 C 0.67984 0.88201 0.61795 0.0
C2252 C 0.68094 0.89526 0.63258 0.0
H2253 H 0.69037 0.88024 0.61783 0.0
H2254 H 0.67034 0.97035 0.6392 0.0
H2255 H 0.66332 0.94147 0.64204 0.0
H2256 H 0.71501 0.95704 0.64889 0.0
H2257 H 0.72192 0.98582 0.64583 0.0
H2258 H 0.69637 0.92831 0.6397 0.0
H2259 H 0.65967 0.91632 0.64339 0.0
H2260 H 0.64368 0.89084 0.61639 0.0
H2261 H 0.64157 0.86746 0.59132 0.0
C2262 C 0.03306 0.72141 0.68717 0.0
C2263 C 0.01904 0.70958 0.67304 0.0
C2264 C 0.04683 0.7335 0.67544 0.0
C2265 C 0.04689 0.73396 0.64925 0.0
C2266 C 0.03283 0.72219 0.63519 0.0
C2267 C 0.01908 0.71009 0.64691 0.0
C2268 C 0.06112 0.74669 0.63589 0.0
C2269 C 0.07669 0.75503 0.64553 0.0
C2270 C 0.09068 0.76652 0.63057 0.0
C2271 C 0.106 0.76756 0.63424 0.0
C2272 C 0.1187 0.7765 0.61813 0.0
C2273 C 0.11632 0.78469 0.59822 0.0
H2274 H 0.07739 0.77594 0.6093 0.0
C2275 C 0.10148 0.78484 0.59595 0.0
C2276 C 0.08879 0.77587 0.61196 0.0
H2277 H 0.09944 0.79135 0.5811 0.0
H2278 H 0.03339 0.72146 0.70736 0.0
H2279 H 0.05721 0.74259 0.68702 0.0
H2280 H 0.03249 0.72231 0.61499 0.0
H2281 H 0.00846 0.70121 0.63548 0.0
H2282 H 0.05876 0.74845 0.61661 0.0
H2283 H 0.07955 0.75223 0.66385 0.0
H2284 H 0.10784 0.76067 0.64871 0.0
H2285 H 0.12999 0.77612 0.62031 0.0
C2286 C 0.96125 0.60305 0.69164 0.0
C2287 C 0.97159 0.62024 0.68916 0.0
C2288 C 0.96766 0.59236 0.69217 0.0
C2289 C 0.98464 0.5986 0.6901 0.0
C2290 C 0.99482 0.61565 0.68622 0.0
C2291 C 0.98838 0.62636 0.68564 0.0
C2292 C 0.99243 0.58835 0.69532 0.0
C2293 C 0.98401 0.57161 0.69648 0.0
C2294 C 0.99088 0.56242 0.70953 0.0
C2295 C 0.98039 0.54915 0.72405 0.0
C2296 C 0.98678 0.54218 0.74042 0.0
C2297 C 0.00373 0.54808 0.74206 0.0
H2298 H 0.01607 0.57741 0.6984 0.0
C2299 C 0.01408 0.56031 0.72598 0.0
C2300 C 0.00772 0.5675 0.70986 0.0
H2301 H 0.02721 0.56506 0.72705 0.0
H2302 H 0.94823 0.59787 0.69425 0.0
H2303 H 0.95927 0.57946 0.69565 0.0
H2304 H 0.00795 0.62086 0.68467 0.0
H2305 H 0.99671 0.63953 0.68364 0.0
H2306 H 0.0054 0.59513 0.70096 0.0
H2307 H 0.97105 0.56463 0.691 0.0
H2308 H 0.96736 0.54492 0.72401 0.0
H2309 H 0.97861 0.53277 0.75273 0.0
C2310 C 0.38034 0.37373 0.68272 0.0
C2311 C 0.38368 0.36057 0.68172 0.0
C2312 C 0.39322 0.39029 0.68261 0.0
C2313 C 0.40963 0.39393 0.68124 0.0
C2314 C 0.41272 0.3807 0.67833 0.0
C2315 C 0.39995 0.36424 0.67881 0.0
C2316 C 0.424 0.41108 0.68475 0.0
C2317 C 0.42381 0.42304 0.69937 0.0
C2318 C 0.43888 0.43817 0.70994 0.0
C2319 C 0.43701 0.45043 0.72294 0.0
C2320 C 0.44992 0.46283 0.73796 0.0
C2321 C 0.46502 0.46324 0.74041 0.0
H2322 H 0.45664 0.43034 0.70138 0.0
C2323 C 0.46742 0.45194 0.72572 0.0
C2324 C 0.4545 0.4395 0.71071 0.0
H2325 H 0.47884 0.45179 0.72741 0.0
H2326 H 0.3679 0.37127 0.68477 0.0
H2327 H 0.39029 0.40016 0.6841 0.0
H2328 H 0.42519 0.3831 0.67699 0.0
H2329 H 0.40292 0.35438 0.67761 0.0
H2330 H 0.43552 0.41306 0.67769 0.0
H2331 H 0.41219 0.42092 0.70627 0.0
H2332 H 0.4252 0.44983 0.72269 0.0
H2333 H 0.44775 0.47149 0.7489 0.0
C2334 C 0.6417 0.02 0.67097 0.0
C2335 C 0.6412 0.00843 0.65298 0.0
C2336 C 0.62718 0.01819 0.68036 0.0
C2337 C 0.61182 0.00473 0.67198 0.0
C2338 C 0.61136 0.99298 0.65447 0.0
C2339 C 0.62587 0.99487 0.6449 0.0
C2340 C 0.59617 0.00204 0.68223 0.0
C2341 C 0.59403 0.01454 0.69105 0.0
C2342 C 0.57926 0.01174 0.70448 0.0
C2343 C 0.58096 0.02386 0.72243 0.0
C2344 C 0.56819 0.02071 0.73817 0.0
C2345 C 0.55336 0.00544 0.73606 0.0
H2346 H 0.56186 0.98767 0.68665 0.0
C2347 C 0.55108 0.99392 0.71664 0.0
C2348 C 0.5639 0.99704 0.70095 0.0
H2349 H 0.53977 0.98205 0.71458 0.0
H2350 H 0.65332 0.03055 0.67766 0.0
H2351 H 0.62808 0.02718 0.69451 0.0
H2352 H 0.59972 0.98236 0.648 0.0
H2353 H 0.62505 0.98569 0.63114 0.0
H2354 H 0.58628 0.98923 0.68288 0.0
H2355 H 0.60399 0.02731 0.69019 0.0
H2356 H 0.59254 0.03542 0.72528 0.0
H2357 H 0.57021 0.02987 0.75286 0.0
loop_
_geom_bond_atom_site_label_1
_geom_bond_atom_site_label_2
_geom_bond_distance
_geom_bond_site_symmetry_2
_ccdc_geom_bond_type
Mg0 O1 2.028 1_556 S
Mg0 O7 1.986 1_455 S
Mg0 O9 2.114 . S
Mg0 O10 2.251 1_455 S
Mg0 O13 2.010 1_556 S
O1 Mg0 2.028 1_554 S
O1 C4 1.250 1_455 S
O2 Mg3 2.028 1_554 S
O2 C4 1.248 . S
Mg3 O2 2.028 1_556 S
Mg3 O8 2.032 . S
Mg3 O10 2.079 . S
C4 O1 1.250 1_655 S
C4 O2 1.248 . S
C5 O6 1.242 1_554 S
C5 O13 1.249 . S
O6 C5 1.242 1_556 S
O7 Mg0 1.986 1_655 S
O7 C11 1.246 . S
O8 Mg3 2.032 . S
O8 C11 1.259 . S
O9 Mg0 2.114 . S
O9 C12 1.252 . S
O10 Mg0 2.251 1_655 S
O10 Mg3 2.079 . S
O10 C12 1.273 1_655 S
C11 O7 1.246 . S
C11 O8 1.259 . S
C12 O9 1.252 . S
C12 O10 1.273 1_455 S
O13 Mg0 2.010 1_554 S
O13 C5 1.249 . S
Mg14 O15 2.028 1_554 S
Mg14 O21 1.986 . S
Mg14 O23 2.114 . S
Mg14 O24 2.251 . S
Mg14 O27 2.010 . S
O15 Mg14 2.028 1_556 S
O15 C18 1.250 . S
O16 Mg17 2.028 1_556 S
O16 C18 1.248 . S
Mg17 O16 2.028 1_554 S
Mg17 O22 2.032 . S
Mg17 O24 2.079 . S
C18 O15 1.250 . S
C18 O16 1.248 . S
C19 O20 1.264 . S
C19 O27 1.249 . S
O20 C19 1.264 . S
O21 Mg14 1.986 . S
O21 C25 1.246 . S
O22 Mg17 2.032 . S
O22 C25 1.259 . S
O23 Mg14 2.114 . S
O23 C26 1.252 . S
O24 Mg14 2.251 . S
O24 Mg17 2.079 . S
O24 C26 1.273 . S
C25 O21 1.246 . S
C25 O22 1.259 . S
C26 O23 1.252 . S
C26 O24 1.273 . S
O27 Mg14 2.010 . S
O27 C19 1.249 . S
Mg28 O29 2.021 1_556 S
Mg28 O35 1.984 1_566 S
Mg28 O37 2.114 . S
Mg28 O38 2.251 1_565 S
Mg28 O41 2.010 1_556 S
O29 Mg28 2.021 1_554 S
O29 C32 1.243 1_565 S
O30 Mg31 2.028 1_554 S
O30 C32 1.248 . S
Mg31 O30 2.028 1_556 S
Mg31 O36 2.032 . S
Mg31 O38 2.079 . S
C32 O29 1.243 1_545 S
C32 O30 1.248 . S
C33 O34 1.264 1_554 S
C33 O41 1.249 . S
O34 C33 1.264 1_556 S
O35 Mg28 1.984 1_544 S
O35 C39 1.242 1_554 S
O36 Mg31 2.032 . S
O36 C39 1.259 . S
O37 Mg28 2.114 . S
O37 C40 1.252 . S
O38 Mg28 2.251 1_545 S
O38 Mg31 2.079 . S
O38 C40 1.273 1_545 S
C39 O35 1.242 1_556 S
C39 O36 1.259 . S
C40 O37 1.252 . S
C40 O38 1.273 1_565 S
O41 Mg28 2.010 1_554 S
O41 C33 1.249 . S
Mg42 O43 2.028 1_554 S
Mg42 O49 1.986 1_655 S
Mg42 O51 2.114 . S
Mg42 O52 2.251 1_655 S
Mg42 O55 2.010 . S
O43 Mg42 2.028 1_556 S
O43 C46 1.250 1_655 S
O44 Mg45 2.028 1_556 S
O44 C46 1.248 . S
Mg45 O44 2.028 1_554 S
Mg45 O50 2.032 . S
Mg45 O52 2.079 . S
C46 O43 1.250 1_455 S
C46 O44 1.248 . S
C47 O48 1.264 . S
C47 O55 1.249 . S
O48 C47 1.264 . S
O49 Mg42 1.986 1_455 S
O49 C53 1.246 . S
O50 Mg45 2.032 . S
O50 C53 1.259 . S
O51 Mg42 2.114 . S
O51 C54 1.252 . S
O52 Mg42 2.251 1_455 S
O52 Mg45 2.079 . S
O52 C54 1.273 1_455 S
C53 O49 1.246 . S
C53 O50 1.259 . S
C54 O51 1.252 . S
C54 O52 1.273 1_655 S
O55 Mg42 2.010 . S
O55 C47 1.249 . S
Mg56 O57 2.028 1_556 S
Mg56 O63 1.989 . S
Mg56 O65 2.114 . S
Mg56 O66 2.251 . S
Mg56 O69 2.010 1_556 S
O57 Mg56 2.028 1_554 S
O57 C60 1.250 . S
O58 Mg59 2.028 1_554 S
O58 C60 1.248 . S
Mg59 O58 2.028 1_556 S
Mg59 O64 2.032 . S
Mg59 O66 2.079 . S
C60 O57 1.250 . S
C60 O58 1.248 . S
C61 O62 1.264 . S
C61 O69 1.249 . S
O62 C61 1.264 . S
O63 Mg56 1.989 . S
O63 C67 1.252 . S
O64 Mg59 2.032 . S
O64 C67 1.259 . S
O65 Mg56 2.114 . S
O65 C68 1.252 . S
O66 Mg56 2.251 . S
O66 Mg59 2.079 . S
O66 C68 1.273 . S
C67 O63 1.252 . S
C67 O64 1.259 . S
C68 O65 1.252 . S
C68 O66 1.273 . S
O69 Mg56 2.010 1_554 S
O69 C61 1.249 . S
Mg70 O71 2.028 1_554 S
Mg70 O77 1.986 1_545 S
Mg70 O79 2.114 . S
Mg70 O80 2.251 1_545 S
Mg70 O83 2.010 . S
O71 Mg70 2.028 1_556 S
O71 C74 1.250 1_545 S
O72 Mg73 2.028 1_556 S
O72 C74 1.248 . S
Mg73 O72 2.028 1_554 S
Mg73 O78 2.032 . S
Mg73 O80 2.079 . S
C74 O71 1.250 1_565 S
C74 O72 1.248 . S
C75 O76 1.264 . S
C75 O83 1.249 . S
O76 C75 1.264 . S
O77 Mg70 1.986 1_565 S
O77 C81 1.246 . S
O78 Mg73 2.032 . S
O78 C81 1.259 . S
O79 Mg70 2.114 . S
O79 C82 1.252 . S
O80 Mg70 2.251 1_565 S
O80 Mg73 2.079 . S
O80 C82 1.273 1_565 S
C81 O77 1.246 . S
C81 O78 1.259 . S
C82 O79 1.252 . S
C82 O80 1.273 1_545 S
O83 Mg70 2.010 . S
O83 C75 1.249 . S
Mg84 O85 2.028 . S
Mg84 O91 1.986 . S
Mg84 O93 2.114 . S
Mg84 O94 2.251 . S
Mg84 O97 2.010 . S
O85 Mg84 2.028 . S
O85 C88 1.250 . S
O86 Mg87 2.028 . S
O86 C88 1.248 . S
Mg87 O86 2.028 . S
Mg87 O92 2.032 . S
Mg87 O94 2.079 . S
C88 O85 1.250 . S
C88 O86 1.248 . S
C89 O90 1.264 . S
C89 O97 1.249 . S
O90 C89 1.264 . S
O91 Mg84 1.986 . S
O91 C95 1.246 . S
O92 Mg87 2.032 . S
O92 C95 1.259 . S
O93 Mg84 2.114 . S
O93 C96 1.252 . S
O94 Mg84 2.251 . S
O94 Mg87 2.079 . S
O94 C96 1.273 . S
C95 O91 1.246 . S
C95 O92 1.259 . S
C96 O93 1.252 . S
C96 O94 1.273 . S
O97 Mg84 2.010 . S
O97 C89 1.249 . S
Mg98 O99 2.028 . S
Mg98 O105 1.986 1_565 S
Mg98 O107 2.114 . S
Mg98 O108 2.251 . S
Mg98 O111 2.010 . S
O99 Mg98 2.028 . S
O99 C102 1.250 . S
O100 Mg101 2.028 . S
O100 C102 1.248 . S
Mg101 O100 2.028 . S
Mg101 O106 2.032 1_565 S
Mg101 O108 2.079 . S
C102 O99 1.250 . S
C102 O100 1.248 . S
C103 O104 1.264 . S
C103 O111 1.249 . S
O104 C103 1.264 . S
O105 Mg98 1.986 1_545 S
O105 C109 1.246 . S
O106 Mg101 2.032 1_545 S
O106 C109 1.259 . S
O107 Mg98 2.114 . S
O107 C110 1.252 . S
O108 Mg98 2.251 . S
O108 Mg101 2.079 . S
O108 C110 1.273 . S
C109 O105 1.246 . S
C109 O106 1.259 . S
C110 O107 1.252 . S
C110 O108 1.273 . S
O111 Mg98 2.010 . S
O111 C103 1.249 . S
Mg112 O113 2.028 . S
Mg112 O119 1.986 . S
Mg112 O121 2.114 . S
Mg112 O122 2.251 . S
Mg112 O125 2.010 1_455 S
O113 Mg112 2.028 . S
O113 C116 1.250 . S
O114 Mg115 2.028 . S
O114 C116 1.248 . S
Mg115 O114 2.028 . S
Mg115 O120 2.032 . S
Mg115 O122 2.079 . S
C116 O113 1.250 . S
C116 O114 1.248 . S
C117 O118 1.264 . S
C117 O125 1.249 . S
O118 C117 1.264 . S
O119 Mg112 1.986 . S
O119 C123 1.246 . S
O120 Mg115 2.032 . S
O120 C123 1.259 . S
O121 Mg112 2.114 . S
O121 C124 1.252 . S
O122 Mg112 2.251 . S
O122 Mg115 2.079 . S
O122 C124 1.273 . S
C123 O119 1.246 . S
C123 O120 1.259 . S
C124 O121 1.252 . S
C124 O122 1.273 . S
O125 Mg112 2.010 1_655 S
O125 C117 1.249 . S
Mg126 O127 2.028 . S
Mg126 O133 1.986 1_565 S
Mg126 O135 2.114 . S
Mg126 O136 2.251 . S
Mg126 O139 2.010 . S
O127 Mg126 2.028 . S
O127 C130 1.250 . S
O128 Mg129 2.028 . S
O128 C130 1.248 . S
Mg129 O128 2.028 . S
Mg129 O134 2.032 1_565 S
Mg129 O136 2.079 . S
C130 O127 1.250 . S
C130 O128 1.248 . S
C131 O132 1.264 . S
C131 O139 1.249 . S
O132 C131 1.264 . S
O133 Mg126 1.986 1_545 S
O133 C137 1.246 . S
O134 Mg129 2.032 1_545 S
O134 C137 1.259 . S
O135 Mg126 2.114 . S
O135 C138 1.252 . S
O136 Mg126 2.251 . S
O136 Mg129 2.079 . S
O136 C138 1.273 . S
C137 O133 1.246 . S
C137 O134 1.259 . S
C138 O135 1.252 . S
C138 O136 1.273 . S
O139 Mg126 2.010 . S
O139 C131 1.249 . S
Mg140 O141 2.028 . S
Mg140 O147 1.986 . S
Mg140 O149 2.114 . S
Mg140 O150 2.251 . S
Mg140 O153 2.010 1_455 S
O141 Mg140 2.028 . S
O141 C144 1.250 . S
O142 Mg143 2.028 . S
O142 C144 1.248 . S
Mg143 O142 2.028 . S
Mg143 O148 2.032 . S
Mg143 O150 2.079 . S
C144 O141 1.250 . S
C144 O142 1.248 . S
C145 O146 1.264 . S
C145 O153 1.249 . S
O146 C145 1.264 . S
O147 Mg140 1.986 . S
O147 C151 1.246 . S
O148 Mg143 2.032 . S
O148 C151 1.259 . S
O149 Mg140 2.114 . S
O149 C152 1.252 . S
O150 Mg140 2.251 . S
O150 Mg143 2.079 . S
O150 C152 1.273 . S
C151 O147 1.246 . S
C151 O148 1.259 . S
C152 O149 1.252 . S
C152 O150 1.273 . S
O153 Mg140 2.010 1_655 S
O153 C145 1.249 . S
Mg154 O155 2.028 . S
Mg154 O161 1.986 . S
Mg154 O163 2.114 . S
Mg154 O164 2.251 . S
Mg154 O167 2.010 . S
O155 Mg154 2.028 . S
O155 C158 1.250 . S
O156 Mg157 2.028 . S
O156 C158 1.248 . S
Mg157 O156 2.028 . S
Mg157 O162 2.032 . S
Mg157 O164 2.079 . S
C158 O155 1.250 . S
C158 O156 1.248 . S
C159 O160 1.264 . S
C159 O167 1.249 . S
O160 C159 1.264 . S
O161 Mg154 1.986 . S
O161 C165 1.246 . S
O162 Mg157 2.032 . S
O162 C165 1.259 . S
O163 Mg154 2.114 . S
O163 C166 1.252 . S
O164 Mg154 2.251 . S
O164 Mg157 2.079 . S
O164 C166 1.273 . S
C165 O161 1.246 . S
C165 O162 1.259 . S
C166 O163 1.252 . S
C166 O164 1.273 . S
O167 Mg154 2.010 . S
O167 C159 1.249 . S
Mg168 O169 2.028 . S
Mg168 O175 1.986 1_545 S
Mg168 O177 2.114 . S
Mg168 O178 2.251 . S
Mg168 O181 2.010 . S
O169 Mg168 2.028 . S
O169 C172 1.250 . S
O170 Mg171 2.028 . S
O170 C172 1.248 . S
Mg171 O170 2.028 . S
Mg171 O176 2.042 . S
Mg171 O178 2.079 . S
C172 O169 1.250 . S
C172 O170 1.248 . S
C173 O174 1.264 . S
C173 O181 1.249 . S
O174 C173 1.264 . S
O175 Mg168 1.986 1_565 S
O175 C179 1.246 . S
O176 Mg171 2.042 . S
O176 C179 1.250 1_545 S
O177 Mg168 2.114 . S
O177 C180 1.252 . S
O178 Mg168 2.251 . S
O178 Mg171 2.079 . S
O178 C180 1.273 . S
C179 O175 1.246 . S
C179 O176 1.250 1_565 S
C180 O177 1.252 . S
C180 O178 1.273 . S
O181 Mg168 2.010 . S
O181 C173 1.249 . S
Mg182 O183 2.028 . S
Mg182 O189 1.986 . S
Mg182 O191 2.114 . S
Mg182 O192 2.251 . S
Mg182 O195 2.010 1_655 S
O183 Mg182 2.028 . S
O183 C186 1.250 . S
O184 Mg185 2.028 . S
O184 C186 1.248 . S
Mg185 O184 2.028 . S
Mg185 O190 2.032 . S
Mg185 O192 2.079 . S
C186 O183 1.250 . S
C186 O184 1.248 . S
C187 O188 1.264 . S
C187 O195 1.249 . S
O188 C187 1.264 . S
O189 Mg182 1.986 . S
O189 C193 1.246 . S
O190 Mg185 2.032 . S
O190 C193 1.259 . S
O191 Mg182 2.114 . S
O191 C194 1.252 . S
O192 Mg182 2.251 . S
O192 Mg185 2.079 . S
O192 C194 1.273 . S
C193 O189 1.246 . S
C193 O190 1.259 . S
C194 O191 1.252 . S
C194 O192 1.273 . S
O195 Mg182 2.010 1_455 S
O195 C187 1.249 . S
Mg196 O197 2.028 . S
Mg196 O203 1.986 . S
Mg196 O205 2.114 . S
Mg196 O206 2.251 . S
Mg196 O209 2.010 . S
O197 Mg196 2.028 . S
O197 C200 1.250 . S
O198 Mg199 2.028 . S
O198 C200 1.248 . S
Mg199 O198 2.028 . S
Mg199 O204 2.032 . S
Mg199 O206 2.079 . S
C200 O197 1.250 . S
C200 O198 1.248 . S
C201 O202 1.264 . S
C201 O209 1.249 . S
O202 C201 1.264 . S
O203 Mg196 1.986 . S
O203 C207 1.246 . S
O204 Mg199 2.032 . S
O204 C207 1.259 . S
O205 Mg196 2.114 . S
O205 C208 1.252 . S
O206 Mg196 2.251 . S
O206 Mg199 2.079 . S
O206 C208 1.273 . S
C207 O203 1.246 . S
C207 O204 1.259 . S
C208 O205 1.252 . S
C208 O206 1.273 . S
O209 Mg196 2.010 . S
O209 C201 1.249 . S
Mg210 O211 2.028 . S
Mg210 O217 1.986 . S
Mg210 O219 2.114 . S
Mg210 O220 2.251 . S
Mg210 O223 2.010 . S
O211 Mg210 2.028 . S
O211 C214 1.250 . S
O212 Mg213 2.028 . S
O212 C214 1.248 . S
Mg213 O212 2.028 . S
Mg213 O218 2.032 . S
Mg213 O220 2.079 . S
C214 O211 1.250 . S
C214 O212 1.248 . S
C215 O216 1.264 . S
C215 O223 1.249 . S
O216 C215 1.264 . S
O217 Mg210 1.986 . S
O217 C221 1.246 . S
O218 Mg213 2.032 . S
O218 C221 1.259 . S
O219 Mg210 2.114 . S
O219 C222 1.252 . S
O220 Mg210 2.251 . S
O220 Mg213 2.079 . S
O220 C222 1.273 . S
C221 O217 1.246 . S
C221 O218 1.259 . S
C222 O219 1.252 . S
C222 O220 1.273 . S
O223 Mg210 2.010 . S
O223 C215 1.249 . S
Mg224 O225 2.028 . S
Mg224 O231 1.986 1_545 S
Mg224 O233 2.114 . S
Mg224 O234 2.251 . S
Mg224 O237 2.010 . S
O225 Mg224 2.028 . S
O225 C228 1.250 . S
O226 Mg227 2.028 . S
O226 C228 1.248 . S
Mg227 O226 2.028 . S
Mg227 O232 2.032 1_545 S
Mg227 O234 2.079 . S
C228 O225 1.250 . S
C228 O226 1.248 . S
C229 O230 1.264 . S
C229 O237 1.249 . S
O230 C229 1.264 . S
O231 Mg224 1.986 1_565 S
O231 C235 1.246 . S
O232 Mg227 2.032 1_565 S
O232 C235 1.259 . S
O233 Mg224 2.114 . S
O233 C236 1.252 . S
O234 Mg224 2.251 . S
O234 Mg227 2.079 . S
O234 C236 1.273 . S
C235 O231 1.246 . S
C235 O232 1.259 . S
C236 O233 1.252 . S
C236 O234 1.273 . S
O237 Mg224 2.010 . S
O237 C229 1.249 . S
Mg238 O239 2.028 . S
Mg238 O245 1.986 . S
Mg238 O247 2.114 . S
Mg238 O248 2.251 . S
Mg238 O251 2.010 1_655 S
O239 Mg238 2.028 . S
O239 C242 1.250 . S
O240 Mg241 2.028 . S
O240 C242 1.248 . S
Mg241 O240 2.028 . S
Mg241 O246 2.032 . S
Mg241 O248 2.079 . S
C242 O239 1.250 . S
C242 O240 1.248 . S
C243 O244 1.264 . S
C243 O251 1.249 . S
O244 C243 1.264 . S
O245 Mg238 1.986 . S
O245 C249 1.246 . S
O246 Mg241 2.032 . S
O246 C249 1.259 . S
O247 Mg238 2.114 . S
O247 C250 1.252 . S
O248 Mg238 2.251 . S
O248 Mg241 2.079 . S
O248 C250 1.273 . S
C249 O245 1.246 . S
C249 O246 1.259 . S
C250 O247 1.252 . S
C250 O248 1.273 . S
O251 Mg238 2.010 1_455 S
O251 C243 1.249 . S
H252 C260 0.930 . S
H253 C263 0.930 . S
H254 C265 0.930 . S
H255 C266 0.970 . S
H256 C266 0.970 . S
H257 C268 0.930 . S
H258 C270 0.930 . S
H259 C272 0.930 . S
C260 H252 0.930 . S
C260 C261 1.382 . S
C260 C262 1.426 . S
C261 C260 1.382 . S
C261 C265 1.389 . S
C262 C260 1.426 . S
C262 C263 1.375 . S
C262 C266 1.532 . S
C263 H253 0.930 . S
C263 C262 1.375 . S
C263 C264 1.416 . S
C264 C263 1.416 . S
C264 C265 1.371 . S
C265 H254 0.930 . S
C265 C261 1.389 . S
C265 C264 1.371 . S
C266 H255 0.970 . S
C266 H256 0.970 . S
C266 C262 1.532 . S
C266 C267 1.499 . S
C267 C266 1.499 . S
C267 C268 1.370 . S
C267 C272 1.415 . S
C268 H257 0.930 . S
C268 C267 1.370 . S
C268 C269 1.407 . S
C269 C268 1.407 . S
C269 C270 1.365 . S
C270 H258 0.930 . S
C270 C269 1.365 . S
C270 C271 1.393 . S
C271 C270 1.393 . S
C271 C272 1.387 . S
C272 H259 0.930 . S
C272 C267 1.415 . S
C272 C271 1.387 . S
H273 C281 0.930 . S
H274 C284 0.930 . S
H275 C286 0.930 . S
H276 C287 0.970 . S
H277 C287 0.970 . S
H278 C289 0.930 . S
H279 C291 0.930 . S
H280 C293 0.930 . S
C281 H273 0.930 . S
C281 C282 1.382 . S
C281 C283 1.426 . S
C282 C281 1.382 . S
C282 C286 1.389 . S
C283 C281 1.426 . S
C283 C284 1.375 . S
C283 C287 1.532 . S
C284 H274 0.930 . S
C284 C283 1.375 . S
C284 C285 1.416 . S
C285 C284 1.416 . S
C285 C286 1.371 . S
C286 H275 0.930 . S
C286 C282 1.389 . S
C286 C285 1.371 . S
C287 H276 0.970 . S
C287 H277 0.970 . S
C287 C283 1.532 . S
C287 C288 1.499 . S
C288 C287 1.499 . S
C288 C289 1.370 . S
C288 C293 1.415 . S
C289 H278 0.930 . S
C289 C288 1.370 . S
C289 C290 1.407 . S
C290 C289 1.407 . S
C290 C291 1.365 . S
C291 H279 0.930 . S
C291 C290 1.365 . S
C291 C292 1.393 . S
C292 C291 1.393 . S
C292 C293 1.387 . S
C293 H280 0.930 . S
C293 C288 1.415 . S
C293 C292 1.387 . S
H294 C302 0.930 . S
H295 C305 0.930 . S
H296 C307 0.930 . S
H297 C308 0.970 . S
H298 C308 0.970 . S
H299 C310 0.930 . S
H300 C312 0.930 . S
H301 C314 0.930 . S
C302 H294 0.930 . S
C302 C303 1.382 . S
C302 C304 1.426 . S
C303 C302 1.382 . S
C303 C307 1.389 . S
C304 C302 1.426 . S
C304 C305 1.375 . S
C304 C308 1.532 . S
C305 H295 0.930 . S
C305 C304 1.375 . S
C305 C306 1.416 . S
C306 C305 1.416 . S
C306 C307 1.371 . S
C307 H296 0.930 . S
C307 C303 1.389 . S
C307 C306 1.371 . S
C308 H297 0.970 . S
C308 H298 0.970 . S
C308 C304 1.532 . S
C308 C309 1.499 . S
C309 C308 1.499 . S
C309 C310 1.370 . S
C309 C314 1.415 . S
C310 H299 0.930 . S
C310 C309 1.370 . S
C310 C311 1.407 . S
C311 C310 1.407 . S
C311 C312 1.365 . S
C312 H300 0.930 . S
C312 C311 1.365 . S
C312 C313 1.393 . S
C313 C312 1.393 . S
C313 C314 1.387 . S
C314 H301 0.930 . S
C314 C309 1.415 . S
C314 C313 1.387 . S
H315 C323 0.930 . S
H316 C326 0.930 . S
H317 C328 0.930 . S
H318 C329 0.970 . S
H319 C329 0.970 . S
H320 C331 0.930 . S
H321 C333 0.930 . S
H322 C335 0.930 . S
C323 H315 0.930 . S
C323 C324 1.382 . S
C323 C325 1.426 . S
C324 C323 1.382 . S
C324 C328 1.389 . S
C325 C323 1.426 . S
C325 C326 1.375 . S
C325 C329 1.532 . S
C326 H316 0.930 . S
C326 C325 1.375 . S
C326 C327 1.416 . S
C327 C326 1.416 . S
C327 C328 1.371 . S
C328 H317 0.930 . S
C328 C324 1.389 . S
C328 C327 1.371 . S
C329 H318 0.970 . S
C329 H319 0.970 . S
C329 C325 1.532 . S
C329 C330 1.499 . S
C330 C329 1.499 . S
C330 C331 1.370 . S
C330 C335 1.415 . S
C331 H320 0.930 . S
C331 C330 1.370 . S
C331 C332 1.407 . S
C332 C331 1.407 . S
C332 C333 1.365 . S
C333 H321 0.930 . S
C333 C332 1.365 . S
C333 C334 1.393 . S
C334 C333 1.393 . S
C334 C335 1.387 . S
C335 H322 0.930 . S
C335 C330 1.415 . S
C335 C334 1.387 . S
H336 C344 0.930 . S
H337 C347 0.930 . S
H338 C349 0.930 . S
H339 C350 0.970 . S
H340 C350 0.970 . S
H341 C352 0.930 . S
H342 C354 0.930 . S
H343 C356 0.930 . S
C344 H336 0.930 . S
C344 C345 1.382 . S
C344 C346 1.426 . S
C345 C344 1.382 . S
C345 C349 1.389 . S
C346 C344 1.426 . S
C346 C347 1.375 . S
C346 C350 1.532 . S
C347 H337 0.930 . S
C347 C346 1.375 . S
C347 C348 1.416 . S
C348 C347 1.416 . S
C348 C349 1.371 . S
C349 H338 0.930 . S
C349 C345 1.389 . S
C349 C348 1.371 . S
C350 H339 0.970 . S
C350 H340 0.970 . S
C350 C346 1.532 . S
C350 C351 1.499 . S
C351 C350 1.499 . S
C351 C352 1.370 . S
C351 C356 1.415 . S
C352 H341 0.930 . S
C352 C351 1.370 . S
C352 C353 1.407 . S
C353 C352 1.407 . S
C353 C354 1.365 . S
C354 H342 0.930 . S
C354 C353 1.365 . S
C354 C355 1.393 . S
C355 C354 1.393 . S
C355 C356 1.387 . S
C356 H343 0.930 . S
C356 C351 1.415 . S
C356 C355 1.387 . S
H357 C365 0.930 . S
H358 C368 0.930 . S
H359 C370 0.930 . S
H360 C371 0.970 . S
H361 C371 0.970 . S
H362 C373 0.930 . S
H363 C375 0.930 . S
H364 C377 0.930 . S
C365 H357 0.930 . S
C365 C366 1.382 . S
C365 C367 1.426 . S
C366 C365 1.382 . S
C366 C370 1.389 . S
C367 C365 1.426 . S
C367 C368 1.375 . S
C367 C371 1.532 . S
C368 H358 0.930 . S
C368 C367 1.375 . S
C368 C369 1.416 . S
C369 C368 1.416 . S
C369 C370 1.371 . S
C370 H359 0.930 . S
C370 C366 1.389 . S
C370 C369 1.371 . S
C371 H360 0.970 . S
C371 H361 0.970 . S
C371 C367 1.532 . S
C371 C372 1.499 . S
C372 C371 1.499 . S
C372 C373 1.370 . S
C372 C377 1.415 . S
C373 H362 0.930 . S
C373 C372 1.370 . S
C373 C374 1.407 . S
C374 C373 1.407 . S
C374 C375 1.365 . S
C375 H363 0.930 . S
C375 C374 1.365 . S
C375 C376 1.393 . S
C376 C375 1.393 . S
C376 C377 1.387 . S
C377 H364 0.930 . S
C377 C372 1.415 . S
C377 C376 1.387 . S
H378 C386 0.930 . S
H379 C389 0.930 . S
H380 C391 0.930 . S
H381 C392 0.970 . S
H382 C392 0.970 . S
H383 C394 0.930 . S
H384 C396 0.930 . S
H385 C398 0.930 . S
C386 H378 0.930 . S
C386 C387 1.382 . S
C386 C388 1.426 . S
C387 C386 1.382 . S
C387 C391 1.389 . S
C388 C386 1.426 . S
C388 C389 1.375 . S
C388 C392 1.532 . S
C389 H379 0.930 . S
C389 C388 1.375 . S
C389 C390 1.416 . S
C390 C389 1.416 . S
C390 C391 1.371 . S
C391 H380 0.930 . S
C391 C387 1.389 . S
C391 C390 1.371 . S
C392 H381 0.970 . S
C392 H382 0.970 . S
C392 C388 1.532 . S
C392 C393 1.499 . S
C393 C392 1.499 . S
C393 C394 1.370 . S
C393 C398 1.415 . S
C394 H383 0.930 . S
C394 C393 1.370 . S
C394 C395 1.407 . S
C395 C394 1.407 . S
C395 C396 1.365 . S
C396 H384 0.930 . S
C396 C395 1.365 . S
C396 C397 1.393 . S
C397 C396 1.393 . S
C397 C398 1.387 . S
C398 H385 0.930 . S
C398 C393 1.415 . S
C398 C397 1.387 . S
H399 C407 0.930 . S
H400 C410 0.930 . S
H401 C412 0.930 . S
H402 C413 0.970 . S
H403 C413 0.970 . S
H404 C415 0.930 . S
H405 C417 0.930 . S
H406 C419 0.930 . S
C407 H399 0.930 . S
C407 C408 1.382 . S
C407 C409 1.426 . S
C408 C407 1.382 . S
C408 C412 1.389 . S
C409 C407 1.426 . S
C409 C410 1.375 . S
C409 C413 1.532 . S
C410 H400 0.930 . S
C410 C409 1.375 . S
C410 C411 1.416 . S
C411 C410 1.416 . S
C411 C412 1.371 . S
C412 H401 0.930 . S
C412 C408 1.389 . S
C412 C411 1.371 . S
C413 H402 0.970 . S
C413 H403 0.970 . S
C413 C409 1.532 . S
C413 C414 1.499 . S
C414 C413 1.499 . S
C414 C415 1.370 . S
C414 C419 1.415 . S
C415 H404 0.930 . S
C415 C414 1.370 . S
C415 C416 1.407 . S
C416 C415 1.407 . S
C416 C417 1.365 . S
C417 H405 0.930 . S
C417 C416 1.365 . S
C417 C418 1.393 . S
C418 C417 1.393 . S
C418 C419 1.387 . S
C419 H406 0.930 . S
C419 C414 1.415 . S
C419 C418 1.387 . S
H420 C428 0.930 . S
H421 C431 0.930 . S
H422 C433 0.930 . S
H423 C434 0.970 . S
H424 C434 0.970 . S
H425 C436 0.930 . S
H426 C438 0.930 . S
H427 C440 0.930 . S
C428 H420 0.930 . S
C428 C429 1.382 . S
C428 C430 1.426 . S
C429 C428 1.382 . S
C429 C433 1.389 . S
C430 C428 1.426 . S
C430 C431 1.375 . S
C430 C434 1.532 . S
C431 H421 0.930 . S
C431 C430 1.375 . S
C431 C432 1.416 . S
C432 C431 1.416 . S
C432 C433 1.371 . S
C433 H422 0.930 . S
C433 C429 1.389 . S
C433 C432 1.371 . S
C434 H423 0.970 . S
C434 H424 0.970 . S
C434 C430 1.532 . S
C434 C435 1.499 . S
C435 C434 1.499 . S
C435 C436 1.370 . S
C435 C440 1.415 . S
C436 H425 0.930 . S
C436 C435 1.370 . S
C436 C437 1.407 . S
C437 C436 1.407 . S
C437 C438 1.365 . S
C438 H426 0.930 . S
C438 C437 1.365 . S
C438 C439 1.393 . S
C439 C438 1.393 . S
C439 C440 1.387 . S
C440 H427 0.930 . S
C440 C435 1.415 . S
C440 C439 1.387 . S
H441 C449 0.930 . S
H442 C452 0.930 . S
H443 C454 0.930 . S
H444 C455 0.970 . S
H445 C455 0.970 . S
H446 C457 0.930 . S
H447 C459 0.930 . S
H448 C461 0.930 . S
C449 H441 0.930 . S
C449 C450 1.382 . S
C449 C451 1.426 . S
C450 C449 1.382 . S
C450 C454 1.389 1_455 S
C451 C449 1.426 . S
C451 C452 1.375 . S
C451 C455 1.532 . S
C452 H442 0.930 . S
C452 C451 1.375 . S
C452 C453 1.416 . S
C453 C452 1.416 . S
C453 C454 1.371 1_455 S
C454 H443 0.930 . S
C454 C450 1.389 1_655 S
C454 C453 1.371 1_655 S
C455 H444 0.970 . S
C455 H445 0.970 . S
C455 C451 1.532 . S
C455 C456 1.499 . S
C456 C455 1.499 . S
C456 C457 1.370 . S
C456 C461 1.415 . S
C457 H446 0.930 . S
C457 C456 1.370 . S
C457 C458 1.411 . S
C458 C457 1.411 . S
C458 C459 1.369 1_455 S
C459 H447 0.930 . S
C459 C458 1.369 1_655 S
C459 C460 1.393 1_655 S
C460 C459 1.393 1_455 S
C460 C461 1.387 . S
C461 H448 0.930 . S
C461 C456 1.415 . S
C461 C460 1.387 . S
H462 C470 0.930 . S
H463 C473 0.930 . S
H464 C475 0.930 . S
H465 C476 0.970 . S
H466 C476 0.970 . S
H467 C478 0.930 . S
H468 C480 0.930 . S
H469 C482 0.930 . S
C470 H462 0.930 . S
C470 C471 1.382 . S
C470 C472 1.426 . S
C471 C470 1.382 . S
C471 C475 1.389 . S
C472 C470 1.426 . S
C472 C473 1.375 . S
C472 C476 1.532 . S
C473 H463 0.930 . S
C473 C472 1.375 . S
C473 C474 1.416 . S
C474 C473 1.416 . S
C474 C475 1.371 . S
C475 H464 0.930 . S
C475 C471 1.389 . S
C475 C474 1.371 . S
C476 H465 0.970 . S
C476 H466 0.970 . S
C476 C472 1.532 . S
C476 C477 1.499 . S
C477 C476 1.499 . S
C477 C478 1.370 . S
C477 C482 1.415 . S
C478 H467 0.930 . S
C478 C477 1.370 . S
C478 C479 1.407 . S
C479 C478 1.407 . S
C479 C480 1.365 . S
C480 H468 0.930 . S
C480 C479 1.365 . S
C480 C481 1.393 . S
C481 C480 1.393 . S
C481 C482 1.387 . S
C482 H469 0.930 . S
C482 C477 1.415 . S
C482 C481 1.387 . S
H483 C491 0.930 . S
H484 C494 0.930 . S
H485 C496 0.930 . S
H486 C497 0.970 . S
H487 C497 0.970 . S
H488 C499 0.930 . S
H489 C501 0.930 . S
H490 C503 0.930 . S
C491 H483 0.930 . S
C491 C492 1.382 . S
C491 C493 1.426 . S
C492 C491 1.382 . S
C492 C496 1.389 1_565 S
C493 C491 1.426 . S
C493 C494 1.375 . S
C493 C497 1.532 . S
C494 H484 0.930 . S
C494 C493 1.375 . S
C494 C495 1.416 . S
C495 C494 1.416 . S
C495 C496 1.371 1_565 S
C496 H485 0.930 . S
C496 C492 1.389 1_545 S
C496 C495 1.371 1_545 S
C497 H486 0.970 . S
C497 H487 0.970 . S
C497 C493 1.532 . S
C497 C498 1.499 . S
C498 C497 1.499 . S
C498 C499 1.370 . S
C498 C503 1.415 . S
C499 H488 0.930 . S
C499 C498 1.370 . S
C499 C500 1.439 . S
C500 C499 1.439 . S
C500 C501 1.353 1_565 S
C501 H489 0.930 . S
C501 C500 1.353 1_545 S
C501 C502 1.393 1_545 S
C502 C501 1.393 1_565 S
C502 C503 1.387 . S
C503 H490 0.930 . S
C503 C498 1.415 . S
C503 C502 1.387 . S
H504 C512 0.930 . S
H505 C515 0.930 . S
H506 C517 0.930 . S
H507 C518 0.970 . S
H508 C518 0.970 . S
H509 C520 0.930 . S
H510 C522 0.930 . S
H511 C524 0.930 . S
C512 H504 0.930 . S
C512 C513 1.382 . S
C512 C514 1.426 . S
C513 C512 1.382 . S
C513 C517 1.389 1_565 S
C514 C512 1.426 . S
C514 C515 1.375 . S
C514 C518 1.532 . S
C515 H505 0.930 . S
C515 C514 1.375 . S
C515 C516 1.416 . S
C516 C515 1.416 . S
C516 C517 1.371 1_565 S
C517 H506 0.930 . S
C517 C513 1.389 1_545 S
C517 C516 1.371 1_545 S
C518 H507 0.970 . S
C518 H508 0.970 . S
C518 C514 1.532 . S
C518 C519 1.499 . S
C519 C518 1.499 . S
C519 C520 1.370 . S
C519 C524 1.415 . S
C520 H509 0.930 . S
C520 C519 1.370 . S
C520 C521 1.407 . S
C521 C520 1.407 . S
C521 C522 1.365 1_565 S
C522 H510 0.930 . S
C522 C521 1.365 1_545 S
C522 C523 1.393 1_545 S
C523 C522 1.393 1_565 S
C523 C524 1.387 . S
C524 H511 0.930 . S
C524 C519 1.415 . S
C524 C523 1.387 . S
H525 C533 0.930 . S
H526 C536 0.930 . S
H527 C538 0.930 . S
H528 C539 0.970 . S
H529 C539 0.970 . S
H530 C541 0.930 . S
H531 C543 0.930 . S
H532 C545 0.930 . S
C533 H525 0.930 . S
C533 C534 1.382 . S
C533 C535 1.426 . S
C534 C533 1.382 . S
C534 C538 1.389 1_455 S
C535 C533 1.426 . S
C535 C536 1.375 . S
C535 C539 1.532 . S
C536 H526 0.930 . S
C536 C535 1.375 . S
C536 C537 1.421 . S
C537 C536 1.421 . S
C537 C538 1.380 1_455 S
C538 H527 0.930 . S
C538 C534 1.389 1_655 S
C538 C537 1.380 1_655 S
C539 H528 0.970 . S
C539 H529 0.970 . S
C539 C535 1.532 . S
C539 C540 1.499 . S
C540 C539 1.499 . S
C540 C541 1.370 . S
C540 C545 1.415 . S
C541 H530 0.930 . S
C541 C540 1.370 . S
C541 C542 1.407 . S
C542 C541 1.407 . S
C542 C543 1.365 1_455 S
C543 H531 0.930 . S
C543 C542 1.365 1_655 S
C543 C544 1.393 1_655 S
C544 C543 1.393 1_455 S
C544 C545 1.387 . S
C545 H532 0.930 . S
C545 C540 1.415 . S
C545 C544 1.387 . S
H546 C554 0.930 . S
H547 C557 0.930 . S
H548 C559 0.930 . S
H549 C560 0.970 . S
H550 C560 0.970 . S
H551 C562 0.930 . S
H552 C564 0.930 . S
H553 C566 0.930 . S
C554 H546 0.930 . S
C554 C555 1.382 . S
C554 C556 1.426 . S
C555 C554 1.382 . S
C555 C559 1.389 . S
C556 C554 1.426 . S
C556 C557 1.375 . S
C556 C560 1.532 . S
C557 H547 0.930 . S
C557 C556 1.375 . S
C557 C558 1.416 . S
C558 C557 1.416 . S
C558 C559 1.371 . S
C559 H548 0.930 . S
C559 C555 1.389 . S
C559 C558 1.371 . S
C560 H549 0.970 . S
C560 H550 0.970 . S
C560 C556 1.532 . S
C560 C561 1.499 . S
C561 C560 1.499 . S
C561 C562 1.370 . S
C561 C566 1.415 . S
C562 H551 0.930 . S
C562 C561 1.370 . S
C562 C563 1.407 . S
C563 C562 1.407 . S
C563 C564 1.365 . S
C564 H552 0.930 . S
C564 C563 1.365 . S
C564 C565 1.393 . S
C565 C564 1.393 . S
C565 C566 1.387 . S
C566 H553 0.930 . S
C566 C561 1.415 . S
C566 C565 1.387 . S
H567 C575 0.930 . S
H568 C578 0.930 . S
H569 C580 0.930 . S
H570 C581 0.970 . S
H571 C581 0.970 . S
H572 C583 0.930 . S
H573 C585 0.930 . S
H574 C587 0.930 . S
C575 H567 0.930 . S
C575 C576 1.382 . S
C575 C577 1.426 . S
C576 C575 1.382 . S
C576 C580 1.389 . S
C577 C575 1.426 . S
C577 C578 1.375 . S
C577 C581 1.532 . S
C578 H568 0.930 . S
C578 C577 1.375 . S
C578 C579 1.416 . S
C579 C578 1.416 . S
C579 C580 1.371 . S
C580 H569 0.930 . S
C580 C576 1.389 . S
C580 C579 1.371 . S
C581 H570 0.970 . S
C581 H571 0.970 . S
C581 C577 1.532 . S
C581 C582 1.499 . S
C582 C581 1.499 . S
C582 C583 1.370 . S
C582 C587 1.415 . S
C583 H572 0.930 . S
C583 C582 1.370 . S
C583 C584 1.407 . S
C584 C583 1.407 . S
C584 C585 1.365 . S
C585 H573 0.930 . S
C585 C584 1.365 . S
C585 C586 1.393 . S
C586 C585 1.393 . S
C586 C587 1.387 . S
C587 H574 0.930 . S
C587 C582 1.415 . S
C587 C586 1.387 . S
H588 C596 0.930 . S
H589 C599 0.930 . S
H590 C601 0.930 . S
H591 C602 0.970 . S
H592 C602 0.970 . S
H593 C604 0.930 . S
H594 C606 0.930 . S
H595 C608 0.930 . S
C596 H588 0.930 . S
C596 C597 1.382 . S
C596 C598 1.426 . S
C597 C596 1.382 . S
C597 C601 1.389 . S
C598 C596 1.426 . S
C598 C599 1.375 . S
C598 C602 1.532 . S
C599 H589 0.930 . S
C599 C598 1.375 . S
C599 C600 1.416 . S
C600 C599 1.416 . S
C600 C601 1.371 . S
C601 H590 0.930 . S
C601 C597 1.389 . S
C601 C600 1.371 . S
C602 H591 0.970 . S
C602 H592 0.970 . S
C602 C598 1.532 . S
C602 C603 1.499 . S
C603 C602 1.499 . S
C603 C604 1.370 . S
C603 C608 1.415 . S
C604 H593 0.930 . S
C604 C603 1.370 . S
C604 C605 1.407 . S
C605 C604 1.407 . S
C605 C606 1.365 . S
C606 H594 0.930 . S
C606 C605 1.365 . S
C606 C607 1.393 . S
C607 C606 1.393 . S
C607 C608 1.387 . S
C608 H595 0.930 . S
C608 C603 1.415 . S
C608 C607 1.387 . S
H609 C617 0.930 . S
H610 C620 0.930 . S
H611 C622 0.930 . S
H612 C623 0.970 . S
H613 C623 0.970 . S
H614 C625 0.930 . S
H615 C627 0.930 . S
H616 C629 0.930 . S
C617 H609 0.930 . S
C617 C618 1.382 . S
C617 C619 1.426 . S
C618 C617 1.382 . S
C618 C622 1.389 . S
C619 C617 1.426 . S
C619 C620 1.375 . S
C619 C623 1.532 . S
C620 H610 0.930 . S
C620 C619 1.375 . S
C620 C621 1.416 . S
C621 C620 1.416 . S
C621 C622 1.371 . S
C622 H611 0.930 . S
C622 C618 1.389 . S
C622 C621 1.371 . S
C623 H612 0.970 . S
C623 H613 0.970 . S
C623 C619 1.532 . S
C623 C624 1.499 . S
C624 C623 1.499 . S
C624 C625 1.370 . S
C624 C629 1.415 . S
C625 H614 0.930 . S
C625 C624 1.370 . S
C625 C626 1.407 . S
C626 C625 1.407 . S
C626 C627 1.365 . S
C627 H615 0.930 . S
C627 C626 1.365 . S
C627 C628 1.393 . S
C628 C627 1.393 . S
C628 C629 1.387 . S
C629 H616 0.930 . S
C629 C624 1.415 . S
C629 C628 1.387 . S
C630 C631 1.386 . S
C630 C632 1.383 . S
C630 H646 0.951 . S
C631 C630 1.386 . S
C631 C635 1.383 . S
C632 C630 1.383 . S
C632 C633 1.402 . S
C632 H647 0.951 . S
C633 C632 1.402 . S
C633 C634 1.375 . S
C633 C636 1.481 . S
C634 C633 1.375 . S
C634 C635 1.367 . S
C634 H648 0.951 . S
C635 C631 1.383 . S
C635 C634 1.367 . S
C635 H649 0.950 . S
C636 C633 1.481 . S
C636 C637 1.297 . S
C636 H650 0.950 . S
C637 C636 1.297 . S
C637 C638 1.479 . S
C637 H651 0.950 . S
C638 C637 1.479 . S
C638 C639 1.375 . S
C638 C644 1.404 . S
C639 C638 1.375 . S
C639 C640 1.369 . S
C639 H652 0.950 . S
C640 C639 1.369 . S
C640 C641 1.392 . S
C640 H653 0.951 . S
C641 C640 1.392 . S
C641 C643 1.384 . S
H642 C644 0.949 . S
C643 C641 1.384 . S
C643 C644 1.385 . S
C643 H645 0.950 . S
C644 C638 1.404 . S
C644 H642 0.949 . S
C644 C643 1.385 . S
H645 C643 0.950 . S
H646 C630 0.951 . S
H647 C632 0.951 . S
H648 C634 0.951 . S
H649 C635 0.950 . S
H650 C636 0.950 . S
H651 C637 0.950 . S
H652 C639 0.950 . S
H653 C640 0.951 . S
C654 C655 1.386 . S
C654 C656 1.383 . S
C654 H670 0.951 . S
C655 C654 1.386 . S
C655 C659 1.383 . S
C656 C654 1.383 . S
C656 C657 1.402 . S
C656 H671 0.951 . S
C657 C656 1.402 . S
C657 C658 1.375 . S
C657 C660 1.481 . S
C658 C657 1.375 . S
C658 C659 1.367 . S
C658 H672 0.951 . S
C659 C655 1.383 . S
C659 C658 1.367 . S
C659 H673 0.950 . S
C660 C657 1.481 . S
C660 C661 1.297 . S
C660 H674 0.950 . S
C661 C660 1.297 . S
C661 C662 1.479 . S
C661 H675 0.950 . S
C662 C661 1.479 . S
C662 C663 1.375 . S
C662 C668 1.404 . S
C663 C662 1.375 . S
C663 C664 1.369 . S
C663 H676 0.950 . S
C664 C663 1.369 . S
C664 C665 1.392 . S
C664 H677 0.951 . S
C665 C664 1.392 . S
C665 C667 1.384 . S
H666 C668 0.949 . S
C667 C665 1.384 . S
C667 C668 1.385 . S
C667 H669 0.950 . S
C668 C662 1.404 . S
C668 H666 0.949 . S
C668 C667 1.385 . S
H669 C667 0.950 . S
H670 C654 0.951 . S
H671 C656 0.951 . S
H672 C658 0.951 . S
H673 C659 0.950 . S
H674 C660 0.950 . S
H675 C661 0.950 . S
H676 C663 0.950 . S
H677 C664 0.951 . S
C678 C679 1.386 1_565 S
C678 C680 1.383 . S
C678 H694 0.951 . S
C679 C678 1.386 1_545 S
C679 C683 1.383 . S
C680 C678 1.383 . S
C680 C681 1.402 1_565 S
C680 H695 0.951 . S
C681 C680 1.402 1_545 S
C681 C682 1.375 . S
C681 C684 1.481 . S
C682 C681 1.375 . S
C682 C683 1.367 . S
C682 H696 0.951 . S
C683 C679 1.383 . S
C683 C682 1.367 . S
C683 H697 0.950 . S
C684 C681 1.481 . S
C684 C685 1.297 1_545 S
C684 H698 0.950 . S
C685 C684 1.297 1_565 S
C685 C686 1.460 . S
C685 H699 0.950 . S
C686 C685 1.460 . S
C686 C687 1.413 . S
C686 C692 1.388 1_565 S
C687 C686 1.413 . S
C687 C688 1.369 . S
C687 H700 0.950 . S
C688 C687 1.369 . S
C688 C689 1.392 1_565 S
C688 H701 0.951 . S
C689 C688 1.392 1_545 S
C689 C691 1.384 . S
H690 C692 0.949 . S
C691 C689 1.384 . S
C691 C692 1.385 . S
C691 H693 0.950 . S
C692 C686 1.388 1_545 S
C692 H690 0.949 . S
C692 C691 1.385 . S
H693 C691 0.950 . S
H694 C678 0.951 . S
H695 C680 0.951 . S
H696 C682 0.951 . S
H697 C683 0.950 . S
H698 C684 0.950 . S
H699 C685 0.950 . S
H700 C687 0.950 . S
H701 C688 0.951 . S
C702 C703 1.386 . S
C702 C704 1.383 . S
C702 H718 0.951 . S
C703 C702 1.386 . S
C703 C707 1.383 1_565 S
C704 C702 1.383 . S
C704 C705 1.401 . S
C704 H719 0.951 . S
C705 C704 1.401 . S
C705 C706 1.376 1_565 S
C705 C708 1.480 1_565 S
C706 C705 1.376 1_545 S
C706 C707 1.367 . S
C706 H720 0.951 . S
C707 C703 1.383 1_545 S
C707 C706 1.367 . S
C707 H721 0.950 . S
C708 C705 1.480 1_545 S
C708 C709 1.297 1_545 S
C708 H722 0.950 . S
C709 C708 1.297 1_565 S
C709 C710 1.478 1_565 S
C709 H723 0.950 . S
C710 C709 1.478 1_545 S
C710 C711 1.377 1_545 S
C710 C716 1.404 . S
C711 C710 1.377 1_565 S
C711 C712 1.369 . S
C711 H724 0.950 . S
C712 C711 1.369 . S
C712 C713 1.392 . S
C712 H725 0.951 . S
C713 C712 1.392 . S
C713 C715 1.384 1_565 S
H714 C716 0.949 . S
C715 C713 1.384 1_545 S
C715 C716 1.385 . S
C715 H717 0.950 . S
C716 C710 1.404 . S
C716 H714 0.949 . S
C716 C715 1.385 . S
H717 C715 0.950 . S
H718 C702 0.951 . S
H719 C704 0.951 . S
H720 C706 0.951 . S
H721 C707 0.950 . S
H722 C708 0.950 . S
H723 C709 0.950 . S
H724 C711 0.950 . S
H725 C712 0.951 . S
C726 C727 1.386 . S
C726 C728 1.383 . S
C726 H742 0.951 . S
C727 C726 1.386 . S
C727 C731 1.383 1_455 S
C728 C726 1.383 . S
C728 C729 1.402 . S
C728 H743 0.951 . S
C729 C728 1.402 . S
C729 C730 1.375 1_455 S
C729 C732 1.481 . S
C730 C729 1.375 1_655 S
C730 C731 1.367 . S
C730 H744 0.951 . S
C731 C727 1.383 1_655 S
C731 C730 1.367 . S
C731 H745 0.950 . S
C732 C729 1.481 . S
C732 C733 1.297 . S
C732 H746 0.950 1_455 S
C733 C732 1.297 . S
C733 C734 1.479 . S
C733 H747 0.950 . S
C734 C733 1.479 . S
C734 C735 1.375 . S
C734 C740 1.404 1_455 S
C735 C734 1.375 . S
C735 C736 1.369 . S
C735 H748 0.950 . S
C736 C735 1.369 . S
C736 C737 1.392 . S
C736 H749 0.951 . S
C737 C736 1.392 . S
C737 C739 1.384 1_455 S
H738 C740 0.949 . S
C739 C737 1.384 1_655 S
C739 C740 1.385 . S
C739 H741 0.950 . S
C740 C734 1.404 1_655 S
C740 H738 0.949 . S
C740 C739 1.385 . S
H741 C739 0.950 . S
H742 C726 0.951 . S
H743 C728 0.951 . S
H744 C730 0.951 . S
H745 C731 0.950 . S
H746 C732 0.950 1_655 S
H747 C733 0.950 . S
H748 C735 0.950 . S
H749 C736 0.951 . S
C750 C751 1.386 . S
C750 C752 1.383 . S
C750 H766 0.951 . S
C751 C750 1.386 . S
C751 C755 1.383 . S
C752 C750 1.383 . S
C752 C753 1.402 . S
C752 H767 0.951 . S
C753 C752 1.402 . S
C753 C754 1.375 . S
C753 C756 1.481 . S
C754 C753 1.375 . S
C754 C755 1.367 . S
C754 H768 0.951 . S
C755 C751 1.383 . S
C755 C754 1.367 . S
C755 H769 0.950 . S
C756 C753 1.481 . S
C756 C757 1.297 . S
C756 H770 0.950 . S
C757 C756 1.297 . S
C757 C758 1.479 . S
C757 H771 0.950 . S
C758 C757 1.479 . S
C758 C759 1.375 . S
C758 C764 1.404 . S
C759 C758 1.375 . S
C759 C760 1.369 . S
C759 H772 0.950 . S
C760 C759 1.369 . S
C760 C761 1.392 . S
C760 H773 0.951 . S
C761 C760 1.392 . S
C761 C763 1.384 . S
H762 C764 0.949 . S
C763 C761 1.384 . S
C763 C764 1.385 . S
C763 H765 0.950 . S
C764 C758 1.404 . S
C764 H762 0.949 . S
C764 C763 1.385 . S
H765 C763 0.950 . S
H766 C750 0.951 . S
H767 C752 0.951 . S
H768 C754 0.951 . S
H769 C755 0.950 . S
H770 C756 0.950 . S
H771 C757 0.950 . S
H772 C759 0.950 . S
H773 C760 0.951 . S
C774 C775 1.386 . S
C774 C776 1.383 . S
C774 H790 0.951 . S
C775 C774 1.386 . S
C775 C779 1.383 1_455 S
C776 C774 1.383 . S
C776 C777 1.402 1_455 S
C776 H791 0.951 . S
C777 C776 1.402 1_655 S
C777 C778 1.375 . S
C777 C780 1.481 . S
C778 C777 1.375 . S
C778 C779 1.367 . S
C778 H792 0.951 . S
C779 C775 1.383 1_655 S
C779 C778 1.367 . S
C779 H793 0.950 . S
C780 C777 1.481 . S
C780 C781 1.297 . S
C780 H794 0.950 . S
C781 C780 1.297 . S
C781 C782 1.479 . S
C781 H795 0.950 1_655 S
C782 C781 1.479 . S
C782 C783 1.375 1_655 S
C782 C788 1.404 . S
C783 C782 1.375 1_455 S
C783 C784 1.369 . S
C783 H796 0.950 . S
C784 C783 1.369 . S
C784 C785 1.373 1_455 S
C784 H797 0.951 . S
C785 C784 1.373 1_655 S
C785 C787 1.421 . S
H786 C788 0.949 . S
C787 C785 1.421 . S
C787 C788 1.385 . S
C787 H789 0.950 . S
C788 C782 1.404 . S
C788 H786 0.949 . S
C788 C787 1.385 . S
H789 C787 0.950 . S
H790 C774 0.951 . S
H791 C776 0.951 . S
H792 C778 0.951 . S
H793 C779 0.950 . S
H794 C780 0.950 . S
H795 C781 0.950 1_455 S
H796 C783 0.950 . S
H797 C784 0.951 . S
C798 C799 1.386 . S
C798 C800 1.383 . S
C798 H814 0.951 . S
C799 C798 1.386 . S
C799 C803 1.383 . S
C800 C798 1.383 . S
C800 C801 1.402 . S
C800 H815 0.951 . S
C801 C800 1.402 . S
C801 C802 1.375 . S
C801 C804 1.481 . S
C802 C801 1.375 . S
C802 C803 1.367 . S
C802 H816 0.951 . S
C803 C799 1.383 . S
C803 C802 1.367 . S
C803 H817 0.950 . S
C804 C801 1.481 . S
C804 C805 1.297 . S
C804 H818 0.950 . S
C805 C804 1.297 . S
C805 C806 1.479 . S
C805 H819 0.950 . S
C806 C805 1.479 . S
C806 C807 1.375 . S
C806 C812 1.404 . S
C807 C806 1.375 . S
C807 C808 1.369 . S
C807 H820 0.950 . S
C808 C807 1.369 . S
C808 C809 1.392 . S
C808 H821 0.951 . S
C809 C808 1.392 . S
C809 C811 1.384 . S
H810 C812 0.949 . S
C811 C809 1.384 . S
C811 C812 1.385 . S
C811 H813 0.950 . S
C812 C806 1.404 . S
C812 H810 0.949 . S
C812 C811 1.385 . S
H813 C811 0.950 . S
H814 C798 0.951 . S
H815 C800 0.951 . S
H816 C802 0.951 . S
H817 C803 0.950 . S
H818 C804 0.950 . S
H819 C805 0.950 . S
H820 C807 0.950 . S
H821 C808 0.951 . S
C822 C823 1.386 1_545 S
C822 C824 1.383 . S
C822 H838 0.951 . S
C823 C822 1.386 1_565 S
C823 C827 1.383 . S
C824 C822 1.383 . S
C824 C825 1.402 1_545 S
C824 H839 0.951 . S
C825 C824 1.402 1_565 S
C825 C826 1.375 . S
C825 C828 1.481 . S
C826 C825 1.375 . S
C826 C827 1.367 . S
C826 H840 0.951 . S
C827 C823 1.383 . S
C827 C826 1.367 . S
C827 H841 0.950 . S
C828 C825 1.481 . S
C828 C829 1.297 1_565 S
C828 H842 0.950 . S
C829 C828 1.297 1_545 S
C829 C830 1.479 . S
C829 H843 0.950 . S
C830 C829 1.479 . S
C830 C831 1.375 . S
C830 C836 1.404 1_545 S
C831 C830 1.375 . S
C831 C832 1.369 . S
C831 H844 0.950 . S
C832 C831 1.369 . S
C832 C833 1.392 . S
C832 H845 0.951 . S
C833 C832 1.392 . S
C833 C835 1.384 1_545 S
H834 C836 0.949 . S
C835 C833 1.384 1_565 S
C835 C836 1.385 . S
C835 H837 0.950 . S
C836 C830 1.404 1_565 S
C836 H834 0.949 . S
C836 C835 1.385 . S
H837 C835 0.950 . S
H838 C822 0.951 . S
H839 C824 0.951 . S
H840 C826 0.951 . S
H841 C827 0.950 . S
H842 C828 0.950 . S
H843 C829 0.950 . S
H844 C831 0.950 . S
H845 C832 0.951 . S
C846 C847 1.386 . S
C846 C848 1.383 . S
C846 H862 0.951 . S
C847 C846 1.386 . S
C847 C851 1.383 . S
C848 C846 1.383 . S
C848 C849 1.402 . S
C848 H863 0.951 . S
C849 C848 1.402 . S
C849 C850 1.412 . S
C849 C852 1.481 . S
C850 C849 1.412 . S
C850 C851 1.340 . S
C850 H864 0.948 1_545 S
C851 C847 1.383 . S
C851 C850 1.340 . S
C851 H865 0.950 1_545 S
C852 C849 1.481 . S
C852 C853 1.297 . S
C852 H866 0.943 1_545 S
C853 C852 1.297 . S
C853 C854 1.479 . S
C853 H867 0.950 . S
C854 C853 1.479 . S
C854 C855 1.375 . S
C854 C860 1.404 . S
C855 C854 1.375 . S
C855 C856 1.369 . S
C855 H868 0.950 . S
C856 C855 1.369 . S
C856 C857 1.392 . S
C856 H869 0.951 . S
C857 C856 1.392 . S
C857 C859 1.384 1_545 S
H858 C860 0.949 1_565 S
C859 C857 1.384 1_565 S
C859 C860 1.385 1_565 S
C859 H861 0.950 . S
C860 C854 1.404 . S
C860 H858 0.949 1_545 S
C860 C859 1.385 1_545 S
H861 C859 0.950 . S
H862 C846 0.951 . S
H863 C848 0.951 . S
H864 C850 0.948 1_565 S
H865 C851 0.950 1_565 S
H866 C852 0.943 1_565 S
H867 C853 0.950 . S
H868 C855 0.950 . S
H869 C856 0.951 . S
C870 C871 1.386 . S
C870 C872 1.383 . S
C870 H886 0.951 . S
C871 C870 1.386 . S
C871 C875 1.383 1_655 S
C872 C870 1.383 . S
C872 C873 1.402 1_655 S
C872 H887 0.951 . S
C873 C872 1.402 1_455 S
C873 C874 1.375 . S
C873 C876 1.481 . S
C874 C873 1.375 . S
C874 C875 1.367 . S
C874 H888 0.951 . S
C875 C871 1.383 1_455 S
C875 C874 1.367 . S
C875 H889 0.950 . S
C876 C873 1.481 . S
C876 C877 1.297 1_455 S
C876 H890 0.950 . S
C877 C876 1.297 1_655 S
C877 C878 1.479 . S
C877 H891 0.950 . S
C878 C877 1.479 . S
C878 C879 1.375 . S
C878 C884 1.404 1_655 S
C879 C878 1.375 . S
C879 C880 1.369 . S
C879 H892 0.950 . S
C880 C879 1.369 . S
C880 C881 1.414 . S
C880 H893 0.951 . S
C881 C880 1.414 . S
C881 C883 1.372 1_655 S
H882 C884 0.949 . S
C883 C881 1.372 1_455 S
C883 C884 1.385 . S
C883 H885 0.950 . S
C884 C878 1.404 1_455 S
C884 H882 0.949 . S
C884 C883 1.385 . S
H885 C883 0.950 . S
H886 C870 0.951 . S
H887 C872 0.951 . S
H888 C874 0.951 . S
H889 C875 0.950 . S
H890 C876 0.950 . S
H891 C877 0.950 . S
H892 C879 0.950 . S
H893 C880 0.951 . S
C894 C895 1.386 . S
C894 C896 1.383 . S
C894 H910 0.951 . S
C895 C894 1.386 . S
C895 C899 1.383 . S
C896 C894 1.383 . S
C896 C897 1.402 . S
C896 H911 0.951 . S
C897 C896 1.402 . S
C897 C898 1.375 . S
C897 C900 1.481 . S
C898 C897 1.375 . S
C898 C899 1.367 . S
C898 H912 0.951 . S
C899 C895 1.383 . S
C899 C898 1.367 . S
C899 H913 0.950 . S
C900 C897 1.481 . S
C900 C901 1.297 . S
C900 H914 0.950 . S
C901 C900 1.297 . S
C901 C902 1.479 . S
C901 H915 0.950 . S
C902 C901 1.479 . S
C902 C903 1.375 . S
C902 C908 1.404 . S
C903 C902 1.375 . S
C903 C904 1.369 . S
C903 H916 0.950 . S
C904 C903 1.369 . S
C904 C905 1.392 . S
C904 H917 0.951 . S
C905 C904 1.392 . S
C905 C907 1.384 . S
H906 C908 0.949 . S
C907 C905 1.384 . S
C907 C908 1.385 . S
C907 H909 0.950 . S
C908 C902 1.404 . S
C908 H906 0.949 . S
C908 C907 1.385 . S
H909 C907 0.950 . S
H910 C894 0.951 . S
H911 C896 0.951 . S
H912 C898 0.951 . S
H913 C899 0.950 . S
H914 C900 0.950 . S
H915 C901 0.950 . S
H916 C903 0.950 . S
H917 C904 0.951 . S
C918 C919 1.386 . S
C918 C920 1.383 . S
C918 H934 0.951 . S
C919 C918 1.386 . S
C919 C923 1.383 . S
C920 C918 1.383 . S
C920 C921 1.402 . S
C920 H935 0.951 . S
C921 C920 1.402 . S
C921 C922 1.375 . S
C921 C924 1.481 . S
C922 C921 1.375 . S
C922 C923 1.367 . S
C922 H936 0.951 . S
C923 C919 1.383 . S
C923 C922 1.367 . S
C923 H937 0.950 . S
C924 C921 1.481 . S
C924 C925 1.297 . S
C924 H938 0.950 . S
C925 C924 1.297 . S
C925 C926 1.479 . S
C925 H939 0.950 . S
C926 C925 1.479 . S
C926 C927 1.375 . S
C926 C932 1.404 . S
C927 C926 1.375 . S
C927 C928 1.369 . S
C927 H940 0.950 . S
C928 C927 1.369 . S
C928 C929 1.392 . S
C928 H941 0.951 . S
C929 C928 1.392 . S
C929 C931 1.384 . S
H930 C932 0.949 . S
C931 C929 1.384 . S
C931 C932 1.385 . S
C931 H933 0.950 . S
C932 C926 1.404 . S
C932 H930 0.949 . S
C932 C931 1.385 . S
H933 C931 0.950 . S
H934 C918 0.951 . S
H935 C920 0.951 . S
H936 C922 0.951 . S
H937 C923 0.950 . S
H938 C924 0.950 . S
H939 C925 0.950 . S
H940 C927 0.950 . S
H941 C928 0.951 . S
C942 C943 1.386 . S
C942 C944 1.383 . S
C942 H958 0.951 . S
C943 C942 1.386 . S
C943 C947 1.383 . S
C944 C942 1.383 . S
C944 C945 1.402 . S
C944 H959 0.951 . S
C945 C944 1.402 . S
C945 C946 1.375 . S
C945 C948 1.481 . S
C946 C945 1.375 . S
C946 C947 1.367 . S
C946 H960 0.951 . S
C947 C943 1.383 . S
C947 C946 1.367 . S
C947 H961 0.950 . S
C948 C945 1.481 . S
C948 C949 1.297 . S
C948 H962 0.950 . S
C949 C948 1.297 . S
C949 C950 1.479 . S
C949 H963 0.950 . S
C950 C949 1.479 . S
C950 C951 1.375 . S
C950 C956 1.404 . S
C951 C950 1.375 . S
C951 C952 1.369 . S
C951 H964 0.950 . S
C952 C951 1.369 . S
C952 C953 1.392 . S
C952 H965 0.951 . S
C953 C952 1.392 . S
C953 C955 1.384 . S
H954 C956 0.949 . S
C955 C953 1.384 . S
C955 C956 1.385 . S
C955 H957 0.950 . S
C956 C950 1.404 . S
C956 H954 0.949 . S
C956 C955 1.385 . S
H957 C955 0.950 . S
H958 C942 0.951 . S
H959 C944 0.951 . S
H960 C946 0.951 . S
H961 C947 0.950 . S
H962 C948 0.950 . S
H963 C949 0.950 . S
H964 C951 0.950 . S
H965 C952 0.951 . S
C966 C967 1.386 . S
C966 C968 1.383 . S
C966 H982 0.951 . S
C967 C966 1.386 . S
C967 C971 1.383 . S
C968 C966 1.383 . S
C968 C969 1.402 . S
C968 H983 0.951 . S
C969 C968 1.402 . S
C969 C970 1.375 . S
C969 C972 1.481 . S
C970 C969 1.375 . S
C970 C971 1.367 . S
C970 H984 0.951 . S
C971 C967 1.383 . S
C971 C970 1.367 . S
C971 H985 0.950 . S
C972 C969 1.481 . S
C972 C973 1.297 . S
C972 H986 0.950 . S
C973 C972 1.297 . S
C973 C974 1.479 . S
C973 H987 0.950 . S
C974 C973 1.479 . S
C974 C975 1.375 . S
C974 C980 1.404 . S
C975 C974 1.375 . S
C975 C976 1.369 . S
C975 H988 0.950 . S
C976 C975 1.369 . S
C976 C977 1.392 . S
C976 H989 0.951 . S
C977 C976 1.392 . S
C977 C979 1.384 . S
H978 C980 0.949 . S
C979 C977 1.384 . S
C979 C980 1.385 . S
C979 H981 0.950 . S
C980 C974 1.404 . S
C980 H978 0.949 . S
C980 C979 1.385 . S
H981 C979 0.950 . S
H982 C966 0.951 . S
H983 C968 0.951 . S
H984 C970 0.951 . S
H985 C971 0.950 . S
H986 C972 0.950 . S
H987 C973 0.950 . S
H988 C975 0.950 . S
H989 C976 0.951 . S
C990 C991 1.386 . S
C990 C992 1.383 . S
C990 H1006 0.951 . S
C991 C990 1.386 . S
C991 C995 1.383 . S
C992 C990 1.383 . S
C992 C993 1.402 . S
C992 H1007 0.951 . S
C993 C992 1.402 . S
C993 C994 1.375 . S
C993 C996 1.481 . S
C994 C993 1.375 . S
C994 C995 1.367 . S
C994 H1008 0.951 . S
C995 C991 1.383 . S
C995 C994 1.367 . S
C995 H1009 0.950 . S
C996 C993 1.481 . S
C996 C997 1.297 . S
C996 H1010 0.950 . S
C997 C996 1.297 . S
C997 C998 1.479 . S
C997 H1011 0.950 . S
C998 C997 1.479 . S
C998 C999 1.375 . S
C998 C1004 1.404 . S
C999 C998 1.375 . S
C999 C1000 1.369 . S
C999 H1012 0.950 . S
C1000 C999 1.369 . S
C1000 C1001 1.392 . S
C1000 H1013 0.951 . S
C1001 C1000 1.392 . S
C1001 C1003 1.384 . S
H1002 C1004 0.949 . S
C1003 C1001 1.384 . S
C1003 C1004 1.385 . S
C1003 H1005 0.950 . S
C1004 C998 1.404 . S
C1004 H1002 0.949 . S
C1004 C1003 1.385 . S
H1005 C1003 0.950 . S
H1006 C990 0.951 . S
H1007 C992 0.951 . S
H1008 C994 0.951 . S
H1009 C995 0.950 . S
H1010 C996 0.950 . S
H1011 C997 0.950 . S
H1012 C999 0.950 . S
H1013 C1000 0.951 . S
C1014 C1015 1.386 . S
C1014 C1016 1.383 . S
C1014 H1030 0.951 . S
C1015 C1014 1.386 . S
C1015 C1019 1.383 . S
C1016 C1014 1.383 . S
C1016 C1017 1.402 . S
C1016 H1031 0.951 . S
C1017 C1016 1.402 . S
C1017 C1018 1.375 . S
C1017 C1020 1.481 . S
C1018 C1017 1.375 . S
C1018 C1019 1.367 . S
C1018 H1032 0.951 . S
C1019 C1015 1.383 . S
C1019 C1018 1.367 . S
C1019 H1033 0.950 . S
C1020 C1017 1.481 . S
C1020 C1021 1.297 . S
C1020 H1034 0.950 . S
C1021 C1020 1.297 . S
C1021 C1022 1.479 . S
C1021 H1035 0.950 . S
C1022 C1021 1.479 . S
C1022 C1023 1.375 . S
C1022 C1028 1.404 . S
C1023 C1022 1.375 . S
C1023 C1024 1.369 . S
C1023 H1036 0.950 . S
C1024 C1023 1.369 . S
C1024 C1025 1.392 . S
C1024 H1037 0.951 . S
C1025 C1024 1.392 . S
C1025 C1027 1.384 . S
H1026 C1028 0.949 . S
C1027 C1025 1.384 . S
C1027 C1028 1.385 . S
C1027 H1029 0.950 . S
C1028 C1022 1.404 . S
C1028 H1026 0.949 . S
C1028 C1027 1.385 . S
H1029 C1027 0.950 . S
H1030 C1014 0.951 . S
H1031 C1016 0.951 . S
H1032 C1018 0.951 . S
H1033 C1019 0.950 . S
H1034 C1020 0.950 . S
H1035 C1021 0.950 . S
H1036 C1023 0.950 . S
H1037 C1024 0.951 . S
C1038 C1039 1.386 . S
C1038 C1040 1.383 . S
C1038 H1054 0.951 . S
C1039 C1038 1.386 . S
C1039 C1043 1.383 . S
C1040 C1038 1.383 . S
C1040 C1041 1.402 . S
C1040 H1055 0.951 . S
C1041 C1040 1.402 . S
C1041 C1042 1.375 . S
C1041 C1044 1.481 . S
C1042 C1041 1.375 . S
C1042 C1043 1.367 . S
C1042 H1056 0.951 . S
C1043 C1039 1.383 . S
C1043 C1042 1.367 . S
C1043 H1057 0.950 . S
C1044 C1041 1.481 . S
C1044 C1045 1.297 . S
C1044 H1058 0.950 . S
C1045 C1044 1.297 . S
C1045 C1046 1.479 . S
C1045 H1059 0.950 . S
C1046 C1045 1.479 . S
C1046 C1047 1.375 . S
C1046 C1052 1.404 . S
C1047 C1046 1.375 . S
C1047 C1048 1.369 . S
C1047 H1060 0.950 . S
C1048 C1047 1.369 . S
C1048 C1049 1.392 . S
C1048 H1061 0.951 . S
C1049 C1048 1.392 . S
C1049 C1051 1.384 . S
H1050 C1052 0.949 . S
C1051 C1049 1.384 . S
C1051 C1052 1.385 . S
C1051 H1053 0.950 . S
C1052 C1046 1.404 . S
C1052 H1050 0.949 . S
C1052 C1051 1.385 . S
H1053 C1051 0.950 . S
H1054 C1038 0.951 . S
H1055 C1040 0.951 . S
H1056 C1042 0.951 . S
H1057 C1043 0.950 . S
H1058 C1044 0.950 . S
H1059 C1045 0.950 . S
H1060 C1047 0.950 . S
H1061 C1048 0.951 . S
C1062 C1063 1.386 . S
C1062 C1064 1.383 . S
C1062 H1078 0.951 . S
C1063 C1062 1.386 . S
C1063 C1067 1.383 . S
C1064 C1062 1.383 . S
C1064 C1065 1.402 . S
C1064 H1079 0.951 . S
C1065 C1064 1.402 . S
C1065 C1066 1.375 . S
C1065 C1068 1.481 . S
C1066 C1065 1.375 . S
C1066 C1067 1.367 . S
C1066 H1080 0.951 . S
C1067 C1063 1.383 . S
C1067 C1066 1.367 . S
C1067 H1081 0.950 . S
C1068 C1065 1.481 . S
C1068 C1069 1.297 . S
C1068 H1082 0.950 . S
C1069 C1068 1.297 . S
C1069 C1070 1.479 . S
C1069 H1083 0.950 . S
C1070 C1069 1.479 . S
C1070 C1071 1.375 . S
C1070 C1076 1.404 . S
C1071 C1070 1.375 . S
C1071 C1072 1.369 . S
C1071 H1084 0.950 . S
C1072 C1071 1.369 . S
C1072 C1073 1.392 . S
C1072 H1085 0.951 . S
C1073 C1072 1.392 . S
C1073 C1075 1.384 . S
H1074 C1076 0.949 . S
C1075 C1073 1.384 . S
C1075 C1076 1.385 . S
C1075 H1077 0.950 . S
C1076 C1070 1.404 . S
C1076 H1074 0.949 . S
C1076 C1075 1.385 . S
H1077 C1075 0.950 . S
H1078 C1062 0.951 . S
H1079 C1064 0.951 . S
H1080 C1066 0.951 . S
H1081 C1067 0.950 . S
H1082 C1068 0.950 . S
H1083 C1069 0.950 . S
H1084 C1071 0.950 . S
H1085 C1072 0.951 . S
C1086 C1087 1.386 . S
C1086 C1088 1.383 . S
C1086 H1102 0.951 . S
C1087 C1086 1.386 . S
C1087 C1091 1.383 . S
C1088 C1086 1.383 . S
C1088 C1089 1.402 . S
C1088 H1103 0.951 . S
C1089 C1088 1.402 . S
C1089 C1090 1.375 . S
C1089 C1092 1.481 . S
C1090 C1089 1.375 . S
C1090 C1091 1.367 . S
C1090 H1104 0.951 . S
C1091 C1087 1.383 . S
C1091 C1090 1.367 . S
C1091 H1105 0.950 . S
C1092 C1089 1.481 . S
C1092 C1093 1.297 . S
C1092 H1106 0.950 . S
C1093 C1092 1.297 . S
C1093 C1094 1.479 . S
C1093 H1107 0.950 . S
C1094 C1093 1.479 . S
C1094 C1095 1.375 . S
C1094 C1100 1.404 . S
C1095 C1094 1.375 . S
C1095 C1096 1.369 . S
C1095 H1108 0.950 . S
C1096 C1095 1.369 . S
C1096 C1097 1.392 . S
C1096 H1109 0.951 . S
C1097 C1096 1.392 . S
C1097 C1099 1.384 . S
H1098 C1100 0.949 . S
C1099 C1097 1.384 . S
C1099 C1100 1.385 . S
C1099 H1101 0.950 . S
C1100 C1094 1.404 . S
C1100 H1098 0.949 . S
C1100 C1099 1.385 . S
H1101 C1099 0.950 . S
H1102 C1086 0.951 . S
H1103 C1088 0.951 . S
H1104 C1090 0.951 . S
H1105 C1091 0.950 . S
H1106 C1092 0.950 . S
H1107 C1093 0.950 . S
H1108 C1095 0.950 . S
H1109 C1096 0.951 . S
C1110 C1111 1.386 . S
C1110 C1112 1.383 . S
C1110 H1126 0.951 . S
C1111 C1110 1.386 . S
C1111 C1115 1.383 . S
C1112 C1110 1.383 . S
C1112 C1113 1.402 . S
C1112 H1127 0.951 . S
C1113 C1112 1.402 . S
C1113 C1114 1.375 . S
C1113 C1116 1.481 . S
C1114 C1113 1.375 . S
C1114 C1115 1.367 . S
C1114 H1128 0.951 . S
C1115 C1111 1.383 . S
C1115 C1114 1.367 . S
C1115 H1129 0.950 . S
C1116 C1113 1.481 . S
C1116 C1117 1.297 . S
C1116 H1130 0.950 . S
C1117 C1116 1.297 . S
C1117 C1118 1.479 . S
C1117 H1131 0.950 . S
C1118 C1117 1.479 . S
C1118 C1119 1.375 . S
C1118 C1124 1.404 . S
C1119 C1118 1.375 . S
C1119 C1120 1.369 . S
C1119 H1132 0.950 . S
C1120 C1119 1.369 . S
C1120 C1121 1.392 . S
C1120 H1133 0.951 . S
C1121 C1120 1.392 . S
C1121 C1123 1.384 . S
H1122 C1124 0.949 . S
C1123 C1121 1.384 . S
C1123 C1124 1.385 . S
C1123 H1125 0.950 . S
C1124 C1118 1.404 . S
C1124 H1122 0.949 . S
C1124 C1123 1.385 . S
H1125 C1123 0.950 . S
H1126 C1110 0.951 . S
H1127 C1112 0.951 . S
H1128 C1114 0.951 . S
H1129 C1115 0.950 . S
H1130 C1116 0.950 . S
H1131 C1117 0.950 . S
H1132 C1119 0.950 . S
H1133 C1120 0.951 . S
C1134 C1135 1.386 . S
C1134 C1136 1.383 . S
C1134 H1150 0.951 . S
C1135 C1134 1.386 . S
C1135 C1139 1.383 . S
C1136 C1134 1.383 . S
C1136 C1137 1.402 . S
C1136 H1151 0.951 . S
C1137 C1136 1.402 . S
C1137 C1138 1.375 . S
C1137 C1140 1.481 . S
C1138 C1137 1.375 . S
C1138 C1139 1.367 . S
C1138 H1152 0.951 . S
C1139 C1135 1.383 . S
C1139 C1138 1.367 . S
C1139 H1153 0.950 . S
C1140 C1137 1.481 . S
C1140 C1141 1.297 . S
C1140 H1154 0.950 . S
C1141 C1140 1.297 . S
C1141 C1142 1.479 . S
C1141 H1155 0.950 . S
C1142 C1141 1.479 . S
C1142 C1143 1.375 . S
C1142 C1148 1.404 . S
C1143 C1142 1.375 . S
C1143 C1144 1.369 . S
C1143 H1156 0.950 . S
C1144 C1143 1.369 . S
C1144 C1145 1.392 . S
C1144 H1157 0.951 . S
C1145 C1144 1.392 . S
C1145 C1147 1.384 . S
H1146 C1148 0.949 . S
C1147 C1145 1.384 . S
C1147 C1148 1.385 . S
C1147 H1149 0.950 . S
C1148 C1142 1.404 . S
C1148 H1146 0.949 . S
C1148 C1147 1.385 . S
H1149 C1147 0.950 . S
H1150 C1134 0.951 . S
H1151 C1136 0.951 . S
H1152 C1138 0.951 . S
H1153 C1139 0.950 . S
H1154 C1140 0.950 . S
H1155 C1141 0.950 . S
H1156 C1143 0.950 . S
H1157 C1144 0.951 . S
C1158 C1159 1.386 . S
C1158 C1160 1.383 . S
C1158 H1174 0.951 . S
C1159 C1158 1.386 . S
C1159 C1163 1.383 . S
C1160 C1158 1.383 . S
C1160 C1161 1.402 . S
C1160 H1175 0.951 . S
C1161 C1160 1.402 . S
C1161 C1162 1.375 . S
C1161 C1164 1.481 . S
C1162 C1161 1.375 . S
C1162 C1163 1.367 . S
C1162 H1176 0.951 . S
C1163 C1159 1.383 . S
C1163 C1162 1.367 . S
C1163 H1177 0.950 . S
C1164 C1161 1.481 . S
C1164 C1165 1.297 . S
C1164 H1178 0.950 . S
C1165 C1164 1.297 . S
C1165 C1166 1.479 . S
C1165 H1179 0.950 . S
C1166 C1165 1.479 . S
C1166 C1167 1.375 . S
C1166 C1172 1.404 . S
C1167 C1166 1.375 . S
C1167 C1168 1.369 . S
C1167 H1180 0.950 . S
C1168 C1167 1.369 . S
C1168 C1169 1.392 . S
C1168 H1181 0.951 . S
C1169 C1168 1.392 . S
C1169 C1171 1.384 . S
H1170 C1172 0.949 . S
C1171 C1169 1.384 . S
C1171 C1172 1.385 . S
C1171 H1173 0.950 . S
C1172 C1166 1.404 . S
C1172 H1170 0.949 . S
C1172 C1171 1.385 . S
H1173 C1171 0.950 . S
H1174 C1158 0.951 . S
H1175 C1160 0.951 . S
H1176 C1162 0.951 . S
H1177 C1163 0.950 . S
H1178 C1164 0.950 . S
H1179 C1165 0.950 . S
H1180 C1167 0.950 . S
H1181 C1168 0.951 . S
C1182 C1183 1.386 . S
C1182 C1184 1.383 . S
C1182 H1198 0.951 . S
C1183 C1182 1.386 . S
C1183 C1187 1.383 . S
C1184 C1182 1.383 . S
C1184 C1185 1.402 . S
C1184 H1199 0.951 . S
C1185 C1184 1.402 . S
C1185 C1186 1.375 . S
C1185 C1188 1.481 . S
C1186 C1185 1.375 . S
C1186 C1187 1.367 . S
C1186 H1200 0.951 . S
C1187 C1183 1.383 . S
C1187 C1186 1.367 . S
C1187 H1201 0.950 . S
C1188 C1185 1.481 . S
C1188 C1189 1.297 . S
C1188 H1202 0.950 . S
C1189 C1188 1.297 . S
C1189 C1190 1.479 . S
C1189 H1203 0.950 . S
C1190 C1189 1.479 . S
C1190 C1191 1.375 . S
C1190 C1196 1.404 . S
C1191 C1190 1.375 . S
C1191 C1192 1.369 . S
C1191 H1204 0.950 . S
C1192 C1191 1.369 . S
C1192 C1193 1.392 . S
C1192 H1205 0.951 . S
C1193 C1192 1.392 . S
C1193 C1195 1.384 . S
H1194 C1196 0.949 . S
C1195 C1193 1.384 . S
C1195 C1196 1.385 . S
C1195 H1197 0.950 . S
C1196 C1190 1.404 . S
C1196 H1194 0.949 . S
C1196 C1195 1.385 . S
H1197 C1195 0.950 . S
H1198 C1182 0.951 . S
H1199 C1184 0.951 . S
H1200 C1186 0.951 . S
H1201 C1187 0.950 . S
H1202 C1188 0.950 . S
H1203 C1189 0.950 . S
H1204 C1191 0.950 . S
H1205 C1192 0.951 . S
C1206 C1207 1.386 . S
C1206 C1208 1.383 . S
C1206 H1222 0.951 . S
C1207 C1206 1.386 . S
C1207 C1211 1.383 . S
C1208 C1206 1.383 . S
C1208 C1209 1.402 . S
C1208 H1223 0.951 . S
C1209 C1208 1.402 . S
C1209 C1210 1.375 . S
C1209 C1212 1.481 . S
C1210 C1209 1.375 . S
C1210 C1211 1.367 . S
C1210 H1224 0.951 . S
C1211 C1207 1.383 . S
C1211 C1210 1.367 . S
C1211 H1225 0.950 . S
C1212 C1209 1.481 . S
C1212 C1213 1.297 . S
C1212 H1226 0.950 . S
C1213 C1212 1.297 . S
C1213 C1214 1.479 . S
C1213 H1227 0.950 . S
C1214 C1213 1.479 . S
C1214 C1215 1.375 . S
C1214 C1220 1.404 . S
C1215 C1214 1.375 . S
C1215 C1216 1.369 . S
C1215 H1228 0.950 . S
C1216 C1215 1.369 . S
C1216 C1217 1.392 . S
C1216 H1229 0.951 . S
C1217 C1216 1.392 . S
C1217 C1219 1.384 . S
H1218 C1220 0.949 . S
C1219 C1217 1.384 . S
C1219 C1220 1.385 . S
C1219 H1221 0.950 . S
C1220 C1214 1.404 . S
C1220 H1218 0.949 . S
C1220 C1219 1.385 . S
H1221 C1219 0.950 . S
H1222 C1206 0.951 . S
H1223 C1208 0.951 . S
H1224 C1210 0.951 . S
H1225 C1211 0.950 . S
H1226 C1212 0.950 . S
H1227 C1213 0.950 . S
H1228 C1215 0.950 . S
H1229 C1216 0.951 . S
C1230 C1231 1.386 . S
C1230 C1232 1.383 . S
C1230 H1246 0.951 . S
C1231 C1230 1.386 . S
C1231 C1235 1.383 . S
C1232 C1230 1.383 . S
C1232 C1233 1.402 . S
C1232 H1247 0.951 . S
C1233 C1232 1.402 . S
C1233 C1234 1.375 . S
C1233 C1236 1.481 . S
C1234 C1233 1.375 . S
C1234 C1235 1.367 . S
C1234 H1248 0.951 . S
C1235 C1231 1.383 . S
C1235 C1234 1.367 . S
C1235 H1249 0.950 . S
C1236 C1233 1.481 . S
C1236 C1237 1.297 . S
C1236 H1250 0.950 . S
C1237 C1236 1.297 . S
C1237 C1238 1.479 . S
C1237 H1251 0.950 . S
C1238 C1237 1.479 . S
C1238 C1239 1.375 . S
C1238 C1244 1.404 . S
C1239 C1238 1.375 . S
C1239 C1240 1.369 . S
C1239 H1252 0.950 . S
C1240 C1239 1.369 . S
C1240 C1241 1.392 . S
C1240 H1253 0.951 . S
C1241 C1240 1.392 . S
C1241 C1243 1.384 . S
H1242 C1244 0.949 . S
C1243 C1241 1.384 . S
C1243 C1244 1.385 . S
C1243 H1245 0.950 . S
C1244 C1238 1.404 . S
C1244 H1242 0.949 . S
C1244 C1243 1.385 . S
H1245 C1243 0.950 . S
H1246 C1230 0.951 . S
H1247 C1232 0.951 . S
H1248 C1234 0.951 . S
H1249 C1235 0.950 . S
H1250 C1236 0.950 . S
H1251 C1237 0.950 . S
H1252 C1239 0.950 . S
H1253 C1240 0.951 . S
C1254 C1255 1.386 . S
C1254 C1256 1.383 . S
C1254 H1270 0.951 . S
C1255 C1254 1.386 . S
C1255 C1259 1.383 . S
C1256 C1254 1.383 . S
C1256 C1257 1.402 . S
C1256 H1271 0.951 . S
C1257 C1256 1.402 . S
C1257 C1258 1.375 . S
C1257 C1260 1.481 . S
C1258 C1257 1.375 . S
C1258 C1259 1.367 . S
C1258 H1272 0.951 . S
C1259 C1255 1.383 . S
C1259 C1258 1.367 . S
C1259 H1273 0.950 . S
C1260 C1257 1.481 . S
C1260 C1261 1.297 . S
C1260 H1274 0.950 . S
C1261 C1260 1.297 . S
C1261 C1262 1.479 . S
C1261 H1275 0.950 . S
C1262 C1261 1.479 . S
C1262 C1263 1.375 . S
C1262 C1268 1.404 . S
C1263 C1262 1.375 . S
C1263 C1264 1.369 . S
C1263 H1276 0.950 . S
C1264 C1263 1.369 . S
C1264 C1265 1.392 . S
C1264 H1277 0.951 . S
C1265 C1264 1.392 . S
C1265 C1267 1.384 . S
H1266 C1268 0.949 . S
C1267 C1265 1.384 . S
C1267 C1268 1.385 . S
C1267 H1269 0.950 . S
C1268 C1262 1.404 . S
C1268 H1266 0.949 . S
C1268 C1267 1.385 . S
H1269 C1267 0.950 . S
H1270 C1254 0.951 . S
H1271 C1256 0.951 . S
H1272 C1258 0.951 . S
H1273 C1259 0.950 . S
H1274 C1260 0.950 . S
H1275 C1261 0.950 . S
H1276 C1263 0.950 . S
H1277 C1264 0.951 . S
C1278 C1279 1.386 . S
C1278 C1280 1.383 . S
C1278 H1294 0.951 . S
C1279 C1278 1.386 . S
C1279 C1283 1.383 . S
C1280 C1278 1.383 . S
C1280 C1281 1.402 . S
C1280 H1295 0.951 . S
C1281 C1280 1.402 . S
C1281 C1282 1.375 . S
C1281 C1284 1.481 . S
C1282 C1281 1.375 . S
C1282 C1283 1.367 . S
C1282 H1296 0.951 . S
C1283 C1279 1.383 . S
C1283 C1282 1.367 . S
C1283 H1297 0.950 . S
C1284 C1281 1.481 . S
C1284 C1285 1.297 . S
C1284 H1298 0.950 . S
C1285 C1284 1.297 . S
C1285 C1286 1.479 . S
C1285 H1299 0.950 . S
C1286 C1285 1.479 . S
C1286 C1287 1.375 . S
C1286 C1292 1.404 . S
C1287 C1286 1.375 . S
C1287 C1288 1.369 . S
C1287 H1300 0.950 . S
C1288 C1287 1.369 . S
C1288 C1289 1.392 . S
C1288 H1301 0.951 . S
C1289 C1288 1.392 . S
C1289 C1291 1.384 . S
H1290 C1292 0.949 . S
C1291 C1289 1.384 . S
C1291 C1292 1.385 . S
C1291 H1293 0.950 . S
C1292 C1286 1.404 . S
C1292 H1290 0.949 . S
C1292 C1291 1.385 . S
H1293 C1291 0.950 . S
H1294 C1278 0.951 . S
H1295 C1280 0.951 . S
H1296 C1282 0.951 . S
H1297 C1283 0.950 . S
H1298 C1284 0.950 . S
H1299 C1285 0.950 . S
H1300 C1287 0.950 . S
H1301 C1288 0.951 . S
C1302 C1303 1.386 . S
C1302 C1304 1.383 . S
C1302 H1318 0.951 . S
C1303 C1302 1.386 . S
C1303 C1307 1.383 . S
C1304 C1302 1.383 . S
C1304 C1305 1.402 . S
C1304 H1319 0.951 . S
C1305 C1304 1.402 . S
C1305 C1306 1.375 . S
C1305 C1308 1.481 . S
C1306 C1305 1.375 . S
C1306 C1307 1.367 . S
C1306 H1320 0.951 . S
C1307 C1303 1.383 . S
C1307 C1306 1.367 . S
C1307 H1321 0.950 . S
C1308 C1305 1.481 . S
C1308 C1309 1.297 . S
C1308 H1322 0.950 . S
C1309 C1308 1.297 . S
C1309 C1310 1.479 . S
C1309 H1323 0.950 . S
C1310 C1309 1.479 . S
C1310 C1311 1.375 . S
C1310 C1316 1.404 . S
C1311 C1310 1.375 . S
C1311 C1312 1.369 . S
C1311 H1324 0.950 . S
C1312 C1311 1.369 . S
C1312 C1313 1.392 . S
C1312 H1325 0.951 . S
C1313 C1312 1.392 . S
C1313 C1315 1.384 . S
H1314 C1316 0.949 . S
C1315 C1313 1.384 . S
C1315 C1316 1.385 . S
C1315 H1317 0.950 . S
C1316 C1310 1.404 . S
C1316 H1314 0.949 . S
C1316 C1315 1.385 . S
H1317 C1315 0.950 . S
H1318 C1302 0.951 . S
H1319 C1304 0.951 . S
H1320 C1306 0.951 . S
H1321 C1307 0.950 . S
H1322 C1308 0.950 . S
H1323 C1309 0.950 . S
H1324 C1311 0.950 . S
H1325 C1312 0.951 . S
C1326 C1327 1.386 . S
C1326 C1328 1.383 . S
C1326 H1342 0.951 . S
C1327 C1326 1.386 . S
C1327 C1331 1.383 . S
C1328 C1326 1.383 . S
C1328 C1329 1.402 . S
C1328 H1343 0.951 . S
C1329 C1328 1.402 . S
C1329 C1330 1.375 . S
C1329 C1332 1.481 . S
C1330 C1329 1.375 . S
C1330 C1331 1.367 . S
C1330 H1344 0.951 . S
C1331 C1327 1.383 . S
C1331 C1330 1.367 . S
C1331 H1345 0.950 . S
C1332 C1329 1.481 . S
C1332 C1333 1.297 . S
C1332 H1346 0.950 . S
C1333 C1332 1.297 . S
C1333 C1334 1.479 . S
C1333 H1347 0.950 . S
C1334 C1333 1.479 . S
C1334 C1335 1.375 . S
C1334 C1340 1.404 . S
C1335 C1334 1.375 . S
C1335 C1336 1.369 . S
C1335 H1348 0.950 . S
C1336 C1335 1.369 . S
C1336 C1337 1.392 . S
C1336 H1349 0.951 . S
C1337 C1336 1.392 . S
C1337 C1339 1.384 . S
H1338 C1340 0.949 . S
C1339 C1337 1.384 . S
C1339 C1340 1.385 . S
C1339 H1341 0.950 . S
C1340 C1334 1.404 . S
C1340 H1338 0.949 . S
C1340 C1339 1.385 . S
H1341 C1339 0.950 . S
H1342 C1326 0.951 . S
H1343 C1328 0.951 . S
H1344 C1330 0.951 . S
H1345 C1331 0.950 . S
H1346 C1332 0.950 . S
H1347 C1333 0.950 . S
H1348 C1335 0.950 . S
H1349 C1336 0.951 . S
C1350 C1351 1.386 . S
C1350 C1352 1.383 . S
C1350 H1366 0.951 . S
C1351 C1350 1.386 . S
C1351 C1355 1.383 . S
C1352 C1350 1.383 . S
C1352 C1353 1.402 . S
C1352 H1367 0.951 . S
C1353 C1352 1.402 . S
C1353 C1354 1.375 . S
C1353 C1356 1.481 . S
C1354 C1353 1.375 . S
C1354 C1355 1.367 . S
C1354 H1368 0.951 . S
C1355 C1351 1.383 . S
C1355 C1354 1.367 . S
C1355 H1369 0.950 . S
C1356 C1353 1.481 . S
C1356 C1357 1.297 . S
C1356 H1370 0.950 . S
C1357 C1356 1.297 . S
C1357 C1358 1.479 . S
C1357 H1371 0.950 . S
C1358 C1357 1.479 . S
C1358 C1359 1.375 . S
C1358 C1364 1.404 . S
C1359 C1358 1.375 . S
C1359 C1360 1.369 . S
C1359 H1372 0.950 . S
C1360 C1359 1.369 . S
C1360 C1361 1.392 . S
C1360 H1373 0.951 . S
C1361 C1360 1.392 . S
C1361 C1363 1.384 . S
H1362 C1364 0.949 . S
C1363 C1361 1.384 . S
C1363 C1364 1.385 . S
C1363 H1365 0.950 . S
C1364 C1358 1.404 . S
C1364 H1362 0.949 . S
C1364 C1363 1.385 . S
H1365 C1363 0.950 . S
H1366 C1350 0.951 . S
H1367 C1352 0.951 . S
H1368 C1354 0.951 . S
H1369 C1355 0.950 . S
H1370 C1356 0.950 . S
H1371 C1357 0.950 . S
H1372 C1359 0.950 . S
H1373 C1360 0.951 . S
C1374 C1375 1.386 . S
C1374 C1376 1.383 . S
C1374 H1390 0.951 . S
C1375 C1374 1.386 . S
C1375 C1379 1.383 . S
C1376 C1374 1.383 . S
C1376 C1377 1.402 . S
C1376 H1391 0.951 . S
C1377 C1376 1.402 . S
C1377 C1378 1.375 . S
C1377 C1380 1.481 . S
C1378 C1377 1.375 . S
C1378 C1379 1.367 . S
C1378 H1392 0.951 . S
C1379 C1375 1.383 . S
C1379 C1378 1.367 . S
C1379 H1393 0.950 . S
C1380 C1377 1.481 . S
C1380 C1381 1.297 . S
C1380 H1394 0.950 . S
C1381 C1380 1.297 . S
C1381 C1382 1.479 . S
C1381 H1395 0.950 . S
C1382 C1381 1.479 . S
C1382 C1383 1.375 . S
C1382 C1388 1.404 . S
C1383 C1382 1.375 . S
C1383 C1384 1.369 . S
C1383 H1396 0.950 . S
C1384 C1383 1.369 . S
C1384 C1385 1.392 . S
C1384 H1397 0.951 . S
C1385 C1384 1.392 . S
C1385 C1387 1.384 . S
H1386 C1388 0.949 . S
C1387 C1385 1.384 . S
C1387 C1388 1.385 . S
C1387 H1389 0.950 . S
C1388 C1382 1.404 . S
C1388 H1386 0.949 . S
C1388 C1387 1.385 . S
H1389 C1387 0.950 . S
H1390 C1374 0.951 . S
H1391 C1376 0.951 . S
H1392 C1378 0.951 . S
H1393 C1379 0.950 . S
H1394 C1380 0.950 . S
H1395 C1381 0.950 . S
H1396 C1383 0.950 . S
H1397 C1384 0.951 . S
C1398 C1399 1.386 . S
C1398 C1400 1.383 . S
C1398 H1414 0.951 . S
C1399 C1398 1.386 . S
C1399 C1403 1.383 . S
C1400 C1398 1.383 . S
C1400 C1401 1.402 . S
C1400 H1415 0.951 . S
C1401 C1400 1.402 . S
C1401 C1402 1.375 . S
C1401 C1404 1.481 . S
C1402 C1401 1.375 . S
C1402 C1403 1.367 . S
C1402 H1416 0.951 . S
C1403 C1399 1.383 . S
C1403 C1402 1.367 . S
C1403 H1417 0.950 . S
C1404 C1401 1.481 . S
C1404 C1405 1.297 . S
C1404 H1418 0.950 . S
C1405 C1404 1.297 . S
C1405 C1406 1.479 . S
C1405 H1419 0.950 . S
C1406 C1405 1.479 . S
C1406 C1407 1.375 . S
C1406 C1412 1.404 . S
C1407 C1406 1.375 . S
C1407 C1408 1.369 . S
C1407 H1420 0.950 . S
C1408 C1407 1.369 . S
C1408 C1409 1.392 . S
C1408 H1421 0.951 . S
C1409 C1408 1.392 . S
C1409 C1411 1.384 . S
H1410 C1412 0.949 . S
C1411 C1409 1.384 . S
C1411 C1412 1.385 . S
C1411 H1413 0.950 . S
C1412 C1406 1.404 . S
C1412 H1410 0.949 . S
C1412 C1411 1.385 . S
H1413 C1411 0.950 . S
H1414 C1398 0.951 . S
H1415 C1400 0.951 . S
H1416 C1402 0.951 . S
H1417 C1403 0.950 . S
H1418 C1404 0.950 . S
H1419 C1405 0.950 . S
H1420 C1407 0.950 . S
H1421 C1408 0.951 . S
C1422 C1423 1.386 . S
C1422 C1424 1.383 . S
C1422 H1438 0.951 . S
C1423 C1422 1.386 . S
C1423 C1427 1.383 . S
C1424 C1422 1.383 . S
C1424 C1425 1.402 . S
C1424 H1439 0.951 . S
C1425 C1424 1.402 . S
C1425 C1426 1.375 . S
C1425 C1428 1.481 . S
C1426 C1425 1.375 . S
C1426 C1427 1.367 . S
C1426 H1440 0.951 . S
C1427 C1423 1.383 . S
C1427 C1426 1.367 . S
C1427 H1441 0.950 . S
C1428 C1425 1.481 . S
C1428 C1429 1.297 . S
C1428 H1442 0.950 . S
C1429 C1428 1.297 . S
C1429 C1430 1.479 . S
C1429 H1443 0.950 . S
C1430 C1429 1.479 . S
C1430 C1431 1.375 . S
C1430 C1436 1.404 . S
C1431 C1430 1.375 . S
C1431 C1432 1.369 . S
C1431 H1444 0.950 . S
C1432 C1431 1.369 . S
C1432 C1433 1.392 . S
C1432 H1445 0.951 . S
C1433 C1432 1.392 . S
C1433 C1435 1.384 . S
H1434 C1436 0.949 . S
C1435 C1433 1.384 . S
C1435 C1436 1.385 . S
C1435 H1437 0.950 . S
C1436 C1430 1.404 . S
C1436 H1434 0.949 . S
C1436 C1435 1.385 . S
H1437 C1435 0.950 . S
H1438 C1422 0.951 . S
H1439 C1424 0.951 . S
H1440 C1426 0.951 . S
H1441 C1427 0.950 . S
H1442 C1428 0.950 . S
H1443 C1429 0.950 . S
H1444 C1431 0.950 . S
H1445 C1432 0.951 . S
C1446 C1447 1.386 . S
C1446 C1448 1.383 . S
C1446 H1462 0.951 . S
C1447 C1446 1.386 . S
C1447 C1451 1.383 . S
C1448 C1446 1.383 . S
C1448 C1449 1.402 . S
C1448 H1463 0.951 . S
C1449 C1448 1.402 . S
C1449 C1450 1.375 . S
C1449 C1452 1.481 . S
C1450 C1449 1.375 . S
C1450 C1451 1.367 . S
C1450 H1464 0.951 . S
C1451 C1447 1.383 . S
C1451 C1450 1.367 . S
C1451 H1465 0.950 . S
C1452 C1449 1.481 . S
C1452 C1453 1.297 . S
C1452 H1466 0.950 . S
C1453 C1452 1.297 . S
C1453 C1454 1.479 . S
C1453 H1467 0.950 . S
C1454 C1453 1.479 . S
C1454 C1455 1.375 . S
C1454 C1460 1.404 . S
C1455 C1454 1.375 . S
C1455 C1456 1.369 . S
C1455 H1468 0.950 . S
C1456 C1455 1.369 . S
C1456 C1457 1.392 . S
C1456 H1469 0.951 . S
C1457 C1456 1.392 . S
C1457 C1459 1.384 . S
H1458 C1460 0.949 . S
C1459 C1457 1.384 . S
C1459 C1460 1.385 . S
C1459 H1461 0.950 . S
C1460 C1454 1.404 . S
C1460 H1458 0.949 . S
C1460 C1459 1.385 . S
H1461 C1459 0.950 . S
H1462 C1446 0.951 . S
H1463 C1448 0.951 . S
H1464 C1450 0.951 . S
H1465 C1451 0.950 . S
H1466 C1452 0.950 . S
H1467 C1453 0.950 . S
H1468 C1455 0.950 . S
H1469 C1456 0.951 . S
C1470 C1471 1.386 . S
C1470 C1472 1.383 . S
C1470 H1486 0.951 . S
C1471 C1470 1.386 . S
C1471 C1475 1.383 . S
C1472 C1470 1.383 . S
C1472 C1473 1.402 . S
C1472 H1487 0.951 . S
C1473 C1472 1.402 . S
C1473 C1474 1.375 . S
C1473 C1476 1.481 . S
C1474 C1473 1.375 . S
C1474 C1475 1.367 . S
C1474 H1488 0.951 . S
C1475 C1471 1.383 . S
C1475 C1474 1.367 . S
C1475 H1489 0.950 . S
C1476 C1473 1.481 . S
C1476 C1477 1.297 . S
C1476 H1490 0.950 . S
C1477 C1476 1.297 . S
C1477 C1478 1.479 . S
C1477 H1491 0.950 . S
C1478 C1477 1.479 . S
C1478 C1479 1.375 . S
C1478 C1484 1.404 . S
C1479 C1478 1.375 . S
C1479 C1480 1.369 . S
C1479 H1492 0.950 . S
C1480 C1479 1.369 . S
C1480 C1481 1.392 . S
C1480 H1493 0.951 . S
C1481 C1480 1.392 . S
C1481 C1483 1.384 . S
H1482 C1484 0.949 . S
C1483 C1481 1.384 . S
C1483 C1484 1.385 . S
C1483 H1485 0.950 . S
C1484 C1478 1.404 . S
C1484 H1482 0.949 . S
C1484 C1483 1.385 . S
H1485 C1483 0.950 . S
H1486 C1470 0.951 . S
H1487 C1472 0.951 . S
H1488 C1474 0.951 . S
H1489 C1475 0.950 . S
H1490 C1476 0.950 . S
H1491 C1477 0.950 . S
H1492 C1479 0.950 . S
H1493 C1480 0.951 . S
C1494 C1495 1.386 . S
C1494 C1496 1.383 . S
C1494 H1510 0.951 . S
C1495 C1494 1.386 . S
C1495 C1499 1.383 . S
C1496 C1494 1.383 . S
C1496 C1497 1.402 . S
C1496 H1511 0.951 . S
C1497 C1496 1.402 . S
C1497 C1498 1.375 . S
C1497 C1500 1.481 . S
C1498 C1497 1.375 . S
C1498 C1499 1.367 . S
C1498 H1512 0.951 . S
C1499 C1495 1.383 . S
C1499 C1498 1.367 . S
C1499 H1513 0.950 . S
C1500 C1497 1.481 . S
C1500 C1501 1.297 . S
C1500 H1514 0.950 . S
C1501 C1500 1.297 . S
C1501 C1502 1.479 . S
C1501 H1515 0.950 . S
C1502 C1501 1.479 . S
C1502 C1503 1.375 . S
C1502 C1508 1.404 . S
C1503 C1502 1.375 . S
C1503 C1504 1.369 . S
C1503 H1516 0.950 . S
C1504 C1503 1.369 . S
C1504 C1505 1.392 . S
C1504 H1517 0.951 . S
C1505 C1504 1.392 . S
C1505 C1507 1.384 . S
H1506 C1508 0.949 . S
C1507 C1505 1.384 . S
C1507 C1508 1.385 . S
C1507 H1509 0.950 . S
C1508 C1502 1.404 . S
C1508 H1506 0.949 . S
C1508 C1507 1.385 . S
H1509 C1507 0.950 . S
H1510 C1494 0.951 . S
H1511 C1496 0.951 . S
H1512 C1498 0.951 . S
H1513 C1499 0.950 . S
H1514 C1500 0.950 . S
H1515 C1501 0.950 . S
H1516 C1503 0.950 . S
H1517 C1504 0.951 . S
C1518 C1519 1.386 . S
C1518 C1520 1.383 . S
C1518 H1534 0.951 . S
C1519 C1518 1.386 . S
C1519 C1523 1.383 . S
C1520 C1518 1.383 . S
C1520 C1521 1.402 . S
C1520 H1535 0.951 . S
C1521 C1520 1.402 . S
C1521 C1522 1.375 . S
C1521 C1524 1.481 . S
C1522 C1521 1.375 . S
C1522 C1523 1.367 . S
C1522 H1536 0.951 . S
C1523 C1519 1.383 . S
C1523 C1522 1.367 . S
C1523 H1537 0.950 . S
C1524 C1521 1.481 . S
C1524 C1525 1.297 . S
C1524 H1538 0.950 . S
C1525 C1524 1.297 . S
C1525 C1526 1.479 . S
C1525 H1539 0.950 . S
C1526 C1525 1.479 . S
C1526 C1527 1.375 . S
C1526 C1532 1.404 . S
C1527 C1526 1.375 . S
C1527 C1528 1.369 . S
C1527 H1540 0.950 . S
C1528 C1527 1.369 . S
C1528 C1529 1.392 . S
C1528 H1541 0.951 . S
C1529 C1528 1.392 . S
C1529 C1531 1.384 . S
H1530 C1532 0.949 . S
C1531 C1529 1.384 . S
C1531 C1532 1.385 . S
C1531 H1533 0.950 . S
C1532 C1526 1.404 . S
C1532 H1530 0.949 . S
C1532 C1531 1.385 . S
H1533 C1531 0.950 . S
H1534 C1518 0.951 . S
H1535 C1520 0.951 . S
H1536 C1522 0.951 . S
H1537 C1523 0.950 . S
H1538 C1524 0.950 . S
H1539 C1525 0.950 . S
H1540 C1527 0.950 . S
H1541 C1528 0.951 . S
C1542 C1543 1.386 . S
C1542 C1544 1.383 . S
C1542 H1558 0.951 . S
C1543 C1542 1.386 . S
C1543 C1547 1.383 . S
C1544 C1542 1.383 . S
C1544 C1545 1.402 . S
C1544 H1559 0.951 . S
C1545 C1544 1.402 . S
C1545 C1546 1.375 . S
C1545 C1548 1.481 . S
C1546 C1545 1.375 . S
C1546 C1547 1.367 . S
C1546 H1560 0.951 . S
C1547 C1543 1.383 . S
C1547 C1546 1.367 . S
C1547 H1561 0.950 . S
C1548 C1545 1.481 . S
C1548 C1549 1.297 . S
C1548 H1562 0.950 . S
C1549 C1548 1.297 . S
C1549 C1550 1.479 . S
C1549 H1563 0.950 . S
C1550 C1549 1.479 . S
C1550 C1551 1.375 . S
C1550 C1556 1.404 . S
C1551 C1550 1.375 . S
C1551 C1552 1.369 . S
C1551 H1564 0.950 . S
C1552 C1551 1.369 . S
C1552 C1553 1.392 . S
C1552 H1565 0.951 . S
C1553 C1552 1.392 . S
C1553 C1555 1.384 . S
H1554 C1556 0.949 . S
C1555 C1553 1.384 . S
C1555 C1556 1.385 . S
C1555 H1557 0.950 . S
C1556 C1550 1.404 . S
C1556 H1554 0.949 . S
C1556 C1555 1.385 . S
H1557 C1555 0.950 . S
H1558 C1542 0.951 . S
H1559 C1544 0.951 . S
H1560 C1546 0.951 . S
H1561 C1547 0.950 . S
H1562 C1548 0.950 . S
H1563 C1549 0.950 . S
H1564 C1551 0.950 . S
H1565 C1552 0.951 . S
C1566 C1567 1.386 1_554 S
C1566 C1568 1.383 1_554 S
C1566 H1582 0.951 . S
C1567 C1566 1.386 1_556 S
C1567 C1571 1.383 . S
C1568 C1566 1.383 1_556 S
C1568 C1569 1.402 . S
C1568 H1583 0.951 . S
C1569 C1568 1.402 . S
C1569 C1570 1.375 . S
C1569 C1572 1.481 . S
C1570 C1569 1.375 . S
C1570 C1571 1.367 . S
C1570 H1584 0.951 . S
C1571 C1567 1.383 . S
C1571 C1570 1.367 . S
C1571 H1585 0.950 . S
C1572 C1569 1.481 . S
C1572 C1573 1.297 . S
C1572 H1586 0.950 . S
C1573 C1572 1.297 . S
C1573 C1574 1.479 . S
C1573 H1587 0.950 . S
C1574 C1573 1.479 . S
C1574 C1575 1.375 . S
C1574 C1580 1.404 . S
C1575 C1574 1.375 . S
C1575 C1576 1.369 . S
C1575 H1588 0.950 . S
C1576 C1575 1.369 . S
C1576 C1577 1.392 . S
C1576 H1589 0.951 . S
C1577 C1576 1.392 . S
C1577 C1579 1.384 . S
H1578 C1580 0.949 . S
C1579 C1577 1.384 . S
C1579 C1580 1.385 . S
C1579 H1581 0.950 . S
C1580 C1574 1.404 . S
C1580 H1578 0.949 . S
C1580 C1579 1.385 . S
H1581 C1579 0.950 . S
H1582 C1566 0.951 . S
H1583 C1568 0.951 . S
H1584 C1570 0.951 . S
H1585 C1571 0.950 . S
H1586 C1572 0.950 . S
H1587 C1573 0.950 . S
H1588 C1575 0.950 . S
H1589 C1576 0.951 . S
C1590 C1591 1.386 . S
C1590 C1592 1.383 . S
C1590 H1606 0.951 . S
C1591 C1590 1.386 . S
C1591 C1595 1.383 . S
C1592 C1590 1.383 . S
C1592 C1593 1.402 . S
C1592 H1607 0.951 . S
C1593 C1592 1.402 . S
C1593 C1594 1.375 . S
C1593 C1596 1.481 . S
C1594 C1593 1.375 . S
C1594 C1595 1.367 . S
C1594 H1608 0.951 . S
C1595 C1591 1.383 . S
C1595 C1594 1.367 . S
C1595 H1609 0.950 1_556 S
C1596 C1593 1.481 . S
C1596 C1597 1.297 . S
C1596 H1610 0.950 . S
C1597 C1596 1.297 . S
C1597 C1598 1.479 . S
C1597 H1611 0.950 . S
C1598 C1597 1.479 . S
C1598 C1599 1.375 . S
C1598 C1604 1.404 . S
C1599 C1598 1.375 . S
C1599 C1600 1.369 . S
C1599 H1612 0.950 . S
C1600 C1599 1.369 . S
C1600 C1601 1.392 . S
C1600 H1613 0.951 . S
C1601 C1600 1.392 . S
C1601 C1603 1.384 . S
H1602 C1604 0.949 . S
C1603 C1601 1.384 . S
C1603 C1604 1.385 . S
C1603 H1605 0.950 . S
C1604 C1598 1.404 . S
C1604 H1602 0.949 . S
C1604 C1603 1.385 . S
H1605 C1603 0.950 . S
H1606 C1590 0.951 . S
H1607 C1592 0.951 . S
H1608 C1594 0.951 . S
H1609 C1595 0.950 1_554 S
H1610 C1596 0.950 . S
H1611 C1597 0.950 . S
H1612 C1599 0.950 . S
H1613 C1600 0.951 . S
C1614 C1615 1.386 . S
C1614 C1616 1.383 . S
C1614 H1630 0.951 . S
C1615 C1614 1.386 . S
C1615 C1619 1.383 1_556 S
C1616 C1614 1.383 . S
C1616 C1617 1.402 . S
C1616 H1631 0.951 . S
C1617 C1616 1.402 . S
C1617 C1618 1.375 1_556 S
C1617 C1620 1.481 . S
C1618 C1617 1.375 1_554 S
C1618 C1619 1.367 . S
C1618 H1632 0.951 . S
C1619 C1615 1.383 1_554 S
C1619 C1618 1.367 . S
C1619 H1633 0.950 . S
C1620 C1617 1.481 . S
C1620 C1621 1.297 . S
C1620 H1634 0.950 . S
C1621 C1620 1.297 . S
C1621 C1622 1.479 . S
C1621 H1635 0.950 . S
C1622 C1621 1.479 . S
C1622 C1623 1.375 . S
C1622 C1628 1.404 . S
C1623 C1622 1.375 . S
C1623 C1624 1.369 . S
C1623 H1636 0.950 . S
C1624 C1623 1.369 . S
C1624 C1625 1.392 . S
C1624 H1637 0.951 . S
C1625 C1624 1.392 . S
C1625 C1627 1.384 . S
H1626 C1628 0.949 . S
C1627 C1625 1.384 . S
C1627 C1628 1.385 . S
C1627 H1629 0.950 . S
C1628 C1622 1.404 . S
C1628 H1626 0.949 . S
C1628 C1627 1.385 . S
H1629 C1627 0.950 . S
H1630 C1614 0.951 . S
H1631 C1616 0.951 . S
H1632 C1618 0.951 . S
H1633 C1619 0.950 . S
H1634 C1620 0.950 . S
H1635 C1621 0.950 . S
H1636 C1623 0.950 . S
H1637 C1624 0.951 . S
C1638 C1639 1.386 . S
C1638 C1640 1.383 . S
C1638 H1654 0.951 1_556 S
C1639 C1638 1.386 . S
C1639 C1643 1.383 . S
C1640 C1638 1.383 . S
C1640 C1641 1.402 . S
C1640 H1655 0.951 . S
C1641 C1640 1.402 . S
C1641 C1642 1.375 . S
C1641 C1644 1.481 . S
C1642 C1641 1.375 . S
C1642 C1643 1.367 . S
C1642 H1656 0.951 . S
C1643 C1639 1.383 . S
C1643 C1642 1.367 . S
C1643 H1657 0.950 . S
C1644 C1641 1.481 . S
C1644 C1645 1.297 . S
C1644 H1658 0.950 . S
C1645 C1644 1.297 . S
C1645 C1646 1.479 . S
C1645 H1659 0.950 . S
C1646 C1645 1.479 . S
C1646 C1647 1.375 . S
C1646 C1652 1.404 . S
C1647 C1646 1.375 . S
C1647 C1648 1.369 . S
C1647 H1660 0.950 . S
C1648 C1647 1.369 . S
C1648 C1649 1.392 . S
C1648 H1661 0.951 . S
C1649 C1648 1.392 . S
C1649 C1651 1.384 . S
H1650 C1652 0.949 . S
C1651 C1649 1.384 . S
C1651 C1652 1.385 . S
C1651 H1653 0.950 . S
C1652 C1646 1.404 . S
C1652 H1650 0.949 . S
C1652 C1651 1.385 . S
H1653 C1651 0.950 . S
H1654 C1638 0.951 1_554 S
H1655 C1640 0.951 . S
H1656 C1642 0.951 . S
H1657 C1643 0.950 . S
H1658 C1644 0.950 . S
H1659 C1645 0.950 . S
H1660 C1647 0.950 . S
H1661 C1648 0.951 . S
C1662 C1663 1.386 . S
C1662 C1664 1.383 . S
C1662 H1678 0.951 . S
C1663 C1662 1.386 . S
C1663 C1667 1.383 . S
C1664 C1662 1.383 . S
C1664 C1665 1.402 . S
C1664 H1679 0.951 . S
C1665 C1664 1.402 . S
C1665 C1666 1.375 . S
C1665 C1668 1.481 . S
C1666 C1665 1.375 . S
C1666 C1667 1.367 . S
C1666 H1680 0.951 . S
C1667 C1663 1.383 . S
C1667 C1666 1.367 . S
C1667 H1681 0.933 1_556 S
C1668 C1665 1.481 . S
C1668 C1669 1.297 . S
C1668 H1682 0.950 . S
C1669 C1668 1.297 . S
C1669 C1670 1.479 . S
C1669 H1683 0.950 . S
C1670 C1669 1.479 . S
C1670 C1671 1.375 . S
C1670 C1676 1.404 . S
C1671 C1670 1.375 . S
C1671 C1672 1.369 . S
C1671 H1684 0.950 . S
C1672 C1671 1.369 . S
C1672 C1673 1.392 . S
C1672 H1685 0.951 . S
C1673 C1672 1.392 . S
C1673 C1675 1.384 . S
H1674 C1676 0.949 . S
C1675 C1673 1.384 . S
C1675 C1676 1.385 . S
C1675 H1677 0.950 . S
C1676 C1670 1.404 . S
C1676 H1674 0.949 . S
C1676 C1675 1.385 . S
H1677 C1675 0.950 . S
H1678 C1662 0.951 . S
H1679 C1664 0.951 . S
H1680 C1666 0.951 . S
H1681 C1667 0.933 1_554 S
H1682 C1668 0.950 . S
H1683 C1669 0.950 . S
H1684 C1671 0.950 . S
H1685 C1672 0.951 . S
C1686 C1687 1.386 1_554 S
C1686 C1688 1.383 1_554 S
C1686 H1702 0.951 . S
C1687 C1686 1.386 1_556 S
C1687 C1691 1.383 . S
C1688 C1686 1.383 1_556 S
C1688 C1689 1.402 . S
C1688 H1703 0.951 1_556 S
C1689 C1688 1.402 . S
C1689 C1690 1.375 . S
C1689 C1692 1.481 . S
C1690 C1689 1.375 . S
C1690 C1691 1.367 . S
C1690 H1704 0.951 . S
C1691 C1687 1.383 . S
C1691 C1690 1.367 . S
C1691 H1705 0.950 . S
C1692 C1689 1.481 . S
C1692 C1693 1.297 . S
C1692 H1706 0.950 . S
C1693 C1692 1.297 . S
C1693 C1694 1.479 . S
C1693 H1707 0.950 . S
C1694 C1693 1.479 . S
C1694 C1695 1.375 . S
C1694 C1700 1.404 . S
C1695 C1694 1.375 . S
C1695 C1696 1.369 . S
C1695 H1708 0.950 . S
C1696 C1695 1.369 . S
C1696 C1697 1.392 . S
C1696 H1709 0.951 . S
C1697 C1696 1.392 . S
C1697 C1699 1.384 . S
H1698 C1700 0.949 . S
C1699 C1697 1.384 . S
C1699 C1700 1.385 . S
C1699 H1701 0.950 . S
C1700 C1694 1.404 . S
C1700 H1698 0.949 . S
C1700 C1699 1.385 . S
H1701 C1699 0.950 . S
H1702 C1686 0.951 . S
H1703 C1688 0.951 1_554 S
H1704 C1690 0.951 . S
H1705 C1691 0.950 . S
H1706 C1692 0.950 . S
H1707 C1693 0.950 . S
H1708 C1695 0.950 . S
H1709 C1696 0.951 . S
C1710 C1711 1.386 . S
C1710 C1712 1.383 . S
C1710 H1726 0.951 . S
C1711 C1710 1.386 . S
C1711 C1715 1.383 . S
C1712 C1710 1.383 . S
C1712 C1713 1.402 . S
C1712 H1727 0.951 . S
C1713 C1712 1.402 . S
C1713 C1714 1.375 . S
C1713 C1716 1.481 . S
C1714 C1713 1.375 . S
C1714 C1715 1.367 . S
C1714 H1728 0.951 . S
C1715 C1711 1.383 . S
C1715 C1714 1.367 . S
C1715 H1729 0.950 . S
C1716 C1713 1.481 . S
C1716 C1717 1.297 . S
C1716 H1730 0.950 . S
C1717 C1716 1.297 . S
C1717 C1718 1.479 . S
C1717 H1731 0.950 . S
C1718 C1717 1.479 . S
C1718 C1719 1.375 . S
C1718 C1724 1.404 . S
C1719 C1718 1.375 . S
C1719 C1720 1.369 . S
C1719 H1732 0.950 . S
C1720 C1719 1.369 . S
C1720 C1721 1.392 . S
C1720 H1733 0.951 . S
C1721 C1720 1.392 . S
C1721 C1723 1.384 . S
H1722 C1724 0.949 . S
C1723 C1721 1.384 . S
C1723 C1724 1.385 . S
C1723 H1725 0.950 . S
C1724 C1718 1.404 . S
C1724 H1722 0.949 . S
C1724 C1723 1.385 . S
H1725 C1723 0.950 . S
H1726 C1710 0.951 . S
H1727 C1712 0.951 . S
H1728 C1714 0.951 . S
H1729 C1715 0.950 . S
H1730 C1716 0.950 . S
H1731 C1717 0.950 . S
H1732 C1719 0.950 . S
H1733 C1720 0.951 . S
C1734 C1735 1.386 . S
C1734 C1736 1.383 . S
C1734 H1750 0.951 . S
C1735 C1734 1.386 . S
C1735 C1739 1.383 . S
C1736 C1734 1.383 . S
C1736 C1737 1.402 . S
C1736 H1751 0.951 . S
C1737 C1736 1.402 . S
C1737 C1738 1.375 . S
C1737 C1740 1.481 . S
C1738 C1737 1.375 . S
C1738 C1739 1.367 . S
C1738 H1752 0.951 . S
C1739 C1735 1.383 . S
C1739 C1738 1.367 . S
C1739 H1753 0.950 1_554 S
C1740 C1737 1.481 . S
C1740 C1741 1.297 . S
C1740 H1754 0.950 . S
C1741 C1740 1.297 . S
C1741 C1742 1.479 . S
C1741 H1755 0.950 . S
C1742 C1741 1.479 . S
C1742 C1743 1.375 . S
C1742 C1748 1.404 . S
C1743 C1742 1.375 . S
C1743 C1744 1.369 . S
C1743 H1756 0.950 . S
C1744 C1743 1.369 . S
C1744 C1745 1.392 . S
C1744 H1757 0.951 . S
C1745 C1744 1.392 . S
C1745 C1747 1.384 . S
H1746 C1748 0.949 . S
C1747 C1745 1.384 . S
C1747 C1748 1.385 . S
C1747 H1749 0.950 . S
C1748 C1742 1.404 . S
C1748 H1746 0.949 . S
C1748 C1747 1.385 . S
H1749 C1747 0.950 . S
H1750 C1734 0.951 . S
H1751 C1736 0.951 . S
H1752 C1738 0.951 . S
H1753 C1739 0.950 1_556 S
H1754 C1740 0.950 . S
H1755 C1741 0.950 . S
H1756 C1743 0.950 . S
H1757 C1744 0.951 . S
C1758 C1759 1.386 . S
C1758 C1760 1.383 . S
C1758 H1774 0.951 . S
C1759 C1758 1.386 . S
C1759 C1763 1.383 . S
C1760 C1758 1.383 . S
C1760 C1761 1.402 . S
C1760 H1775 0.951 . S
C1761 C1760 1.402 . S
C1761 C1762 1.375 . S
C1761 C1764 1.481 . S
C1762 C1761 1.375 . S
C1762 C1763 1.367 . S
C1762 H1776 0.951 . S
C1763 C1759 1.383 . S
C1763 C1762 1.367 . S
C1763 H1777 0.957 . S
C1764 C1761 1.481 . S
C1764 C1765 1.297 . S
C1764 H1778 0.950 . S
C1765 C1764 1.297 . S
C1765 C1766 1.479 . S
C1765 H1779 0.950 . S
C1766 C1765 1.479 . S
C1766 C1767 1.375 . S
C1766 C1772 1.404 . S
C1767 C1766 1.375 . S
C1767 C1768 1.369 . S
C1767 H1780 0.950 . S
C1768 C1767 1.369 . S
C1768 C1769 1.392 . S
C1768 H1781 0.951 . S
C1769 C1768 1.392 . S
C1769 C1771 1.384 . S
H1770 C1772 0.949 . S
C1771 C1769 1.384 . S
C1771 C1772 1.385 . S
C1771 H1773 0.950 . S
C1772 C1766 1.404 . S
C1772 H1770 0.949 . S
C1772 C1771 1.385 . S
H1773 C1771 0.950 . S
H1774 C1758 0.951 . S
H1775 C1760 0.951 . S
H1776 C1762 0.951 . S
H1777 C1763 0.957 . S
H1778 C1764 0.950 . S
H1779 C1765 0.950 . S
H1780 C1767 0.950 . S
H1781 C1768 0.951 . S
C1782 C1783 1.386 . S
C1782 C1784 1.383 . S
C1782 H1798 0.951 . S
C1783 C1782 1.386 . S
C1783 C1787 1.383 . S
C1784 C1782 1.383 . S
C1784 C1785 1.402 . S
C1784 H1799 0.951 . S
C1785 C1784 1.402 . S
C1785 C1786 1.375 . S
C1785 C1788 1.481 . S
C1786 C1785 1.375 . S
C1786 C1787 1.367 . S
C1786 H1800 0.951 . S
C1787 C1783 1.383 . S
C1787 C1786 1.367 . S
C1787 H1801 0.950 . S
C1788 C1785 1.481 . S
C1788 C1789 1.297 . S
C1788 H1802 0.950 . S
C1789 C1788 1.297 . S
C1789 C1790 1.479 . S
C1789 H1803 0.950 . S
C1790 C1789 1.479 . S
C1790 C1791 1.375 . S
C1790 C1796 1.404 . S
C1791 C1790 1.375 . S
C1791 C1792 1.369 . S
C1791 H1804 0.950 . S
C1792 C1791 1.369 . S
C1792 C1793 1.392 . S
C1792 H1805 0.951 . S
C1793 C1792 1.392 . S
C1793 C1795 1.384 . S
H1794 C1796 0.949 . S
C1795 C1793 1.384 . S
C1795 C1796 1.385 . S
C1795 H1797 0.950 . S
C1796 C1790 1.404 . S
C1796 H1794 0.949 . S
C1796 C1795 1.385 . S
H1797 C1795 0.950 . S
H1798 C1782 0.951 . S
H1799 C1784 0.951 . S
H1800 C1786 0.951 . S
H1801 C1787 0.950 . S
H1802 C1788 0.950 . S
H1803 C1789 0.950 . S
H1804 C1791 0.950 . S
H1805 C1792 0.951 . S
C1806 C1807 1.386 . S
C1806 C1808 1.383 . S
C1806 H1822 0.951 . S
C1807 C1806 1.386 . S
C1807 C1811 1.383 . S
C1808 C1806 1.383 . S
C1808 C1809 1.402 . S
C1808 H1823 0.951 . S
C1809 C1808 1.402 . S
C1809 C1810 1.375 . S
C1809 C1812 1.481 . S
C1810 C1809 1.375 . S
C1810 C1811 1.367 . S
C1810 H1824 0.951 . S
C1811 C1807 1.383 . S
C1811 C1810 1.367 . S
C1811 H1825 0.950 . S
C1812 C1809 1.481 . S
C1812 C1813 1.297 . S
C1812 H1826 0.950 . S
C1813 C1812 1.297 . S
C1813 C1814 1.479 . S
C1813 H1827 0.950 . S
C1814 C1813 1.479 . S
C1814 C1815 1.375 . S
C1814 C1820 1.404 . S
C1815 C1814 1.375 . S
C1815 C1816 1.369 . S
C1815 H1828 0.950 . S
C1816 C1815 1.369 . S
C1816 C1817 1.392 . S
C1816 H1829 0.951 . S
C1817 C1816 1.392 . S
C1817 C1819 1.384 . S
H1818 C1820 0.949 . S
C1819 C1817 1.384 . S
C1819 C1820 1.385 . S
C1819 H1821 0.950 . S
C1820 C1814 1.404 . S
C1820 H1818 0.949 . S
C1820 C1819 1.385 . S
H1821 C1819 0.950 . S
H1822 C1806 0.951 . S
H1823 C1808 0.951 . S
H1824 C1810 0.951 . S
H1825 C1811 0.950 . S
H1826 C1812 0.950 . S
H1827 C1813 0.950 . S
H1828 C1815 0.950 . S
H1829 C1816 0.951 . S
C1830 C1831 1.386 . S
C1830 C1832 1.383 . S
C1830 H1846 0.951 . S
C1831 C1830 1.386 . S
C1831 C1835 1.383 . S
C1832 C1830 1.383 . S
C1832 C1833 1.402 . S
C1832 H1847 0.951 . S
C1833 C1832 1.402 . S
C1833 C1834 1.375 . S
C1833 C1836 1.481 . S
C1834 C1833 1.375 . S
C1834 C1835 1.367 . S
C1834 H1848 0.951 . S
C1835 C1831 1.383 . S
C1835 C1834 1.367 . S
C1835 H1849 0.950 . S
C1836 C1833 1.481 . S
C1836 C1837 1.297 . S
C1836 H1850 0.950 . S
C1837 C1836 1.297 . S
C1837 C1838 1.479 . S
C1837 H1851 0.950 . S
C1838 C1837 1.479 . S
C1838 C1839 1.375 . S
C1838 C1844 1.404 . S
C1839 C1838 1.375 . S
C1839 C1840 1.369 . S
C1839 H1852 0.950 . S
C1840 C1839 1.369 . S
C1840 C1841 1.392 . S
C1840 H1853 0.951 . S
C1841 C1840 1.392 . S
C1841 C1843 1.384 . S
H1842 C1844 0.949 . S
C1843 C1841 1.384 . S
C1843 C1844 1.385 . S
C1843 H1845 0.950 . S
C1844 C1838 1.404 . S
C1844 H1842 0.949 . S
C1844 C1843 1.385 . S
H1845 C1843 0.950 . S
H1846 C1830 0.951 . S
H1847 C1832 0.951 . S
H1848 C1834 0.951 . S
H1849 C1835 0.950 . S
H1850 C1836 0.950 . S
H1851 C1837 0.950 . S
H1852 C1839 0.950 . S
H1853 C1840 0.951 . S
C1854 C1855 1.386 . S
C1854 C1856 1.383 . S
C1854 H1870 0.951 1_455 S
C1855 C1854 1.386 . S
C1855 C1859 1.383 . S
C1856 C1854 1.383 . S
C1856 C1857 1.402 . S
C1856 H1871 0.951 1_455 S
C1857 C1856 1.402 . S
C1857 C1858 1.375 . S
C1857 C1860 1.481 . S
C1858 C1857 1.375 . S
C1858 C1859 1.367 . S
C1858 H1872 0.951 . S
C1859 C1855 1.383 . S
C1859 C1858 1.367 . S
C1859 H1873 0.950 . S
C1860 C1857 1.481 . S
C1860 C1861 1.297 . S
C1860 H1874 0.950 . S
C1861 C1860 1.297 . S
C1861 C1862 1.479 . S
C1861 H1875 0.950 1_455 S
C1862 C1861 1.479 . S
C1862 C1863 1.375 1_455 S
C1862 C1868 1.404 . S
C1863 C1862 1.375 1_655 S
C1863 C1864 1.369 . S
C1863 H1876 0.950 . S
C1864 C1863 1.369 . S
C1864 C1865 1.392 1_655 S
C1864 H1877 0.951 . S
C1865 C1864 1.392 1_455 S
C1865 C1867 1.384 . S
H1866 C1868 0.949 . S
C1867 C1865 1.384 . S
C1867 C1868 1.385 . S
C1867 H1869 0.950 . S
C1868 C1862 1.404 . S
C1868 H1866 0.949 . S
C1868 C1867 1.385 . S
H1869 C1867 0.950 . S
H1870 C1854 0.951 1_655 S
H1871 C1856 0.951 1_655 S
H1872 C1858 0.951 . S
H1873 C1859 0.950 . S
H1874 C1860 0.950 . S
H1875 C1861 0.950 1_655 S
H1876 C1863 0.950 . S
H1877 C1864 0.951 . S
C1878 C1879 1.386 . S
C1878 C1880 1.383 . S
C1878 H1894 0.951 . S
C1879 C1878 1.386 . S
C1879 C1883 1.383 . S
C1880 C1878 1.383 . S
C1880 C1881 1.402 . S
C1880 H1895 0.951 . S
C1881 C1880 1.402 . S
C1881 C1882 1.375 . S
C1881 C1884 1.481 . S
C1882 C1881 1.375 . S
C1882 C1883 1.367 . S
C1882 H1896 0.951 . S
C1883 C1879 1.383 . S
C1883 C1882 1.367 . S
C1883 H1897 0.950 . S
C1884 C1881 1.481 . S
C1884 C1885 1.297 . S
C1884 H1898 0.950 . S
C1885 C1884 1.297 . S
C1885 C1886 1.479 . S
C1885 H1899 0.950 . S
C1886 C1885 1.479 . S
C1886 C1887 1.375 . S
C1886 C1892 1.404 . S
C1887 C1886 1.375 . S
C1887 C1888 1.369 . S
C1887 H1900 0.950 . S
C1888 C1887 1.369 . S
C1888 C1889 1.392 . S
C1888 H1901 0.951 . S
C1889 C1888 1.392 . S
C1889 C1891 1.384 . S
H1890 C1892 0.949 . S
C1891 C1889 1.384 . S
C1891 C1892 1.385 . S
C1891 H1893 0.950 . S
C1892 C1886 1.404 . S
C1892 H1890 0.949 . S
C1892 C1891 1.385 . S
H1893 C1891 0.950 . S
H1894 C1878 0.951 . S
H1895 C1880 0.951 . S
H1896 C1882 0.951 . S
H1897 C1883 0.950 . S
H1898 C1884 0.950 . S
H1899 C1885 0.950 . S
H1900 C1887 0.950 . S
H1901 C1888 0.951 . S
C1902 C1903 1.386 . S
C1902 C1904 1.383 . S
C1902 H1918 0.951 1_565 S
C1903 C1902 1.386 . S
C1903 C1907 1.383 . S
C1904 C1902 1.383 . S
C1904 C1905 1.402 . S
C1904 H1919 0.951 1_565 S
C1905 C1904 1.402 . S
C1905 C1906 1.375 . S
C1905 C1908 1.481 . S
C1906 C1905 1.375 . S
C1906 C1907 1.367 . S
C1906 H1920 0.951 . S
C1907 C1903 1.383 . S
C1907 C1906 1.367 . S
C1907 H1921 0.950 . S
C1908 C1905 1.481 . S
C1908 C1909 1.318 . S
C1908 H1922 0.950 . S
C1909 C1908 1.318 . S
C1909 C1910 1.481 . S
C1909 H1923 0.901 1_565 S
C1910 C1909 1.481 . S
C1910 C1911 1.356 1_565 S
C1910 C1916 1.447 . S
C1911 C1910 1.356 1_545 S
C1911 C1912 1.369 . S
C1911 H1924 0.950 . S
C1912 C1911 1.369 . S
C1912 C1913 1.392 1_545 S
C1912 H1925 0.951 . S
C1913 C1912 1.392 1_565 S
C1913 C1915 1.384 . S
H1914 C1916 0.949 . S
C1915 C1913 1.384 . S
C1915 C1916 1.385 . S
C1915 H1917 0.950 . S
C1916 C1910 1.447 . S
C1916 H1914 0.949 . S
C1916 C1915 1.385 . S
H1917 C1915 0.950 . S
H1918 C1902 0.951 1_545 S
H1919 C1904 0.951 1_545 S
H1920 C1906 0.951 . S
H1921 C1907 0.950 . S
H1922 C1908 0.950 . S
H1923 C1909 0.901 1_545 S
H1924 C1911 0.950 . S
H1925 C1912 0.951 . S
C1926 C1927 1.386 . S
C1926 C1928 1.383 . S
C1926 H1942 0.951 1_565 S
C1927 C1926 1.386 . S
C1927 C1931 1.383 . S
C1928 C1926 1.383 . S
C1928 C1929 1.402 . S
C1928 H1943 0.951 1_565 S
C1929 C1928 1.402 . S
C1929 C1930 1.375 . S
C1929 C1932 1.481 . S
C1930 C1929 1.375 . S
C1930 C1931 1.367 . S
C1930 H1944 0.951 . S
C1931 C1927 1.383 . S
C1931 C1930 1.367 . S
C1931 H1945 0.950 . S
C1932 C1929 1.481 . S
C1932 C1933 1.297 . S
C1932 H1946 0.950 . S
C1933 C1932 1.297 . S
C1933 C1934 1.479 . S
C1933 H1947 0.950 . S
C1934 C1933 1.479 . S
C1934 C1935 1.375 1_565 S
C1934 C1940 1.404 . S
C1935 C1934 1.375 1_545 S
C1935 C1936 1.369 . S
C1935 H1948 0.950 . S
C1936 C1935 1.369 . S
C1936 C1937 1.392 1_545 S
C1936 H1949 0.951 . S
C1937 C1936 1.392 1_565 S
C1937 C1939 1.384 . S
H1938 C1940 0.949 . S
C1939 C1937 1.384 . S
C1939 C1940 1.385 . S
C1939 H1941 0.950 . S
C1940 C1934 1.404 . S
C1940 H1938 0.949 . S
C1940 C1939 1.385 . S
H1941 C1939 0.950 . S
H1942 C1926 0.951 1_545 S
H1943 C1928 0.951 1_545 S
H1944 C1930 0.951 . S
H1945 C1931 0.950 . S
H1946 C1932 0.950 . S
H1947 C1933 0.950 . S
H1948 C1935 0.950 . S
H1949 C1936 0.951 . S
C1950 C1951 1.386 . S
C1950 C1952 1.383 . S
C1950 H1966 0.951 . S
C1951 C1950 1.386 . S
C1951 C1955 1.383 . S
C1952 C1950 1.383 . S
C1952 C1953 1.402 . S
C1952 H1967 0.951 . S
C1953 C1952 1.402 . S
C1953 C1954 1.375 . S
C1953 C1956 1.481 . S
C1954 C1953 1.375 . S
C1954 C1955 1.367 . S
C1954 H1968 0.951 . S
C1955 C1951 1.383 . S
C1955 C1954 1.367 . S
C1955 H1969 0.950 . S
C1956 C1953 1.481 . S
C1956 C1957 1.297 . S
C1956 H1970 0.950 . S
C1957 C1956 1.297 . S
C1957 C1958 1.475 . S
C1957 H1971 0.950 . S
C1958 C1957 1.475 . S
C1958 C1959 1.383 . S
C1958 C1964 1.402 1_455 S
C1959 C1958 1.383 . S
C1959 C1960 1.369 . S
C1959 H1972 0.950 . S
C1960 C1959 1.369 . S
C1960 C1961 1.386 1_455 S
C1960 H1973 0.951 . S
C1961 C1960 1.386 1_655 S
C1961 C1963 1.422 . S
H1962 C1964 0.949 . S
C1963 C1961 1.422 . S
C1963 C1964 1.385 . S
C1963 H1965 0.950 . S
C1964 C1958 1.402 1_655 S
C1964 H1962 0.949 . S
C1964 C1963 1.385 . S
H1965 C1963 0.950 . S
H1966 C1950 0.951 . S
H1967 C1952 0.951 . S
H1968 C1954 0.951 . S
H1969 C1955 0.950 . S
H1970 C1956 0.950 . S
H1971 C1957 0.950 . S
H1972 C1959 0.950 . S
H1973 C1960 0.951 . S
C1974 C1975 1.386 . S
C1974 C1976 1.383 . S
C1974 H1990 0.951 . S
C1975 C1974 1.386 . S
C1975 C1979 1.383 . S
C1976 C1974 1.383 . S
C1976 C1977 1.402 . S
C1976 H1991 0.951 . S
C1977 C1976 1.402 . S
C1977 C1978 1.375 . S
C1977 C1980 1.481 . S
C1978 C1977 1.375 . S
C1978 C1979 1.367 . S
C1978 H1992 0.951 . S
C1979 C1975 1.383 . S
C1979 C1978 1.367 . S
C1979 H1993 0.950 . S
C1980 C1977 1.481 . S
C1980 C1981 1.297 . S
C1980 H1994 0.950 . S
C1981 C1980 1.297 . S
C1981 C1982 1.479 . S
C1981 H1995 0.950 . S
C1982 C1981 1.479 . S
C1982 C1983 1.375 . S
C1982 C1988 1.404 . S
C1983 C1982 1.375 . S
C1983 C1984 1.369 . S
C1983 H1996 0.950 . S
C1984 C1983 1.369 . S
C1984 C1985 1.392 . S
C1984 H1997 0.951 . S
C1985 C1984 1.392 . S
C1985 C1987 1.384 . S
H1986 C1988 0.949 . S
C1987 C1985 1.384 . S
C1987 C1988 1.385 . S
C1987 H1989 0.950 . S
C1988 C1982 1.404 . S
C1988 H1986 0.949 . S
C1988 C1987 1.385 . S
H1989 C1987 0.950 . S
H1990 C1974 0.951 . S
H1991 C1976 0.951 . S
H1992 C1978 0.951 . S
H1993 C1979 0.950 . S
H1994 C1980 0.950 . S
H1995 C1981 0.950 . S
H1996 C1983 0.950 . S
H1997 C1984 0.951 . S
C1998 C1999 1.386 . S
C1998 C2000 1.383 . S
C1998 H2014 0.951 . S
C1999 C1998 1.386 . S
C1999 C2003 1.383 . S
C2000 C1998 1.383 . S
C2000 C2001 1.402 . S
C2000 H2015 0.951 . S
C2001 C2000 1.402 . S
C2001 C2002 1.375 . S
C2001 C2004 1.481 . S
C2002 C2001 1.375 . S
C2002 C2003 1.367 . S
C2002 H2016 0.951 . S
C2003 C1999 1.383 . S
C2003 C2002 1.367 . S
C2003 H2017 0.950 . S
C2004 C2001 1.481 . S
C2004 C2005 1.297 . S
C2004 H2018 0.950 . S
C2005 C2004 1.297 . S
C2005 C2006 1.479 . S
C2005 H2019 0.950 . S
C2006 C2005 1.479 . S
C2006 C2007 1.375 . S
C2006 C2012 1.404 . S
C2007 C2006 1.375 . S
C2007 C2008 1.369 . S
C2007 H2020 0.950 . S
C2008 C2007 1.369 . S
C2008 C2009 1.392 . S
C2008 H2021 0.951 . S
C2009 C2008 1.392 . S
C2009 C2011 1.384 . S
H2010 C2012 0.949 . S
C2011 C2009 1.384 . S
C2011 C2012 1.385 . S
C2011 H2013 0.950 . S
C2012 C2006 1.404 . S
C2012 H2010 0.949 . S
C2012 C2011 1.385 . S
H2013 C2011 0.950 . S
H2014 C1998 0.951 . S
H2015 C2000 0.951 . S
H2016 C2002 0.951 . S
H2017 C2003 0.950 . S
H2018 C2004 0.950 . S
H2019 C2005 0.950 . S
H2020 C2007 0.950 . S
H2021 C2008 0.951 . S
C2022 C2023 1.386 . S
C2022 C2024 1.383 . S
C2022 H2038 0.951 . S
C2023 C2022 1.386 . S
C2023 C2027 1.383 . S
C2024 C2022 1.383 . S
C2024 C2025 1.402 . S
C2024 H2039 0.951 . S
C2025 C2024 1.402 . S
C2025 C2026 1.375 . S
C2025 C2028 1.481 . S
C2026 C2025 1.375 . S
C2026 C2027 1.367 . S
C2026 H2040 0.951 . S
C2027 C2023 1.383 . S
C2027 C2026 1.367 . S
C2027 H2041 0.950 . S
C2028 C2025 1.481 . S
C2028 C2029 1.297 . S
C2028 H2042 0.950 . S
C2029 C2028 1.297 . S
C2029 C2030 1.479 . S
C2029 H2043 0.950 . S
C2030 C2029 1.479 . S
C2030 C2031 1.375 . S
C2030 C2036 1.404 . S
C2031 C2030 1.375 . S
C2031 C2032 1.369 . S
C2031 H2044 0.950 . S
C2032 C2031 1.369 . S
C2032 C2033 1.392 . S
C2032 H2045 0.951 . S
C2033 C2032 1.392 . S
C2033 C2035 1.384 . S
H2034 C2036 0.949 . S
C2035 C2033 1.384 . S
C2035 C2036 1.385 . S
C2035 H2037 0.950 . S
C2036 C2030 1.404 . S
C2036 H2034 0.949 . S
C2036 C2035 1.385 . S
H2037 C2035 0.950 . S
H2038 C2022 0.951 . S
H2039 C2024 0.951 . S
H2040 C2026 0.951 . S
H2041 C2027 0.950 . S
H2042 C2028 0.950 . S
H2043 C2029 0.950 . S
H2044 C2031 0.950 . S
H2045 C2032 0.951 . S
C2046 C2047 1.386 . S
C2046 C2048 1.383 . S
C2046 H2062 0.951 . S
C2047 C2046 1.386 . S
C2047 C2051 1.383 . S
C2048 C2046 1.383 . S
C2048 C2049 1.402 . S
C2048 H2063 0.951 . S
C2049 C2048 1.402 . S
C2049 C2050 1.375 . S
C2049 C2052 1.481 . S
C2050 C2049 1.375 . S
C2050 C2051 1.367 . S
C2050 H2064 0.951 . S
C2051 C2047 1.383 . S
C2051 C2050 1.367 . S
C2051 H2065 0.950 . S
C2052 C2049 1.481 . S
C2052 C2053 1.297 . S
C2052 H2066 0.950 . S
C2053 C2052 1.297 . S
C2053 C2054 1.479 . S
C2053 H2067 0.950 . S
C2054 C2053 1.479 . S
C2054 C2055 1.375 . S
C2054 C2060 1.404 . S
C2055 C2054 1.375 . S
C2055 C2056 1.369 . S
C2055 H2068 0.950 . S
C2056 C2055 1.369 . S
C2056 C2057 1.392 . S
C2056 H2069 0.951 . S
C2057 C2056 1.392 . S
C2057 C2059 1.384 . S
H2058 C2060 0.949 . S
C2059 C2057 1.384 . S
C2059 C2060 1.385 . S
C2059 H2061 0.950 . S
C2060 C2054 1.404 . S
C2060 H2058 0.949 . S
C2060 C2059 1.385 . S
H2061 C2059 0.950 . S
H2062 C2046 0.951 . S
H2063 C2048 0.951 . S
H2064 C2050 0.951 . S
H2065 C2051 0.950 . S
H2066 C2052 0.950 . S
H2067 C2053 0.950 . S
H2068 C2055 0.950 . S
H2069 C2056 0.951 . S
C2070 C2071 1.386 . S
C2070 C2072 1.383 . S
C2070 H2086 0.951 . S
C2071 C2070 1.386 . S
C2071 C2075 1.383 . S
C2072 C2070 1.383 . S
C2072 C2073 1.402 . S
C2072 H2087 0.951 . S
C2073 C2072 1.402 . S
C2073 C2074 1.375 . S
C2073 C2076 1.481 . S
C2074 C2073 1.375 . S
C2074 C2075 1.367 . S
C2074 H2088 0.951 . S
C2075 C2071 1.383 . S
C2075 C2074 1.367 . S
C2075 H2089 0.950 . S
C2076 C2073 1.481 . S
C2076 C2077 1.297 . S
C2076 H2090 0.950 . S
C2077 C2076 1.297 . S
C2077 C2078 1.479 . S
C2077 H2091 0.950 . S
C2078 C2077 1.479 . S
C2078 C2079 1.375 . S
C2078 C2084 1.404 . S
C2079 C2078 1.375 . S
C2079 C2080 1.369 . S
C2079 H2092 0.950 . S
C2080 C2079 1.369 . S
C2080 C2081 1.392 . S
C2080 H2093 0.951 . S
C2081 C2080 1.392 . S
C2081 C2083 1.384 . S
H2082 C2084 0.949 . S
C2083 C2081 1.384 . S
C2083 C2084 1.385 . S
C2083 H2085 0.950 . S
C2084 C2078 1.404 . S
C2084 H2082 0.949 . S
C2084 C2083 1.385 . S
H2085 C2083 0.950 . S
H2086 C2070 0.951 . S
H2087 C2072 0.951 . S
H2088 C2074 0.951 . S
H2089 C2075 0.950 . S
H2090 C2076 0.950 . S
H2091 C2077 0.950 . S
H2092 C2079 0.950 . S
H2093 C2080 0.951 . S
C2094 C2095 1.386 . S
C2094 C2096 1.383 . S
C2094 H2110 0.951 1_655 S
C2095 C2094 1.386 . S
C2095 C2099 1.383 . S
C2096 C2094 1.383 . S
C2096 C2097 1.402 . S
C2096 H2111 0.951 1_655 S
C2097 C2096 1.402 . S
C2097 C2098 1.375 . S
C2097 C2100 1.481 . S
C2098 C2097 1.375 . S
C2098 C2099 1.367 . S
C2098 H2112 0.951 . S
C2099 C2095 1.383 . S
C2099 C2098 1.367 . S
C2099 H2113 0.950 . S
C2100 C2097 1.481 . S
C2100 C2101 1.297 . S
C2100 H2114 0.950 . S
C2101 C2100 1.297 . S
C2101 C2102 1.479 . S
C2101 H2115 0.950 1_655 S
C2102 C2101 1.479 . S
C2102 C2103 1.375 1_655 S
C2102 C2108 1.404 . S
C2103 C2102 1.375 1_455 S
C2103 C2104 1.369 . S
C2103 H2116 0.950 . S
C2104 C2103 1.369 . S
C2104 C2105 1.392 1_455 S
C2104 H2117 0.951 . S
C2105 C2104 1.392 1_655 S
C2105 C2107 1.384 . S
H2106 C2108 0.949 . S
C2107 C2105 1.384 . S
C2107 C2108 1.385 . S
C2107 H2109 0.950 . S
C2108 C2102 1.404 . S
C2108 H2106 0.949 . S
C2108 C2107 1.385 . S
H2109 C2107 0.950 . S
H2110 C2094 0.951 1_455 S
H2111 C2096 0.951 1_455 S
H2112 C2098 0.951 . S
H2113 C2099 0.950 . S
H2114 C2100 0.950 . S
H2115 C2101 0.950 1_455 S
H2116 C2103 0.950 . S
H2117 C2104 0.951 . S
C2118 C2119 1.386 . S
C2118 C2120 1.383 . S
C2118 H2134 0.951 . S
C2119 C2118 1.386 . S
C2119 C2123 1.383 . S
C2120 C2118 1.383 . S
C2120 C2121 1.402 . S
C2120 H2135 0.951 . S
C2121 C2120 1.402 . S
C2121 C2122 1.375 . S
C2121 C2124 1.481 . S
C2122 C2121 1.375 . S
C2122 C2123 1.367 . S
C2122 H2136 0.951 . S
C2123 C2119 1.383 . S
C2123 C2122 1.367 . S
C2123 H2137 0.950 . S
C2124 C2121 1.481 . S
C2124 C2125 1.297 . S
C2124 H2138 0.950 . S
C2125 C2124 1.297 . S
C2125 C2126 1.479 . S
C2125 H2139 0.950 . S
C2126 C2125 1.479 . S
C2126 C2127 1.375 . S
C2126 C2132 1.404 . S
C2127 C2126 1.375 . S
C2127 C2128 1.369 . S
C2127 H2140 0.950 . S
C2128 C2127 1.369 . S
C2128 C2129 1.392 . S
C2128 H2141 0.951 . S
C2129 C2128 1.392 . S
C2129 C2131 1.384 . S
H2130 C2132 0.949 . S
C2131 C2129 1.384 . S
C2131 C2132 1.385 . S
C2131 H2133 0.950 . S
C2132 C2126 1.404 . S
C2132 H2130 0.949 . S
C2132 C2131 1.385 . S
H2133 C2131 0.950 . S
H2134 C2118 0.951 . S
H2135 C2120 0.951 . S
H2136 C2122 0.951 . S
H2137 C2123 0.950 . S
H2138 C2124 0.950 . S
H2139 C2125 0.950 . S
H2140 C2127 0.950 . S
H2141 C2128 0.951 . S
C2142 C2143 1.386 . S
C2142 C2144 1.383 . S
C2142 H2158 0.951 . S
C2143 C2142 1.386 . S
C2143 C2147 1.383 . S
C2144 C2142 1.383 . S
C2144 C2145 1.402 . S
C2144 H2159 0.951 . S
C2145 C2144 1.402 . S
C2145 C2146 1.375 . S
C2145 C2148 1.481 . S
C2146 C2145 1.375 . S
C2146 C2147 1.367 . S
C2146 H2160 0.951 . S
C2147 C2143 1.383 . S
C2147 C2146 1.367 . S
C2147 H2161 0.950 . S
C2148 C2145 1.481 . S
C2148 C2149 1.297 . S
C2148 H2162 0.950 . S
C2149 C2148 1.297 . S
C2149 C2150 1.479 . S
C2149 H2163 0.950 . S
C2150 C2149 1.479 . S
C2150 C2151 1.375 . S
C2150 C2156 1.404 . S
C2151 C2150 1.375 . S
C2151 C2152 1.369 . S
C2151 H2164 0.950 . S
C2152 C2151 1.369 . S
C2152 C2153 1.392 . S
C2152 H2165 0.951 . S
C2153 C2152 1.392 . S
C2153 C2155 1.384 . S
H2154 C2156 0.949 . S
C2155 C2153 1.384 . S
C2155 C2156 1.385 . S
C2155 H2157 0.950 . S
C2156 C2150 1.404 . S
C2156 H2154 0.949 . S
C2156 C2155 1.385 . S
H2157 C2155 0.950 . S
H2158 C2142 0.951 . S
H2159 C2144 0.951 . S
H2160 C2146 0.951 . S
H2161 C2147 0.950 . S
H2162 C2148 0.950 . S
H2163 C2149 0.950 . S
H2164 C2151 0.950 . S
H2165 C2152 0.951 . S
C2166 C2167 1.386 . S
C2166 C2168 1.383 . S
C2166 H2182 0.951 . S
C2167 C2166 1.386 . S
C2167 C2171 1.383 . S
C2168 C2166 1.383 . S
C2168 C2169 1.402 . S
C2168 H2183 0.951 . S
C2169 C2168 1.402 . S
C2169 C2170 1.375 . S
C2169 C2172 1.481 . S
C2170 C2169 1.375 . S
C2170 C2171 1.367 . S
C2170 H2184 0.951 . S
C2171 C2167 1.383 . S
C2171 C2170 1.367 . S
C2171 H2185 0.950 . S
C2172 C2169 1.481 . S
C2172 C2173 1.297 . S
C2172 H2186 0.950 . S
C2173 C2172 1.297 . S
C2173 C2174 1.479 . S
C2173 H2187 0.950 . S
C2174 C2173 1.479 . S
C2174 C2175 1.375 . S
C2174 C2180 1.404 . S
C2175 C2174 1.375 . S
C2175 C2176 1.369 . S
C2175 H2188 0.950 . S
C2176 C2175 1.369 . S
C2176 C2177 1.392 . S
C2176 H2189 0.951 . S
C2177 C2176 1.392 . S
C2177 C2179 1.384 . S
H2178 C2180 0.949 . S
C2179 C2177 1.384 . S
C2179 C2180 1.385 . S
C2179 H2181 0.950 . S
C2180 C2174 1.404 . S
C2180 H2178 0.949 . S
C2180 C2179 1.385 . S
H2181 C2179 0.950 . S
H2182 C2166 0.951 . S
H2183 C2168 0.951 . S
H2184 C2170 0.951 . S
H2185 C2171 0.950 . S
H2186 C2172 0.950 . S
H2187 C2173 0.950 . S
H2188 C2175 0.950 . S
H2189 C2176 0.951 . S
C2190 C2191 1.386 . S
C2190 C2192 1.383 . S
C2190 H2206 0.951 . S
C2191 C2190 1.386 . S
C2191 C2195 1.383 . S
C2192 C2190 1.383 . S
C2192 C2193 1.402 . S
C2192 H2207 0.951 . S
C2193 C2192 1.402 . S
C2193 C2194 1.375 . S
C2193 C2196 1.481 . S
C2194 C2193 1.375 . S
C2194 C2195 1.367 . S
C2194 H2208 0.951 . S
C2195 C2191 1.383 . S
C2195 C2194 1.367 . S
C2195 H2209 0.950 . S
C2196 C2193 1.481 . S
C2196 C2197 1.297 . S
C2196 H2210 0.950 . S
C2197 C2196 1.297 . S
C2197 C2198 1.479 . S
C2197 H2211 0.950 . S
C2198 C2197 1.479 . S
C2198 C2199 1.375 . S
C2198 C2204 1.404 . S
C2199 C2198 1.375 . S
C2199 C2200 1.369 . S
C2199 H2212 0.950 . S
C2200 C2199 1.369 . S
C2200 C2201 1.392 . S
C2200 H2213 0.951 . S
C2201 C2200 1.392 . S
C2201 C2203 1.384 . S
H2202 C2204 0.949 . S
C2203 C2201 1.384 . S
C2203 C2204 1.385 . S
C2203 H2205 0.950 . S
C2204 C2198 1.404 . S
C2204 H2202 0.949 . S
C2204 C2203 1.385 . S
H2205 C2203 0.950 . S
H2206 C2190 0.951 . S
H2207 C2192 0.951 . S
H2208 C2194 0.951 . S
H2209 C2195 0.950 . S
H2210 C2196 0.950 . S
H2211 C2197 0.950 . S
H2212 C2199 0.950 . S
H2213 C2200 0.951 . S
C2214 C2215 1.386 . S
C2214 C2216 1.383 . S
C2214 H2230 0.951 . S
C2215 C2214 1.386 . S
C2215 C2219 1.383 . S
C2216 C2214 1.383 . S
C2216 C2217 1.402 . S
C2216 H2231 0.951 . S
C2217 C2216 1.402 . S
C2217 C2218 1.375 . S
C2217 C2220 1.481 . S
C2218 C2217 1.375 . S
C2218 C2219 1.367 . S
C2218 H2232 0.951 . S
C2219 C2215 1.383 . S
C2219 C2218 1.367 . S
C2219 H2233 0.950 . S
C2220 C2217 1.481 . S
C2220 C2221 1.297 . S
C2220 H2234 0.950 . S
C2221 C2220 1.297 . S
C2221 C2222 1.479 . S
C2221 H2235 0.950 . S
C2222 C2221 1.479 . S
C2222 C2223 1.375 . S
C2222 C2228 1.404 . S
C2223 C2222 1.375 . S
C2223 C2224 1.369 . S
C2223 H2236 0.950 . S
C2224 C2223 1.369 . S
C2224 C2225 1.392 . S
C2224 H2237 0.951 . S
C2225 C2224 1.392 . S
C2225 C2227 1.384 . S
H2226 C2228 0.949 . S
C2227 C2225 1.384 . S
C2227 C2228 1.385 . S
C2227 H2229 0.950 . S
C2228 C2222 1.404 . S
C2228 H2226 0.949 . S
C2228 C2227 1.385 . S
H2229 C2227 0.950 . S
H2230 C2214 0.951 . S
H2231 C2216 0.951 . S
H2232 C2218 0.951 . S
H2233 C2219 0.950 . S
H2234 C2220 0.950 . S
H2235 C2221 0.950 . S
H2236 C2223 0.950 . S
H2237 C2224 0.951 . S
C2238 C2239 1.386 . S
C2238 C2240 1.383 . S
C2238 H2254 0.951 . S
C2239 C2238 1.386 . S
C2239 C2243 1.383 . S
C2240 C2238 1.383 . S
C2240 C2241 1.402 . S
C2240 H2255 0.951 . S
C2241 C2240 1.402 . S
C2241 C2242 1.375 . S
C2241 C2244 1.481 . S
C2242 C2241 1.375 . S
C2242 C2243 1.367 . S
C2242 H2256 0.951 . S
C2243 C2239 1.383 . S
C2243 C2242 1.367 . S
C2243 H2257 0.950 . S
C2244 C2241 1.481 . S
C2244 C2245 1.297 . S
C2244 H2258 0.950 . S
C2245 C2244 1.297 . S
C2245 C2246 1.479 . S
C2245 H2259 0.950 . S
C2246 C2245 1.479 . S
C2246 C2247 1.375 . S
C2246 C2252 1.404 . S
C2247 C2246 1.375 . S
C2247 C2248 1.369 . S
C2247 H2260 0.950 . S
C2248 C2247 1.369 . S
C2248 C2249 1.392 . S
C2248 H2261 0.951 . S
C2249 C2248 1.392 . S
C2249 C2251 1.384 . S
H2250 C2252 0.949 . S
C2251 C2249 1.384 . S
C2251 C2252 1.385 . S
C2251 H2253 0.950 . S
C2252 C2246 1.404 . S
C2252 H2250 0.949 . S
C2252 C2251 1.385 . S
H2253 C2251 0.950 . S
H2254 C2238 0.951 . S
H2255 C2240 0.951 . S
H2256 C2242 0.951 . S
H2257 C2243 0.950 . S
H2258 C2244 0.950 . S
H2259 C2245 0.950 . S
H2260 C2247 0.950 . S
H2261 C2248 0.951 . S
C2262 C2263 1.386 . S
C2262 C2264 1.383 . S
C2262 H2278 0.951 . S
C2263 C2262 1.386 . S
C2263 C2267 1.383 . S
C2264 C2262 1.383 . S
C2264 C2265 1.402 . S
C2264 H2279 0.951 . S
C2265 C2264 1.402 . S
C2265 C2266 1.375 . S
C2265 C2268 1.481 . S
C2266 C2265 1.375 . S
C2266 C2267 1.367 . S
C2266 H2280 0.951 . S
C2267 C2263 1.383 . S
C2267 C2266 1.367 . S
C2267 H2281 0.950 . S
C2268 C2265 1.481 . S
C2268 C2269 1.297 . S
C2268 H2282 0.950 . S
C2269 C2268 1.297 . S
C2269 C2270 1.479 . S
C2269 H2283 0.950 . S
C2270 C2269 1.479 . S
C2270 C2271 1.375 . S
C2270 C2276 1.404 . S
C2271 C2270 1.375 . S
C2271 C2272 1.369 . S
C2271 H2284 0.950 . S
C2272 C2271 1.369 . S
C2272 C2273 1.392 . S
C2272 H2285 0.951 . S
C2273 C2272 1.392 . S
C2273 C2275 1.384 . S
H2274 C2276 0.949 . S
C2275 C2273 1.384 . S
C2275 C2276 1.385 . S
C2275 H2277 0.950 . S
C2276 C2270 1.404 . S
C2276 H2274 0.949 . S
C2276 C2275 1.385 . S
H2277 C2275 0.950 . S
H2278 C2262 0.951 . S
H2279 C2264 0.951 . S
H2280 C2266 0.951 . S
H2281 C2267 0.950 . S
H2282 C2268 0.950 . S
H2283 C2269 0.950 . S
H2284 C2271 0.950 . S
H2285 C2272 0.951 . S
C2286 C2287 1.386 . S
C2286 C2288 1.383 . S
C2286 H2302 0.951 . S
C2287 C2286 1.386 . S
C2287 C2291 1.383 . S
C2288 C2286 1.383 . S
C2288 C2289 1.402 . S
C2288 H2303 0.951 . S
C2289 C2288 1.402 . S
C2289 C2290 1.375 . S
C2289 C2292 1.481 . S
C2290 C2289 1.375 . S
C2290 C2291 1.367 . S
C2290 H2304 0.951 . S
C2291 C2287 1.383 . S
C2291 C2290 1.367 . S
C2291 H2305 0.950 . S
C2292 C2289 1.481 . S
C2292 C2293 1.295 1_655 S
C2292 H2306 0.950 . S
C2293 C2292 1.295 1_455 S
C2293 C2294 1.481 . S
C2293 H2307 0.951 . S
C2294 C2293 1.481 . S
C2294 C2295 1.375 . S
C2294 C2300 1.404 . S
C2295 C2294 1.375 . S
C2295 C2296 1.369 . S
C2295 H2308 0.950 . S
C2296 C2295 1.369 . S
C2296 C2297 1.393 . S
C2296 H2309 0.951 . S
C2297 C2296 1.393 . S
C2297 C2299 1.368 . S
H2298 C2300 0.949 . S
C2299 C2297 1.368 . S
C2299 C2300 1.385 . S
C2299 H2301 0.950 . S
C2300 C2294 1.404 . S
C2300 H2298 0.949 . S
C2300 C2299 1.385 . S
H2301 C2299 0.950 . S
H2302 C2286 0.951 . S
H2303 C2288 0.951 . S
H2304 C2290 0.951 . S
H2305 C2291 0.950 . S
H2306 C2292 0.950 . S
H2307 C2293 0.951 . S
H2308 C2295 0.950 . S
H2309 C2296 0.951 . S
C2310 C2311 1.386 . S
C2310 C2312 1.383 . S
C2310 H2326 0.951 . S
C2311 C2310 1.386 . S
C2311 C2315 1.383 . S
C2312 C2310 1.383 . S
C2312 C2313 1.402 . S
C2312 H2327 0.951 . S
C2313 C2312 1.402 . S
C2313 C2314 1.375 . S
C2313 C2316 1.481 . S
C2314 C2313 1.375 . S
C2314 C2315 1.367 . S
C2314 H2328 0.951 . S
C2315 C2311 1.383 . S
C2315 C2314 1.367 . S
C2315 H2329 0.950 . S
C2316 C2313 1.481 . S
C2316 C2317 1.297 . S
C2316 H2330 0.950 . S
C2317 C2316 1.297 . S
C2317 C2318 1.479 . S
C2317 H2331 0.950 . S
C2318 C2317 1.479 . S
C2318 C2319 1.375 . S
C2318 C2324 1.404 . S
C2319 C2318 1.375 . S
C2319 C2320 1.369 . S
C2319 H2332 0.950 . S
C2320 C2319 1.369 . S
C2320 C2321 1.392 . S
C2320 H2333 0.951 . S
C2321 C2320 1.392 . S
C2321 C2323 1.384 . S
H2322 C2324 0.949 . S
C2323 C2321 1.384 . S
C2323 C2324 1.385 . S
C2323 H2325 0.950 . S
C2324 C2318 1.404 . S
C2324 H2322 0.949 . S
C2324 C2323 1.385 . S
H2325 C2323 0.950 . S
H2326 C2310 0.951 . S
H2327 C2312 0.951 . S
H2328 C2314 0.951 . S
H2329 C2315 0.950 . S
H2330 C2316 0.950 . S
H2331 C2317 0.950 . S
H2332 C2319 0.950 . S
H2333 C2320 0.951 . S
C2334 C2335 1.386 . S
C2334 C2336 1.383 . S
C2334 H2350 0.951 . S
C2335 C2334 1.386 . S
C2335 C2339 1.383 . S
C2336 C2334 1.383 . S
C2336 C2337 1.402 . S
C2336 H2351 0.951 . S
C2337 C2336 1.402 . S
C2337 C2338 1.375 . S
C2337 C2340 1.481 . S
C2338 C2337 1.375 . S
C2338 C2339 1.367 . S
C2338 H2352 0.951 1_545 S
C2339 C2335 1.383 . S
C2339 C2338 1.367 . S
C2339 H2353 0.947 . S
C2340 C2337 1.481 . S
C2340 C2341 1.297 . S
C2340 H2354 0.953 . S
C2341 C2340 1.297 . S
C2341 C2342 1.479 . S
C2341 H2355 0.950 . S
C2342 C2341 1.479 . S
C2342 C2343 1.375 . S
C2342 C2348 1.404 . S
C2343 C2342 1.375 . S
C2343 C2344 1.369 . S
C2343 H2356 0.950 . S
C2344 C2343 1.369 . S
C2344 C2345 1.392 . S
C2344 H2357 0.951 . S
C2345 C2344 1.392 . S
C2345 C2347 1.384 1_545 S
H2346 C2348 0.949 1_565 S
C2347 C2345 1.384 1_565 S
C2347 C2348 1.385 1_565 S
C2347 H2349 0.950 . S
C2348 C2342 1.404 . S
C2348 H2346 0.949 1_545 S
C2348 C2347 1.385 1_545 S
H2349 C2347 0.950 . S
H2350 C2334 0.951 . S
H2351 C2336 0.951 . S
H2352 C2338 0.951 1_565 S
H2353 C2339 0.947 . S
H2354 C2340 0.953 . S
H2355 C2341 0.950 . S
H2356 C2343 0.950 . S
H2357 C2344 0.951 . S
C631 C4 1.562 . S
C641 C458 1.572 1_655 S
C655 C26 1.581 . S
C665 C471 1.491 . S
C689 C500 1.461 1_545 S
C679 C32 1.456 . S
C703 C40 1.484 . S
C713 C513 1.437 . S
C727 C12 1.555 . S
C737 C534 1.451 . S
C751 C18 1.535 . S
C761 C563 1.515 . S
C775 C46 1.551 . S
C785 C542 1.548 1_655 S
C809 C555 1.474 . S
C799 C68 1.562 . S
C833 C521 1.468 1_545 S
C823 C74 1.520 . S
C847 C82 1.477 . S
C857 C492 1.488 1_545 S
C881 C450 1.521 1_655 S
C871 C54 1.545 . S
C895 C60 1.472 . S
C905 C479 1.490 . S
C919 C88 1.583 . S
C929 C584 1.610 . S
C943 C110 1.586 . S
C953 C597 1.586 . S
C977 C626 1.528 . S
C967 C116 1.566 . S
C991 C124 1.505 . S
C1001 C261 1.503 . S
C1015 C96 1.559 . S
C1025 C282 1.557 . S
C1039 C102 1.516 . S
C1049 C311 1.436 . S
C1063 C130 1.564 . S
C1073 C290 1.513 . S
C1087 C152 1.578 . S
C1097 C303 1.541 . S
C1121 C269 1.543 . S
C1111 C158 1.502 . S
C1145 C618 1.451 . S
C1135 C166 1.520 . S
C1169 C576 1.493 . S
C1159 C138 1.553 . S
C1193 C605 1.495 . S
C1183 C144 1.543 . S
C1207 C172 1.547 . S
C1217 C332 1.519 . S
C1231 C194 1.593 . S
C1241 C345 1.592 . S
C1255 C200 1.562 . S
C1265 C374 1.464 . S
C1279 C208 1.529 . S
C1289 C387 1.439 . S
C1313 C408 1.538 . S
C1303 C180 1.577 . S
C1337 C437 1.530 . S
C1327 C186 1.507 . S
C1361 C416 1.537 . S
C1351 C214 1.580 . S
C1385 C429 1.551 . S
C1375 C236 1.573 . S
C1399 C242 1.535 . S
C1409 C395 1.487 . S
C1433 C366 1.406 . S
C1423 C250 1.510 . S
C1447 C222 1.574 . S
C1457 C324 1.452 . S
C1481 C353 1.540 . S
C1471 C228 1.543 . S
C1505 C264 1.192 . S
C1495 C5 1.161 . S
C1519 C25 1.263 . S
C1529 C285 1.236 . S
C1553 C313 1.179 . S
C1543 C33 1.185 . S
C1577 C334 1.111 . S
C1567 C39 1.219 . S
C1601 C348 1.246 . S
C1591 C11 1.303 . S
C1625 C376 1.255 . S
C1615 C19 1.057 1_556 S
C1639 C47 1.261 1_556 S
C1649 C369 1.210 . S
C1663 C67 1.285 . S
C1673 C327 1.051 . S
C1687 C75 1.211 1_556 S
C1697 C355 1.278 . S
C1711 C81 1.273 . S
C1721 C292 1.187 . S
C1745 C306 1.135 . S
C1735 C53 1.307 . S
C1759 C61 1.128 . S
C1769 C271 1.243 . S
C1793 C390 1.205 . S
C1783 C89 1.091 . S
C1807 C109 1.328 . S
C1817 C411 1.302 . S
C1831 C117 1.118 . S
C1841 C439 1.236 . S
C1865 C460 1.225 . S
C1855 C123 1.212 . S
C1879 C95 1.298 . S
C1889 C474 1.115 . S
C1903 C103 1.044 . S
C1913 C502 1.256 . S
C1927 C131 1.142 . S
C1937 C495 1.066 . S
C1951 C151 1.277 . S
C1961 C453 1.189 1_655 S
C1985 C481 1.201 . S
C1975 C159 1.209 . S
C1999 C165 1.280 . S
C2009 C418 1.176 . S
C2023 C137 1.355 . S
C2033 C432 1.266 . S
C2057 C397 1.356 . S
C2047 C145 1.106 . S
C2081 C516 1.249 1_545 S
C2071 C173 1.183 . S
C2095 C193 1.234 . S
C2105 C537 1.232 1_655 S
C2119 C201 1.087 . S
C2129 C565 1.193 . S
C2153 C586 1.248 . S
C2143 C207 1.259 . S
C2177 C600 1.176 . S
C2167 C179 1.361 . S
C2191 C187 1.220 . S
C2201 C628 1.223 . S
C2215 C215 1.187 . S
C2225 C621 1.303 . S
C2239 C235 1.338 . S
C2249 C579 1.191 . S
C2273 C607 1.231 . S
C2263 C243 1.230 . S
C2297 C544 1.148 . S
C2287 C249 1.217 . S
C2321 C558 1.071 . S
C2311 C221 1.297 . S
C2335 C229 1.049 . S
C2345 C523 1.270 1_545 S
