# Generated by pormake.
# Topology wbl, (4,4)-cn, num edge types: 1
# Building blocks:
#     Node 0, Type 0, BuildingBlock: MIFKUJ_clean_linker_1, # of connection points: 4
#     Node 1, Type 0, BuildingBlock: MIFKUJ_clean_linker_1, # of connection points: 4
#     Node 2, Type 0, BuildingBlock: MIFKUJ_clean_linker_1, # of connection points: 4
#     Node 3, Type 0, BuildingBlock: MIFKUJ_clean_linker_1, # of connection points: 4
#     Node 4, Type 0, BuildingBlock: MIFKUJ_clean_linker_1, # of connection points: 4
#     Node 5, Type 0, BuildingBlock: MIFKUJ_clean_linker_1, # of connection points: 4
#     Node 6, Type 0, BuildingBlock: MIFKUJ_clean_linker_1, # of connection points: 4
#     Node 7, Type 0, BuildingBlock: MIFKUJ_clean_linker_1, # of connection points: 4
#     Node 8, Type 1, BuildingBlock: TATPOV_clean_sbu_0, # of connection points: 4
#     Node 9, Type 1, BuildingBlock: TATPOV_clean_sbu_0, # of connection points: 4
#     Node 10, Type 1, BuildingBlock: TATPOV_clean_sbu_0, # of connection points: 4
#     Node 11, Type 1, BuildingBlock: TATPOV_clean_sbu_0, # of connection points: 4
#     Node 12, Type 1, BuildingBlock: TATPOV_clean_sbu_0, # of connection points: 4
#     Node 13, Type 1, BuildingBlock: TATPOV_clean_sbu_0, # of connection points: 4
#     Node 14, Type 1, BuildingBlock: TATPOV_clean_sbu_0, # of connection points: 4
#     Node 15, Type 1, BuildingBlock: TATPOV_clean_sbu_0, # of connection points: 4
#     Edge 16, Type (0, 1), BuildingBlock: ZUJKAS_clean_linker_0, # of connection points: 2
#     Edge 17, Type (0, 1), BuildingBlock: ZUJKAS_clean_linker_0, # of connection points: 2
#     Edge 18, Type (0, 1), BuildingBlock: ZUJKAS_clean_linker_0, # of connection points: 2
#     Edge 19, Type (0, 1), BuildingBlock: ZUJKAS_clean_linker_0, # of connection points: 2
#     Edge 20, Type (0, 1), BuildingBlock: ZUJKAS_clean_linker_0, # of connection points: 2
#     Edge 21, Type (0, 1), BuildingBlock: ZUJKAS_clean_linker_0, # of connection points: 2
#     Edge 22, Type (0, 1), BuildingBlock: ZUJKAS_clean_linker_0, # of connection points: 2
#     Edge 23, Type (0, 1), BuildingBlock: ZUJKAS_clean_linker_0, # of connection points: 2
#     Edge 24, Type (0, 1), BuildingBlock: ZUJKAS_clean_linker_0, # of connection points: 2
#     Edge 25, Type (0, 1), BuildingBlock: ZUJKAS_clean_linker_0, # of connection points: 2
#     Edge 26, Type (0, 1), BuildingBlock: ZUJKAS_clean_linker_0, # of connection points: 2
#     Edge 27, Type (0, 1), BuildingBlock: ZUJKAS_clean_linker_0, # of connection points: 2
#     Edge 28, Type (0, 1), BuildingBlock: ZUJKAS_clean_linker_0, # of connection points: 2
#     Edge 29, Type (0, 1), BuildingBlock: ZUJKAS_clean_linker_0, # of connection points: 2
#     Edge 30, Type (0, 1), BuildingBlock: ZUJKAS_clean_linker_0, # of connection points: 2
#     Edge 31, Type (0, 1), BuildingBlock: ZUJKAS_clean_linker_0, # of connection points: 2
#     Edge 32, Type (0, 1), BuildingBlock: ZUJKAS_clean_linker_0, # of connection points: 2
#     Edge 33, Type (0, 1), BuildingBlock: ZUJKAS_clean_linker_0, # of connection points: 2
#     Edge 34, Type (0, 1), BuildingBlock: ZUJKAS_clean_linker_0, # of connection points: 2
#     Edge 35, Type (0, 1), BuildingBlock: ZUJKAS_clean_linker_0, # of connection points: 2
#     Edge 36, Type (0, 1), BuildingBlock: ZUJKAS_clean_linker_0, # of connection points: 2
#     Edge 37, Type (0, 1), BuildingBlock: ZUJKAS_clean_linker_0, # of connection points: 2
#     Edge 38, Type (0, 1), BuildingBlock: ZUJKAS_clean_linker_0, # of connection points: 2
#     Edge 39, Type (0, 1), BuildingBlock: ZUJKAS_clean_linker_0, # of connection points: 2
#     Edge 40, Type (0, 1), BuildingBlock: ZUJKAS_clean_linker_0, # of connection points: 2
#     Edge 41, Type (0, 1), BuildingBlock: ZUJKAS_clean_linker_0, # of connection points: 2
#     Edge 42, Type (0, 1), BuildingBlock: ZUJKAS_clean_linker_0, # of connection points: 2
#     Edge 43, Type (0, 1), BuildingBlock: ZUJKAS_clean_linker_0, # of connection points: 2
#     Edge 44, Type (0, 1), BuildingBlock: ZUJKAS_clean_linker_0, # of connection points: 2
#     Edge 45, Type (0, 1), BuildingBlock: ZUJKAS_clean_linker_0, # of connection points: 2
#     Edge 46, Type (0, 1), BuildingBlock: ZUJKAS_clean_linker_0, # of connection points: 2
#     Edge 47, Type (0, 1), BuildingBlock: ZUJKAS_clean_linker_0, # of connection points: 2
# Relax obj value: 0.161
# Max RMSD: 0.152
# Mean RMSD: 0.128
data_MOF--net-wbl--node1-TATPOV_clean_sbu_0--node2-MIFKUJ_clean_linker_1--edge1-ZUJKAS_clean_linker_0
_symmetry_space_group_name_H-M    P1
_symmetry_Int_Tables_number       1
_symmetry_cell_setting            triclinic
loop_
_symmetry_equiv_pos_as_xyz
'x, y, z'
_cell_length_a     57.092259
_cell_length_b     57.103013
_cell_length_c     91.397511
_cell_angle_alpha  91.439308
_cell_angle_beta   91.379148
_cell_angle_gamma 89.998048
loop_
_atom_site_label
_atom_site_type_symbol
_atom_site_fract_x
_atom_site_fract_y
_atom_site_fract_z
_atom_type_partial_charge
H0 H 0.05804 0.07342 0.38414 0.0
H1 H 0.03511 0.09836 0.40053 0.0
H2 H 0.97125 0.07135 0.38007 0.0
H3 H 0.99426 0.04565 0.36427 0.0
H4 H 0.06037 0.02709 0.38128 0.0
H5 H 0.03767 0.08992 0.34998 0.0
H6 H 0.00944 0.11644 0.33848 0.0
H7 H 0.97499 0.05722 0.31692 0.0
H8 H 0.00305 0.0308 0.32852 0.0
H9 H 0.04984 0.97732 0.32636 0.0
H10 H 0.07182 0.951 0.31012 0.0
H11 H 0.13666 0.98179 0.32659 0.0
H12 H 0.11461 0.00805 0.34277 0.0
H13 H 0.04888 0.02581 0.3273 0.0
H14 H 0.0694 0.96319 0.35894 0.0
H15 H 0.09308 0.93549 0.37289 0.0
H16 H 0.13039 0.99325 0.39416 0.0
H17 H 0.10663 0.02087 0.38017 0.0
C18 C 0.0279 0.05785 0.37286 0.0
C19 C 0.0391 0.07282 0.38324 0.0
C20 C 0.02595 0.08725 0.3925 0.0
C21 C 0.00131 0.08697 0.39158 0.0
C22 C 0.99017 0.07186 0.3812 0.0
C23 C 0.00332 0.05734 0.37202 0.0
C24 C 0.04193 0.04248 0.36309 0.0
C25 C 0.05818 0.02712 0.36946 0.0
C26 C 0.03861 0.04207 0.34769 0.0
C27 C 0.02229 0.05835 0.34024 0.0
C28 C 0.02398 0.08266 0.34281 0.0
C29 C 0.00786 0.09778 0.33625 0.0
C30 C 0.99 0.08888 0.32683 0.0
C31 C 0.98872 0.0646 0.324 0.0
C32 C 0.00472 0.04949 0.33064 0.0
C33 C 0.08063 0.99449 0.33581 0.0
C34 C 0.06879 0.97838 0.32644 0.0
C35 C 0.08134 0.96333 0.31723 0.0
C36 C 0.10592 0.96443 0.31708 0.0
C37 C 0.11771 0.98075 0.32638 0.0
C38 C 0.10517 0.9956 0.3357 0.0
C39 C 0.06728 0.01046 0.34552 0.0
C40 C 0.05122 0.02596 0.33912 0.0
C41 C 0.07077 0.01098 0.36089 0.0
C42 C 0.08636 0.99411 0.36844 0.0
C43 C 0.08299 0.96988 0.36639 0.0
C44 C 0.09653 0.95406 0.37439 0.0
C45 C 0.11354 0.96219 0.38467 0.0
C46 C 0.1172 0.98646 0.38647 0.0
C47 C 0.1037 0.00225 0.37845 0.0
H48 H 4e-05 0.49729 0.56577 0.0
H49 H 0.97669 0.47092 0.54984 0.0
H50 H 0.9133 0.50154 0.56678 0.0
H51 H 0.93677 0.52858 0.58221 0.0
H52 H 0.00589 0.54228 0.56855 0.0
H53 H 0.97687 0.48246 0.59841 0.0
H54 H 0.9502 0.45687 0.61104 0.0
H55 H 0.91969 0.51737 0.63264 0.0
H56 H 0.94563 0.54291 0.6194 0.0
H57 H 0.00013 0.59148 0.62454 0.0
H58 H 0.02544 0.61293 0.64226 0.0
H59 H 0.08544 0.57474 0.62639 0.0
H60 H 0.06008 0.55331 0.6088 0.0
H61 H 0.99166 0.54487 0.6219 0.0
H62 H 0.02375 0.60414 0.59073 0.0
H63 H 0.05619 0.62616 0.5808 0.0
H64 H 0.08624 0.56149 0.56428 0.0
H65 H 0.05343 0.53972 0.57394 0.0
C66 C 0.97016 0.51465 0.57535 0.0
C67 C 0.98111 0.4986 0.56587 0.0
C68 C 0.96774 0.48342 0.55685 0.0
C69 C 0.94314 0.48397 0.55715 0.0
C70 C 0.9322 0.50077 0.56619 0.0
C71 C 0.9456 0.51605 0.57516 0.0
C72 C 0.98448 0.52938 0.58573 0.0
C73 C 0.00279 0.54273 0.58022 0.0
C74 C 0.98041 0.53013 0.60097 0.0
C75 C 0.9631 0.51466 0.60782 0.0
C76 C 0.96406 0.49025 0.60559 0.0
C77 C 0.94898 0.47561 0.61298 0.0
C78 C 0.93284 0.48502 0.62292 0.0
C79 C 0.93164 0.5095 0.62492 0.0
C80 C 0.94662 0.52414 0.61745 0.0
C81 C 0.02826 0.57105 0.61522 0.0
C82 C 0.01874 0.58777 0.62489 0.0
C83 C 0.0332 0.59995 0.63502 0.0
C84 C 0.05743 0.59558 0.63566 0.0
C85 C 0.0669 0.57878 0.62598 0.0
C86 C 0.05243 0.56653 0.61592 0.0
C87 C 0.01282 0.55778 0.6047 0.0
C88 C 0.99438 0.54468 0.61019 0.0
C89 C 0.01705 0.55683 0.58952 0.0
C90 C 0.03626 0.57031 0.58311 0.0
C91 C 0.03734 0.59475 0.58494 0.0
C92 C 0.05597 0.60728 0.57934 0.0
C93 C 0.07392 0.59559 0.5718 0.0
C94 C 0.0726 0.5711 0.56985 0.0
C95 C 0.05389 0.55861 0.57539 0.0
H96 H 0.50724 0.51452 0.87585 0.0
H97 H 0.48463 0.54044 0.89188 0.0
H98 H 0.42075 0.51805 0.86942 0.0
H99 H 0.44337 0.49186 0.85357 0.0
H100 H 0.50889 0.46907 0.87056 0.0
H101 H 0.49283 0.53602 0.84254 0.0
H102 H 0.4669 0.56687 0.83368 0.0
H103 H 0.42551 0.51497 0.80946 0.0
H104 H 0.45165 0.48413 0.81837 0.0
H105 H 0.5049 0.422 0.81561 0.0
H106 H 0.53003 0.40108 0.7981 0.0
H107 H 0.58845 0.44481 0.81216 0.0
H108 H 0.56347 0.46523 0.8298 0.0
H109 H 0.49964 0.47602 0.8167 0.0
H110 H 0.52202 0.40873 0.84642 0.0
H111 H 0.54788 0.3818 0.85966 0.0
H112 H 0.5822 0.44087 0.8815 0.0
H113 H 0.55663 0.46757 0.86811 0.0
C114 C 0.47703 0.50145 0.8634 0.0
C115 C 0.48834 0.51496 0.8745 0.0
C116 C 0.47542 0.52977 0.88364 0.0
C117 C 0.45096 0.53137 0.88181 0.0
C118 C 0.43962 0.51744 0.87091 0.0
C119 C 0.45251 0.50246 0.86188 0.0
C120 C 0.49094 0.4869 0.85311 0.0
C121 C 0.50697 0.4707 0.85879 0.0
C122 C 0.48849 0.48904 0.83775 0.0
C123 C 0.47394 0.50777 0.83127 0.0
C124 C 0.4782 0.5313 0.83529 0.0
C125 C 0.46332 0.54889 0.83027 0.0
C126 C 0.44402 0.54332 0.821 0.0
C127 C 0.44032 0.51982 0.81652 0.0
C128 C 0.45521 0.50219 0.8216 0.0
C129 C 0.53246 0.44499 0.82399 0.0
C130 C 0.52316 0.42693 0.81493 0.0
C131 C 0.53745 0.41505 0.80498 0.0
C132 C 0.56105 0.42152 0.80376 0.0
C133 C 0.57024 0.4397 0.81281 0.0
C134 C 0.55608 0.45124 0.82292 0.0
C135 C 0.51739 0.45807 0.83421 0.0
C136 C 0.50129 0.47418 0.82847 0.0
C137 C 0.52043 0.45644 0.84953 0.0
C138 C 0.53747 0.44013 0.85627 0.0
C139 C 0.53544 0.41584 0.85384 0.0
C140 C 0.55008 0.40049 0.8615 0.0
C141 C 0.56705 0.40921 0.87164 0.0
C142 C 0.56952 0.43359 0.87364 0.0
C143 C 0.55481 0.44887 0.86607 0.0
H144 H 0.52169 0.94573 0.0725 0.0
H145 H 0.49283 0.91979 0.0604 0.0
H146 H 0.43714 0.95799 0.08155 0.0
H147 H 0.46618 0.98389 0.09366 0.0
H148 H 0.52809 0.99217 0.07098 0.0
H149 H 0.50858 0.93774 0.10811 0.0
H150 H 0.48283 0.91662 0.12417 0.0
H151 H 0.46243 0.98228 0.14472 0.0
H152 H 0.4873 0.00332 0.12813 0.0
H153 H 0.53984 0.04736 0.12513 0.0
H154 H 0.569 0.07144 0.1383 0.0
H155 H 0.62369 0.03857 0.11308 0.0
H156 H 0.59458 0.01334 0.10077 0.0
H157 H 0.53303 0.00276 0.125 0.0
H158 H 0.54492 0.05705 0.08576 0.0
H159 H 0.56931 0.08027 0.06984 0.0
H160 H 0.60364 0.01715 0.05463 0.0
H161 H 0.57884 0.99389 0.07041 0.0
C162 C 0.4961 0.96656 0.08409 0.0
C163 C 0.50326 0.94858 0.07447 0.0
C164 C 0.48674 0.93384 0.06752 0.0
C165 C 0.46271 0.93687 0.07002 0.0
C166 C 0.45555 0.95505 0.07955 0.0
C167 C 0.4721 0.96985 0.08647 0.0
C168 C 0.5138 0.98198 0.09149 0.0
C169 C 0.52933 0.99425 0.0828 0.0
C170 C 0.51505 0.98516 0.1069 0.0
C171 C 0.49965 0.97216 0.11676 0.0
C172 C 0.49831 0.9476 0.11594 0.0
C173 C 0.48377 0.93552 0.12526 0.0
C174 C 0.47048 0.94773 0.13574 0.0
C175 C 0.47207 0.97232 0.13663 0.0
C176 C 0.48648 0.98438 0.12724 0.0
C177 C 0.56492 0.02869 0.11182 0.0
C178 C 0.55812 0.04531 0.12246 0.0
C179 C 0.57485 0.0593 0.12987 0.0
C180 C 0.59878 0.0571 0.12673 0.0
C181 C 0.60549 0.0406 0.11593 0.0
C182 C 0.58878 0.02639 0.10868 0.0
C183 C 0.54714 0.01312 0.10449 0.0
C184 C 0.5317 0.00072 0.11318 0.0
C185 C 0.54574 0.00996 0.08909 0.0
C186 C 0.56021 0.02383 0.07928 0.0
C187 C 0.55762 0.04823 0.07894 0.0
C188 C 0.57143 0.06141 0.06981 0.0
C189 C 0.58826 0.05042 0.06102 0.0
C190 C 0.5908 0.02597 0.06134 0.0
C191 C 0.57665 0.01273 0.07028 0.0
H192 H 0.98317 0.59324 0.90057 0.0
H193 H 0.0065 0.62099 0.88708 0.0
H194 H 0.06986 0.58708 0.90244 0.0
H195 H 0.04643 0.5598 0.91609 0.0
H196 H 0.98243 0.54571 0.89589 0.0
H197 H -0.00086 0.59877 0.93664 0.0
H198 H 0.02483 0.62283 0.95268 0.0
H199 H 0.06327 0.56079 0.96493 0.0
H200 H 0.03732 0.5369 0.94907 0.0
H201 H 0.99324 0.47931 0.94049 0.0
H202 H 0.97179 0.44662 0.95095 0.0
H203 H 0.90634 0.48142 0.94114 0.0
H204 H 0.92779 0.51378 0.93047 0.0
H205 H 0.99121 0.52883 0.94874 0.0
H206 H 0.98019 0.47699 0.90753 0.0
H207 H 0.95926 0.45102 0.89005 0.0
H208 H 0.91399 0.50826 0.87776 0.0
H209 H 0.93483 0.53414 0.89551 0.0
C210 C 0.01306 0.57457 0.90941 0.0
C211 C 0.0021 0.59201 0.90116 0.0
C212 C 0.01547 0.60777 0.89339 0.0
C213 C 0.04008 0.60622 0.8936 0.0
C214 C 0.051 0.58905 0.9022 0.0
C215 C 0.03761 0.57338 0.91 0.0
C216 C -0.00112 0.55644 0.91645 0.0
C217 C 0.98395 0.54241 0.90751 0.0
C218 C 0.00148 0.55155 0.9315 0.0
C219 C 0.0165 0.56609 0.94156 0.0
C220 C 0.01311 0.5904 0.9428 0.0
C221 C 0.02779 0.60411 0.95197 0.0
C222 C 0.04612 0.59374 0.96008 0.0
C223 C 0.0491 0.56931 0.95904 0.0
C224 C 0.03438 0.55562 0.9499 0.0
C225 C 0.96204 0.49886 0.93473 0.0
C226 C 0.97428 0.47985 0.94063 0.0
C227 C 0.96206 0.46121 0.94651 0.0
C228 C 0.93748 0.46162 0.94684 0.0
C229 C 0.92531 0.48081 0.94108 0.0
C230 C 0.93749 0.49922 0.93497 0.0
C231 C 0.97487 0.5183 0.92816 0.0
C232 C 0.98946 0.53248 0.93717 0.0
C233 C 0.9722 0.5232 0.91315 0.0
C234 C 0.95888 0.50741 0.90291 0.0
C235 C 0.96557 0.48387 0.90121 0.0
C236 C 0.95375 0.46912 0.89112 0.0
C237 C 0.93504 0.47764 0.88252 0.0
C238 C 0.92821 0.50118 0.88434 0.0
C239 C 0.94015 0.51598 0.8944 0.0
H240 H 0.5019 0.5304 0.1917 0.0
H241 H 0.47596 0.55887 0.20334 0.0
H242 H 0.41633 0.52608 0.18111 0.0
H243 H 0.4423 0.49694 0.1701 0.0
H244 H 0.50642 0.48431 0.19243 0.0
H245 H 0.48654 0.54026 0.15586 0.0
H246 H 0.46058 0.56344 0.1403 0.0
H247 H 0.43303 0.49973 0.11992 0.0
H248 H 0.45826 0.47667 0.13601 0.0
H249 H 0.51116 0.42971 0.13774 0.0
H250 H 0.53869 0.4069 0.12322 0.0
H251 H 0.5965 0.43954 0.14743 0.0
H252 H 0.56889 0.46344 0.16118 0.0
H253 H 0.50497 0.47482 0.1383 0.0
H254 H 0.52097 0.41929 0.17715 0.0
H255 H 0.5476 0.39587 0.19207 0.0
H256 H 0.58477 0.45891 0.20609 0.0
H257 H 0.55708 0.4822 0.19177 0.0
C258 C 0.47408 0.51174 0.17988 0.0
C259 C 0.48321 0.52916 0.18949 0.0
C260 C 0.46837 0.54559 0.196 0.0
C261 C 0.44408 0.54496 0.19301 0.0
C262 C 0.43491 0.52701 0.18373 0.0
C263 C 0.44976 0.51047 0.17731 0.0
C264 C 0.49014 0.4954 0.17223 0.0
C265 C 0.50618 0.48238 0.18059 0.0
C266 C 0.48966 0.49256 0.15679 0.0
C267 C 0.47412 0.50672 0.14723 0.0
C268 C 0.47469 0.53129 0.14817 0.0
C269 C 0.46 0.54453 0.13915 0.0
C270 C 0.44466 0.53346 0.12887 0.0
C271 C 0.44431 0.50883 0.12788 0.0
C272 C 0.4589 0.49561 0.13697 0.0
C273 C 0.53788 0.44814 0.15069 0.0
C274 C 0.52977 0.43189 0.13995 0.0
C275 C 0.54558 0.41867 0.13174 0.0
C276 C 0.5699 0.42131 0.13414 0.0
C277 C 0.57794 0.43724 0.14514 0.0
C278 C 0.56212 0.45066 0.15321 0.0
C279 C 0.52105 0.46355 0.15849 0.0
C280 C 0.50498 0.47654 0.15015 0.0
C281 C 0.52149 0.46641 0.17391 0.0
C282 C 0.53721 0.45239 0.18332 0.0
C283 C 0.53477 0.428 0.18355 0.0
C284 C 0.55016 0.41465 0.19202 0.0
C285 C 0.56859 0.4254 0.20022 0.0
C286 C 0.57065 0.44998 0.20013 0.0
C287 C 0.55494 0.46335 0.19187 0.0
H288 H 0.54172 0.93968 0.39647 0.0
H289 H 0.51783 0.90982 0.38359 0.0
H290 H 0.45528 0.94199 0.40075 0.0
H291 H 0.47939 0.97133 0.41389 0.0
H292 H 0.53913 0.98767 0.39234 0.0
H293 H 0.53175 0.9341 0.43188 0.0
H294 H 0.50975 0.90902 0.44793 0.0
H295 H 0.47124 0.96942 0.46365 0.0
H296 H 0.49358 0.9944 0.44772 0.0
H297 H 0.53955 0.05127 0.44258 0.0
H298 H 0.56453 0.08199 0.45377 0.0
H299 H 0.62524 0.049 0.43477 0.0
H300 H 0.60014 0.01879 0.42341 0.0
H301 H 0.54041 0.00342 0.44601 0.0
H302 H 0.54685 0.05705 0.4071 0.0
H303 H 0.56661 0.08278 0.39032 0.0
H304 H 0.60451 0.0234 0.37269 0.0
H305 H 0.58505 0.99783 0.38974 0.0
C306 C 0.51232 0.95763 0.40614 0.0
C307 C 0.52287 0.94011 0.39754 0.0
C308 C 0.50917 0.92315 0.39014 0.0
C309 C 0.4846 0.92356 0.39106 0.0
C310 C 0.47414 0.9409 0.39996 0.0
C311 C 0.48789 0.95776 0.40744 0.0
C312 C 0.52676 0.97651 0.41313 0.0
C313 C 0.53972 0.9909 0.40409 0.0
C314 C 0.52685 0.98116 0.4284 0.0
C315 C 0.51408 0.96606 0.43849 0.0
C316 C 0.51854 0.94191 0.43878 0.0
C317 C 0.50594 0.9276 0.44795 0.0
C318 C 0.48865 0.93719 0.45704 0.0
C319 C 0.48463 0.9615 0.45694 0.0
C320 C 0.49729 0.9758 0.44779 0.0
C321 C 0.568 0.03293 0.43208 0.0
C322 C 0.55825 0.05075 0.44084 0.0
C323 C 0.57256 0.06822 0.44725 0.0
C324 C 0.59688 0.06803 0.4451 0.0
C325 C 0.60654 0.04998 0.4364 0.0
C326 C 0.59224 0.03262 0.42995 0.0
C327 C 0.55296 0.01442 0.42522 0.0
C328 C 0.53986 0.00016 0.43426 0.0
C329 C 0.5526 0.00997 0.40993 0.0
C330 C 0.56464 0.02556 0.39976 0.0
C331 C 0.55957 0.04962 0.39971 0.0
C332 C 0.57072 0.06426 0.39003 0.0
C333 C 0.58714 0.05512 0.38019 0.0
C334 C 0.59216 0.03101 0.38025 0.0
C335 C 0.58093 0.01635 0.38991 0.0
H336 H 0.05162 0.08398 0.69913 0.0
H337 H 0.02126 0.10856 0.71013 0.0
H338 H 0.96812 0.0693 0.68553 0.0
H339 H 0.99839 0.04424 0.67518 0.0
H340 H 0.06009 0.03684 0.6997 0.0
H341 H 0.04216 0.0933 0.66257 0.0
H342 H 0.01461 0.11552 0.64738 0.0
H343 H 0.98897 0.05087 0.62728 0.0
H344 H 0.01623 0.02875 0.6427 0.0
H345 H 0.06637 0.98147 0.64686 0.0
H346 H 0.09289 0.95619 0.63311 0.0
H347 H 0.1522 0.98923 0.65547 0.0
H348 H 0.12547 0.01487 0.66904 0.0
H349 H 0.06347 0.02827 0.64562 0.0
H350 H 0.07255 0.97245 0.68403 0.0
H351 H 0.09337 0.94701 0.70116 0.0
H352 H 0.13252 0.00654 0.71859 0.0
H353 H 0.11132 0.03208 0.7015 0.0
C354 C 0.02728 0.06254 0.68618 0.0
C355 C 0.0334 0.08058 0.69624 0.0
C356 C 0.01604 0.09472 0.70241 0.0
C357 C 0.99225 0.09101 0.69863 0.0
C358 C 0.98622 0.07253 0.6888 0.0
C359 C 0.00353 0.05835 0.68273 0.0
C360 C 0.04563 0.04819 0.67907 0.0
C361 C 0.06119 0.03537 0.68788 0.0
C362 C 0.04667 0.04578 0.66366 0.0
C363 C 0.03111 0.05938 0.65382 0.0
C364 C 0.03062 0.08394 0.65487 0.0
C365 C 0.01498 0.09661 0.64613 0.0
C366 C -0.00044 0.08491 0.6362 0.0
C367 C 0.00043 0.06033 0.63498 0.0
C368 C 0.01613 0.0477 0.64367 0.0
C369 C 0.09393 2e-05 0.65898 0.0
C370 C 0.08508 0.98314 0.6489 0.0
C371 C 0.10026 0.96858 0.64113 0.0
C372 C 0.12466 0.9707 0.64322 0.0
C373 C 0.1335 0.9873 0.65356 0.0
C374 C 0.11825 0.00182 0.6614 0.0
C375 C 0.0777 0.01664 0.66625 0.0
C376 C 0.06265 0.03003 0.65745 0.0
C377 C 0.07697 0.01939 0.68164 0.0
C378 C 0.09055 0.00405 0.69148 0.0
C379 C 0.08571 0.97999 0.69149 0.0
C380 C 0.09744 0.96555 0.70132 0.0
C381 C 0.1144 0.97491 0.71122 0.0
C382 C 0.11953 -0.00104 0.71104 0.0
C383 C 0.10747 0.0135 0.70134 0.0
Zn384 Zn 0.29273 0.73097 0.98096 0.0
Zn385 Zn 0.30684 0.70456 0.00421 0.0
O386 O 0.27138 0.7001 0.00414 0.0
O387 O 0.25944 0.72154 0.98568 0.0
O388 O 0.31932 0.686 0.02109 0.0
O389 O 0.3079 0.75954 0.99104 0.0
O390 O 0.31829 0.73751 0.00952 0.0
C391 C 0.25489 0.70802 0.99605 0.0
C392 C 0.32329 0.69256 0.97311 0.0
O393 O 0.32279 0.68897 0.98679 0.0
O394 O 0.31191 0.70948 0.96772 0.0
C395 C 0.3116 0.66599 0.02438 0.0
O396 O 0.29394 0.6568 0.01674 0.0
C397 C 0.31778 0.75737 0.0035 0.0
Zn398 Zn 0.29753 0.7642 0.27937 0.0
Zn399 Zn 0.31863 0.79011 0.25857 0.0
O400 O 0.28535 0.80333 0.25858 0.0
O401 O 0.26761 0.78229 0.27488 0.0
O402 O 0.33534 0.80783 0.2431 0.0
O403 O 0.3057 0.73445 0.26804 0.0
O404 O 0.32246 0.756 0.25162 0.0
C405 C 0.26711 0.79857 0.26569 0.0
C406 C 0.33619 0.79281 0.29056 0.0
O407 O 0.33709 0.79889 0.27727 0.0
O408 O 0.32106 0.77802 0.29434 0.0
C409 C 0.33132 0.82918 0.24031 0.0
O410 O 0.31524 0.8406 0.24766 0.0
C411 C 0.31684 0.73598 0.25628 0.0
Zn412 Zn 0.26844 0.77183 0.4911 0.0
Zn413 Zn 0.25462 0.801 0.51339 0.0
O414 O 0.28988 0.80707 0.51312 0.0
O415 O 0.30175 0.7831 0.49556 0.0
O416 O 0.24297 0.82062 0.53029 0.0
O417 O 0.25453 0.74398 0.50126 0.0
O418 O 0.24396 0.7683 0.51894 0.0
C419 C 0.30625 0.79871 0.50534 0.0
C420 C 0.23629 0.80846 0.48207 0.0
O421 O 0.23729 0.81425 0.49563 0.0
O422 O 0.24775 0.79092 0.47736 0.0
C423 C 0.24901 0.84169 0.53313 0.0
O424 O 0.26409 0.85189 0.52472 0.0
C425 C 0.24468 0.74766 0.51337 0.0
Zn426 Zn 0.25188 0.73915 0.75056 0.0
Zn427 Zn 0.22314 0.7273 0.77254 0.0
O428 O 0.22046 0.76306 0.77222 0.0
O429 O 0.24465 0.77329 0.7551 0.0
O430 O 0.20286 0.71823 0.78925 0.0
O431 O 0.2788 0.72257 0.76069 0.0
O432 O 0.25502 0.71314 0.7782 0.0
C433 C 0.22996 0.77888 0.76476 0.0
C434 C 0.21213 0.71041 0.74108 0.0
O435 O 0.2074 0.71138 0.75462 0.0
O436 O 0.23015 0.72069 0.73653 0.0
C437 C 0.18063 0.71823 0.78802 0.0
O438 O 0.17066 0.72469 0.77566 0.0
C439 C 0.27523 0.7124 0.77259 0.0
Zn440 Zn 0.79847 0.24023 0.53627 0.0
Zn441 Zn 0.82535 0.22638 0.51326 0.0
O442 O 0.82939 0.26191 0.51321 0.0
O443 O 0.80649 0.27365 0.53104 0.0
O444 O 0.84438 0.21383 0.49656 0.0
O445 O 0.77042 0.22404 0.52655 0.0
O446 O 0.79242 0.21436 0.50789 0.0
C447 C 0.82042 0.27833 0.52091 0.0
C448 C 0.83754 0.21094 0.54455 0.0
O449 O 0.84117 0.21117 0.53087 0.0
O450 O 0.82031 0.22205 0.54981 0.0
C451 C 0.86497 0.22088 0.49403 0.0
O452 O 0.87423 0.23782 0.50227 0.0
C453 C 0.77264 0.21434 0.51404 0.0
Zn454 Zn 0.792 0.28125 0.76813 0.0
Zn455 Zn 0.80708 0.30828 0.74609 0.0
O456 O 0.77138 0.312 0.74477 0.0
O457 O 0.75864 0.28863 0.76166 0.0
O458 O 0.81933 0.32721 0.7296 0.0
O459 O 0.80944 0.25345 0.75955 0.0
O460 O 0.8206 0.27569 0.74167 0.0
C461 C 0.75451 0.30304 0.75159 0.0
C462 C 0.82049 0.32095 0.77795 0.0
O463 O 0.82151 0.32457 0.76429 0.0
O464 O 0.80891 0.30373 0.78247 0.0
C465 C 0.81066 0.34672 0.72583 0.0
O466 O 0.79247 0.35514 0.73275 0.0
C467 C 0.82055 0.25595 0.74786 0.0
Zn468 Zn 0.76004 0.26665 0.0268 0.0
Zn469 Zn 0.7315 0.28039 0.00411 0.0
O470 O 0.72529 0.24531 0.00445 0.0
O471 O 0.74897 0.2332 0.02207 0.0
O472 O 0.71258 0.29186 0.98687 0.0
O473 O 0.78819 0.28091 0.01713 0.0
O474 O 0.76447 0.29085 0.99899 0.0
C475 C 0.73343 0.22885 0.01222 0.0
C476 C 0.72274 0.29861 0.03527 0.0
O477 O 0.71741 0.2976 0.02166 0.0
O478 O 0.74024 0.28732 0.0402 0.0
C479 C 0.69186 0.28528 0.98345 0.0
O480 O 0.68151 0.2698 0.9915 0.0
C481 C 0.7849 0.29041 0.00488 0.0
Zn482 Zn 0.77008 0.23212 0.23904 0.0
Zn483 Zn 0.74293 0.21189 0.25951 0.0
O484 O 0.73017 0.24526 0.25919 0.0
O485 O 0.75306 0.26267 0.24369 0.0
O486 O 0.72472 0.19579 0.27493 0.0
O487 O 0.79939 0.22306 0.25047 0.0
O488 O 0.7768 0.20743 0.26678 0.0
C489 C 0.73612 0.26346 0.25241 0.0
C490 C 0.74034 0.19427 0.22762 0.0
O491 O 0.73403 0.19351 0.24086 0.0
O492 O 0.75564 0.20897 0.22394 0.0
C493 C 0.70253 0.19668 0.27563 0.0
O494 O 0.69062 0.20907 0.26608 0.0
C495 C 0.79714 0.21229 0.2623 0.0
H496 H 0.14179 0.97532 0.29925 0.0
H497 H 0.16569 0.94827 0.28472 0.0
H498 H 0.12469 0.89014 0.29922 0.0
H499 H 0.10046 0.91717 0.31346 0.0
H500 H 0.19279 0.91526 0.29538 0.0
H501 H 0.12911 0.8731 0.25657 0.0
H502 H 0.12227 0.89937 0.26702 0.0
H503 H 0.11994 0.87105 0.27511 0.0
C504 C 0.13774 0.95679 0.29917 0.0
C505 C 0.11931 0.94831 0.30748 0.0
C506 C 0.1513 0.94137 0.29082 0.0
C507 C 0.14676 0.91719 0.29067 0.0
C508 C 0.1281 0.90876 0.29878 0.0
H509 H 0.2248 0.79283 0.27854 0.0
H510 H 0.19417 0.82233 0.28149 0.0
C511 C 0.11436 0.9242 0.30701 0.0
C512 C 0.16307 0.90062 0.2834 0.0
H513 H 0.16549 0.85228 0.26066 0.0
C514 C 0.18688 0.90179 0.28756 0.0
C515 C 0.15534 0.88301 0.27321 0.0
C516 C 0.1303 0.8817 0.26761 0.0
C517 C 0.20296 0.88524 0.28235 0.0
C518 C 0.19506 0.8671 0.27264 0.0
C519 C 0.17143 0.86624 0.26811 0.0
C520 C 0.21093 0.84792 0.26819 0.0
C521 C 0.22812 0.88662 0.28779 0.0
C522 C 0.22992 0.85224 0.25919 0.0
C523 C 0.2475 0.83542 0.25747 0.0
C524 C 0.24636 0.81408 0.2648 0.0
C525 C 0.22633 0.80916 0.27285 0.0
C526 C 0.20875 0.82595 0.27452 0.0
H527 H 0.23064 0.89977 0.29686 0.0
H528 H 0.23413 0.86929 0.29166 0.0
H529 H 0.23944 0.89159 0.27866 0.0
H530 H 0.23176 0.86909 0.25415 0.0
H531 H 0.2626 0.83974 0.25111 0.0
H532 H 0.09731 0.63289 0.5847 0.0
H533 H 0.12913 0.65566 0.57466 0.0
H534 H 0.12859 0.61041 0.53616 0.0
H535 H 0.09599 0.58827 0.54575 0.0
H536 H 0.17347 0.64284 0.56658 0.0
H537 H 0.12203 0.67463 0.51869 0.0
H538 H 0.10854 0.66051 0.53379 0.0
H539 H 0.12288 0.64332 0.51989 0.0
C540 C 0.10372 0.62796 0.574 0.0
C541 C 0.09389 0.6089 0.56596 0.0
C542 C 0.12207 0.64085 0.56835 0.0
C543 C 0.13097 0.63495 0.55457 0.0
C544 C 0.12167 0.61555 0.54669 0.0
H545 H 0.23535 0.70355 0.50228 0.0
H546 H 0.21021 0.67389 0.51275 0.0
C547 C 0.10321 0.60274 0.55228 0.0
C548 C 0.14979 0.64929 0.54841 0.0
H549 H 0.16235 0.68402 0.51976 0.0
C550 C 0.17107 0.65182 0.55633 0.0
C551 C 0.14658 0.66102 0.53505 0.0
C552 C 0.12371 0.65996 0.52641 0.0
C553 C 0.18924 0.66578 0.55123 0.0
C554 C 0.18593 0.67758 0.53794 0.0
C555 C 0.16484 0.67476 0.52991 0.0
C556 C 0.20349 0.6941 0.53253 0.0
C557 C 0.21185 0.6678 0.56005 0.0
C558 C 0.2082 0.71513 0.54029 0.0
C559 C 0.22243 0.73215 0.53433 0.0
C560 C 0.23218 0.72845 0.52048 0.0
C561 C 0.22817 0.70694 0.51299 0.0
C562 C 0.21379 0.68998 0.51893 0.0
H563 H 0.21384 0.65335 0.56791 0.0
H564 H 0.22715 0.66768 0.55278 0.0
H565 H 0.21199 0.68462 0.5664 0.0
H566 H 0.2001 0.71877 0.5507 0.0
H567 H 0.22516 0.74851 0.54039 0.0
H568 H 0.4241 0.54941 0.79381 0.0
H569 H 0.39645 0.57994 0.78639 0.0
H570 H 0.39879 0.60952 0.83028 0.0
H571 H 0.42631 0.57905 0.83781 0.0
H572 H 0.3524 0.58956 0.79763 0.0
H573 H 0.41179 0.66619 0.80493 0.0
H574 H 0.42238 0.63639 0.80423 0.0
H575 H 0.40999 0.64823 0.82072 0.0
C576 C 0.41869 0.5624 0.80188 0.0
C577 C 0.4275 0.56192 0.81637 0.0
C578 C 0.40299 0.57986 0.79762 0.0
C579 C 0.3959 0.59718 0.80773 0.0
C580 C 0.40449 0.59665 0.82222 0.0
H581 H 0.27313 0.68613 0.79719 0.0
H582 H 0.3028 0.65905 0.80652 0.0
C583 C 0.4202 0.57922 0.8265 0.0
C584 C 0.37886 0.61531 0.80324 0.0
H585 H 0.37158 0.67435 0.80013 0.0
C586 C 0.35657 0.6081 0.79815 0.0
C587 C 0.38449 0.63945 0.80383 0.0
C588 C 0.40853 0.64809 0.80859 0.0
C589 C 0.33963 0.62442 0.79373 0.0
C590 C 0.34505 0.64859 0.79467 0.0
C591 C 0.36742 0.65581 0.79961 0.0
C592 C 0.32798 0.66653 0.78995 0.0
C593 C 0.31626 0.61562 0.7878 0.0
C594 C 0.33275 0.68039 0.77793 0.0
C595 C 0.31593 0.69598 0.77262 0.0
C596 C 0.29402 0.69802 0.77928 0.0
C597 C 0.28974 0.68488 0.79175 0.0
C598 C 0.30661 0.6693 0.79705 0.0
H599 H 0.31685 0.5967 0.78468 0.0
H600 H 0.30292 0.61803 0.79634 0.0
H601 H 0.3105 0.6256 0.77808 0.0
H602 H 0.34922 0.67859 0.77237 0.0
H603 H 0.31986 0.7059 0.76304 0.0
H604 H 0.42452 0.91684 0.08222 0.0
H605 H 0.39739 0.88823 0.07077 0.0
H606 H 0.4345 0.89181 0.03035 0.0
H607 H 0.46156 0.92055 0.04164 0.0
H608 H 0.36804 0.89043 0.04457 0.0
H609 H 0.43683 0.82171 0.04133 0.0
H610 H 0.4402 0.8479 0.05266 0.0
H611 H 0.44423 0.84903 0.03325 0.0
C612 C 0.42669 0.91179 0.07083 0.0
C613 C 0.44531 0.92077 0.06286 0.0
C614 C 0.41124 0.89542 0.06434 0.0
C615 C 0.4142 0.88773 0.04981 0.0
C616 C 0.43221 0.89726 0.04166 0.0
H617 H 0.32256 0.80187 0.99337 0.0
H618 H 0.34451 0.83439 0.00503 0.0
C619 C 0.44767 0.91361 0.04814 0.0
C620 C 0.39903 0.86906 0.04333 0.0
H621 H 0.40021 0.81285 0.02987 0.0
C622 C 0.37499 0.87344 0.04135 0.0
C623 C 0.40821 0.84688 0.03935 0.0
C624 C 0.43374 0.84092 0.04185 0.0
C625 C 0.35988 0.85621 0.03526 0.0
C626 C 0.36919 0.83422 0.03096 0.0
C627 C 0.39318 0.8298 0.03311 0.0
C628 C 0.35443 0.81529 0.02437 0.0
C629 C 0.33407 0.86149 0.0337 0.0
C630 C 0.3529 0.79379 0.03135 0.0
C631 C 0.34054 0.77516 0.02471 0.0
C632 C 0.32955 0.77765 0.01089 0.0
C633 C 0.33076 0.79939 0.00403 0.0
C634 C 0.34317 0.81804 0.0107 0.0
H635 H 0.32898 0.87685 0.04062 0.0
H636 H 0.3298 0.86549 0.02212 0.0
H637 H 0.3234 0.84616 0.03671 0.0
H638 H 0.36156 0.79133 0.04188 0.0
H639 H 0.33995 0.75869 0.03031 0.0
H640 H 0.0657 0.58465 0.98707 0.0
H641 H 0.09711 0.60653 1.00001 0.0
H642 H 0.09604 0.65757 0.96602 0.0
H643 H 0.06508 0.63572 0.95293 0.0
H644 H 0.14016 0.61368 0.9876 0.0
H645 H 0.10053 0.69872 0.00329 0.0
H646 H 0.08319 0.67297 0.99869 0.0
H647 H 0.09451 0.69069 0.98446 0.0
C648 C 0.07201 0.60067 0.98243 0.0
C649 C 0.06295 0.60839 0.96893 0.0
C650 C 0.08979 0.61323 0.9899 0.0
C651 C 0.09863 0.63384 0.98409 0.0
C652 C 0.08904 0.64204 0.9709 0.0
H653 H 0.21629 0.71875 0.97933 0.0
H654 H 0.17748 0.70117 0.98014 0.0
C655 C 0.07134 0.62948 0.96341 0.0
C656 C 0.11988 0.64513 0.99059 0.0
H657 H 0.14267 0.69839 0.00096 0.0
C658 C 0.14069 0.63207 0.99088 0.0
C659 C 0.12042 0.66908 0.99485 0.0
C660 C 0.0984 0.68363 0.99546 0.0
C661 C 0.16234 0.64273 0.99423 0.0
C662 C 0.16306 0.66703 0.99769 0.0
C663 C 0.14206 0.67979 0.99827 0.0
C664 C 0.18554 0.67991 0.99886 0.0
C665 C 0.18436 0.62823 0.993 0.0
C666 C 0.2027 0.67439 0.00947 0.0
C667 C 0.22509 0.68425 0.00896 0.0
C668 C 0.23053 0.69996 0.99791 0.0
C669 C 0.21278 0.70657 0.98793 0.0
C670 C 0.19052 0.69662 0.98839 0.0
H671 H 0.18095 0.61084 0.98764 0.0
H672 H 0.19769 0.6375 0.98664 0.0
H673 H 0.19186 0.62528 0.00411 0.0
H674 H 0.19903 0.66187 0.01783 0.0
H675 H 0.23829 0.67898 0.01691 0.0
H676 H 0.39994 0.5397 0.2038 0.0
H677 H 0.37449 0.57032 0.21392 0.0
H678 H 0.42765 0.6221 0.20673 0.0
H679 H 0.45294 0.59188 0.19625 0.0
H680 H 0.40708 0.62066 0.23647 0.0
H681 H 0.34191 0.62544 0.19026 0.0
H682 H 0.34968 0.59689 0.1968 0.0
H683 H 0.37113 0.61404 0.18787 0.0
C684 C 0.40611 0.55764 0.2042 0.0
C685 C 0.42852 0.56332 0.19925 0.0
C686 C 0.39157 0.57507 0.21001 0.0
C687 C 0.39921 0.59839 0.21096 0.0
C688 C 0.42151 0.60414 0.20608 0.0
H689 H 0.33921 0.73263 0.23018 0.0
H690 H 0.35689 0.69767 0.21907 0.0
C691 C 0.43599 0.5868 0.2002 0.0
C692 C 0.38434 0.61687 0.21744 0.0
H693 H 0.33591 0.65041 0.2108 0.0
C694 C 0.39141 0.62707 0.23094 0.0
C695 C 0.36406 0.62519 0.21009 0.0
C696 C 0.35617 0.615 0.1954 0.0
C697 C 0.37878 0.64561 0.23727 0.0
C698 C 0.35853 0.65401 0.2299 0.0
C699 C 0.35136 0.64373 0.21643 0.0
C700 C 0.34545 0.67434 0.23574 0.0
C701 C 0.3875 0.65655 0.25159 0.0
C702 C 0.33264 0.67254 0.24856 0.0
C703 C 0.32246 0.69244 0.25493 0.0
C704 C 0.32502 0.71448 0.2486 0.0
C705 C 0.33701 0.71596 0.23538 0.0
C706 C 0.34708 0.69602 0.22899 0.0
H707 H 0.40534 0.65038 0.25471 0.0
H708 H 0.38781 0.67594 0.25092 0.0
H709 H 0.3754 0.65195 0.26039 0.0
H710 H 0.33109 0.65585 0.25384 0.0
H711 H 0.31329 0.69066 0.26508 0.0
H712 H 0.47046 0.89416 0.44946 0.0
H713 H 0.44448 0.87002 0.46363 0.0
H714 H 0.44746 0.92123 0.49909 0.0
H715 H 0.4739 0.94542 0.48508 0.0
H716 H 0.44989 0.85149 0.49354 0.0
H717 H 0.37661 0.91509 0.48655 0.0
H718 H 0.40213 0.9155 0.47528 0.0
H719 H 0.40407 0.92617 0.49389 0.0
C720 C 0.46601 0.90012 0.46038 0.0
C721 C 0.47418 0.9218 0.4661 0.0
C722 C 0.4511 0.88632 0.46845 0.0
C723 C 0.44395 0.89396 0.48233 0.0
C724 C 0.45262 0.91519 0.48831 0.0
H725 H 0.32163 0.83471 0.52355 0.0
H726 H 0.35808 0.85685 0.52176 0.0
C727 C 0.4676 0.92901 0.48026 0.0
C728 C 0.42625 0.88029 0.49002 0.0
H729 H 0.36815 0.87983 0.49775 0.0
C730 C 0.43207 0.85775 0.49467 0.0
C731 C 0.40312 0.88863 0.49156 0.0
C732 C 0.39591 0.91261 0.48651 0.0
C733 C 0.4151 0.84299 0.50042 0.0
C734 C 0.39164 0.85084 0.50118 0.0
C735 C 0.38613 0.87382 0.49719 0.0
C736 C 0.37199 0.8349 0.50438 0.0
C737 C 0.42243 0.81907 0.50545 0.0
C738 C 0.36797 0.81484 0.49549 0.0
C739 C 0.34725 0.80209 0.49653 0.0
C740 C 0.32993 0.80934 0.50635 0.0
C741 C 0.33457 0.82866 0.51584 0.0
C742 C 0.35539 0.84136 0.51483 0.0
H743 H 0.44101 0.81911 0.50935 0.0
H744 H 0.41127 0.81297 0.51438 0.0
H745 H 0.42086 0.80636 0.49609 0.0
H746 H 0.3802 0.80981 0.4871 0.0
H747 H 0.34427 0.78733 0.48904 0.0
H748 H 0.0948 0.94432 0.72969 0.0
H749 H 0.11494 0.91572 0.74501 0.0
H750 H 0.18166 0.94115 0.73082 0.0
H751 H 0.16151 0.97031 0.71588 0.0
H752 H 0.14015 0.8814 0.73457 0.0
H753 H 0.19657 0.93297 0.77339 0.0
H754 H 0.17316 0.94611 0.7628 0.0
H755 H 0.20127 0.94077 0.75481 0.0
C756 C 0.11378 0.94404 0.73008 0.0
C757 C 0.12666 0.95939 0.7216 0.0
C758 C 0.12527 0.92779 0.73886 0.0
C759 C 0.14984 0.92644 0.73923 0.0
C760 C 0.16274 0.94226 0.73107 0.0
H761 H 0.24781 0.81728 0.75166 0.0
H762 H 0.22852 0.85511 0.7487 0.0
C763 C 0.15124 0.95879 0.72245 0.0
C764 C 0.16168 0.90662 0.74656 0.0
H765 H 0.20718 0.89227 0.76964 0.0
C766 C 0.15449 0.88383 0.74246 0.0
C767 C 0.18048 0.90977 0.75682 0.0
C768 C 0.18816 0.93375 0.76232 0.0
C769 C 0.16611 0.86415 0.74786 0.0
C770 C 0.18538 0.8673 0.7577 0.0
C771 C 0.19233 0.89 0.76211 0.0
C772 C 0.19944 0.84702 0.76242 0.0
C773 C 0.15829 0.84007 0.74254 0.0
C774 C 0.18995 0.83045 0.77167 0.0
C775 C 0.2009 0.80876 0.77339 0.0
C776 C 0.22144 0.80334 0.7658 0.0
C777 C 0.2319 0.82081 0.75754 0.0
C778 C 0.22097 0.84249 0.75588 0.0
H779 H 0.14507 0.84082 0.73344 0.0
H780 H 0.17352 0.82966 0.73875 0.0
H781 H 0.15042 0.83069 0.75171 0.0
H782 H 0.17335 0.83375 0.77683 0.0
H783 H 0.19244 0.79576 0.77989 0.0
H784 H 0.5685 0.37452 0.80094 0.0
H785 H 0.59769 0.35463 0.78581 0.0
H786 H 0.61657 0.42077 0.76753 0.0
H787 H 0.58805 0.44078 0.78307 0.0
H788 H 0.6068 0.35003 0.7566 0.0
H789 H 0.67782 0.40038 0.78577 0.0
H790 H 0.64797 0.40095 0.79172 0.0
H791 H 0.6566 0.41831 0.77659 0.0
C792 C 0.57872 0.38471 0.79355 0.0
C793 C 0.57637 0.40917 0.79329 0.0
C794 C 0.59533 0.37336 0.78491 0.0
C795 C 0.60966 0.3863 0.77579 0.0
C796 C 0.60615 0.41054 0.77479 0.0
H797 H 0.74053 0.34187 0.73675 0.0
H798 H 0.70273 0.36174 0.73855 0.0
C799 C 0.58985 0.42193 0.78361 0.0
C800 C 0.62942 0.37466 0.76829 0.0
H801 H 0.68911 0.37394 0.76722 0.0
C802 C 0.6248 0.35536 0.75882 0.0
C803 C 0.65291 0.38159 0.77125 0.0
C804 C 0.65921 0.40128 0.78198 0.0
C805 C 0.64311 0.34258 0.75241 0.0
C806 C 0.66652 0.3493 0.75561 0.0
C807 C 0.67108 0.36903 0.76466 0.0
C808 C 0.68678 0.3348 0.75123 0.0
C809 C 0.63733 0.32183 0.74245 0.0
C810 C 0.69001 0.31272 0.75733 0.0
C811 C 0.71162 0.3014 0.75643 0.0
C812 C 0.73039 0.31202 0.74943 0.0
C813 C 0.72646 0.33322 0.74224 0.0
C814 C 0.70487 0.34461 0.74325 0.0
H815 H 0.61924 0.32298 0.73778 0.0
H816 H 0.64985 0.3204 0.73336 0.0
H817 H 0.63861 0.30558 0.74883 0.0
H818 H 0.67642 0.30502 0.76374 0.0
H819 H 0.71403 0.28503 0.76201 0.0
H820 H 0.63593 0.04996 0.06046 0.0
H821 H 0.66133 0.07685 0.0476 0.0
H822 H 0.60039 0.10922 0.02792 0.0
H823 H 0.57498 0.08297 0.0412 0.0
H824 H 0.66885 0.08767 0.01932 0.0
H825 H 0.6309 0.16413 0.04903 0.0
H826 H 0.62464 0.13439 0.05378 0.0
H827 H 0.60951 0.14748 0.03854 0.0
C828 C 0.62804 0.06268 0.05326 0.0
C829 C 0.60356 0.06469 0.05194 0.0
C830 C 0.64252 0.07799 0.04592 0.0
C831 C 0.63273 0.09539 0.03707 0.0
C832 C 0.6083 0.09638 0.03502 0.0
H833 H 0.69385 0.21597 0.99661 0.0
H834 H 0.67039 0.18079 0.99982 0.0
C835 C 0.59382 0.08136 0.04255 0.0
C836 C 0.64799 0.11337 0.03076 0.0
H837 H 0.65803 0.1723 0.03079 0.0
C838 C 0.66646 0.10618 0.02179 0.0
C839 C 0.645 0.13752 0.03412 0.0
C840 C 0.62661 0.14636 0.04451 0.0
C841 C 0.68194 0.12256 0.01605 0.0
C842 C 0.67874 0.1466 0.01935 0.0
C843 C 0.66017 0.1538 0.02815 0.0
C844 C 0.69522 0.16477 0.01472 0.0
C845 C 0.70162 0.1142 0.00655 0.0
C846 C 0.71726 0.167 0.02172 0.0
C847 C 0.73066 0.18719 0.02003 0.0
C848 C 0.72218 0.20547 0.01133 0.0
C849 C 0.70091 0.20228 0.00342 0.0
C850 C 0.68745 0.18217 0.00521 0.0
H851 H 0.6993 0.09561 0.0029 0.0
H852 H 0.70286 0.12525 0.99677 0.0
H853 H 0.71844 0.11579 0.01283 0.0
H854 H 0.72339 0.15385 0.02925 0.0
H855 H 0.74699 0.18905 0.02623 0.0
H856 H 0.97337 0.08834 0.29856 0.0
H857 H 0.94235 0.11276 0.28807 0.0
H858 H 0.93551 0.14922 0.32966 0.0
H859 H 0.96661 0.12492 0.34021 0.0
H860 H 0.89709 0.11482 0.29716 0.0
H861 H 0.93807 0.20296 0.30112 0.0
H862 H 0.95475 0.17629 0.30299 0.0
H863 H 0.93824 0.18772 0.31807 0.0
C864 C 0.96533 0.10165 0.30544 0.0
C865 C 0.97238 0.10473 0.3202 0.0
C866 C 0.94771 0.11564 0.29943 0.0
C867 C 0.93684 0.13297 0.30804 0.0
C868 C 0.94405 0.13631 0.32273 0.0
H869 H 0.79884 0.18959 0.28831 0.0
H870 H 0.83306 0.17183 0.30016 0.0
C871 C 0.96177 0.12239 0.32875 0.0
C872 C 0.91687 0.14633 0.30189 0.0
H873 H 0.89739 0.20153 0.29477 0.0
C874 C 0.89718 0.13378 0.2966 0.0
C875 C 0.91714 0.17104 0.30108 0.0
C876 C 0.93825 0.18532 0.30599 0.0
C877 C 0.87764 0.14525 0.29061 0.0
C878 C 0.87761 0.16999 0.29017 0.0
C879 C 0.89739 0.18258 0.29531 0.0
C880 C 0.85743 0.18293 0.28395 0.0
C881 C 0.85738 0.13073 0.28452 0.0
C882 C 0.86004 0.19592 0.27128 0.0
C883 C 0.84056 0.20625 0.26452 0.0
C884 C 0.81813 0.20375 0.27034 0.0
C885 C 0.81581 0.19166 0.28345 0.0
C886 C 0.83532 0.18142 0.29022 0.0
H887 H 0.86251 0.11219 0.28244 0.0
H888 H 0.84308 0.13094 0.29252 0.0
H889 H 0.85041 0.13798 0.27413 0.0
H890 H 0.87702 0.19737 0.26633 0.0
H891 H 0.84299 0.21553 0.25447 0.0
H892 H 0.90149 0.48954 0.54188 0.0
H893 H 0.87622 0.45847 0.53117 0.0
H894 H 0.92754 0.40671 0.54336 0.0
H895 H 0.95259 0.43732 0.55433 0.0
H896 H 0.88946 0.41551 0.50907 0.0
H897 H 0.86137 0.39576 0.56533 0.0
H898 H 0.87256 0.42409 0.56055 0.0
H899 H 0.89229 0.39996 0.563 0.0
C900 C 0.90746 0.47155 0.54216 0.0
C901 C 0.929 0.46588 0.54902 0.0
C902 C 0.89312 0.45391 0.53593 0.0
C903 C 0.90012 0.43044 0.53652 0.0
C904 C 0.92198 0.42482 0.54277 0.0
H905 H 0.85971 0.29399 0.50774 0.0
H906 H 0.87552 0.33373 0.50901 0.0
C907 C 0.93629 0.44236 0.54897 0.0
C908 C 0.88383 0.4114 0.53207 0.0
H909 H 0.85165 0.36795 0.54659 0.0
C910 C 0.88085 0.40524 0.5172 0.0
C911 C 0.87246 0.39838 0.54272 0.0
C912 C 0.87461 0.40489 0.55881 0.0
C913 C 0.86747 0.38553 0.51274 0.0
C914 C 0.85726 0.37162 0.5235 0.0
C915 C 0.85946 0.37857 0.53832 0.0
C916 C 0.8457 0.34885 0.52001 0.0
C917 C 0.86457 0.37975 0.49661 0.0
C918 C 0.82358 0.34411 0.52563 0.0
C919 C 0.81475 0.32131 0.52521 0.0
C920 C 0.82782 0.30285 0.51905 0.0
C921 C 0.8492 0.30788 0.5125 0.0
C922 C 0.85818 0.33066 0.51311 0.0
H923 H 0.86593 0.39573 0.49 0.0
H924 H 0.87874 0.36761 0.49324 0.0
H925 H 0.84745 0.37117 0.49406 0.0
H926 H 0.81367 0.35786 0.53102 0.0
H927 H 0.79812 0.318 0.53023 0.0
H928 H 0.63456 0.08978 0.4334 0.0
H929 H 0.66183 0.11721 0.44569 0.0
H930 H 0.62082 0.11585 0.48467 0.0
H931 H 0.59407 0.08751 0.47273 0.0
H932 H 0.65574 0.16105 0.4581 0.0
H933 H 0.68554 0.09798 0.49997 0.0
H934 H 0.66819 0.08915 0.48402 0.0
H935 H 0.65451 0.10308 0.49948 0.0
C936 C 0.63144 0.09514 0.44464 0.0
C937 C 0.61231 0.08618 0.45215 0.0
C938 C 0.64692 0.11098 0.45159 0.0
C939 C 0.64357 0.1182 0.46617 0.0
C940 C 0.62398 0.11009 0.47351 0.0
H941 H 0.72962 0.20594 0.52538 0.0
H942 H 0.69686 0.18444 0.51368 0.0
C943 C 0.60855 0.09412 0.4666 0.0
C944 C 0.66096 0.13378 0.47372 0.0
H945 H 0.70054 0.13648 0.50231 0.0
C946 C 0.66551 0.15572 0.46778 0.0
C947 C 0.67372 0.1267 0.48632 0.0
C948 C 0.67045 0.10287 0.49277 0.0
C949 C 0.68252 0.17079 0.47413 0.0
C950 C 0.69532 0.16362 0.48665 0.0
C951 C 0.69054 0.14189 0.49273 0.0
C952 C 0.71449 0.17794 0.4933 0.0
C953 C 0.68666 0.19428 0.46746 0.0
C954 C 0.73519 0.18128 0.48568 0.0
C955 C 0.75399 0.19341 0.49234 0.0
C956 C 0.75237 0.2024 0.50675 0.0
C957 C 0.73142 0.19929 0.51426 0.0
C958 C 0.71269 0.18703 0.50761 0.0
H959 H 0.67196 0.19934 0.46001 0.0
H960 H 0.68905 0.20813 0.47612 0.0
H961 H 0.70289 0.19345 0.46103 0.0
H962 H 0.73699 0.17405 0.47469 0.0
H963 H 0.76987 0.19548 0.48625 0.0
H964 H 0.99398 0.13862 0.70289 0.0
H965 H 0.96307 0.16444 0.71192 0.0
H966 H 0.91759 0.10492 0.71641 0.0
H967 H 0.94858 0.07883 0.70774 0.0
H968 H 0.89783 0.14466 0.70063 0.0
H969 H 0.93838 0.16946 0.75473 0.0
H970 H 0.95706 0.17212 0.73929 0.0
H971 H 0.94707 0.14369 0.74435 0.0
C972 C 0.97758 0.13094 0.70604 0.0
C973 C 0.9738 0.10663 0.70462 0.0
C974 C 0.95991 0.14573 0.71114 0.0
C975 C 0.93817 0.13651 0.71491 0.0
C976 C 0.93429 0.11232 0.71354 0.0
H977 H 0.82888 0.21344 0.76012 0.0
H978 H 0.85572 0.18288 0.75167 0.0
C979 C 0.95198 0.09748 0.70852 0.0
C980 C 0.91927 0.15225 0.71987 0.0
H981 H 0.90468 0.19082 0.74727 0.0
C982 C 0.89921 0.15467 0.71086 0.0
C983 C 0.92112 0.16505 0.73328 0.0
C984 C 0.94196 0.16239 0.74357 0.0
C985 C 0.88115 0.17012 0.71475 0.0
C986 C 0.88336 0.18349 0.72793 0.0
C987 C 0.90314 0.1806 0.73712 0.0
C988 C 0.86564 0.20103 0.73228 0.0
C989 C 0.85983 0.17201 0.70478 0.0
C990 C 0.86225 0.22124 0.72409 0.0
C991 C 0.847 0.23879 0.72889 0.0
C992 C 0.83489 0.23642 0.742 0.0
C993 C 0.83788 0.21581 0.74996 0.0
C994 C 0.85323 0.19834 0.74518 0.0
H995 H 0.8583 0.15682 0.69698 0.0
H996 H 0.84361 0.17321 0.71122 0.0
H997 H 0.86116 0.18816 0.69835 0.0
H998 H 0.87194 0.22376 0.7142 0.0
H999 H 0.84514 0.25445 0.72252 0.0
H1000 H 0.90448 0.46455 0.96774 0.0
H1001 H 0.88181 0.43257 0.97773 0.0
H1002 H 0.91758 0.38303 0.94967 0.0
H1003 H 0.94098 0.41497 0.94011 0.0
H1004 H 0.85162 0.40512 0.96425 0.0
H1005 H 0.92215 0.34966 0.98749 0.0
H1006 H 0.92746 0.37898 0.98144 0.0
H1007 H 0.92575 0.35483 0.9684 0.0
C1008 C 0.90762 0.44678 0.96384 0.0
C1009 C 0.92446 0.44213 0.95322 0.0
C1010 C 0.89471 0.42853 0.96954 0.0
C1011 C 0.89819 0.40531 0.96462 0.0
C1012 C 0.91503 0.40066 0.95397 0.0
H1013 H 0.78822 0.30199 0.97622 0.0
H1014 H 0.81728 0.32762 0.96563 0.0
C1015 C 0.92827 0.41891 0.94844 0.0
C1016 C 0.88311 0.38635 0.97001 0.0
H1017 H 0.88394 0.3328 0.98588 0.0
C1018 C 0.85873 0.38935 0.96903 0.0
C1019 C 0.89236 0.36587 0.97639 0.0
C1020 C 0.91836 0.36222 0.97864 0.0
C1021 C 0.84333 0.37258 0.97427 0.0
C1022 C 0.85252 0.35169 0.98014 0.0
C1023 C 0.87691 0.34865 0.98116 0.0
C1024 C 0.83704 0.3334 0.98592 0.0
C1025 C 0.8174 0.37788 0.9739 0.0
C1026 C 0.83947 0.32681 0.00057 0.0
C1027 C 0.82323 0.31168 0.00656 0.0
C1028 C 0.80415 0.30309 0.99801 0.0
C1029 C 0.80255 0.30862 0.98313 0.0
C1030 C 0.81904 0.32339 0.97709 0.0
H1031 H 0.81398 0.39697 0.9731 0.0
H1032 H 0.8091 0.36905 0.96415 0.0
H1033 H 0.80883 0.37152 0.98383 0.0
H1034 H 0.85334 0.33416 0.00756 0.0
H1035 H 0.82493 0.30771 0.01806 0.0
H1036 H 0.58582 0.38228 0.19225 0.0
H1037 H 0.61469 0.35882 0.20518 0.0
H1038 H 0.62196 0.41295 0.23876 0.0
H1039 H 0.59153 0.43585 0.2265 0.0
H1040 H 0.65872 0.36827 0.21028 0.0
H1041 H 0.61641 0.35676 0.26366 0.0
H1042 H 0.60096 0.36847 0.24804 0.0
H1043 H 0.62047 0.38681 0.25901 0.0
C1044 C 0.59297 0.38901 0.2026 0.0
C1045 C 0.58607 0.41097 0.20835 0.0
C1046 C 0.60975 0.37564 0.20991 0.0
C1047 C 0.62035 0.38395 0.22305 0.0
C1048 C 0.61368 0.40589 0.22882 0.0
H1049 H 0.74871 0.30868 0.24743 0.0
H1050 H 0.72223 0.3417 0.24321 0.0
C1051 C 0.59652 0.41916 0.22164 0.0
C1052 C 0.63916 0.36994 0.23012 0.0
H1053 H 0.65495 0.34203 0.26148 0.0
C1054 C 0.65792 0.36258 0.22149 0.0
C1055 C 0.63805 0.36248 0.24474 0.0
C1056 C 0.6178 0.36884 0.25438 0.0
C1057 C 0.67509 0.34727 0.22683 0.0
C1058 C 0.67416 0.33994 0.2415 0.0
C1059 C 0.6558 0.34789 0.2503 0.0
C1060 C 0.69065 0.32214 0.24731 0.0
C1061 C 0.69323 0.33812 0.21635 0.0
C1062 C 0.68189 0.30089 0.25232 0.0
C1063 C 0.69704 0.28229 0.25521 0.0
C1064 C 0.72117 0.28453 0.25291 0.0
C1065 C 0.73013 0.30639 0.24907 0.0
C1066 C 0.715 0.32519 0.24654 0.0
H1067 H 0.68782 0.34074 0.20475 0.0
H1068 H 0.70994 0.34769 0.21841 0.0
H1069 H 0.69647 0.31914 0.21783 0.0
H1070 H 0.66318 0.29818 0.25312 0.0
H1071 H 0.68963 0.26565 0.25818 0.0
H1072 H 0.12325 0.96636 0.41401 0.0
H1073 H 0.14404 0.9386 0.42956 0.0
H1074 H 0.15341 0.89214 0.39225 0.0
H1075 H 0.13306 0.92011 0.37649 0.0
H1076 H 0.13124 0.89086 0.43387 0.0
H1077 H 0.22009 0.89937 0.41084 0.0
H1078 H 0.1973 0.9208 0.40787 0.0
H1079 H 0.1966 0.89337 0.39782 0.0
C1080 C 0.13005 0.95041 0.40905 0.0
C1081 C 0.12666 0.9455 0.39399 0.0
C1082 C 0.14176 0.9345 0.41798 0.0
C1083 C 0.15044 0.91347 0.41202 0.0
C1084 C 0.14711 0.90844 0.397 0.0
H1085 H 0.22939 0.80067 0.4526 0.0
H1086 H 0.20735 0.82492 0.43542 0.0
C1087 C 0.13532 0.92434 0.38805 0.0
C1088 C 0.16243 0.89659 0.42167 0.0
H1089 H 0.21541 0.87127 0.42904 0.0
C1090 C 0.14964 0.88653 0.43282 0.0
C1091 C 0.18637 0.89094 0.42019 0.0
C1092 C 0.20103 0.90177 0.40862 0.0
C1093 C 0.16018 0.87089 0.44258 0.0
C1094 C 0.18426 0.86561 0.44131 0.0
C1095 C 0.19695 0.87539 0.42999 0.0
C1096 C 0.1968 0.85048 0.45184 0.0
C1097 C 0.14537 0.85997 0.45404 0.0
C1098 C 0.19827 0.8569 0.46676 0.0
C1099 C 0.21077 0.84306 0.47662 0.0
C1100 C 0.22225 0.82263 0.47172 0.0
C1101 C 0.22073 0.81626 0.45675 0.0
C1102 C 0.20817 0.8301 0.44691 0.0
H1103 H 0.12644 0.86038 0.45093 0.0
H1104 H 0.1506 0.84153 0.45587 0.0
H1105 H 0.14775 0.86998 0.46454 0.0
H1106 H 0.19006 0.87285 0.47074 0.0
H1107 H 0.21172 0.84858 0.48804 0.0
H1108 H 0.04908 0.60471 0.66458 0.0
H1109 H 0.07481 0.6249 0.68264 0.0
H1110 H 0.12636 0.63442 0.64959 0.0
H1111 H 0.10056 0.6147 0.63139 0.0
H1112 H 0.12163 0.61151 0.69082 0.0
H1113 H 0.11754 0.70074 0.66802 0.0
H1114 H 0.0963 0.67826 0.66316 0.0
H1115 H 0.12469 0.67775 0.6551 0.0
C1116 C 0.06575 0.6114 0.66111 0.0
C1117 C 0.07278 0.6082 0.64655 0.0
C1118 C 0.08047 0.62277 0.67145 0.0
C1119 C 0.10232 0.63134 0.66738 0.0
C1120 C 0.10939 0.62821 0.65288 0.0
H1121 H 0.21803 0.70286 0.71173 0.0
H1122 H 0.19132 0.68288 0.69425 0.0
C1123 C 0.09474 0.61676 0.64254 0.0
C1124 C 0.11807 0.64292 0.67842 0.0
H1125 H 0.14551 0.69465 0.68714 0.0
C1126 C 0.12678 0.62972 0.69009 0.0
C1127 C 0.12473 0.66663 0.67737 0.0
C1128 C 0.11521 0.68179 0.66532 0.0
C1129 C 0.14247 0.6395 0.70061 0.0
C1130 C 0.1492 0.66323 0.69954 0.0
C1131 C 0.14035 0.67645 0.6879 0.0
C1132 C 0.16554 0.67469 0.71032 0.0
C1133 C 0.15218 0.62418 0.71253 0.0
C1134 C 0.15981 0.67681 0.72513 0.0
C1135 C 0.17508 0.68813 0.73518 0.0
C1136 C 0.19627 0.69775 0.73055 0.0
C1137 C 0.20189 0.69564 0.71567 0.0
C1138 C 0.18664 0.68425 0.70566 0.0
H1139 H 0.15021 0.60527 0.7096 0.0
H1140 H 0.17101 0.62796 0.7148 0.0
H1141 H 0.1425 0.62771 0.72273 0.0
H1142 H 0.14337 0.66999 0.7289 0.0
H1143 H 0.17013 0.6896 0.74653 0.0
H1144 H 0.45478 0.53845 0.91145 0.0
H1145 H 0.43255 0.56599 0.92668 0.0
H1146 H 0.39478 0.58937 0.8883 0.0
H1147 H 0.41673 0.56167 0.87305 0.0
H1148 H 0.43027 0.61357 0.92568 0.0
H1149 H 0.34189 0.5753 0.91544 0.0
H1150 H 0.36837 0.5601 0.91049 0.0
H1151 H 0.35656 0.58259 0.89902 0.0
C1152 C 0.44171 0.54945 0.90628 0.0
C1153 C 0.43736 0.54782 0.89109 0.0
C1154 C 0.429 0.56512 0.91498 0.0
C1155 C 0.41174 0.57943 0.90866 0.0
C1156 C 0.40757 0.57804 0.89346 0.0
H1157 H 0.32394 0.6912 0.94314 0.0
H1158 H 0.34594 0.66422 0.92739 0.0
C1159 C 0.42015 0.56226 0.88477 0.0
C1160 C 0.39863 0.59631 0.91792 0.0
H1161 H 0.34355 0.61222 0.92805 0.0
C1162 C 0.41132 0.6132 0.92625 0.0
C1163 C 0.37389 0.59579 0.91864 0.0
C1164 C 0.35937 0.57734 0.91053 0.0
C1165 C 0.39992 0.62977 0.93515 0.0
C1166 C 0.37523 0.62931 0.93579 0.0
C1167 C 0.3625 0.61253 0.92744 0.0
C1168 C 0.36232 0.64583 0.94532 0.0
C1169 C 0.41429 0.64785 0.94369 0.0
C1170 C 0.36419 0.64422 0.96058 0.0
C1171 C 0.35159 0.65948 0.96961 0.0
C1172 C 0.33692 0.67667 0.96351 0.0
C1173 C 0.33515 0.67824 0.94819 0.0
C1174 C 0.34765 0.66284 0.93917 0.0
H1175 H 0.43253 0.64881 0.93978 0.0
H1176 H 0.40611 0.66544 0.9429 0.0
H1177 H 0.41499 0.64321 0.95541 0.0
H1178 H 0.37523 0.63098 0.9655 0.0
H1179 H 0.35334 0.65776 0.98136 0.0
H1180 H 0.47968 0.90627 0.14926 0.0
H1181 H 0.45488 0.88552 0.16609 0.0
H1182 H 0.40281 0.93995 0.1627 0.0
H1183 H 0.42694 0.96024 0.14532 0.0
H1184 H 0.43996 0.9002 0.19269 0.0
H1185 H 0.36325 0.88192 0.1558 0.0
H1186 H 0.391 0.89168 0.14913 0.0
H1187 H 0.3709 0.91239 0.15707 0.0
C1188 C 0.46275 0.91362 0.15185 0.0
C1189 C 0.45528 0.9349 0.14586 0.0
C1190 C 0.44867 0.90182 0.16157 0.0
C1191 C 0.42683 0.91099 0.16549 0.0
C1192 C 0.41936 0.93227 0.1596 0.0
H1193 H 0.32442 0.87307 0.22961 0.0
H1194 H 0.34765 0.8929 0.21142 0.0
C1195 C 0.43336 0.94402 0.14981 0.0
C1196 C 0.41235 0.89878 0.17621 0.0
H1197 H 0.35831 0.87488 0.18114 0.0
C1198 C 0.42216 0.89454 0.19013 0.0
C1199 C 0.38911 0.89141 0.17285 0.0
C1200 C 0.378 0.89436 0.15786 0.0
C1201 C 0.40926 0.88344 0.20084 0.0
C1202 C 0.38601 0.87629 0.19751 0.0
C1203 C 0.37614 0.88052 0.18363 0.0
C1204 C 0.37178 0.86412 0.2083 0.0
C1205 C 0.42042 0.87972 0.21573 0.0
C1206 C 0.37753 0.84129 0.21237 0.0
C1207 C 0.36426 0.82986 0.22268 0.0
C1208 C 0.34502 0.84112 0.22914 0.0
C1209 C 0.33918 0.86395 0.2249 0.0
C1210 C 0.35239 0.87529 0.2145 0.0
H1211 H 0.43675 0.89011 0.21745 0.0
H1212 H 0.40805 0.88453 0.22451 0.0
H1213 H 0.42486 0.86091 0.21682 0.0
H1214 H 0.39231 0.83231 0.20757 0.0
H1215 H 0.36922 0.81228 0.22567 0.0
H1216 H 0.02975 0.61988 0.86567 0.0
H1217 H 0.05418 0.64255 0.84963 0.0
H1218 H 0.10727 0.64902 0.88383 0.0
H1219 H 0.0827 0.62681 0.90016 0.0
H1220 H 0.0757 0.68968 0.85461 0.0
H1221 H 0.13974 0.61692 0.84756 0.0
H1222 H 0.11059 0.61223 0.85416 0.0
H1223 H 0.13264 0.62541 0.86602 0.0
C1224 C 0.0464 0.6265 0.86993 0.0
C1225 C 0.05427 0.62143 0.88422 0.0
C1226 C 0.06039 0.63934 0.8607 0.0
C1227 C 0.08258 0.6472 0.86551 0.0
C1228 C 0.09029 0.6428 0.87987 0.0
H1229 H 0.19534 0.707 0.81569 0.0
H1230 H 0.17167 0.692 0.83535 0.0
C1231 C 0.07626 0.63005 0.88915 0.0
C1232 C 0.09792 0.65927 0.85528 0.0
H1233 H 0.14712 0.6517 0.83524 0.0
C1234 C 0.09139 0.68148 0.8504 0.0
C1235 C 0.11836 0.64849 0.84988 0.0
C1236 C 0.1258 0.62438 0.85455 0.0
C1237 C 0.10483 0.69326 0.84022 0.0
C1238 C 0.12497 0.68221 0.83451 0.0
C1239 C 0.13168 0.66015 0.83961 0.0
C1240 C 0.13897 0.69279 0.8229 0.0
C1241 C 0.09747 0.71752 0.83583 0.0
C1242 C 0.12847 0.69816 0.80935 0.0
C1243 C 0.14192 0.70688 0.79812 0.0
C1244 C 0.16621 0.71008 0.80016 0.0
C1245 C 0.17668 0.70474 0.81376 0.0
C1246 C 0.16318 0.69617 0.82501 0.0
H1247 H 0.08666 0.72619 0.84433 0.0
H1248 H 0.1129 0.72874 0.83386 0.0
H1249 H 0.0867 0.71623 0.82557 0.0
H1250 H 0.10994 0.69512 0.80732 0.0
H1251 H 0.13334 0.71063 0.78774 0.0
H1252 H 0.45581 0.57392 0.11516 0.0
H1253 H 0.43108 0.59661 0.09859 0.0
H1254 H 0.37493 0.54693 0.10292 0.0
H1255 H 0.39916 0.52468 0.12005 0.0
H1256 H 0.41228 0.58215 0.07222 0.0
H1257 H 0.34143 0.60874 0.10972 0.0
H1258 H 0.36894 0.59682 0.11622 0.0
H1259 H 0.34644 0.57771 0.10869 0.0
C1260 C 0.43804 0.56805 0.11284 0.0
C1261 C 0.42945 0.54751 0.119 0.0
C1262 C 0.42399 0.58095 0.10327 0.0
C1263 C 0.40106 0.57364 0.09967 0.0
C1264 C 0.3924 0.55316 0.10577 0.0
H1265 H 0.29882 0.62366 0.03524 0.0
H1266 H 0.3199 0.60088 0.05376 0.0
C1267 C 0.40641 0.54029 0.11541 0.0
C1268 C 0.38671 0.58688 0.08898 0.0
H1269 H 0.33528 0.61678 0.08451 0.0
C1270 C 0.39549 0.58979 0.07493 0.0
C1271 C 0.36475 0.59676 0.09254 0.0
C1272 C 0.35489 0.59507 0.10765 0.0
C1273 C 0.38289 0.60223 0.06431 0.0
C1274 C 0.36102 0.61213 0.06788 0.0
C1275 C 0.35205 0.60906 0.08185 0.0
C1276 C 0.34762 0.62634 0.0573 0.0
C1277 C 0.39293 0.60459 0.0493 0.0
C1278 C 0.35607 0.64832 0.05344 0.0
C1279 C 0.34408 0.66139 0.04296 0.0
C1280 C 0.32343 0.65266 0.03611 0.0
C1281 C 0.31472 0.63083 0.04026 0.0
C1282 C 0.32669 0.61781 0.05084 0.0
H1283 H 0.40757 0.59215 0.0474 0.0
H1284 H 0.37917 0.60154 0.04067 0.0
H1285 H 0.39971 0.62266 0.04818 0.0
H1286 H 0.3721 0.65525 0.05845 0.0
H1287 H 0.35125 0.67816 0.04006 0.0
H1288 H 0.4916 0.90796 0.36296 0.0
H1289 H 0.46626 0.88246 0.3477 0.0
H1290 H 0.41846 0.87655 0.38321 0.0
H1291 H 0.44408 0.90155 0.3988 0.0
H1292 H 0.4473 0.83409 0.35432 0.0
H1293 H 0.38084 0.9045 0.34653 0.0
H1294 H 0.41078 0.91085 0.35212 0.0
H1295 H 0.39099 0.89889 0.36492 0.0
C1296 C 0.47598 0.90088 0.36768 0.0
C1297 C 0.46987 0.90686 0.38212 0.0
C1298 C 0.46147 0.88641 0.3589 0.0
C1299 C 0.44051 0.87782 0.36434 0.0
C1300 C 0.43453 0.88322 0.37882 0.0
H1301 H 0.34229 0.78126 0.31933 0.0
H1302 H 0.36782 0.80061 0.33787 0.0
C1303 C 0.44912 0.8976 0.38766 0.0
C1304 C 0.42447 0.86408 0.35455 0.0
H1305 H 0.3736 0.86827 0.33442 0.0
C1306 C 0.43107 0.84141 0.35006 0.0
C1307 C 0.40348 0.8739 0.34896 0.0
C1308 C 0.39601 0.89841 0.35326 0.0
C1309 C 0.41717 0.82828 0.33998 0.0
C1310 C 0.3963 0.83819 0.33429 0.0
C1311 C 0.38962 0.86078 0.33888 0.0
C1312 C 0.38163 0.82581 0.32306 0.0
C1313 C 0.4251 0.80418 0.33512 0.0
C1314 C 0.38104 0.83367 0.30865 0.0
C1315 C 0.36661 0.82264 0.29803 0.0
C1316 C 0.35231 0.8037 0.30168 0.0
C1317 C 0.35308 0.79579 0.31615 0.0
C1318 C 0.36767 0.80676 0.32675 0.0
H1319 H 0.44305 0.80011 0.33929 0.0
H1320 H 0.41285 0.79089 0.33921 0.0
H1321 H 0.42477 0.80264 0.32298 0.0
H1322 H 0.39168 0.84842 0.30566 0.0
H1323 H 0.3664 0.82922 0.28702 0.0
H1324 H 0.12116 0.92411 0.63573 0.0
H1325 H 0.14512 0.90183 0.61846 0.0
H1326 H 0.18786 0.96291 0.61232 0.0
H1327 H 0.16399 0.9853 0.62958 0.0
H1328 H 0.14992 0.91267 0.58944 0.0
H1329 H 0.2369 0.91169 0.61791 0.0
H1330 H 0.21024 0.919 0.62724 0.0
H1331 H 0.22428 0.94034 0.61627 0.0
C1332 C 0.13579 0.93273 0.6308 0.0
C1333 C 0.14066 0.95648 0.634 0.0
C1334 C 0.14951 0.91997 0.62098 0.0
C1335 C 0.16841 0.93064 0.61422 0.0
C1336 C 0.17369 0.95417 0.61766 0.0
H1337 H 0.25722 0.88714 0.54228 0.0
H1338 H 0.23814 0.90889 0.56216 0.0
C1339 C 0.16001 0.96695 0.62752 0.0
C1340 C 0.18131 0.91769 0.60269 0.0
H1341 H 0.23557 0.89842 0.59301 0.0
C1342 C 0.16862 0.90943 0.59027 0.0
C1343 C 0.20574 0.91367 0.60374 0.0
C1344 C 0.2201 0.92144 0.61706 0.0
C1345 C 0.17971 0.89743 0.5788 0.0
C1346 C 0.2041 0.89328 0.57988 0.0
C1347 C 0.21687 0.90166 0.59224 0.0
C1348 C 0.21647 0.87987 0.56835 0.0
C1349 C 0.1653 0.88963 0.56549 0.0
C1350 C 0.2109 0.85626 0.56547 0.0
C1351 C 0.22171 0.84382 0.55416 0.0
C1352 C 0.23839 0.85473 0.54552 0.0
C1353 C 0.24438 0.87825 0.54868 0.0
C1354 C 0.23354 0.89069 0.56004 0.0
H1355 H 0.14832 0.89908 0.56476 0.0
H1356 H 0.175 0.89245 0.55529 0.0
H1357 H 0.16151 0.87063 0.56615 0.0
H1358 H 0.19803 0.8475 0.57193 0.0
H1359 H 0.21679 0.82569 0.55211 0.0
H1360 H 0.55192 0.37048 0.88566 0.0
H1361 H 0.57397 0.34698 0.90329 0.0
H1362 H 0.63577 0.38824 0.89631 0.0
H1363 H 0.61385 0.41185 0.87868 0.0
H1364 H 0.61573 0.32029 0.90165 0.0
H1365 H 0.62517 0.39632 0.94044 0.0
H1366 H 0.60517 0.39635 0.92485 0.0
H1367 H 0.63591 0.40141 0.92249 0.0
C1368 C 0.57032 0.37428 0.88768 0.0
C1369 C 0.58111 0.39317 0.88089 0.0
C1370 C 0.58286 0.36089 0.8978 0.0
C1371 C 0.60634 0.36619 0.90131 0.0
C1372 C 0.6175 0.38423 0.89399 0.0
H1373 H 0.70833 0.31809 0.96504 0.0
H1374 H 0.68753 0.33615 0.94459 0.0
C1375 C 0.60497 0.39767 0.88392 0.0
C1376 C 0.61887 0.35358 0.91311 0.0
H1377 H 0.64572 0.36183 0.94662 0.0
C1378 C 0.62225 0.32931 0.91151 0.0
C1379 C 0.6272 0.36542 0.92599 0.0
C1380 C 0.62302 0.39127 0.92866 0.0
C1381 C 0.63427 0.31664 0.92233 0.0
C1382 C 0.64278 0.32855 0.93513 0.0
C1383 C 0.63925 0.35278 0.93675 0.0
C1384 C 0.65559 0.31638 0.94699 0.0
C1385 C 0.6382 0.29073 0.91986 0.0
C1386 C 0.64449 0.29929 0.95515 0.0
C1387 C 0.65633 0.28891 0.9669 0.0
C1388 C 0.67945 0.29555 0.97072 0.0
C1389 C 0.69054 0.31255 0.96242 0.0
C1390 C 0.6787 0.3229 0.95071 0.0
H1391 H 0.63546 0.28535 0.90817 0.0
H1392 H 0.65621 0.28572 0.92341 0.0
H1393 H 0.62564 0.28085 0.92643 0.0
H1394 H 0.6265 0.29433 0.95263 0.0
H1395 H 0.64726 0.27593 0.9731 0.0
H1396 H 0.59529 0.10275 0.13665 0.0
H1397 H 0.62327 0.12478 0.15212 0.0
H1398 H 0.67133 0.06653 0.15057 0.0
H1399 H 0.64277 0.04371 0.13599 0.0
H1400 H 0.66781 0.082 0.1774 0.0
H1401 H 0.68193 0.15842 0.14284 0.0
H1402 H 0.6514 0.15471 0.14626 0.0
H1403 H 0.66688 0.13244 0.13604 0.0
C1404 C 0.61176 0.09453 0.13963 0.0
C1405 C 0.61667 0.07136 0.13507 0.0
C1406 C 0.62795 0.10735 0.14828 0.0
C1407 C 0.64963 0.09751 0.15228 0.0
C1408 C 0.6548 0.07457 0.14752 0.0
H1409 H 0.75418 0.18502 0.19956 0.0
H1410 H 0.73458 0.1598 0.18097 0.0
C1411 C 0.63849 0.06161 0.13904 0.0
C1412 C 0.66611 0.11047 0.16235 0.0
H1413 H 0.69259 0.16353 0.16842 0.0
C1414 C 0.67349 0.09972 0.17532 0.0
C1415 C 0.67393 0.13342 0.15956 0.0
C1416 C 0.66832 0.14529 0.14533 0.0
C1417 C 0.68765 0.11159 0.18583 0.0
C1418 C 0.69395 0.13516 0.18354 0.0
C1419 C 0.68744 0.14558 0.1703 0.0
C1420 C 0.70647 0.1496 0.19496 0.0
C1421 C 0.69575 0.09867 0.19924 0.0
C1422 C 0.69711 0.15237 0.20896 0.0
C1423 C 0.70842 0.16648 0.21964 0.0
C1424 C 0.72907 0.17853 0.21644 0.0
C1425 C 0.73832 0.17593 0.20237 0.0
C1426 C 0.72713 0.16155 0.19173 0.0
H1427 H 0.69661 0.07948 0.19696 0.0
H1428 H 0.71327 0.10479 0.20323 0.0
H1429 H 0.68303 0.10166 0.20808 0.0
H1430 H 0.68081 0.14394 0.21159 0.0
H1431 H 0.70065 0.16833 0.2303 0.0
H1432 H 0.96062 0.07587 0.40511 0.0
H1433 H 0.93764 0.10065 0.42152 0.0
H1434 H 0.98782 0.15651 0.41782 0.0
H1435 H 0.01035 0.13226 0.40083 0.0
H1436 H 0.95074 0.11949 0.448 0.0
H1437 H 0.92666 0.19038 0.41001 0.0
H1438 H 0.93879 0.16281 0.40375 0.0
H1439 H 0.95762 0.18525 0.41166 0.0
C1440 C 0.96657 0.09358 0.40754 0.0
C1441 C 0.98728 0.1021 0.40155 0.0
C1442 C 0.95349 0.10766 0.41702 0.0
C1443 C 0.96082 0.13055 0.42072 0.0
C1444 C 0.98156 0.13909 0.41488 0.0
H1445 H 0.90843 0.2328 0.4845 0.0
H1446 H 0.93209 0.21151 0.4665 0.0
C1447 C 0.9946 0.12506 0.40532 0.0
C1448 C 0.94717 0.14506 0.43116 0.0
H1449 H 0.91737 0.19669 0.43501 0.0
C1450 C 0.9434 0.13633 0.44514 0.0
C1451 C 0.93762 0.16706 0.42741 0.0
C1452 C 0.94016 0.17687 0.41235 0.0
C1453 C 0.93042 0.14903 0.45547 0.0
C1454 C 0.92089 0.17095 0.45171 0.0
C1455 C 0.92482 0.17987 0.43783 0.0
C1456 C 0.9062 0.18449 0.46198 0.0
C1457 C 0.92706 0.13902 0.4704 0.0
C1458 C 0.88372 0.1765 0.46513 0.0
C1459 C 0.87013 0.18864 0.47531 0.0
C1460 C 0.87885 0.20895 0.48258 0.0
C1461 C 0.90124 0.21718 0.47914 0.0
C1462 C 0.91477 0.20508 0.46886 0.0
H1463 H 0.93901 0.12406 0.4725 0.0
H1464 H 0.93007 0.1527 0.4791 0.0
H1465 H 0.90874 0.13275 0.47119 0.0
H1466 H 0.87678 0.16072 0.45981 0.0
H1467 H 0.85296 0.18183 0.47767 0.0
H1468 H 0.94588 0.44386 0.63548 0.0
H1469 H 0.92294 0.41939 0.6513 0.0
H1470 H 0.86458 0.46693 0.64726 0.0
H1471 H 0.88704 0.49099 0.63084 0.0
H1472 H 0.90583 0.43273 0.6777 0.0
H1473 H 0.83275 0.40399 0.64033 0.0
H1474 H 0.85921 0.41703 0.6338 0.0
H1475 H 0.83667 0.43518 0.6415 0.0
C1476 C 0.92796 0.44884 0.63763 0.0
C1477 C 0.9183 0.46939 0.63182 0.0
C1478 C 0.91494 0.43491 0.64679 0.0
C1479 C 0.89196 0.44117 0.65034 0.0
C1480 C 0.88211 0.46149 0.64444 0.0
H1481 H 0.7956 0.38791 0.71407 0.0
H1482 H 0.81486 0.41084 0.69548 0.0
C1483 C 0.8951 0.4754 0.63521 0.0
C1484 C 0.879 0.42724 0.66099 0.0
H1485 H 0.82894 0.3957 0.66556 0.0
C1486 C 0.88908 0.42454 0.67501 0.0
C1487 C 0.85709 0.41666 0.65748 0.0
C1488 C 0.84586 0.41814 0.64242 0.0
C1489 C 0.87778 0.4117 0.68565 0.0
C1490 C 0.85594 0.40109 0.68214 0.0
C1491 C 0.84571 0.40391 0.66819 0.0
C1492 C 0.84371 0.3867 0.69282 0.0
C1493 C 0.88915 0.40979 0.70066 0.0
C1494 C 0.85339 0.36538 0.69724 0.0
C1495 C 0.84245 0.35222 0.7078 0.0
C1496 C 0.82161 0.36018 0.71415 0.0
C1497 C 0.81169 0.38134 0.70945 0.0
C1498 C 0.82261 0.39444 0.69882 0.0
H1499 H 0.90329 0.42296 0.70257 0.0
H1500 H 0.87598 0.41209 0.70932 0.0
H1501 H 0.89698 0.3921 0.70171 0.0
H1502 H 0.86954 0.359 0.6926 0.0
H1503 H 0.85053 0.33597 0.71111 0.0
H1504 H 0.63338 0.0556 0.373 0.0
H1505 H 0.65241 0.08085 0.35559 0.0
H1506 H 0.58633 0.11463 0.3463 0.0
H1507 H 0.5672 0.08953 0.36374 0.0
H1508 H 0.64311 0.08472 0.32611 0.0
H1509 H 0.62942 0.17024 0.35483 0.0
H1510 H 0.62528 0.14261 0.36358 0.0
H1511 H 0.60298 0.15379 0.35141 0.0
C1512 C 0.6229 0.0684 0.36724 0.0
C1513 C 0.5988 0.07064 0.36979 0.0
C1514 C 0.63381 0.08286 0.35734 0.0
C1515 C 0.62087 0.09987 0.34983 0.0
C1516 C 0.59678 0.10204 0.35226 0.0
H1517 H 0.65556 0.19604 0.28113 0.0
H1518 H 0.63547 0.17254 0.29908 0.0
C1519 C 0.58587 0.08765 0.3622 0.0
C1520 C 0.63245 0.11471 0.33905 0.0
H1521 H 0.64414 0.17148 0.33075 0.0
C1522 C 0.64343 0.10368 0.32716 0.0
C1523 C 0.63277 0.13946 0.34043 0.0
C1524 C 0.62218 0.15226 0.35332 0.0
C1525 C 0.65452 0.11672 0.31652 0.0
C1526 C 0.65485 0.14143 0.31791 0.0
C1527 C 0.64377 0.15251 0.32973 0.0
C1528 C 0.66705 0.15602 0.30731 0.0
C1529 C 0.66554 0.10401 0.30375 0.0
C1530 C 0.69147 0.15475 0.3062 0.0
C1531 C 0.703 0.16817 0.29603 0.0
C1532 C 0.6903 0.18313 0.28675 0.0
C1533 C 0.66584 0.18463 0.28806 0.0
C1534 C 0.65433 0.17126 0.29831 0.0
H1535 H 0.6592 0.08565 0.3025 0.0
H1536 H 0.66178 0.11321 0.29339 0.0
H1537 H 0.68483 0.10358 0.30553 0.0
H1538 H 0.70161 0.14334 0.31321 0.0
H1539 H 0.72185 0.16664 0.29535 0.0
H1540 H 0.00703 0.12502 0.62125 0.0
H1541 H 0.97865 0.1467 0.60634 0.0
H1542 H 0.925 0.09667 0.61613 0.0
H1543 H 0.95331 0.07483 0.63096 0.0
H1544 H 0.92587 0.10607 0.58707 0.0
H1545 H 0.9258 0.18885 0.62012 0.0
H1546 H 0.95448 0.17997 0.61457 0.0
H1547 H 0.93847 0.1621 0.62682 0.0
C1548 C 0.98912 0.1188 0.62034 0.0
C1549 C 0.98238 0.09825 0.62728 0.0
C1550 C 0.97292 0.13123 0.61186 0.0
C1551 C 0.94963 0.12349 0.61032 0.0
C1552 C 0.94287 0.10296 0.61721 0.0
H1553 H 0.83356 0.2039 0.57393 0.0
H1554 H 0.8602 0.18205 0.58991 0.0
C1555 C 0.95908 0.09046 0.62562 0.0
C1556 C 0.93248 0.13632 0.60111 0.0
H1557 H 0.90677 0.18973 0.59664 0.0
C1558 C 0.9216 0.12433 0.5892 0.0
C1559 C 0.92669 0.16004 0.60404 0.0
C1560 C 0.93678 0.17346 0.61716 0.0
C1561 C 0.90542 0.13555 0.57995 0.0
C1562 C 0.90037 0.15953 0.58252 0.0
C1563 C 0.91087 0.1714 0.59461 0.0
C1564 C 0.88423 0.17263 0.57279 0.0
C1565 C 0.89364 0.1215 0.56765 0.0
C1566 C 0.88908 0.1748 0.55791 0.0
C1567 C 0.87385 0.18714 0.54873 0.0
C1568 C 0.85359 0.19779 0.55431 0.0
C1569 C 0.84897 0.19586 0.56928 0.0
C1570 C 0.86417 0.18342 0.57843 0.0
H1571 H 0.89426 0.10241 0.56969 0.0
H1572 H 0.87506 0.12681 0.5661 0.0
H1573 H 0.90287 0.12459 0.55733 0.0
H1574 H 0.90475 0.16708 0.5534 0.0
H1575 H 0.87807 0.18846 0.53729 0.0
H1576 H 0.95522 0.4474 0.863 0.0
H1577 H 0.93564 0.42148 0.84485 0.0
H1578 H 0.8684 0.44656 0.85902 0.0
H1579 H 0.88793 0.47274 0.87711 0.0
H1580 H 0.90524 0.38592 0.84905 0.0
H1581 H 0.8629 0.45376 0.81502 0.0
H1582 H 0.88549 0.46063 0.8286 0.0
H1583 H 0.85578 0.45614 0.83402 0.0
C1584 C 0.93626 0.44736 0.86226 0.0
C1585 C 0.92309 0.46211 0.87145 0.0
C1586 C 0.92511 0.43262 0.85186 0.0
C1587 C 0.90059 0.43234 0.85044 0.0
C1588 C 0.88736 0.44691 0.85968 0.0
H1589 H 0.8182 0.32132 0.80782 0.0
H1590 H 0.83772 0.34828 0.82533 0.0
C1591 C 0.89852 0.4618 0.87003 0.0
C1592 C 0.88894 0.41621 0.8396 0.0
H1593 H 0.8513 0.41431 0.81 0.0
C1594 C 0.8935 0.39212 0.84048 0.0
C1595 C 0.8739 0.42439 0.82831 0.0
C1596 C 0.86937 0.45016 0.8263 0.0
C1597 C 0.88319 0.37593 0.83049 0.0
C1598 C 0.86749 0.38402 0.81952 0.0
C1599 C 0.86317 0.40814 0.81851 0.0
C1600 C 0.85552 0.36777 0.8089 0.0
C1601 C 0.88959 0.35038 0.8316 0.0
C1602 C 0.85854 0.37019 0.79382 0.0
C1603 C 0.8472 0.35496 0.78375 0.0
C1604 C 0.83261 0.33703 0.7886 0.0
C1605 C 0.82949 0.33479 0.80372 0.0
C1606 C 0.84073 0.35011 0.81376 0.0
H1607 H 0.90644 0.34802 0.83772 0.0
H1608 H 0.87575 0.3412 0.83757 0.0
H1609 H 0.891 0.34192 0.82059 0.0
H1610 H 0.8698 0.38379 0.78984 0.0
H1611 H 0.84994 0.35722 0.77219 0.0
H1612 H 0.61166 0.43691 0.12373 0.0
H1613 H 0.6385 0.41604 0.10768 0.0
H1614 H 0.59266 0.35595 0.1064 0.0
H1615 H 0.56639 0.37613 0.12323 0.0
H1616 H 0.63741 0.3429 0.10903 0.0
H1617 H 0.6284 0.40627 0.06432 0.0
H1618 H 0.63848 0.41972 0.08126 0.0
H1619 H 0.60966 0.40693 0.07993 0.0
C1620 C 0.60741 0.41911 0.12027 0.0
C1621 C 0.58671 0.40829 0.12475 0.0
C1622 C 0.62264 0.40734 0.11087 0.0
C1623 C 0.6173 0.38466 0.10553 0.0
C1624 C 0.597 0.37356 0.11026 0.0
H1625 H 0.67906 0.3165 0.02989 0.0
H1626 H 0.65371 0.33696 0.04716 0.0
C1627 C 0.58189 0.38521 0.11979 0.0
C1628 C 0.6329 0.37246 0.09506 0.0
H1629 H 0.6583 0.37754 0.06185 0.0
C1630 C 0.64193 0.35043 0.09869 0.0
C1631 C 0.63846 0.38212 0.08146 0.0
C1632 C 0.62806 0.40494 0.07642 0.0
C1633 C 0.65656 0.33791 0.08917 0.0
C1634 C 0.66291 0.34802 0.07584 0.0
C1635 C 0.65367 0.36993 0.07215 0.0
C1636 C 0.67861 0.33592 0.06538 0.0
C1637 C 0.66456 0.31373 0.09334 0.0
C1638 C 0.70122 0.32893 0.06979 0.0
C1639 C 0.71566 0.31699 0.05998 0.0
C1640 C 0.70792 0.31221 0.04548 0.0
C1641 C 0.68556 0.31991 0.04097 0.0
C1642 C 0.67104 0.3316 0.05083 0.0
H1643 H 0.65282 0.30596 0.10145 0.0
H1644 H 0.66521 0.30174 0.08361 0.0
H1645 H 0.68239 0.31488 0.09841 0.0
H1646 H 0.70771 0.33269 0.08082 0.0
H1647 H 0.73288 0.31152 0.06375 0.0
loop_
_geom_bond_atom_site_label_1
_geom_bond_atom_site_label_2
_geom_bond_distance
_geom_bond_site_symmetry_2
_ccdc_geom_bond_type
H0 C19 0.949 . S
H1 C20 0.950 . S
H2 C22 0.950 . S
H3 C23 0.950 . S
H4 C25 0.950 . S
H5 C28 0.950 . S
H6 C29 0.950 . S
H7 C31 0.951 . S
H8 C32 0.945 1_455 S
H9 C34 0.949 . S
H10 C35 0.950 . S
H11 C37 0.950 . S
H12 C38 0.950 . S
H13 C40 0.956 . S
H14 C43 0.950 . S
H15 C44 0.950 . S
H16 C46 0.951 . S
H17 C47 0.949 1_545 S
C18 C19 1.376 . S
C18 C23 1.386 1_455 S
C18 C24 1.483 . S
C19 H0 0.949 . S
C19 C18 1.376 . S
C19 C20 1.397 . S
C20 H1 0.950 . S
C20 C19 1.397 . S
C20 C21 1.391 1_455 S
C21 C20 1.391 1_655 S
C21 C22 1.405 . S
C22 H2 0.950 . S
C22 C21 1.405 . S
C22 C23 1.367 . S
C23 H3 0.950 . S
C23 C18 1.386 1_655 S
C23 C22 1.367 . S
C24 C18 1.483 . S
C24 C25 1.382 . S
C24 C26 1.403 . S
C25 H4 0.950 . S
C25 C24 1.382 . S
C25 C41 1.411 1_545 S
C26 C24 1.403 . S
C26 C27 1.489 . S
C26 C40 1.411 . S
C27 C26 1.489 . S
C27 C28 1.383 . S
C27 C32 1.360 1_455 S
C28 H5 0.950 . S
C28 C27 1.383 . S
C28 C29 1.395 1_455 S
C29 H6 0.950 . S
C29 C28 1.395 1_655 S
C29 C30 1.288 . S
C30 C29 1.288 . S
C30 C31 1.392 . S
C31 H7 0.951 . S
C31 C30 1.392 . S
C31 C32 1.419 . S
C32 H8 0.945 1_655 S
C32 C27 1.360 1_655 S
C32 C31 1.419 . S
C33 C34 1.376 . S
C33 C38 1.386 . S
C33 C39 1.483 . S
C34 H9 0.949 . S
C34 C33 1.376 . S
C34 C35 1.397 . S
C35 H10 0.950 . S
C35 C34 1.397 . S
C35 C36 1.391 . S
C36 C35 1.391 . S
C36 C37 1.405 . S
C37 H11 0.950 . S
C37 C36 1.405 . S
C37 C38 1.367 . S
C38 H12 0.950 . S
C38 C33 1.386 . S
C38 C37 1.367 . S
C39 C33 1.483 . S
C39 C40 1.382 1_565 S
C39 C41 1.403 . S
C40 H13 0.956 . S
C40 C26 1.411 . S
C40 C39 1.382 1_545 S
C41 C25 1.411 1_565 S
C41 C39 1.403 . S
C41 C42 1.489 . S
C42 C41 1.489 . S
C42 C43 1.383 . S
C42 C47 1.382 . S
C43 H14 0.950 . S
C43 C42 1.383 . S
C43 C44 1.395 . S
C44 H15 0.950 . S
C44 C43 1.395 . S
C44 C45 1.288 . S
C45 C44 1.288 . S
C45 C46 1.392 . S
C46 H16 0.951 . S
C46 C45 1.392 . S
C46 C47 1.392 . S
C47 H17 0.949 1_565 S
C47 C42 1.382 . S
C47 C46 1.392 . S
H48 C67 0.949 1_455 S
H49 C68 0.950 . S
H50 C70 0.950 . S
H51 C71 0.950 . S
H52 C73 0.950 . S
H53 C76 0.950 . S
H54 C77 0.950 . S
H55 C79 0.951 . S
H56 C80 0.949 . S
H57 C82 0.949 . S
H58 C83 0.950 . S
H59 C85 0.950 . S
H60 C86 0.950 . S
H61 C88 0.950 . S
H62 C91 0.950 . S
H63 C92 0.950 . S
H64 C94 0.951 . S
H65 C95 0.949 . S
C66 C67 1.376 . S
C66 C71 1.386 . S
C66 C72 1.483 . S
C67 H48 0.949 1_655 S
C67 C66 1.376 . S
C67 C68 1.397 . S
C68 H49 0.950 . S
C68 C67 1.397 . S
C68 C69 1.391 . S
C69 C68 1.391 . S
C69 C70 1.405 . S
C70 H50 0.950 . S
C70 C69 1.405 . S
C70 C71 1.367 . S
C71 H51 0.950 . S
C71 C66 1.386 . S
C71 C70 1.367 . S
C72 C66 1.483 . S
C72 C73 1.382 1_655 S
C72 C74 1.403 . S
C73 H52 0.950 . S
C73 C72 1.382 1_455 S
C73 C89 1.411 . S
C74 C72 1.403 . S
C74 C75 1.489 . S
C74 C88 1.411 1_655 S
C75 C74 1.489 . S
C75 C76 1.383 . S
C75 C80 1.382 . S
C76 H53 0.950 . S
C76 C75 1.383 . S
C76 C77 1.395 . S
C77 H54 0.950 . S
C77 C76 1.395 . S
C77 C78 1.288 . S
C78 C77 1.288 . S
C78 C79 1.392 . S
C79 H55 0.951 . S
C79 C78 1.392 . S
C79 C80 1.392 . S
C80 H56 0.949 . S
C80 C75 1.382 . S
C80 C79 1.392 . S
C81 C82 1.376 . S
C81 C86 1.386 . S
C81 C87 1.483 . S
C82 H57 0.949 . S
C82 C81 1.376 . S
C82 C83 1.397 . S
C83 H58 0.950 . S
C83 C82 1.397 . S
C83 C84 1.391 . S
C84 C83 1.391 . S
C84 C85 1.405 . S
C85 H59 0.950 . S
C85 C84 1.405 . S
C85 C86 1.367 . S
C86 H60 0.950 . S
C86 C81 1.386 . S
C86 C85 1.367 . S
C87 C81 1.483 . S
C87 C88 1.382 . S
C87 C89 1.403 . S
C88 H61 0.950 . S
C88 C74 1.411 1_455 S
C88 C87 1.382 . S
C89 C73 1.411 . S
C89 C87 1.403 . S
C89 C90 1.489 . S
C90 C89 1.489 . S
C90 C91 1.383 . S
C90 C95 1.382 . S
C91 H62 0.950 . S
C91 C90 1.383 . S
C91 C92 1.395 . S
C92 H63 0.950 . S
C92 C91 1.395 . S
C92 C93 1.288 . S
C93 C92 1.288 . S
C93 C94 1.392 . S
C94 H64 0.951 . S
C94 C93 1.392 . S
C94 C95 1.392 . S
C95 H65 0.949 . S
C95 C90 1.382 . S
C95 C94 1.392 . S
H96 C115 0.949 . S
H97 C116 0.950 . S
H98 C118 0.950 . S
H99 C119 0.950 . S
H100 C121 0.950 . S
H101 C124 0.950 . S
H102 C125 0.950 . S
H103 C127 0.951 . S
H104 C128 0.949 . S
H105 C130 0.949 . S
H106 C131 0.950 . S
H107 C133 0.950 . S
H108 C134 0.950 . S
H109 C136 0.950 . S
H110 C139 0.950 . S
H111 C140 0.950 . S
H112 C142 0.951 . S
H113 C143 0.949 . S
C114 C115 1.376 . S
C114 C119 1.386 . S
C114 C120 1.483 . S
C115 H96 0.949 . S
C115 C114 1.376 . S
C115 C116 1.397 . S
C116 H97 0.950 . S
C116 C115 1.397 . S
C116 C117 1.391 . S
C117 C116 1.391 . S
C117 C118 1.405 . S
C118 H98 0.950 . S
C118 C117 1.405 . S
C118 C119 1.367 . S
C119 H99 0.950 . S
C119 C114 1.386 . S
C119 C118 1.367 . S
C120 C114 1.483 . S
C120 C121 1.382 . S
C120 C122 1.403 . S
C121 H100 0.950 . S
C121 C120 1.382 . S
C121 C137 1.411 . S
C122 C120 1.403 . S
C122 C123 1.489 . S
C122 C136 1.411 . S
C123 C122 1.489 . S
C123 C124 1.383 . S
C123 C128 1.382 . S
C124 H101 0.950 . S
C124 C123 1.383 . S
C124 C125 1.395 . S
C125 H102 0.950 . S
C125 C124 1.395 . S
C125 C126 1.288 . S
C126 C125 1.288 . S
C126 C127 1.392 . S
C127 H103 0.951 . S
C127 C126 1.392 . S
C127 C128 1.392 . S
C128 H104 0.949 . S
C128 C123 1.382 . S
C128 C127 1.392 . S
C129 C130 1.376 . S
C129 C134 1.386 . S
C129 C135 1.483 . S
C130 H105 0.949 . S
C130 C129 1.376 . S
C130 C131 1.397 . S
C131 H106 0.950 . S
C131 C130 1.397 . S
C131 C132 1.391 . S
C132 C131 1.391 . S
C132 C133 1.405 . S
C133 H107 0.950 . S
C133 C132 1.405 . S
C133 C134 1.367 . S
C134 H108 0.950 . S
C134 C129 1.386 . S
C134 C133 1.367 . S
C135 C129 1.483 . S
C135 C136 1.382 . S
C135 C137 1.403 . S
C136 H109 0.950 . S
C136 C122 1.411 . S
C136 C135 1.382 . S
C137 C121 1.411 . S
C137 C135 1.403 . S
C137 C138 1.489 . S
C138 C137 1.489 . S
C138 C139 1.383 . S
C138 C143 1.382 . S
C139 H110 0.950 . S
C139 C138 1.383 . S
C139 C140 1.395 . S
C140 H111 0.950 . S
C140 C139 1.395 . S
C140 C141 1.288 . S
C141 C140 1.288 . S
C141 C142 1.392 . S
C142 H112 0.951 . S
C142 C141 1.392 . S
C142 C143 1.392 . S
C143 H113 0.949 . S
C143 C138 1.382 . S
C143 C142 1.392 . S
H144 C163 0.949 . S
H145 C164 0.950 . S
H146 C166 0.950 . S
H147 C167 0.950 . S
H148 C169 0.950 . S
H149 C172 0.950 . S
H150 C173 0.950 . S
H151 C175 0.951 . S
H152 C176 0.949 . S
H153 C178 0.949 . S
H154 C179 0.950 . S
H155 C181 0.950 . S
H156 C182 0.950 . S
H157 C184 0.950 . S
H158 C187 0.950 . S
H159 C188 0.950 . S
H160 C190 0.951 . S
H161 C191 0.949 . S
C162 C163 1.376 . S
C162 C167 1.386 . S
C162 C168 1.483 . S
C163 H144 0.949 . S
C163 C162 1.376 . S
C163 C164 1.397 . S
C164 H145 0.950 . S
C164 C163 1.397 . S
C164 C165 1.391 . S
C165 C164 1.391 . S
C165 C166 1.405 . S
C166 H146 0.950 . S
C166 C165 1.405 . S
C166 C167 1.367 . S
C167 H147 0.950 . S
C167 C162 1.386 . S
C167 C166 1.367 . S
C168 C162 1.483 . S
C168 C169 1.382 . S
C168 C170 1.403 . S
C169 H148 0.950 . S
C169 C168 1.382 . S
C169 C185 1.411 1_565 S
C170 C168 1.403 . S
C170 C171 1.489 . S
C170 C184 1.411 1_565 S
C171 C170 1.489 . S
C171 C172 1.383 . S
C171 C176 1.382 . S
C172 H149 0.950 . S
C172 C171 1.383 . S
C172 C173 1.395 . S
C173 H150 0.950 . S
C173 C172 1.395 . S
C173 C174 1.288 . S
C174 C173 1.288 . S
C174 C175 1.392 . S
C175 H151 0.951 . S
C175 C174 1.392 . S
C175 C176 1.392 . S
C176 H152 0.949 . S
C176 C171 1.382 . S
C176 C175 1.392 . S
C177 C178 1.376 . S
C177 C182 1.386 . S
C177 C183 1.483 . S
C178 H153 0.949 . S
C178 C177 1.376 . S
C178 C179 1.397 . S
C179 H154 0.950 . S
C179 C178 1.397 . S
C179 C180 1.391 . S
C180 C179 1.391 . S
C180 C181 1.405 . S
C181 H155 0.950 . S
C181 C180 1.405 . S
C181 C182 1.367 . S
C182 H156 0.950 . S
C182 C177 1.386 . S
C182 C181 1.367 . S
C183 C177 1.483 . S
C183 C184 1.382 . S
C183 C185 1.403 . S
C184 H157 0.950 . S
C184 C170 1.411 1_545 S
C184 C183 1.382 . S
C185 C169 1.411 1_545 S
C185 C183 1.403 . S
C185 C186 1.489 . S
C186 C185 1.489 . S
C186 C187 1.383 . S
C186 C191 1.382 . S
C187 H158 0.950 . S
C187 C186 1.383 . S
C187 C188 1.395 . S
C188 H159 0.950 . S
C188 C187 1.395 . S
C188 C189 1.288 . S
C189 C188 1.288 . S
C189 C190 1.392 . S
C190 H160 0.951 . S
C190 C189 1.392 . S
C190 C191 1.392 . S
C191 H161 0.949 . S
C191 C186 1.382 . S
C191 C190 1.392 . S
H192 C211 0.949 . S
H193 C212 0.950 . S
H194 C214 0.950 . S
H195 C215 0.950 . S
H196 C217 0.950 . S
H197 C220 0.950 . S
H198 C221 0.950 . S
H199 C223 0.951 . S
H200 C224 0.949 . S
H201 C226 0.949 . S
H202 C227 0.950 . S
H203 C229 0.950 . S
H204 C230 0.950 . S
H205 C232 0.950 . S
H206 C235 0.950 . S
H207 C236 0.950 . S
H208 C238 0.951 . S
H209 C239 0.949 . S
C210 C211 1.376 . S
C210 C215 1.386 . S
C210 C216 1.483 . S
C211 H192 0.949 . S
C211 C210 1.376 . S
C211 C212 1.397 . S
C212 H193 0.950 . S
C212 C211 1.397 . S
C212 C213 1.391 . S
C213 C212 1.391 . S
C213 C214 1.405 . S
C214 H194 0.950 . S
C214 C213 1.405 . S
C214 C215 1.367 . S
C215 H195 0.950 . S
C215 C210 1.386 . S
C215 C214 1.367 . S
C216 C210 1.483 . S
C216 C217 1.382 1_455 S
C216 C218 1.403 . S
C217 H196 0.950 . S
C217 C216 1.382 1_655 S
C217 C233 1.411 . S
C218 C216 1.403 . S
C218 C219 1.489 . S
C218 C232 1.411 . S
C219 C218 1.489 . S
C219 C220 1.383 . S
C219 C224 1.382 . S
C220 H197 0.950 . S
C220 C219 1.383 . S
C220 C221 1.395 . S
C221 H198 0.950 . S
C221 C220 1.395 . S
C221 C222 1.288 . S
C222 C221 1.288 . S
C222 C223 1.392 . S
C223 H199 0.951 . S
C223 C222 1.392 . S
C223 C224 1.392 . S
C224 H200 0.949 . S
C224 C219 1.382 . S
C224 C223 1.392 . S
C225 C226 1.376 . S
C225 C230 1.386 . S
C225 C231 1.483 . S
C226 H201 0.949 . S
C226 C225 1.376 . S
C226 C227 1.397 . S
C227 H202 0.950 . S
C227 C226 1.397 . S
C227 C228 1.391 . S
C228 C227 1.391 . S
C228 C229 1.405 . S
C229 H203 0.950 . S
C229 C228 1.405 . S
C229 C230 1.367 . S
C230 H204 0.950 . S
C230 C225 1.386 . S
C230 C229 1.367 . S
C231 C225 1.483 . S
C231 C232 1.382 1_655 S
C231 C233 1.403 . S
C232 H205 0.950 . S
C232 C218 1.411 . S
C232 C231 1.382 1_455 S
C233 C217 1.411 . S
C233 C231 1.403 . S
C233 C234 1.489 . S
C234 C233 1.489 . S
C234 C235 1.383 . S
C234 C239 1.382 . S
C235 H206 0.950 . S
C235 C234 1.383 . S
C235 C236 1.395 . S
C236 H207 0.950 . S
C236 C235 1.395 . S
C236 C237 1.288 . S
C237 C236 1.288 . S
C237 C238 1.392 . S
C238 H208 0.951 . S
C238 C237 1.392 . S
C238 C239 1.392 . S
C239 H209 0.949 . S
C239 C234 1.382 . S
C239 C238 1.392 . S
H240 C259 0.949 . S
H241 C260 0.950 . S
H242 C262 0.950 . S
H243 C263 0.950 . S
H244 C265 0.950 . S
H245 C268 0.950 . S
H246 C269 0.950 . S
H247 C271 0.951 . S
H248 C272 0.949 . S
H249 C274 0.949 . S
H250 C275 0.950 . S
H251 C277 0.950 . S
H252 C278 0.950 . S
H253 C280 0.950 . S
H254 C283 0.950 . S
H255 C284 0.950 . S
H256 C286 0.951 . S
H257 C287 0.949 . S
C258 C259 1.376 . S
C258 C263 1.386 . S
C258 C264 1.483 . S
C259 H240 0.949 . S
C259 C258 1.376 . S
C259 C260 1.397 . S
C260 H241 0.950 . S
C260 C259 1.397 . S
C260 C261 1.391 . S
C261 C260 1.391 . S
C261 C262 1.405 . S
C262 H242 0.950 . S
C262 C261 1.405 . S
C262 C263 1.367 . S
C263 H243 0.950 . S
C263 C258 1.386 . S
C263 C262 1.367 . S
C264 C258 1.483 . S
C264 C265 1.382 . S
C264 C266 1.403 . S
C265 H244 0.950 . S
C265 C264 1.382 . S
C265 C281 1.411 . S
C266 C264 1.403 . S
C266 C267 1.489 . S
C266 C280 1.411 . S
C267 C266 1.489 . S
C267 C268 1.383 . S
C267 C272 1.382 . S
C268 H245 0.950 . S
C268 C267 1.383 . S
C268 C269 1.395 . S
C269 H246 0.950 . S
C269 C268 1.395 . S
C269 C270 1.288 . S
C270 C269 1.288 . S
C270 C271 1.392 . S
C271 H247 0.951 . S
C271 C270 1.392 . S
C271 C272 1.392 . S
C272 H248 0.949 . S
C272 C267 1.382 . S
C272 C271 1.392 . S
C273 C274 1.376 . S
C273 C278 1.386 . S
C273 C279 1.483 . S
C274 H249 0.949 . S
C274 C273 1.376 . S
C274 C275 1.397 . S
C275 H250 0.950 . S
C275 C274 1.397 . S
C275 C276 1.391 . S
C276 C275 1.391 . S
C276 C277 1.405 . S
C277 H251 0.950 . S
C277 C276 1.405 . S
C277 C278 1.367 . S
C278 H252 0.950 . S
C278 C273 1.386 . S
C278 C277 1.367 . S
C279 C273 1.483 . S
C279 C280 1.382 . S
C279 C281 1.403 . S
C280 H253 0.950 . S
C280 C266 1.411 . S
C280 C279 1.382 . S
C281 C265 1.411 . S
C281 C279 1.403 . S
C281 C282 1.489 . S
C282 C281 1.489 . S
C282 C283 1.383 . S
C282 C287 1.382 . S
C283 H254 0.950 . S
C283 C282 1.383 . S
C283 C284 1.395 . S
C284 H255 0.950 . S
C284 C283 1.395 . S
C284 C285 1.288 . S
C285 C284 1.288 . S
C285 C286 1.392 . S
C286 H256 0.951 . S
C286 C285 1.392 . S
C286 C287 1.392 . S
C287 H257 0.949 . S
C287 C282 1.382 . S
C287 C286 1.392 . S
H288 C307 0.949 . S
H289 C308 0.950 . S
H290 C310 0.950 . S
H291 C311 0.950 . S
H292 C313 0.950 . S
H293 C316 0.950 . S
H294 C317 0.950 . S
H295 C319 0.951 . S
H296 C320 0.949 1_545 S
H297 C322 0.949 . S
H298 C323 0.950 . S
H299 C325 0.950 . S
H300 C326 0.950 . S
H301 C328 0.950 . S
H302 C331 0.950 . S
H303 C332 0.950 . S
H304 C334 0.951 . S
H305 C335 0.949 1_565 S
C306 C307 1.376 . S
C306 C311 1.386 . S
C306 C312 1.483 . S
C307 H288 0.949 . S
C307 C306 1.376 . S
C307 C308 1.397 . S
C308 H289 0.950 . S
C308 C307 1.397 . S
C308 C309 1.391 . S
C309 C308 1.391 . S
C309 C310 1.405 . S
C310 H290 0.950 . S
C310 C309 1.405 . S
C310 C311 1.367 . S
C311 H291 0.950 . S
C311 C306 1.386 . S
C311 C310 1.367 . S
C312 C306 1.483 . S
C312 C313 1.382 . S
C312 C314 1.403 . S
C313 H292 0.950 . S
C313 C312 1.382 . S
C313 C329 1.411 1_565 S
C314 C312 1.403 . S
C314 C315 1.489 . S
C314 C328 1.411 1_565 S
C315 C314 1.489 . S
C315 C316 1.383 . S
C315 C320 1.382 . S
C316 H293 0.950 . S
C316 C315 1.383 . S
C316 C317 1.395 . S
C317 H294 0.950 . S
C317 C316 1.395 . S
C317 C318 1.288 . S
C318 C317 1.288 . S
C318 C319 1.392 . S
C319 H295 0.951 . S
C319 C318 1.392 . S
C319 C320 1.392 . S
C320 H296 0.949 1_565 S
C320 C315 1.382 . S
C320 C319 1.392 . S
C321 C322 1.376 . S
C321 C326 1.386 . S
C321 C327 1.483 . S
C322 H297 0.949 . S
C322 C321 1.376 . S
C322 C323 1.397 . S
C323 H298 0.950 . S
C323 C322 1.397 . S
C323 C324 1.391 . S
C324 C323 1.391 . S
C324 C325 1.405 . S
C325 H299 0.950 . S
C325 C324 1.405 . S
C325 C326 1.367 . S
C326 H300 0.950 . S
C326 C321 1.386 . S
C326 C325 1.367 . S
C327 C321 1.483 . S
C327 C328 1.382 . S
C327 C329 1.403 . S
C328 H301 0.950 . S
C328 C314 1.411 1_545 S
C328 C327 1.382 . S
C329 C313 1.411 1_545 S
C329 C327 1.403 . S
C329 C330 1.489 . S
C330 C329 1.489 . S
C330 C331 1.383 . S
C330 C335 1.382 . S
C331 H302 0.950 . S
C331 C330 1.383 . S
C331 C332 1.395 . S
C332 H303 0.950 . S
C332 C331 1.395 . S
C332 C333 1.288 . S
C333 C332 1.288 . S
C333 C334 1.392 . S
C334 H304 0.951 . S
C334 C333 1.392 . S
C334 C335 1.392 . S
C335 H305 0.949 1_545 S
C335 C330 1.382 . S
C335 C334 1.392 . S
H336 C355 0.949 . S
H337 C356 0.950 . S
H338 C358 0.950 . S
H339 C359 0.950 . S
H340 C361 0.950 . S
H341 C364 0.950 . S
H342 C365 0.945 1_455 S
H343 C367 0.951 . S
H344 C368 0.949 . S
H345 C370 0.949 . S
H346 C371 0.950 . S
H347 C373 0.950 . S
H348 C374 0.934 1_545 S
H349 C376 0.950 . S
H350 C379 0.950 . S
H351 C380 0.950 . S
H352 C382 0.951 1_545 S
H353 C383 0.949 . S
C354 C355 1.376 . S
C354 C359 1.386 1_455 S
C354 C360 1.483 . S
C355 H336 0.949 . S
C355 C354 1.376 . S
C355 C356 1.397 . S
C356 H337 0.950 . S
C356 C355 1.397 . S
C356 C357 1.391 1_455 S
C357 C356 1.391 1_655 S
C357 C358 1.405 . S
C358 H338 0.950 . S
C358 C357 1.405 . S
C358 C359 1.367 . S
C359 H339 0.950 . S
C359 C354 1.386 1_655 S
C359 C358 1.367 . S
C360 C354 1.483 . S
C360 C361 1.382 . S
C360 C362 1.403 . S
C361 H340 0.950 . S
C361 C360 1.382 . S
C361 C377 1.411 . S
C362 C360 1.403 . S
C362 C363 1.489 . S
C362 C376 1.411 . S
C363 C362 1.489 . S
C363 C364 1.383 . S
C363 C368 1.382 1_455 S
C364 H341 0.950 . S
C364 C363 1.383 . S
C364 C365 1.373 1_455 S
C365 H342 0.945 1_655 S
C365 C364 1.373 1_655 S
C365 C366 1.316 . S
C366 C365 1.316 . S
C366 C367 1.392 . S
C367 H343 0.951 . S
C367 C366 1.392 . S
C367 C368 1.392 . S
C368 H344 0.949 . S
C368 C363 1.382 1_655 S
C368 C367 1.392 . S
C369 C370 1.391 . S
C369 C374 1.386 . S
C369 C375 1.467 1_565 S
C370 H345 0.949 . S
C370 C369 1.391 . S
C370 C371 1.397 . S
C371 H346 0.950 . S
C371 C370 1.397 . S
C371 C372 1.391 . S
C372 C371 1.391 . S
C372 C373 1.405 . S
C373 H347 0.950 . S
C373 C372 1.405 . S
C373 C374 1.384 . S
C374 H348 0.934 1_565 S
C374 C369 1.386 . S
C374 C373 1.384 . S
C375 C369 1.467 1_545 S
C375 C376 1.382 . S
C375 C377 1.403 . S
C376 H349 0.950 . S
C376 C362 1.411 . S
C376 C375 1.382 . S
C377 C361 1.411 . S
C377 C375 1.403 . S
C377 C378 1.489 . S
C378 C377 1.489 . S
C378 C379 1.383 1_545 S
C378 C383 1.382 . S
C379 H350 0.950 . S
C379 C378 1.383 1_565 S
C379 C380 1.395 . S
C380 H351 0.950 . S
C380 C379 1.395 . S
C380 C381 1.288 . S
C381 C380 1.288 . S
C381 C382 1.392 . S
C382 H352 0.951 1_565 S
C382 C381 1.392 . S
C382 C383 1.392 1_565 S
C383 H353 0.949 . S
C383 C378 1.382 . S
C383 C382 1.392 1_545 S
Zn384 O387 2.031 . S
Zn384 O389 2.049 1_556 S
Zn384 O394 2.067 . S
Zn385 O386 1.962 . S
Zn385 O388 1.986 . S
Zn385 O390 1.996 . S
Zn385 O393 1.943 . S
O386 Zn385 1.962 . S
O386 C391 1.254 . S
O387 Zn384 2.031 . S
O387 C391 1.269 1_556 S
O388 Zn385 1.986 . S
O388 C395 1.262 . S
O389 Zn384 2.049 1_554 S
O389 C397 1.260 . S
O390 Zn385 1.996 . S
O390 C397 1.257 . S
C391 O386 1.254 . S
C391 O387 1.269 1_554 S
C392 O393 1.249 1_556 S
C392 O394 1.270 . S
O393 Zn385 1.943 . S
O393 C392 1.249 1_554 S
O394 Zn384 2.067 . S
O394 C392 1.270 . S
C395 O388 1.262 . S
C395 O396 1.232 . S
O396 C395 1.232 . S
C397 O389 1.260 . S
C397 O390 1.257 . S
Zn398 O401 2.031 . S
Zn398 O403 2.049 . S
Zn398 O408 2.067 . S
Zn399 O400 1.962 . S
Zn399 O402 1.986 . S
Zn399 O404 1.996 . S
Zn399 O407 1.943 . S
O400 Zn399 1.962 . S
O400 C405 1.254 . S
O401 Zn398 2.031 . S
O401 C405 1.269 . S
O402 Zn399 1.986 . S
O402 C409 1.262 . S
O403 Zn398 2.049 . S
O403 C411 1.260 . S
O404 Zn399 1.996 . S
O404 C411 1.257 . S
C405 O400 1.254 . S
C405 O401 1.269 . S
C406 O407 1.249 . S
C406 O408 1.270 . S
O407 Zn399 1.943 . S
O407 C406 1.249 . S
O408 Zn398 2.067 . S
O408 C406 1.270 . S
C409 O402 1.262 . S
C409 O410 1.232 . S
O410 C409 1.232 . S
C411 O403 1.260 . S
C411 O404 1.257 . S
Zn412 O415 2.031 . S
Zn412 O417 2.049 . S
Zn412 O422 2.067 . S
Zn413 O414 1.962 . S
Zn413 O416 1.986 . S
Zn413 O418 1.996 . S
Zn413 O421 1.943 . S
O414 Zn413 1.962 . S
O414 C419 1.254 . S
O415 Zn412 2.031 . S
O415 C419 1.269 . S
O416 Zn413 1.986 . S
O416 C423 1.262 . S
O417 Zn412 2.049 . S
O417 C425 1.260 . S
O418 Zn413 1.996 . S
O418 C425 1.257 . S
C419 O414 1.254 . S
C419 O415 1.269 . S
C420 O421 1.249 . S
C420 O422 1.270 . S
O421 Zn413 1.943 . S
O421 C420 1.249 . S
O422 Zn412 2.067 . S
O422 C420 1.270 . S
C423 O416 1.262 . S
C423 O424 1.232 . S
O424 C423 1.232 . S
C425 O417 1.260 . S
C425 O418 1.257 . S
Zn426 O429 2.031 . S
Zn426 O431 2.049 . S
Zn426 O436 2.067 . S
Zn427 O428 1.962 . S
Zn427 O430 1.986 . S
Zn427 O432 1.996 . S
Zn427 O435 1.943 . S
O428 Zn427 1.962 . S
O428 C433 1.254 . S
O429 Zn426 2.031 . S
O429 C433 1.269 . S
O430 Zn427 1.986 . S
O430 C437 1.262 . S
O431 Zn426 2.049 . S
O431 C439 1.260 . S
O432 Zn427 1.996 . S
O432 C439 1.257 . S
C433 O428 1.254 . S
C433 O429 1.269 . S
C434 O435 1.249 . S
C434 O436 1.270 . S
O435 Zn427 1.943 . S
O435 C434 1.249 . S
O436 Zn426 2.067 . S
O436 C434 1.270 . S
C437 O430 1.262 . S
C437 O438 1.232 . S
O438 C437 1.232 . S
C439 O431 1.260 . S
C439 O432 1.257 . S
Zn440 O443 2.031 . S
Zn440 O445 2.049 . S
Zn440 O450 2.067 . S
Zn441 O442 1.962 . S
Zn441 O444 1.986 . S
Zn441 O446 1.996 . S
Zn441 O449 1.943 . S
O442 Zn441 1.962 . S
O442 C447 1.254 . S
O443 Zn440 2.031 . S
O443 C447 1.269 . S
O444 Zn441 1.986 . S
O444 C451 1.262 . S
O445 Zn440 2.049 . S
O445 C453 1.260 . S
O446 Zn441 1.996 . S
O446 C453 1.257 . S
C447 O442 1.254 . S
C447 O443 1.269 . S
C448 O449 1.249 . S
C448 O450 1.270 . S
O449 Zn441 1.943 . S
O449 C448 1.249 . S
O450 Zn440 2.067 . S
O450 C448 1.270 . S
C451 O444 1.262 . S
C451 O452 1.232 . S
O452 C451 1.232 . S
C453 O445 1.260 . S
C453 O446 1.257 . S
Zn454 O457 2.031 . S
Zn454 O459 2.049 . S
Zn454 O464 2.067 . S
Zn455 O456 1.962 . S
Zn455 O458 1.986 . S
Zn455 O460 1.996 . S
Zn455 O463 1.943 . S
O456 Zn455 1.962 . S
O456 C461 1.254 . S
O457 Zn454 2.031 . S
O457 C461 1.269 . S
O458 Zn455 1.986 . S
O458 C465 1.262 . S
O459 Zn454 2.049 . S
O459 C467 1.260 . S
O460 Zn455 1.996 . S
O460 C467 1.257 . S
C461 O456 1.254 . S
C461 O457 1.269 . S
C462 O463 1.249 . S
C462 O464 1.270 . S
O463 Zn455 1.943 . S
O463 C462 1.249 . S
O464 Zn454 2.067 . S
O464 C462 1.270 . S
C465 O458 1.262 . S
C465 O466 1.232 . S
O466 C465 1.232 . S
C467 O459 1.260 . S
C467 O460 1.257 . S
Zn468 O471 2.031 . S
Zn468 O473 2.049 . S
Zn468 O478 2.067 . S
Zn469 O470 1.962 . S
Zn469 O472 1.986 . S
Zn469 O474 1.996 . S
Zn469 O477 1.943 1_556 S
O470 Zn469 1.962 . S
O470 C475 1.254 1_556 S
O471 Zn468 2.031 . S
O471 C475 1.269 . S
O472 Zn469 1.986 . S
O472 C479 1.262 . S
O473 Zn468 2.049 . S
O473 C481 1.260 . S
O474 Zn469 1.996 . S
O474 C481 1.257 1_556 S
C475 O470 1.254 1_554 S
C475 O471 1.269 . S
C476 O477 1.249 . S
C476 O478 1.270 . S
O477 Zn469 1.943 1_554 S
O477 C476 1.249 . S
O478 Zn468 2.067 . S
O478 C476 1.270 . S
C479 O472 1.262 . S
C479 O480 1.232 . S
O480 C479 1.232 . S
C481 O473 1.260 . S
C481 O474 1.257 1_554 S
Zn482 O485 2.031 . S
Zn482 O487 2.049 . S
Zn482 O492 2.067 . S
Zn483 O484 1.962 . S
Zn483 O486 1.986 . S
Zn483 O488 1.996 . S
Zn483 O491 1.943 . S
O484 Zn483 1.962 . S
O484 C489 1.254 . S
O485 Zn482 2.031 . S
O485 C489 1.269 . S
O486 Zn483 1.986 . S
O486 C493 1.262 . S
O487 Zn482 2.049 . S
O487 C495 1.260 . S
O488 Zn483 1.996 . S
O488 C495 1.257 . S
C489 O484 1.254 . S
C489 O485 1.269 . S
C490 O491 1.249 . S
C490 O492 1.270 . S
O491 Zn483 1.943 . S
O491 C490 1.249 . S
O492 Zn482 2.067 . S
O492 C490 1.270 . S
C493 O486 1.262 . S
C493 O494 1.232 . S
O494 C493 1.232 . S
C495 O487 1.260 . S
C495 O488 1.257 . S
H496 C504 0.929 . S
H497 C506 0.930 . S
H498 C508 0.930 . S
H499 C511 0.929 . S
H500 C514 0.930 . S
H501 C516 0.960 . S
H502 C516 0.960 . S
H503 C516 0.960 . S
C504 H496 0.929 . S
C504 C505 1.377 . S
C504 C506 1.384 . S
C505 C504 1.377 . S
C505 C511 1.390 . S
C506 H497 0.930 . S
C506 C504 1.384 . S
C506 C507 1.372 . S
C507 C506 1.372 . S
C507 C508 1.400 . S
C507 C512 1.490 . S
C508 H498 0.930 . S
C508 C507 1.400 . S
C508 C511 1.386 . S
H509 C525 0.930 . S
H510 C526 0.931 . S
C511 H499 0.929 . S
C511 C505 1.390 . S
C511 C508 1.386 . S
C512 C507 1.490 . S
C512 C514 1.395 . S
C512 C515 1.403 . S
H513 C519 0.930 . S
C514 H500 0.930 . S
C514 C512 1.395 . S
C514 C517 1.403 . S
C515 C512 1.403 . S
C515 C516 1.524 . S
C515 C519 1.400 . S
C516 H501 0.960 . S
C516 H502 0.960 . S
C516 H503 0.960 . S
C516 C515 1.524 . S
C517 C514 1.403 . S
C517 C518 1.392 . S
C517 C521 1.495 . S
C518 C517 1.392 . S
C518 C519 1.385 . S
C518 C520 1.478 . S
C519 H513 0.930 . S
C519 C515 1.400 . S
C519 C518 1.385 . S
C520 C518 1.478 . S
C520 C522 1.381 . S
C520 C526 1.383 . S
C521 C517 1.495 . S
C521 H527 0.959 . S
C521 H528 0.961 . S
C521 H529 0.960 . S
C522 C520 1.381 . S
C522 C523 1.394 . S
C522 H530 0.930 . S
C523 C522 1.394 . S
C523 C524 1.383 . S
C523 H531 0.929 . S
C524 C523 1.383 . S
C524 C525 1.377 . S
C525 H509 0.930 . S
C525 C524 1.377 . S
C525 C526 1.379 . S
C526 H510 0.931 . S
C526 C520 1.383 . S
C526 C525 1.379 . S
H527 C521 0.959 . S
H528 C521 0.961 . S
H529 C521 0.960 . S
H530 C522 0.930 . S
H531 C523 0.929 . S
H532 C540 0.929 . S
H533 C542 0.930 . S
H534 C544 0.930 . S
H535 C547 0.929 . S
H536 C550 0.930 . S
H537 C552 0.960 . S
H538 C552 0.960 . S
H539 C552 0.960 . S
C540 H532 0.929 . S
C540 C541 1.377 . S
C540 C542 1.384 . S
C541 C540 1.377 . S
C541 C547 1.390 . S
C542 H533 0.930 . S
C542 C540 1.384 . S
C542 C543 1.372 . S
C543 C542 1.372 . S
C543 C544 1.400 . S
C543 C548 1.490 . S
C544 H534 0.930 . S
C544 C543 1.400 . S
C544 C547 1.386 . S
H545 C561 0.930 . S
H546 C562 0.931 . S
C547 H535 0.929 . S
C547 C541 1.390 . S
C547 C544 1.386 . S
C548 C543 1.490 . S
C548 C550 1.395 . S
C548 C551 1.403 . S
H549 C555 0.930 . S
C550 H536 0.930 . S
C550 C548 1.395 . S
C550 C553 1.403 . S
C551 C548 1.403 . S
C551 C552 1.524 . S
C551 C555 1.400 . S
C552 H537 0.960 . S
C552 H538 0.960 . S
C552 H539 0.960 . S
C552 C551 1.524 . S
C553 C550 1.403 . S
C553 C554 1.392 . S
C553 C557 1.495 . S
C554 C553 1.392 . S
C554 C555 1.385 . S
C554 C556 1.478 . S
C555 H549 0.930 . S
C555 C551 1.400 . S
C555 C554 1.385 . S
C556 C554 1.478 . S
C556 C558 1.381 . S
C556 C562 1.383 . S
C557 C553 1.495 . S
C557 H563 0.959 . S
C557 H564 0.961 . S
C557 H565 0.960 . S
C558 C556 1.381 . S
C558 C559 1.394 . S
C558 H566 0.930 . S
C559 C558 1.394 . S
C559 C560 1.383 . S
C559 H567 0.929 . S
C560 C559 1.383 . S
C560 C561 1.377 . S
C561 H545 0.930 . S
C561 C560 1.377 . S
C561 C562 1.379 . S
C562 H546 0.931 . S
C562 C556 1.383 . S
C562 C561 1.379 . S
H563 C557 0.959 . S
H564 C557 0.961 . S
H565 C557 0.960 . S
H566 C558 0.930 . S
H567 C559 0.929 . S
H568 C576 0.929 . S
H569 C578 0.930 . S
H570 C580 0.930 . S
H571 C583 0.929 . S
H572 C586 0.930 . S
H573 C588 0.960 . S
H574 C588 0.960 . S
H575 C588 0.960 . S
C576 H568 0.929 . S
C576 C577 1.377 . S
C576 C578 1.384 . S
C577 C576 1.377 . S
C577 C583 1.390 . S
C578 H569 0.930 . S
C578 C576 1.384 . S
C578 C579 1.372 . S
C579 C578 1.372 . S
C579 C580 1.400 . S
C579 C584 1.490 . S
C580 H570 0.930 . S
C580 C579 1.400 . S
C580 C583 1.386 . S
H581 C597 0.930 . S
H582 C598 0.931 . S
C583 H571 0.929 . S
C583 C577 1.390 . S
C583 C580 1.386 . S
C584 C579 1.490 . S
C584 C586 1.395 . S
C584 C587 1.403 . S
H585 C591 0.930 . S
C586 H572 0.930 . S
C586 C584 1.395 . S
C586 C589 1.403 . S
C587 C584 1.403 . S
C587 C588 1.524 . S
C587 C591 1.400 . S
C588 H573 0.960 . S
C588 H574 0.960 . S
C588 H575 0.960 . S
C588 C587 1.524 . S
C589 C586 1.403 . S
C589 C590 1.392 . S
C589 C593 1.495 . S
C590 C589 1.392 . S
C590 C591 1.385 . S
C590 C592 1.478 . S
C591 H585 0.930 . S
C591 C587 1.400 . S
C591 C590 1.385 . S
C592 C590 1.478 . S
C592 C594 1.381 . S
C592 C598 1.383 . S
C593 C589 1.495 . S
C593 H599 0.959 . S
C593 H600 0.961 . S
C593 H601 0.960 . S
C594 C592 1.381 . S
C594 C595 1.394 . S
C594 H602 0.930 . S
C595 C594 1.394 . S
C595 C596 1.383 . S
C595 H603 0.929 . S
C596 C595 1.383 . S
C596 C597 1.377 . S
C597 H581 0.930 . S
C597 C596 1.377 . S
C597 C598 1.379 . S
C598 H582 0.931 . S
C598 C592 1.383 . S
C598 C597 1.379 . S
H599 C593 0.959 . S
H600 C593 0.961 . S
H601 C593 0.960 . S
H602 C594 0.930 . S
H603 C595 0.929 . S
H604 C612 0.929 . S
H605 C614 0.930 . S
H606 C616 0.930 . S
H607 C619 0.929 . S
H608 C622 0.930 . S
H609 C624 0.960 . S
H610 C624 0.960 . S
H611 C624 0.960 . S
C612 H604 0.929 . S
C612 C613 1.377 . S
C612 C614 1.384 . S
C613 C612 1.377 . S
C613 C619 1.390 . S
C614 H605 0.930 . S
C614 C612 1.384 . S
C614 C615 1.372 . S
C615 C614 1.372 . S
C615 C616 1.400 . S
C615 C620 1.490 . S
C616 H606 0.930 . S
C616 C615 1.400 . S
C616 C619 1.386 . S
H617 C633 0.992 . S
H618 C634 0.931 . S
C619 H607 0.929 . S
C619 C613 1.390 . S
C619 C616 1.386 . S
C620 C615 1.490 . S
C620 C622 1.395 . S
C620 C623 1.403 . S
H621 C627 0.930 . S
C622 H608 0.930 . S
C622 C620 1.395 . S
C622 C625 1.403 . S
C623 C620 1.403 . S
C623 C624 1.524 . S
C623 C627 1.400 . S
C624 H609 0.960 . S
C624 H610 0.960 . S
C624 H611 0.960 . S
C624 C623 1.524 . S
C625 C622 1.403 . S
C625 C626 1.392 . S
C625 C629 1.495 . S
C626 C625 1.392 . S
C626 C627 1.385 . S
C626 C628 1.478 . S
C627 H621 0.930 . S
C627 C623 1.400 . S
C627 C626 1.385 . S
C628 C626 1.478 . S
C628 C630 1.381 . S
C628 C634 1.383 . S
C629 C625 1.495 . S
C629 H635 0.959 . S
C629 H636 0.961 . S
C629 H637 0.960 . S
C630 C628 1.381 . S
C630 C631 1.394 . S
C630 H638 0.930 . S
C631 C630 1.394 . S
C631 C632 1.383 . S
C631 H639 0.929 . S
C632 C631 1.383 . S
C632 C633 1.377 . S
C633 H617 0.992 . S
C633 C632 1.377 . S
C633 C634 1.379 . S
C634 H618 0.931 . S
C634 C628 1.383 . S
C634 C633 1.379 . S
H635 C629 0.959 . S
H636 C629 0.961 . S
H637 C629 0.960 . S
H638 C630 0.930 . S
H639 C631 0.929 . S
H640 C648 0.929 . S
H641 C650 0.931 . S
H642 C652 0.930 . S
H643 C655 0.929 . S
H644 C658 0.930 . S
H645 C660 0.960 1_554 S
H646 C660 0.960 1_554 S
H647 C660 0.960 . S
C648 H640 0.929 . S
C648 C649 1.377 . S
C648 C650 1.384 . S
C649 C648 1.377 . S
C649 C655 1.390 . S
C650 H641 0.931 . S
C650 C648 1.384 . S
C650 C651 1.372 . S
C651 C650 1.372 . S
C651 C652 1.400 . S
C651 C656 1.490 . S
C652 H642 0.930 . S
C652 C651 1.400 . S
C652 C655 1.386 . S
H653 C669 0.930 . S
H654 C670 0.931 . S
C655 H643 0.929 . S
C655 C649 1.390 . S
C655 C652 1.386 . S
C656 C651 1.490 . S
C656 C658 1.395 . S
C656 C659 1.403 . S
H657 C663 0.916 1_554 S
C658 H644 0.930 . S
C658 C656 1.395 . S
C658 C661 1.403 . S
C659 C656 1.403 . S
C659 C660 1.524 . S
C659 C663 1.400 . S
C660 H645 0.960 1_556 S
C660 H646 0.960 1_556 S
C660 H647 0.960 . S
C660 C659 1.524 . S
C661 C658 1.403 . S
C661 C662 1.392 . S
C661 C665 1.495 . S
C662 C661 1.392 . S
C662 C663 1.385 . S
C662 C664 1.478 . S
C663 H657 0.916 1_556 S
C663 C659 1.400 . S
C663 C662 1.385 . S
C664 C662 1.478 . S
C664 C666 1.381 1_556 S
C664 C670 1.383 . S
C665 C661 1.495 . S
C665 H671 0.959 . S
C665 H672 0.961 . S
C665 H673 0.960 . S
C666 C664 1.381 1_554 S
C666 C667 1.394 . S
C666 H674 0.930 . S
C667 C666 1.394 . S
C667 C668 1.383 . S
C667 H675 0.929 . S
C668 C667 1.383 . S
C668 C669 1.377 1_554 S
C669 H653 0.930 . S
C669 C668 1.377 1_556 S
C669 C670 1.379 . S
C670 H654 0.931 . S
C670 C664 1.383 . S
C670 C669 1.379 . S
H671 C665 0.959 . S
H672 C665 0.961 . S
H673 C665 0.960 . S
H674 C666 0.930 . S
H675 C667 0.929 . S
H676 C684 0.929 . S
H677 C686 0.930 . S
H678 C688 0.930 . S
H679 C691 0.929 . S
H680 C694 0.930 . S
H681 C696 0.960 . S
H682 C696 0.960 . S
H683 C696 0.960 . S
C684 H676 0.929 . S
C684 C685 1.377 . S
C684 C686 1.384 . S
C685 C684 1.377 . S
C685 C691 1.390 . S
C686 H677 0.930 . S
C686 C684 1.384 . S
C686 C687 1.372 . S
C687 C686 1.372 . S
C687 C688 1.400 . S
C687 C692 1.490 . S
C688 H678 0.930 . S
C688 C687 1.400 . S
C688 C691 1.386 . S
H689 C705 0.930 . S
H690 C706 0.931 . S
C691 H679 0.929 . S
C691 C685 1.390 . S
C691 C688 1.386 . S
C692 C687 1.490 . S
C692 C694 1.395 . S
C692 C695 1.403 . S
H693 C699 0.930 . S
C694 H680 0.930 . S
C694 C692 1.395 . S
C694 C697 1.403 . S
C695 C692 1.403 . S
C695 C696 1.524 . S
C695 C699 1.400 . S
C696 H681 0.960 . S
C696 H682 0.960 . S
C696 H683 0.960 . S
C696 C695 1.524 . S
C697 C694 1.403 . S
C697 C698 1.392 . S
C697 C701 1.495 . S
C698 C697 1.392 . S
C698 C699 1.385 . S
C698 C700 1.478 . S
C699 H693 0.930 . S
C699 C695 1.400 . S
C699 C698 1.385 . S
C700 C698 1.478 . S
C700 C702 1.381 . S
C700 C706 1.383 . S
C701 C697 1.495 . S
C701 H707 0.959 . S
C701 H708 0.961 . S
C701 H709 0.960 . S
C702 C700 1.381 . S
C702 C703 1.394 . S
C702 H710 0.930 . S
C703 C702 1.394 . S
C703 C704 1.383 . S
C703 H711 0.929 . S
C704 C703 1.383 . S
C704 C705 1.377 . S
C705 H689 0.930 . S
C705 C704 1.377 . S
C705 C706 1.379 . S
C706 H690 0.931 . S
C706 C700 1.383 . S
C706 C705 1.379 . S
H707 C701 0.959 . S
H708 C701 0.961 . S
H709 C701 0.960 . S
H710 C702 0.930 . S
H711 C703 0.929 . S
H712 C720 0.929 . S
H713 C722 0.930 . S
H714 C724 0.930 . S
H715 C727 0.929 . S
H716 C730 0.930 . S
H717 C732 0.960 . S
H718 C732 0.960 . S
H719 C732 0.960 . S
C720 H712 0.929 . S
C720 C721 1.377 . S
C720 C722 1.384 . S
C721 C720 1.377 . S
C721 C727 1.390 . S
C722 H713 0.930 . S
C722 C720 1.384 . S
C722 C723 1.372 . S
C723 C722 1.372 . S
C723 C724 1.400 . S
C723 C728 1.490 . S
C724 H714 0.930 . S
C724 C723 1.400 . S
C724 C727 1.386 . S
H725 C741 0.930 . S
H726 C742 0.931 . S
C727 H715 0.929 . S
C727 C721 1.390 . S
C727 C724 1.386 . S
C728 C723 1.490 . S
C728 C730 1.395 . S
C728 C731 1.403 . S
H729 C735 0.930 . S
C730 H716 0.930 . S
C730 C728 1.395 . S
C730 C733 1.403 . S
C731 C728 1.403 . S
C731 C732 1.524 . S
C731 C735 1.400 . S
C732 H717 0.960 . S
C732 H718 0.960 . S
C732 H719 0.960 . S
C732 C731 1.524 . S
C733 C730 1.403 . S
C733 C734 1.392 . S
C733 C737 1.495 . S
C734 C733 1.392 . S
C734 C735 1.385 . S
C734 C736 1.478 . S
C735 H729 0.930 . S
C735 C731 1.400 . S
C735 C734 1.385 . S
C736 C734 1.478 . S
C736 C738 1.381 . S
C736 C742 1.383 . S
C737 C733 1.495 . S
C737 H743 0.959 . S
C737 H744 0.961 . S
C737 H745 0.960 . S
C738 C736 1.381 . S
C738 C739 1.394 . S
C738 H746 0.930 . S
C739 C738 1.394 . S
C739 C740 1.383 . S
C739 H747 0.929 . S
C740 C739 1.383 . S
C740 C741 1.377 . S
C741 H725 0.930 . S
C741 C740 1.377 . S
C741 C742 1.379 . S
C742 H726 0.931 . S
C742 C736 1.383 . S
C742 C741 1.379 . S
H743 C737 0.959 . S
H744 C737 0.961 . S
H745 C737 0.960 . S
H746 C738 0.930 . S
H747 C739 0.929 . S
H748 C756 0.929 . S
H749 C758 0.930 . S
H750 C760 0.930 . S
H751 C763 0.929 . S
H752 C766 0.930 . S
H753 C768 0.960 . S
H754 C768 0.960 . S
H755 C768 0.960 . S
C756 H748 0.929 . S
C756 C757 1.377 . S
C756 C758 1.384 . S
C757 C756 1.377 . S
C757 C763 1.390 . S
C758 H749 0.930 . S
C758 C756 1.384 . S
C758 C759 1.372 . S
C759 C758 1.372 . S
C759 C760 1.400 . S
C759 C764 1.490 . S
C760 H750 0.930 . S
C760 C759 1.400 . S
C760 C763 1.386 . S
H761 C777 0.930 . S
H762 C778 0.931 . S
C763 H751 0.929 . S
C763 C757 1.390 . S
C763 C760 1.386 . S
C764 C759 1.490 . S
C764 C766 1.395 . S
C764 C767 1.403 . S
H765 C771 0.930 . S
C766 H752 0.930 . S
C766 C764 1.395 . S
C766 C769 1.403 . S
C767 C764 1.403 . S
C767 C768 1.524 . S
C767 C771 1.400 . S
C768 H753 0.960 . S
C768 H754 0.960 . S
C768 H755 0.960 . S
C768 C767 1.524 . S
C769 C766 1.403 . S
C769 C770 1.392 . S
C769 C773 1.495 . S
C770 C769 1.392 . S
C770 C771 1.385 . S
C770 C772 1.478 . S
C771 H765 0.930 . S
C771 C767 1.400 . S
C771 C770 1.385 . S
C772 C770 1.478 . S
C772 C774 1.381 . S
C772 C778 1.383 . S
C773 C769 1.495 . S
C773 H779 0.959 . S
C773 H780 0.961 . S
C773 H781 0.960 . S
C774 C772 1.381 . S
C774 C775 1.394 . S
C774 H782 0.930 . S
C775 C774 1.394 . S
C775 C776 1.383 . S
C775 H783 0.929 . S
C776 C775 1.383 . S
C776 C777 1.377 . S
C777 H761 0.930 . S
C777 C776 1.377 . S
C777 C778 1.379 . S
C778 H762 0.931 . S
C778 C772 1.383 . S
C778 C777 1.379 . S
H779 C773 0.959 . S
H780 C773 0.961 . S
H781 C773 0.960 . S
H782 C774 0.930 . S
H783 C775 0.929 . S
H784 C792 0.929 . S
H785 C794 0.930 . S
H786 C796 0.930 . S
H787 C799 0.929 . S
H788 C802 0.930 . S
H789 C804 0.960 . S
H790 C804 0.960 . S
H791 C804 0.960 . S
C792 H784 0.929 . S
C792 C793 1.377 . S
C792 C794 1.384 . S
C793 C792 1.377 . S
C793 C799 1.390 . S
C794 H785 0.930 . S
C794 C792 1.384 . S
C794 C795 1.372 . S
C795 C794 1.372 . S
C795 C796 1.400 . S
C795 C800 1.490 . S
C796 H786 0.930 . S
C796 C795 1.400 . S
C796 C799 1.386 . S
H797 C813 0.930 . S
H798 C814 0.931 . S
C799 H787 0.929 . S
C799 C793 1.390 . S
C799 C796 1.386 . S
C800 C795 1.490 . S
C800 C802 1.395 . S
C800 C803 1.403 . S
H801 C807 0.930 . S
C802 H788 0.930 . S
C802 C800 1.395 . S
C802 C805 1.403 . S
C803 C800 1.403 . S
C803 C804 1.524 . S
C803 C807 1.400 . S
C804 H789 0.960 . S
C804 H790 0.960 . S
C804 H791 0.960 . S
C804 C803 1.524 . S
C805 C802 1.403 . S
C805 C806 1.392 . S
C805 C809 1.495 . S
C806 C805 1.392 . S
C806 C807 1.385 . S
C806 C808 1.478 . S
C807 H801 0.930 . S
C807 C803 1.400 . S
C807 C806 1.385 . S
C808 C806 1.478 . S
C808 C810 1.381 . S
C808 C814 1.383 . S
C809 C805 1.495 . S
C809 H815 0.959 . S
C809 H816 0.961 . S
C809 H817 0.960 . S
C810 C808 1.381 . S
C810 C811 1.394 . S
C810 H818 0.930 . S
C811 C810 1.394 . S
C811 C812 1.383 . S
C811 H819 0.929 . S
C812 C811 1.383 . S
C812 C813 1.377 . S
C813 H797 0.930 . S
C813 C812 1.377 . S
C813 C814 1.379 . S
C814 H798 0.931 . S
C814 C808 1.383 . S
C814 C813 1.379 . S
H815 C809 0.959 . S
H816 C809 0.961 . S
H817 C809 0.960 . S
H818 C810 0.930 . S
H819 C811 0.929 . S
H820 C828 0.929 . S
H821 C830 0.930 . S
H822 C832 0.930 . S
H823 C835 0.929 . S
H824 C838 0.930 . S
H825 C840 0.960 . S
H826 C840 0.960 . S
H827 C840 0.960 . S
C828 H820 0.929 . S
C828 C829 1.377 . S
C828 C830 1.384 . S
C829 C828 1.377 . S
C829 C835 1.390 . S
C830 H821 0.930 . S
C830 C828 1.384 . S
C830 C831 1.372 . S
C831 C830 1.372 . S
C831 C832 1.400 . S
C831 C836 1.490 . S
C832 H822 0.930 . S
C832 C831 1.400 . S
C832 C835 1.386 . S
H833 C849 0.872 1_556 S
H834 C850 0.931 1_556 S
C835 H823 0.929 . S
C835 C829 1.390 . S
C835 C832 1.386 . S
C836 C831 1.490 . S
C836 C838 1.395 . S
C836 C839 1.403 . S
H837 C843 0.930 . S
C838 H824 0.930 . S
C838 C836 1.395 . S
C838 C841 1.403 . S
C839 C836 1.403 . S
C839 C840 1.524 . S
C839 C843 1.400 . S
C840 H825 0.960 . S
C840 H826 0.960 . S
C840 H827 0.960 . S
C840 C839 1.524 . S
C841 C838 1.403 . S
C841 C842 1.392 . S
C841 C845 1.495 . S
C842 C841 1.392 . S
C842 C843 1.385 . S
C842 C844 1.478 . S
C843 H837 0.930 . S
C843 C839 1.400 . S
C843 C842 1.385 . S
C844 C842 1.478 . S
C844 C846 1.381 . S
C844 C850 1.383 . S
C845 C841 1.495 . S
C845 H851 0.959 . S
C845 H852 0.961 . S
C845 H853 0.960 . S
C846 C844 1.381 . S
C846 C847 1.394 . S
C846 H854 0.930 . S
C847 C846 1.394 . S
C847 C848 1.383 . S
C847 H855 0.929 . S
C848 C847 1.383 . S
C848 C849 1.416 . S
C849 H833 0.872 1_554 S
C849 C848 1.416 . S
C849 C850 1.400 . S
C850 H834 0.931 1_554 S
C850 C844 1.383 . S
C850 C849 1.400 . S
H851 C845 0.959 . S
H852 C845 0.961 . S
H853 C845 0.960 . S
H854 C846 0.930 . S
H855 C847 0.929 . S
H856 C864 0.929 . S
H857 C866 0.930 . S
H858 C868 0.930 . S
H859 C871 0.929 . S
H860 C874 0.930 . S
H861 C876 0.960 . S
H862 C876 0.960 . S
H863 C876 0.960 . S
C864 H856 0.929 . S
C864 C865 1.377 . S
C864 C866 1.384 . S
C865 C864 1.377 . S
C865 C871 1.390 . S
C866 H857 0.930 . S
C866 C864 1.384 . S
C866 C867 1.372 . S
C867 C866 1.372 . S
C867 C868 1.400 . S
C867 C872 1.490 . S
C868 H858 0.930 . S
C868 C867 1.400 . S
C868 C871 1.386 . S
H869 C885 0.930 . S
H870 C886 0.931 . S
C871 H859 0.929 . S
C871 C865 1.390 . S
C871 C868 1.386 . S
C872 C867 1.490 . S
C872 C874 1.395 . S
C872 C875 1.403 . S
H873 C879 0.930 . S
C874 H860 0.930 . S
C874 C872 1.395 . S
C874 C877 1.403 . S
C875 C872 1.403 . S
C875 C876 1.524 . S
C875 C879 1.400 . S
C876 H861 0.960 . S
C876 H862 0.960 . S
C876 H863 0.960 . S
C876 C875 1.524 . S
C877 C874 1.403 . S
C877 C878 1.392 . S
C877 C881 1.495 . S
C878 C877 1.392 . S
C878 C879 1.385 . S
C878 C880 1.478 . S
C879 H873 0.930 . S
C879 C875 1.400 . S
C879 C878 1.385 . S
C880 C878 1.478 . S
C880 C882 1.381 . S
C880 C886 1.383 . S
C881 C877 1.495 . S
C881 H887 0.959 . S
C881 H888 0.961 . S
C881 H889 0.960 . S
C882 C880 1.381 . S
C882 C883 1.394 . S
C882 H890 0.930 . S
C883 C882 1.394 . S
C883 C884 1.383 . S
C883 H891 0.929 . S
C884 C883 1.383 . S
C884 C885 1.377 . S
C885 H869 0.930 . S
C885 C884 1.377 . S
C885 C886 1.379 . S
C886 H870 0.931 . S
C886 C880 1.383 . S
C886 C885 1.379 . S
H887 C881 0.959 . S
H888 C881 0.961 . S
H889 C881 0.960 . S
H890 C882 0.930 . S
H891 C883 0.929 . S
H892 C900 0.929 . S
H893 C902 0.930 . S
H894 C904 0.930 . S
H895 C907 0.929 . S
H896 C910 0.930 . S
H897 C912 0.960 . S
H898 C912 0.960 . S
H899 C912 0.960 . S
C900 H892 0.929 . S
C900 C901 1.377 . S
C900 C902 1.384 . S
C901 C900 1.377 . S
C901 C907 1.390 . S
C902 H893 0.930 . S
C902 C900 1.384 . S
C902 C903 1.372 . S
C903 C902 1.372 . S
C903 C904 1.400 . S
C903 C908 1.490 . S
C904 H894 0.930 . S
C904 C903 1.400 . S
C904 C907 1.386 . S
H905 C921 0.930 . S
H906 C922 0.931 . S
C907 H895 0.929 . S
C907 C901 1.390 . S
C907 C904 1.386 . S
C908 C903 1.490 . S
C908 C910 1.395 . S
C908 C911 1.403 . S
H909 C915 0.930 . S
C910 H896 0.930 . S
C910 C908 1.395 . S
C910 C913 1.403 . S
C911 C908 1.403 . S
C911 C912 1.524 . S
C911 C915 1.400 . S
C912 H897 0.960 . S
C912 H898 0.960 . S
C912 H899 0.960 . S
C912 C911 1.524 . S
C913 C910 1.403 . S
C913 C914 1.392 . S
C913 C917 1.495 . S
C914 C913 1.392 . S
C914 C915 1.385 . S
C914 C916 1.478 . S
C915 H909 0.930 . S
C915 C911 1.400 . S
C915 C914 1.385 . S
C916 C914 1.478 . S
C916 C918 1.381 . S
C916 C922 1.383 . S
C917 C913 1.495 . S
C917 H923 0.959 . S
C917 H924 0.961 . S
C917 H925 0.960 . S
C918 C916 1.381 . S
C918 C919 1.394 . S
C918 H926 0.930 . S
C919 C918 1.394 . S
C919 C920 1.383 . S
C919 H927 0.929 . S
C920 C919 1.383 . S
C920 C921 1.377 . S
C921 H905 0.930 . S
C921 C920 1.377 . S
C921 C922 1.379 . S
C922 H906 0.931 . S
C922 C916 1.383 . S
C922 C921 1.379 . S
H923 C917 0.959 . S
H924 C917 0.961 . S
H925 C917 0.960 . S
H926 C918 0.930 . S
H927 C919 0.929 . S
H928 C936 0.929 . S
H929 C938 0.930 . S
H930 C940 0.930 . S
H931 C943 0.929 . S
H932 C946 0.930 . S
H933 C948 0.960 . S
H934 C948 0.960 . S
H935 C948 0.960 . S
C936 H928 0.929 . S
C936 C937 1.377 . S
C936 C938 1.384 . S
C937 C936 1.377 . S
C937 C943 1.390 . S
C938 H929 0.930 . S
C938 C936 1.384 . S
C938 C939 1.372 . S
C939 C938 1.372 . S
C939 C940 1.400 . S
C939 C944 1.490 . S
C940 H930 0.930 . S
C940 C939 1.400 . S
C940 C943 1.386 . S
H941 C957 0.930 . S
H942 C958 0.931 . S
C943 H931 0.929 . S
C943 C937 1.390 . S
C943 C940 1.386 . S
C944 C939 1.490 . S
C944 C946 1.395 . S
C944 C947 1.403 . S
H945 C951 0.930 . S
C946 H932 0.930 . S
C946 C944 1.395 . S
C946 C949 1.403 . S
C947 C944 1.403 . S
C947 C948 1.524 . S
C947 C951 1.400 . S
C948 H933 0.960 . S
C948 H934 0.960 . S
C948 H935 0.960 . S
C948 C947 1.524 . S
C949 C946 1.403 . S
C949 C950 1.392 . S
C949 C953 1.495 . S
C950 C949 1.392 . S
C950 C951 1.385 . S
C950 C952 1.478 . S
C951 H945 0.930 . S
C951 C947 1.400 . S
C951 C950 1.385 . S
C952 C950 1.478 . S
C952 C954 1.381 . S
C952 C958 1.383 . S
C953 C949 1.495 . S
C953 H959 0.959 . S
C953 H960 0.961 . S
C953 H961 0.960 . S
C954 C952 1.381 . S
C954 C955 1.394 . S
C954 H962 0.930 . S
C955 C954 1.394 . S
C955 C956 1.383 . S
C955 H963 0.929 . S
C956 C955 1.383 . S
C956 C957 1.377 . S
C957 H941 0.930 . S
C957 C956 1.377 . S
C957 C958 1.379 . S
C958 H942 0.931 . S
C958 C952 1.383 . S
C958 C957 1.379 . S
H959 C953 0.959 . S
H960 C953 0.961 . S
H961 C953 0.960 . S
H962 C954 0.930 . S
H963 C955 0.929 . S
H964 C972 0.929 . S
H965 C974 0.930 . S
H966 C976 0.930 . S
H967 C979 0.929 . S
H968 C982 0.930 . S
H969 C984 0.960 . S
H970 C984 0.960 . S
H971 C984 0.960 . S
C972 H964 0.929 . S
C972 C973 1.377 . S
C972 C974 1.384 . S
C973 C972 1.377 . S
C973 C979 1.390 . S
C974 H965 0.930 . S
C974 C972 1.384 . S
C974 C975 1.372 . S
C975 C974 1.372 . S
C975 C976 1.400 . S
C975 C980 1.490 . S
C976 H966 0.930 . S
C976 C975 1.400 . S
C976 C979 1.386 . S
H977 C993 0.930 . S
H978 C994 0.931 . S
C979 H967 0.929 . S
C979 C973 1.390 . S
C979 C976 1.386 . S
C980 C975 1.490 . S
C980 C982 1.395 . S
C980 C983 1.403 . S
H981 C987 0.930 . S
C982 H968 0.930 . S
C982 C980 1.395 . S
C982 C985 1.403 . S
C983 C980 1.403 . S
C983 C984 1.524 . S
C983 C987 1.400 . S
C984 H969 0.960 . S
C984 H970 0.960 . S
C984 H971 0.960 . S
C984 C983 1.524 . S
C985 C982 1.403 . S
C985 C986 1.392 . S
C985 C989 1.495 . S
C986 C985 1.392 . S
C986 C987 1.385 . S
C986 C988 1.478 . S
C987 H981 0.930 . S
C987 C983 1.400 . S
C987 C986 1.385 . S
C988 C986 1.478 . S
C988 C990 1.381 . S
C988 C994 1.383 . S
C989 C985 1.495 . S
C989 H995 0.959 . S
C989 H996 0.961 . S
C989 H997 0.960 . S
C990 C988 1.381 . S
C990 C991 1.394 . S
C990 H998 0.930 . S
C991 C990 1.394 . S
C991 C992 1.383 . S
C991 H999 0.929 . S
C992 C991 1.383 . S
C992 C993 1.377 . S
C993 H977 0.930 . S
C993 C992 1.377 . S
C993 C994 1.379 . S
C994 H978 0.931 . S
C994 C988 1.383 . S
C994 C993 1.379 . S
H995 C989 0.959 . S
H996 C989 0.961 . S
H997 C989 0.960 . S
H998 C990 0.930 . S
H999 C991 0.929 . S
H1000 C1008 0.929 . S
H1001 C1010 0.930 . S
H1002 C1012 0.930 . S
H1003 C1015 0.929 . S
H1004 C1018 0.930 . S
H1005 C1020 0.960 . S
H1006 C1020 0.960 . S
H1007 C1020 0.960 . S
C1008 H1000 0.929 . S
C1008 C1009 1.377 . S
C1008 C1010 1.384 . S
C1009 C1008 1.377 . S
C1009 C1015 1.390 . S
C1010 H1001 0.930 . S
C1010 C1008 1.384 . S
C1010 C1011 1.372 . S
C1011 C1010 1.372 . S
C1011 C1012 1.400 . S
C1011 C1016 1.490 . S
C1012 H1002 0.930 . S
C1012 C1011 1.400 . S
C1012 C1015 1.386 . S
H1013 C1029 0.930 . S
H1014 C1030 0.931 . S
C1015 H1003 0.929 . S
C1015 C1009 1.390 . S
C1015 C1012 1.386 . S
C1016 C1011 1.490 . S
C1016 C1018 1.395 . S
C1016 C1019 1.403 . S
H1017 C1023 0.930 . S
C1018 H1004 0.930 . S
C1018 C1016 1.395 . S
C1018 C1021 1.403 . S
C1019 C1016 1.403 . S
C1019 C1020 1.524 . S
C1019 C1023 1.400 . S
C1020 H1005 0.960 . S
C1020 H1006 0.960 . S
C1020 H1007 0.960 . S
C1020 C1019 1.524 . S
C1021 C1018 1.403 . S
C1021 C1022 1.392 . S
C1021 C1025 1.495 . S
C1022 C1021 1.392 . S
C1022 C1023 1.385 . S
C1022 C1024 1.478 . S
C1023 H1017 0.930 . S
C1023 C1019 1.400 . S
C1023 C1022 1.385 . S
C1024 C1022 1.478 . S
C1024 C1026 1.334 1_556 S
C1024 C1030 1.383 . S
C1025 C1021 1.495 . S
C1025 H1031 0.959 . S
C1025 H1032 0.961 . S
C1025 H1033 0.960 . S
C1026 C1024 1.334 1_554 S
C1026 C1027 1.410 . S
C1026 H1034 0.965 . S
C1027 C1026 1.410 . S
C1027 C1028 1.383 1_554 S
C1027 H1035 0.929 . S
C1028 C1027 1.383 1_556 S
C1028 C1029 1.377 . S
C1029 H1013 0.930 . S
C1029 C1028 1.377 . S
C1029 C1030 1.379 . S
C1030 H1014 0.931 . S
C1030 C1024 1.383 . S
C1030 C1029 1.379 . S
H1031 C1025 0.959 . S
H1032 C1025 0.961 . S
H1033 C1025 0.960 . S
H1034 C1026 0.965 . S
H1035 C1027 0.929 . S
H1036 C1044 0.929 . S
H1037 C1046 0.930 . S
H1038 C1048 0.930 . S
H1039 C1051 0.929 . S
H1040 C1054 0.930 . S
H1041 C1056 0.960 . S
H1042 C1056 0.960 . S
H1043 C1056 0.960 . S
C1044 H1036 0.929 . S
C1044 C1045 1.377 . S
C1044 C1046 1.384 . S
C1045 C1044 1.377 . S
C1045 C1051 1.390 . S
C1046 H1037 0.930 . S
C1046 C1044 1.384 . S
C1046 C1047 1.372 . S
C1047 C1046 1.372 . S
C1047 C1048 1.400 . S
C1047 C1052 1.490 . S
C1048 H1038 0.930 . S
C1048 C1047 1.400 . S
C1048 C1051 1.386 . S
H1049 C1065 0.930 . S
H1050 C1066 0.931 . S
C1051 H1039 0.929 . S
C1051 C1045 1.390 . S
C1051 C1048 1.386 . S
C1052 C1047 1.490 . S
C1052 C1054 1.395 . S
C1052 C1055 1.403 . S
H1053 C1059 0.930 . S
C1054 H1040 0.930 . S
C1054 C1052 1.395 . S
C1054 C1057 1.403 . S
C1055 C1052 1.403 . S
C1055 C1056 1.524 . S
C1055 C1059 1.400 . S
C1056 H1041 0.960 . S
C1056 H1042 0.960 . S
C1056 H1043 0.960 . S
C1056 C1055 1.524 . S
C1057 C1054 1.403 . S
C1057 C1058 1.392 . S
C1057 C1061 1.495 . S
C1058 C1057 1.392 . S
C1058 C1059 1.385 . S
C1058 C1060 1.478 . S
C1059 H1053 0.930 . S
C1059 C1055 1.400 . S
C1059 C1058 1.385 . S
C1060 C1058 1.478 . S
C1060 C1062 1.381 . S
C1060 C1066 1.383 . S
C1061 C1057 1.495 . S
C1061 H1067 0.959 . S
C1061 H1068 0.961 . S
C1061 H1069 0.960 . S
C1062 C1060 1.381 . S
C1062 C1063 1.394 . S
C1062 H1070 0.930 . S
C1063 C1062 1.394 . S
C1063 C1064 1.383 . S
C1063 H1071 0.929 . S
C1064 C1063 1.383 . S
C1064 C1065 1.377 . S
C1065 H1049 0.930 . S
C1065 C1064 1.377 . S
C1065 C1066 1.379 . S
C1066 H1050 0.931 . S
C1066 C1060 1.383 . S
C1066 C1065 1.379 . S
H1067 C1061 0.959 . S
H1068 C1061 0.961 . S
H1069 C1061 0.960 . S
H1070 C1062 0.930 . S
H1071 C1063 0.929 . S
H1072 C1080 0.929 . S
H1073 C1082 0.930 . S
H1074 C1084 0.930 . S
H1075 C1087 0.929 . S
H1076 C1090 0.930 . S
H1077 C1092 0.960 . S
H1078 C1092 0.960 . S
H1079 C1092 0.960 . S
C1080 H1072 0.929 . S
C1080 C1081 1.377 . S
C1080 C1082 1.384 . S
C1081 C1080 1.377 . S
C1081 C1087 1.390 . S
C1082 H1073 0.930 . S
C1082 C1080 1.384 . S
C1082 C1083 1.372 . S
C1083 C1082 1.372 . S
C1083 C1084 1.400 . S
C1083 C1088 1.490 . S
C1084 H1074 0.930 . S
C1084 C1083 1.400 . S
C1084 C1087 1.386 . S
H1085 C1101 0.930 . S
H1086 C1102 0.931 . S
C1087 H1075 0.929 . S
C1087 C1081 1.390 . S
C1087 C1084 1.386 . S
C1088 C1083 1.490 . S
C1088 C1090 1.395 . S
C1088 C1091 1.403 . S
H1089 C1095 0.930 . S
C1090 H1076 0.930 . S
C1090 C1088 1.395 . S
C1090 C1093 1.403 . S
C1091 C1088 1.403 . S
C1091 C1092 1.524 . S
C1091 C1095 1.400 . S
C1092 H1077 0.960 . S
C1092 H1078 0.960 . S
C1092 H1079 0.960 . S
C1092 C1091 1.524 . S
C1093 C1090 1.403 . S
C1093 C1094 1.392 . S
C1093 C1097 1.495 . S
C1094 C1093 1.392 . S
C1094 C1095 1.385 . S
C1094 C1096 1.478 . S
C1095 H1089 0.930 . S
C1095 C1091 1.400 . S
C1095 C1094 1.385 . S
C1096 C1094 1.478 . S
C1096 C1098 1.381 . S
C1096 C1102 1.383 . S
C1097 C1093 1.495 . S
C1097 H1103 0.959 . S
C1097 H1104 0.961 . S
C1097 H1105 0.960 . S
C1098 C1096 1.381 . S
C1098 C1099 1.394 . S
C1098 H1106 0.930 . S
C1099 C1098 1.394 . S
C1099 C1100 1.383 . S
C1099 H1107 0.929 . S
C1100 C1099 1.383 . S
C1100 C1101 1.377 . S
C1101 H1085 0.930 . S
C1101 C1100 1.377 . S
C1101 C1102 1.379 . S
C1102 H1086 0.931 . S
C1102 C1096 1.383 . S
C1102 C1101 1.379 . S
H1103 C1097 0.959 . S
H1104 C1097 0.961 . S
H1105 C1097 0.960 . S
H1106 C1098 0.930 . S
H1107 C1099 0.929 . S
H1108 C1116 0.929 . S
H1109 C1118 0.930 . S
H1110 C1120 0.930 . S
H1111 C1123 0.929 . S
H1112 C1126 0.930 . S
H1113 C1128 0.960 . S
H1114 C1128 0.960 . S
H1115 C1128 0.960 . S
C1116 H1108 0.929 . S
C1116 C1117 1.377 . S
C1116 C1118 1.384 . S
C1117 C1116 1.377 . S
C1117 C1123 1.390 . S
C1118 H1109 0.930 . S
C1118 C1116 1.384 . S
C1118 C1119 1.372 . S
C1119 C1118 1.372 . S
C1119 C1120 1.400 . S
C1119 C1124 1.490 . S
C1120 H1110 0.930 . S
C1120 C1119 1.400 . S
C1120 C1123 1.386 . S
H1121 C1137 0.930 . S
H1122 C1138 0.931 . S
C1123 H1111 0.929 . S
C1123 C1117 1.390 . S
C1123 C1120 1.386 . S
C1124 C1119 1.490 . S
C1124 C1126 1.395 . S
C1124 C1127 1.403 . S
H1125 C1131 0.930 . S
C1126 H1112 0.930 . S
C1126 C1124 1.395 . S
C1126 C1129 1.403 . S
C1127 C1124 1.403 . S
C1127 C1128 1.524 . S
C1127 C1131 1.400 . S
C1128 H1113 0.960 . S
C1128 H1114 0.960 . S
C1128 H1115 0.960 . S
C1128 C1127 1.524 . S
C1129 C1126 1.403 . S
C1129 C1130 1.392 . S
C1129 C1133 1.495 . S
C1130 C1129 1.392 . S
C1130 C1131 1.385 . S
C1130 C1132 1.478 . S
C1131 H1125 0.930 . S
C1131 C1127 1.400 . S
C1131 C1130 1.385 . S
C1132 C1130 1.478 . S
C1132 C1134 1.381 . S
C1132 C1138 1.383 . S
C1133 C1129 1.495 . S
C1133 H1139 0.959 . S
C1133 H1140 0.961 . S
C1133 H1141 0.960 . S
C1134 C1132 1.381 . S
C1134 C1135 1.394 . S
C1134 H1142 0.930 . S
C1135 C1134 1.394 . S
C1135 C1136 1.383 . S
C1135 H1143 0.929 . S
C1136 C1135 1.383 . S
C1136 C1137 1.377 . S
C1137 H1121 0.930 . S
C1137 C1136 1.377 . S
C1137 C1138 1.379 . S
C1138 H1122 0.931 . S
C1138 C1132 1.383 . S
C1138 C1137 1.379 . S
H1139 C1133 0.959 . S
H1140 C1133 0.961 . S
H1141 C1133 0.960 . S
H1142 C1134 0.930 . S
H1143 C1135 0.929 . S
H1144 C1152 0.929 . S
H1145 C1154 0.930 . S
H1146 C1156 0.930 . S
H1147 C1159 0.929 . S
H1148 C1162 0.930 . S
H1149 C1164 0.960 . S
H1150 C1164 0.960 . S
H1151 C1164 0.960 . S
C1152 H1144 0.929 . S
C1152 C1153 1.377 . S
C1152 C1154 1.384 . S
C1153 C1152 1.377 . S
C1153 C1159 1.390 . S
C1154 H1145 0.930 . S
C1154 C1152 1.384 . S
C1154 C1155 1.372 . S
C1155 C1154 1.372 . S
C1155 C1156 1.400 . S
C1155 C1160 1.490 . S
C1156 H1146 0.930 . S
C1156 C1155 1.400 . S
C1156 C1159 1.386 . S
H1157 C1173 0.930 . S
H1158 C1174 0.931 . S
C1159 H1147 0.929 . S
C1159 C1153 1.390 . S
C1159 C1156 1.386 . S
C1160 C1155 1.490 . S
C1160 C1162 1.395 . S
C1160 C1163 1.403 . S
H1161 C1167 0.930 . S
C1162 H1148 0.930 . S
C1162 C1160 1.395 . S
C1162 C1165 1.403 . S
C1163 C1160 1.403 . S
C1163 C1164 1.524 . S
C1163 C1167 1.400 . S
C1164 H1149 0.960 . S
C1164 H1150 0.960 . S
C1164 H1151 0.960 . S
C1164 C1163 1.524 . S
C1165 C1162 1.403 . S
C1165 C1166 1.392 . S
C1165 C1169 1.495 . S
C1166 C1165 1.392 . S
C1166 C1167 1.385 . S
C1166 C1168 1.478 . S
C1167 H1161 0.930 . S
C1167 C1163 1.400 . S
C1167 C1166 1.385 . S
C1168 C1166 1.478 . S
C1168 C1170 1.381 . S
C1168 C1174 1.383 . S
C1169 C1165 1.495 . S
C1169 H1175 0.959 . S
C1169 H1176 0.961 . S
C1169 H1177 0.960 . S
C1170 C1168 1.381 . S
C1170 C1171 1.394 . S
C1170 H1178 0.930 . S
C1171 C1170 1.394 . S
C1171 C1172 1.383 . S
C1171 H1179 0.929 . S
C1172 C1171 1.383 . S
C1172 C1173 1.377 . S
C1173 H1157 0.930 . S
C1173 C1172 1.377 . S
C1173 C1174 1.379 . S
C1174 H1158 0.931 . S
C1174 C1168 1.383 . S
C1174 C1173 1.379 . S
H1175 C1169 0.959 . S
H1176 C1169 0.961 . S
H1177 C1169 0.960 . S
H1178 C1170 0.930 . S
H1179 C1171 0.929 . S
H1180 C1188 0.929 . S
H1181 C1190 0.930 . S
H1182 C1192 0.930 . S
H1183 C1195 0.929 . S
H1184 C1198 0.930 . S
H1185 C1200 0.960 . S
H1186 C1200 0.960 . S
H1187 C1200 0.960 . S
C1188 H1180 0.929 . S
C1188 C1189 1.377 . S
C1188 C1190 1.384 . S
C1189 C1188 1.377 . S
C1189 C1195 1.390 . S
C1190 H1181 0.930 . S
C1190 C1188 1.384 . S
C1190 C1191 1.372 . S
C1191 C1190 1.372 . S
C1191 C1192 1.400 . S
C1191 C1196 1.490 . S
C1192 H1182 0.930 . S
C1192 C1191 1.400 . S
C1192 C1195 1.386 . S
H1193 C1209 0.930 . S
H1194 C1210 0.931 . S
C1195 H1183 0.929 . S
C1195 C1189 1.390 . S
C1195 C1192 1.386 . S
C1196 C1191 1.490 . S
C1196 C1198 1.395 . S
C1196 C1199 1.403 . S
H1197 C1203 0.930 . S
C1198 H1184 0.930 . S
C1198 C1196 1.395 . S
C1198 C1201 1.403 . S
C1199 C1196 1.403 . S
C1199 C1200 1.524 . S
C1199 C1203 1.400 . S
C1200 H1185 0.960 . S
C1200 H1186 0.960 . S
C1200 H1187 0.960 . S
C1200 C1199 1.524 . S
C1201 C1198 1.403 . S
C1201 C1202 1.392 . S
C1201 C1205 1.495 . S
C1202 C1201 1.392 . S
C1202 C1203 1.385 . S
C1202 C1204 1.478 . S
C1203 H1197 0.930 . S
C1203 C1199 1.400 . S
C1203 C1202 1.385 . S
C1204 C1202 1.478 . S
C1204 C1206 1.381 . S
C1204 C1210 1.383 . S
C1205 C1201 1.495 . S
C1205 H1211 0.959 . S
C1205 H1212 0.961 . S
C1205 H1213 0.960 . S
C1206 C1204 1.381 . S
C1206 C1207 1.394 . S
C1206 H1214 0.930 . S
C1207 C1206 1.394 . S
C1207 C1208 1.383 . S
C1207 H1215 0.929 . S
C1208 C1207 1.383 . S
C1208 C1209 1.377 . S
C1209 H1193 0.930 . S
C1209 C1208 1.377 . S
C1209 C1210 1.379 . S
C1210 H1194 0.931 . S
C1210 C1204 1.383 . S
C1210 C1209 1.379 . S
H1211 C1205 0.959 . S
H1212 C1205 0.961 . S
H1213 C1205 0.960 . S
H1214 C1206 0.930 . S
H1215 C1207 0.929 . S
H1216 C1224 0.929 . S
H1217 C1226 0.930 . S
H1218 C1228 0.930 . S
H1219 C1231 0.929 . S
H1220 C1234 0.930 . S
H1221 C1236 0.960 . S
H1222 C1236 0.960 . S
H1223 C1236 0.960 . S
C1224 H1216 0.929 . S
C1224 C1225 1.377 . S
C1224 C1226 1.384 . S
C1225 C1224 1.377 . S
C1225 C1231 1.390 . S
C1226 H1217 0.930 . S
C1226 C1224 1.384 . S
C1226 C1227 1.372 . S
C1227 C1226 1.372 . S
C1227 C1228 1.400 . S
C1227 C1232 1.490 . S
C1228 H1218 0.930 . S
C1228 C1227 1.400 . S
C1228 C1231 1.386 . S
H1229 C1245 0.930 . S
H1230 C1246 0.931 . S
C1231 H1219 0.929 . S
C1231 C1225 1.390 . S
C1231 C1228 1.386 . S
C1232 C1227 1.490 . S
C1232 C1234 1.395 . S
C1232 C1235 1.403 . S
H1233 C1239 0.930 . S
C1234 H1220 0.930 . S
C1234 C1232 1.395 . S
C1234 C1237 1.403 . S
C1235 C1232 1.403 . S
C1235 C1236 1.524 . S
C1235 C1239 1.400 . S
C1236 H1221 0.960 . S
C1236 H1222 0.960 . S
C1236 H1223 0.960 . S
C1236 C1235 1.524 . S
C1237 C1234 1.403 . S
C1237 C1238 1.392 . S
C1237 C1241 1.495 . S
C1238 C1237 1.392 . S
C1238 C1239 1.385 . S
C1238 C1240 1.478 . S
C1239 H1233 0.930 . S
C1239 C1235 1.400 . S
C1239 C1238 1.385 . S
C1240 C1238 1.478 . S
C1240 C1242 1.381 . S
C1240 C1246 1.383 . S
C1241 C1237 1.495 . S
C1241 H1247 0.959 . S
C1241 H1248 0.961 . S
C1241 H1249 0.960 . S
C1242 C1240 1.381 . S
C1242 C1243 1.394 . S
C1242 H1250 0.930 . S
C1243 C1242 1.394 . S
C1243 C1244 1.383 . S
C1243 H1251 0.929 . S
C1244 C1243 1.383 . S
C1244 C1245 1.377 . S
C1245 H1229 0.930 . S
C1245 C1244 1.377 . S
C1245 C1246 1.379 . S
C1246 H1230 0.931 . S
C1246 C1240 1.383 . S
C1246 C1245 1.379 . S
H1247 C1241 0.959 . S
H1248 C1241 0.961 . S
H1249 C1241 0.960 . S
H1250 C1242 0.930 . S
H1251 C1243 0.929 . S
H1252 C1260 0.929 . S
H1253 C1262 0.930 . S
H1254 C1264 0.930 . S
H1255 C1267 0.929 . S
H1256 C1270 0.930 . S
H1257 C1272 0.960 . S
H1258 C1272 0.960 . S
H1259 C1272 0.960 . S
C1260 H1252 0.929 . S
C1260 C1261 1.377 . S
C1260 C1262 1.384 . S
C1261 C1260 1.377 . S
C1261 C1267 1.390 . S
C1262 H1253 0.930 . S
C1262 C1260 1.384 . S
C1262 C1263 1.372 . S
C1263 C1262 1.372 . S
C1263 C1264 1.400 . S
C1263 C1268 1.490 . S
C1264 H1254 0.930 . S
C1264 C1263 1.400 . S
C1264 C1267 1.386 . S
H1265 C1281 0.930 . S
H1266 C1282 0.931 . S
C1267 H1255 0.929 . S
C1267 C1261 1.390 . S
C1267 C1264 1.386 . S
C1268 C1263 1.490 . S
C1268 C1270 1.395 . S
C1268 C1271 1.403 . S
H1269 C1275 0.930 . S
C1270 H1256 0.930 . S
C1270 C1268 1.395 . S
C1270 C1273 1.403 . S
C1271 C1268 1.403 . S
C1271 C1272 1.524 . S
C1271 C1275 1.400 . S
C1272 H1257 0.960 . S
C1272 H1258 0.960 . S
C1272 H1259 0.960 . S
C1272 C1271 1.524 . S
C1273 C1270 1.403 . S
C1273 C1274 1.392 . S
C1273 C1277 1.495 . S
C1274 C1273 1.392 . S
C1274 C1275 1.385 . S
C1274 C1276 1.478 . S
C1275 H1269 0.930 . S
C1275 C1271 1.400 . S
C1275 C1274 1.385 . S
C1276 C1274 1.478 . S
C1276 C1278 1.381 . S
C1276 C1282 1.383 . S
C1277 C1273 1.495 . S
C1277 H1283 0.959 . S
C1277 H1284 0.961 . S
C1277 H1285 0.960 . S
C1278 C1276 1.381 . S
C1278 C1279 1.394 . S
C1278 H1286 0.930 . S
C1279 C1278 1.394 . S
C1279 C1280 1.383 . S
C1279 H1287 0.929 . S
C1280 C1279 1.383 . S
C1280 C1281 1.377 . S
C1281 H1265 0.930 . S
C1281 C1280 1.377 . S
C1281 C1282 1.379 . S
C1282 H1266 0.931 . S
C1282 C1276 1.383 . S
C1282 C1281 1.379 . S
H1283 C1277 0.959 . S
H1284 C1277 0.961 . S
H1285 C1277 0.960 . S
H1286 C1278 0.930 . S
H1287 C1279 0.929 . S
H1288 C1296 0.929 . S
H1289 C1298 0.930 . S
H1290 C1300 0.930 . S
H1291 C1303 0.929 . S
H1292 C1306 0.930 . S
H1293 C1308 0.960 . S
H1294 C1308 0.960 . S
H1295 C1308 0.960 . S
C1296 H1288 0.929 . S
C1296 C1297 1.377 . S
C1296 C1298 1.384 . S
C1297 C1296 1.377 . S
C1297 C1303 1.390 . S
C1298 H1289 0.930 . S
C1298 C1296 1.384 . S
C1298 C1299 1.372 . S
C1299 C1298 1.372 . S
C1299 C1300 1.400 . S
C1299 C1304 1.490 . S
C1300 H1290 0.930 . S
C1300 C1299 1.400 . S
C1300 C1303 1.386 . S
H1301 C1317 0.930 . S
H1302 C1318 0.931 . S
C1303 H1291 0.929 . S
C1303 C1297 1.390 . S
C1303 C1300 1.386 . S
C1304 C1299 1.490 . S
C1304 C1306 1.395 . S
C1304 C1307 1.403 . S
H1305 C1311 0.930 . S
C1306 H1292 0.930 . S
C1306 C1304 1.395 . S
C1306 C1309 1.403 . S
C1307 C1304 1.403 . S
C1307 C1308 1.524 . S
C1307 C1311 1.400 . S
C1308 H1293 0.960 . S
C1308 H1294 0.960 . S
C1308 H1295 0.960 . S
C1308 C1307 1.524 . S
C1309 C1306 1.403 . S
C1309 C1310 1.392 . S
C1309 C1313 1.495 . S
C1310 C1309 1.392 . S
C1310 C1311 1.385 . S
C1310 C1312 1.478 . S
C1311 H1305 0.930 . S
C1311 C1307 1.400 . S
C1311 C1310 1.385 . S
C1312 C1310 1.478 . S
C1312 C1314 1.381 . S
C1312 C1318 1.383 . S
C1313 C1309 1.495 . S
C1313 H1319 0.959 . S
C1313 H1320 0.961 . S
C1313 H1321 0.960 . S
C1314 C1312 1.381 . S
C1314 C1315 1.394 . S
C1314 H1322 0.930 . S
C1315 C1314 1.394 . S
C1315 C1316 1.383 . S
C1315 H1323 0.929 . S
C1316 C1315 1.383 . S
C1316 C1317 1.377 . S
C1317 H1301 0.930 . S
C1317 C1316 1.377 . S
C1317 C1318 1.379 . S
C1318 H1302 0.931 . S
C1318 C1312 1.383 . S
C1318 C1317 1.379 . S
H1319 C1313 0.959 . S
H1320 C1313 0.961 . S
H1321 C1313 0.960 . S
H1322 C1314 0.930 . S
H1323 C1315 0.929 . S
H1324 C1332 0.929 . S
H1325 C1334 0.930 . S
H1326 C1336 0.930 . S
H1327 C1339 0.929 . S
H1328 C1342 0.930 . S
H1329 C1344 0.960 . S
H1330 C1344 0.960 . S
H1331 C1344 0.960 . S
C1332 H1324 0.929 . S
C1332 C1333 1.377 . S
C1332 C1334 1.384 . S
C1333 C1332 1.377 . S
C1333 C1339 1.390 . S
C1334 H1325 0.930 . S
C1334 C1332 1.384 . S
C1334 C1335 1.372 . S
C1335 C1334 1.372 . S
C1335 C1336 1.400 . S
C1335 C1340 1.490 . S
C1336 H1326 0.930 . S
C1336 C1335 1.400 . S
C1336 C1339 1.386 . S
H1337 C1353 0.930 . S
H1338 C1354 0.931 . S
C1339 H1327 0.929 . S
C1339 C1333 1.390 . S
C1339 C1336 1.386 . S
C1340 C1335 1.490 . S
C1340 C1342 1.395 . S
C1340 C1343 1.403 . S
H1341 C1347 0.930 . S
C1342 H1328 0.930 . S
C1342 C1340 1.395 . S
C1342 C1345 1.403 . S
C1343 C1340 1.403 . S
C1343 C1344 1.524 . S
C1343 C1347 1.400 . S
C1344 H1329 0.960 . S
C1344 H1330 0.960 . S
C1344 H1331 0.960 . S
C1344 C1343 1.524 . S
C1345 C1342 1.403 . S
C1345 C1346 1.392 . S
C1345 C1349 1.495 . S
C1346 C1345 1.392 . S
C1346 C1347 1.385 . S
C1346 C1348 1.478 . S
C1347 H1341 0.930 . S
C1347 C1343 1.400 . S
C1347 C1346 1.385 . S
C1348 C1346 1.478 . S
C1348 C1350 1.381 . S
C1348 C1354 1.383 . S
C1349 C1345 1.495 . S
C1349 H1355 0.959 . S
C1349 H1356 0.961 . S
C1349 H1357 0.960 . S
C1350 C1348 1.381 . S
C1350 C1351 1.394 . S
C1350 H1358 0.930 . S
C1351 C1350 1.394 . S
C1351 C1352 1.383 . S
C1351 H1359 0.929 . S
C1352 C1351 1.383 . S
C1352 C1353 1.377 . S
C1353 H1337 0.930 . S
C1353 C1352 1.377 . S
C1353 C1354 1.379 . S
C1354 H1338 0.931 . S
C1354 C1348 1.383 . S
C1354 C1353 1.379 . S
H1355 C1349 0.959 . S
H1356 C1349 0.961 . S
H1357 C1349 0.960 . S
H1358 C1350 0.930 . S
H1359 C1351 0.929 . S
H1360 C1368 0.929 . S
H1361 C1370 0.930 . S
H1362 C1372 0.930 . S
H1363 C1375 0.929 . S
H1364 C1378 0.930 . S
H1365 C1380 0.960 . S
H1366 C1380 0.960 . S
H1367 C1380 0.960 . S
C1368 H1360 0.929 . S
C1368 C1369 1.377 . S
C1368 C1370 1.384 . S
C1369 C1368 1.377 . S
C1369 C1375 1.390 . S
C1370 H1361 0.930 . S
C1370 C1368 1.384 . S
C1370 C1371 1.372 . S
C1371 C1370 1.372 . S
C1371 C1372 1.400 . S
C1371 C1376 1.490 . S
C1372 H1362 0.930 . S
C1372 C1371 1.400 . S
C1372 C1375 1.386 . S
H1373 C1389 0.930 . S
H1374 C1390 0.931 . S
C1375 H1363 0.929 . S
C1375 C1369 1.390 . S
C1375 C1372 1.386 . S
C1376 C1371 1.490 . S
C1376 C1378 1.395 . S
C1376 C1379 1.403 . S
H1377 C1383 0.930 . S
C1378 H1364 0.930 . S
C1378 C1376 1.395 . S
C1378 C1381 1.403 . S
C1379 C1376 1.403 . S
C1379 C1380 1.524 . S
C1379 C1383 1.400 . S
C1380 H1365 0.960 . S
C1380 H1366 0.960 . S
C1380 H1367 0.960 . S
C1380 C1379 1.524 . S
C1381 C1378 1.403 . S
C1381 C1382 1.392 . S
C1381 C1385 1.495 . S
C1382 C1381 1.392 . S
C1382 C1383 1.385 . S
C1382 C1384 1.478 . S
C1383 H1377 0.930 . S
C1383 C1379 1.400 . S
C1383 C1382 1.385 . S
C1384 C1382 1.478 . S
C1384 C1386 1.381 . S
C1384 C1390 1.383 . S
C1385 C1381 1.495 . S
C1385 H1391 0.959 . S
C1385 H1392 0.961 . S
C1385 H1393 0.960 . S
C1386 C1384 1.381 . S
C1386 C1387 1.394 . S
C1386 H1394 0.930 . S
C1387 C1386 1.394 . S
C1387 C1388 1.383 . S
C1387 H1395 0.929 . S
C1388 C1387 1.383 . S
C1388 C1389 1.377 . S
C1389 H1373 0.930 . S
C1389 C1388 1.377 . S
C1389 C1390 1.379 . S
C1390 H1374 0.931 . S
C1390 C1384 1.383 . S
C1390 C1389 1.379 . S
H1391 C1385 0.959 . S
H1392 C1385 0.961 . S
H1393 C1385 0.960 . S
H1394 C1386 0.930 . S
H1395 C1387 0.929 . S
H1396 C1404 0.929 . S
H1397 C1406 0.930 . S
H1398 C1408 0.930 . S
H1399 C1411 0.929 . S
H1400 C1414 0.930 . S
H1401 C1416 0.960 . S
H1402 C1416 0.960 . S
H1403 C1416 0.960 . S
C1404 H1396 0.929 . S
C1404 C1405 1.377 . S
C1404 C1406 1.384 . S
C1405 C1404 1.377 . S
C1405 C1411 1.390 . S
C1406 H1397 0.930 . S
C1406 C1404 1.384 . S
C1406 C1407 1.372 . S
C1407 C1406 1.372 . S
C1407 C1408 1.400 . S
C1407 C1412 1.490 . S
C1408 H1398 0.930 . S
C1408 C1407 1.400 . S
C1408 C1411 1.386 . S
H1409 C1425 0.930 . S
H1410 C1426 0.931 . S
C1411 H1399 0.929 . S
C1411 C1405 1.390 . S
C1411 C1408 1.386 . S
C1412 C1407 1.490 . S
C1412 C1414 1.395 . S
C1412 C1415 1.403 . S
H1413 C1419 0.930 . S
C1414 H1400 0.930 . S
C1414 C1412 1.395 . S
C1414 C1417 1.403 . S
C1415 C1412 1.403 . S
C1415 C1416 1.524 . S
C1415 C1419 1.400 . S
C1416 H1401 0.960 . S
C1416 H1402 0.960 . S
C1416 H1403 0.960 . S
C1416 C1415 1.524 . S
C1417 C1414 1.403 . S
C1417 C1418 1.392 . S
C1417 C1421 1.495 . S
C1418 C1417 1.392 . S
C1418 C1419 1.385 . S
C1418 C1420 1.478 . S
C1419 H1413 0.930 . S
C1419 C1415 1.400 . S
C1419 C1418 1.385 . S
C1420 C1418 1.478 . S
C1420 C1422 1.381 . S
C1420 C1426 1.383 . S
C1421 C1417 1.495 . S
C1421 H1427 0.959 . S
C1421 H1428 0.961 . S
C1421 H1429 0.960 . S
C1422 C1420 1.381 . S
C1422 C1423 1.394 . S
C1422 H1430 0.930 . S
C1423 C1422 1.394 . S
C1423 C1424 1.383 . S
C1423 H1431 0.929 . S
C1424 C1423 1.383 . S
C1424 C1425 1.377 . S
C1425 H1409 0.930 . S
C1425 C1424 1.377 . S
C1425 C1426 1.379 . S
C1426 H1410 0.931 . S
C1426 C1420 1.383 . S
C1426 C1425 1.379 . S
H1427 C1421 0.959 . S
H1428 C1421 0.961 . S
H1429 C1421 0.960 . S
H1430 C1422 0.930 . S
H1431 C1423 0.929 . S
H1432 C1440 0.929 . S
H1433 C1442 0.930 . S
H1434 C1444 0.930 . S
H1435 C1447 0.929 . S
H1436 C1450 0.930 . S
H1437 C1452 0.960 . S
H1438 C1452 0.960 . S
H1439 C1452 0.960 . S
C1440 H1432 0.929 . S
C1440 C1441 1.377 . S
C1440 C1442 1.384 . S
C1441 C1440 1.377 . S
C1441 C1447 1.390 . S
C1442 H1433 0.930 . S
C1442 C1440 1.384 . S
C1442 C1443 1.372 . S
C1443 C1442 1.372 . S
C1443 C1444 1.400 . S
C1443 C1448 1.490 . S
C1444 H1434 0.930 . S
C1444 C1443 1.400 . S
C1444 C1447 1.386 . S
H1445 C1461 0.930 . S
H1446 C1462 0.931 . S
C1447 H1435 0.929 . S
C1447 C1441 1.390 . S
C1447 C1444 1.386 . S
C1448 C1443 1.490 . S
C1448 C1450 1.395 . S
C1448 C1451 1.403 . S
H1449 C1455 0.930 . S
C1450 H1436 0.930 . S
C1450 C1448 1.395 . S
C1450 C1453 1.403 . S
C1451 C1448 1.403 . S
C1451 C1452 1.524 . S
C1451 C1455 1.400 . S
C1452 H1437 0.960 . S
C1452 H1438 0.960 . S
C1452 H1439 0.960 . S
C1452 C1451 1.524 . S
C1453 C1450 1.403 . S
C1453 C1454 1.392 . S
C1453 C1457 1.495 . S
C1454 C1453 1.392 . S
C1454 C1455 1.385 . S
C1454 C1456 1.478 . S
C1455 H1449 0.930 . S
C1455 C1451 1.400 . S
C1455 C1454 1.385 . S
C1456 C1454 1.478 . S
C1456 C1458 1.381 . S
C1456 C1462 1.383 . S
C1457 C1453 1.495 . S
C1457 H1463 0.959 . S
C1457 H1464 0.961 . S
C1457 H1465 0.960 . S
C1458 C1456 1.381 . S
C1458 C1459 1.394 . S
C1458 H1466 0.930 . S
C1459 C1458 1.394 . S
C1459 C1460 1.383 . S
C1459 H1467 0.929 . S
C1460 C1459 1.383 . S
C1460 C1461 1.377 . S
C1461 H1445 0.930 . S
C1461 C1460 1.377 . S
C1461 C1462 1.379 . S
C1462 H1446 0.931 . S
C1462 C1456 1.383 . S
C1462 C1461 1.379 . S
H1463 C1457 0.959 . S
H1464 C1457 0.961 . S
H1465 C1457 0.960 . S
H1466 C1458 0.930 . S
H1467 C1459 0.929 . S
H1468 C1476 0.929 . S
H1469 C1478 0.930 . S
H1470 C1480 0.930 . S
H1471 C1483 0.929 . S
H1472 C1486 0.930 . S
H1473 C1488 0.960 . S
H1474 C1488 0.960 . S
H1475 C1488 0.960 . S
C1476 H1468 0.929 . S
C1476 C1477 1.377 . S
C1476 C1478 1.384 . S
C1477 C1476 1.377 . S
C1477 C1483 1.390 . S
C1478 H1469 0.930 . S
C1478 C1476 1.384 . S
C1478 C1479 1.372 . S
C1479 C1478 1.372 . S
C1479 C1480 1.400 . S
C1479 C1484 1.490 . S
C1480 H1470 0.930 . S
C1480 C1479 1.400 . S
C1480 C1483 1.386 . S
H1481 C1497 0.930 . S
H1482 C1498 0.931 . S
C1483 H1471 0.929 . S
C1483 C1477 1.390 . S
C1483 C1480 1.386 . S
C1484 C1479 1.490 . S
C1484 C1486 1.395 . S
C1484 C1487 1.403 . S
H1485 C1491 0.930 . S
C1486 H1472 0.930 . S
C1486 C1484 1.395 . S
C1486 C1489 1.403 . S
C1487 C1484 1.403 . S
C1487 C1488 1.524 . S
C1487 C1491 1.400 . S
C1488 H1473 0.960 . S
C1488 H1474 0.960 . S
C1488 H1475 0.960 . S
C1488 C1487 1.524 . S
C1489 C1486 1.403 . S
C1489 C1490 1.392 . S
C1489 C1493 1.495 . S
C1490 C1489 1.392 . S
C1490 C1491 1.385 . S
C1490 C1492 1.478 . S
C1491 H1485 0.930 . S
C1491 C1487 1.400 . S
C1491 C1490 1.385 . S
C1492 C1490 1.478 . S
C1492 C1494 1.381 . S
C1492 C1498 1.383 . S
C1493 C1489 1.495 . S
C1493 H1499 0.959 . S
C1493 H1500 0.961 . S
C1493 H1501 0.960 . S
C1494 C1492 1.381 . S
C1494 C1495 1.394 . S
C1494 H1502 0.930 . S
C1495 C1494 1.394 . S
C1495 C1496 1.383 . S
C1495 H1503 0.929 . S
C1496 C1495 1.383 . S
C1496 C1497 1.377 . S
C1497 H1481 0.930 . S
C1497 C1496 1.377 . S
C1497 C1498 1.379 . S
C1498 H1482 0.931 . S
C1498 C1492 1.383 . S
C1498 C1497 1.379 . S
H1499 C1493 0.959 . S
H1500 C1493 0.961 . S
H1501 C1493 0.960 . S
H1502 C1494 0.930 . S
H1503 C1495 0.929 . S
H1504 C1512 0.929 . S
H1505 C1514 0.930 . S
H1506 C1516 0.930 . S
H1507 C1519 0.929 . S
H1508 C1522 0.930 . S
H1509 C1524 0.960 . S
H1510 C1524 0.960 . S
H1511 C1524 0.960 . S
C1512 H1504 0.929 . S
C1512 C1513 1.377 . S
C1512 C1514 1.384 . S
C1513 C1512 1.377 . S
C1513 C1519 1.390 . S
C1514 H1505 0.930 . S
C1514 C1512 1.384 . S
C1514 C1515 1.372 . S
C1515 C1514 1.372 . S
C1515 C1516 1.400 . S
C1515 C1520 1.490 . S
C1516 H1506 0.930 . S
C1516 C1515 1.400 . S
C1516 C1519 1.386 . S
H1517 C1533 0.930 . S
H1518 C1534 0.931 . S
C1519 H1507 0.929 . S
C1519 C1513 1.390 . S
C1519 C1516 1.386 . S
C1520 C1515 1.490 . S
C1520 C1522 1.395 . S
C1520 C1523 1.403 . S
H1521 C1527 0.930 . S
C1522 H1508 0.930 . S
C1522 C1520 1.395 . S
C1522 C1525 1.403 . S
C1523 C1520 1.403 . S
C1523 C1524 1.524 . S
C1523 C1527 1.400 . S
C1524 H1509 0.960 . S
C1524 H1510 0.960 . S
C1524 H1511 0.960 . S
C1524 C1523 1.524 . S
C1525 C1522 1.403 . S
C1525 C1526 1.392 . S
C1525 C1529 1.495 . S
C1526 C1525 1.392 . S
C1526 C1527 1.385 . S
C1526 C1528 1.478 . S
C1527 H1521 0.930 . S
C1527 C1523 1.400 . S
C1527 C1526 1.385 . S
C1528 C1526 1.478 . S
C1528 C1530 1.381 . S
C1528 C1534 1.383 . S
C1529 C1525 1.495 . S
C1529 H1535 0.959 . S
C1529 H1536 0.961 . S
C1529 H1537 0.960 . S
C1530 C1528 1.381 . S
C1530 C1531 1.394 . S
C1530 H1538 0.930 . S
C1531 C1530 1.394 . S
C1531 C1532 1.383 . S
C1531 H1539 0.929 . S
C1532 C1531 1.383 . S
C1532 C1533 1.377 . S
C1533 H1517 0.930 . S
C1533 C1532 1.377 . S
C1533 C1534 1.379 . S
C1534 H1518 0.931 . S
C1534 C1528 1.383 . S
C1534 C1533 1.379 . S
H1535 C1529 0.959 . S
H1536 C1529 0.961 . S
H1537 C1529 0.960 . S
H1538 C1530 0.930 . S
H1539 C1531 0.929 . S
H1540 C1548 0.929 . S
H1541 C1550 0.930 . S
H1542 C1552 0.930 . S
H1543 C1555 0.929 . S
H1544 C1558 0.930 . S
H1545 C1560 0.960 . S
H1546 C1560 0.960 . S
H1547 C1560 0.960 . S
C1548 H1540 0.929 . S
C1548 C1549 1.377 . S
C1548 C1550 1.384 . S
C1549 C1548 1.377 . S
C1549 C1555 1.390 . S
C1550 H1541 0.930 . S
C1550 C1548 1.384 . S
C1550 C1551 1.372 . S
C1551 C1550 1.372 . S
C1551 C1552 1.400 . S
C1551 C1556 1.490 . S
C1552 H1542 0.930 . S
C1552 C1551 1.400 . S
C1552 C1555 1.386 . S
H1553 C1569 0.930 . S
H1554 C1570 0.931 . S
C1555 H1543 0.929 . S
C1555 C1549 1.390 . S
C1555 C1552 1.386 . S
C1556 C1551 1.490 . S
C1556 C1558 1.395 . S
C1556 C1559 1.403 . S
H1557 C1563 0.930 . S
C1558 H1544 0.930 . S
C1558 C1556 1.395 . S
C1558 C1561 1.403 . S
C1559 C1556 1.403 . S
C1559 C1560 1.524 . S
C1559 C1563 1.400 . S
C1560 H1545 0.960 . S
C1560 H1546 0.960 . S
C1560 H1547 0.960 . S
C1560 C1559 1.524 . S
C1561 C1558 1.403 . S
C1561 C1562 1.392 . S
C1561 C1565 1.495 . S
C1562 C1561 1.392 . S
C1562 C1563 1.385 . S
C1562 C1564 1.478 . S
C1563 H1557 0.930 . S
C1563 C1559 1.400 . S
C1563 C1562 1.385 . S
C1564 C1562 1.478 . S
C1564 C1566 1.381 . S
C1564 C1570 1.383 . S
C1565 C1561 1.495 . S
C1565 H1571 0.959 . S
C1565 H1572 0.961 . S
C1565 H1573 0.960 . S
C1566 C1564 1.381 . S
C1566 C1567 1.394 . S
C1566 H1574 0.930 . S
C1567 C1566 1.394 . S
C1567 C1568 1.383 . S
C1567 H1575 0.929 . S
C1568 C1567 1.383 . S
C1568 C1569 1.377 . S
C1569 H1553 0.930 . S
C1569 C1568 1.377 . S
C1569 C1570 1.379 . S
C1570 H1554 0.931 . S
C1570 C1564 1.383 . S
C1570 C1569 1.379 . S
H1571 C1565 0.959 . S
H1572 C1565 0.961 . S
H1573 C1565 0.960 . S
H1574 C1566 0.930 . S
H1575 C1567 0.929 . S
H1576 C1584 0.929 . S
H1577 C1586 0.930 . S
H1578 C1588 0.930 . S
H1579 C1591 0.929 . S
H1580 C1594 0.930 . S
H1581 C1596 0.960 . S
H1582 C1596 0.960 . S
H1583 C1596 0.960 . S
C1584 H1576 0.929 . S
C1584 C1585 1.377 . S
C1584 C1586 1.384 . S
C1585 C1584 1.377 . S
C1585 C1591 1.390 . S
C1586 H1577 0.930 . S
C1586 C1584 1.384 . S
C1586 C1587 1.372 . S
C1587 C1586 1.372 . S
C1587 C1588 1.400 . S
C1587 C1592 1.490 . S
C1588 H1578 0.930 . S
C1588 C1587 1.400 . S
C1588 C1591 1.386 . S
H1589 C1605 0.930 . S
H1590 C1606 0.931 . S
C1591 H1579 0.929 . S
C1591 C1585 1.390 . S
C1591 C1588 1.386 . S
C1592 C1587 1.490 . S
C1592 C1594 1.395 . S
C1592 C1595 1.403 . S
H1593 C1599 0.930 . S
C1594 H1580 0.930 . S
C1594 C1592 1.395 . S
C1594 C1597 1.403 . S
C1595 C1592 1.403 . S
C1595 C1596 1.524 . S
C1595 C1599 1.400 . S
C1596 H1581 0.960 . S
C1596 H1582 0.960 . S
C1596 H1583 0.960 . S
C1596 C1595 1.524 . S
C1597 C1594 1.403 . S
C1597 C1598 1.392 . S
C1597 C1601 1.495 . S
C1598 C1597 1.392 . S
C1598 C1599 1.385 . S
C1598 C1600 1.478 . S
C1599 H1593 0.930 . S
C1599 C1595 1.400 . S
C1599 C1598 1.385 . S
C1600 C1598 1.478 . S
C1600 C1602 1.381 . S
C1600 C1606 1.383 . S
C1601 C1597 1.495 . S
C1601 H1607 0.959 . S
C1601 H1608 0.961 . S
C1601 H1609 0.960 . S
C1602 C1600 1.381 . S
C1602 C1603 1.394 . S
C1602 H1610 0.930 . S
C1603 C1602 1.394 . S
C1603 C1604 1.383 . S
C1603 H1611 0.929 . S
C1604 C1603 1.383 . S
C1604 C1605 1.377 . S
C1605 H1589 0.930 . S
C1605 C1604 1.377 . S
C1605 C1606 1.379 . S
C1606 H1590 0.931 . S
C1606 C1600 1.383 . S
C1606 C1605 1.379 . S
H1607 C1601 0.959 . S
H1608 C1601 0.961 . S
H1609 C1601 0.960 . S
H1610 C1602 0.930 . S
H1611 C1603 0.929 . S
H1612 C1620 0.929 . S
H1613 C1622 0.930 . S
H1614 C1624 0.930 . S
H1615 C1627 0.929 . S
H1616 C1630 0.930 . S
H1617 C1632 0.960 . S
H1618 C1632 0.960 . S
H1619 C1632 0.960 . S
C1620 H1612 0.929 . S
C1620 C1621 1.377 . S
C1620 C1622 1.384 . S
C1621 C1620 1.377 . S
C1621 C1627 1.390 . S
C1622 H1613 0.930 . S
C1622 C1620 1.384 . S
C1622 C1623 1.372 . S
C1623 C1622 1.372 . S
C1623 C1624 1.400 . S
C1623 C1628 1.490 . S
C1624 H1614 0.930 . S
C1624 C1623 1.400 . S
C1624 C1627 1.386 . S
H1625 C1641 0.930 . S
H1626 C1642 0.931 . S
C1627 H1615 0.929 . S
C1627 C1621 1.390 . S
C1627 C1624 1.386 . S
C1628 C1623 1.490 . S
C1628 C1630 1.395 . S
C1628 C1631 1.403 . S
H1629 C1635 0.930 . S
C1630 H1616 0.930 . S
C1630 C1628 1.395 . S
C1630 C1633 1.403 . S
C1631 C1628 1.403 . S
C1631 C1632 1.524 . S
C1631 C1635 1.400 . S
C1632 H1617 0.960 . S
C1632 H1618 0.960 . S
C1632 H1619 0.960 . S
C1632 C1631 1.524 . S
C1633 C1630 1.403 . S
C1633 C1634 1.392 . S
C1633 C1637 1.495 . S
C1634 C1633 1.392 . S
C1634 C1635 1.385 . S
C1634 C1636 1.478 . S
C1635 H1629 0.930 . S
C1635 C1631 1.400 . S
C1635 C1634 1.385 . S
C1636 C1634 1.478 . S
C1636 C1638 1.381 . S
C1636 C1642 1.383 . S
C1637 C1633 1.495 . S
C1637 H1643 0.959 . S
C1637 H1644 0.961 . S
C1637 H1645 0.960 . S
C1638 C1636 1.381 . S
C1638 C1639 1.394 . S
C1638 H1646 0.930 . S
C1639 C1638 1.394 . S
C1639 C1640 1.383 . S
C1639 H1647 0.929 . S
C1640 C1639 1.383 . S
C1640 C1641 1.377 . S
C1641 H1625 0.930 . S
C1641 C1640 1.377 . S
C1641 C1642 1.379 . S
C1642 H1626 0.931 . S
C1642 C1636 1.383 . S
C1642 C1641 1.379 . S
H1643 C1637 0.959 . S
H1644 C1637 0.961 . S
H1645 C1637 0.960 . S
H1646 C1638 0.930 . S
H1647 C1639 0.929 . S
C524 C405 1.222 . S
C505 C36 1.220 . S
C560 C425 1.271 . S
C541 C93 1.268 . S
C596 C439 1.279 . S
C577 C126 1.302 . S
C613 C165 1.309 . S
C632 C397 1.317 . S
C649 C222 1.352 . S
C668 C391 1.372 . S
C685 C261 1.327 . S
C704 C411 1.309 . S
C740 C419 1.272 . S
C721 C318 1.242 . S
C776 C433 1.326 . S
C757 C381 1.329 . S
C793 C132 1.304 . S
C812 C461 1.346 . S
C848 C475 1.272 . S
C829 C189 1.248 . S
C865 C30 1.337 . S
C884 C495 1.320 . S
C920 C447 1.386 . S
C901 C69 1.343 . S
C937 C324 1.315 . S
C956 C453 1.320 . S
C973 C357 1.284 . S
C992 C467 1.291 . S
C1028 C481 1.267 1_556 S
C1009 C228 1.269 . S
C1045 C285 1.226 . S
C1064 C489 1.230 . S
C1100 C420 1.723 . S
C1081 C45 1.715 . S
C1136 C434 1.720 . S
C1117 C84 1.723 . S
C1153 C117 1.639 . S
C1172 C392 1.649 . S
C1189 C174 1.453 . S
C1208 C409 1.474 . S
C1225 C213 1.389 . S
C1244 C437 1.388 . S
C1280 C395 1.358 . S
C1261 C270 1.348 . S
C1316 C406 1.603 . S
C1297 C309 1.600 . S
C1352 C423 1.456 . S
C1333 C372 1.460 . S
C1388 C479 1.464 . S
C1369 C141 1.444 . S
C1424 C490 1.618 . S
C1405 C180 1.607 . S
C1441 C21 1.362 . S
C1460 C451 1.359 . S
C1496 C465 1.385 . S
C1477 C78 1.376 . S
C1532 C493 1.471 . S
C1513 C333 1.471 . S
C1549 C366 1.618 . S
C1568 C448 1.659 . S
C1604 C462 1.716 . S
C1585 C237 1.717 . S
C1640 C476 1.722 . S
C1621 C276 1.724 . S
