# Generated by pormake.
# Topology tsx, (6,3)-cn, num edge types: 1
# Building blocks:
#     Node 0, Type 0, BuildingBlock: CIFDUS_clean_sbu_1, # of connection points: 6
#     Node 1, Type 0, BuildingBlock: CIFDUS_clean_sbu_1, # of connection points: 6
#     Node 2, Type 1, BuildingBlock: KAKCAD_clean_linker_0, # of connection points: 3
#     Node 3, Type 1, BuildingBlock: KAKCAD_clean_linker_0, # of connection points: 3
#     Node 4, Type 1, BuildingBlock: KAKCAD_clean_linker_0, # of connection points: 3
#     Node 5, Type 1, BuildingBlock: KAKCAD_clean_linker_0, # of connection points: 3
#     Edge 6, Type (0, 1), BuildingBlock: EZIPEK_clean_linker_0, # of connection points: 2
#     Edge 7, Type (0, 1), BuildingBlock: EZIPEK_clean_linker_0, # of connection points: 2
#     Edge 8, Type (0, 1), BuildingBlock: EZIPEK_clean_linker_0, # of connection points: 2
#     Edge 9, Type (0, 1), BuildingBlock: EZIPEK_clean_linker_0, # of connection points: 2
#     Edge 10, Type (0, 1), BuildingBlock: EZIPEK_clean_linker_0, # of connection points: 2
#     Edge 11, Type (0, 1), BuildingBlock: EZIPEK_clean_linker_0, # of connection points: 2
#     Edge 12, Type (0, 1), BuildingBlock: EZIPEK_clean_linker_0, # of connection points: 2
#     Edge 13, Type (0, 1), BuildingBlock: EZIPEK_clean_linker_0, # of connection points: 2
#     Edge 14, Type (0, 1), BuildingBlock: EZIPEK_clean_linker_0, # of connection points: 2
#     Edge 15, Type (0, 1), BuildingBlock: EZIPEK_clean_linker_0, # of connection points: 2
#     Edge 16, Type (0, 1), BuildingBlock: EZIPEK_clean_linker_0, # of connection points: 2
#     Edge 17, Type (0, 1), BuildingBlock: EZIPEK_clean_linker_0, # of connection points: 2
# Relax obj value: 0.127
# Max RMSD: 0.155
# Mean RMSD: 0.118
data_MOF--net-tsx--node1-CIFDUS_clean_sbu_1--node2-KAKCAD_clean_linker_0--edge1-EZIPEK_clean_linker_0
_symmetry_space_group_name_H-M    P1
_symmetry_Int_Tables_number       1
_symmetry_cell_setting            triclinic
loop_
_symmetry_equiv_pos_as_xyz
'x, y, z'
_cell_length_a     17.174126
_cell_length_b     21.191216
_cell_length_c     35.556845
_cell_angle_alpha  97.051094
_cell_angle_beta   91.758868
_cell_angle_gamma 91.043707
loop_
_atom_site_label
_atom_site_type_symbol
_atom_site_fract_x
_atom_site_fract_y
_atom_site_fract_z
_atom_type_partial_charge
O0 O 0.99591 0.11627 0.00848 0.0
Mn1 Mn 0.05857 0.03099 -0.00031 0.0
O2 O 0.88359 0.09794 0.97523 0.0
Mn3 Mn 0.91093 0.01859 0.95441 0.0
O4 O 0.12099 0.94543 0.99251 0.0
O5 O 0.15678 0.08516 0.01117 0.0
Mn6 Mn 0.22408 0.04442 0.037 0.0
O7 O 0.05099 0.02112 0.05745 0.0
O8 O 0.24662 0.97007 0.00727 0.0
O9 O 0.07488 0.04327 0.94241 0.0
O10 O 0.96374 0.01551 0.91038 0.0
O11 O 0.2721 0.12089 0.03167 0.0
O12 O 0.17484 0.03367 0.08147 0.0
C13 C 0.89317 0.93906 0.98084 0.0
C14 C 0.92886 0.13413 -0.00276 0.0
C15 C 0.19307 0.93002 0.99483 0.0
C16 C 0.20715 0.13203 0.01455 0.0
C17 C 0.1021 0.02338 0.08501 0.0
C18 C 0.03462 0.03268 0.91124 0.0
O19 O 0.95726 0.97457 0.98818 0.0
O20 O 0.84133 0.95675 0.95718 0.0
O21 O 0.5005 0.62048 0.50446 0.0
Mn22 Mn 0.55541 0.53173 0.49826 0.0
O23 O 0.37603 0.60448 0.4843 0.0
Mn24 Mn 0.39381 0.52483 0.45995 0.0
O25 O 0.61048 0.44232 0.49233 0.0
O26 O 0.65807 0.58167 0.50661 0.0
Mn27 Mn 0.7231 0.5375 0.53171 0.0
O28 O 0.55041 0.529 0.55675 0.0
O29 O 0.73868 0.46156 0.5024 0.0
O30 O 0.5642 0.53396 0.43956 0.0
O31 O 0.44234 0.5238 0.41445 0.0
O32 O 0.7771 0.61067 0.52511 0.0
O33 O 0.6764 0.5299 0.57732 0.0
C34 C 0.38971 0.44486 0.48942 0.0
C35 C 0.43113 0.64043 0.49943 0.0
C36 C 0.68161 0.42382 0.4922 0.0
C37 C 0.71241 0.62572 0.50921 0.0
C38 C 0.60339 0.52731 0.58308 0.0
C39 C 0.51551 0.53003 0.41108 0.0
O40 O 0.45098 0.48259 0.49046 0.0
O41 O 0.3309 0.45875 0.46852 0.0
C42 C 0.08366 0.94351 0.25902 0.0
C43 C 0.04954 0.99257 0.24154 0.0
C44 C 0.07786 0.94188 0.29814 0.0
C45 C 0.04111 0.99112 0.32112 0.0
C46 C 1.00726 0.04009 0.30286 0.0
C47 C 1.00925 0.03955 0.26372 0.0
C48 C 0.03974 0.99308 0.36366 0.0
C49 C 0.09308 0.95891 0.38398 0.0
C50 C 0.09333 0.96323 0.42392 0.0
C51 C 0.04235 0.00522 0.44395 0.0
C52 C 0.99035 0.04068 0.42435 0.0
C53 C 0.98687 0.03202 0.38472 0.0
C54 C 0.94318 0.0915 0.44391 0.0
C55 C 0.8733 0.07725 0.46083 0.0
C56 C 0.96166 0.15496 0.43956 0.0
C57 C 0.90983 0.2032 0.45055 0.0
C58 C 0.83852 0.18883 0.46603 0.0
C59 C 0.14817 0.9244 0.44432 0.0
C60 C 0.15971 0.86046 0.43016 0.0
C61 C 0.19075 0.95079 0.47723 0.0
C62 C 0.24553 0.91448 0.49469 0.0
C63 C 0.258 0.8512 0.47967 0.0
C64 C 0.21403 0.82436 0.44762 0.0
C65 C 0.82127 0.12581 0.47205 0.0
H66 H 0.11527 0.9067 0.24243 0.0
H67 H 0.10307 0.90204 0.30997 0.0
H68 H 0.98099 0.0808 0.31834 0.0
H69 H 0.98288 0.07815 0.25089 0.0
H70 H 0.1365 0.93007 0.36921 0.0
H71 H 0.94257 0.05731 0.37083 0.0
H72 H 0.04351 0.0103 0.47453 0.0
H73 H 0.8574 0.02839 0.46355 0.0
H74 H 0.01489 0.16676 0.42612 0.0
H75 H 0.92432 0.25159 0.44598 0.0
H76 H 0.12693 0.83833 0.40535 0.0
H77 H 0.18344 -4e-05 0.48878 0.0
H78 H 0.76659 0.11403 0.48417 0.0
H79 H 0.22268 0.7755 0.43575 0.0
H80 H 0.27913 0.93596 0.5194 0.0
C81 C 0.06185 0.12836 0.74086 0.0
C82 C 0.04498 0.07303 0.75725 0.0
C83 C 0.04754 0.13013 0.70214 0.0
C84 C 0.01988 0.07551 0.67842 0.0
C85 C 1.00371 0.01994 0.69511 0.0
C86 C 0.0151 0.01906 0.73414 0.0
C87 C 0.01271 0.07556 0.63636 0.0
C88 C 0.0648 0.11257 0.61813 0.0
C89 C 0.06341 0.11099 0.57851 0.0
C90 C 1.00728 0.07187 0.55662 0.0
C91 C 0.95617 0.03266 0.57421 0.0
C92 C 0.95822 0.03584 0.61394 0.0
C93 C 0.90849 0.98116 0.55196 0.0
C94 C 0.83293 0.99171 0.53805 0.0
C95 C 0.93537 0.91869 0.54931 0.0
C96 C 0.88685 0.86739 0.53449 0.0
C97 C 0.81023 0.87729 0.52195 0.0
C98 C 0.12371 0.14894 0.56117 0.0
C99 C 0.20121 0.15125 0.57569 0.0
C100 C 0.1038 0.18787 0.53319 0.0
C101 C 0.15896 0.2311 0.522 0.0
C102 C 0.23473 0.2358 0.53852 0.0
C103 C 0.2558 0.19455 0.56477 0.0
C104 C 0.78436 0.94011 0.52266 0.0
H105 H 0.08458 0.17065 0.75824 0.0
H106 H 0.05855 0.17455 0.69094 0.0
H107 H 0.98402 0.97641 0.6781 0.0
H108 H 1.00172 0.97582 0.74627 0.0
H109 H 0.1086 0.14202 0.63477 0.0
H110 H 0.91801 0.00597 0.62711 0.0
H111 H 1.00562 0.0699 0.52615 0.0
H112 H 0.81069 0.03948 0.54029 0.0
H113 H 0.99309 0.90939 0.56023 0.0
H114 H 0.90823 0.81953 0.53409 0.0
H115 H 0.21906 0.12094 0.59666 0.0
H116 H 0.04478 0.18729 0.52147 0.0
H117 H 0.72562 0.94889 0.51295 0.0
H118 H 0.31389 0.19728 0.57772 0.0
H119 H 0.14168 0.26266 0.50162 0.0
C120 C 0.57052 0.4465 0.75629 0.0
C121 C 0.55669 0.50372 0.74125 0.0
C122 C 0.56674 0.44389 0.79543 0.0
C123 C 0.55081 0.49887 0.82028 0.0
C124 C 0.53818 0.55611 0.80478 0.0
C125 C 0.53935 0.5581 0.76582 0.0
C126 C 0.54641 0.49749 0.86211 0.0
C127 C 0.59435 0.45834 0.88175 0.0
C128 C 0.59181 0.45995 0.92161 0.0
C129 C 0.54164 0.50301 0.94175 0.0
C130 C 0.49531 0.5432 0.92245 0.0
C131 C 0.49589 0.53843 0.88297 0.0
C132 C 0.45009 0.59467 0.94249 0.0
C133 C 0.38088 0.58148 0.96026 0.0
C134 C 0.47031 0.65791 0.93841 0.0
C135 C 0.42054 0.70703 0.95037 0.0
C136 C 0.34985 0.69377 0.96671 0.0
C137 C 0.64379 0.4185 0.94201 0.0
C138 C 0.66151 0.35702 0.92517 0.0
C139 C 0.67761 0.44027 0.97803 0.0
C140 C 0.72862 0.40217 -0.00366 0.0
C141 C 0.74757 0.34183 0.97874 0.0
C142 C 0.71307 0.31932 0.94327 0.0
C143 C 0.33111 0.63098 0.97263 0.0
H144 H 0.58454 0.40404 0.73777 0.0
H145 H 0.57595 0.39881 0.80608 0.0
H146 H 0.52856 0.60017 0.82269 0.0
H147 H 0.5294 0.6029 0.75487 0.0
H148 H 0.63581 0.42834 0.86619 0.0
H149 H 0.45704 0.56814 0.86864 0.0
H150 H 0.53926 0.50607 0.9723 0.0
H151 H 0.36376 0.53283 0.96285 0.0
H152 H 0.52326 0.6689 0.92447 0.0
H153 H 0.43619 0.7553 0.94598 0.0
H154 H 0.63544 0.33775 0.89798 0.0
H155 H 0.66622 0.48729 0.99178 0.0
H156 H 0.27689 0.62018 0.9855 0.0
H157 H 0.72628 0.27242 0.92951 0.0
H158 H 0.75435 0.42011 0.02386 0.0
C159 C 0.52849 0.61265 0.24177 0.0
C160 C 0.55557 0.55577 0.2535 0.0
C161 C 0.51986 0.61884 0.20312 0.0
C162 C 0.53662 0.56773 0.17577 0.0
C163 C 0.56634 0.51179 0.18752 0.0
C164 C 0.5768 0.5062 0.22606 0.0
C165 C 0.52132 0.57167 0.13498 0.0
C166 C 0.55783 0.61906 0.1172 0.0
C167 C 0.54905 0.61945 0.07782 0.0
C168 C 0.49958 0.57377 0.05643 0.0
C169 C 0.4614 0.52677 0.07421 0.0
C170 C 0.47342 0.52567 0.11337 0.0
C171 C 0.4123 0.47594 0.05239 0.0
C172 C 0.34054 0.48964 0.03544 0.0
C173 C 0.43326 0.41226 0.05239 0.0
C174 C 0.38214 0.36303 0.03726 0.0
C175 C 0.30887 0.37642 0.02199 0.0
C176 C 0.59974 0.66269 0.05922 0.0
C177 C 0.60181 0.72838 0.07116 0.0
C178 C 0.65412 0.6372 0.03321 0.0
C179 C 0.71178 0.67616 0.02052 0.0
C180 C 0.71445 0.74184 0.03268 0.0
C181 C 0.65805 0.76772 0.05762 0.0
C182 C 0.28909 0.44009 0.02015 0.0
H183 H 0.51178 0.65142 0.26251 0.0
H184 H 0.49725 0.66251 0.1946 0.0
H185 H 0.58052 0.47211 0.16684 0.0
H186 H 0.59799 0.46205 0.23455 0.0
H187 H 0.59709 0.65325 0.13368 0.0
H188 H 0.44524 0.48882 0.1271 0.0
H189 H 0.49278 0.57373 0.02607 0.0
H190 H 0.32283 0.53847 0.03565 0.0
H191 H 0.48819 0.40062 0.06539 0.0
H192 H 0.39846 0.31427 0.03891 0.0
H193 H 0.56086 0.74898 0.09151 0.0
H194 H 0.65434 0.58665 0.02421 0.0
H195 H 0.23269 0.45133 0.00856 0.0
H196 H 0.65869 0.81826 0.06726 0.0
H197 H 0.75463 0.65505 0.00136 0.0
C198 C 0.23213 0.21774 0.97457 0.0
C199 C 0.19305 0.19723 0.00545 0.0
C200 C 0.20145 0.30479 0.03954 0.0
C201 C 0.25194 0.32267 0.01158 0.0
N202 N 0.29844 0.30446 0.94828 0.0
N203 N 0.11624 0.2233 0.0599 0.0
C204 C 0.26061 0.2819 0.97729 0.0
C205 C 0.16871 0.24207 0.03524 0.0
N206 N 0.24494 0.17437 0.94382 0.0
N207 N 0.18992 0.34611 0.07143 0.0
H208 H 0.09292 0.17712 0.05673 0.0
H209 H 0.09102 0.25389 0.08102 0.0
H210 H 0.21139 0.39287 0.0749 0.0
H211 H 0.16128 0.33393 0.09496 0.0
H212 H 0.27716 0.18359 0.92075 0.0
H213 H 0.22152 0.12815 0.9416 0.0
H214 H 0.30625 0.27841 0.92199 0.0
H215 H 0.31868 0.35154 0.9501 0.0
C216 C 0.26131 0.8402 0.01978 0.0
C217 C 0.21569 0.86195 0.99008 0.0
C218 C 0.2383 0.76152 0.95004 0.0
C219 C 0.29589 0.74662 0.97694 0.0
N220 N 0.36474 0.77207 0.03713 0.0
N221 N 0.1555 0.84173 0.92754 0.0
C222 C 0.30758 0.78573 0.01193 0.0
C223 C 0.20133 0.8216 0.95557 0.0
N224 N 0.25833 0.87081 0.05586 0.0
N225 N 0.21936 0.71822 0.91924 0.0
H226 H 0.12386 0.88328 0.93149 0.0
H227 H 0.15073 0.8186 0.89998 0.0
H228 H 0.24664 0.67458 0.91402 0.0
H229 H 0.17274 0.72306 0.90049 0.0
H230 H 0.28512 0.85423 0.07931 0.0
H231 H 0.22159 0.90881 0.06295 0.0
H232 H 0.38285 0.80339 0.06081 0.0
H233 H 0.39754 0.73094 0.03317 0.0
C234 C 0.84311 0.82878 0.96908 0.0
C235 C 0.876 0.87799 -0.00419 0.0
C236 C 0.82532 0.82216 0.04652 0.0
C237 C 0.77616 0.78387 0.01957 0.0
N238 N 0.73106 0.75899 0.95412 0.0
N239 N 0.89241 0.92393 0.06111 0.0
C240 C 0.78384 0.78846 0.98039 0.0
C241 C 0.86707 0.87481 0.03501 0.0
N242 N 0.86609 0.82287 0.93242 0.0
N243 N 0.83217 0.8083 0.08293 0.0
H244 H 0.92145 0.96377 0.05363 0.0
H245 H 0.87962 0.92681 0.08974 0.0
H246 H 0.80391 0.76906 0.09193 0.0
H247 H 0.87217 0.83167 0.10276 0.0
H248 H 0.84745 0.78534 0.91222 0.0
H249 H 0.91004 0.85198 0.92366 0.0
H250 H 0.73027 0.7666 0.9257 0.0
H251 H 0.68309 0.73256 0.96119 0.0
C252 C 0.82503 0.20239 0.02474 0.0
C253 C 0.8996 0.19883 0.0088 0.0
C254 C 0.88359 0.30506 0.98943 0.0
C255 C 0.80314 0.30083 -0.0031 0.0
N256 N 0.69706 0.24925 0.0247 0.0
N257 N 1.00403 0.24849 0.97874 0.0
C258 C 0.77412 0.25126 0.0163 0.0
C259 C 0.93119 0.25165 0.99304 0.0
N260 N 0.80285 0.15741 0.04693 0.0
N261 N 0.91357 0.35945 0.97798 0.0
H262 H 0.04012 0.21029 0.9814 0.0
H263 H 0.02746 0.28185 0.96284 0.0
H264 H 0.8794 0.3986 0.97442 0.0
H265 H 0.97288 0.36799 0.97525 0.0
H266 H 0.75126 0.15877 0.06159 0.0
H267 H 0.84028 0.12155 0.05324 0.0
H268 H 0.66985 0.21058 0.03467 0.0
H269 H 0.65931 0.28584 0.02022 0.0
C270 C 0.67394 0.73647 0.531 0.0
C271 C 0.70296 0.69268 0.50167 0.0
C272 C 0.77254 0.78022 0.47672 0.0
C273 C 0.75773 0.82044 0.51052 0.0
N274 N 0.68915 0.83975 0.56884 0.0
N275 N 0.77298 0.67215 0.4443 0.0
C276 C 0.70476 0.80008 0.53679 0.0
C277 C 0.74851 0.71489 0.47321 0.0
N278 N 0.62004 0.71602 0.55448 0.0
N279 N 0.81104 0.80467 0.44853 0.0
H280 H 0.75348 0.62475 0.44069 0.0
H281 H 0.81351 0.68273 0.42471 0.0
H282 H 0.82874 0.85243 0.45081 0.0
H283 H 0.81972 0.77963 0.422 0.0
H284 H 0.59019 0.74611 0.57414 0.0
H285 H 0.60097 0.66874 0.55232 0.0
H286 H 0.65874 0.82582 0.5914 0.0
H287 H 0.70953 0.88672 0.57379 0.0
C288 C 0.69551 0.31904 0.45089 0.0
C289 C 0.70005 0.35512 0.48718 0.0
C290 C 0.78382 0.27559 0.5115 0.0
C291 C 0.78205 0.24059 0.47489 0.0
N292 N 0.72243 0.21934 0.41231 0.0
N293 N 0.72632 0.35858 0.55429 0.0
C294 C 0.73284 0.25909 0.44544 0.0
C295 C 0.73691 0.33007 0.51825 0.0
N296 N 0.65922 0.34361 0.42138 0.0
N297 N 0.83318 0.2586 0.53927 0.0
H298 H 0.69045 0.3976 0.55999 0.0
H299 H 0.74618 0.33994 0.57851 0.0
H300 H 0.8667 0.21784 0.53569 0.0
H301 H 0.84452 0.28681 0.56502 0.0
H302 H 0.66119 0.32338 0.39325 0.0
H303 H 0.62942 0.38629 0.42496 0.0
H304 H 0.68231 0.22704 0.39091 0.0
H305 H 0.74969 0.17561 0.40751 0.0
C306 C 0.39003 0.32811 0.4915 0.0
C307 C 0.38093 0.38983 0.51092 0.0
C308 C 0.28587 0.34862 0.55229 0.0
C309 C 0.2901 0.28752 0.53095 0.0
N310 N 0.35749 0.21498 0.48626 0.0
N311 N 0.33923 0.4567 0.56538 0.0
C312 C 0.34651 0.27582 0.50265 0.0
C313 C 0.33551 0.39896 0.5435 0.0
N314 N 0.43717 0.32076 0.46107 0.0
N315 N 0.232 0.35906 0.57979 0.0
H316 H 0.37577 0.4936 0.559 0.0
H317 H 0.31257 0.46624 0.59128 0.0
H318 H 0.19635 0.32299 0.58782 0.0
H319 H 0.21963 0.40382 0.59348 0.0
H320 H 0.4408 0.27894 0.44261 0.0
H321 H 0.47203 0.35813 0.45395 0.0
H322 H 0.40174 0.20207 0.46771 0.0
H323 H 0.3248 0.1762 0.49304 0.0
C324 C 0.43625 0.75047 0.48116 0.0
C325 C 0.41301 0.70878 0.50724 0.0
C326 C 0.30175 0.77545 0.52499 0.0
C327 C 0.31942 0.81252 0.49563 0.0
N328 N 0.41387 0.84892 0.45418 0.0
N329 N 0.34251 0.69202 0.56231 0.0
C330 C 0.39082 0.80479 0.47677 0.0
C331 C 0.35227 0.72552 0.53228 0.0
N332 N 0.49803 0.7354 0.45871 0.0
N333 N 0.23448 0.78562 0.54415 0.0
H334 H 0.37989 0.65554 0.56762 0.0
H335 H 0.30275 0.70363 0.58343 0.0
H336 H 0.19773 0.82301 0.54004 0.0
H337 H 0.21362 0.75608 0.56307 0.0
H338 H 0.51217 0.75865 0.43563 0.0
H339 H 0.53469 0.69805 0.46279 0.0
H340 H 0.46785 0.84916 0.44169 0.0
H341 H 0.38102 0.8888 0.45049 0.0
C342 C 0.09441 0.06724 0.15273 0.0
C343 C 0.0777 0.01629 0.12381 0.0
C344 C 0.03477 0.9504 0.17164 0.0
C345 C 0.06105 -0.00113 0.20076 0.0
N346 N 0.13567 0.09664 0.21804 0.0
N347 N 0.04694 0.90484 0.10617 0.0
C348 C 0.09635 0.05553 0.19104 0.0
C349 C 0.05176 0.95648 0.13328 0.0
N350 N 0.10814 0.1271 0.14359 0.0
N351 N 0.99174 0.89965 0.18034 0.0
H352 H 0.05883 0.90749 0.07781 0.0
H353 H 0.03681 0.85867 0.11241 0.0
H354 H 0.97618 0.89436 0.20791 0.0
H355 H 0.96547 0.866 0.1598 0.0
H356 H 0.11315 0.16714 0.16378 0.0
H357 H 0.10636 0.13746 0.11568 0.0
H358 H 0.16835 0.13561 0.21163 0.0
H359 H 0.1433 0.08789 0.24613 0.0
C360 C 0.10686 0.01483 0.85056 0.0
C361 C 0.06264 0.05474 0.87611 0.0
C362 C 0.01503 0.11238 0.82501 0.0
C363 C 0.05739 0.0714 0.79876 0.0
N364 N 0.16106 0.99653 0.78799 0.0
N365 N 0.9993 0.15433 0.89076 0.0
C366 C 0.10919 0.02669 0.81204 0.0
C367 C 0.02588 0.10835 0.86424 0.0
N368 N 0.14422 0.96463 0.86293 0.0
N369 N 0.95968 0.15129 0.81262 0.0
H370 H 1.00639 0.15148 0.91974 0.0
H371 H 0.97811 0.19755 0.88419 0.0
H372 H 0.94582 0.15329 0.78408 0.0
H373 H 0.92193 0.1771 0.83071 0.0
H374 H 0.16941 0.92871 0.84496 0.0
H375 H 0.1478 0.95865 0.89159 0.0
H376 H 0.20422 0.96708 0.79666 0.0
H377 H 0.16551 0.00563 0.75995 0.0
C378 C 0.53153 0.47579 0.63305 0.0
C379 C 0.58151 0.52471 0.62291 0.0
C380 C 0.62187 0.55268 0.68945 0.0
C381 C 0.56576 0.50897 0.70021 0.0
N382 N 0.45469 0.43886 0.68239 0.0
N383 N 0.65591 0.62147 0.64299 0.0
C384 C 0.51662 0.47344 0.67206 0.0
C385 C 0.62079 0.56693 0.65165 0.0
N386 N 0.50176 0.42957 0.606 0.0
N387 N 0.67857 0.57863 0.71481 0.0
H388 H 0.65337 0.63511 0.61577 0.0
H389 H 0.67959 0.65638 0.6636 0.0
H390 H 0.68428 0.56686 0.74238 0.0
H391 H 0.72497 0.60617 0.7071 0.0
H392 H 0.47147 0.38947 0.61252 0.0
H393 H 0.51298 0.42822 0.57729 0.0
H394 H 0.41275 0.4173 0.66292 0.0
H395 H 0.44114 0.43684 0.71061 0.0
C396 C 0.58891 0.58104 0.36111 0.0
C397 C 0.54253 0.53026 0.37177 0.0
C398 C 0.50435 0.49772 0.30535 0.0
C399 C 0.55433 0.5456 0.29419 0.0
N400 N 0.65888 0.62247 0.31082 0.0
N401 N 0.47895 0.42841 0.35283 0.0
C402 C 0.60153 0.58396 0.3219 0.0
C403 C 0.50812 0.48457 0.34337 0.0
N404 N 0.61695 0.62847 0.38782 0.0
N405 N 0.44961 0.46741 0.28042 0.0
H406 H 0.48347 0.4163 0.38039 0.0
H407 H 0.45865 0.39141 0.33267 0.0
H408 H 0.44127 0.47792 0.25271 0.0
H409 H 0.4068 0.43684 0.28858 0.0
H410 H 0.64332 0.67008 0.38103 0.0
H411 H 0.60903 0.62866 0.41673 0.0
H412 H 0.69987 0.64681 0.32972 0.0
H413 H 0.67 0.62521 0.28237 0.0
loop_
_geom_bond_atom_site_label_1
_geom_bond_atom_site_label_2
_geom_bond_distance
_geom_bond_site_symmetry_2
_ccdc_geom_bond_type
O0 Mn1 2.163 1_654 S
O0 C14 1.244 1_554 S
Mn1 O0 2.163 1_456 S
Mn1 O4 2.160 1_545 S
Mn1 O5 2.221 1_556 S
Mn1 O7 2.163 1_556 S
Mn1 O9 2.160 . S
Mn1 O19 2.221 1_445 S
O2 Mn3 2.087 . S
O2 C14 1.256 . S
Mn3 O2 2.087 . S
Mn3 O10 2.089 . S
Mn3 O19 2.290 1_545 S
Mn3 O20 2.251 1_545 S
O4 Mn1 2.160 1_565 S
O4 C15 1.239 1_556 S
O5 Mn1 2.221 1_554 S
O5 Mn6 2.290 . S
O5 C16 1.278 . S
Mn6 O5 2.290 . S
Mn6 O8 2.089 1_545 S
Mn6 O11 2.251 . S
Mn6 O12 2.087 . S
O7 Mn1 2.163 1_554 S
O7 C17 1.244 . S
O8 Mn6 2.089 1_565 S
O8 C15 1.256 . S
O9 Mn1 2.160 . S
O9 C18 1.239 . S
O10 Mn3 2.089 . S
O10 C18 1.256 1_655 S
O11 Mn6 2.251 . S
O11 C16 1.241 . S
O12 Mn6 2.087 . S
O12 C17 1.256 . S
C13 O19 1.265 1_554 S
C13 O20 1.235 1_554 S
C14 O0 1.244 1_556 S
C14 O2 1.256 . S
C15 O4 1.239 1_554 S
C15 O8 1.256 . S
C16 O5 1.278 . S
C16 O11 1.241 . S
C17 O7 1.244 . S
C17 O12 1.256 . S
C18 O9 1.239 . S
C18 O10 1.256 1_455 S
O19 Mn1 2.221 1_665 S
O19 Mn3 2.290 1_565 S
O19 C13 1.265 1_556 S
O20 Mn3 2.251 1_565 S
O20 C13 1.235 1_556 S
O21 Mn22 2.163 . S
O21 C35 1.244 . S
Mn22 O21 2.163 . S
Mn22 O25 2.160 . S
Mn22 O26 2.221 . S
Mn22 O28 2.163 . S
Mn22 O30 2.160 . S
Mn22 O40 2.221 . S
O23 Mn24 2.087 . S
O23 C35 1.256 . S
Mn24 O23 2.087 . S
Mn24 O31 2.089 . S
Mn24 O40 2.290 . S
Mn24 O41 2.251 . S
O25 Mn22 2.160 . S
O25 C36 1.239 . S
O26 Mn22 2.221 . S
O26 Mn27 2.290 . S
O26 C37 1.278 . S
Mn27 O26 2.290 . S
Mn27 O29 2.089 . S
Mn27 O32 2.251 . S
Mn27 O33 2.087 . S
O28 Mn22 2.163 . S
O28 C38 1.244 . S
O29 Mn27 2.089 . S
O29 C36 1.256 . S
O30 Mn22 2.160 . S
O30 C39 1.239 . S
O31 Mn24 2.089 . S
O31 C39 1.256 . S
O32 Mn27 2.251 . S
O32 C37 1.241 . S
O33 Mn27 2.087 . S
O33 C38 1.256 . S
C34 O40 1.278 . S
C34 O41 1.241 . S
C35 O21 1.244 . S
C35 O23 1.256 . S
C36 O25 1.239 . S
C36 O29 1.256 . S
C37 O26 1.278 . S
C37 O32 1.241 . S
C38 O28 1.244 . S
C38 O33 1.256 . S
C39 O30 1.239 . S
C39 O31 1.256 . S
O40 Mn22 2.221 . S
O40 Mn24 2.290 . S
O40 C34 1.278 . S
O41 Mn24 2.251 . S
O41 C34 1.241 . S
C42 C43 1.386 . S
C42 C44 1.397 . S
C42 H66 0.931 . S
C43 C42 1.386 . S
C43 C47 1.397 1_565 S
C44 C42 1.397 . S
C44 C45 1.384 . S
C44 H67 0.930 . S
C45 C44 1.384 . S
C45 C46 1.377 1_565 S
C45 C48 1.481 . S
C46 C45 1.377 1_545 S
C46 C47 1.389 . S
C46 H68 0.929 . S
C47 C43 1.397 1_545 S
C47 C46 1.389 . S
C47 H69 0.931 . S
C48 C45 1.481 . S
C48 C49 1.387 . S
C48 C53 1.390 1_565 S
C49 C48 1.387 . S
C49 C50 1.401 . S
C49 H70 0.930 . S
C50 C49 1.401 . S
C50 C51 1.376 1_565 S
C50 C59 1.511 . S
C51 C50 1.376 1_545 S
C51 C52 1.390 1_455 S
C51 H72 0.931 . S
C52 C51 1.390 1_655 S
C52 C53 1.361 1_655 S
C52 C54 1.502 . S
C53 C48 1.390 1_545 S
C53 C52 1.361 1_455 S
C53 H71 0.931 1_455 S
C54 C52 1.502 . S
C54 C55 1.371 . S
C54 C56 1.365 . S
C55 C54 1.371 . S
C55 C65 1.386 . S
C55 H73 0.931 . S
C56 C54 1.365 . S
C56 C57 1.409 . S
C56 H74 0.929 . S
C57 C56 1.409 . S
C57 C58 1.380 . S
C57 H75 0.930 . S
C58 C57 1.380 . S
C58 C65 1.357 . S
C59 C50 1.511 . S
C59 C60 1.341 . S
C59 C61 1.371 . S
C60 C59 1.341 . S
C60 C64 1.394 . S
C60 H76 0.930 . S
C61 C59 1.371 . S
C61 C62 1.392 . S
C61 H77 0.931 . S
C62 C61 1.392 . S
C62 C63 1.331 . S
C62 H80 0.932 . S
C63 C62 1.331 . S
C63 C64 1.336 . S
C64 C60 1.394 . S
C64 C63 1.336 . S
C64 H79 0.929 . S
C65 C55 1.386 . S
C65 C58 1.357 . S
C65 H78 0.928 . S
H66 C42 0.931 . S
H67 C44 0.930 . S
H68 C46 0.929 . S
H69 C47 0.931 . S
H70 C49 0.930 . S
H71 C53 0.931 1_655 S
H72 C51 0.931 . S
H73 C55 0.931 . S
H74 C56 0.929 . S
H75 C57 0.930 . S
H76 C60 0.930 . S
H77 C61 0.931 . S
H78 C65 0.928 . S
H79 C64 0.929 . S
H80 C62 0.932 . S
C81 C82 1.386 . S
C81 C83 1.397 . S
C81 H105 0.931 . S
C82 C81 1.386 . S
C82 C86 1.397 . S
C83 C81 1.397 . S
C83 C84 1.384 . S
C83 H106 0.930 . S
C84 C83 1.384 . S
C84 C85 1.377 . S
C84 C87 1.481 . S
C85 C84 1.377 . S
C85 C86 1.389 . S
C85 H107 0.929 1_545 S
C86 C82 1.397 . S
C86 C85 1.389 . S
C86 H108 0.931 1_545 S
C87 C84 1.481 . S
C87 C88 1.387 . S
C87 C92 1.390 1_455 S
C88 C87 1.387 . S
C88 C89 1.401 . S
C88 H109 0.930 . S
C89 C88 1.401 . S
C89 C90 1.376 1_455 S
C89 C98 1.511 . S
C90 C89 1.376 1_655 S
C90 C91 1.392 . S
C90 H111 0.931 . S
C91 C90 1.392 . S
C91 C92 1.361 . S
C91 C93 1.500 1_545 S
C92 C87 1.390 1_655 S
C92 C91 1.361 . S
C92 H110 0.931 . S
C93 C91 1.500 1_565 S
C93 C94 1.371 . S
C93 C95 1.365 . S
C94 C93 1.371 . S
C94 C104 1.386 . S
C94 H112 0.931 1_565 S
C95 C93 1.365 . S
C95 C96 1.409 . S
C95 H113 0.929 . S
C96 C95 1.409 . S
C96 C97 1.380 . S
C96 H114 0.930 . S
C97 C96 1.380 . S
C97 C104 1.357 . S
C98 C89 1.511 . S
C98 C99 1.341 . S
C98 C100 1.371 . S
C99 C98 1.341 . S
C99 C103 1.394 . S
C99 H115 0.930 . S
C100 C98 1.371 . S
C100 C101 1.392 . S
C100 H116 0.931 . S
C101 C100 1.392 . S
C101 C102 1.331 . S
C101 H119 0.932 . S
C102 C101 1.331 . S
C102 C103 1.336 . S
C103 C99 1.394 . S
C103 C102 1.336 . S
C103 H118 0.929 . S
C104 C94 1.386 . S
C104 C97 1.357 . S
C104 H117 0.928 . S
H105 C81 0.931 . S
H106 C83 0.930 . S
H107 C85 0.929 1_565 S
H108 C86 0.931 1_565 S
H109 C88 0.930 . S
H110 C92 0.931 . S
H111 C90 0.931 . S
H112 C94 0.931 1_545 S
H113 C95 0.929 . S
H114 C96 0.930 . S
H115 C99 0.930 . S
H116 C100 0.931 . S
H117 C104 0.928 . S
H118 C103 0.929 . S
H119 C101 0.932 . S
C120 C121 1.386 . S
C120 C122 1.397 . S
C120 H144 0.931 . S
C121 C120 1.386 . S
C121 C125 1.397 . S
C122 C120 1.397 . S
C122 C123 1.384 . S
C122 H145 0.930 . S
C123 C122 1.384 . S
C123 C124 1.377 . S
C123 C126 1.481 . S
C124 C123 1.377 . S
C124 C125 1.389 . S
C124 H146 0.929 . S
C125 C121 1.397 . S
C125 C124 1.389 . S
C125 H147 0.931 . S
C126 C123 1.481 . S
C126 C127 1.387 . S
C126 C131 1.390 . S
C127 C126 1.387 . S
C127 C128 1.401 . S
C127 H148 0.930 . S
C128 C127 1.401 . S
C128 C129 1.376 . S
C128 C137 1.511 . S
C129 C128 1.376 . S
C129 C130 1.392 . S
C129 H150 0.931 . S
C130 C129 1.392 . S
C130 C131 1.361 . S
C130 C132 1.500 . S
C131 C126 1.390 . S
C131 C130 1.361 . S
C131 H149 0.931 . S
C132 C130 1.500 . S
C132 C133 1.371 . S
C132 C134 1.365 . S
C133 C132 1.371 . S
C133 C143 1.386 1_556 S
C133 H151 0.931 . S
C134 C132 1.365 . S
C134 C135 1.409 . S
C134 H152 0.929 . S
C135 C134 1.409 . S
C135 C136 1.380 . S
C135 H153 0.930 . S
C136 C135 1.380 . S
C136 C143 1.357 1_556 S
C137 C128 1.511 . S
C137 C138 1.341 . S
C137 C139 1.371 . S
C138 C137 1.341 . S
C138 C142 1.394 . S
C138 H154 0.930 . S
C139 C137 1.371 . S
C139 C140 1.392 1_556 S
C139 H155 0.931 1_556 S
C140 C139 1.392 1_554 S
C140 C141 1.331 1_554 S
C140 H158 0.932 . S
C141 C140 1.331 1_556 S
C141 C142 1.336 . S
C142 C138 1.394 . S
C142 C141 1.336 . S
C142 H157 0.929 . S
C143 C133 1.386 1_554 S
C143 C136 1.357 1_554 S
C143 H156 0.928 . S
H144 C120 0.931 . S
H145 C122 0.930 . S
H146 C124 0.929 . S
H147 C125 0.931 . S
H148 C127 0.930 . S
H149 C131 0.931 . S
H150 C129 0.931 . S
H151 C133 0.931 . S
H152 C134 0.929 . S
H153 C135 0.930 . S
H154 C138 0.930 . S
H155 C139 0.931 1_554 S
H156 C143 0.928 . S
H157 C142 0.929 . S
H158 C140 0.932 . S
C159 C160 1.386 . S
C159 C161 1.397 . S
C159 H183 0.931 . S
C160 C159 1.386 . S
C160 C164 1.397 . S
C161 C159 1.397 . S
C161 C162 1.384 . S
C161 H184 0.930 . S
C162 C161 1.384 . S
C162 C163 1.377 . S
C162 C165 1.481 . S
C163 C162 1.377 . S
C163 C164 1.389 . S
C163 H185 0.929 . S
C164 C160 1.397 . S
C164 C163 1.389 . S
C164 H186 0.931 . S
C165 C162 1.481 . S
C165 C166 1.387 . S
C165 C170 1.390 . S
C166 C165 1.387 . S
C166 C167 1.401 . S
C166 H187 0.930 . S
C167 C166 1.401 . S
C167 C168 1.376 . S
C167 C176 1.511 . S
C168 C167 1.376 . S
C168 C169 1.392 . S
C168 H189 0.931 . S
C169 C168 1.392 . S
C169 C170 1.361 . S
C169 C171 1.500 . S
C170 C165 1.390 . S
C170 C169 1.361 . S
C170 H188 0.931 . S
C171 C169 1.500 . S
C171 C172 1.371 . S
C171 C173 1.365 . S
C172 C171 1.371 . S
C172 C182 1.386 1_554 S
C172 H190 0.931 . S
C173 C171 1.365 . S
C173 C174 1.409 . S
C173 H191 0.929 . S
C174 C173 1.409 . S
C174 C175 1.380 . S
C174 H192 0.930 . S
C175 C174 1.380 . S
C175 C182 1.357 1_554 S
C176 C167 1.511 . S
C176 C177 1.341 . S
C176 C178 1.371 . S
C177 C176 1.341 . S
C177 C181 1.394 . S
C177 H193 0.930 . S
C178 C176 1.371 . S
C178 C179 1.392 . S
C178 H194 0.931 . S
C179 C178 1.392 . S
C179 C180 1.331 . S
C179 H197 0.932 1_554 S
C180 C179 1.331 . S
C180 C181 1.336 . S
C181 C177 1.394 . S
C181 C180 1.336 . S
C181 H196 0.929 . S
C182 C172 1.386 1_556 S
C182 C175 1.357 1_556 S
C182 H195 0.928 . S
H183 C159 0.931 . S
H184 C161 0.930 . S
H185 C163 0.929 . S
H186 C164 0.931 . S
H187 C166 0.930 . S
H188 C170 0.931 . S
H189 C168 0.931 . S
H190 C172 0.931 . S
H191 C173 0.929 . S
H192 C174 0.930 . S
H193 C177 0.930 . S
H194 C178 0.931 . S
H195 C182 0.928 . S
H196 C181 0.929 . S
H197 C179 0.932 1_556 S
C198 C199 1.363 1_556 S
C198 C204 1.379 . S
C198 N206 1.356 . S
C199 C198 1.363 1_554 S
C199 C205 1.363 . S
C200 C201 1.363 . S
C200 C205 1.379 . S
C200 N207 1.356 . S
C201 C200 1.363 . S
C201 C204 1.363 1_554 S
N202 C204 1.356 . S
N202 H214 0.984 . S
N202 H215 0.985 . S
N203 C205 1.356 . S
N203 H208 0.984 . S
N203 H209 0.985 . S
C204 C198 1.379 . S
C204 C201 1.363 1_556 S
C204 N202 1.356 . S
C205 C199 1.363 . S
C205 C200 1.379 . S
C205 N203 1.356 . S
N206 C198 1.356 . S
N206 H212 0.984 . S
N206 H213 0.984 . S
N207 C200 1.356 . S
N207 H210 0.984 . S
N207 H211 0.985 . S
H208 N203 0.984 . S
H209 N203 0.985 . S
H210 N207 0.984 . S
H211 N207 0.985 . S
H212 N206 0.984 . S
H213 N206 0.984 . S
H214 N202 0.984 . S
H215 N202 0.985 . S
C216 C217 1.363 . S
C216 C222 1.379 . S
C216 N224 1.356 . S
C217 C216 1.363 . S
C217 C223 1.363 1_554 S
C218 C219 1.363 1_556 S
C218 C223 1.379 . S
C218 N225 1.356 . S
C219 C218 1.363 1_554 S
C219 C222 1.363 . S
N220 C222 1.356 . S
N220 H232 0.984 . S
N220 H233 0.985 . S
N221 C223 1.356 . S
N221 H226 0.984 . S
N221 H227 0.985 . S
C222 C216 1.379 . S
C222 C219 1.363 . S
C222 N220 1.356 . S
C223 C217 1.363 1_556 S
C223 C218 1.379 . S
C223 N221 1.356 . S
N224 C216 1.356 . S
N224 H230 0.984 . S
N224 H231 0.984 . S
N225 C218 1.356 . S
N225 H228 0.984 . S
N225 H229 0.985 . S
H226 N221 0.984 . S
H227 N221 0.985 . S
H228 N225 0.984 . S
H229 N225 0.985 . S
H230 N224 0.984 . S
H231 N224 0.984 . S
H232 N220 0.984 . S
H233 N220 0.985 . S
C234 C235 1.363 1_556 S
C234 C240 1.379 . S
C234 N242 1.356 . S
C235 C234 1.363 1_554 S
C235 C241 1.363 . S
C236 C237 1.363 . S
C236 C241 1.379 . S
C236 N243 1.356 . S
C237 C236 1.363 . S
C237 C240 1.363 1_554 S
N238 C240 1.356 . S
N238 H250 0.984 . S
N238 H251 0.985 . S
N239 C241 1.356 . S
N239 H244 0.984 . S
N239 H245 0.985 . S
C240 C234 1.379 . S
C240 C237 1.363 1_556 S
C240 N238 1.356 . S
C241 C235 1.363 . S
C241 C236 1.379 . S
C241 N239 1.356 . S
N242 C234 1.356 . S
N242 H248 0.984 . S
N242 H249 0.984 . S
N243 C236 1.356 . S
N243 H246 0.984 . S
N243 H247 0.985 . S
H244 N239 0.984 . S
H245 N239 0.985 . S
H246 N243 0.984 . S
H247 N243 0.985 . S
H248 N242 0.984 . S
H249 N242 0.984 . S
H250 N238 0.984 . S
H251 N238 0.985 . S
C252 C253 1.359 1_554 S
C252 C258 1.377 . S
C252 N260 1.361 . S
C253 C252 1.359 1_556 S
C253 C259 1.369 . S
C254 C255 1.363 . S
C254 C259 1.379 . S
C254 N261 1.356 . S
C255 C254 1.363 . S
C255 C258 1.362 1_556 S
N256 C258 1.356 . S
N256 H268 0.984 . S
N256 H269 0.987 . S
N257 C259 1.356 . S
N257 H262 0.984 1_655 S
N257 H263 0.985 1_655 S
C258 C252 1.377 . S
C258 C255 1.362 1_554 S
C258 N256 1.356 . S
C259 C253 1.369 . S
C259 C254 1.379 . S
C259 N257 1.356 . S
N260 C252 1.361 . S
N260 H266 0.984 . S
N260 H267 0.984 . S
N261 C254 1.356 . S
N261 H264 0.984 . S
N261 H265 0.985 . S
H262 N257 0.984 1_455 S
H263 N257 0.985 1_455 S
H264 N261 0.984 . S
H265 N261 0.985 . S
H266 N260 0.984 . S
H267 N260 0.984 . S
H268 N256 0.984 . S
H269 N256 0.987 . S
C270 C271 1.363 . S
C270 C276 1.379 . S
C270 N278 1.356 . S
C271 C270 1.363 . S
C271 C277 1.363 . S
C272 C273 1.363 . S
C272 C277 1.379 . S
C272 N279 1.356 . S
C273 C272 1.363 . S
C273 C276 1.363 . S
N274 C276 1.356 . S
N274 H286 0.984 . S
N274 H287 0.985 . S
N275 C277 1.356 . S
N275 H280 0.984 . S
N275 H281 0.985 . S
C276 C270 1.379 . S
C276 C273 1.363 . S
C276 N274 1.356 . S
C277 C271 1.363 . S
C277 C272 1.379 . S
C277 N275 1.356 . S
N278 C270 1.356 . S
N278 H284 0.984 . S
N278 H285 0.984 . S
N279 C272 1.356 . S
N279 H282 0.984 . S
N279 H283 0.985 . S
H280 N275 0.984 . S
H281 N275 0.985 . S
H282 N279 0.984 . S
H283 N279 0.985 . S
H284 N278 0.984 . S
H285 N278 0.984 . S
H286 N274 0.984 . S
H287 N274 0.985 . S
C288 C289 1.363 . S
C288 C294 1.379 . S
C288 N296 1.356 . S
C289 C288 1.363 . S
C289 C295 1.363 . S
C290 C291 1.363 . S
C290 C295 1.379 . S
C290 N297 1.356 . S
C291 C290 1.363 . S
C291 C294 1.363 . S
N292 C294 1.356 . S
N292 H304 0.984 . S
N292 H305 0.985 . S
N293 C295 1.356 . S
N293 H298 0.984 . S
N293 H299 0.985 . S
C294 C288 1.379 . S
C294 C291 1.363 . S
C294 N292 1.356 . S
C295 C289 1.363 . S
C295 C290 1.379 . S
C295 N293 1.356 . S
N296 C288 1.356 . S
N296 H302 0.984 . S
N296 H303 0.984 . S
N297 C290 1.356 . S
N297 H300 0.984 . S
N297 H301 0.985 . S
H298 N293 0.984 . S
H299 N293 0.985 . S
H300 N297 0.984 . S
H301 N297 0.985 . S
H302 N296 0.984 . S
H303 N296 0.984 . S
H304 N292 0.984 . S
H305 N292 0.985 . S
C306 C307 1.363 . S
C306 C312 1.379 . S
C306 N314 1.356 . S
C307 C306 1.363 . S
C307 C313 1.363 . S
C308 C309 1.363 . S
C308 C313 1.379 . S
C308 N315 1.356 . S
C309 C308 1.363 . S
C309 C312 1.363 . S
N310 C312 1.356 . S
N310 H322 0.984 . S
N310 H323 0.985 . S
N311 C313 1.356 . S
N311 H316 0.984 . S
N311 H317 0.985 . S
C312 C306 1.379 . S
C312 C309 1.363 . S
C312 N310 1.356 . S
C313 C307 1.363 . S
C313 C308 1.379 . S
C313 N311 1.356 . S
N314 C306 1.356 . S
N314 H320 0.984 . S
N314 H321 0.984 . S
N315 C308 1.356 . S
N315 H318 0.984 . S
N315 H319 0.985 . S
H316 N311 0.984 . S
H317 N311 0.985 . S
H318 N315 0.984 . S
H319 N315 0.985 . S
H320 N314 0.984 . S
H321 N314 0.984 . S
H322 N310 0.984 . S
H323 N310 0.985 . S
C324 C325 1.363 . S
C324 C330 1.379 . S
C324 N332 1.356 . S
C325 C324 1.363 . S
C325 C331 1.363 . S
C326 C327 1.363 . S
C326 C331 1.379 . S
C326 N333 1.356 . S
C327 C326 1.363 . S
C327 C330 1.363 . S
N328 C330 1.356 . S
N328 H340 0.984 . S
N328 H341 0.985 . S
N329 C331 1.356 . S
N329 H334 0.984 . S
N329 H335 0.985 . S
C330 C324 1.379 . S
C330 C327 1.363 . S
C330 N328 1.356 . S
C331 C325 1.363 . S
C331 C326 1.379 . S
C331 N329 1.356 . S
N332 C324 1.356 . S
N332 H338 0.984 . S
N332 H339 0.984 . S
N333 C326 1.356 . S
N333 H336 0.984 . S
N333 H337 0.985 . S
H334 N329 0.984 . S
H335 N329 0.985 . S
H336 N333 0.984 . S
H337 N333 0.985 . S
H338 N332 0.984 . S
H339 N332 0.984 . S
H340 N328 0.984 . S
H341 N328 0.985 . S
C342 C343 1.363 . S
C342 C348 1.379 . S
C342 N350 1.356 . S
C343 C342 1.363 . S
C343 C349 1.363 1_545 S
C344 C345 1.363 . S
C344 C349 1.379 . S
C344 N351 1.356 . S
C345 C344 1.363 . S
C345 C348 1.363 1_565 S
N346 C348 1.356 . S
N346 H358 0.984 . S
N346 H359 0.985 . S
N347 C349 1.356 . S
N347 H352 0.984 . S
N347 H353 0.985 . S
C348 C342 1.379 . S
C348 C345 1.363 1_545 S
C348 N346 1.356 . S
C349 C343 1.363 1_565 S
C349 C344 1.379 . S
C349 N347 1.356 . S
N350 C342 1.356 . S
N350 H356 0.984 . S
N350 H357 0.984 . S
N351 C344 1.356 . S
N351 H354 0.984 . S
N351 H355 0.985 . S
H352 N347 0.984 . S
H353 N347 0.985 . S
H354 N351 0.984 . S
H355 N351 0.985 . S
H356 N350 0.984 . S
H357 N350 0.984 . S
H358 N346 0.984 . S
H359 N346 0.985 . S
C360 C361 1.363 . S
C360 C366 1.379 . S
C360 N368 1.356 1_545 S
C361 C360 1.363 . S
C361 C367 1.370 . S
C362 C363 1.363 1_655 S
C362 C367 1.377 1_655 S
C362 N369 1.356 . S
C363 C362 1.363 1_455 S
C363 C366 1.363 . S
N364 C366 1.356 . S
N364 H376 0.984 1_545 S
N364 H377 0.985 . S
N365 C367 1.353 1_655 S
N365 H370 0.984 . S
N365 H371 0.985 . S
C366 C360 1.379 . S
C366 C363 1.363 . S
C366 N364 1.356 . S
C367 C361 1.370 . S
C367 C362 1.377 1_455 S
C367 N365 1.353 1_455 S
N368 C360 1.356 1_565 S
N368 H374 0.984 . S
N368 H375 0.984 . S
N369 C362 1.356 . S
N369 H372 0.984 . S
N369 H373 0.985 . S
H370 N365 0.984 . S
H371 N365 0.985 . S
H372 N369 0.984 . S
H373 N369 0.985 . S
H374 N368 0.984 . S
H375 N368 0.984 . S
H376 N364 0.984 1_565 S
H377 N364 0.985 . S
C378 C379 1.363 . S
C378 C384 1.379 . S
C378 N386 1.356 . S
C379 C378 1.363 . S
C379 C385 1.363 . S
C380 C381 1.363 . S
C380 C385 1.379 . S
C380 N387 1.356 . S
C381 C380 1.363 . S
C381 C384 1.363 . S
N382 C384 1.356 . S
N382 H394 0.984 . S
N382 H395 0.985 . S
N383 C385 1.356 . S
N383 H388 0.984 . S
N383 H389 0.985 . S
C384 C378 1.379 . S
C384 C381 1.363 . S
C384 N382 1.356 . S
C385 C379 1.363 . S
C385 C380 1.379 . S
C385 N383 1.356 . S
N386 C378 1.356 . S
N386 H392 0.984 . S
N386 H393 0.984 . S
N387 C380 1.356 . S
N387 H390 0.984 . S
N387 H391 0.985 . S
H388 N383 0.984 . S
H389 N383 0.985 . S
H390 N387 0.984 . S
H391 N387 0.985 . S
H392 N386 0.984 . S
H393 N386 0.984 . S
H394 N382 0.984 . S
H395 N382 0.985 . S
C396 C397 1.363 . S
C396 C402 1.379 . S
C396 N404 1.356 . S
C397 C396 1.363 . S
C397 C403 1.363 . S
C398 C399 1.363 . S
C398 C403 1.379 . S
C398 N405 1.356 . S
C399 C398 1.363 . S
C399 C402 1.363 . S
N400 C402 1.356 . S
N400 H412 0.984 . S
N400 H413 0.985 . S
N401 C403 1.356 . S
N401 H406 0.984 . S
N401 H407 0.985 . S
C402 C396 1.379 . S
C402 C399 1.363 . S
C402 N400 1.356 . S
C403 C397 1.363 . S
C403 C398 1.379 . S
C403 N401 1.356 . S
N404 C396 1.356 . S
N404 H410 0.984 . S
N404 H411 0.984 . S
N405 C398 1.356 . S
N405 H408 0.984 . S
N405 H409 0.985 . S
H406 N401 0.984 . S
H407 N401 0.985 . S
H408 N405 0.984 . S
H409 N405 0.985 . S
H410 N404 0.984 . S
H411 N404 0.984 . S
H412 N400 0.984 . S
H413 N400 0.985 . S
C201 C175 1.549 . S
C199 C16 1.509 . S
C217 C15 1.617 . S
C219 C136 1.579 1_554 S
C235 C13 1.322 . S
C237 C180 1.542 . S
C253 C14 1.424 . S
C255 C141 1.454 . S
C271 C37 1.509 . S
C273 C97 1.550 . S
C289 C36 1.617 . S
C291 C58 1.579 . S
C309 C102 1.542 . S
C307 C34 1.309 . S
C327 C63 1.454 . S
C325 C35 1.425 . S
C343 C17 1.520 . S
C345 C43 1.559 . S
C361 C18 1.407 . S
C363 C82 1.460 . S
C381 C121 1.559 . S
C379 C38 1.520 . S
C397 C39 1.407 . S
C399 C160 1.460 . S
