# Generated by pormake.
# Topology eea, (3,6)-cn, num edge types: 1
# Building blocks:
#     Node 0, Type 0, BuildingBlock: KAKCAD_clean_linker_0, # of connection points: 3
#     Node 1, Type 0, BuildingBlock: KAKCAD_clean_linker_0, # of connection points: 3
#     Node 2, Type 0, BuildingBlock: KAKCAD_clean_linker_0, # of connection points: 3
#     Node 3, Type 0, BuildingBlock: KAKCAD_clean_linker_0, # of connection points: 3
#     Node 4, Type 0, BuildingBlock: KAKCAD_clean_linker_0, # of connection points: 3
#     Node 5, Type 0, BuildingBlock: KAKCAD_clean_linker_0, # of connection points: 3
#     Node 6, Type 0, BuildingBlock: KAKCAD_clean_linker_0, # of connection points: 3
#     Node 7, Type 0, BuildingBlock: KAKCAD_clean_linker_0, # of connection points: 3
#     Node 8, Type 0, BuildingBlock: KAKCAD_clean_linker_0, # of connection points: 3
#     Node 9, Type 0, BuildingBlock: KAKCAD_clean_linker_0, # of connection points: 3
#     Node 10, Type 0, BuildingBlock: KAKCAD_clean_linker_0, # of connection points: 3
#     Node 11, Type 0, BuildingBlock: KAKCAD_clean_linker_0, # of connection points: 3
#     Node 12, Type 0, BuildingBlock: KAKCAD_clean_linker_0, # of connection points: 3
#     Node 13, Type 0, BuildingBlock: KAKCAD_clean_linker_0, # of connection points: 3
#     Node 14, Type 0, BuildingBlock: KAKCAD_clean_linker_0, # of connection points: 3
#     Node 15, Type 0, BuildingBlock: KAKCAD_clean_linker_0, # of connection points: 3
#     Node 16, Type 0, BuildingBlock: KAKCAD_clean_linker_0, # of connection points: 3
#     Node 17, Type 0, BuildingBlock: KAKCAD_clean_linker_0, # of connection points: 3
#     Node 18, Type 1, BuildingBlock: NUHQIS_clean_sbu_0, # of connection points: 6
#     Node 19, Type 1, BuildingBlock: NUHQIS_clean_sbu_0, # of connection points: 6
#     Node 20, Type 1, BuildingBlock: NUHQIS_clean_sbu_0, # of connection points: 6
#     Node 21, Type 1, BuildingBlock: NUHQIS_clean_sbu_0, # of connection points: 6
#     Node 22, Type 1, BuildingBlock: NUHQIS_clean_sbu_0, # of connection points: 6
#     Node 23, Type 1, BuildingBlock: NUHQIS_clean_sbu_0, # of connection points: 6
#     Node 24, Type 1, BuildingBlock: NUHQIS_clean_sbu_0, # of connection points: 6
#     Node 25, Type 1, BuildingBlock: NUHQIS_clean_sbu_0, # of connection points: 6
#     Node 26, Type 1, BuildingBlock: NUHQIS_clean_sbu_0, # of connection points: 6
#     Edge 27, Type (0, 1), BuildingBlock: ZUJKAS_clean_linker_0, # of connection points: 2
#     Edge 28, Type (0, 1), BuildingBlock: ZUJKAS_clean_linker_0, # of connection points: 2
#     Edge 29, Type (0, 1), BuildingBlock: ZUJKAS_clean_linker_0, # of connection points: 2
#     Edge 30, Type (0, 1), BuildingBlock: ZUJKAS_clean_linker_0, # of connection points: 2
#     Edge 31, Type (0, 1), BuildingBlock: ZUJKAS_clean_linker_0, # of connection points: 2
#     Edge 32, Type (0, 1), BuildingBlock: ZUJKAS_clean_linker_0, # of connection points: 2
#     Edge 33, Type (0, 1), BuildingBlock: ZUJKAS_clean_linker_0, # of connection points: 2
#     Edge 34, Type (0, 1), BuildingBlock: ZUJKAS_clean_linker_0, # of connection points: 2
#     Edge 35, Type (0, 1), BuildingBlock: ZUJKAS_clean_linker_0, # of connection points: 2
#     Edge 36, Type (0, 1), BuildingBlock: ZUJKAS_clean_linker_0, # of connection points: 2
#     Edge 37, Type (0, 1), BuildingBlock: ZUJKAS_clean_linker_0, # of connection points: 2
#     Edge 38, Type (0, 1), BuildingBlock: ZUJKAS_clean_linker_0, # of connection points: 2
#     Edge 39, Type (0, 1), BuildingBlock: ZUJKAS_clean_linker_0, # of connection points: 2
#     Edge 40, Type (0, 1), BuildingBlock: ZUJKAS_clean_linker_0, # of connection points: 2
#     Edge 41, Type (0, 1), BuildingBlock: ZUJKAS_clean_linker_0, # of connection points: 2
#     Edge 42, Type (0, 1), BuildingBlock: ZUJKAS_clean_linker_0, # of connection points: 2
#     Edge 43, Type (0, 1), BuildingBlock: ZUJKAS_clean_linker_0, # of connection points: 2
#     Edge 44, Type (0, 1), BuildingBlock: ZUJKAS_clean_linker_0, # of connection points: 2
#     Edge 45, Type (0, 1), BuildingBlock: ZUJKAS_clean_linker_0, # of connection points: 2
#     Edge 46, Type (0, 1), BuildingBlock: ZUJKAS_clean_linker_0, # of connection points: 2
#     Edge 47, Type (0, 1), BuildingBlock: ZUJKAS_clean_linker_0, # of connection points: 2
#     Edge 48, Type (0, 1), BuildingBlock: ZUJKAS_clean_linker_0, # of connection points: 2
#     Edge 49, Type (0, 1), BuildingBlock: ZUJKAS_clean_linker_0, # of connection points: 2
#     Edge 50, Type (0, 1), BuildingBlock: ZUJKAS_clean_linker_0, # of connection points: 2
#     Edge 51, Type (0, 1), BuildingBlock: ZUJKAS_clean_linker_0, # of connection points: 2
#     Edge 52, Type (0, 1), BuildingBlock: ZUJKAS_clean_linker_0, # of connection points: 2
#     Edge 53, Type (0, 1), BuildingBlock: ZUJKAS_clean_linker_0, # of connection points: 2
#     Edge 54, Type (0, 1), BuildingBlock: ZUJKAS_clean_linker_0, # of connection points: 2
#     Edge 55, Type (0, 1), BuildingBlock: ZUJKAS_clean_linker_0, # of connection points: 2
#     Edge 56, Type (0, 1), BuildingBlock: ZUJKAS_clean_linker_0, # of connection points: 2
#     Edge 57, Type (0, 1), BuildingBlock: ZUJKAS_clean_linker_0, # of connection points: 2
#     Edge 58, Type (0, 1), BuildingBlock: ZUJKAS_clean_linker_0, # of connection points: 2
#     Edge 59, Type (0, 1), BuildingBlock: ZUJKAS_clean_linker_0, # of connection points: 2
#     Edge 60, Type (0, 1), BuildingBlock: ZUJKAS_clean_linker_0, # of connection points: 2
#     Edge 61, Type (0, 1), BuildingBlock: ZUJKAS_clean_linker_0, # of connection points: 2
#     Edge 62, Type (0, 1), BuildingBlock: ZUJKAS_clean_linker_0, # of connection points: 2
#     Edge 63, Type (0, 1), BuildingBlock: ZUJKAS_clean_linker_0, # of connection points: 2
#     Edge 64, Type (0, 1), BuildingBlock: ZUJKAS_clean_linker_0, # of connection points: 2
#     Edge 65, Type (0, 1), BuildingBlock: ZUJKAS_clean_linker_0, # of connection points: 2
#     Edge 66, Type (0, 1), BuildingBlock: ZUJKAS_clean_linker_0, # of connection points: 2
#     Edge 67, Type (0, 1), BuildingBlock: ZUJKAS_clean_linker_0, # of connection points: 2
#     Edge 68, Type (0, 1), BuildingBlock: ZUJKAS_clean_linker_0, # of connection points: 2
#     Edge 69, Type (0, 1), BuildingBlock: ZUJKAS_clean_linker_0, # of connection points: 2
#     Edge 70, Type (0, 1), BuildingBlock: ZUJKAS_clean_linker_0, # of connection points: 2
#     Edge 71, Type (0, 1), BuildingBlock: ZUJKAS_clean_linker_0, # of connection points: 2
#     Edge 72, Type (0, 1), BuildingBlock: ZUJKAS_clean_linker_0, # of connection points: 2
#     Edge 73, Type (0, 1), BuildingBlock: ZUJKAS_clean_linker_0, # of connection points: 2
#     Edge 74, Type (0, 1), BuildingBlock: ZUJKAS_clean_linker_0, # of connection points: 2
#     Edge 75, Type (0, 1), BuildingBlock: ZUJKAS_clean_linker_0, # of connection points: 2
#     Edge 76, Type (0, 1), BuildingBlock: ZUJKAS_clean_linker_0, # of connection points: 2
#     Edge 77, Type (0, 1), BuildingBlock: ZUJKAS_clean_linker_0, # of connection points: 2
#     Edge 78, Type (0, 1), BuildingBlock: ZUJKAS_clean_linker_0, # of connection points: 2
#     Edge 79, Type (0, 1), BuildingBlock: ZUJKAS_clean_linker_0, # of connection points: 2
#     Edge 80, Type (0, 1), BuildingBlock: ZUJKAS_clean_linker_0, # of connection points: 2
# Relax obj value: 0.034
# Max RMSD: 0.134
# Mean RMSD: 0.066
data_MOF--net-eea--node1-NUHQIS_clean_sbu_0--node2-KAKCAD_clean_linker_0--edge1-ZUJKAS_clean_linker_0
_symmetry_space_group_name_H-M    P1
_symmetry_Int_Tables_number       1
_symmetry_cell_setting            triclinic
loop_
_symmetry_equiv_pos_as_xyz
'x, y, z'
_cell_length_a     78.246368
_cell_length_b     78.467223
_cell_length_c     107.31325
_cell_angle_alpha  93.555377
_cell_angle_beta   93.741531
_cell_angle_gamma 119.83089
loop_
_atom_site_label
_atom_site_type_symbol
_atom_site_fract_x
_atom_site_fract_y
_atom_site_fract_z
_atom_type_partial_charge
C0 C 0.31154 0.17899 0.46939 0.0
C1 C 0.32353 0.17174 0.47419 0.0
C2 C 0.30604 0.17666 0.45648 0.0
C3 C 0.31252 0.16717 0.44807 0.0
C4 C 0.32497 0.16041 0.45287 0.0
C5 C 0.33035 0.1626 0.4658 0.0
C6 C 0.3054 0.16339 0.43445 0.0
C7 C 0.30295 0.17747 0.42831 0.0
C8 C 0.29443 0.17322 0.41576 0.0
C9 C 0.28889 0.15484 0.40923 0.0
C10 C 0.29138 0.14065 0.41516 0.0
C11 C 0.29969 0.14507 0.42774 0.0
C12 C 0.28403 0.12071 0.40851 0.0
C13 C 0.2654 0.1107 0.40132 0.0
C14 C 0.2952 0.11124 0.40966 0.0
C15 C 0.28775 0.09204 0.40392 0.0
C16 C 0.26895 0.08191 0.39694 0.0
C17 C 0.28979 0.18722 0.40976 0.0
C18 C 0.28175 0.19693 0.41657 0.0
C19 C 0.29202 0.18994 0.39701 0.0
C20 C 0.2857 0.20154 0.3911 0.0
C21 C 0.27714 0.21075 0.39784 0.0
C22 C 0.27554 0.20859 0.41068 0.0
C23 C 0.25795 0.09152 0.3956 0.0
H24 H 0.30585 0.18586 0.47564 0.0
H25 H 0.29615 0.18173 0.45315 0.0
H26 H 0.33047 0.1533 0.44665 0.0
H27 H 0.33982 0.1571 0.46924 0.0
H28 H 0.30753 0.19174 0.43334 0.0
H29 H 0.30074 0.13379 0.43252 0.0
H30 H 0.28205 0.1513 0.39961 0.0
H31 H 0.25632 0.11749 0.40037 0.0
H32 H 0.30967 0.11864 0.41507 0.0
H33 H 0.29651 0.08496 0.40521 0.0
H34 H 0.27949 0.19489 0.42634 0.0
H35 H 0.29843 0.1829 0.39156 0.0
H36 H 0.2435 0.08417 0.39018 0.0
H37 H 0.26875 0.21528 0.41608 0.0
H38 H 0.28736 0.20317 0.38123 0.0
C39 C 0.87959 0.17866 0.47231 0.0
C40 C 0.8738 0.16443 0.48089 0.0
C41 C 0.88172 0.17395 0.45993 0.0
C42 C 0.87782 0.15486 0.45588 0.0
C43 C 0.87226 0.14073 0.4645 0.0
C44 C 0.87034 0.14549 0.47688 0.0
C45 C 0.87901 0.14939 0.44262 0.0
C46 C 0.89564 0.16144 0.43656 0.0
C47 C 0.89707 0.15586 0.42411 0.0
C48 C 0.88136 0.13814 0.41775 0.0
C49 C 0.86481 0.1258 0.42376 0.0
C50 C 0.8637 0.13165 0.43616 0.0
C51 C 0.84933 0.1062 0.41741 0.0
C52 C 0.8423 0.1039 0.40466 0.0
C53 C 0.84204 0.08946 0.424 0.0
C54 C 0.8283 0.0708 0.41795 0.0
C55 C 0.82155 0.0684 0.40516 0.0
C56 C 0.91536 0.16789 0.41799 0.0
C57 C 0.92608 0.18863 0.42033 0.0
C58 C 0.92248 0.15862 0.40991 0.0
C59 C 0.93972 0.16973 0.40428 0.0
C60 C 0.95065 0.19044 0.40677 0.0
C61 C 0.94356 0.19975 0.41487 0.0
C62 C 0.82851 0.08518 0.3986 0.0
H63 H 0.88248 0.19341 0.47518 0.0
H64 H 0.88597 0.18508 0.45345 0.0
H65 H 0.86935 0.12596 0.46165 0.0
H66 H 0.86568 0.13417 0.48324 0.0
H67 H 0.90779 0.1747 0.44176 0.0
H68 H 0.8508 0.12238 0.44079 0.0
H69 H 0.88219 0.13364 0.40817 0.0
H70 H 0.84752 0.11655 0.39936 0.0
H71 H 0.84731 0.09068 0.43378 0.0
H72 H 0.82302 0.0582 0.42331 0.0
H73 H 0.92097 0.19635 0.42637 0.0
H74 H 0.91494 0.14268 0.40804 0.0
H75 H 0.82366 0.0838 0.38872 0.0
H76 H 0.95165 0.21564 0.41716 0.0
H77 H 0.94442 0.16198 0.39793 0.0
C78 C 0.89267 0.73423 0.48232 0.0
C79 C 0.87316 0.72064 0.48443 0.0
C80 C 0.89671 0.74183 0.47074 0.0
C81 C 0.88133 0.73589 0.46098 0.0
C82 C 0.86188 0.72191 0.46302 0.0
C83 C 0.85784 0.71445 0.47463 0.0
C84 C 0.88538 0.74458 0.44882 0.0
C85 C 0.90261 0.74844 0.44331 0.0
C86 C 0.90645 0.75676 0.43187 0.0
C87 C 0.89277 0.76111 0.42588 0.0
C88 C 0.87553 0.75747 0.43126 0.0
C89 C 0.87203 0.74929 0.44274 0.0
C90 C 0.8613 0.76249 0.42503 0.0
C91 C 0.86813 0.78015 0.41942 0.0
C92 C 0.84075 0.74977 0.42481 0.0
C93 C 0.82736 0.75467 0.41922 0.0
C94 C 0.83418 0.77239 0.41368 0.0
C95 C 0.92491 0.76128 0.42625 0.0
C96 C 0.94326 0.77063 0.43374 0.0
C97 C 0.92439 0.75682 0.41329 0.0
C98 C 0.94187 0.76185 0.40791 0.0
C99 C 0.96027 0.77155 0.41537 0.0
C100 C 0.96076 0.77577 0.42835 0.0
C101 C 0.85473 0.78502 0.4138 0.0
H102 H 0.90475 0.7394 0.48975 0.0
H103 H 0.91181 0.75275 0.46955 0.0
H104 H 0.84973 0.71667 0.45564 0.0
H105 H 0.8427 0.70374 0.47591 0.0
H106 H 0.91287 0.74462 0.44779 0.0
H107 H 0.85912 0.74711 0.44716 0.0
H108 H 0.89564 0.76749 0.41705 0.0
H109 H 0.88385 0.79039 0.41954 0.0
H110 H 0.83498 0.73594 0.42892 0.0
H111 H 0.81165 0.74469 0.41942 0.0
H112 H 0.94415 0.77439 0.44374 0.0
H113 H 0.91045 0.74946 0.40729 0.0
H114 H 0.8605 0.79867 0.40948 0.0
H115 H 0.97469 0.78305 0.43436 0.0
H116 H 0.94101 0.75854 0.39787 0.0
C117 C 0.13339 0.25949 0.54017 0.0
C118 C 0.13083 0.27557 0.53785 0.0
C119 C 0.12966 0.25161 0.55166 0.0
C120 C 0.12315 0.25951 0.5611 0.0
C121 C 0.12015 0.27529 0.55872 0.0
C122 C 0.12401 0.28329 0.54724 0.0
C123 C 0.11993 0.25149 0.57345 0.0
C124 C 0.13398 0.24768 0.57947 0.0
C125 C 0.13107 0.23968 0.59101 0.0
C126 C 0.11386 0.23562 0.59659 0.0
C127 C 0.09958 0.23932 0.59073 0.0
C128 C 0.10283 0.24738 0.57917 0.0
C129 C 0.08114 0.2344 0.59659 0.0
C130 C 0.07133 0.21701 0.60248 0.0
C131 C 0.07322 0.24702 0.59639 0.0
C132 C 0.05597 0.2424 0.60196 0.0
C133 C 0.04623 0.22506 0.60792 0.0
C134 C 0.14591 0.23534 0.59713 0.0
C135 C 0.15503 0.22723 0.5899 0.0
C136 C 0.15104 0.23918 0.61023 0.0
C137 C 0.16489 0.23495 0.61593 0.0
C138 C 0.17401 0.2269 0.60867 0.0
C139 C 0.16894 0.22312 0.5956 0.0
C140 C 0.05415 0.21243 0.6081 0.0
H141 H 0.13816 0.25285 0.53307 0.0
H142 H 0.13178 0.23922 0.55314 0.0
H143 H 0.11529 0.28178 0.56587 0.0
H144 H 0.12208 0.2958 0.54584 0.0
H145 H 0.14741 0.2513 0.57522 0.0
H146 H 0.09174 0.24985 0.5744 0.0
H147 H 0.1115 0.22942 0.60548 0.0
H148 H 0.07683 0.20679 0.60267 0.0
H149 H 0.08048 0.26062 0.59203 0.0
H150 H 0.05017 0.25235 0.6015 0.0
H151 H 0.15117 0.22375 0.57983 0.0
H152 H 0.14454 0.2457 0.61606 0.0
H153 H 0.04721 0.19907 0.61272 0.0
H154 H 0.17548 0.21662 0.58977 0.0
H155 H 0.16867 0.23825 0.62602 0.0
C156 C 0.67412 0.81942 0.55898 0.0
C157 C 0.68178 0.83428 0.55087 0.0
C158 C 0.68 0.824 0.57192 0.0
C159 C 0.69369 0.84352 0.57698 0.0
C160 C 0.70129 0.85834 0.56883 0.0
C161 C 0.69537 0.85379 0.55595 0.0
C162 C 0.70072 0.84846 0.59062 0.0
C163 C 0.70554 0.83618 0.59714 0.0
C164 C 0.71413 0.84178 0.60969 0.0
C165 C 0.71766 0.85981 0.61577 0.0
C166 C 0.71299 0.87229 0.60939 0.0
C167 C 0.70417 0.86631 0.5969 0.0
C168 C 0.71902 0.89236 0.61532 0.0
C169 C 0.71671 0.89555 0.62798 0.0
C170 C 0.72812 0.90868 0.60842 0.0
C171 C 0.73506 0.92777 0.61408 0.0
C172 C 0.73314 0.93104 0.62679 0.0
C173 C 0.72104 0.82967 0.61603 0.0
C174 C 0.70934 0.80894 0.61474 0.0
C175 C 0.73992 0.83876 0.62288 0.0
C176 C 0.74712 0.82739 0.62807 0.0
C177 C 0.73564 0.80666 0.62653 0.0
C178 C 0.71655 0.79755 0.61997 0.0
C179 C 0.72364 0.91472 0.63366 0.0
H180 H 0.66348 0.80427 0.55534 0.0
H181 H 0.67376 0.81228 0.57796 0.0
H182 H 0.71222 0.87345 0.57236 0.0
H183 H 0.70183 0.8655 0.54991 0.0
H184 H 0.7037 0.82279 0.59221 0.0
H185 H 0.70028 0.87577 0.59199 0.0
H186 H 0.72473 0.86445 0.62535 0.0
H187 H 0.70964 0.88325 0.63351 0.0
H188 H 0.73038 0.90678 0.59869 0.0
H189 H 0.74205 0.94001 0.60849 0.0
H190 H 0.69469 0.80154 0.60958 0.0
H191 H 0.7494 0.85468 0.62391 0.0
H192 H 0.72203 0.91679 0.64349 0.0
H193 H 0.7074 0.7816 0.61856 0.0
H194 H 0.76179 0.83484 0.63321 0.0
C195 C 0.11399 0.82148 0.54511 0.0
C196 C 0.13307 0.8264 0.54222 0.0
C197 C 0.11106 0.82667 0.55716 0.0
C198 C 0.12715 0.83682 0.56659 0.0
C199 C 0.14608 0.84101 0.56381 0.0
C200 C 0.14902 0.83591 0.55176 0.0
C201 C 0.12444 0.84406 0.57903 0.0
C202 C 0.10758 0.83242 0.58505 0.0
C203 C 0.10461 0.83971 0.59652 0.0
C204 C 0.11881 0.85882 0.60199 0.0
C205 C 0.13573 0.87065 0.59612 0.0
C206 C 0.13842 0.86314 0.58466 0.0
C207 C 0.15024 0.89117 0.60163 0.0
C208 C 0.1437 0.90372 0.60647 0.0
C209 C 0.17071 0.89854 0.60174 0.0
C210 C 0.18434 0.9181 0.60645 0.0
C211 C 0.17778 0.93073 0.61113 0.0
C212 C 0.08639 0.82768 0.60262 0.0
C213 C 0.06779 0.81708 0.59542 0.0
C214 C 0.08737 0.82723 0.61571 0.0
C215 C 0.07012 0.81667 0.6215 0.0
C216 C 0.05149 0.8063 0.61431 0.0
C217 C 0.05055 0.80651 0.6012 0.0
C218 C 0.15731 0.92328 0.61116 0.0
H219 H 0.10144 0.81432 0.53793 0.0
H220 H 0.09633 0.82342 0.55893 0.0
H221 H 0.15872 0.84846 0.57092 0.0
H222 H 0.16383 0.83959 0.54987 0.0
H223 H 0.09686 0.8176 0.58086 0.0
H224 H 0.15106 0.87251 0.57986 0.0
H225 H 0.11656 0.86463 0.61077 0.0
H226 H 0.12802 0.89855 0.60641 0.0
H227 H 0.17621 0.88917 0.59816 0.0
H228 H 0.2 0.92342 0.60622 0.0
H229 H 0.06649 0.81736 0.58533 0.0
H230 H 0.1015 0.83499 0.62151 0.0
H231 H 0.1518 0.93258 0.61484 0.0
H232 H 0.03641 0.79891 0.59541 0.0
H233 H 0.07139 0.81653 0.6316 0.0
C234 C 0.98216 0.51776 0.80294 0.0
C235 C 0.99631 0.5133 0.80796 0.0
C236 C 0.97564 0.5135 0.79012 0.0
C237 C 0.98325 0.50481 0.78197 0.0
C238 C 0.99762 0.50059 0.78699 0.0
C239 C 0.00403 0.50472 0.79986 0.0
C240 C 0.97569 0.49967 0.7684 0.0
C241 C 0.97107 0.51214 0.76193 0.0
C242 C 0.96229 0.50664 0.74944 0.0
C243 C 0.95881 0.48878 0.74322 0.0
C244 C 0.96327 0.47603 0.74949 0.0
C245 C 0.97181 0.48165 0.76207 0.0
C246 C 0.95756 0.45622 0.74322 0.0
C247 C 0.93932 0.44499 0.73568 0.0
C248 C 0.96989 0.44808 0.74503 0.0
C249 C 0.96396 0.42906 0.73955 0.0
C250 C 0.94566 0.41785 0.73209 0.0
C251 C 0.95497 0.51856 0.74329 0.0
C252 C 0.94431 0.5255 0.74989 0.0
C253 C 0.95743 0.52205 0.73066 0.0
C254 C 0.9491 0.53199 0.7247 0.0
C255 C 0.93801 0.53846 0.73124 0.0
C256 C 0.93592 0.53532 0.74393 0.0
C257 C 0.93348 0.42608 0.73015 0.0
H258 H 0.97568 0.52406 0.80898 0.0
H259 H 0.96424 0.51656 0.78665 0.0
H260 H 0.00396 0.49412 0.78097 0.0
H261 H 0.01509 0.50129 0.80347 0.0
H262 H 0.97408 0.52612 0.76667 0.0
H263 H 0.97445 0.47152 0.76713 0.0
H264 H 0.95192 0.48444 0.7336 0.0
H265 H 0.92924 0.45057 0.73432 0.0
H266 H 0.98412 0.45642 0.75067 0.0
H267 H 0.97371 0.42312 0.74111 0.0
H268 H 0.94194 0.52284 0.75958 0.0
H269 H 0.96566 0.51695 0.72537 0.0
H270 H 0.91913 0.41766 0.72464 0.0
H271 H 0.9277 0.54039 0.74926 0.0
H272 H 0.9509 0.53418 0.7149 0.0
C273 C 0.54879 0.51921 0.80619 0.0
C274 C 0.54319 0.50576 0.81527 0.0
C275 C 0.5508 0.51357 0.79398 0.0
C276 C 0.54708 0.49433 0.79059 0.0
C277 C 0.54163 0.48097 0.79971 0.0
C278 C 0.5397 0.48661 0.81189 0.0
C279 C 0.54872 0.488 0.77761 0.0
C280 C 0.56497 0.5002 0.77129 0.0
C281 C 0.56712 0.49365 0.7593 0.0
C282 C 0.55257 0.47484 0.75356 0.0
C283 C 0.53622 0.46251 0.75973 0.0
C284 C 0.53437 0.46926 0.77171 0.0
C285 C 0.5215 0.44223 0.75394 0.0
C286 C 0.51408 0.43867 0.74118 0.0
C287 C 0.51497 0.42621 0.76116 0.0
C288 C 0.50143 0.40704 0.75574 0.0
C289 C 0.49405 0.40343 0.74298 0.0
C290 C 0.58507 0.50599 0.75307 0.0
C291 C 0.59262 0.5264 0.75304 0.0
C292 C 0.59503 0.49741 0.74731 0.0
C293 C 0.61218 0.50897 0.7417 0.0
C294 C 0.61979 0.5294 0.74166 0.0
C295 C 0.60976 0.53798 0.74737 0.0
C296 C 0.50042 0.41947 0.73577 0.0
H297 H 0.5517 0.5341 0.80854 0.0
H298 H 0.55495 0.52416 0.78714 0.0
H299 H 0.53891 0.46612 0.79745 0.0
H300 H 0.53513 0.47581 0.8186 0.0
H301 H 0.57641 0.51442 0.77594 0.0
H302 H 0.52163 0.4599 0.77644 0.0
H303 H 0.55419 0.46963 0.74436 0.0
H304 H 0.51875 0.45074 0.73541 0.0
H305 H 0.52057 0.42845 0.77098 0.0
H306 H 0.49665 0.39503 0.76158 0.0
H307 H 0.58516 0.5334 0.75729 0.0
H308 H 0.5898 0.48178 0.74739 0.0
H309 H 0.49509 0.41713 0.72589 0.0
H310 H 0.61505 0.55362 0.74736 0.0
H311 H 0.61971 0.50192 0.73761 0.0
C312 C 0.55848 0.07036 0.81693 0.0
C313 C 0.53886 0.05652 0.81868 0.0
C314 C 0.56298 0.07826 0.80545 0.0
C315 C 0.54796 0.0724 0.79546 0.0
C316 C 0.52842 0.05817 0.79715 0.0
C317 C 0.52392 0.0504 0.80862 0.0
C318 C 0.55245 0.08138 0.78341 0.0
C319 C 0.5699 0.08542 0.77813 0.0
C320 C 0.57403 0.09385 0.76673 0.0
C321 C 0.5604 0.09811 0.76055 0.0
C322 C 0.54295 0.09432 0.76571 0.0
C323 C 0.53921 0.08608 0.77718 0.0
C324 C 0.52869 0.09915 0.75928 0.0
C325 C 0.53547 0.11661 0.75342 0.0
C326 C 0.50814 0.08648 0.75915 0.0
C327 C 0.49472 0.09129 0.7535 0.0
C328 C 0.50152 0.1088 0.74775 0.0
C329 C 0.59268 0.09846 0.76131 0.0
C330 C 0.61087 0.10768 0.76899 0.0
C331 C 0.59252 0.09419 0.74837 0.0
C332 C 0.61017 0.09925 0.7432 0.0
C333 C 0.62841 0.10879 0.75084 0.0
C334 C 0.62854 0.11284 0.76381 0.0
C335 C 0.52202 0.12133 0.74768 0.0
H336 H 0.57028 0.07548 0.82454 0.0
H337 H 0.57814 0.08935 0.80453 0.0
H338 H 0.51656 0.05298 0.78957 0.0
H339 H 0.50872 0.03949 0.80962 0.0
H340 H 0.58009 0.08162 0.78275 0.0
H341 H 0.52616 0.08378 0.78144 0.0
H342 H 0.56347 0.10452 0.75174 0.0
H343 H 0.55118 0.12686 0.7535 0.0
H344 H 0.50237 0.07273 0.76335 0.0
H345 H 0.47899 0.08119 0.75353 0.0
H346 H 0.6115 0.1113 0.77898 0.0
H347 H 0.57873 0.08692 0.74223 0.0
H348 H 0.5277 0.13504 0.74344 0.0
H349 H 0.64232 0.11999 0.76997 0.0
H350 H 0.60957 0.09607 0.73317 0.0
C351 C 0.79794 0.5943 0.87231 0.0
C352 C 0.79413 0.60964 0.87014 0.0
C353 C 0.7945 0.58605 0.88368 0.0
C354 C 0.78725 0.59299 0.89321 0.0
C355 C 0.78311 0.60812 0.89097 0.0
C356 C 0.78648 0.61633 0.87954 0.0
C357 C 0.78442 0.58468 0.9055 0.0
C358 C 0.79838 0.58035 0.91105 0.0
C359 C 0.79581 0.57214 0.92251 0.0
C360 C 0.77916 0.5686 0.92859 0.0
C361 C 0.76495 0.5728 0.92323 0.0
C362 C 0.76774 0.58085 0.91166 0.0
C363 C 0.74702 0.56838 0.92956 0.0
C364 C 0.73732 0.55116 0.93564 0.0
C365 C 0.73938 0.58126 0.92954 0.0
C366 C 0.72245 0.57699 0.93541 0.0
C367 C 0.71287 0.55983 0.94152 0.0
C368 C 0.81032 0.56687 0.92795 0.0
C369 C 0.81767 0.55747 0.92019 0.0
C370 C 0.8168 0.57101 0.94088 0.0
C371 C 0.83031 0.56584 0.94593 0.0
C372 C 0.83758 0.55634 0.93817 0.0
C373 C 0.83113 0.55226 0.92524 0.0
C374 C 0.72051 0.54699 0.94159 0.0
H375 H 0.80347 0.58856 0.86516 0.0
H376 H 0.79744 0.57413 0.88498 0.0
H377 H 0.7777 0.61394 0.89815 0.0
H378 H 0.78355 0.62824 0.87818 0.0
H379 H 0.81151 0.58366 0.90652 0.0
H380 H 0.7566 0.58356 0.90724 0.0
H381 H 0.77718 0.56237 0.93747 0.0
H382 H 0.74252 0.54069 0.93564 0.0
H383 H 0.74662 0.5948 0.92513 0.0
H384 H 0.71702 0.58727 0.93533 0.0
H385 H 0.81282 0.55388 0.91021 0.0
H386 H 0.81153 0.57839 0.94708 0.0
H387 H 0.71327 0.5335 0.94606 0.0
H388 H 0.83659 0.54515 0.91899 0.0
H389 H 0.83485 0.56903 0.95595 0.0
C390 C 0.33999 0.14883 0.89121 0.0
C391 C 0.35074 0.16276 0.88301 0.0
C392 C 0.34531 0.15329 0.9042 0.0
C393 C 0.36126 0.17185 0.9092 0.0
C394 C 0.37191 0.18576 0.90099 0.0
C395 C 0.36674 0.18125 0.88804 0.0
C396 C 0.36723 0.17679 0.92291 0.0
C397 C 0.37017 0.16384 0.93 0.0
C398 C 0.37813 0.16952 0.94268 0.0
C399 C 0.38255 0.18811 0.94833 0.0
C400 C 0.37964 0.20119 0.94136 0.0
C401 C 0.37175 0.1953 0.9287 0.0
C402 C 0.38656 0.22163 0.94695 0.0
C403 C 0.38326 0.2254 0.95927 0.0
C404 C 0.39738 0.23765 0.94009 0.0
C405 C 0.40498 0.257 0.94549 0.0
C406 C 0.40198 0.26082 0.95787 0.0
C407 C 0.38383 0.15698 0.94959 0.0
C408 C 0.3713 0.13637 0.94859 0.0
C409 C 0.4025 0.16554 0.95664 0.0
C410 C 0.40872 0.15374 0.96232 0.0
C411 C 0.39642 0.13309 0.9611 0.0
C412 C 0.37752 0.12455 0.95432 0.0
C413 C 0.39084 0.24483 0.96467 0.0
H414 H 0.32763 0.13443 0.88755 0.0
H415 H 0.33687 0.14232 0.91035 0.0
H416 H 0.38443 0.2001 0.90457 0.0
H417 H 0.37515 0.19234 0.88196 0.0
H418 H 0.36749 0.14989 0.92542 0.0
H419 H 0.36944 0.2053 0.92325 0.0
H420 H 0.38905 0.19273 0.95803 0.0
H421 H 0.37488 0.21334 0.96475 0.0
H422 H 0.40042 0.23526 0.93064 0.0
H423 H 0.41327 0.26901 0.93995 0.0
H424 H 0.35676 0.12939 0.94331 0.0
H425 H 0.41266 0.18133 0.95738 0.0
H426 H 0.38838 0.24733 0.97426 0.0
H427 H 0.36759 0.1087 0.95334 0.0
H428 H 0.42351 0.1608 0.96726 0.0
C429 C 0.77976 0.15065 0.87765 0.0
C430 C 0.79908 0.15635 0.87492 0.0
C431 C 0.77631 0.15504 0.88973 0.0
C432 C 0.79209 0.16507 0.89937 0.0
C433 C 0.81134 0.17025 0.89669 0.0
C434 C 0.8148 0.16603 0.88459 0.0
C435 C 0.78863 0.17075 0.91205 0.0
C436 C 0.77147 0.15803 0.91748 0.0
C437 C 0.76786 0.1637 0.92925 0.0
C438 C 0.78171 0.18222 0.93567 0.0
C439 C 0.7989 0.19514 0.9304 0.0
C440 C 0.80223 0.18928 0.91861 0.0
C441 C 0.81302 0.21506 0.93698 0.0
C442 C 0.806 0.22662 0.94274 0.0
C443 C 0.83359 0.22283 0.93734 0.0
C444 C 0.84684 0.24182 0.94321 0.0
C445 C 0.83981 0.25347 0.94883 0.0
C446 C 0.74926 0.15069 0.93466 0.0
C447 C 0.73095 0.14149 0.92714 0.0
C448 C 0.7496 0.14807 0.9475 0.0
C449 C 0.73196 0.13683 0.95275 0.0
C450 C 0.7136 0.12803 0.94529 0.0
C451 C 0.7133 0.13032 0.9324 0.0
C452 C 0.81924 0.2456 0.94859 0.0
H453 H 0.76739 0.14337 0.87035 0.0
H454 H 0.76134 0.15108 0.8914 0.0
H455 H 0.82379 0.17763 0.90393 0.0
H456 H 0.82981 0.17034 0.88278 0.0
H457 H 0.761 0.1436 0.91262 0.0
H458 H 0.8151 0.19952 0.91431 0.0
H459 H 0.77895 0.18672 0.94471 0.0
H460 H 0.79025 0.22115 0.94251 0.0
H461 H 0.83945 0.21422 0.93308 0.0
H462 H 0.8626 0.24752 0.94314 0.0
H463 H 0.7302 0.14337 0.91724 0.0
H464 H 0.76351 0.15483 0.95351 0.0
H465 H 0.81336 0.25412 0.95295 0.0
H466 H 0.6994 0.12354 0.92638 0.0
H467 H 0.73267 0.13545 0.96272 0.0
C468 C 0.64854 0.84958 0.13731 0.0
C469 C 0.66101 0.84322 0.14263 0.0
C470 C 0.64232 0.84558 0.12446 0.0
C471 C 0.64859 0.8353 0.11653 0.0
C472 C 0.66152 0.82941 0.12178 0.0
C473 C 0.66764 0.8333 0.13468 0.0
C474 C 0.64077 0.82996 0.103 0.0
C475 C 0.63746 0.84307 0.0963 0.0
C476 C 0.62761 0.83727 0.08406 0.0
C477 C 0.62194 0.81841 0.07825 0.0
C478 C 0.62556 0.80525 0.08467 0.0
C479 C 0.63499 0.81115 0.09703 0.0
C480 C 0.6182 0.78482 0.07882 0.0
C481 C 0.59903 0.77378 0.07238 0.0
C482 C 0.62999 0.776 0.07997 0.0
C483 C 0.62269 0.75649 0.07487 0.0
C484 C 0.6034 0.74537 0.06859 0.0
C485 C 0.6217 0.85024 0.07781 0.0
C486 C 0.61451 0.86062 0.0848 0.0
C487 C 0.62219 0.85159 0.06481 0.0
C488 C 0.61528 0.86277 0.05893 0.0
C489 C 0.60789 0.87292 0.06593 0.0
C490 C 0.60776 0.87187 0.07894 0.0
C491 C 0.59172 0.75428 0.06733 0.0
H492 H 0.64339 0.85753 0.14311 0.0
H493 H 0.63212 0.8501 0.12082 0.0
H494 H 0.66678 0.82163 0.11592 0.0
H495 H 0.67714 0.82805 0.13848 0.0
H496 H 0.64225 0.85776 0.10073 0.0
H497 H 0.63681 0.80065 0.10223 0.0
H498 H 0.61414 0.8137 0.06886 0.0
H499 H 0.58949 0.78006 0.07147 0.0
H500 H 0.64486 0.78419 0.08482 0.0
H501 H 0.63199 0.74998 0.07608 0.0
H502 H 0.61347 0.85957 0.09477 0.0
H503 H 0.62783 0.84395 0.05919 0.0
H504 H 0.57688 0.74616 0.06242 0.0
H505 H 0.60182 0.87924 0.08455 0.0
H506 H 0.6157 0.86347 0.04889 0.0
C507 C 0.20816 0.83849 0.13653 0.0
C508 C 0.20142 0.82354 0.14464 0.0
C509 C 0.21086 0.83455 0.12413 0.0
C510 C 0.20673 0.81556 0.11958 0.0
C511 C 0.20043 0.80078 0.12776 0.0
C512 C 0.19787 0.80473 0.14013 0.0
C513 C 0.20858 0.81084 0.10631 0.0
C514 C 0.22561 0.82317 0.10067 0.0
C515 C 0.22786 0.81778 0.0884 0.0
C516 C 0.21268 0.80007 0.08173 0.0
C517 C 0.19547 0.7877 0.08718 0.0
C518 C 0.19353 0.79331 0.09945 0.0
C519 C 0.17992 0.76852 0.0803 0.0
C520 C 0.17452 0.76685 0.06733 0.0
C521 C 0.17063 0.75158 0.08667 0.0
C522 C 0.15636 0.73343 0.08024 0.0
C523 C 0.15113 0.73173 0.06726 0.0
C524 C 0.24638 0.83009 0.0827 0.0
C525 C 0.25507 0.85075 0.08359 0.0
C526 C 0.25547 0.82115 0.07626 0.0
C527 C 0.27274 0.83257 0.07073 0.0
C528 C 0.28135 0.85321 0.07147 0.0
C529 C 0.27235 0.86219 0.07801 0.0
C530 C 0.16033 0.74862 0.06086 0.0
H531 H 0.2109 0.85311 0.13967 0.0
H532 H 0.21567 0.8462 0.118 0.0
H533 H 0.19753 0.78611 0.12459 0.0
H534 H 0.19317 0.793 0.14618 0.0
H535 H 0.23747 0.83649 0.10602 0.0
H536 H 0.18018 0.78403 0.10369 0.0
H537 H 0.21446 0.79577 0.07233 0.0
H538 H 0.18118 0.77965 0.06217 0.0
H539 H 0.1747 0.75222 0.0966 0.0
H540 H 0.14978 0.7206 0.08537 0.0
H541 H 0.2483 0.85802 0.0884 0.0
H542 H 0.24935 0.80531 0.07563 0.0
H543 H 0.15644 0.74776 0.05088 0.0
H544 H 0.27848 0.87803 0.07864 0.0
H545 H 0.27951 0.8252 0.06601 0.0
C546 C 0.22663 0.40338 0.14892 0.0
C547 C 0.20737 0.38933 0.15124 0.0
C548 C 0.2301 0.41112 0.13736 0.0
C549 C 0.2144 0.40493 0.12779 0.0
C550 C 0.19521 0.3906 0.13003 0.0
C551 C 0.19173 0.38295 0.14161 0.0
C552 C 0.21792 0.41373 0.11565 0.0
C553 C 0.23511 0.41803 0.10993 0.0
C554 C 0.23864 0.42667 0.09858 0.0
C555 C 0.22465 0.43088 0.09291 0.0
C556 C 0.20735 0.42663 0.09843 0.0
C557 C 0.20417 0.41813 0.10981 0.0
C558 C 0.19267 0.4312 0.09239 0.0
C559 C 0.19894 0.44915 0.08723 0.0
C560 C 0.17224 0.41765 0.09179 0.0
C561 C 0.15841 0.42195 0.08616 0.0
C562 C 0.16466 0.43991 0.081 0.0
C563 C 0.25701 0.4315 0.0927 0.0
C564 C 0.27541 0.44 0.10009 0.0
C565 C 0.25635 0.42802 0.07962 0.0
C566 C 0.2737 0.43314 0.07405 0.0
C567 C 0.29213 0.44185 0.08142 0.0
C568 C 0.29276 0.4451 0.09452 0.0
C569 C 0.1851 0.45346 0.08161 0.0
H570 H 0.23909 0.40845 0.15605 0.0
H571 H 0.24504 0.42227 0.13602 0.0
H572 H 0.1828 0.38527 0.12283 0.0
H573 H 0.17666 0.37232 0.14308 0.0
H574 H 0.24558 0.41428 0.11419 0.0
H575 H 0.19119 0.41546 0.11431 0.0
H576 H 0.22725 0.43757 0.08418 0.0
H577 H 0.21456 0.46003 0.08771 0.0
H578 H 0.16694 0.40357 0.09552 0.0
H579 H 0.1428 0.41104 0.08567 0.0
H580 H 0.27648 0.44313 0.11018 0.0
H581 H 0.24238 0.42118 0.07367 0.0
H582 H 0.19042 0.46756 0.07791 0.0
H583 H 0.30674 0.45201 0.10046 0.0
H584 H 0.27264 0.43012 0.06395 0.0
C585 C 0.46792 0.9286 0.20762 0.0
C586 C 0.46363 0.94353 0.20516 0.0
C587 C 0.46455 0.92061 0.21907 0.0
C588 C 0.45694 0.92745 0.22842 0.0
C589 C 0.45232 0.94217 0.22588 0.0
C590 C 0.45558 0.95008 0.21435 0.0
C591 C 0.45424 0.91946 0.24082 0.0
C592 C 0.46837 0.91543 0.24648 0.0
C593 C 0.4659 0.90747 0.25802 0.0
C594 C 0.44918 0.90376 0.26404 0.0
C595 C 0.43483 0.90766 0.25857 0.0
C596 C 0.43752 0.91558 0.24697 0.0
C597 C 0.41683 0.90297 0.26484 0.0
C598 C 0.40686 0.88529 0.27042 0.0
C599 C 0.40948 0.91607 0.26533 0.0
C600 C 0.39262 0.91165 0.27132 0.0
C601 C 0.38272 0.89401 0.27695 0.0
C602 C 0.48059 0.90258 0.26361 0.0
C603 C 0.48762 0.8926 0.2561 0.0
C604 C 0.48751 0.90764 0.27646 0.0
C605 C 0.50119 0.90281 0.28169 0.0
C606 C 0.50814 0.89268 0.27419 0.0
C607 C 0.50118 0.88766 0.26133 0.0
C608 C 0.39003 0.88088 0.2764 0.0
H609 H 0.47378 0.92297 0.20062 0.0
H610 H 0.46783 0.90897 0.22058 0.0
H611 H 0.44662 0.94792 0.23291 0.0
H612 H 0.45225 0.96167 0.21275 0.0
H613 H 0.48154 0.91877 0.242 0.0
H614 H 0.42626 0.9181 0.24252 0.0
H615 H 0.44724 0.89763 0.27296 0.0
H616 H 0.41191 0.8747 0.27001 0.0
H617 H 0.41695 0.92991 0.26125 0.0
H618 H 0.38752 0.9222 0.27171 0.0
H619 H 0.48233 0.88826 0.2462 0.0
H620 H 0.48253 0.91555 0.28244 0.0
H621 H 0.38255 0.867 0.28043 0.0
H622 H 0.50591 0.87955 0.25532 0.0
H623 H 0.50646 0.9072 0.29158 0.0
C624 C 0.00831 0.48967 0.22409 0.0
C625 C 0.01765 0.50484 0.21636 0.0
C626 C 0.01351 0.49337 0.23709 0.0
C627 C 0.02795 0.51237 0.24259 0.0
C628 C 0.03701 0.52758 0.23486 0.0
C629 C 0.03196 0.52384 0.22188 0.0
C630 C 0.03429 0.51631 0.25628 0.0
C631 C 0.03912 0.50371 0.26237 0.0
C632 C 0.04736 0.50856 0.27499 0.0
C633 C 0.05041 0.52607 0.28158 0.0
C634 C 0.04552 0.5388 0.27565 0.0
C635 C 0.03722 0.53362 0.26303 0.0
C636 C 0.0505 0.55817 0.28228 0.0
C637 C 0.04826 0.56008 0.29511 0.0
C638 C 0.05834 0.57515 0.27588 0.0
C639 C 0.06396 0.59357 0.28215 0.0
C640 C 0.06205 0.59553 0.295 0.0
C641 C 0.05431 0.49617 0.28092 0.0
C642 C 0.04275 0.47544 0.27911 0.0
C643 C 0.07303 0.50505 0.28793 0.0
C644 C 0.08022 0.49346 0.29283 0.0
C645 C 0.06884 0.47274 0.29082 0.0
C646 C 0.04993 0.46384 0.28404 0.0
C647 C 0.05407 0.5786 0.30142 0.0
H648 H 0.99728 0.47487 0.22004 0.0
H649 H 0.00627 0.48141 0.24286 0.0
H650 H 0.04836 0.54231 0.23882 0.0
H651 H 0.03924 0.53586 0.21616 0.0
H652 H 0.03756 0.49071 0.25706 0.0
H653 H 0.03323 0.54321 0.25837 0.0
H654 H 0.05718 0.53008 0.29123 0.0
H655 H 0.04205 0.54728 0.30029 0.0
H656 H 0.06072 0.57435 0.26609 0.0
H657 H 0.0704 0.60642 0.27701 0.0
H658 H 0.02822 0.4682 0.2738 0.0
H659 H 0.0824 0.52098 0.28936 0.0
H660 H 0.0523 0.57969 0.31132 0.0
H661 H 0.04087 0.4479 0.28227 0.0
H662 H 0.09475 0.50075 0.29814 0.0
C663 C 0.44782 0.49269 0.21281 0.0
C664 C 0.46675 0.49712 0.20986 0.0
C665 C 0.44467 0.49589 0.2252 0.0
C666 C 0.46038 0.50354 0.23491 0.0
C667 C 0.4791 0.5072 0.23201 0.0
C668 C 0.48225 0.50407 0.21963 0.0
C669 C 0.45762 0.50892 0.24785 0.0
C670 C 0.44023 0.49677 0.25326 0.0
C671 C 0.43732 0.50246 0.26527 0.0
C672 C 0.45203 0.5205 0.27183 0.0
C673 C 0.46944 0.53279 0.26657 0.0
C674 C 0.47217 0.52686 0.25462 0.0
C675 C 0.48439 0.55227 0.27329 0.0
C676 C 0.4784 0.56482 0.27888 0.0
C677 C 0.50471 0.55865 0.27387 0.0
C678 C 0.51877 0.57729 0.27987 0.0
C679 C 0.51281 0.58998 0.28533 0.0
C680 C 0.41871 0.49003 0.27088 0.0
C681 C 0.40023 0.48135 0.26358 0.0
C682 C 0.41926 0.48758 0.28374 0.0
C683 C 0.40173 0.47717 0.28925 0.0
C684 C 0.38324 0.4689 0.28202 0.0
C685 C 0.38267 0.47088 0.26909 0.0
C686 C 0.49244 0.58348 0.2848 0.0
H687 H 0.43562 0.48748 0.20546 0.0
H688 H 0.43013 0.49313 0.22709 0.0
H689 H 0.49141 0.51274 0.23931 0.0
H690 H 0.49691 0.50727 0.21769 0.0
H691 H 0.42905 0.4828 0.24818 0.0
H692 H 0.48529 0.53668 0.25037 0.0
H693 H 0.4498 0.52518 0.281 0.0
H694 H 0.46285 0.56042 0.27839 0.0
H695 H 0.50972 0.54918 0.26975 0.0
H696 H 0.53432 0.58172 0.28026 0.0
H697 H 0.39929 0.48318 0.25368 0.0
H698 H 0.43328 0.49379 0.28958 0.0
H699 H 0.48733 0.59299 0.2887 0.0
H700 H 0.36864 0.46483 0.26329 0.0
H701 H 0.40266 0.47557 0.29919 0.0
Tb702 Tb 0.49021 0.98456 0.99727 0.0
Eu703 Eu 0.507 0.01171 0.02486 0.0
C704 C 0.51127 0.97422 0.01902 0.0
C705 C 0.46387 0.97278 0.01951 0.0
C706 C 0.48149 0.9716 0.9629 0.0
C707 C 0.48556 0.96541 0.94115 0.0
C708 C 0.4817 0.9591 0.95308 0.0
C709 C 0.48491 0.99042 0.96063 0.0
C710 C 0.48862 0.99668 0.94867 0.0
C711 C 0.48921 0.98433 0.93885 0.0
C712 C 0.47934 0.96553 0.97565 0.0
O713 O 0.47729 0.00351 0.99786 0.0
O714 O 0.50033 0.02947 0.01186 0.0
O715 O 0.53287 0.02141 0.01351 0.0
O716 O 0.51543 0.01251 0.99395 0.0
C717 C 0.48546 0.0219 1.00292 0.0
O718 O 0.50495 0.03062 0.03972 0.0
O719 O 0.52841 0.02358 0.04167 0.0
O720 O 0.50595 0.98306 0.02736 0.0
O721 O 0.51004 0.97662 1.00708 0.0
O722 O 0.46976 0.96628 0.01006 0.0
O723 O 0.47436 0.99103 0.02489 0.0
C724 C 0.53219 0.02235 1.00132 0.0
O725 O 0.49588 0.97025 0.9823 0.0
O726 O 0.46789 0.9693 0.98215 0.0
C727 C 0.51426 0.02583 0.05991 0.0
C728 C 0.50549 0.01479 0.08422 0.0
C729 C 0.52309 0.03212 0.08251 0.0
C730 C 0.52741 0.03761 0.07044 0.0
C731 C 0.49669 0.00851 0.06156 0.0
C732 C 0.4923 0.00309 0.07361 0.0
C733 C 0.51913 0.03131 0.04724 0.0
H734 H 0.48575 0.95551 0.93374 0.0
H735 H 0.47926 0.9446 0.9547 0.0
H736 H 0.48511 1.00041 0.96815 0.0
H737 H 0.49161 0.01141 0.94722 0.0
H738 H 0.53346 0.04151 0.0905 0.0
H739 H 0.54106 0.05098 0.06932 0.0
H740 H 0.48646 0.9991 0.05352 0.0
H741 H 0.47877 0.98952 0.07461 0.0
Tb742 Tb 0.00785 0.49499 0.99717 0.0
Eu743 Eu 0.98425 0.48905 0.02232 0.0
C744 C 0.02 0.53023 0.01751 0.0
C745 C 0.02287 0.48436 0.022 0.0
C746 C 0.02527 0.50668 0.96553 0.0
C747 C 0.04017 0.51637 0.94617 0.0
C748 C 0.04085 0.51088 0.95825 0.0
C749 C 0.0093 0.50869 0.9608 0.0
C750 C 0.00853 0.51405 0.94869 0.0
C751 C 0.02381 0.51761 0.94117 0.0
C752 C 0.02526 0.4989 0.97762 0.0
O753 O 0.99124 0.46364 0.99945 0.0
O754 O 0.96522 0.46363 1.00766 0.0
O755 O 0.97235 0.50291 0.00928 0.0
O756 O 0.98118 0.4955 0.99053 0.0
C757 C 0.97247 0.4544 1.00131 0.0
O758 O 0.9662 0.46958 0.03565 0.0
O759 O 0.9737 0.50032 0.03722 0.0
O760 O 0.01311 0.51774 0.02595 0.0
O761 O 0.01503 0.52413 1.00546 0.0
O762 O 0.02754 0.49396 0.012 0.0
O763 O 0.00572 0.47838 0.0264 0.0
C764 C 0.97097 0.50143 0.99695 0.0
O765 O 0.03265 0.51171 0.98759 0.0
O766 O 0.00881 0.48316 0.97938 0.0
C767 C 0.96995 0.48501 0.056 0.0
C768 C 0.97725 0.4868 0.08226 0.0
C769 C 0.95959 0.47138 0.07565 0.0
C770 C 0.95597 0.47055 0.06265 0.0
C771 C 0.98774 0.5003 0.06249 0.0
C772 C 0.99132 0.50123 0.07552 0.0
C773 C 0.96566 0.48375 0.04232 0.0
H774 H 0.05205 0.51882 0.94056 0.0
H775 H 0.05326 0.50935 0.96177 0.0
H776 H 0.99719 0.50559 0.96634 0.0
H777 H 0.99586 0.51512 0.94513 0.0
H778 H 0.94861 0.45982 0.08049 0.0
H779 H 0.94223 0.45856 0.05777 0.0
H780 H 0.99881 0.51158 0.05752 0.0
H781 H 0.00497 0.51343 0.08032 0.0
Tb782 Tb 0.51268 0.5 0.02419 0.0
Eu783 Eu 0.49311 0.50725 0.99827 0.0
C784 C 0.4869 0.46555 1.00357 0.0
C785 C 0.53618 0.51123 1.00023 0.0
C786 C 0.52166 0.49462 0.05751 0.0
C787 C 0.52382 0.48635 0.07874 0.0
C788 C 0.52878 0.48672 0.06644 0.0
C789 C 0.50961 0.50225 0.06098 0.0
C790 C 0.50469 0.50194 0.07328 0.0
C791 C 0.51166 0.49389 0.0823 0.0
C792 C 0.52607 0.49401 0.04446 0.0
O793 O 0.51357 0.528 0.02776 0.0
O794 O 0.51713 0.53666 1.0078 0.0
O795 O 0.47369 0.50641 0.01304 0.0
O796 O 0.48194 0.48994 0.02709 0.0
C797 C 0.51948 0.54156 0.01995 0.0
O798 O 0.48736 0.52621 0.98664 0.0
O799 O 0.47584 0.49548 0.97995 0.0
O800 O 0.47748 0.47481 1.00044 0.0
O801 O 0.50424 0.47506 0.01029 0.0
O802 O 0.53701 0.51274 0.01257 0.0
O803 O 0.51978 0.50594 0.99295 0.0
C804 C 0.47028 0.49642 0.02286 0.0
O805 O 0.51168 0.48009 0.0367 0.0
O806 O 0.53438 0.51088 0.03975 0.0
C807 C 0.48582 0.51801 0.96489 0.0
C808 C 0.49759 0.52517 0.94058 0.0
C809 C 0.48133 0.5267 0.9441 0.0
C810 C 0.47548 0.5231 0.95616 0.0
C811 C 0.50241 0.51711 0.96159 0.0
C812 C 0.50824 0.52063 0.94954 0.0
C813 C 0.47861 0.51254 0.97715 0.0
H814 H 0.5292 0.47978 0.08538 0.0
H815 H 0.53794 0.4806 0.06385 0.0
H816 H 0.5039 0.50831 0.05415 0.0
H817 H 0.49552 0.50811 0.07574 0.0
H818 H 0.47298 0.53045 0.9375 0.0
H819 H 0.46266 0.52391 0.95859 0.0
H820 H 0.51051 0.51312 0.96822 0.0
H821 H 0.52064 0.51904 0.94713 0.0
Tb822 Tb 0.15854 0.32223 0.33133 0.0
Eu823 Eu 0.1745 0.35 0.35884 0.0
C824 C 0.18164 0.31361 0.35251 0.0
C825 C 0.13336 0.30945 0.35438 0.0
C826 C 0.15197 0.30957 0.2971 0.0
C827 C 0.15358 0.3018 0.2751 0.0
C828 C 0.14889 0.29576 0.28703 0.0
C829 C 0.1598 0.32949 0.29515 0.0
C830 C 0.16439 0.33552 0.28324 0.0
C831 C 0.16142 0.32177 0.27306 0.0
C832 C 0.14767 0.3033 0.3097 0.0
O833 O 0.15767 0.34898 0.32849 0.0
O834 O 0.1528 0.35629 0.34841 0.0
O835 O 0.19483 0.36884 0.34529 0.0
O836 O 0.18982 0.34332 0.33096 0.0
C837 C 0.15137 0.35758 0.33632 0.0
O838 O 0.1685 0.36463 0.37449 0.0
O839 O 0.1971 0.36659 0.37473 0.0
O840 O 0.18923 0.33173 0.3579 0.0
O841 O 0.16642 0.30579 0.34379 0.0
O842 O 0.1332 0.31048 0.34219 0.0
O843 O 0.14936 0.32056 0.36221 0.0
C844 C 0.20016 0.36192 0.33576 0.0
O845 O 0.16275 0.30558 0.31703 0.0
O846 O 0.13725 0.30936 0.31556 0.0
C847 C 0.18335 0.36392 0.39398 0.0
C848 C 0.17655 0.35142 0.41816 0.0
C849 C 0.17909 0.36991 0.41572 0.0
C850 C 0.18249 0.37611 0.40373 0.0
C851 C 0.181 0.34553 0.39637 0.0
C852 C 0.17773 0.33938 0.40838 0.0
C853 C 0.18519 0.36979 0.38116 0.0
H854 H 0.15138 0.29085 0.26755 0.0
H855 H 0.14304 0.28035 0.28841 0.0
H856 H 0.16241 0.34041 0.30284 0.0
H857 H 0.17011 0.35095 0.282 0.0
H858 H 0.17842 0.37958 0.42309 0.0
H859 H 0.18412 0.39028 0.40201 0.0
H860 H 0.1813 0.33576 0.38891 0.0
H861 H 0.17557 0.32495 0.40991 0.0
Tb862 Tb 0.67969 0.83274 0.33289 0.0
Eu863 Eu 0.65523 0.82527 0.35777 0.0
C864 C 0.69049 0.8672 0.35357 0.0
C865 C 0.69431 0.8216 0.35753 0.0
C866 C 0.69721 0.84424 0.30125 0.0
C867 C 0.71165 0.85335 0.2817 0.0
C868 C 0.71303 0.84919 0.29407 0.0
C869 C 0.68027 0.84427 0.29612 0.0
C870 C 0.67882 0.84832 0.28372 0.0
C871 C 0.69434 0.85249 0.2763 0.0
C872 C 0.6979 0.83751 0.31362 0.0
O873 O 0.66318 0.80117 0.33458 0.0
O874 O 0.63676 0.80032 0.34276 0.0
O875 O 0.64292 0.83885 0.34477 0.0
O876 O 0.65294 0.83293 0.32605 0.0
C877 C 0.64438 0.79154 0.33634 0.0
O878 O 0.63626 0.80487 0.37031 0.0
O879 O 0.645 0.83587 0.37325 0.0
O880 O 0.68359 0.85436 0.36181 0.0
O881 O 0.68607 0.86145 0.34146 0.0
O882 O 0.6993 0.83223 0.348 0.0
O883 O 0.67675 0.81455 0.3615 0.0
C884 C 0.64208 0.83803 0.33246 0.0
O885 O 0.70409 0.85072 0.32333 0.0
O886 O 0.68231 0.82107 0.31553 0.0
C887 C 0.64018 0.81858 0.39107 0.0
C888 C 0.64739 0.81716 0.41691 0.0
C889 C 0.62806 0.81062 0.41135 0.0
C890 C 0.62451 0.81134 0.39853 0.0
C891 C 0.65951 0.82515 0.39653 0.0
C892 C 0.6631 0.8245 0.40938 0.0
C893 C 0.63605 0.81869 0.37758 0.0
H894 H 0.72377 0.85633 0.27618 0.0
H895 H 0.72619 0.84918 0.2979 0.0
H896 H 0.66793 0.84051 0.30156 0.0
H897 H 0.6654 0.84779 0.27986 0.0
H898 H 0.61571 0.80516 0.41693 0.0
H899 H 0.60951 0.80619 0.39442 0.0
H900 H 0.67175 0.83065 0.39084 0.0
H901 H 0.67811 0.82947 0.41338 0.0
Tb902 Tb 0.18193 0.83733 0.3584 0.0
Eu903 Eu 0.16164 0.84114 0.3315 0.0
C904 C 0.15616 0.80067 0.33888 0.0
C905 C 0.20522 0.8461 0.33445 0.0
C906 C 0.18862 0.82805 0.39139 0.0
C907 C 0.19166 0.81666 0.4115 0.0
C908 C 0.19821 0.82162 0.39972 0.0
C909 C 0.17206 0.82894 0.39482 0.0
C910 C 0.16557 0.8241 0.40659 0.0
C911 C 0.17545 0.81815 0.41516 0.0
C912 C 0.19646 0.83465 0.37942 0.0
O913 O 0.19651 0.86825 0.35505 0.0
O914 O 0.16976 0.86773 0.34494 0.0
O915 O 0.137 0.82864 0.34384 0.0
O916 O 0.1555 0.83783 0.36319 0.0
C917 C 0.1869 0.87733 0.35186 0.0
O918 O 0.16161 0.8596 0.31713 0.0
O919 O 0.13931 0.82847 0.31521 0.0
O920 O 0.16135 0.81232 0.32991 0.0
O921 O 0.15865 0.80788 0.35064 0.0
O922 O 0.20134 0.83721 0.34476 0.0
O923 O 0.19355 0.85172 0.32907 0.0
C924 C 0.13853 0.83119 0.35617 0.0
O925 O 0.19004 0.82109 0.36989 0.0
O926 O 0.19672 0.85056 0.37632 0.0
C927 C 0.15113 0.84317 0.29666 0.0
C928 C 0.16013 0.84184 0.27174 0.0
C929 C 0.15449 0.85535 0.27618 0.0
C930 C 0.14998 0.85596 0.28854 0.0
C931 C 0.1568 0.82967 0.29228 0.0
C932 C 0.16114 0.82893 0.27989 0.0
C933 C 0.14731 0.84476 0.3098 0.0
H934 H 0.19942 0.81183 0.41777 0.0
H935 H 0.21096 0.82075 0.3972 0.0
H936 H 0.16448 0.83389 0.38851 0.0
H937 H 0.15323 0.82571 0.40911 0.0
H938 H 0.15343 0.86535 0.27008 0.0
H939 H 0.14575 0.86655 0.29178 0.0
H940 H 0.15807 0.81985 0.29846 0.0
H941 H 0.16568 0.81854 0.27677 0.0
Tb942 Tb 0.82641 0.65701 0.66474 0.0
Eu943 Eu 0.84436 0.68433 0.69215 0.0
C944 C 0.85055 0.64814 0.6846 0.0
C945 C 0.80191 0.64535 0.68813 0.0
C946 C 0.81749 0.64326 0.63046 0.0
C947 C 0.82099 0.63517 0.60891 0.0
C948 C 0.81678 0.62972 0.62099 0.0
C949 C 0.82244 0.66235 0.6277 0.0
C950 C 0.82648 0.66774 0.61561 0.0
C951 C 0.82587 0.65424 0.6061 0.0
C952 C 0.81387 0.63766 0.64326 0.0
O953 O 0.82646 0.68432 0.66247 0.0
O954 O 0.82208 0.69082 0.68266 0.0
O955 O 0.86472 0.703 0.67859 0.0
O956 O 0.8576 0.6777 0.66335 0.0
C957 C 0.82048 0.69275 0.67066 0.0
O958 O 0.84411 0.70486 0.70672 0.0
O959 O 0.86473 0.69433 0.70939 0.0
O960 O 0.85955 0.66678 0.68914 0.0
O961 O 0.83394 0.64023 0.6771 0.0
O962 O 0.80153 0.64676 0.67598 0.0
O963 O 0.81833 0.65556 0.69576 0.0
C964 C 0.86898 0.69603 0.66854 0.0
O965 O 0.82909 0.6395 0.65023 0.0
O966 O 0.80429 0.64445 0.64941 0.0
C967 C 0.85082 0.69868 0.72717 0.0
C968 C 0.84039 0.68714 0.75117 0.0
C969 C 0.85931 0.70297 0.74975 0.0
C970 C 0.86447 0.70868 0.73783 0.0
C971 C 0.83184 0.68305 0.72854 0.0
C972 C 0.82664 0.67738 0.74044 0.0
C973 C 0.85685 0.70379 0.71461 0.0
H974 H 0.82029 0.62442 0.60174 0.0
H975 H 0.81311 0.61498 0.62298 0.0
H976 H 0.82336 0.67314 0.63493 0.0
H977 H 0.83045 0.68261 0.61376 0.0
H978 H 0.87015 0.71089 0.75784 0.0
H979 H 0.87921 0.72071 0.73693 0.0
H980 H 0.82116 0.67501 0.72039 0.0
H981 H 0.81205 0.66497 0.7412 0.0
Tb982 Tb 0.34911 0.17192 0.66652 0.0
Eu983 Eu 0.32271 0.15952 0.69058 0.0
C984 C 0.36012 0.20269 0.68996 0.0
C985 C 0.36222 0.15755 0.69035 0.0
C986 C 0.36434 0.18046 0.6343 0.0
C987 C 0.37495 0.19353 0.61456 0.0
C988 C 0.37889 0.19402 0.6275 0.0
C989 C 0.34569 0.16646 0.62806 0.0
C990 C 0.3418 0.16586 0.61509 0.0
C991 C 0.3564 0.17939 0.60821 0.0
C992 C 0.36883 0.18123 0.64789 0.0
O993 O 0.32193 0.14462 0.6596 0.0
O994 O 0.31515 0.13183 0.6784 0.0
O995 O 0.30357 0.16155 0.67494 0.0
O996 O 0.32837 0.18269 0.66389 0.0
C997 C 0.31299 0.1295 0.66609 0.0
O998 O 0.30741 0.13789 0.70357 0.0
O999 O 0.30612 0.16488 0.70436 0.0
O1000 O 0.342 0.19268 0.69304 0.0
O1001 O 0.36682 0.19488 0.68183 0.0
O1002 O 0.36002 0.15662 0.67802 0.0
O1003 O 0.35184 0.16239 0.69737 0.0
C1004 C 0.30995 0.1743 0.66662 0.0
O1005 O 0.36603 0.19355 0.65494 0.0
O1006 O 0.36214 0.16426 0.6524 0.0
C1007 C 0.30489 0.15059 0.72328 0.0
C1008 C 0.31113 0.15224 0.74958 0.0
C1009 C 0.2931 0.13766 0.74285 0.0
C1010 C 0.29002 0.13688 0.72982 0.0
C1011 C 0.3229 0.16522 0.72989 0.0
C1012 C 0.32597 0.16609 0.74295 0.0
C1013 C 0.30163 0.14876 0.70954 0.0
H1014 H 0.38654 0.20401 0.60948 0.0
H1015 H 0.39333 0.20494 0.63219 0.0
H1016 H 0.33419 0.15599 0.63319 0.0
H1017 H 0.32731 0.15495 0.61046 0.0
H1018 H 0.28149 0.12657 0.74761 0.0
H1019 H 0.27611 0.12537 0.72482 0.0
H1020 H 0.3346 0.17585 0.72494 0.0
H1021 H 0.33994 0.17764 0.74785 0.0
Tb1022 Tb 0.84842 0.17166 0.69176 0.0
Eu1023 Eu 0.82806 0.17767 0.66578 0.0
C1024 C 0.82133 0.13613 0.67179 0.0
C1025 C 0.87087 0.18076 0.66747 0.0
C1026 C 0.85493 0.16007 0.72401 0.0
C1027 C 0.86027 0.15466 0.74558 0.0
C1028 C 0.86725 0.15968 0.73392 0.0
C1029 C 0.83536 0.15481 0.72573 0.0
C1030 C 0.82842 0.14998 0.73741 0.0
C1031 C 0.84092 0.15016 0.74751 0.0
C1032 C 0.86298 0.16742 0.71226 0.0
O1033 O 0.86422 0.20277 0.68886 0.0
O1034 O 0.83783 0.20404 0.67985 0.0
O1035 O 0.8038 0.16526 0.67838 0.0
O1036 O 0.82285 0.17314 0.6974 0.0
C1037 C 0.85534 0.21278 0.68633 0.0
O1038 O 0.82849 0.19713 0.65198 0.0
O1039 O 0.80515 0.16639 0.64984 0.0
O1040 O 0.8265 0.14831 0.66312 0.0
O1041 O 0.82436 0.14279 0.68372 0.0
O1042 O 0.86698 0.17132 0.67756 0.0
O1043 O 0.85956 0.18722 0.66266 0.0
C1044 C 0.80577 0.16727 0.69073 0.0
O1045 O 0.85634 0.15446 0.70237 0.0
O1046 O 0.8634 0.18367 0.7098 0.0
C1047 C 0.81721 0.18127 0.63143 0.0
C1048 C 0.82648 0.18036 0.60652 0.0
C1049 C 0.82022 0.1934 0.61096 0.0
C1050 C 0.81561 0.19382 0.62331 0.0
C1051 C 0.82332 0.16814 0.62706 0.0
C1052 C 0.8278 0.16761 0.6147 0.0
C1053 C 0.81368 0.18285 0.64463 0.0
H1054 H 0.87027 0.15508 0.75322 0.0
H1055 H 0.88243 0.16378 0.73274 0.0
H1056 H 0.82562 0.15492 0.71813 0.0
H1057 H 0.81338 0.14637 0.73859 0.0
H1058 H 0.81932 0.20364 0.60501 0.0
H1059 H 0.81114 0.2042 0.62658 0.0
H1060 H 0.82483 0.15844 0.63323 0.0
H1061 H 0.83227 0.15718 0.61156 0.0
H1062 H 0.31356 0.889 0.08076 0.0
H1063 H 0.34396 0.90841 0.07103 0.0
H1064 H 0.32154 0.8637 0.03929 0.0
H1065 H 0.29079 0.8446 0.04869 0.0
H1066 H 0.37099 0.89745 0.06461 0.0
H1067 H 0.33921 0.91395 0.02241 0.0
H1068 H 0.32561 0.90464 0.03571 0.0
H1069 H 0.32772 0.88813 0.02435 0.0
C1070 C 0.31494 0.88346 0.0716 0.0
C1071 C 0.2997 0.86526 0.06549 0.0
C1072 C 0.33238 0.89449 0.0661 0.0
C1073 C 0.3349 0.88761 0.05437 0.0
C1074 C 0.31976 0.86947 0.04824 0.0
H1075 H 0.43513 0.93537 0.00954 0.0
H1076 H 0.40386 0.91359 0.01789 0.0
C1077 C 0.30229 0.85845 0.05371 0.0
C1078 C 0.35369 0.89911 0.04878 0.0
H1079 H 0.37304 0.92282 0.02319 0.0
C1080 C 0.37144 0.90303 0.05557 0.0
C1081 C 0.35421 0.90628 0.03695 0.0
C1082 C 0.33571 0.90322 0.02946 0.0
C1083 C 0.38973 0.91391 0.05083 0.0
C1084 C 0.39026 0.92123 0.03907 0.0
C1085 C 0.37251 0.91708 0.03218 0.0
C1086 C 0.40922 0.93412 0.03408 0.0
C1087 C 0.40834 0.91743 0.05842 0.0
C1088 C 0.42239 0.95289 0.04038 0.0
C1089 C 0.44014 0.96534 0.03564 0.0
C1090 C 0.44508 0.95929 0.02449 0.0
C1091 C 0.43181 0.94044 0.01818 0.0
C1092 C 0.41395 0.928 0.02291 0.0
H1093 H 0.40502 0.90684 0.06555 0.0
H1094 H 0.41859 0.91618 0.05223 0.0
H1095 H 0.41609 0.9326 0.06341 0.0
H1096 H 0.41885 0.95798 0.04892 0.0
H1097 H 0.44996 0.97974 0.04076 0.0
H1098 H 0.12938 0.43276 0.08904 0.0
H1099 H 0.10498 0.43989 0.07901 0.0
H1100 H 0.14249 0.46524 0.04976 0.0
H1101 H 0.16665 0.45757 0.05947 0.0
H1102 H 0.10964 0.47625 0.07383 0.0
H1103 H 0.08915 0.42572 0.02999 0.0
H1104 H 0.10272 0.42427 0.04376 0.0
H1105 H 0.11527 0.44277 0.03339 0.0
C1106 C 0.13232 0.43961 0.08038 0.0
C1107 C 0.14993 0.44448 0.07502 0.0
C1108 C 0.11843 0.4438 0.07471 0.0
C1109 C 0.12179 0.45282 0.06355 0.0
C1110 C 0.13943 0.45794 0.05825 0.0
H1111 H 0.0592 0.49293 0.01521 0.0
H1112 H 0.08307 0.48559 0.02573 0.0
C1113 C 0.15333 0.45375 0.0639 0.0
C1114 C 0.10701 0.45724 0.05757 0.0
H1115 H 0.07693 0.44803 0.03049 0.0
C1116 C 0.10239 0.47001 0.06438 0.0
C1117 C 0.09758 0.44905 0.04525 0.0
C1118 C 0.10126 0.43455 0.03769 0.0
C1119 C 0.08891 0.47515 0.05909 0.0
C1120 C 0.07961 0.46707 0.04674 0.0
C1121 C 0.08415 0.45424 0.03995 0.0
C1122 C 0.06519 0.47184 0.04062 0.0
C1123 C 0.08508 0.48955 0.06664 0.0
C1124 C 0.04716 0.4664 0.04547 0.0
C1125 C 0.03344 0.47056 0.03948 0.0
C1126 C 0.03748 0.48017 0.02849 0.0
C1127 C 0.05559 0.48556 0.02367 0.0
C1128 C 0.06926 0.48136 0.02965 0.0
H1129 H 0.09676 0.49792 0.07465 0.0
H1130 H 0.08428 0.50022 0.06065 0.0
H1131 H 0.07066 0.48129 0.0705 0.0
H1132 H 0.04358 0.45872 0.0538 0.0
H1133 H 0.01963 0.46613 0.04344 0.0
H1134 H 0.56649 0.71413 0.07022 0.0
H1135 H 0.55299 0.67961 0.06194 0.0
H1136 H 0.60832 0.69463 0.04739 0.0
H1137 H 0.62196 0.72925 0.05566 0.0
H1138 H 0.54805 0.66376 0.03738 0.0
H1139 H 0.59835 0.64843 0.06739 0.0
H1140 H 0.59608 0.67002 0.07065 0.0
H1141 H 0.61084 0.66932 0.0587 0.0
C1142 C 0.57576 0.71011 0.0652 0.0
C1143 C 0.5953 0.72441 0.0636 0.0
C1144 C 0.56806 0.69038 0.06053 0.0
C1145 C 0.57974 0.68453 0.0542 0.0
C1146 C 0.5992 0.69876 0.05249 0.0
H1147 H 0.53488 0.57374 1.00672 0.0
H1148 H 0.54969 0.60847 0.01492 0.0
C1149 C 0.60696 0.71852 0.0572 0.0
C1150 C 0.57131 0.66359 0.04917 0.0
H1151 H 0.57709 0.62345 0.05105 0.0
C1152 C 0.55438 0.65492 0.04037 0.0
C1153 C 0.57947 0.65207 0.05321 0.0
C1154 C 0.59708 0.66034 0.06309 0.0
C1155 C 0.54545 0.63505 0.03542 0.0
C1156 C 0.55393 0.62367 0.03921 0.0
C1157 C 0.57075 0.63228 0.04809 0.0
C1158 C 0.5453 0.60267 0.03425 0.0
C1159 C 0.5268 0.6263 0.02638 0.0
C1160 C 0.53842 0.58796 0.04245 0.0
C1161 C 0.53008 0.56809 0.03782 0.0
C1162 C 0.52853 0.56261 0.02489 0.0
C1163 C 0.5357 0.57744 0.01672 0.0
C1164 C 0.54409 0.59729 0.02137 0.0
H1165 H 0.51949 0.63533 0.02696 0.0
H1166 H 0.53061 0.62574 0.01664 0.0
H1167 H 0.51606 0.61101 0.02823 0.0
H1168 H 0.53932 0.59183 0.05244 0.0
H1169 H 0.52477 0.55706 0.04438 0.0
H1170 H 0.87471 0.26677 0.96382 0.0
H1171 H 0.89802 0.30067 0.97308 0.0
H1172 H 0.85984 0.32013 0.95653 0.0
H1173 H 0.83675 0.28645 0.94695 0.0
H1174 H 0.89993 0.34384 0.95294 0.0
H1175 H 0.89033 0.33084 1.00298 0.0
H1176 H 0.89639 0.31472 0.99415 0.0
H1177 H 0.87311 0.31348 0.99017 0.0
C1178 C 0.87132 0.27829 0.96211 0.0
C1179 C 0.85384 0.27391 0.95469 0.0
C1180 C 0.88455 0.29759 0.96751 0.0
C1181 C 0.88049 0.31281 0.96562 0.0
C1182 C 0.86315 0.30853 0.95816 0.0
H1183 H 0.93328 0.43051 1.00404 0.0
H1184 H 0.91157 0.39608 0.99533 0.0
C1185 C 0.84992 0.28926 0.95277 0.0
C1186 C 0.89452 0.33335 0.97114 0.0
H1187 H 0.91538 0.36258 0.99901 0.0
C1188 C 0.90335 0.34796 0.96301 0.0
C1189 C 0.89875 0.33865 0.98428 0.0
C1190 C 0.88905 0.32367 0.99344 0.0
C1191 C 0.91639 0.36778 0.96766 0.0
C1192 C 0.9209 0.37302 0.9808 0.0
C1193 C 0.912 0.35844 0.98894 0.0
C1194 C 0.93432 0.39372 0.98627 0.0
C1195 C 0.92489 0.38301 0.9585 0.0
C1196 C 0.95436 0.40367 0.98419 0.0
C1197 C 0.96683 0.42337 0.98914 0.0
C1198 C 0.95946 0.43341 0.99631 0.0
C1199 C 0.93943 0.42325 0.99854 0.0
C1200 C 0.927 0.40356 0.99359 0.0
H1201 H 0.91656 0.37736 0.94899 0.0
H1202 H 0.92478 0.39664 0.96183 0.0
H1203 H 0.9405 0.38705 0.95771 0.0
H1204 H 0.96035 0.39621 0.97873 0.0
H1205 H 0.98219 0.43074 0.9873 0.0
H1206 H 0.70438 0.54713 0.96468 0.0
H1207 H 0.67432 0.53889 0.97473 0.0
H1208 H 0.65073 0.5539 0.94251 0.0
H1209 H 0.6807 0.56211 0.93237 0.0
H1210 H 0.65707 0.56647 0.97866 0.0
H1211 H 0.60805 0.49481 0.94931 0.0
H1212 H 0.63468 0.50572 0.95162 0.0
H1213 H 0.62379 0.51583 0.94141 0.0
C1214 C 0.69274 0.54858 0.95972 0.0
C1215 C 0.69486 0.55521 0.94773 0.0
C1216 C 0.67566 0.54397 0.96549 0.0
C1217 C 0.66033 0.54568 0.9593 0.0
C1218 C 0.66241 0.5524 0.94738 0.0
H1219 H 0.5422 0.5157 0.9755 0.0
H1220 H 0.57258 0.52456 0.96591 0.0
C1221 C 0.67956 0.55719 0.94165 0.0
C1222 C 0.64214 0.54046 0.96533 0.0
H1223 H 0.59315 0.50556 0.96384 0.0
C1224 C 0.64307 0.55314 0.97548 0.0
C1225 C 0.62397 0.52313 0.96106 0.0
C1226 C 0.62242 0.50895 0.9503 0.0
C1227 C 0.62614 0.5491 0.98138 0.0
C1228 C 0.60795 0.53161 0.97721 0.0
C1229 C 0.60709 0.51893 0.96705 0.0
C1230 C 0.58956 0.52625 0.98316 0.0
C1231 C 0.6278 0.5639 0.99177 0.0
C1232 C 0.58889 0.52396 0.99603 0.0
C1233 C 0.57156 0.51907 1.00158 0.0
C1234 C 0.55445 0.51605 0.99433 0.0
C1235 C 0.55507 0.51793 0.98138 0.0
C1236 C 0.57244 0.52299 0.97587 0.0
H1237 H 0.64084 0.57878 0.99131 0.0
H1238 H 0.61427 0.56517 0.99134 0.0
H1239 H 0.62968 0.55899 1.00098 0.0
H1240 H 0.60174 0.52587 1.00178 0.0
H1241 H 0.57157 0.51755 0.01154 0.0
H1242 H 0.41839 0.13971 0.98369 0.0
H1243 H 0.43366 0.12098 0.99108 0.0
H1244 H 0.40608 0.07918 0.95791 0.0
H1245 H 0.39145 0.09824 0.95019 0.0
H1246 H 0.41758 0.08207 0.99617 0.0
H1247 H 0.46463 0.09715 0.95713 0.0
H1248 H 0.45164 0.11028 0.96037 0.0
H1249 H 0.43866 0.08591 0.95197 0.0
C1250 C 0.41565 0.12658 0.97794 0.0
C1251 C 0.40388 0.1206 0.96628 0.0
C1252 C 0.42428 0.11584 0.98221 0.0
C1253 C 0.42133 0.09896 0.97491 0.0
C1254 C 0.40889 0.09243 0.96355 0.0
H1255 H 0.45859 0.01334 0.98258 0.0
H1256 H 0.44345 0.03263 0.97619 0.0
C1257 C 0.40032 0.1032 0.95924 0.0
C1258 C 0.43153 0.08835 0.97908 0.0
H1259 H 0.46391 0.07374 0.97043 0.0
C1260 C 0.4278 0.08033 0.9906 0.0
C1261 C 0.44494 0.08625 0.9718 0.0
C1262 C 0.45039 0.09551 0.95969 0.0
C1263 C 0.43676 0.06979 0.99487 0.0
C1264 C 0.44989 0.06743 0.98748 0.0
C1265 C 0.45376 0.07558 0.97603 0.0
C1266 C 0.45944 0.05613 0.99134 0.0
C1267 C 0.43181 0.06087 1.00711 0.0
C1268 C 0.4737 0.0632 1.00185 0.0
C1269 C 0.48247 0.05227 1.00551 0.0
C1270 C 0.47705 0.03406 0.99873 0.0
C1271 C 0.463 0.02724 0.98807 0.0
C1272 C 0.45434 0.03823 0.98438 0.0
H1273 H 0.41872 0.06092 0.01051 0.0
H1274 H 0.42883 0.04543 1.00607 0.0
H1275 H 0.44466 0.06952 0.01438 0.0
H1276 H 0.478 0.07716 1.00721 0.0
H1277 H 0.49326 0.05795 0.01376 0.0
H1278 H 0.6798 0.12994 0.94105 0.0
H1279 H 0.64906 0.11228 0.95078 0.0
H1280 H 0.67427 0.08396 0.97235 0.0
H1281 H 0.70498 0.10128 0.96248 0.0
H1282 H 0.63492 0.05811 0.96028 0.0
H1283 H 0.64202 0.12417 0.98772 0.0
H1284 H 0.64439 0.12619 0.97125 0.0
H1285 H 0.66266 0.12419 0.98108 0.0
C1286 C 0.67875 0.11982 0.94778 0.0
C1287 C 0.69482 0.11702 0.95101 0.0
C1288 C 0.66126 0.10992 0.95342 0.0
C1289 C 0.65954 0.09706 0.9624 0.0
C1290 C 0.67541 0.09396 0.96551 0.0
H1291 H 0.56964 0.04574 0.01345 0.0
H1292 H 0.60053 0.0639 1.00396 0.0
C1293 C 0.69294 0.10392 0.95991 0.0
C1294 C 0.64107 0.08663 0.96842 0.0
H1295 H 0.61156 0.09413 0.98743 0.0
C1296 C 0.62981 0.06595 0.96624 0.0
C1297 C 0.63461 0.09693 0.97629 0.0
C1298 C 0.6466 0.11909 0.97935 0.0
C1299 C 0.61202 0.05529 0.97156 0.0
C1300 C 0.60527 0.06563 0.97914 0.0
C1301 C 0.61671 0.08628 0.98151 0.0
C1302 C 0.58646 0.05521 0.98482 0.0
C1303 C 0.6007 0.03303 0.96917 0.0
C1304 C 0.56832 0.04468 0.97719 0.0
C1305 C 0.55063 0.03431 0.98256 0.0
C1306 C 0.55079 0.03435 0.99569 0.0
C1307 C 0.56898 0.04534 1.00331 0.0
C1308 C 0.58665 0.05574 0.99792 0.0
H1309 H 0.61004 0.0272 0.96563 0.0
H1310 H 0.5949 0.0263 0.97786 0.0
H1311 H 0.58788 0.02828 0.96198 0.0
H1312 H 0.56786 0.04438 0.96707 0.0
H1313 H 0.53689 0.02606 0.97641 0.0
H1314 H 0.86956 0.5777 0.95594 0.0
H1315 H 0.89249 0.56783 0.96489 0.0
H1316 H 0.86077 0.51226 0.94137 0.0
H1317 H 0.83746 0.52177 0.93261 0.0
H1318 H 0.86855 0.50842 0.96647 0.0
H1319 H 0.93655 0.56453 0.94794 0.0
H1320 H 0.92394 0.57463 0.95638 0.0
H1321 H 0.912 0.55891 0.94192 0.0
C1322 C 0.86741 0.56334 0.95271 0.0
C1323 C 0.85171 0.55054 0.94353 0.0
C1324 C 0.88066 0.55783 0.95772 0.0
C1325 C 0.87851 0.53946 0.95364 0.0
C1326 C 0.86279 0.52659 0.94456 0.0
H1327 H 0.96409 0.5013 0.97149 0.0
H1328 H 0.94138 0.50981 0.9605 0.0
C1329 C 0.84956 0.5321 0.93952 0.0
C1330 C 0.8922 0.53332 0.95917 0.0
H1331 H 0.94091 0.54602 0.96335 0.0
C1332 C 0.88436 0.51657 0.96573 0.0
C1333 C 0.91276 0.54383 0.95804 0.0
C1334 C 0.92184 0.56137 0.95059 0.0
C1335 C 0.89662 0.51034 0.97149 0.0
C1336 C 0.91728 0.52131 0.9708 0.0
C1337 C 0.92507 0.53774 0.96395 0.0
C1338 C 0.93109 0.51623 0.97741 0.0
C1339 C 0.88735 0.49202 0.97824 0.0
C1340 C 0.93299 0.51729 0.99056 0.0
C1341 C 0.94593 0.51248 0.99687 0.0
C1342 C 0.95732 0.50657 0.99015 0.0
C1343 C 0.95553 0.50573 0.97696 0.0
C1344 C 0.94258 0.51061 0.97066 0.0
H1345 H 0.87123 0.48255 0.97514 0.0
H1346 H 0.89466 0.48316 0.97665 0.0
H1347 H 0.88916 0.49642 0.98848 0.0
H1348 H 0.92452 0.52194 0.99596 0.0
H1349 H 0.94698 0.51342 1.00702 0.0
H1350 H 0.43923 0.29155 0.95652 0.0
H1351 H 0.45345 0.32596 0.96525 0.0
H1352 H 0.3991 0.31133 0.98105 0.0
H1353 H 0.3847 0.27679 0.97228 0.0
H1354 H 0.43891 0.35093 0.95986 0.0
H1355 H 0.44204 0.34235 0.01082 0.0
H1356 H 0.43866 0.32335 0.99889 0.0
H1357 H 0.41818 0.32667 1.00204 0.0
C1358 C 0.43028 0.29565 0.96183 0.0
C1359 C 0.41081 0.28149 0.96367 0.0
C1360 C 0.43846 0.31528 0.96686 0.0
C1361 C 0.42739 0.32112 0.97388 0.0
C1362 C 0.40801 0.30702 0.97585 0.0
H1363 H 0.45155 0.44141 0.98924 0.0
H1364 H 0.43692 0.40627 0.98221 0.0
C1365 C 0.39981 0.28733 0.97084 0.0
C1366 C 0.43589 0.34218 0.97858 0.0
H1367 H 0.44967 0.37402 1.00529 0.0
C1368 C 0.44129 0.356 0.96979 0.0
C1369 C 0.43914 0.3487 0.99155 0.0
C1370 C 0.43438 0.33455 1.0014 0.0
C1371 C 0.44971 0.37623 0.97361 0.0
C1372 C 0.45252 0.38271 0.98656 0.0
C1373 C 0.44732 0.36893 0.99537 0.0
C1374 C 0.46111 0.40382 0.99111 0.0
C1375 C 0.45586 0.39052 0.96378 0.0
C1376 C 0.47933 0.41392 0.99868 0.0
C1377 C 0.48773 0.434 1.00275 0.0
C1378 C 0.47797 0.44427 0.99937 0.0
C1379 C 0.45953 0.43398 0.99195 0.0
C1380 C 0.45117 0.41392 0.98788 0.0
H1381 H 0.4571 0.3838 0.95471 0.0
H1382 H 0.44459 0.395 0.96208 0.0
H1383 H 0.47032 0.40404 0.967 0.0
H1384 H 0.48718 0.40632 1.0013 0.0
H1385 H 0.5019 0.44146 1.0085 0.0
H1386 H 0.15391 0.71499 0.04495 0.0
H1387 H 0.13087 0.68172 0.03451 0.0
H1388 H 0.09275 0.67104 0.06387 0.0
H1389 H 0.11557 0.70431 0.07428 0.0
H1390 H 0.11994 0.64617 0.04622 0.0
H1391 H 0.05481 0.65316 0.03063 0.0
H1392 H 0.07944 0.67429 0.03449 0.0
H1393 H 0.06476 0.6622 0.04677 0.0
C1394 C 0.14043 0.70567 0.04905 0.0
C1395 C 0.13653 0.71222 0.06043 0.0
C1396 C 0.12736 0.68668 0.04311 0.0
C1397 C 0.11006 0.67405 0.04837 0.0
C1398 C 0.1059 0.68068 0.05958 0.0
H1399 H 0.03677 0.54771 0.04133 0.0
H1400 H 0.059 0.58289 0.04808 0.0
C1401 C 0.11902 0.6996 0.06557 0.0
C1402 C 0.09704 0.65344 0.04266 0.0
H1403 H 0.04972 0.6205 0.02983 0.0
C1404 C 0.10464 0.64058 0.04254 0.0
C1405 C 0.07715 0.64628 0.03779 0.0
C1406 C 0.06853 0.6597 0.0373 0.0
C1407 C 0.09264 0.62053 0.03803 0.0
C1408 C 0.07256 0.61322 0.03361 0.0
C1409 C 0.06511 0.62619 0.03334 0.0
C1410 C 0.05897 0.59202 0.02947 0.0
C1411 C 0.10147 0.60727 0.03807 0.0
C1412 C 0.05142 0.58562 0.01681 0.0
C1413 C 0.03877 0.56552 0.01289 0.0
C1414 C 0.03329 0.55153 0.02163 0.0
C1415 C 0.0407 0.55808 0.03436 0.0
C1416 C 0.05346 0.57815 0.03823 0.0
H1417 H 0.11794 0.61587 0.03927 0.0
H1418 H 0.09647 0.59804 0.04596 0.0
H1419 H 0.0964 0.5972 0.0292 0.0
H1420 H 0.05548 0.59617 0.00994 0.0
H1421 H 0.03326 0.56098 1.00304 0.0
H1422 H 0.32342 0.43722 0.08943 0.0
H1423 H 0.35405 0.44738 0.07971 0.0
H1424 H 0.33312 0.46936 0.05006 0.0
H1425 H 0.30271 0.45974 0.05988 0.0
H1426 H 0.3581 0.43524 0.05524 0.0
H1427 H 0.38854 0.51634 0.06259 0.0
H1428 H 0.36876 0.49919 0.07091 0.0
H1429 H 0.36364 0.50242 0.05494 0.0
C1430 C 0.32543 0.44442 0.08092 0.0
C1431 C 0.31064 0.44774 0.07546 0.0
C1432 C 0.34288 0.45011 0.07534 0.0
C1433 C 0.34596 0.45936 0.06427 0.0
C1434 C 0.33118 0.46254 0.05872 0.0
H1435 H 0.43999 0.50299 0.01551 0.0
H1436 H 0.40986 0.4938 0.0256 0.0
C1437 C 0.31371 0.45682 0.06427 0.0
C1438 C 0.36444 0.46528 0.05835 0.0
H1439 H 0.40536 0.50517 0.04978 0.0
C1440 C 0.3685 0.45053 0.05409 0.0
C1441 C 0.37791 0.48523 0.05684 0.0
C1442 C 0.37465 0.50176 0.06165 0.0
C1443 C 0.38553 0.45516 0.04815 0.0
C1444 C 0.39904 0.47513 0.04667 0.0
C1445 C 0.39497 0.48988 0.05093 0.0
C1446 C 0.41751 0.481 0.04074 0.0
C1447 C 0.38866 0.43857 0.04326 0.0
C1448 C 0.43198 0.47721 0.04605 0.0
C1449 C 0.44919 0.48238 0.04031 0.0
C1450 C 0.45234 0.49161 0.02917 0.0
C1451 C 0.43803 0.49585 0.02405 0.0
C1452 C 0.42079 0.49061 0.0298 0.0
H1453 H 0.37465 0.42408 0.04214 0.0
H1454 H 0.39478 0.44128 0.03408 0.0
H1455 H 0.39939 0.43759 0.05004 0.0
H1456 H 0.42998 0.47024 0.05466 0.0
H1457 H 0.45999 0.4791 0.0446 0.0
H1458 H 0.61391 0.9095 0.07368 0.0
H1459 H 0.59736 0.9261 0.0646 0.0
H1460 H 0.5664 0.87785 0.03513 0.0
H1461 H 0.58266 0.86097 0.04427 0.0
H1462 H 0.59613 0.93719 0.03929 0.0
H1463 H 0.52227 0.8825 0.05252 0.0
H1464 H 0.54508 0.88478 0.05944 0.0
H1465 H 0.53485 0.87256 0.04385 0.0
C1466 C 0.60361 0.90245 0.06525 0.0
C1467 C 0.59946 0.88388 0.05973 0.0
C1468 C 0.59425 0.91198 0.06005 0.0
C1469 C 0.5805 0.90304 0.04932 0.0
C1470 C 0.57682 0.88484 0.04352 0.0
H1471 H 0.52706 0.95667 1.00468 0.0
H1472 H 0.54359 0.93899 0.01179 0.0
C1473 C 0.58624 0.87532 0.04868 0.0
C1474 C 0.56963 0.91257 0.04443 0.0
H1475 H 0.52371 0.90779 0.04099 0.0
C1476 C 0.58029 0.93076 0.0396 0.0
C1477 C 0.54903 0.9042 0.04504 0.0
C1478 C 0.53708 0.88501 0.05057 0.0
C1479 C 0.57081 0.94079 0.03526 0.0
C1480 C 0.55016 0.93229 0.0357 0.0
C1481 C 0.53953 0.91416 0.0406 0.0
C1482 C 0.53943 0.94224 0.03134 0.0
C1483 C 0.58298 0.96059 0.03045 0.0
C1484 C 0.53117 0.94942 0.03996 0.0
C1485 C 0.52169 0.95954 0.03595 0.0
C1486 C 0.52019 0.96248 0.02322 0.0
C1487 C 0.52801 0.95474 0.01456 0.0
C1488 C 0.53755 0.9447 0.0186 0.0
H1489 H 0.59912 0.96687 0.03308 0.0
H1490 H 0.58021 0.95882 0.02005 0.0
H1491 H 0.57868 0.97128 0.03417 0.0
H1492 H 0.53241 0.94754 0.04983 0.0
H1493 H 0.51577 0.96525 0.04284 0.0
H1494 H 0.9656 0.22747 0.39883 0.0
H1495 H 0.99661 0.24666 0.38983 0.0
H1496 H 0.00865 0.19883 0.39184 0.0
H1497 H 0.97859 0.18023 0.40183 0.0
H1498 H 0.04067 0.23179 0.39915 0.0
H1499 H 0.00788 0.24119 0.35473 0.0
H1500 H 0.0017 0.25101 0.3681 0.0
H1501 H 0.9929 0.22489 0.36563 0.0
C1502 C 0.97492 0.22108 0.39752 0.0
C1503 C 0.9694 0.20216 0.40102 0.0
C1504 C 0.99252 0.23196 0.39214 0.0
C1505 C 0.00474 0.22401 0.38983 0.0
C1506 C 0.99937 0.20523 0.39339 0.0
H1507 H 0.10049 0.27687 0.34211 0.0
H1508 H 0.06963 0.25498 0.35072 0.0
C1509 C 0.98199 0.19449 0.39898 0.0
C1510 C 0.0235 0.23548 0.38414 0.0
H1511 H 0.04302 0.26166 0.35945 0.0
C1512 C 0.04114 0.23817 0.39041 0.0
C1513 C 0.02412 0.2435 0.3726 0.0
C1514 C 0.0056 0.23982 0.36481 0.0
C1515 C 0.05939 0.24895 0.38561 0.0
C1516 C 0.06018 0.25799 0.37448 0.0
C1517 C 0.04249 0.25495 0.36807 0.0
C1518 C 0.07917 0.27084 0.3694 0.0
C1519 C 0.07752 0.25015 0.39242 0.0
C1520 C 0.09475 0.2871 0.37698 0.0
C1521 C 0.1125 0.29936 0.37215 0.0
C1522 C 0.11483 0.29593 0.35953 0.0
C1523 C 0.09912 0.27986 0.35187 0.0
C1524 C 0.08149 0.26737 0.35678 0.0
H1525 H 0.07346 0.23729 0.39784 0.0
H1526 H 0.08807 0.25071 0.3858 0.0
H1527 H 0.08515 0.26369 0.3992 0.0
H1528 H 0.09311 0.29052 0.38661 0.0
H1529 H 0.12421 0.31182 0.37824 0.0
H1530 H 0.79865 0.74801 0.39941 0.0
H1531 H 0.77501 0.75679 0.39027 0.0
H1532 H 0.81394 0.8176 0.40531 0.0
H1533 H 0.83729 0.80883 0.41495 0.0
H1534 H 0.77522 0.80442 0.40919 0.0
H1535 H 0.78045 0.78584 0.35939 0.0
H1536 H 0.77408 0.7658 0.36879 0.0
H1537 H 0.79792 0.78792 0.37208 0.0
C1538 C 0.80214 0.76324 0.40087 0.0
C1539 C 0.81993 0.77773 0.40789 0.0
C1540 C 0.78871 0.76827 0.3955 0.0
C1541 C 0.79288 0.78791 0.39693 0.0
C1542 C 0.81051 0.80238 0.40401 0.0
H1543 H 0.73295 0.83595 0.35324 0.0
H1544 H 0.75688 0.82837 0.36333 0.0
C1545 C 0.82392 0.79736 0.40942 0.0
C1546 C 0.7787 0.79332 0.39124 0.0
H1547 H 0.75481 0.79271 0.36329 0.0
C1548 C 0.7708 0.80193 0.39915 0.0
C1549 C 0.77316 0.79029 0.37813 0.0
C1550 C 0.78198 0.78214 0.36908 0.0
C1551 C 0.75727 0.80734 0.39432 0.0
C1552 C 0.75122 0.80368 0.38125 0.0
C1553 C 0.75933 0.79532 0.37332 0.0
C1554 C 0.73674 0.8087 0.37553 0.0
C1555 C 0.74991 0.81726 0.40322 0.0
C1556 C 0.71742 0.8001 0.37901 0.0
C1557 C 0.70369 0.80449 0.37331 0.0
C1558 C 0.70897 0.81739 0.3639 0.0
C1559 C 0.72835 0.82595 0.36044 0.0
C1560 C 0.74207 0.82162 0.36618 0.0
H1561 H 0.75991 0.82383 0.41214 0.0
H1562 H 0.74853 0.82907 0.39888 0.0
H1563 H 0.73506 0.80613 0.40555 0.0
H1564 H 0.71285 0.78975 0.38601 0.0
H1565 H 0.68887 0.79754 0.37615 0.0
H1566 H 0.28772 0.06545 0.38459 0.0
H1567 H 0.27384 0.03082 0.37624 0.0
H1568 H 0.21732 0.01693 0.38843 0.0
H1569 H 0.23116 0.05134 0.39707 0.0
H1570 H 0.23089 0.99129 0.39544 0.0
H1571 H 0.23399 0.00092 0.34461 0.0
H1572 H 0.25686 0.01648 0.35446 0.0
H1573 H 0.23589 0.01964 0.35622 0.0
C1574 C 0.27234 0.055 0.3855 0.0
C1575 C 0.26051 0.06113 0.39145 0.0
C1576 C 0.2644 0.03529 0.38062 0.0
C1577 C 0.2445 0.02142 0.38159 0.0
C1578 C 0.23267 0.02748 0.38752 0.0
H1579 H 0.17231 0.90142 0.34591 0.0
H1580 H 0.18651 0.93647 0.35314 0.0
C1581 C 0.24057 0.04716 0.39237 0.0
C1582 C 0.23617 1.0004 0.37689 0.0
H1583 H 0.22514 0.96903 0.35028 0.0
C1584 C 0.2296 0.98639 0.38557 0.0
C1585 C 0.23436 0.99412 0.36399 0.0
C1586 C 0.24048 0.00852 0.35423 0.0
C1587 C 0.22145 0.96622 0.38171 0.0
C1588 C 0.22007 0.95998 0.36886 0.0
C1589 C 0.2264 0.97395 0.36015 0.0
C1590 C 0.21184 0.93894 0.36428 0.0
C1591 C 0.21408 0.95169 0.39138 0.0
C1592 C 0.22158 0.92887 0.36804 0.0
C1593 C 0.21354 0.90887 0.36394 0.0
C1594 C 0.19563 0.89861 0.35597 0.0
C1595 C 0.18608 0.90886 0.35207 0.0
C1596 C 0.19417 0.92888 0.35617 0.0
H1597 H 0.21208 0.95829 0.40023 0.0
H1598 H 0.19977 0.93832 0.38769 0.0
H1599 H 0.22505 0.94697 0.39363 0.0
H1600 H 0.23539 0.9365 0.37417 0.0
H1601 H 0.22131 0.90144 0.36708 0.0
H1602 H 0.51108 0.60957 0.30683 0.0
H1603 H 0.53451 0.64359 0.31571 0.0
H1604 H 0.57183 0.64991 0.28647 0.0
H1605 H 0.54824 0.61608 0.27726 0.0
H1606 H 0.59075 0.66403 0.31407 0.0
H1607 H 0.5427 0.69294 0.29627 0.0
H1608 H 0.53116 0.6708 0.30403 0.0
H1609 H 0.54051 0.67029 0.28927 0.0
C1610 C 0.52421 0.6182 0.30223 0.0
C1611 C 0.5277 0.61013 0.29126 0.0
C1612 C 0.5376 0.63758 0.30736 0.0
C1613 C 0.55475 0.64918 0.30166 0.0
C1614 C 0.55864 0.64108 0.29097 0.0
H1615 H 0.65335 0.76972 0.31999 0.0
H1616 H 0.63213 0.73501 0.31161 0.0
C1617 C 0.5452 0.62173 0.28578 0.0
C1618 C 0.56829 0.67001 0.30667 0.0
H1619 H 0.57197 0.71527 0.30928 0.0
C1620 C 0.58675 0.67531 0.31302 0.0
C1621 C 0.56287 0.68453 0.30527 0.0
C1622 C 0.54329 0.67951 0.29828 0.0
C1623 C 0.59989 0.69483 0.31827 0.0
C1624 C 0.59452 0.70943 0.31682 0.0
C1625 C 0.57605 0.70406 0.31038 0.0
C1626 C 0.60765 0.73034 0.32204 0.0
C1627 C 0.61911 0.69951 0.32562 0.0
C1628 C 0.60073 0.73936 0.33041 0.0
C1629 C 0.61269 0.75924 0.33507 0.0
C1630 C 0.63183 0.77047 0.33144 0.0
C1631 C 0.63874 0.76141 0.32305 0.0
C1632 C 0.62669 0.74154 0.31831 0.0
H1633 H 0.61846 0.68601 0.3288 0.0
H1634 H 0.63125 0.70604 0.31953 0.0
H1635 H 0.62284 0.71032 0.33397 0.0
H1636 H 0.58605 0.731 0.33336 0.0
H1637 H 0.60692 0.76576 0.34153 0.0
H1638 H 0.35179 0.89932 0.26918 0.0
H1639 H 0.32211 0.89104 0.27958 0.0
H1640 H 0.34292 0.8689 0.30919 0.0
H1641 H 0.37292 0.87768 0.29908 0.0
H1642 H 0.2935 0.85366 0.28532 0.0
H1643 H 0.3293 0.90653 0.32846 0.0
H1644 H 0.34185 0.90862 0.31462 0.0
H1645 H 0.33946 0.89084 0.32518 0.0
C1646 C 0.35021 0.89297 0.27801 0.0
C1647 C 0.36477 0.88923 0.28332 0.0
C1648 C 0.33317 0.88812 0.28389 0.0
C1649 C 0.33043 0.87958 0.29523 0.0
C1650 C 0.34489 0.87578 0.30055 0.0
H1651 H 0.23463 0.83902 0.34321 0.0
H1652 H 0.26475 0.84617 0.33362 0.0
C1653 C 0.36193 0.88061 0.29468 0.0
C1654 C 0.31214 0.87409 0.30127 0.0
H1655 H 0.29507 0.88321 0.32792 0.0
C1656 C 0.29382 0.86015 0.29462 0.0
C1657 C 0.31264 0.88252 0.31343 0.0
C1658 C 0.33183 0.89809 0.32082 0.0
C1659 C 0.27598 0.85429 0.29983 0.0
C1660 C 0.27646 0.86285 0.31194 0.0
C1661 C 0.29478 0.87665 0.31865 0.0
C1662 C 0.25807 0.85818 0.31763 0.0
C1663 C 0.25678 0.83877 0.29241 0.0
C1664 C 0.24446 0.86275 0.31187 0.0
C1665 C 0.22727 0.8587 0.3173 0.0
C1666 C 0.22338 0.85008 0.32866 0.0
C1667 C 0.23711 0.84559 0.33444 0.0
C1668 C 0.25435 0.84969 0.32899 0.0
H1669 H 0.25928 0.82993 0.28503 0.0
H1670 H 0.24644 0.8286 0.29864 0.0
H1671 H 0.24954 0.84613 0.28771 0.0
H1672 H 0.24723 0.86966 0.30323 0.0
H1673 H 0.21709 0.86243 0.3126 0.0
H1674 H 0.04975 0.43893 0.30234 0.0
H1675 H 0.06343 0.419 0.31016 0.0
H1676 H 0.11973 0.45887 0.29758 0.0
H1677 H 0.10619 0.47881 0.28975 0.0
H1678 H 0.07997 0.39979 0.29721 0.0
H1679 H 0.13465 0.45675 0.33447 0.0
H1680 H 0.11461 0.45863 0.32664 0.0
H1681 H 0.13661 0.46506 0.31913 0.0
C1682 C 0.06502 0.44339 0.30121 0.0
C1683 C 0.07695 0.46053 0.29553 0.0
C1684 C 0.07282 0.43204 0.3057 0.0
C1685 C 0.09267 0.43767 0.30463 0.0
C1686 C 0.10451 0.45455 0.29877 0.0
H1687 H 0.14795 0.36576 0.31212 0.0
H1688 H 0.13334 0.38484 0.3043 0.0
C1689 C 0.09675 0.46592 0.29431 0.0
C1690 C 0.10097 0.42575 0.30948 0.0
H1691 H 0.13746 0.42824 0.33007 0.0
C1692 C 0.09249 0.40596 0.30443 0.0
C1693 C 0.11715 0.4338 0.31899 0.0
C1694 C 0.12619 0.45467 0.32523 0.0
C1695 C 0.09998 0.39405 0.30851 0.0
C1696 C 0.11659 0.40232 0.31772 0.0
C1697 C 0.12486 0.42202 0.32291 0.0
C1698 C 0.12538 0.39068 0.32236 0.0
C1699 C 0.08985 0.37267 0.30309 0.0
C1700 C 0.12618 0.38808 0.33515 0.0
C1701 C 0.13468 0.37738 0.33967 0.0
C1702 C 0.14259 0.3691 0.33148 0.0
C1703 C 0.14189 0.37185 0.31867 0.0
C1704 C 0.13344 0.38264 0.31416 0.0
H1705 H 0.07455 0.3674 0.29871 0.0
H1706 H 0.09839 0.37104 0.29572 0.0
H1707 H 0.08914 0.36305 0.31044 0.0
H1708 H 0.12012 0.39426 0.34163 0.0
H1709 H 0.13495 0.37555 0.34959 0.0
H1710 H 0.37503 0.48038 0.30435 0.0
H1711 H 0.34437 0.46338 0.31429 0.0
H1712 H 0.31857 0.41766 0.28306 0.0
H1713 H 0.34931 0.43434 0.27318 0.0
H1714 H 0.30502 0.45288 0.3042 0.0
H1715 H 0.31119 0.38753 0.31448 0.0
H1716 H 0.33198 0.4102 0.31078 0.0
H1717 H 0.31366 0.39303 0.29846 0.0
C1718 C 0.3629 0.46659 0.29967 0.0
C1719 C 0.36463 0.45862 0.28802 0.0
C1720 C 0.34538 0.45699 0.30531 0.0
C1721 C 0.32934 0.43918 0.29947 0.0
C1722 C 0.33091 0.43127 0.2878 0.0
H1723 H 0.21201 0.35452 0.31379 0.0
H1724 H 0.24342 0.37468 0.30548 0.0
C1725 C 0.3484 0.44089 0.28212 0.0
C1726 C 0.31085 0.42894 0.3055 0.0
H1727 H 0.28054 0.38577 0.31729 0.0
C1728 C 0.29969 0.43826 0.30716 0.0
C1729 C 0.30405 0.40993 0.30938 0.0
C1730 C 0.3159 0.39961 0.30831 0.0
C1731 C 0.28147 0.42874 0.3122 0.0
C1732 C 0.2745 0.40957 0.31586 0.0
C1733 C 0.2859 0.40045 0.31443 0.0
C1734 C 0.25504 0.39825 0.32072 0.0
C1735 C 0.26953 0.43897 0.31317 0.0
C1736 C 0.25108 0.40491 0.33202 0.0
C1737 C 0.23301 0.3934 0.33682 0.0
C1738 C 0.21875 0.37497 0.33044 0.0
C1739 C 0.22271 0.36856 0.31901 0.0
C1740 C 0.24066 0.38007 0.31423 0.0
H1741 H 0.27475 0.45155 0.30738 0.0
H1742 H 0.25358 0.42846 0.31015 0.0
H1743 H 0.27099 0.44484 0.3231 0.0
H1744 H 0.26213 0.41875 0.33729 0.0
H1745 H 0.23045 0.39869 0.34567 0.0
H1746 H 0.5397 0.89345 0.26393 0.0
H1747 H 0.56219 0.88305 0.27281 0.0
H1748 H 0.53204 0.86998 0.30619 0.0
H1749 H 0.50889 0.8794 0.29715 0.0
H1750 H 0.58801 0.89748 0.29411 0.0
H1751 H 0.53172 0.81915 0.29674 0.0
H1752 H 0.52651 0.83528 0.28801 0.0
H1753 H 0.52596 0.83609 0.30477 0.0
C1754 C 0.53765 0.88808 0.27309 0.0
C1755 C 0.52234 0.8871 0.27977 0.0
C1756 C 0.55062 0.88229 0.27818 0.0
C1757 C 0.54856 0.87538 0.29005 0.0
C1758 C 0.53362 0.87482 0.29688 0.0
H1759 H 0.61373 0.84402 0.34199 0.0
H1760 H 0.59152 0.85295 0.33096 0.0
C1761 C 0.52056 0.88049 0.29177 0.0
C1762 C 0.56228 0.86914 0.29541 0.0
H1763 H 0.56364 0.83075 0.30785 0.0
C1764 C 0.58271 0.88283 0.297 0.0
C1765 C 0.55533 0.84997 0.29911 0.0
C1766 C 0.5337 0.83421 0.29696 0.0
C1767 C 0.59632 0.87806 0.30256 0.0
C1768 C 0.58929 0.8591 0.30655 0.0
C1769 C 0.56893 0.8453 0.3048 0.0
C1770 C 0.60277 0.85355 0.31303 0.0
C1771 C 0.61807 0.89346 0.30446 0.0
C1772 C 0.6163 0.85072 0.30652 0.0
C1773 C 0.62899 0.8455 0.31278 0.0
C1774 C 0.6284 0.8431 0.32566 0.0
C1775 C 0.61468 0.84583 0.33209 0.0
C1776 C 0.60193 0.8509 0.32581 0.0
H1777 H 0.62076 0.9083 0.30255 0.0
H1778 H 0.62438 0.89443 0.31423 0.0
H1779 H 0.62612 0.88912 0.29802 0.0
H1780 H 0.61699 0.85252 0.29661 0.0
H1781 H 0.63934 0.8435 0.30754 0.0
H1782 H 0.08502 0.61131 0.31754 0.0
H1783 H 0.09971 0.64531 0.32747 0.0
H1784 H 0.07058 0.65863 0.29731 0.0
H1785 H 0.05568 0.62466 0.28741 0.0
H1786 H 0.12503 0.67903 0.31526 0.0
H1787 H 0.05937 0.68152 0.32966 0.0
H1788 H 0.05937 0.65865 0.3264 0.0
H1789 H 0.0565 0.67123 0.31371 0.0
C1790 C 0.08141 0.62138 0.31318 0.0
C1791 C 0.06924 0.61538 0.3017 0.0
C1792 C 0.08987 0.64078 0.31883 0.0
C1793 C 0.08607 0.65437 0.31317 0.0
C1794 C 0.07345 0.64826 0.3019 0.0
H1795 H 0.15151 0.7806 0.31598 0.0
H1796 H 0.13501 0.7448 0.31066 0.0
C1797 C 0.0651 0.62892 0.29622 0.0
C1798 C 0.09654 0.67536 0.31842 0.0
H1799 H 0.08904 0.71255 0.32953 0.0
C1800 C 0.11721 0.68634 0.31851 0.0
C1801 C 0.08627 0.68476 0.32271 0.0
C1802 C 0.06417 0.67343 0.32324 0.0
C1803 C 0.12784 0.70669 0.32238 0.0
C1804 C 0.11746 0.71624 0.32616 0.0
C1805 C 0.09689 0.70515 0.32651 0.0
C1806 C 0.12768 0.73785 0.32948 0.0
C1807 C 0.15005 0.71787 0.32234 0.0
C1808 C 0.12879 0.74571 0.34179 0.0
C1809 C 0.13825 0.76615 0.34488 0.0
C1810 C 0.14656 0.77906 0.33566 0.0
C1811 C 0.14531 0.77108 0.32331 0.0
C1812 C 0.13596 0.75065 0.32025 0.0
H1813 H 0.1562 0.70779 0.32194 0.0
H1814 H 0.15385 0.72614 0.31397 0.0
H1815 H 0.15732 0.72871 0.33083 0.0
H1816 H 0.12239 0.73601 0.349 0.0
H1817 H 0.13888 0.7718 0.35447 0.0
H1818 H 0.789 0.0569 0.38816 0.0
H1819 H 0.76597 0.02356 0.37781 0.0
H1820 H 0.79956 0.00138 0.39731 0.0
H1821 H 0.82288 0.03463 0.40739 0.0
H1822 H 0.78926 0.98786 0.37153 0.0
H1823 H 0.72437 0.97786 0.39542 0.0
H1824 H 0.73617 0.99954 0.38729 0.0
H1825 H 0.74938 0.99724 0.4008 0.0
C1826 C 0.79154 0.04494 0.39016 0.0
C1827 C 0.80766 0.04836 0.39868 0.0
C1828 C 0.77829 0.02589 0.38433 0.0
C1829 C 0.78093 0.01 0.38695 0.0
C1830 C 0.7972 0.01345 0.39524 0.0
H1831 H 0.70279 0.88446 0.37782 0.0
H1832 H 0.72441 0.91951 0.38508 0.0
C1833 C 0.81042 0.03242 0.40106 0.0
C1834 C 0.76681 0.98967 0.38112 0.0
H1835 H 0.7192 0.95179 0.3806 0.0
C1836 C 0.7739 0.97998 0.37343 0.0
C1837 C 0.74686 0.97944 0.38376 0.0
C1838 C 0.73869 0.98893 0.39234 0.0
C1839 C 0.76161 0.96022 0.36838 0.0
C1840 C 0.74164 0.95 0.37098 0.0
C1841 C 0.73449 0.95974 0.37857 0.0
C1842 C 0.72821 0.92889 0.36643 0.0
C1843 C 0.77025 0.95023 0.36066 0.0
C1844 C 0.72301 0.9226 0.35353 0.0
C1845 C 0.71069 0.90256 0.34933 0.0
C1846 C 0.70327 0.88846 0.35798 0.0
C1847 C 0.70828 0.89489 0.3709 0.0
C1848 C 0.7206 0.91492 0.37508 0.0
H1849 H 0.78672 0.95874 0.36182 0.0
H1850 H 0.76523 0.93511 0.36329 0.0
H1851 H 0.76512 0.94893 0.35058 0.0
H1852 H 0.72847 0.93321 0.34671 0.0
H1853 H 0.70703 0.89813 0.33931 0.0
H1854 H 0.99514 0.80677 0.42004 0.0
H1855 H 0.02561 0.81709 0.41011 0.0
H1856 H 0.998 0.76074 0.3875 0.0
H1857 H 0.96754 0.75014 0.39754 0.0
H1858 H 0.03763 0.77442 0.39945 0.0
H1859 H 0.0322 0.83068 0.37311 0.0
H1860 H 0.03003 0.8326 0.38965 0.0
H1861 H 0.0113 0.81141 0.3796 0.0
C1862 C 0.99561 0.7965 0.41304 0.0
C1863 C 0.97891 0.77765 0.40955 0.0
C1864 C 0.01295 0.80249 0.40729 0.0
C1865 C 0.01393 0.78976 0.39797 0.0
C1866 C 0.99746 0.77081 0.39463 0.0
H1867 H 0.10056 0.8159 0.34503 0.0
H1868 H 0.07053 0.80591 0.35533 0.0
C1869 C 0.98006 0.76484 0.40032 0.0
C1870 C 0.03218 0.79617 0.39174 0.0
H1871 H 0.06168 0.82927 0.3725 0.0
C1872 C 0.04291 0.7864 0.39355 0.0
C1873 C 0.03887 0.81167 0.38396 0.0
C1874 C 0.02746 0.82214 0.38134 0.0
C1875 C 0.06036 0.79192 0.38791 0.0
C1876 C 0.06728 0.8077 0.38035 0.0
C1877 C 0.0564 0.81729 0.37839 0.0
C1878 C 0.08563 0.81425 0.3742 0.0
C1879 C 0.07111 0.78064 0.38991 0.0
C1880 C 0.1041 0.8226 0.3814 0.0
C1881 C 0.12134 0.82842 0.37556 0.0
C1882 C 0.12041 0.82597 0.36238 0.0
C1883 C 0.10187 0.81796 0.35519 0.0
C1884 C 0.08466 0.81223 0.36105 0.0
H1885 H 0.06164 0.76633 0.39363 0.0
H1886 H 0.07612 0.7777 0.381 0.0
H1887 H 0.08442 0.78961 0.3968 0.0
H1888 H 0.10519 0.82461 0.39156 0.0
H1889 H 0.13534 0.83473 0.38139 0.0
H1890 H 0.28091 0.24625 0.4061 0.0
H1891 H 0.2647 0.26272 0.39637 0.0
H1892 H 0.23866 0.21662 0.36537 0.0
H1893 H 0.25454 0.19984 0.37514 0.0
H1894 H 0.26667 0.27557 0.3711 0.0
H1895 H 0.19103 0.21804 0.38005 0.0
H1896 H 0.21322 0.22056 0.38822 0.0
H1897 H 0.20554 0.20962 0.37221 0.0
C1898 C 0.27175 0.23964 0.3972 0.0
C1899 C 0.26889 0.2217 0.39142 0.0
C1900 C 0.2626 0.2491 0.39164 0.0
C1901 C 0.25032 0.24071 0.38026 0.0
C1902 C 0.24792 0.22316 0.37424 0.0
H1903 H 0.17395 0.27755 0.34165 0.0
H1904 H 0.19079 0.25942 0.34736 0.0
C1905 C 0.25714 0.21372 0.37977 0.0
C1906 C 0.23966 0.25016 0.3749 0.0
H1907 H 0.19364 0.24482 0.36986 0.0
C1908 C 0.2507 0.26884 0.37075 0.0
C1909 C 0.21882 0.24122 0.37442 0.0
C1910 C 0.20638 0.22131 0.37903 0.0
C1911 C 0.24144 0.27896 0.36622 0.0
C1912 C 0.22066 0.27032 0.36614 0.0
C1913 C 0.20957 0.25139 0.36997 0.0
C1914 C 0.21032 0.28111 0.36271 0.0
C1915 C 0.25398 0.29877 0.36153 0.0
C1916 C 0.21542 0.29904 0.36965 0.0
C1917 C 0.20589 0.30942 0.36642 0.0
C1918 C 0.19091 0.30197 0.35625 0.0
C1919 C 0.18544 0.28371 0.34952 0.0
C1920 C 0.19506 0.27335 0.35275 0.0
H1921 H 0.26807 0.30044 0.35864 0.0
H1922 H 0.24589 0.30087 0.35342 0.0
H1923 H 0.25778 0.31066 0.36918 0.0
H1924 H 0.22678 0.30501 0.37759 0.0
H1925 H 0.21034 0.32333 0.3719 0.0
H1926 H 0.63111 0.52007 0.71982 0.0
H1927 H 0.66218 0.53967 0.71081 0.0
H1928 H 0.6812 0.58622 0.74105 0.0
H1929 H 0.65036 0.56658 0.75031 0.0
H1930 H 0.68637 0.59863 0.7159 0.0
H1931 H 0.71752 0.55029 0.7262 0.0
H1932 H 0.69279 0.53793 0.7182 0.0
H1933 H 0.6974 0.54954 0.73397 0.0
C1934 C 0.64197 0.5344 0.72464 0.0
C1935 C 0.63828 0.54168 0.73585 0.0
C1936 C 0.65968 0.54558 0.71945 0.0
C1937 C 0.67404 0.56425 0.72536 0.0
C1938 C 0.67028 0.5718 0.73638 0.0
H1939 H 0.79709 0.63669 0.71244 0.0
H1940 H 0.76599 0.61708 0.7214 0.0
C1941 C 0.6526 0.5606 0.74161 0.0
C1942 C 0.693 0.57592 0.72004 0.0
H1943 H 0.73536 0.57618 0.71377 0.0
C1944 C 0.69711 0.59376 0.71543 0.0
C1945 C 0.70702 0.56958 0.71958 0.0
C1946 C 0.70363 0.55087 0.72483 0.0
C1947 C 0.71478 0.60532 0.71018 0.0
C1948 C 0.72859 0.59874 0.70946 0.0
C1949 C 0.72464 0.58106 0.71425 0.0
C1950 C 0.74737 0.61018 0.7039 0.0
C1951 C 0.71871 0.62459 0.70557 0.0
C1952 C 0.74716 0.61248 0.69104 0.0
C1953 C 0.76491 0.62361 0.68586 0.0
C1954 C 0.78318 0.63267 0.69346 0.0
C1955 C 0.78331 0.63001 0.70632 0.0
C1956 C 0.76555 0.61879 0.71146 0.0
H1957 H 0.70866 0.62949 0.70915 0.0
H1958 H 0.73429 0.63638 0.70849 0.0
H1959 H 0.71633 0.62271 0.69515 0.0
H1960 H 0.73326 0.60569 0.68502 0.0
H1961 H 0.76425 0.62532 0.67593 0.0
H1962 H 0.50152 0.12263 0.72497 0.0
H1963 H 0.47779 0.13121 0.71548 0.0
H1964 H 0.44557 0.11533 0.74792 0.0
H1965 H 0.46925 0.1068 0.7575 0.0
H1966 H 0.43285 0.10342 0.71159 0.0
H1967 H 0.4589 0.17387 0.74194 0.0
H1968 H 0.47467 0.16352 0.73946 0.0
H1969 H 0.45542 0.15272 0.74954 0.0
C1970 C 0.48946 0.12111 0.73011 0.0
C1971 C 0.48724 0.11406 0.74198 0.0
C1972 C 0.4759 0.12592 0.72467 0.0
C1973 C 0.46008 0.12402 0.73107 0.0
C1974 C 0.4578 0.11702 0.7429 0.0
H1975 H 0.36699 0.15194 0.71501 0.0
H1976 H 0.39033 0.14322 0.72479 0.0
C1977 C 0.47124 0.11203 0.7483 0.0
C1978 C 0.44569 0.129 0.72526 0.0
H1979 H 0.43054 0.16292 0.72746 0.0
C1980 C 0.43233 0.11644 0.71501 0.0
C1981 C 0.44502 0.14589 0.72986 0.0
C1982 C 0.4593 0.15992 0.74076 0.0
C1983 C 0.41809 0.12022 0.70928 0.0
C1984 C 0.4176 0.13734 0.71373 0.0
C1985 C 0.43095 0.14984 0.72404 0.0
C1986 C 0.40348 0.14263 0.70776 0.0
C1987 C 0.4034 0.10558 0.69873 0.0
C1988 C 0.40333 0.1455 0.69498 0.0
C1989 C 0.38992 0.15032 0.68934 0.0
C1990 C 0.37656 0.15266 0.69641 0.0
C1991 C 0.37704 0.15021 0.70928 0.0
C1992 C 0.39037 0.14523 0.71489 0.0
H1993 H 0.4019 0.09077 0.69903 0.0
H1994 H 0.38854 0.10402 0.69911 0.0
H1995 H 0.40864 0.11081 0.68961 0.0
H1996 H 0.41367 0.14411 0.68937 0.0
H1997 H 0.39012 0.15233 0.67945 0.0
H1998 H 0.92829 0.40065 0.70833 0.0
H1999 H 0.91417 0.36591 0.70013 0.0
H2000 H 0.93336 0.35403 0.73546 0.0
H2001 H 0.94731 0.38869 0.7438 0.0
H2002 H 0.93327 0.34145 0.69887 0.0
H2003 H 0.87151 0.31567 0.72894 0.0
H2004 H 0.88587 0.34111 0.7258 0.0
H2005 H 0.89608 0.33139 0.73685 0.0
C2006 C 0.92954 0.39063 0.71433 0.0
C2007 C 0.93878 0.39733 0.72673 0.0
C2008 C 0.92157 0.37086 0.70962 0.0
C2009 C 0.92257 0.35746 0.71726 0.0
C2010 C 0.93232 0.36418 0.72949 0.0
H2011 H 0.89299 0.23629 0.69798 0.0
H2012 H 0.90958 0.27163 0.70503 0.0
C2013 C 0.9404 0.38398 0.73419 0.0
C2014 C 0.91276 0.33629 0.71256 0.0
H2015 H 0.87395 0.29109 0.71664 0.0
C2016 C 0.92031 0.3304 0.70274 0.0
C2017 C 0.89573 0.32204 0.71755 0.0
C2018 C 0.88665 0.32779 0.72781 0.0
C2019 C 0.91139 0.31047 0.69788 0.0
C2020 C 0.8946 0.29618 0.70306 0.0
C2021 C 0.8869 0.30212 0.71276 0.0
C2022 C 0.88474 0.27493 0.69852 0.0
C2023 C 0.91978 0.30485 0.68714 0.0
C2024 C 0.86519 0.26509 0.69271 0.0
C2025 C 0.85564 0.2449 0.68867 0.0
C2026 C 0.86545 0.23418 0.6905 0.0
C2027 C 0.88503 0.24411 0.6964 0.0
C2028 C 0.89458 0.26432 0.70038 0.0
H2029 H 0.92992 0.3179 0.68249 0.0
H2030 H 0.92828 0.298 0.69078 0.0
H2031 H 0.9077 0.29388 0.68002 0.0
H2032 H 0.85734 0.27307 0.69128 0.0
H2033 H 0.84055 0.23769 0.6842 0.0
H2034 H 0.17514 0.96341 0.60692 0.0
H2035 H 0.1987 0.99786 0.61485 0.0
H2036 H 0.23653 0.97993 0.63382 0.0
H2037 H 0.21301 0.94542 0.62597 0.0
H2038 H 0.21094 0.01418 0.63947 0.0
H2039 H 0.27503 0.02456 0.6148 0.0
H2040 H 0.25027 0.00394 0.61042 0.0
H2041 H 0.26541 0.00364 0.62366 0.0
C2042 C 0.18845 0.96679 0.61282 0.0
C2043 C 0.19222 0.95168 0.61581 0.0
C2044 C 0.20194 0.98649 0.61727 0.0
C2045 C 0.2195 0.99148 0.62475 0.0
C2046 C 0.2233 0.97645 0.6278 0.0
H2047 H 0.29252 0.09509 0.67663 0.0
H2048 H 0.2699 0.06216 0.66597 0.0
C2049 C 0.20983 0.95674 0.62333 0.0
C2050 C 0.23337 0.0123 0.62986 0.0
H2051 H 0.28142 0.04967 0.6312 0.0
C2052 C 0.22632 0.02199 0.63759 0.0
C2053 C 0.25334 0.02253 0.62725 0.0
C2054 C 0.26145 0.01323 0.61848 0.0
C2055 C 0.23885 0.04146 0.64308 0.0
C2056 C 0.25904 0.05138 0.64094 0.0
C2057 C 0.26597 0.04193 0.63291 0.0
C2058 C 0.27326 0.07136 0.64727 0.0
C2059 C 0.23035 0.05127 0.65111 0.0
C2060 C 0.28313 0.08736 0.64024 0.0
C2061 C 0.29621 0.10629 0.64632 0.0
C2062 C 0.2997 0.10946 0.65951 0.0
C2063 C 0.29009 0.09325 0.66647 0.0
C2064 C 0.27706 0.0744 0.6604 0.0
H2065 H 0.21399 0.04393 0.64902 0.0
H2066 H 0.23376 0.05031 0.66115 0.0
H2067 H 0.23695 0.06713 0.64968 0.0
H2068 H 0.28047 0.08525 0.63008 0.0
H2069 H 0.30343 0.11843 0.64068 0.0
H2070 H 0.01302 0.18865 0.608 0.0
H2071 H 0.98336 0.18059 0.61828 0.0
H2072 H 0.00784 0.24218 0.63136 0.0
H2073 H 0.03799 0.25029 0.62161 0.0
H2074 H 0.99158 0.21846 0.64975 0.0
H2075 H 0.93889 0.18999 0.60631 0.0
H2076 H 0.95286 0.17767 0.60826 0.0
H2077 H 0.96542 0.20348 0.60602 0.0
C2078 C 0.0122 0.20049 0.61315 0.0
C2079 C 0.02792 0.22015 0.61394 0.0
C2080 C 0.9951 0.19587 0.61889 0.0
C2081 C 0.99322 0.21082 0.6254 0.0
C2082 C 0.00891 0.23043 0.6263 0.0
H2083 H 0.88541 0.20251 0.64783 0.0
H2084 H 0.91519 0.20957 0.63806 0.0
C2085 C 0.02607 0.23506 0.62062 0.0
C2086 C 0.97507 0.20601 0.6315 0.0
H2087 H 0.92484 0.18498 0.62566 0.0
C2088 C 0.97699 0.21117 0.64448 0.0
C2089 C 0.95607 0.19672 0.62459 0.0
C2090 C 0.95314 0.19181 0.61051 0.0
C2091 C 0.9604 0.20717 0.65077 0.0
C2092 C 0.94133 0.19734 0.64393 0.0
C2093 C 0.93944 0.19231 0.63092 0.0
C2094 C 0.9232 0.1928 0.64996 0.0
C2095 C 0.96355 0.21397 0.66462 0.0
C2096 C 0.91762 0.18078 0.65982 0.0
C2097 C 0.90061 0.1768 0.66552 0.0
C2098 C 0.88873 0.18458 0.66136 0.0
C2099 C 0.89419 0.19629 0.65131 0.0
C2100 C 0.91123 0.20034 0.64569 0.0
H2101 H 0.97913 0.22571 0.66767 0.0
H2102 H 0.95361 0.21972 0.66701 0.0
H2103 H 0.96016 0.20128 0.67005 0.0
H2104 H 0.92637 0.17441 0.66308 0.0
H2105 H 0.89676 0.1676 0.67315 0.0
H2106 H 0.77284 0.81256 0.62507 0.0
H2107 H 0.78653 0.79272 0.63282 0.0
H2108 H 0.73096 0.75373 0.64656 0.0
H2109 H 0.71711 0.77357 0.63882 0.0
H2110 H 0.791 0.78442 0.65713 0.0
H2111 H 0.74194 0.71576 0.6253 0.0
H2112 H 0.74408 0.73923 0.62274 0.0
H2113 H 0.72911 0.72495 0.63432 0.0
C2114 C 0.76356 0.79984 0.62982 0.0
C2115 C 0.74389 0.79462 0.63135 0.0
C2116 C 0.77138 0.78848 0.63419 0.0
C2117 C 0.75968 0.77164 0.64011 0.0
C2118 C 0.7401 0.76645 0.64177 0.0
H2119 H 0.80478 0.71072 0.68473 0.0
H2120 H 0.78992 0.72982 0.67747 0.0
C2121 C 0.73222 0.7778 0.63737 0.0
C2122 C 0.76821 0.75976 0.64471 0.0
H2123 H 0.76332 0.71397 0.64119 0.0
C2124 C 0.78496 0.76902 0.65366 0.0
C2125 C 0.76042 0.73975 0.64003 0.0
C2126 C 0.74301 0.72933 0.62998 0.0
C2127 C 0.7941 0.75875 0.65811 0.0
C2128 C 0.78604 0.7386 0.65365 0.0
C2129 C 0.76936 0.72938 0.64465 0.0
C2130 C 0.79491 0.72692 0.65805 0.0
C2131 C 0.81256 0.76967 0.66734 0.0
C2132 C 0.80221 0.71857 0.64948 0.0
C2133 C 0.81059 0.70752 0.65357 0.0
C2134 C 0.81176 0.70458 0.66632 0.0
C2135 C 0.80426 0.71283 0.67486 0.0
C2136 C 0.79584 0.72384 0.67075 0.0
H2137 H 0.81962 0.78594 0.66731 0.0
H2138 H 0.80858 0.76607 0.67695 0.0
H2139 H 0.82357 0.76521 0.6652 0.0
H2140 H 0.80154 0.72073 0.63962 0.0
H2141 H 0.81616 0.70131 0.64673 0.0
H2142 H 0.01918 0.76985 0.60659 0.0
H2143 H 0.98855 0.75261 0.61649 0.0
H2144 H 0.01169 0.80082 0.64604 0.0
H2145 H 0.04215 0.81844 0.63602 0.0
H2146 H 0.98414 0.74083 0.64098 0.0
H2147 H 0.9573 0.79347 0.63363 0.0
H2148 H 0.97656 0.79341 0.62527 0.0
H2149 H 0.9821 0.80429 0.64129 0.0
C2150 C 0.01767 0.77689 0.61512 0.0
C2151 C 0.03307 0.79557 0.62048 0.0
C2152 C 1.00022 0.76697 0.6208 0.0
C2153 C 0.99776 0.77557 0.63189 0.0
C2154 C 0.01317 0.79408 0.63736 0.0
H2155 H 0.89909 0.73321 0.67786 0.0
H2156 H 0.93075 0.75298 0.66941 0.0
C2157 C 0.03065 0.80401 0.6317 0.0
C2158 C 0.97919 0.76493 0.63782 0.0
H2159 H 0.93866 0.76722 0.64557 0.0
C2160 C 0.97419 0.74658 0.64198 0.0
C2161 C 0.96631 0.77256 0.63918 0.0
C2162 C 0.97068 0.79194 0.63453 0.0
C2163 C 0.95663 0.73562 0.64748 0.0
C2164 C 0.94357 0.74306 0.64862 0.0
C2165 C 0.94871 0.76157 0.64466 0.0
C2166 C 0.92419 0.73149 0.65353 0.0
C2167 C 0.95232 0.71626 0.65213 0.0
C2168 C 0.90986 0.71313 0.64721 0.0
C2169 C 0.89183 0.70182 0.65199 0.0
C2170 C 0.88768 0.70871 0.66316 0.0
C2171 C 0.90183 0.72743 0.66927 0.0
C2172 C 0.91992 0.73874 0.66446 0.0
H2173 H 0.966 0.71535 0.65376 0.0
H2174 H 0.94529 0.71414 0.661 0.0
H2175 H 0.94194 0.70393 0.64496 0.0
H2176 H 0.91268 0.70748 0.63859 0.0
H2177 H 0.88122 0.68759 0.64695 0.0
H2178 H 0.17148 0.2088 0.63001 0.0
H2179 H 0.1953 0.20054 0.63968 0.0
H2180 H 0.23307 0.2258 0.61054 0.0
H2181 H 0.20947 0.23435 0.6009 0.0
H2182 H 0.20911 0.1761 0.6272 0.0
H2183 H 0.27 0.25226 0.64429 0.0
H2184 H 0.2447 0.24637 0.64041 0.0
H2185 H 0.25988 0.24824 0.62813 0.0
C2186 C 0.18497 0.21281 0.62575 0.0
C2187 C 0.18862 0.22226 0.61471 0.0
C2188 C 0.19849 0.20799 0.63124 0.0
C2189 C 0.21599 0.21273 0.62588 0.0
C2190 C 0.21975 0.22223 0.6149 0.0
H2191 H 0.31596 0.19663 0.64695 0.0
H2192 H 0.29295 0.20534 0.63664 0.0
C2193 C 0.20618 0.22695 0.60935 0.0
C2194 C 0.23003 0.20717 0.63156 0.0
H2195 H 0.2767 0.22632 0.64653 0.0
C2196 C 0.22388 0.18705 0.63146 0.0
C2197 C 0.2493 0.22152 0.637 0.0
C2198 C 0.25641 0.24333 0.63759 0.0
C2199 C 0.2366 0.18085 0.63656 0.0
C2200 C 0.2558 0.1952 0.6422 0.0
C2201 C 0.26198 0.21535 0.64221 0.0
C2202 C 0.26959 0.18962 0.64832 0.0
C2203 C 0.22949 0.15902 0.63563 0.0
C2204 C 0.26417 0.17807 0.6584 0.0
C2205 C 0.27721 0.17296 0.66425 0.0
C2206 C 0.29607 0.17953 0.66026 0.0
C2207 C 0.30155 0.1913 0.65026 0.0
C2208 C 0.28843 0.19631 0.64436 0.0
H2209 H 0.21723 0.15063 0.62794 0.0
H2210 H 0.24172 0.15612 0.63397 0.0
H2211 H 0.22379 0.15328 0.64457 0.0
H2212 H 0.24991 0.17316 0.66183 0.0
H2213 H 0.27256 0.16404 0.67201 0.0
H2214 H 0.71635 0.94525 0.64306 0.0
H2215 H 0.73017 0.97944 0.65246 0.0
H2216 H 0.78244 0.99711 0.63348 0.0
H2217 H 0.76903 0.96304 0.62434 0.0
H2218 H 0.79032 0.01257 0.65902 0.0
H2219 H 0.73436 0.0247 0.63261 0.0
H2220 H 0.72471 0.00371 0.64144 0.0
H2221 H 0.73785 0.00413 0.62826 0.0
C2222 C 0.73086 0.95641 0.64099 0.0
C2223 C 0.74152 0.95151 0.63286 0.0
C2224 C 0.73864 0.97593 0.64628 0.0
C2225 C 0.75718 0.9908 0.6435 0.0
C2226 C 0.76805 0.98585 0.63566 0.0
H2227 H 0.81242 0.11699 0.64806 0.0
H2228 H 0.79638 0.08141 0.64202 0.0
C2229 C 0.7603 0.96641 0.63037 0.0
C2230 C 0.76536 0.01164 0.64861 0.0
H2231 H 0.75862 0.05122 0.64682 0.0
C2232 C 0.78335 0.02102 0.65644 0.0
C2233 C 0.75628 0.0226 0.64508 0.0
C2234 C 0.73731 0.01339 0.63631 0.0
C2235 C 0.79266 0.04119 0.66076 0.0
C2236 C 0.78356 0.05214 0.65726 0.0
C2237 C 0.76547 0.04271 0.64953 0.0
C2238 C 0.79304 0.07361 0.66105 0.0
C2239 C 0.81246 0.05076 0.66868 0.0
C2240 C 0.79628 0.08095 0.67375 0.0
C2241 C 0.80549 0.10128 0.67725 0.0
C2242 C 0.81152 0.11461 0.66809 0.0
C2243 C 0.80802 0.10715 0.65536 0.0
C2244 C 0.79882 0.08683 0.65188 0.0
H2245 H 0.81939 0.04138 0.66823 0.0
H2246 H 0.82283 0.06534 0.66562 0.0
H2247 H 0.81035 0.05319 0.67862 0.0
H2248 H 0.79162 0.07095 0.68095 0.0
H2249 H 0.80786 0.10652 0.68714 0.0
H2250 H 0.49591 0.3701 0.74608 0.0
H2251 H 0.47245 0.33627 0.73691 0.0
H2252 H 0.43669 0.35653 0.71789 0.0
H2253 H 0.4602 0.39049 0.72699 0.0
H2254 H 0.43301 0.31324 0.7395 0.0
H2255 H 0.44393 0.32474 0.68945 0.0
H2256 H 0.46052 0.34272 0.70221 0.0
H2257 H 0.43717 0.34093 0.69746 0.0
C2258 C 0.48302 0.36735 0.73997 0.0
C2259 C 0.47992 0.38296 0.73724 0.0
C2260 C 0.46967 0.34803 0.73471 0.0
C2261 C 0.45296 0.34392 0.7266 0.0
C2262 C 0.44972 0.35943 0.72391 0.0
H2263 H 0.35108 0.22534 0.70562 0.0
H2264 H 0.37306 0.25961 0.71465 0.0
C2265 C 0.46314 0.37881 0.72912 0.0
C2266 C 0.43878 0.32329 0.7212 0.0
H2267 H 0.41806 0.29347 0.69353 0.0
C2268 C 0.42973 0.30889 0.72945 0.0
C2269 C 0.4347 0.31765 0.70809 0.0
C2270 C 0.44471 0.33226 0.69877 0.0
C2271 C 0.41668 0.28899 0.72495 0.0
C2272 C 0.41227 0.28342 0.71184 0.0
C2273 C 0.42134 0.29782 0.70359 0.0
C2274 C 0.39885 0.26262 0.70646 0.0
C2275 C 0.40816 0.27404 0.73428 0.0
C2276 C 0.40594 0.25308 0.69864 0.0
C2277 C 0.3934 0.23358 0.69338 0.0
C2278 C 0.37346 0.22322 0.69581 0.0
C2279 C 0.36638 0.23283 0.70364 0.0
C2280 C 0.37894 0.25239 0.70886 0.0
H2281 H 0.41685 0.27977 0.7437 0.0
H2282 H 0.39277 0.27056 0.73532 0.0
H2283 H 0.40773 0.26011 0.73102 0.0
H2284 H 0.42124 0.26072 0.69664 0.0
H2285 H 0.39936 0.22667 0.68739 0.0
H2286 H 0.66348 0.14377 0.75603 0.0
H2287 H 0.69419 0.15413 0.74638 0.0
H2288 H 0.66661 0.09827 0.72322 0.0
H2289 H 0.63593 0.08761 0.73299 0.0
H2290 H 0.70586 0.11122 0.73506 0.0
H2291 H 0.70163 0.16902 0.70982 0.0
H2292 H 0.69951 0.17053 0.72639 0.0
H2293 H 0.68056 0.14973 0.71616 0.0
C2294 C 0.664 0.1336 0.74897 0.0
C2295 C 0.64724 0.11488 0.74524 0.0
C2296 C 0.6815 0.13962 0.74339 0.0
C2297 C 0.68256 0.12706 0.73398 0.0
C2298 C 0.66603 0.10822 0.73041 0.0
H2299 H 0.76779 0.15379 0.68029 0.0
H2300 H 0.73836 0.14424 0.69115 0.0
C2301 C 0.64849 0.10221 0.73595 0.0
C2302 C 0.70091 0.13356 0.72782 0.0
H2303 H 0.73076 0.16708 0.70891 0.0
C2304 C 0.71135 0.12344 0.72935 0.0
C2305 C 0.70786 0.14937 0.72028 0.0
C2306 C 0.69677 0.16024 0.71794 0.0
C2307 C 0.72871 0.12884 0.7236 0.0
C2308 C 0.73586 0.14489 0.71625 0.0
C2309 C 0.72532 0.15489 0.71464 0.0
C2310 C 0.75393 0.15113 0.70981 0.0
C2311 C 0.73902 0.11707 0.72523 0.0
C2312 C 0.77252 0.15851 0.71672 0.0
C2313 C 0.78943 0.16404 0.71055 0.0
C2314 C 0.78806 0.16232 0.69733 0.0
C2315 C 0.76943 0.15528 0.69047 0.0
C2316 C 0.75256 0.14981 0.69665 0.0
H2317 H 0.7293 0.10264 0.72873 0.0
H2318 H 0.7439 0.11431 0.71621 0.0
H2319 H 0.75236 0.12558 0.73215 0.0
H2320 H 0.77395 0.16 0.72689 0.0
H2321 H 0.80353 0.16957 0.71615 0.0
H2322 H 0.95372 0.56747 0.71552 0.0
H2323 H 0.93815 0.58489 0.7062 0.0
H2324 H 0.88494 0.54865 0.72318 0.0
H2325 H 0.90035 0.53124 0.73252 0.0
H2326 H 0.90232 0.57114 0.69011 0.0
H2327 H 0.90119 0.60551 0.73665 0.0
H2328 H 0.91565 0.59366 0.73445 0.0
H2329 H 0.88944 0.57905 0.73534 0.0
C2330 C 0.93863 0.5631 0.71715 0.0
C2331 C 0.92834 0.5482 0.72489 0.0
C2332 C 0.92978 0.57306 0.71184 0.0
C2333 C 0.91055 0.56825 0.7142 0.0
C2334 C 0.89996 0.55284 0.72148 0.0
H2335 H 0.83512 0.60827 0.67878 0.0
H2336 H 0.84967 0.58842 0.68528 0.0
C2337 C 0.90879 0.54296 0.72682 0.0
C2338 C 0.90177 0.5798 0.70944 0.0
H2339 H 0.88441 0.61002 0.71915 0.0
C2340 C 0.89841 0.57968 0.69643 0.0
C2341 C 0.89694 0.59108 0.71775 0.0
C2342 C 0.90113 0.59254 0.73183 0.0
C2343 C 0.89009 0.59043 0.69147 0.0
C2344 C 0.88481 0.6013 0.69979 0.0
C2345 C 0.88834 0.60152 0.7128 0.0
C2346 C 0.87625 0.61319 0.6953 0.0
C2347 C 0.88741 0.59039 0.67742 0.0
C2348 C 0.88623 0.63359 0.69894 0.0
C2349 C 0.8779 0.6449 0.69538 0.0
C2350 C 0.85937 0.63602 0.68809 0.0
C2351 C 0.84944 0.61557 0.68435 0.0
C2352 C 0.85779 0.60423 0.68798 0.0
H2353 H 0.89646 0.58531 0.67257 0.0
H2354 H 0.87161 0.5802 0.67386 0.0
H2355 H 0.89151 0.60537 0.67491 0.0
H2356 H 0.90046 0.64077 0.70463 0.0
H2357 H 0.886 0.66062 0.69839 0.0
H2358 H 0.49694 0.95531 0.19334 0.0
H2359 H 0.50357 0.96875 0.17312 0.0
H2360 H 0.4464 0.9647 0.16935 0.0
H2361 H 0.43979 0.95146 0.18969 0.0
H2362 H 0.48333 0.95122 0.15028 0.0
H2363 H 0.48228 0.02067 0.16152 0.0
H2364 H 0.48346 0.00601 0.1735 0.0
H2365 H 0.4602 0.99886 0.16456 0.0
C2366 C 0.48579 0.95732 0.18821 0.0
C2367 C 0.46783 0.95232 0.19309 0.0
C2368 C 0.48963 0.96506 0.17669 0.0
C2369 C 0.4756 0.96798 0.16979 0.0
C2370 C 0.45765 0.96304 0.17464 0.0
H2371 H 0.47019 0.00078 0.09419 0.0
H2372 H 0.46269 0.98947 0.11499 0.0
C2373 C 0.45385 0.95542 0.18624 0.0
C2374 C 0.47949 0.9753 0.15727 0.0
H2375 H 0.48365 0.01219 0.1401 0.0
C2376 C 0.48347 0.96459 0.14809 0.0
C2377 C 0.47963 0.99274 0.1544 0.0
C2378 C 0.47635 0.00536 0.16404 0.0
C2379 C 0.48748 0.97078 0.1361 0.0
C2380 C 0.48764 0.98819 0.13325 0.0
C2381 C 0.48348 0.99882 0.14235 0.0
C2382 C 0.49236 0.99565 0.12088 0.0
C2383 C 0.49133 0.95856 0.1265 0.0
C2384 C 0.51159 0.00311 0.11743 0.0
C2385 C 0.51592 0.00959 0.10559 0.0
C2386 C 0.50107 0.00867 0.09698 0.0
C2387 C 0.48187 0.00145 0.10056 0.0
C2388 C 0.47759 0.9951 0.11245 0.0
H2389 H 0.4869 0.94365 0.12932 0.0
H2390 H 0.4832 0.95685 0.1172 0.0
H2391 H 0.5074 0.9662 0.12541 0.0
H2392 H 0.52321 0.00377 0.12387 0.0
H2393 H 0.5308 0.01492 0.10307 0.0
H2394 H 0.9809 0.48497 0.20301 0.0
H2395 H 0.97303 0.47996 0.18008 0.0
H2396 H 0.03541 0.51111 0.17571 0.0
H2397 H 0.04339 0.51609 0.19856 0.0
H2398 H 0.98818 0.51336 0.16386 0.0
H2399 H 0.00989 0.45719 0.15204 0.0
H2400 H 0.00342 0.46108 0.1674 0.0
H2401 H 0.02715 0.47829 0.16283 0.0
C2402 C 0.9929 0.49052 0.19714 0.0
C2403 C 0.01275 0.50095 0.20254 0.0
C2404 C 0.9884 0.48772 0.18408 0.0
C2405 C 0.00366 0.49505 0.17627 0.0
C2406 C 0.02346 0.50519 0.18162 0.0
H2407 H 0.01219 0.49751 0.0965 0.0
H2408 H 0.01813 0.49977 0.11935 0.0
C2409 C 0.02797 0.50815 0.19465 0.0
C2410 C 0.99899 0.49298 0.16252 0.0
H2411 H 0.00225 0.47101 0.13505 0.0
C2412 C 0.99109 0.504 0.15753 0.0
C2413 C 0.00303 0.4809 0.15438 0.0
C2414 C 0.01122 0.46855 0.15938 0.0
C2415 C 0.9875 0.50362 0.14451 0.0
C2416 C 0.99145 0.49144 0.13632 0.0
C2417 C 0.99923 0.48031 0.14135 0.0
C2418 C 0.98776 0.49018 0.12249 0.0
C2419 C 0.98014 0.51673 0.13966 0.0
C2420 C 0.96868 0.48386 0.11667 0.0
C2421 C 0.9653 0.48286 0.10364 0.0
C2422 C 0.98089 0.48787 0.09614 0.0
C2423 C 0.99993 0.49388 0.102 0.0
C2424 C 0.00332 0.49501 0.11504 0.0
H2425 H 0.98329 0.52903 0.14686 0.0
H2426 H 0.98704 0.52311 0.13113 0.0
H2427 H 0.96384 0.50786 0.13718 0.0
H2428 H 0.95637 0.47966 0.12221 0.0
H2429 H 0.9505 0.47835 0.09947 0.0
H2430 H 0.4981 0.52362 0.19856 0.0
H2431 H 0.50415 0.52152 0.1766 0.0
H2432 H 0.45005 0.46523 0.16911 0.0
H2433 H 0.44399 0.46707 0.19118 0.0
H2434 H 0.48538 0.46761 0.15938 0.0
H2435 H 0.47134 0.52742 0.14645 0.0
H2436 H 0.4883 0.53354 0.16035 0.0
H2437 H 0.46278 0.51477 0.16021 0.0
C2438 C 0.48758 0.51069 0.19228 0.0
C2439 C 0.47057 0.49549 0.1966 0.0
C2440 C 0.49097 0.50962 0.17972 0.0
C2441 C 0.47742 0.49334 0.17125 0.0
C2442 C 0.4606 0.47797 0.17553 0.0
H2443 H 0.47565 0.48534 0.08981 0.0
H2444 H 0.46664 0.48435 0.11127 0.0
C2445 C 0.45712 0.47908 0.1881 0.0
C2446 C 0.48098 0.49243 0.15792 0.0
H2447 H 0.48525 0.51572 0.1315 0.0
C2448 C 0.48525 0.47803 0.15324 0.0
C2449 C 0.48059 0.50594 0.14995 0.0
C2450 C 0.47535 0.52121 0.15442 0.0
C2451 C 0.48969 0.47715 0.14083 0.0
C2452 C 0.48998 0.49111 0.133 0.0
C2453 C 0.48517 0.50515 0.13758 0.0
C2454 C 0.49545 0.49154 0.12003 0.0
C2455 C 0.49398 0.46127 0.13618 0.0
C2456 C 0.51472 0.49618 0.1179 0.0
C2457 C 0.51999 0.49697 0.10567 0.0
C2458 C 0.50609 0.49317 0.09533 0.0
C2459 C 0.4868 0.48861 0.09755 0.0
C2460 C 0.48158 0.4879 0.10979 0.0
H2461 H 0.48866 0.44906 0.14227 0.0
H2462 H 0.48692 0.45503 0.12642 0.0
H2463 H 0.51023 0.46778 0.13616 0.0
H2464 H 0.52575 0.49942 0.12571 0.0
H2465 H 0.53506 0.50087 0.10433 0.0
H2466 H 0.00601 0.54628 0.82374 0.0
H2467 H 0.01396 0.55138 0.8466 0.0
H2468 H 0.00751 0.49342 0.84602 0.0
H2469 H 0.99984 0.48838 0.82318 0.0
H2470 H 0.99084 0.53075 0.86378 0.0
H2471 H 0.0594 0.52646 0.86788 0.0
H2472 H 0.04891 0.52923 0.85318 0.0
H2473 H 0.03933 0.50521 0.85864 0.0
C2474 C 0.00645 0.53471 0.8285 0.0
C2475 C 0.00238 0.51696 0.82168 0.0
C2476 C 0.01103 0.53765 0.84154 0.0
C2477 C 0.01163 0.52291 0.848 0.0
C2478 C 0.00768 0.50523 0.8412 0.0
H2479 H 0.99136 0.49795 0.92381 0.0
H2480 H 0.98918 0.50178 0.90147 0.0
C2481 C 0.00325 0.50233 0.82816 0.0
C2482 C 0.01512 0.52547 0.86191 0.0
H2483 H 0.04287 0.52218 0.8865 0.0
C2484 C 0.00238 0.52913 0.86876 0.0
C2485 C 0.03038 0.52369 0.86841 0.0
C2486 C 0.04541 0.52115 0.86165 0.0
C2487 C 0.00397 0.53025 0.88192 0.0
C2488 C 0.01839 0.52715 0.88837 0.0
C2489 C 0.03166 0.52433 0.88155 0.0
C2490 C 0.01941 0.52587 0.90209 0.0
C2491 C 0.99018 0.53473 0.88877 0.0
C2492 C 0.03723 0.53792 0.90985 0.0
C2493 C 0.03857 0.53563 0.92263 0.0
C2494 C 0.02209 0.52125 0.92787 0.0
C2495 C 0.00419 0.50943 0.92011 0.0
C2496 C 0.00291 0.51162 0.90733 0.0
H2497 H 0.98496 0.54304 0.88316 0.0
H2498 H 0.97695 0.52065 0.89037 0.0
H2499 H 0.99748 0.54347 0.89801 0.0
H2500 H 0.05017 0.54894 0.90598 0.0
H2501 H 0.05252 0.54501 0.9284 0.0
H2502 H 0.55511 0.49748 0.83746 0.0
H2503 H 0.54791 0.50383 0.85852 0.0
H2504 H 0.51814 0.53305 0.84343 0.0
H2505 H 0.52515 0.52662 0.82226 0.0
H2506 H 0.54351 0.55261 0.8666 0.0
H2507 H 0.49107 0.47287 0.86891 0.0
H2508 H 0.51523 0.47842 0.86517 0.0
H2509 H 0.49967 0.48285 0.85439 0.0
C2510 C 0.54702 0.50525 0.83861 0.0
C2511 C 0.54048 0.51133 0.82817 0.0
C2512 C 0.54296 0.5089 0.85065 0.0
C2513 C 0.53221 0.51861 0.85247 0.0
C2514 C 0.5264 0.52547 0.84218 0.0
H2515 H 0.47218 0.51125 0.91887 0.0
H2516 H 0.48047 0.51194 0.8973 0.0
C2517 C 0.53048 0.52184 0.83012 0.0
C2518 C 0.52638 0.52084 0.86506 0.0
H2519 H 0.49965 0.49416 0.88776 0.0
C2520 C 0.53385 0.53987 0.87123 0.0
C2521 C 0.51352 0.50418 0.87096 0.0
C2522 C 0.50423 0.48342 0.86449 0.0
C2523 C 0.52919 0.54266 0.88334 0.0
C2524 C 0.51696 0.52595 0.88944 0.0
C2525 C 0.50913 0.50695 0.88311 0.0
C2526 C 0.5122 0.52763 0.90245 0.0
C2527 C 0.53723 0.56343 0.88944 0.0
C2528 C 0.5273 0.53642 0.91252 0.0
C2529 C 0.52262 0.53625 0.92489 0.0
C2530 C 0.50272 0.52711 0.92743 0.0
C2531 C 0.48766 0.5187 0.91728 0.0
C2532 C 0.49236 0.51894 0.90493 0.0
H2533 H 0.54137 0.57419 0.88236 0.0
H2534 H 0.52625 0.56448 0.89501 0.0
H2535 H 0.55075 0.56774 0.89589 0.0
H2536 H 0.5427 0.54288 0.91086 0.0
H2537 H 0.53459 0.54301 0.93246 0.0
H2538 H 0.55842 0.04346 0.8339 0.0
H2539 H 0.54975 0.03036 0.85414 0.0
H2540 H 0.49969 0.0395 0.85163 0.0
H2541 H 0.5081 0.0523 0.83136 0.0
H2542 H 0.54718 0.04763 0.87605 0.0
H2543 H 0.47379 0.98262 0.85884 0.0
H2544 H 0.49145 0.99698 0.84836 0.0
H2545 H 0.47598 0.00543 0.85484 0.0
C2546 C 0.54557 0.04266 0.83768 0.0
C2547 C 0.53383 0.04873 0.83099 0.0
C2548 C 0.5406 0.03513 0.84921 0.0
C2549 C 0.52383 0.03356 0.85428 0.0
C2550 C 0.51234 0.04 0.84774 0.0
H2551 H 0.47491 0.00379 0.9252 0.0
H2552 H 0.48373 0.01584 0.90469 0.0
C2553 C 0.5172 0.04737 0.83617 0.0
C2554 C 0.51866 0.02572 0.86657 0.0
H2555 H 0.48116 0.99072 0.88107 0.0
C2556 C 0.5328 0.0351 0.87713 0.0
C2557 C 0.4999 0.00932 0.86796 0.0
C2558 C 0.48448 0.99787 0.85688 0.0
C2559 C 0.52853 0.02878 0.88908 0.0
C2560 C 0.50967 0.01265 0.89047 0.0
C2561 C 0.49556 0.00318 0.87994 0.0
C2562 C 0.50437 0.00533 0.90281 0.0
C2563 C 0.54403 0.03957 0.90019 0.0
C2564 C 0.51294 0.99529 0.90843 0.0
C2565 C 0.50789 0.98833 0.92008 0.0
C2566 C 0.49422 0.99137 0.92634 0.0
C2567 C 0.48561 0.00139 0.92065 0.0
C2568 C 0.49056 0.0082 0.90894 0.0
H2569 H 0.55663 0.05365 0.89791 0.0
H2570 H 0.5374 0.0428 0.9082 0.0
H2571 H 0.54991 0.03004 0.90327 0.0
H2572 H 0.52352 0.99282 0.90378 0.0
H2573 H 0.51491 0.98083 0.92429 0.0
H2574 H 0.16154 0.28145 0.52437 0.0
H2575 H 0.16866 0.29488 0.50419 0.0
H2576 H 0.11837 0.30351 0.50375 0.0
H2577 H 0.11072 0.28956 0.52381 0.0
H2578 H 0.14041 0.27961 0.48092 0.0
H2579 H 0.16723 0.35832 0.4976 0.0
H2580 H 0.16683 0.34095 0.50804 0.0
H2581 H 0.1442 0.34001 0.50256 0.0
C2582 C 0.15184 0.28602 0.51996 0.0
C2583 C 0.13548 0.28432 0.52572 0.0
C2584 C 0.15604 0.29382 0.50846 0.0
C2585 C 0.14413 0.3003 0.50256 0.0
C2586 C 0.12789 0.29881 0.50827 0.0
H2587 H 0.15054 0.35376 0.43303 0.0
H2588 H 0.14235 0.34115 0.45341 0.0
C2589 C 0.12359 0.29089 0.51975 0.0
C2590 C 0.14845 0.30808 0.49022 0.0
H2591 H 0.16514 0.35025 0.47579 0.0
C2592 C 0.14583 0.29505 0.47977 0.0
C2593 C 0.15536 0.32818 0.48879 0.0
C2594 C 0.15873 0.34279 0.49982 0.0
C2595 C 0.14983 0.30156 0.46785 0.0
C2596 C 0.15717 0.32178 0.46644 0.0
C2597 C 0.15959 0.33478 0.4769 0.0
C2598 C 0.16248 0.32975 0.45419 0.0
C2599 C 0.14573 0.28661 0.45684 0.0
C2600 C 0.17681 0.32788 0.44797 0.0
C2601 C 0.18147 0.33501 0.43631 0.0
C2602 C 0.1721 0.34442 0.43073 0.0
C2603 C 0.15813 0.34673 0.43714 0.0
C2604 C 0.15338 0.33946 0.44875 0.0
H2605 H 0.13489 0.27136 0.45872 0.0
H2606 H 0.13992 0.28997 0.44819 0.0
H2607 H 0.15972 0.28697 0.45509 0.0
H2608 H 0.18443 0.32093 0.45215 0.0
H2609 H 0.19252 0.33331 0.43171 0.0
H2610 H 0.67247 0.85496 0.53491 0.0
H2611 H 0.66525 0.84853 0.51206 0.0
H2612 H 0.67066 0.79651 0.51283 0.0
H2613 H 0.67839 0.80312 0.53573 0.0
H2614 H 0.69228 0.82171 0.49521 0.0
H2615 H 0.61451 0.80554 0.49092 0.0
H2616 H 0.6314 0.8283 0.50041 0.0
H2617 H 0.62719 0.80525 0.50551 0.0
C2618 C 0.67209 0.84213 0.53022 0.0
C2619 C 0.67601 0.82955 0.53711 0.0
C2620 C 0.66777 0.83837 0.51719 0.0
C2621 C 0.66718 0.82192 0.51079 0.0
C2622 C 0.67091 0.80921 0.51762 0.0
H2623 H 0.62558 0.78723 0.43093 0.0
H2624 H 0.63071 0.78677 0.45361 0.0
C2625 C 0.67519 0.81293 0.53069 0.0
C2626 C 0.66362 0.81862 0.49692 0.0
H2627 H 0.63065 0.81244 0.4722 0.0
C2628 C 0.67873 0.81947 0.49015 0.0
C2629 C 0.64584 0.81546 0.49038 0.0
C2630 C 0.62872 0.81338 0.49717 0.0
C2631 C 0.67681 0.81797 0.47698 0.0
C2632 C 0.65944 0.81586 0.47046 0.0
C2633 C 0.64404 0.81427 0.47723 0.0
C2634 C 0.65708 0.81573 0.45666 0.0
C2635 C 0.69337 0.81865 0.47016 0.0
C2636 C 0.67018 0.83219 0.45087 0.0
C2637 C 0.66726 0.83251 0.43792 0.0
C2638 C 0.65107 0.81645 0.43056 0.0
C2639 C 0.63806 0.79992 0.43638 0.0
C2640 C 0.64102 0.79959 0.44931 0.0
H2641 H 0.70268 0.81454 0.47607 0.0
H2642 H 0.68747 0.80858 0.46128 0.0
H2643 H 0.70305 0.83391 0.46782 0.0
H2644 H 0.68239 0.84499 0.45641 0.0
H2645 H 0.67736 0.84557 0.43374 0.0
H2646 H 0.16262 0.85161 0.52919 0.0
H2647 H 0.1676 0.84629 0.50735 0.0
H2648 H 0.11627 0.78781 0.50371 0.0
H2649 H 0.1112 0.79294 0.52567 0.0
H2650 H 0.15513 0.79374 0.49391 0.0
H2651 H 0.12681 0.84147 0.47662 0.0
H2652 H 0.14424 0.85131 0.49057 0.0
H2653 H 0.12023 0.83004 0.491 0.0
C2654 C 0.15253 0.83751 0.52381 0.0
C2655 C 0.13652 0.82268 0.52915 0.0
C2656 C 0.15533 0.83456 0.51132 0.0
C2657 C 0.14223 0.81673 0.50396 0.0
C2658 C 0.12648 0.80169 0.50928 0.0
H2659 H 0.13783 0.8002 0.42236 0.0
H2660 H 0.12846 0.79745 0.44378 0.0
C2661 C 0.12356 0.80468 0.52178 0.0
C2662 C 0.14486 0.81409 0.4906 0.0
H2663 H 0.14241 0.83092 0.46236 0.0
C2664 C 0.15221 0.8017 0.48696 0.0
C2665 C 0.14085 0.8244 0.4816 0.0
C2666 C 0.13246 0.83747 0.48505 0.0
C2667 C 0.15629 0.79987 0.47455 0.0
C2668 C 0.15298 0.81078 0.46565 0.0
C2669 C 0.14499 0.82263 0.46923 0.0
C2670 C 0.15851 0.81085 0.45272 0.0
C2671 C 0.16419 0.7864 0.47104 0.0
C2672 C 0.1785 0.81928 0.45069 0.0
C2673 C 0.18395 0.82113 0.43849 0.0
C2674 C 0.16948 0.81458 0.42806 0.0
C2675 C 0.14939 0.80566 0.43016 0.0
C2676 C 0.14398 0.80394 0.44238 0.0
H2677 H 0.16137 0.77557 0.47796 0.0
H2678 H 0.1574 0.77823 0.46158 0.0
H2679 H 0.18045 0.7954 0.47077 0.0
H2680 H 0.18997 0.82506 0.45857 0.0
H2681 H 0.19957 0.8284 0.43727 0.0
H2682 H 0.69684 0.85342 0.15559 0.0
H2683 H 0.705 0.85742 0.17843 0.0
H2684 H 0.64568 0.84427 0.18372 0.0
H2685 H 0.6372 0.83972 0.16101 0.0
H2686 H 0.67915 0.87959 0.19927 0.0
H2687 H 0.68094 0.80961 0.20072 0.0
H2688 H 0.6949 0.82605 0.18959 0.0
H2689 H 0.66836 0.8139 0.18763 0.0
C2690 C 0.68549 0.85124 0.16161 0.0
C2691 C 0.66636 0.84626 0.15645 0.0
C2692 C 0.69021 0.85363 0.17463 0.0
C2693 C 0.6759 0.85109 0.18269 0.0
C2694 C 0.65693 0.84639 0.17762 0.0
H2695 H 0.662 0.82921 0.25941 0.0
H2696 H 0.65865 0.8306 0.23673 0.0
C2697 C 0.65216 0.8439 0.16463 0.0
C2698 C 0.68042 0.85286 0.19644 0.0
H2699 H 0.68723 0.82885 0.22 0.0
C2700 C 0.68111 0.86864 0.20383 0.0
C2701 C 0.68276 0.83839 0.20228 0.0
C2702 C 0.68161 0.82092 0.19471 0.0
C2703 C 0.68396 0.87023 0.217 0.0
C2704 C 0.68614 0.85567 0.22282 0.0
C2705 C 0.68563 0.84 0.21543 0.0
C2706 C 0.68799 0.85584 0.23661 0.0
C2707 C 0.68405 0.88707 0.22463 0.0
C2708 C 0.70557 0.8697 0.244 0.0
C2709 C 0.70753 0.86896 0.25698 0.0
C2710 C 0.6919 0.8544 0.26273 0.0
C2711 C 0.67418 0.84079 0.25528 0.0
C2712 C 0.67229 0.84146 0.24233 0.0
H2713 H 0.67977 0.89576 0.21871 0.0
H2714 H 0.67372 0.88137 0.23192 0.0
H2715 H 0.69914 0.89712 0.22951 0.0
H2716 H 0.71787 0.88082 0.2397 0.0
H2717 H 0.72131 0.87967 0.26249 0.0
H2718 H 0.22352 0.85676 0.16146 0.0
H2719 H 0.21773 0.86209 0.1832 0.0
H2720 H 0.16572 0.80408 0.17915 0.0
H2721 H 0.17093 0.7988 0.15738 0.0
H2722 H 0.17602 0.85456 0.19188 0.0
H2723 H 0.20763 0.81038 0.21084 0.0
H2724 H 0.21523 0.82269 0.19684 0.0
H2725 H 0.19154 0.80066 0.19628 0.0
C2726 C 0.2107 0.84524 0.16513 0.0
C2727 C 0.19779 0.82728 0.1577 0.0
C2728 C 0.20749 0.84828 0.17756 0.0
C2729 C 0.19142 0.83339 0.18273 0.0
C2730 C 0.17832 0.81564 0.17531 0.0
H2731 H 0.14805 0.80936 0.25491 0.0
H2732 H 0.15617 0.80848 0.23332 0.0
C2733 C 0.18142 0.81263 0.1629 0.0
C2734 C 0.18831 0.8361 0.19596 0.0
H2735 H 0.19181 0.82108 0.22469 0.0
C2736 C 0.17961 0.84743 0.19912 0.0
C2737 C 0.19289 0.8266 0.20526 0.0
C2738 C 0.20244 0.81445 0.20224 0.0
C2739 C 0.17483 0.84907 0.21136 0.0
C2740 C 0.17934 0.83948 0.22071 0.0
C2741 C 0.18835 0.82841 0.21753 0.0
C2742 C 0.17436 0.84024 0.23376 0.0
C2743 C 0.16433 0.86042 0.21404 0.0
C2744 C 0.18205 0.85837 0.24122 0.0
C2745 C 0.17732 0.8589 0.25352 0.0
C2746 C 0.16506 0.84129 0.25866 0.0
C2747 C 0.15763 0.82315 0.25123 0.0
C2748 C 0.16222 0.82264 0.2389 0.0
H2749 H 0.15723 0.86218 0.20528 0.0
H2750 H 0.15278 0.85294 0.22042 0.0
H2751 H 0.17525 0.8754 0.21865 0.0
H2752 H 0.19188 0.8721 0.23758 0.0
H2753 H 0.18353 0.87308 0.2591 0.0
H2754 H 0.22421 0.40983 0.17451 0.0
H2755 H 0.21736 0.39749 0.195 0.0
H2756 H 0.17402 0.33966 0.17692 0.0
H2757 H 0.18151 0.35159 0.15636 0.0
H2758 H 0.18299 0.38259 0.20539 0.0
H2759 H 0.20577 0.32609 0.20125 0.0
H2760 H 0.2119 0.34445 0.1904 0.0
H2761 H 0.18765 0.32273 0.18874 0.0
C2762 C 0.21353 0.39437 0.17485 0.0
C2763 C 0.2035 0.38169 0.16374 0.0
C2764 C 0.20951 0.38738 0.1866 0.0
C2765 C 0.19539 0.36758 0.18751 0.0
C2766 C 0.18529 0.35488 0.17646 0.0
H2767 H 0.14122 0.30243 0.25003 0.0
H2768 H 0.14967 0.31344 0.2293 0.0
C2769 C 0.1894 0.36182 0.1647 0.0
C2770 C 0.19061 0.3605 0.20003 0.0
H2771 H 0.18819 0.32572 0.21865 0.0
C2772 C 0.18426 0.37024 0.20831 0.0
C2773 C 0.19224 0.34435 0.20383 0.0
C2774 C 0.19994 0.33391 0.19564 0.0
C2775 C 0.17924 0.36412 0.22021 0.0
C2776 C 0.18072 0.34791 0.22395 0.0
C2777 C 0.18702 0.33811 0.2157 0.0
C2778 C 0.17597 0.34106 0.23648 0.0
C2779 C 0.17211 0.37482 0.22866 0.0
C2780 C 0.18815 0.35285 0.24733 0.0
C2781 C 0.18352 0.34652 0.25918 0.0
C2782 C 0.16655 0.32829 0.26041 0.0
C2783 C 0.15451 0.31643 0.24945 0.0
C2784 C 0.15924 0.32273 0.2376 0.0
H2785 H 0.16823 0.38451 0.22351 0.0
H2786 H 0.15893 0.36411 0.23299 0.0
H2787 H 0.184 0.38417 0.23636 0.0
H2788 H 0.20129 0.36692 0.24663 0.0
H2789 H 0.19336 0.35586 0.26737 0.0
H2790 H 0.82687 0.62031 0.85784 0.0
H2791 H 0.83368 0.63443 0.83785 0.0
H2792 H 0.77797 0.6335 0.83526 0.0
H2793 H 0.7711 0.61945 0.85535 0.0
H2794 H 0.81207 0.61812 0.81485 0.0
H2795 H 0.81654 0.68979 0.82854 0.0
H2796 H 0.81714 0.67407 0.83995 0.0
H2797 H 0.79399 0.66844 0.83155 0.0
C2798 C 0.81605 0.6231 0.85302 0.0
C2799 C 0.79843 0.61875 0.85817 0.0
C2800 C 0.82001 0.63125 0.84162 0.0
C2801 C 0.80646 0.63525 0.83514 0.0
C2802 C 0.78885 0.63096 0.84024 0.0
H2803 H 0.80572 0.67643 0.76145 0.0
H2804 H 0.79688 0.66367 0.78177 0.0
C2805 C 0.78492 0.62289 0.8517 0.0
C2806 C 0.81052 0.64314 0.82279 0.0
H2807 H 0.81771 0.68227 0.80697 0.0
C2808 C 0.81334 0.63217 0.81314 0.0
C2809 C 0.81209 0.66144 0.82057 0.0
C2810 C 0.80996 0.67424 0.83072 0.0
C2811 C 0.81768 0.63896 0.80133 0.0
C2812 C 0.81945 0.65733 0.79915 0.0
C2813 C 0.81634 0.66819 0.80871 0.0
C2814 C 0.825 0.66565 0.78708 0.0
C2815 C 0.82018 0.62638 0.79122 0.0
C2816 C 0.84384 0.67126 0.78347 0.0
C2817 C 0.84893 0.67853 0.7719 0.0
C2818 C 0.83525 0.68032 0.76372 0.0
C2819 C 0.81649 0.67501 0.76748 0.0
C2820 C 0.81145 0.66783 0.7791 0.0
H2821 H 0.81392 0.61087 0.7934 0.0
H2822 H 0.8129 0.62639 0.78198 0.0
H2823 H 0.8362 0.63256 0.79038 0.0
H2824 H 0.85457 0.66987 0.78958 0.0
H2825 H 0.86342 0.68231 0.76924 0.0
H2826 H 0.31383 0.14659 0.87017 0.0
H2827 H 0.30537 0.14202 0.84731 0.0
H2828 H 0.36688 0.16481 0.84205 0.0
H2829 H 0.3754 0.16926 0.86483 0.0
H2830 H 0.3231 0.17461 0.8317 0.0
H2831 H 0.33582 0.11288 0.81739 0.0
H2832 H 0.33134 0.11771 0.83317 0.0
H2833 H 0.35527 0.13272 0.828 0.0
C2834 C 0.32546 0.15027 0.86411 0.0
C2835 C 0.34527 0.15832 0.86924 0.0
C2836 C 0.32064 0.14774 0.8511 0.0
C2837 C 0.3355 0.15294 0.84304 0.0
C2838 C 0.35519 0.16048 0.84813 0.0
H2839 H 0.34507 0.1597 0.76369 0.0
H2840 H 0.35038 0.16008 0.78643 0.0
C2841 C 0.36004 0.16316 0.86112 0.0
C2842 C 0.33075 0.15187 0.82937 0.0
H2843 H 0.33145 0.12996 0.8011 0.0
C2844 C 0.32472 0.16473 0.82498 0.0
C2845 C 0.33309 0.13908 0.8207 0.0
C2846 C 0.33908 0.12468 0.825 0.0
C2847 C 0.32147 0.16554 0.81207 0.0
C2848 C 0.32385 0.15277 0.80337 0.0
C2849 C 0.32966 0.13974 0.80779 0.0
C2850 C 0.3206 0.15286 0.78963 0.0
C2851 C 0.31619 0.18053 0.8079 0.0
C2852 C 0.30207 0.14858 0.78389 0.0
C2853 C 0.29908 0.14864 0.77093 0.0
C2854 C 0.31449 0.15273 0.76342 0.0
C2855 C 0.33299 0.15684 0.76921 0.0
C2856 C 0.336 0.15688 0.78219 0.0
H2857 H 0.32029 0.1926 0.81551 0.0
H2858 H 0.32369 0.18715 0.79959 0.0
H2859 H 0.29994 0.17311 0.80528 0.0
H2860 H 0.28987 0.14506 0.78943 0.0
H2861 H 0.28469 0.14557 0.7668 0.0
H2862 H 0.77884 0.12251 0.85863 0.0
H2863 H 0.78497 0.11727 0.83699 0.0
H2864 H 0.83353 0.17742 0.84018 0.0
H2865 H 0.82775 0.18255 0.86182 0.0
H2866 H 0.78308 0.13476 0.81696 0.0
H2867 H 0.85943 0.14846 0.82623 0.0
H2868 H 0.84382 0.14507 0.8386 0.0
H2869 H 0.85743 0.16885 0.83285 0.0
C2870 C 0.79089 0.13455 0.85471 0.0
C2871 C 0.80294 0.15288 0.86193 0.0
C2872 C 0.7944 0.13154 0.84238 0.0
C2873 C 0.80998 0.14682 0.83704 0.0
C2874 C 0.82185 0.1652 0.84421 0.0
H2875 H 0.82215 0.16646 0.7597 0.0
H2876 H 0.81326 0.16316 0.78116 0.0
C2877 C 0.81849 0.16815 0.85656 0.0
C2878 C 0.81325 0.14395 0.82379 0.0
H2879 H 0.84916 0.15052 0.80503 0.0
C2880 C 0.79747 0.13795 0.81435 0.0
C2881 C 0.83189 0.14771 0.82039 0.0
C2882 C 0.84903 0.15266 0.83007 0.0
C2883 C 0.80006 0.13646 0.80159 0.0
C2884 C 0.81908 0.14166 0.79817 0.0
C2885 C 0.83463 0.1468 0.80762 0.0
C2886 C 0.82345 0.14268 0.78489 0.0
C2887 C 0.78233 0.12929 0.79193 0.0
C2888 C 0.83261 0.13267 0.77992 0.0
C2889 C 0.83799 0.13479 0.76769 0.0
C2890 C 0.83423 0.14689 0.76021 0.0
C2891 C 0.82487 0.15672 0.76516 0.0
C2892 C 0.81971 0.15478 0.77741 0.0
H2893 H 0.7683 0.11965 0.79591 0.0
H2894 H 0.78158 0.14219 0.7889 0.0
H2895 H 0.78333 0.12094 0.78355 0.0
H2896 H 0.83576 0.12335 0.78554 0.0
H2897 H 0.84514 0.127 0.76409 0.0
H2898 H 0.33553 0.20354 0.49165 0.0
H2899 H 0.34189 0.20511 0.51446 0.0
H2900 H 0.32776 0.1443 0.51058 0.0
H2901 H 0.32166 0.14273 0.48779 0.0
H2902 H 0.3164 0.1836 0.5308 0.0
H2903 H 0.37991 0.17053 0.53273 0.0
H2904 H 0.37098 0.17645 0.51866 0.0
H2905 H 0.35847 0.15162 0.52295 0.0
C2906 C 0.33389 0.19055 0.49567 0.0
C2907 C 0.32823 0.17305 0.48795 0.0
C2908 C 0.33755 0.19147 0.50869 0.0
C2909 C 0.33561 0.17492 0.5142 0.0
C2910 C 0.32988 0.15741 0.50651 0.0
H2911 H 0.33899 0.14683 0.59087 0.0
H2912 H 0.33334 0.1458 0.56802 0.0
C2913 C 0.32637 0.15652 0.49349 0.0
C2914 C 0.33875 0.17573 0.52804 0.0
H2915 H 0.36527 0.16884 0.55174 0.0
C2916 C 0.32719 0.18051 0.53538 0.0
C2917 C 0.35282 0.17168 0.534 0.0
C2918 C 0.36639 0.16747 0.52669 0.0
C2919 C 0.3291 0.18104 0.54851 0.0
C2920 C 0.34298 0.17676 0.55441 0.0
C2921 C 0.35456 0.172 0.54712 0.0
C2922 C 0.34588 0.17738 0.5682 0.0
C2923 C 0.31608 0.18584 0.55599 0.0
C2924 C 0.35485 0.1955 0.57579 0.0
C2925 C 0.35814 0.19614 0.5888 0.0
C2926 C 0.35244 0.17865 0.59444 0.0
C2927 C 0.34332 0.1605 0.5868 0.0
C2928 C 0.34018 0.1599 0.57377 0.0
H2929 H 0.30374 0.18531 0.54991 0.0
H2930 H 0.30977 0.17537 0.56315 0.0
H2931 H 0.32513 0.20094 0.56101 0.0
H2932 H 0.35949 0.20915 0.57161 0.0
H2933 H 0.36506 0.21031 0.59447 0.0
H2934 H 0.88641 0.15581 0.50269 0.0
H2935 H 0.87901 0.16099 0.52397 0.0
H2936 H 0.84676 0.18831 0.50974 0.0
H2937 H 0.85401 0.18311 0.4884 0.0
H2938 H 0.8861 0.20071 0.53773 0.0
H2939 H 0.80802 0.13842 0.52893 0.0
H2940 H 0.82716 0.13959 0.51985 0.0
H2941 H 0.81743 0.15566 0.51737 0.0
C2942 C 0.8778 0.16298 0.50411 0.0
C2943 C 0.8707 0.16898 0.49388 0.0
C2944 C 0.87368 0.166 0.51625 0.0
C2945 C 0.86226 0.1749 0.51835 0.0
C2946 C 0.85555 0.18135 0.50825 0.0
H2947 H 0.80847 0.18439 0.58497 0.0
H2948 H 0.8179 0.1848 0.56368 0.0
C2949 C 0.8598 0.17848 0.4961 0.0
C2950 C 0.85682 0.17678 0.53107 0.0
H2951 H 0.81855 0.1561 0.54905 0.0
C2952 C 0.87134 0.19104 0.54024 0.0
C2953 C 0.83752 0.16418 0.53421 0.0
C2954 C 0.82156 0.14849 0.52464 0.0
C2955 C 0.86703 0.19307 0.55255 0.0
C2956 C 0.84783 0.18009 0.55582 0.0
C2957 C 0.83326 0.16601 0.54655 0.0
C2958 C 0.84262 0.18055 0.56883 0.0
C2959 C 0.88299 0.20929 0.56187 0.0
C2960 C 0.85326 0.17783 0.57879 0.0
C2961 C 0.84809 0.17787 0.591 0.0
C2962 C 0.83196 0.18032 0.59349 0.0
C2963 C 0.82117 0.18279 0.58345 0.0
C2964 C 0.82645 0.18289 0.57125 0.0
H2965 H 0.89425 0.22143 0.55707 0.0
H2966 H 0.87664 0.21558 0.56844 0.0
H2967 H 0.89069 0.20315 0.56745 0.0
H2968 H 0.86548 0.1755 0.57711 0.0
H2969 H 0.85687 0.17614 0.5985 0.0
H2970 H 0.84334 0.71744 0.49773 0.0
H2971 H 0.836 0.70565 0.51836 0.0
H2972 H 0.88514 0.69506 0.51981 0.0
H2973 H 0.89276 0.7072 0.49924 0.0
H2974 H 0.82582 0.67004 0.52601 0.0
H2975 H 0.89641 0.72743 0.55315 0.0
H2976 H 0.88928 0.72942 0.53722 0.0
H2977 H 0.89978 0.71405 0.54029 0.0
C2978 C 0.85255 0.71256 0.50244 0.0
C2979 C 0.86867 0.7133 0.4969 0.0
C2980 C 0.84839 0.70588 0.51424 0.0
C2981 C 0.86021 0.69977 0.52073 0.0
C2982 C 0.87613 0.70019 0.51514 0.0
H2983 H 0.84982 0.64791 0.59136 0.0
H2984 H 0.85792 0.65823 0.57039 0.0
C2985 C 0.88043 0.70706 0.50337 0.0
C2986 C 0.85554 0.69261 0.53324 0.0
H2987 H 0.87465 0.70079 0.564 0.0
C2988 C 0.83649 0.67681 0.53431 0.0
C2989 C 0.86948 0.70147 0.54408 0.0
C2990 C 0.88982 0.71915 0.54369 0.0
C2991 C 0.83104 0.66958 0.54591 0.0
C2992 C 0.84498 0.6784 0.5567 0.0
C2993 C 0.86407 0.69404 0.55565 0.0
C2994 C 0.83982 0.67189 0.56923 0.0
C2995 C 0.81046 0.6525 0.54659 0.0
C2996 C 0.82706 0.67629 0.57547 0.0
C2997 C 0.82248 0.6705 0.58744 0.0
C2998 C 0.83052 0.66013 0.59332 0.0
C2999 C 0.84324 0.65568 0.58699 0.0
C3000 C 0.84796 0.66164 0.57507 0.0
H3001 H 0.80258 0.64521 0.53713 0.0
H3002 H 0.81112 0.64134 0.55217 0.0
H3003 H 0.80169 0.65796 0.55139 0.0
H3004 H 0.82077 0.68432 0.57112 0.0
H3005 H 0.81254 0.67401 0.59205 0.0
loop_
_geom_bond_atom_site_label_1
_geom_bond_atom_site_label_2
_geom_bond_distance
_geom_bond_site_symmetry_2
_ccdc_geom_bond_type
C0 C1 1.386 . S
C0 C2 1.397 . S
C0 H24 0.931 . S
C1 C0 1.386 . S
C1 C5 1.397 . S
C2 C0 1.397 . S
C2 C3 1.384 . S
C2 H25 0.930 . S
C3 C2 1.384 . S
C3 C4 1.377 . S
C3 C6 1.481 . S
C4 C3 1.377 . S
C4 C5 1.389 . S
C4 H26 0.929 . S
C5 C1 1.397 . S
C5 C4 1.389 . S
C5 H27 0.931 . S
C6 C3 1.481 . S
C6 C7 1.387 . S
C6 C11 1.390 . S
C7 C6 1.387 . S
C7 C8 1.401 . S
C7 H28 0.930 . S
C8 C7 1.401 . S
C8 C9 1.376 . S
C8 C17 1.511 . S
C9 C8 1.376 . S
C9 C10 1.392 . S
C9 H30 0.931 . S
C10 C9 1.392 . S
C10 C11 1.361 . S
C10 C12 1.500 . S
C11 C6 1.390 . S
C11 C10 1.361 . S
C11 H29 0.931 . S
C12 C10 1.500 . S
C12 C13 1.371 . S
C12 C14 1.365 . S
C13 C12 1.371 . S
C13 C23 1.386 . S
C13 H31 0.931 . S
C14 C12 1.365 . S
C14 C15 1.409 . S
C14 H32 0.929 . S
C15 C14 1.409 . S
C15 C16 1.380 . S
C15 H33 0.930 . S
C16 C15 1.380 . S
C16 C23 1.357 . S
C17 C8 1.511 . S
C17 C18 1.341 . S
C17 C19 1.371 . S
C18 C17 1.341 . S
C18 C22 1.394 . S
C18 H34 0.930 . S
C19 C17 1.371 . S
C19 C20 1.392 . S
C19 H35 0.931 . S
C20 C19 1.392 . S
C20 C21 1.331 . S
C20 H38 0.932 . S
C21 C20 1.331 . S
C21 C22 1.336 . S
C22 C18 1.394 . S
C22 C21 1.336 . S
C22 H37 0.929 . S
C23 C13 1.386 . S
C23 C16 1.357 . S
C23 H36 0.928 . S
H24 C0 0.931 . S
H25 C2 0.930 . S
H26 C4 0.929 . S
H27 C5 0.931 . S
H28 C7 0.930 . S
H29 C11 0.931 . S
H30 C9 0.931 . S
H31 C13 0.931 . S
H32 C14 0.929 . S
H33 C15 0.930 . S
H34 C18 0.930 . S
H35 C19 0.931 . S
H36 C23 0.928 . S
H37 C22 0.929 . S
H38 C20 0.932 . S
C39 C40 1.386 . S
C39 C41 1.397 . S
C39 H63 0.931 . S
C40 C39 1.386 . S
C40 C44 1.397 . S
C41 C39 1.397 . S
C41 C42 1.384 . S
C41 H64 0.930 . S
C42 C41 1.384 . S
C42 C43 1.377 . S
C42 C45 1.481 . S
C43 C42 1.377 . S
C43 C44 1.389 . S
C43 H65 0.929 . S
C44 C40 1.397 . S
C44 C43 1.389 . S
C44 H66 0.931 . S
C45 C42 1.481 . S
C45 C46 1.387 . S
C45 C50 1.390 . S
C46 C45 1.387 . S
C46 C47 1.401 . S
C46 H67 0.930 . S
C47 C46 1.401 . S
C47 C48 1.376 . S
C47 C56 1.511 . S
C48 C47 1.376 . S
C48 C49 1.392 . S
C48 H69 0.931 . S
C49 C48 1.392 . S
C49 C50 1.361 . S
C49 C51 1.500 . S
C50 C45 1.390 . S
C50 C49 1.361 . S
C50 H68 0.931 . S
C51 C49 1.500 . S
C51 C52 1.371 . S
C51 C53 1.365 . S
C52 C51 1.371 . S
C52 C62 1.386 . S
C52 H70 0.931 . S
C53 C51 1.365 . S
C53 C54 1.409 . S
C53 H71 0.929 . S
C54 C53 1.409 . S
C54 C55 1.380 . S
C54 H72 0.930 . S
C55 C54 1.380 . S
C55 C62 1.357 . S
C56 C47 1.511 . S
C56 C57 1.341 . S
C56 C58 1.371 . S
C57 C56 1.341 . S
C57 C61 1.394 . S
C57 H73 0.930 . S
C58 C56 1.371 . S
C58 C59 1.392 . S
C58 H74 0.931 . S
C59 C58 1.392 . S
C59 C60 1.331 . S
C59 H77 0.932 . S
C60 C59 1.331 . S
C60 C61 1.336 . S
C61 C57 1.394 . S
C61 C60 1.336 . S
C61 H76 0.929 . S
C62 C52 1.386 . S
C62 C55 1.357 . S
C62 H75 0.928 . S
H63 C39 0.931 . S
H64 C41 0.930 . S
H65 C43 0.929 . S
H66 C44 0.931 . S
H67 C46 0.930 . S
H68 C50 0.931 . S
H69 C48 0.931 . S
H70 C52 0.931 . S
H71 C53 0.929 . S
H72 C54 0.930 . S
H73 C57 0.930 . S
H74 C58 0.931 . S
H75 C62 0.928 . S
H76 C61 0.929 . S
H77 C59 0.932 . S
C78 C79 1.386 . S
C78 C80 1.397 . S
C78 H102 0.931 . S
C79 C78 1.386 . S
C79 C83 1.397 . S
C80 C78 1.397 . S
C80 C81 1.384 . S
C80 H103 0.930 . S
C81 C80 1.384 . S
C81 C82 1.377 . S
C81 C84 1.481 . S
C82 C81 1.377 . S
C82 C83 1.389 . S
C82 H104 0.929 . S
C83 C79 1.397 . S
C83 C82 1.389 . S
C83 H105 0.931 . S
C84 C81 1.481 . S
C84 C85 1.387 . S
C84 C89 1.390 . S
C85 C84 1.387 . S
C85 C86 1.401 . S
C85 H106 0.930 . S
C86 C85 1.401 . S
C86 C87 1.376 . S
C86 C95 1.511 . S
C87 C86 1.376 . S
C87 C88 1.392 . S
C87 H108 0.931 . S
C88 C87 1.392 . S
C88 C89 1.361 . S
C88 C90 1.500 . S
C89 C84 1.390 . S
C89 C88 1.361 . S
C89 H107 0.931 . S
C90 C88 1.500 . S
C90 C91 1.371 . S
C90 C92 1.365 . S
C91 C90 1.371 . S
C91 C101 1.386 . S
C91 H109 0.931 . S
C92 C90 1.365 . S
C92 C93 1.409 . S
C92 H110 0.929 . S
C93 C92 1.409 . S
C93 C94 1.380 . S
C93 H111 0.930 . S
C94 C93 1.380 . S
C94 C101 1.357 . S
C95 C86 1.511 . S
C95 C96 1.341 . S
C95 C97 1.371 . S
C96 C95 1.341 . S
C96 C100 1.394 . S
C96 H112 0.930 . S
C97 C95 1.371 . S
C97 C98 1.392 . S
C97 H113 0.931 . S
C98 C97 1.392 . S
C98 C99 1.331 . S
C98 H116 0.932 . S
C99 C98 1.331 . S
C99 C100 1.336 . S
C100 C96 1.394 . S
C100 C99 1.336 . S
C100 H115 0.929 . S
C101 C91 1.386 . S
C101 C94 1.357 . S
C101 H114 0.928 . S
H102 C78 0.931 . S
H103 C80 0.930 . S
H104 C82 0.929 . S
H105 C83 0.931 . S
H106 C85 0.930 . S
H107 C89 0.931 . S
H108 C87 0.931 . S
H109 C91 0.931 . S
H110 C92 0.929 . S
H111 C93 0.930 . S
H112 C96 0.930 . S
H113 C97 0.931 . S
H114 C101 0.928 . S
H115 C100 0.929 . S
H116 C98 0.932 . S
C117 C118 1.386 . S
C117 C119 1.397 . S
C117 H141 0.931 . S
C118 C117 1.386 . S
C118 C122 1.397 . S
C119 C117 1.397 . S
C119 C120 1.384 . S
C119 H142 0.930 . S
C120 C119 1.384 . S
C120 C121 1.377 . S
C120 C123 1.481 . S
C121 C120 1.377 . S
C121 C122 1.389 . S
C121 H143 0.929 . S
C122 C118 1.397 . S
C122 C121 1.389 . S
C122 H144 0.931 . S
C123 C120 1.481 . S
C123 C124 1.387 . S
C123 C128 1.390 . S
C124 C123 1.387 . S
C124 C125 1.401 . S
C124 H145 0.930 . S
C125 C124 1.401 . S
C125 C126 1.376 . S
C125 C134 1.511 . S
C126 C125 1.376 . S
C126 C127 1.392 . S
C126 H147 0.931 . S
C127 C126 1.392 . S
C127 C128 1.361 . S
C127 C129 1.500 . S
C128 C123 1.390 . S
C128 C127 1.361 . S
C128 H146 0.931 . S
C129 C127 1.500 . S
C129 C130 1.371 . S
C129 C131 1.365 . S
C130 C129 1.371 . S
C130 C140 1.386 . S
C130 H148 0.931 . S
C131 C129 1.365 . S
C131 C132 1.409 . S
C131 H149 0.929 . S
C132 C131 1.409 . S
C132 C133 1.380 . S
C132 H150 0.930 . S
C133 C132 1.380 . S
C133 C140 1.357 . S
C134 C125 1.511 . S
C134 C135 1.341 . S
C134 C136 1.371 . S
C135 C134 1.341 . S
C135 C139 1.394 . S
C135 H151 0.930 . S
C136 C134 1.371 . S
C136 C137 1.392 . S
C136 H152 0.931 . S
C137 C136 1.392 . S
C137 C138 1.331 . S
C137 H155 0.932 . S
C138 C137 1.331 . S
C138 C139 1.336 . S
C139 C135 1.394 . S
C139 C138 1.336 . S
C139 H154 0.929 . S
C140 C130 1.386 . S
C140 C133 1.357 . S
C140 H153 0.928 . S
H141 C117 0.931 . S
H142 C119 0.930 . S
H143 C121 0.929 . S
H144 C122 0.931 . S
H145 C124 0.930 . S
H146 C128 0.931 . S
H147 C126 0.931 . S
H148 C130 0.931 . S
H149 C131 0.929 . S
H150 C132 0.930 . S
H151 C135 0.930 . S
H152 C136 0.931 . S
H153 C140 0.928 . S
H154 C139 0.929 . S
H155 C137 0.932 . S
C156 C157 1.386 . S
C156 C158 1.397 . S
C156 H180 0.931 . S
C157 C156 1.386 . S
C157 C161 1.397 . S
C158 C156 1.397 . S
C158 C159 1.384 . S
C158 H181 0.930 . S
C159 C158 1.384 . S
C159 C160 1.377 . S
C159 C162 1.481 . S
C160 C159 1.377 . S
C160 C161 1.389 . S
C160 H182 0.929 . S
C161 C157 1.397 . S
C161 C160 1.389 . S
C161 H183 0.931 . S
C162 C159 1.481 . S
C162 C163 1.387 . S
C162 C167 1.390 . S
C163 C162 1.387 . S
C163 C164 1.401 . S
C163 H184 0.930 . S
C164 C163 1.401 . S
C164 C165 1.376 . S
C164 C173 1.511 . S
C165 C164 1.376 . S
C165 C166 1.392 . S
C165 H186 0.931 . S
C166 C165 1.392 . S
C166 C167 1.361 . S
C166 C168 1.500 . S
C167 C162 1.390 . S
C167 C166 1.361 . S
C167 H185 0.931 . S
C168 C166 1.500 . S
C168 C169 1.371 . S
C168 C170 1.365 . S
C169 C168 1.371 . S
C169 C179 1.386 . S
C169 H187 0.931 . S
C170 C168 1.365 . S
C170 C171 1.409 . S
C170 H188 0.929 . S
C171 C170 1.409 . S
C171 C172 1.380 . S
C171 H189 0.930 . S
C172 C171 1.380 . S
C172 C179 1.357 . S
C173 C164 1.511 . S
C173 C174 1.341 . S
C173 C175 1.371 . S
C174 C173 1.341 . S
C174 C178 1.394 . S
C174 H190 0.930 . S
C175 C173 1.371 . S
C175 C176 1.392 . S
C175 H191 0.931 . S
C176 C175 1.392 . S
C176 C177 1.331 . S
C176 H194 0.932 . S
C177 C176 1.331 . S
C177 C178 1.336 . S
C178 C174 1.394 . S
C178 C177 1.336 . S
C178 H193 0.929 . S
C179 C169 1.386 . S
C179 C172 1.357 . S
C179 H192 0.928 . S
H180 C156 0.931 . S
H181 C158 0.930 . S
H182 C160 0.929 . S
H183 C161 0.931 . S
H184 C163 0.930 . S
H185 C167 0.931 . S
H186 C165 0.931 . S
H187 C169 0.931 . S
H188 C170 0.929 . S
H189 C171 0.930 . S
H190 C174 0.930 . S
H191 C175 0.931 . S
H192 C179 0.928 . S
H193 C178 0.929 . S
H194 C176 0.932 . S
C195 C196 1.386 . S
C195 C197 1.397 . S
C195 H219 0.931 . S
C196 C195 1.386 . S
C196 C200 1.397 . S
C197 C195 1.397 . S
C197 C198 1.384 . S
C197 H220 0.930 . S
C198 C197 1.384 . S
C198 C199 1.377 . S
C198 C201 1.481 . S
C199 C198 1.377 . S
C199 C200 1.389 . S
C199 H221 0.929 . S
C200 C196 1.397 . S
C200 C199 1.389 . S
C200 H222 0.931 . S
C201 C198 1.481 . S
C201 C202 1.387 . S
C201 C206 1.390 . S
C202 C201 1.387 . S
C202 C203 1.401 . S
C202 H223 0.930 . S
C203 C202 1.401 . S
C203 C204 1.376 . S
C203 C212 1.511 . S
C204 C203 1.376 . S
C204 C205 1.392 . S
C204 H225 0.931 . S
C205 C204 1.392 . S
C205 C206 1.361 . S
C205 C207 1.500 . S
C206 C201 1.390 . S
C206 C205 1.361 . S
C206 H224 0.931 . S
C207 C205 1.500 . S
C207 C208 1.371 . S
C207 C209 1.365 . S
C208 C207 1.371 . S
C208 C218 1.386 . S
C208 H226 0.931 . S
C209 C207 1.365 . S
C209 C210 1.409 . S
C209 H227 0.929 . S
C210 C209 1.409 . S
C210 C211 1.380 . S
C210 H228 0.930 . S
C211 C210 1.380 . S
C211 C218 1.357 . S
C212 C203 1.511 . S
C212 C213 1.341 . S
C212 C214 1.371 . S
C213 C212 1.341 . S
C213 C217 1.394 . S
C213 H229 0.930 . S
C214 C212 1.371 . S
C214 C215 1.392 . S
C214 H230 0.931 . S
C215 C214 1.392 . S
C215 C216 1.331 . S
C215 H233 0.932 . S
C216 C215 1.331 . S
C216 C217 1.336 . S
C217 C213 1.394 . S
C217 C216 1.336 . S
C217 H232 0.929 . S
C218 C208 1.386 . S
C218 C211 1.357 . S
C218 H231 0.928 . S
H219 C195 0.931 . S
H220 C197 0.930 . S
H221 C199 0.929 . S
H222 C200 0.931 . S
H223 C202 0.930 . S
H224 C206 0.931 . S
H225 C204 0.931 . S
H226 C208 0.931 . S
H227 C209 0.929 . S
H228 C210 0.930 . S
H229 C213 0.930 . S
H230 C214 0.931 . S
H231 C218 0.928 . S
H232 C217 0.929 . S
H233 C215 0.932 . S
C234 C235 1.386 . S
C234 C236 1.397 . S
C234 H258 0.931 . S
C235 C234 1.386 . S
C235 C239 1.397 . S
C236 C234 1.397 . S
C236 C237 1.384 . S
C236 H259 0.930 . S
C237 C236 1.384 . S
C237 C238 1.377 . S
C237 C240 1.481 . S
C238 C237 1.377 . S
C238 C239 1.389 . S
C238 H260 0.929 . S
C239 C235 1.397 . S
C239 C238 1.389 . S
C239 H261 0.931 1_655 S
C240 C237 1.481 . S
C240 C241 1.387 . S
C240 C245 1.390 . S
C241 C240 1.387 . S
C241 C242 1.401 . S
C241 H262 0.930 . S
C242 C241 1.401 . S
C242 C243 1.376 . S
C242 C251 1.511 . S
C243 C242 1.376 . S
C243 C244 1.392 . S
C243 H264 0.931 . S
C244 C243 1.392 . S
C244 C245 1.361 . S
C244 C246 1.500 . S
C245 C240 1.390 . S
C245 C244 1.361 . S
C245 H263 0.931 . S
C246 C244 1.500 . S
C246 C247 1.371 . S
C246 C248 1.365 . S
C247 C246 1.371 . S
C247 C257 1.386 . S
C247 H265 0.931 . S
C248 C246 1.365 . S
C248 C249 1.409 . S
C248 H266 0.929 . S
C249 C248 1.409 . S
C249 C250 1.380 . S
C249 H267 0.930 . S
C250 C249 1.380 . S
C250 C257 1.357 . S
C251 C242 1.511 . S
C251 C252 1.341 . S
C251 C253 1.371 . S
C252 C251 1.341 . S
C252 C256 1.394 . S
C252 H268 0.930 . S
C253 C251 1.371 . S
C253 C254 1.392 . S
C253 H269 0.931 . S
C254 C253 1.392 . S
C254 C255 1.331 . S
C254 H272 0.932 . S
C255 C254 1.331 . S
C255 C256 1.336 . S
C256 C252 1.394 . S
C256 C255 1.336 . S
C256 H271 0.929 . S
C257 C247 1.386 . S
C257 C250 1.357 . S
C257 H270 0.928 . S
H258 C234 0.931 . S
H259 C236 0.930 . S
H260 C238 0.929 . S
H261 C239 0.931 1_455 S
H262 C241 0.930 . S
H263 C245 0.931 . S
H264 C243 0.931 . S
H265 C247 0.931 . S
H266 C248 0.929 . S
H267 C249 0.930 . S
H268 C252 0.930 . S
H269 C253 0.931 . S
H270 C257 0.928 . S
H271 C256 0.929 . S
H272 C254 0.932 . S
C273 C274 1.386 . S
C273 C275 1.397 . S
C273 H297 0.931 . S
C274 C273 1.386 . S
C274 C278 1.397 . S
C275 C273 1.397 . S
C275 C276 1.384 . S
C275 H298 0.930 . S
C276 C275 1.384 . S
C276 C277 1.377 . S
C276 C279 1.481 . S
C277 C276 1.377 . S
C277 C278 1.389 . S
C277 H299 0.929 . S
C278 C274 1.397 . S
C278 C277 1.389 . S
C278 H300 0.931 . S
C279 C276 1.481 . S
C279 C280 1.387 . S
C279 C284 1.390 . S
C280 C279 1.387 . S
C280 C281 1.401 . S
C280 H301 0.930 . S
C281 C280 1.401 . S
C281 C282 1.376 . S
C281 C290 1.511 . S
C282 C281 1.376 . S
C282 C283 1.392 . S
C282 H303 0.931 . S
C283 C282 1.392 . S
C283 C284 1.361 . S
C283 C285 1.500 . S
C284 C279 1.390 . S
C284 C283 1.361 . S
C284 H302 0.931 . S
C285 C283 1.500 . S
C285 C286 1.371 . S
C285 C287 1.365 . S
C286 C285 1.371 . S
C286 C296 1.386 . S
C286 H304 0.931 . S
C287 C285 1.365 . S
C287 C288 1.409 . S
C287 H305 0.929 . S
C288 C287 1.409 . S
C288 C289 1.380 . S
C288 H306 0.930 . S
C289 C288 1.380 . S
C289 C296 1.357 . S
C290 C281 1.511 . S
C290 C291 1.341 . S
C290 C292 1.371 . S
C291 C290 1.341 . S
C291 C295 1.394 . S
C291 H307 0.930 . S
C292 C290 1.371 . S
C292 C293 1.392 . S
C292 H308 0.931 . S
C293 C292 1.392 . S
C293 C294 1.331 . S
C293 H311 0.932 . S
C294 C293 1.331 . S
C294 C295 1.336 . S
C295 C291 1.394 . S
C295 C294 1.336 . S
C295 H310 0.929 . S
C296 C286 1.386 . S
C296 C289 1.357 . S
C296 H309 0.928 . S
H297 C273 0.931 . S
H298 C275 0.930 . S
H299 C277 0.929 . S
H300 C278 0.931 . S
H301 C280 0.930 . S
H302 C284 0.931 . S
H303 C282 0.931 . S
H304 C286 0.931 . S
H305 C287 0.929 . S
H306 C288 0.930 . S
H307 C291 0.930 . S
H308 C292 0.931 . S
H309 C296 0.928 . S
H310 C295 0.929 . S
H311 C293 0.932 . S
C312 C313 1.386 . S
C312 C314 1.397 . S
C312 H336 0.931 . S
C313 C312 1.386 . S
C313 C317 1.397 . S
C314 C312 1.397 . S
C314 C315 1.384 . S
C314 H337 0.930 . S
C315 C314 1.384 . S
C315 C316 1.377 . S
C315 C318 1.481 . S
C316 C315 1.377 . S
C316 C317 1.389 . S
C316 H338 0.929 . S
C317 C313 1.397 . S
C317 C316 1.389 . S
C317 H339 0.931 . S
C318 C315 1.481 . S
C318 C319 1.387 . S
C318 C323 1.390 . S
C319 C318 1.387 . S
C319 C320 1.401 . S
C319 H340 0.930 . S
C320 C319 1.401 . S
C320 C321 1.376 . S
C320 C329 1.511 . S
C321 C320 1.376 . S
C321 C322 1.392 . S
C321 H342 0.931 . S
C322 C321 1.392 . S
C322 C323 1.361 . S
C322 C324 1.500 . S
C323 C318 1.390 . S
C323 C322 1.361 . S
C323 H341 0.931 . S
C324 C322 1.500 . S
C324 C325 1.371 . S
C324 C326 1.365 . S
C325 C324 1.371 . S
C325 C335 1.386 . S
C325 H343 0.931 . S
C326 C324 1.365 . S
C326 C327 1.409 . S
C326 H344 0.929 . S
C327 C326 1.409 . S
C327 C328 1.380 . S
C327 H345 0.930 . S
C328 C327 1.380 . S
C328 C335 1.357 . S
C329 C320 1.511 . S
C329 C330 1.341 . S
C329 C331 1.371 . S
C330 C329 1.341 . S
C330 C334 1.394 . S
C330 H346 0.930 . S
C331 C329 1.371 . S
C331 C332 1.392 . S
C331 H347 0.931 . S
C332 C331 1.392 . S
C332 C333 1.331 . S
C332 H350 0.932 . S
C333 C332 1.331 . S
C333 C334 1.336 . S
C334 C330 1.394 . S
C334 C333 1.336 . S
C334 H349 0.929 . S
C335 C325 1.386 . S
C335 C328 1.357 . S
C335 H348 0.928 . S
H336 C312 0.931 . S
H337 C314 0.930 . S
H338 C316 0.929 . S
H339 C317 0.931 . S
H340 C319 0.930 . S
H341 C323 0.931 . S
H342 C321 0.931 . S
H343 C325 0.931 . S
H344 C326 0.929 . S
H345 C327 0.930 . S
H346 C330 0.930 . S
H347 C331 0.931 . S
H348 C335 0.928 . S
H349 C334 0.929 . S
H350 C332 0.932 . S
C351 C352 1.386 . S
C351 C353 1.397 . S
C351 H375 0.931 . S
C352 C351 1.386 . S
C352 C356 1.397 . S
C353 C351 1.397 . S
C353 C354 1.384 . S
C353 H376 0.930 . S
C354 C353 1.384 . S
C354 C355 1.377 . S
C354 C357 1.481 . S
C355 C354 1.377 . S
C355 C356 1.389 . S
C355 H377 0.929 . S
C356 C352 1.397 . S
C356 C355 1.389 . S
C356 H378 0.931 . S
C357 C354 1.481 . S
C357 C358 1.387 . S
C357 C362 1.390 . S
C358 C357 1.387 . S
C358 C359 1.401 . S
C358 H379 0.930 . S
C359 C358 1.401 . S
C359 C360 1.376 . S
C359 C368 1.511 . S
C360 C359 1.376 . S
C360 C361 1.392 . S
C360 H381 0.931 . S
C361 C360 1.392 . S
C361 C362 1.361 . S
C361 C363 1.500 . S
C362 C357 1.390 . S
C362 C361 1.361 . S
C362 H380 0.931 . S
C363 C361 1.500 . S
C363 C364 1.371 . S
C363 C365 1.365 . S
C364 C363 1.371 . S
C364 C374 1.386 . S
C364 H382 0.931 . S
C365 C363 1.365 . S
C365 C366 1.409 . S
C365 H383 0.929 . S
C366 C365 1.409 . S
C366 C367 1.380 . S
C366 H384 0.930 . S
C367 C366 1.380 . S
C367 C374 1.357 . S
C368 C359 1.511 . S
C368 C369 1.341 . S
C368 C370 1.371 . S
C369 C368 1.341 . S
C369 C373 1.394 . S
C369 H385 0.930 . S
C370 C368 1.371 . S
C370 C371 1.392 . S
C370 H386 0.931 . S
C371 C370 1.392 . S
C371 C372 1.331 . S
C371 H389 0.932 . S
C372 C371 1.331 . S
C372 C373 1.336 . S
C373 C369 1.394 . S
C373 C372 1.336 . S
C373 H388 0.929 . S
C374 C364 1.386 . S
C374 C367 1.357 . S
C374 H387 0.928 . S
H375 C351 0.931 . S
H376 C353 0.930 . S
H377 C355 0.929 . S
H378 C356 0.931 . S
H379 C358 0.930 . S
H380 C362 0.931 . S
H381 C360 0.931 . S
H382 C364 0.931 . S
H383 C365 0.929 . S
H384 C366 0.930 . S
H385 C369 0.930 . S
H386 C370 0.931 . S
H387 C374 0.928 . S
H388 C373 0.929 . S
H389 C371 0.932 . S
C390 C391 1.386 . S
C390 C392 1.397 . S
C390 H414 0.931 . S
C391 C390 1.386 . S
C391 C395 1.397 . S
C392 C390 1.397 . S
C392 C393 1.384 . S
C392 H415 0.930 . S
C393 C392 1.384 . S
C393 C394 1.377 . S
C393 C396 1.481 . S
C394 C393 1.377 . S
C394 C395 1.389 . S
C394 H416 0.929 . S
C395 C391 1.397 . S
C395 C394 1.389 . S
C395 H417 0.931 . S
C396 C393 1.481 . S
C396 C397 1.387 . S
C396 C401 1.390 . S
C397 C396 1.387 . S
C397 C398 1.401 . S
C397 H418 0.930 . S
C398 C397 1.401 . S
C398 C399 1.376 . S
C398 C407 1.511 . S
C399 C398 1.376 . S
C399 C400 1.392 . S
C399 H420 0.931 . S
C400 C399 1.392 . S
C400 C401 1.361 . S
C400 C402 1.500 . S
C401 C396 1.390 . S
C401 C400 1.361 . S
C401 H419 0.931 . S
C402 C400 1.500 . S
C402 C403 1.371 . S
C402 C404 1.365 . S
C403 C402 1.371 . S
C403 C413 1.386 . S
C403 H421 0.931 . S
C404 C402 1.365 . S
C404 C405 1.409 . S
C404 H422 0.929 . S
C405 C404 1.409 . S
C405 C406 1.380 . S
C405 H423 0.930 . S
C406 C405 1.380 . S
C406 C413 1.357 . S
C407 C398 1.511 . S
C407 C408 1.341 . S
C407 C409 1.371 . S
C408 C407 1.341 . S
C408 C412 1.394 . S
C408 H424 0.930 . S
C409 C407 1.371 . S
C409 C410 1.392 . S
C409 H425 0.931 . S
C410 C409 1.392 . S
C410 C411 1.331 . S
C410 H428 0.932 . S
C411 C410 1.331 . S
C411 C412 1.336 . S
C412 C408 1.394 . S
C412 C411 1.336 . S
C412 H427 0.929 . S
C413 C403 1.386 . S
C413 C406 1.357 . S
C413 H426 0.928 . S
H414 C390 0.931 . S
H415 C392 0.930 . S
H416 C394 0.929 . S
H417 C395 0.931 . S
H418 C397 0.930 . S
H419 C401 0.931 . S
H420 C399 0.931 . S
H421 C403 0.931 . S
H422 C404 0.929 . S
H423 C405 0.930 . S
H424 C408 0.930 . S
H425 C409 0.931 . S
H426 C413 0.928 . S
H427 C412 0.929 . S
H428 C410 0.932 . S
C429 C430 1.386 . S
C429 C431 1.397 . S
C429 H453 0.931 . S
C430 C429 1.386 . S
C430 C434 1.397 . S
C431 C429 1.397 . S
C431 C432 1.384 . S
C431 H454 0.930 . S
C432 C431 1.384 . S
C432 C433 1.377 . S
C432 C435 1.481 . S
C433 C432 1.377 . S
C433 C434 1.389 . S
C433 H455 0.929 . S
C434 C430 1.397 . S
C434 C433 1.389 . S
C434 H456 0.931 . S
C435 C432 1.481 . S
C435 C436 1.387 . S
C435 C440 1.390 . S
C436 C435 1.387 . S
C436 C437 1.401 . S
C436 H457 0.930 . S
C437 C436 1.401 . S
C437 C438 1.376 . S
C437 C446 1.511 . S
C438 C437 1.376 . S
C438 C439 1.392 . S
C438 H459 0.931 . S
C439 C438 1.392 . S
C439 C440 1.361 . S
C439 C441 1.500 . S
C440 C435 1.390 . S
C440 C439 1.361 . S
C440 H458 0.931 . S
C441 C439 1.500 . S
C441 C442 1.371 . S
C441 C443 1.365 . S
C442 C441 1.371 . S
C442 C452 1.386 . S
C442 H460 0.931 . S
C443 C441 1.365 . S
C443 C444 1.409 . S
C443 H461 0.929 . S
C444 C443 1.409 . S
C444 C445 1.380 . S
C444 H462 0.930 . S
C445 C444 1.380 . S
C445 C452 1.357 . S
C446 C437 1.511 . S
C446 C447 1.341 . S
C446 C448 1.371 . S
C447 C446 1.341 . S
C447 C451 1.394 . S
C447 H463 0.930 . S
C448 C446 1.371 . S
C448 C449 1.392 . S
C448 H464 0.931 . S
C449 C448 1.392 . S
C449 C450 1.331 . S
C449 H467 0.932 . S
C450 C449 1.331 . S
C450 C451 1.336 . S
C451 C447 1.394 . S
C451 C450 1.336 . S
C451 H466 0.929 . S
C452 C442 1.386 . S
C452 C445 1.357 . S
C452 H465 0.928 . S
H453 C429 0.931 . S
H454 C431 0.930 . S
H455 C433 0.929 . S
H456 C434 0.931 . S
H457 C436 0.930 . S
H458 C440 0.931 . S
H459 C438 0.931 . S
H460 C442 0.931 . S
H461 C443 0.929 . S
H462 C444 0.930 . S
H463 C447 0.930 . S
H464 C448 0.931 . S
H465 C452 0.928 . S
H466 C451 0.929 . S
H467 C449 0.932 . S
C468 C469 1.386 . S
C468 C470 1.397 . S
C468 H492 0.931 . S
C469 C468 1.386 . S
C469 C473 1.397 . S
C470 C468 1.397 . S
C470 C471 1.384 . S
C470 H493 0.930 . S
C471 C470 1.384 . S
C471 C472 1.377 . S
C471 C474 1.481 . S
C472 C471 1.377 . S
C472 C473 1.389 . S
C472 H494 0.929 . S
C473 C469 1.397 . S
C473 C472 1.389 . S
C473 H495 0.931 . S
C474 C471 1.481 . S
C474 C475 1.387 . S
C474 C479 1.390 . S
C475 C474 1.387 . S
C475 C476 1.401 . S
C475 H496 0.930 . S
C476 C475 1.401 . S
C476 C477 1.376 . S
C476 C485 1.511 . S
C477 C476 1.376 . S
C477 C478 1.392 . S
C477 H498 0.931 . S
C478 C477 1.392 . S
C478 C479 1.361 . S
C478 C480 1.500 . S
C479 C474 1.390 . S
C479 C478 1.361 . S
C479 H497 0.931 . S
C480 C478 1.500 . S
C480 C481 1.371 . S
C480 C482 1.365 . S
C481 C480 1.371 . S
C481 C491 1.386 . S
C481 H499 0.931 . S
C482 C480 1.365 . S
C482 C483 1.409 . S
C482 H500 0.929 . S
C483 C482 1.409 . S
C483 C484 1.380 . S
C483 H501 0.930 . S
C484 C483 1.380 . S
C484 C491 1.357 . S
C485 C476 1.511 . S
C485 C486 1.341 . S
C485 C487 1.371 . S
C486 C485 1.341 . S
C486 C490 1.394 . S
C486 H502 0.930 . S
C487 C485 1.371 . S
C487 C488 1.392 . S
C487 H503 0.931 . S
C488 C487 1.392 . S
C488 C489 1.331 . S
C488 H506 0.932 . S
C489 C488 1.331 . S
C489 C490 1.336 . S
C490 C486 1.394 . S
C490 C489 1.336 . S
C490 H505 0.929 . S
C491 C481 1.386 . S
C491 C484 1.357 . S
C491 H504 0.928 . S
H492 C468 0.931 . S
H493 C470 0.930 . S
H494 C472 0.929 . S
H495 C473 0.931 . S
H496 C475 0.930 . S
H497 C479 0.931 . S
H498 C477 0.931 . S
H499 C481 0.931 . S
H500 C482 0.929 . S
H501 C483 0.930 . S
H502 C486 0.930 . S
H503 C487 0.931 . S
H504 C491 0.928 . S
H505 C490 0.929 . S
H506 C488 0.932 . S
C507 C508 1.386 . S
C507 C509 1.397 . S
C507 H531 0.931 . S
C508 C507 1.386 . S
C508 C512 1.397 . S
C509 C507 1.397 . S
C509 C510 1.384 . S
C509 H532 0.930 . S
C510 C509 1.384 . S
C510 C511 1.377 . S
C510 C513 1.481 . S
C511 C510 1.377 . S
C511 C512 1.389 . S
C511 H533 0.929 . S
C512 C508 1.397 . S
C512 C511 1.389 . S
C512 H534 0.931 . S
C513 C510 1.481 . S
C513 C514 1.387 . S
C513 C518 1.390 . S
C514 C513 1.387 . S
C514 C515 1.401 . S
C514 H535 0.930 . S
C515 C514 1.401 . S
C515 C516 1.376 . S
C515 C524 1.511 . S
C516 C515 1.376 . S
C516 C517 1.392 . S
C516 H537 0.931 . S
C517 C516 1.392 . S
C517 C518 1.361 . S
C517 C519 1.500 . S
C518 C513 1.390 . S
C518 C517 1.361 . S
C518 H536 0.931 . S
C519 C517 1.500 . S
C519 C520 1.371 . S
C519 C521 1.365 . S
C520 C519 1.371 . S
C520 C530 1.386 . S
C520 H538 0.931 . S
C521 C519 1.365 . S
C521 C522 1.409 . S
C521 H539 0.929 . S
C522 C521 1.409 . S
C522 C523 1.380 . S
C522 H540 0.930 . S
C523 C522 1.380 . S
C523 C530 1.357 . S
C524 C515 1.511 . S
C524 C525 1.341 . S
C524 C526 1.371 . S
C525 C524 1.341 . S
C525 C529 1.394 . S
C525 H541 0.930 . S
C526 C524 1.371 . S
C526 C527 1.392 . S
C526 H542 0.931 . S
C527 C526 1.392 . S
C527 C528 1.331 . S
C527 H545 0.932 . S
C528 C527 1.331 . S
C528 C529 1.336 . S
C529 C525 1.394 . S
C529 C528 1.336 . S
C529 H544 0.929 . S
C530 C520 1.386 . S
C530 C523 1.357 . S
C530 H543 0.928 . S
H531 C507 0.931 . S
H532 C509 0.930 . S
H533 C511 0.929 . S
H534 C512 0.931 . S
H535 C514 0.930 . S
H536 C518 0.931 . S
H537 C516 0.931 . S
H538 C520 0.931 . S
H539 C521 0.929 . S
H540 C522 0.930 . S
H541 C525 0.930 . S
H542 C526 0.931 . S
H543 C530 0.928 . S
H544 C529 0.929 . S
H545 C527 0.932 . S
C546 C547 1.386 . S
C546 C548 1.397 . S
C546 H570 0.931 . S
C547 C546 1.386 . S
C547 C551 1.397 . S
C548 C546 1.397 . S
C548 C549 1.384 . S
C548 H571 0.930 . S
C549 C548 1.384 . S
C549 C550 1.377 . S
C549 C552 1.481 . S
C550 C549 1.377 . S
C550 C551 1.389 . S
C550 H572 0.929 . S
C551 C547 1.397 . S
C551 C550 1.389 . S
C551 H573 0.931 . S
C552 C549 1.481 . S
C552 C553 1.387 . S
C552 C557 1.390 . S
C553 C552 1.387 . S
C553 C554 1.401 . S
C553 H574 0.930 . S
C554 C553 1.401 . S
C554 C555 1.376 . S
C554 C563 1.511 . S
C555 C554 1.376 . S
C555 C556 1.392 . S
C555 H576 0.931 . S
C556 C555 1.392 . S
C556 C557 1.361 . S
C556 C558 1.500 . S
C557 C552 1.390 . S
C557 C556 1.361 . S
C557 H575 0.931 . S
C558 C556 1.500 . S
C558 C559 1.371 . S
C558 C560 1.365 . S
C559 C558 1.371 . S
C559 C569 1.386 . S
C559 H577 0.931 . S
C560 C558 1.365 . S
C560 C561 1.409 . S
C560 H578 0.929 . S
C561 C560 1.409 . S
C561 C562 1.380 . S
C561 H579 0.930 . S
C562 C561 1.380 . S
C562 C569 1.357 . S
C563 C554 1.511 . S
C563 C564 1.341 . S
C563 C565 1.371 . S
C564 C563 1.341 . S
C564 C568 1.394 . S
C564 H580 0.930 . S
C565 C563 1.371 . S
C565 C566 1.392 . S
C565 H581 0.931 . S
C566 C565 1.392 . S
C566 C567 1.331 . S
C566 H584 0.932 . S
C567 C566 1.331 . S
C567 C568 1.336 . S
C568 C564 1.394 . S
C568 C567 1.336 . S
C568 H583 0.929 . S
C569 C559 1.386 . S
C569 C562 1.357 . S
C569 H582 0.928 . S
H570 C546 0.931 . S
H571 C548 0.930 . S
H572 C550 0.929 . S
H573 C551 0.931 . S
H574 C553 0.930 . S
H575 C557 0.931 . S
H576 C555 0.931 . S
H577 C559 0.931 . S
H578 C560 0.929 . S
H579 C561 0.930 . S
H580 C564 0.930 . S
H581 C565 0.931 . S
H582 C569 0.928 . S
H583 C568 0.929 . S
H584 C566 0.932 . S
C585 C586 1.386 . S
C585 C587 1.397 . S
C585 H609 0.931 . S
C586 C585 1.386 . S
C586 C590 1.397 . S
C587 C585 1.397 . S
C587 C588 1.384 . S
C587 H610 0.930 . S
C588 C587 1.384 . S
C588 C589 1.377 . S
C588 C591 1.481 . S
C589 C588 1.377 . S
C589 C590 1.389 . S
C589 H611 0.929 . S
C590 C586 1.397 . S
C590 C589 1.389 . S
C590 H612 0.931 . S
C591 C588 1.481 . S
C591 C592 1.387 . S
C591 C596 1.390 . S
C592 C591 1.387 . S
C592 C593 1.401 . S
C592 H613 0.930 . S
C593 C592 1.401 . S
C593 C594 1.376 . S
C593 C602 1.511 . S
C594 C593 1.376 . S
C594 C595 1.392 . S
C594 H615 0.931 . S
C595 C594 1.392 . S
C595 C596 1.361 . S
C595 C597 1.500 . S
C596 C591 1.390 . S
C596 C595 1.361 . S
C596 H614 0.931 . S
C597 C595 1.500 . S
C597 C598 1.371 . S
C597 C599 1.365 . S
C598 C597 1.371 . S
C598 C608 1.386 . S
C598 H616 0.931 . S
C599 C597 1.365 . S
C599 C600 1.409 . S
C599 H617 0.929 . S
C600 C599 1.409 . S
C600 C601 1.380 . S
C600 H618 0.930 . S
C601 C600 1.380 . S
C601 C608 1.357 . S
C602 C593 1.511 . S
C602 C603 1.341 . S
C602 C604 1.371 . S
C603 C602 1.341 . S
C603 C607 1.394 . S
C603 H619 0.930 . S
C604 C602 1.371 . S
C604 C605 1.392 . S
C604 H620 0.931 . S
C605 C604 1.392 . S
C605 C606 1.331 . S
C605 H623 0.932 . S
C606 C605 1.331 . S
C606 C607 1.336 . S
C607 C603 1.394 . S
C607 C606 1.336 . S
C607 H622 0.929 . S
C608 C598 1.386 . S
C608 C601 1.357 . S
C608 H621 0.928 . S
H609 C585 0.931 . S
H610 C587 0.930 . S
H611 C589 0.929 . S
H612 C590 0.931 . S
H613 C592 0.930 . S
H614 C596 0.931 . S
H615 C594 0.931 . S
H616 C598 0.931 . S
H617 C599 0.929 . S
H618 C600 0.930 . S
H619 C603 0.930 . S
H620 C604 0.931 . S
H621 C608 0.928 . S
H622 C607 0.929 . S
H623 C605 0.932 . S
C624 C625 1.386 . S
C624 C626 1.397 . S
C624 H648 0.931 1_455 S
C625 C624 1.386 . S
C625 C629 1.397 . S
C626 C624 1.397 . S
C626 C627 1.384 . S
C626 H649 0.930 . S
C627 C626 1.384 . S
C627 C628 1.377 . S
C627 C630 1.481 . S
C628 C627 1.377 . S
C628 C629 1.389 . S
C628 H650 0.929 . S
C629 C625 1.397 . S
C629 C628 1.389 . S
C629 H651 0.931 . S
C630 C627 1.481 . S
C630 C631 1.387 . S
C630 C635 1.390 . S
C631 C630 1.387 . S
C631 C632 1.401 . S
C631 H652 0.930 . S
C632 C631 1.401 . S
C632 C633 1.376 . S
C632 C641 1.511 . S
C633 C632 1.376 . S
C633 C634 1.392 . S
C633 H654 0.931 . S
C634 C633 1.392 . S
C634 C635 1.361 . S
C634 C636 1.500 . S
C635 C630 1.390 . S
C635 C634 1.361 . S
C635 H653 0.931 . S
C636 C634 1.500 . S
C636 C637 1.371 . S
C636 C638 1.365 . S
C637 C636 1.371 . S
C637 C647 1.386 . S
C637 H655 0.931 . S
C638 C636 1.365 . S
C638 C639 1.409 . S
C638 H656 0.929 . S
C639 C638 1.409 . S
C639 C640 1.380 . S
C639 H657 0.930 . S
C640 C639 1.380 . S
C640 C647 1.357 . S
C641 C632 1.511 . S
C641 C642 1.341 . S
C641 C643 1.371 . S
C642 C641 1.341 . S
C642 C646 1.394 . S
C642 H658 0.930 . S
C643 C641 1.371 . S
C643 C644 1.392 . S
C643 H659 0.931 . S
C644 C643 1.392 . S
C644 C645 1.331 . S
C644 H662 0.932 . S
C645 C644 1.331 . S
C645 C646 1.336 . S
C646 C642 1.394 . S
C646 C645 1.336 . S
C646 H661 0.929 . S
C647 C637 1.386 . S
C647 C640 1.357 . S
C647 H660 0.928 . S
H648 C624 0.931 1_655 S
H649 C626 0.930 . S
H650 C628 0.929 . S
H651 C629 0.931 . S
H652 C631 0.930 . S
H653 C635 0.931 . S
H654 C633 0.931 . S
H655 C637 0.931 . S
H656 C638 0.929 . S
H657 C639 0.930 . S
H658 C642 0.930 . S
H659 C643 0.931 . S
H660 C647 0.928 . S
H661 C646 0.929 . S
H662 C644 0.932 . S
C663 C664 1.386 . S
C663 C665 1.397 . S
C663 H687 0.931 . S
C664 C663 1.386 . S
C664 C668 1.397 . S
C665 C663 1.397 . S
C665 C666 1.384 . S
C665 H688 0.930 . S
C666 C665 1.384 . S
C666 C667 1.377 . S
C666 C669 1.481 . S
C667 C666 1.377 . S
C667 C668 1.389 . S
C667 H689 0.929 . S
C668 C664 1.397 . S
C668 C667 1.389 . S
C668 H690 0.931 . S
C669 C666 1.481 . S
C669 C670 1.387 . S
C669 C674 1.390 . S
C670 C669 1.387 . S
C670 C671 1.401 . S
C670 H691 0.930 . S
C671 C670 1.401 . S
C671 C672 1.376 . S
C671 C680 1.511 . S
C672 C671 1.376 . S
C672 C673 1.392 . S
C672 H693 0.931 . S
C673 C672 1.392 . S
C673 C674 1.361 . S
C673 C675 1.500 . S
C674 C669 1.390 . S
C674 C673 1.361 . S
C674 H692 0.931 . S
C675 C673 1.500 . S
C675 C676 1.371 . S
C675 C677 1.365 . S
C676 C675 1.371 . S
C676 C686 1.386 . S
C676 H694 0.931 . S
C677 C675 1.365 . S
C677 C678 1.409 . S
C677 H695 0.929 . S
C678 C677 1.409 . S
C678 C679 1.380 . S
C678 H696 0.930 . S
C679 C678 1.380 . S
C679 C686 1.357 . S
C680 C671 1.511 . S
C680 C681 1.341 . S
C680 C682 1.371 . S
C681 C680 1.341 . S
C681 C685 1.394 . S
C681 H697 0.930 . S
C682 C680 1.371 . S
C682 C683 1.392 . S
C682 H698 0.931 . S
C683 C682 1.392 . S
C683 C684 1.331 . S
C683 H701 0.932 . S
C684 C683 1.331 . S
C684 C685 1.336 . S
C685 C681 1.394 . S
C685 C684 1.336 . S
C685 H700 0.929 . S
C686 C676 1.386 . S
C686 C679 1.357 . S
C686 H699 0.928 . S
H687 C663 0.931 . S
H688 C665 0.930 . S
H689 C667 0.929 . S
H690 C668 0.931 . S
H691 C670 0.930 . S
H692 C674 0.931 . S
H693 C672 0.931 . S
H694 C676 0.931 . S
H695 C677 0.929 . S
H696 C678 0.930 . S
H697 C681 0.930 . S
H698 C682 0.931 . S
H699 C686 0.928 . S
H700 C685 0.929 . S
H701 C683 0.932 . S
Tb702 C712 2.825 . S
Tb702 O713 2.347 1_565 S
Tb702 O716 2.366 1_565 S
Tb702 O721 2.418 . S
Tb702 O722 2.386 1_556 S
Tb702 O725 2.479 . S
Tb702 O726 2.471 1_565 S
Eu703 O714 2.418 . S
Eu703 O715 2.384 . S
Eu703 O718 2.479 . S
Eu703 O719 2.441 1_545 S
Eu703 O720 2.347 1_545 S
Eu703 O723 2.366 1_545 S
Eu703 C733 2.825 . S
C704 O720 1.259 . S
C704 O721 1.265 1_554 S
C705 O722 1.252 . S
C705 O723 1.265 . S
C706 C708 1.380 . S
C706 C709 1.374 1_565 S
C706 C712 1.507 . S
C707 C708 1.384 . S
C707 C711 1.387 1_565 S
C707 H734 0.930 . S
C708 C706 1.380 . S
C708 C707 1.384 . S
C708 H735 0.931 . S
C709 C706 1.374 1_545 S
C709 C710 1.390 . S
C709 H736 0.930 . S
C710 C709 1.390 . S
C710 C711 1.391 . S
C710 H737 0.930 . S
C711 C707 1.387 1_545 S
C711 C710 1.391 . S
C712 Tb702 2.825 . S
C712 C706 1.507 . S
C712 O725 1.238 . S
C712 O726 1.247 1_565 S
O713 Tb702 2.347 1_545 S
O713 C717 1.260 . S
O714 Eu703 2.418 . S
O714 C717 1.262 1_554 S
O715 Eu703 2.384 . S
O715 C724 1.255 1_554 S
O716 Tb702 2.366 1_545 S
O716 C724 1.265 . S
C717 O713 1.260 . S
C717 O714 1.262 1_556 S
O718 Eu703 2.479 . S
O718 C733 1.238 . S
O719 Eu703 2.441 1_565 S
O719 C733 1.202 1_565 S
O720 Eu703 2.347 1_565 S
O720 C704 1.259 . S
O721 Tb702 2.418 . S
O721 C704 1.265 1_556 S
O722 Tb702 2.386 1_554 S
O722 C705 1.252 . S
O723 Eu703 2.366 1_565 S
O723 C705 1.265 . S
C724 O715 1.255 1_556 S
C724 O716 1.265 . S
O725 Tb702 2.479 . S
O725 C712 1.238 . S
O726 Tb702 2.471 1_545 S
O726 C712 1.247 1_545 S
C727 C730 1.380 . S
C727 C731 1.374 1_545 S
C727 C733 1.507 . S
C728 C729 1.387 1_565 S
C728 C732 1.391 . S
C729 C728 1.387 1_545 S
C729 C730 1.384 . S
C729 H738 0.930 . S
C730 C727 1.380 . S
C730 C729 1.384 . S
C730 H739 0.931 . S
C731 C727 1.374 1_565 S
C731 C732 1.390 . S
C731 H740 0.930 . S
C732 C728 1.391 . S
C732 C731 1.390 . S
C732 H741 0.930 . S
C733 Eu703 2.825 . S
C733 O718 1.238 . S
C733 O719 1.202 1_545 S
C733 C727 1.507 . S
H734 C707 0.930 . S
H735 C708 0.931 . S
H736 C709 0.930 . S
H737 C710 0.930 . S
H738 C729 0.930 . S
H739 C730 0.931 . S
H740 C731 0.930 . S
H741 C732 0.930 . S
Tb742 C752 2.825 . S
Tb742 O753 2.347 1_455 S
Tb742 O756 2.366 1_455 S
Tb742 O761 2.418 . S
Tb742 O762 2.384 1_556 S
Tb742 O765 2.479 . S
Tb742 O766 2.471 1_455 S
Eu743 O754 2.418 . S
Eu743 O755 2.434 . S
Eu743 O758 2.479 . S
Eu743 O759 2.471 1_655 S
Eu743 O760 2.347 1_655 S
Eu743 O763 2.366 1_655 S
Eu743 C773 2.825 . S
C744 O760 1.259 . S
C744 O761 1.265 1_554 S
C745 O762 1.255 . S
C745 O763 1.265 . S
C746 C748 1.380 . S
C746 C749 1.374 1_455 S
C746 C752 1.507 . S
C747 C748 1.384 . S
C747 C751 1.387 1_455 S
C747 H774 0.930 . S
C748 C746 1.380 . S
C748 C747 1.384 . S
C748 H775 0.931 . S
C749 C746 1.374 1_655 S
C749 C750 1.390 . S
C749 H776 0.930 . S
C750 C749 1.390 . S
C750 C751 1.391 . S
C750 H777 0.930 . S
C751 C747 1.387 1_655 S
C751 C750 1.391 . S
C752 Tb742 2.825 . S
C752 C746 1.507 . S
C752 O765 1.238 . S
C752 O766 1.247 1_455 S
O753 Tb742 2.347 1_655 S
O753 C757 1.259 . S
O754 Eu743 2.418 . S
O754 C757 1.265 1_554 S
O755 Eu743 2.434 . S
O755 C764 1.194 1_554 S
O756 Tb742 2.366 1_655 S
O756 C764 1.265 . S
C757 O753 1.259 . S
C757 O754 1.265 1_556 S
O758 Eu743 2.479 . S
O758 C773 1.238 . S
O759 Eu743 2.471 1_455 S
O759 C773 1.247 1_455 S
O760 Eu743 2.347 1_455 S
O760 C744 1.259 . S
O761 Tb742 2.418 . S
O761 C744 1.265 1_556 S
O762 Tb742 2.384 1_554 S
O762 C745 1.255 . S
O763 Eu743 2.366 1_455 S
O763 C745 1.265 . S
C764 O755 1.194 1_556 S
C764 O756 1.265 . S
O765 Tb742 2.479 . S
O765 C752 1.238 . S
O766 Tb742 2.471 1_655 S
O766 C752 1.247 1_655 S
C767 C770 1.393 . S
C767 C771 1.350 1_655 S
C767 C773 1.518 . S
C768 C769 1.387 1_455 S
C768 C772 1.391 . S
C769 C768 1.387 1_655 S
C769 C770 1.384 . S
C769 H778 0.930 . S
C770 C767 1.393 . S
C770 C769 1.384 . S
C770 H779 0.931 . S
C771 C767 1.350 1_455 S
C771 C772 1.390 . S
C771 H780 0.930 . S
C772 C768 1.391 . S
C772 C771 1.390 . S
C772 H781 0.930 . S
C773 Eu743 2.825 . S
C773 O758 1.238 . S
C773 O759 1.247 1_655 S
C773 C767 1.518 . S
H774 C747 0.930 . S
H775 C748 0.931 . S
H776 C749 0.930 . S
H777 C750 0.930 . S
H778 C769 0.930 . S
H779 C770 0.931 . S
H780 C771 0.930 . S
H781 C772 0.930 . S
Tb782 C792 2.825 . S
Tb782 O793 2.347 . S
Tb782 O796 2.366 . S
Tb782 O801 2.418 . S
Tb782 O802 2.384 . S
Tb782 O805 2.479 . S
Tb782 O806 2.471 . S
Eu783 O794 2.418 . S
Eu783 O795 2.384 1_556 S
Eu783 O798 2.479 . S
Eu783 O799 2.471 . S
Eu783 O800 2.347 . S
Eu783 O803 2.366 . S
Eu783 C813 2.825 . S
C784 O800 1.259 . S
C784 O801 1.265 1_556 S
C785 O802 1.255 1_556 S
C785 O803 1.265 . S
C786 C788 1.380 . S
C786 C789 1.374 . S
C786 C792 1.507 . S
C787 C788 1.384 . S
C787 C791 1.387 . S
C787 H814 0.930 . S
C788 C786 1.380 . S
C788 C787 1.384 . S
C788 H815 0.931 . S
C789 C786 1.374 . S
C789 C790 1.390 . S
C789 H816 0.930 . S
C790 C789 1.390 . S
C790 C791 1.391 . S
C790 H817 0.930 . S
C791 C787 1.387 . S
C791 C790 1.391 . S
C792 Tb782 2.825 . S
C792 C786 1.507 . S
C792 O805 1.238 . S
C792 O806 1.247 . S
O793 Tb782 2.347 . S
O793 C797 1.259 . S
O794 Eu783 2.418 . S
O794 C797 1.265 1_556 S
O795 Eu783 2.384 1_554 S
O795 C804 1.255 . S
O796 Tb782 2.366 . S
O796 C804 1.265 . S
C797 O793 1.259 . S
C797 O794 1.265 1_554 S
O798 Eu783 2.479 . S
O798 C813 1.238 . S
O799 Eu783 2.471 . S
O799 C813 1.247 . S
O800 Eu783 2.347 . S
O800 C784 1.259 . S
O801 Tb782 2.418 . S
O801 C784 1.265 1_554 S
O802 Tb782 2.384 . S
O802 C785 1.255 1_554 S
O803 Eu783 2.366 . S
O803 C785 1.265 . S
C804 O795 1.255 . S
C804 O796 1.265 . S
O805 Tb782 2.479 . S
O805 C792 1.238 . S
O806 Tb782 2.471 . S
O806 C792 1.247 . S
C807 C810 1.380 . S
C807 C811 1.374 . S
C807 C813 1.507 . S
C808 C809 1.387 . S
C808 C812 1.391 . S
C809 C808 1.387 . S
C809 C810 1.384 . S
C809 H818 0.930 . S
C810 C807 1.380 . S
C810 C809 1.384 . S
C810 H819 0.931 . S
C811 C807 1.374 . S
C811 C812 1.390 . S
C811 H820 0.930 . S
C812 C808 1.391 . S
C812 C811 1.390 . S
C812 H821 0.930 . S
C813 Eu783 2.825 . S
C813 O798 1.238 . S
C813 O799 1.247 . S
C813 C807 1.507 . S
H814 C787 0.930 . S
H815 C788 0.931 . S
H816 C789 0.930 . S
H817 C790 0.930 . S
H818 C809 0.930 . S
H819 C810 0.931 . S
H820 C811 0.930 . S
H821 C812 0.930 . S
Tb822 C832 2.825 . S
Tb822 O833 2.347 . S
Tb822 O836 2.366 . S
Tb822 O841 2.418 . S
Tb822 O842 2.384 . S
Tb822 O845 2.479 . S
Tb822 O846 2.471 . S
Eu823 O834 2.418 . S
Eu823 O835 2.384 . S
Eu823 O838 2.479 . S
Eu823 O839 2.471 . S
Eu823 O840 2.347 . S
Eu823 O843 2.366 . S
Eu823 C853 2.825 . S
C824 O840 1.259 . S
C824 O841 1.265 . S
C825 O842 1.255 . S
C825 O843 1.265 . S
C826 C828 1.380 . S
C826 C829 1.374 . S
C826 C832 1.507 . S
C827 C828 1.384 . S
C827 C831 1.387 . S
C827 H854 0.930 . S
C828 C826 1.380 . S
C828 C827 1.384 . S
C828 H855 0.931 . S
C829 C826 1.374 . S
C829 C830 1.390 . S
C829 H856 0.930 . S
C830 C829 1.390 . S
C830 C831 1.391 . S
C830 H857 0.930 . S
C831 C827 1.387 . S
C831 C830 1.391 . S
C832 Tb822 2.825 . S
C832 C826 1.507 . S
C832 O845 1.238 . S
C832 O846 1.247 . S
O833 Tb822 2.347 . S
O833 C837 1.259 . S
O834 Eu823 2.418 . S
O834 C837 1.265 . S
O835 Eu823 2.384 . S
O835 C844 1.255 . S
O836 Tb822 2.366 . S
O836 C844 1.265 . S
C837 O833 1.259 . S
C837 O834 1.265 . S
O838 Eu823 2.479 . S
O838 C853 1.238 . S
O839 Eu823 2.471 . S
O839 C853 1.247 . S
O840 Eu823 2.347 . S
O840 C824 1.259 . S
O841 Tb822 2.418 . S
O841 C824 1.265 . S
O842 Tb822 2.384 . S
O842 C825 1.255 . S
O843 Eu823 2.366 . S
O843 C825 1.265 . S
C844 O835 1.255 . S
C844 O836 1.265 . S
O845 Tb822 2.479 . S
O845 C832 1.238 . S
O846 Tb822 2.471 . S
O846 C832 1.247 . S
C847 C850 1.380 . S
C847 C851 1.374 . S
C847 C853 1.507 . S
C848 C849 1.387 . S
C848 C852 1.391 . S
C849 C848 1.387 . S
C849 C850 1.384 . S
C849 H858 0.930 . S
C850 C847 1.380 . S
C850 C849 1.384 . S
C850 H859 0.931 . S
C851 C847 1.374 . S
C851 C852 1.390 . S
C851 H860 0.930 . S
C852 C848 1.391 . S
C852 C851 1.390 . S
C852 H861 0.930 . S
C853 Eu823 2.825 . S
C853 O838 1.238 . S
C853 O839 1.247 . S
C853 C847 1.507 . S
H854 C827 0.930 . S
H855 C828 0.931 . S
H856 C829 0.930 . S
H857 C830 0.930 . S
H858 C849 0.930 . S
H859 C850 0.931 . S
H860 C851 0.930 . S
H861 C852 0.930 . S
Tb862 C872 2.825 . S
Tb862 O873 2.347 . S
Tb862 O876 2.366 . S
Tb862 O881 2.418 . S
Tb862 O882 2.384 . S
Tb862 O885 2.479 . S
Tb862 O886 2.471 . S
Eu863 O874 2.418 . S
Eu863 O875 2.384 . S
Eu863 O878 2.479 . S
Eu863 O879 2.471 . S
Eu863 O880 2.347 . S
Eu863 O883 2.366 . S
Eu863 C893 2.825 . S
C864 O880 1.259 . S
C864 O881 1.265 . S
C865 O882 1.255 . S
C865 O883 1.265 . S
C866 C868 1.380 . S
C866 C869 1.374 . S
C866 C872 1.507 . S
C867 C868 1.384 . S
C867 C871 1.387 . S
C867 H894 0.930 . S
C868 C866 1.380 . S
C868 C867 1.384 . S
C868 H895 0.931 . S
C869 C866 1.374 . S
C869 C870 1.390 . S
C869 H896 0.930 . S
C870 C869 1.390 . S
C870 C871 1.391 . S
C870 H897 0.930 . S
C871 C867 1.387 . S
C871 C870 1.391 . S
C872 Tb862 2.825 . S
C872 C866 1.507 . S
C872 O885 1.238 . S
C872 O886 1.247 . S
O873 Tb862 2.347 . S
O873 C877 1.259 . S
O874 Eu863 2.418 . S
O874 C877 1.265 . S
O875 Eu863 2.384 . S
O875 C884 1.255 . S
O876 Tb862 2.366 . S
O876 C884 1.265 . S
C877 O873 1.259 . S
C877 O874 1.265 . S
O878 Eu863 2.479 . S
O878 C893 1.238 . S
O879 Eu863 2.471 . S
O879 C893 1.247 . S
O880 Eu863 2.347 . S
O880 C864 1.259 . S
O881 Tb862 2.418 . S
O881 C864 1.265 . S
O882 Tb862 2.384 . S
O882 C865 1.255 . S
O883 Eu863 2.366 . S
O883 C865 1.265 . S
C884 O875 1.255 . S
C884 O876 1.265 . S
O885 Tb862 2.479 . S
O885 C872 1.238 . S
O886 Tb862 2.471 . S
O886 C872 1.247 . S
C887 C890 1.380 . S
C887 C891 1.374 . S
C887 C893 1.507 . S
C888 C889 1.387 . S
C888 C892 1.391 . S
C889 C888 1.387 . S
C889 C890 1.384 . S
C889 H898 0.930 . S
C890 C887 1.380 . S
C890 C889 1.384 . S
C890 H899 0.931 . S
C891 C887 1.374 . S
C891 C892 1.390 . S
C891 H900 0.930 . S
C892 C888 1.391 . S
C892 C891 1.390 . S
C892 H901 0.930 . S
C893 Eu863 2.825 . S
C893 O878 1.238 . S
C893 O879 1.247 . S
C893 C887 1.507 . S
H894 C867 0.930 . S
H895 C868 0.931 . S
H896 C869 0.930 . S
H897 C870 0.930 . S
H898 C889 0.930 . S
H899 C890 0.931 . S
H900 C891 0.930 . S
H901 C892 0.930 . S
Tb902 C912 2.825 . S
Tb902 O913 2.347 . S
Tb902 O916 2.366 . S
Tb902 O921 2.418 . S
Tb902 O922 2.384 . S
Tb902 O925 2.479 . S
Tb902 O926 2.471 . S
Eu903 O914 2.418 . S
Eu903 O915 2.384 . S
Eu903 O918 2.479 . S
Eu903 O919 2.471 . S
Eu903 O920 2.347 . S
Eu903 O923 2.366 . S
Eu903 C933 2.825 . S
C904 O920 1.259 . S
C904 O921 1.265 . S
C905 O922 1.255 . S
C905 O923 1.265 . S
C906 C908 1.380 . S
C906 C909 1.374 . S
C906 C912 1.507 . S
C907 C908 1.384 . S
C907 C911 1.387 . S
C907 H934 0.930 . S
C908 C906 1.380 . S
C908 C907 1.384 . S
C908 H935 0.931 . S
C909 C906 1.374 . S
C909 C910 1.390 . S
C909 H936 0.930 . S
C910 C909 1.390 . S
C910 C911 1.391 . S
C910 H937 0.930 . S
C911 C907 1.387 . S
C911 C910 1.391 . S
C912 Tb902 2.825 . S
C912 C906 1.507 . S
C912 O925 1.238 . S
C912 O926 1.247 . S
O913 Tb902 2.347 . S
O913 C917 1.259 . S
O914 Eu903 2.418 . S
O914 C917 1.265 . S
O915 Eu903 2.384 . S
O915 C924 1.255 . S
O916 Tb902 2.366 . S
O916 C924 1.265 . S
C917 O913 1.259 . S
C917 O914 1.265 . S
O918 Eu903 2.479 . S
O918 C933 1.238 . S
O919 Eu903 2.471 . S
O919 C933 1.247 . S
O920 Eu903 2.347 . S
O920 C904 1.259 . S
O921 Tb902 2.418 . S
O921 C904 1.265 . S
O922 Tb902 2.384 . S
O922 C905 1.255 . S
O923 Eu903 2.366 . S
O923 C905 1.265 . S
C924 O915 1.255 . S
C924 O916 1.265 . S
O925 Tb902 2.479 . S
O925 C912 1.238 . S
O926 Tb902 2.471 . S
O926 C912 1.247 . S
C927 C930 1.380 . S
C927 C931 1.374 . S
C927 C933 1.507 . S
C928 C929 1.387 . S
C928 C932 1.391 . S
C929 C928 1.387 . S
C929 C930 1.384 . S
C929 H938 0.930 . S
C930 C927 1.380 . S
C930 C929 1.384 . S
C930 H939 0.931 . S
C931 C927 1.374 . S
C931 C932 1.390 . S
C931 H940 0.930 . S
C932 C928 1.391 . S
C932 C931 1.390 . S
C932 H941 0.930 . S
C933 Eu903 2.825 . S
C933 O918 1.238 . S
C933 O919 1.247 . S
C933 C927 1.507 . S
H934 C907 0.930 . S
H935 C908 0.931 . S
H936 C909 0.930 . S
H937 C910 0.930 . S
H938 C929 0.930 . S
H939 C930 0.931 . S
H940 C931 0.930 . S
H941 C932 0.930 . S
Tb942 C952 2.825 . S
Tb942 O953 2.347 . S
Tb942 O956 2.366 . S
Tb942 O961 2.418 . S
Tb942 O962 2.384 . S
Tb942 O965 2.479 . S
Tb942 O966 2.471 . S
Eu943 O954 2.418 . S
Eu943 O955 2.384 . S
Eu943 O958 2.479 . S
Eu943 O959 2.471 . S
Eu943 O960 2.347 . S
Eu943 O963 2.366 . S
Eu943 C973 2.825 . S
C944 O960 1.259 . S
C944 O961 1.265 . S
C945 O962 1.255 . S
C945 O963 1.265 . S
C946 C948 1.380 . S
C946 C949 1.374 . S
C946 C952 1.507 . S
C947 C948 1.384 . S
C947 C951 1.387 . S
C947 H974 0.930 . S
C948 C946 1.380 . S
C948 C947 1.384 . S
C948 H975 0.931 . S
C949 C946 1.374 . S
C949 C950 1.390 . S
C949 H976 0.930 . S
C950 C949 1.390 . S
C950 C951 1.391 . S
C950 H977 0.930 . S
C951 C947 1.387 . S
C951 C950 1.391 . S
C952 Tb942 2.825 . S
C952 C946 1.507 . S
C952 O965 1.238 . S
C952 O966 1.247 . S
O953 Tb942 2.347 . S
O953 C957 1.259 . S
O954 Eu943 2.418 . S
O954 C957 1.265 . S
O955 Eu943 2.384 . S
O955 C964 1.255 . S
O956 Tb942 2.366 . S
O956 C964 1.265 . S
C957 O953 1.259 . S
C957 O954 1.265 . S
O958 Eu943 2.479 . S
O958 C973 1.238 . S
O959 Eu943 2.471 . S
O959 C973 1.247 . S
O960 Eu943 2.347 . S
O960 C944 1.259 . S
O961 Tb942 2.418 . S
O961 C944 1.265 . S
O962 Tb942 2.384 . S
O962 C945 1.255 . S
O963 Eu943 2.366 . S
O963 C945 1.265 . S
C964 O955 1.255 . S
C964 O956 1.265 . S
O965 Tb942 2.479 . S
O965 C952 1.238 . S
O966 Tb942 2.471 . S
O966 C952 1.247 . S
C967 C970 1.380 . S
C967 C971 1.374 . S
C967 C973 1.507 . S
C968 C969 1.387 . S
C968 C972 1.391 . S
C969 C968 1.387 . S
C969 C970 1.384 . S
C969 H978 0.930 . S
C970 C967 1.380 . S
C970 C969 1.384 . S
C970 H979 0.931 . S
C971 C967 1.374 . S
C971 C972 1.390 . S
C971 H980 0.930 . S
C972 C968 1.391 . S
C972 C971 1.390 . S
C972 H981 0.930 . S
C973 Eu943 2.825 . S
C973 O958 1.238 . S
C973 O959 1.247 . S
C973 C967 1.507 . S
H974 C947 0.930 . S
H975 C948 0.931 . S
H976 C949 0.930 . S
H977 C950 0.930 . S
H978 C969 0.930 . S
H979 C970 0.931 . S
H980 C971 0.930 . S
H981 C972 0.930 . S
Tb982 C992 2.825 . S
Tb982 O993 2.347 . S
Tb982 O996 2.366 . S
Tb982 O1001 2.418 . S
Tb982 O1002 2.384 . S
Tb982 O1005 2.479 . S
Tb982 O1006 2.471 . S
Eu983 O994 2.418 . S
Eu983 O995 2.384 . S
Eu983 O998 2.479 . S
Eu983 O999 2.471 . S
Eu983 O1000 2.347 . S
Eu983 O1003 2.366 . S
Eu983 C1013 2.825 . S
C984 O1000 1.259 . S
C984 O1001 1.265 . S
C985 O1002 1.255 . S
C985 O1003 1.265 . S
C986 C988 1.380 . S
C986 C989 1.374 . S
C986 C992 1.507 . S
C987 C988 1.384 . S
C987 C991 1.387 . S
C987 H1014 0.930 . S
C988 C986 1.380 . S
C988 C987 1.384 . S
C988 H1015 0.931 . S
C989 C986 1.374 . S
C989 C990 1.390 . S
C989 H1016 0.930 . S
C990 C989 1.390 . S
C990 C991 1.391 . S
C990 H1017 0.930 . S
C991 C987 1.387 . S
C991 C990 1.391 . S
C992 Tb982 2.825 . S
C992 C986 1.507 . S
C992 O1005 1.238 . S
C992 O1006 1.247 . S
O993 Tb982 2.347 . S
O993 C997 1.259 . S
O994 Eu983 2.418 . S
O994 C997 1.265 . S
O995 Eu983 2.384 . S
O995 C1004 1.255 . S
O996 Tb982 2.366 . S
O996 C1004 1.265 . S
C997 O993 1.259 . S
C997 O994 1.265 . S
O998 Eu983 2.479 . S
O998 C1013 1.238 . S
O999 Eu983 2.471 . S
O999 C1013 1.247 . S
O1000 Eu983 2.347 . S
O1000 C984 1.259 . S
O1001 Tb982 2.418 . S
O1001 C984 1.265 . S
O1002 Tb982 2.384 . S
O1002 C985 1.255 . S
O1003 Eu983 2.366 . S
O1003 C985 1.265 . S
C1004 O995 1.255 . S
C1004 O996 1.265 . S
O1005 Tb982 2.479 . S
O1005 C992 1.238 . S
O1006 Tb982 2.471 . S
O1006 C992 1.247 . S
C1007 C1010 1.380 . S
C1007 C1011 1.374 . S
C1007 C1013 1.507 . S
C1008 C1009 1.387 . S
C1008 C1012 1.391 . S
C1009 C1008 1.387 . S
C1009 C1010 1.384 . S
C1009 H1018 0.930 . S
C1010 C1007 1.380 . S
C1010 C1009 1.384 . S
C1010 H1019 0.931 . S
C1011 C1007 1.374 . S
C1011 C1012 1.390 . S
C1011 H1020 0.930 . S
C1012 C1008 1.391 . S
C1012 C1011 1.390 . S
C1012 H1021 0.930 . S
C1013 Eu983 2.825 . S
C1013 O998 1.238 . S
C1013 O999 1.247 . S
C1013 C1007 1.507 . S
H1014 C987 0.930 . S
H1015 C988 0.931 . S
H1016 C989 0.930 . S
H1017 C990 0.930 . S
H1018 C1009 0.930 . S
H1019 C1010 0.931 . S
H1020 C1011 0.930 . S
H1021 C1012 0.930 . S
Tb1022 C1032 2.825 . S
Tb1022 O1033 2.347 . S
Tb1022 O1036 2.366 . S
Tb1022 O1041 2.418 . S
Tb1022 O1042 2.384 . S
Tb1022 O1045 2.479 . S
Tb1022 O1046 2.471 . S
Eu1023 O1034 2.418 . S
Eu1023 O1035 2.384 . S
Eu1023 O1038 2.479 . S
Eu1023 O1039 2.471 . S
Eu1023 O1040 2.347 . S
Eu1023 O1043 2.366 . S
Eu1023 C1053 2.825 . S
C1024 O1040 1.259 . S
C1024 O1041 1.265 . S
C1025 O1042 1.255 . S
C1025 O1043 1.265 . S
C1026 C1028 1.380 . S
C1026 C1029 1.374 . S
C1026 C1032 1.507 . S
C1027 C1028 1.384 . S
C1027 C1031 1.387 . S
C1027 H1054 0.930 . S
C1028 C1026 1.380 . S
C1028 C1027 1.384 . S
C1028 H1055 0.931 . S
C1029 C1026 1.374 . S
C1029 C1030 1.390 . S
C1029 H1056 0.930 . S
C1030 C1029 1.390 . S
C1030 C1031 1.391 . S
C1030 H1057 0.930 . S
C1031 C1027 1.387 . S
C1031 C1030 1.391 . S
C1032 Tb1022 2.825 . S
C1032 C1026 1.507 . S
C1032 O1045 1.238 . S
C1032 O1046 1.247 . S
O1033 Tb1022 2.347 . S
O1033 C1037 1.259 . S
O1034 Eu1023 2.418 . S
O1034 C1037 1.265 . S
O1035 Eu1023 2.384 . S
O1035 C1044 1.255 . S
O1036 Tb1022 2.366 . S
O1036 C1044 1.265 . S
C1037 O1033 1.259 . S
C1037 O1034 1.265 . S
O1038 Eu1023 2.479 . S
O1038 C1053 1.238 . S
O1039 Eu1023 2.471 . S
O1039 C1053 1.247 . S
O1040 Eu1023 2.347 . S
O1040 C1024 1.259 . S
O1041 Tb1022 2.418 . S
O1041 C1024 1.265 . S
O1042 Tb1022 2.384 . S
O1042 C1025 1.255 . S
O1043 Eu1023 2.366 . S
O1043 C1025 1.265 . S
C1044 O1035 1.255 . S
C1044 O1036 1.265 . S
O1045 Tb1022 2.479 . S
O1045 C1032 1.238 . S
O1046 Tb1022 2.471 . S
O1046 C1032 1.247 . S
C1047 C1050 1.380 . S
C1047 C1051 1.374 . S
C1047 C1053 1.507 . S
C1048 C1049 1.387 . S
C1048 C1052 1.391 . S
C1049 C1048 1.387 . S
C1049 C1050 1.384 . S
C1049 H1058 0.930 . S
C1050 C1047 1.380 . S
C1050 C1049 1.384 . S
C1050 H1059 0.931 . S
C1051 C1047 1.374 . S
C1051 C1052 1.390 . S
C1051 H1060 0.930 . S
C1052 C1048 1.391 . S
C1052 C1051 1.390 . S
C1052 H1061 0.930 . S
C1053 Eu1023 2.825 . S
C1053 O1038 1.238 . S
C1053 O1039 1.247 . S
C1053 C1047 1.507 . S
H1054 C1027 0.930 . S
H1055 C1028 0.931 . S
H1056 C1029 0.930 . S
H1057 C1030 0.930 . S
H1058 C1049 0.930 . S
H1059 C1050 0.931 . S
H1060 C1051 0.930 . S
H1061 C1052 0.930 . S
H1062 C1070 0.929 . S
H1063 C1072 0.930 . S
H1064 C1074 0.930 . S
H1065 C1077 0.929 . S
H1066 C1080 0.930 . S
H1067 C1082 0.960 . S
H1068 C1082 0.960 . S
H1069 C1082 0.960 . S
C1070 H1062 0.929 . S
C1070 C1071 1.377 . S
C1070 C1072 1.384 . S
C1071 C1070 1.377 . S
C1071 C1077 1.390 . S
C1072 H1063 0.930 . S
C1072 C1070 1.384 . S
C1072 C1073 1.372 . S
C1073 C1072 1.372 . S
C1073 C1074 1.400 . S
C1073 C1078 1.490 . S
C1074 H1064 0.930 . S
C1074 C1073 1.400 . S
C1074 C1077 1.386 . S
H1075 C1091 0.930 . S
H1076 C1092 0.931 . S
C1077 H1065 0.929 . S
C1077 C1071 1.390 . S
C1077 C1074 1.386 . S
C1078 C1073 1.490 . S
C1078 C1080 1.395 . S
C1078 C1081 1.403 . S
H1079 C1085 0.930 . S
C1080 H1066 0.930 . S
C1080 C1078 1.395 . S
C1080 C1083 1.403 . S
C1081 C1078 1.403 . S
C1081 C1082 1.524 . S
C1081 C1085 1.400 . S
C1082 H1067 0.960 . S
C1082 H1068 0.960 . S
C1082 H1069 0.960 . S
C1082 C1081 1.524 . S
C1083 C1080 1.403 . S
C1083 C1084 1.392 . S
C1083 C1087 1.495 . S
C1084 C1083 1.392 . S
C1084 C1085 1.385 . S
C1084 C1086 1.478 . S
C1085 H1079 0.930 . S
C1085 C1081 1.400 . S
C1085 C1084 1.385 . S
C1086 C1084 1.478 . S
C1086 C1088 1.381 . S
C1086 C1092 1.383 . S
C1087 C1083 1.495 . S
C1087 H1093 0.959 . S
C1087 H1094 0.961 . S
C1087 H1095 0.960 . S
C1088 C1086 1.381 . S
C1088 C1089 1.394 . S
C1088 H1096 0.930 . S
C1089 C1088 1.394 . S
C1089 C1090 1.383 . S
C1089 H1097 0.929 . S
C1090 C1089 1.383 . S
C1090 C1091 1.377 . S
C1091 H1075 0.930 . S
C1091 C1090 1.377 . S
C1091 C1092 1.379 . S
C1092 H1076 0.931 . S
C1092 C1086 1.383 . S
C1092 C1091 1.379 . S
H1093 C1087 0.959 . S
H1094 C1087 0.961 . S
H1095 C1087 0.960 . S
H1096 C1088 0.930 . S
H1097 C1089 0.929 . S
H1098 C1106 0.929 . S
H1099 C1108 0.930 . S
H1100 C1110 0.930 . S
H1101 C1113 0.929 . S
H1102 C1116 0.930 . S
H1103 C1118 0.960 . S
H1104 C1118 0.960 . S
H1105 C1118 0.960 . S
C1106 H1098 0.929 . S
C1106 C1107 1.377 . S
C1106 C1108 1.384 . S
C1107 C1106 1.377 . S
C1107 C1113 1.390 . S
C1108 H1099 0.930 . S
C1108 C1106 1.384 . S
C1108 C1109 1.372 . S
C1109 C1108 1.372 . S
C1109 C1110 1.400 . S
C1109 C1114 1.490 . S
C1110 H1100 0.930 . S
C1110 C1109 1.400 . S
C1110 C1113 1.386 . S
H1111 C1127 0.930 . S
H1112 C1128 0.931 . S
C1113 H1101 0.929 . S
C1113 C1107 1.390 . S
C1113 C1110 1.386 . S
C1114 C1109 1.490 . S
C1114 C1116 1.395 . S
C1114 C1117 1.403 . S
H1115 C1121 0.930 . S
C1116 H1102 0.930 . S
C1116 C1114 1.395 . S
C1116 C1119 1.403 . S
C1117 C1114 1.403 . S
C1117 C1118 1.524 . S
C1117 C1121 1.400 . S
C1118 H1103 0.960 . S
C1118 H1104 0.960 . S
C1118 H1105 0.960 . S
C1118 C1117 1.524 . S
C1119 C1116 1.403 . S
C1119 C1120 1.392 . S
C1119 C1123 1.495 . S
C1120 C1119 1.392 . S
C1120 C1121 1.385 . S
C1120 C1122 1.478 . S
C1121 H1115 0.930 . S
C1121 C1117 1.400 . S
C1121 C1120 1.385 . S
C1122 C1120 1.478 . S
C1122 C1124 1.381 . S
C1122 C1128 1.383 . S
C1123 C1119 1.495 . S
C1123 H1129 0.959 . S
C1123 H1130 0.961 . S
C1123 H1131 0.960 . S
C1124 C1122 1.381 . S
C1124 C1125 1.394 . S
C1124 H1132 0.930 . S
C1125 C1124 1.394 . S
C1125 C1126 1.383 . S
C1125 H1133 0.929 . S
C1126 C1125 1.383 . S
C1126 C1127 1.377 . S
C1127 H1111 0.930 . S
C1127 C1126 1.377 . S
C1127 C1128 1.379 . S
C1128 H1112 0.931 . S
C1128 C1122 1.383 . S
C1128 C1127 1.379 . S
H1129 C1123 0.959 . S
H1130 C1123 0.961 . S
H1131 C1123 0.960 . S
H1132 C1124 0.930 . S
H1133 C1125 0.929 . S
H1134 C1142 0.929 . S
H1135 C1144 0.930 . S
H1136 C1146 0.930 . S
H1137 C1149 0.929 . S
H1138 C1152 0.930 . S
H1139 C1154 0.960 . S
H1140 C1154 0.960 . S
H1141 C1154 0.960 . S
C1142 H1134 0.929 . S
C1142 C1143 1.377 . S
C1142 C1144 1.384 . S
C1143 C1142 1.377 . S
C1143 C1149 1.390 . S
C1144 H1135 0.930 . S
C1144 C1142 1.384 . S
C1144 C1145 1.372 . S
C1145 C1144 1.372 . S
C1145 C1146 1.400 . S
C1145 C1150 1.490 . S
C1146 H1136 0.930 . S
C1146 C1145 1.400 . S
C1146 C1149 1.386 . S
H1147 C1163 0.930 . S
H1148 C1164 0.931 . S
C1149 H1137 0.929 . S
C1149 C1143 1.390 . S
C1149 C1146 1.386 . S
C1150 C1145 1.490 . S
C1150 C1152 1.395 . S
C1150 C1153 1.403 . S
H1151 C1157 0.930 . S
C1152 H1138 0.930 . S
C1152 C1150 1.395 . S
C1152 C1155 1.403 . S
C1153 C1150 1.403 . S
C1153 C1154 1.524 . S
C1153 C1157 1.400 . S
C1154 H1139 0.960 . S
C1154 H1140 0.960 . S
C1154 H1141 0.960 . S
C1154 C1153 1.524 . S
C1155 C1152 1.403 . S
C1155 C1156 1.392 . S
C1155 C1159 1.495 . S
C1156 C1155 1.392 . S
C1156 C1157 1.385 . S
C1156 C1158 1.478 . S
C1157 H1151 0.930 . S
C1157 C1153 1.400 . S
C1157 C1156 1.385 . S
C1158 C1156 1.478 . S
C1158 C1160 1.381 . S
C1158 C1164 1.383 . S
C1159 C1155 1.495 . S
C1159 H1165 0.959 . S
C1159 H1166 0.983 . S
C1159 H1167 0.960 . S
C1160 C1158 1.381 . S
C1160 C1161 1.394 . S
C1160 H1168 0.930 . S
C1161 C1160 1.394 . S
C1161 C1162 1.383 . S
C1161 H1169 0.929 . S
C1162 C1161 1.383 . S
C1162 C1163 1.377 . S
C1163 H1147 0.930 . S
C1163 C1162 1.377 . S
C1163 C1164 1.379 . S
C1164 H1148 0.931 . S
C1164 C1158 1.383 . S
C1164 C1163 1.379 . S
H1165 C1159 0.959 . S
H1166 C1159 0.983 . S
H1167 C1159 0.960 . S
H1168 C1160 0.930 . S
H1169 C1161 0.929 . S
H1170 C1178 0.929 . S
H1171 C1180 0.930 . S
H1172 C1182 0.930 . S
H1173 C1185 0.929 . S
H1174 C1188 0.930 . S
H1175 C1190 0.943 1_554 S
H1176 C1190 0.960 . S
H1177 C1190 0.960 . S
C1178 H1170 0.929 . S
C1178 C1179 1.377 . S
C1178 C1180 1.384 . S
C1179 C1178 1.377 . S
C1179 C1185 1.390 . S
C1180 H1171 0.930 . S
C1180 C1178 1.384 . S
C1180 C1181 1.372 . S
C1181 C1180 1.372 . S
C1181 C1182 1.400 . S
C1181 C1186 1.490 . S
C1182 H1172 0.930 . S
C1182 C1181 1.400 . S
C1182 C1185 1.386 . S
H1183 C1199 0.930 . S
H1184 C1200 0.931 . S
C1185 H1173 0.929 . S
C1185 C1179 1.390 . S
C1185 C1182 1.386 . S
C1186 C1181 1.490 . S
C1186 C1188 1.395 . S
C1186 C1189 1.403 . S
H1187 C1193 0.930 . S
C1188 H1174 0.930 . S
C1188 C1186 1.395 . S
C1188 C1191 1.403 . S
C1189 C1186 1.403 . S
C1189 C1190 1.524 . S
C1189 C1193 1.400 . S
C1190 H1175 0.943 1_556 S
C1190 H1176 0.960 . S
C1190 H1177 0.960 . S
C1190 C1189 1.524 . S
C1191 C1188 1.403 . S
C1191 C1192 1.392 . S
C1191 C1195 1.495 . S
C1192 C1191 1.392 . S
C1192 C1193 1.385 . S
C1192 C1194 1.478 . S
C1193 H1187 0.930 . S
C1193 C1189 1.400 . S
C1193 C1192 1.385 . S
C1194 C1192 1.478 . S
C1194 C1196 1.381 . S
C1194 C1200 1.383 . S
C1195 C1191 1.495 . S
C1195 H1201 0.959 . S
C1195 H1202 0.961 . S
C1195 H1203 0.960 . S
C1196 C1194 1.381 . S
C1196 C1197 1.394 . S
C1196 H1204 0.930 . S
C1197 C1196 1.394 . S
C1197 C1198 1.383 . S
C1197 H1205 0.929 . S
C1198 C1197 1.383 . S
C1198 C1199 1.377 . S
C1199 H1183 0.930 . S
C1199 C1198 1.377 . S
C1199 C1200 1.379 . S
C1200 H1184 0.931 . S
C1200 C1194 1.383 . S
C1200 C1199 1.379 . S
H1201 C1195 0.959 . S
H1202 C1195 0.961 . S
H1203 C1195 0.960 . S
H1204 C1196 0.930 . S
H1205 C1197 0.929 . S
H1206 C1214 0.929 . S
H1207 C1216 0.930 . S
H1208 C1218 0.930 . S
H1209 C1221 0.929 . S
H1210 C1224 0.930 . S
H1211 C1226 0.960 . S
H1212 C1226 0.960 . S
H1213 C1226 0.960 . S
C1214 H1206 0.929 . S
C1214 C1215 1.377 . S
C1214 C1216 1.384 . S
C1215 C1214 1.377 . S
C1215 C1221 1.390 . S
C1216 H1207 0.930 . S
C1216 C1214 1.384 . S
C1216 C1217 1.372 . S
C1217 C1216 1.372 . S
C1217 C1218 1.400 . S
C1217 C1222 1.490 . S
C1218 H1208 0.930 . S
C1218 C1217 1.400 . S
C1218 C1221 1.386 . S
H1219 C1235 0.930 . S
H1220 C1236 0.931 . S
C1221 H1209 0.929 . S
C1221 C1215 1.390 . S
C1221 C1218 1.386 . S
C1222 C1217 1.490 . S
C1222 C1224 1.395 . S
C1222 C1225 1.403 . S
H1223 C1229 0.930 . S
C1224 H1210 0.930 . S
C1224 C1222 1.395 . S
C1224 C1227 1.403 . S
C1225 C1222 1.403 . S
C1225 C1226 1.524 . S
C1225 C1229 1.400 . S
C1226 H1211 0.960 . S
C1226 H1212 0.960 . S
C1226 H1213 0.960 . S
C1226 C1225 1.524 . S
C1227 C1224 1.403 . S
C1227 C1228 1.392 . S
C1227 C1231 1.495 . S
C1228 C1227 1.392 . S
C1228 C1229 1.385 . S
C1228 C1230 1.478 . S
C1229 H1223 0.930 . S
C1229 C1225 1.400 . S
C1229 C1228 1.385 . S
C1230 C1228 1.478 . S
C1230 C1232 1.381 . S
C1230 C1236 1.383 . S
C1231 C1227 1.495 . S
C1231 H1237 0.959 . S
C1231 H1238 0.961 . S
C1231 H1239 0.960 . S
C1232 C1230 1.381 . S
C1232 C1233 1.394 . S
C1232 H1240 0.930 . S
C1233 C1232 1.394 . S
C1233 C1234 1.383 . S
C1233 H1241 0.946 . S
C1234 C1233 1.383 . S
C1234 C1235 1.377 . S
C1235 H1219 0.930 . S
C1235 C1234 1.377 . S
C1235 C1236 1.379 . S
C1236 H1220 0.931 . S
C1236 C1230 1.383 . S
C1236 C1235 1.379 . S
H1237 C1231 0.959 . S
H1238 C1231 0.961 . S
H1239 C1231 0.960 . S
H1240 C1232 0.930 . S
H1241 C1233 0.946 . S
H1242 C1250 0.929 . S
H1243 C1252 0.930 . S
H1244 C1254 0.930 . S
H1245 C1257 0.929 . S
H1246 C1260 0.930 . S
H1247 C1262 0.960 . S
H1248 C1262 0.960 . S
H1249 C1262 0.960 . S
C1250 H1242 0.929 . S
C1250 C1251 1.377 . S
C1250 C1252 1.384 . S
C1251 C1250 1.377 . S
C1251 C1257 1.390 . S
C1252 H1243 0.930 . S
C1252 C1250 1.384 . S
C1252 C1253 1.372 . S
C1253 C1252 1.372 . S
C1253 C1254 1.400 . S
C1253 C1258 1.490 . S
C1254 H1244 0.930 . S
C1254 C1253 1.400 . S
C1254 C1257 1.386 . S
H1255 C1271 0.930 . S
H1256 C1272 0.931 . S
C1257 H1245 0.929 . S
C1257 C1251 1.390 . S
C1257 C1254 1.386 . S
C1258 C1253 1.490 . S
C1258 C1260 1.395 . S
C1258 C1261 1.403 . S
H1259 C1265 0.930 . S
C1260 H1246 0.930 . S
C1260 C1258 1.395 . S
C1260 C1263 1.403 . S
C1261 C1258 1.403 . S
C1261 C1262 1.524 . S
C1261 C1265 1.400 . S
C1262 H1247 0.960 . S
C1262 H1248 0.960 . S
C1262 H1249 0.960 . S
C1262 C1261 1.524 . S
C1263 C1260 1.403 . S
C1263 C1264 1.392 . S
C1263 C1267 1.495 . S
C1264 C1263 1.392 . S
C1264 C1265 1.385 . S
C1264 C1266 1.478 . S
C1265 H1259 0.930 . S
C1265 C1261 1.400 . S
C1265 C1264 1.385 . S
C1266 C1264 1.478 . S
C1266 C1268 1.301 1_556 S
C1266 C1272 1.383 . S
C1267 C1263 1.495 . S
C1267 H1273 0.959 . S
C1267 H1274 0.961 . S
C1267 H1275 0.960 1_556 S
C1268 C1266 1.301 1_554 S
C1268 C1269 1.417 . S
C1268 H1276 0.993 . S
C1269 C1268 1.417 . S
C1269 C1270 1.383 1_554 S
C1269 H1277 0.929 . S
C1270 C1269 1.383 1_556 S
C1270 C1271 1.377 . S
C1271 H1255 0.930 . S
C1271 C1270 1.377 . S
C1271 C1272 1.379 . S
C1272 H1256 0.931 . S
C1272 C1266 1.383 . S
C1272 C1271 1.379 . S
H1273 C1267 0.959 . S
H1274 C1267 0.961 . S
H1275 C1267 0.960 1_554 S
H1276 C1268 0.993 . S
H1277 C1269 0.929 . S
H1278 C1286 0.929 . S
H1279 C1288 0.930 . S
H1280 C1290 0.930 . S
H1281 C1293 0.929 . S
H1282 C1296 0.930 . S
H1283 C1298 0.960 . S
H1284 C1298 0.960 . S
H1285 C1298 0.960 . S
C1286 H1278 0.929 . S
C1286 C1287 1.377 . S
C1286 C1288 1.384 . S
C1287 C1286 1.377 . S
C1287 C1293 1.390 . S
C1288 H1279 0.930 . S
C1288 C1286 1.384 . S
C1288 C1289 1.372 . S
C1289 C1288 1.372 . S
C1289 C1290 1.400 . S
C1289 C1294 1.490 . S
C1290 H1280 0.930 . S
C1290 C1289 1.400 . S
C1290 C1293 1.386 . S
H1291 C1307 0.930 . S
H1292 C1308 0.931 . S
C1293 H1281 0.929 . S
C1293 C1287 1.390 . S
C1293 C1290 1.386 . S
C1294 C1289 1.490 . S
C1294 C1296 1.395 . S
C1294 C1297 1.403 . S
H1295 C1301 0.930 . S
C1296 H1282 0.930 . S
C1296 C1294 1.395 . S
C1296 C1299 1.403 . S
C1297 C1294 1.403 . S
C1297 C1298 1.524 . S
C1297 C1301 1.400 . S
C1298 H1283 0.960 . S
C1298 H1284 0.960 . S
C1298 H1285 0.960 . S
C1298 C1297 1.524 . S
C1299 C1296 1.403 . S
C1299 C1300 1.392 . S
C1299 C1303 1.495 . S
C1300 C1299 1.392 . S
C1300 C1301 1.385 . S
C1300 C1302 1.478 . S
C1301 H1295 0.930 . S
C1301 C1297 1.400 . S
C1301 C1300 1.385 . S
C1302 C1300 1.478 . S
C1302 C1304 1.381 . S
C1302 C1308 1.383 . S
C1303 C1299 1.495 . S
C1303 H1309 0.959 . S
C1303 H1310 0.961 . S
C1303 H1311 0.960 . S
C1304 C1302 1.381 . S
C1304 C1305 1.394 . S
C1304 H1312 0.930 . S
C1305 C1304 1.394 . S
C1305 C1306 1.383 . S
C1305 H1313 0.929 . S
C1306 C1305 1.383 . S
C1306 C1307 1.377 . S
C1307 H1291 0.930 . S
C1307 C1306 1.377 . S
C1307 C1308 1.379 . S
C1308 H1292 0.931 . S
C1308 C1302 1.383 . S
C1308 C1307 1.379 . S
H1309 C1303 0.959 . S
H1310 C1303 0.961 . S
H1311 C1303 0.960 . S
H1312 C1304 0.930 . S
H1313 C1305 0.929 . S
H1314 C1322 0.929 . S
H1315 C1324 0.930 . S
H1316 C1326 0.930 . S
H1317 C1329 0.929 . S
H1318 C1332 0.930 . S
H1319 C1334 0.960 . S
H1320 C1334 0.960 . S
H1321 C1334 0.960 . S
C1322 H1314 0.929 . S
C1322 C1323 1.377 . S
C1322 C1324 1.384 . S
C1323 C1322 1.377 . S
C1323 C1329 1.390 . S
C1324 H1315 0.930 . S
C1324 C1322 1.384 . S
C1324 C1325 1.372 . S
C1325 C1324 1.372 . S
C1325 C1326 1.400 . S
C1325 C1330 1.490 . S
C1326 H1316 0.930 . S
C1326 C1325 1.400 . S
C1326 C1329 1.386 . S
H1327 C1343 0.930 . S
H1328 C1344 0.931 . S
C1329 H1317 0.929 . S
C1329 C1323 1.390 . S
C1329 C1326 1.386 . S
C1330 C1325 1.490 . S
C1330 C1332 1.395 . S
C1330 C1333 1.403 . S
H1331 C1337 0.930 . S
C1332 H1318 0.930 . S
C1332 C1330 1.395 . S
C1332 C1335 1.403 . S
C1333 C1330 1.403 . S
C1333 C1334 1.524 . S
C1333 C1337 1.400 . S
C1334 H1319 0.960 . S
C1334 H1320 0.960 . S
C1334 H1321 0.960 . S
C1334 C1333 1.524 . S
C1335 C1332 1.403 . S
C1335 C1336 1.392 . S
C1335 C1339 1.495 . S
C1336 C1335 1.392 . S
C1336 C1337 1.385 . S
C1336 C1338 1.478 . S
C1337 H1331 0.930 . S
C1337 C1333 1.400 . S
C1337 C1336 1.385 . S
C1338 C1336 1.478 . S
C1338 C1340 1.381 . S
C1338 C1344 1.383 . S
C1339 C1335 1.495 . S
C1339 H1345 0.959 . S
C1339 H1346 0.961 . S
C1339 H1347 0.960 . S
C1340 C1338 1.381 . S
C1340 C1341 1.394 . S
C1340 H1348 0.930 . S
C1341 C1340 1.394 . S
C1341 C1342 1.383 . S
C1341 H1349 0.929 . S
C1342 C1341 1.383 . S
C1342 C1343 1.377 . S
C1343 H1327 0.930 . S
C1343 C1342 1.377 . S
C1343 C1344 1.379 . S
C1344 H1328 0.931 . S
C1344 C1338 1.383 . S
C1344 C1343 1.379 . S
H1345 C1339 0.959 . S
H1346 C1339 0.961 . S
H1347 C1339 0.960 . S
H1348 C1340 0.930 . S
H1349 C1341 0.929 . S
H1350 C1358 0.929 . S
H1351 C1360 0.930 . S
H1352 C1362 0.930 . S
H1353 C1365 0.929 . S
H1354 C1368 0.930 . S
H1355 C1370 0.960 1_554 S
H1356 C1370 0.960 1_554 S
H1357 C1370 0.960 . S
C1358 H1350 0.929 . S
C1358 C1359 1.377 . S
C1358 C1360 1.384 . S
C1359 C1358 1.377 . S
C1359 C1365 1.390 . S
C1360 H1351 0.930 . S
C1360 C1358 1.384 . S
C1360 C1361 1.372 . S
C1361 C1360 1.372 . S
C1361 C1362 1.400 . S
C1361 C1366 1.490 . S
C1362 H1352 0.930 . S
C1362 C1361 1.400 . S
C1362 C1365 1.386 . S
H1363 C1379 0.930 . S
H1364 C1380 0.931 . S
C1365 H1353 0.929 . S
C1365 C1359 1.390 . S
C1365 C1362 1.386 . S
C1366 C1361 1.490 . S
C1366 C1368 1.395 . S
C1366 C1369 1.403 . S
H1367 C1373 0.930 . S
C1368 H1354 0.930 . S
C1368 C1366 1.395 . S
C1368 C1371 1.403 . S
C1369 C1366 1.403 . S
C1369 C1370 1.524 . S
C1369 C1373 1.400 . S
C1370 H1355 0.960 1_556 S
C1370 H1356 0.960 1_556 S
C1370 H1357 0.960 . S
C1370 C1369 1.524 . S
C1371 C1368 1.403 . S
C1371 C1372 1.392 . S
C1371 C1375 1.495 . S
C1372 C1371 1.392 . S
C1372 C1373 1.385 . S
C1372 C1374 1.478 . S
C1373 H1367 0.930 . S
C1373 C1369 1.400 . S
C1373 C1372 1.385 . S
C1374 C1372 1.478 . S
C1374 C1376 1.381 . S
C1374 C1380 1.383 . S
C1375 C1371 1.495 . S
C1375 H1381 0.959 . S
C1375 H1382 0.961 . S
C1375 H1383 0.960 . S
C1376 C1374 1.381 . S
C1376 C1377 1.394 . S
C1376 H1384 0.930 . S
C1377 C1376 1.394 . S
C1377 C1378 1.383 . S
C1377 H1385 0.929 . S
C1378 C1377 1.383 . S
C1378 C1379 1.377 . S
C1379 H1363 0.930 . S
C1379 C1378 1.377 . S
C1379 C1380 1.379 . S
C1380 H1364 0.931 . S
C1380 C1374 1.383 . S
C1380 C1379 1.379 . S
H1381 C1375 0.959 . S
H1382 C1375 0.961 . S
H1383 C1375 0.960 . S
H1384 C1376 0.930 . S
H1385 C1377 0.929 . S
H1386 C1394 0.929 . S
H1387 C1396 0.930 . S
H1388 C1398 0.930 . S
H1389 C1401 0.929 . S
H1390 C1404 0.930 . S
H1391 C1406 0.960 . S
H1392 C1406 0.960 . S
H1393 C1406 0.960 . S
C1394 H1386 0.929 . S
C1394 C1395 1.377 . S
C1394 C1396 1.384 . S
C1395 C1394 1.377 . S
C1395 C1401 1.390 . S
C1396 H1387 0.930 . S
C1396 C1394 1.384 . S
C1396 C1397 1.372 . S
C1397 C1396 1.372 . S
C1397 C1398 1.400 . S
C1397 C1402 1.490 . S
C1398 H1388 0.930 . S
C1398 C1397 1.400 . S
C1398 C1401 1.386 . S
H1399 C1415 0.930 . S
H1400 C1416 0.931 . S
C1401 H1389 0.929 . S
C1401 C1395 1.390 . S
C1401 C1398 1.386 . S
C1402 C1397 1.490 . S
C1402 C1404 1.395 . S
C1402 C1405 1.403 . S
H1403 C1409 0.930 . S
C1404 H1390 0.930 . S
C1404 C1402 1.395 . S
C1404 C1407 1.403 . S
C1405 C1402 1.403 . S
C1405 C1406 1.524 . S
C1405 C1409 1.400 . S
C1406 H1391 0.960 . S
C1406 H1392 0.960 . S
C1406 H1393 0.960 . S
C1406 C1405 1.524 . S
C1407 C1404 1.403 . S
C1407 C1408 1.392 . S
C1407 C1411 1.495 . S
C1408 C1407 1.392 . S
C1408 C1409 1.385 . S
C1408 C1410 1.478 . S
C1409 H1403 0.930 . S
C1409 C1405 1.400 . S
C1409 C1408 1.385 . S
C1410 C1408 1.478 . S
C1410 C1412 1.381 . S
C1410 C1416 1.383 . S
C1411 C1407 1.495 . S
C1411 H1417 0.959 . S
C1411 H1418 0.961 . S
C1411 H1419 0.960 . S
C1412 C1410 1.381 . S
C1412 C1413 1.394 . S
C1412 H1420 0.930 . S
C1413 C1412 1.394 . S
C1413 C1414 1.383 . S
C1413 H1421 0.929 1_554 S
C1414 C1413 1.383 . S
C1414 C1415 1.377 . S
C1415 H1399 0.930 . S
C1415 C1414 1.377 . S
C1415 C1416 1.379 . S
C1416 H1400 0.931 . S
C1416 C1410 1.383 . S
C1416 C1415 1.379 . S
H1417 C1411 0.959 . S
H1418 C1411 0.961 . S
H1419 C1411 0.960 . S
H1420 C1412 0.930 . S
H1421 C1413 0.929 1_556 S
H1422 C1430 0.929 . S
H1423 C1432 0.930 . S
H1424 C1434 0.930 . S
H1425 C1437 0.929 . S
H1426 C1440 0.930 . S
H1427 C1442 0.960 . S
H1428 C1442 0.960 . S
H1429 C1442 0.960 . S
C1430 H1422 0.929 . S
C1430 C1431 1.377 . S
C1430 C1432 1.384 . S
C1431 C1430 1.377 . S
C1431 C1437 1.390 . S
C1432 H1423 0.930 . S
C1432 C1430 1.384 . S
C1432 C1433 1.372 . S
C1433 C1432 1.372 . S
C1433 C1434 1.400 . S
C1433 C1438 1.490 . S
C1434 H1424 0.930 . S
C1434 C1433 1.400 . S
C1434 C1437 1.386 . S
H1435 C1451 0.930 . S
H1436 C1452 0.931 . S
C1437 H1425 0.929 . S
C1437 C1431 1.390 . S
C1437 C1434 1.386 . S
C1438 C1433 1.490 . S
C1438 C1440 1.395 . S
C1438 C1441 1.403 . S
H1439 C1445 0.930 . S
C1440 H1426 0.930 . S
C1440 C1438 1.395 . S
C1440 C1443 1.403 . S
C1441 C1438 1.403 . S
C1441 C1442 1.524 . S
C1441 C1445 1.400 . S
C1442 H1427 0.960 . S
C1442 H1428 0.960 . S
C1442 H1429 0.960 . S
C1442 C1441 1.524 . S
C1443 C1440 1.403 . S
C1443 C1444 1.392 . S
C1443 C1447 1.495 . S
C1444 C1443 1.392 . S
C1444 C1445 1.385 . S
C1444 C1446 1.478 . S
C1445 H1439 0.930 . S
C1445 C1441 1.400 . S
C1445 C1444 1.385 . S
C1446 C1444 1.478 . S
C1446 C1448 1.381 . S
C1446 C1452 1.383 . S
C1447 C1443 1.495 . S
C1447 H1453 0.959 . S
C1447 H1454 0.961 . S
C1447 H1455 0.960 . S
C1448 C1446 1.381 . S
C1448 C1449 1.394 . S
C1448 H1456 0.930 . S
C1449 C1448 1.394 . S
C1449 C1450 1.383 . S
C1449 H1457 0.929 . S
C1450 C1449 1.383 . S
C1450 C1451 1.377 . S
C1451 H1435 0.930 . S
C1451 C1450 1.377 . S
C1451 C1452 1.379 . S
C1452 H1436 0.931 . S
C1452 C1446 1.383 . S
C1452 C1451 1.379 . S
H1453 C1447 0.959 . S
H1454 C1447 0.961 . S
H1455 C1447 0.960 . S
H1456 C1448 0.930 . S
H1457 C1449 0.929 . S
H1458 C1466 0.929 . S
H1459 C1468 0.930 . S
H1460 C1470 0.930 . S
H1461 C1473 0.929 . S
H1462 C1476 0.930 . S
H1463 C1478 0.960 . S
H1464 C1478 0.960 . S
H1465 C1478 0.960 . S
C1466 H1458 0.929 . S
C1466 C1467 1.377 . S
C1466 C1468 1.384 . S
C1467 C1466 1.377 . S
C1467 C1473 1.390 . S
C1468 H1459 0.930 . S
C1468 C1466 1.384 . S
C1468 C1469 1.372 . S
C1469 C1468 1.372 . S
C1469 C1470 1.400 . S
C1469 C1474 1.490 . S
C1470 H1460 0.930 . S
C1470 C1469 1.400 . S
C1470 C1473 1.386 . S
H1471 C1487 0.930 1_556 S
H1472 C1488 0.931 . S
C1473 H1461 0.929 . S
C1473 C1467 1.390 . S
C1473 C1470 1.386 . S
C1474 C1469 1.490 . S
C1474 C1476 1.395 . S
C1474 C1477 1.403 . S
H1475 C1481 0.930 . S
C1476 H1462 0.930 . S
C1476 C1474 1.395 . S
C1476 C1479 1.403 . S
C1477 C1474 1.403 . S
C1477 C1478 1.524 . S
C1477 C1481 1.400 . S
C1478 H1463 0.960 . S
C1478 H1464 0.960 . S
C1478 H1465 0.960 . S
C1478 C1477 1.524 . S
C1479 C1476 1.403 . S
C1479 C1480 1.392 . S
C1479 C1483 1.495 . S
C1480 C1479 1.392 . S
C1480 C1481 1.385 . S
C1480 C1482 1.478 . S
C1481 H1475 0.930 . S
C1481 C1477 1.400 . S
C1481 C1480 1.385 . S
C1482 C1480 1.478 . S
C1482 C1484 1.381 . S
C1482 C1488 1.383 . S
C1483 C1479 1.495 . S
C1483 H1489 0.959 . S
C1483 H1490 0.961 . S
C1483 H1491 0.960 . S
C1484 C1482 1.381 . S
C1484 C1485 1.394 . S
C1484 H1492 0.930 . S
C1485 C1484 1.394 . S
C1485 C1486 1.383 . S
C1485 H1493 0.929 . S
C1486 C1485 1.383 . S
C1486 C1487 1.377 . S
C1487 H1471 0.930 1_554 S
C1487 C1486 1.377 . S
C1487 C1488 1.379 . S
C1488 H1472 0.931 . S
C1488 C1482 1.383 . S
C1488 C1487 1.379 . S
H1489 C1483 0.959 . S
H1490 C1483 0.961 . S
H1491 C1483 0.960 . S
H1492 C1484 0.930 . S
H1493 C1485 0.929 . S
H1494 C1502 0.929 . S
H1495 C1504 0.930 . S
H1496 C1506 0.930 . S
H1497 C1509 0.929 . S
H1498 C1512 0.930 . S
H1499 C1514 0.960 . S
H1500 C1514 0.960 1_655 S
H1501 C1514 0.960 1_655 S
C1502 H1494 0.929 . S
C1502 C1503 1.377 . S
C1502 C1504 1.384 . S
C1503 C1502 1.377 . S
C1503 C1509 1.390 . S
C1504 H1495 0.930 . S
C1504 C1502 1.384 . S
C1504 C1505 1.372 . S
C1505 C1504 1.372 . S
C1505 C1506 1.400 . S
C1505 C1510 1.490 1_655 S
C1506 H1496 0.930 . S
C1506 C1505 1.400 . S
C1506 C1509 1.386 . S
H1507 C1523 0.930 . S
H1508 C1524 0.931 . S
C1509 H1497 0.929 . S
C1509 C1503 1.390 . S
C1509 C1506 1.386 . S
C1510 C1505 1.490 1_455 S
C1510 C1512 1.395 . S
C1510 C1513 1.403 . S
H1511 C1517 0.930 . S
C1512 H1498 0.930 . S
C1512 C1510 1.395 . S
C1512 C1515 1.403 . S
C1513 C1510 1.403 . S
C1513 C1514 1.524 . S
C1513 C1517 1.400 . S
C1514 H1499 0.960 . S
C1514 H1500 0.960 1_455 S
C1514 H1501 0.960 1_455 S
C1514 C1513 1.524 . S
C1515 C1512 1.403 . S
C1515 C1516 1.392 . S
C1515 C1519 1.495 . S
C1516 C1515 1.392 . S
C1516 C1517 1.385 . S
C1516 C1518 1.478 . S
C1517 H1511 0.930 . S
C1517 C1513 1.400 . S
C1517 C1516 1.385 . S
C1518 C1516 1.478 . S
C1518 C1520 1.381 . S
C1518 C1524 1.383 . S
C1519 C1515 1.495 . S
C1519 H1525 0.959 . S
C1519 H1526 0.961 . S
C1519 H1527 0.960 . S
C1520 C1518 1.381 . S
C1520 C1521 1.394 . S
C1520 H1528 0.930 . S
C1521 C1520 1.394 . S
C1521 C1522 1.383 . S
C1521 H1529 0.929 . S
C1522 C1521 1.383 . S
C1522 C1523 1.377 . S
C1523 H1507 0.930 . S
C1523 C1522 1.377 . S
C1523 C1524 1.379 . S
C1524 H1508 0.931 . S
C1524 C1518 1.383 . S
C1524 C1523 1.379 . S
H1525 C1519 0.959 . S
H1526 C1519 0.961 . S
H1527 C1519 0.960 . S
H1528 C1520 0.930 . S
H1529 C1521 0.929 . S
H1530 C1538 0.929 . S
H1531 C1540 0.930 . S
H1532 C1542 0.930 . S
H1533 C1545 0.929 . S
H1534 C1548 0.930 . S
H1535 C1550 0.960 . S
H1536 C1550 0.960 . S
H1537 C1550 0.960 . S
C1538 H1530 0.929 . S
C1538 C1539 1.377 . S
C1538 C1540 1.384 . S
C1539 C1538 1.377 . S
C1539 C1545 1.390 . S
C1540 H1531 0.930 . S
C1540 C1538 1.384 . S
C1540 C1541 1.372 . S
C1541 C1540 1.372 . S
C1541 C1542 1.400 . S
C1541 C1546 1.490 . S
C1542 H1532 0.930 . S
C1542 C1541 1.400 . S
C1542 C1545 1.386 . S
H1543 C1559 0.930 . S
H1544 C1560 0.931 . S
C1545 H1533 0.929 . S
C1545 C1539 1.390 . S
C1545 C1542 1.386 . S
C1546 C1541 1.490 . S
C1546 C1548 1.395 . S
C1546 C1549 1.403 . S
H1547 C1553 0.930 . S
C1548 H1534 0.930 . S
C1548 C1546 1.395 . S
C1548 C1551 1.403 . S
C1549 C1546 1.403 . S
C1549 C1550 1.524 . S
C1549 C1553 1.400 . S
C1550 H1535 0.960 . S
C1550 H1536 0.960 . S
C1550 H1537 0.960 . S
C1550 C1549 1.524 . S
C1551 C1548 1.403 . S
C1551 C1552 1.392 . S
C1551 C1555 1.495 . S
C1552 C1551 1.392 . S
C1552 C1553 1.385 . S
C1552 C1554 1.478 . S
C1553 H1547 0.930 . S
C1553 C1549 1.400 . S
C1553 C1552 1.385 . S
C1554 C1552 1.478 . S
C1554 C1556 1.381 . S
C1554 C1560 1.383 . S
C1555 C1551 1.495 . S
C1555 H1561 0.959 . S
C1555 H1562 0.961 . S
C1555 H1563 0.960 . S
C1556 C1554 1.381 . S
C1556 C1557 1.394 . S
C1556 H1564 0.930 . S
C1557 C1556 1.394 . S
C1557 C1558 1.383 . S
C1557 H1565 0.929 . S
C1558 C1557 1.383 . S
C1558 C1559 1.377 . S
C1559 H1543 0.930 . S
C1559 C1558 1.377 . S
C1559 C1560 1.379 . S
C1560 H1544 0.931 . S
C1560 C1554 1.383 . S
C1560 C1559 1.379 . S
H1561 C1555 0.959 . S
H1562 C1555 0.961 . S
H1563 C1555 0.960 . S
H1564 C1556 0.930 . S
H1565 C1557 0.929 . S
H1566 C1574 0.929 . S
H1567 C1576 0.930 . S
H1568 C1578 0.930 . S
H1569 C1581 0.929 . S
H1570 C1584 0.930 . S
H1571 C1586 0.960 1_565 S
H1572 C1586 0.960 . S
H1573 C1586 0.960 . S
C1574 H1566 0.929 . S
C1574 C1575 1.377 . S
C1574 C1576 1.384 . S
C1575 C1574 1.377 . S
C1575 C1581 1.390 . S
C1576 H1567 0.930 . S
C1576 C1574 1.384 . S
C1576 C1577 1.372 . S
C1577 C1576 1.372 . S
C1577 C1578 1.400 . S
C1577 C1582 1.492 1_545 S
C1578 H1568 0.930 . S
C1578 C1577 1.400 . S
C1578 C1581 1.386 . S
H1579 C1595 0.930 . S
H1580 C1596 0.931 . S
C1581 H1569 0.929 . S
C1581 C1575 1.390 . S
C1581 C1578 1.386 . S
C1582 C1577 1.492 1_565 S
C1582 C1584 1.393 . S
C1582 C1585 1.402 . S
H1583 C1589 0.930 . S
C1584 H1570 0.930 . S
C1584 C1582 1.393 . S
C1584 C1587 1.403 . S
C1585 C1582 1.402 . S
C1585 C1586 1.524 1_565 S
C1585 C1589 1.400 . S
C1586 H1571 0.960 1_545 S
C1586 H1572 0.960 . S
C1586 H1573 0.960 . S
C1586 C1585 1.524 1_545 S
C1587 C1584 1.403 . S
C1587 C1588 1.392 . S
C1587 C1591 1.495 . S
C1588 C1587 1.392 . S
C1588 C1589 1.385 . S
C1588 C1590 1.478 . S
C1589 H1583 0.930 . S
C1589 C1585 1.400 . S
C1589 C1588 1.385 . S
C1590 C1588 1.478 . S
C1590 C1592 1.381 . S
C1590 C1596 1.383 . S
C1591 C1587 1.495 . S
C1591 H1597 0.959 . S
C1591 H1598 0.961 . S
C1591 H1599 0.960 . S
C1592 C1590 1.381 . S
C1592 C1593 1.394 . S
C1592 H1600 0.930 . S
C1593 C1592 1.394 . S
C1593 C1594 1.383 . S
C1593 H1601 0.929 . S
C1594 C1593 1.383 . S
C1594 C1595 1.377 . S
C1595 H1579 0.930 . S
C1595 C1594 1.377 . S
C1595 C1596 1.379 . S
C1596 H1580 0.931 . S
C1596 C1590 1.383 . S
C1596 C1595 1.379 . S
H1597 C1591 0.959 . S
H1598 C1591 0.961 . S
H1599 C1591 0.960 . S
H1600 C1592 0.930 . S
H1601 C1593 0.929 . S
H1602 C1610 0.929 . S
H1603 C1612 0.930 . S
H1604 C1614 0.930 . S
H1605 C1617 0.929 . S
H1606 C1620 0.930 . S
H1607 C1622 0.960 . S
H1608 C1622 0.960 . S
H1609 C1622 0.960 . S
C1610 H1602 0.929 . S
C1610 C1611 1.377 . S
C1610 C1612 1.384 . S
C1611 C1610 1.377 . S
C1611 C1617 1.390 . S
C1612 H1603 0.930 . S
C1612 C1610 1.384 . S
C1612 C1613 1.372 . S
C1613 C1612 1.372 . S
C1613 C1614 1.400 . S
C1613 C1618 1.490 . S
C1614 H1604 0.930 . S
C1614 C1613 1.400 . S
C1614 C1617 1.386 . S
H1615 C1631 0.930 . S
H1616 C1632 0.931 . S
C1617 H1605 0.929 . S
C1617 C1611 1.390 . S
C1617 C1614 1.386 . S
C1618 C1613 1.490 . S
C1618 C1620 1.395 . S
C1618 C1621 1.403 . S
H1619 C1625 0.930 . S
C1620 H1606 0.930 . S
C1620 C1618 1.395 . S
C1620 C1623 1.403 . S
C1621 C1618 1.403 . S
C1621 C1622 1.524 . S
C1621 C1625 1.400 . S
C1622 H1607 0.960 . S
C1622 H1608 0.960 . S
C1622 H1609 0.960 . S
C1622 C1621 1.524 . S
C1623 C1620 1.403 . S
C1623 C1624 1.392 . S
C1623 C1627 1.495 . S
C1624 C1623 1.392 . S
C1624 C1625 1.385 . S
C1624 C1626 1.478 . S
C1625 H1619 0.930 . S
C1625 C1621 1.400 . S
C1625 C1624 1.385 . S
C1626 C1624 1.478 . S
C1626 C1628 1.381 . S
C1626 C1632 1.383 . S
C1627 C1623 1.495 . S
C1627 H1633 0.959 . S
C1627 H1634 0.961 . S
C1627 H1635 0.960 . S
C1628 C1626 1.381 . S
C1628 C1629 1.394 . S
C1628 H1636 0.930 . S
C1629 C1628 1.394 . S
C1629 C1630 1.383 . S
C1629 H1637 0.929 . S
C1630 C1629 1.383 . S
C1630 C1631 1.377 . S
C1631 H1615 0.930 . S
C1631 C1630 1.377 . S
C1631 C1632 1.379 . S
C1632 H1616 0.931 . S
C1632 C1626 1.383 . S
C1632 C1631 1.379 . S
H1633 C1627 0.959 . S
H1634 C1627 0.961 . S
H1635 C1627 0.960 . S
H1636 C1628 0.930 . S
H1637 C1629 0.929 . S
H1638 C1646 0.929 . S
H1639 C1648 0.930 . S
H1640 C1650 0.930 . S
H1641 C1653 0.929 . S
H1642 C1656 0.930 . S
H1643 C1658 0.960 . S
H1644 C1658 0.960 . S
H1645 C1658 0.960 . S
C1646 H1638 0.929 . S
C1646 C1647 1.377 . S
C1646 C1648 1.384 . S
C1647 C1646 1.377 . S
C1647 C1653 1.390 . S
C1648 H1639 0.930 . S
C1648 C1646 1.384 . S
C1648 C1649 1.372 . S
C1649 C1648 1.372 . S
C1649 C1650 1.400 . S
C1649 C1654 1.490 . S
C1650 H1640 0.930 . S
C1650 C1649 1.400 . S
C1650 C1653 1.386 . S
H1651 C1667 0.930 . S
H1652 C1668 0.931 . S
C1653 H1641 0.929 . S
C1653 C1647 1.390 . S
C1653 C1650 1.386 . S
C1654 C1649 1.490 . S
C1654 C1656 1.395 . S
C1654 C1657 1.403 . S
H1655 C1661 0.930 . S
C1656 H1642 0.930 . S
C1656 C1654 1.395 . S
C1656 C1659 1.403 . S
C1657 C1654 1.403 . S
C1657 C1658 1.524 . S
C1657 C1661 1.400 . S
C1658 H1643 0.960 . S
C1658 H1644 0.960 . S
C1658 H1645 0.960 . S
C1658 C1657 1.524 . S
C1659 C1656 1.403 . S
C1659 C1660 1.392 . S
C1659 C1663 1.495 . S
C1660 C1659 1.392 . S
C1660 C1661 1.385 . S
C1660 C1662 1.478 . S
C1661 H1655 0.930 . S
C1661 C1657 1.400 . S
C1661 C1660 1.385 . S
C1662 C1660 1.478 . S
C1662 C1664 1.381 . S
C1662 C1668 1.383 . S
C1663 C1659 1.495 . S
C1663 H1669 0.959 . S
C1663 H1670 0.961 . S
C1663 H1671 0.960 . S
C1664 C1662 1.381 . S
C1664 C1665 1.394 . S
C1664 H1672 0.930 . S
C1665 C1664 1.394 . S
C1665 C1666 1.383 . S
C1665 H1673 0.929 . S
C1666 C1665 1.383 . S
C1666 C1667 1.377 . S
C1667 H1651 0.930 . S
C1667 C1666 1.377 . S
C1667 C1668 1.379 . S
C1668 H1652 0.931 . S
C1668 C1662 1.383 . S
C1668 C1667 1.379 . S
H1669 C1663 0.959 . S
H1670 C1663 0.961 . S
H1671 C1663 0.960 . S
H1672 C1664 0.930 . S
H1673 C1665 0.929 . S
H1674 C1682 0.929 . S
H1675 C1684 0.930 . S
H1676 C1686 0.930 . S
H1677 C1689 0.929 . S
H1678 C1692 0.930 . S
H1679 C1694 0.960 . S
H1680 C1694 0.960 . S
H1681 C1694 0.960 . S
C1682 H1674 0.929 . S
C1682 C1683 1.377 . S
C1682 C1684 1.384 . S
C1683 C1682 1.377 . S
C1683 C1689 1.390 . S
C1684 H1675 0.930 . S
C1684 C1682 1.384 . S
C1684 C1685 1.372 . S
C1685 C1684 1.372 . S
C1685 C1686 1.400 . S
C1685 C1690 1.490 . S
C1686 H1676 0.930 . S
C1686 C1685 1.400 . S
C1686 C1689 1.386 . S
H1687 C1703 0.930 . S
H1688 C1704 0.931 . S
C1689 H1677 0.929 . S
C1689 C1683 1.390 . S
C1689 C1686 1.386 . S
C1690 C1685 1.490 . S
C1690 C1692 1.395 . S
C1690 C1693 1.403 . S
H1691 C1697 0.930 . S
C1692 H1678 0.930 . S
C1692 C1690 1.395 . S
C1692 C1695 1.403 . S
C1693 C1690 1.403 . S
C1693 C1694 1.524 . S
C1693 C1697 1.400 . S
C1694 H1679 0.960 . S
C1694 H1680 0.960 . S
C1694 H1681 0.960 . S
C1694 C1693 1.524 . S
C1695 C1692 1.403 . S
C1695 C1696 1.392 . S
C1695 C1699 1.495 . S
C1696 C1695 1.392 . S
C1696 C1697 1.385 . S
C1696 C1698 1.478 . S
C1697 H1691 0.930 . S
C1697 C1693 1.400 . S
C1697 C1696 1.385 . S
C1698 C1696 1.478 . S
C1698 C1700 1.381 . S
C1698 C1704 1.383 . S
C1699 C1695 1.495 . S
C1699 H1705 0.959 . S
C1699 H1706 0.961 . S
C1699 H1707 0.960 . S
C1700 C1698 1.381 . S
C1700 C1701 1.394 . S
C1700 H1708 0.930 . S
C1701 C1700 1.394 . S
C1701 C1702 1.383 . S
C1701 H1709 0.929 . S
C1702 C1701 1.383 . S
C1702 C1703 1.377 . S
C1703 H1687 0.930 . S
C1703 C1702 1.377 . S
C1703 C1704 1.379 . S
C1704 H1688 0.931 . S
C1704 C1698 1.383 . S
C1704 C1703 1.379 . S
H1705 C1699 0.959 . S
H1706 C1699 0.961 . S
H1707 C1699 0.960 . S
H1708 C1700 0.930 . S
H1709 C1701 0.929 . S
H1710 C1718 0.929 . S
H1711 C1720 0.930 . S
H1712 C1722 0.930 . S
H1713 C1725 0.929 . S
H1714 C1728 0.930 . S
H1715 C1730 0.960 . S
H1716 C1730 0.960 . S
H1717 C1730 0.960 . S
C1718 H1710 0.929 . S
C1718 C1719 1.377 . S
C1718 C1720 1.384 . S
C1719 C1718 1.377 . S
C1719 C1725 1.390 . S
C1720 H1711 0.930 . S
C1720 C1718 1.384 . S
C1720 C1721 1.372 . S
C1721 C1720 1.372 . S
C1721 C1722 1.400 . S
C1721 C1726 1.490 . S
C1722 H1712 0.930 . S
C1722 C1721 1.400 . S
C1722 C1725 1.386 . S
H1723 C1739 0.930 . S
H1724 C1740 0.931 . S
C1725 H1713 0.929 . S
C1725 C1719 1.390 . S
C1725 C1722 1.386 . S
C1726 C1721 1.490 . S
C1726 C1728 1.395 . S
C1726 C1729 1.403 . S
H1727 C1733 0.930 . S
C1728 H1714 0.930 . S
C1728 C1726 1.395 . S
C1728 C1731 1.403 . S
C1729 C1726 1.403 . S
C1729 C1730 1.524 . S
C1729 C1733 1.400 . S
C1730 H1715 0.960 . S
C1730 H1716 0.960 . S
C1730 H1717 0.960 . S
C1730 C1729 1.524 . S
C1731 C1728 1.403 . S
C1731 C1732 1.392 . S
C1731 C1735 1.495 . S
C1732 C1731 1.392 . S
C1732 C1733 1.385 . S
C1732 C1734 1.478 . S
C1733 H1727 0.930 . S
C1733 C1729 1.400 . S
C1733 C1732 1.385 . S
C1734 C1732 1.478 . S
C1734 C1736 1.381 . S
C1734 C1740 1.383 . S
C1735 C1731 1.495 . S
C1735 H1741 0.959 . S
C1735 H1742 0.961 . S
C1735 H1743 0.960 . S
C1736 C1734 1.381 . S
C1736 C1737 1.394 . S
C1736 H1744 0.930 . S
C1737 C1736 1.394 . S
C1737 C1738 1.383 . S
C1737 H1745 0.929 . S
C1738 C1737 1.383 . S
C1738 C1739 1.377 . S
C1739 H1723 0.930 . S
C1739 C1738 1.377 . S
C1739 C1740 1.379 . S
C1740 H1724 0.931 . S
C1740 C1734 1.383 . S
C1740 C1739 1.379 . S
H1741 C1735 0.959 . S
H1742 C1735 0.961 . S
H1743 C1735 0.960 . S
H1744 C1736 0.930 . S
H1745 C1737 0.929 . S
H1746 C1754 0.929 . S
H1747 C1756 0.930 . S
H1748 C1758 0.930 . S
H1749 C1761 0.929 . S
H1750 C1764 0.930 . S
H1751 C1766 0.960 . S
H1752 C1766 0.960 . S
H1753 C1766 0.960 . S
C1754 H1746 0.929 . S
C1754 C1755 1.377 . S
C1754 C1756 1.384 . S
C1755 C1754 1.377 . S
C1755 C1761 1.390 . S
C1756 H1747 0.930 . S
C1756 C1754 1.384 . S
C1756 C1757 1.372 . S
C1757 C1756 1.372 . S
C1757 C1758 1.400 . S
C1757 C1762 1.490 . S
C1758 H1748 0.930 . S
C1758 C1757 1.400 . S
C1758 C1761 1.386 . S
H1759 C1775 0.930 . S
H1760 C1776 0.931 . S
C1761 H1749 0.929 . S
C1761 C1755 1.390 . S
C1761 C1758 1.386 . S
C1762 C1757 1.490 . S
C1762 C1764 1.395 . S
C1762 C1765 1.403 . S
H1763 C1769 0.930 . S
C1764 H1750 0.930 . S
C1764 C1762 1.395 . S
C1764 C1767 1.403 . S
C1765 C1762 1.403 . S
C1765 C1766 1.524 . S
C1765 C1769 1.400 . S
C1766 H1751 0.960 . S
C1766 H1752 0.960 . S
C1766 H1753 0.960 . S
C1766 C1765 1.524 . S
C1767 C1764 1.403 . S
C1767 C1768 1.392 . S
C1767 C1771 1.495 . S
C1768 C1767 1.392 . S
C1768 C1769 1.385 . S
C1768 C1770 1.478 . S
C1769 H1763 0.930 . S
C1769 C1765 1.400 . S
C1769 C1768 1.385 . S
C1770 C1768 1.478 . S
C1770 C1772 1.381 . S
C1770 C1776 1.383 . S
C1771 C1767 1.495 . S
C1771 H1777 0.959 . S
C1771 H1778 0.961 . S
C1771 H1779 0.960 . S
C1772 C1770 1.381 . S
C1772 C1773 1.394 . S
C1772 H1780 0.930 . S
C1773 C1772 1.394 . S
C1773 C1774 1.383 . S
C1773 H1781 0.929 . S
C1774 C1773 1.383 . S
C1774 C1775 1.377 . S
C1775 H1759 0.930 . S
C1775 C1774 1.377 . S
C1775 C1776 1.379 . S
C1776 H1760 0.931 . S
C1776 C1770 1.383 . S
C1776 C1775 1.379 . S
H1777 C1771 0.959 . S
H1778 C1771 0.961 . S
H1779 C1771 0.960 . S
H1780 C1772 0.930 . S
H1781 C1773 0.929 . S
H1782 C1790 0.929 . S
H1783 C1792 0.930 . S
H1784 C1794 0.930 . S
H1785 C1797 0.929 . S
H1786 C1800 0.930 . S
H1787 C1802 0.960 . S
H1788 C1802 0.960 . S
H1789 C1802 0.960 . S
C1790 H1782 0.929 . S
C1790 C1791 1.377 . S
C1790 C1792 1.384 . S
C1791 C1790 1.377 . S
C1791 C1797 1.390 . S
C1792 H1783 0.930 . S
C1792 C1790 1.384 . S
C1792 C1793 1.372 . S
C1793 C1792 1.372 . S
C1793 C1794 1.400 . S
C1793 C1798 1.490 . S
C1794 H1784 0.930 . S
C1794 C1793 1.400 . S
C1794 C1797 1.386 . S
H1795 C1811 0.930 . S
H1796 C1812 0.931 . S
C1797 H1785 0.929 . S
C1797 C1791 1.390 . S
C1797 C1794 1.386 . S
C1798 C1793 1.490 . S
C1798 C1800 1.395 . S
C1798 C1801 1.403 . S
H1799 C1805 0.930 . S
C1800 H1786 0.930 . S
C1800 C1798 1.395 . S
C1800 C1803 1.403 . S
C1801 C1798 1.403 . S
C1801 C1802 1.524 . S
C1801 C1805 1.400 . S
C1802 H1787 0.960 . S
C1802 H1788 0.960 . S
C1802 H1789 0.960 . S
C1802 C1801 1.524 . S
C1803 C1800 1.403 . S
C1803 C1804 1.392 . S
C1803 C1807 1.495 . S
C1804 C1803 1.392 . S
C1804 C1805 1.385 . S
C1804 C1806 1.478 . S
C1805 H1799 0.930 . S
C1805 C1801 1.400 . S
C1805 C1804 1.385 . S
C1806 C1804 1.478 . S
C1806 C1808 1.381 . S
C1806 C1812 1.383 . S
C1807 C1803 1.495 . S
C1807 H1813 0.959 . S
C1807 H1814 0.961 . S
C1807 H1815 0.960 . S
C1808 C1806 1.381 . S
C1808 C1809 1.394 . S
C1808 H1816 0.930 . S
C1809 C1808 1.394 . S
C1809 C1810 1.383 . S
C1809 H1817 0.929 . S
C1810 C1809 1.383 . S
C1810 C1811 1.377 . S
C1811 H1795 0.930 . S
C1811 C1810 1.377 . S
C1811 C1812 1.379 . S
C1812 H1796 0.931 . S
C1812 C1806 1.383 . S
C1812 C1811 1.379 . S
H1813 C1807 0.959 . S
H1814 C1807 0.961 . S
H1815 C1807 0.960 . S
H1816 C1808 0.930 . S
H1817 C1809 0.929 . S
H1818 C1826 0.929 . S
H1819 C1828 0.930 . S
H1820 C1830 0.930 . S
H1821 C1833 0.929 . S
H1822 C1836 0.930 . S
H1823 C1838 0.960 . S
H1824 C1838 0.960 . S
H1825 C1838 0.960 . S
C1826 H1818 0.929 . S
C1826 C1827 1.377 . S
C1826 C1828 1.384 . S
C1827 C1826 1.377 . S
C1827 C1833 1.390 . S
C1828 H1819 0.930 . S
C1828 C1826 1.384 . S
C1828 C1829 1.372 . S
C1829 C1828 1.372 . S
C1829 C1830 1.400 . S
C1829 C1834 1.490 1_545 S
C1830 H1820 0.930 . S
C1830 C1829 1.400 . S
C1830 C1833 1.386 . S
H1831 C1847 0.930 . S
H1832 C1848 0.931 . S
C1833 H1821 0.929 . S
C1833 C1827 1.390 . S
C1833 C1830 1.386 . S
C1834 C1829 1.490 1_565 S
C1834 C1836 1.395 . S
C1834 C1837 1.403 . S
H1835 C1841 0.930 . S
C1836 H1822 0.930 . S
C1836 C1834 1.395 . S
C1836 C1839 1.403 . S
C1837 C1834 1.403 . S
C1837 C1838 1.524 . S
C1837 C1841 1.400 . S
C1838 H1823 0.960 . S
C1838 H1824 0.960 . S
C1838 H1825 0.960 . S
C1838 C1837 1.524 . S
C1839 C1836 1.403 . S
C1839 C1840 1.392 . S
C1839 C1843 1.495 . S
C1840 C1839 1.392 . S
C1840 C1841 1.385 . S
C1840 C1842 1.478 . S
C1841 H1835 0.930 . S
C1841 C1837 1.400 . S
C1841 C1840 1.385 . S
C1842 C1840 1.478 . S
C1842 C1844 1.381 . S
C1842 C1848 1.383 . S
C1843 C1839 1.495 . S
C1843 H1849 0.959 . S
C1843 H1850 0.961 . S
C1843 H1851 0.960 . S
C1844 C1842 1.381 . S
C1844 C1845 1.394 . S
C1844 H1852 0.930 . S
C1845 C1844 1.394 . S
C1845 C1846 1.383 . S
C1845 H1853 0.929 . S
C1846 C1845 1.383 . S
C1846 C1847 1.377 . S
C1847 H1831 0.930 . S
C1847 C1846 1.377 . S
C1847 C1848 1.379 . S
C1848 H1832 0.931 . S
C1848 C1842 1.383 . S
C1848 C1847 1.379 . S
H1849 C1843 0.959 . S
H1850 C1843 0.961 . S
H1851 C1843 0.960 . S
H1852 C1844 0.930 . S
H1853 C1845 0.929 . S
H1854 C1862 0.929 . S
H1855 C1864 0.930 . S
H1856 C1866 0.930 . S
H1857 C1869 0.929 . S
H1858 C1872 0.930 . S
H1859 C1874 0.960 . S
H1860 C1874 0.960 . S
H1861 C1874 0.960 . S
C1862 H1854 0.929 . S
C1862 C1863 1.377 . S
C1862 C1864 1.384 1_655 S
C1863 C1862 1.377 . S
C1863 C1869 1.390 . S
C1864 H1855 0.930 . S
C1864 C1862 1.384 1_455 S
C1864 C1865 1.372 . S
C1865 C1864 1.372 . S
C1865 C1866 1.400 1_455 S
C1865 C1870 1.490 . S
C1866 H1856 0.930 . S
C1866 C1865 1.400 1_655 S
C1866 C1869 1.386 . S
H1867 C1883 0.930 . S
H1868 C1884 0.931 . S
C1869 H1857 0.929 . S
C1869 C1863 1.390 . S
C1869 C1866 1.386 . S
C1870 C1865 1.490 . S
C1870 C1872 1.395 . S
C1870 C1873 1.403 . S
H1871 C1877 0.930 . S
C1872 H1858 0.930 . S
C1872 C1870 1.395 . S
C1872 C1875 1.403 . S
C1873 C1870 1.403 . S
C1873 C1874 1.524 . S
C1873 C1877 1.400 . S
C1874 H1859 0.960 . S
C1874 H1860 0.960 . S
C1874 H1861 0.960 . S
C1874 C1873 1.524 . S
C1875 C1872 1.403 . S
C1875 C1876 1.392 . S
C1875 C1879 1.495 . S
C1876 C1875 1.392 . S
C1876 C1877 1.385 . S
C1876 C1878 1.478 . S
C1877 H1871 0.930 . S
C1877 C1873 1.400 . S
C1877 C1876 1.385 . S
C1878 C1876 1.478 . S
C1878 C1880 1.381 . S
C1878 C1884 1.383 . S
C1879 C1875 1.495 . S
C1879 H1885 0.959 . S
C1879 H1886 0.961 . S
C1879 H1887 0.960 . S
C1880 C1878 1.381 . S
C1880 C1881 1.394 . S
C1880 H1888 0.930 . S
C1881 C1880 1.394 . S
C1881 C1882 1.383 . S
C1881 H1889 0.929 . S
C1882 C1881 1.383 . S
C1882 C1883 1.377 . S
C1883 H1867 0.930 . S
C1883 C1882 1.377 . S
C1883 C1884 1.379 . S
C1884 H1868 0.931 . S
C1884 C1878 1.383 . S
C1884 C1883 1.379 . S
H1885 C1879 0.959 . S
H1886 C1879 0.961 . S
H1887 C1879 0.960 . S
H1888 C1880 0.930 . S
H1889 C1881 0.929 . S
H1890 C1898 0.929 . S
H1891 C1900 0.930 . S
H1892 C1902 0.930 . S
H1893 C1905 0.929 . S
H1894 C1908 0.930 . S
H1895 C1910 0.960 . S
H1896 C1910 0.960 . S
H1897 C1910 0.960 . S
C1898 H1890 0.929 . S
C1898 C1899 1.377 . S
C1898 C1900 1.384 . S
C1899 C1898 1.377 . S
C1899 C1905 1.390 . S
C1900 H1891 0.930 . S
C1900 C1898 1.384 . S
C1900 C1901 1.372 . S
C1901 C1900 1.372 . S
C1901 C1902 1.400 . S
C1901 C1906 1.490 . S
C1902 H1892 0.930 . S
C1902 C1901 1.400 . S
C1902 C1905 1.386 . S
H1903 C1919 0.930 . S
H1904 C1920 0.931 . S
C1905 H1893 0.929 . S
C1905 C1899 1.390 . S
C1905 C1902 1.386 . S
C1906 C1901 1.490 . S
C1906 C1908 1.395 . S
C1906 C1909 1.403 . S
H1907 C1913 0.930 . S
C1908 H1894 0.930 . S
C1908 C1906 1.395 . S
C1908 C1911 1.403 . S
C1909 C1906 1.403 . S
C1909 C1910 1.524 . S
C1909 C1913 1.400 . S
C1910 H1895 0.960 . S
C1910 H1896 0.960 . S
C1910 H1897 0.960 . S
C1910 C1909 1.524 . S
C1911 C1908 1.403 . S
C1911 C1912 1.392 . S
C1911 C1915 1.495 . S
C1912 C1911 1.392 . S
C1912 C1913 1.385 . S
C1912 C1914 1.478 . S
C1913 H1907 0.930 . S
C1913 C1909 1.400 . S
C1913 C1912 1.385 . S
C1914 C1912 1.478 . S
C1914 C1916 1.381 . S
C1914 C1920 1.383 . S
C1915 C1911 1.495 . S
C1915 H1921 0.959 . S
C1915 H1922 0.961 . S
C1915 H1923 0.960 . S
C1916 C1914 1.381 . S
C1916 C1917 1.394 . S
C1916 H1924 0.930 . S
C1917 C1916 1.394 . S
C1917 C1918 1.383 . S
C1917 H1925 0.929 . S
C1918 C1917 1.383 . S
C1918 C1919 1.377 . S
C1919 H1903 0.930 . S
C1919 C1918 1.377 . S
C1919 C1920 1.379 . S
C1920 H1904 0.931 . S
C1920 C1914 1.383 . S
C1920 C1919 1.379 . S
H1921 C1915 0.959 . S
H1922 C1915 0.961 . S
H1923 C1915 0.960 . S
H1924 C1916 0.930 . S
H1925 C1917 0.929 . S
H1926 C1934 0.929 . S
H1927 C1936 0.930 . S
H1928 C1938 0.930 . S
H1929 C1941 0.929 . S
H1930 C1944 0.930 . S
H1931 C1946 0.960 . S
H1932 C1946 0.960 . S
H1933 C1946 0.960 . S
C1934 H1926 0.929 . S
C1934 C1935 1.377 . S
C1934 C1936 1.384 . S
C1935 C1934 1.377 . S
C1935 C1941 1.390 . S
C1936 H1927 0.930 . S
C1936 C1934 1.384 . S
C1936 C1937 1.372 . S
C1937 C1936 1.372 . S
C1937 C1938 1.400 . S
C1937 C1942 1.490 . S
C1938 H1928 0.930 . S
C1938 C1937 1.400 . S
C1938 C1941 1.386 . S
H1939 C1955 0.930 . S
H1940 C1956 0.931 . S
C1941 H1929 0.929 . S
C1941 C1935 1.390 . S
C1941 C1938 1.386 . S
C1942 C1937 1.490 . S
C1942 C1944 1.395 . S
C1942 C1945 1.403 . S
H1943 C1949 0.930 . S
C1944 H1930 0.930 . S
C1944 C1942 1.395 . S
C1944 C1947 1.403 . S
C1945 C1942 1.403 . S
C1945 C1946 1.524 . S
C1945 C1949 1.400 . S
C1946 H1931 0.960 . S
C1946 H1932 0.960 . S
C1946 H1933 0.960 . S
C1946 C1945 1.524 . S
C1947 C1944 1.403 . S
C1947 C1948 1.392 . S
C1947 C1951 1.495 . S
C1948 C1947 1.392 . S
C1948 C1949 1.385 . S
C1948 C1950 1.478 . S
C1949 H1943 0.930 . S
C1949 C1945 1.400 . S
C1949 C1948 1.385 . S
C1950 C1948 1.478 . S
C1950 C1952 1.381 . S
C1950 C1956 1.383 . S
C1951 C1947 1.495 . S
C1951 H1957 0.959 . S
C1951 H1958 0.961 . S
C1951 H1959 0.960 . S
C1952 C1950 1.381 . S
C1952 C1953 1.394 . S
C1952 H1960 0.930 . S
C1953 C1952 1.394 . S
C1953 C1954 1.383 . S
C1953 H1961 0.929 . S
C1954 C1953 1.383 . S
C1954 C1955 1.377 . S
C1955 H1939 0.930 . S
C1955 C1954 1.377 . S
C1955 C1956 1.379 . S
C1956 H1940 0.931 . S
C1956 C1950 1.383 . S
C1956 C1955 1.379 . S
H1957 C1951 0.959 . S
H1958 C1951 0.961 . S
H1959 C1951 0.960 . S
H1960 C1952 0.930 . S
H1961 C1953 0.929 . S
H1962 C1970 0.929 . S
H1963 C1972 0.930 . S
H1964 C1974 0.930 . S
H1965 C1977 0.929 . S
H1966 C1980 0.930 . S
H1967 C1982 0.960 . S
H1968 C1982 0.960 . S
H1969 C1982 0.960 . S
C1970 H1962 0.929 . S
C1970 C1971 1.377 . S
C1970 C1972 1.384 . S
C1971 C1970 1.377 . S
C1971 C1977 1.390 . S
C1972 H1963 0.930 . S
C1972 C1970 1.384 . S
C1972 C1973 1.372 . S
C1973 C1972 1.372 . S
C1973 C1974 1.400 . S
C1973 C1978 1.490 . S
C1974 H1964 0.930 . S
C1974 C1973 1.400 . S
C1974 C1977 1.386 . S
H1975 C1991 0.930 . S
H1976 C1992 0.931 . S
C1977 H1965 0.929 . S
C1977 C1971 1.390 . S
C1977 C1974 1.386 . S
C1978 C1973 1.490 . S
C1978 C1980 1.395 . S
C1978 C1981 1.403 . S
H1979 C1985 0.930 . S
C1980 H1966 0.930 . S
C1980 C1978 1.395 . S
C1980 C1983 1.403 . S
C1981 C1978 1.403 . S
C1981 C1982 1.524 . S
C1981 C1985 1.400 . S
C1982 H1967 0.960 . S
C1982 H1968 0.960 . S
C1982 H1969 0.960 . S
C1982 C1981 1.524 . S
C1983 C1980 1.403 . S
C1983 C1984 1.392 . S
C1983 C1987 1.495 . S
C1984 C1983 1.392 . S
C1984 C1985 1.385 . S
C1984 C1986 1.478 . S
C1985 H1979 0.930 . S
C1985 C1981 1.400 . S
C1985 C1984 1.385 . S
C1986 C1984 1.478 . S
C1986 C1988 1.381 . S
C1986 C1992 1.383 . S
C1987 C1983 1.495 . S
C1987 H1993 0.959 . S
C1987 H1994 0.961 . S
C1987 H1995 0.960 . S
C1988 C1986 1.381 . S
C1988 C1989 1.394 . S
C1988 H1996 0.930 . S
C1989 C1988 1.394 . S
C1989 C1990 1.383 . S
C1989 H1997 0.929 . S
C1990 C1989 1.383 . S
C1990 C1991 1.377 . S
C1991 H1975 0.930 . S
C1991 C1990 1.377 . S
C1991 C1992 1.379 . S
C1992 H1976 0.931 . S
C1992 C1986 1.383 . S
C1992 C1991 1.379 . S
H1993 C1987 0.959 . S
H1994 C1987 0.961 . S
H1995 C1987 0.960 . S
H1996 C1988 0.930 . S
H1997 C1989 0.929 . S
H1998 C2006 0.929 . S
H1999 C2008 0.930 . S
H2000 C2010 0.930 . S
H2001 C2013 0.929 . S
H2002 C2016 0.930 . S
H2003 C2018 0.960 . S
H2004 C2018 0.960 . S
H2005 C2018 0.960 . S
C2006 H1998 0.929 . S
C2006 C2007 1.377 . S
C2006 C2008 1.384 . S
C2007 C2006 1.377 . S
C2007 C2013 1.390 . S
C2008 H1999 0.930 . S
C2008 C2006 1.384 . S
C2008 C2009 1.372 . S
C2009 C2008 1.372 . S
C2009 C2010 1.400 . S
C2009 C2014 1.490 . S
C2010 H2000 0.930 . S
C2010 C2009 1.400 . S
C2010 C2013 1.386 . S
H2011 C2027 0.930 . S
H2012 C2028 0.931 . S
C2013 H2001 0.929 . S
C2013 C2007 1.390 . S
C2013 C2010 1.386 . S
C2014 C2009 1.490 . S
C2014 C2016 1.395 . S
C2014 C2017 1.403 . S
H2015 C2021 0.930 . S
C2016 H2002 0.930 . S
C2016 C2014 1.395 . S
C2016 C2019 1.403 . S
C2017 C2014 1.403 . S
C2017 C2018 1.524 . S
C2017 C2021 1.400 . S
C2018 H2003 0.960 . S
C2018 H2004 0.960 . S
C2018 H2005 0.960 . S
C2018 C2017 1.524 . S
C2019 C2016 1.403 . S
C2019 C2020 1.392 . S
C2019 C2023 1.495 . S
C2020 C2019 1.392 . S
C2020 C2021 1.385 . S
C2020 C2022 1.478 . S
C2021 H2015 0.930 . S
C2021 C2017 1.400 . S
C2021 C2020 1.385 . S
C2022 C2020 1.478 . S
C2022 C2024 1.381 . S
C2022 C2028 1.383 . S
C2023 C2019 1.495 . S
C2023 H2029 0.959 . S
C2023 H2030 0.961 . S
C2023 H2031 0.960 . S
C2024 C2022 1.381 . S
C2024 C2025 1.394 . S
C2024 H2032 0.930 . S
C2025 C2024 1.394 . S
C2025 C2026 1.383 . S
C2025 H2033 0.929 . S
C2026 C2025 1.383 . S
C2026 C2027 1.377 . S
C2027 H2011 0.930 . S
C2027 C2026 1.377 . S
C2027 C2028 1.379 . S
C2028 H2012 0.931 . S
C2028 C2022 1.383 . S
C2028 C2027 1.379 . S
H2029 C2023 0.959 . S
H2030 C2023 0.961 . S
H2031 C2023 0.960 . S
H2032 C2024 0.930 . S
H2033 C2025 0.929 . S
H2034 C2042 0.929 . S
H2035 C2044 0.930 . S
H2036 C2046 0.930 . S
H2037 C2049 0.929 . S
H2038 C2052 0.930 . S
H2039 C2054 0.960 . S
H2040 C2054 0.973 . S
H2041 C2054 0.960 1_565 S
C2042 H2034 0.929 . S
C2042 C2043 1.377 . S
C2042 C2044 1.384 . S
C2043 C2042 1.377 . S
C2043 C2049 1.390 . S
C2044 H2035 0.930 . S
C2044 C2042 1.384 . S
C2044 C2045 1.372 . S
C2045 C2044 1.372 . S
C2045 C2046 1.400 . S
C2045 C2050 1.490 1_565 S
C2046 H2036 0.930 . S
C2046 C2045 1.400 . S
C2046 C2049 1.386 . S
H2047 C2063 0.930 . S
H2048 C2064 0.931 . S
C2049 H2037 0.929 . S
C2049 C2043 1.390 . S
C2049 C2046 1.386 . S
C2050 C2045 1.490 1_545 S
C2050 C2052 1.395 . S
C2050 C2053 1.403 . S
H2051 C2057 0.930 . S
C2052 H2038 0.930 . S
C2052 C2050 1.395 . S
C2052 C2055 1.403 . S
C2053 C2050 1.403 . S
C2053 C2054 1.524 . S
C2053 C2057 1.400 . S
C2054 H2039 0.960 . S
C2054 H2040 0.973 . S
C2054 H2041 0.960 1_545 S
C2054 C2053 1.524 . S
C2055 C2052 1.403 . S
C2055 C2056 1.392 . S
C2055 C2059 1.495 . S
C2056 C2055 1.392 . S
C2056 C2057 1.385 . S
C2056 C2058 1.478 . S
C2057 H2051 0.930 . S
C2057 C2053 1.400 . S
C2057 C2056 1.385 . S
C2058 C2056 1.478 . S
C2058 C2060 1.381 . S
C2058 C2064 1.383 . S
C2059 C2055 1.495 . S
C2059 H2065 0.959 . S
C2059 H2066 0.961 . S
C2059 H2067 0.960 . S
C2060 C2058 1.381 . S
C2060 C2061 1.394 . S
C2060 H2068 0.930 . S
C2061 C2060 1.394 . S
C2061 C2062 1.383 . S
C2061 H2069 0.929 . S
C2062 C2061 1.383 . S
C2062 C2063 1.377 . S
C2063 H2047 0.930 . S
C2063 C2062 1.377 . S
C2063 C2064 1.379 . S
C2064 H2048 0.931 . S
C2064 C2058 1.383 . S
C2064 C2063 1.379 . S
H2065 C2059 0.959 . S
H2066 C2059 0.961 . S
H2067 C2059 0.960 . S
H2068 C2060 0.930 . S
H2069 C2061 0.929 . S
H2070 C2078 0.929 . S
H2071 C2080 0.930 . S
H2072 C2082 0.870 1_655 S
H2073 C2085 0.929 . S
H2074 C2088 0.930 . S
H2075 C2090 0.960 . S
H2076 C2090 0.960 . S
H2077 C2090 0.960 . S
C2078 H2070 0.929 . S
C2078 C2079 1.377 . S
C2078 C2080 1.384 . S
C2079 C2078 1.377 . S
C2079 C2085 1.390 . S
C2080 H2071 0.930 . S
C2080 C2078 1.384 . S
C2080 C2081 1.372 1_455 S
C2081 C2080 1.372 1_655 S
C2081 C2082 1.407 1_655 S
C2081 C2086 1.490 . S
C2082 H2072 0.870 1_455 S
C2082 C2081 1.407 1_455 S
C2082 C2085 1.440 . S
H2083 C2099 0.930 . S
H2084 C2100 0.931 . S
C2085 H2073 0.929 . S
C2085 C2079 1.390 . S
C2085 C2082 1.440 . S
C2086 C2081 1.490 . S
C2086 C2088 1.395 . S
C2086 C2089 1.403 . S
H2087 C2093 0.930 . S
C2088 H2074 0.930 . S
C2088 C2086 1.395 . S
C2088 C2091 1.403 . S
C2089 C2086 1.403 . S
C2089 C2090 1.524 . S
C2089 C2093 1.400 . S
C2090 H2075 0.960 . S
C2090 H2076 0.960 . S
C2090 H2077 0.960 . S
C2090 C2089 1.524 . S
C2091 C2088 1.403 . S
C2091 C2092 1.392 . S
C2091 C2095 1.495 . S
C2092 C2091 1.392 . S
C2092 C2093 1.385 . S
C2092 C2094 1.478 . S
C2093 H2087 0.930 . S
C2093 C2089 1.400 . S
C2093 C2092 1.385 . S
C2094 C2092 1.478 . S
C2094 C2096 1.381 . S
C2094 C2100 1.383 . S
C2095 C2091 1.495 . S
C2095 H2101 0.959 . S
C2095 H2102 0.961 . S
C2095 H2103 0.960 . S
C2096 C2094 1.381 . S
C2096 C2097 1.394 . S
C2096 H2104 0.930 . S
C2097 C2096 1.394 . S
C2097 C2098 1.383 . S
C2097 H2105 0.929 . S
C2098 C2097 1.383 . S
C2098 C2099 1.377 . S
C2099 H2083 0.930 . S
C2099 C2098 1.377 . S
C2099 C2100 1.379 . S
C2100 H2084 0.931 . S
C2100 C2094 1.383 . S
C2100 C2099 1.379 . S
H2101 C2095 0.959 . S
H2102 C2095 0.961 . S
H2103 C2095 0.960 . S
H2104 C2096 0.930 . S
H2105 C2097 0.929 . S
H2106 C2114 0.929 . S
H2107 C2116 0.930 . S
H2108 C2118 0.930 . S
H2109 C2121 0.929 . S
H2110 C2124 0.930 . S
H2111 C2126 0.960 . S
H2112 C2126 0.960 . S
H2113 C2126 0.960 . S
C2114 H2106 0.929 . S
C2114 C2115 1.377 . S
C2114 C2116 1.384 . S
C2115 C2114 1.377 . S
C2115 C2121 1.390 . S
C2116 H2107 0.930 . S
C2116 C2114 1.384 . S
C2116 C2117 1.372 . S
C2117 C2116 1.372 . S
C2117 C2118 1.400 . S
C2117 C2122 1.490 . S
C2118 H2108 0.930 . S
C2118 C2117 1.400 . S
C2118 C2121 1.386 . S
H2119 C2135 0.930 . S
H2120 C2136 0.931 . S
C2121 H2109 0.929 . S
C2121 C2115 1.390 . S
C2121 C2118 1.386 . S
C2122 C2117 1.490 . S
C2122 C2124 1.395 . S
C2122 C2125 1.403 . S
H2123 C2129 0.930 . S
C2124 H2110 0.930 . S
C2124 C2122 1.395 . S
C2124 C2127 1.403 . S
C2125 C2122 1.403 . S
C2125 C2126 1.524 . S
C2125 C2129 1.400 . S
C2126 H2111 0.960 . S
C2126 H2112 0.960 . S
C2126 H2113 0.960 . S
C2126 C2125 1.524 . S
C2127 C2124 1.403 . S
C2127 C2128 1.392 . S
C2127 C2131 1.495 . S
C2128 C2127 1.392 . S
C2128 C2129 1.385 . S
C2128 C2130 1.478 . S
C2129 H2123 0.930 . S
C2129 C2125 1.400 . S
C2129 C2128 1.385 . S
C2130 C2128 1.478 . S
C2130 C2132 1.381 . S
C2130 C2136 1.383 . S
C2131 C2127 1.495 . S
C2131 H2137 0.959 . S
C2131 H2138 0.961 . S
C2131 H2139 0.960 . S
C2132 C2130 1.381 . S
C2132 C2133 1.394 . S
C2132 H2140 0.930 . S
C2133 C2132 1.394 . S
C2133 C2134 1.383 . S
C2133 H2141 0.929 . S
C2134 C2133 1.383 . S
C2134 C2135 1.377 . S
C2135 H2119 0.930 . S
C2135 C2134 1.377 . S
C2135 C2136 1.379 . S
C2136 H2120 0.931 . S
C2136 C2130 1.383 . S
C2136 C2135 1.379 . S
H2137 C2131 0.959 . S
H2138 C2131 0.961 . S
H2139 C2131 0.960 . S
H2140 C2132 0.930 . S
H2141 C2133 0.929 . S
H2142 C2150 0.929 . S
H2143 C2152 0.930 . S
H2144 C2154 0.930 . S
H2145 C2157 0.929 . S
H2146 C2160 0.930 . S
H2147 C2162 0.960 . S
H2148 C2162 0.960 . S
H2149 C2162 0.960 . S
C2150 H2142 0.929 . S
C2150 C2151 1.377 . S
C2150 C2152 1.384 . S
C2151 C2150 1.377 . S
C2151 C2157 1.390 . S
C2152 H2143 0.930 . S
C2152 C2150 1.384 . S
C2152 C2153 1.372 . S
C2153 C2152 1.372 . S
C2153 C2154 1.400 . S
C2153 C2158 1.490 1_455 S
C2154 H2144 0.930 . S
C2154 C2153 1.400 . S
C2154 C2157 1.386 . S
H2155 C2171 0.930 . S
H2156 C2172 0.931 . S
C2157 H2145 0.929 . S
C2157 C2151 1.390 . S
C2157 C2154 1.386 . S
C2158 C2153 1.490 1_655 S
C2158 C2160 1.395 . S
C2158 C2161 1.403 . S
H2159 C2165 0.930 . S
C2160 H2146 0.930 . S
C2160 C2158 1.395 . S
C2160 C2163 1.403 . S
C2161 C2158 1.403 . S
C2161 C2162 1.524 . S
C2161 C2165 1.400 . S
C2162 H2147 0.960 . S
C2162 H2148 0.960 . S
C2162 H2149 0.960 . S
C2162 C2161 1.524 . S
C2163 C2160 1.403 . S
C2163 C2164 1.392 . S
C2163 C2167 1.495 . S
C2164 C2163 1.392 . S
C2164 C2165 1.385 . S
C2164 C2166 1.478 . S
C2165 H2159 0.930 . S
C2165 C2161 1.400 . S
C2165 C2164 1.385 . S
C2166 C2164 1.478 . S
C2166 C2168 1.381 . S
C2166 C2172 1.383 . S
C2167 C2163 1.495 . S
C2167 H2173 0.959 . S
C2167 H2174 0.961 . S
C2167 H2175 0.960 . S
C2168 C2166 1.381 . S
C2168 C2169 1.394 . S
C2168 H2176 0.930 . S
C2169 C2168 1.394 . S
C2169 C2170 1.383 . S
C2169 H2177 0.929 . S
C2170 C2169 1.383 . S
C2170 C2171 1.377 . S
C2171 H2155 0.930 . S
C2171 C2170 1.377 . S
C2171 C2172 1.379 . S
C2172 H2156 0.931 . S
C2172 C2166 1.383 . S
C2172 C2171 1.379 . S
H2173 C2167 0.959 . S
H2174 C2167 0.961 . S
H2175 C2167 0.960 . S
H2176 C2168 0.930 . S
H2177 C2169 0.929 . S
H2178 C2186 0.929 . S
H2179 C2188 0.930 . S
H2180 C2190 0.930 . S
H2181 C2193 0.929 . S
H2182 C2196 0.930 . S
H2183 C2198 0.960 . S
H2184 C2198 0.960 . S
H2185 C2198 0.960 . S
C2186 H2178 0.929 . S
C2186 C2187 1.377 . S
C2186 C2188 1.384 . S
C2187 C2186 1.377 . S
C2187 C2193 1.390 . S
C2188 H2179 0.930 . S
C2188 C2186 1.384 . S
C2188 C2189 1.372 . S
C2189 C2188 1.372 . S
C2189 C2190 1.400 . S
C2189 C2194 1.490 . S
C2190 H2180 0.930 . S
C2190 C2189 1.400 . S
C2190 C2193 1.386 . S
H2191 C2207 0.930 . S
H2192 C2208 0.931 . S
C2193 H2181 0.929 . S
C2193 C2187 1.390 . S
C2193 C2190 1.386 . S
C2194 C2189 1.490 . S
C2194 C2196 1.395 . S
C2194 C2197 1.403 . S
H2195 C2201 0.930 . S
C2196 H2182 0.930 . S
C2196 C2194 1.395 . S
C2196 C2199 1.403 . S
C2197 C2194 1.403 . S
C2197 C2198 1.524 . S
C2197 C2201 1.400 . S
C2198 H2183 0.960 . S
C2198 H2184 0.960 . S
C2198 H2185 0.960 . S
C2198 C2197 1.524 . S
C2199 C2196 1.403 . S
C2199 C2200 1.392 . S
C2199 C2203 1.495 . S
C2200 C2199 1.392 . S
C2200 C2201 1.385 . S
C2200 C2202 1.478 . S
C2201 H2195 0.930 . S
C2201 C2197 1.400 . S
C2201 C2200 1.385 . S
C2202 C2200 1.478 . S
C2202 C2204 1.381 . S
C2202 C2208 1.383 . S
C2203 C2199 1.495 . S
C2203 H2209 0.959 . S
C2203 H2210 0.961 . S
C2203 H2211 0.960 . S
C2204 C2202 1.381 . S
C2204 C2205 1.394 . S
C2204 H2212 0.930 . S
C2205 C2204 1.394 . S
C2205 C2206 1.383 . S
C2205 H2213 0.929 . S
C2206 C2205 1.383 . S
C2206 C2207 1.377 . S
C2207 H2191 0.930 . S
C2207 C2206 1.377 . S
C2207 C2208 1.379 . S
C2208 H2192 0.931 . S
C2208 C2202 1.383 . S
C2208 C2207 1.379 . S
H2209 C2203 0.959 . S
H2210 C2203 0.961 . S
H2211 C2203 0.960 . S
H2212 C2204 0.930 . S
H2213 C2205 0.929 . S
H2214 C2222 0.929 . S
H2215 C2224 0.930 . S
H2216 C2226 0.930 . S
H2217 C2229 0.929 . S
H2218 C2232 0.892 1_565 S
H2219 C2234 0.960 . S
H2220 C2234 0.960 1_565 S
H2221 C2234 0.960 1_565 S
C2222 H2214 0.929 . S
C2222 C2223 1.377 . S
C2222 C2224 1.384 . S
C2223 C2222 1.377 . S
C2223 C2229 1.390 . S
C2224 H2215 0.930 . S
C2224 C2222 1.384 . S
C2224 C2225 1.372 . S
C2225 C2224 1.372 . S
C2225 C2226 1.400 . S
C2225 C2230 1.460 1_565 S
C2226 H2216 0.930 . S
C2226 C2225 1.400 . S
C2226 C2229 1.386 . S
H2227 C2243 0.930 . S
H2228 C2244 0.931 . S
C2229 H2217 0.929 . S
C2229 C2223 1.390 . S
C2229 C2226 1.386 . S
C2230 C2225 1.460 1_545 S
C2230 C2232 1.400 . S
C2230 C2233 1.428 . S
H2231 C2237 0.930 . S
C2232 H2218 0.892 1_545 S
C2232 C2230 1.400 . S
C2232 C2235 1.403 . S
C2233 C2230 1.428 . S
C2233 C2234 1.524 . S
C2233 C2237 1.400 . S
C2234 H2219 0.960 . S
C2234 H2220 0.960 1_545 S
C2234 H2221 0.960 1_545 S
C2234 C2233 1.524 . S
C2235 C2232 1.403 . S
C2235 C2236 1.392 . S
C2235 C2239 1.495 . S
C2236 C2235 1.392 . S
C2236 C2237 1.385 . S
C2236 C2238 1.478 . S
C2237 H2231 0.930 . S
C2237 C2233 1.400 . S
C2237 C2236 1.385 . S
C2238 C2236 1.478 . S
C2238 C2240 1.381 . S
C2238 C2244 1.383 . S
C2239 C2235 1.495 . S
C2239 H2245 0.959 . S
C2239 H2246 0.961 . S
C2239 H2247 0.960 . S
C2240 C2238 1.381 . S
C2240 C2241 1.394 . S
C2240 H2248 0.930 . S
C2241 C2240 1.394 . S
C2241 C2242 1.383 . S
C2241 H2249 0.929 . S
C2242 C2241 1.383 . S
C2242 C2243 1.377 . S
C2243 H2227 0.930 . S
C2243 C2242 1.377 . S
C2243 C2244 1.379 . S
C2244 H2228 0.931 . S
C2244 C2238 1.383 . S
C2244 C2243 1.379 . S
H2245 C2239 0.959 . S
H2246 C2239 0.961 . S
H2247 C2239 0.960 . S
H2248 C2240 0.930 . S
H2249 C2241 0.929 . S
H2250 C2258 0.929 . S
H2251 C2260 0.930 . S
H2252 C2262 0.930 . S
H2253 C2265 0.929 . S
H2254 C2268 0.930 . S
H2255 C2270 0.960 . S
H2256 C2270 0.960 . S
H2257 C2270 0.960 . S
C2258 H2250 0.929 . S
C2258 C2259 1.377 . S
C2258 C2260 1.384 . S
C2259 C2258 1.377 . S
C2259 C2265 1.390 . S
C2260 H2251 0.930 . S
C2260 C2258 1.384 . S
C2260 C2261 1.372 . S
C2261 C2260 1.372 . S
C2261 C2262 1.400 . S
C2261 C2266 1.490 . S
C2262 H2252 0.930 . S
C2262 C2261 1.400 . S
C2262 C2265 1.386 . S
H2263 C2279 0.930 . S
H2264 C2280 0.931 . S
C2265 H2253 0.929 . S
C2265 C2259 1.390 . S
C2265 C2262 1.386 . S
C2266 C2261 1.490 . S
C2266 C2268 1.395 . S
C2266 C2269 1.403 . S
H2267 C2273 0.930 . S
C2268 H2254 0.930 . S
C2268 C2266 1.395 . S
C2268 C2271 1.403 . S
C2269 C2266 1.403 . S
C2269 C2270 1.524 . S
C2269 C2273 1.400 . S
C2270 H2255 0.960 . S
C2270 H2256 0.960 . S
C2270 H2257 0.960 . S
C2270 C2269 1.524 . S
C2271 C2268 1.403 . S
C2271 C2272 1.392 . S
C2271 C2275 1.495 . S
C2272 C2271 1.392 . S
C2272 C2273 1.385 . S
C2272 C2274 1.478 . S
C2273 H2267 0.930 . S
C2273 C2269 1.400 . S
C2273 C2272 1.385 . S
C2274 C2272 1.478 . S
C2274 C2276 1.381 . S
C2274 C2280 1.383 . S
C2275 C2271 1.495 . S
C2275 H2281 0.959 . S
C2275 H2282 0.961 . S
C2275 H2283 0.960 . S
C2276 C2274 1.381 . S
C2276 C2277 1.394 . S
C2276 H2284 0.930 . S
C2277 C2276 1.394 . S
C2277 C2278 1.383 . S
C2277 H2285 0.929 . S
C2278 C2277 1.383 . S
C2278 C2279 1.377 . S
C2279 H2263 0.930 . S
C2279 C2278 1.377 . S
C2279 C2280 1.379 . S
C2280 H2264 0.931 . S
C2280 C2274 1.383 . S
C2280 C2279 1.379 . S
H2281 C2275 0.959 . S
H2282 C2275 0.961 . S
H2283 C2275 0.960 . S
H2284 C2276 0.930 . S
H2285 C2277 0.929 . S
H2286 C2294 0.929 . S
H2287 C2296 0.930 . S
H2288 C2298 0.930 . S
H2289 C2301 0.929 . S
H2290 C2304 0.930 . S
H2291 C2306 0.960 . S
H2292 C2306 0.960 . S
H2293 C2306 0.960 . S
C2294 H2286 0.929 . S
C2294 C2295 1.377 . S
C2294 C2296 1.384 . S
C2295 C2294 1.377 . S
C2295 C2301 1.390 . S
C2296 H2287 0.930 . S
C2296 C2294 1.384 . S
C2296 C2297 1.372 . S
C2297 C2296 1.372 . S
C2297 C2298 1.400 . S
C2297 C2302 1.490 . S
C2298 H2288 0.930 . S
C2298 C2297 1.400 . S
C2298 C2301 1.386 . S
H2299 C2315 0.930 . S
H2300 C2316 0.931 . S
C2301 H2289 0.929 . S
C2301 C2295 1.390 . S
C2301 C2298 1.386 . S
C2302 C2297 1.490 . S
C2302 C2304 1.395 . S
C2302 C2305 1.403 . S
H2303 C2309 0.930 . S
C2304 H2290 0.930 . S
C2304 C2302 1.395 . S
C2304 C2307 1.403 . S
C2305 C2302 1.403 . S
C2305 C2306 1.524 . S
C2305 C2309 1.400 . S
C2306 H2291 0.960 . S
C2306 H2292 0.960 . S
C2306 H2293 0.960 . S
C2306 C2305 1.524 . S
C2307 C2304 1.403 . S
C2307 C2308 1.392 . S
C2307 C2311 1.495 . S
C2308 C2307 1.392 . S
C2308 C2309 1.385 . S
C2308 C2310 1.478 . S
C2309 H2303 0.930 . S
C2309 C2305 1.400 . S
C2309 C2308 1.385 . S
C2310 C2308 1.478 . S
C2310 C2312 1.381 . S
C2310 C2316 1.383 . S
C2311 C2307 1.495 . S
C2311 H2317 0.959 . S
C2311 H2318 0.961 . S
C2311 H2319 0.960 . S
C2312 C2310 1.381 . S
C2312 C2313 1.394 . S
C2312 H2320 0.930 . S
C2313 C2312 1.394 . S
C2313 C2314 1.383 . S
C2313 H2321 0.929 . S
C2314 C2313 1.383 . S
C2314 C2315 1.377 . S
C2315 H2299 0.930 . S
C2315 C2314 1.377 . S
C2315 C2316 1.379 . S
C2316 H2300 0.931 . S
C2316 C2310 1.383 . S
C2316 C2315 1.379 . S
H2317 C2311 0.959 . S
H2318 C2311 0.961 . S
H2319 C2311 0.960 . S
H2320 C2312 0.930 . S
H2321 C2313 0.929 . S
H2322 C2330 0.929 . S
H2323 C2332 0.930 . S
H2324 C2334 0.930 . S
H2325 C2337 0.929 . S
H2326 C2340 0.930 . S
H2327 C2342 0.960 . S
H2328 C2342 0.960 . S
H2329 C2342 0.960 . S
C2330 H2322 0.929 . S
C2330 C2331 1.377 . S
C2330 C2332 1.384 . S
C2331 C2330 1.377 . S
C2331 C2337 1.390 . S
C2332 H2323 0.930 . S
C2332 C2330 1.384 . S
C2332 C2333 1.372 . S
C2333 C2332 1.372 . S
C2333 C2334 1.400 . S
C2333 C2338 1.490 . S
C2334 H2324 0.930 . S
C2334 C2333 1.400 . S
C2334 C2337 1.386 . S
H2335 C2351 0.930 . S
H2336 C2352 0.931 . S
C2337 H2325 0.929 . S
C2337 C2331 1.390 . S
C2337 C2334 1.386 . S
C2338 C2333 1.490 . S
C2338 C2340 1.395 . S
C2338 C2341 1.403 . S
H2339 C2345 0.930 . S
C2340 H2326 0.930 . S
C2340 C2338 1.395 . S
C2340 C2343 1.403 . S
C2341 C2338 1.403 . S
C2341 C2342 1.524 . S
C2341 C2345 1.400 . S
C2342 H2327 0.960 . S
C2342 H2328 0.960 . S
C2342 H2329 0.960 . S
C2342 C2341 1.524 . S
C2343 C2340 1.403 . S
C2343 C2344 1.392 . S
C2343 C2347 1.495 . S
C2344 C2343 1.392 . S
C2344 C2345 1.385 . S
C2344 C2346 1.478 . S
C2345 H2339 0.930 . S
C2345 C2341 1.400 . S
C2345 C2344 1.385 . S
C2346 C2344 1.478 . S
C2346 C2348 1.381 . S
C2346 C2352 1.383 . S
C2347 C2343 1.495 . S
C2347 H2353 0.959 . S
C2347 H2354 0.961 . S
C2347 H2355 0.960 . S
C2348 C2346 1.381 . S
C2348 C2349 1.394 . S
C2348 H2356 0.930 . S
C2349 C2348 1.394 . S
C2349 C2350 1.383 . S
C2349 H2357 0.929 . S
C2350 C2349 1.383 . S
C2350 C2351 1.377 . S
C2351 H2335 0.930 . S
C2351 C2350 1.377 . S
C2351 C2352 1.379 . S
C2352 H2336 0.931 . S
C2352 C2346 1.383 . S
C2352 C2351 1.379 . S
H2353 C2347 0.959 . S
H2354 C2347 0.961 . S
H2355 C2347 0.960 . S
H2356 C2348 0.930 . S
H2357 C2349 0.929 . S
H2358 C2366 0.929 . S
H2359 C2368 0.930 . S
H2360 C2370 0.930 . S
H2361 C2373 0.929 . S
H2362 C2376 0.930 . S
H2363 C2378 0.906 1_545 S
H2364 C2378 0.960 1_545 S
H2365 C2378 0.960 . S
C2366 H2358 0.929 . S
C2366 C2367 1.377 . S
C2366 C2368 1.384 . S
C2367 C2366 1.377 . S
C2367 C2373 1.390 . S
C2368 H2359 0.930 . S
C2368 C2366 1.384 . S
C2368 C2369 1.372 . S
C2369 C2368 1.372 . S
C2369 C2370 1.400 . S
C2369 C2374 1.490 . S
C2370 H2360 0.930 . S
C2370 C2369 1.400 . S
C2370 C2373 1.386 . S
H2371 C2387 0.930 . S
H2372 C2388 0.931 . S
C2373 H2361 0.929 . S
C2373 C2367 1.390 . S
C2373 C2370 1.386 . S
C2374 C2369 1.490 . S
C2374 C2376 1.395 . S
C2374 C2377 1.403 . S
H2375 C2381 0.930 . S
C2376 H2362 0.930 . S
C2376 C2374 1.395 . S
C2376 C2379 1.403 . S
C2377 C2374 1.403 . S
C2377 C2378 1.524 . S
C2377 C2381 1.400 . S
C2378 H2363 0.906 1_565 S
C2378 H2364 0.960 1_565 S
C2378 H2365 0.960 . S
C2378 C2377 1.524 . S
C2379 C2376 1.403 . S
C2379 C2380 1.392 . S
C2379 C2383 1.495 . S
C2380 C2379 1.392 . S
C2380 C2381 1.385 . S
C2380 C2382 1.478 . S
C2381 H2375 0.930 . S
C2381 C2377 1.400 . S
C2381 C2380 1.385 . S
C2382 C2380 1.478 . S
C2382 C2384 1.381 . S
C2382 C2388 1.383 . S
C2383 C2379 1.495 . S
C2383 H2389 0.959 . S
C2383 H2390 0.961 . S
C2383 H2391 0.960 . S
C2384 C2382 1.381 . S
C2384 C2385 1.394 . S
C2384 H2392 0.930 . S
C2385 C2384 1.394 . S
C2385 C2386 1.383 . S
C2385 H2393 0.929 1_565 S
C2386 C2385 1.383 . S
C2386 C2387 1.377 . S
C2387 H2371 0.930 . S
C2387 C2386 1.377 . S
C2387 C2388 1.379 . S
C2388 H2372 0.931 . S
C2388 C2382 1.383 . S
C2388 C2387 1.379 . S
H2389 C2383 0.959 . S
H2390 C2383 0.961 . S
H2391 C2383 0.960 . S
H2392 C2384 0.930 . S
H2393 C2385 0.929 1_545 S
H2394 C2402 0.929 . S
H2395 C2404 0.930 . S
H2396 C2406 0.930 . S
H2397 C2409 0.929 . S
H2398 C2412 0.930 1_655 S
H2399 C2414 0.960 . S
H2400 C2414 0.960 . S
H2401 C2414 0.960 . S
C2402 H2394 0.929 . S
C2402 C2403 1.377 1_655 S
C2402 C2404 1.384 . S
C2403 C2402 1.377 1_455 S
C2403 C2409 1.390 . S
C2404 H2395 0.930 . S
C2404 C2402 1.384 . S
C2404 C2405 1.372 1_655 S
C2405 C2404 1.372 1_455 S
C2405 C2406 1.400 . S
C2405 C2410 1.490 . S
C2406 H2396 0.930 . S
C2406 C2405 1.400 . S
C2406 C2409 1.386 . S
H2407 C2423 0.930 . S
H2408 C2424 0.931 . S
C2409 H2397 0.929 . S
C2409 C2403 1.390 . S
C2409 C2406 1.386 . S
C2410 C2405 1.490 . S
C2410 C2412 1.395 . S
C2410 C2413 1.403 . S
H2411 C2417 0.930 . S
C2412 H2398 0.930 1_455 S
C2412 C2410 1.395 . S
C2412 C2415 1.403 . S
C2413 C2410 1.403 . S
C2413 C2414 1.524 . S
C2413 C2417 1.400 . S
C2414 H2399 0.960 . S
C2414 H2400 0.960 . S
C2414 H2401 0.960 . S
C2414 C2413 1.524 . S
C2415 C2412 1.403 . S
C2415 C2416 1.392 . S
C2415 C2419 1.495 1_455 S
C2416 C2415 1.392 . S
C2416 C2417 1.385 . S
C2416 C2418 1.478 . S
C2417 H2411 0.930 . S
C2417 C2413 1.400 . S
C2417 C2416 1.385 . S
C2418 C2416 1.478 . S
C2418 C2420 1.381 1_455 S
C2418 C2424 1.383 . S
C2419 C2415 1.495 1_655 S
C2419 H2425 0.959 . S
C2419 H2426 0.961 1_655 S
C2419 H2427 0.960 . S
C2420 C2418 1.381 1_655 S
C2420 C2421 1.394 . S
C2420 H2428 0.930 . S
C2421 C2420 1.394 . S
C2421 C2422 1.383 1_655 S
C2421 H2429 0.929 . S
C2422 C2421 1.383 1_455 S
C2422 C2423 1.377 . S
C2423 H2407 0.930 . S
C2423 C2422 1.377 . S
C2423 C2424 1.379 . S
C2424 H2408 0.931 . S
C2424 C2418 1.383 . S
C2424 C2423 1.379 . S
H2425 C2419 0.959 . S
H2426 C2419 0.961 1_455 S
H2427 C2419 0.960 . S
H2428 C2420 0.930 . S
H2429 C2421 0.929 . S
H2430 C2438 0.929 . S
H2431 C2440 0.930 . S
H2432 C2442 0.930 . S
H2433 C2445 0.929 . S
H2434 C2448 0.930 . S
H2435 C2450 0.960 . S
H2436 C2450 0.960 . S
H2437 C2450 0.960 . S
C2438 H2430 0.929 . S
C2438 C2439 1.377 . S
C2438 C2440 1.384 . S
C2439 C2438 1.377 . S
C2439 C2445 1.390 . S
C2440 H2431 0.930 . S
C2440 C2438 1.384 . S
C2440 C2441 1.372 . S
C2441 C2440 1.372 . S
C2441 C2442 1.400 . S
C2441 C2446 1.490 . S
C2442 H2432 0.930 . S
C2442 C2441 1.400 . S
C2442 C2445 1.386 . S
H2443 C2459 0.930 . S
H2444 C2460 0.931 . S
C2445 H2433 0.929 . S
C2445 C2439 1.390 . S
C2445 C2442 1.386 . S
C2446 C2441 1.490 . S
C2446 C2448 1.395 . S
C2446 C2449 1.403 . S
H2447 C2453 0.930 . S
C2448 H2434 0.930 . S
C2448 C2446 1.395 . S
C2448 C2451 1.403 . S
C2449 C2446 1.403 . S
C2449 C2450 1.524 . S
C2449 C2453 1.400 . S
C2450 H2435 0.960 . S
C2450 H2436 0.960 . S
C2450 H2437 0.960 . S
C2450 C2449 1.524 . S
C2451 C2448 1.403 . S
C2451 C2452 1.392 . S
C2451 C2455 1.495 . S
C2452 C2451 1.392 . S
C2452 C2453 1.385 . S
C2452 C2454 1.478 . S
C2453 H2447 0.930 . S
C2453 C2449 1.400 . S
C2453 C2452 1.385 . S
C2454 C2452 1.478 . S
C2454 C2456 1.381 . S
C2454 C2460 1.383 . S
C2455 C2451 1.495 . S
C2455 H2461 0.959 . S
C2455 H2462 0.961 . S
C2455 H2463 0.960 . S
C2456 C2454 1.381 . S
C2456 C2457 1.394 . S
C2456 H2464 0.930 . S
C2457 C2456 1.394 . S
C2457 C2458 1.383 . S
C2457 H2465 0.929 . S
C2458 C2457 1.383 . S
C2458 C2459 1.377 . S
C2459 H2443 0.930 . S
C2459 C2458 1.377 . S
C2459 C2460 1.379 . S
C2460 H2444 0.931 . S
C2460 C2454 1.383 . S
C2460 C2459 1.379 . S
H2461 C2455 0.959 . S
H2462 C2455 0.961 . S
H2463 C2455 0.960 . S
H2464 C2456 0.930 . S
H2465 C2457 0.929 . S
H2466 C2474 0.929 . S
H2467 C2476 0.930 . S
H2468 C2478 0.930 . S
H2469 C2481 0.929 . S
H2470 C2484 0.930 . S
H2471 C2486 0.960 . S
H2472 C2486 0.960 . S
H2473 C2486 0.960 . S
C2474 H2466 0.929 . S
C2474 C2475 1.377 . S
C2474 C2476 1.384 . S
C2475 C2474 1.377 . S
C2475 C2481 1.390 . S
C2476 H2467 0.930 . S
C2476 C2474 1.384 . S
C2476 C2477 1.372 . S
C2477 C2476 1.372 . S
C2477 C2478 1.400 . S
C2477 C2482 1.490 . S
C2478 H2468 0.930 . S
C2478 C2477 1.400 . S
C2478 C2481 1.386 . S
H2479 C2495 0.930 . S
H2480 C2496 0.931 . S
C2481 H2469 0.929 . S
C2481 C2475 1.390 . S
C2481 C2478 1.386 . S
C2482 C2477 1.490 . S
C2482 C2484 1.395 . S
C2482 C2485 1.403 1_655 S
H2483 C2489 0.930 . S
C2484 H2470 0.930 . S
C2484 C2482 1.395 . S
C2484 C2487 1.403 . S
C2485 C2482 1.403 1_455 S
C2485 C2486 1.524 . S
C2485 C2489 1.400 . S
C2486 H2471 0.960 . S
C2486 H2472 0.960 . S
C2486 H2473 0.960 . S
C2486 C2485 1.524 . S
C2487 C2484 1.403 . S
C2487 C2488 1.392 . S
C2487 C2491 1.495 . S
C2488 C2487 1.392 . S
C2488 C2489 1.385 1_655 S
C2488 C2490 1.478 . S
C2489 H2483 0.930 . S
C2489 C2485 1.400 . S
C2489 C2488 1.385 1_455 S
C2490 C2488 1.478 . S
C2490 C2492 1.381 . S
C2490 C2496 1.383 . S
C2491 C2487 1.495 . S
C2491 H2497 0.959 . S
C2491 H2498 0.961 . S
C2491 H2499 0.960 . S
C2492 C2490 1.381 . S
C2492 C2493 1.394 . S
C2492 H2500 0.930 . S
C2493 C2492 1.394 . S
C2493 C2494 1.383 . S
C2493 H2501 0.929 . S
C2494 C2493 1.383 . S
C2494 C2495 1.377 . S
C2495 H2479 0.930 . S
C2495 C2494 1.377 . S
C2495 C2496 1.379 . S
C2496 H2480 0.931 . S
C2496 C2490 1.383 . S
C2496 C2495 1.379 . S
H2497 C2491 0.959 . S
H2498 C2491 0.961 . S
H2499 C2491 0.960 . S
H2500 C2492 0.930 . S
H2501 C2493 0.929 . S
H2502 C2510 0.929 . S
H2503 C2512 0.930 . S
H2504 C2514 0.930 . S
H2505 C2517 0.929 . S
H2506 C2520 0.930 . S
H2507 C2522 0.960 . S
H2508 C2522 0.960 . S
H2509 C2522 0.960 . S
C2510 H2502 0.929 . S
C2510 C2511 1.377 . S
C2510 C2512 1.384 . S
C2511 C2510 1.377 . S
C2511 C2517 1.390 . S
C2512 H2503 0.930 . S
C2512 C2510 1.384 . S
C2512 C2513 1.372 . S
C2513 C2512 1.372 . S
C2513 C2514 1.400 . S
C2513 C2518 1.490 . S
C2514 H2504 0.930 . S
C2514 C2513 1.400 . S
C2514 C2517 1.386 . S
H2515 C2531 0.930 . S
H2516 C2532 0.931 . S
C2517 H2505 0.929 . S
C2517 C2511 1.390 . S
C2517 C2514 1.386 . S
C2518 C2513 1.490 . S
C2518 C2520 1.395 . S
C2518 C2521 1.403 . S
H2519 C2525 0.930 . S
C2520 H2506 0.930 . S
C2520 C2518 1.395 . S
C2520 C2523 1.403 . S
C2521 C2518 1.403 . S
C2521 C2522 1.524 . S
C2521 C2525 1.400 . S
C2522 H2507 0.960 . S
C2522 H2508 0.960 . S
C2522 H2509 0.960 . S
C2522 C2521 1.524 . S
C2523 C2520 1.403 . S
C2523 C2524 1.392 . S
C2523 C2527 1.495 . S
C2524 C2523 1.392 . S
C2524 C2525 1.385 . S
C2524 C2526 1.478 . S
C2525 H2519 0.930 . S
C2525 C2521 1.400 . S
C2525 C2524 1.385 . S
C2526 C2524 1.478 . S
C2526 C2528 1.381 . S
C2526 C2532 1.383 . S
C2527 C2523 1.495 . S
C2527 H2533 0.959 . S
C2527 H2534 0.961 . S
C2527 H2535 0.960 . S
C2528 C2526 1.381 . S
C2528 C2529 1.394 . S
C2528 H2536 0.930 . S
C2529 C2528 1.394 . S
C2529 C2530 1.383 . S
C2529 H2537 0.929 . S
C2530 C2529 1.383 . S
C2530 C2531 1.377 . S
C2531 H2515 0.930 . S
C2531 C2530 1.377 . S
C2531 C2532 1.379 . S
C2532 H2516 0.931 . S
C2532 C2526 1.383 . S
C2532 C2531 1.379 . S
H2533 C2527 0.959 . S
H2534 C2527 0.961 . S
H2535 C2527 0.960 . S
H2536 C2528 0.930 . S
H2537 C2529 0.929 . S
H2538 C2546 0.929 . S
H2539 C2548 0.930 . S
H2540 C2550 0.930 . S
H2541 C2553 0.929 . S
H2542 C2556 0.930 . S
H2543 C2558 0.960 1_565 S
H2544 C2558 0.960 1_565 S
H2545 C2558 0.960 . S
C2546 H2538 0.929 . S
C2546 C2547 1.377 . S
C2546 C2548 1.384 . S
C2547 C2546 1.377 . S
C2547 C2553 1.390 . S
C2548 H2539 0.930 . S
C2548 C2546 1.384 . S
C2548 C2549 1.372 . S
C2549 C2548 1.372 . S
C2549 C2550 1.400 . S
C2549 C2554 1.490 . S
C2550 H2540 0.930 . S
C2550 C2549 1.400 . S
C2550 C2553 1.386 . S
H2551 C2567 0.930 . S
H2552 C2568 0.931 . S
C2553 H2541 0.929 . S
C2553 C2547 1.390 . S
C2553 C2550 1.386 . S
C2554 C2549 1.490 . S
C2554 C2556 1.395 . S
C2554 C2557 1.403 . S
H2555 C2561 0.930 . S
C2556 H2542 0.930 . S
C2556 C2554 1.395 . S
C2556 C2559 1.403 . S
C2557 C2554 1.403 . S
C2557 C2558 1.524 . S
C2557 C2561 1.400 . S
C2558 H2543 0.960 1_545 S
C2558 H2544 0.960 1_545 S
C2558 H2545 0.960 . S
C2558 C2557 1.524 . S
C2559 C2556 1.403 . S
C2559 C2560 1.392 . S
C2559 C2563 1.495 . S
C2560 C2559 1.392 . S
C2560 C2561 1.385 . S
C2560 C2562 1.478 . S
C2561 H2555 0.930 . S
C2561 C2557 1.400 . S
C2561 C2560 1.385 . S
C2562 C2560 1.478 . S
C2562 C2564 1.381 . S
C2562 C2568 1.383 . S
C2563 C2559 1.495 . S
C2563 H2569 0.959 . S
C2563 H2570 0.961 . S
C2563 H2571 0.960 . S
C2564 C2562 1.381 . S
C2564 C2565 1.394 . S
C2564 H2572 0.930 . S
C2565 C2564 1.394 . S
C2565 C2566 1.383 . S
C2565 H2573 0.929 1_545 S
C2566 C2565 1.383 . S
C2566 C2567 1.377 . S
C2567 H2551 0.930 . S
C2567 C2566 1.377 . S
C2567 C2568 1.379 . S
C2568 H2552 0.931 . S
C2568 C2562 1.383 . S
C2568 C2567 1.379 . S
H2569 C2563 0.959 . S
H2570 C2563 0.961 . S
H2571 C2563 0.960 . S
H2572 C2564 0.930 . S
H2573 C2565 0.929 1_565 S
H2574 C2582 0.929 . S
H2575 C2584 0.930 . S
H2576 C2586 0.930 . S
H2577 C2589 0.929 . S
H2578 C2592 0.930 . S
H2579 C2594 0.960 . S
H2580 C2594 0.960 . S
H2581 C2594 0.960 . S
C2582 H2574 0.929 . S
C2582 C2583 1.377 . S
C2582 C2584 1.384 . S
C2583 C2582 1.377 . S
C2583 C2589 1.390 . S
C2584 H2575 0.930 . S
C2584 C2582 1.384 . S
C2584 C2585 1.372 . S
C2585 C2584 1.372 . S
C2585 C2586 1.400 . S
C2585 C2590 1.490 . S
C2586 H2576 0.930 . S
C2586 C2585 1.400 . S
C2586 C2589 1.386 . S
H2587 C2603 0.930 . S
H2588 C2604 0.931 . S
C2589 H2577 0.929 . S
C2589 C2583 1.390 . S
C2589 C2586 1.386 . S
C2590 C2585 1.490 . S
C2590 C2592 1.395 . S
C2590 C2593 1.403 . S
H2591 C2597 0.930 . S
C2592 H2578 0.930 . S
C2592 C2590 1.395 . S
C2592 C2595 1.403 . S
C2593 C2590 1.403 . S
C2593 C2594 1.524 . S
C2593 C2597 1.400 . S
C2594 H2579 0.960 . S
C2594 H2580 0.960 . S
C2594 H2581 0.960 . S
C2594 C2593 1.524 . S
C2595 C2592 1.403 . S
C2595 C2596 1.392 . S
C2595 C2599 1.495 . S
C2596 C2595 1.392 . S
C2596 C2597 1.385 . S
C2596 C2598 1.478 . S
C2597 H2591 0.930 . S
C2597 C2593 1.400 . S
C2597 C2596 1.385 . S
C2598 C2596 1.478 . S
C2598 C2600 1.381 . S
C2598 C2604 1.383 . S
C2599 C2595 1.495 . S
C2599 H2605 0.959 . S
C2599 H2606 0.961 . S
C2599 H2607 0.960 . S
C2600 C2598 1.381 . S
C2600 C2601 1.394 . S
C2600 H2608 0.930 . S
C2601 C2600 1.394 . S
C2601 C2602 1.383 . S
C2601 H2609 0.929 . S
C2602 C2601 1.383 . S
C2602 C2603 1.377 . S
C2603 H2587 0.930 . S
C2603 C2602 1.377 . S
C2603 C2604 1.379 . S
C2604 H2588 0.931 . S
C2604 C2598 1.383 . S
C2604 C2603 1.379 . S
H2605 C2599 0.959 . S
H2606 C2599 0.961 . S
H2607 C2599 0.960 . S
H2608 C2600 0.930 . S
H2609 C2601 0.929 . S
H2610 C2618 0.929 . S
H2611 C2620 0.930 . S
H2612 C2622 0.930 . S
H2613 C2625 0.929 . S
H2614 C2628 0.930 . S
H2615 C2630 0.960 . S
H2616 C2630 0.960 . S
H2617 C2630 0.960 . S
C2618 H2610 0.929 . S
C2618 C2619 1.377 . S
C2618 C2620 1.384 . S
C2619 C2618 1.377 . S
C2619 C2625 1.390 . S
C2620 H2611 0.930 . S
C2620 C2618 1.384 . S
C2620 C2621 1.372 . S
C2621 C2620 1.372 . S
C2621 C2622 1.400 . S
C2621 C2626 1.490 . S
C2622 H2612 0.930 . S
C2622 C2621 1.400 . S
C2622 C2625 1.386 . S
H2623 C2639 0.930 . S
H2624 C2640 0.931 . S
C2625 H2613 0.929 . S
C2625 C2619 1.390 . S
C2625 C2622 1.386 . S
C2626 C2621 1.490 . S
C2626 C2628 1.395 . S
C2626 C2629 1.403 . S
H2627 C2633 0.930 . S
C2628 H2614 0.930 . S
C2628 C2626 1.395 . S
C2628 C2631 1.403 . S
C2629 C2626 1.403 . S
C2629 C2630 1.524 . S
C2629 C2633 1.400 . S
C2630 H2615 0.960 . S
C2630 H2616 0.960 . S
C2630 H2617 0.960 . S
C2630 C2629 1.524 . S
C2631 C2628 1.403 . S
C2631 C2632 1.392 . S
C2631 C2635 1.495 . S
C2632 C2631 1.392 . S
C2632 C2633 1.385 . S
C2632 C2634 1.478 . S
C2633 H2627 0.930 . S
C2633 C2629 1.400 . S
C2633 C2632 1.385 . S
C2634 C2632 1.478 . S
C2634 C2636 1.381 . S
C2634 C2640 1.383 . S
C2635 C2631 1.495 . S
C2635 H2641 0.959 . S
C2635 H2642 0.961 . S
C2635 H2643 0.960 . S
C2636 C2634 1.381 . S
C2636 C2637 1.394 . S
C2636 H2644 0.930 . S
C2637 C2636 1.394 . S
C2637 C2638 1.383 . S
C2637 H2645 0.929 . S
C2638 C2637 1.383 . S
C2638 C2639 1.377 . S
C2639 H2623 0.930 . S
C2639 C2638 1.377 . S
C2639 C2640 1.379 . S
C2640 H2624 0.931 . S
C2640 C2634 1.383 . S
C2640 C2639 1.379 . S
H2641 C2635 0.959 . S
H2642 C2635 0.961 . S
H2643 C2635 0.960 . S
H2644 C2636 0.930 . S
H2645 C2637 0.929 . S
H2646 C2654 0.929 . S
H2647 C2656 0.930 . S
H2648 C2658 0.930 . S
H2649 C2661 0.929 . S
H2650 C2664 0.930 . S
H2651 C2666 0.960 . S
H2652 C2666 0.960 . S
H2653 C2666 0.960 . S
C2654 H2646 0.929 . S
C2654 C2655 1.377 . S
C2654 C2656 1.384 . S
C2655 C2654 1.377 . S
C2655 C2661 1.390 . S
C2656 H2647 0.930 . S
C2656 C2654 1.384 . S
C2656 C2657 1.372 . S
C2657 C2656 1.372 . S
C2657 C2658 1.400 . S
C2657 C2662 1.490 . S
C2658 H2648 0.930 . S
C2658 C2657 1.400 . S
C2658 C2661 1.386 . S
H2659 C2675 0.930 . S
H2660 C2676 0.931 . S
C2661 H2649 0.929 . S
C2661 C2655 1.390 . S
C2661 C2658 1.386 . S
C2662 C2657 1.490 . S
C2662 C2664 1.395 . S
C2662 C2665 1.403 . S
H2663 C2669 0.930 . S
C2664 H2650 0.930 . S
C2664 C2662 1.395 . S
C2664 C2667 1.403 . S
C2665 C2662 1.403 . S
C2665 C2666 1.524 . S
C2665 C2669 1.400 . S
C2666 H2651 0.960 . S
C2666 H2652 0.960 . S
C2666 H2653 0.960 . S
C2666 C2665 1.524 . S
C2667 C2664 1.403 . S
C2667 C2668 1.392 . S
C2667 C2671 1.495 . S
C2668 C2667 1.392 . S
C2668 C2669 1.385 . S
C2668 C2670 1.478 . S
C2669 H2663 0.930 . S
C2669 C2665 1.400 . S
C2669 C2668 1.385 . S
C2670 C2668 1.478 . S
C2670 C2672 1.381 . S
C2670 C2676 1.383 . S
C2671 C2667 1.495 . S
C2671 H2677 0.959 . S
C2671 H2678 0.961 . S
C2671 H2679 0.960 . S
C2672 C2670 1.381 . S
C2672 C2673 1.394 . S
C2672 H2680 0.930 . S
C2673 C2672 1.394 . S
C2673 C2674 1.383 . S
C2673 H2681 0.929 . S
C2674 C2673 1.383 . S
C2674 C2675 1.377 . S
C2675 H2659 0.930 . S
C2675 C2674 1.377 . S
C2675 C2676 1.379 . S
C2676 H2660 0.931 . S
C2676 C2670 1.383 . S
C2676 C2675 1.379 . S
H2677 C2671 0.959 . S
H2678 C2671 0.961 . S
H2679 C2671 0.960 . S
H2680 C2672 0.930 . S
H2681 C2673 0.929 . S
H2682 C2690 0.929 . S
H2683 C2692 0.930 . S
H2684 C2694 0.930 . S
H2685 C2697 0.929 . S
H2686 C2700 0.930 . S
H2687 C2702 0.960 . S
H2688 C2702 0.960 . S
H2689 C2702 0.960 . S
C2690 H2682 0.929 . S
C2690 C2691 1.377 . S
C2690 C2692 1.384 . S
C2691 C2690 1.377 . S
C2691 C2697 1.390 . S
C2692 H2683 0.930 . S
C2692 C2690 1.384 . S
C2692 C2693 1.372 . S
C2693 C2692 1.372 . S
C2693 C2694 1.400 . S
C2693 C2698 1.490 . S
C2694 H2684 0.930 . S
C2694 C2693 1.400 . S
C2694 C2697 1.386 . S
H2695 C2711 0.930 . S
H2696 C2712 0.931 . S
C2697 H2685 0.929 . S
C2697 C2691 1.390 . S
C2697 C2694 1.386 . S
C2698 C2693 1.490 . S
C2698 C2700 1.395 . S
C2698 C2701 1.403 . S
H2699 C2705 0.930 . S
C2700 H2686 0.930 . S
C2700 C2698 1.395 . S
C2700 C2703 1.403 . S
C2701 C2698 1.403 . S
C2701 C2702 1.524 . S
C2701 C2705 1.400 . S
C2702 H2687 0.960 . S
C2702 H2688 0.960 . S
C2702 H2689 0.960 . S
C2702 C2701 1.524 . S
C2703 C2700 1.403 . S
C2703 C2704 1.392 . S
C2703 C2707 1.495 . S
C2704 C2703 1.392 . S
C2704 C2705 1.385 . S
C2704 C2706 1.478 . S
C2705 H2699 0.930 . S
C2705 C2701 1.400 . S
C2705 C2704 1.385 . S
C2706 C2704 1.478 . S
C2706 C2708 1.381 . S
C2706 C2712 1.383 . S
C2707 C2703 1.495 . S
C2707 H2713 0.959 . S
C2707 H2714 0.961 . S
C2707 H2715 0.960 . S
C2708 C2706 1.381 . S
C2708 C2709 1.394 . S
C2708 H2716 0.930 . S
C2709 C2708 1.394 . S
C2709 C2710 1.383 . S
C2709 H2717 0.929 . S
C2710 C2709 1.383 . S
C2710 C2711 1.377 . S
C2711 H2695 0.930 . S
C2711 C2710 1.377 . S
C2711 C2712 1.379 . S
C2712 H2696 0.931 . S
C2712 C2706 1.383 . S
C2712 C2711 1.379 . S
H2713 C2707 0.959 . S
H2714 C2707 0.961 . S
H2715 C2707 0.960 . S
H2716 C2708 0.930 . S
H2717 C2709 0.929 . S
H2718 C2726 0.929 . S
H2719 C2728 0.930 . S
H2720 C2730 0.930 . S
H2721 C2733 0.929 . S
H2722 C2736 0.930 . S
H2723 C2738 0.960 . S
H2724 C2738 0.960 . S
H2725 C2738 0.960 . S
C2726 H2718 0.929 . S
C2726 C2727 1.377 . S
C2726 C2728 1.384 . S
C2727 C2726 1.377 . S
C2727 C2733 1.390 . S
C2728 H2719 0.930 . S
C2728 C2726 1.384 . S
C2728 C2729 1.372 . S
C2729 C2728 1.372 . S
C2729 C2730 1.400 . S
C2729 C2734 1.490 . S
C2730 H2720 0.930 . S
C2730 C2729 1.400 . S
C2730 C2733 1.386 . S
H2731 C2747 0.930 . S
H2732 C2748 0.931 . S
C2733 H2721 0.929 . S
C2733 C2727 1.390 . S
C2733 C2730 1.386 . S
C2734 C2729 1.490 . S
C2734 C2736 1.395 . S
C2734 C2737 1.403 . S
H2735 C2741 0.930 . S
C2736 H2722 0.930 . S
C2736 C2734 1.395 . S
C2736 C2739 1.403 . S
C2737 C2734 1.403 . S
C2737 C2738 1.524 . S
C2737 C2741 1.400 . S
C2738 H2723 0.960 . S
C2738 H2724 0.960 . S
C2738 H2725 0.960 . S
C2738 C2737 1.524 . S
C2739 C2736 1.403 . S
C2739 C2740 1.392 . S
C2739 C2743 1.495 . S
C2740 C2739 1.392 . S
C2740 C2741 1.385 . S
C2740 C2742 1.478 . S
C2741 H2735 0.930 . S
C2741 C2737 1.400 . S
C2741 C2740 1.385 . S
C2742 C2740 1.478 . S
C2742 C2744 1.381 . S
C2742 C2748 1.383 . S
C2743 C2739 1.495 . S
C2743 H2749 0.959 . S
C2743 H2750 0.961 . S
C2743 H2751 0.960 . S
C2744 C2742 1.381 . S
C2744 C2745 1.394 . S
C2744 H2752 0.930 . S
C2745 C2744 1.394 . S
C2745 C2746 1.383 . S
C2745 H2753 0.929 . S
C2746 C2745 1.383 . S
C2746 C2747 1.377 . S
C2747 H2731 0.930 . S
C2747 C2746 1.377 . S
C2747 C2748 1.379 . S
C2748 H2732 0.931 . S
C2748 C2742 1.383 . S
C2748 C2747 1.379 . S
H2749 C2743 0.959 . S
H2750 C2743 0.961 . S
H2751 C2743 0.960 . S
H2752 C2744 0.930 . S
H2753 C2745 0.929 . S
H2754 C2762 0.929 . S
H2755 C2764 0.930 . S
H2756 C2766 0.930 . S
H2757 C2769 0.929 . S
H2758 C2772 0.930 . S
H2759 C2774 0.960 . S
H2760 C2774 0.960 . S
H2761 C2774 0.960 . S
C2762 H2754 0.929 . S
C2762 C2763 1.377 . S
C2762 C2764 1.384 . S
C2763 C2762 1.377 . S
C2763 C2769 1.390 . S
C2764 H2755 0.930 . S
C2764 C2762 1.384 . S
C2764 C2765 1.372 . S
C2765 C2764 1.372 . S
C2765 C2766 1.400 . S
C2765 C2770 1.490 . S
C2766 H2756 0.930 . S
C2766 C2765 1.400 . S
C2766 C2769 1.386 . S
H2767 C2783 0.930 . S
H2768 C2784 0.931 . S
C2769 H2757 0.929 . S
C2769 C2763 1.390 . S
C2769 C2766 1.386 . S
C2770 C2765 1.490 . S
C2770 C2772 1.395 . S
C2770 C2773 1.403 . S
H2771 C2777 0.930 . S
C2772 H2758 0.930 . S
C2772 C2770 1.395 . S
C2772 C2775 1.403 . S
C2773 C2770 1.403 . S
C2773 C2774 1.524 . S
C2773 C2777 1.400 . S
C2774 H2759 0.960 . S
C2774 H2760 0.960 . S
C2774 H2761 0.960 . S
C2774 C2773 1.524 . S
C2775 C2772 1.403 . S
C2775 C2776 1.392 . S
C2775 C2779 1.495 . S
C2776 C2775 1.392 . S
C2776 C2777 1.385 . S
C2776 C2778 1.478 . S
C2777 H2771 0.930 . S
C2777 C2773 1.400 . S
C2777 C2776 1.385 . S
C2778 C2776 1.478 . S
C2778 C2780 1.381 . S
C2778 C2784 1.383 . S
C2779 C2775 1.495 . S
C2779 H2785 0.959 . S
C2779 H2786 0.961 . S
C2779 H2787 0.960 . S
C2780 C2778 1.381 . S
C2780 C2781 1.394 . S
C2780 H2788 0.930 . S
C2781 C2780 1.394 . S
C2781 C2782 1.383 . S
C2781 H2789 0.929 . S
C2782 C2781 1.383 . S
C2782 C2783 1.377 . S
C2783 H2767 0.930 . S
C2783 C2782 1.377 . S
C2783 C2784 1.379 . S
C2784 H2768 0.931 . S
C2784 C2778 1.383 . S
C2784 C2783 1.379 . S
H2785 C2779 0.959 . S
H2786 C2779 0.961 . S
H2787 C2779 0.960 . S
H2788 C2780 0.930 . S
H2789 C2781 0.929 . S
H2790 C2798 0.929 . S
H2791 C2800 0.930 . S
H2792 C2802 0.930 . S
H2793 C2805 0.929 . S
H2794 C2808 0.930 . S
H2795 C2810 0.960 . S
H2796 C2810 0.960 . S
H2797 C2810 0.960 . S
C2798 H2790 0.929 . S
C2798 C2799 1.377 . S
C2798 C2800 1.384 . S
C2799 C2798 1.377 . S
C2799 C2805 1.390 . S
C2800 H2791 0.930 . S
C2800 C2798 1.384 . S
C2800 C2801 1.372 . S
C2801 C2800 1.372 . S
C2801 C2802 1.400 . S
C2801 C2806 1.490 . S
C2802 H2792 0.930 . S
C2802 C2801 1.400 . S
C2802 C2805 1.386 . S
H2803 C2819 0.930 . S
H2804 C2820 0.931 . S
C2805 H2793 0.929 . S
C2805 C2799 1.390 . S
C2805 C2802 1.386 . S
C2806 C2801 1.490 . S
C2806 C2808 1.395 . S
C2806 C2809 1.403 . S
H2807 C2813 0.930 . S
C2808 H2794 0.930 . S
C2808 C2806 1.395 . S
C2808 C2811 1.403 . S
C2809 C2806 1.403 . S
C2809 C2810 1.524 . S
C2809 C2813 1.400 . S
C2810 H2795 0.960 . S
C2810 H2796 0.960 . S
C2810 H2797 0.960 . S
C2810 C2809 1.524 . S
C2811 C2808 1.403 . S
C2811 C2812 1.392 . S
C2811 C2815 1.495 . S
C2812 C2811 1.392 . S
C2812 C2813 1.385 . S
C2812 C2814 1.478 . S
C2813 H2807 0.930 . S
C2813 C2809 1.400 . S
C2813 C2812 1.385 . S
C2814 C2812 1.478 . S
C2814 C2816 1.381 . S
C2814 C2820 1.383 . S
C2815 C2811 1.495 . S
C2815 H2821 0.959 . S
C2815 H2822 0.961 . S
C2815 H2823 0.960 . S
C2816 C2814 1.381 . S
C2816 C2817 1.394 . S
C2816 H2824 0.930 . S
C2817 C2816 1.394 . S
C2817 C2818 1.383 . S
C2817 H2825 0.929 . S
C2818 C2817 1.383 . S
C2818 C2819 1.377 . S
C2819 H2803 0.930 . S
C2819 C2818 1.377 . S
C2819 C2820 1.379 . S
C2820 H2804 0.931 . S
C2820 C2814 1.383 . S
C2820 C2819 1.379 . S
H2821 C2815 0.959 . S
H2822 C2815 0.961 . S
H2823 C2815 0.960 . S
H2824 C2816 0.930 . S
H2825 C2817 0.929 . S
H2826 C2834 0.929 . S
H2827 C2836 0.930 . S
H2828 C2838 0.930 . S
H2829 C2841 0.929 . S
H2830 C2844 0.930 . S
H2831 C2846 0.960 . S
H2832 C2846 0.960 . S
H2833 C2846 0.960 . S
C2834 H2826 0.929 . S
C2834 C2835 1.377 . S
C2834 C2836 1.384 . S
C2835 C2834 1.377 . S
C2835 C2841 1.390 . S
C2836 H2827 0.930 . S
C2836 C2834 1.384 . S
C2836 C2837 1.372 . S
C2837 C2836 1.372 . S
C2837 C2838 1.400 . S
C2837 C2842 1.490 . S
C2838 H2828 0.930 . S
C2838 C2837 1.400 . S
C2838 C2841 1.386 . S
H2839 C2855 0.930 . S
H2840 C2856 0.931 . S
C2841 H2829 0.929 . S
C2841 C2835 1.390 . S
C2841 C2838 1.386 . S
C2842 C2837 1.490 . S
C2842 C2844 1.395 . S
C2842 C2845 1.403 . S
H2843 C2849 0.930 . S
C2844 H2830 0.930 . S
C2844 C2842 1.395 . S
C2844 C2847 1.403 . S
C2845 C2842 1.403 . S
C2845 C2846 1.524 . S
C2845 C2849 1.400 . S
C2846 H2831 0.960 . S
C2846 H2832 0.960 . S
C2846 H2833 0.960 . S
C2846 C2845 1.524 . S
C2847 C2844 1.403 . S
C2847 C2848 1.392 . S
C2847 C2851 1.495 . S
C2848 C2847 1.392 . S
C2848 C2849 1.385 . S
C2848 C2850 1.478 . S
C2849 H2843 0.930 . S
C2849 C2845 1.400 . S
C2849 C2848 1.385 . S
C2850 C2848 1.478 . S
C2850 C2852 1.381 . S
C2850 C2856 1.383 . S
C2851 C2847 1.495 . S
C2851 H2857 0.959 . S
C2851 H2858 0.961 . S
C2851 H2859 0.960 . S
C2852 C2850 1.381 . S
C2852 C2853 1.394 . S
C2852 H2860 0.930 . S
C2853 C2852 1.394 . S
C2853 C2854 1.383 . S
C2853 H2861 0.929 . S
C2854 C2853 1.383 . S
C2854 C2855 1.377 . S
C2855 H2839 0.930 . S
C2855 C2854 1.377 . S
C2855 C2856 1.379 . S
C2856 H2840 0.931 . S
C2856 C2850 1.383 . S
C2856 C2855 1.379 . S
H2857 C2851 0.959 . S
H2858 C2851 0.961 . S
H2859 C2851 0.960 . S
H2860 C2852 0.930 . S
H2861 C2853 0.929 . S
H2862 C2870 0.929 . S
H2863 C2872 0.930 . S
H2864 C2874 0.930 . S
H2865 C2877 0.929 . S
H2866 C2880 0.930 . S
H2867 C2882 0.960 . S
H2868 C2882 0.960 . S
H2869 C2882 0.960 . S
C2870 H2862 0.929 . S
C2870 C2871 1.377 . S
C2870 C2872 1.384 . S
C2871 C2870 1.377 . S
C2871 C2877 1.390 . S
C2872 H2863 0.930 . S
C2872 C2870 1.384 . S
C2872 C2873 1.372 . S
C2873 C2872 1.372 . S
C2873 C2874 1.400 . S
C2873 C2878 1.490 . S
C2874 H2864 0.930 . S
C2874 C2873 1.400 . S
C2874 C2877 1.386 . S
H2875 C2891 0.930 . S
H2876 C2892 0.931 . S
C2877 H2865 0.929 . S
C2877 C2871 1.390 . S
C2877 C2874 1.386 . S
C2878 C2873 1.490 . S
C2878 C2880 1.395 . S
C2878 C2881 1.403 . S
H2879 C2885 0.930 . S
C2880 H2866 0.930 . S
C2880 C2878 1.395 . S
C2880 C2883 1.403 . S
C2881 C2878 1.403 . S
C2881 C2882 1.524 . S
C2881 C2885 1.400 . S
C2882 H2867 0.960 . S
C2882 H2868 0.960 . S
C2882 H2869 0.960 . S
C2882 C2881 1.524 . S
C2883 C2880 1.403 . S
C2883 C2884 1.392 . S
C2883 C2887 1.495 . S
C2884 C2883 1.392 . S
C2884 C2885 1.385 . S
C2884 C2886 1.478 . S
C2885 H2879 0.930 . S
C2885 C2881 1.400 . S
C2885 C2884 1.385 . S
C2886 C2884 1.478 . S
C2886 C2888 1.381 . S
C2886 C2892 1.383 . S
C2887 C2883 1.495 . S
C2887 H2893 0.959 . S
C2887 H2894 0.961 . S
C2887 H2895 0.960 . S
C2888 C2886 1.381 . S
C2888 C2889 1.394 . S
C2888 H2896 0.930 . S
C2889 C2888 1.394 . S
C2889 C2890 1.383 . S
C2889 H2897 0.929 . S
C2890 C2889 1.383 . S
C2890 C2891 1.377 . S
C2891 H2875 0.930 . S
C2891 C2890 1.377 . S
C2891 C2892 1.379 . S
C2892 H2876 0.931 . S
C2892 C2886 1.383 . S
C2892 C2891 1.379 . S
H2893 C2887 0.959 . S
H2894 C2887 0.961 . S
H2895 C2887 0.960 . S
H2896 C2888 0.930 . S
H2897 C2889 0.929 . S
H2898 C2906 0.929 . S
H2899 C2908 0.930 . S
H2900 C2910 0.930 . S
H2901 C2913 0.929 . S
H2902 C2916 0.930 . S
H2903 C2918 0.960 . S
H2904 C2918 0.960 . S
H2905 C2918 0.960 . S
C2906 H2898 0.929 . S
C2906 C2907 1.377 . S
C2906 C2908 1.384 . S
C2907 C2906 1.377 . S
C2907 C2913 1.390 . S
C2908 H2899 0.930 . S
C2908 C2906 1.384 . S
C2908 C2909 1.372 . S
C2909 C2908 1.372 . S
C2909 C2910 1.400 . S
C2909 C2914 1.490 . S
C2910 H2900 0.930 . S
C2910 C2909 1.400 . S
C2910 C2913 1.386 . S
H2911 C2927 0.930 . S
H2912 C2928 0.931 . S
C2913 H2901 0.929 . S
C2913 C2907 1.390 . S
C2913 C2910 1.386 . S
C2914 C2909 1.490 . S
C2914 C2916 1.395 . S
C2914 C2917 1.403 . S
H2915 C2921 0.930 . S
C2916 H2902 0.930 . S
C2916 C2914 1.395 . S
C2916 C2919 1.403 . S
C2917 C2914 1.403 . S
C2917 C2918 1.524 . S
C2917 C2921 1.400 . S
C2918 H2903 0.960 . S
C2918 H2904 0.960 . S
C2918 H2905 0.960 . S
C2918 C2917 1.524 . S
C2919 C2916 1.403 . S
C2919 C2920 1.392 . S
C2919 C2923 1.495 . S
C2920 C2919 1.392 . S
C2920 C2921 1.385 . S
C2920 C2922 1.478 . S
C2921 H2915 0.930 . S
C2921 C2917 1.400 . S
C2921 C2920 1.385 . S
C2922 C2920 1.478 . S
C2922 C2924 1.381 . S
C2922 C2928 1.383 . S
C2923 C2919 1.495 . S
C2923 H2929 0.959 . S
C2923 H2930 0.961 . S
C2923 H2931 0.960 . S
C2924 C2922 1.381 . S
C2924 C2925 1.394 . S
C2924 H2932 0.930 . S
C2925 C2924 1.394 . S
C2925 C2926 1.383 . S
C2925 H2933 0.929 . S
C2926 C2925 1.383 . S
C2926 C2927 1.377 . S
C2927 H2911 0.930 . S
C2927 C2926 1.377 . S
C2927 C2928 1.379 . S
C2928 H2912 0.931 . S
C2928 C2922 1.383 . S
C2928 C2927 1.379 . S
H2929 C2923 0.959 . S
H2930 C2923 0.961 . S
H2931 C2923 0.960 . S
H2932 C2924 0.930 . S
H2933 C2925 0.929 . S
H2934 C2942 0.929 . S
H2935 C2944 0.930 . S
H2936 C2946 0.930 . S
H2937 C2949 0.929 . S
H2938 C2952 0.930 . S
H2939 C2954 0.960 . S
H2940 C2954 0.960 . S
H2941 C2954 0.960 . S
C2942 H2934 0.929 . S
C2942 C2943 1.377 . S
C2942 C2944 1.384 . S
C2943 C2942 1.377 . S
C2943 C2949 1.390 . S
C2944 H2935 0.930 . S
C2944 C2942 1.384 . S
C2944 C2945 1.372 . S
C2945 C2944 1.372 . S
C2945 C2946 1.400 . S
C2945 C2950 1.490 . S
C2946 H2936 0.930 . S
C2946 C2945 1.400 . S
C2946 C2949 1.386 . S
H2947 C2963 0.930 . S
H2948 C2964 0.931 . S
C2949 H2937 0.929 . S
C2949 C2943 1.390 . S
C2949 C2946 1.386 . S
C2950 C2945 1.490 . S
C2950 C2952 1.395 . S
C2950 C2953 1.403 . S
H2951 C2957 0.930 . S
C2952 H2938 0.930 . S
C2952 C2950 1.395 . S
C2952 C2955 1.403 . S
C2953 C2950 1.403 . S
C2953 C2954 1.524 . S
C2953 C2957 1.400 . S
C2954 H2939 0.960 . S
C2954 H2940 0.960 . S
C2954 H2941 0.960 . S
C2954 C2953 1.524 . S
C2955 C2952 1.403 . S
C2955 C2956 1.392 . S
C2955 C2959 1.495 . S
C2956 C2955 1.392 . S
C2956 C2957 1.385 . S
C2956 C2958 1.478 . S
C2957 H2951 0.930 . S
C2957 C2953 1.400 . S
C2957 C2956 1.385 . S
C2958 C2956 1.478 . S
C2958 C2960 1.381 . S
C2958 C2964 1.383 . S
C2959 C2955 1.495 . S
C2959 H2965 0.959 . S
C2959 H2966 0.961 . S
C2959 H2967 0.960 . S
C2960 C2958 1.381 . S
C2960 C2961 1.394 . S
C2960 H2968 0.930 . S
C2961 C2960 1.394 . S
C2961 C2962 1.383 . S
C2961 H2969 0.929 . S
C2962 C2961 1.383 . S
C2962 C2963 1.377 . S
C2963 H2947 0.930 . S
C2963 C2962 1.377 . S
C2963 C2964 1.379 . S
C2964 H2948 0.931 . S
C2964 C2958 1.383 . S
C2964 C2963 1.379 . S
H2965 C2959 0.959 . S
H2966 C2959 0.961 . S
H2967 C2959 0.960 . S
H2968 C2960 0.930 . S
H2969 C2961 0.929 . S
H2970 C2978 0.929 . S
H2971 C2980 0.930 . S
H2972 C2982 0.930 . S
H2973 C2985 0.929 . S
H2974 C2988 0.930 . S
H2975 C2990 0.960 . S
H2976 C2990 0.960 . S
H2977 C2990 0.960 . S
C2978 H2970 0.929 . S
C2978 C2979 1.377 . S
C2978 C2980 1.384 . S
C2979 C2978 1.377 . S
C2979 C2985 1.390 . S
C2980 H2971 0.930 . S
C2980 C2978 1.384 . S
C2980 C2981 1.372 . S
C2981 C2980 1.372 . S
C2981 C2982 1.400 . S
C2981 C2986 1.490 . S
C2982 H2972 0.930 . S
C2982 C2981 1.400 . S
C2982 C2985 1.386 . S
H2983 C2999 0.930 . S
H2984 C3000 0.931 . S
C2985 H2973 0.929 . S
C2985 C2979 1.390 . S
C2985 C2982 1.386 . S
C2986 C2981 1.490 . S
C2986 C2988 1.395 . S
C2986 C2989 1.403 . S
H2987 C2993 0.930 . S
C2988 H2974 0.930 . S
C2988 C2986 1.395 . S
C2988 C2991 1.403 . S
C2989 C2986 1.403 . S
C2989 C2990 1.524 . S
C2989 C2993 1.400 . S
C2990 H2975 0.960 . S
C2990 H2976 0.960 . S
C2990 H2977 0.960 . S
C2990 C2989 1.524 . S
C2991 C2988 1.403 . S
C2991 C2992 1.392 . S
C2991 C2995 1.495 . S
C2992 C2991 1.392 . S
C2992 C2993 1.385 . S
C2992 C2994 1.478 . S
C2993 H2987 0.930 . S
C2993 C2989 1.400 . S
C2993 C2992 1.385 . S
C2994 C2992 1.478 . S
C2994 C2996 1.381 . S
C2994 C3000 1.383 . S
C2995 C2991 1.495 . S
C2995 H3001 0.959 . S
C2995 H3002 0.961 . S
C2995 H3003 0.960 . S
C2996 C2994 1.381 . S
C2996 C2997 1.394 . S
C2996 H3004 0.930 . S
C2997 C2996 1.394 . S
C2997 C2998 1.383 . S
C2997 H3005 0.929 . S
C2998 C2997 1.383 . S
C2998 C2999 1.377 . S
C2999 H2983 0.930 . S
C2999 C2998 1.377 . S
C2999 C3000 1.379 . S
C3000 H2984 0.931 . S
C3000 C2994 1.383 . S
C3000 C2999 1.379 . S
H3001 C2995 0.959 . S
H3002 C2995 0.961 . S
H3003 C2995 0.960 . S
H3004 C2996 0.930 . S
H3005 C2997 0.929 . S
C1071 C528 1.643 . S
C1090 C705 1.657 . S
C1107 C562 1.855 . S
C1126 C745 1.858 . S
C1143 C484 1.722 . S
C1162 C797 1.717 . S
C1179 C445 1.540 . S
C1198 C757 1.547 . S
C1234 C785 1.456 . S
C1215 C367 1.456 . S
C1251 C411 1.319 . S
C1270 C717 1.320 . S
C1306 C724 1.670 . S
C1287 C450 1.646 . S
C1342 C764 1.824 . S
C1323 C372 1.829 . S
C1359 C406 1.723 . S
C1378 C784 1.745 . S
C1395 C523 1.537 . S
C1414 C744 1.527 . S
C1431 C567 1.429 . S
C1450 C804 1.432 . S
C1486 C704 1.341 . S
C1467 C489 1.328 . S
C1522 C825 1.650 . S
C1503 C60 1.643 . S
C1539 C94 1.856 . S
C1558 C865 1.857 . S
C1575 C16 1.729 . S
C1594 C917 1.746 . S
C1611 C679 1.537 . S
C1630 C877 1.526 . S
C1647 C601 1.461 . S
C1666 C905 1.469 . S
C1683 C645 1.324 . S
C1702 C837 1.339 . S
C1719 C684 1.649 . S
C1738 C844 1.677 . S
C1755 C606 1.827 . S
C1774 C884 1.827 . S
C1810 C904 1.738 . S
C1791 C640 1.726 . S
C1827 C55 1.537 . S
C1846 C864 1.513 . S
C1882 C924 1.435 . S
C1863 C99 1.428 . S
C1899 C21 1.330 . S
C1918 C824 1.336 . S
C1954 C945 1.637 . S
C1935 C294 1.639 . S
C1971 C328 1.854 . S
C1990 C985 1.847 . S
C2026 C1037 1.725 . S
C2007 C250 1.726 . S
C2062 C997 1.521 . S
C2043 C211 1.535 . S
C2098 C1025 1.460 . S
C2079 C133 1.456 . S
C2115 C177 1.319 . S
C2134 C957 1.325 . S
C2151 C216 1.648 . S
C2170 C964 1.658 . S
C2187 C138 1.830 . S
C2206 C1004 1.833 . S
C2242 C1024 1.713 . S
C2223 C172 1.725 . S
C2259 C289 1.533 . S
C2278 C984 1.546 . S
C2295 C333 1.428 . S
C2314 C1044 1.437 . S
C2331 C255 1.334 . S
C2350 C944 1.333 . S
C2367 C586 1.264 . S
C2386 C728 1.246 . S
C2422 C768 1.883 . S
C2403 C625 1.906 . S
C2439 C664 1.574 . S
C2458 C791 1.572 . S
C2475 C235 1.916 . S
C2494 C751 1.922 . S
C2511 C274 1.560 . S
C2530 C808 1.566 . S
C2566 C711 1.261 . S
C2547 C313 1.261 . S
C2583 C118 1.264 . S
C2602 C848 1.252 . S
C2619 C157 1.905 . S
C2638 C888 1.907 . S
C2655 C196 1.574 . S
C2674 C911 1.572 . S
C2691 C469 1.916 . S
C2710 C871 1.919 . S
C2746 C928 1.559 . S
C2727 C508 1.560 . S
C2763 C547 1.259 . S
C2782 C831 1.240 . S
C2799 C352 1.264 . S
C2818 C968 1.245 . S
C2835 C391 1.906 . S
C2854 C1008 1.885 . S
C2890 C1031 1.586 . S
C2871 C430 1.577 . S
C2907 C1 1.916 . S
C2926 C991 1.920 . S
C2943 C40 1.560 . S
C2962 C1048 1.567 . S
C2979 C79 1.259 . S
C2998 C951 1.246 . S
