# Generated by pormake.
# Topology pts, (4,4)-cn, num edge types: 1
# Building blocks:
#     Node 0, Type 0, BuildingBlock: NAHDIM_clean_linker_0, # of connection points: 4
#     Node 1, Type 0, BuildingBlock: NAHDIM_clean_linker_0, # of connection points: 4
#     Node 2, Type 1, BuildingBlock: AZAVOO_clean_sbu_0, # of connection points: 4
#     Node 3, Type 1, BuildingBlock: AZAVOO_clean_sbu_0, # of connection points: 4
#     Edge 4, Type (0, 1), BuildingBlock: AJUNOK_clean_linker_0, # of connection points: 2
#     Edge 5, Type (0, 1), BuildingBlock: AJUNOK_clean_linker_0, # of connection points: 2
#     Edge 6, Type (0, 1), BuildingBlock: AJUNOK_clean_linker_0, # of connection points: 2
#     Edge 7, Type (0, 1), BuildingBlock: AJUNOK_clean_linker_0, # of connection points: 2
#     Edge 8, Type (0, 1), BuildingBlock: AJUNOK_clean_linker_0, # of connection points: 2
#     Edge 9, Type (0, 1), BuildingBlock: AJUNOK_clean_linker_0, # of connection points: 2
#     Edge 10, Type (0, 1), BuildingBlock: AJUNOK_clean_linker_0, # of connection points: 2
#     Edge 11, Type (0, 1), BuildingBlock: AJUNOK_clean_linker_0, # of connection points: 2
# Relax obj value: 0.017
# Max RMSD: 0.067
# Mean RMSD: 0.061
data_MOF--net-pts--node1-AZAVOO_clean_sbu_0--node2-NAHDIM_clean_linker_0--edge1-AJUNOK_clean_linker_0
_symmetry_space_group_name_H-M    P1
_symmetry_Int_Tables_number       1
_symmetry_cell_setting            triclinic
loop_
_symmetry_equiv_pos_as_xyz
'x, y, z'
_cell_length_a     25.870088
_cell_length_b     26.504732
_cell_length_c     43.201742
_cell_angle_alpha  90.251763
_cell_angle_beta   96.150758
_cell_angle_gamma 89.937017
loop_
_atom_site_label
_atom_site_type_symbol
_atom_site_fract_x
_atom_site_fract_y
_atom_site_fract_z
_atom_type_partial_charge
C0 C 0.83967 0.1151 0.14129 0.0
C1 C 0.81449 0.07661 0.16144 0.0
C2 C 0.74615 0.03501 0.12598 0.0
C3 C 0.73141 0.98958 0.11107 0.0
C4 C 0.68329 0.98458 0.09292 0.0
C5 C 0.64913 0.02637 0.08937 0.0
C6 C 0.66377 0.07264 0.10422 0.0
C7 C 0.71203 0.07654 0.1224 0.0
C8 C 0.66888 0.93456 0.07756 0.0
C9 C 0.62836 0.11802 0.10081 0.0
C10 C 0.39814 0.97934 0.19945 0.0
C11 C 0.35742 0.00966 0.17885 0.0
C12 C 0.38207 0.99113 0.12772 0.0
C13 C 0.39613 0.03848 0.11704 0.0
C14 C 0.43481 0.04294 0.0968 0.0
C15 C 0.45996 -0.00096 0.08711 0.0
C16 C 0.44403 0.95101 0.09667 0.0
C17 C 0.40473 0.94763 0.11668 0.0
C18 C 0.44992 0.09473 0.08651 0.0
C19 C 0.4697 0.9035 0.08655 0.0
C20 C 0.34155 0.97985 0.88121 0.0
C21 C 0.34799 0.02774 0.89505 0.0
C22 C 0.3946 0.04072 0.91308 0.0
C23 C 0.43525 0.00479 0.91759 0.0
C24 C 0.42908 0.95683 0.90312 0.0
C25 C 0.38248 0.94527 0.88474 0.0
C26 C 0.40052 0.09284 0.92719 0.0
C27 C 0.47162 0.91767 0.90724 0.0
C28 C 0.81474 0.17363 0.90029 0.0
C29 C 0.78982 0.1247 0.8871 0.0
C30 C 0.69807 0.11037 0.89317 0.0
C31 C 0.65571 0.13969 0.89969 0.0
C32 C 0.6151 0.11888 0.91454 0.0
C33 C 0.61624 0.06693 0.92211 0.0
C34 C 0.65781 0.03642 0.91405 0.0
C35 C 0.69863 0.0586 0.89989 0.0
C36 C 0.57134 0.15263 0.9225 0.0
C37 C 0.65922 0.98055 0.92059 0.0
C38 C 0.598 0.02145 0.07026 0.0
C39 C 0.55433 0.01053 0.0855 0.0
C40 C 0.50528 0.00412 0.0689 0.0
C41 C 0.49985 0.00629 0.036 0.0
C42 C 0.45194 -0.00339 0.01843 0.0
C43 C 0.44704 -0.00094 0.98604 0.0
C44 C 0.48937 0.01315 0.97005 0.0
C45 C 0.48442 0.01733 0.9372 0.0
C46 C 0.52679 0.03359 0.92227 0.0
C47 C 0.57449 0.04527 0.93916 0.0
C48 C 0.58078 0.03923 0.97189 0.0
C49 C 0.62862 0.04909 0.98958 0.0
C50 C 0.63459 0.04252 0.02171 0.0
C51 C 0.5925 0.02751 0.03756 0.0
C52 C 0.54348 0.01888 0.02032 0.0
C53 C 0.53793 0.02355 0.98738 0.0
C54 C 0.23403 0.92556 0.89096 0.0
C55 C 0.24726 0.97192 0.87233 0.0
O56 O 0.79341 0.03686 0.14329 0.0
O57 O 0.73698 0.13299 0.87968 0.0
O58 O 0.29703 0.96656 0.86353 0.0
O59 O 0.3486 0.98694 0.14974 0.0
H60 H 0.78319 0.09594 0.17273 0.0
H61 H 0.81012 0.13154 0.12369 0.0
H62 H 0.87028 0.09716 0.12881 0.0
H63 H 0.8573 0.14636 0.15605 0.0
H64 H 0.75784 0.95777 0.11383 0.0
H65 H 0.72261 0.11222 0.13349 0.0
H66 H 0.63102 0.92151 0.0845 0.0
H67 H 0.69865 0.90502 0.08377 0.0
H68 H 0.66419 0.93915 0.05188 0.0
H69 H 0.64677 0.1523 0.11201 0.0
H70 H 0.5922 0.1099 0.11157 0.0
H71 H 0.6171 0.12593 0.07577 0.0
H72 H 0.37294 0.04837 0.17635 0.0
H73 H 0.40556 -0.00302 0.22288 0.0
H74 H 0.43542 0.97851 0.18888 0.0
H75 H 0.38471 0.93991 0.20203 0.0
H76 H 0.37735 0.072 0.12493 0.0
H77 H 0.39321 0.91119 0.1249 0.0
H78 H 0.44763 0.09605 0.06072 0.0
H79 H 0.4908 0.10273 0.09577 0.0
H80 H 0.42465 0.12485 0.09466 0.0
H81 H 0.4513 0.86892 0.09481 0.0
H82 H 0.51144 0.90371 0.0958 0.0
H83 H 0.46771 0.90215 0.06076 0.0
H84 H 0.24524 0.00569 0.8875 0.0
H85 H 0.31711 0.05535 0.89128 0.0
H86 H 0.37734 0.90869 0.87353 0.0
H87 H 0.40382 0.0901 0.95295 0.0
H88 H 0.36708 0.11773 0.91942 0.0
H89 H 0.43676 0.11062 0.92085 0.0
H90 H 0.45952 0.8811 0.89608 0.0
H91 H 0.48322 0.91127 0.93242 0.0
H92 H 0.50637 0.93159 0.8969 0.0
H93 H 0.79658 0.09554 0.90558 0.0
H94 H 0.85696 0.16814 0.90724 0.0
H95 H 0.79627 0.18545 0.92123 0.0
H96 H 0.80945 0.20427 0.88275 0.0
H97 H 0.65531 0.17943 0.89386 0.0
H98 H 0.73055 0.03547 0.89371 0.0
H99 H 0.56623 0.14927 0.9476 0.0
H100 H 0.53447 0.14049 0.90902 0.0
H101 H 0.57826 0.19289 0.91719 0.0
H102 H 0.69063 0.9611 0.90953 0.0
H103 H 0.62135 0.96306 0.91202 0.0
H104 H 0.66571 0.97435 0.94609 0.0
H105 H 0.55843 0.00781 0.1107 0.0
H106 H 0.41787 0.98641 0.02953 0.0
H107 H 0.40938 0.99056 0.97372 0.0
H108 H 0.52237 0.03786 0.89715 0.0
H109 H 0.66223 0.0615 0.97878 0.0
H110 H 0.67247 0.05012 0.03404 0.0
H111 H 0.19443 0.92921 0.89846 0.0
H112 H 0.26222 0.92197 0.91211 0.0
H113 H 0.23583 0.89072 0.8767 0.0
C114 C 0.11406 0.33288 0.70058 0.0
C115 C 0.07783 0.31076 0.67362 0.0
C116 C 0.08593 0.35097 0.6237 0.0
C117 C 0.03358 0.35884 0.61271 0.0
C118 C 0.01933 0.39631 0.59053 0.0
C119 C 0.05831 0.42654 0.57926 0.0
C120 C 0.11129 0.4172 0.58942 0.0
C121 C 0.12443 0.37885 0.61119 0.0
C122 C 0.96254 0.40444 0.57971 0.0
C123 C 0.15385 0.44888 0.57811 0.0
C124 C 0.89386 0.71456 0.65904 0.0
C125 C 0.95094 0.72848 0.65698 0.0
C126 C 0.97335 0.68777 0.61005 0.0
C127 C 0.0252 0.67803 0.6059 0.0
C128 C 0.03868 0.63603 0.58853 0.0
C129 C -0.00086 0.60318 0.57521 0.0
C130 C 0.94653 0.61326 0.57927 0.0
C131 C 0.93419 0.65612 0.59619 0.0
C132 C 0.09507 0.62675 0.58438 0.0
C133 C 0.90341 0.57883 0.56573 0.0
C134 C 0.92807 0.67097 0.36792 0.0
C135 C 0.97899 0.6776 0.382 0.0
C136 C 0.00391 0.63935 0.40051 0.0
C137 C 0.97637 0.59459 0.40592 0.0
C138 C 0.92471 0.58834 0.39185 0.0
C139 C 0.90175 0.62619 0.37239 0.0
C140 C 0.0596 0.64666 0.41408 0.0
C141 C 0.89359 0.54165 0.39718 0.0
C142 C 0.18372 0.30955 0.33026 0.0
C143 C 0.14843 0.28547 0.35247 0.0
C144 C 0.08863 0.3479 0.3713 0.0
C145 C 0.12546 0.37863 0.3886 0.0
C146 C 0.10961 0.41768 0.40759 0.0
C147 C 0.05593 0.42526 0.40991 0.0
C148 C 0.01896 0.3932 0.39323 0.0
C149 C 0.03586 0.3556 0.37371 0.0
C150 C 0.15017 0.45174 0.42445 0.0
C151 C 0.9614 0.39925 0.39511 0.0
C152 C 0.04323 0.47084 0.55933 0.0
C153 C 0.02929 0.51489 0.57429 0.0
C154 C 0.01298 0.55792 0.55745 0.0
C155 C 0.01006 0.55723 0.52458 0.0
C156 C 0.99221 0.59933 0.50684 0.0
C157 C 0.98845 0.59796 0.47448 0.0
C158 C 0.00437 0.55518 0.45863 0.0
C159 C 0.00136 0.5537 0.42575 0.0
C160 C 0.01918 0.51115 0.41087 0.0
C161 C 0.03827 0.46895 0.42777 0.0
C162 C 0.0393 0.46881 0.4606 0.0
C163 C 0.05531 0.42603 0.47829 0.0
C164 C 0.05622 0.42638 0.5106 0.0
C165 C 0.04182 0.46974 0.52649 0.0
C166 C 0.02513 0.51317 0.50908 0.0
C167 C 0.02319 0.51247 0.47609 0.0
C168 C 0.84395 0.77501 0.34712 0.0
C169 C 0.89898 0.7569 0.35805 0.0
O170 O 0.10043 0.3165 0.64612 0.0
O171 O 0.10197 0.31178 0.3512 0.0
O172 O 0.90373 0.70687 0.34948 0.0
O173 O 0.96117 0.72926 0.62612 0.0
H174 H 0.04069 0.33225 0.67274 0.0
H175 H 0.12033 0.37366 0.69648 0.0
H176 H 0.1524 0.31355 0.7027 0.0
H177 H 0.09654 0.32891 0.72283 0.0
H178 H 0.00387 0.33578 0.62149 0.0
H179 H 0.1648 0.37179 0.6195 0.0
H180 H 0.94969 0.44091 0.58906 0.0
H181 H 0.93766 0.37392 0.58757 0.0
H182 H 0.95658 0.40656 0.55391 0.0
H183 H 0.19311 0.43724 0.5886 0.0
H184 H 0.14774 0.48917 0.58389 0.0
H185 H 0.15239 0.44583 0.55241 0.0
H186 H 0.97626 0.69974 0.66985 0.0
H187 H 0.88378 0.71844 0.6833 0.0
H188 H 0.88679 0.67466 0.65202 0.0
H189 H 0.86774 0.73932 0.64367 0.0
H190 H 0.05501 0.70345 0.61629 0.0
H191 H 0.89395 0.66506 0.59854 0.0
H192 H 0.09981 0.6224 0.55926 0.0
H193 H 0.10808 0.59103 0.5961 0.0
H194 H 0.12065 0.65783 0.59421 0.0
H195 H 0.86516 0.58948 0.57332 0.0
H196 H 0.91227 0.53923 0.57274 0.0
H197 H 0.90041 0.5803 0.53993 0.0
H198 H 0.90381 0.76008 0.38397 0.0
H199 H -0.00046 0.71213 0.37796 0.0
H200 H 0.86252 0.62152 0.36117 0.0
H201 H 0.06125 0.65137 0.4397 0.0
H202 H 0.07753 0.68037 0.40439 0.0
H203 H 0.08309 0.61288 0.40949 0.0
H204 H 0.85152 0.5468 0.38956 0.0
H205 H 0.89829 0.531 0.42215 0.0
H206 H 0.90805 0.50994 0.38368 0.0
H207 H 0.16954 0.28729 0.37631 0.0
H208 H 0.2198 0.28698 0.32958 0.0
H209 H 0.19512 0.34812 0.33838 0.0
H210 H 0.16316 0.31278 0.30642 0.0
H211 H 0.16645 0.37342 0.38665 0.0
H212 H 0.00772 0.33178 0.36021 0.0
H213 H 0.1502 0.44698 0.44996 0.0
H214 H 0.14076 0.49182 0.41897 0.0
H215 H 0.18988 0.44351 0.41819 0.0
H216 H 0.93996 0.36378 0.38868 0.0
H217 H 0.9463 0.42887 0.37847 0.0
H218 H 0.95316 0.41087 0.41881 0.0
H219 H 0.03086 0.5156 0.5995 0.0
H220 H 0.98028 0.63365 0.51775 0.0
H221 H 0.97345 0.63117 0.46208 0.0
H222 H 0.01726 0.51051 0.38565 0.0
H223 H 0.06706 0.39171 0.46729 0.0
H224 H 0.06871 0.39236 0.52304 0.0
H225 H 0.83608 0.77221 0.32137 0.0
H226 H 0.83875 0.81482 0.35435 0.0
H227 H 0.81515 0.75137 0.35772 0.0
Mg228 Mg 0.09001 0.97074 0.28643 0.0
O229 O 0.0149 0.9951 0.25647 0.0
O230 O 0.95552 0.00943 0.28953 0.0
Mg231 Mg 0.99002 0.99101 0.33925 0.0
C232 C 0.96919 0.0084 0.26196 0.0
C233 C 0.18318 0.00647 0.254 0.0
O234 O 0.19439 0.02151 0.28295 0.0
O235 O 0.1018 0.05196 0.30372 0.0
O236 O 0.04416 0.05973 0.33844 0.0
O237 O 0.06504 0.88969 0.28254 0.0
O238 O 0.04652 0.94174 0.31976 0.0
C239 C 0.0814 0.07724 0.32452 0.0
C240 C 0.0411 0.89795 0.30691 0.0
O241 O 0.14039 0.98363 0.24655 0.0
Mg242 Mg 0.96888 0.01609 0.7364 0.0
O243 O 0.04559 0.00125 0.76646 0.0
O244 O 0.10573 0.97648 0.73638 0.0
Mg245 Mg 0.06661 0.97721 0.68605 0.0
C246 C 0.09183 0.98718 0.76313 0.0
C247 C 0.88984 0.06603 0.77675 0.0
O248 O 0.86141 0.06387 0.74968 0.0
O249 O 0.00117 0.09056 0.72055 0.0
O250 O 0.05881 0.06393 0.68904 0.0
O251 O 0.9472 0.93551 0.73977 0.0
O252 O 0.98915 0.96634 0.70201 0.0
C253 C 0.03528 0.09948 0.70195 0.0
C254 C 0.97013 0.92784 0.71496 0.0
O255 O 0.93695 0.0517 0.77852 0.0
C256 C 0.26973 0.97502 0.19085 0.0
C257 C 0.30773 0.01329 0.19459 0.0
C258 C 0.22754 0.97461 0.20885 0.0
C259 C 0.22262 0.01169 0.23177 0.0
H260 H 0.27351 0.94425 0.17467 0.0
H261 H 0.20018 0.9436 0.20591 0.0
S262 S 0.30986 0.12137 0.24965 0.0
N263 N 0.33601 0.09041 0.22197 0.0
N264 N 0.25743 0.08919 0.25594 0.0
C265 C 0.25934 0.0509 0.23505 0.0
C266 C 0.30176 0.0517 0.21652 0.0
C267 C 0.02162 0.24165 0.69237 0.0
C268 C 0.0673 0.25549 0.67954 0.0
C269 C 0.01178 0.19133 0.69971 0.0
C270 C 0.04727 0.15267 0.69455 0.0
H271 H 0.99327 0.2701 0.69693 0.0
H272 H 0.97582 0.1827 0.7093 0.0
S273 S 0.1747 0.16951 0.66355 0.0
N274 N 0.14974 0.22684 0.66357 0.0
N275 N 0.13125 0.13224 0.67702 0.0
C276 C 0.09354 0.16609 0.68212 0.0
C277 C 0.10363 0.21743 0.67481 0.0
C278 C 0.85242 0.07266 0.21789 0.0
C279 C 0.85436 0.05674 0.18692 0.0
C280 C 0.88943 0.05647 0.24184 0.0
C281 C 0.93059 0.0243 0.23585 0.0
H282 H 0.82205 0.09806 0.2237 0.0
H283 H 0.88609 0.07002 0.26524 0.0
S284 S 0.95313 0.97112 0.15879 0.0
N285 N 0.90045 0.00619 0.15159 0.0
N286 N 0.97067 0.97648 0.19655 0.0
C287 C 0.9332 0.00813 0.20497 0.0
C288 C 0.89502 0.02415 0.18057 0.0
C289 C 0.96134 0.8241 0.65423 0.0
C290 C 0.96243 0.77969 0.67217 0.0
C291 C 0.96681 0.87177 0.66838 0.0
C292 C 0.97175 0.87704 0.70095 0.0
H293 H 0.95508 0.82231 0.62907 0.0
H294 H 0.96464 0.90486 0.65366 0.0
S295 S 0.97876 0.77324 0.75846 0.0
N296 N 0.9715 0.74438 0.72431 0.0
N297 N 0.97953 0.83422 0.75082 0.0
C298 C 0.97378 0.83323 0.71918 0.0
C299 C 0.96955 0.7846 0.70481 0.0
C300 C 0.21534 0.95443 0.81537 0.0
C301 C 0.20769 0.97774 0.8439 0.0
C302 C 0.17793 0.95797 0.78942 0.0
C303 C 0.13076 0.98396 0.79107 0.0
H304 H 0.25043 0.93308 0.81303 0.0
H305 H 0.1859 0.93956 0.76801 0.0
S306 S 0.09062 0.04928 0.86101 0.0
N307 N 0.14875 0.02623 0.87257 0.0
N308 N 0.07822 0.03256 0.82412 0.0
C309 C 0.12222 0.00663 0.81968 0.0
C310 C 0.16058 0.00343 0.84597 0.0
C311 C 0.14254 0.2064 0.31712 0.0
C312 C 0.13543 0.23018 0.34571 0.0
C313 C 0.12617 0.15661 0.31086 0.0
C314 C 0.10084 0.12887 0.33246 0.0
H315 H 0.16027 0.22598 0.29909 0.0
H316 H 0.13221 0.14025 0.2885 0.0
S317 S 0.07322 0.17321 0.41071 0.0
N318 N 0.10213 0.22153 0.39585 0.0
N319 N 0.07059 0.12842 0.38391 0.0
C320 C 0.09376 0.15191 0.36113 0.0
C321 C 0.1111 0.2023 0.36769 0.0
C322 C 0.79422 0.12197 0.82841 0.0
C323 C 0.81529 0.10814 0.85861 0.0
C324 C 0.81873 0.10835 0.80217 0.0
C325 C 0.86598 0.08154 0.80507 0.0
H326 H 0.75849 0.14349 0.82491 0.0
H327 H 0.80061 0.11934 0.77943 0.0
S328 S 0.93881 0.0388 0.87911 0.0
N329 N 0.88695 0.06747 0.88994 0.0
N330 N 0.93363 0.04277 0.84077 0.0
C331 C 0.88816 0.06856 0.83518 0.0
C332 C 0.86276 0.08175 0.86185 0.0
C333 C 0.95995 0.83113 0.36209 0.0
C334 C 0.93862 0.79001 0.34448 0.0
C335 C 0.99334 0.8653 0.34973 0.0
C336 C 0.00682 0.85987 0.3192 0.0
H337 H 0.9501 0.83738 0.38555 0.0
H338 H 0.00858 0.89636 0.36432 0.0
S339 S 0.96023 0.75949 0.26291 0.0
N340 N 0.93225 0.74642 0.29454 0.0
N341 N 0.99582 0.81037 0.2714 0.0
C342 C 0.98608 0.81877 0.30128 0.0
C343 C 0.95163 0.78406 0.31383 0.0
loop_
_geom_bond_atom_site_label_1
_geom_bond_atom_site_label_2
_geom_bond_distance
_geom_bond_site_symmetry_2
_ccdc_geom_bond_type
C0 C1 1.560 . S
C0 H61 0.959 . S
C0 H62 0.959 . S
C0 H63 0.960 . S
C1 C0 1.560 . S
C1 O56 1.426 . S
C1 H60 0.980 . S
C2 C3 1.407 1_545 S
C2 C7 1.418 . S
C2 O56 1.334 . S
C3 C2 1.407 1_565 S
C3 C4 1.360 . S
C3 H64 0.929 . S
C4 C3 1.360 . S
C4 C5 1.401 1_565 S
C4 C8 1.527 . S
C5 C4 1.401 1_545 S
C5 C6 1.405 . S
C5 C38 1.587 1_545 S
C6 C5 1.405 . S
C6 C7 1.332 . S
C6 C9 1.496 . S
C7 C2 1.418 . S
C7 C6 1.332 . S
C7 H65 0.929 . S
C8 C4 1.527 . S
C8 H66 0.959 . S
C8 H67 0.961 . S
C8 H68 0.961 . S
C9 C6 1.496 . S
C9 H69 0.960 . S
C9 H70 0.960 . S
C9 H71 0.961 . S
C10 C11 1.517 . S
C10 H73 0.961 1_565 S
C10 H74 0.960 . S
C10 H75 0.959 . S
C11 C10 1.517 . S
C11 O59 1.468 . S
C11 H72 0.980 1_565 S
C12 C13 1.349 1_565 S
C12 C17 1.367 . S
C12 O59 1.408 . S
C13 C12 1.349 1_545 S
C13 C14 1.407 . S
C13 H76 0.930 . S
C14 C13 1.407 . S
C14 C15 1.449 1_545 S
C14 C18 1.535 . S
C15 C14 1.449 1_565 S
C15 C16 1.384 . S
C15 C40 1.553 . S
C16 C15 1.384 . S
C16 C17 1.364 . S
C16 C19 1.450 . S
C17 C12 1.367 . S
C17 C16 1.364 . S
C17 H77 0.931 . S
C18 C14 1.535 . S
C18 H78 0.959 . S
C18 H79 0.961 . S
C18 H80 0.959 . S
C19 C16 1.450 . S
C19 H81 0.960 . S
C19 H82 0.960 . S
C19 H83 0.960 . S
C20 C21 1.309 1_565 S
C20 C25 1.304 . S
C20 O58 1.435 . S
C21 C20 1.309 1_545 S
C21 C22 1.476 . S
C21 H85 0.930 . S
C22 C21 1.476 . S
C22 C23 1.400 1_545 S
C22 C26 1.567 . S
C23 C22 1.400 1_565 S
C23 C24 1.373 . S
C23 C45 1.432 . S
C24 C23 1.373 . S
C24 C25 1.339 . S
C24 C27 1.530 . S
C25 C20 1.304 . S
C25 C24 1.339 . S
C25 H86 0.930 . S
C26 C22 1.567 . S
C26 H87 0.961 . S
C26 H88 0.960 . S
C26 H89 0.958 . S
C27 C24 1.530 . S
C27 H90 0.961 . S
C27 H91 0.960 . S
C27 H92 0.960 . S
C28 C29 1.530 . S
C28 H94 0.961 . S
C28 H95 0.961 . S
C28 H96 0.959 . S
C29 C28 1.530 . S
C29 O57 1.412 . S
C29 H93 0.980 . S
C30 C31 1.288 . S
C30 C35 1.377 1_545 S
C30 O57 1.393 . S
C31 C30 1.288 . S
C31 C32 1.369 . S
C31 H97 0.932 . S
C32 C31 1.369 . S
C32 C33 1.398 . S
C32 C36 1.527 . S
C33 C32 1.398 . S
C33 C34 1.380 1_545 S
C33 C47 1.497 . S
C34 C33 1.380 1_565 S
C34 C35 1.383 . S
C34 C37 1.603 . S
C35 C30 1.377 1_565 S
C35 C34 1.383 . S
C35 H98 0.929 . S
C36 C32 1.527 . S
C36 H99 0.961 . S
C36 H100 0.959 . S
C36 H101 0.959 . S
C37 C34 1.603 . S
C37 H102 0.960 . S
C37 H103 0.962 . S
C37 H104 0.961 . S
C38 C5 1.587 1_565 S
C38 C39 1.360 . S
C38 C51 1.412 . S
C39 C38 1.360 . S
C39 C40 1.365 . S
C39 H105 0.929 . S
C40 C15 1.553 . S
C40 C39 1.365 . S
C40 C41 1.404 . S
C41 C40 1.404 . S
C41 C42 1.395 . S
C41 C52 1.451 . S
C42 C41 1.395 . S
C42 C43 1.322 1_554 S
C42 H106 0.930 . S
C43 C42 1.322 1_556 S
C43 C44 1.459 . S
C43 H107 0.929 . S
C44 C43 1.459 . S
C44 C45 1.445 . S
C44 C53 1.395 . S
C45 C23 1.432 . S
C45 C44 1.445 . S
C45 C46 1.370 . S
C46 C45 1.370 . S
C46 C47 1.438 1_565 S
C46 H108 0.930 . S
C47 C33 1.497 . S
C47 C46 1.438 1_545 S
C47 C48 1.360 1_545 S
C48 C47 1.360 1_565 S
C48 C49 1.401 1_565 S
C48 C53 1.446 . S
C49 C48 1.401 1_545 S
C49 C50 1.347 1_556 S
C49 H109 0.929 . S
C50 C49 1.347 1_554 S
C50 C51 1.455 1_545 S
C50 H110 0.930 . S
C51 C38 1.412 . S
C51 C50 1.455 1_565 S
C51 C52 1.331 . S
C52 C41 1.451 . S
C52 C51 1.331 . S
C52 C53 1.497 1_554 S
C53 C44 1.395 . S
C53 C48 1.446 . S
C53 C52 1.497 1_556 S
C54 C55 1.572 1_565 S
C54 H111 0.962 . S
C54 H112 0.959 . S
C54 H113 0.958 . S
C55 C54 1.572 1_545 S
C55 O58 1.444 1_545 S
C55 H84 0.986 . S
O56 C1 1.426 . S
O56 C2 1.334 . S
O57 C29 1.412 . S
O57 C30 1.393 . S
O58 C20 1.435 . S
O58 C55 1.444 1_565 S
O59 C11 1.468 . S
O59 C12 1.408 . S
H60 C1 0.980 . S
H61 C0 0.959 . S
H62 C0 0.959 . S
H63 C0 0.960 . S
H64 C3 0.929 . S
H65 C7 0.929 . S
H66 C8 0.959 . S
H67 C8 0.961 . S
H68 C8 0.961 . S
H69 C9 0.960 . S
H70 C9 0.960 . S
H71 C9 0.961 . S
H72 C11 0.980 1_545 S
H73 C10 0.961 1_545 S
H74 C10 0.960 . S
H75 C10 0.959 . S
H76 C13 0.930 . S
H77 C17 0.931 . S
H78 C18 0.959 . S
H79 C18 0.961 . S
H80 C18 0.959 . S
H81 C19 0.960 . S
H82 C19 0.960 . S
H83 C19 0.960 . S
H84 C55 0.986 . S
H85 C21 0.930 . S
H86 C25 0.930 . S
H87 C26 0.961 . S
H88 C26 0.960 . S
H89 C26 0.958 . S
H90 C27 0.961 . S
H91 C27 0.960 . S
H92 C27 0.960 . S
H93 C29 0.980 . S
H94 C28 0.961 . S
H95 C28 0.961 . S
H96 C28 0.959 . S
H97 C31 0.932 . S
H98 C35 0.929 . S
H99 C36 0.961 . S
H100 C36 0.959 . S
H101 C36 0.959 . S
H102 C37 0.960 . S
H103 C37 0.962 . S
H104 C37 0.961 . S
H105 C39 0.929 . S
H106 C42 0.930 . S
H107 C43 0.929 . S
H108 C46 0.930 . S
H109 C49 0.929 . S
H110 C50 0.930 . S
H111 C54 0.962 . S
H112 C54 0.959 . S
H113 C54 0.958 . S
C114 C115 1.560 . S
C114 H175 0.959 . S
C114 H176 0.959 . S
C114 H177 0.960 . S
C115 C114 1.560 . S
C115 O170 1.426 . S
C115 H174 0.980 . S
C116 C117 1.407 . S
C116 C121 1.418 . S
C116 O170 1.334 . S
C117 C116 1.407 . S
C117 C118 1.360 1_455 S
C117 H178 0.929 1_455 S
C118 C117 1.360 1_655 S
C118 C119 1.401 1_655 S
C118 C122 1.527 . S
C119 C118 1.401 1_455 S
C119 C120 1.405 . S
C119 C152 1.587 . S
C120 C119 1.405 . S
C120 C121 1.332 . S
C120 C123 1.496 . S
C121 C116 1.418 . S
C121 C120 1.332 . S
C121 H179 0.929 . S
C122 C118 1.527 . S
C122 H180 0.959 . S
C122 H181 0.961 . S
C122 H182 0.961 . S
C123 C120 1.496 . S
C123 H183 0.960 . S
C123 H184 0.960 . S
C123 H185 0.961 . S
C124 C125 1.517 . S
C124 H187 0.961 1_655 S
C124 H188 0.960 . S
C124 H189 0.959 . S
C125 C124 1.517 . S
C125 O173 1.468 . S
C125 H186 0.980 1_655 S
C126 C127 1.349 1_655 S
C126 C131 1.367 . S
C126 O173 1.408 . S
C127 C126 1.349 1_455 S
C127 C128 1.407 . S
C127 H190 0.930 . S
C128 C127 1.407 . S
C128 C129 1.449 1_455 S
C128 C132 1.535 . S
C129 C128 1.449 1_655 S
C129 C130 1.384 . S
C129 C154 1.553 . S
C130 C129 1.384 . S
C130 C131 1.364 . S
C130 C133 1.450 . S
C131 C126 1.367 . S
C131 C130 1.364 . S
C131 H191 0.931 . S
C132 C128 1.535 . S
C132 H192 0.959 . S
C132 H193 0.961 . S
C132 H194 0.959 . S
C133 C130 1.450 . S
C133 H195 0.960 . S
C133 H196 0.960 . S
C133 H197 0.960 . S
C134 C135 1.309 . S
C134 C139 1.304 1_455 S
C134 O172 1.435 . S
C135 C134 1.309 . S
C135 C136 1.476 . S
C135 H199 0.930 . S
C136 C135 1.476 . S
C136 C137 1.400 . S
C136 C140 1.567 . S
C137 C136 1.400 . S
C137 C138 1.373 1_455 S
C137 C159 1.432 . S
C138 C137 1.373 1_655 S
C138 C139 1.339 . S
C138 C141 1.530 . S
C139 C134 1.304 1_655 S
C139 C138 1.339 . S
C139 H200 0.930 . S
C140 C136 1.567 . S
C140 H201 0.961 . S
C140 H202 0.960 . S
C140 H203 0.958 . S
C141 C138 1.530 . S
C141 H204 0.961 . S
C141 H205 0.960 . S
C141 H206 0.960 . S
C142 C143 1.530 . S
C142 H208 0.961 . S
C142 H209 0.961 . S
C142 H210 0.959 . S
C143 C142 1.530 . S
C143 O171 1.412 . S
C143 H207 0.980 . S
C144 C145 1.288 . S
C144 C149 1.377 . S
C144 O171 1.393 . S
C145 C144 1.288 . S
C145 C146 1.369 . S
C145 H211 0.932 . S
C146 C145 1.369 . S
C146 C147 1.398 . S
C146 C150 1.527 . S
C147 C146 1.398 . S
C147 C148 1.380 . S
C147 C161 1.497 . S
C148 C147 1.380 . S
C148 C149 1.383 . S
C148 C151 1.603 1_455 S
C149 C144 1.377 . S
C149 C148 1.383 . S
C149 H212 0.929 . S
C150 C146 1.527 . S
C150 H213 0.961 . S
C150 H214 0.959 . S
C150 H215 0.959 . S
C151 C148 1.603 1_655 S
C151 H216 0.960 . S
C151 H217 0.962 . S
C151 H218 0.961 . S
C152 C119 1.587 . S
C152 C153 1.360 1_455 S
C152 C165 1.412 . S
C153 C152 1.360 1_655 S
C153 C154 1.365 . S
C153 H219 0.929 . S
C154 C129 1.553 . S
C154 C153 1.365 . S
C154 C155 1.404 . S
C155 C154 1.404 . S
C155 C156 1.395 . S
C155 C166 1.451 1_655 S
C156 C155 1.395 . S
C156 C157 1.319 1_655 S
C156 H220 0.930 . S
C157 C156 1.319 1_455 S
C157 C158 1.462 . S
C157 H221 0.929 1_455 S
C158 C157 1.462 . S
C158 C159 1.445 . S
C158 C167 1.395 . S
C159 C137 1.432 . S
C159 C158 1.445 . S
C159 C160 1.370 . S
C160 C159 1.370 . S
C160 C161 1.438 . S
C160 H222 0.930 . S
C161 C147 1.497 . S
C161 C160 1.438 . S
C161 C162 1.360 . S
C162 C161 1.360 . S
C162 C163 1.401 . S
C162 C167 1.446 . S
C163 C162 1.401 . S
C163 C164 1.347 . S
C163 H223 0.929 . S
C164 C163 1.347 . S
C164 C165 1.455 . S
C164 H224 0.930 . S
C165 C152 1.412 . S
C165 C164 1.455 . S
C165 C166 1.331 . S
C166 C155 1.451 1_455 S
C166 C165 1.331 . S
C166 C167 1.497 . S
C167 C158 1.395 . S
C167 C162 1.446 . S
C167 C166 1.497 . S
C168 C169 1.582 . S
C168 H225 0.962 . S
C168 H226 0.959 . S
C168 H227 0.958 1_455 S
C169 C168 1.582 . S
C169 O172 1.458 . S
C169 H198 0.980 . S
O170 C115 1.426 . S
O170 C116 1.334 . S
O171 C143 1.412 . S
O171 C144 1.393 . S
O172 C134 1.435 . S
O172 C169 1.458 . S
O173 C125 1.468 . S
O173 C126 1.408 . S
H174 C115 0.980 . S
H175 C114 0.959 . S
H176 C114 0.959 . S
H177 C114 0.960 . S
H178 C117 0.929 1_655 S
H179 C121 0.929 . S
H180 C122 0.959 . S
H181 C122 0.961 . S
H182 C122 0.961 . S
H183 C123 0.960 . S
H184 C123 0.960 . S
H185 C123 0.961 . S
H186 C125 0.980 1_455 S
H187 C124 0.961 1_455 S
H188 C124 0.960 . S
H189 C124 0.959 . S
H190 C127 0.930 . S
H191 C131 0.931 . S
H192 C132 0.959 . S
H193 C132 0.961 . S
H194 C132 0.959 . S
H195 C133 0.960 . S
H196 C133 0.960 . S
H197 C133 0.960 . S
H198 C169 0.980 . S
H199 C135 0.930 . S
H200 C139 0.930 . S
H201 C140 0.961 . S
H202 C140 0.960 . S
H203 C140 0.958 . S
H204 C141 0.961 . S
H205 C141 0.960 . S
H206 C141 0.960 . S
H207 C143 0.980 . S
H208 C142 0.961 . S
H209 C142 0.961 . S
H210 C142 0.959 . S
H211 C145 0.932 . S
H212 C149 0.929 . S
H213 C150 0.961 . S
H214 C150 0.959 . S
H215 C150 0.959 . S
H216 C151 0.960 . S
H217 C151 0.962 . S
H218 C151 0.961 . S
H219 C153 0.929 . S
H220 C156 0.930 . S
H221 C157 0.929 1_655 S
H222 C160 0.930 . S
H223 C163 0.929 . S
H224 C164 0.930 . S
H225 C168 0.962 . S
H226 C168 0.959 . S
H227 C168 0.958 1_655 S
Mg228 O229 2.028 . S
Mg228 O235 1.986 . S
Mg228 O237 2.114 1_545 S
Mg228 O238 2.251 1_545 S
Mg228 O241 2.010 . S
O229 Mg228 2.028 . S
O229 C232 1.250 1_455 S
O230 Mg231 2.028 . S
O230 C232 1.248 . S
Mg231 O230 2.028 . S
Mg231 O236 2.032 1_655 S
Mg231 O238 2.079 1_645 S
C232 O229 1.250 1_655 S
C232 O230 1.248 . S
C233 O234 1.264 . S
C233 O241 1.249 . S
O234 C233 1.264 . S
O235 Mg228 1.986 . S
O235 C239 1.246 . S
O236 Mg231 2.032 1_455 S
O236 C239 1.259 . S
O237 Mg228 2.114 1_565 S
O237 C240 1.252 . S
O238 Mg228 2.251 1_565 S
O238 Mg231 2.079 1_465 S
O238 C240 1.273 . S
C239 O235 1.246 . S
C239 O236 1.259 . S
C240 O237 1.252 . S
C240 O238 1.273 . S
O241 Mg228 2.010 . S
O241 C233 1.249 . S
Mg242 O243 2.028 1_655 S
Mg242 O249 1.986 . S
Mg242 O251 2.114 1_545 S
Mg242 O252 2.251 1_645 S
Mg242 O255 2.010 . S
O243 Mg242 2.028 1_455 S
O243 C246 1.250 . S
O244 Mg245 2.028 . S
O244 C246 1.248 . S
Mg245 O244 2.028 . S
Mg245 O250 2.032 . S
Mg245 O252 2.079 1_545 S
C246 O243 1.250 . S
C246 O244 1.248 . S
C247 O248 1.264 . S
C247 O255 1.249 . S
O248 C247 1.264 . S
O249 Mg242 1.986 . S
O249 C253 1.246 1_655 S
O250 Mg245 2.032 . S
O250 C253 1.259 . S
O251 Mg242 2.114 1_565 S
O251 C254 1.252 1_655 S
O252 Mg242 2.251 1_465 S
O252 Mg245 2.079 1_565 S
O252 C254 1.273 . S
C253 O249 1.246 1_455 S
C253 O250 1.259 . S
C254 O251 1.252 1_455 S
C254 O252 1.273 . S
O255 Mg242 2.010 . S
O255 C247 1.249 . S
C256 C257 1.369 1_565 S
C256 C258 1.419 1_565 S
C256 H260 0.930 . S
C257 C256 1.369 1_545 S
C257 C266 1.429 . S
C258 C256 1.419 1_545 S
C258 C259 1.363 . S
C258 H261 0.929 1_545 S
C259 C258 1.363 . S
C259 C265 1.428 . S
H260 C256 0.930 . S
H261 C258 0.929 1_565 S
S262 N263 1.613 . S
S262 N264 1.610 . S
N263 S262 1.613 . S
N263 C266 1.350 . S
N264 S262 1.610 . S
N264 C265 1.351 . S
C265 C259 1.428 . S
C265 N264 1.351 . S
C265 C266 1.434 . S
C266 C257 1.429 . S
C266 N263 1.350 . S
C266 C265 1.434 . S
C267 C268 1.369 1_655 S
C267 C269 1.419 . S
C267 H271 0.930 . S
C268 C267 1.369 1_455 S
C268 C277 1.429 . S
C269 C267 1.419 . S
C269 C270 1.363 1_655 S
C269 H272 0.929 . S
C270 C269 1.363 1_455 S
C270 C276 1.428 . S
H271 C267 0.930 . S
H272 C269 0.929 . S
S273 N274 1.613 . S
S273 N275 1.610 . S
N274 S273 1.613 . S
N274 C277 1.350 . S
N275 S273 1.610 . S
N275 C276 1.351 . S
C276 C270 1.428 . S
C276 N275 1.351 . S
C276 C277 1.434 . S
C277 C268 1.429 . S
C277 N274 1.350 . S
C277 C276 1.434 . S
C278 C279 1.369 1_565 S
C278 C280 1.419 . S
C278 H282 0.930 . S
C279 C278 1.369 1_545 S
C279 C288 1.429 . S
C280 C278 1.419 . S
C280 C281 1.363 1_565 S
C280 H283 0.929 . S
C281 C280 1.363 1_545 S
C281 C287 1.428 . S
H282 C278 0.930 . S
H283 C280 0.929 . S
S284 N285 1.613 . S
S284 N286 1.610 . S
N285 S284 1.613 . S
N285 C288 1.350 . S
N286 S284 1.610 . S
N286 C287 1.351 . S
C287 C281 1.428 . S
C287 N286 1.351 . S
C287 C288 1.434 . S
C288 C279 1.429 . S
C288 N285 1.350 . S
C288 C287 1.434 . S
C289 C290 1.369 1_655 S
C289 C291 1.419 . S
C289 H293 0.930 . S
C290 C289 1.369 1_455 S
C290 C299 1.429 . S
C291 C289 1.419 . S
C291 C292 1.363 1_655 S
C291 H294 0.929 . S
C292 C291 1.363 1_455 S
C292 C298 1.428 . S
H293 C289 0.930 . S
H294 C291 0.929 . S
S295 N296 1.613 . S
S295 N297 1.610 . S
N296 S295 1.613 . S
N296 C299 1.350 . S
N297 S295 1.610 . S
N297 C298 1.351 . S
C298 C292 1.428 . S
C298 N297 1.351 . S
C298 C299 1.434 . S
C299 C290 1.429 . S
C299 N296 1.350 . S
C299 C298 1.434 . S
C300 C301 1.369 . S
C300 C302 1.419 . S
C300 H304 0.930 1_545 S
C301 C300 1.369 . S
C301 C310 1.429 . S
C302 C300 1.419 . S
C302 C303 1.363 . S
C302 H305 0.929 1_545 S
C303 C302 1.363 . S
C303 C309 1.428 . S
H304 C300 0.930 1_565 S
H305 C302 0.929 1_565 S
S306 N307 1.613 . S
S306 N308 1.610 . S
N307 S306 1.613 . S
N307 C310 1.350 . S
N308 S306 1.610 . S
N308 C309 1.351 . S
C309 C303 1.428 . S
C309 N308 1.351 . S
C309 C310 1.434 . S
C310 C301 1.429 . S
C310 N307 1.350 . S
C310 C309 1.434 . S
C311 C312 1.369 . S
C311 C313 1.419 . S
C311 H315 0.930 . S
C312 C311 1.369 . S
C312 C321 1.429 . S
C313 C311 1.419 . S
C313 C314 1.363 . S
C313 H316 0.929 . S
C314 C313 1.363 . S
C314 C320 1.428 . S
H315 C311 0.930 . S
H316 C313 0.929 . S
S317 N318 1.613 . S
S317 N319 1.610 . S
N318 S317 1.613 . S
N318 C321 1.350 1_655 S
N319 S317 1.610 . S
N319 C320 1.351 1_655 S
C320 C314 1.428 . S
C320 N319 1.351 1_455 S
C320 C321 1.434 . S
C321 C312 1.429 . S
C321 N318 1.350 1_455 S
C321 C320 1.434 . S
C322 C323 1.369 . S
C322 C324 1.419 . S
C322 H326 0.930 . S
C323 C322 1.369 . S
C323 C332 1.429 1_545 S
C324 C322 1.419 . S
C324 C325 1.363 . S
C324 H327 0.929 . S
C325 C324 1.363 . S
C325 C331 1.428 . S
H326 C322 0.930 . S
H327 C324 0.929 . S
S328 N329 1.613 . S
S328 N330 1.610 . S
N329 S328 1.613 . S
N329 C332 1.350 . S
N330 S328 1.610 . S
N330 C331 1.351 1_565 S
C331 C325 1.428 . S
C331 N330 1.351 1_545 S
C331 C332 1.434 1_545 S
C332 C323 1.429 1_565 S
C332 N329 1.350 . S
C332 C331 1.434 1_565 S
C333 C334 1.369 . S
C333 C335 1.419 . S
C333 H337 0.930 . S
C334 C333 1.369 . S
C334 C343 1.429 . S
C335 C333 1.419 . S
C335 C336 1.363 . S
C335 H338 0.929 . S
C336 C335 1.363 . S
C336 C342 1.428 . S
H337 C333 0.930 . S
H338 C335 0.929 . S
S339 N340 1.613 . S
S339 N341 1.610 . S
N340 S339 1.613 . S
N340 C343 1.350 . S
N341 S339 1.610 . S
N341 C342 1.351 . S
C342 C336 1.428 . S
C342 N341 1.351 . S
C342 C343 1.434 . S
C343 C334 1.429 . S
C343 N340 1.350 . S
C343 C342 1.434 . S
C259 C233 1.304 . S
C257 C11 0.944 1_545 S
C270 C253 1.342 . S
C268 C115 1.140 . S
C281 C232 1.337 . S
C279 C1 1.111 . S
C292 C254 1.503 . S
C290 C125 0.913 1_455 S
C303 C246 1.545 . S
C301 C55 1.170 . S
C314 C239 1.434 . S
C312 C143 1.116 . S
C325 C247 1.214 . S
C323 C29 1.094 . S
C334 C169 1.140 . S
C336 C240 1.584 . S
