# Generated by pormake.
# Topology pyr, (3,6)-cn, num edge types: 1
# Building blocks:
#     Node 0, Type 0, BuildingBlock: QEWDON_clean_linker_0, # of connection points: 3
#     Node 1, Type 0, BuildingBlock: QEWDON_clean_linker_0, # of connection points: 3
#     Node 2, Type 0, BuildingBlock: QEWDON_clean_linker_0, # of connection points: 3
#     Node 3, Type 0, BuildingBlock: QEWDON_clean_linker_0, # of connection points: 3
#     Node 4, Type 0, BuildingBlock: QEWDON_clean_linker_0, # of connection points: 3
#     Node 5, Type 0, BuildingBlock: QEWDON_clean_linker_0, # of connection points: 3
#     Node 6, Type 0, BuildingBlock: QEWDON_clean_linker_0, # of connection points: 3
#     Node 7, Type 0, BuildingBlock: QEWDON_clean_linker_0, # of connection points: 3
#     Node 8, Type 1, BuildingBlock: GEDQOX_clean_sbu_0, # of connection points: 6
#     Node 9, Type 1, BuildingBlock: GEDQOX_clean_sbu_0, # of connection points: 6
#     Node 10, Type 1, BuildingBlock: GEDQOX_clean_sbu_0, # of connection points: 6
#     Node 11, Type 1, BuildingBlock: GEDQOX_clean_sbu_0, # of connection points: 6
#     Edge 12, Type (0, 1), BuildingBlock: TEMPAE_clean_linker_10, # of connection points: 2
#     Edge 13, Type (0, 1), BuildingBlock: TEMPAE_clean_linker_10, # of connection points: 2
#     Edge 14, Type (0, 1), BuildingBlock: TEMPAE_clean_linker_10, # of connection points: 2
#     Edge 15, Type (0, 1), BuildingBlock: TEMPAE_clean_linker_10, # of connection points: 2
#     Edge 16, Type (0, 1), BuildingBlock: TEMPAE_clean_linker_10, # of connection points: 2
#     Edge 17, Type (0, 1), BuildingBlock: TEMPAE_clean_linker_10, # of connection points: 2
#     Edge 18, Type (0, 1), BuildingBlock: TEMPAE_clean_linker_10, # of connection points: 2
#     Edge 19, Type (0, 1), BuildingBlock: TEMPAE_clean_linker_10, # of connection points: 2
#     Edge 20, Type (0, 1), BuildingBlock: TEMPAE_clean_linker_10, # of connection points: 2
#     Edge 21, Type (0, 1), BuildingBlock: TEMPAE_clean_linker_10, # of connection points: 2
#     Edge 22, Type (0, 1), BuildingBlock: TEMPAE_clean_linker_10, # of connection points: 2
#     Edge 23, Type (0, 1), BuildingBlock: TEMPAE_clean_linker_10, # of connection points: 2
#     Edge 24, Type (0, 1), BuildingBlock: TEMPAE_clean_linker_10, # of connection points: 2
#     Edge 25, Type (0, 1), BuildingBlock: TEMPAE_clean_linker_10, # of connection points: 2
#     Edge 26, Type (0, 1), BuildingBlock: TEMPAE_clean_linker_10, # of connection points: 2
#     Edge 27, Type (0, 1), BuildingBlock: TEMPAE_clean_linker_10, # of connection points: 2
#     Edge 28, Type (0, 1), BuildingBlock: TEMPAE_clean_linker_10, # of connection points: 2
#     Edge 29, Type (0, 1), BuildingBlock: TEMPAE_clean_linker_10, # of connection points: 2
#     Edge 30, Type (0, 1), BuildingBlock: TEMPAE_clean_linker_10, # of connection points: 2
#     Edge 31, Type (0, 1), BuildingBlock: TEMPAE_clean_linker_10, # of connection points: 2
#     Edge 32, Type (0, 1), BuildingBlock: TEMPAE_clean_linker_10, # of connection points: 2
#     Edge 33, Type (0, 1), BuildingBlock: TEMPAE_clean_linker_10, # of connection points: 2
#     Edge 34, Type (0, 1), BuildingBlock: TEMPAE_clean_linker_10, # of connection points: 2
#     Edge 35, Type (0, 1), BuildingBlock: TEMPAE_clean_linker_10, # of connection points: 2
# Relax obj value: 0.228
# Max RMSD: 0.288
# Mean RMSD: 0.204
data_MOF--net-pyr--node1-GEDQOX_clean_sbu_0--node2-QEWDON_clean_linker_0--edge1-TEMPAE_clean_linker_10
_symmetry_space_group_name_H-M    P1
_symmetry_Int_Tables_number       1
_symmetry_cell_setting            triclinic
loop_
_symmetry_equiv_pos_as_xyz
'x, y, z'
_cell_length_a     39.084915
_cell_length_b     39.643497
_cell_length_c     37.985399
_cell_angle_alpha  88.112532
_cell_angle_beta   91.592499
_cell_angle_gamma 95.998659
loop_
_atom_site_label
_atom_site_type_symbol
_atom_site_fract_x
_atom_site_fract_y
_atom_site_fract_z
_atom_type_partial_charge
H0 H 0.28526 0.22053 0.18001 0.0
C1 C 0.27113 0.20636 0.20071 0.0
C2 C 0.28216 0.17465 0.21357 0.0
C3 C 0.24286 0.22112 0.21508 0.0
H4 H 0.27152 0.13473 0.25376 0.0
C5 C 0.26352 0.15818 0.24259 0.0
C6 C 0.23506 0.17188 0.25807 0.0
C7 C 0.22529 0.20314 0.2434 0.0
C8 C 0.23962 0.25931 0.20982 0.0
H9 H 0.20533 0.21509 0.25596 0.0
C10 C 0.21687 0.27609 0.18547 0.0
C11 C 0.21654 0.31284 0.18477 0.0
C12 C 0.26065 0.2798 0.2328 0.0
H13 H 0.27787 0.26849 0.25154 0.0
C14 C 0.2597 0.31471 0.23287 0.0
H15 H 0.20034 0.26107 0.16729 0.0
C16 C 0.23811 0.33081 0.20963 0.0
H17 H 0.23835 0.35807 0.21134 0.0
H18 H 0.27598 0.32962 0.25137 0.0
H19 H 0.38155 0.81763 0.87957 0.0
C20 C 0.39925 0.80772 0.86209 0.0
C21 C 0.43406 0.82135 0.86132 0.0
C22 C 0.38671 0.78125 0.84028 0.0
H23 H 0.48324 0.81675 0.83743 0.0
C24 C 0.4564 0.80682 0.83875 0.0
C25 C 0.44407 0.77916 0.81783 0.0
C26 C 0.4091 0.76696 0.81849 0.0
C27 C 0.34975 0.76936 0.83903 0.0
H28 H 0.39917 0.74634 0.80175 0.0
C29 C 0.32878 0.78076 0.81152 0.0
C30 C 0.29341 0.76951 0.80958 0.0
C31 C 0.33543 0.74662 0.86493 0.0
H32 H 0.35137 0.73762 0.8863 0.0
C33 C 0.30042 0.73513 0.86313 0.0
H34 H 0.34004 0.79894 0.79209 0.0
C35 C 0.27949 0.74642 0.83567 0.0
H36 H 0.25251 0.73686 0.83473 0.0
H37 H 0.28946 0.71736 0.88304 0.0
H38 H 0.7579 0.55978 0.98383 0.0
C39 C 0.7451 0.53562 0.99301 0.0
C40 C 0.76454 0.50881 1.00241 0.0
C41 C 0.70913 0.53045 0.99216 0.0
H42 H 0.76275 0.45625 1.01934 0.0
C43 C 0.74767 0.477 1.0122 0.0
C44 C 0.71153 0.47167 1.01198 0.0
C45 C 0.69242 0.49866 1.00187 0.0
C46 C 0.68955 0.55595 0.9743 0.0
H47 H 0.6646 0.49447 0.99949 0.0
C48 C 0.68067 0.55216 0.93861 0.0
C49 C 0.66406 0.57702 0.91971 0.0
C50 C 0.68137 0.58456 0.99166 0.0
H51 H 0.68842 0.58789 1.01921 0.0
C52 C 0.66409 0.6091 0.97329 0.0
H53 H 0.68709 0.52983 0.9255 0.0
C54 C 0.65551 0.60546 0.93749 0.0
H55 H 0.64287 0.62518 0.92359 0.0
H56 H 0.65773 0.63121 0.9867 0.0
H57 H 0.87784 0.91801 0.2766 0.0
C58 C 0.86007 0.89929 0.28988 0.0
C59 C 0.86356 0.89366 0.32646 0.0
C60 C 0.83535 0.87891 0.27016 0.0
H61 H 0.84404 0.86407 0.37148 0.0
C62 C 0.84127 0.86858 0.34327 0.0
C63 C 0.81648 0.84825 0.32408 0.0
C64 C 0.81353 0.85357 0.28756 0.0
C65 C 0.83469 0.88121 0.23113 0.0
H66 H 0.79455 0.83761 0.2726 0.0
C67 C 0.83397 0.85137 0.21217 0.0
C68 C 0.83489 0.85241 0.17526 0.0
C69 C 0.83613 0.91257 0.21264 0.0
H70 H 0.8367 0.93599 0.22665 0.0
C71 C 0.83671 0.91381 0.17577 0.0
H72 H 0.83436 0.8272 0.22634 0.0
C73 C 0.83636 0.88391 0.15709 0.0
H74 H 0.83743 0.88537 0.12862 0.0
H75 H 0.83782 0.93805 0.16166 0.0
H76 H 0.8887 0.84588 0.92749 0.0
C77 C 0.90158 0.85951 0.90561 0.0
C78 C 0.93181 0.84723 0.8924 0.0
C79 C 0.88594 0.88724 0.88913 0.0
H80 H 0.96942 0.85539 0.85128 0.0
C81 C 0.94671 0.86437 0.86186 0.0
C82 C 0.93235 0.89224 0.84417 0.0
C83 C 0.90183 0.90287 0.85839 0.0
C84 C 0.84814 0.89219 0.8962 0.0
H85 H 0.88946 0.9229 0.84473 0.0
C86 C 0.83485 0.91381 0.92182 0.0
C87 C 0.79795 0.91537 0.92501 0.0
C88 C 0.824 0.87337 0.87465 0.0
H89 H 0.83254 0.85698 0.85511 0.0
C90 C 0.7888 0.87502 0.87753 0.0
H91 H 0.85264 0.92871 0.93896 0.0
C92 C 0.77607 0.89546 0.90213 0.0
H93 H 0.74841 0.89574 0.90321 0.0
H94 H 0.77101 0.8601 0.86038 0.0
H95 H 0.74494 0.30928 0.38734 0.0
C96 C 0.7315 0.29227 0.36861 0.0
C97 C 0.7425 0.25987 0.36414 0.0
C98 C 0.7047 0.30366 0.34726 0.0
H99 H 0.73331 0.2135 0.3351 0.0
C100 C 0.72545 0.23855 0.33875 0.0
C101 C 0.69898 0.24964 0.31711 0.0
C102 C 0.68864 0.28196 0.32164 0.0
C103 C 0.69504 0.33903 0.34909 0.0
H104 H 0.66803 0.29026 0.30489 0.0
C105 C 0.69057 0.35457 0.38149 0.0
C106 C 0.67978 0.38763 0.38198 0.0
C107 C 0.68959 0.35735 0.31744 0.0
H108 H 0.69365 0.34665 0.2922 0.0
C109 C 0.67875 0.38961 0.31774 0.0
H110 H 0.69514 0.34088 0.40603 0.0
C111 C 0.67346 0.40445 0.34953 0.0
H112 H 0.66392 0.42914 0.3485 0.0
H113 H 0.67411 0.40312 0.29313 0.0
H114 H 0.38937 0.64675 0.28025 0.0
C115 C 0.36473 0.64742 0.26665 0.0
C116 C 0.36316 0.66692 0.23529 0.0
C117 C 0.33496 0.62895 0.28021 0.0
H118 H 0.33089 0.68115 0.19175 0.0
C119 C 0.33189 0.66659 0.21632 0.0
C120 C 0.30184 0.6484 0.22908 0.0
C121 C 0.3035 0.63015 0.26136 0.0
C122 C 0.33668 0.6087 0.314 0.0
H123 H 0.28004 0.61745 0.27208 0.0
C124 C 0.36092 0.6188 0.34084 0.0
C125 C 0.36353 0.5991 0.37204 0.0
C126 C 0.31456 0.57867 0.31949 0.0
H127 H 0.2962 0.56937 0.29931 0.0
C128 C 0.31633 0.55966 0.35096 0.0
H129 H 0.37781 0.6421 0.3378 0.0
C130 C 0.34068 0.5697 0.37709 0.0
H131 H 0.34234 0.55393 0.40079 0.0
H132 H 0.29921 0.53662 0.35479 0.0
H133 H 0.31849 0.24785 0.83119 0.0
C134 C 0.30443 0.23052 0.81314 0.0
C135 C 0.31257 0.2324 0.77739 0.0
C136 C 0.27707 0.20782 0.8255 0.0
H137 H 0.29966 0.21199 0.72632 0.0
C138 C 0.29406 0.21014 0.75415 0.0
C139 C 0.26683 0.18704 0.76603 0.0
C140 C 0.25876 0.1856 0.80192 0.0
C141 C 0.26461 0.21115 0.86158 0.0
H142 H 0.23671 0.16901 0.81092 0.0
C143 C 0.26012 0.24354 0.87342 0.0
C144 C 0.24674 0.24783 0.9067 0.0
C145 C 0.25585 0.18266 0.88365 0.0
H146 H 0.25895 0.1574 0.87505 0.0
C147 C 0.24325 0.18673 0.91721 0.0
H148 H 0.26659 0.26557 0.8563 0.0
C149 C 0.23867 0.21909 0.92875 0.0
H150 H 0.2281 0.22153 0.95448 0.0
H151 H 0.23665 0.16468 0.93419 0.0
Nd152 Nd 0.09015 1.00504 0.54152 0.0
Nd153 Nd 0.05256 0.06307 0.54888 0.0
C154 C 0.112 0.94425 0.53919 0.0
C155 C 0.12478 0.92191 0.56703 0.0
C156 C 0.13896 0.89227 0.55857 0.0
C157 C 0.15409 0.87287 0.58502 0.0
C158 C 0.15542 0.88307 0.62022 0.0
C159 C 0.14021 0.9123 0.62861 0.0
C160 C 0.12506 0.93156 0.60225 0.0
C161 C 0.12619 0.05442 0.58125 0.0
C162 C 1.03998 1.00449 0.61169 0.0
C163 C 1.02517 0.1215 0.55224 0.0
C164 C 0.99755 0.13862 0.53347 0.0
C165 C 1.00312 0.15616 0.50098 0.0
C166 C 0.97632 0.17136 0.48346 0.0
C167 C 0.94338 0.16924 0.49797 0.0
C168 C 0.9381 0.15227 0.53074 0.0
C169 C 0.96485 0.13735 0.54832 0.0
C170 C 1.0173 1.01386 0.50814 0.0
C171 C 0.10727 0.06436 0.48188 0.0
O172 O 0.07942 0.94897 0.54032 0.0
O173 O 0.13171 0.97245 0.53336 0.0
O174 O 0.14006 0.03686 0.55846 0.0
O175 O 0.0946 0.04504 0.58349 0.0
O176 O 0.05355 0.98574 0.58842 0.0
O177 O 1.04115 0.03767 0.60487 0.0
O178 O 0.05356 0.11848 0.53574 0.0
O179 O 1.01508 0.09429 0.57091 0.0
O180 O 1.00326 0.03034 0.53161 0.0
O181 O 0.04874 0.02382 0.50631 0.0
O182 O 0.09393 0.08301 0.50569 0.0
O183 O 0.10395 0.03095 0.48696 0.0
H184 H 0.13913 0.88462 0.53146 0.0
H185 H 0.16583 0.85061 0.57776 0.0
H186 H 0.14044 0.92054 0.65553 0.0
H187 H 0.1143 0.95448 0.60922 0.0
H188 H 1.02803 0.15789 0.48889 0.0
H189 H 0.98118 0.18415 0.45818 0.0
H190 H 0.91323 0.15066 0.54293 0.0
H191 H 0.9598 0.12453 0.57356 0.0
Nd192 Nd 0.55342 0.03131 0.10457 0.0
Nd193 Nd 0.55335 0.07616 0.05257 0.0
C194 C 0.55801 0.97716 0.1469 0.0
C195 C 0.54047 0.94306 0.15247 0.0
C196 C 0.51127 0.93181 0.13214 0.0
C197 C 0.49544 0.89881 0.13716 0.0
C198 C 0.50861 0.87667 0.16262 0.0
C199 C 0.53804 0.88813 0.18272 0.0
C200 C 0.55384 0.92109 0.17763 0.0
C201 C 0.50046 0.07316 0.11727 0.0
C202 C 0.51226 1.00711 1.03183 0.0
C203 C 0.55515 0.13142 1.01088 0.0
C204 C 0.5627 0.16817 1.0145 0.0
C205 C 0.5635 0.18289 0.04765 0.0
C206 C 0.575 0.21725 0.05113 0.0
C207 C 0.58583 0.23736 1.02148 0.0
C208 C 0.5839 0.22261 0.9882 0.0
C209 C 0.57247 0.1883 0.98479 0.0
C210 C 0.60448 0.03273 0.03985 0.0
C211 C 0.59428 0.09916 0.12396 0.0
O212 O 0.57418 0.98242 0.11742 0.0
O213 O 0.54118 1.0025 0.15462 0.0
O214 O 0.52391 0.06485 0.1398 0.0
O215 O 0.50636 0.06075 0.08747 0.0
O216 O 0.52575 0.99722 0.06202 0.0
O217 O 0.51597 0.03929 1.0223 0.0
O218 O 0.52706 0.11696 1.02496 0.0
O219 O 0.58125 0.11399 1.01673 0.0
O220 O 0.58035 0.04027 1.01785 0.0
O221 O 0.59986 0.04649 0.06921 0.0
O222 O 0.57265 0.10913 0.09977 0.0
O223 O 0.59744 0.0668 0.12744 0.0
H224 H 0.50081 0.94849 0.11243 0.0
H225 H 0.473 0.89058 0.12106 0.0
H226 H 0.54847 0.87185 0.20286 0.0
H227 H 0.57649 0.92945 0.1934 0.0
H228 H 0.55606 0.16769 0.07093 0.0
H229 H 0.57587 0.22797 0.07704 0.0
H230 H 0.59254 0.23723 0.96493 0.0
H231 H 0.57234 0.17722 0.95908 0.0
Nd232 Nd 0.54435 0.56404 0.61474 0.0
Nd233 Nd 0.60956 0.60828 0.60052 0.0
C234 C 0.48088 0.53505 0.6228 0.0
C235 C 0.46591 0.501 0.63335 0.0
C236 C 0.43062 0.49499 0.63934 0.0
C237 C 0.41667 0.46333 0.6524 0.0
C238 C 0.43791 0.43728 0.65972 0.0
C239 C 0.47323 0.44327 0.65286 0.0
C240 C 0.48713 0.47493 0.63978 0.0
C241 C 0.59573 0.55618 0.6646 0.0
C242 C 0.55459 0.63984 0.64498 0.0
C243 C 0.67246 0.63787 0.59129 0.0
C244 C 0.69251 0.64661 0.55972 0.0
C245 C 0.68105 0.63333 0.52717 0.0
C246 C 0.69645 0.64613 0.4961 0.0
C247 C 0.7234 0.67253 0.49717 0.0
C248 C 0.73593 0.68442 0.53009 0.0
C249 C 0.72052 0.67157 0.56113 0.0
C250 C 0.55767 0.61498 0.55097 0.0
C251 C 0.60081 0.52965 0.57222 0.0
O252 O 0.49863 0.55163 0.64751 0.0
O253 O 0.49599 0.53795 0.59243 0.0
O254 O 0.57451 0.53125 0.65323 0.0
O255 O 0.58861 0.58373 0.65039 0.0
O256 O 0.53282 0.61872 0.62696 0.0
O257 O 0.58774 0.63636 0.64493 0.0
O258 O 0.66589 0.6055 0.59915 0.0
O259 O 0.64564 0.65465 0.59389 0.0
O260 O 0.57861 0.64042 0.56125 0.0
O261 O 0.56592 0.58794 0.56501 0.0
O262 O 0.62237 0.55602 0.58158 0.0
O263 O 0.56777 0.52778 0.57908 0.0
H264 H 0.41401 0.51502 0.63474 0.0
H265 H 0.38946 0.45961 0.65785 0.0
H266 H 0.49013 0.42358 0.6579 0.0
H267 H 0.51452 0.47931 0.63533 0.0
H268 H 0.65919 0.61415 0.52568 0.0
H269 H 0.68648 0.63626 0.47118 0.0
H270 H 0.75631 0.70508 0.53179 0.0
H271 H 0.72937 0.68231 0.58605 0.0
Nd272 Nd 1.0361 0.56673 0.06145 0.0
Nd273 Nd 0.08688 0.57094 1.00322 0.0
C274 C 0.98396 0.55699 0.1043 0.0
C275 C 0.96245 0.58162 0.11807 0.0
C276 C 0.92649 0.5761 0.11436 0.0
C277 C 0.90617 0.60224 0.12058 0.0
C278 C 0.92159 0.63409 0.13101 0.0
C279 C 0.95746 0.63895 0.1363 0.0
C280 C 0.9777 0.61307 0.12972 0.0
C281 C 0.09283 0.6123 0.0733 0.0
C282 C 1.03518 0.63149 1.00297 0.0
C283 C 0.14111 0.56878 0.9637 0.0
C284 C 0.16706 0.54447 0.96383 0.0
C285 C 0.1737 0.52549 0.9947 0.0
C286 C 0.18979 0.49579 0.99292 0.0
C287 C 0.20028 0.48524 0.9604 0.0
C288 C 0.1966 0.50591 0.9301 0.0
C289 C 0.17979 0.53526 0.93176 0.0
C290 C 1.02151 0.54342 0.98576 0.0
C291 C 0.0892 0.50613 0.06301 0.0
O292 O 0.9806 0.55306 0.07029 0.0
O293 O 1.01613 0.5591 0.1155 0.0
O294 O 0.06175 0.61768 0.08094 0.0
O295 O 0.09291 0.58348 0.06034 0.0
O296 O 1.01617 0.60955 1.02366 0.0
O297 O 0.06702 0.62501 0.9957 0.0
O298 O 0.1413 0.5883 0.9909 0.0
O299 O 0.11018 0.55575 0.9546 0.0
O300 O 1.03916 0.5655 0.96563 0.0
O301 O 1.0386 0.53702 1.01321 0.0
O302 O 0.1002 0.52013 1.03245 0.0
O303 O 0.06479 0.51963 0.07991 0.0
H304 H 0.91428 0.55212 0.10508 0.0
H305 H 0.87854 0.59782 0.11655 0.0
H306 H 0.97008 0.66337 0.14388 0.0
H307 H 1.00541 0.61829 0.13221 0.0
H308 H 0.16445 0.53231 1.01982 0.0
H309 H 0.19241 0.48012 1.01658 0.0
H310 H 0.20431 0.49797 0.90473 0.0
H311 H 0.17463 0.5494 0.90763 0.0
C312 C 0.18037 0.15471 0.2944 0.0
C313 C 0.21634 0.15493 0.29068 0.0
C314 C 0.1627 0.14024 0.32471 0.0
C315 C 0.18083 0.12569 0.35354 0.0
C316 C 0.21715 0.12591 0.35006 0.0
C317 C 0.23411 0.13996 0.31909 0.0
C318 C 0.12417 0.14038 0.32572 0.0
C319 C 0.23843 0.11164 0.37955 0.0
C320 C 0.13749 0.11546 0.4461 0.0
C321 C 0.12587 0.08053 0.44909 0.0
C322 C 0.15545 0.13016 0.41596 0.0
C323 C 0.1619 0.11009 0.38676 0.0
C324 C 0.14978 0.07492 0.3895 0.0
C325 C 0.13258 0.06077 0.4202 0.0
C326 C 0.16789 0.16745 0.41556 0.0
C327 C 0.15475 0.05195 0.3596 0.0
H328 H 0.16565 0.16561 0.27314 0.0
H329 H 0.26175 0.13998 0.31762 0.0
H330 H 0.11182 0.11406 0.32957 0.0
H331 H 0.11731 0.15504 0.3484 0.0
H332 H 0.11334 0.1516 0.30121 0.0
H333 H 0.26629 0.11416 0.37372 0.0
H334 H 0.23483 0.12492 0.40424 0.0
H335 H 0.22967 0.08441 0.38442 0.0
H336 H 0.13299 0.13146 0.46773 0.0
H337 H 0.12393 0.0339 0.42133 0.0
H338 H 0.15558 0.18062 0.39313 0.0
H339 H 0.19609 0.17106 0.41166 0.0
H340 H 0.16216 0.17966 0.44032 0.0
H341 H 0.14319 0.02552 0.36483 0.0
H342 H 0.1826 0.05156 0.355 0.0
H343 H 0.14297 0.06185 0.33496 0.0
C344 C 0.47951 0.85308 0.90012 0.0
C345 C 0.44641 0.8504 0.88438 0.0
C346 C 0.49033 0.87927 0.9234 0.0
C347 C 0.46727 0.90292 0.93194 0.0
C348 C 0.43404 0.90062 0.91592 0.0
C349 C 0.42432 0.87494 0.89193 0.0
C350 C 0.52635 0.88141 0.93914 0.0
C351 C 0.40844 0.92497 0.92458 0.0
C352 C 0.48391 0.94915 1.01827 0.0
C353 C 0.4979 0.9814 1.00644 0.0
C354 C 0.47327 0.92357 0.99431 0.0
C355 C 0.47774 0.93005 0.9577 0.0
C356 C 0.49191 0.96261 0.94567 0.0
C357 C 0.50135 0.988 0.97013 0.0
C358 C 0.45736 0.88957 1.00821 0.0
C359 C 0.49805 0.97035 0.90703 0.0
H360 H 0.49682 0.83431 0.89493 0.0
H361 H 0.39911 0.87407 0.87922 0.0
H362 H 0.53971 0.90719 0.93433 0.0
H363 H 0.52529 0.87701 0.9681 0.0
H364 H 0.54189 0.86254 0.9281 0.0
H365 H 0.38325 0.91917 0.91064 0.0
H366 H 0.40415 0.92398 0.95337 0.0
H367 H 0.41874 0.95133 0.91734 0.0
H368 H 0.48132 0.9439 0.04631 0.0
H369 H 0.51278 1.01267 0.96085 0.0
H370 H 0.47347 0.8694 1.00141 0.0
H371 H 0.43161 0.88336 0.99561 0.0
H372 H 0.45454 0.88898 0.03726 0.0
H373 H 0.51543 0.95267 0.89694 0.0
H374 H 0.50969 0.99679 0.902 0.0
H375 H 0.47347 0.96645 0.89171 0.0
C376 C 0.62477 0.58062 0.8667 0.0
C377 C 0.65652 0.57328 0.88144 0.0
C378 C 0.61718 0.57627 0.83071 0.0
C379 C 0.64192 0.56423 0.80903 0.0
C380 C 0.67405 0.55691 0.8237 0.0
C381 C 0.68101 0.56166 0.85969 0.0
C382 C 0.58267 0.58454 0.81588 0.0
C383 C 0.70112 0.54427 0.80134 0.0
C384 C 0.60712 0.52734 0.72264 0.0
C385 C 0.61291 0.55556 0.69961 0.0
C386 C 0.61768 0.52933 0.75822 0.0
C387 C 0.63439 0.56022 0.77078 0.0
C388 C 0.64213 0.58806 0.74708 0.0
C389 C 0.63139 0.58533 0.71173 0.0
C390 C 0.6093 0.49903 0.78274 0.0
C391 C 0.66 0.62139 0.75939 0.0
H392 H 0.60565 0.58928 0.88343 0.0
H393 H 0.70585 0.55651 0.8708 0.0
H394 H 0.58638 0.60464 0.7949 0.0
H395 H 0.56887 0.56181 0.80364 0.0
H396 H 0.56617 0.59334 0.83634 0.0
H397 H 0.72447 0.53893 0.81702 0.0
H398 H 0.6905 0.52073 0.78819 0.0
H399 H 0.70878 0.56342 0.7803 0.0
H400 H 0.59283 0.50429 0.71333 0.0
H401 H 0.63609 0.60714 0.69388 0.0
H402 H 0.58983 0.50487 0.80172 0.0
H403 H 0.63256 0.49327 0.79826 0.0
H404 H 0.59901 0.47606 0.76833 0.0
H405 H 0.6429 0.63328 0.77708 0.0
H406 H 0.66679 0.63948 0.7371 0.0
H407 H 0.68382 0.61719 0.77474 0.0
C408 C 0.86514 0.81794 0.13468 0.0
C409 C 0.83761 0.82046 0.15693 0.0
C410 C 0.87375 0.78609 0.12498 0.0
C411 C 0.85426 0.75632 0.13788 0.0
C412 C 0.82422 0.75899 0.15708 0.0
C413 C 0.81628 0.79111 0.16646 0.0
C414 C 0.90574 0.78431 0.10403 0.0
C415 C 0.80237 0.72791 0.17074 0.0
C416 C 0.87771 0.67135 0.10762 0.0
C417 C 0.90106 0.66308 0.13446 0.0
C418 C 0.8614 0.70125 0.10863 0.0
C419 C 0.86878 0.72321 0.1371 0.0
C420 C 0.89132 0.71421 0.1649 0.0
C421 C 0.90713 0.68425 0.16323 0.0
C422 C 0.83741 0.70993 0.07863 0.0
C423 C 0.89961 0.73676 0.19597 0.0
H424 H 0.88167 0.84061 0.1273 0.0
H425 H 0.79464 0.79313 0.18325 0.0
H426 H 0.92666 0.77648 0.12185 0.0
H427 H 0.9011 0.76509 0.08339 0.0
H428 H 0.9147 0.80917 0.09128 0.0
H429 H 0.77683 0.73411 0.17921 0.0
H430 H 0.79848 0.70836 0.15037 0.0
H431 H 0.81572 0.7167 0.19375 0.0
H432 H 0.87325 0.65516 0.08514 0.0
H433 H 0.92487 0.67764 0.18417 0.0
H434 H 0.84993 0.73135 0.06253 0.0
H435 H 0.8134 0.7182 0.0888 0.0
H436 H 0.83062 0.68812 0.06124 0.0
H437 H 0.9122 0.76175 0.18676 0.0
H438 H 0.91696 0.72558 0.21578 0.0
H439 H 0.8756 0.74137 0.20909 0.0
C440 C 0.31705 0.12427 0.19833 0.0
C441 C 0.31378 0.15961 0.19779 0.0
C442 C 0.34601 0.1102 0.18418 0.0
C443 C 0.37369 0.13128 0.16845 0.0
C444 C 0.37059 0.16687 0.16761 0.0
C445 C 0.34139 0.1803 0.18198 0.0
C446 C 0.34698 0.07227 0.18626 0.0
C447 C 0.39863 0.1912 0.15173 0.0
C448 C 0.46508 0.09861 0.16404 0.0
C449 C 0.46765 0.08839 0.1289 0.0
C450 C 0.43542 0.11226 0.1768 0.0
C451 C 0.40617 0.11645 0.15442 0.0
C452 C 0.40856 0.10636 0.11876 0.0
C453 C 0.43874 0.0927 0.1066 0.0
C454 C 0.43547 0.12221 0.21478 0.0
C455 C 0.37892 0.10994 0.09318 0.0
H456 H 0.29658 0.10711 0.20956 0.0
H457 H 0.34078 0.20753 0.18133 0.0
H458 H 0.34936 0.06255 0.15948 0.0
H459 H 0.36993 0.06597 0.202 0.0
H460 H 0.32363 0.05887 0.19841 0.0
H461 H 0.42308 0.18952 0.16693 0.0
H462 H 0.40309 0.18417 0.12432 0.0
H463 H 0.39235 0.2179 0.15144 0.0
H464 H 0.48664 0.09587 0.18208 0.0
H465 H 0.43955 0.08523 0.07948 0.0
H466 H 0.41374 0.10756 0.22847 0.0
H467 H 0.43166 0.14947 0.21623 0.0
H468 H 0.45982 0.11773 0.2291 0.0
H469 H 0.3554 0.09489 0.10305 0.0
H470 H 0.38415 0.10137 0.0665 0.0
H471 H 0.37342 0.13685 0.0911 0.0
C472 C 0.28339 0.78771 0.74649 0.0
C473 C 0.27114 0.78253 0.78085 0.0
C474 C 0.26367 0.80221 0.71972 0.0
C475 C 0.2307 0.81143 0.72734 0.0
C476 C 0.21765 0.80518 0.76159 0.0
C477 C 0.23808 0.79098 0.78797 0.0
C478 C 0.27854 0.80857 0.68354 0.0
C479 C 0.18253 0.81448 0.77067 0.0
C480 C 0.1968 0.8824 0.67154 0.0
C481 C 0.17413 0.86441 0.64789 0.0
C482 C 0.21525 0.86543 0.69752 0.0
C483 C 0.21083 0.82954 0.70007 0.0
C484 C 0.18784 0.81118 0.67642 0.0
C485 C 0.16986 0.82885 0.65046 0.0
C486 C 0.23977 0.88593 0.72201 0.0
C487 C 0.18224 0.77292 0.67857 0.0
H488 H 0.3086 0.78065 0.74054 0.0
H489 H 0.22851 0.78745 0.81448 0.0
H490 H 0.26064 0.7966 0.6633 0.0
H491 H 0.28176 0.83624 0.67727 0.0
H492 H 0.30391 0.79859 0.68149 0.0
H493 H 0.17503 0.80552 0.79766 0.0
H494 H 0.18234 0.84245 0.76884 0.0
H495 H 0.1628 0.80347 0.75156 0.0
H496 H 0.20061 0.90986 0.6693 0.0
H497 H 0.15215 0.81488 0.6324 0.0
H498 H 0.26624 0.87876 0.71929 0.0
H499 H 0.23247 0.88032 0.74977 0.0
H500 H 0.2401 0.91368 0.71665 0.0
H501 H 0.2069 0.76216 0.67472 0.0
H502 H 0.16311 0.76246 0.65854 0.0
H503 H 0.17321 0.76429 0.70512 0.0
C504 C 0.81776 0.49104 0.97721 0.0
C505 C 0.80224 0.51315 0.9983 0.0
C506 C 0.85327 0.49553 0.97166 0.0
C507 C 0.87373 0.52229 0.98827 0.0
C508 C 0.85813 0.54476 1.00957 0.0
C509 C 0.8224 0.54016 1.01395 0.0
C510 C 0.86888 0.47171 0.94798 0.0
C511 C 0.87904 0.57369 1.0277 0.0
C512 C 0.96764 0.51164 1.00692 0.0
C513 C 0.98396 0.53507 0.98283 0.0
C514 C 0.93174 0.50717 1.00881 0.0
C515 C 0.91169 0.52557 0.98499 0.0
C516 C 0.92801 0.54776 0.95912 0.0
C517 C 0.96412 0.55251 0.95855 0.0
C518 C 0.9154 0.48419 0.03756 0.0
C519 C 0.90746 0.56737 0.93289 0.0
H520 H 0.80196 0.4706 0.96451 0.0
H521 H 0.81024 0.5574 1.02999 0.0
H522 H 0.88373 0.48644 0.92708 0.0
H523 H 0.88713 0.45707 0.96342 0.0
H524 H 0.8491 0.45353 0.9353 0.0
H525 H 0.86421 0.58474 0.04819 0.0
H526 H 0.90283 0.5652 0.0401 0.0
H527 H 0.88697 0.59403 1.00795 0.0
H528 H 0.98303 0.49798 1.02558 0.0
H529 H 0.97674 0.57063 0.93986 0.0
H530 H 0.89636 0.46463 1.02605 0.0
H531 H 0.90135 0.49931 0.05533 0.0
H532 H 0.93466 0.47126 0.05357 0.0
H533 H 0.88587 0.55057 0.92127 0.0
H534 H 0.9236 0.57922 0.91127 0.0
H535 H 0.89622 0.58779 0.94649 0.0
C536 C 0.78114 0.82497 0.37456 0.0
C537 C 0.79607 0.81972 0.34237 0.0
C538 C 0.76707 0.79757 0.39548 0.0
C539 C 0.76786 0.7641 0.38383 0.0
C540 C 0.78093 0.75873 0.35032 0.0
C541 C 0.79497 0.78671 0.32992 0.0
C542 C 0.75308 0.8044 0.43095 0.0
C543 C 0.78189 0.72344 0.33691 0.0
C544 C 0.7708 0.70159 0.46076 0.0
C545 C 0.73582 0.6904 0.46431 0.0
C546 C 0.78197 0.72387 0.43304 0.0
C547 C 0.75754 0.73509 0.40827 0.0
C548 C 0.72262 0.72178 0.4101 0.0
C549 C 0.71212 0.69964 0.43821 0.0
C550 C 0.81955 0.73728 0.43176 0.0
C551 C 0.6959 0.73284 0.38395 0.0
H552 H 0.78165 0.85056 0.38396 0.0
H553 H 0.80674 0.78259 0.30512 0.0
H554 H 0.7267 0.79142 0.43368 0.0
H555 H 0.76944 0.79408 0.4522 0.0
H556 H 0.75231 0.83193 0.43503 0.0
H557 H 0.78796 0.72379 0.30849 0.0
H558 H 0.80186 0.71065 0.35194 0.0
H559 H 0.75689 0.70797 0.34095 0.0
H560 H 0.78927 0.69401 0.48052 0.0
H561 H 0.68499 0.6913 0.44088 0.0
H562 H 0.82263 0.76447 0.43854 0.0
H563 H 0.82929 0.73557 0.4048 0.0
H564 H 0.8357 0.72327 0.45047 0.0
H565 H 0.69061 0.75909 0.3895 0.0
H566 H 0.67132 0.71608 0.38539 0.0
H567 H 0.70539 0.73306 0.35669 0.0
C568 C 0.15962 0.33035 0.15483 0.0
C569 C 0.19576 0.33515 0.15963 0.0
C570 C 0.14061 0.3557 0.13769 0.0
C571 C 0.15743 0.38762 0.12549 0.0
C572 C 0.1939 0.39184 0.12909 0.0
C573 C 0.21219 0.36593 0.14524 0.0
C574 C 0.1022 0.3484 0.13296 0.0
C575 C 0.21392 0.42453 0.11683 0.0
C576 C 0.11893 0.45126 0.05765 0.0
C577 C 0.10519 0.47488 0.07891 0.0
C578 C 0.13398 0.42228 0.07214 0.0
C579 C 0.13756 0.4167 0.10932 0.0
C580 C 0.12412 0.44078 0.1309 0.0
C581 C 0.10771 0.46866 0.11569 0.0
C582 C 0.1463 0.39782 0.04702 0.0
C583 C 0.12813 0.4378 0.17043 0.0
H584 H 0.14594 0.30731 0.16562 0.0
H585 H 0.23995 0.37051 0.14796 0.0
H586 H 0.08912 0.36498 0.15 0.0
H587 H 0.09437 0.35416 0.10526 0.0
H588 H 0.09314 0.32153 0.13972 0.0
H589 H 0.24185 0.42513 0.12334 0.0
H590 H 0.21062 0.42792 0.08788 0.0
H591 H 0.20387 0.4464 0.12913 0.0
H592 H 0.11751 0.45509 1.02928 0.0
H593 H 0.09781 0.48643 0.13289 0.0
H594 H 0.14584 0.37175 0.05866 0.0
H595 H 0.1731 0.40665 0.0397 0.0
H596 H 0.13004 0.39683 1.0226 0.0
H597 H 0.1155 0.41304 0.18016 0.0
H598 H 0.11693 0.4584 0.18386 0.0
H599 H 0.15586 0.43865 0.17795 0.0
C600 C 0.66396 0.43274 0.03898 0.0
C601 C 0.69368 0.43725 1.01875 0.0
C602 C 0.64535 0.40065 0.04312 0.0
C603 C 0.65667 0.37254 1.02646 0.0
C604 C 0.68716 0.37679 1.00681 0.0
C605 C 0.70528 0.40908 1.0032 0.0
C606 C 0.61313 0.397 0.06451 0.0
C607 C 0.69999 0.34744 0.98852 0.0
C608 C 0.62513 0.28155 0.05242 0.0
C609 C 0.60108 0.27302 1.02521 0.0
C610 C 0.64251 0.31431 0.05403 0.0
C611 C 0.63575 0.33901 1.02772 0.0
C612 C 0.61051 0.33094 1.00102 0.0
C613 C 0.59343 0.29807 1.00014 0.0
C614 C 0.66916 0.32201 0.08299 0.0
C615 C 0.60248 0.35664 0.97255 0.0
H616 H 0.6551 0.45442 0.0513 0.0
H617 H 0.72792 0.41249 0.98709 0.0
H618 H 0.59043 0.38984 0.04713 0.0
H619 H 0.61437 0.3764 0.08485 0.0
H620 H 0.6091 0.42082 0.07771 0.0
H621 H 0.72509 0.35462 0.97583 0.0
H622 H 0.70292 0.32611 1.00763 0.0
H623 H 0.68091 0.33804 0.96801 0.0
H624 H 0.63144 0.26223 0.07168 0.0
H625 H 0.57446 0.29176 0.97939 0.0
H626 H 0.6648 0.34583 0.09592 0.0
H627 H 0.69514 0.32587 0.07155 0.0
H628 H 0.6689 0.30121 0.10334 0.0
H629 H 0.59599 0.38027 0.98446 0.0
H630 H 0.58074 0.34696 0.95492 0.0
H631 H 0.6255 0.36345 0.95632 0.0
C632 C 0.89678 0.94769 0.34597 0.0
C633 C 0.89145 0.9122 0.34758 0.0
C634 C 0.91987 0.96526 0.3697 0.0
C635 C 0.93781 0.94676 0.39546 0.0
C636 C 0.93393 0.91089 0.39577 0.0
C637 C 0.91094 0.89408 0.3717 0.0
C638 C 0.92374 1.00355 0.36835 0.0
C639 C 0.95262 0.89022 0.42274 0.0
C640 C 1.01332 0.98887 0.44853 0.0
C641 C 0.99738 0.99583 0.47971 0.0
C642 C 0.99415 0.97354 0.42047 0.0
C643 C 0.95837 0.9646 0.424 0.0
C644 C 0.94227 0.97131 0.45561 0.0
C645 C 0.96198 0.98701 0.48305 0.0
C646 C 1.01213 0.96695 0.38708 0.0
C647 C 0.90424 0.96171 0.46056 0.0
H648 H 0.88176 0.9617 0.3273 0.0
H649 H 0.90734 0.86657 0.37247 0.0
H650 H 0.91207 1.01298 0.39195 0.0
H651 H 0.95135 1.01347 0.36883 0.0
H652 H 0.91107 1.01403 0.34446 0.0
H653 H 0.94872 0.86262 0.4177 0.0
H654 H 0.98061 0.89851 0.42292 0.0
H655 H 0.94323 0.89432 0.44941 0.0
H656 H 1.04071 0.99587 0.44583 0.0
H657 H 0.94966 0.99238 0.50717 0.0
H658 H 0.99961 0.97918 0.36415 0.0
H659 H 1.00986 0.93931 0.38251 0.0
H660 H 1.03985 0.97663 0.38806 0.0
H661 H 0.8892 0.97412 0.43959 0.0
H662 H 0.89563 0.96908 0.48658 0.0
H663 H 0.89814 0.93389 0.45822 0.0
C664 C 0.48384 0.78004 0.76692 0.0
C665 C 0.46688 0.76227 0.79497 0.0
C666 C 0.5007 0.76278 0.74178 0.0
C667 C 0.50087 0.72704 0.74512 0.0
C668 C 0.48521 0.70936 0.77449 0.0
C669 C 0.46822 0.72715 0.79884 0.0
C670 C 0.51694 0.78252 0.71082 0.0
C671 C 0.48526 0.67141 0.77951 0.0
C672 C 0.50737 0.67221 0.66558 0.0
C673 C 0.54163 0.66473 0.66839 0.0
C674 C 0.49423 0.69367 0.68948 0.0
C675 C 0.5157 0.70763 0.7172 0.0
C676 C 0.55055 0.70082 0.71962 0.0
C677 C 0.56313 0.67966 0.69509 0.0
C678 C 0.45701 0.70053 0.68572 0.0
C679 C 0.5742 0.71473 0.74899 0.0
H680 H 0.48247 0.80715 0.76372 0.0
H681 H 0.45511 0.71343 0.82059 0.0
H682 H 0.54384 0.77665 0.70802 0.0
H683 H 0.50262 0.7749 0.68622 0.0
H684 H 0.51692 0.81035 0.71339 0.0
H685 H 0.47414 0.66187 0.805 0.0
H686 H 0.47007 0.65842 0.75785 0.0
H687 H 0.51189 0.66423 0.77841 0.0
H688 H 0.49064 0.66093 0.64496 0.0
H689 H 0.58961 0.67389 0.69765 0.0
H690 H 0.45497 0.72824 0.6856 0.0
H691 H 0.44254 0.68898 0.7086 0.0
H692 H 0.44451 0.69006 0.66122 0.0
H693 H 0.57373 0.74259 0.75029 0.0
H694 H 0.6012 0.7092 0.7457 0.0
H695 H 0.56513 0.7034 0.7746 0.0
C696 C 0.92779 0.91983 0.78135 0.0
C697 C 0.94832 0.90913 0.81006 0.0
C698 C 0.94216 0.93492 0.74953 0.0
C699 C 0.9785 0.94057 0.7453 0.0
C700 C 0.99938 0.93014 0.77426 0.0
C701 C 0.98433 0.91455 0.80554 0.0
C702 C 0.91813 0.94451 0.72001 0.0
C703 C 1.03804 0.93574 0.77237 0.0
C704 C 1.01794 0.95263 0.65109 0.0
C705 C 1.02426 0.98821 0.64594 0.0
C706 C 1.00313 0.93713 0.68251 0.0
C707 C 0.99446 0.9571 0.71091 0.0
C708 C 1.00115 0.99303 0.70602 0.0
C709 C 1.01542 1.0079 0.67405 0.0
C710 C 0.99647 0.899 0.68515 0.0
C711 C 0.99339 0.01607 0.73491 0.0
H712 H 0.90007 0.91575 0.78335 0.0
H713 H 1.0011 0.90709 0.82695 0.0
H714 H 0.92267 0.97213 0.71382 0.0
H715 H 0.92336 0.93113 0.69583 0.0
H716 H 0.89064 0.93818 0.72659 0.0
H717 H 0.04685 0.92175 0.75007 0.0
H718 H 0.04629 0.96307 0.7673 0.0
H719 H 0.05104 0.92727 0.79699 0.0
H720 H 1.02431 0.93659 0.63018 0.0
H721 H 1.02002 0.03527 0.67128 0.0
H722 H 0.96882 0.89145 0.68999 0.0
H723 H 1.0113 0.88912 0.70785 0.0
H724 H 1.00365 0.88676 0.66092 0.0
H725 H 0.96551 1.01255 0.74042 0.0
H726 H 1.00079 0.04325 0.72802 0.0
H727 H 1.00735 1.00933 0.75957 0.0
C728 C 0.68743 0.23948 0.25308 0.0
C729 C 0.68351 0.22826 0.28825 0.0
C730 C 0.67381 0.21925 0.22526 0.0
C731 C 0.65497 0.18745 0.23285 0.0
C732 C 0.65049 0.17632 0.26847 0.0
C733 C 0.66529 0.19665 0.29573 0.0
C734 C 0.68003 0.2317 0.18775 0.0
C735 C 0.62982 0.14307 0.27778 0.0
C736 C 0.59319 0.14939 0.16174 0.0
C737 C 0.61084 0.12305 0.14997 0.0
C738 C 0.60711 0.17038 0.18884 0.0
C739 C 0.64007 0.16574 0.2036 0.0
C740 C 0.65852 0.13992 0.19079 0.0
C741 C 0.64336 0.11844 0.16464 0.0
C742 C 0.58607 0.1968 0.20244 0.0
C743 C 0.6942 0.13488 0.20481 0.0
H744 H 0.70179 0.26386 0.24737 0.0
H745 H 0.66221 0.1881 0.32298 0.0
H746 H 0.69316 0.21289 0.17355 0.0
H747 H 0.65517 0.2343 0.17367 0.0
H748 H 0.696 0.25657 0.1863 0.0
H749 H 0.62746 0.13878 0.3067 0.0
H750 H 0.60362 0.1425 0.26563 0.0
H751 H 0.64209 0.12173 0.26705 0.0
H752 H 0.56783 0.15272 0.15072 0.0
H753 H 0.65707 0.09814 0.15545 0.0
H754 H 0.60025 0.22241 0.1994 0.0
H755 H 0.58168 0.19199 0.23099 0.0
H756 H 0.56071 0.19688 0.18849 0.0
H757 H 0.71111 0.15914 0.20281 0.0
H758 H 0.70604 0.11532 0.19035 0.0
H759 H 0.69319 0.12705 0.23308 0.0
C760 C 0.42558 0.61483 0.38727 0.0
C761 C 0.39156 0.6079 0.39829 0.0
C762 C 0.45297 0.61954 0.41185 0.0
C763 C 0.44608 0.61763 0.44829 0.0
C764 C 0.41163 0.61234 0.45951 0.0
C765 C 0.38475 0.60726 0.43434 0.0
C766 C 0.48936 0.62465 0.39884 0.0
C767 C 0.40325 0.61064 0.49813 0.0
C768 C 0.51391 0.58611 0.51059 0.0
C769 C 0.52964 0.61638 0.52439 0.0
C770 C 0.4869 0.5863 0.48565 0.0
C771 C 0.47496 0.61754 0.47458 0.0
C772 C 0.49067 0.64826 0.48853 0.0
C773 C 0.51809 0.64733 0.51319 0.0
C774 C 0.47117 0.55302 0.47111 0.0
C775 C 0.47831 0.68196 0.47762 0.0
H776 H 0.43092 0.61502 0.3594 0.0
H777 H 0.35841 0.60226 0.44286 0.0
H778 H 0.5039 0.64681 0.41138 0.0
H779 H 0.50277 0.60205 0.4063 0.0
H780 H 0.4902 0.62859 0.36977 0.0
H781 H 0.37518 0.61012 0.50236 0.0
H782 H 0.41232 0.58742 0.5107 0.0
H783 H 0.4168 0.63272 0.51172 0.0
H784 H 0.52288 0.56212 0.51917 0.0
H785 H 0.53017 0.67071 0.52404 0.0
H786 H 0.47294 0.55372 0.44199 0.0
H787 H 0.44348 0.54885 0.4774 0.0
H788 H 0.48401 0.53106 0.48192 0.0
H789 H 0.4805 0.68624 0.44873 0.0
H790 H 0.49315 0.70349 0.49105 0.0
H791 H 0.45072 0.68182 0.48381 0.0
C792 C 0.2488 0.29335 0.95159 0.0
C793 C 0.24041 0.28233 0.91741 0.0
C794 C 0.24391 0.32644 0.96116 0.0
C795 C 0.2305 0.34893 0.93588 0.0
C796 C 0.2217 0.33781 0.90149 0.0
C797 C 0.22653 0.30464 0.89278 0.0
C798 C 0.25306 0.33738 0.99822 0.0
C799 C 0.2066 0.36079 0.874 0.0
C800 C 0.18501 0.42307 0.96394 0.0
C801 C 0.20972 0.45048 0.95708 0.0
C802 C 0.19173 0.38974 0.95797 0.0
C803 C 0.22425 0.38377 0.94542 0.0
C804 C 0.24966 0.41141 0.93928 0.0
C805 C 0.24192 0.44462 0.94482 0.0
C806 C 0.16374 0.36109 0.96443 0.0
C807 C 0.28455 0.40597 0.92576 0.0
H808 H 0.2597 0.27631 0.97068 0.0
H809 H 0.21915 0.29606 0.86658 0.0
H810 H 0.27208 0.36022 0.99761 0.0
H811 H 0.22981 0.34447 1.01109 0.0
H812 H 0.26393 0.31712 1.01454 0.0
H813 H 0.20206 0.34854 0.84817 0.0
H814 H 0.18176 0.36816 0.8831 0.0
H815 H 0.2241 0.38445 0.87018 0.0
H816 H 0.1599 0.42793 0.97277 0.0
H817 H 0.26083 0.46602 0.93931 0.0
H818 H 0.17014 0.34676 0.98889 0.0
H819 H 0.16161 0.34309 0.94255 0.0
H820 H 0.13822 0.37047 0.96739 0.0
H821 H 0.29647 0.38685 0.94272 0.0
H822 H 0.30226 0.42979 0.92487 0.0
H823 H 0.28165 0.39589 0.89881 0.0
C824 C 0.75562 0.91844 0.97474 0.0
C825 C 0.7792 0.93581 0.95106 0.0
C826 C 0.72988 0.93463 0.99185 0.0
C827 C 0.72642 0.96979 0.98571 0.0
C828 C 0.75106 0.9879 0.96299 0.0
C829 C 0.77655 0.97093 0.94599 0.0
C830 C 0.70491 0.91333 1.01513 0.0
C831 C 0.74947 0.0252 0.95516 0.0
C832 C 0.6354 1.00138 0.99436 0.0
C833 C 0.63622 0.01634 1.02772 0.0
C834 C 0.66395 0.98662 0.98082 0.0
C835 C 0.69555 0.98648 1.00043 0.0
C836 C 0.69669 1.00155 0.03425 0.0
C837 C 0.66741 0.01596 0.0474 0.0
C838 C 0.66008 0.97089 0.94511 0.0
C839 C 0.72917 1.00265 0.05665 0.0
H840 H 0.75606 0.89126 0.97844 0.0
H841 H 0.79324 0.98494 0.92708 0.0
H842 H 0.70299 0.92555 0.04075 0.0
H843 H 0.67891 0.91128 1.00239 0.0
H844 H 0.71251 0.88734 1.02016 0.0
H845 H 0.77238 0.03684 0.94085 0.0
H846 H 0.72612 0.02884 0.93878 0.0
H847 H 0.74747 0.03883 0.97996 0.0
H848 H 0.61192 1.00106 0.97844 0.0
H849 H 0.66917 0.0273 0.07303 0.0
H850 H 0.66471 0.94376 0.9475 0.0
H851 H 0.6796 0.98369 0.92714 0.0
H852 H 0.63413 0.97262 0.93294 0.0
H853 H 0.73568 0.97647 0.06271 0.0
H854 H 0.72678 0.01562 0.08181 0.0
H855 H 0.75093 0.01606 0.04192 0.0
C856 C 0.77796 0.25524 0.42035 0.0
C857 C 0.77291 0.24876 0.38437 0.0
C858 C 0.80614 0.24396 0.43958 0.0
C859 C 0.82982 0.22564 0.4225 0.0
C860 C 0.82518 0.21953 0.38609 0.0
C861 C 0.79699 0.23129 0.3675 0.0
C862 C 0.81027 0.25114 0.47833 0.0
C863 C 0.84975 0.20013 0.3668 0.0
C864 C 0.91893 0.21666 0.46309 0.0
C865 C 0.91434 0.18406 0.4789 0.0
C866 C 0.89153 0.23081 0.44523 0.0
C867 C 0.85881 0.21178 0.44279 0.0
C868 C 0.85407 0.17886 0.4587 0.0
C869 C 0.88179 0.16549 0.47662 0.0
C870 C 0.8976 0.26607 0.42888 0.0
C871 C 0.81979 0.15751 0.45634 0.0
H872 H 0.75947 0.26855 0.43369 0.0
H873 H 0.79388 0.22684 0.33954 0.0
H874 H 0.808 0.22692 0.49397 0.0
H875 H 0.83625 0.2642 0.48402 0.0
H876 H 0.79069 0.26713 0.48733 0.0
H877 H 0.84285 0.19797 0.33833 0.0
H878 H 0.87633 0.21282 0.36941 0.0
H879 H 0.84985 0.1742 0.3787 0.0
H880 H 0.94389 0.2313 0.46506 0.0
H881 H 0.87814 0.14012 0.48837 0.0
H882 H 0.87919 0.28251 0.43934 0.0
H883 H 0.89296 0.26514 0.39997 0.0
H884 H 0.9242 0.27797 0.43405 0.0
H885 H 0.79939 0.17129 0.46726 0.0
H886 H 0.8201 0.1327 0.47076 0.0
H887 H 0.81267 0.15273 0.42832 0.0
C888 C 0.26089 0.67741 0.18906 0.0
C889 C 0.26899 0.64823 0.20824 0.0
C890 C 0.23191 0.67653 0.16636 0.0
C891 C 0.20996 0.64602 0.16351 0.0
C892 C 0.21693 0.61699 0.18411 0.0
C893 C 0.24655 0.61833 0.2059 0.0
C894 C 0.22553 0.70784 0.14446 0.0
C895 C 0.19368 0.58412 0.1823 0.0
C896 C 0.11927 0.6432 0.125 0.0
C897 C 0.12316 0.62786 0.09283 0.0
C898 C 0.14767 0.65081 0.14781 0.0
C899 C 0.18066 0.64359 0.13769 0.0
C900 C 0.18503 0.63076 0.10394 0.0
C901 C 0.1561 0.62265 0.08207 0.0
C902 C 0.1419 0.66399 0.18378 0.0
C903 C 0.21994 0.62358 0.09179 0.0
H904 H 0.27752 0.70091 0.19133 0.0
H905 H 0.25266 0.59556 0.22024 0.0
H906 H 0.22776 0.70271 0.11612 0.0
H907 H 0.19903 0.71448 0.14821 0.0
H908 H 0.24404 0.73006 0.1511 0.0
H909 H 0.20107 0.56486 0.20221 0.0
H910 H 0.1666 0.58876 0.18649 0.0
H911 H 0.19476 0.57348 0.15575 0.0
H912 H 0.09374 0.64704 0.13348 0.0
H913 H 0.15906 0.61083 0.05716 0.0
H914 H 0.16126 0.68557 0.19004 0.0
H915 H 0.14494 0.64361 0.20401 0.0
H916 H 0.11578 0.67233 0.18587 0.0
H917 H 0.23929 0.64559 0.09659 0.0
H918 H 0.21959 0.61783 0.06335 0.0
H919 H 0.22846 0.6015 0.10708 0.0
C920 C 0.35993 0.25492 0.73708 0.0
C921 C 0.33683 0.26056 0.76333 0.0
C922 C 0.37965 0.28216 0.7204 0.0
C923 C 0.37602 0.31571 0.73023 0.0
C924 C 0.35382 0.32142 0.75773 0.0
C925 C 0.33446 0.29378 0.77391 0.0
C926 C 0.40328 0.27515 0.69135 0.0
C927 C 0.34923 0.35686 0.76893 0.0
C928 C 0.44071 0.38977 0.70441 0.0
C929 C 0.42344 0.40455 0.67594 0.0
C930 C 0.42611 0.36015 0.7217 0.0
C931 C 0.39347 0.34507 0.71026 0.0
C932 C 0.37638 0.3593 0.68089 0.0
C933 C 0.3916 0.38888 0.66407 0.0
C934 C 0.44502 0.34569 0.75297 0.0
C935 C 0.34154 0.34386 0.66788 0.0
H936 H 0.362 0.22924 0.72905 0.0
H937 H 0.31623 0.29837 0.79375 0.0
H938 H 0.39348 0.28525 0.66586 0.0
H939 H 0.42939 0.2883 0.69616 0.0
H940 H 0.40537 0.2476 0.68893 0.0
H941 H 0.33295 0.35678 0.79245 0.0
H942 H 0.37459 0.37104 0.77497 0.0
H943 H 0.33701 0.37086 0.74702 0.0
H944 H 0.46516 0.40201 0.71395 0.0
H945 H 0.37841 0.39997 0.64177 0.0
H946 H 0.44695 0.31825 0.74974 0.0
H947 H 0.43043 0.34815 0.77724 0.0
H948 H 0.47135 0.35879 0.75673 0.0
H949 H 0.34248 0.31669 0.66228 0.0
H950 H 0.33251 0.35705 0.64364 0.0
H951 H 0.32232 0.3451 0.68863 0.0
C952 C 0.95854 0.79026 0.88838 0.0
C953 C 0.94681 0.81549 0.90919 0.0
C954 C 0.97207 0.7606 0.9033 0.0
C955 C 0.97537 0.75532 0.94054 0.0
C956 C 0.96385 0.78082 0.96173 0.0
C957 C 0.94951 0.80981 0.94609 0.0
C958 C 0.98245 0.73445 0.87887 0.0
C959 C 0.96708 0.77776 1.00133 0.0
C960 C 0.98412 0.66452 0.98259 0.0
C961 C 1.02002 0.6633 0.98714 0.0
C962 C 0.96955 0.6935 0.96738 0.0
C963 C 0.9908 0.7235 0.95701 0.0
C964 C 1.02704 0.72259 0.96214 0.0
C965 C 1.04099 0.69283 0.97634 0.0
C966 C 0.93104 0.69172 0.962 0.0
C967 C 0.05138 0.75347 0.95296 0.0
H968 H 0.95646 0.79329 0.85998 0.0
H969 H 0.94102 0.82858 0.96304 0.0
H970 H 1.01035 0.73199 0.88232 0.0
H971 H 0.96854 0.70928 0.88552 0.0
H972 H 0.97696 0.74098 0.85076 0.0
H973 H 0.95106 0.75478 1.01104 0.0
H974 H 0.99415 0.77478 1.00936 0.0
H975 H 0.95893 0.80018 1.01439 0.0
H976 H 0.96715 0.64228 0.99032 0.0
H977 H 0.06864 0.69299 0.9796 0.0
H978 H 0.92458 0.69835 0.93416 0.0
H979 H 0.92056 0.71048 0.97864 0.0
H980 H 0.91804 0.66613 0.96872 0.0
H981 H 0.04959 0.75941 0.92428 0.0
H982 H 0.07854 0.7499 0.96015 0.0
H983 H 0.04403 0.77577 0.96678 0.0
C984 C 0.41039 0.71237 0.24819 0.0
C985 C 0.39301 0.69048 0.22386 0.0
C986 C 0.43351 0.73973 0.23692 0.0
C987 C 0.43932 0.74522 0.20046 0.0
C988 C 0.42411 0.72154 0.17608 0.0
C989 C 0.40106 0.6944 0.1881 0.0
C990 C 0.44941 0.76432 0.26377 0.0
C991 C 0.43007 0.72628 0.13706 0.0
C992 C 0.455 0.83771 0.17183 0.0
C993 C 0.4909 0.84226 0.16943 0.0
C994 C 0.43791 0.80594 0.18089 0.0
C995 C 0.4572 0.77801 0.18771 0.0
C996 C 0.49334 0.78212 0.18421 0.0
C997 C 0.50981 0.81428 0.17516 0.0
C998 C 0.39927 0.80256 0.18435 0.0
C999 C 0.51463 0.75281 0.19093 0.0
H1000 H 0.40413 0.70956 0.27583 0.0
H1001 H 0.38808 0.67713 0.1693 0.0
H1002 H 0.47733 0.77041 0.25934 0.0
H1003 H 0.43731 0.7884 0.26091 0.0
H1004 H 0.44587 0.75419 0.29119 0.0
H1005 H 0.42112 0.70302 0.12247 0.0
H1006 H 0.41584 0.74731 0.12639 0.0
H1007 H 0.45775 0.73329 0.13197 0.0
H1008 H 0.44032 0.85931 0.16783 0.0
H1009 H 0.53754 0.81761 0.17283 0.0
H1010 H 0.39251 0.79563 0.21202 0.0
H1011 H 0.38719 0.78195 0.16763 0.0
H1012 H 0.38798 0.82638 0.17664 0.0
H1013 H 0.5136 0.74484 0.21918 0.0
H1014 H 0.542 0.75948 0.18403 0.0
H1015 H 0.504 0.73066 0.17552 0.0
C1016 C 0.23322 0.18337 0.70927 0.0
C1017 C 0.24476 0.1672 0.7401 0.0
C1018 C 0.21314 0.16517 0.68379 0.0
C1019 C 0.20434 0.12991 0.68928 0.0
C1020 C 0.21534 0.1135 0.72066 0.0
C1021 C 0.23538 0.13242 0.74584 0.0
C1022 C 0.20163 0.18363 0.65083 0.0
C1023 C 0.20642 0.0759 0.72733 0.0
C1024 C 0.12916 0.08857 0.63536 0.0
C1025 C 0.14611 0.07445 0.60827 0.0
C1026 C 0.1478 0.10643 0.66216 0.0
C1027 C 0.1842 0.11022 0.66173 0.0
C1028 C 0.20142 0.09614 0.63431 0.0
C1029 C 0.18212 0.07845 0.60783 0.0
C1030 C 0.12857 0.12129 0.69085 0.0
C1031 C 0.24021 0.09977 0.63296 0.0
H1032 H 0.23982 0.21043 0.70513 0.0
H1033 H 0.24431 0.11992 0.76966 0.0
H1034 H 0.21218 0.17291 0.62731 0.0
H1035 H 0.17317 0.18005 0.64796 0.0
H1036 H 0.21006 0.21127 0.65099 0.0
H1037 H 0.21619 0.06717 0.75345 0.0
H1038 H 0.1781 0.06954 0.72592 0.0
H1039 H 0.21751 0.06157 0.70659 0.0
H1040 H 0.10128 0.08548 0.63574 0.0
H1041 H 0.19526 0.06752 0.5869 0.0
H1042 H 0.13487 0.14924 0.6908 0.0
H1043 H 0.13669 0.11119 0.717 0.0
H1044 H 0.10024 0.11557 0.68766 0.0
H1045 H 0.2501 0.12702 0.63101 0.0
H1046 H 0.24963 0.08672 0.61025 0.0
H1047 H 0.25125 0.08912 0.65761 0.0
C1048 C 0.68044 0.4404 0.41712 0.0
C1049 C 0.67383 0.40491 0.41552 0.0
C1050 C 0.66986 0.45813 0.44557 0.0
C1051 C 0.6536 0.43999 0.47429 0.0
C1052 C 0.64938 0.40402 0.47436 0.0
C1053 C 0.65907 0.38691 0.44479 0.0
C1054 C 0.6745 0.49648 0.44392 0.0
C1055 C 0.63345 0.38362 0.50508 0.0
C1056 C 0.64722 0.49498 0.55391 0.0
C1057 C 0.61335 0.50352 0.55017 0.0
C1058 C 0.65999 0.47234 0.53094 0.0
C1059 C 0.63887 0.4591 0.50262 0.0
C1060 C 0.6044 0.46714 0.49928 0.0
C1061 C 0.59192 0.48873 0.52343 0.0
C1062 C 0.6964 0.46341 0.53636 0.0
C1063 C 0.58122 0.45457 0.46896 0.0
H1064 H 0.69302 0.45466 0.39543 0.0
H1065 H 0.65382 0.35955 0.44413 0.0
H1066 H 0.64899 0.5064 0.4444 0.0
H1067 H 0.68957 0.50629 0.46724 0.0
H1068 H 0.68781 0.50678 0.4198 0.0
H1069 H 0.63715 0.35628 0.50382 0.0
H1070 H 0.64469 0.39344 0.53035 0.0
H1071 H 0.60543 0.386 0.50514 0.0
H1072 H 0.6638 0.50616 0.57471 0.0
H1073 H 0.56582 0.49551 0.52021 0.0
H1074 H 0.71295 0.47643 0.51575 0.0
H1075 H 0.69736 0.4357 0.53393 0.0
H1076 H 0.70737 0.47107 0.56254 0.0
H1077 H 0.59219 0.46498 0.44372 0.0
H1078 H 0.55476 0.46211 0.47079 0.0
H1079 H 0.57964 0.42653 0.46805 0.0
loop_
_geom_bond_atom_site_label_1
_geom_bond_atom_site_label_2
_geom_bond_distance
_geom_bond_site_symmetry_2
_ccdc_geom_bond_type
H0 C1 0.949 . S
C1 H0 0.949 . S
C1 C2 1.395 . S
C1 C3 1.391 . S
C2 C1 1.395 . S
C2 C5 1.390 . S
C3 C1 1.391 . S
C3 C7 1.387 . S
C3 C8 1.491 . S
H4 C5 0.950 . S
C5 C2 1.390 . S
C5 H4 0.950 . S
C5 C6 1.378 . S
C6 C5 1.378 . S
C6 C7 1.409 . S
C7 C3 1.387 . S
C7 C6 1.409 . S
C7 H9 0.951 . S
C8 C3 1.491 . S
C8 C10 1.382 . S
C8 C12 1.404 . S
H9 C7 0.951 . S
C10 C8 1.382 . S
C10 C11 1.390 . S
C10 H15 0.949 . S
C11 C10 1.390 . S
C11 C16 1.399 . S
C12 C8 1.404 . S
C12 H13 0.950 . S
C12 C14 1.375 . S
H13 C12 0.950 . S
C14 C12 1.375 . S
C14 C16 1.382 . S
C14 H18 0.950 . S
H15 C10 0.949 . S
C16 C11 1.399 . S
C16 C14 1.382 . S
C16 H17 0.952 . S
H17 C16 0.952 . S
H18 C14 0.950 . S
H19 C20 0.949 . S
C20 H19 0.949 . S
C20 C21 1.395 . S
C20 C22 1.391 . S
C21 C20 1.395 . S
C21 C24 1.390 . S
C22 C20 1.391 . S
C22 C26 1.387 . S
C22 C27 1.491 . S
H23 C24 0.950 . S
C24 C21 1.390 . S
C24 H23 0.950 . S
C24 C25 1.378 . S
C25 C24 1.378 . S
C25 C26 1.409 . S
C26 C22 1.387 . S
C26 C25 1.409 . S
C26 H28 0.951 . S
C27 C22 1.491 . S
C27 C29 1.382 . S
C27 C31 1.404 . S
H28 C26 0.951 . S
C29 C27 1.382 . S
C29 C30 1.390 . S
C29 H34 0.949 . S
C30 C29 1.390 . S
C30 C35 1.399 . S
C31 C27 1.404 . S
C31 H32 0.950 . S
C31 C33 1.375 . S
H32 C31 0.950 . S
C33 C31 1.375 . S
C33 C35 1.382 . S
C33 H37 0.950 . S
H34 C29 0.949 . S
C35 C30 1.399 . S
C35 C33 1.382 . S
C35 H36 0.952 . S
H36 C35 0.952 . S
H37 C33 0.950 . S
H38 C39 0.949 . S
C39 H38 0.949 . S
C39 C40 1.395 . S
C39 C41 1.391 . S
C40 C39 1.395 . S
C40 C43 1.390 . S
C41 C39 1.391 . S
C41 C45 1.387 . S
C41 C46 1.491 . S
H42 C43 0.950 . S
C43 C40 1.390 . S
C43 H42 0.950 . S
C43 C44 1.378 . S
C44 C43 1.378 . S
C44 C45 1.409 . S
C45 C41 1.387 . S
C45 C44 1.409 . S
C45 H47 0.951 . S
C46 C41 1.491 . S
C46 C48 1.382 . S
C46 C50 1.404 . S
H47 C45 0.951 . S
C48 C46 1.382 . S
C48 C49 1.390 . S
C48 H53 0.949 . S
C49 C48 1.390 . S
C49 C54 1.399 . S
C50 C46 1.404 . S
C50 H51 0.950 . S
C50 C52 1.375 . S
H51 C50 0.950 . S
C52 C50 1.375 . S
C52 C54 1.382 . S
C52 H56 0.950 . S
H53 C48 0.949 . S
C54 C49 1.399 . S
C54 C52 1.382 . S
C54 H55 0.952 . S
H55 C54 0.952 . S
H56 C52 0.950 . S
H57 C58 0.949 . S
C58 H57 0.949 . S
C58 C59 1.395 . S
C58 C60 1.391 . S
C59 C58 1.395 . S
C59 C62 1.390 . S
C60 C58 1.391 . S
C60 C64 1.387 . S
C60 C65 1.491 . S
H61 C62 0.950 . S
C62 C59 1.390 . S
C62 H61 0.950 . S
C62 C63 1.378 . S
C63 C62 1.378 . S
C63 C64 1.409 . S
C64 C60 1.387 . S
C64 C63 1.409 . S
C64 H66 0.951 . S
C65 C60 1.491 . S
C65 C67 1.382 . S
C65 C69 1.404 . S
H66 C64 0.951 . S
C67 C65 1.382 . S
C67 C68 1.390 . S
C67 H72 0.949 . S
C68 C67 1.390 . S
C68 C73 1.399 . S
C69 C65 1.404 . S
C69 H70 0.950 . S
C69 C71 1.375 . S
H70 C69 0.950 . S
C71 C69 1.375 . S
C71 C73 1.382 . S
C71 H75 0.950 . S
H72 C67 0.949 . S
C73 C68 1.399 . S
C73 C71 1.382 . S
C73 H74 0.952 . S
H74 C73 0.952 . S
H75 C71 0.950 . S
H76 C77 0.949 . S
C77 H76 0.949 . S
C77 C78 1.395 . S
C77 C79 1.391 . S
C78 C77 1.395 . S
C78 C81 1.390 . S
C79 C77 1.391 . S
C79 C83 1.387 . S
C79 C84 1.491 . S
H80 C81 0.950 . S
C81 C78 1.390 . S
C81 H80 0.950 . S
C81 C82 1.378 . S
C82 C81 1.378 . S
C82 C83 1.409 . S
C83 C79 1.387 . S
C83 C82 1.409 . S
C83 H85 0.951 . S
C84 C79 1.491 . S
C84 C86 1.382 . S
C84 C88 1.404 . S
H85 C83 0.951 . S
C86 C84 1.382 . S
C86 C87 1.390 . S
C86 H91 0.949 . S
C87 C86 1.390 . S
C87 C92 1.399 . S
C88 C84 1.404 . S
C88 H89 0.950 . S
C88 C90 1.375 . S
H89 C88 0.950 . S
C90 C88 1.375 . S
C90 C92 1.382 . S
C90 H94 0.950 . S
H91 C86 0.949 . S
C92 C87 1.399 . S
C92 C90 1.382 . S
C92 H93 0.952 . S
H93 C92 0.952 . S
H94 C90 0.950 . S
H95 C96 0.949 . S
C96 H95 0.949 . S
C96 C97 1.395 . S
C96 C98 1.391 . S
C97 C96 1.395 . S
C97 C100 1.390 . S
C98 C96 1.391 . S
C98 C102 1.387 . S
C98 C103 1.491 . S
H99 C100 0.950 . S
C100 C97 1.390 . S
C100 H99 0.950 . S
C100 C101 1.378 . S
C101 C100 1.378 . S
C101 C102 1.409 . S
C102 C98 1.387 . S
C102 C101 1.409 . S
C102 H104 0.951 . S
C103 C98 1.491 . S
C103 C105 1.382 . S
C103 C107 1.404 . S
H104 C102 0.951 . S
C105 C103 1.382 . S
C105 C106 1.390 . S
C105 H110 0.949 . S
C106 C105 1.390 . S
C106 C111 1.399 . S
C107 C103 1.404 . S
C107 H108 0.950 . S
C107 C109 1.375 . S
H108 C107 0.950 . S
C109 C107 1.375 . S
C109 C111 1.382 . S
C109 H113 0.950 . S
H110 C105 0.949 . S
C111 C106 1.399 . S
C111 C109 1.382 . S
C111 H112 0.952 . S
H112 C111 0.952 . S
H113 C109 0.950 . S
H114 C115 0.949 . S
C115 H114 0.949 . S
C115 C116 1.395 . S
C115 C117 1.391 . S
C116 C115 1.395 . S
C116 C119 1.390 . S
C117 C115 1.391 . S
C117 C121 1.387 . S
C117 C122 1.491 . S
H118 C119 0.950 . S
C119 C116 1.390 . S
C119 H118 0.950 . S
C119 C120 1.378 . S
C120 C119 1.378 . S
C120 C121 1.409 . S
C121 C117 1.387 . S
C121 C120 1.409 . S
C121 H123 0.951 . S
C122 C117 1.491 . S
C122 C124 1.382 . S
C122 C126 1.404 . S
H123 C121 0.951 . S
C124 C122 1.382 . S
C124 C125 1.390 . S
C124 H129 0.949 . S
C125 C124 1.390 . S
C125 C130 1.399 . S
C126 C122 1.404 . S
C126 H127 0.950 . S
C126 C128 1.375 . S
H127 C126 0.950 . S
C128 C126 1.375 . S
C128 C130 1.382 . S
C128 H132 0.950 . S
H129 C124 0.949 . S
C130 C125 1.399 . S
C130 C128 1.382 . S
C130 H131 0.952 . S
H131 C130 0.952 . S
H132 C128 0.950 . S
H133 C134 0.949 . S
C134 H133 0.949 . S
C134 C135 1.395 . S
C134 C136 1.391 . S
C135 C134 1.395 . S
C135 C138 1.390 . S
C136 C134 1.391 . S
C136 C140 1.387 . S
C136 C141 1.491 . S
H137 C138 0.950 . S
C138 C135 1.390 . S
C138 H137 0.950 . S
C138 C139 1.378 . S
C139 C138 1.378 . S
C139 C140 1.409 . S
C140 C136 1.387 . S
C140 C139 1.409 . S
C140 H142 0.951 . S
C141 C136 1.491 . S
C141 C143 1.382 . S
C141 C145 1.404 . S
H142 C140 0.951 . S
C143 C141 1.382 . S
C143 C144 1.390 . S
C143 H148 0.949 . S
C144 C143 1.390 . S
C144 C149 1.399 . S
C145 C141 1.404 . S
C145 H146 0.950 . S
C145 C147 1.375 . S
H146 C145 0.950 . S
C147 C145 1.375 . S
C147 C149 1.382 . S
C147 H151 0.950 . S
H148 C143 0.949 . S
C149 C144 1.399 . S
C149 C147 1.382 . S
C149 H150 0.952 . S
H150 C149 0.952 . S
H151 C147 0.950 . S
Nd152 C154 2.836 1_545 S
Nd152 O172 2.500 1_545 S
Nd152 O173 2.492 1_545 S
Nd152 O174 2.487 . S
Nd152 O175 2.682 . S
Nd152 O176 2.410 1_545 S
Nd152 O181 2.414 1_445 S
Nd152 O183 2.424 . S
Nd153 C163 2.836 . S
Nd153 O175 2.414 1_655 S
Nd153 O177 2.443 . S
Nd153 O178 2.500 . S
Nd153 O179 2.492 . S
Nd153 O180 2.487 1_545 S
Nd153 O181 2.682 1_545 S
Nd153 O182 2.410 . S
C154 Nd152 2.836 1_565 S
C154 C155 1.498 . S
C154 O172 1.258 . S
C154 O173 1.239 . S
C155 C154 1.498 . S
C155 C156 1.366 . S
C155 C160 1.407 . S
C156 C155 1.366 . S
C156 C157 1.392 . S
C156 H184 0.930 . S
C157 C156 1.392 . S
C157 C158 1.398 . S
C157 H185 0.929 . S
C158 C157 1.398 . S
C158 C159 1.352 . S
C159 C158 1.352 . S
C159 C160 1.384 . S
C159 H186 0.930 . S
C160 C155 1.407 . S
C160 C159 1.384 . S
C160 H187 0.929 . S
C161 O174 1.241 . S
C161 O175 1.273 . S
C162 O176 1.251 1_655 S
C162 O177 1.250 1_565 S
C163 Nd153 2.836 . S
C163 C164 1.498 . S
C163 O178 1.258 . S
C163 O179 1.239 . S
C164 C163 1.498 . S
C164 C165 1.366 . S
C164 C169 1.407 . S
C165 C164 1.366 . S
C165 C166 1.392 . S
C165 H188 0.930 . S
C166 C165 1.392 . S
C166 C167 1.398 . S
C166 H189 0.929 . S
C167 C166 1.398 . S
C167 C168 1.352 . S
C168 C167 1.352 . S
C168 C169 1.384 . S
C168 H190 0.930 . S
C169 C164 1.407 . S
C169 C168 1.384 . S
C169 H191 0.929 . S
C170 O180 1.241 . S
C170 O181 1.273 . S
C171 O182 1.251 1_455 S
C171 O183 1.268 . S
O172 Nd152 2.500 1_565 S
O172 C154 1.258 . S
O173 Nd152 2.492 1_565 S
O173 C154 1.239 . S
O174 Nd152 2.487 . S
O174 C161 1.241 . S
O175 Nd152 2.682 . S
O175 Nd153 2.414 1_455 S
O175 C161 1.273 . S
O176 Nd152 2.410 1_565 S
O176 C162 1.251 1_455 S
O177 Nd153 2.443 . S
O177 C162 1.250 1_545 S
O178 Nd153 2.500 . S
O178 C163 1.258 . S
O179 Nd153 2.492 . S
O179 C163 1.239 . S
O180 Nd153 2.487 1_565 S
O180 C170 1.241 . S
O181 Nd152 2.414 1_665 S
O181 Nd153 2.682 1_565 S
O181 C170 1.273 . S
O182 Nd153 2.410 . S
O182 C171 1.251 1_655 S
O183 Nd152 2.424 . S
O183 C171 1.268 . S
H184 C156 0.930 . S
H185 C157 0.929 . S
H186 C159 0.930 . S
H187 C160 0.929 . S
H188 C165 0.930 . S
H189 C166 0.929 . S
H190 C168 0.930 . S
H191 C169 0.929 . S
Nd192 C194 2.845 . S
Nd192 O212 2.509 . S
Nd192 O213 2.498 . S
Nd192 O214 2.481 1_565 S
Nd192 O215 2.674 1_565 S
Nd192 O216 2.412 . S
Nd192 O221 2.414 1_565 S
Nd192 O223 2.417 1_565 S
Nd193 C203 2.836 . S
Nd193 O215 2.414 . S
Nd193 O217 2.407 1_545 S
Nd193 O218 2.500 . S
Nd193 O219 2.492 . S
Nd193 O220 2.487 . S
Nd193 O221 2.682 . S
Nd193 O222 2.410 . S
C194 Nd192 2.845 . S
C194 C195 1.498 . S
C194 O212 1.258 . S
C194 O213 1.239 . S
C195 C194 1.498 . S
C195 C196 1.366 . S
C195 C200 1.407 . S
C196 C195 1.366 . S
C196 C197 1.392 . S
C196 H224 0.930 . S
C197 C196 1.392 . S
C197 C198 1.398 . S
C197 H225 0.929 . S
C198 C197 1.398 . S
C198 C199 1.352 . S
C199 C198 1.352 . S
C199 C200 1.384 . S
C199 H226 0.930 . S
C200 C195 1.407 . S
C200 C199 1.384 . S
C200 H227 0.929 . S
C201 O214 1.241 . S
C201 O215 1.273 . S
C202 O216 1.251 . S
C202 O217 1.283 . S
C203 Nd193 2.836 . S
C203 C204 1.498 . S
C203 O218 1.258 . S
C203 O219 1.239 . S
C204 C203 1.498 . S
C204 C205 1.366 . S
C204 C209 1.407 1_554 S
C205 C204 1.366 . S
C205 C206 1.392 . S
C205 H228 0.930 . S
C206 C205 1.392 . S
C206 C207 1.398 . S
C206 H229 0.929 . S
C207 C206 1.398 . S
C207 C208 1.352 1_554 S
C208 C207 1.352 1_556 S
C208 C209 1.384 . S
C208 H230 0.930 . S
C209 C204 1.407 1_556 S
C209 C208 1.384 . S
C209 H231 0.929 . S
C210 O220 1.241 . S
C210 O221 1.273 . S
C211 O222 1.251 . S
C211 O223 1.268 . S
O212 Nd192 2.509 . S
O212 C194 1.258 . S
O213 Nd192 2.498 . S
O213 C194 1.239 . S
O214 Nd192 2.481 1_545 S
O214 C201 1.241 . S
O215 Nd192 2.674 1_545 S
O215 Nd193 2.414 . S
O215 C201 1.273 . S
O216 Nd192 2.412 . S
O216 C202 1.251 . S
O217 Nd193 2.407 1_565 S
O217 C202 1.283 . S
O218 Nd193 2.500 . S
O218 C203 1.258 . S
O219 Nd193 2.492 . S
O219 C203 1.239 . S
O220 Nd193 2.487 . S
O220 C210 1.241 . S
O221 Nd192 2.414 1_545 S
O221 Nd193 2.682 . S
O221 C210 1.273 . S
O222 Nd193 2.410 . S
O222 C211 1.251 . S
O223 Nd192 2.417 1_545 S
O223 C211 1.268 . S
H224 C196 0.930 . S
H225 C197 0.929 . S
H226 C199 0.930 . S
H227 C200 0.929 . S
H228 C205 0.930 . S
H229 C206 0.929 . S
H230 C208 0.930 . S
H231 C209 0.929 . S
Nd232 C234 2.836 . S
Nd232 O252 2.500 . S
Nd232 O253 2.492 . S
Nd232 O254 2.487 . S
Nd232 O255 2.682 . S
Nd232 O256 2.410 . S
Nd232 O261 2.414 . S
Nd232 O263 2.424 . S
Nd233 C243 2.836 . S
Nd233 O255 2.414 . S
Nd233 O257 2.424 . S
Nd233 O258 2.500 . S
Nd233 O259 2.492 . S
Nd233 O260 2.487 . S
Nd233 O261 2.682 . S
Nd233 O262 2.410 . S
C234 Nd232 2.836 . S
C234 C235 1.498 . S
C234 O252 1.258 . S
C234 O253 1.239 . S
C235 C234 1.498 . S
C235 C236 1.366 . S
C235 C240 1.407 . S
C236 C235 1.366 . S
C236 C237 1.392 . S
C236 H264 0.930 . S
C237 C236 1.392 . S
C237 C238 1.398 . S
C237 H265 0.929 . S
C238 C237 1.398 . S
C238 C239 1.352 . S
C239 C238 1.352 . S
C239 C240 1.384 . S
C239 H266 0.930 . S
C240 C235 1.407 . S
C240 C239 1.384 . S
C240 H267 0.929 . S
C241 O254 1.241 . S
C241 O255 1.273 . S
C242 O256 1.251 . S
C242 O257 1.268 . S
C243 Nd233 2.836 . S
C243 C244 1.498 . S
C243 O258 1.258 . S
C243 O259 1.239 . S
C244 C243 1.498 . S
C244 C245 1.366 . S
C244 C249 1.407 . S
C245 C244 1.366 . S
C245 C246 1.392 . S
C245 H268 0.930 . S
C246 C245 1.392 . S
C246 C247 1.398 . S
C246 H269 0.929 . S
C247 C246 1.398 . S
C247 C248 1.352 . S
C248 C247 1.352 . S
C248 C249 1.384 . S
C248 H270 0.930 . S
C249 C244 1.407 . S
C249 C248 1.384 . S
C249 H271 0.929 . S
C250 O260 1.241 . S
C250 O261 1.273 . S
C251 O262 1.251 . S
C251 O263 1.268 . S
O252 Nd232 2.500 . S
O252 C234 1.258 . S
O253 Nd232 2.492 . S
O253 C234 1.239 . S
O254 Nd232 2.487 . S
O254 C241 1.241 . S
O255 Nd232 2.682 . S
O255 Nd233 2.414 . S
O255 C241 1.273 . S
O256 Nd232 2.410 . S
O256 C242 1.251 . S
O257 Nd233 2.424 . S
O257 C242 1.268 . S
O258 Nd233 2.500 . S
O258 C243 1.258 . S
O259 Nd233 2.492 . S
O259 C243 1.239 . S
O260 Nd233 2.487 . S
O260 C250 1.241 . S
O261 Nd232 2.414 . S
O261 Nd233 2.682 . S
O261 C250 1.273 . S
O262 Nd233 2.410 . S
O262 C251 1.251 . S
O263 Nd232 2.424 . S
O263 C251 1.268 . S
H264 C236 0.930 . S
H265 C237 0.929 . S
H266 C239 0.930 . S
H267 C240 0.929 . S
H268 C245 0.930 . S
H269 C246 0.929 . S
H270 C248 0.930 . S
H271 C249 0.929 . S
Nd272 C274 2.836 1_455 S
Nd272 O292 2.500 1_455 S
Nd272 O293 2.492 . S
Nd272 O294 2.487 . S
Nd272 O295 2.682 . S
Nd272 O296 2.410 . S
Nd272 O301 2.414 1_454 S
Nd272 O303 2.424 . S
Nd273 C283 2.836 . S
Nd273 O295 2.414 1_556 S
Nd273 O297 2.424 . S
Nd273 O298 2.500 . S
Nd273 O299 2.492 . S
Nd273 O300 2.487 1_455 S
Nd273 O301 2.682 1_455 S
Nd273 O302 2.410 . S
C274 Nd272 2.836 1_655 S
C274 C275 1.498 . S
C274 O292 1.258 . S
C274 O293 1.239 1_655 S
C275 C274 1.498 . S
C275 C276 1.366 . S
C275 C280 1.407 . S
C276 C275 1.366 . S
C276 C277 1.392 . S
C276 H304 0.930 . S
C277 C276 1.392 . S
C277 C278 1.398 . S
C277 H305 0.929 . S
C278 C277 1.398 . S
C278 C279 1.352 . S
C279 C278 1.352 . S
C279 C280 1.384 . S
C279 H306 0.930 . S
C280 C275 1.407 . S
C280 C279 1.384 . S
C280 H307 0.929 1_655 S
C281 O294 1.241 . S
C281 O295 1.273 . S
C282 O296 1.253 1_556 S
C282 O297 1.266 . S
C283 Nd273 2.836 . S
C283 C284 1.498 . S
C283 O298 1.258 . S
C283 O299 1.239 . S
C284 C283 1.498 . S
C284 C285 1.366 . S
C284 C289 1.407 . S
C285 C284 1.366 . S
C285 C286 1.392 . S
C285 H308 0.930 . S
C286 C285 1.392 . S
C286 C287 1.398 . S
C286 H309 0.929 . S
C287 C286 1.398 . S
C287 C288 1.352 . S
C288 C287 1.352 . S
C288 C289 1.384 . S
C288 H310 0.930 . S
C289 C284 1.407 . S
C289 C288 1.384 . S
C289 H311 0.929 . S
C290 O300 1.241 . S
C290 O301 1.273 . S
C291 O302 1.251 1_554 S
C291 O303 1.268 . S
O292 Nd272 2.500 1_655 S
O292 C274 1.258 . S
O293 Nd272 2.492 . S
O293 C274 1.239 1_455 S
O294 Nd272 2.487 . S
O294 C281 1.241 . S
O295 Nd272 2.682 . S
O295 Nd273 2.414 1_554 S
O295 C281 1.273 . S
O296 Nd272 2.410 . S
O296 C282 1.253 1_554 S
O297 Nd273 2.424 . S
O297 C282 1.266 . S
O298 Nd273 2.500 . S
O298 C283 1.258 . S
O299 Nd273 2.492 . S
O299 C283 1.239 . S
O300 Nd273 2.487 1_655 S
O300 C290 1.241 . S
O301 Nd272 2.414 1_656 S
O301 Nd273 2.682 1_655 S
O301 C290 1.273 . S
O302 Nd273 2.410 . S
O302 C291 1.251 1_556 S
O303 Nd272 2.424 . S
O303 C291 1.268 . S
H304 C276 0.930 . S
H305 C277 0.929 . S
H306 C279 0.930 . S
H307 C280 0.929 1_455 S
H308 C285 0.930 . S
H309 C286 0.929 . S
H310 C288 0.930 . S
H311 C289 0.929 . S
C312 C313 1.391 . S
C312 C314 1.394 . S
C312 H328 0.931 . S
C313 C312 1.391 . S
C313 C317 1.376 . S
C314 C312 1.394 . S
C314 C315 1.369 . S
C314 C318 1.531 . S
C315 C314 1.369 . S
C315 C316 1.410 . S
C315 C323 1.503 . S
C316 C315 1.410 . S
C316 C317 1.392 . S
C316 C319 1.511 . S
C317 C313 1.376 . S
C317 C316 1.392 . S
C317 H329 0.929 . S
C318 C314 1.531 . S
C318 H330 0.960 . S
C318 H331 0.962 . S
C318 H332 0.960 . S
C319 C316 1.511 . S
C319 H333 0.961 . S
C319 H334 0.961 . S
C319 H335 0.961 . S
C320 C321 1.370 . S
C320 C322 1.363 . S
C320 H336 0.931 . S
C321 C320 1.370 . S
C321 C325 1.408 . S
C322 C320 1.363 . S
C322 C323 1.370 . S
C322 C326 1.524 . S
C323 C315 1.503 . S
C323 C322 1.370 . S
C323 C324 1.403 . S
C324 C323 1.403 . S
C324 C325 1.404 . S
C324 C327 1.539 . S
C325 C321 1.408 . S
C325 C324 1.404 . S
C325 H337 0.930 . S
C326 C322 1.524 . S
C326 H338 0.956 . S
C326 H339 0.961 . S
C326 H340 0.961 . S
C327 C324 1.539 . S
C327 H341 0.958 . S
C327 H342 0.961 . S
C327 H343 0.960 . S
H328 C312 0.931 . S
H329 C317 0.929 . S
H330 C318 0.960 . S
H331 C318 0.962 . S
H332 C318 0.960 . S
H333 C319 0.961 . S
H334 C319 0.961 . S
H335 C319 0.961 . S
H336 C320 0.931 . S
H337 C325 0.930 . S
H338 C326 0.956 . S
H339 C326 0.961 . S
H340 C326 0.961 . S
H341 C327 0.958 . S
H342 C327 0.961 . S
H343 C327 0.960 . S
C344 C345 1.391 . S
C344 C346 1.394 . S
C344 H360 0.931 . S
C345 C344 1.391 . S
C345 C349 1.376 . S
C346 C344 1.394 . S
C346 C347 1.369 . S
C346 C350 1.531 . S
C347 C346 1.369 . S
C347 C348 1.410 . S
C347 C355 1.503 . S
C348 C347 1.410 . S
C348 C349 1.392 . S
C348 C351 1.511 . S
C349 C345 1.376 . S
C349 C348 1.392 . S
C349 H361 0.929 . S
C350 C346 1.531 . S
C350 H362 0.960 . S
C350 H363 0.962 . S
C350 H364 0.960 . S
C351 C348 1.511 . S
C351 H365 0.961 . S
C351 H366 0.961 . S
C351 H367 0.961 . S
C352 C353 1.370 . S
C352 C354 1.363 . S
C352 H368 0.931 1_556 S
C353 C352 1.370 . S
C353 C357 1.408 . S
C354 C352 1.363 . S
C354 C355 1.370 . S
C354 C358 1.524 . S
C355 C347 1.503 . S
C355 C354 1.370 . S
C355 C356 1.403 . S
C356 C355 1.403 . S
C356 C357 1.404 . S
C356 C359 1.539 . S
C357 C353 1.408 . S
C357 C356 1.404 . S
C357 H369 0.930 . S
C358 C354 1.524 . S
C358 H370 0.956 . S
C358 H371 0.961 . S
C358 H372 0.961 1_556 S
C359 C356 1.539 . S
C359 H373 0.958 . S
C359 H374 0.961 . S
C359 H375 0.960 . S
H360 C344 0.931 . S
H361 C349 0.929 . S
H362 C350 0.960 . S
H363 C350 0.962 . S
H364 C350 0.960 . S
H365 C351 0.961 . S
H366 C351 0.961 . S
H367 C351 0.961 . S
H368 C352 0.931 1_554 S
H369 C357 0.930 . S
H370 C358 0.956 . S
H371 C358 0.961 . S
H372 C358 0.961 1_554 S
H373 C359 0.958 . S
H374 C359 0.961 . S
H375 C359 0.960 . S
C376 C377 1.391 . S
C376 C378 1.394 . S
C376 H392 0.931 . S
C377 C376 1.391 . S
C377 C381 1.376 . S
C378 C376 1.394 . S
C378 C379 1.369 . S
C378 C382 1.531 . S
C379 C378 1.369 . S
C379 C380 1.410 . S
C379 C387 1.503 . S
C380 C379 1.410 . S
C380 C381 1.392 . S
C380 C383 1.511 . S
C381 C377 1.376 . S
C381 C380 1.392 . S
C381 H393 0.929 . S
C382 C378 1.531 . S
C382 H394 0.960 . S
C382 H395 0.962 . S
C382 H396 0.960 . S
C383 C380 1.511 . S
C383 H397 0.961 . S
C383 H398 0.961 . S
C383 H399 0.961 . S
C384 C385 1.370 . S
C384 C386 1.363 . S
C384 H400 0.931 . S
C385 C384 1.370 . S
C385 C389 1.408 . S
C386 C384 1.363 . S
C386 C387 1.370 . S
C386 C390 1.524 . S
C387 C379 1.503 . S
C387 C386 1.370 . S
C387 C388 1.403 . S
C388 C387 1.403 . S
C388 C389 1.404 . S
C388 C391 1.539 . S
C389 C385 1.408 . S
C389 C388 1.404 . S
C389 H401 0.930 . S
C390 C386 1.524 . S
C390 H402 0.956 . S
C390 H403 0.961 . S
C390 H404 0.961 . S
C391 C388 1.539 . S
C391 H405 0.958 . S
C391 H406 0.961 . S
C391 H407 0.960 . S
H392 C376 0.931 . S
H393 C381 0.929 . S
H394 C382 0.960 . S
H395 C382 0.962 . S
H396 C382 0.960 . S
H397 C383 0.961 . S
H398 C383 0.961 . S
H399 C383 0.961 . S
H400 C384 0.931 . S
H401 C389 0.930 . S
H402 C390 0.956 . S
H403 C390 0.961 . S
H404 C390 0.961 . S
H405 C391 0.958 . S
H406 C391 0.961 . S
H407 C391 0.960 . S
C408 C409 1.391 . S
C408 C410 1.394 . S
C408 H424 0.931 . S
C409 C408 1.391 . S
C409 C413 1.376 . S
C410 C408 1.394 . S
C410 C411 1.369 . S
C410 C414 1.531 . S
C411 C410 1.369 . S
C411 C412 1.410 . S
C411 C419 1.503 . S
C412 C411 1.410 . S
C412 C413 1.392 . S
C412 C415 1.511 . S
C413 C409 1.376 . S
C413 C412 1.392 . S
C413 H425 0.929 . S
C414 C410 1.531 . S
C414 H426 0.960 . S
C414 H427 0.962 . S
C414 H428 0.952 1_655 S
C415 C412 1.511 . S
C415 H429 0.961 . S
C415 H430 0.961 . S
C415 H431 0.961 . S
C416 C417 1.370 . S
C416 C418 1.363 . S
C416 H432 0.931 . S
C417 C416 1.370 . S
C417 C421 1.408 . S
C418 C416 1.363 . S
C418 C419 1.370 . S
C418 C422 1.524 . S
C419 C411 1.503 . S
C419 C418 1.370 . S
C419 C420 1.403 . S
C420 C419 1.403 . S
C420 C421 1.404 . S
C420 C423 1.539 . S
C421 C417 1.408 . S
C421 C420 1.404 . S
C421 H433 0.930 . S
C422 C418 1.524 . S
C422 H434 0.956 . S
C422 H435 0.961 . S
C422 H436 0.961 . S
C423 C420 1.539 . S
C423 H437 0.958 . S
C423 H438 0.961 . S
C423 H439 0.960 . S
H424 C408 0.931 . S
H425 C413 0.929 . S
H426 C414 0.960 . S
H427 C414 0.962 . S
H428 C414 0.952 1_455 S
H429 C415 0.961 . S
H430 C415 0.961 . S
H431 C415 0.961 . S
H432 C416 0.931 . S
H433 C421 0.930 . S
H434 C422 0.956 . S
H435 C422 0.961 . S
H436 C422 0.961 . S
H437 C423 0.958 . S
H438 C423 0.961 . S
H439 C423 0.960 . S
C440 C441 1.391 . S
C440 C442 1.394 . S
C440 H456 0.931 . S
C441 C440 1.391 . S
C441 C445 1.376 . S
C442 C440 1.394 . S
C442 C443 1.369 . S
C442 C446 1.531 . S
C443 C442 1.369 . S
C443 C444 1.410 . S
C443 C451 1.503 . S
C444 C443 1.410 . S
C444 C445 1.392 . S
C444 C447 1.511 . S
C445 C441 1.376 . S
C445 C444 1.392 . S
C445 H457 0.929 . S
C446 C442 1.531 . S
C446 H458 0.960 . S
C446 H459 0.962 . S
C446 H460 0.960 . S
C447 C444 1.511 . S
C447 H461 0.961 . S
C447 H462 0.961 . S
C447 H463 0.961 . S
C448 C449 1.370 . S
C448 C450 1.363 . S
C448 H464 0.931 . S
C449 C448 1.370 . S
C449 C453 1.408 . S
C450 C448 1.363 . S
C450 C451 1.370 . S
C450 C454 1.524 . S
C451 C443 1.503 . S
C451 C450 1.370 . S
C451 C452 1.403 . S
C452 C451 1.403 . S
C452 C453 1.404 . S
C452 C455 1.539 . S
C453 C449 1.408 . S
C453 C452 1.404 . S
C453 H465 0.930 . S
C454 C450 1.524 . S
C454 H466 0.956 . S
C454 H467 0.961 . S
C454 H468 0.961 . S
C455 C452 1.539 . S
C455 H469 0.958 . S
C455 H470 0.961 . S
C455 H471 0.960 . S
H456 C440 0.931 . S
H457 C445 0.929 . S
H458 C446 0.960 . S
H459 C446 0.962 . S
H460 C446 0.960 . S
H461 C447 0.961 . S
H462 C447 0.961 . S
H463 C447 0.961 . S
H464 C448 0.931 . S
H465 C453 0.930 . S
H466 C454 0.956 . S
H467 C454 0.961 . S
H468 C454 0.961 . S
H469 C455 0.958 . S
H470 C455 0.961 . S
H471 C455 0.960 . S
C472 C473 1.391 . S
C472 C474 1.394 . S
C472 H488 0.931 . S
C473 C472 1.391 . S
C473 C477 1.376 . S
C474 C472 1.394 . S
C474 C475 1.369 . S
C474 C478 1.531 . S
C475 C474 1.369 . S
C475 C476 1.410 . S
C475 C483 1.503 . S
C476 C475 1.410 . S
C476 C477 1.392 . S
C476 C479 1.511 . S
C477 C473 1.376 . S
C477 C476 1.392 . S
C477 H489 0.929 . S
C478 C474 1.531 . S
C478 H490 0.960 . S
C478 H491 0.962 . S
C478 H492 0.960 . S
C479 C476 1.511 . S
C479 H493 0.961 . S
C479 H494 0.961 . S
C479 H495 0.961 . S
C480 C481 1.370 . S
C480 C482 1.363 . S
C480 H496 0.931 . S
C481 C480 1.370 . S
C481 C485 1.408 . S
C482 C480 1.363 . S
C482 C483 1.370 . S
C482 C486 1.524 . S
C483 C475 1.503 . S
C483 C482 1.370 . S
C483 C484 1.403 . S
C484 C483 1.403 . S
C484 C485 1.404 . S
C484 C487 1.539 . S
C485 C481 1.408 . S
C485 C484 1.404 . S
C485 H497 0.930 . S
C486 C482 1.524 . S
C486 H498 0.956 . S
C486 H499 0.961 . S
C486 H500 0.961 . S
C487 C484 1.539 . S
C487 H501 0.958 . S
C487 H502 0.961 . S
C487 H503 0.960 . S
H488 C472 0.931 . S
H489 C477 0.929 . S
H490 C478 0.960 . S
H491 C478 0.962 . S
H492 C478 0.960 . S
H493 C479 0.961 . S
H494 C479 0.961 . S
H495 C479 0.961 . S
H496 C480 0.931 . S
H497 C485 0.930 . S
H498 C486 0.956 . S
H499 C486 0.961 . S
H500 C486 0.961 . S
H501 C487 0.958 . S
H502 C487 0.961 . S
H503 C487 0.960 . S
C504 C505 1.391 . S
C504 C506 1.394 . S
C504 H520 0.931 . S
C505 C504 1.391 . S
C505 C509 1.376 . S
C506 C504 1.394 . S
C506 C507 1.369 . S
C506 C510 1.531 . S
C507 C506 1.369 . S
C507 C508 1.410 . S
C507 C515 1.503 . S
C508 C507 1.410 . S
C508 C509 1.392 . S
C508 C511 1.511 . S
C509 C505 1.376 . S
C509 C508 1.392 . S
C509 H521 0.929 . S
C510 C506 1.531 . S
C510 H522 0.960 . S
C510 H523 0.962 . S
C510 H524 0.960 . S
C511 C508 1.511 . S
C511 H525 0.961 . S
C511 H526 0.961 . S
C511 H527 0.961 . S
C512 C513 1.370 . S
C512 C514 1.363 . S
C512 H528 0.931 . S
C513 C512 1.370 . S
C513 C517 1.408 . S
C514 C512 1.363 . S
C514 C515 1.370 . S
C514 C518 1.524 . S
C515 C507 1.503 . S
C515 C514 1.370 . S
C515 C516 1.403 . S
C516 C515 1.403 . S
C516 C517 1.404 . S
C516 C519 1.539 1_556 S
C517 C513 1.408 . S
C517 C516 1.404 . S
C517 H529 0.930 1_556 S
C518 C514 1.524 . S
C518 H530 0.956 . S
C518 H531 0.961 . S
C518 H532 0.961 . S
C519 C516 1.539 1_554 S
C519 H533 0.958 1_554 S
C519 H534 0.961 . S
C519 H535 0.960 1_554 S
H520 C504 0.931 . S
H521 C509 0.929 . S
H522 C510 0.960 . S
H523 C510 0.962 . S
H524 C510 0.960 . S
H525 C511 0.961 . S
H526 C511 0.961 . S
H527 C511 0.961 . S
H528 C512 0.931 . S
H529 C517 0.930 1_554 S
H530 C518 0.956 . S
H531 C518 0.961 . S
H532 C518 0.961 . S
H533 C519 0.958 1_556 S
H534 C519 0.961 . S
H535 C519 0.960 1_556 S
C536 C537 1.391 . S
C536 C538 1.394 . S
C536 H552 0.931 . S
C537 C536 1.391 . S
C537 C541 1.376 . S
C538 C536 1.394 . S
C538 C539 1.369 . S
C538 C542 1.531 . S
C539 C538 1.369 . S
C539 C540 1.410 . S
C539 C547 1.503 . S
C540 C539 1.410 . S
C540 C541 1.392 . S
C540 C543 1.511 . S
C541 C537 1.376 . S
C541 C540 1.392 . S
C541 H553 0.929 . S
C542 C538 1.531 . S
C542 H554 0.960 . S
C542 H555 0.962 . S
C542 H556 0.960 . S
C543 C540 1.511 . S
C543 H557 0.961 . S
C543 H558 0.961 . S
C543 H559 0.961 . S
C544 C545 1.370 . S
C544 C546 1.363 . S
C544 H560 0.931 . S
C545 C544 1.370 . S
C545 C549 1.408 . S
C546 C544 1.363 . S
C546 C547 1.370 . S
C546 C550 1.524 . S
C547 C539 1.503 . S
C547 C546 1.370 . S
C547 C548 1.403 . S
C548 C547 1.403 . S
C548 C549 1.404 . S
C548 C551 1.539 . S
C549 C545 1.408 . S
C549 C548 1.404 . S
C549 H561 0.930 . S
C550 C546 1.524 . S
C550 H562 0.956 . S
C550 H563 0.961 . S
C550 H564 0.961 . S
C551 C548 1.539 . S
C551 H565 0.958 . S
C551 H566 0.961 . S
C551 H567 0.960 . S
H552 C536 0.931 . S
H553 C541 0.929 . S
H554 C542 0.960 . S
H555 C542 0.962 . S
H556 C542 0.960 . S
H557 C543 0.961 . S
H558 C543 0.961 . S
H559 C543 0.961 . S
H560 C544 0.931 . S
H561 C549 0.930 . S
H562 C550 0.956 . S
H563 C550 0.961 . S
H564 C550 0.961 . S
H565 C551 0.958 . S
H566 C551 0.961 . S
H567 C551 0.960 . S
C568 C569 1.391 . S
C568 C570 1.394 . S
C568 H584 0.931 . S
C569 C568 1.391 . S
C569 C573 1.376 . S
C570 C568 1.394 . S
C570 C571 1.369 . S
C570 C574 1.531 . S
C571 C570 1.369 . S
C571 C572 1.410 . S
C571 C579 1.503 . S
C572 C571 1.410 . S
C572 C573 1.392 . S
C572 C575 1.511 . S
C573 C569 1.376 . S
C573 C572 1.392 . S
C573 H585 0.929 . S
C574 C570 1.531 . S
C574 H586 0.960 . S
C574 H587 0.962 . S
C574 H588 0.960 . S
C575 C572 1.511 . S
C575 H589 0.961 . S
C575 H590 0.961 . S
C575 H591 0.961 . S
C576 C577 1.370 . S
C576 C578 1.363 . S
C576 H592 0.931 1_554 S
C577 C576 1.370 . S
C577 C581 1.408 . S
C578 C576 1.363 . S
C578 C579 1.370 . S
C578 C582 1.524 . S
C579 C571 1.503 . S
C579 C578 1.370 . S
C579 C580 1.403 . S
C580 C579 1.403 . S
C580 C581 1.404 . S
C580 C583 1.539 . S
C581 C577 1.408 . S
C581 C580 1.404 . S
C581 H593 0.930 . S
C582 C578 1.524 . S
C582 H594 0.956 . S
C582 H595 0.961 . S
C582 H596 0.961 1_554 S
C583 C580 1.539 . S
C583 H597 0.958 . S
C583 H598 0.961 . S
C583 H599 0.960 . S
H584 C568 0.931 . S
H585 C573 0.929 . S
H586 C574 0.960 . S
H587 C574 0.962 . S
H588 C574 0.960 . S
H589 C575 0.961 . S
H590 C575 0.961 . S
H591 C575 0.961 . S
H592 C576 0.931 1_556 S
H593 C581 0.930 . S
H594 C582 0.956 . S
H595 C582 0.961 . S
H596 C582 0.961 1_556 S
H597 C583 0.958 . S
H598 C583 0.961 . S
H599 C583 0.960 . S
C600 C601 1.391 . S
C600 C602 1.394 . S
C600 H616 0.931 . S
C601 C600 1.391 . S
C601 C605 1.376 . S
C602 C600 1.394 . S
C602 C603 1.369 . S
C602 C606 1.531 . S
C603 C602 1.369 . S
C603 C604 1.410 . S
C603 C611 1.503 . S
C604 C603 1.410 . S
C604 C605 1.392 . S
C604 C607 1.511 . S
C605 C601 1.376 . S
C605 C604 1.392 . S
C605 H617 0.929 . S
C606 C602 1.531 . S
C606 H618 0.960 . S
C606 H619 0.962 . S
C606 H620 0.960 . S
C607 C604 1.511 . S
C607 H621 0.961 . S
C607 H622 0.961 . S
C607 H623 0.961 . S
C608 C609 1.370 1_554 S
C608 C610 1.363 1_554 S
C608 H624 0.931 . S
C609 C608 1.370 1_556 S
C609 C613 1.408 . S
C610 C608 1.363 1_556 S
C610 C611 1.370 . S
C610 C614 1.524 1_556 S
C611 C603 1.503 . S
C611 C610 1.370 . S
C611 C612 1.403 . S
C612 C611 1.403 . S
C612 C613 1.404 . S
C612 C615 1.539 . S
C613 C609 1.408 . S
C613 C612 1.404 . S
C613 H625 0.930 . S
C614 C610 1.524 1_554 S
C614 H626 0.956 . S
C614 H627 0.961 . S
C614 H628 0.961 . S
C615 C612 1.539 . S
C615 H629 0.958 . S
C615 H630 0.961 . S
C615 H631 0.960 . S
H616 C600 0.931 . S
H617 C605 0.929 . S
H618 C606 0.960 . S
H619 C606 0.962 . S
H620 C606 0.960 . S
H621 C607 0.961 . S
H622 C607 0.961 . S
H623 C607 0.961 . S
H624 C608 0.931 . S
H625 C613 0.930 . S
H626 C614 0.956 . S
H627 C614 0.961 . S
H628 C614 0.961 . S
H629 C615 0.958 . S
H630 C615 0.961 . S
H631 C615 0.960 . S
C632 C633 1.391 . S
C632 C634 1.394 . S
C632 H648 0.931 . S
C633 C632 1.391 . S
C633 C637 1.376 . S
C634 C632 1.394 . S
C634 C635 1.369 . S
C634 C638 1.531 . S
C635 C634 1.369 . S
C635 C636 1.410 . S
C635 C643 1.503 . S
C636 C635 1.410 . S
C636 C637 1.392 . S
C636 C639 1.511 . S
C637 C633 1.376 . S
C637 C636 1.392 . S
C637 H649 0.929 . S
C638 C634 1.531 . S
C638 H650 0.960 . S
C638 H651 0.962 . S
C638 H652 0.960 . S
C639 C636 1.511 . S
C639 H653 0.961 . S
C639 H654 0.961 . S
C639 H655 0.961 . S
C640 C641 1.370 . S
C640 C642 1.363 . S
C640 H656 0.931 1_655 S
C641 C640 1.370 . S
C641 C645 1.408 . S
C642 C640 1.363 . S
C642 C643 1.370 . S
C642 C646 1.524 . S
C643 C635 1.503 . S
C643 C642 1.370 . S
C643 C644 1.403 . S
C644 C643 1.403 . S
C644 C645 1.404 . S
C644 C647 1.539 . S
C645 C641 1.408 . S
C645 C644 1.404 . S
C645 H657 0.930 . S
C646 C642 1.524 . S
C646 H658 0.956 . S
C646 H659 0.961 . S
C646 H660 0.961 . S
C647 C644 1.539 . S
C647 H661 0.958 . S
C647 H662 0.961 . S
C647 H663 0.960 . S
H648 C632 0.931 . S
H649 C637 0.929 . S
H650 C638 0.960 . S
H651 C638 0.962 . S
H652 C638 0.960 . S
H653 C639 0.961 . S
H654 C639 0.961 . S
H655 C639 0.961 . S
H656 C640 0.931 1_455 S
H657 C645 0.930 . S
H658 C646 0.956 . S
H659 C646 0.961 . S
H660 C646 0.961 . S
H661 C647 0.958 . S
H662 C647 0.961 . S
H663 C647 0.960 . S
C664 C665 1.391 . S
C664 C666 1.394 . S
C664 H680 0.931 . S
C665 C664 1.391 . S
C665 C669 1.376 . S
C666 C664 1.394 . S
C666 C667 1.369 . S
C666 C670 1.531 . S
C667 C666 1.369 . S
C667 C668 1.410 . S
C667 C675 1.503 . S
C668 C667 1.410 . S
C668 C669 1.392 . S
C668 C671 1.511 . S
C669 C665 1.376 . S
C669 C668 1.392 . S
C669 H681 0.929 . S
C670 C666 1.531 . S
C670 H682 0.960 . S
C670 H683 0.962 . S
C670 H684 0.960 . S
C671 C668 1.511 . S
C671 H685 0.961 . S
C671 H686 0.961 . S
C671 H687 0.961 . S
C672 C673 1.370 . S
C672 C674 1.363 . S
C672 H688 0.931 . S
C673 C672 1.370 . S
C673 C677 1.408 . S
C674 C672 1.363 . S
C674 C675 1.370 . S
C674 C678 1.524 . S
C675 C667 1.503 . S
C675 C674 1.370 . S
C675 C676 1.403 . S
C676 C675 1.403 . S
C676 C677 1.404 . S
C676 C679 1.539 . S
C677 C673 1.408 . S
C677 C676 1.404 . S
C677 H689 0.930 . S
C678 C674 1.524 . S
C678 H690 0.956 . S
C678 H691 0.961 . S
C678 H692 0.961 . S
C679 C676 1.539 . S
C679 H693 0.958 . S
C679 H694 0.961 . S
C679 H695 0.960 . S
H680 C664 0.931 . S
H681 C669 0.929 . S
H682 C670 0.960 . S
H683 C670 0.962 . S
H684 C670 0.960 . S
H685 C671 0.961 . S
H686 C671 0.961 . S
H687 C671 0.961 . S
H688 C672 0.931 . S
H689 C677 0.930 . S
H690 C678 0.956 . S
H691 C678 0.961 . S
H692 C678 0.961 . S
H693 C679 0.958 . S
H694 C679 0.961 . S
H695 C679 0.960 . S
C696 C697 1.391 . S
C696 C698 1.394 . S
C696 H712 0.931 . S
C697 C696 1.391 . S
C697 C701 1.376 . S
C698 C696 1.394 . S
C698 C699 1.369 . S
C698 C702 1.531 . S
C699 C698 1.369 . S
C699 C700 1.410 . S
C699 C707 1.503 . S
C700 C699 1.410 . S
C700 C701 1.392 . S
C700 C703 1.511 . S
C701 C697 1.376 . S
C701 C700 1.392 . S
C701 H713 0.929 . S
C702 C698 1.531 . S
C702 H714 0.960 . S
C702 H715 0.962 . S
C702 H716 0.960 . S
C703 C700 1.511 . S
C703 H717 0.960 . S
C703 H718 0.961 . S
C703 H719 0.961 . S
C704 C705 1.370 . S
C704 C706 1.363 . S
C704 H720 0.931 . S
C705 C704 1.370 . S
C705 C709 1.408 . S
C706 C704 1.363 . S
C706 C707 1.370 . S
C706 C710 1.524 . S
C707 C699 1.503 . S
C707 C706 1.370 . S
C707 C708 1.403 . S
C708 C707 1.403 . S
C708 C709 1.404 . S
C708 C711 1.539 . S
C709 C705 1.408 . S
C709 C708 1.404 . S
C709 H721 0.902 1_565 S
C710 C706 1.524 . S
C710 H722 0.956 . S
C710 H723 0.961 . S
C710 H724 0.961 . S
C711 C708 1.539 . S
C711 H725 0.958 . S
C711 H726 0.961 1_565 S
C711 H727 0.960 . S
H712 C696 0.931 . S
H713 C701 0.929 . S
H714 C702 0.960 . S
H715 C702 0.962 . S
H716 C702 0.960 . S
H717 C703 0.960 . S
H718 C703 0.961 . S
H719 C703 0.961 . S
H720 C704 0.931 . S
H721 C709 0.902 1_545 S
H722 C710 0.956 . S
H723 C710 0.961 . S
H724 C710 0.961 . S
H725 C711 0.958 . S
H726 C711 0.961 1_545 S
H727 C711 0.960 . S
C728 C729 1.391 . S
C728 C730 1.394 . S
C728 H744 0.931 . S
C729 C728 1.391 . S
C729 C733 1.376 . S
C730 C728 1.394 . S
C730 C731 1.369 . S
C730 C734 1.531 . S
C731 C730 1.369 . S
C731 C732 1.410 . S
C731 C739 1.503 . S
C732 C731 1.410 . S
C732 C733 1.392 . S
C732 C735 1.511 . S
C733 C729 1.376 . S
C733 C732 1.392 . S
C733 H745 0.929 . S
C734 C730 1.531 . S
C734 H746 0.960 . S
C734 H747 0.962 . S
C734 H748 0.960 . S
C735 C732 1.511 . S
C735 H749 0.961 . S
C735 H750 0.961 . S
C735 H751 0.961 . S
C736 C737 1.370 . S
C736 C738 1.363 . S
C736 H752 0.931 . S
C737 C736 1.370 . S
C737 C741 1.408 . S
C738 C736 1.363 . S
C738 C739 1.370 . S
C738 C742 1.524 . S
C739 C731 1.503 . S
C739 C738 1.370 . S
C739 C740 1.403 . S
C740 C739 1.403 . S
C740 C741 1.404 . S
C740 C743 1.539 . S
C741 C737 1.408 . S
C741 C740 1.404 . S
C741 H753 0.930 . S
C742 C738 1.524 . S
C742 H754 0.956 . S
C742 H755 0.961 . S
C742 H756 0.961 . S
C743 C740 1.539 . S
C743 H757 0.958 . S
C743 H758 0.961 . S
C743 H759 0.960 . S
H744 C728 0.931 . S
H745 C733 0.929 . S
H746 C734 0.960 . S
H747 C734 0.962 . S
H748 C734 0.960 . S
H749 C735 0.961 . S
H750 C735 0.961 . S
H751 C735 0.961 . S
H752 C736 0.931 . S
H753 C741 0.930 . S
H754 C742 0.956 . S
H755 C742 0.961 . S
H756 C742 0.961 . S
H757 C743 0.958 . S
H758 C743 0.961 . S
H759 C743 0.960 . S
C760 C761 1.391 . S
C760 C762 1.394 . S
C760 H776 0.931 . S
C761 C760 1.391 . S
C761 C765 1.376 . S
C762 C760 1.394 . S
C762 C763 1.369 . S
C762 C766 1.531 . S
C763 C762 1.369 . S
C763 C764 1.410 . S
C763 C771 1.503 . S
C764 C763 1.410 . S
C764 C765 1.392 . S
C764 C767 1.511 . S
C765 C761 1.376 . S
C765 C764 1.392 . S
C765 H777 0.929 . S
C766 C762 1.531 . S
C766 H778 0.960 . S
C766 H779 0.962 . S
C766 H780 0.960 . S
C767 C764 1.511 . S
C767 H781 0.961 . S
C767 H782 0.961 . S
C767 H783 0.961 . S
C768 C769 1.370 . S
C768 C770 1.363 . S
C768 H784 0.931 . S
C769 C768 1.370 . S
C769 C773 1.408 . S
C770 C768 1.363 . S
C770 C771 1.370 . S
C770 C774 1.524 . S
C771 C763 1.503 . S
C771 C770 1.370 . S
C771 C772 1.403 . S
C772 C771 1.403 . S
C772 C773 1.404 . S
C772 C775 1.539 . S
C773 C769 1.408 . S
C773 C772 1.404 . S
C773 H785 0.930 . S
C774 C770 1.524 . S
C774 H786 0.956 . S
C774 H787 0.961 . S
C774 H788 0.961 . S
C775 C772 1.539 . S
C775 H789 0.958 . S
C775 H790 0.961 . S
C775 H791 0.960 . S
H776 C760 0.931 . S
H777 C765 0.929 . S
H778 C766 0.960 . S
H779 C766 0.962 . S
H780 C766 0.960 . S
H781 C767 0.961 . S
H782 C767 0.961 . S
H783 C767 0.961 . S
H784 C768 0.931 . S
H785 C773 0.930 . S
H786 C774 0.956 . S
H787 C774 0.961 . S
H788 C774 0.961 . S
H789 C775 0.958 . S
H790 C775 0.961 . S
H791 C775 0.960 . S
C792 C793 1.391 . S
C792 C794 1.394 . S
C792 H808 0.931 . S
C793 C792 1.391 . S
C793 C797 1.376 . S
C794 C792 1.394 . S
C794 C795 1.369 . S
C794 C798 1.531 . S
C795 C794 1.369 . S
C795 C796 1.410 . S
C795 C803 1.503 . S
C796 C795 1.410 . S
C796 C797 1.392 . S
C796 C799 1.511 . S
C797 C793 1.376 . S
C797 C796 1.392 . S
C797 H809 0.929 . S
C798 C794 1.531 . S
C798 H810 0.960 . S
C798 H811 0.962 . S
C798 H812 0.960 . S
C799 C796 1.511 . S
C799 H813 0.961 . S
C799 H814 0.961 . S
C799 H815 0.961 . S
C800 C801 1.370 . S
C800 C802 1.363 . S
C800 H816 0.931 . S
C801 C800 1.370 . S
C801 C805 1.408 . S
C802 C800 1.363 . S
C802 C803 1.370 . S
C802 C806 1.524 . S
C803 C795 1.503 . S
C803 C802 1.370 . S
C803 C804 1.403 . S
C804 C803 1.403 . S
C804 C805 1.404 . S
C804 C807 1.539 . S
C805 C801 1.408 . S
C805 C804 1.404 . S
C805 H817 0.930 . S
C806 C802 1.524 . S
C806 H818 0.956 . S
C806 H819 0.961 . S
C806 H820 0.961 . S
C807 C804 1.539 . S
C807 H821 0.958 . S
C807 H822 0.961 . S
C807 H823 0.960 . S
H808 C792 0.931 . S
H809 C797 0.929 . S
H810 C798 0.960 . S
H811 C798 0.962 . S
H812 C798 0.960 . S
H813 C799 0.961 . S
H814 C799 0.961 . S
H815 C799 0.961 . S
H816 C800 0.931 . S
H817 C805 0.930 . S
H818 C806 0.956 . S
H819 C806 0.961 . S
H820 C806 0.961 . S
H821 C807 0.958 . S
H822 C807 0.961 . S
H823 C807 0.960 . S
C824 C825 1.391 1_554 S
C824 C826 1.394 . S
C824 H840 0.931 . S
C825 C824 1.391 1_556 S
C825 C829 1.376 . S
C826 C824 1.394 . S
C826 C827 1.367 1_554 S
C826 C830 1.531 . S
C827 C826 1.367 1_556 S
C827 C828 1.413 . S
C827 C835 1.502 1_556 S
C828 C827 1.413 . S
C828 C829 1.392 . S
C828 C831 1.511 . S
C829 C825 1.376 . S
C829 C828 1.392 . S
C829 H841 0.929 . S
C830 C826 1.531 . S
C830 H842 0.960 . S
C830 H843 0.962 . S
C830 H844 0.960 . S
C831 C828 1.511 . S
C831 H845 0.961 . S
C831 H846 0.961 . S
C831 H847 0.961 1_565 S
C832 C833 1.370 . S
C832 C834 1.363 . S
C832 H848 0.931 . S
C833 C832 1.370 . S
C833 C837 1.410 . S
C834 C832 1.363 . S
C834 C835 1.370 . S
C834 C838 1.524 1_554 S
C835 C827 1.502 1_554 S
C835 C834 1.370 . S
C835 C836 1.403 . S
C836 C835 1.403 . S
C836 C837 1.407 . S
C836 C839 1.539 1_565 S
C837 C833 1.410 . S
C837 C836 1.407 . S
C837 H849 0.925 1_565 S
C838 C834 1.524 1_556 S
C838 H850 0.956 . S
C838 H851 0.961 . S
C838 H852 0.961 . S
C839 C836 1.539 1_545 S
C839 H853 0.958 . S
C839 H854 0.961 . S
C839 H855 0.960 . S
H840 C824 0.931 . S
H841 C829 0.929 . S
H842 C830 0.960 . S
H843 C830 0.962 . S
H844 C830 0.960 . S
H845 C831 0.961 . S
H846 C831 0.961 . S
H847 C831 0.961 1_545 S
H848 C832 0.931 . S
H849 C837 0.925 1_545 S
H850 C838 0.956 . S
H851 C838 0.961 . S
H852 C838 0.961 . S
H853 C839 0.958 . S
H854 C839 0.961 . S
H855 C839 0.960 . S
C856 C857 1.391 . S
C856 C858 1.394 . S
C856 H872 0.931 . S
C857 C856 1.391 . S
C857 C861 1.376 . S
C858 C856 1.394 . S
C858 C859 1.369 . S
C858 C862 1.531 . S
C859 C858 1.369 . S
C859 C860 1.410 . S
C859 C867 1.503 . S
C860 C859 1.410 . S
C860 C861 1.392 . S
C860 C863 1.511 . S
C861 C857 1.376 . S
C861 C860 1.392 . S
C861 H873 0.929 . S
C862 C858 1.531 . S
C862 H874 0.960 . S
C862 H875 0.962 . S
C862 H876 0.960 . S
C863 C860 1.511 . S
C863 H877 0.961 . S
C863 H878 0.961 . S
C863 H879 0.961 . S
C864 C865 1.370 . S
C864 C866 1.363 . S
C864 H880 0.931 . S
C865 C864 1.370 . S
C865 C869 1.408 . S
C866 C864 1.363 . S
C866 C867 1.370 . S
C866 C870 1.524 . S
C867 C859 1.503 . S
C867 C866 1.370 . S
C867 C868 1.403 . S
C868 C867 1.403 . S
C868 C869 1.404 . S
C868 C871 1.539 . S
C869 C865 1.408 . S
C869 C868 1.404 . S
C869 H881 0.930 . S
C870 C866 1.524 . S
C870 H882 0.956 . S
C870 H883 0.961 . S
C870 H884 0.961 . S
C871 C868 1.539 . S
C871 H885 0.958 . S
C871 H886 0.961 . S
C871 H887 0.960 . S
H872 C856 0.931 . S
H873 C861 0.929 . S
H874 C862 0.960 . S
H875 C862 0.962 . S
H876 C862 0.960 . S
H877 C863 0.961 . S
H878 C863 0.961 . S
H879 C863 0.961 . S
H880 C864 0.931 . S
H881 C869 0.930 . S
H882 C870 0.956 . S
H883 C870 0.961 . S
H884 C870 0.961 . S
H885 C871 0.958 . S
H886 C871 0.961 . S
H887 C871 0.960 . S
C888 C889 1.391 . S
C888 C890 1.394 . S
C888 H904 0.931 . S
C889 C888 1.391 . S
C889 C893 1.376 . S
C890 C888 1.394 . S
C890 C891 1.369 . S
C890 C894 1.531 . S
C891 C890 1.369 . S
C891 C892 1.410 . S
C891 C899 1.503 . S
C892 C891 1.410 . S
C892 C893 1.392 . S
C892 C895 1.511 . S
C893 C889 1.376 . S
C893 C892 1.392 . S
C893 H905 0.929 . S
C894 C890 1.531 . S
C894 H906 0.960 . S
C894 H907 0.962 . S
C894 H908 0.960 . S
C895 C892 1.511 . S
C895 H909 0.961 . S
C895 H910 0.961 . S
C895 H911 0.961 . S
C896 C897 1.370 . S
C896 C898 1.363 . S
C896 H912 0.931 . S
C897 C896 1.370 . S
C897 C901 1.408 . S
C898 C896 1.363 . S
C898 C899 1.370 . S
C898 C902 1.524 . S
C899 C891 1.503 . S
C899 C898 1.370 . S
C899 C900 1.403 . S
C900 C899 1.403 . S
C900 C901 1.404 . S
C900 C903 1.539 . S
C901 C897 1.408 . S
C901 C900 1.404 . S
C901 H913 0.930 . S
C902 C898 1.524 . S
C902 H914 0.956 . S
C902 H915 0.961 . S
C902 H916 0.961 . S
C903 C900 1.539 . S
C903 H917 0.958 . S
C903 H918 0.961 . S
C903 H919 0.960 . S
H904 C888 0.931 . S
H905 C893 0.929 . S
H906 C894 0.960 . S
H907 C894 0.962 . S
H908 C894 0.960 . S
H909 C895 0.961 . S
H910 C895 0.961 . S
H911 C895 0.961 . S
H912 C896 0.931 . S
H913 C901 0.930 . S
H914 C902 0.956 . S
H915 C902 0.961 . S
H916 C902 0.961 . S
H917 C903 0.958 . S
H918 C903 0.961 . S
H919 C903 0.960 . S
C920 C921 1.391 . S
C920 C922 1.394 . S
C920 H936 0.931 . S
C921 C920 1.391 . S
C921 C925 1.376 . S
C922 C920 1.394 . S
C922 C923 1.369 . S
C922 C926 1.531 . S
C923 C922 1.369 . S
C923 C924 1.410 . S
C923 C931 1.503 . S
C924 C923 1.410 . S
C924 C925 1.392 . S
C924 C927 1.511 . S
C925 C921 1.376 . S
C925 C924 1.392 . S
C925 H937 0.929 . S
C926 C922 1.531 . S
C926 H938 0.960 . S
C926 H939 0.962 . S
C926 H940 0.960 . S
C927 C924 1.511 . S
C927 H941 0.961 . S
C927 H942 0.961 . S
C927 H943 0.961 . S
C928 C929 1.370 . S
C928 C930 1.363 . S
C928 H944 0.931 . S
C929 C928 1.370 . S
C929 C933 1.408 . S
C930 C928 1.363 . S
C930 C931 1.370 . S
C930 C934 1.524 . S
C931 C923 1.503 . S
C931 C930 1.370 . S
C931 C932 1.403 . S
C932 C931 1.403 . S
C932 C933 1.404 . S
C932 C935 1.539 . S
C933 C929 1.408 . S
C933 C932 1.404 . S
C933 H945 0.930 . S
C934 C930 1.524 . S
C934 H946 0.956 . S
C934 H947 0.961 . S
C934 H948 0.961 . S
C935 C932 1.539 . S
C935 H949 0.958 . S
C935 H950 0.961 . S
C935 H951 0.960 . S
H936 C920 0.931 . S
H937 C925 0.929 . S
H938 C926 0.960 . S
H939 C926 0.962 . S
H940 C926 0.960 . S
H941 C927 0.961 . S
H942 C927 0.961 . S
H943 C927 0.961 . S
H944 C928 0.931 . S
H945 C933 0.930 . S
H946 C934 0.956 . S
H947 C934 0.961 . S
H948 C934 0.961 . S
H949 C935 0.958 . S
H950 C935 0.961 . S
H951 C935 0.960 . S
C952 C953 1.391 . S
C952 C954 1.394 . S
C952 H968 0.931 . S
C953 C952 1.391 . S
C953 C957 1.376 . S
C954 C952 1.394 . S
C954 C955 1.369 . S
C954 C958 1.531 . S
C955 C954 1.369 . S
C955 C956 1.410 . S
C955 C963 1.503 . S
C956 C955 1.410 . S
C956 C957 1.392 . S
C956 C959 1.511 1_556 S
C957 C953 1.376 . S
C957 C956 1.392 . S
C957 H969 0.929 . S
C958 C954 1.531 . S
C958 H970 0.960 . S
C958 H971 0.962 . S
C958 H972 0.960 . S
C959 C956 1.511 1_554 S
C959 H973 0.961 . S
C959 H974 0.961 . S
C959 H975 0.961 . S
C960 C961 1.370 . S
C960 C962 1.363 . S
C960 H976 0.931 . S
C961 C960 1.370 . S
C961 C965 1.408 1_655 S
C962 C960 1.363 . S
C962 C963 1.370 . S
C962 C966 1.524 . S
C963 C955 1.503 . S
C963 C962 1.370 . S
C963 C964 1.403 . S
C964 C963 1.403 . S
C964 C965 1.404 1_655 S
C964 C967 1.539 1_655 S
C965 C961 1.408 1_455 S
C965 C964 1.404 1_455 S
C965 H977 0.930 . S
C966 C962 1.524 . S
C966 H978 0.956 . S
C966 H979 0.961 . S
C966 H980 0.961 . S
C967 C964 1.539 1_455 S
C967 H981 0.958 . S
C967 H982 0.937 1_556 S
C967 H983 0.960 . S
H968 C952 0.931 . S
H969 C957 0.929 . S
H970 C958 0.960 . S
H971 C958 0.962 . S
H972 C958 0.960 . S
H973 C959 0.961 . S
H974 C959 0.961 . S
H975 C959 0.961 . S
H976 C960 0.931 . S
H977 C965 0.930 . S
H978 C966 0.956 . S
H979 C966 0.961 . S
H980 C966 0.961 . S
H981 C967 0.958 . S
H982 C967 0.937 1_554 S
H983 C967 0.960 . S
C984 C985 1.391 . S
C984 C986 1.394 . S
C984 H1000 0.931 . S
C985 C984 1.391 . S
C985 C989 1.376 . S
C986 C984 1.394 . S
C986 C987 1.369 . S
C986 C990 1.531 . S
C987 C986 1.369 . S
C987 C988 1.410 . S
C987 C995 1.503 . S
C988 C987 1.410 . S
C988 C989 1.392 . S
C988 C991 1.511 . S
C989 C985 1.376 . S
C989 C988 1.392 . S
C989 H1001 0.929 . S
C990 C986 1.531 . S
C990 H1002 0.960 . S
C990 H1003 0.962 . S
C990 H1004 0.960 . S
C991 C988 1.511 . S
C991 H1005 0.961 . S
C991 H1006 0.961 . S
C991 H1007 0.961 . S
C992 C993 1.370 . S
C992 C994 1.363 . S
C992 H1008 0.931 . S
C993 C992 1.370 . S
C993 C997 1.408 . S
C994 C992 1.363 . S
C994 C995 1.370 . S
C994 C998 1.524 . S
C995 C987 1.503 . S
C995 C994 1.370 . S
C995 C996 1.403 . S
C996 C995 1.403 . S
C996 C997 1.404 . S
C996 C999 1.539 . S
C997 C993 1.408 . S
C997 C996 1.404 . S
C997 H1009 0.930 . S
C998 C994 1.524 . S
C998 H1010 0.956 . S
C998 H1011 0.961 . S
C998 H1012 0.961 . S
C999 C996 1.539 . S
C999 H1013 0.958 . S
C999 H1014 0.961 . S
C999 H1015 0.960 . S
H1000 C984 0.931 . S
H1001 C989 0.929 . S
H1002 C990 0.960 . S
H1003 C990 0.962 . S
H1004 C990 0.960 . S
H1005 C991 0.961 . S
H1006 C991 0.961 . S
H1007 C991 0.961 . S
H1008 C992 0.931 . S
H1009 C997 0.930 . S
H1010 C998 0.956 . S
H1011 C998 0.961 . S
H1012 C998 0.961 . S
H1013 C999 0.958 . S
H1014 C999 0.961 . S
H1015 C999 0.960 . S
C1016 C1017 1.391 . S
C1016 C1018 1.394 . S
C1016 H1032 0.931 . S
C1017 C1016 1.391 . S
C1017 C1021 1.376 . S
C1018 C1016 1.394 . S
C1018 C1019 1.369 . S
C1018 C1022 1.531 . S
C1019 C1018 1.369 . S
C1019 C1020 1.410 . S
C1019 C1027 1.503 . S
C1020 C1019 1.410 . S
C1020 C1021 1.392 . S
C1020 C1023 1.511 . S
C1021 C1017 1.376 . S
C1021 C1020 1.392 . S
C1021 H1033 0.929 . S
C1022 C1018 1.531 . S
C1022 H1034 0.960 . S
C1022 H1035 0.962 . S
C1022 H1036 0.960 . S
C1023 C1020 1.511 . S
C1023 H1037 0.961 . S
C1023 H1038 0.961 . S
C1023 H1039 0.961 . S
C1024 C1025 1.370 . S
C1024 C1026 1.363 . S
C1024 H1040 0.931 . S
C1025 C1024 1.370 . S
C1025 C1029 1.408 . S
C1026 C1024 1.363 . S
C1026 C1027 1.370 . S
C1026 C1030 1.524 . S
C1027 C1019 1.503 . S
C1027 C1026 1.370 . S
C1027 C1028 1.403 . S
C1028 C1027 1.403 . S
C1028 C1029 1.404 . S
C1028 C1031 1.539 . S
C1029 C1025 1.408 . S
C1029 C1028 1.404 . S
C1029 H1041 0.930 . S
C1030 C1026 1.524 . S
C1030 H1042 0.956 . S
C1030 H1043 0.961 . S
C1030 H1044 0.961 . S
C1031 C1028 1.539 . S
C1031 H1045 0.958 . S
C1031 H1046 0.961 . S
C1031 H1047 0.960 . S
H1032 C1016 0.931 . S
H1033 C1021 0.929 . S
H1034 C1022 0.960 . S
H1035 C1022 0.962 . S
H1036 C1022 0.960 . S
H1037 C1023 0.961 . S
H1038 C1023 0.961 . S
H1039 C1023 0.961 . S
H1040 C1024 0.931 . S
H1041 C1029 0.930 . S
H1042 C1030 0.956 . S
H1043 C1030 0.961 . S
H1044 C1030 0.961 . S
H1045 C1031 0.958 . S
H1046 C1031 0.961 . S
H1047 C1031 0.960 . S
C1048 C1049 1.391 . S
C1048 C1050 1.394 . S
C1048 H1064 0.931 . S
C1049 C1048 1.391 . S
C1049 C1053 1.376 . S
C1050 C1048 1.394 . S
C1050 C1051 1.369 . S
C1050 C1054 1.531 . S
C1051 C1050 1.369 . S
C1051 C1052 1.410 . S
C1051 C1059 1.503 . S
C1052 C1051 1.410 . S
C1052 C1053 1.392 . S
C1052 C1055 1.511 . S
C1053 C1049 1.376 . S
C1053 C1052 1.392 . S
C1053 H1065 0.929 . S
C1054 C1050 1.531 . S
C1054 H1066 0.960 . S
C1054 H1067 0.962 . S
C1054 H1068 0.960 . S
C1055 C1052 1.511 . S
C1055 H1069 0.961 . S
C1055 H1070 0.961 . S
C1055 H1071 0.961 . S
C1056 C1057 1.370 . S
C1056 C1058 1.363 . S
C1056 H1072 0.931 . S
C1057 C1056 1.370 . S
C1057 C1061 1.408 . S
C1058 C1056 1.363 . S
C1058 C1059 1.370 . S
C1058 C1062 1.524 . S
C1059 C1051 1.503 . S
C1059 C1058 1.370 . S
C1059 C1060 1.403 . S
C1060 C1059 1.403 . S
C1060 C1061 1.404 . S
C1060 C1063 1.539 . S
C1061 C1057 1.408 . S
C1061 C1060 1.404 . S
C1061 H1073 0.930 . S
C1062 C1058 1.524 . S
C1062 H1074 0.956 . S
C1062 H1075 0.961 . S
C1062 H1076 0.961 . S
C1063 C1060 1.539 . S
C1063 H1077 0.958 . S
C1063 H1078 0.961 . S
C1063 H1079 0.960 . S
H1064 C1048 0.931 . S
H1065 C1053 0.929 . S
H1066 C1054 0.960 . S
H1067 C1054 0.962 . S
H1068 C1054 0.960 . S
H1069 C1055 0.961 . S
H1070 C1055 0.961 . S
H1071 C1055 0.961 . S
H1072 C1056 0.931 . S
H1073 C1061 0.930 . S
H1074 C1062 0.956 . S
H1075 C1062 0.961 . S
H1076 C1062 0.961 . S
H1077 C1063 0.958 . S
H1078 C1063 0.961 . S
H1079 C1063 0.960 . S
C313 C6 3.198 . S
C321 C171 3.153 . S
C345 C21 2.629 . S
C353 C202 2.681 1_556 S
C385 C241 0.709 . S
C377 C49 0.728 . S
C409 C68 0.662 . S
C417 C278 0.418 . S
C449 C201 3.598 . S
C441 C2 3.644 . S
C481 C158 1.187 . S
C473 C30 1.104 . S
C513 C290 1.045 . S
C505 C40 1.040 . S
C545 C247 0.928 . S
C537 C63 0.972 . S
C569 C11 2.223 . S
C577 C291 2.509 . S
C609 C207 1.560 1_556 S
C601 C44 1.558 . S
C633 C59 0.487 . S
C641 C170 0.610 . S
C665 C25 2.635 . S
C673 C242 2.655 . S
C705 C162 3.202 . S
C697 C82 3.245 . S
C729 C101 2.297 . S
C737 C211 2.345 . S
C761 C125 1.135 . S
C769 C250 1.094 . S
C793 C144 0.426 . S
C801 C287 0.433 . S
C825 C87 2.518 . S
C833 C210 2.598 1_565 S
C865 C167 1.911 . S
C857 C97 1.839 . S
C897 C281 1.109 . S
C889 C120 1.133 . S
C929 C238 1.015 . S
C921 C135 1.018 . S
C953 C78 2.645 . S
C961 C282 2.670 1_655 S
C993 C198 1.322 . S
C985 C116 1.319 . S
C1025 C161 0.666 . S
C1017 C139 0.607 . S
C1049 C106 2.045 . S
C1057 C251 2.374 . S
