# Generated by pormake.
# Topology bwt, (3,3)-cn, num edge types: 1
# Building blocks:
#     Node 0, Type 0, BuildingBlock: OLANEW_clean_sbu_2, # of connection points: 3
#     Node 1, Type 0, BuildingBlock: OLANEW_clean_sbu_2, # of connection points: 3
#     Node 2, Type 0, BuildingBlock: OLANEW_clean_sbu_2, # of connection points: 3
#     Node 3, Type 0, BuildingBlock: OLANEW_clean_sbu_2, # of connection points: 3
#     Node 4, Type 0, BuildingBlock: OLANEW_clean_sbu_2, # of connection points: 3
#     Node 5, Type 0, BuildingBlock: OLANEW_clean_sbu_2, # of connection points: 3
#     Node 6, Type 0, BuildingBlock: OLANEW_clean_sbu_2, # of connection points: 3
#     Node 7, Type 0, BuildingBlock: OLANEW_clean_sbu_2, # of connection points: 3
#     Node 8, Type 0, BuildingBlock: OLANEW_clean_sbu_2, # of connection points: 3
#     Node 9, Type 0, BuildingBlock: OLANEW_clean_sbu_2, # of connection points: 3
#     Node 10, Type 0, BuildingBlock: OLANEW_clean_sbu_2, # of connection points: 3
#     Node 11, Type 0, BuildingBlock: OLANEW_clean_sbu_2, # of connection points: 3
#     Node 12, Type 0, BuildingBlock: OLANEW_clean_sbu_2, # of connection points: 3
#     Node 13, Type 0, BuildingBlock: OLANEW_clean_sbu_2, # of connection points: 3
#     Node 14, Type 0, BuildingBlock: OLANEW_clean_sbu_2, # of connection points: 3
#     Node 15, Type 0, BuildingBlock: OLANEW_clean_sbu_2, # of connection points: 3
#     Node 16, Type 0, BuildingBlock: OLANEW_clean_sbu_2, # of connection points: 3
#     Node 17, Type 0, BuildingBlock: OLANEW_clean_sbu_2, # of connection points: 3
#     Node 18, Type 0, BuildingBlock: OLANEW_clean_sbu_2, # of connection points: 3
#     Node 19, Type 0, BuildingBlock: OLANEW_clean_sbu_2, # of connection points: 3
#     Node 20, Type 0, BuildingBlock: OLANEW_clean_sbu_2, # of connection points: 3
#     Node 21, Type 0, BuildingBlock: OLANEW_clean_sbu_2, # of connection points: 3
#     Node 22, Type 0, BuildingBlock: OLANEW_clean_sbu_2, # of connection points: 3
#     Node 23, Type 0, BuildingBlock: OLANEW_clean_sbu_2, # of connection points: 3
#     Node 24, Type 1, BuildingBlock: QEWDON_clean_linker_0, # of connection points: 3
#     Node 25, Type 1, BuildingBlock: QEWDON_clean_linker_0, # of connection points: 3
#     Node 26, Type 1, BuildingBlock: QEWDON_clean_linker_0, # of connection points: 3
#     Node 27, Type 1, BuildingBlock: QEWDON_clean_linker_0, # of connection points: 3
#     Node 28, Type 1, BuildingBlock: QEWDON_clean_linker_0, # of connection points: 3
#     Node 29, Type 1, BuildingBlock: QEWDON_clean_linker_0, # of connection points: 3
#     Node 30, Type 1, BuildingBlock: QEWDON_clean_linker_0, # of connection points: 3
#     Node 31, Type 1, BuildingBlock: QEWDON_clean_linker_0, # of connection points: 3
#     Node 32, Type 1, BuildingBlock: QEWDON_clean_linker_0, # of connection points: 3
#     Node 33, Type 1, BuildingBlock: QEWDON_clean_linker_0, # of connection points: 3
#     Node 34, Type 1, BuildingBlock: QEWDON_clean_linker_0, # of connection points: 3
#     Node 35, Type 1, BuildingBlock: QEWDON_clean_linker_0, # of connection points: 3
#     Node 36, Type 1, BuildingBlock: QEWDON_clean_linker_0, # of connection points: 3
#     Node 37, Type 1, BuildingBlock: QEWDON_clean_linker_0, # of connection points: 3
#     Node 38, Type 1, BuildingBlock: QEWDON_clean_linker_0, # of connection points: 3
#     Node 39, Type 1, BuildingBlock: QEWDON_clean_linker_0, # of connection points: 3
#     Node 40, Type 1, BuildingBlock: QEWDON_clean_linker_0, # of connection points: 3
#     Node 41, Type 1, BuildingBlock: QEWDON_clean_linker_0, # of connection points: 3
#     Node 42, Type 1, BuildingBlock: QEWDON_clean_linker_0, # of connection points: 3
#     Node 43, Type 1, BuildingBlock: QEWDON_clean_linker_0, # of connection points: 3
#     Node 44, Type 1, BuildingBlock: QEWDON_clean_linker_0, # of connection points: 3
#     Node 45, Type 1, BuildingBlock: QEWDON_clean_linker_0, # of connection points: 3
#     Node 46, Type 1, BuildingBlock: QEWDON_clean_linker_0, # of connection points: 3
#     Node 47, Type 1, BuildingBlock: QEWDON_clean_linker_0, # of connection points: 3
#     Edge 48, Type (0, 1), BuildingBlock: AJUNOK_clean_linker_0, # of connection points: 2
#     Edge 49, Type (0, 1), BuildingBlock: AJUNOK_clean_linker_0, # of connection points: 2
#     Edge 50, Type (0, 1), BuildingBlock: AJUNOK_clean_linker_0, # of connection points: 2
#     Edge 51, Type (0, 1), BuildingBlock: AJUNOK_clean_linker_0, # of connection points: 2
#     Edge 52, Type (0, 1), BuildingBlock: AJUNOK_clean_linker_0, # of connection points: 2
#     Edge 53, Type (0, 1), BuildingBlock: AJUNOK_clean_linker_0, # of connection points: 2
#     Edge 54, Type (0, 1), BuildingBlock: AJUNOK_clean_linker_0, # of connection points: 2
#     Edge 55, Type (0, 1), BuildingBlock: AJUNOK_clean_linker_0, # of connection points: 2
#     Edge 56, Type (0, 1), BuildingBlock: AJUNOK_clean_linker_0, # of connection points: 2
#     Edge 57, Type (0, 1), BuildingBlock: AJUNOK_clean_linker_0, # of connection points: 2
#     Edge 58, Type (0, 1), BuildingBlock: AJUNOK_clean_linker_0, # of connection points: 2
#     Edge 59, Type (0, 1), BuildingBlock: AJUNOK_clean_linker_0, # of connection points: 2
#     Edge 60, Type (0, 1), BuildingBlock: AJUNOK_clean_linker_0, # of connection points: 2
#     Edge 61, Type (0, 1), BuildingBlock: AJUNOK_clean_linker_0, # of connection points: 2
#     Edge 62, Type (0, 1), BuildingBlock: AJUNOK_clean_linker_0, # of connection points: 2
#     Edge 63, Type (0, 1), BuildingBlock: AJUNOK_clean_linker_0, # of connection points: 2
#     Edge 64, Type (0, 1), BuildingBlock: AJUNOK_clean_linker_0, # of connection points: 2
#     Edge 65, Type (0, 1), BuildingBlock: AJUNOK_clean_linker_0, # of connection points: 2
#     Edge 66, Type (0, 1), BuildingBlock: AJUNOK_clean_linker_0, # of connection points: 2
#     Edge 67, Type (0, 1), BuildingBlock: AJUNOK_clean_linker_0, # of connection points: 2
#     Edge 68, Type (0, 1), BuildingBlock: AJUNOK_clean_linker_0, # of connection points: 2
#     Edge 69, Type (0, 1), BuildingBlock: AJUNOK_clean_linker_0, # of connection points: 2
#     Edge 70, Type (0, 1), BuildingBlock: AJUNOK_clean_linker_0, # of connection points: 2
#     Edge 71, Type (0, 1), BuildingBlock: AJUNOK_clean_linker_0, # of connection points: 2
#     Edge 72, Type (0, 1), BuildingBlock: AJUNOK_clean_linker_0, # of connection points: 2
#     Edge 73, Type (0, 1), BuildingBlock: AJUNOK_clean_linker_0, # of connection points: 2
#     Edge 74, Type (0, 1), BuildingBlock: AJUNOK_clean_linker_0, # of connection points: 2
#     Edge 75, Type (0, 1), BuildingBlock: AJUNOK_clean_linker_0, # of connection points: 2
#     Edge 76, Type (0, 1), BuildingBlock: AJUNOK_clean_linker_0, # of connection points: 2
#     Edge 77, Type (0, 1), BuildingBlock: AJUNOK_clean_linker_0, # of connection points: 2
#     Edge 78, Type (0, 1), BuildingBlock: AJUNOK_clean_linker_0, # of connection points: 2
#     Edge 79, Type (0, 1), BuildingBlock: AJUNOK_clean_linker_0, # of connection points: 2
#     Edge 80, Type (0, 1), BuildingBlock: AJUNOK_clean_linker_0, # of connection points: 2
#     Edge 81, Type (0, 1), BuildingBlock: AJUNOK_clean_linker_0, # of connection points: 2
#     Edge 82, Type (0, 1), BuildingBlock: AJUNOK_clean_linker_0, # of connection points: 2
#     Edge 83, Type (0, 1), BuildingBlock: AJUNOK_clean_linker_0, # of connection points: 2
#     Edge 84, Type (0, 1), BuildingBlock: AJUNOK_clean_linker_0, # of connection points: 2
#     Edge 85, Type (0, 1), BuildingBlock: AJUNOK_clean_linker_0, # of connection points: 2
#     Edge 86, Type (0, 1), BuildingBlock: AJUNOK_clean_linker_0, # of connection points: 2
#     Edge 87, Type (0, 1), BuildingBlock: AJUNOK_clean_linker_0, # of connection points: 2
#     Edge 88, Type (0, 1), BuildingBlock: AJUNOK_clean_linker_0, # of connection points: 2
#     Edge 89, Type (0, 1), BuildingBlock: AJUNOK_clean_linker_0, # of connection points: 2
#     Edge 90, Type (0, 1), BuildingBlock: AJUNOK_clean_linker_0, # of connection points: 2
#     Edge 91, Type (0, 1), BuildingBlock: AJUNOK_clean_linker_0, # of connection points: 2
#     Edge 92, Type (0, 1), BuildingBlock: AJUNOK_clean_linker_0, # of connection points: 2
#     Edge 93, Type (0, 1), BuildingBlock: AJUNOK_clean_linker_0, # of connection points: 2
#     Edge 94, Type (0, 1), BuildingBlock: AJUNOK_clean_linker_0, # of connection points: 2
#     Edge 95, Type (0, 1), BuildingBlock: AJUNOK_clean_linker_0, # of connection points: 2
#     Edge 96, Type (0, 1), BuildingBlock: AJUNOK_clean_linker_0, # of connection points: 2
#     Edge 97, Type (0, 1), BuildingBlock: AJUNOK_clean_linker_0, # of connection points: 2
#     Edge 98, Type (0, 1), BuildingBlock: AJUNOK_clean_linker_0, # of connection points: 2
#     Edge 99, Type (0, 1), BuildingBlock: AJUNOK_clean_linker_0, # of connection points: 2
#     Edge 100, Type (0, 1), BuildingBlock: AJUNOK_clean_linker_0, # of connection points: 2
#     Edge 101, Type (0, 1), BuildingBlock: AJUNOK_clean_linker_0, # of connection points: 2
#     Edge 102, Type (0, 1), BuildingBlock: AJUNOK_clean_linker_0, # of connection points: 2
#     Edge 103, Type (0, 1), BuildingBlock: AJUNOK_clean_linker_0, # of connection points: 2
#     Edge 104, Type (0, 1), BuildingBlock: AJUNOK_clean_linker_0, # of connection points: 2
#     Edge 105, Type (0, 1), BuildingBlock: AJUNOK_clean_linker_0, # of connection points: 2
#     Edge 106, Type (0, 1), BuildingBlock: AJUNOK_clean_linker_0, # of connection points: 2
#     Edge 107, Type (0, 1), BuildingBlock: AJUNOK_clean_linker_0, # of connection points: 2
#     Edge 108, Type (0, 1), BuildingBlock: AJUNOK_clean_linker_0, # of connection points: 2
#     Edge 109, Type (0, 1), BuildingBlock: AJUNOK_clean_linker_0, # of connection points: 2
#     Edge 110, Type (0, 1), BuildingBlock: AJUNOK_clean_linker_0, # of connection points: 2
#     Edge 111, Type (0, 1), BuildingBlock: AJUNOK_clean_linker_0, # of connection points: 2
#     Edge 112, Type (0, 1), BuildingBlock: AJUNOK_clean_linker_0, # of connection points: 2
#     Edge 113, Type (0, 1), BuildingBlock: AJUNOK_clean_linker_0, # of connection points: 2
#     Edge 114, Type (0, 1), BuildingBlock: AJUNOK_clean_linker_0, # of connection points: 2
#     Edge 115, Type (0, 1), BuildingBlock: AJUNOK_clean_linker_0, # of connection points: 2
#     Edge 116, Type (0, 1), BuildingBlock: AJUNOK_clean_linker_0, # of connection points: 2
#     Edge 117, Type (0, 1), BuildingBlock: AJUNOK_clean_linker_0, # of connection points: 2
#     Edge 118, Type (0, 1), BuildingBlock: AJUNOK_clean_linker_0, # of connection points: 2
#     Edge 119, Type (0, 1), BuildingBlock: AJUNOK_clean_linker_0, # of connection points: 2
# Relax obj value: 0.026
# Max RMSD: 0.062
# Mean RMSD: 0.046
data_MOF--net-bwt--node1-OLANEW_clean_sbu_2--node2-QEWDON_clean_linker_0--edge1-AJUNOK_clean_linker_0
_symmetry_space_group_name_H-M    P1
_symmetry_Int_Tables_number       1
_symmetry_cell_setting            triclinic
loop_
_symmetry_equiv_pos_as_xyz
'x, y, z'
_cell_length_a     47.287341
_cell_length_b     47.281314
_cell_length_c     47.303377
_cell_angle_alpha  90.993795
_cell_angle_beta   91.011159
_cell_angle_gamma 90.998591
loop_
_atom_site_label
_atom_site_type_symbol
_atom_site_fract_x
_atom_site_fract_y
_atom_site_fract_z
_atom_type_partial_charge
O0 O 0.13139 0.55456 0.33757 0.0
Cd1 Cd 0.10792 0.58259 0.3015 0.0
O2 O 0.16776 0.54634 0.31074 0.0
Cd3 Cd 0.20846 0.52978 0.29685 0.0
O4 O 0.24938 0.52968 0.27577 0.0
C5 C 0.27214 0.52213 0.28796 0.0
O6 O 0.27103 0.51253 0.3138 0.0
C7 C 0.15513 0.54294 0.33402 0.0
C8 C 0.06896 0.54696 0.27334 0.0
O9 O 0.09406 0.55061 0.2641 0.0
O10 O 0.06198 0.56111 0.29541 0.0
O11 O 0.31165 0.48101 0.80178 0.0
Cd12 Cd 0.29955 0.4625 0.75431 0.0
O13 O 0.29239 0.52241 0.79516 0.0
Cd14 Cd 0.27005 0.50841 0.75652 0.0
O15 O 0.23448 0.49626 0.72858 0.0
C16 C 0.21042 0.49553 0.7401 0.0
O17 O 0.209 0.50183 0.7672 0.0
C18 C 0.3071 0.50613 0.81041 0.0
C19 C 0.34049 0.4848 0.7189 0.0
O20 O 0.31684 0.49706 0.72245 0.0
O21 O 0.34421 0.4611 0.73107 0.0
O22 O 0.73013 0.03652 0.65759 0.0
Cd23 Cd 0.73258 0.03639 0.70918 0.0
O24 O 0.72148 0.99072 0.65836 0.0
Cd25 Cd 0.74283 0.98669 0.69937 0.0
O26 O 0.78243 0.98092 0.72297 0.0
C27 C 0.79771 0.00193 0.73133 0.0
O28 O 0.78839 0.02762 0.72758 0.0
C29 C 0.72209 0.01377 0.64491 0.0
C30 C 0.67761 0.04251 0.72833 0.0
O31 O 0.69488 0.06367 0.72774 0.0
O32 O 0.68658 0.01817 0.72076 0.0
O33 O 0.78662 0.95153 0.20321 0.0
Cd34 Cd 0.78717 0.95186 0.25505 0.0
O35 O 0.80061 0.99599 0.20144 0.0
Cd36 Cd 0.79019 0.00317 0.24568 0.0
O37 O 0.75521 0.01023 0.27435 0.0
C38 C 0.73117 0.01033 0.26191 0.0
O39 O 0.73008 0.00623 0.23436 0.0
C40 C 0.79477 0.97258 0.18885 0.0
C41 C 0.83962 0.93387 0.27535 0.0
O42 O 0.81892 0.91638 0.27097 0.0
O43 O 0.83534 0.96005 0.27055 0.0
O44 O 0.32998 0.2086 0.50666 0.0
Cd45 Cd 0.28008 0.21534 0.51716 0.0
O46 O 0.32646 0.21879 0.46157 0.0
Cd47 Cd 0.28371 0.23443 0.46695 0.0
O48 O 0.251 0.26425 0.47861 0.0
C49 C 0.23889 0.27917 0.46006 0.0
O50 O 0.24515 0.27511 0.43336 0.0
C51 C 0.34113 0.21032 0.48245 0.0
C52 C 0.25185 0.16443 0.50415 0.0
O53 O 0.25349 0.18426 0.48608 0.0
O54 O 0.26269 0.16916 0.52883 0.0
O55 O 0.18558 0.80436 0.95401 0.0
Cd56 Cd 0.23705 0.80549 0.95823 0.0
O57 O 0.1824 0.79212 0.90898 0.0
Cd58 Cd 0.22764 0.78366 0.90918 0.0
O59 O 0.26293 0.75727 0.92193 0.0
C60 C 0.25556 0.73733 0.93806 0.0
O61 O 0.22891 0.73547 0.94533 0.0
C62 C 0.17059 0.79963 0.93179 0.0
C63 C 0.25421 0.86193 0.95479 0.0
O64 O 0.25342 0.84563 0.93284 0.0
O65 O 0.24782 0.8512 0.97858 0.0
O66 O 0.86636 0.28653 0.46393 0.0
Cd67 Cd 0.81726 0.28375 0.44717 0.0
O68 O 0.8602 0.25871 0.5001 0.0
Cd69 Cd 0.81816 0.24439 0.48552 0.0
O70 O 0.78759 0.21157 0.47161 0.0
C71 C 0.79833 0.18774 0.46582 0.0
O72 O 0.82592 0.18542 0.46807 0.0
C73 C 0.87604 0.27516 0.48619 0.0
C74 C 0.79103 0.33315 0.46504 0.0
O75 O 0.78982 0.31061 0.47967 0.0
O76 O 0.80393 0.33203 0.44147 0.0
O77 O 0.65119 0.65827 0.98613 0.0
Cd78 Cd 0.6999 0.66311 0.97013 0.0
O79 O 0.6545 0.69128 0.01944 0.0
Cd80 Cd 0.69515 0.70893 0.00643 0.0
O81 O 0.72262 0.74506 0.99667 0.0
C82 C 0.7325 0.76078 0.01671 0.0
O83 O 0.72719 0.75385 0.04289 0.0
C84 C 0.6404 0.67154 0.00681 0.0
C85 C 0.73214 0.62251 0.99747 0.0
O86 O 0.73045 0.64782 0.00737 0.0
O87 O 0.71908 0.61651 0.97411 0.0
O88 O 0.51954 0.35094 0.21113 0.0
Cd89 Cd 0.53512 0.30175 0.21006 0.0
O90 O 0.4769 0.34143 0.22658 0.0
Cd91 Cd 0.48709 0.2975 0.23446 0.0
O92 O 0.50006 0.26274 0.26109 0.0
C93 C 0.51488 0.27031 0.28265 0.0
O94 O 0.52168 0.29724 0.28602 0.0
C95 C 0.49508 0.35925 0.21796 0.0
C96 C 0.51518 0.27502 0.16038 0.0
O97 O 0.50106 0.2742 0.18322 0.0
O98 O 0.5392 0.288 0.16121 0.0
O99 O 0.00971 0.18871 0.86689 0.0
Cd100 Cd 0.02207 0.23354 0.89104 0.0
O101 O 0.00825 0.21216 0.8276 0.0
Cd102 Cd 0.00465 0.22247 0.7827 0.0
O103 O 0.01109 0.24523 0.74341 0.0
C104 C 0.01904 0.23302 0.72084 0.0
O105 O 0.02248 0.2055 0.72075 0.0
C106 C 0.00602 0.18866 0.84021 0.0
C107 C 0.98221 0.24958 0.9307 0.0
O108 O 0.97967 0.25645 0.9047 0.0
O109 O 0.00364 0.23496 0.93792 0.0
O110 O 0.48838 0.82634 0.3071 0.0
Cd111 Cd 0.47341 0.77676 0.30314 0.0
O112 O 0.52873 0.82257 0.2851 0.0
Cd113 Cd 0.51762 0.77943 0.27108 0.0
O114 O 0.5014 0.74307 0.24619 0.0
C115 C 0.51772 0.72948 0.23002 0.0
O116 O 0.54461 0.73693 0.2296 0.0
C117 C 0.51158 0.83739 0.29921 0.0
C118 C 0.47943 0.75515 0.35731 0.0
O119 O 0.49918 0.75307 0.3392 0.0
O120 O 0.45625 0.76643 0.34932 0.0
O121 O 0.02029 0.67483 0.69082 0.0
Cd122 Cd 0.01662 0.72616 0.69729 0.0
O123 O 0.97613 0.67062 0.67591 0.0
Cd124 Cd 0.96656 0.71236 0.6932 0.0
O125 O 0.96222 0.73757 0.73199 0.0
C126 C 0.96876 0.7245 0.75438 0.0
O127 O 0.97748 0.69836 0.75187 0.0
C128 C 0.00019 0.65967 0.68014 0.0
C129 C 0.03743 0.75308 0.64968 0.0
O130 O 0.05323 0.74892 0.67145 0.0
O131 O 0.01149 0.74486 0.65056 0.0
O132 O 0.78977 0.44215 0.68446 0.0
Cd133 Cd 0.8148 0.43434 0.72911 0.0
O134 O 0.76541 0.4789 0.69865 0.0
Cd135 Cd 0.73222 0.50954 0.69041 0.0
O136 O 0.69161 0.52929 0.6815 0.0
C137 C 0.66981 0.51912 0.69327 0.0
O138 O 0.673 0.49803 0.71069 0.0
C139 C 0.77231 0.46159 0.67923 0.0
C140 C 0.87121 0.45077 0.7227 0.0
O141 O 0.86255 0.42586 0.71526 0.0
O142 O 0.85332 0.4676 0.73367 0.0
O143 O 0.69685 0.57492 0.22689 0.0
Cd144 Cd 0.67183 0.59319 0.2679 0.0
O145 O 0.72907 0.55199 0.25124 0.0
Cd146 Cd 0.76481 0.5232 0.24949 0.0
O147 O 0.80138 0.50164 0.23221 0.0
C148 C 0.79859 0.485 0.21088 0.0
O149 O 0.77322 0.48011 0.19994 0.0
C150 C 0.71855 0.55946 0.22767 0.0
C151 C 0.61537 0.57515 0.264 0.0
O152 O 0.62356 0.59808 0.25235 0.0
O153 O 0.63382 0.56116 0.27785 0.0
O154 O 0.30231 0.03488 0.31002 0.0
Cd155 Cd 0.32763 0.04635 0.26695 0.0
O156 O 0.27256 0.00267 0.29208 0.0
Cd157 Cd 0.23769 0.97198 0.29719 0.0
O158 O 0.19822 0.95201 0.31091 0.0
C159 C 0.17502 0.96222 0.30217 0.0
O160 O 0.17593 0.98368 0.28492 0.0
C161 C 0.28198 0.01731 0.31314 0.0
C162 C 0.38545 0.03761 0.27479 0.0
O163 O 0.37441 0.0609 0.2828 0.0
O164 O 0.36924 0.01881 0.26279 0.0
O165 O 0.22097 0.02223 0.77729 0.0
Cd166 Cd 0.20495 0.01761 0.72806 0.0
O167 O 0.25294 0.056 0.77208 0.0
Cd168 Cd 0.25614 0.05077 0.72644 0.0
O169 O 0.30034 0.04399 0.71601 0.0
C170 C 0.31723 0.06196 0.72783 0.0
O171 O 0.30642 0.08328 0.74188 0.0
C172 C 0.23878 0.03997 0.78802 0.0
C173 C 0.14634 0.02342 0.72831 0.0
O174 O 0.15762 0.99931 0.73219 0.0
O175 O 0.16274 0.04454 0.72333 0.0
O176 O 0.6747 0.78134 0.48679 0.0
Cd177 Cd 0.72124 0.79048 0.46697 0.0
O178 O 0.68411 0.74912 0.51862 0.0
Cd179 Cd 0.72668 0.73925 0.50518 0.0
O180 O 0.73828 0.69528 0.49754 0.0
C181 C 0.73119 0.67836 0.5169 0.0
O182 O 0.72039 0.68898 0.5401 0.0
C183 C 0.66677 0.76562 0.5068 0.0
C184 C 0.7286 0.84917 0.46509 0.0
O185 O 0.71556 0.83563 0.44496 0.0
O186 O 0.73874 0.83488 0.48556 0.0
O187 O 0.73864 0.18848 0.98233 0.0
Cd188 Cd 0.6999 0.15485 0.97186 0.0
O189 O 0.71538 0.21792 0.00987 0.0
Cd190 Cd 0.71873 0.25744 0.035 0.0
O191 O 0.73745 0.29749 0.05122 0.0
C192 C 0.75526 0.3097 0.03547 0.0
O193 O 0.76029 0.29826 0.01061 0.0
C194 C 0.73813 0.2104 0.99821 0.0
C195 C 0.71795 0.10076 0.98591 0.0
O196 O 0.72259 0.11088 0.96144 0.0
O197 O 0.70414 0.11594 0.00343 0.0
O198 O 0.23259 0.68838 0.53786 0.0
Cd199 Cd 0.27171 0.65966 0.55482 0.0
O200 O 0.25921 0.72536 0.52758 0.0
Cd201 Cd 0.26141 0.76878 0.51223 0.0
O202 O 0.24615 0.81024 0.49983 0.0
C203 C 0.23769 0.82712 0.51896 0.0
O204 O 0.2399 0.81958 0.5455 0.0
C205 C 0.23494 0.71347 0.52888 0.0
C206 C 0.26123 0.60362 0.53805 0.0
O207 O 0.25138 0.61336 0.56125 0.0
O208 O 0.27649 0.62024 0.52329 0.0
O209 O 0.32584 0.34458 0.05215 0.0
Cd210 Cd 0.29214 0.37908 0.06948 0.0
O211 O 0.2935 0.31429 0.03556 0.0
Cd212 Cd 0.28279 0.27374 0.01475 0.0
O213 O 0.28478 0.22923 0.00209 0.0
C214 C 0.2772 0.21079 0.01977 0.0
O215 O 0.26672 0.21934 0.04393 0.0
C216 C 0.31934 0.32108 0.0401 0.0
C217 C 0.30095 0.4306 0.04309 0.0
O218 O 0.31499 0.42457 0.06554 0.0
O219 O 0.28266 0.41239 0.03348 0.0
O220 O 0.41127 0.65681 0.82489 0.0
Cd221 Cd 0.38456 0.67855 0.86319 0.0
O222 O 0.42582 0.6968 0.80617 0.0
Cd223 Cd 0.44874 0.71613 0.77148 0.0
O224 O 0.46471 0.71294 0.72858 0.0
C225 C 0.45505 0.72829 0.70901 0.0
O226 O 0.43658 0.74773 0.71535 0.0
C227 C 0.42449 0.66992 0.80581 0.0
C228 C 0.40824 0.6667 0.91589 0.0
O229 O 0.39087 0.64913 0.90366 0.0
O230 O 0.41402 0.68985 0.90334 0.0
O231 O 0.9959 0.75386 0.18732 0.0
Cd232 Cd 0.00862 0.71801 0.15225 0.0
O233 O 0.03558 0.74811 0.21152 0.0
Cd234 Cd 0.06039 0.75933 0.24986 0.0
O235 O 0.07177 0.775 0.29251 0.0
C236 C 0.05163 0.78198 0.30851 0.0
O237 O 0.02553 0.77908 0.2988 0.0
C238 C 0.01227 0.7607 0.208 0.0
C239 C 0.00569 0.73926 0.09758 0.0
O240 O 0.98505 0.72469 0.10729 0.0
O241 O 0.02747 0.74368 0.11366 0.0
O242 O 0.54572 0.22909 0.68706 0.0
Cd243 Cd 0.56268 0.27051 0.66203 0.0
O244 O 0.53407 0.2493 0.72742 0.0
Cd245 Cd 0.51724 0.24582 0.77007 0.0
O246 O 0.50069 0.23657 0.81186 0.0
C247 C 0.51512 0.22121 0.82827 0.0
O248 O 0.53955 0.21187 0.81957 0.0
C249 C 0.53608 0.22726 0.71186 0.0
C250 C 0.551 0.25975 0.6049 0.0
O251 O 0.57385 0.25098 0.61646 0.0
O252 O 0.53428 0.27433 0.62016 0.0
O253 O 0.09197 0.31409 0.3018 0.0
Cd254 Cd 0.1195 0.28035 0.32904 0.0
O255 O 0.06694 0.28172 0.27776 0.0
Cd256 Cd 0.03078 0.27455 0.24892 0.0
O257 O 0.99521 0.28685 0.22202 0.0
C258 C 0.99806 0.28699 0.19538 0.0
O259 O 0.02157 0.27753 0.18462 0.0
C260 C 0.07292 0.30752 0.28344 0.0
C261 C 0.10106 0.28072 0.38482 0.0
O262 O 0.1207 0.29778 0.37712 0.0
O263 O 0.09072 0.26318 0.36626 0.0
H264 H 0.17331 0.44944 0.434 0.0
C265 C 0.1851 0.46446 0.44741 0.0
C266 C 0.19462 0.49027 0.43633 0.0
C267 C 0.18978 0.45846 0.47612 0.0
H268 H 0.21533 0.53024 0.44648 0.0
C269 C 0.20934 0.50958 0.45422 0.0
C270 C 0.2151 0.50342 0.48257 0.0
C271 C 0.20472 0.47805 0.49368 0.0
C272 C 0.17821 0.43213 0.48802 0.0
H273 H 0.20839 0.47348 0.51581 0.0
C274 C 0.18865 0.40579 0.47946 0.0
C275 C 0.17827 0.38068 0.49139 0.0
C276 C 0.15691 0.43331 0.50826 0.0
H277 H 0.14863 0.45348 0.51508 0.0
C278 C 0.14593 0.40842 0.51954 0.0
H279 H 0.20554 0.40498 0.46427 0.0
C280 C 0.1565 0.38222 0.5112 0.0
H281 H 0.14767 0.36318 0.52022 0.0
H282 H 0.12927 0.40943 0.5349 0.0
H283 H 0.34846 0.5847 0.91998 0.0
C284 C 0.34422 0.56829 0.93515 0.0
C285 C 0.33704 0.5408 0.92553 0.0
C286 C 0.34569 0.57474 0.96432 0.0
H287 H 0.3242 0.49898 0.93796 0.0
C288 C 0.33073 0.52 0.94528 0.0
C289 C 0.33143 0.52625 0.97434 0.0
C290 C 0.33969 0.55347 0.98386 0.0
C291 C 0.35079 0.60427 0.97421 0.0
H292 H 0.33984 0.5585 0.00632 0.0
C293 C 0.33378 0.62583 0.96364 0.0
C294 C 0.3371 0.65377 0.97385 0.0
C295 C 0.37149 0.61096 0.99503 0.0
H296 H 0.38457 0.59459 0.0038 0.0
C297 C 0.37573 0.63899 0.00431 0.0
H298 H 0.31718 0.6207 0.94818 0.0
C299 C 0.35869 0.66038 0.99372 0.0
H300 H 0.36166 0.68183 0.00176 0.0
H301 H 0.392 0.64407 0.02005 0.0
H302 H 0.70506 0.04597 0.51155 0.0
C303 C 0.70881 0.02463 0.50391 0.0
C304 C 0.71135 0.00269 0.52329 0.0
C305 C 0.71073 0.01913 0.47468 0.0
H306 H 0.71942 0.95837 0.52819 0.0
C307 C 0.7167 0.97529 0.51325 0.0
C308 C 0.71905 0.96943 0.48424 0.0
C309 C 0.71538 0.99133 0.46488 0.0
C310 C 0.70908 0.04284 0.45472 0.0
H311 H 0.71724 0.98698 0.44242 0.0
C312 C 0.72642 0.06699 0.45918 0.0
C313 C 0.72489 0.08997 0.44083 0.0
C314 C 0.69 0.04185 0.43164 0.0
H315 H 0.67635 0.02348 0.42784 0.0
C316 C 0.6879 0.06497 0.41371 0.0
H317 H 0.74121 0.06786 0.47697 0.0
C318 C 0.70521 0.08896 0.41825 0.0
H319 H 0.70354 0.10651 0.40394 0.0
H320 H 0.67283 0.06429 0.39621 0.0
H321 H 0.79601 0.92684 0.05807 0.0
C322 C 0.78696 0.94564 0.04904 0.0
C323 C 0.78236 0.96941 0.06644 0.0
C324 C 0.78077 0.94636 0.01989 0.0
H325 H 0.76677 0.01194 0.06804 0.0
C326 C 0.77078 0.99372 0.05456 0.0
C327 C 0.76417 0.99475 0.02556 0.0
C328 C 0.76932 0.97096 0.00831 0.0
C329 C 0.78661 0.92156 0.00144 0.0
H330 H 0.76378 0.97126 0.98599 0.0
C331 C 0.77712 0.89432 0.0087 0.0
C332 C 0.78266 0.87073 0.99118 0.0
C333 C 0.8017 0.92509 0.9764 0.0
H334 H 0.80935 0.94584 0.97043 0.0
C335 C 0.80741 0.90178 0.95904 0.0
H336 H 0.76467 0.89168 0.02752 0.0
C337 C 0.79795 0.87478 0.96631 0.0
H338 H 0.80266 0.85702 0.95251 0.0
H339 H 0.81919 0.90466 0.93986 0.0
H340 H 0.46675 0.18296 0.43225 0.0
C341 C 0.47791 0.19145 0.45082 0.0
C342 C 0.46266 0.19998 0.47457 0.0
C343 C 0.50759 0.19368 0.45108 0.0
H344 H 0.46549 0.21893 0.51624 0.0
C345 C 0.47727 0.21171 0.4981 0.0
C346 C 0.5068 0.21493 0.49829 0.0
C347 C 0.52202 0.20514 0.47498 0.0
C348 C 0.52331 0.18599 0.42552 0.0
H349 H 0.54486 0.20757 0.47489 0.0
C350 C 0.51957 0.20167 0.40092 0.0
C351 C 0.53459 0.19506 0.3764 0.0
C352 C 0.54219 0.16344 0.42558 0.0
H353 H 0.5454 0.15119 0.44448 0.0
C354 C 0.5568 0.15641 0.40104 0.0
H355 H 0.50517 0.21929 0.40097 0.0
C356 C 0.55304 0.17212 0.37651 0.0
H357 H 0.56495 0.16677 0.35787 0.0
H358 H 0.57124 0.1389 0.40111 0.0
H359 H 0.03337 0.80024 0.90568 0.0
C360 C 0.02812 0.7941 0.92696 0.0
C361 C 0.04973 0.79201 0.94743 0.0
C362 C 0.99971 0.78908 0.93409 0.0
H363 H 0.05986 0.78098 0.99025 0.0
C364 C 0.04294 0.78388 0.97484 0.0
C365 C 0.01482 0.77887 0.9825 0.0
C366 C 0.99319 0.78179 0.96204 0.0
C367 C 0.97694 0.79123 0.91227 0.0
H368 H 0.97135 0.77817 0.96774 0.0
C369 C 0.98001 0.77855 0.88539 0.0
C370 C 0.95835 0.77999 0.86473 0.0
C371 C 0.952 0.80576 0.91817 0.0
H372 H 0.94916 0.81591 0.93861 0.0
C373 C 0.93066 0.80773 0.89754 0.0
H374 H 0.99918 0.76731 0.88064 0.0
C375 C 0.93376 0.79496 0.87095 0.0
H376 H 0.91676 0.79636 0.85541 0.0
H377 H 0.91157 0.81908 0.90222 0.0
H378 H 0.9948 0.2994 0.55699 0.0
C379 C 0.00834 0.29632 0.53898 0.0
C380 C 0.99612 0.29094 0.51213 0.0
C381 C 0.0379 0.29863 0.54253 0.0
H382 H 0.00431 0.28388 0.46798 0.0
C383 C 0.01371 0.28796 0.48876 0.0
C384 C 0.04324 0.2901 0.49184 0.0
C385 C 0.05523 0.29544 0.51882 0.0
C386 C 0.05062 0.30464 0.57096 0.0
H387 H 0.07803 0.2965 0.52147 0.0
C388 C 0.04082 0.29024 0.59479 0.0
C389 C 0.05248 0.29628 0.62182 0.0
C390 C 0.07243 0.32505 0.57447 0.0
H391 H 0.08021 0.33663 0.55655 0.0
C392 C 0.08409 0.33107 0.60126 0.0
H393 H 0.02416 0.2743 0.59234 0.0
C394 C 0.07423 0.3168 0.62483 0.0
H395 H 0.08385 0.32153 0.64536 0.0
H396 H 0.10085 0.34685 0.60378 0.0
H397 H 0.52856 0.63927 0.07907 0.0
C398 C 0.51342 0.64095 0.06173 0.0
C399 C 0.52304 0.64688 0.03452 0.0
C400 C 0.48437 0.63704 0.0667 0.0
H401 H 0.51045 0.65401 0.99121 0.0
C402 C 0.50334 0.64871 0.01217 0.0
C403 C 0.47438 0.64476 0.01678 0.0
C404 C 0.4649 0.63865 0.04396 0.0
C405 C 0.47446 0.63274 0.0959 0.0
H406 H 0.44241 0.63632 0.04756 0.0
C407 C 0.48466 0.65052 0.11808 0.0
C408 C 0.47533 0.64697 0.14588 0.0
C409 C 0.45472 0.61119 0.10178 0.0
H410 H 0.44659 0.59719 0.08506 0.0
C411 C 0.44573 0.60724 0.12944 0.0
H412 H 0.49932 0.66768 0.11356 0.0
C413 C 0.456 0.62494 0.1514 0.0
H414 H 0.44897 0.62136 0.1727 0.0
H415 H 0.43078 0.59037 0.13391 0.0
H416 H 0.4358 0.48463 0.21419 0.0
C417 C 0.45495 0.4958 0.22117 0.0
C418 C 0.4801 0.48084 0.22502 0.0
C419 C 0.45464 0.52531 0.2255 0.0
H420 H 0.52433 0.48418 0.23649 0.0
C421 C 0.50486 0.49563 0.2335 0.0
C422 C 0.50484 0.52496 0.2383 0.0
C423 C 0.47975 0.53978 0.23387 0.0
C424 C 0.42807 0.54108 0.22155 0.0
H425 H 0.47963 0.56246 0.23764 0.0
C426 C 0.40289 0.53175 0.23411 0.0
C427 C 0.37796 0.54744 0.23146 0.0
C428 C 0.42795 0.56591 0.20568 0.0
H429 H 0.44702 0.57335 0.19562 0.0
C430 C 0.40315 0.58117 0.20243 0.0
H431 H 0.40282 0.51252 0.24625 0.0
C432 C 0.37834 0.57211 0.21528 0.0
H433 H 0.35953 0.58468 0.21297 0.0
H434 H 0.40319 0.60026 0.19012 0.0
H435 H 0.95856 0.06364 0.7929 0.0
C436 C 0.9785 0.05856 0.78325 0.0
C437 C 0.0002 0.07923 0.78218 0.0
C438 C 0.98296 0.03088 0.77318 0.0
H439 H 0.04313 0.08761 0.76986 0.0
C440 C 0.02589 0.07218 0.76963 0.0
C441 C 0.03029 0.04497 0.75843 0.0
C442 C 0.0088 0.0243 0.76062 0.0
C443 C 0.96166 0.00822 0.77797 0.0
H444 H 0.01223 0.00298 0.75276 0.0
C445 C 0.93333 0.01113 0.76908 0.0
C446 C 0.9132 0.9895 0.77397 0.0
C447 C 0.96968 0.98364 0.79207 0.0
H448 H 0.99133 0.98105 0.79931 0.0
C449 C 0.9497 0.96251 0.7976 0.0
H450 H 0.92718 0.02986 0.75777 0.0
C451 C 0.92161 0.96542 0.78877 0.0
H452 H 0.90644 0.94887 0.79366 0.0
H453 H 0.95598 0.94383 0.80886 0.0
H454 H 0.56944 0.96475 0.32272 0.0
C455 C 0.55004 0.97514 0.31669 0.0
C456 C 0.52564 0.95878 0.31057 0.0
C457 C 0.54912 0.00489 0.31606 0.0
H458 H 0.48175 0.95933 0.29822 0.0
C459 C 0.50053 0.97215 0.30302 0.0
C460 C 0.49927 0.00167 0.30157 0.0
C461 C 0.52363 0.01802 0.30838 0.0
C462 C 0.57471 0.02219 0.32366 0.0
H463 H 0.523 0.04086 0.30704 0.0
C464 C 0.60108 0.01554 0.3122 0.0
C465 C 0.62544 0.03182 0.31937 0.0
C466 C 0.57295 0.04535 0.34253 0.0
H467 H 0.55294 0.05082 0.3518 0.0
C468 C 0.59712 0.06141 0.34993 0.0
H469 H 0.6026 0.99788 0.29741 0.0
C470 C 0.62323 0.05476 0.33843 0.0
H471 H 0.64154 0.06794 0.34393 0.0
H472 H 0.59556 0.07921 0.3645 0.0
H473 H 0.05034 0.53129 0.66475 0.0
C474 C 0.03103 0.52119 0.67186 0.0
C475 C 0.00701 0.53755 0.67646 0.0
C476 C 0.02998 0.49175 0.67576 0.0
H477 H 0.9637 0.53705 0.68974 0.0
C478 C 0.98218 0.5244 0.68585 0.0
C479 C 0.98099 0.49523 0.69067 0.0
C480 C 0.00482 0.47889 0.68503 0.0
C481 C 0.05531 0.47444 0.6708 0.0
H482 H 0.00406 0.45633 0.68872 0.0
C483 C 0.08161 0.48258 0.68297 0.0
C484 C 0.10556 0.46577 0.67917 0.0
C485 C 0.0532 0.44937 0.65447 0.0
H486 H 0.03319 0.44268 0.64481 0.0
C487 C 0.07699 0.43278 0.65033 0.0
H488 H 0.08333 0.50175 0.69584 0.0
C489 C 0.10301 0.44083 0.66267 0.0
H490 H 0.12097 0.42722 0.65985 0.0
H491 H 0.07517 0.41346 0.63777 0.0
H492 H 0.72303 0.50383 0.55601 0.0
C493 C 0.73098 0.48555 0.54478 0.0
C494 C 0.74322 0.46343 0.55997 0.0
C495 C 0.72831 0.48392 0.51511 0.0
H496 H 0.76258 0.42255 0.55641 0.0
C497 C 0.75236 0.43941 0.54507 0.0
C498 C 0.74913 0.43704 0.51561 0.0
C499 C 0.73714 0.45941 0.50074 0.0
C500 C 0.71647 0.50788 0.49908 0.0
H501 H 0.73477 0.45777 0.47794 0.0
C502 C 0.72461 0.53597 0.50607 0.0
C503 C 0.71356 0.55872 0.49087 0.0
C504 C 0.69725 0.50279 0.47648 0.0
H505 H 0.69033 0.48145 0.4708 0.0
C506 C 0.68644 0.52526 0.46116 0.0
H507 H 0.73998 0.54011 0.52298 0.0
C508 C 0.69451 0.55304 0.46826 0.0
H509 H 0.68549 0.57015 0.45634 0.0
H510 H 0.67159 0.52113 0.44385 0.0
H511 H 0.78318 0.4829 0.13347 0.0
C512 C 0.77935 0.49737 0.11633 0.0
C513 C 0.76413 0.52206 0.12124 0.0
C514 C 0.78982 0.4915 0.0893 0.0
H515 H 0.74799 0.56012 0.1034 0.0
C516 C 0.75974 0.541 0.09934 0.0
C517 C 0.77065 0.53579 0.07245 0.0
C518 C 0.78536 0.51069 0.06729 0.0
C519 C 0.80679 0.46607 0.08467 0.0
H520 H 0.79386 0.50646 0.04654 0.0
C521 C 0.79381 0.44026 0.07626 0.0
C522 C 0.81017 0.41599 0.07203 0.0
C523 C 0.83614 0.46756 0.08923 0.0
H524 H 0.8464 0.4873 0.09589 0.0
C525 C 0.85243 0.44355 0.08526 0.0
H526 H 0.7711 0.43919 0.07267 0.0
C527 C 0.83959 0.41787 0.07683 0.0
H528 H 0.85267 0.39948 0.07418 0.0
H529 H 0.8751 0.44487 0.08869 0.0
H530 H 0.2117 0.97841 0.42527 0.0
C531 C 0.21382 0.99909 0.43543 0.0
C532 C 0.22965 0.02042 0.42253 0.0
C533 C 0.20085 0.00442 0.46148 0.0
H534 H 0.24491 0.06347 0.42554 0.0
C535 C 0.23241 0.04713 0.43555 0.0
C536 C 0.21945 0.0529 0.46137 0.0
C537 C 0.20358 0.03148 0.47426 0.0
C538 C 0.18509 0.98157 0.47573 0.0
H539 H 0.19365 0.03576 0.49432 0.0
C540 C 0.19744 0.95502 0.47946 0.0
C541 C 0.1831 0.93358 0.49398 0.0
C542 C 0.15803 0.9864 0.4864 0.0
H543 H 0.14804 0.00664 0.48368 0.0
C544 C 0.14357 0.96504 0.50053 0.0
H545 H 0.21866 0.95143 0.47201 0.0
C546 C 0.15604 0.93881 0.50446 0.0
H547 H 0.14457 0.92259 0.51567 0.0
H548 H 0.1227 0.96889 0.50864 0.0
H549 H 0.28382 0.06189 0.92037 0.0
C550 C 0.28093 0.03977 0.92541 0.0
C551 C 0.26798 0.02119 0.90541 0.0
C552 C 0.29075 0.02974 0.95159 0.0
H553 H 0.25457 0.9781 0.89658 0.0
C554 C 0.26442 0.99256 0.912 0.0
C555 C 0.27389 0.98219 0.938 0.0
C556 C 0.28706 0.00088 0.95769 0.0
C557 C 0.30549 0.04911 0.97235 0.0
H558 H 0.29466 0.99287 0.9777 0.0
C559 C 0.29554 0.07658 0.97758 0.0
C560 C 0.30915 0.09448 0.9978 0.0
C561 C 0.32963 0.04007 0.98725 0.0
H562 H 0.33817 0.01929 0.98332 0.0
C563 C 0.34329 0.0579 0.00714 0.0
H564 H 0.27681 0.08383 0.96654 0.0
C565 C 0.33312 0.08493 0.01248 0.0
H566 H 0.34415 0.09854 0.02785 0.0
H567 H 0.36189 0.05076 0.01841 0.0
H568 H 0.54014 0.72632 0.55068 0.0
C569 C 0.53119 0.72921 0.52969 0.0
C570 C 0.54718 0.74337 0.50941 0.0
C571 C 0.50425 0.71775 0.52261 0.0
H572 H 0.54867 0.75603 0.46592 0.0
C573 C 0.53605 0.74596 0.48195 0.0
C574 C 0.50931 0.73472 0.47448 0.0
C575 C 0.49336 0.72081 0.49493 0.0
C576 C 0.48827 0.70115 0.54359 0.0
H577 H 0.47279 0.71184 0.48912 0.0
C578 C 0.48641 0.71076 0.57183 0.0
C579 C 0.47181 0.69463 0.59179 0.0
C580 C 0.47534 0.67515 0.53558 0.0
H581 H 0.47676 0.66701 0.51412 0.0
C582 C 0.46101 0.65902 0.55537 0.0
H583 H 0.49634 0.73073 0.5783 0.0
C584 C 0.45928 0.66861 0.58333 0.0
H585 H 0.44787 0.65585 0.59831 0.0
H586 H 0.45125 0.63897 0.54903 0.0
H587 H 0.83034 0.29403 0.05832 0.0
C588 C 0.84794 0.28959 0.0447 0.0
C589 C 0.84391 0.2713 0.02119 0.0
C590 C 0.87475 0.30135 0.0514 0.0
H591 H 0.86408 0.25188 0.98537 0.0
C592 C 0.86674 0.26628 0.00335 0.0
C593 C 0.89343 0.27866 0.00913 0.0
C594 C 0.89738 0.29602 0.0333 0.0
C595 C 0.87938 0.31738 0.07838 0.0
H596 H 0.91802 0.30549 0.03794 0.0
C597 C 0.90286 0.31163 0.09586 0.0
C598 C 0.90624 0.32481 0.12262 0.0
C599 C 0.85936 0.33679 0.08789 0.0
H600 H 0.84104 0.34156 0.07498 0.0
C601 C 0.86257 0.34991 0.11441 0.0
H602 H 0.91782 0.29583 0.08922 0.0
C603 C 0.8857 0.3438 0.13187 0.0
H604 H 0.88759 0.35395 0.15253 0.0
H605 H 0.84681 0.36455 0.12153 0.0
H606 H 0.13047 0.78962 0.47405 0.0
C607 C 0.11874 0.78774 0.49344 0.0
C608 C 0.13014 0.7725 0.51596 0.0
C609 C 0.09276 0.80154 0.49646 0.0
H610 H 0.12426 0.75834 0.55837 0.0
C611 C 0.11545 0.77056 0.54122 0.0
C612 C 0.08953 0.78394 0.54459 0.0
C613 C 0.07813 0.7993 0.52209 0.0
C614 C 0.08148 0.81928 0.47342 0.0
H615 H 0.05804 0.80967 0.52462 0.0
C616 C 0.07981 0.80898 0.44531 0.0
C617 C 0.06868 0.82584 0.42365 0.0
C618 C 0.07225 0.84676 0.47958 0.0
H619 H 0.0736 0.85531 0.50097 0.0
C620 C 0.0615 0.86362 0.45814 0.0
H621 H 0.08627 0.78757 0.4405 0.0
C622 C 0.0596 0.85323 0.43039 0.0
H623 H 0.05108 0.8666 0.4141 0.0
H624 H 0.05453 0.88481 0.46306 0.0
H625 H 0.41356 0.23097 0.98593 0.0
C626 C 0.42629 0.23405 0.00506 0.0
C627 C 0.41706 0.25221 0.02661 0.0
C628 C 0.45147 0.21904 0.00879 0.0
H629 H 0.42607 0.2701 0.06794 0.0
C630 C 0.43326 0.25583 0.05146 0.0
C631 C 0.45857 0.24136 0.05527 0.0
C632 C 0.46756 0.22281 0.03392 0.0
C633 C 0.46049 0.19844 0.9871 0.0
H634 H 0.4869 0.21115 0.03692 0.0
C635 C 0.46713 0.20725 0.95974 0.0
C636 C 0.47691 0.18767 0.93954 0.0
C637 C 0.46328 0.16989 0.99409 0.0
H638 H 0.45826 0.16276 0.01509 0.0
C639 C 0.47246 0.15033 0.974 0.0
H640 H 0.46573 0.22944 0.9546 0.0
C641 C 0.47934 0.15912 0.94692 0.0
H642 H 0.48663 0.1436 0.93172 0.0
H643 H 0.47445 0.12831 0.97949 0.0
H644 H 0.49996 0.60621 0.70349 0.0
C645 C 0.48232 0.59142 0.70056 0.0
C646 C 0.45779 0.59481 0.71642 0.0
C647 C 0.48357 0.56939 0.68022 0.0
H648 H 0.41623 0.5784 0.72506 0.0
C649 C 0.43496 0.57596 0.71234 0.0
C650 C 0.43614 0.55368 0.69262 0.0
C651 C 0.46049 0.55036 0.67654 0.0
C652 C 0.5085 0.56655 0.66208 0.0
H653 H 0.46147 0.53308 0.66123 0.0
C654 C 0.53532 0.56115 0.67387 0.0
C655 C 0.55861 0.55666 0.65625 0.0
C656 C 0.5052 0.56829 0.63262 0.0
H657 H 0.48468 0.57245 0.62318 0.0
C658 C 0.52837 0.56477 0.61515 0.0
H659 H 0.53786 0.55987 0.69662 0.0
C660 C 0.55489 0.55889 0.62681 0.0
H661 H 0.57236 0.55541 0.61274 0.0
H662 H 0.52568 0.56619 0.59245 0.0
H663 H 0.02497 0.85459 0.30542 0.0
C664 C 0.00429 0.86405 0.30385 0.0
C665 C 0.98392 0.85271 0.28467 0.0
C666 C 0.99814 0.88744 0.32121 0.0
H667 H 0.94202 0.85777 0.26699 0.0
C668 C 0.95735 0.86535 0.28278 0.0
C669 C 0.95065 0.88846 0.30028 0.0
C670 C 0.9711 0.8993 0.31968 0.0
C671 C 0.02045 0.90015 0.34002 0.0
H672 H 0.96619 0.91727 0.33316 0.0
C673 C 0.04687 0.90777 0.32898 0.0
C674 C 0.06796 0.92074 0.34634 0.0
C675 C 0.01539 0.9052 0.3688 0.0
H676 H 0.99522 0.89943 0.37776 0.0
C677 C 0.03651 0.91745 0.38629 0.0
H678 H 0.05085 0.90405 0.30673 0.0
C679 C 0.0627 0.92511 0.37521 0.0
H680 H 0.07861 0.93504 0.38903 0.0
H681 H 0.03254 0.92114 0.40851 0.0
H682 H 0.48522 0.10239 0.75122 0.0
C683 C 0.50607 0.09335 0.75004 0.0
C684 C 0.52926 0.11144 0.74565 0.0
C685 C 0.50983 0.06403 0.75321 0.0
H686 H 0.57419 0.11452 0.74057 0.0
C687 C 0.55646 0.10044 0.7448 0.0
C688 C 0.56092 0.07143 0.74795 0.0
C689 C 0.53751 0.05331 0.75212 0.0
C690 C 0.48494 0.04482 0.75773 0.0
H691 H 0.54093 0.03088 0.75432 0.0
C692 C 0.45822 0.0508 0.74572 0.0
C693 C 0.43425 0.03405 0.75165 0.0
C694 C 0.48741 0.02085 0.77481 0.0
H695 H 0.5073 0.01576 0.78498 0.0
C696 C 0.46392 0.00343 0.77968 0.0
H697 H 0.45586 0.06858 0.7318 0.0
C698 C 0.43746 0.01002 0.76834 0.0
H699 H 0.41935 0.9968 0.77334 0.0
H700 H 0.46609 0.98512 0.79292 0.0
H701 H 0.97967 0.37413 0.20723 0.0
C702 C 0.98719 0.3951 0.21369 0.0
C703 C 0.01002 0.39818 0.233 0.0
C704 C 0.97346 0.4192 0.20355 0.0
H705 H 0.03758 0.42775 0.25574 0.0
C706 C 0.01961 0.42529 0.24126 0.0
C707 C 0.0066 0.44929 0.23068 0.0
C708 C 0.98331 0.4463 0.21217 0.0
C709 C 0.94879 0.41646 0.18399 0.0
H710 H 0.97324 0.46501 0.20408 0.0
C711 C 0.92347 0.42996 0.19062 0.0
C712 C 0.90038 0.42969 0.17138 0.0
C713 C 0.95083 0.40175 0.15814 0.0
H714 H 0.97015 0.39113 0.15264 0.0
C715 C 0.92824 0.40161 0.13873 0.0
H716 H 0.92183 0.44048 0.21105 0.0
C717 C 0.90331 0.41568 0.1451 0.0
H718 H 0.88654 0.41569 0.1293 0.0
H719 H 0.93014 0.39076 0.11853 0.0
C720 C 0.05789 0.51093 0.23536 0.0
C721 C 0.04968 0.52522 0.2602 0.0
C722 C 0.04261 0.48729 0.22482 0.0
C723 C 0.01852 0.47729 0.2386 0.0
H724 H 0.07694 0.51725 0.22458 0.0
H725 H 0.05041 0.47597 0.20651 0.0
S726 S 0.98658 0.5079 0.30277 0.0
N727 N 0.01449 0.52841 0.29716 0.0
N728 N 0.986 0.4838 0.27707 0.0
C729 C 0.00911 0.49204 0.26245 0.0
C730 C 0.02462 0.51614 0.27329 0.0
C731 C 0.39184 0.48904 0.70742 0.0
C732 C 0.36416 0.49942 0.70465 0.0
C733 C 0.41544 0.50581 0.70062 0.0
C734 C 0.41208 0.53339 0.69075 0.0
H735 H 0.3955 0.46869 0.71686 0.0
H736 H 0.43641 0.49803 0.70529 0.0
S737 S 0.34449 0.56838 0.67419 0.0
N738 N 0.33494 0.53745 0.687 0.0
N739 N 0.37942 0.56885 0.67453 0.0
C740 C 0.38465 0.5429 0.68518 0.0
C741 C 0.36063 0.52591 0.69201 0.0
C742 C 0.64088 0.06895 0.75448 0.0
C743 C 0.64777 0.04664 0.73601 0.0
C744 C 0.61267 0.07564 0.75949 0.0
C745 C 0.5902 0.06065 0.74579 0.0
H746 H 0.65744 0.08174 0.76474 0.0
H747 H 0.60843 0.09332 0.77357 0.0
S748 S 0.59706 0.99997 0.6957 0.0
N749 N 0.62998 0.00873 0.7048 0.0
N750 N 0.57688 0.02203 0.71332 0.0
C751 C 0.59679 0.03763 0.72799 0.0
C752 C 0.6256 0.03048 0.72327 0.0
C753 C 0.8713 0.89484 0.29035 0.0
C754 C 0.86786 0.92369 0.28449 0.0
C755 C 0.89799 0.88393 0.29653 0.0
C756 C 0.92238 0.90138 0.2972 0.0
H757 H 0.85332 0.88032 0.28955 0.0
H758 H 0.89965 0.86146 0.30027 0.0
S759 S 0.92512 0.97854 0.28447 0.0
N760 N 0.89128 0.96976 0.28084 0.0
N761 N 0.94149 0.94902 0.29219 0.0
C762 C 0.91926 0.93041 0.29235 0.0
C763 C 0.89202 0.9416 0.28604 0.0
C764 C 0.22705 0.13246 0.46883 0.0
C765 C 0.23976 0.13628 0.49579 0.0
C766 C 0.21913 0.10552 0.4585 0.0
C767 C 0.22353 0.0813 0.47472 0.0
H768 H 0.22407 0.1503 0.45509 0.0
H769 H 0.21032 0.1035 0.43724 0.0
S770 S 0.25407 0.07965 0.54736 0.0
N771 N 0.25467 0.11348 0.53927 0.0
N772 N 0.23998 0.06278 0.51954 0.0
C773 C 0.23481 0.08483 0.50224 0.0
C774 C 0.24289 0.11233 0.51285 0.0
C775 C 0.2734 0.90244 0.92742 0.0
C776 C 0.26107 0.89249 0.95228 0.0
C777 C 0.27812 0.93139 0.92337 0.0
C778 C 0.27054 0.95159 0.94394 0.0
H779 H 0.2792 0.8878 0.91073 0.0
H780 H 0.28755 0.93803 0.90381 0.0
S781 S 0.23744 0.93678 0.01274 0.0
N782 N 0.24166 0.90525 0.99802 0.0
N783 N 0.25007 0.95973 0.99006 0.0
C784 C 0.25866 0.94198 0.96913 0.0
C785 C 0.25402 0.91243 0.97337 0.0
C786 C 0.76088 0.35932 0.49918 0.0
C787 C 0.77889 0.3599 0.47583 0.0
C788 C 0.7508 0.38431 0.51134 0.0
C789 C 0.75843 0.41095 0.50076 0.0
H790 H 0.75472 0.33939 0.50843 0.0
H791 H 0.73714 0.38277 0.52941 0.0
S792 S 0.8051 0.42433 0.44004 0.0
N793 N 0.80363 0.38953 0.4423 0.0
N794 N 0.78507 0.43651 0.4656 0.0
C795 C 0.77598 0.41191 0.47711 0.0
C796 C 0.78614 0.3864 0.46456 0.0
C797 C 0.74071 0.57145 0.00774 0.0
C798 C 0.74661 0.60029 0.01381 0.0
C799 C 0.75033 0.5502 0.02576 0.0
C800 C 0.76623 0.55713 0.05034 0.0
H801 H 0.72728 0.56528 0.98982 0.0
H802 H 0.74386 0.52845 0.02136 0.0
S803 S 0.79162 0.62866 0.07322 0.0
N804 N 0.77249 0.63409 0.04435 0.0
N805 N 0.79052 0.59415 0.07798 0.0
C806 C 0.77411 0.58556 0.05545 0.0
C807 C 0.76431 0.60715 0.03724 0.0
C808 C 0.47525 0.2516 0.13325 0.0
C809 C 0.50296 0.26301 0.13356 0.0
C810 C 0.46157 0.24337 0.10789 0.0
C811 C 0.47511 0.24599 0.08185 0.0
H812 H 0.46353 0.24992 0.15263 0.0
H813 H 0.43988 0.23565 0.10857 0.0
S814 S 0.54829 0.27229 0.07091 0.0
N815 N 0.54413 0.27469 0.10545 0.0
N816 N 0.51815 0.25918 0.05776 0.0
C817 C 0.50325 0.25593 0.08183 0.0
C818 C 0.51723 0.26447 0.10769 0.0
C819 C 0.93493 0.26932 0.94189 0.0
C820 C 0.9606 0.25791 0.9515 0.0
C821 C 0.91357 0.27639 0.96075 0.0
C822 C 0.91713 0.27263 0.98999 0.0
H823 H 0.93101 0.27242 0.91954 0.0
H824 H 0.89402 0.28476 0.95236 0.0
S825 S 0.98037 0.24423 0.02634 0.0
N826 N 0.98848 0.24373 0.99252 0.0
N827 N 0.94819 0.25709 0.02787 0.0
C828 C 0.9428 0.26178 5e-05 0.0
C829 C 0.96455 0.25436 0.98083 0.0
C830 C 0.50968 0.73329 0.39447 0.0
C831 C 0.48434 0.74671 0.38705 0.0
C832 C 0.51691 0.7284 0.42274 0.0
C833 C 0.49912 0.73669 0.44478 0.0
H834 H 0.52456 0.72724 0.37839 0.0
H835 H 0.537 0.71868 0.42746 0.0
S836 S 0.4296 0.77091 0.43697 0.0
N837 N 0.44059 0.76677 0.40424 0.0
N838 N 0.45451 0.75767 0.45747 0.0
C839 C 0.47314 0.74889 0.43775 0.0
C840 C 0.46568 0.7539 0.40887 0.0
C841 C 0.03459 0.7616 0.59753 0.0
C842 C 0.04929 0.76515 0.62358 0.0
C843 C 0.04704 0.76934 0.57201 0.0
C844 C 0.07458 0.78097 0.57168 0.0
H845 H 0.01382 0.75155 0.59665 0.0
H846 H 0.03565 0.76483 0.55232 0.0
S847 S 0.12022 0.79902 0.63417 0.0
N848 N 0.09165 0.78421 0.64751 0.0
N849 N 0.11481 0.7989 0.5996 0.0
C850 C 0.0887 0.78644 0.59764 0.0
C851 C 0.07613 0.7785 0.62357 0.0
C852 C 0.91593 0.44739 0.69544 0.0
C853 C 0.90051 0.46041 0.71713 0.0
C854 C 0.94247 0.45812 0.68763 0.0
C855 C 0.95458 0.48212 0.70136 0.0
H856 H 0.90698 0.42946 0.68362 0.0
H857 H 0.95304 0.44822 0.67 0.0
S858 S 0.92495 0.52115 0.76247 0.0
N859 N 0.90064 0.4968 0.7541 0.0
N860 N 0.95076 0.51648 0.7399 0.0
C861 C 0.94015 0.49427 0.72419 0.0
C862 C 0.91305 0.48355 0.73194 0.0
C863 C 0.56845 0.57506 0.23853 0.0
C864 C 0.58592 0.56427 0.26009 0.0
C865 C 0.54167 0.56303 0.23232 0.0
C866 C 0.5314 0.53983 0.2475 0.0
H867 H 0.57589 0.59225 0.2256 0.0
H868 H 0.52943 0.57119 0.21478 0.0
S869 S 0.5668 0.50642 0.30869 0.0
N870 N 0.58963 0.53085 0.2985 0.0
N871 N 0.53923 0.50857 0.28699 0.0
C872 C 0.54791 0.52991 0.27013 0.0
C873 C 0.57517 0.54204 0.27639 0.0
C874 C 0.42899 0.01105 0.26355 0.0
C875 C 0.41578 0.03186 0.27997 0.0
C876 C 0.45663 0.00276 0.26972 0.0
C877 C 0.4721 0.0146 0.29285 0.0
H878 H 0.41769 0.00061 0.24607 0.0
H879 H 0.46567 0.98622 0.25675 0.0
S880 S 0.44774 0.071 0.34167 0.0
N881 N 0.42084 0.06544 0.3194 0.0
N882 N 0.47263 0.04914 0.33153 0.0
C883 C 0.45966 0.03635 0.30873 0.0
C884 C 0.43152 0.0451 0.3022 0.0
C885 C 0.10029 0.00818 0.74881 0.0
C886 C 0.1156 0.02724 0.73212 0.0
C887 C 0.07226 0.01339 0.75621 0.0
C888 C 0.05839 0.03773 0.74697 0.0
H889 H 0.11044 0.98977 0.75742 0.0
H890 H 0.06187 0.99893 0.77037 0.0
S891 S 0.08748 0.09173 0.69889 0.0
N892 N 0.1138 0.06979 0.70403 0.0
N893 N 0.06086 0.07917 0.71731 0.0
C894 C 0.07283 0.05595 0.72871 0.0
C895 C 0.10147 0.05081 0.72143 0.0
C896 C 0.70885 0.89604 0.45175 0.0
C897 C 0.72972 0.88052 0.46603 0.0
C898 C 0.70656 0.92537 0.45621 0.0
C899 C 0.72519 0.94009 0.47493 0.0
H900 H 0.69316 0.88527 0.43831 0.0
H901 H 0.68915 0.93624 0.44625 0.0
S902 S 0.78672 0.91034 0.51313 0.0
N903 N 0.77156 0.88281 0.49667 0.0
N904 N 0.76753 0.93786 0.5046 0.0
C905 C 0.74751 0.92523 0.48744 0.0
C906 C 0.7497 0.89544 0.48313 0.0
C907 C 0.71841 0.05964 0.01845 0.0
C908 C 0.72888 0.07279 0.99421 0.0
C909 C 0.72946 0.03412 0.02793 0.0
C910 C 0.7516 0.02075 0.01371 0.0
H911 H 0.70163 0.06922 0.03039 0.0
H912 H 0.72068 0.02487 0.04672 0.0
S913 S 0.78689 0.04651 0.94938 0.0
N914 N 0.76263 0.07031 0.95601 0.0
N915 N 0.7838 0.02267 0.97427 0.0
C916 C 0.76205 0.03342 0.98923 0.0
C917 C 0.75063 0.05934 0.9794 0.0
C918 C 0.2289 0.56108 0.53774 0.0
C919 C 0.25307 0.57497 0.52725 0.0
C920 C 0.21773 0.53646 0.52445 0.0
C921 C 0.23046 0.5249 0.50037 0.0
H922 H 0.21753 0.57017 0.55528 0.0
H923 H 0.19805 0.52752 0.53196 0.0
S924 S 0.29691 0.54986 0.46784 0.0
N925 N 0.29143 0.57295 0.49367 0.0
N926 N 0.27049 0.52664 0.46897 0.0
C927 C 0.25589 0.53715 0.49119 0.0
C928 C 0.26719 0.56221 0.50456 0.0
C929 C 0.33241 0.47224 0.03272 0.0
C930 C 0.30681 0.45708 0.02776 0.0
C931 C 0.33984 0.49552 0.01619 0.0
C932 C 0.32188 0.50438 0.99423 0.0
H933 H 0.34735 0.46545 0.04872 0.0
H934 H 0.36023 0.50588 0.01982 0.0
S935 S 0.25068 0.47491 0.97551 0.0
N936 N 0.26222 0.45471 0.00124 0.0
N937 N 0.27613 0.49852 0.97049 0.0
C938 C 0.29554 0.49054 0.99021 0.0
C939 C 0.28802 0.46686 0.00688 0.0
C940 C 0.43345 0.68261 0.96023 0.0
C941 C 0.42218 0.66029 0.94323 0.0
C942 C 0.44923 0.67729 0.98482 0.0
C943 C 0.45427 0.64951 0.99328 0.0
H944 H 0.43059 0.70438 0.9542 0.0
H945 H 0.45829 0.69502 0.99689 0.0
S946 S 0.42936 0.5836 0.95673 0.0
N947 N 0.41677 0.60921 0.93707 0.0
N948 N 0.44669 0.59943 0.98339 0.0
C949 C 0.44259 0.62698 0.97706 0.0
C950 C 0.4264 0.63234 0.95201 0.0
C951 C 0.02149 0.77444 0.06231 0.0
C952 C 0.00492 0.75046 0.06854 0.0
C953 C 0.02323 0.7843 0.03467 0.0
C954 C 0.00888 0.77032 0.01198 0.0
H955 H 0.03355 0.78552 0.07888 0.0
H956 H 0.03656 0.80268 0.03092 0.0
S957 S 0.9621 0.70685 0.01716 0.0
N958 N 0.97287 0.71357 0.05003 0.0
N959 N 0.97698 0.73152 0.99778 0.0
C960 C 0.99148 0.74682 0.01803 0.0
C961 C 0.98935 0.73701 0.04637 0.0
C962 C 0.55373 0.22629 0.56349 0.0
C963 C 0.54285 0.25118 0.5756 0.0
C964 C 0.54302 0.2153 0.53762 0.0
C965 C 0.5212 0.22894 0.52298 0.0
H966 H 0.5696 0.21439 0.57474 0.0
H967 H 0.55087 0.19531 0.52976 0.0
S968 S 0.48915 0.29732 0.54295 0.0
N969 N 0.51152 0.2909 0.56916 0.0
N970 N 0.49183 0.27052 0.52038 0.0
C971 C 0.51167 0.2549 0.5338 0.0
C972 C 0.52237 0.26595 0.56016 0.0
C973 C 0.06907 0.26169 0.42166 0.0
C974 C 0.0894 0.28201 0.41376 0.0
C975 C 0.05523 0.26387 0.44748 0.0
C976 C 0.06105 0.28651 0.4665 0.0
H977 H 0.0632 0.24423 0.4075 0.0
H978 H 0.03933 0.248 0.45232 0.0
S979 S 0.11372 0.34446 0.45699 0.0
N980 N 0.11593 0.32472 0.428 0.0
N981 N 0.08942 0.32901 0.47638 0.0
C982 C 0.08219 0.30634 0.45954 0.0
C983 C 0.09645 0.30408 0.43321 0.0
C984 C 0.14868 0.50949 0.37346 0.0
C985 C 0.1671 0.52594 0.35713 0.0
C986 C 0.15823 0.4962 0.39799 0.0
C987 C 0.18658 0.49899 0.40723 0.0
H988 H 0.12642 0.50769 0.36777 0.0
H989 H 0.14289 0.48513 0.41068 0.0
S990 S 0.24369 0.53849 0.37124 0.0
N991 N 0.21514 0.54373 0.35156 0.0
N992 N 0.23352 0.51754 0.39683 0.0
C993 C 0.20558 0.51403 0.39017 0.0
C994 C 0.19575 0.52783 0.36533 0.0
C995 C 0.30751 0.54147 0.85058 0.0
C996 C 0.31773 0.51616 0.83867 0.0
C997 C 0.31511 0.55018 0.8782 0.0
C998 C 0.33328 0.53397 0.89496 0.0
H999 H 0.29268 0.55421 0.83888 0.0
H1000 H 0.30565 0.56904 0.88695 0.0
S1001 S 0.36915 0.46832 0.87275 0.0
N1002 N 0.34934 0.47655 0.8451 0.0
N1003 N 0.36366 0.49315 0.89691 0.0
C1004 C 0.34493 0.50955 0.88286 0.0
C1005 C 0.33717 0.50059 0.85477 0.0
C1006 C 0.72974 0.03244 0.59644 0.0
C1007 C 0.71568 0.01344 0.6142 0.0
C1008 C 0.72713 0.02979 0.56691 0.0
C1009 C 0.71016 0.00821 0.55421 0.0
H1010 H 0.74402 0.04855 0.60533 0.0
H1011 H 0.73958 0.04381 0.55399 0.0
S1012 S 0.66485 0.95653 0.59144 0.0
N1013 N 0.68152 0.9746 0.61705 0.0
N1014 N 0.67606 0.9701 0.56163 0.0
C1015 C 0.69437 0.99047 0.57179 0.0
C1016 C 0.69727 0.99295 0.60177 0.0
C1017 C 0.78096 0.94772 0.1433 0.0
C1018 C 0.79504 0.97051 0.15747 0.0
C1019 C 0.7779 0.94693 0.11375 0.0
C1020 C 0.78882 0.96887 0.09725 0.0
H1021 H 0.77125 0.93084 0.15514 0.0
H1022 H 0.7659 0.9296 0.10384 0.0
S1023 S 0.8311 0.03107 0.12335 0.0
N1024 N 0.82254 0.01408 0.15226 0.0
N1025 N 0.81693 0.01234 0.09677 0.0
C1026 C 0.8043 0.99092 0.11093 0.0
C1027 C 0.80739 0.9918 0.141 0.0
C1028 C 0.38614 0.2143 0.45542 0.0
C1029 C 0.37156 0.20412 0.47902 0.0
C1030 C 0.41553 0.21156 0.45331 0.0
C1031 C 0.43134 0.19846 0.47467 0.0
H1032 H 0.375 0.22554 0.43899 0.0
H1033 H 0.4261 0.22093 0.43553 0.0
S1034 S 0.40303 0.16422 0.53841 0.0
N1035 N 0.375 0.17757 0.52258 0.0
N1036 N 0.43012 0.17234 0.51839 0.0
C1037 C 0.41688 0.18663 0.49742 0.0
C1038 C 0.38703 0.18947 0.49966 0.0
C1039 C 0.12199 0.78463 0.91476 0.0
C1040 C 0.1394 0.80122 0.93323 0.0
C1041 C 0.09261 0.78284 0.91845 0.0
C1042 C 0.07974 0.79769 0.94063 0.0
H1043 H 0.13124 0.77186 0.89821 0.0
H1044 H 0.08011 0.76868 0.90476 0.0
S1045 S 0.11508 0.8479 0.99151 0.0
N1046 N 0.14103 0.83546 0.97228 0.0
N1047 N 0.08591 0.83226 0.97891 0.0
C1048 C 0.09661 0.81587 0.95791 0.0
C1049 C 0.12642 0.81759 0.9543 0.0
C1050 C 0.92288 0.29945 0.47981 0.0
C1051 C 0.90604 0.2804 0.49506 0.0
C1052 C 0.95172 0.30337 0.48611 0.0
C1053 C 0.96499 0.28845 0.50796 0.0
H1054 H 0.91389 0.31116 0.46245 0.0
H1055 H 0.96387 0.31794 0.47348 0.0
S1056 S 0.93061 0.23684 0.55508 0.0
N1057 N 0.90482 0.24715 0.53386 0.0
N1058 N 0.95919 0.25442 0.54538 0.0
C1059 C 0.94838 0.26999 0.52399 0.0
C1060 C 0.91891 0.26596 0.51761 0.0
C1061 C 0.59478 0.6443 -0.0001 0.0
C1062 C 0.61106 0.66454 0.01556 0.0
C1063 C 0.56657 0.63833 0.00656 0.0
C1064 C 0.55351 0.65217 0.02925 0.0
H1065 H 0.60367 0.63325 0.982 0.0
H1066 H 0.5548 0.62286 0.99368 0.0
S1067 S 0.58653 0.7065 0.07738 0.0
N1068 N 0.61187 0.69802 0.05538 0.0
N1069 N 0.55878 0.68682 0.06757 0.0
C1070 C 0.56955 0.67201 0.04549 0.0
C1071 C 0.5983 0.67818 0.03869 0.0
C1072 C 0.50686 0.40862 0.20347 0.0
C1073 C 0.48858 0.38987 0.21739 0.0
C1074 C 0.50313 0.43791 0.205 0.0
C1075 C 0.48106 0.4497 0.22062 0.0
H1076 H 0.52462 0.40071 0.19174 0.0
H1077 H 0.51809 0.45151 0.19439 0.0
S1078 S 0.42663 0.41006 0.2601 0.0
N1079 N 0.44669 0.38531 0.24636 0.0
N1080 N 0.44012 0.44046 0.24959 0.0
C1081 C 0.46196 0.43126 0.23377 0.0
C1082 C 0.46563 0.40134 0.2321 0.0
C1083 C 0.00938 0.15823 0.79638 0.0
C1084 C 0.00085 0.16147 0.82457 0.0
C1085 C 0.00758 0.13188 0.78235 0.0
C1086 C 0.99752 0.10757 0.79601 0.0
H1087 H 0.01894 0.17569 0.78541 0.0
H1088 H 0.01509 0.13034 0.76087 0.0
S1089 S 0.97165 0.10475 0.86956 0.0
N1090 N 0.98061 0.13828 0.86525 0.0
N1091 N 0.97836 0.08859 0.83928 0.0
C1092 C 0.98814 0.11064 0.82394 0.0
C1093 C 0.98967 0.13756 0.83814 0.0
C1094 C 0.53855 0.88243 0.28994 0.0
C1095 C 0.51783 0.86779 0.30534 0.0
C1096 C 0.54236 0.91186 0.29301 0.0
C1097 C 0.52565 0.92754 0.31162 0.0
H1098 H 0.55106 0.87133 0.27448 0.0
H1099 H 0.55742 0.92258 0.2797 0.0
S1100 S 0.47181 0.89916 0.36004 0.0
N1101 N 0.48277 0.87113 0.34234 0.0
N1102 N 0.49003 0.9263 0.34788 0.0
C1103 C 0.50625 0.91303 0.32844 0.0
C1104 C 0.50231 0.88319 0.32536 0.0
C1105 C 0.0265 0.61495 0.68863 0.0
C1106 C 0.00401 0.62889 0.67515 0.0
C1107 C 0.0283 0.58536 0.68763 0.0
C1108 C 0.00774 0.56868 0.67304 0.0
H1109 H 0.04213 0.62682 0.7012 0.0
H1110 H 0.04506 0.57543 0.69956 0.0
S1111 S 0.9475 0.59478 0.6302 0.0
N1112 N 0.9627 0.62372 0.64391 0.0
N1113 N 0.96634 0.5682 0.64189 0.0
C1114 C 0.98633 0.58238 0.65785 0.0
C1115 C 0.98439 0.61245 0.65894 0.0
C1116 C 0.74941 0.44001 0.6362 0.0
C1117 C 0.76084 0.46405 0.65027 0.0
C1118 C 0.74224 0.4406 0.60739 0.0
C1119 C 0.74705 0.46501 0.59132 0.0
H1120 H 0.74655 0.42042 0.64745 0.0
H1121 H 0.73362 0.42144 0.59744 0.0
S1122 S 0.77666 0.53362 0.61879 0.0
N1123 N 0.77587 0.51317 0.64673 0.0
N1124 N 0.76374 0.51407 0.59216 0.0
C1125 C 0.75776 0.4895 0.60548 0.0
C1126 C 0.76442 0.48903 0.63505 0.0
C1127 C 0.71326 0.53633 0.18018 0.0
C1128 C 0.73083 0.5493 0.20107 0.0
C1129 C 0.72443 0.52643 0.15468 0.0
C1130 C 0.75346 0.52921 0.14941 0.0
H1131 H 0.69077 0.53381 0.18359 0.0
H1132 H 0.71026 0.51697 0.13879 0.0
S1133 S 0.80787 0.56383 0.19604 0.0
N1134 N 0.77829 0.56611 0.21397 0.0
N1135 N 0.7993 0.54694 0.16615 0.0
C1136 C 0.77119 0.54234 0.16993 0.0
C1137 C 0.75984 0.55256 0.19579 0.0
C1138 C 0.23951 0.01252 0.34373 0.0
C1139 C 0.26909 0.01477 0.34124 0.0
C1140 C 0.22686 0.01259 0.37033 0.0
C1141 C 0.24337 0.01547 0.39519 0.0
H1142 H 0.22592 0.01217 0.32508 0.0
H1143 H 0.20398 0.01184 0.37141 0.0
S1144 S 0.3215 0.02098 0.40039 0.0
N1145 N 0.3145 0.01874 0.36608 0.0
N1146 N 0.29055 0.01965 0.416 0.0
C1147 C 0.27289 0.01717 0.39308 0.0
C1148 C 0.28579 0.01676 0.3661 0.0
C1149 C 0.22566 0.02673 0.83705 0.0
C1150 C 0.24491 0.03987 0.81888 0.0
C1151 C 0.23267 0.02235 0.8655 0.0
C1152 C 0.25925 0.03077 0.87688 0.0
H1153 H 0.20534 0.0189 0.82905 0.0
H1154 H 0.21752 0.01135 0.87847 0.0
S1155 S 0.31672 0.06745 0.83876 0.0
N1156 N 0.29116 0.0628 0.81482 0.0
N1157 N 0.30445 0.05396 0.86817 0.0
C1158 C 0.27817 0.0452 0.85938 0.0
C1159 C 0.27097 0.04988 0.8304 0.0
C1160 C 0.62547 0.73827 0.52507 0.0
C1161 C 0.63633 0.76341 0.51351 0.0
C1162 C 0.59628 0.73284 0.52583 0.0
C1163 C 0.57692 0.75244 0.51528 0.0
H1164 H 0.63957 0.72176 0.53175 0.0
H1165 H 0.58896 0.71233 0.53283 0.0
S1166 S 0.59416 0.82398 0.48887 0.0
N1167 N 0.62524 0.80989 0.49548 0.0
N1168 N 0.57032 0.7998 0.4974 0.0
C1169 C 0.58737 0.77877 0.50633 0.0
C1170 C 0.61709 0.78423 0.50533 0.0
C1171 C 0.78005 0.23814 0.98231 0.0
C1172 C 0.76448 0.22639 0.00431 0.0
C1173 C 0.8054 0.25317 0.98801 0.0
C1174 C 0.81633 0.25636 0.01584 0.0
H1175 H 0.7724 0.236 0.96064 0.0
H1176 H 0.81646 0.26243 0.97047 0.0
S1177 S 0.78429 0.22672 0.08038 0.0
N1178 N 0.76183 0.21766 0.05455 0.0
N1179 N 0.81015 0.24452 0.06534 0.0
C1180 C 0.80103 0.24402 0.03792 0.0
C1181 C 0.77498 0.2293 0.03211 0.0
C1182 C 0.20597 0.75656 0.53395 0.0
C1183 C 0.20926 0.72942 0.52206 0.0
C1184 C 0.18078 0.77126 0.5302 0.0
C1185 C 0.15805 0.75926 0.51441 0.0
H1186 H 0.22246 0.76588 0.54746 0.0
H1187 H 0.17857 0.79162 0.54075 0.0
S1188 S 0.15598 0.68899 0.47863 0.0
N1189 N 0.18785 0.69127 0.4935 0.0
N1190 N 0.14029 0.71901 0.48651 0.0
C1191 C 0.16121 0.73246 0.50183 0.0
C1192 C 0.18685 0.71742 0.50576 0.0
C1193 C 0.36556 0.3114 0.01772 0.0
C1194 C 0.34201 0.30147 0.03263 0.0
C1195 C 0.38916 0.29431 0.01365 0.0
C1196 C 0.38994 0.26692 0.02457 0.0
H1197 H 0.36609 0.33283 0.00997 0.0
H1198 H 0.40749 0.30309 0.00327 0.0
S1199 S 0.33441 0.23147 0.06604 0.0
N1200 N 0.3212 0.26268 0.05867 0.0
N1201 N 0.36561 0.23063 0.05093 0.0
C1202 C 0.36631 0.2565 0.03885 0.0
C1203 C 0.34227 0.27378 0.0429 0.0
C1204 C 0.45556 0.63189 0.78739 0.0
C1205 C 0.43653 0.65378 0.78212 0.0
C1206 C 0.4647 0.61425 0.7653 0.0
C1207 C 0.45481 0.61786 0.73744 0.0
H1208 H 0.46272 0.62787 0.8088 0.0
H1209 H 0.4782 0.59667 0.77028 0.0
S1210 S 0.40421 0.67139 0.71282 0.0
N1211 N 0.40801 0.67793 0.74712 0.0
N1212 N 0.42511 0.64466 0.70573 0.0
C1213 C 0.43641 0.6401 0.73184 0.0
C1214 C 0.42723 0.6581 0.7542 0.0
C1215 C 0.02375 0.80602 0.23336 0.0
C1216 C 0.00455 0.78356 0.22772 0.0
C1217 C 0.01695 0.82822 0.25186 0.0
C1218 C 0.99081 0.82854 0.26565 0.0
H1219 H 0.04405 0.80663 0.22308 0.0
H1220 H 0.03216 0.84542 0.25507 0.0
S1221 S 0.9342 0.77322 0.25939 0.0
N1222 N 0.95887 0.76227 0.23768 0.0
N1223 N 0.94633 0.80334 0.27349 0.0
C1224 C 0.97163 0.80581 0.26048 0.0
C1225 C 0.97843 0.78348 0.24124 0.0
C1226 C 0.54093 0.19068 0.74877 0.0
C1227 C 0.52919 0.19904 0.7228 0.0
C1228 C 0.53931 0.16237 0.75704 0.0
C1229 C 0.52552 0.14172 0.73977 0.0
H1230 H 0.55305 0.20567 0.76186 0.0
H1231 H 0.55002 0.15633 0.7764 0.0
S1232 S 0.48929 0.15336 0.67102 0.0
N1233 N 0.50191 0.18493 0.68073 0.0
N1234 N 0.49842 0.13177 0.69657 0.0
C1235 C 0.51225 0.15015 0.71462 0.0
C1236 C 0.51427 0.17883 0.706 0.0
C1237 C 0.04148 0.34896 0.28683 0.0
C1238 C 0.05647 0.32988 0.26997 0.0
C1239 C 0.02558 0.37039 0.27454 0.0
C1240 C 0.02427 0.37347 0.24502 0.0
H1241 H 0.04203 0.34726 0.30965 0.0
H1242 H 0.01452 0.38494 0.28822 0.0
S1243 S 0.06236 0.3309 0.192 0.0
N1244 N 0.07053 0.31637 0.22255 0.0
N1245 N 0.04068 0.35691 0.19943 0.0
C1246 C 0.03933 0.35466 0.22796 0.0
C1247 C 0.05549 0.33279 0.24047 0.0
C1248 C 0.30011 0.53257 0.24478 0.0
C1249 C 0.29968 0.52618 0.27374 0.0
C1250 C 0.32553 0.53866 0.23117 0.0
C1251 C 0.35162 0.53868 0.24594 0.0
H1252 H 0.2806 0.53324 0.23249 0.0
H1253 H 0.32473 0.54366 0.20891 0.0
S1254 S 0.36235 0.52349 0.32205 0.0
N1255 N 0.32787 0.51993 0.31669 0.0
N1256 N 0.37553 0.53188 0.29116 0.0
C1257 C 0.35163 0.53184 0.27477 0.0
C1258 C 0.32572 0.52549 0.28864 0.0
C1259 C 0.1581 0.48721 0.7375 0.0
C1260 C 0.18423 0.4879 0.72366 0.0
C1261 C 0.13288 0.48022 0.72288 0.0
C1262 C 0.13269 0.47353 0.69382 0.0
H1263 H 0.15698 0.49205 0.75991 0.0
H1264 H 0.11337 0.47968 0.73456 0.0
S1265 S 0.19496 0.47305 0.64724 0.0
N1266 N 0.20815 0.48171 0.67884 0.0
N1267 N 0.16057 0.46873 0.65141 0.0
C1268 C 0.15853 0.47422 0.67959 0.0
C1269 C 0.18432 0.4814 0.69447 0.0
C1270 C 0.84096 0.02011 0.75755 0.0
C1271 C 0.82661 0.99771 0.7431 0.0
C1272 C 0.86883 0.01726 0.7676 0.0
C1273 C 0.88352 0.99194 0.76348 0.0
H1274 H 0.83062 0.04009 0.76114 0.0
H1275 H 0.87892 0.035 0.7788 0.0
S1276 S 0.8562 0.92742 0.72556 0.0
N1277 N 0.82956 0.9495 0.72461 0.0
N1278 N 0.88206 0.94443 0.7429 0.0
C1279 C 0.86949 0.96941 0.74895 0.0
C1280 C 0.84104 0.97222 0.73892 0.0
C1281 C 0.679 0.01765 0.26235 0.0
C1282 C 0.70472 0.01542 0.27757 0.0
C1283 C 0.65357 0.02269 0.2761 0.0
C1284 C 0.65273 0.02575 0.30566 0.0
H1285 H 0.67839 0.01569 0.2395 0.0
H1286 H 0.63443 0.02464 0.2634 0.0
S1287 S 0.71361 0.02033 0.3557 0.0
N1288 N 0.72749 0.01587 0.32417 0.0
N1289 N 0.67948 0.02508 0.34997 0.0
C1290 C 0.67813 0.02329 0.32128 0.0
C1291 C 0.70414 0.01816 0.30726 0.0
C1292 C 0.2099 0.32125 0.44787 0.0
C1293 C 0.22069 0.30308 0.46858 0.0
C1294 C 0.19547 0.34584 0.45538 0.0
C1295 C 0.19109 0.35316 0.48388 0.0
H1296 H 0.21327 0.31696 0.42563 0.0
H1297 H 0.18805 0.35947 0.43874 0.0
S1298 S 0.21352 0.31217 0.54632 0.0
N1299 N 0.22454 0.29353 0.51895 0.0
N1300 N 0.19777 0.33991 0.53292 0.0
C1301 C 0.20075 0.3347 0.50479 0.0
C1302 C 0.21545 0.30964 0.49718 0.0
C1303 C 0.30543 0.72037 0.94361 0.0
C1304 C 0.27622 0.71615 0.94787 0.0
C1305 C 0.32521 0.70035 0.95241 0.0
C1306 C 0.3164 0.67529 0.96541 0.0
H1307 H 0.31311 0.73926 0.9334 0.0
H1308 H 0.34746 0.70424 0.94861 0.0
S1309 S 0.24287 0.65423 0.98243 0.0
N1310 N 0.23982 0.68499 0.96679 0.0
N1311 N 0.27701 0.64761 0.98307 0.0
C1312 C 0.28744 0.6709 0.97008 0.0
C1313 C 0.26735 0.69127 0.96138 0.0
C1314 C 0.75063 0.16563 0.45465 0.0
C1315 C 0.78013 0.16276 0.45793 0.0
C1316 C 0.7329 0.14214 0.44839 0.0
C1317 C 0.74399 0.11488 0.44544 0.0
H1318 H 0.74104 0.18613 0.45724 0.0
H1319 H 0.7103 0.1452 0.44657 0.0
S1320 S 0.81962 0.09584 0.44993 0.0
N1321 N 0.81958 0.13028 0.45625 0.0
N1322 N 0.78617 0.08639 0.4446 0.0
C1323 C 0.77339 0.11174 0.44795 0.0
C1324 C 0.79147 0.13559 0.45414 0.0
C1325 C 0.74562 0.79896 0.98307 0.0
C1326 C 0.74721 0.78795 0.01051 0.0
C1327 C 0.75744 0.82551 0.977 0.0
C1328 C 0.77146 0.84212 0.99806 0.0
H1329 H 0.73453 0.78735 0.96621 0.0
H1330 H 0.75495 0.83338 0.95575 0.0
S1331 S 0.78407 0.82191 0.07261 0.0
N1332 N 0.76555 0.7951 0.05858 0.0
N1333 N 0.78814 0.84477 0.04694 0.0
C1334 C 0.77402 0.83103 0.02537 0.0
C1335 C 0.76186 0.80402 0.03162 0.0
C1336 C 0.5316 0.26054 0.33175 0.0
C1337 C 0.5219 0.25005 0.30521 0.0
C1338 C 0.53618 0.24247 0.3544 0.0
C1339 C 0.5316 0.21314 0.35135 0.0
H1340 H 0.53499 0.28303 0.33541 0.0
H1341 H 0.54307 0.25155 0.3746 0.0
S1342 S 0.50789 0.1745 0.28612 0.0
N1343 N 0.50903 0.20805 0.27696 0.0
N1344 N 0.51792 0.17408 0.31974 0.0
C1345 C 0.52289 0.20212 0.3248 0.0
C1346 C 0.51793 0.22058 0.30169 0.0
C1347 C 0.03383 0.23579 0.6703 0.0
C1348 C 0.02593 0.24975 0.69543 0.0
C1349 C 0.04182 0.25097 0.64642 0.0
C1350 C 0.04244 0.28071 0.6468 0.0
H1351 H 0.03418 0.21291 0.66906 0.0
H1352 H 0.0482 0.23934 0.62773 0.0
S1353 S 0.02202 0.32766 0.70632 0.0
N1354 N 0.01802 0.29536 0.71854 0.0
N1355 N 0.03309 0.32366 0.67362 0.0
C1356 C 0.03403 0.29499 0.67144 0.0
C1357 C 0.02572 0.27959 0.69574 0.0
C1358 C 0.52485 0.69295 0.19196 0.0
C1359 C 0.50639 0.70704 0.21028 0.0
C1360 C 0.5147 0.67319 0.17164 0.0
C1361 C 0.48566 0.6666 0.16884 0.0
H1362 H 0.54738 0.69749 0.19292 0.0
H1363 H 0.52972 0.66312 0.15785 0.0
S1364 S 0.42829 0.69697 0.21172 0.0
N1365 N 0.45749 0.71235 0.22459 0.0
N1366 N 0.4385 0.67549 0.18615 0.0
C1367 C 0.46697 0.68001 0.18735 0.0
C1368 C 0.47728 0.70015 0.20809 0.0
C1369 C 0.95846 0.76675 0.78517 0.0
C1370 C 0.96634 0.73822 0.78274 0.0
C1371 C 0.95587 0.7801 0.8117 0.0
C1372 C 0.96118 0.76549 0.83684 0.0
H1373 H 0.95428 0.77896 0.76644 0.0
H1374 H 0.94995 0.80212 0.81255 0.0
S1375 S 0.98097 0.69022 0.84251 0.0
N1376 N 0.97863 0.69561 0.80818 0.0
N1377 N 0.97347 0.72073 0.85783 0.0
C1378 C 0.96881 0.73695 0.83481 0.0
C1379 C 0.97145 0.72332 0.80785 0.0
C1380 C 0.63822 0.55246 0.66746 0.0
C1381 C 0.64117 0.52969 0.68604 0.0
C1382 C 0.61148 0.56159 0.65865 0.0
C1383 C 0.58656 0.5484 0.66807 0.0
H1384 H 0.65672 0.56308 0.65921 0.0
H1385 H 0.61031 0.57894 0.64403 0.0
S1386 S 0.58231 0.48815 0.71714 0.0
N1387 N 0.61653 0.49459 0.71411 0.0
N1388 N 0.56642 0.51153 0.69712 0.0
C1389 C 0.5891 0.52605 0.68713 0.0
C1390 C 0.61633 0.51675 0.69619 0.0
C1391 C 0.85084 0.48317 0.20439 0.0
C1392 C 0.82378 0.47146 0.19866 0.0
C1393 C 0.87522 0.4701 0.19455 0.0
C1394 C 0.87371 0.44438 0.17902 0.0
H1395 H 0.8533 0.50264 0.21668 0.0
H1396 H 0.89548 0.48023 0.19944 0.0
S1397 S 0.80756 0.40562 0.15721 0.0
N1398 N 0.79661 0.43361 0.17493 0.0
N1399 N 0.84242 0.40816 0.15777 0.0
C1400 C 0.84662 0.43285 0.17245 0.0
C1401 C 0.82171 0.44656 0.18199 0.0
C1402 C 0.14677 0.93293 0.3357 0.0
C1403 C 0.1475 0.95103 0.31235 0.0
C1404 C 0.12101 0.92311 0.34651 0.0
C1405 C 0.09502 0.93071 0.33418 0.0
H1406 H 0.16621 0.92662 0.34606 0.0
H1407 H 0.12143 0.9094 0.36463 0.0
S1408 S 0.08501 0.97737 0.27272 0.0
N1409 N 0.11966 0.97593 0.27716 0.0
N1410 N 0.07145 0.95747 0.29758 0.0
C1411 C 0.0954 0.94851 0.3107 0.0
C1412 C 0.12156 0.95867 0.29979 0.0
C1413 C 0.35838 0.02947 0.72365 0.0
C1414 C 0.34804 0.05655 0.73004 0.0
C1415 C 0.38656 0.02259 0.72977 0.0
C1416 C 0.40554 0.0426 0.74221 0.0
H1417 H 0.34437 0.01304 0.71497 0.0
H1418 H 0.39339 0.00124 0.72531 0.0
S1419 S 0.38974 0.11708 0.76118 0.0
N1420 N 0.35967 0.10404 0.74785 0.0
N1421 N 0.41238 0.09096 0.75959 0.0
C1422 C 0.39585 0.0701 0.7475 0.0
C1423 C 0.36718 0.0771 0.74136 0.0
C1424 C 0.73362 0.63643 0.48395 0.0
C1425 C 0.73056 0.64727 0.51162 0.0
C1426 C 0.72895 0.60763 0.4776 0.0
C1427 C 0.72128 0.58848 0.49869 0.0
H1428 H 0.73858 0.65042 0.46677 0.0
H1429 H 0.73082 0.60039 0.45587 0.0
S1430 S 0.71282 0.60544 0.57491 0.0
N1431 N 0.7213 0.63602 0.5607 0.0
N1432 N 0.71225 0.58203 0.5486 0.0
C1433 C 0.71945 0.59872 0.52666 0.0
C1434 C 0.72414 0.62807 0.53315 0.0
C1435 C 0.75999 0.35215 0.068 0.0
C1436 C 0.76985 0.33651 0.04467 0.0
C1437 C 0.77303 0.37787 0.07663 0.0
C1438 C 0.7966 0.3888 0.06244 0.0
H1439 H 0.74187 0.34465 0.07959 0.0
H1440 H 0.76475 0.38916 0.09472 0.0
S1441 S 0.83139 0.35581 0.0007 0.0
N1442 N 0.80522 0.33371 0.00796 0.0
N1443 N 0.82943 0.38201 0.02407 0.0
C1444 C 0.80682 0.37333 0.03923 0.0
C1445 C 0.79354 0.34721 0.03039 0.0
C1446 C 0.21197 0.87072 0.53321 0.0
C1447 C 0.2242 0.85426 0.51169 0.0
C1448 C 0.19853 0.89613 0.5272 0.0
C1449 C 0.19692 0.90625 0.49948 0.0
H1450 H 0.21263 0.86393 0.55496 0.0
H1451 H 0.18963 0.90816 0.5445 0.0
S1452 S 0.22462 0.87113 0.43526 0.0
N1453 N 0.23324 0.84988 0.46126 0.0
N1454 N 0.20792 0.89774 0.45015 0.0
C1455 C 0.2089 0.89009 0.47771 0.0
C1456 C 0.22251 0.86408 0.48376 0.0
C1457 C 0.28891 0.17082 0.98678 0.0
C1458 C 0.28291 0.18044 0.01436 0.0
C1459 C 0.29646 0.1427 0.98141 0.0
C1460 C 0.29869 0.12332 0.00347 0.0
H1461 H 0.28813 0.1852 0.96922 0.0
H1462 H 0.30144 0.13631 0.95999 0.0
S1463 S 0.28397 0.13707 0.07911 0.0
N1464 N 0.27864 0.16769 0.06381 0.0
N1465 N 0.2931 0.11501 0.05357 0.0
C1466 C 0.29213 0.13236 0.03097 0.0
C1467 C 0.28413 0.16086 0.03644 0.0
C1468 C 0.47293 0.69503 0.672 0.0
C1469 C 0.46148 0.72148 0.67909 0.0
C1470 C 0.47666 0.68675 0.64375 0.0
C1471 C 0.46943 0.70472 0.62149 0.0
H1472 H 0.4783 0.68015 0.68832 0.0
H1473 H 0.48501 0.66598 0.63928 0.0
S1474 S 0.43988 0.77658 0.62845 0.0
N1475 N 0.44386 0.766 0.66135 0.0
N1476 N 0.45097 0.75034 0.60825 0.0
C1477 C 0.45876 0.73151 0.6282 0.0
C1478 C 0.45473 0.7399 0.65698 0.0
C1479 C 0.03506 0.80652 0.35225 0.0
C1480 C 0.05707 0.79333 0.33762 0.0
C1481 C 0.03913 0.81709 0.37989 0.0
C1482 C 0.06528 0.81469 0.3942 0.0
H1483 H 0.01444 0.8088 0.34229 0.0
H1484 H 0.02148 0.82691 0.39029 0.0
S1485 S 0.13014 0.78311 0.36524 0.0
N1486 N 0.10634 0.7792 0.33943 0.0
N1487 N 0.11384 0.79912 0.39147 0.0
C1488 C 0.08757 0.80184 0.37983 0.0
C1489 C 0.08353 0.79123 0.35153 0.0
C1490 C 0.52152 0.19671 0.8743 0.0
C1491 C 0.5047 0.21352 0.85664 0.0
C1492 C 0.51235 0.1886 0.90099 0.0
C1493 C 0.48599 0.19698 0.91123 0.0
H1494 H 0.54202 0.18963 0.86751 0.0
H1495 H 0.52615 0.17579 0.91383 0.0
S1496 S 0.43345 0.24048 0.87343 0.0
N1497 N 0.46007 0.23807 0.85143 0.0
N1498 N 0.44287 0.22255 0.90162 0.0
C1499 C 0.46892 0.21381 0.89396 0.0
C1500 C 0.47823 0.2221 0.86667 0.0
C1501 C 0.94761 0.30022 0.18694 0.0
C1502 C 0.97533 0.298 0.17684 0.0
C1503 C 0.92553 0.30963 0.16952 0.0
C1504 C 0.93036 0.31734 0.14141 0.0
H1505 H 0.94275 0.29401 0.20827 0.0
H1506 H 0.90436 0.31008 0.1779 0.0
S1507 S 0.99965 0.31919 0.10593 0.0
N1508 N 0.00677 0.30674 0.13762 0.0
N1509 N 0.9653 0.32481 0.10513 0.0
C1510 C 0.95815 0.31642 0.13143 0.0
C1511 C 0.98061 0.30667 0.14908 0.0
loop_
_geom_bond_atom_site_label_1
_geom_bond_atom_site_label_2
_geom_bond_distance
_geom_bond_site_symmetry_2
_ccdc_geom_bond_type
O0 Cd1 2.300 . S
O0 C7 1.275 . S
Cd1 O0 2.300 . S
Cd1 O9 2.381 . S
Cd1 O10 2.378 . S
O2 Cd3 2.385 . S
O2 C7 1.255 . S
Cd3 O2 2.385 . S
Cd3 O4 2.317 . S
O4 Cd3 2.317 . S
O4 C5 1.232 . S
C5 O4 1.232 . S
C5 O6 1.218 . S
O6 C5 1.218 . S
C7 O0 1.275 . S
C7 O2 1.255 . S
C8 O9 1.258 . S
C8 O10 1.256 . S
O9 Cd1 2.381 . S
O9 C8 1.258 . S
O10 Cd1 2.378 . S
O10 C8 1.256 . S
O11 Cd12 2.300 . S
O11 C18 1.275 . S
Cd12 O11 2.300 . S
Cd12 O20 2.381 . S
Cd12 O21 2.378 . S
O13 Cd14 2.385 . S
O13 C18 1.255 . S
Cd14 O13 2.385 . S
Cd14 O15 2.317 . S
O15 Cd14 2.317 . S
O15 C16 1.232 . S
C16 O15 1.232 . S
C16 O17 1.218 . S
O17 C16 1.218 . S
C18 O11 1.275 . S
C18 O13 1.255 . S
C19 O20 1.258 . S
C19 O21 1.256 . S
O20 Cd12 2.381 . S
O20 C19 1.258 . S
O21 Cd12 2.378 . S
O21 C19 1.256 . S
O22 Cd23 2.300 1_545 S
O22 C29 1.275 . S
Cd23 O22 2.300 1_565 S
Cd23 O31 2.381 1_565 S
Cd23 O32 2.378 . S
O24 Cd25 2.385 . S
O24 C29 1.255 1_565 S
Cd25 O24 2.385 . S
Cd25 O26 2.317 . S
O26 Cd25 2.317 . S
O26 C27 1.232 . S
C27 O26 1.232 . S
C27 O28 1.218 . S
O28 C27 1.218 . S
C29 O22 1.275 . S
C29 O24 1.255 1_545 S
C30 O31 1.258 1_565 S
C30 O32 1.256 . S
O31 Cd23 2.381 1_545 S
O31 C30 1.258 1_545 S
O32 Cd23 2.378 . S
O32 C30 1.256 . S
O33 Cd34 2.300 1_565 S
O33 C40 1.275 . S
Cd34 O33 2.300 1_545 S
Cd34 O42 2.381 1_545 S
Cd34 O43 2.378 . S
O35 Cd36 2.385 . S
O35 C40 1.255 1_545 S
Cd36 O35 2.385 . S
Cd36 O37 2.317 . S
O37 Cd36 2.317 . S
O37 C38 1.232 . S
C38 O37 1.232 . S
C38 O39 1.218 . S
O39 C38 1.218 . S
C40 O33 1.275 . S
C40 O35 1.255 1_565 S
C41 O42 1.258 1_545 S
C41 O43 1.256 . S
O42 Cd34 2.381 1_565 S
O42 C41 1.258 1_565 S
O43 Cd34 2.378 . S
O43 C41 1.256 . S
O44 Cd45 2.300 . S
O44 C51 1.275 . S
Cd45 O44 2.300 . S
Cd45 O53 2.381 . S
Cd45 O54 2.378 . S
O46 Cd47 2.385 . S
O46 C51 1.255 . S
Cd47 O46 2.385 . S
Cd47 O48 2.317 . S
O48 Cd47 2.317 . S
O48 C49 1.232 . S
C49 O48 1.232 . S
C49 O50 1.218 . S
O50 C49 1.218 . S
C51 O44 1.275 . S
C51 O46 1.255 . S
C52 O53 1.258 . S
C52 O54 1.256 . S
O53 Cd45 2.381 . S
O53 C52 1.258 . S
O54 Cd45 2.378 . S
O54 C52 1.256 . S
O55 Cd56 2.300 1_556 S
O55 C62 1.275 . S
Cd56 O55 2.300 1_554 S
Cd56 O64 2.381 1_554 S
Cd56 O65 2.378 . S
O57 Cd58 2.385 . S
O57 C62 1.255 1_554 S
Cd58 O57 2.385 . S
Cd58 O59 2.317 . S
O59 Cd58 2.317 . S
O59 C60 1.232 . S
C60 O59 1.232 . S
C60 O61 1.218 . S
O61 C60 1.218 . S
C62 O55 1.275 . S
C62 O57 1.255 1_556 S
C63 O64 1.258 1_554 S
C63 O65 1.256 . S
O64 Cd56 2.381 1_556 S
O64 C63 1.258 1_556 S
O65 Cd56 2.378 . S
O65 C63 1.256 . S
O66 Cd67 2.300 . S
O66 C73 1.275 . S
Cd67 O66 2.300 . S
Cd67 O75 2.381 . S
Cd67 O76 2.378 . S
O68 Cd69 2.385 . S
O68 C73 1.255 . S
Cd69 O68 2.385 . S
Cd69 O70 2.317 . S
O70 Cd69 2.317 . S
O70 C71 1.232 . S
C71 O70 1.232 . S
C71 O72 1.218 . S
O72 C71 1.218 . S
C73 O66 1.275 . S
C73 O68 1.255 . S
C74 O75 1.258 . S
C74 O76 1.256 . S
O75 Cd67 2.381 . S
O75 C74 1.258 . S
O76 Cd67 2.378 . S
O76 C74 1.256 . S
O77 Cd78 2.300 1_554 S
O77 C84 1.275 . S
Cd78 O77 2.300 1_556 S
Cd78 O86 2.381 1_556 S
Cd78 O87 2.378 . S
O79 Cd80 2.385 . S
O79 C84 1.255 1_556 S
Cd80 O79 2.385 . S
Cd80 O81 2.317 . S
O81 Cd80 2.317 . S
O81 C82 1.232 . S
C82 O81 1.232 . S
C82 O83 1.218 . S
O83 C82 1.218 . S
C84 O77 1.275 . S
C84 O79 1.255 1_554 S
C85 O86 1.258 1_556 S
C85 O87 1.256 . S
O86 Cd78 2.381 1_554 S
O86 C85 1.258 1_554 S
O87 Cd78 2.378 . S
O87 C85 1.256 . S
O88 Cd89 2.300 . S
O88 C95 1.275 . S
Cd89 O88 2.300 . S
Cd89 O97 2.381 . S
Cd89 O98 2.378 . S
O90 Cd91 2.385 . S
O90 C95 1.255 . S
Cd91 O90 2.385 . S
Cd91 O92 2.317 . S
O92 Cd91 2.317 . S
O92 C93 1.232 . S
C93 O92 1.232 . S
C93 O94 1.218 . S
O94 C93 1.218 . S
C95 O88 1.275 . S
C95 O90 1.255 . S
C96 O97 1.258 . S
C96 O98 1.256 . S
O97 Cd89 2.381 . S
O97 C96 1.258 . S
O98 Cd89 2.378 . S
O98 C96 1.256 . S
O99 Cd100 2.300 1_655 S
O99 C106 1.275 . S
Cd100 O99 2.300 1_455 S
Cd100 O108 2.381 1_455 S
Cd100 O109 2.378 . S
O101 Cd102 2.385 . S
O101 C106 1.255 1_455 S
Cd102 O101 2.385 . S
Cd102 O103 2.317 . S
O103 Cd102 2.317 . S
O103 C104 1.232 . S
C104 O103 1.232 . S
C104 O105 1.218 . S
O105 C104 1.218 . S
C106 O99 1.275 . S
C106 O101 1.255 1_655 S
C107 O108 1.258 1_455 S
C107 O109 1.256 . S
O108 Cd100 2.381 1_655 S
O108 C107 1.258 1_655 S
O109 Cd100 2.378 . S
O109 C107 1.256 . S
O110 Cd111 2.300 . S
O110 C117 1.275 . S
Cd111 O110 2.300 . S
Cd111 O119 2.381 . S
Cd111 O120 2.378 . S
O112 Cd113 2.385 . S
O112 C117 1.255 . S
Cd113 O112 2.385 . S
Cd113 O114 2.317 . S
O114 Cd113 2.317 . S
O114 C115 1.232 . S
C115 O114 1.232 . S
C115 O116 1.218 . S
O116 C115 1.218 . S
C117 O110 1.275 . S
C117 O112 1.255 . S
C118 O119 1.258 . S
C118 O120 1.256 . S
O119 Cd111 2.381 . S
O119 C118 1.258 . S
O120 Cd111 2.378 . S
O120 C118 1.256 . S
O121 Cd122 2.300 1_455 S
O121 C128 1.275 . S
Cd122 O121 2.300 1_655 S
Cd122 O130 2.381 1_655 S
Cd122 O131 2.378 . S
O123 Cd124 2.385 . S
O123 C128 1.255 1_655 S
Cd124 O123 2.385 . S
Cd124 O125 2.317 . S
O125 Cd124 2.317 . S
O125 C126 1.232 . S
C126 O125 1.232 . S
C126 O127 1.218 . S
O127 C126 1.218 . S
C128 O121 1.275 . S
C128 O123 1.255 1_455 S
C129 O130 1.258 1_655 S
C129 O131 1.256 . S
O130 Cd122 2.381 1_455 S
O130 C129 1.258 1_455 S
O131 Cd122 2.378 . S
O131 C129 1.256 . S
O132 Cd133 2.300 . S
O132 C139 1.275 . S
Cd133 O132 2.300 . S
Cd133 O141 2.381 . S
Cd133 O142 2.378 . S
O134 Cd135 2.385 . S
O134 C139 1.255 . S
Cd135 O134 2.385 . S
Cd135 O136 2.317 . S
O136 Cd135 2.317 . S
O136 C137 1.232 . S
C137 O136 1.232 . S
C137 O138 1.218 . S
O138 C137 1.218 . S
C139 O132 1.275 . S
C139 O134 1.255 . S
C140 O141 1.258 . S
C140 O142 1.256 . S
O141 Cd133 2.381 . S
O141 C140 1.258 . S
O142 Cd133 2.378 . S
O142 C140 1.256 . S
O143 Cd144 2.300 . S
O143 C150 1.275 . S
Cd144 O143 2.300 . S
Cd144 O152 2.381 . S
Cd144 O153 2.378 . S
O145 Cd146 2.385 . S
O145 C150 1.255 . S
Cd146 O145 2.385 . S
Cd146 O147 2.317 . S
O147 Cd146 2.317 . S
O147 C148 1.232 . S
C148 O147 1.232 . S
C148 O149 1.218 . S
O149 C148 1.218 . S
C150 O143 1.275 . S
C150 O145 1.255 . S
C151 O152 1.258 . S
C151 O153 1.256 . S
O152 Cd144 2.381 . S
O152 C151 1.258 . S
O153 Cd144 2.378 . S
O153 C151 1.256 . S
O154 Cd155 2.300 . S
O154 C161 1.275 . S
Cd155 O154 2.300 . S
Cd155 O163 2.381 1_565 S
Cd155 O164 2.378 . S
O156 Cd157 2.385 . S
O156 C161 1.255 . S
Cd157 O156 2.385 . S
Cd157 O158 2.317 . S
O158 Cd157 2.317 . S
O158 C159 1.232 . S
C159 O158 1.232 . S
C159 O160 1.218 . S
O160 C159 1.218 . S
C161 O154 1.275 . S
C161 O156 1.255 . S
C162 O163 1.258 . S
C162 O164 1.256 1_545 S
O163 Cd155 2.381 1_545 S
O163 C162 1.258 . S
O164 Cd155 2.378 . S
O164 C162 1.256 1_565 S
O165 Cd166 2.300 . S
O165 C172 1.275 . S
Cd166 O165 2.300 . S
Cd166 O174 2.381 1_545 S
Cd166 O175 2.378 . S
O167 Cd168 2.385 . S
O167 C172 1.255 . S
Cd168 O167 2.385 . S
Cd168 O169 2.317 . S
O169 Cd168 2.317 . S
O169 C170 1.232 . S
C170 O169 1.232 . S
C170 O171 1.218 . S
O171 C170 1.218 . S
C172 O165 1.275 . S
C172 O167 1.255 . S
C173 O174 1.258 . S
C173 O175 1.256 1_565 S
O174 Cd166 2.381 1_565 S
O174 C173 1.258 . S
O175 Cd166 2.378 . S
O175 C173 1.256 1_545 S
O176 Cd177 2.300 . S
O176 C183 1.275 . S
Cd177 O176 2.300 . S
Cd177 O185 2.381 . S
Cd177 O186 2.378 . S
O178 Cd179 2.385 . S
O178 C183 1.255 . S
Cd179 O178 2.385 . S
Cd179 O180 2.317 . S
O180 Cd179 2.317 . S
O180 C181 1.232 . S
C181 O180 1.232 . S
C181 O182 1.218 . S
O182 C181 1.218 . S
C183 O176 1.275 . S
C183 O178 1.255 . S
C184 O185 1.258 . S
C184 O186 1.256 . S
O185 Cd177 2.381 . S
O185 C184 1.258 . S
O186 Cd177 2.378 . S
O186 C184 1.256 . S
O187 Cd188 2.300 . S
O187 C194 1.275 . S
Cd188 O187 2.300 . S
Cd188 O196 2.381 1_554 S
Cd188 O197 2.378 . S
O189 Cd190 2.385 . S
O189 C194 1.255 . S
Cd190 O189 2.385 . S
Cd190 O191 2.317 . S
O191 Cd190 2.317 . S
O191 C192 1.232 . S
C192 O191 1.232 . S
C192 O193 1.218 . S
O193 C192 1.218 . S
C194 O187 1.275 . S
C194 O189 1.255 . S
C195 O196 1.258 . S
C195 O197 1.256 1_556 S
O196 Cd188 2.381 1_556 S
O196 C195 1.258 . S
O197 Cd188 2.378 . S
O197 C195 1.256 1_554 S
O198 Cd199 2.300 . S
O198 C205 1.275 . S
Cd199 O198 2.300 . S
Cd199 O207 2.381 . S
Cd199 O208 2.378 . S
O200 Cd201 2.385 . S
O200 C205 1.255 . S
Cd201 O200 2.385 . S
Cd201 O202 2.317 . S
O202 Cd201 2.317 . S
O202 C203 1.232 . S
C203 O202 1.232 . S
C203 O204 1.218 . S
O204 C203 1.218 . S
C205 O198 1.275 . S
C205 O200 1.255 . S
C206 O207 1.258 . S
C206 O208 1.256 . S
O207 Cd199 2.381 . S
O207 C206 1.258 . S
O208 Cd199 2.378 . S
O208 C206 1.256 . S
O209 Cd210 2.300 . S
O209 C216 1.275 . S
Cd210 O209 2.300 . S
Cd210 O218 2.381 1_556 S
Cd210 O219 2.378 . S
O211 Cd212 2.385 . S
O211 C216 1.255 . S
Cd212 O211 2.385 . S
Cd212 O213 2.317 . S
O213 Cd212 2.317 . S
O213 C214 1.232 . S
C214 O213 1.232 . S
C214 O215 1.218 . S
O215 C214 1.218 . S
C216 O209 1.275 . S
C216 O211 1.255 . S
C217 O218 1.258 . S
C217 O219 1.256 1_554 S
O218 Cd210 2.381 1_554 S
O218 C217 1.258 . S
O219 Cd210 2.378 . S
O219 C217 1.256 1_556 S
O220 Cd221 2.300 . S
O220 C227 1.275 . S
Cd221 O220 2.300 . S
Cd221 O229 2.381 . S
Cd221 O230 2.378 . S
O222 Cd223 2.385 . S
O222 C227 1.255 . S
Cd223 O222 2.385 . S
Cd223 O224 2.317 . S
O224 Cd223 2.317 . S
O224 C225 1.232 . S
C225 O224 1.232 . S
C225 O226 1.218 . S
O226 C225 1.218 . S
C227 O220 1.275 . S
C227 O222 1.255 . S
C228 O229 1.258 . S
C228 O230 1.256 . S
O229 Cd221 2.381 . S
O229 C228 1.258 . S
O230 Cd221 2.378 . S
O230 C228 1.256 . S
O231 Cd232 2.300 . S
O231 C238 1.275 . S
Cd232 O231 2.300 . S
Cd232 O240 2.381 1_455 S
Cd232 O241 2.378 . S
O233 Cd234 2.385 . S
O233 C238 1.255 . S
Cd234 O233 2.385 . S
Cd234 O235 2.317 . S
O235 Cd234 2.317 . S
O235 C236 1.232 . S
C236 O235 1.232 . S
C236 O237 1.218 . S
O237 C236 1.218 . S
C238 O231 1.275 . S
C238 O233 1.255 . S
C239 O240 1.258 . S
C239 O241 1.256 1_655 S
O240 Cd232 2.381 1_655 S
O240 C239 1.258 . S
O241 Cd232 2.378 . S
O241 C239 1.256 1_455 S
O242 Cd243 2.300 . S
O242 C249 1.275 . S
Cd243 O242 2.300 . S
Cd243 O251 2.381 . S
Cd243 O252 2.378 . S
O244 Cd245 2.385 . S
O244 C249 1.255 . S
Cd245 O244 2.385 . S
Cd245 O246 2.317 . S
O246 Cd245 2.317 . S
O246 C247 1.232 . S
C247 O246 1.232 . S
C247 O248 1.218 . S
O248 C247 1.218 . S
C249 O242 1.275 . S
C249 O244 1.255 . S
C250 O251 1.258 . S
C250 O252 1.256 . S
O251 Cd243 2.381 . S
O251 C250 1.258 . S
O252 Cd243 2.378 . S
O252 C250 1.256 . S
O253 Cd254 2.300 . S
O253 C260 1.275 . S
Cd254 O253 2.300 . S
Cd254 O262 2.381 1_655 S
Cd254 O263 2.378 . S
O255 Cd256 2.385 . S
O255 C260 1.255 . S
Cd256 O255 2.385 . S
Cd256 O257 2.317 . S
O257 Cd256 2.317 . S
O257 C258 1.232 . S
C258 O257 1.232 . S
C258 O259 1.218 . S
O259 C258 1.218 . S
C260 O253 1.275 . S
C260 O255 1.255 . S
C261 O262 1.258 . S
C261 O263 1.256 1_455 S
O262 Cd254 2.381 1_455 S
O262 C261 1.258 . S
O263 Cd254 2.378 . S
O263 C261 1.256 1_655 S
H264 C265 0.949 . S
C265 H264 0.949 . S
C265 C266 1.395 . S
C265 C267 1.391 . S
C266 C265 1.395 . S
C266 C269 1.390 . S
C267 C265 1.391 . S
C267 C271 1.387 . S
C267 C272 1.491 . S
H268 C269 0.950 . S
C269 C266 1.390 . S
C269 H268 0.950 . S
C269 C270 1.378 . S
C270 C269 1.378 . S
C270 C271 1.409 . S
C271 C267 1.387 . S
C271 C270 1.409 . S
C271 H273 0.951 . S
C272 C267 1.491 . S
C272 C274 1.382 . S
C272 C276 1.404 . S
H273 C271 0.951 . S
C274 C272 1.382 . S
C274 C275 1.390 . S
C274 H279 0.949 . S
C275 C274 1.390 . S
C275 C280 1.399 . S
C276 C272 1.404 . S
C276 H277 0.950 . S
C276 C278 1.375 . S
H277 C276 0.950 . S
C278 C276 1.375 . S
C278 C280 1.382 . S
C278 H282 0.950 . S
H279 C274 0.949 . S
C280 C275 1.399 . S
C280 C278 1.382 . S
C280 H281 0.952 . S
H281 C280 0.952 . S
H282 C278 0.950 . S
H283 C284 0.949 . S
C284 H283 0.949 . S
C284 C285 1.395 . S
C284 C286 1.391 . S
C285 C284 1.395 . S
C285 C288 1.390 . S
C286 C284 1.391 . S
C286 C290 1.387 1_556 S
C286 C291 1.491 1_556 S
H287 C288 0.950 . S
C288 C285 1.390 . S
C288 H287 0.950 . S
C288 C289 1.378 . S
C289 C288 1.378 . S
C289 C290 1.409 1_556 S
C290 C286 1.387 1_554 S
C290 C289 1.409 1_554 S
C290 H292 0.951 . S
C291 C286 1.491 1_554 S
C291 C293 1.382 1_554 S
C291 C295 1.404 . S
H292 C290 0.951 . S
C293 C291 1.382 1_556 S
C293 C294 1.390 1_556 S
C293 H298 0.949 . S
C294 C293 1.390 1_554 S
C294 C299 1.399 . S
C295 C291 1.404 . S
C295 H296 0.950 . S
C295 C297 1.375 . S
H296 C295 0.950 . S
C297 C295 1.375 . S
C297 C299 1.382 . S
C297 H301 0.950 . S
H298 C293 0.949 . S
C299 C294 1.399 . S
C299 C297 1.382 . S
C299 H300 0.952 . S
H300 C299 0.952 . S
H301 C297 0.950 . S
H302 C303 0.949 . S
C303 H302 0.949 . S
C303 C304 1.395 . S
C303 C305 1.391 . S
C304 C303 1.395 . S
C304 C307 1.390 . S
C305 C303 1.391 . S
C305 C309 1.387 . S
C305 C310 1.491 . S
H306 C307 0.950 . S
C307 C304 1.390 . S
C307 H306 0.950 . S
C307 C308 1.378 . S
C308 C307 1.378 . S
C308 C309 1.409 . S
C309 C305 1.387 . S
C309 C308 1.409 . S
C309 H311 0.951 . S
C310 C305 1.491 . S
C310 C312 1.382 . S
C310 C314 1.404 . S
H311 C309 0.951 . S
C312 C310 1.382 . S
C312 C313 1.390 . S
C312 H317 0.949 . S
C313 C312 1.390 . S
C313 C318 1.399 . S
C314 C310 1.404 . S
C314 H315 0.950 . S
C314 C316 1.375 . S
H315 C314 0.950 . S
C316 C314 1.375 . S
C316 C318 1.382 . S
C316 H320 0.950 . S
H317 C312 0.949 . S
C318 C313 1.399 . S
C318 C316 1.382 . S
C318 H319 0.952 . S
H319 C318 0.952 . S
H320 C316 0.950 . S
H321 C322 0.949 . S
C322 H321 0.949 . S
C322 C323 1.395 . S
C322 C324 1.391 . S
C323 C322 1.395 . S
C323 C326 1.390 . S
C324 C322 1.391 . S
C324 C328 1.387 1_554 S
C324 C329 1.491 1_554 S
H325 C326 0.950 . S
C326 C323 1.390 . S
C326 H325 0.950 . S
C326 C327 1.378 . S
C327 C326 1.378 . S
C327 C328 1.409 1_554 S
C328 C324 1.387 1_556 S
C328 C327 1.409 1_556 S
C328 H330 0.951 . S
C329 C324 1.491 1_556 S
C329 C331 1.382 1_556 S
C329 C333 1.404 . S
H330 C328 0.951 . S
C331 C329 1.382 1_554 S
C331 C332 1.390 1_554 S
C331 H336 0.949 . S
C332 C331 1.390 1_556 S
C332 C337 1.399 . S
C333 C329 1.404 . S
C333 H334 0.950 . S
C333 C335 1.375 . S
H334 C333 0.950 . S
C335 C333 1.375 . S
C335 C337 1.382 . S
C335 H339 0.950 . S
H336 C331 0.949 . S
C337 C332 1.399 . S
C337 C335 1.382 . S
C337 H338 0.952 . S
H338 C337 0.952 . S
H339 C335 0.950 . S
H340 C341 0.949 . S
C341 H340 0.949 . S
C341 C342 1.395 . S
C341 C343 1.391 . S
C342 C341 1.395 . S
C342 C345 1.390 . S
C343 C341 1.391 . S
C343 C347 1.387 . S
C343 C348 1.491 . S
H344 C345 0.950 . S
C345 C342 1.390 . S
C345 H344 0.950 . S
C345 C346 1.378 . S
C346 C345 1.378 . S
C346 C347 1.409 . S
C347 C343 1.387 . S
C347 C346 1.409 . S
C347 H349 0.951 . S
C348 C343 1.491 . S
C348 C350 1.382 . S
C348 C352 1.404 . S
H349 C347 0.951 . S
C350 C348 1.382 . S
C350 C351 1.390 . S
C350 H355 0.949 . S
C351 C350 1.390 . S
C351 C356 1.399 . S
C352 C348 1.404 . S
C352 H353 0.950 . S
C352 C354 1.375 . S
H353 C352 0.950 . S
C354 C352 1.375 . S
C354 C356 1.382 . S
C354 H358 0.950 . S
H355 C350 0.949 . S
C356 C351 1.399 . S
C356 C354 1.382 . S
C356 H357 0.952 . S
H357 C356 0.952 . S
H358 C354 0.950 . S
H359 C360 0.949 . S
C360 H359 0.949 . S
C360 C361 1.395 . S
C360 C362 1.391 . S
C361 C360 1.395 . S
C361 C364 1.390 . S
C362 C360 1.391 . S
C362 C366 1.387 1_455 S
C362 C367 1.491 1_455 S
H363 C364 0.950 . S
C364 C361 1.390 . S
C364 H363 0.950 . S
C364 C365 1.378 . S
C365 C364 1.378 . S
C365 C366 1.409 1_455 S
C366 C362 1.387 1_655 S
C366 C365 1.409 1_655 S
C366 H368 0.951 . S
C367 C362 1.491 1_655 S
C367 C369 1.382 1_655 S
C367 C371 1.404 . S
H368 C366 0.951 . S
C369 C367 1.382 1_455 S
C369 C370 1.390 1_455 S
C369 H374 0.949 . S
C370 C369 1.390 1_655 S
C370 C375 1.399 . S
C371 C367 1.404 . S
C371 H372 0.950 . S
C371 C373 1.375 . S
H372 C371 0.950 . S
C373 C371 1.375 . S
C373 C375 1.382 . S
C373 H377 0.950 . S
H374 C369 0.949 . S
C375 C370 1.399 . S
C375 C373 1.382 . S
C375 H376 0.952 . S
H376 C375 0.952 . S
H377 C373 0.950 . S
H378 C379 0.949 . S
C379 H378 0.949 . S
C379 C380 1.395 . S
C379 C381 1.391 . S
C380 C379 1.395 . S
C380 C383 1.390 . S
C381 C379 1.391 . S
C381 C385 1.387 1_655 S
C381 C386 1.491 1_655 S
H382 C383 0.950 . S
C383 C380 1.390 . S
C383 H382 0.950 . S
C383 C384 1.378 . S
C384 C383 1.378 . S
C384 C385 1.409 1_655 S
C385 C381 1.387 1_455 S
C385 C384 1.409 1_455 S
C385 H387 0.951 . S
C386 C381 1.491 1_455 S
C386 C388 1.382 1_455 S
C386 C390 1.404 . S
H387 C385 0.951 . S
C388 C386 1.382 1_655 S
C388 C389 1.390 1_655 S
C388 H393 0.949 . S
C389 C388 1.390 1_455 S
C389 C394 1.399 . S
C390 C386 1.404 . S
C390 H391 0.950 . S
C390 C392 1.375 . S
H391 C390 0.950 . S
C392 C390 1.375 . S
C392 C394 1.382 . S
C392 H396 0.950 . S
H393 C388 0.949 . S
C394 C389 1.399 . S
C394 C392 1.382 . S
C394 H395 0.952 . S
H395 C394 0.952 . S
H396 C392 0.950 . S
H397 C398 0.949 . S
C398 H397 0.949 . S
C398 C399 1.395 . S
C398 C400 1.391 . S
C399 C398 1.395 . S
C399 C402 1.390 . S
C400 C398 1.391 . S
C400 C404 1.387 . S
C400 C405 1.491 . S
H401 C402 0.950 . S
C402 C399 1.390 . S
C402 H401 0.950 . S
C402 C403 1.378 . S
C403 C402 1.378 . S
C403 C404 1.409 . S
C404 C400 1.387 . S
C404 C403 1.409 . S
C404 H406 0.951 . S
C405 C400 1.491 . S
C405 C407 1.382 . S
C405 C409 1.404 . S
H406 C404 0.951 . S
C407 C405 1.382 . S
C407 C408 1.390 . S
C407 H412 0.949 . S
C408 C407 1.390 . S
C408 C413 1.399 . S
C409 C405 1.404 . S
C409 H410 0.950 . S
C409 C411 1.375 . S
H410 C409 0.950 . S
C411 C409 1.375 . S
C411 C413 1.382 . S
C411 H415 0.950 . S
H412 C407 0.949 . S
C413 C408 1.399 . S
C413 C411 1.382 . S
C413 H414 0.952 . S
H414 C413 0.952 . S
H415 C411 0.950 . S
H416 C417 0.949 . S
C417 H416 0.949 . S
C417 C418 1.395 . S
C417 C419 1.391 . S
C418 C417 1.395 . S
C418 C421 1.390 . S
C419 C417 1.391 . S
C419 C423 1.387 . S
C419 C424 1.491 . S
H420 C421 0.950 . S
C421 C418 1.390 . S
C421 H420 0.950 . S
C421 C422 1.378 . S
C422 C421 1.378 . S
C422 C423 1.409 . S
C423 C419 1.387 . S
C423 C422 1.409 . S
C423 H425 0.951 . S
C424 C419 1.491 . S
C424 C426 1.382 . S
C424 C428 1.404 . S
H425 C423 0.951 . S
C426 C424 1.382 . S
C426 C427 1.390 . S
C426 H431 0.949 . S
C427 C426 1.390 . S
C427 C432 1.399 . S
C428 C424 1.404 . S
C428 H429 0.950 . S
C428 C430 1.375 . S
H429 C428 0.950 . S
C430 C428 1.375 . S
C430 C432 1.382 . S
C430 H434 0.950 . S
H431 C426 0.949 . S
C432 C427 1.399 . S
C432 C430 1.382 . S
C432 H433 0.952 . S
H433 C432 0.952 . S
H434 C430 0.950 . S
H435 C436 0.949 . S
C436 H435 0.949 . S
C436 C437 1.395 . S
C436 C438 1.391 . S
C437 C436 1.395 . S
C437 C440 1.390 . S
C438 C436 1.391 . S
C438 C442 1.387 1_545 S
C438 C443 1.491 1_545 S
H439 C440 0.950 . S
C440 C437 1.390 . S
C440 H439 0.950 . S
C440 C441 1.378 . S
C441 C440 1.378 . S
C441 C442 1.409 1_545 S
C442 C438 1.387 1_565 S
C442 C441 1.409 1_565 S
C442 H444 0.951 . S
C443 C438 1.491 1_565 S
C443 C445 1.382 1_565 S
C443 C447 1.404 . S
H444 C442 0.951 . S
C445 C443 1.382 1_545 S
C445 C446 1.390 1_545 S
C445 H450 0.949 . S
C446 C445 1.390 1_565 S
C446 C451 1.399 . S
C447 C443 1.404 . S
C447 H448 0.950 . S
C447 C449 1.375 . S
H448 C447 0.950 . S
C449 C447 1.375 . S
C449 C451 1.382 . S
C449 H453 0.950 . S
H450 C445 0.949 . S
C451 C446 1.399 . S
C451 C449 1.382 . S
C451 H452 0.952 . S
H452 C451 0.952 . S
H453 C449 0.950 . S
H454 C455 0.949 . S
C455 H454 0.949 . S
C455 C456 1.395 . S
C455 C457 1.391 . S
C456 C455 1.395 . S
C456 C459 1.390 . S
C457 C455 1.391 . S
C457 C461 1.387 1_565 S
C457 C462 1.491 1_565 S
H458 C459 0.950 . S
C459 C456 1.390 . S
C459 H458 0.950 . S
C459 C460 1.378 . S
C460 C459 1.378 . S
C460 C461 1.409 1_565 S
C461 C457 1.387 1_545 S
C461 C460 1.409 1_545 S
C461 H463 0.951 . S
C462 C457 1.491 1_545 S
C462 C464 1.382 1_545 S
C462 C466 1.404 . S
H463 C461 0.951 . S
C464 C462 1.382 1_565 S
C464 C465 1.390 1_565 S
C464 H469 0.949 . S
C465 C464 1.390 1_545 S
C465 C470 1.399 . S
C466 C462 1.404 . S
C466 H467 0.950 . S
C466 C468 1.375 . S
H467 C466 0.950 . S
C468 C466 1.375 . S
C468 C470 1.382 . S
C468 H472 0.950 . S
H469 C464 0.949 . S
C470 C465 1.399 . S
C470 C468 1.382 . S
C470 H471 0.952 . S
H471 C470 0.952 . S
H472 C468 0.950 . S
H473 C474 0.949 . S
C474 H473 0.949 . S
C474 C475 1.395 . S
C474 C476 1.391 . S
C475 C474 1.395 . S
C475 C478 1.390 . S
C476 C474 1.391 . S
C476 C480 1.387 . S
C476 C481 1.491 . S
H477 C478 0.950 . S
C478 C475 1.390 . S
C478 H477 0.950 . S
C478 C479 1.378 . S
C479 C478 1.378 . S
C479 C480 1.409 . S
C480 C476 1.387 . S
C480 C479 1.409 . S
C480 H482 0.951 . S
C481 C476 1.491 . S
C481 C483 1.382 . S
C481 C485 1.404 . S
H482 C480 0.951 . S
C483 C481 1.382 . S
C483 C484 1.390 . S
C483 H488 0.949 . S
C484 C483 1.390 . S
C484 C489 1.399 . S
C485 C481 1.404 . S
C485 H486 0.950 . S
C485 C487 1.375 . S
H486 C485 0.950 . S
C487 C485 1.375 . S
C487 C489 1.382 . S
C487 H491 0.950 . S
H488 C483 0.949 . S
C489 C484 1.399 . S
C489 C487 1.382 . S
C489 H490 0.952 . S
H490 C489 0.952 . S
H491 C487 0.950 . S
H492 C493 0.949 . S
C493 H492 0.949 . S
C493 C494 1.395 . S
C493 C495 1.391 . S
C494 C493 1.395 . S
C494 C497 1.390 . S
C495 C493 1.391 . S
C495 C499 1.387 . S
C495 C500 1.491 . S
H496 C497 0.950 . S
C497 C494 1.390 . S
C497 H496 0.950 . S
C497 C498 1.378 . S
C498 C497 1.378 . S
C498 C499 1.409 . S
C499 C495 1.387 . S
C499 C498 1.409 . S
C499 H501 0.951 . S
C500 C495 1.491 . S
C500 C502 1.382 . S
C500 C504 1.404 . S
H501 C499 0.951 . S
C502 C500 1.382 . S
C502 C503 1.390 . S
C502 H507 0.949 . S
C503 C502 1.390 . S
C503 C508 1.399 . S
C504 C500 1.404 . S
C504 H505 0.950 . S
C504 C506 1.375 . S
H505 C504 0.950 . S
C506 C504 1.375 . S
C506 C508 1.382 . S
C506 H510 0.950 . S
H507 C502 0.949 . S
C508 C503 1.399 . S
C508 C506 1.382 . S
C508 H509 0.952 . S
H509 C508 0.952 . S
H510 C506 0.950 . S
H511 C512 0.949 . S
C512 H511 0.949 . S
C512 C513 1.395 . S
C512 C514 1.391 . S
C513 C512 1.395 . S
C513 C516 1.390 . S
C514 C512 1.391 . S
C514 C518 1.387 1_554 S
C514 C519 1.487 1_554 S
H515 C516 0.950 . S
C516 C513 1.390 . S
C516 H515 0.950 . S
C516 C517 1.378 . S
C517 C516 1.378 . S
C517 C518 1.409 1_554 S
C518 C514 1.387 1_556 S
C518 C517 1.409 1_556 S
C518 H520 0.951 . S
C519 C514 1.487 1_556 S
C519 C521 1.379 1_556 S
C519 C523 1.410 . S
H520 C518 0.951 . S
C521 C519 1.379 1_554 S
C521 C522 1.390 1_554 S
C521 H526 0.949 . S
C522 C521 1.390 1_556 S
C522 C527 1.399 . S
C523 C519 1.410 . S
C523 H524 0.950 . S
C523 C525 1.375 . S
H524 C523 0.950 . S
C525 C523 1.375 . S
C525 C527 1.382 . S
C525 H529 0.950 . S
H526 C521 0.949 . S
C527 C522 1.399 . S
C527 C525 1.382 . S
C527 H528 0.952 . S
H528 C527 0.952 . S
H529 C525 0.950 . S
H530 C531 0.949 . S
C531 H530 0.949 . S
C531 C532 1.395 . S
C531 C533 1.391 . S
C532 C531 1.395 . S
C532 C535 1.390 . S
C533 C531 1.391 . S
C533 C537 1.387 . S
C533 C538 1.491 . S
H534 C535 0.950 . S
C535 C532 1.390 . S
C535 H534 0.950 . S
C535 C536 1.378 . S
C536 C535 1.378 . S
C536 C537 1.409 . S
C537 C533 1.387 . S
C537 C536 1.409 . S
C537 H539 0.951 . S
C538 C533 1.491 . S
C538 C540 1.382 . S
C538 C542 1.404 . S
H539 C537 0.951 . S
C540 C538 1.382 . S
C540 C541 1.390 . S
C540 H545 0.949 . S
C541 C540 1.390 . S
C541 C546 1.399 . S
C542 C538 1.404 . S
C542 H543 0.950 . S
C542 C544 1.375 . S
H543 C542 0.950 . S
C544 C542 1.375 . S
C544 C546 1.382 . S
C544 H548 0.950 . S
H545 C540 0.949 . S
C546 C541 1.399 . S
C546 C544 1.382 . S
C546 H547 0.952 . S
H547 C546 0.952 . S
H548 C544 0.950 . S
H549 C550 0.949 . S
C550 H549 0.949 . S
C550 C551 1.395 . S
C550 C552 1.391 . S
C551 C550 1.395 . S
C551 C554 1.390 . S
C552 C550 1.391 . S
C552 C556 1.387 1_556 S
C552 C557 1.486 1_556 S
H553 C554 0.950 . S
C554 C551 1.390 . S
C554 H553 0.950 . S
C554 C555 1.378 . S
C555 C554 1.378 . S
C555 C556 1.409 1_556 S
C556 C552 1.387 1_554 S
C556 C555 1.409 1_554 S
C556 H558 0.951 . S
C557 C552 1.486 1_554 S
C557 C559 1.380 1_554 S
C557 C561 1.411 . S
H558 C556 0.951 . S
C559 C557 1.380 1_556 S
C559 C560 1.390 1_556 S
C559 H564 0.949 . S
C560 C559 1.390 1_554 S
C560 C565 1.399 . S
C561 C557 1.411 . S
C561 H562 0.950 . S
C561 C563 1.375 . S
H562 C561 0.950 . S
C563 C561 1.375 . S
C563 C565 1.382 . S
C563 H567 0.950 . S
H564 C559 0.949 . S
C565 C560 1.399 . S
C565 C563 1.382 . S
C565 H566 0.952 . S
H566 C565 0.952 . S
H567 C563 0.950 . S
H568 C569 0.949 . S
C569 H568 0.949 . S
C569 C570 1.395 . S
C569 C571 1.391 . S
C570 C569 1.395 . S
C570 C573 1.390 . S
C571 C569 1.391 . S
C571 C575 1.387 . S
C571 C576 1.491 . S
H572 C573 0.950 . S
C573 C570 1.390 . S
C573 H572 0.950 . S
C573 C574 1.378 . S
C574 C573 1.378 . S
C574 C575 1.409 . S
C575 C571 1.387 . S
C575 C574 1.409 . S
C575 H577 0.951 . S
C576 C571 1.491 . S
C576 C578 1.382 . S
C576 C580 1.404 . S
H577 C575 0.951 . S
C578 C576 1.382 . S
C578 C579 1.390 . S
C578 H583 0.949 . S
C579 C578 1.390 . S
C579 C584 1.399 . S
C580 C576 1.404 . S
C580 H581 0.950 . S
C580 C582 1.375 . S
H581 C580 0.950 . S
C582 C580 1.375 . S
C582 C584 1.382 . S
C582 H586 0.950 . S
H583 C578 0.949 . S
C584 C579 1.399 . S
C584 C582 1.382 . S
C584 H585 0.952 . S
H585 C584 0.952 . S
H586 C582 0.950 . S
H587 C588 0.949 . S
C588 H587 0.949 . S
C588 C589 1.395 . S
C588 C590 1.391 . S
C589 C588 1.395 . S
C589 C592 1.390 . S
C590 C588 1.391 . S
C590 C594 1.387 1_655 S
C590 C595 1.486 1_655 S
H591 C592 0.950 . S
C592 C589 1.390 . S
C592 H591 0.950 . S
C592 C593 1.378 . S
C593 C592 1.378 . S
C593 C594 1.409 1_655 S
C594 C590 1.387 1_455 S
C594 C593 1.409 1_455 S
C594 H596 0.951 . S
C595 C590 1.486 1_455 S
C595 C597 1.380 1_455 S
C595 C599 1.411 . S
H596 C594 0.951 . S
C597 C595 1.380 1_655 S
C597 C598 1.390 1_655 S
C597 H602 0.949 . S
C598 C597 1.390 1_455 S
C598 C603 1.399 . S
C599 C595 1.411 . S
C599 H600 0.950 . S
C599 C601 1.375 . S
H600 C599 0.950 . S
C601 C599 1.375 . S
C601 C603 1.382 . S
C601 H605 0.950 . S
H602 C597 0.949 . S
C603 C598 1.399 . S
C603 C601 1.382 . S
C603 H604 0.952 . S
H604 C603 0.952 . S
H605 C601 0.950 . S
H606 C607 0.949 . S
C607 H606 0.949 . S
C607 C608 1.395 . S
C607 C609 1.391 . S
C608 C607 1.395 . S
C608 C611 1.390 . S
C609 C607 1.391 . S
C609 C613 1.387 1_455 S
C609 C614 1.487 1_455 S
H610 C611 0.950 . S
C611 C608 1.390 . S
C611 H610 0.950 . S
C611 C612 1.378 . S
C612 C611 1.378 . S
C612 C613 1.409 1_455 S
C613 C609 1.387 1_655 S
C613 C612 1.409 1_655 S
C613 H615 0.951 . S
C614 C609 1.487 1_655 S
C614 C616 1.379 1_655 S
C614 C618 1.410 . S
H615 C613 0.951 . S
C616 C614 1.379 1_455 S
C616 C617 1.390 1_455 S
C616 H621 0.949 . S
C617 C616 1.390 1_655 S
C617 C622 1.399 . S
C618 C614 1.410 . S
C618 H619 0.950 . S
C618 C620 1.375 . S
H619 C618 0.950 . S
C620 C618 1.375 . S
C620 C622 1.382 . S
C620 H624 0.950 . S
H621 C616 0.949 . S
C622 C617 1.399 . S
C622 C620 1.382 . S
C622 H623 0.952 . S
H623 C622 0.952 . S
H624 C620 0.950 . S
H625 C626 0.949 . S
C626 H625 0.949 . S
C626 C627 1.395 . S
C626 C628 1.391 . S
C627 C626 1.395 . S
C627 C630 1.390 . S
C628 C626 1.391 . S
C628 C632 1.387 . S
C628 C633 1.491 . S
H629 C630 0.950 . S
C630 C627 1.390 . S
C630 H629 0.950 . S
C630 C631 1.378 . S
C631 C630 1.378 . S
C631 C632 1.409 . S
C632 C628 1.387 . S
C632 C631 1.409 . S
C632 H634 0.951 . S
C633 C628 1.491 . S
C633 C635 1.382 . S
C633 C637 1.404 . S
H634 C632 0.951 . S
C635 C633 1.382 . S
C635 C636 1.390 . S
C635 H640 0.949 . S
C636 C635 1.390 . S
C636 C641 1.399 . S
C637 C633 1.404 . S
C637 H638 0.950 . S
C637 C639 1.375 . S
H638 C637 0.950 . S
C639 C637 1.375 . S
C639 C641 1.382 . S
C639 H643 0.950 . S
H640 C635 0.949 . S
C641 C636 1.399 . S
C641 C639 1.382 . S
C641 H642 0.952 . S
H642 C641 0.952 . S
H643 C639 0.950 . S
H644 C645 0.949 . S
C645 H644 0.949 . S
C645 C646 1.395 . S
C645 C647 1.391 . S
C646 C645 1.395 . S
C646 C649 1.390 . S
C647 C645 1.391 . S
C647 C651 1.387 . S
C647 C652 1.491 . S
H648 C649 0.950 . S
C649 C646 1.390 . S
C649 H648 0.950 . S
C649 C650 1.378 . S
C650 C649 1.378 . S
C650 C651 1.409 . S
C651 C647 1.387 . S
C651 C650 1.409 . S
C651 H653 0.951 . S
C652 C647 1.491 . S
C652 C654 1.382 . S
C652 C656 1.404 . S
H653 C651 0.951 . S
C654 C652 1.382 . S
C654 C655 1.390 . S
C654 H659 0.949 . S
C655 C654 1.390 . S
C655 C660 1.399 . S
C656 C652 1.404 . S
C656 H657 0.950 . S
C656 C658 1.375 . S
H657 C656 0.950 . S
C658 C656 1.375 . S
C658 C660 1.382 . S
C658 H662 0.950 . S
H659 C654 0.949 . S
C660 C655 1.399 . S
C660 C658 1.382 . S
C660 H661 0.952 . S
H661 C660 0.952 . S
H662 C658 0.950 . S
H663 C664 0.949 . S
C664 H663 0.949 . S
C664 C665 1.395 . S
C664 C666 1.391 . S
C665 C664 1.395 . S
C665 C668 1.390 . S
C666 C664 1.391 . S
C666 C670 1.387 1_565 S
C666 C671 1.486 1_565 S
H667 C668 0.950 . S
C668 C665 1.390 . S
C668 H667 0.950 . S
C668 C669 1.378 . S
C669 C668 1.378 . S
C669 C670 1.409 1_565 S
C670 C666 1.387 1_545 S
C670 C669 1.409 1_545 S
C670 H672 0.951 . S
C671 C666 1.486 1_545 S
C671 C673 1.380 1_545 S
C671 C675 1.411 . S
H672 C670 0.951 . S
C673 C671 1.380 1_565 S
C673 C674 1.390 1_565 S
C673 H678 0.949 . S
C674 C673 1.390 1_545 S
C674 C679 1.399 . S
C675 C671 1.411 . S
C675 H676 0.950 . S
C675 C677 1.375 . S
H676 C675 0.950 . S
C677 C675 1.375 . S
C677 C679 1.382 . S
C677 H681 0.950 . S
H678 C673 0.949 . S
C679 C674 1.399 . S
C679 C677 1.382 . S
C679 H680 0.952 . S
H680 C679 0.952 . S
H681 C677 0.950 . S
H682 C683 0.949 . S
C683 H682 0.949 . S
C683 C684 1.395 . S
C683 C685 1.391 . S
C684 C683 1.395 . S
C684 C687 1.390 . S
C685 C683 1.391 . S
C685 C689 1.387 1_545 S
C685 C690 1.487 1_545 S
H686 C687 0.950 . S
C687 C684 1.390 . S
C687 H686 0.950 . S
C687 C688 1.378 . S
C688 C687 1.378 . S
C688 C689 1.409 1_545 S
C689 C685 1.387 1_565 S
C689 C688 1.409 1_565 S
C689 H691 0.951 . S
C690 C685 1.487 1_565 S
C690 C692 1.379 1_565 S
C690 C694 1.410 . S
H691 C689 0.951 . S
C692 C690 1.379 1_545 S
C692 C693 1.390 1_545 S
C692 H697 0.949 . S
C693 C692 1.390 1_565 S
C693 C698 1.399 . S
C694 C690 1.410 . S
C694 H695 0.950 . S
C694 C696 1.375 . S
H695 C694 0.950 . S
C696 C694 1.375 . S
C696 C698 1.382 . S
C696 H700 0.950 . S
H697 C692 0.949 . S
C698 C693 1.399 . S
C698 C696 1.382 . S
C698 H699 0.952 . S
H699 C698 0.952 . S
H700 C696 0.950 . S
H701 C702 0.949 . S
C702 H701 0.949 . S
C702 C703 1.395 . S
C702 C704 1.391 . S
C703 C702 1.395 . S
C703 C706 1.390 . S
C704 C702 1.391 . S
C704 C708 1.387 . S
C704 C709 1.491 . S
H705 C706 0.950 . S
C706 C703 1.390 . S
C706 H705 0.950 . S
C706 C707 1.378 . S
C707 C706 1.378 . S
C707 C708 1.409 . S
C708 C704 1.387 . S
C708 C707 1.409 . S
C708 H710 0.951 . S
C709 C704 1.491 . S
C709 C711 1.382 . S
C709 C713 1.404 . S
H710 C708 0.951 . S
C711 C709 1.382 . S
C711 C712 1.390 . S
C711 H716 0.949 . S
C712 C711 1.390 . S
C712 C717 1.399 . S
C713 C709 1.404 . S
C713 H714 0.950 . S
C713 C715 1.375 . S
H714 C713 0.950 . S
C715 C713 1.375 . S
C715 C717 1.382 . S
C715 H719 0.950 . S
H716 C711 0.949 . S
C717 C712 1.399 . S
C717 C715 1.382 . S
C717 H718 0.952 . S
H718 C717 0.952 . S
H719 C715 0.950 . S
C720 C721 1.369 . S
C720 C722 1.419 . S
C720 H724 0.930 . S
C721 C720 1.369 . S
C721 C730 1.429 . S
C722 C720 1.419 . S
C722 C723 1.363 . S
C722 H725 0.929 . S
C723 C722 1.363 . S
C723 C729 1.428 . S
H724 C720 0.930 . S
H725 C722 0.929 . S
S726 N727 1.613 . S
S726 N728 1.619 . S
N727 S726 1.613 . S
N727 C730 1.350 . S
N728 S726 1.619 . S
N728 C729 1.358 . S
C729 C723 1.428 . S
C729 N728 1.358 . S
C729 C730 1.434 . S
C730 C721 1.429 . S
C730 N727 1.350 . S
C730 C729 1.434 . S
C731 C732 1.369 . S
C731 C733 1.419 . S
C731 H735 0.930 . S
C732 C731 1.369 . S
C732 C741 1.429 . S
C733 C731 1.419 . S
C733 C734 1.363 . S
C733 H736 0.929 . S
C734 C733 1.363 . S
C734 C740 1.428 . S
H735 C731 0.930 . S
H736 C733 0.929 . S
S737 N738 1.613 . S
S737 N739 1.610 . S
N738 S737 1.613 . S
N738 C741 1.350 . S
N739 S737 1.610 . S
N739 C740 1.351 . S
C740 C734 1.428 . S
C740 N739 1.351 . S
C740 C741 1.434 . S
C741 C732 1.429 . S
C741 N738 1.350 . S
C741 C740 1.434 . S
C742 C743 1.369 1_545 S
C742 C744 1.419 . S
C742 H746 0.930 . S
C743 C742 1.369 1_565 S
C743 C752 1.429 . S
C744 C742 1.419 . S
C744 C745 1.363 1_545 S
C744 H747 0.929 . S
C745 C744 1.363 1_565 S
C745 C751 1.428 . S
H746 C742 0.930 . S
H747 C744 0.929 . S
S748 N749 1.613 . S
S748 N750 1.610 . S
N749 S748 1.613 . S
N749 C752 1.350 . S
N750 S748 1.610 . S
N750 C751 1.351 . S
C751 C745 1.428 . S
C751 N750 1.351 . S
C751 C752 1.434 . S
C752 C743 1.429 . S
C752 N749 1.350 . S
C752 C751 1.434 . S
C753 C754 1.369 1_565 S
C753 C755 1.419 . S
C753 H757 0.930 . S
C754 C753 1.369 1_545 S
C754 C763 1.429 . S
C755 C753 1.419 . S
C755 C756 1.363 1_665 S
C755 H758 0.929 . S
C756 C755 1.363 1_445 S
C756 C762 1.428 1_455 S
H757 C753 0.930 . S
H758 C755 0.929 . S
S759 N760 1.613 . S
S759 N761 1.610 1_655 S
N760 S759 1.613 . S
N760 C763 1.350 . S
N761 S759 1.610 1_455 S
N761 C762 1.351 1_455 S
C762 C756 1.428 1_655 S
C762 N761 1.351 1_655 S
C762 C763 1.434 . S
C763 C754 1.429 . S
C763 N760 1.350 . S
C763 C762 1.434 . S
C764 C765 1.369 . S
C764 C766 1.419 . S
C764 H768 0.930 . S
C765 C764 1.369 . S
C765 C774 1.429 . S
C766 C764 1.419 . S
C766 C767 1.363 . S
C766 H769 0.929 . S
C767 C766 1.363 . S
C767 C773 1.428 . S
H768 C764 0.930 . S
H769 C766 0.929 . S
S770 N771 1.613 . S
S770 N772 1.610 . S
N771 S770 1.613 . S
N771 C774 1.350 . S
N772 S770 1.610 . S
N772 C773 1.351 . S
C773 C767 1.428 . S
C773 N772 1.351 . S
C773 C774 1.434 . S
C774 C765 1.429 . S
C774 N771 1.350 . S
C774 C773 1.434 . S
C775 C776 1.369 1_556 S
C775 C777 1.419 . S
C775 H779 0.930 . S
C776 C775 1.369 1_554 S
C776 C785 1.429 . S
C777 C775 1.419 . S
C777 C778 1.363 1_566 S
C777 H780 0.929 . S
C778 C777 1.363 1_544 S
C778 C784 1.428 1_545 S
H779 C775 0.930 . S
H780 C777 0.929 . S
S781 N782 1.613 . S
S781 N783 1.610 1_565 S
N782 S781 1.613 . S
N782 C785 1.350 . S
N783 S781 1.610 1_545 S
N783 C784 1.351 1_545 S
C784 C778 1.428 1_565 S
C784 N783 1.351 1_565 S
C784 C785 1.434 . S
C785 C776 1.429 . S
C785 N782 1.350 . S
C785 C784 1.434 . S
C786 C787 1.369 . S
C786 C788 1.419 . S
C786 H790 0.930 . S
C787 C786 1.369 . S
C787 C796 1.429 . S
C788 C786 1.419 . S
C788 C789 1.363 . S
C788 H791 0.929 . S
C789 C788 1.363 . S
C789 C795 1.428 . S
H790 C786 0.930 . S
H791 C788 0.929 . S
S792 N793 1.613 . S
S792 N794 1.610 . S
N793 S792 1.613 . S
N793 C796 1.350 . S
N794 S792 1.610 . S
N794 C795 1.351 . S
C795 C789 1.428 . S
C795 N794 1.351 . S
C795 C796 1.434 . S
C796 C787 1.429 . S
C796 N793 1.350 . S
C796 C795 1.434 . S
C797 C798 1.369 . S
C797 C799 1.419 . S
C797 H801 0.930 . S
C798 C797 1.369 . S
C798 C807 1.429 1_556 S
C799 C797 1.419 . S
C799 C800 1.363 . S
C799 H802 0.929 . S
C800 C799 1.363 . S
C800 C806 1.428 1_556 S
H801 C797 0.930 . S
H802 C799 0.929 . S
S803 N804 1.613 . S
S803 N805 1.610 . S
N804 S803 1.613 . S
N804 C807 1.350 . S
N805 S803 1.610 . S
N805 C806 1.351 . S
C806 C800 1.428 1_554 S
C806 N805 1.351 . S
C806 C807 1.434 . S
C807 C798 1.429 1_554 S
C807 N804 1.350 . S
C807 C806 1.434 . S
C808 C809 1.369 . S
C808 C810 1.419 . S
C808 H812 0.930 . S
C809 C808 1.369 . S
C809 C818 1.429 . S
C810 C808 1.419 . S
C810 C811 1.363 . S
C810 H813 0.929 . S
C811 C810 1.363 . S
C811 C817 1.428 . S
H812 C808 0.930 . S
H813 C810 0.929 . S
S814 N815 1.613 . S
S814 N816 1.610 . S
N815 S814 1.613 . S
N815 C818 1.350 . S
N816 S814 1.610 . S
N816 C817 1.351 . S
C817 C811 1.428 . S
C817 N816 1.351 . S
C817 C818 1.434 . S
C818 C809 1.429 . S
C818 N815 1.350 . S
C818 C817 1.434 . S
C819 C820 1.369 1_655 S
C819 C821 1.419 . S
C819 H823 0.930 . S
C820 C819 1.369 1_455 S
C820 C829 1.429 . S
C821 C819 1.419 . S
C821 C822 1.363 1_656 S
C821 H824 0.929 . S
C822 C821 1.363 1_454 S
C822 C828 1.428 1_554 S
H823 C819 0.930 . S
H824 C821 0.929 . S
S825 N826 1.613 . S
S825 N827 1.610 1_556 S
N826 S825 1.613 . S
N826 C829 1.350 . S
N827 S825 1.610 1_554 S
N827 C828 1.351 1_554 S
C828 C822 1.428 1_556 S
C828 N827 1.351 1_556 S
C828 C829 1.434 . S
C829 C820 1.429 . S
C829 N826 1.350 . S
C829 C828 1.434 . S
C830 C831 1.369 . S
C830 C832 1.419 . S
C830 H834 0.930 . S
C831 C830 1.369 . S
C831 C840 1.429 . S
C832 C830 1.419 . S
C832 C833 1.363 . S
C832 H835 0.929 . S
C833 C832 1.363 . S
C833 C839 1.428 . S
H834 C830 0.930 . S
H835 C832 0.929 . S
S836 N837 1.613 . S
S836 N838 1.610 . S
N837 S836 1.613 . S
N837 C840 1.350 . S
N838 S836 1.610 . S
N838 C839 1.351 . S
C839 C833 1.428 . S
C839 N838 1.351 . S
C839 C840 1.434 . S
C840 C831 1.429 . S
C840 N837 1.350 . S
C840 C839 1.434 . S
C841 C842 1.369 . S
C841 C843 1.419 . S
C841 H845 0.930 . S
C842 C841 1.369 . S
C842 C851 1.429 . S
C843 C841 1.419 . S
C843 C844 1.363 . S
C843 H846 0.929 . S
C844 C843 1.363 . S
C844 C850 1.428 . S
H845 C841 0.930 . S
H846 C843 0.929 . S
S847 N848 1.613 . S
S847 N849 1.610 . S
N848 S847 1.613 . S
N848 C851 1.350 . S
N849 S847 1.610 . S
N849 C850 1.351 . S
C850 C844 1.428 . S
C850 N849 1.351 . S
C850 C851 1.434 . S
C851 C842 1.429 . S
C851 N848 1.350 . S
C851 C850 1.434 . S
C852 C853 1.369 . S
C852 C854 1.419 . S
C852 H856 0.930 . S
C853 C852 1.369 . S
C853 C862 1.429 . S
C854 C852 1.419 . S
C854 C855 1.363 . S
C854 H857 0.929 . S
C855 C854 1.363 . S
C855 C861 1.428 . S
H856 C852 0.930 . S
H857 C854 0.929 . S
S858 N859 1.613 . S
S858 N860 1.610 . S
N859 S858 1.613 . S
N859 C862 1.350 . S
N860 S858 1.610 . S
N860 C861 1.351 . S
C861 C855 1.428 . S
C861 N860 1.351 . S
C861 C862 1.434 . S
C862 C853 1.429 . S
C862 N859 1.350 . S
C862 C861 1.434 . S
C863 C864 1.369 . S
C863 C865 1.419 . S
C863 H867 0.930 . S
C864 C863 1.369 . S
C864 C873 1.429 . S
C865 C863 1.419 . S
C865 C866 1.363 . S
C865 H868 0.929 . S
C866 C865 1.363 . S
C866 C872 1.428 . S
H867 C863 0.930 . S
H868 C865 0.929 . S
S869 N870 1.613 . S
S869 N871 1.610 . S
N870 S869 1.613 . S
N870 C873 1.350 . S
N871 S869 1.610 . S
N871 C872 1.351 . S
C872 C866 1.428 . S
C872 N871 1.351 . S
C872 C873 1.434 . S
C873 C864 1.429 . S
C873 N870 1.350 . S
C873 C872 1.434 . S
C874 C875 1.369 1_565 S
C874 C876 1.419 . S
C874 H878 0.930 . S
C875 C874 1.369 1_545 S
C875 C884 1.429 . S
C876 C874 1.419 . S
C876 C877 1.363 1_565 S
C876 H879 0.929 . S
C877 C876 1.363 1_545 S
C877 C883 1.428 . S
H878 C874 0.930 . S
H879 C876 0.929 . S
S880 N881 1.613 . S
S880 N882 1.610 . S
N881 S880 1.613 . S
N881 C884 1.350 . S
N882 S880 1.610 . S
N882 C883 1.351 . S
C883 C877 1.428 . S
C883 N882 1.351 . S
C883 C884 1.434 . S
C884 C875 1.429 . S
C884 N881 1.350 . S
C884 C883 1.434 . S
C885 C886 1.369 . S
C885 C887 1.419 . S
C885 H889 0.930 . S
C886 C885 1.369 . S
C886 C895 1.429 1_565 S
C887 C885 1.419 . S
C887 C888 1.363 1_455 S
C887 H890 0.929 1_455 S
C888 C887 1.363 1_655 S
C888 C894 1.428 1_665 S
H889 C885 0.930 . S
H890 C887 0.929 1_655 S
S891 N892 1.613 . S
S891 N893 1.610 . S
N892 S891 1.613 . S
N892 C895 1.350 . S
N893 S891 1.610 . S
N893 C894 1.351 . S
C894 C888 1.428 1_445 S
C894 N893 1.351 . S
C894 C895 1.434 . S
C895 C886 1.429 1_545 S
C895 N892 1.350 . S
C895 C894 1.434 . S
C896 C897 1.369 . S
C896 C898 1.419 . S
C896 H900 0.930 . S
C897 C896 1.369 . S
C897 C906 1.429 . S
C898 C896 1.419 . S
C898 C899 1.363 . S
C898 H901 0.929 . S
C899 C898 1.363 . S
C899 C905 1.428 . S
H900 C896 0.930 . S
H901 C898 0.929 . S
S902 N903 1.613 . S
S902 N904 1.610 . S
N903 S902 1.613 . S
N903 C906 1.350 . S
N904 S902 1.610 . S
N904 C905 1.351 . S
C905 C899 1.428 . S
C905 N904 1.351 . S
C905 C906 1.434 . S
C906 C897 1.429 . S
C906 N903 1.350 . S
C906 C905 1.434 . S
C907 C908 1.369 1_554 S
C907 C909 1.419 . S
C907 H911 0.930 . S
C908 C907 1.369 1_556 S
C908 C917 1.429 . S
C909 C907 1.419 . S
C909 C910 1.363 1_544 S
C909 H912 0.929 . S
C910 C909 1.363 1_566 S
C910 C916 1.428 1_565 S
H911 C907 0.930 . S
H912 C909 0.929 . S
S913 N914 1.613 . S
S913 N915 1.610 1_545 S
N914 S913 1.613 . S
N914 C917 1.350 . S
N915 S913 1.610 1_565 S
N915 C916 1.351 1_565 S
C916 C910 1.428 1_545 S
C916 N915 1.351 1_545 S
C916 C917 1.434 . S
C917 C908 1.429 . S
C917 N914 1.350 . S
C917 C916 1.434 . S
C918 C919 1.369 . S
C918 C920 1.419 . S
C918 H922 0.930 . S
C919 C918 1.369 . S
C919 C928 1.429 . S
C920 C918 1.419 . S
C920 C921 1.363 . S
C920 H923 0.929 . S
C921 C920 1.363 . S
C921 C927 1.428 . S
H922 C918 0.930 . S
H923 C920 0.929 . S
S924 N925 1.613 . S
S924 N926 1.610 . S
N925 S924 1.613 . S
N925 C928 1.350 . S
N926 S924 1.610 . S
N926 C927 1.351 . S
C927 C921 1.428 . S
C927 N926 1.351 . S
C927 C928 1.434 . S
C928 C919 1.429 . S
C928 N925 1.350 . S
C928 C927 1.434 . S
C929 C930 1.369 1_556 S
C929 C931 1.419 . S
C929 H933 0.930 . S
C930 C929 1.369 1_554 S
C930 C939 1.429 . S
C931 C929 1.419 . S
C931 C932 1.363 1_556 S
C931 H934 0.929 . S
C932 C931 1.363 1_554 S
C932 C938 1.428 . S
H933 C929 0.930 . S
H934 C931 0.929 . S
S935 N936 1.613 . S
S935 N937 1.610 . S
N936 S935 1.613 . S
N936 C939 1.350 . S
N937 S935 1.610 . S
N937 C938 1.351 . S
C938 C932 1.428 . S
C938 N937 1.351 . S
C938 C939 1.434 . S
C939 C930 1.429 . S
C939 N936 1.350 . S
C939 C938 1.434 . S
C940 C941 1.369 . S
C940 C942 1.419 . S
C940 H944 0.930 . S
C941 C940 1.369 . S
C941 C950 1.429 . S
C942 C940 1.419 . S
C942 C943 1.363 . S
C942 H945 0.929 . S
C943 C942 1.363 . S
C943 C949 1.428 . S
H944 C940 0.930 . S
H945 C942 0.929 . S
S946 N947 1.613 . S
S946 N948 1.610 . S
N947 S946 1.613 . S
N947 C950 1.350 . S
N948 S946 1.610 . S
N948 C949 1.351 . S
C949 C943 1.428 . S
C949 N948 1.351 . S
C949 C950 1.434 . S
C950 C941 1.429 . S
C950 N947 1.350 . S
C950 C949 1.434 . S
C951 C952 1.369 1_455 S
C951 C953 1.419 . S
C951 H955 0.930 . S
C952 C951 1.369 1_655 S
C952 C961 1.429 . S
C953 C951 1.419 . S
C953 C954 1.363 1_454 S
C953 H956 0.929 . S
C954 C953 1.363 1_656 S
C954 C960 1.428 1_556 S
H955 C951 0.930 . S
H956 C953 0.929 . S
S957 N958 1.613 . S
S957 N959 1.610 1_554 S
N958 S957 1.613 . S
N958 C961 1.350 . S
N959 S957 1.610 1_556 S
N959 C960 1.351 1_556 S
C960 C954 1.428 1_554 S
C960 N959 1.351 1_554 S
C960 C961 1.434 . S
C961 C952 1.429 . S
C961 N958 1.350 . S
C961 C960 1.434 . S
C962 C963 1.369 . S
C962 C964 1.419 . S
C962 H966 0.930 . S
C963 C962 1.369 . S
C963 C972 1.429 . S
C964 C962 1.419 . S
C964 C965 1.363 . S
C964 H967 0.929 . S
C965 C964 1.363 . S
C965 C971 1.428 . S
H966 C962 0.930 . S
H967 C964 0.929 . S
S968 N969 1.613 . S
S968 N970 1.610 . S
N969 S968 1.613 . S
N969 C972 1.350 . S
N970 S968 1.610 . S
N970 C971 1.351 . S
C971 C965 1.428 . S
C971 N970 1.351 . S
C971 C972 1.434 . S
C972 C963 1.429 . S
C972 N969 1.350 . S
C972 C971 1.434 . S
C973 C974 1.369 . S
C973 C975 1.419 . S
C973 H977 0.930 . S
C974 C973 1.369 . S
C974 C983 1.429 . S
C975 C973 1.419 . S
C975 C976 1.363 . S
C975 H978 0.926 1_455 S
C976 C975 1.363 . S
C976 C982 1.428 . S
H977 C973 0.930 . S
H978 C975 0.926 1_655 S
S979 N980 1.613 . S
S979 N981 1.610 . S
N980 S979 1.613 . S
N980 C983 1.350 . S
N981 S979 1.610 . S
N981 C982 1.351 . S
C982 C976 1.428 . S
C982 N981 1.351 . S
C982 C983 1.434 . S
C983 C974 1.429 . S
C983 N980 1.350 . S
C983 C982 1.434 . S
C984 C985 1.369 . S
C984 C986 1.419 . S
C984 H988 0.930 . S
C985 C984 1.369 . S
C985 C994 1.429 . S
C986 C984 1.419 . S
C986 C987 1.363 . S
C986 H989 0.929 . S
C987 C986 1.363 . S
C987 C993 1.428 . S
H988 C984 0.930 . S
H989 C986 0.929 . S
S990 N991 1.613 . S
S990 N992 1.610 . S
N991 S990 1.613 . S
N991 C994 1.350 . S
N992 S990 1.610 . S
N992 C993 1.351 . S
C993 C987 1.428 . S
C993 N992 1.351 . S
C993 C994 1.434 . S
C994 C985 1.429 . S
C994 N991 1.350 . S
C994 C993 1.434 . S
C995 C996 1.369 . S
C995 C997 1.419 . S
C995 H999 0.930 . S
C996 C995 1.369 . S
C996 C1005 1.429 . S
C997 C995 1.419 . S
C997 C998 1.363 . S
C997 H1000 0.929 . S
C998 C997 1.363 . S
C998 C1004 1.428 . S
H999 C995 0.930 . S
H1000 C997 0.929 . S
S1001 N1002 1.613 . S
S1001 N1003 1.610 . S
N1002 S1001 1.613 . S
N1002 C1005 1.350 . S
N1003 S1001 1.610 . S
N1003 C1004 1.351 . S
C1004 C998 1.428 . S
C1004 N1003 1.351 . S
C1004 C1005 1.434 . S
C1005 C996 1.429 . S
C1005 N1002 1.350 . S
C1005 C1004 1.434 . S
C1006 C1007 1.369 . S
C1006 C1008 1.419 . S
C1006 H1010 0.930 . S
C1007 C1006 1.369 . S
C1007 C1016 1.429 . S
C1008 C1006 1.419 . S
C1008 C1009 1.363 . S
C1008 H1011 0.929 . S
C1009 C1008 1.363 . S
C1009 C1015 1.428 . S
H1010 C1006 0.930 . S
H1011 C1008 0.929 . S
S1012 N1013 1.613 . S
S1012 N1014 1.610 1_565 S
N1013 S1012 1.613 . S
N1013 C1016 1.350 1_565 S
N1014 S1012 1.610 1_545 S
N1014 C1015 1.351 . S
C1015 C1009 1.428 . S
C1015 N1014 1.351 . S
C1015 C1016 1.434 . S
C1016 C1007 1.429 . S
C1016 N1013 1.350 1_545 S
C1016 C1015 1.434 . S
C1017 C1018 1.369 . S
C1017 C1019 1.419 . S
C1017 H1021 0.930 . S
C1018 C1017 1.369 . S
C1018 C1027 1.429 . S
C1019 C1017 1.419 . S
C1019 C1020 1.363 . S
C1019 H1022 0.929 . S
C1020 C1019 1.363 . S
C1020 C1026 1.428 . S
H1021 C1017 0.930 . S
H1022 C1019 0.929 . S
S1023 N1024 1.613 . S
S1023 N1025 1.610 1_545 S
N1024 S1023 1.613 . S
N1024 C1027 1.350 1_545 S
N1025 S1023 1.610 1_565 S
N1025 C1026 1.351 . S
C1026 C1020 1.428 . S
C1026 N1025 1.351 . S
C1026 C1027 1.434 . S
C1027 C1018 1.429 . S
C1027 N1024 1.350 1_565 S
C1027 C1026 1.434 . S
C1028 C1029 1.369 . S
C1028 C1030 1.419 . S
C1028 H1032 0.930 . S
C1029 C1028 1.369 . S
C1029 C1038 1.429 . S
C1030 C1028 1.419 . S
C1030 C1031 1.363 . S
C1030 H1033 0.929 . S
C1031 C1030 1.363 . S
C1031 C1037 1.428 . S
H1032 C1028 0.930 . S
H1033 C1030 0.929 . S
S1034 N1035 1.613 . S
S1034 N1036 1.610 . S
N1035 S1034 1.613 . S
N1035 C1038 1.350 . S
N1036 S1034 1.610 . S
N1036 C1037 1.351 . S
C1037 C1031 1.428 . S
C1037 N1036 1.351 . S
C1037 C1038 1.434 . S
C1038 C1029 1.429 . S
C1038 N1035 1.350 . S
C1038 C1037 1.434 . S
C1039 C1040 1.369 . S
C1039 C1041 1.419 . S
C1039 H1043 0.930 . S
C1040 C1039 1.369 . S
C1040 C1049 1.429 . S
C1041 C1039 1.419 . S
C1041 C1042 1.363 . S
C1041 H1044 0.929 . S
C1042 C1041 1.363 . S
C1042 C1048 1.428 . S
H1043 C1039 0.930 . S
H1044 C1041 0.929 . S
S1045 N1046 1.613 . S
S1045 N1047 1.610 . S
N1046 S1045 1.613 . S
N1046 C1049 1.350 . S
N1047 S1045 1.610 . S
N1047 C1048 1.351 . S
C1048 C1042 1.428 . S
C1048 N1047 1.351 . S
C1048 C1049 1.434 . S
C1049 C1040 1.429 . S
C1049 N1046 1.350 . S
C1049 C1048 1.434 . S
C1050 C1051 1.369 . S
C1050 C1052 1.419 . S
C1050 H1054 0.930 . S
C1051 C1050 1.369 . S
C1051 C1060 1.429 . S
C1052 C1050 1.419 . S
C1052 C1053 1.363 . S
C1052 H1055 0.929 . S
C1053 C1052 1.363 . S
C1053 C1059 1.428 . S
H1054 C1050 0.930 . S
H1055 C1052 0.929 . S
S1056 N1057 1.613 . S
S1056 N1058 1.610 . S
N1057 S1056 1.613 . S
N1057 C1060 1.350 . S
N1058 S1056 1.610 . S
N1058 C1059 1.351 . S
C1059 C1053 1.428 . S
C1059 N1058 1.351 . S
C1059 C1060 1.434 . S
C1060 C1051 1.429 . S
C1060 N1057 1.350 . S
C1060 C1059 1.434 . S
C1061 C1062 1.369 . S
C1061 C1063 1.419 . S
C1061 H1065 0.930 . S
C1062 C1061 1.369 . S
C1062 C1071 1.429 . S
C1063 C1061 1.419 . S
C1063 C1064 1.363 . S
C1063 H1066 0.929 . S
C1064 C1063 1.363 . S
C1064 C1070 1.428 . S
H1065 C1061 0.930 . S
H1066 C1063 0.929 . S
S1067 N1068 1.613 . S
S1067 N1069 1.610 . S
N1068 S1067 1.613 . S
N1068 C1071 1.350 . S
N1069 S1067 1.610 . S
N1069 C1070 1.351 . S
C1070 C1064 1.428 . S
C1070 N1069 1.351 . S
C1070 C1071 1.434 . S
C1071 C1062 1.429 . S
C1071 N1068 1.350 . S
C1071 C1070 1.434 . S
C1072 C1073 1.369 . S
C1072 C1074 1.419 . S
C1072 H1076 0.930 . S
C1073 C1072 1.369 . S
C1073 C1082 1.429 . S
C1074 C1072 1.419 . S
C1074 C1075 1.363 . S
C1074 H1077 0.929 . S
C1075 C1074 1.363 . S
C1075 C1081 1.428 . S
H1076 C1072 0.930 . S
H1077 C1074 0.929 . S
S1078 N1079 1.613 . S
S1078 N1080 1.610 . S
N1079 S1078 1.613 . S
N1079 C1082 1.350 . S
N1080 S1078 1.610 . S
N1080 C1081 1.351 . S
C1081 C1075 1.428 . S
C1081 N1080 1.351 . S
C1081 C1082 1.434 . S
C1082 C1073 1.429 . S
C1082 N1079 1.350 . S
C1082 C1081 1.434 . S
C1083 C1084 1.369 . S
C1083 C1085 1.419 . S
C1083 H1087 0.930 . S
C1084 C1083 1.369 . S
C1084 C1093 1.429 . S
C1085 C1083 1.419 . S
C1085 C1086 1.363 . S
C1085 H1088 0.929 . S
C1086 C1085 1.363 . S
C1086 C1092 1.428 . S
H1087 C1083 0.930 . S
H1088 C1085 0.929 . S
S1089 N1090 1.613 . S
S1089 N1091 1.610 1_455 S
N1090 S1089 1.613 . S
N1090 C1093 1.350 1_455 S
N1091 S1089 1.610 1_655 S
N1091 C1092 1.351 . S
C1092 C1086 1.428 . S
C1092 N1091 1.351 . S
C1092 C1093 1.434 . S
C1093 C1084 1.429 . S
C1093 N1090 1.350 1_655 S
C1093 C1092 1.434 . S
C1094 C1095 1.369 . S
C1094 C1096 1.419 . S
C1094 H1098 0.930 . S
C1095 C1094 1.369 . S
C1095 C1104 1.429 . S
C1096 C1094 1.419 . S
C1096 C1097 1.363 . S
C1096 H1099 0.929 . S
C1097 C1096 1.363 . S
C1097 C1103 1.428 . S
H1098 C1094 0.930 . S
H1099 C1096 0.929 . S
S1100 N1101 1.613 . S
S1100 N1102 1.610 . S
N1101 S1100 1.613 . S
N1101 C1104 1.350 . S
N1102 S1100 1.610 . S
N1102 C1103 1.351 . S
C1103 C1097 1.428 . S
C1103 N1102 1.351 . S
C1103 C1104 1.434 . S
C1104 C1095 1.429 . S
C1104 N1101 1.350 . S
C1104 C1103 1.434 . S
C1105 C1106 1.369 . S
C1105 C1107 1.419 . S
C1105 H1109 0.930 . S
C1106 C1105 1.369 . S
C1106 C1115 1.429 . S
C1107 C1105 1.419 . S
C1107 C1108 1.363 . S
C1107 H1110 0.929 . S
C1108 C1107 1.363 . S
C1108 C1114 1.428 . S
H1109 C1105 0.930 . S
H1110 C1107 0.929 . S
S1111 N1112 1.613 . S
S1111 N1113 1.610 1_655 S
N1112 S1111 1.613 . S
N1112 C1115 1.350 1_655 S
N1113 S1111 1.610 1_455 S
N1113 C1114 1.351 . S
C1114 C1108 1.428 . S
C1114 N1113 1.351 . S
C1114 C1115 1.434 . S
C1115 C1106 1.429 . S
C1115 N1112 1.350 1_455 S
C1115 C1114 1.434 . S
C1116 C1117 1.369 . S
C1116 C1118 1.419 . S
C1116 H1120 0.930 . S
C1117 C1116 1.369 . S
C1117 C1126 1.429 . S
C1118 C1116 1.419 . S
C1118 C1119 1.363 . S
C1118 H1121 0.929 . S
C1119 C1118 1.363 . S
C1119 C1125 1.428 . S
H1120 C1116 0.930 . S
H1121 C1118 0.929 . S
S1122 N1123 1.613 . S
S1122 N1124 1.610 . S
N1123 S1122 1.613 . S
N1123 C1126 1.350 . S
N1124 S1122 1.610 . S
N1124 C1125 1.351 . S
C1125 C1119 1.428 . S
C1125 N1124 1.351 . S
C1125 C1126 1.434 . S
C1126 C1117 1.429 . S
C1126 N1123 1.350 . S
C1126 C1125 1.434 . S
C1127 C1128 1.369 . S
C1127 C1129 1.419 . S
C1127 H1131 0.930 . S
C1128 C1127 1.369 . S
C1128 C1137 1.429 . S
C1129 C1127 1.419 . S
C1129 C1130 1.363 . S
C1129 H1132 0.929 . S
C1130 C1129 1.363 . S
C1130 C1136 1.428 . S
H1131 C1127 0.930 . S
H1132 C1129 0.929 . S
S1133 N1134 1.613 . S
S1133 N1135 1.610 . S
N1134 S1133 1.613 . S
N1134 C1137 1.350 . S
N1135 S1133 1.610 . S
N1135 C1136 1.351 . S
C1136 C1130 1.428 . S
C1136 N1135 1.351 . S
C1136 C1137 1.434 . S
C1137 C1128 1.429 . S
C1137 N1134 1.350 . S
C1137 C1136 1.434 . S
C1138 C1139 1.369 . S
C1138 C1140 1.419 . S
C1138 H1142 0.930 . S
C1139 C1138 1.369 . S
C1139 C1148 1.429 . S
C1140 C1138 1.419 . S
C1140 C1141 1.363 . S
C1140 H1143 0.929 . S
C1141 C1140 1.363 . S
C1141 C1147 1.428 . S
H1142 C1138 0.930 . S
H1143 C1140 0.929 . S
S1144 N1145 1.610 1_565 S
S1144 N1146 1.632 . S
N1145 S1144 1.610 1_545 S
N1145 C1148 1.350 1_545 S
N1146 S1144 1.632 . S
N1146 C1147 1.351 . S
C1147 C1141 1.428 . S
C1147 N1146 1.351 . S
C1147 C1148 1.434 . S
C1148 C1139 1.429 . S
C1148 N1145 1.350 1_565 S
C1148 C1147 1.434 . S
C1149 C1150 1.369 . S
C1149 C1151 1.419 . S
C1149 H1153 0.930 . S
C1150 C1149 1.369 . S
C1150 C1159 1.429 . S
C1151 C1149 1.419 . S
C1151 C1152 1.363 . S
C1151 H1154 0.929 . S
C1152 C1151 1.363 . S
C1152 C1158 1.428 . S
H1153 C1149 0.930 . S
H1154 C1151 0.929 . S
S1155 N1156 1.613 . S
S1155 N1157 1.610 . S
N1156 S1155 1.613 . S
N1156 C1159 1.350 . S
N1157 S1155 1.610 . S
N1157 C1158 1.351 . S
C1158 C1152 1.428 . S
C1158 N1157 1.351 . S
C1158 C1159 1.434 . S
C1159 C1150 1.429 . S
C1159 N1156 1.350 . S
C1159 C1158 1.434 . S
C1160 C1161 1.369 . S
C1160 C1162 1.419 . S
C1160 H1164 0.930 . S
C1161 C1160 1.369 . S
C1161 C1170 1.429 . S
C1162 C1160 1.419 . S
C1162 C1163 1.363 . S
C1162 H1165 0.929 . S
C1163 C1162 1.363 . S
C1163 C1169 1.428 . S
H1164 C1160 0.930 . S
H1165 C1162 0.929 . S
S1166 N1167 1.613 . S
S1166 N1168 1.610 . S
N1167 S1166 1.613 . S
N1167 C1170 1.350 . S
N1168 S1166 1.610 . S
N1168 C1169 1.351 . S
C1169 C1163 1.428 . S
C1169 N1168 1.351 . S
C1169 C1170 1.434 . S
C1170 C1161 1.429 . S
C1170 N1167 1.350 . S
C1170 C1169 1.434 . S
C1171 C1172 1.369 . S
C1171 C1173 1.419 . S
C1171 H1175 0.930 1_554 S
C1172 C1171 1.369 . S
C1172 C1181 1.429 . S
C1173 C1171 1.419 . S
C1173 C1174 1.363 . S
C1173 H1176 0.929 . S
C1174 C1173 1.363 . S
C1174 C1180 1.428 . S
H1175 C1171 0.930 1_556 S
H1176 C1173 0.929 . S
S1177 N1178 1.613 . S
S1177 N1179 1.610 . S
N1178 S1177 1.613 . S
N1178 C1181 1.350 . S
N1179 S1177 1.610 . S
N1179 C1180 1.351 . S
C1180 C1174 1.428 . S
C1180 N1179 1.351 . S
C1180 C1181 1.434 . S
C1181 C1172 1.429 . S
C1181 N1178 1.350 . S
C1181 C1180 1.434 . S
C1182 C1183 1.369 . S
C1182 C1184 1.419 . S
C1182 H1186 0.930 . S
C1183 C1182 1.369 . S
C1183 C1192 1.429 . S
C1184 C1182 1.419 . S
C1184 C1185 1.363 . S
C1184 H1187 0.929 . S
C1185 C1184 1.363 . S
C1185 C1191 1.428 . S
H1186 C1182 0.930 . S
H1187 C1184 0.929 . S
S1188 N1189 1.613 . S
S1188 N1190 1.610 . S
N1189 S1188 1.613 . S
N1189 C1192 1.350 . S
N1190 S1188 1.610 . S
N1190 C1191 1.351 . S
C1191 C1185 1.428 . S
C1191 N1190 1.351 . S
C1191 C1192 1.434 . S
C1192 C1183 1.429 . S
C1192 N1189 1.350 . S
C1192 C1191 1.434 . S
C1193 C1194 1.369 . S
C1193 C1195 1.419 . S
C1193 H1197 0.930 . S
C1194 C1193 1.369 . S
C1194 C1203 1.429 . S
C1195 C1193 1.419 . S
C1195 C1196 1.363 . S
C1195 H1198 0.929 . S
C1196 C1195 1.363 . S
C1196 C1202 1.428 . S
H1197 C1193 0.930 . S
H1198 C1195 0.929 . S
S1199 N1200 1.613 . S
S1199 N1201 1.610 . S
N1200 S1199 1.613 . S
N1200 C1203 1.350 . S
N1201 S1199 1.610 . S
N1201 C1202 1.351 . S
C1202 C1196 1.428 . S
C1202 N1201 1.351 . S
C1202 C1203 1.434 . S
C1203 C1194 1.429 . S
C1203 N1200 1.350 . S
C1203 C1202 1.434 . S
C1204 C1205 1.369 . S
C1204 C1206 1.419 . S
C1204 H1208 0.930 . S
C1205 C1204 1.369 . S
C1205 C1214 1.429 . S
C1206 C1204 1.419 . S
C1206 C1207 1.363 . S
C1206 H1209 0.929 . S
C1207 C1206 1.363 . S
C1207 C1213 1.428 . S
H1208 C1204 0.930 . S
H1209 C1206 0.929 . S
S1210 N1211 1.613 . S
S1210 N1212 1.610 . S
N1211 S1210 1.613 . S
N1211 C1214 1.350 . S
N1212 S1210 1.610 . S
N1212 C1213 1.351 . S
C1213 C1207 1.428 . S
C1213 N1212 1.351 . S
C1213 C1214 1.434 . S
C1214 C1205 1.429 . S
C1214 N1211 1.350 . S
C1214 C1213 1.434 . S
C1215 C1216 1.369 . S
C1215 C1217 1.419 . S
C1215 H1219 0.930 . S
C1216 C1215 1.369 . S
C1216 C1225 1.429 . S
C1217 C1215 1.419 . S
C1217 C1218 1.363 . S
C1217 H1220 0.929 . S
C1218 C1217 1.363 . S
C1218 C1224 1.428 . S
H1219 C1215 0.930 . S
H1220 C1217 0.929 . S
S1221 N1222 1.613 . S
S1221 N1223 1.610 1_655 S
N1222 S1221 1.613 . S
N1222 C1225 1.350 1_655 S
N1223 S1221 1.610 1_455 S
N1223 C1224 1.351 . S
C1224 C1218 1.428 . S
C1224 N1223 1.351 . S
C1224 C1225 1.434 . S
C1225 C1216 1.429 . S
C1225 N1222 1.350 1_455 S
C1225 C1224 1.434 . S
C1226 C1227 1.369 . S
C1226 C1228 1.419 . S
C1226 H1230 0.930 . S
C1227 C1226 1.369 . S
C1227 C1236 1.429 . S
C1228 C1226 1.419 . S
C1228 C1229 1.363 . S
C1228 H1231 0.929 . S
C1229 C1228 1.363 . S
C1229 C1235 1.428 . S
H1230 C1226 0.930 . S
H1231 C1228 0.929 . S
S1232 N1233 1.613 . S
S1232 N1234 1.610 . S
N1233 S1232 1.613 . S
N1233 C1236 1.350 . S
N1234 S1232 1.610 . S
N1234 C1235 1.351 . S
C1235 C1229 1.428 . S
C1235 N1234 1.351 . S
C1235 C1236 1.434 . S
C1236 C1227 1.429 . S
C1236 N1233 1.350 . S
C1236 C1235 1.434 . S
C1237 C1238 1.369 . S
C1237 C1239 1.419 . S
C1237 H1241 0.959 . S
C1238 C1237 1.369 . S
C1238 C1247 1.429 . S
C1239 C1237 1.419 . S
C1239 C1240 1.363 . S
C1239 H1242 0.929 . S
C1240 C1239 1.363 . S
C1240 C1246 1.428 . S
H1241 C1237 0.959 . S
H1242 C1239 0.929 . S
S1243 N1244 1.613 . S
S1243 N1245 1.610 . S
N1244 S1243 1.613 . S
N1244 C1247 1.350 . S
N1245 S1243 1.610 . S
N1245 C1246 1.351 . S
C1246 C1240 1.428 . S
C1246 N1245 1.351 . S
C1246 C1247 1.434 . S
C1247 C1238 1.429 . S
C1247 N1244 1.350 . S
C1247 C1246 1.434 . S
C1248 C1249 1.369 . S
C1248 C1250 1.419 . S
C1248 H1252 0.930 . S
C1249 C1248 1.369 . S
C1249 C1258 1.429 . S
C1250 C1248 1.419 . S
C1250 C1251 1.363 . S
C1250 H1253 0.929 . S
C1251 C1250 1.363 . S
C1251 C1257 1.428 . S
H1252 C1248 0.930 . S
H1253 C1250 0.929 . S
S1254 N1255 1.613 . S
S1254 N1256 1.610 . S
N1255 S1254 1.613 . S
N1255 C1258 1.350 . S
N1256 S1254 1.610 . S
N1256 C1257 1.351 . S
C1257 C1251 1.428 . S
C1257 N1256 1.351 . S
C1257 C1258 1.434 . S
C1258 C1249 1.429 . S
C1258 N1255 1.350 . S
C1258 C1257 1.434 . S
C1259 C1260 1.369 . S
C1259 C1261 1.419 . S
C1259 H1263 0.930 . S
C1260 C1259 1.369 . S
C1260 C1269 1.429 . S
C1261 C1259 1.419 . S
C1261 C1262 1.363 . S
C1261 H1264 0.929 . S
C1262 C1261 1.363 . S
C1262 C1268 1.428 . S
H1263 C1259 0.930 . S
H1264 C1261 0.929 . S
S1265 N1266 1.613 . S
S1265 N1267 1.610 . S
N1266 S1265 1.613 . S
N1266 C1269 1.350 . S
N1267 S1265 1.610 . S
N1267 C1268 1.351 . S
C1268 C1262 1.428 . S
C1268 N1267 1.351 . S
C1268 C1269 1.434 . S
C1269 C1260 1.429 . S
C1269 N1266 1.350 . S
C1269 C1268 1.434 . S
C1270 C1271 1.369 1_545 S
C1270 C1272 1.419 . S
C1270 H1274 0.930 . S
C1271 C1270 1.369 1_565 S
C1271 C1280 1.429 . S
C1272 C1270 1.419 . S
C1272 C1273 1.363 1_545 S
C1272 H1275 0.929 . S
C1273 C1272 1.363 1_565 S
C1273 C1279 1.428 . S
H1274 C1270 0.930 . S
H1275 C1272 0.929 . S
S1276 N1277 1.613 . S
S1276 N1278 1.610 . S
N1277 S1276 1.613 . S
N1277 C1280 1.350 . S
N1278 S1276 1.610 . S
N1278 C1279 1.351 . S
C1279 C1273 1.428 . S
C1279 N1278 1.351 . S
C1279 C1280 1.434 . S
C1280 C1271 1.429 . S
C1280 N1277 1.350 . S
C1280 C1279 1.434 . S
C1281 C1282 1.369 1_565 S
C1281 C1283 1.419 . S
C1281 H1285 0.930 . S
C1282 C1281 1.369 1_545 S
C1282 C1291 1.429 . S
C1283 C1281 1.419 . S
C1283 C1284 1.363 1_565 S
C1283 H1286 0.929 . S
C1284 C1283 1.363 1_545 S
C1284 C1290 1.428 . S
H1285 C1281 0.930 . S
H1286 C1283 0.929 . S
S1287 N1288 1.613 . S
S1287 N1289 1.610 . S
N1288 S1287 1.613 . S
N1288 C1291 1.350 . S
N1289 S1287 1.610 . S
N1289 C1290 1.351 . S
C1290 C1284 1.428 . S
C1290 N1289 1.351 . S
C1290 C1291 1.434 . S
C1291 C1282 1.429 . S
C1291 N1288 1.350 . S
C1291 C1290 1.434 . S
C1292 C1293 1.369 . S
C1292 C1294 1.419 . S
C1292 H1296 0.930 . S
C1293 C1292 1.369 . S
C1293 C1302 1.429 . S
C1294 C1292 1.419 . S
C1294 C1295 1.363 . S
C1294 H1297 0.929 . S
C1295 C1294 1.363 . S
C1295 C1301 1.428 . S
H1296 C1292 0.930 . S
H1297 C1294 0.929 . S
S1298 N1299 1.613 . S
S1298 N1300 1.610 . S
N1299 S1298 1.613 . S
N1299 C1302 1.350 . S
N1300 S1298 1.610 . S
N1300 C1301 1.351 . S
C1301 C1295 1.428 . S
C1301 N1300 1.351 . S
C1301 C1302 1.434 . S
C1302 C1293 1.429 . S
C1302 N1299 1.350 . S
C1302 C1301 1.434 . S
C1303 C1304 1.369 . S
C1303 C1305 1.419 . S
C1303 H1307 0.930 . S
C1304 C1303 1.369 . S
C1304 C1313 1.429 1_554 S
C1305 C1303 1.419 . S
C1305 C1306 1.391 . S
C1305 H1308 0.929 . S
C1306 C1305 1.391 . S
C1306 C1312 1.403 1_554 S
H1307 C1303 0.930 . S
H1308 C1305 0.929 . S
S1309 N1310 1.613 . S
S1309 N1311 1.610 . S
N1310 S1309 1.613 . S
N1310 C1313 1.350 . S
N1311 S1309 1.610 . S
N1311 C1312 1.351 . S
C1312 C1306 1.403 1_556 S
C1312 N1311 1.351 . S
C1312 C1313 1.434 . S
C1313 C1304 1.429 1_556 S
C1313 N1310 1.350 . S
C1313 C1312 1.434 . S
C1314 C1315 1.369 . S
C1314 C1316 1.419 . S
C1314 H1318 0.930 . S
C1315 C1314 1.369 . S
C1315 C1324 1.429 . S
C1316 C1314 1.419 . S
C1316 C1317 1.363 . S
C1316 H1319 0.929 . S
C1317 C1316 1.363 . S
C1317 C1323 1.428 . S
H1318 C1314 0.930 . S
H1319 C1316 0.929 . S
S1320 N1321 1.613 . S
S1320 N1322 1.610 . S
N1321 S1320 1.613 . S
N1321 C1324 1.350 . S
N1322 S1320 1.610 . S
N1322 C1323 1.351 . S
C1323 C1317 1.428 . S
C1323 N1322 1.351 . S
C1323 C1324 1.434 . S
C1324 C1315 1.429 . S
C1324 N1321 1.350 . S
C1324 C1323 1.434 . S
C1325 C1326 1.369 . S
C1325 C1327 1.419 . S
C1325 H1329 0.930 . S
C1326 C1325 1.369 . S
C1326 C1335 1.429 1_556 S
C1327 C1325 1.419 . S
C1327 C1328 1.363 . S
C1327 H1330 0.929 . S
C1328 C1327 1.363 . S
C1328 C1334 1.428 1_556 S
H1329 C1325 0.930 . S
H1330 C1327 0.929 . S
S1331 N1332 1.613 . S
S1331 N1333 1.610 . S
N1332 S1331 1.613 . S
N1332 C1335 1.350 . S
N1333 S1331 1.610 . S
N1333 C1334 1.351 . S
C1334 C1328 1.428 1_554 S
C1334 N1333 1.351 . S
C1334 C1335 1.434 . S
C1335 C1326 1.429 1_554 S
C1335 N1332 1.350 . S
C1335 C1334 1.434 . S
C1336 C1337 1.369 . S
C1336 C1338 1.419 . S
C1336 H1340 0.930 . S
C1337 C1336 1.369 . S
C1337 C1346 1.429 . S
C1338 C1336 1.419 . S
C1338 C1339 1.363 . S
C1338 H1341 0.929 . S
C1339 C1338 1.363 . S
C1339 C1345 1.428 . S
H1340 C1336 0.930 . S
H1341 C1338 0.929 . S
S1342 N1343 1.613 . S
S1342 N1344 1.610 . S
N1343 S1342 1.613 . S
N1343 C1346 1.350 . S
N1344 S1342 1.610 . S
N1344 C1345 1.351 . S
C1345 C1339 1.428 . S
C1345 N1344 1.351 . S
C1345 C1346 1.434 . S
C1346 C1337 1.429 . S
C1346 N1343 1.350 . S
C1346 C1345 1.434 . S
C1347 C1348 1.369 1_655 S
C1347 C1349 1.419 . S
C1347 H1351 0.930 . S
C1348 C1347 1.369 1_455 S
C1348 C1357 1.429 . S
C1349 C1347 1.419 . S
C1349 C1350 1.363 1_655 S
C1349 H1352 0.929 . S
C1350 C1349 1.363 1_455 S
C1350 C1356 1.428 . S
H1351 C1347 0.930 . S
H1352 C1349 0.929 . S
S1353 N1354 1.613 . S
S1353 N1355 1.610 . S
N1354 S1353 1.613 . S
N1354 C1357 1.350 . S
N1355 S1353 1.610 . S
N1355 C1356 1.351 . S
C1356 C1350 1.428 . S
C1356 N1355 1.351 . S
C1356 C1357 1.434 . S
C1357 C1348 1.429 . S
C1357 N1354 1.350 . S
C1357 C1356 1.434 . S
C1358 C1359 1.369 . S
C1358 C1360 1.419 . S
C1358 H1362 0.930 . S
C1359 C1358 1.369 . S
C1359 C1368 1.429 . S
C1360 C1358 1.419 . S
C1360 C1361 1.363 . S
C1360 H1363 0.929 . S
C1361 C1360 1.363 . S
C1361 C1367 1.428 . S
H1362 C1358 0.930 . S
H1363 C1360 0.929 . S
S1364 N1365 1.613 . S
S1364 N1366 1.610 . S
N1365 S1364 1.613 . S
N1365 C1368 1.350 . S
N1366 S1364 1.610 . S
N1366 C1367 1.351 . S
C1367 C1361 1.428 . S
C1367 N1366 1.351 . S
C1367 C1368 1.434 . S
C1368 C1359 1.429 . S
C1368 N1365 1.350 . S
C1368 C1367 1.434 . S
C1369 C1370 1.369 1_455 S
C1369 C1371 1.419 . S
C1369 H1373 0.930 . S
C1370 C1369 1.369 1_655 S
C1370 C1379 1.429 . S
C1371 C1369 1.419 . S
C1371 C1372 1.363 1_455 S
C1371 H1374 0.929 . S
C1372 C1371 1.363 1_655 S
C1372 C1378 1.428 . S
H1373 C1369 0.930 . S
H1374 C1371 0.929 . S
S1375 N1376 1.613 . S
S1375 N1377 1.610 . S
N1376 S1375 1.613 . S
N1376 C1379 1.350 . S
N1377 S1375 1.610 . S
N1377 C1378 1.351 . S
C1378 C1372 1.428 . S
C1378 N1377 1.351 . S
C1378 C1379 1.434 . S
C1379 C1370 1.429 . S
C1379 N1376 1.350 . S
C1379 C1378 1.434 . S
C1380 C1381 1.369 . S
C1380 C1382 1.419 . S
C1380 H1384 0.930 . S
C1381 C1380 1.369 . S
C1381 C1390 1.429 . S
C1382 C1380 1.419 . S
C1382 C1383 1.363 . S
C1382 H1385 0.929 . S
C1383 C1382 1.363 . S
C1383 C1389 1.428 . S
H1384 C1380 0.930 . S
H1385 C1382 0.929 . S
S1386 N1387 1.613 . S
S1386 N1388 1.610 . S
N1387 S1386 1.613 . S
N1387 C1390 1.350 . S
N1388 S1386 1.610 . S
N1388 C1389 1.351 . S
C1389 C1383 1.428 . S
C1389 N1388 1.351 . S
C1389 C1390 1.434 . S
C1390 C1381 1.429 . S
C1390 N1387 1.350 . S
C1390 C1389 1.434 . S
C1391 C1392 1.369 . S
C1391 C1393 1.419 . S
C1391 H1395 0.930 . S
C1392 C1391 1.369 . S
C1392 C1401 1.429 . S
C1393 C1391 1.419 . S
C1393 C1394 1.363 . S
C1393 H1396 0.929 . S
C1394 C1393 1.363 . S
C1394 C1400 1.428 . S
H1395 C1391 0.930 . S
H1396 C1393 0.929 . S
S1397 N1398 1.613 . S
S1397 N1399 1.610 . S
N1398 S1397 1.613 . S
N1398 C1401 1.350 . S
N1399 S1397 1.610 . S
N1399 C1400 1.351 . S
C1400 C1394 1.428 . S
C1400 N1399 1.351 . S
C1400 C1401 1.434 . S
C1401 C1392 1.429 . S
C1401 N1398 1.350 . S
C1401 C1400 1.434 . S
C1402 C1403 1.369 1_565 S
C1402 C1404 1.419 . S
C1402 H1406 0.930 . S
C1403 C1402 1.369 1_545 S
C1403 C1412 1.429 . S
C1404 C1402 1.419 . S
C1404 C1405 1.363 1_565 S
C1404 H1407 0.929 . S
C1405 C1404 1.363 1_545 S
C1405 C1411 1.428 . S
H1406 C1402 0.930 . S
H1407 C1404 0.929 . S
S1408 N1409 1.613 . S
S1408 N1410 1.610 . S
N1409 S1408 1.613 . S
N1409 C1412 1.350 . S
N1410 S1408 1.610 . S
N1410 C1411 1.351 . S
C1411 C1405 1.428 . S
C1411 N1410 1.351 . S
C1411 C1412 1.434 . S
C1412 C1403 1.429 . S
C1412 N1409 1.350 . S
C1412 C1411 1.434 . S
C1413 C1414 1.369 . S
C1413 C1415 1.419 . S
C1413 H1417 0.930 . S
C1414 C1413 1.369 . S
C1414 C1423 1.429 1_565 S
C1415 C1413 1.419 . S
C1415 C1416 1.386 . S
C1415 H1418 0.929 . S
C1416 C1415 1.386 . S
C1416 C1422 1.408 1_565 S
H1417 C1413 0.930 . S
H1418 C1415 0.929 . S
S1419 N1420 1.613 . S
S1419 N1421 1.610 . S
N1420 S1419 1.613 . S
N1420 C1423 1.350 . S
N1421 S1419 1.610 . S
N1421 C1422 1.351 . S
C1422 C1416 1.408 1_545 S
C1422 N1421 1.351 . S
C1422 C1423 1.434 . S
C1423 C1414 1.429 1_545 S
C1423 N1420 1.350 . S
C1423 C1422 1.434 . S
C1424 C1425 1.369 . S
C1424 C1426 1.419 . S
C1424 H1428 0.930 . S
C1425 C1424 1.369 . S
C1425 C1434 1.429 . S
C1426 C1424 1.419 . S
C1426 C1427 1.363 . S
C1426 H1429 0.929 . S
C1427 C1426 1.363 . S
C1427 C1433 1.428 . S
H1428 C1424 0.930 . S
H1429 C1426 0.929 . S
S1430 N1431 1.613 . S
S1430 N1432 1.610 . S
N1431 S1430 1.613 . S
N1431 C1434 1.350 . S
N1432 S1430 1.610 . S
N1432 C1433 1.351 . S
C1433 C1427 1.428 . S
C1433 N1432 1.351 . S
C1433 C1434 1.434 . S
C1434 C1425 1.429 . S
C1434 N1431 1.350 . S
C1434 C1433 1.434 . S
C1435 C1436 1.369 1_554 S
C1435 C1437 1.419 . S
C1435 H1439 0.930 . S
C1436 C1435 1.369 1_556 S
C1436 C1445 1.429 . S
C1437 C1435 1.419 . S
C1437 C1438 1.363 1_554 S
C1437 H1440 0.929 . S
C1438 C1437 1.363 1_556 S
C1438 C1444 1.428 . S
H1439 C1435 0.930 . S
H1440 C1437 0.929 . S
S1441 N1442 1.613 . S
S1441 N1443 1.610 . S
N1442 S1441 1.613 . S
N1442 C1445 1.350 . S
N1443 S1441 1.610 . S
N1443 C1444 1.351 . S
C1444 C1438 1.428 . S
C1444 N1443 1.351 . S
C1444 C1445 1.434 . S
C1445 C1436 1.429 . S
C1445 N1442 1.350 . S
C1445 C1444 1.434 . S
C1446 C1447 1.369 . S
C1446 C1448 1.419 . S
C1446 H1450 0.930 . S
C1447 C1446 1.369 . S
C1447 C1456 1.429 . S
C1448 C1446 1.419 . S
C1448 C1449 1.363 . S
C1448 H1451 0.929 . S
C1449 C1448 1.363 . S
C1449 C1455 1.428 . S
H1450 C1446 0.930 . S
H1451 C1448 0.929 . S
S1452 N1453 1.613 . S
S1452 N1454 1.610 . S
N1453 S1452 1.613 . S
N1453 C1456 1.350 . S
N1454 S1452 1.610 . S
N1454 C1455 1.351 . S
C1455 C1449 1.428 . S
C1455 N1454 1.351 . S
C1455 C1456 1.434 . S
C1456 C1447 1.429 . S
C1456 N1453 1.350 . S
C1456 C1455 1.434 . S
C1457 C1458 1.369 1_556 S
C1457 C1459 1.419 . S
C1457 H1461 0.930 . S
C1458 C1457 1.369 1_554 S
C1458 C1467 1.429 . S
C1459 C1457 1.419 . S
C1459 C1460 1.363 1_556 S
C1459 H1462 0.929 . S
C1460 C1459 1.363 1_554 S
C1460 C1466 1.428 . S
H1461 C1457 0.930 . S
H1462 C1459 0.929 . S
S1463 N1464 1.613 . S
S1463 N1465 1.610 . S
N1464 S1463 1.613 . S
N1464 C1467 1.350 . S
N1465 S1463 1.610 . S
N1465 C1466 1.351 . S
C1466 C1460 1.428 . S
C1466 N1465 1.351 . S
C1466 C1467 1.434 . S
C1467 C1458 1.429 . S
C1467 N1464 1.350 . S
C1467 C1466 1.434 . S
C1468 C1469 1.369 . S
C1468 C1470 1.419 . S
C1468 H1472 0.930 . S
C1469 C1468 1.369 . S
C1469 C1478 1.429 . S
C1470 C1468 1.419 . S
C1470 C1471 1.363 . S
C1470 H1473 0.929 . S
C1471 C1470 1.363 . S
C1471 C1477 1.428 . S
H1472 C1468 0.930 . S
H1473 C1470 0.929 . S
S1474 N1475 1.613 . S
S1474 N1476 1.610 . S
N1475 S1474 1.613 . S
N1475 C1478 1.350 . S
N1476 S1474 1.610 . S
N1476 C1477 1.351 . S
C1477 C1471 1.428 . S
C1477 N1476 1.351 . S
C1477 C1478 1.434 . S
C1478 C1469 1.429 . S
C1478 N1475 1.350 . S
C1478 C1477 1.434 . S
C1479 C1480 1.369 . S
C1479 C1481 1.419 . S
C1479 H1483 0.930 . S
C1480 C1479 1.369 . S
C1480 C1489 1.429 1_655 S
C1481 C1479 1.419 . S
C1481 C1482 1.363 . S
C1481 H1484 0.929 . S
C1482 C1481 1.363 . S
C1482 C1488 1.428 1_655 S
H1483 C1479 0.930 . S
H1484 C1481 0.929 . S
S1485 N1486 1.613 . S
S1485 N1487 1.610 . S
N1486 S1485 1.613 . S
N1486 C1489 1.350 . S
N1487 S1485 1.610 . S
N1487 C1488 1.351 . S
C1488 C1482 1.428 1_455 S
C1488 N1487 1.351 . S
C1488 C1489 1.434 . S
C1489 C1480 1.429 1_455 S
C1489 N1486 1.350 . S
C1489 C1488 1.434 . S
C1490 C1491 1.369 . S
C1490 C1492 1.419 . S
C1490 H1494 0.930 . S
C1491 C1490 1.369 . S
C1491 C1500 1.429 . S
C1492 C1490 1.419 . S
C1492 C1493 1.363 . S
C1492 H1495 0.929 . S
C1493 C1492 1.363 . S
C1493 C1499 1.428 . S
H1494 C1490 0.930 . S
H1495 C1492 0.929 . S
S1496 N1497 1.613 . S
S1496 N1498 1.610 . S
N1497 S1496 1.613 . S
N1497 C1500 1.350 . S
N1498 S1496 1.610 . S
N1498 C1499 1.351 . S
C1499 C1493 1.428 . S
C1499 N1498 1.351 . S
C1499 C1500 1.434 . S
C1500 C1491 1.429 . S
C1500 N1497 1.350 . S
C1500 C1499 1.434 . S
C1501 C1502 1.369 1_655 S
C1501 C1503 1.419 . S
C1501 H1505 0.930 . S
C1502 C1501 1.369 1_455 S
C1502 C1511 1.429 . S
C1503 C1501 1.419 . S
C1503 C1504 1.363 1_655 S
C1503 H1506 0.929 . S
C1504 C1503 1.363 1_455 S
C1504 C1510 1.428 . S
H1505 C1501 0.930 . S
H1506 C1503 0.929 . S
S1507 N1508 1.613 . S
S1507 N1509 1.610 . S
N1508 S1507 1.613 . S
N1508 C1511 1.350 . S
N1509 S1507 1.610 . S
N1509 C1510 1.351 . S
C1510 C1504 1.428 . S
C1510 N1509 1.351 . S
C1510 C1511 1.434 . S
C1511 C1502 1.429 . S
C1511 N1508 1.350 . S
C1511 C1510 1.434 . S
C723 C707 1.485 1_455 S
C721 C8 1.502 . S
C734 C650 1.465 . S
C732 C19 1.474 . S
C745 C688 1.360 1_565 S
C743 C30 1.391 . S
C756 C669 1.465 1_545 S
C754 C41 1.474 . S
C767 C536 1.482 1_545 S
C765 C52 1.504 . S
C776 C63 1.472 . S
C778 C555 1.463 1_554 S
C789 C498 1.466 . S
C787 C74 1.470 . S
C798 C85 1.396 . S
C800 C517 1.352 1_556 S
C811 C631 1.486 1_554 S
C809 C96 1.503 . S
C820 C107 1.471 . S
C822 C593 1.462 1_455 S
C831 C118 1.469 . S
C833 C574 1.465 . S
C844 C612 1.358 1_655 S
C842 C129 1.396 . S
C855 C479 1.484 1_655 S
C853 C140 1.473 . S
C864 C151 1.434 . S
C866 C422 1.468 . S
C877 C460 1.363 1_545 S
C875 C162 1.382 . S
C886 C173 1.448 . S
C888 C441 1.462 1_565 S
C899 C308 1.485 1_565 S
C897 C184 1.475 . S
C910 C327 1.468 1_556 S
C908 C195 1.456 . S
C919 C206 1.426 . S
C921 C270 1.464 . S
C930 C217 1.382 . S
C932 C289 1.360 1_554 S
C941 C228 1.476 . S
C943 C403 1.487 1_556 S
C952 C239 1.456 . S
C954 C365 1.466 1_655 S
C965 C346 1.464 . S
C963 C250 1.426 . S
C974 C261 1.380 . S
C976 C384 1.360 1_455 S
C987 C266 1.441 . S
C985 C7 1.513 . S
C998 C285 1.390 . S
C996 C18 1.476 . S
C1007 C29 1.416 . S
C1009 C304 1.371 . S
C1018 C40 1.418 . S
C1020 C323 1.368 . S
C1031 C342 1.441 . S
C1029 C51 1.510 . S
C1040 C62 1.415 . S
C1042 C361 1.373 . S
C1053 C380 1.397 . S
C1051 C73 1.477 . S
C1064 C399 1.379 . S
C1062 C84 1.417 . S
C1075 C418 1.448 . S
C1073 C95 1.512 . S
C1084 C106 1.418 . S
C1086 C437 1.368 . S
C1095 C117 1.475 . S
C1097 C456 1.395 . S
C1106 C128 1.417 . S
C1108 C475 1.371 . S
C1117 C139 1.416 . S
C1119 C494 1.448 . S
C1128 C150 1.367 . S
C1130 C513 1.386 . S
C1139 C161 1.345 . S
C1141 C532 1.373 . S
C1150 C172 1.351 . S
C1152 C551 1.368 . S
C1161 C183 1.420 . S
C1163 C570 1.441 . S
C1174 C589 1.377 . S
C1172 C194 1.339 . S
C1185 C608 1.388 . S
C1183 C205 1.362 . S
C1196 C627 1.377 . S
C1194 C216 1.347 . S
C1207 C646 1.441 . S
C1205 C227 1.426 . S
C1216 C238 1.347 . S
C1218 C665 1.368 . S
C1227 C249 1.353 . S
C1229 C684 1.394 . S
C1238 C260 1.348 . S
C1240 C703 1.376 . S
C1249 C5 1.366 . S
C1251 C427 1.468 . S
C1262 C484 1.488 . S
C1260 C16 1.396 . S
C1271 C27 1.324 . S
C1273 C446 1.473 . S
C1284 C465 1.440 . S
C1282 C38 1.336 . S
C1293 C49 1.367 . S
C1295 C275 1.460 . S
C1304 C60 1.329 . S
C1306 C294 1.455 . S
C1315 C71 1.383 . S
C1317 C313 1.491 . S
C1326 C82 1.339 . S
C1328 C332 1.477 . S
C1339 C351 1.461 . S
C1337 C93 1.370 . S
C1350 C389 1.438 . S
C1348 C104 1.330 . S
C1359 C115 1.381 . S
C1361 C408 1.488 . S
C1370 C126 1.324 . S
C1372 C370 1.473 . S
C1383 C655 1.444 . S
C1381 C137 1.265 . S
C1394 C712 1.464 . S
C1392 C148 1.258 . S
C1403 C159 1.291 1_545 S
C1405 C674 1.435 . S
C1416 C693 1.435 . S
C1414 C170 1.238 1_565 S
C1425 C181 1.254 . S
C1427 C503 1.438 . S
C1436 C192 1.254 1_556 S
C1438 C522 1.428 . S
C1447 C203 1.254 . S
C1449 C541 1.469 . S
C1460 C560 1.437 . S
C1458 C214 1.297 1_554 S
C1471 C579 1.445 . S
C1469 C225 1.261 . S
C1482 C617 1.435 . S
C1480 C236 1.243 1_655 S
C1491 C247 1.258 . S
C1493 C636 1.471 . S
C1504 C598 1.438 . S
C1502 C258 1.298 1_455 S
