# Generated by pormake.
# Topology tbo, (3,4)-cn, num edge types: 1
# Building blocks:
#     Node 0, Type 0, BuildingBlock: WUSLED_clean_sbu_0, # of connection points: 3
#     Node 1, Type 0, BuildingBlock: WUSLED_clean_sbu_0, # of connection points: 3
#     Node 2, Type 0, BuildingBlock: WUSLED_clean_sbu_0, # of connection points: 3
#     Node 3, Type 0, BuildingBlock: WUSLED_clean_sbu_0, # of connection points: 3
#     Node 4, Type 0, BuildingBlock: WUSLED_clean_sbu_0, # of connection points: 3
#     Node 5, Type 0, BuildingBlock: WUSLED_clean_sbu_0, # of connection points: 3
#     Node 6, Type 0, BuildingBlock: WUSLED_clean_sbu_0, # of connection points: 3
#     Node 7, Type 0, BuildingBlock: WUSLED_clean_sbu_0, # of connection points: 3
#     Node 8, Type 0, BuildingBlock: WUSLED_clean_sbu_0, # of connection points: 3
#     Node 9, Type 0, BuildingBlock: WUSLED_clean_sbu_0, # of connection points: 3
#     Node 10, Type 0, BuildingBlock: WUSLED_clean_sbu_0, # of connection points: 3
#     Node 11, Type 0, BuildingBlock: WUSLED_clean_sbu_0, # of connection points: 3
#     Node 12, Type 0, BuildingBlock: WUSLED_clean_sbu_0, # of connection points: 3
#     Node 13, Type 0, BuildingBlock: WUSLED_clean_sbu_0, # of connection points: 3
#     Node 14, Type 0, BuildingBlock: WUSLED_clean_sbu_0, # of connection points: 3
#     Node 15, Type 0, BuildingBlock: WUSLED_clean_sbu_0, # of connection points: 3
#     Node 16, Type 0, BuildingBlock: WUSLED_clean_sbu_0, # of connection points: 3
#     Node 17, Type 0, BuildingBlock: WUSLED_clean_sbu_0, # of connection points: 3
#     Node 18, Type 0, BuildingBlock: WUSLED_clean_sbu_0, # of connection points: 3
#     Node 19, Type 0, BuildingBlock: WUSLED_clean_sbu_0, # of connection points: 3
#     Node 20, Type 0, BuildingBlock: WUSLED_clean_sbu_0, # of connection points: 3
#     Node 21, Type 0, BuildingBlock: WUSLED_clean_sbu_0, # of connection points: 3
#     Node 22, Type 0, BuildingBlock: WUSLED_clean_sbu_0, # of connection points: 3
#     Node 23, Type 0, BuildingBlock: WUSLED_clean_sbu_0, # of connection points: 3
#     Node 24, Type 0, BuildingBlock: WUSLED_clean_sbu_0, # of connection points: 3
#     Node 25, Type 0, BuildingBlock: WUSLED_clean_sbu_0, # of connection points: 3
#     Node 26, Type 0, BuildingBlock: WUSLED_clean_sbu_0, # of connection points: 3
#     Node 27, Type 0, BuildingBlock: WUSLED_clean_sbu_0, # of connection points: 3
#     Node 28, Type 0, BuildingBlock: WUSLED_clean_sbu_0, # of connection points: 3
#     Node 29, Type 0, BuildingBlock: WUSLED_clean_sbu_0, # of connection points: 3
#     Node 30, Type 0, BuildingBlock: WUSLED_clean_sbu_0, # of connection points: 3
#     Node 31, Type 0, BuildingBlock: WUSLED_clean_sbu_0, # of connection points: 3
#     Node 32, Type 1, BuildingBlock: MIFKUJ_clean_linker_1, # of connection points: 4
#     Node 33, Type 1, BuildingBlock: MIFKUJ_clean_linker_1, # of connection points: 4
#     Node 34, Type 1, BuildingBlock: MIFKUJ_clean_linker_1, # of connection points: 4
#     Node 35, Type 1, BuildingBlock: MIFKUJ_clean_linker_1, # of connection points: 4
#     Node 36, Type 1, BuildingBlock: MIFKUJ_clean_linker_1, # of connection points: 4
#     Node 37, Type 1, BuildingBlock: MIFKUJ_clean_linker_1, # of connection points: 4
#     Node 38, Type 1, BuildingBlock: MIFKUJ_clean_linker_1, # of connection points: 4
#     Node 39, Type 1, BuildingBlock: MIFKUJ_clean_linker_1, # of connection points: 4
#     Node 40, Type 1, BuildingBlock: MIFKUJ_clean_linker_1, # of connection points: 4
#     Node 41, Type 1, BuildingBlock: MIFKUJ_clean_linker_1, # of connection points: 4
#     Node 42, Type 1, BuildingBlock: MIFKUJ_clean_linker_1, # of connection points: 4
#     Node 43, Type 1, BuildingBlock: MIFKUJ_clean_linker_1, # of connection points: 4
#     Node 44, Type 1, BuildingBlock: MIFKUJ_clean_linker_1, # of connection points: 4
#     Node 45, Type 1, BuildingBlock: MIFKUJ_clean_linker_1, # of connection points: 4
#     Node 46, Type 1, BuildingBlock: MIFKUJ_clean_linker_1, # of connection points: 4
#     Node 47, Type 1, BuildingBlock: MIFKUJ_clean_linker_1, # of connection points: 4
#     Node 48, Type 1, BuildingBlock: MIFKUJ_clean_linker_1, # of connection points: 4
#     Node 49, Type 1, BuildingBlock: MIFKUJ_clean_linker_1, # of connection points: 4
#     Node 50, Type 1, BuildingBlock: MIFKUJ_clean_linker_1, # of connection points: 4
#     Node 51, Type 1, BuildingBlock: MIFKUJ_clean_linker_1, # of connection points: 4
#     Node 52, Type 1, BuildingBlock: MIFKUJ_clean_linker_1, # of connection points: 4
#     Node 53, Type 1, BuildingBlock: MIFKUJ_clean_linker_1, # of connection points: 4
#     Node 54, Type 1, BuildingBlock: MIFKUJ_clean_linker_1, # of connection points: 4
#     Node 55, Type 1, BuildingBlock: MIFKUJ_clean_linker_1, # of connection points: 4
#     Edge 56, Type (0, 1), None
#     Edge 57, Type (0, 1), None
#     Edge 58, Type (0, 1), None
#     Edge 59, Type (0, 1), None
#     Edge 60, Type (0, 1), None
#     Edge 61, Type (0, 1), None
#     Edge 62, Type (0, 1), None
#     Edge 63, Type (0, 1), None
#     Edge 64, Type (0, 1), None
#     Edge 65, Type (0, 1), None
#     Edge 66, Type (0, 1), None
#     Edge 67, Type (0, 1), None
#     Edge 68, Type (0, 1), None
#     Edge 69, Type (0, 1), None
#     Edge 70, Type (0, 1), None
#     Edge 71, Type (0, 1), None
#     Edge 72, Type (0, 1), None
#     Edge 73, Type (0, 1), None
#     Edge 74, Type (0, 1), None
#     Edge 75, Type (0, 1), None
#     Edge 76, Type (0, 1), None
#     Edge 77, Type (0, 1), None
#     Edge 78, Type (0, 1), None
#     Edge 79, Type (0, 1), None
#     Edge 80, Type (0, 1), None
#     Edge 81, Type (0, 1), None
#     Edge 82, Type (0, 1), None
#     Edge 83, Type (0, 1), None
#     Edge 84, Type (0, 1), None
#     Edge 85, Type (0, 1), None
#     Edge 86, Type (0, 1), None
#     Edge 87, Type (0, 1), None
#     Edge 88, Type (0, 1), None
#     Edge 89, Type (0, 1), None
#     Edge 90, Type (0, 1), None
#     Edge 91, Type (0, 1), None
#     Edge 92, Type (0, 1), None
#     Edge 93, Type (0, 1), None
#     Edge 94, Type (0, 1), None
#     Edge 95, Type (0, 1), None
#     Edge 96, Type (0, 1), None
#     Edge 97, Type (0, 1), None
#     Edge 98, Type (0, 1), None
#     Edge 99, Type (0, 1), None
#     Edge 100, Type (0, 1), None
#     Edge 101, Type (0, 1), None
#     Edge 102, Type (0, 1), None
#     Edge 103, Type (0, 1), None
#     Edge 104, Type (0, 1), None
#     Edge 105, Type (0, 1), None
#     Edge 106, Type (0, 1), None
#     Edge 107, Type (0, 1), None
#     Edge 108, Type (0, 1), None
#     Edge 109, Type (0, 1), None
#     Edge 110, Type (0, 1), None
#     Edge 111, Type (0, 1), None
#     Edge 112, Type (0, 1), None
#     Edge 113, Type (0, 1), None
#     Edge 114, Type (0, 1), None
#     Edge 115, Type (0, 1), None
#     Edge 116, Type (0, 1), None
#     Edge 117, Type (0, 1), None
#     Edge 118, Type (0, 1), None
#     Edge 119, Type (0, 1), None
#     Edge 120, Type (0, 1), None
#     Edge 121, Type (0, 1), None
#     Edge 122, Type (0, 1), None
#     Edge 123, Type (0, 1), None
#     Edge 124, Type (0, 1), None
#     Edge 125, Type (0, 1), None
#     Edge 126, Type (0, 1), None
#     Edge 127, Type (0, 1), None
#     Edge 128, Type (0, 1), None
#     Edge 129, Type (0, 1), None
#     Edge 130, Type (0, 1), None
#     Edge 131, Type (0, 1), None
#     Edge 132, Type (0, 1), None
#     Edge 133, Type (0, 1), None
#     Edge 134, Type (0, 1), None
#     Edge 135, Type (0, 1), None
#     Edge 136, Type (0, 1), None
#     Edge 137, Type (0, 1), None
#     Edge 138, Type (0, 1), None
#     Edge 139, Type (0, 1), None
#     Edge 140, Type (0, 1), None
#     Edge 141, Type (0, 1), None
#     Edge 142, Type (0, 1), None
#     Edge 143, Type (0, 1), None
#     Edge 144, Type (0, 1), None
#     Edge 145, Type (0, 1), None
#     Edge 146, Type (0, 1), None
#     Edge 147, Type (0, 1), None
#     Edge 148, Type (0, 1), None
#     Edge 149, Type (0, 1), None
#     Edge 150, Type (0, 1), None
#     Edge 151, Type (0, 1), None
# Relax obj value: 0.000
# Max RMSD: 0.011
# Mean RMSD: 0.006
data_MOF--net-tbo--node1-WUSLED_clean_sbu_0--node2-MIFKUJ_clean_linker_1--edge1-none
_symmetry_space_group_name_H-M    P1
_symmetry_Int_Tables_number       1
_symmetry_cell_setting            triclinic
loop_
_symmetry_equiv_pos_as_xyz
'x, y, z'
_cell_length_a     67.159357
_cell_length_b     67.384811
_cell_length_c     67.2715
_cell_angle_alpha  89.645902
_cell_angle_beta   90.2979
_cell_angle_gamma 90.763282
loop_
_atom_site_label
_atom_site_type_symbol
_atom_site_fract_x
_atom_site_fract_y
_atom_site_fract_z
_atom_type_partial_charge
C0 C 0.19761 0.1432 0.22455 0.0
C1 C 0.21342 0.13581 0.21332 0.0
C2 C 0.21767 0.10847 0.23706 0.0
C3 C 0.22338 0.11862 0.21954 0.0
C4 C 0.20193 0.11616 0.24827 0.0
C5 C 0.19204 0.13328 0.24207 0.0
U6 U 0.18696 0.18864 0.19048 0.0
O7 O 0.15794 0.19997 0.18051 0.0
O8 O 0.17738 0.21853 0.19918 0.0
C9 C 0.15994 0.21665 0.1904 0.0
C10 C 0.18648 0.16101 0.21838 0.0
C11 C 0.14246 0.22301 0.2019 0.0
C12 C 0.11597 0.21686 0.2259 0.0
C13 C 0.13304 0.21052 0.21587 0.0
C14 C 0.11777 0.24827 0.20832 0.0
C15 C 0.10797 0.23578 0.22211 0.0
C16 C 0.13476 0.24194 0.19836 0.0
C17 C 0.22064 0.19969 0.14488 0.0
C18 C 0.21682 0.22709 0.12141 0.0
C19 C 0.24353 0.20376 0.11716 0.0
C20 C 0.23718 0.19337 0.13411 0.0
C21 C 0.23349 0.2208 0.11054 0.0
C22 C 0.21047 0.21664 0.13843 0.0
C23 C 0.21443 0.18824 0.16266 0.0
O24 O 0.19585 0.17815 0.22029 0.0
O25 O 0.17627 0.15964 0.20171 0.0
O26 O 0.19741 0.17848 0.1613 0.0
O27 O 0.21691 0.19706 0.17988 0.0
H28 H 0.21795 0.14325 0.19972 0.0
H29 H 0.23531 0.11308 0.21043 0.0
H30 H 0.19731 0.10903 0.26199 0.0
H31 H 0.17994 0.13879 0.251 0.0
H32 H 0.10878 0.20677 0.23628 0.0
H33 H 0.13874 0.19583 0.21883 0.0
H34 H 0.11234 0.26304 0.20525 0.0
H35 H 0.14184 0.25185 0.18771 0.0
H36 H 0.20881 0.24023 0.11691 0.0
H37 H 0.25617 0.19821 0.10906 0.0
H38 H 0.24519 0.18027 0.13878 0.0
H39 H 0.19767 0.22179 0.14657 0.0
C40 C 0.81148 0.1999 0.14556 0.0
C41 C 0.82386 0.21454 0.13703 0.0
C42 C 0.79916 0.22054 0.11091 0.0
C43 C 0.81776 0.22478 0.11986 0.0
C44 C 0.78675 0.20604 0.11979 0.0
C45 C 0.79286 0.19584 0.13689 0.0
U46 U 0.84602 0.18956 0.19037 0.0
O47 O 0.83827 0.17898 0.22042 0.0
O48 O 0.85727 0.16096 0.20144 0.0
C49 C 0.84755 0.16207 0.21829 0.0
C50 C 0.81771 0.18836 0.16319 0.0
C51 C 0.83643 0.14404 0.22442 0.0
C52 C 0.80816 0.12121 0.22156 0.0
C53 C 0.81841 0.13841 0.21527 0.0
C54 C 0.83389 0.11513 0.24612 0.0
C55 C 0.81576 0.10935 0.23713 0.0
C56 C 0.84407 0.13227 0.23983 0.0
C57 C 0.89072 0.22466 0.20098 0.0
C58 C 0.91701 0.21851 0.22522 0.0
C59 C 0.91623 0.2498 0.20737 0.0
C60 C 0.89902 0.24351 0.1973 0.0
C61 C 0.92559 0.23734 0.22135 0.0
C62 C 0.89973 0.21222 0.21511 0.0
C63 C 0.87295 0.21829 0.18958 0.0
O64 O 0.8346 0.17886 0.16161 0.0
O65 O 0.8157 0.19711 0.18046 0.0
O66 O 0.85579 0.21976 0.19871 0.0
O67 O 0.87458 0.2017 0.17956 0.0
H68 H 0.83831 0.21789 0.14352 0.0
H69 H 0.82779 0.23571 0.11337 0.0
H70 H 0.77221 0.20261 0.11358 0.0
H71 H 0.78305 0.18466 0.14331 0.0
H72 H 0.79417 0.11735 0.21441 0.0
H73 H 0.81226 0.14733 0.20334 0.0
H74 H 0.8404 0.10624 0.25787 0.0
H75 H 0.85801 0.13632 0.24702 0.0
H76 H 0.92388 0.20845 0.23574 0.0
H77 H 0.92215 0.26451 0.20423 0.0
H78 H 0.89222 0.25336 0.18652 0.0
H79 H 0.89353 0.1976 0.21816 0.0
C80 C 0.81398 0.83717 0.14506 0.0
C81 C 0.82629 0.82293 0.13646 0.0
C82 C 0.80124 0.8163 0.1107 0.0
C83 C 0.81997 0.81255 0.11945 0.0
C84 C 0.78889 0.83032 0.11972 0.0
C85 C 0.7952 0.84062 0.13666 0.0
U86 U 0.84866 0.84994 0.18967 0.0
O87 O 0.85885 0.87943 0.1998 0.0
O88 O 0.84043 0.86072 0.21934 0.0
C89 C 0.84919 0.87808 0.2167 0.0
C90 C 0.82038 0.84907 0.1624 0.0
C91 C 0.83767 0.89564 0.22253 0.0
C92 C 0.81012 0.91847 0.21807 0.0
C93 C 0.82071 0.90172 0.21196 0.0
C94 C 0.83339 0.92317 0.24528 0.0
C95 C 0.81628 0.92938 0.2349 0.0
C96 C 0.84391 0.90652 0.23917 0.0
C97 C 0.89427 0.81667 0.2011 0.0
C98 C 0.91636 0.81873 0.22991 0.0
C99 C 0.923 0.79517 0.20382 0.0
C100 C 0.90622 0.8017 0.19339 0.0
C101 C 0.92826 0.80345 0.22232 0.0
C102 C 0.89949 0.82525 0.21941 0.0
C103 C 0.87635 0.82261 0.18981 0.0
O104 O 0.81861 0.84051 0.17992 0.0
O105 O 0.83707 0.85929 0.16046 0.0
O106 O 0.87774 0.83919 0.1795 0.0
O107 O 0.85922 0.8205 0.19898 0.0
H108 H 0.84087 0.82003 0.14274 0.0
H109 H 0.82993 0.80197 0.11286 0.0
H110 H 0.77426 0.83337 0.11368 0.0
H111 H 0.78542 0.85147 0.14311 0.0
H112 H 0.79695 0.92268 0.2098 0.0
H113 H 0.81563 0.8935 0.19906 0.0
H114 H 0.83884 0.93134 0.25806 0.0
H115 H 0.85703 0.90215 0.24747 0.0
H116 H 0.91986 0.82537 0.24414 0.0
H117 H 0.93195 0.7837 0.19728 0.0
H118 H 0.90252 0.79494 0.17924 0.0
H119 H 0.89044 0.83684 0.22563 0.0
C120 C 0.14215 0.81348 0.2011 0.0
C121 C 0.13749 0.82215 0.21939 0.0
C122 C 0.10767 0.80107 0.22212 0.0
C123 C 0.12038 0.81602 0.22981 0.0
C124 C 0.11241 0.79266 0.20365 0.0
C125 C 0.12944 0.79879 0.19331 0.0
U126 U 0.18864 0.84647 0.19088 0.0
O127 O 0.21849 0.83741 0.18127 0.0
O128 O 0.20058 0.85679 0.16216 0.0
C129 C 0.21699 0.84651 0.164 0.0
C130 C 0.1602 0.81921 0.1899 0.0
C131 C 0.223 0.83508 0.14641 0.0
C132 C 0.21623 0.81105 0.12022 0.0
C133 C 0.21026 0.82104 0.13742 0.0
C134 C 0.2478 0.82879 0.12109 0.0
C135 C 0.23503 0.81498 0.11169 0.0
C136 C 0.24184 0.83872 0.13821 0.0
C137 C 0.20046 0.89123 0.22511 0.0
C138 C 0.22475 0.9177 0.21888 0.0
C139 C 0.20707 0.91638 0.25015 0.0
C140 C 0.19698 0.89921 0.24394 0.0
C141 C 0.22092 0.92604 0.23763 0.0
C142 C 0.21458 0.90045 0.21266 0.0
C143 C 0.18864 0.87373 0.21874 0.0
O144 O 0.15938 0.836 0.1799 0.0
O145 O 0.17729 0.81676 0.19915 0.0
O146 O 0.19708 0.85637 0.22099 0.0
O147 O 0.17896 0.87548 0.20179 0.0
H148 H 0.14713 0.83354 0.22566 0.0
H149 H 0.11731 0.82273 0.24403 0.0
H150 H 0.10284 0.78141 0.19705 0.0
H151 H 0.13273 0.79198 0.17916 0.0
H152 H 0.20595 0.80062 0.11334 0.0
H153 H 0.19564 0.81801 0.14355 0.0
H154 H 0.2625 0.83195 0.11521 0.0
H155 H 0.25193 0.84941 0.14498 0.0
H156 H 0.2352 0.92479 0.20881 0.0
H157 H 0.20399 0.92211 0.2648 0.0
H158 H 0.18621 0.89226 0.25381 0.0
H159 H 0.21749 0.89451 0.19805 0.0
C160 C 0.14393 0.81232 0.83822 0.0
C161 C 0.13502 0.82479 0.82405 0.0
C162 C 0.10918 0.7997 0.81762 0.0
C163 C 0.1178 0.81853 0.81383 0.0
C164 C 0.11845 0.7872 0.83162 0.0
C165 C 0.13561 0.79347 0.8418 0.0
U166 U 0.18868 0.84728 0.84878 0.0
O167 O 0.19992 0.8584 0.87746 0.0
O168 O 0.2189 0.83982 0.85904 0.0
C169 C 0.21682 0.84891 0.87611 0.0
C170 C 0.16162 0.81869 0.84974 0.0
C171 C 0.22307 0.83777 0.89398 0.0
C172 C 0.21751 0.81235 0.91931 0.0
C173 C 0.21137 0.82228 0.90197 0.0
C174 C 0.24714 0.83317 0.92068 0.0
C175 C 0.23542 0.81778 0.92898 0.0
C176 C 0.24101 0.84304 0.9034 0.0
C177 C 0.19895 0.89224 0.81438 0.0
C178 C 0.22666 0.91554 0.8185 0.0
C179 C 0.2028 0.92038 0.79186 0.0
C180 C 0.19237 0.90333 0.79799 0.0
C181 C 0.22011 0.92674 0.802 0.0
C182 C 0.21618 0.89843 0.82462 0.0
C183 C 0.18755 0.87438 0.82046 0.0
O184 O 0.17887 0.817 0.84082 0.0
O185 O 0.16 0.83541 0.85954 0.0
O186 O 0.17763 0.87574 0.83718 0.0
O187 O 0.19672 0.85738 0.81864 0.0
H188 H 0.14124 0.83941 0.82106 0.0
H189 H 0.111 0.82863 0.80329 0.0
H190 H 0.1125 0.7725 0.83469 0.0
H191 H 0.14233 0.78359 0.85262 0.0
H192 H 0.20802 0.8007 0.92535 0.0
H193 H 0.19744 0.81801 0.8949 0.0
H194 H 0.26117 0.83753 0.92747 0.0
H195 H 0.25028 0.8549 0.89741 0.0
H196 H 0.24002 0.91985 0.82655 0.0
H197 H 0.19708 0.92877 0.77934 0.0
H198 H 0.17905 0.89883 0.78995 0.0
H199 H 0.22152 0.89002 0.83731 0.0
C200 C 0.14072 0.19784 0.81621 0.0
C201 C 0.13611 0.21603 0.82505 0.0
C202 C 0.10662 0.21907 0.80375 0.0
C203 C 0.11919 0.22654 0.8189 0.0
C204 C 0.1113 0.20071 0.79518 0.0
C205 C 0.12813 0.19026 0.80133 0.0
U206 U 0.18692 0.18693 0.84916 0.0
O207 O 0.19821 0.158 0.85923 0.0
O208 O 0.21659 0.17701 0.83993 0.0
C209 C 0.21477 0.15976 0.84901 0.0
C210 C 0.15857 0.18651 0.82194 0.0
C211 C 0.22083 0.14214 0.83767 0.0
C212 C 0.21613 0.11816 0.811 0.0
C213 C 0.21001 0.13521 0.82113 0.0
C214 C 0.24395 0.11496 0.83376 0.0
C215 C 0.23313 0.10771 0.8173 0.0
C216 C 0.23786 0.13193 0.8438 0.0
C217 C 0.19886 0.22091 0.89432 0.0
C218 C 0.22543 0.21639 0.91869 0.0
C219 C 0.20335 0.24434 0.9214 0.0
C220 C 0.19317 0.23809 0.90431 0.0
C221 C 0.21953 0.23351 0.92897 0.0
C222 C 0.21515 0.21011 0.90154 0.0
C223 C 0.18722 0.21457 0.87671 0.0
O224 O 0.17584 0.1956 0.81952 0.0
O225 O 0.15748 0.17643 0.83869 0.0
O226 O 0.17731 0.1977 0.87839 0.0
O227 O 0.1959 0.21679 0.85936 0.0
H228 H 0.14564 0.22214 0.83659 0.0
H229 H 0.11617 0.24068 0.82575 0.0
H230 H 0.10183 0.19426 0.78378 0.0
H231 H 0.13136 0.17621 0.79439 0.0
H232 H 0.20735 0.11296 0.79849 0.0
H233 H 0.19679 0.14288 0.81616 0.0
H234 H 0.25729 0.10759 0.83885 0.0
H235 H 0.24647 0.13708 0.85646 0.0
H236 H 0.23772 0.20761 0.92415 0.0
H237 H 0.19858 0.25776 0.92864 0.0
H238 H 0.1807 0.24669 0.89894 0.0
H239 H 0.21977 0.19678 0.89403 0.0
C240 C 0.81381 0.14258 0.84054 0.0
C241 C 0.82233 0.13841 0.82204 0.0
C242 C 0.80113 0.10877 0.81878 0.0
C243 C 0.81605 0.12164 0.81125 0.0
C244 C 0.79285 0.11303 0.83744 0.0
C245 C 0.79911 0.12973 0.84815 0.0
U246 U 0.8477 0.18801 0.85197 0.0
O247 O 0.83928 0.2177 0.86221 0.0
O248 O 0.85815 0.199 0.88106 0.0
C249 C 0.84824 0.21563 0.8795 0.0
C250 C 0.81977 0.16021 0.85219 0.0
C251 C 0.83682 0.22153 0.89717 0.0
C252 C 0.80747 0.21958 0.91829 0.0
C253 C 0.81803 0.21327 0.90154 0.0
C254 C 0.83447 0.24228 0.92651 0.0
C255 C 0.81552 0.23429 0.93094 0.0
C256 C 0.84495 0.23598 0.90983 0.0
C257 C 0.89301 0.19941 0.81801 0.0
C258 C 0.91531 0.22814 0.82029 0.0
C259 C 0.92168 0.20246 0.79621 0.0
C260 C 0.90483 0.19195 0.80274 0.0
C261 C 0.92714 0.22076 0.80479 0.0
C262 C 0.89838 0.21756 0.82683 0.0
C263 C 0.87521 0.18792 0.82422 0.0
O264 O 0.83651 0.15884 0.86228 0.0
O265 O 0.81772 0.1775 0.84331 0.0
O266 O 0.858 0.19678 0.82212 0.0
O267 O 0.87673 0.17798 0.84101 0.0
H268 H 0.83372 0.14816 0.8159 0.0
H269 H 0.82266 0.11895 0.79689 0.0
H270 H 0.78164 0.10332 0.84393 0.0
H271 H 0.79243 0.13263 0.86246 0.0
H272 H 0.79288 0.21318 0.92113 0.0
H273 H 0.81148 0.20207 0.89194 0.0
H274 H 0.84136 0.25331 0.93605 0.0
H275 H 0.85948 0.24247 0.90678 0.0
H276 H 0.91896 0.24222 0.82715 0.0
H277 H 0.93058 0.19608 0.78455 0.0
H278 H 0.901 0.17792 0.79582 0.0
H279 H 0.88943 0.22356 0.83866 0.0
C280 C 0.83622 0.89446 0.81402 0.0
C281 C 0.82152 0.90246 0.82627 0.0
C282 C 0.81567 0.92913 0.80213 0.0
C283 C 0.81132 0.91962 0.82037 0.0
C284 C 0.83027 0.92081 0.78987 0.0
C285 C 0.8404 0.90372 0.79577 0.0
U286 U 0.84752 0.84898 0.84766 0.0
O287 O 0.85728 0.81917 0.83887 0.0
O288 O 0.87662 0.83782 0.85756 0.0
C289 C 0.8747 0.82112 0.84768 0.0
C290 C 0.84766 0.87675 0.8199 0.0
C291 C 0.89223 0.81476 0.83625 0.0
C292 C 0.91881 0.82084 0.81233 0.0
C293 C 0.9017 0.8272 0.82228 0.0
C294 C 0.91696 0.78948 0.83 0.0
C295 C 0.9268 0.80193 0.81622 0.0
C296 C 0.89992 0.79584 0.83988 0.0
C297 C 0.81374 0.83778 0.89328 0.0
C298 C 0.81893 0.81231 0.9186 0.0
C299 C 0.78968 0.83286 0.91984 0.0
C300 C 0.79593 0.84282 0.90261 0.0
C301 C 0.80115 0.81756 0.92821 0.0
C302 C 0.82519 0.82236 0.9013 0.0
C303 C 0.82002 0.84914 0.87547 0.0
O304 O 0.85796 0.87809 0.83652 0.0
O305 O 0.8385 0.85951 0.81788 0.0
O306 O 0.81762 0.84028 0.85826 0.0
O307 O 0.837 0.85898 0.87685 0.0
H308 H 0.81807 0.89554 0.84044 0.0
H309 H 0.80032 0.92565 0.83028 0.0
H310 H 0.83381 0.92743 0.77559 0.0
H311 H 0.85163 0.89775 0.78605 0.0
H312 H 0.92604 0.8309 0.80194 0.0
H313 H 0.89601 0.84189 0.81925 0.0
H314 H 0.92238 0.77472 0.83314 0.0
H315 H 0.89281 0.78596 0.85054 0.0
H316 H 0.82823 0.80072 0.92468 0.0
H317 H 0.77576 0.8371 0.92654 0.0
H318 H 0.78682 0.85461 0.89661 0.0
H319 H 0.83902 0.81824 0.89431 0.0
C320 C 0.19777 0.64323 0.72458 0.0
C321 C 0.21363 0.6359 0.71339 0.0
C322 C 0.21789 0.60855 0.73711 0.0
C323 C 0.22363 0.61873 0.71962 0.0
C324 C 0.20209 0.61618 0.74829 0.0
C325 C 0.19217 0.63328 0.74207 0.0
U326 U 0.18709 0.68864 0.69049 0.0
O327 O 0.15808 0.69994 0.68049 0.0
O328 O 0.17747 0.71853 0.69918 0.0
C329 C 0.16005 0.71662 0.69037 0.0
C330 C 0.18662 0.66102 0.7184 0.0
C331 C 0.14254 0.72297 0.70185 0.0
C332 C 0.11603 0.71681 0.72583 0.0
C333 C 0.13312 0.71048 0.71581 0.0
C334 C 0.11781 0.74821 0.70823 0.0
C335 C 0.10802 0.73572 0.72202 0.0
C336 C 0.13483 0.74189 0.69829 0.0
C337 C 0.22085 0.69974 0.64495 0.0
C338 C 0.21702 0.72713 0.62147 0.0
C339 C 0.24379 0.70386 0.61729 0.0
C340 C 0.23742 0.69346 0.63422 0.0
C341 C 0.23373 0.72088 0.61065 0.0
C342 C 0.21065 0.71667 0.63848 0.0
C343 C 0.21462 0.68828 0.66272 0.0
O344 O 0.19595 0.67817 0.72033 0.0
O345 O 0.17643 0.65963 0.70172 0.0
O346 O 0.19761 0.6785 0.66134 0.0
O347 O 0.21706 0.69711 0.67995 0.0
H348 H 0.21818 0.64336 0.69981 0.0
H349 H 0.2356 0.61323 0.71054 0.0
H350 H 0.19746 0.60903 0.76199 0.0
H351 H 0.18003 0.63874 0.75097 0.0
H352 H 0.10885 0.70671 0.73621 0.0
H353 H 0.13883 0.69579 0.71879 0.0
H354 H 0.11238 0.76297 0.70514 0.0
H355 H 0.14191 0.7518 0.68763 0.0
H356 H 0.20899 0.74025 0.61695 0.0
H357 H 0.25646 0.69834 0.60923 0.0
H358 H 0.24545 0.68038 0.63892 0.0
H359 H 0.19782 0.72179 0.64658 0.0
C360 C 0.81131 0.70006 0.64564 0.0
C361 C 0.82369 0.71469 0.63708 0.0
C362 C 0.79893 0.72072 0.61103 0.0
C363 C 0.81755 0.72494 0.61993 0.0
C364 C 0.78652 0.70623 0.61993 0.0
C365 C 0.79267 0.69603 0.63702 0.0
U366 U 0.84594 0.68968 0.69038 0.0
O367 O 0.83823 0.67911 0.72044 0.0
O368 O 0.85716 0.66107 0.70143 0.0
C369 C 0.84747 0.66219 0.7183 0.0
C370 C 0.81757 0.68852 0.66325 0.0
C371 C 0.83633 0.64418 0.72444 0.0
C372 C 0.80801 0.62141 0.72163 0.0
C373 C 0.81828 0.63858 0.71532 0.0
C374 C 0.83376 0.61527 0.74614 0.0
C375 C 0.8156 0.60954 0.73719 0.0
C376 C 0.84397 0.63239 0.73984 0.0
C377 C 0.89069 0.72472 0.70092 0.0
C378 C 0.91699 0.71853 0.72514 0.0
C379 C 0.91623 0.74983 0.7073 0.0
C380 C 0.89901 0.74356 0.69725 0.0
C381 C 0.92559 0.73736 0.72126 0.0
C382 C 0.8997 0.71226 0.71504 0.0
C383 C 0.8729 0.71837 0.68954 0.0
O384 O 0.83444 0.679 0.66164 0.0
O385 O 0.8156 0.69727 0.68053 0.0
O386 O 0.85575 0.71987 0.6987 0.0
O387 O 0.87449 0.70179 0.67952 0.0
H388 H 0.83816 0.71802 0.64353 0.0
H389 H 0.82757 0.73586 0.61341 0.0
H390 H 0.77196 0.70282 0.61376 0.0
H391 H 0.78286 0.68485 0.64346 0.0
H392 H 0.794 0.61758 0.7145 0.0
H393 H 0.81213 0.64752 0.70339 0.0
H394 H 0.84027 0.60638 0.75789 0.0
H395 H 0.85792 0.63642 0.74701 0.0
H396 H 0.92386 0.70845 0.73565 0.0
H397 H 0.92217 0.76453 0.70417 0.0
H398 H 0.89222 0.75343 0.68647 0.0
H399 H 0.89349 0.69765 0.71809 0.0
C400 C 0.81262 0.33704 0.64526 0.0
C401 C 0.82502 0.32282 0.63674 0.0
C402 C 0.80019 0.31621 0.61076 0.0
C403 C 0.81885 0.31247 0.61966 0.0
C404 C 0.78774 0.3302 0.6197 0.0
C405 C 0.7939 0.34048 0.63671 0.0
U406 U 0.84685 0.34937 0.69026 0.0
O407 O 0.85751 0.37869 0.70043 0.0
O408 O 0.83851 0.36037 0.7198 0.0
C409 C 0.84764 0.37756 0.71723 0.0
C410 C 0.8189 0.34894 0.66265 0.0
C411 C 0.83641 0.39535 0.72291 0.0
C412 C 0.80904 0.41839 0.71846 0.0
C413 C 0.81941 0.40149 0.71242 0.0
C414 C 0.83261 0.42317 0.74541 0.0
C415 C 0.81545 0.4294 0.73514 0.0
C416 C 0.84292 0.40636 0.73936 0.0
C417 C 0.89173 0.31527 0.70212 0.0
C418 C 0.91684 0.32026 0.72797 0.0
C419 C 0.91828 0.29145 0.70673 0.0
C420 C 0.90113 0.29768 0.69675 0.0
C421 C 0.92652 0.30271 0.72237 0.0
C422 C 0.89961 0.32651 0.71789 0.0
C423 C 0.87398 0.32149 0.69073 0.0
O424 O 0.81675 0.34046 0.68016 0.0
O425 O 0.83577 0.35889 0.66091 0.0
O426 O 0.87575 0.33802 0.68038 0.0
O427 O 0.85676 0.31974 0.69982 0.0
H428 H 0.83955 0.31993 0.64313 0.0
H429 H 0.82889 0.30191 0.61314 0.0
H430 H 0.77316 0.33324 0.61355 0.0
H431 H 0.78406 0.35132 0.6431 0.0
H432 H 0.79583 0.42264 0.71027 0.0
H433 H 0.81413 0.39317 0.69967 0.0
H434 H 0.83825 0.43141 0.75806 0.0
H435 H 0.85606 0.40194 0.7476 0.0
H436 H 0.92282 0.32937 0.73985 0.0
H437 H 0.92504 0.2777 0.70222 0.0
H438 H 0.89523 0.28873 0.68469 0.0
H439 H 0.89256 0.34016 0.72227 0.0
C440 C 0.14486 0.31198 0.70223 0.0
C441 C 0.13766 0.32336 0.718 0.0
C442 C 0.10966 0.30017 0.72235 0.0
C443 C 0.12022 0.31748 0.72801 0.0
C444 C 0.11722 0.28875 0.70672 0.0
C445 C 0.13459 0.29461 0.69679 0.0
U446 U 0.19067 0.34576 0.69159 0.0
O447 O 0.22058 0.33723 0.68165 0.0
O448 O 0.20211 0.35627 0.66274 0.0
C449 C 0.2187 0.34624 0.66438 0.0
C450 C 0.16277 0.31796 0.69095 0.0
C451 C 0.22458 0.33482 0.64674 0.0
C452 C 0.21756 0.31086 0.62056 0.0
C453 C 0.21175 0.32081 0.63783 0.0
C454 C 0.24915 0.32858 0.62117 0.0
C455 C 0.23627 0.3148 0.61186 0.0
C456 C 0.24334 0.33847 0.63837 0.0
C457 C 0.20192 0.39082 0.7256 0.0
C458 C 0.22596 0.41749 0.71923 0.0
C459 C 0.20812 0.41629 0.75041 0.0
C460 C 0.19824 0.39896 0.74431 0.0
C461 C 0.22195 0.42596 0.73788 0.0
C462 C 0.216 0.40008 0.71313 0.0
C463 C 0.19039 0.37309 0.71938 0.0
O464 O 0.16159 0.33468 0.68087 0.0
O465 O 0.17993 0.31588 0.70014 0.0
O466 O 0.19921 0.35592 0.72159 0.0
O467 O 0.18052 0.37461 0.70253 0.0
H468 H 0.1454 0.33685 0.72242 0.0
H469 H 0.11478 0.32671 0.73987 0.0
H470 H 0.10974 0.27517 0.70217 0.0
H471 H 0.13996 0.28558 0.68472 0.0
H472 H 0.20721 0.30045 0.61374 0.0
H473 H 0.19718 0.31777 0.64408 0.0
H474 H 0.26379 0.33174 0.61517 0.0
H475 H 0.2535 0.34915 0.64507 0.0
H476 H 0.2364 0.42458 0.70915 0.0
H477 H 0.20491 0.42212 0.76499 0.0
H478 H 0.1875 0.39199 0.7542 0.0
H479 H 0.21906 0.39401 0.6986 0.0
C480 C 0.14393 0.31233 0.33832 0.0
C481 C 0.13502 0.32481 0.32414 0.0
C482 C 0.10915 0.29975 0.31773 0.0
C483 C 0.11779 0.31857 0.31393 0.0
C484 C 0.11841 0.28725 0.33174 0.0
C485 C 0.13558 0.2935 0.34191 0.0
U486 U 0.18874 0.34723 0.34885 0.0
O487 O 0.20003 0.35831 0.37753 0.0
O488 O 0.21896 0.33972 0.35907 0.0
C489 C 0.21692 0.3488 0.37615 0.0
C490 C 0.16164 0.31868 0.34983 0.0
C491 C 0.22319 0.33766 0.39401 0.0
C492 C 0.21768 0.31226 0.41936 0.0
C493 C 0.2115 0.32219 0.40204 0.0
C494 C 0.24735 0.33303 0.42063 0.0
C495 C 0.23563 0.31766 0.42898 0.0
C496 C 0.24117 0.34291 0.40337 0.0
C497 C 0.19905 0.3922 0.31446 0.0
C498 C 0.22682 0.41543 0.31853 0.0
C499 C 0.20292 0.42033 0.29193 0.0
C500 C 0.19246 0.4033 0.29808 0.0
C501 C 0.22027 0.42665 0.30204 0.0
C502 C 0.21631 0.39835 0.32467 0.0
C503 C 0.18763 0.37435 0.32055 0.0
O504 O 0.17887 0.31697 0.34088 0.0
O505 O 0.16005 0.3354 0.35963 0.0
O506 O 0.17773 0.37572 0.33728 0.0
O507 O 0.19676 0.35734 0.31871 0.0
H508 H 0.14127 0.33943 0.32115 0.0
H509 H 0.111 0.32867 0.30339 0.0
H510 H 0.11244 0.27255 0.33482 0.0
H511 H 0.14229 0.28361 0.35272 0.0
H512 H 0.20819 0.30063 0.42544 0.0
H513 H 0.19754 0.31794 0.39501 0.0
H514 H 0.2614 0.33739 0.42738 0.0
H515 H 0.25045 0.35475 0.39735 0.0
H516 H 0.2402 0.41972 0.32655 0.0
H517 H 0.1972 0.42872 0.27942 0.0
H518 H 0.17912 0.39883 0.29006 0.0
H519 H 0.22165 0.38993 0.33735 0.0
C520 C 0.14312 0.69876 0.31483 0.0
C521 C 0.13607 0.71457 0.32621 0.0
C522 C 0.10832 0.71914 0.30296 0.0
C523 C 0.11883 0.72471 0.3203 0.0
C524 C 0.11573 0.70345 0.29154 0.0
C525 C 0.13289 0.6934 0.29743 0.0
U526 U 0.18866 0.68744 0.34854 0.0
O527 O 0.19948 0.65837 0.35875 0.0
O528 O 0.21839 0.67723 0.3398 0.0
C529 C 0.21621 0.65997 0.34879 0.0
C530 C 0.16083 0.68734 0.32079 0.0
C531 C 0.22217 0.64231 0.33745 0.0
C532 C 0.21719 0.61827 0.31088 0.0
C533 C 0.21122 0.63538 0.32099 0.0
C534 C 0.24512 0.61499 0.3335 0.0
C535 C 0.23416 0.60774 0.31713 0.0
C536 C 0.23918 0.63204 0.34351 0.0
C537 C 0.20007 0.72117 0.39399 0.0
C538 C 0.22648 0.7166 0.41852 0.0
C539 C 0.20417 0.74435 0.42134 0.0
C540 C 0.19416 0.7382 0.40412 0.0
C541 C 0.22038 0.73358 0.42891 0.0
C542 C 0.21638 0.71042 0.40123 0.0
C543 C 0.1887 0.71499 0.37616 0.0
O544 O 0.17818 0.69636 0.31873 0.0
O545 O 0.15939 0.67718 0.33748 0.0
O546 O 0.1786 0.6982 0.37761 0.0
O547 O 0.19772 0.71718 0.35898 0.0
H548 H 0.14376 0.71893 0.33972 0.0
H549 H 0.11351 0.7366 0.32954 0.0
H550 H 0.10831 0.69896 0.27794 0.0
H551 H 0.13814 0.68131 0.28839 0.0
H552 H 0.2083 0.61306 0.29844 0.0
H553 H 0.19802 0.64311 0.31608 0.0
H554 H 0.25844 0.60756 0.33854 0.0
H555 H 0.24789 0.63718 0.35612 0.0
H556 H 0.2388 0.70787 0.42398 0.0
H557 H 0.19924 0.75767 0.42866 0.0
H558 H 0.18167 0.74676 0.39873 0.0
H559 H 0.22117 0.69721 0.39362 0.0
C560 C 0.81222 0.64282 0.34032 0.0
C561 C 0.82084 0.63864 0.32186 0.0
C562 C 0.79987 0.60884 0.31865 0.0
C563 C 0.81473 0.62179 0.31112 0.0
C564 C 0.79149 0.61311 0.33726 0.0
C565 C 0.79758 0.6299 0.34793 0.0
U566 U 0.84567 0.68861 0.35126 0.0
O567 O 0.83715 0.71818 0.36174 0.0
O568 O 0.85659 0.69965 0.38016 0.0
C569 C 0.84648 0.71617 0.37884 0.0
C570 C 0.81809 0.66049 0.35195 0.0
C571 C 0.83534 0.72192 0.39674 0.0
C572 C 0.80621 0.71997 0.41815 0.0
C573 C 0.81654 0.71374 0.40124 0.0
C574 C 0.83346 0.74241 0.42629 0.0
C575 C 0.81449 0.73452 0.43084 0.0
C576 C 0.84372 0.73619 0.40945 0.0
C577 C 0.89024 0.70045 0.31648 0.0
C578 C 0.9157 0.72604 0.32161 0.0
C579 C 0.91661 0.70546 0.29226 0.0
C580 C 0.89938 0.69545 0.29856 0.0
C581 C 0.92517 0.72074 0.30378 0.0
C582 C 0.8984 0.71594 0.32793 0.0
C583 C 0.8726 0.68887 0.32295 0.0
O584 O 0.83501 0.65932 0.36175 0.0
O585 O 0.81565 0.67777 0.34315 0.0
O586 O 0.85531 0.69763 0.32122 0.0
O587 O 0.8745 0.67887 0.33967 0.0
H588 H 0.83219 0.64844 0.31574 0.0
H589 H 0.82141 0.61909 0.2968 0.0
H590 H 0.78032 0.60335 0.34375 0.0
H591 H 0.79083 0.6328 0.3622 0.0
H592 H 0.7916 0.71366 0.42108 0.0
H593 H 0.80982 0.70268 0.3916 0.0
H594 H 0.84051 0.75332 0.43586 0.0
H595 H 0.85825 0.74261 0.4063 0.0
H596 H 0.92193 0.73764 0.33091 0.0
H597 H 0.92324 0.7012 0.2783 0.0
H598 H 0.89326 0.68361 0.28946 0.0
H599 H 0.89154 0.72002 0.34184 0.0
C600 C 0.83599 0.39445 0.31398 0.0
C601 C 0.82123 0.40238 0.3262 0.0
C602 C 0.81538 0.42908 0.30208 0.0
C603 C 0.811 0.41952 0.32029 0.0
C604 C 0.83005 0.42082 0.28986 0.0
C605 C 0.84021 0.40375 0.29576 0.0
U606 U 0.84734 0.34897 0.34762 0.0
O607 O 0.85715 0.31918 0.33883 0.0
O608 O 0.87646 0.33785 0.35753 0.0
C609 C 0.87456 0.32115 0.34765 0.0
C610 C 0.84745 0.37675 0.31987 0.0
C611 C 0.89211 0.3148 0.33624 0.0
C612 C 0.91872 0.32088 0.31235 0.0
C613 C 0.90159 0.32725 0.32228 0.0
C614 C 0.91687 0.28954 0.33003 0.0
C615 C 0.92671 0.30198 0.31625 0.0
C616 C 0.89981 0.29588 0.33989 0.0
C617 C 0.81354 0.33772 0.39321 0.0
C618 C 0.81873 0.31228 0.41857 0.0
C619 C 0.78944 0.33276 0.41973 0.0
C620 C 0.79569 0.34273 0.40252 0.0
C621 C 0.80092 0.31749 0.42814 0.0
C622 C 0.82501 0.32233 0.40127 0.0
C623 C 0.81983 0.34909 0.37541 0.0
O624 O 0.85774 0.3781 0.33649 0.0
O625 O 0.83833 0.3595 0.31784 0.0
O626 O 0.81744 0.34023 0.3582 0.0
O627 O 0.83679 0.35895 0.37681 0.0
H628 H 0.81775 0.39543 0.34034 0.0
H629 H 0.79994 0.4255 0.33018 0.0
H630 H 0.83361 0.42747 0.2756 0.0
H631 H 0.85148 0.39782 0.28607 0.0
H632 H 0.92594 0.33095 0.30196 0.0
H633 H 0.89589 0.34193 0.31924 0.0
H634 H 0.92229 0.27478 0.33318 0.0
H635 H 0.89269 0.286 0.35054 0.0
H636 H 0.82804 0.30071 0.42466 0.0
H637 H 0.77549 0.33697 0.4264 0.0
H638 H 0.78657 0.3545 0.39649 0.0
H639 H 0.83886 0.31823 0.39431 0.0
C640 C 0.69806 0.14403 0.72427 0.0
C641 C 0.71386 0.13661 0.71305 0.0
C642 C 0.71813 0.10932 0.73685 0.0
C643 C 0.72383 0.11943 0.7193 0.0
C644 C 0.7024 0.11705 0.74806 0.0
C645 C 0.69252 0.13416 0.74183 0.0
U646 U 0.68736 0.18956 0.69027 0.0
O647 O 0.65832 0.20079 0.68027 0.0
O648 O 0.67761 0.21936 0.69908 0.0
C649 C 0.6602 0.21743 0.69024 0.0
C650 C 0.68691 0.16182 0.71807 0.0
C651 C 0.64265 0.22365 0.70173 0.0
C652 C 0.61618 0.2173 0.72571 0.0
C653 C 0.63329 0.21108 0.71566 0.0
C654 C 0.61782 0.24876 0.70821 0.0
C655 C 0.60809 0.23619 0.72197 0.0
C656 C 0.63485 0.24255 0.69823 0.0
C657 C 0.72133 0.20088 0.64484 0.0
C658 C 0.71559 0.22545 0.61874 0.0
C659 C 0.74618 0.20687 0.61919 0.0
C660 C 0.73985 0.19685 0.63636 0.0
C661 C 0.73409 0.22121 0.61 0.0
C662 C 0.70925 0.21536 0.63599 0.0
C663 C 0.71498 0.18943 0.66258 0.0
O664 O 0.69619 0.17899 0.72009 0.0
O665 O 0.6768 0.16046 0.70135 0.0
O666 O 0.698 0.1796 0.66112 0.0
O667 O 0.71735 0.19821 0.67984 0.0
H668 H 0.71837 0.14402 0.69943 0.0
H669 H 0.73574 0.11386 0.71019 0.0
H670 H 0.69779 0.10996 0.7618 0.0
H671 H 0.68043 0.13969 0.75076 0.0
H672 H 0.60905 0.20714 0.73607 0.0
H673 H 0.63907 0.19641 0.71859 0.0
H674 H 0.61232 0.26351 0.70518 0.0
H675 H 0.64188 0.25252 0.68761 0.0
H676 H 0.7058 0.23627 0.61203 0.0
H677 H 0.76064 0.20343 0.61318 0.0
H678 H 0.74944 0.18579 0.64299 0.0
H679 H 0.69488 0.2187 0.64229 0.0
C680 C 0.31168 0.19996 0.64544 0.0
C681 C 0.32413 0.21453 0.63686 0.0
C682 C 0.29943 0.22055 0.61074 0.0
C683 C 0.31805 0.22474 0.61967 0.0
C684 C 0.28696 0.20613 0.61967 0.0
C685 C 0.29305 0.19596 0.6368 0.0
U686 U 0.34613 0.1897 0.69035 0.0
O687 O 0.3383 0.1792 0.72041 0.0
O688 O 0.35731 0.16111 0.70152 0.0
C689 C 0.34754 0.16227 0.71834 0.0
C690 C 0.31788 0.18846 0.66311 0.0
C691 C 0.33636 0.14428 0.72446 0.0
C692 C 0.30806 0.12151 0.72153 0.0
C693 C 0.31837 0.13867 0.71525 0.0
C694 C 0.33367 0.11541 0.7462 0.0
C695 C 0.31556 0.10966 0.73714 0.0
C696 C 0.34392 0.13252 0.73992 0.0
C697 C 0.39084 0.22477 0.70099 0.0
C698 C 0.41713 0.21858 0.72522 0.0
C699 C 0.41628 0.24994 0.70749 0.0
C700 C 0.39909 0.24365 0.6974 0.0
C701 C 0.42567 0.23745 0.72142 0.0
C702 C 0.39987 0.21229 0.71508 0.0
C703 C 0.37309 0.21839 0.68956 0.0
O704 O 0.33476 0.17894 0.66159 0.0
O705 O 0.31584 0.19725 0.68035 0.0
O706 O 0.35591 0.21991 0.69863 0.0
O707 O 0.37473 0.20178 0.67958 0.0
H708 H 0.33859 0.21783 0.64332 0.0
H709 H 0.32812 0.23561 0.61313 0.0
H710 H 0.2724 0.20274 0.61348 0.0
H711 H 0.28319 0.18483 0.64326 0.0
H712 H 0.29409 0.11767 0.71432 0.0
H713 H 0.31228 0.14759 0.70328 0.0
H714 H 0.34012 0.10653 0.75799 0.0
H715 H 0.35783 0.13655 0.74716 0.0
H716 H 0.42402 0.20849 0.7357 0.0
H717 H 0.42217 0.26467 0.70442 0.0
H718 H 0.39228 0.25353 0.68665 0.0
H719 H 0.3937 0.19764 0.71807 0.0
C720 C 0.31609 0.83935 0.64249 0.0
C721 C 0.32644 0.82241 0.63662 0.0
C722 C 0.30332 0.81748 0.60876 0.0
C723 C 0.32013 0.81159 0.61987 0.0
C724 C 0.29317 0.83457 0.61475 0.0
C725 C 0.29948 0.84533 0.6314 0.0
U726 U 0.34974 0.85142 0.68802 0.0
O727 O 0.35974 0.88071 0.69887 0.0
O728 O 0.34084 0.8617 0.71767 0.0
C729 C 0.3497 0.87908 0.71554 0.0
C730 C 0.3221 0.85108 0.66007 0.0
C731 C 0.33811 0.89656 0.72146 0.0
C732 C 0.31041 0.91925 0.71718 0.0
C733 C 0.3211 0.90262 0.71093 0.0
C734 C 0.33364 0.92389 0.74443 0.0
C735 C 0.31649 0.93006 0.7341 0.0
C736 C 0.34428 0.90736 0.73818 0.0
C737 C 0.39499 0.81779 0.69994 0.0
C738 C 0.4168 0.81973 0.72897 0.0
C739 C 0.42339 0.79592 0.70311 0.0
C740 C 0.4068 0.8026 0.69246 0.0
C741 C 0.42859 0.80427 0.72159 0.0
C742 C 0.40012 0.82641 0.71825 0.0
C743 C 0.37734 0.82398 0.68836 0.0
O744 O 0.31991 0.84231 0.67745 0.0
O745 O 0.33889 0.86122 0.65863 0.0
O746 O 0.37902 0.84074 0.67837 0.0
O747 O 0.35999 0.82179 0.69711 0.0
H748 H 0.33931 0.81753 0.64501 0.0
H749 H 0.32824 0.79844 0.61582 0.0
H750 H 0.28042 0.83982 0.60642 0.0
H751 H 0.29134 0.85842 0.63562 0.0
H752 H 0.29721 0.92344 0.70894 0.0
H753 H 0.31607 0.89447 0.69797 0.0
H754 H 0.33904 0.93198 0.75727 0.0
H755 H 0.35741 0.90299 0.74646 0.0
H756 H 0.42025 0.82644 0.74319 0.0
H757 H 0.43226 0.7843 0.69672 0.0
H758 H 0.40316 0.79581 0.67832 0.0
H759 H 0.39117 0.83817 0.7243 0.0
C760 C 0.64229 0.81396 0.70122 0.0
C761 C 0.63758 0.82266 0.7195 0.0
C762 C 0.60779 0.80154 0.72221 0.0
C763 C 0.62047 0.81651 0.72989 0.0
C764 C 0.61257 0.79311 0.70376 0.0
C765 C 0.62962 0.79924 0.69344 0.0
U766 U 0.68876 0.84699 0.69089 0.0
O767 O 0.71861 0.8379 0.6813 0.0
O768 O 0.70068 0.85718 0.66211 0.0
C769 C 0.7171 0.84692 0.66399 0.0
C770 C 0.66035 0.8197 0.69003 0.0
C771 C 0.72311 0.83541 0.64645 0.0
C772 C 0.71633 0.81132 0.62031 0.0
C773 C 0.71035 0.82137 0.63748 0.0
C774 C 0.74793 0.82902 0.62116 0.0
C775 C 0.73514 0.8152 0.61179 0.0
C776 C 0.74196 0.83899 0.63825 0.0
C777 C 0.70056 0.89194 0.72491 0.0
C778 C 0.72481 0.91842 0.71858 0.0
C779 C 0.70717 0.91717 0.74986 0.0
C780 C 0.69709 0.89997 0.74372 0.0
C781 C 0.721 0.92681 0.73731 0.0
C782 C 0.71465 0.90114 0.71242 0.0
C783 C 0.68875 0.8744 0.71861 0.0
O784 O 0.65951 0.83645 0.67997 0.0
O785 O 0.67743 0.81732 0.69931 0.0
O786 O 0.69721 0.85706 0.72095 0.0
O787 O 0.67908 0.87606 0.70166 0.0
H788 H 0.6472 0.83407 0.72576 0.0
H789 H 0.61736 0.82324 0.7441 0.0
H790 H 0.60303 0.78184 0.69716 0.0
H791 H 0.63293 0.79242 0.67931 0.0
H792 H 0.70604 0.8009 0.61345 0.0
H793 H 0.69572 0.81838 0.6436 0.0
H794 H 0.76264 0.83214 0.6153 0.0
H795 H 0.75207 0.84969 0.645 0.0
H796 H 0.73525 0.92549 0.70847 0.0
H797 H 0.70411 0.92294 0.76451 0.0
H798 H 0.68634 0.89304 0.75362 0.0
H799 H 0.71756 0.89516 0.69783 0.0
C800 C 0.64383 0.81224 0.33839 0.0
C801 C 0.63488 0.82475 0.32428 0.0
C802 C 0.60909 0.79964 0.31776 0.0
C803 C 0.61767 0.81851 0.31405 0.0
C804 C 0.61839 0.78711 0.33171 0.0
C805 C 0.63555 0.79336 0.34191 0.0
U806 U 0.68856 0.84721 0.34896 0.0
O807 O 0.69981 0.85832 0.37765 0.0
O808 O 0.71879 0.83976 0.3592 0.0
C809 C 0.71672 0.84885 0.37628 0.0
C810 C 0.66152 0.8186 0.34993 0.0
C811 C 0.72299 0.83771 0.39414 0.0
C812 C 0.71745 0.81232 0.4195 0.0
C813 C 0.71129 0.82224 0.40216 0.0
C814 C 0.74712 0.8331 0.42078 0.0
C815 C 0.7354 0.81773 0.42913 0.0
C816 C 0.74096 0.84296 0.40351 0.0
C817 C 0.6988 0.89219 0.3146 0.0
C818 C 0.72652 0.91547 0.31875 0.0
C819 C 0.70267 0.92034 0.2921 0.0
C820 C 0.69223 0.90329 0.29822 0.0
C821 C 0.71998 0.92668 0.30225 0.0
C822 C 0.71603 0.89836 0.32486 0.0
C823 C 0.6874 0.87432 0.32067 0.0
O824 O 0.67876 0.81692 0.34099 0.0
O825 O 0.65989 0.83531 0.35974 0.0
O826 O 0.67749 0.87567 0.33739 0.0
O827 O 0.69657 0.85733 0.31883 0.0
H828 H 0.64108 0.8394 0.32134 0.0
H829 H 0.61084 0.82863 0.30356 0.0
H830 H 0.61247 0.77238 0.33473 0.0
H831 H 0.64229 0.78345 0.35267 0.0
H832 H 0.70796 0.80069 0.42557 0.0
H833 H 0.69734 0.81798 0.39513 0.0
H834 H 0.76117 0.83745 0.42754 0.0
H835 H 0.75024 0.8548 0.39749 0.0
H836 H 0.73988 0.91977 0.3268 0.0
H837 H 0.69697 0.92873 0.27958 0.0
H838 H 0.67891 0.8988 0.29016 0.0
H839 H 0.72135 0.88995 0.33755 0.0
C840 C 0.64268 0.19865 0.31515 0.0
C841 C 0.63561 0.21448 0.32649 0.0
C842 C 0.60801 0.21914 0.30308 0.0
C843 C 0.61844 0.22468 0.32048 0.0
C844 C 0.61543 0.20343 0.29171 0.0
C845 C 0.63253 0.19332 0.2977 0.0
U846 U 0.68791 0.18701 0.34918 0.0
O847 O 0.69871 0.15785 0.35912 0.0
O848 O 0.71775 0.17698 0.34058 0.0
C849 C 0.71554 0.15961 0.34934 0.0
C850 C 0.66035 0.1872 0.32118 0.0
C851 C 0.72165 0.1421 0.33786 0.0
C852 C 0.71681 0.11812 0.31122 0.0
C853 C 0.71073 0.13516 0.3214 0.0
C854 C 0.74481 0.11499 0.33377 0.0
C855 C 0.73386 0.1077 0.3174 0.0
C856 C 0.73876 0.13195 0.34385 0.0
C857 C 0.69904 0.22011 0.39511 0.0
C858 C 0.72816 0.2185 0.41681 0.0
C859 C 0.70143 0.24089 0.4245 0.0
C860 C 0.69101 0.23446 0.40762 0.0
C861 C 0.72024 0.23314 0.42929 0.0
C862 C 0.71767 0.21206 0.39985 0.0
C863 C 0.68769 0.21417 0.37718 0.0
O864 O 0.6777 0.19628 0.31939 0.0
O865 O 0.65876 0.17685 0.33773 0.0
O866 O 0.67761 0.19736 0.37836 0.0
O867 O 0.69676 0.21662 0.36005 0.0
H868 H 0.64325 0.21882 0.34004 0.0
H869 H 0.61311 0.23659 0.32968 0.0
H870 H 0.60808 0.19896 0.27806 0.0
H871 H 0.63779 0.18122 0.28868 0.0
H872 H 0.70793 0.11289 0.29879 0.0
H873 H 0.69745 0.14279 0.31655 0.0
H874 H 0.75819 0.10763 0.33876 0.0
H875 H 0.74745 0.13711 0.35646 0.0
H876 H 0.74264 0.21228 0.41994 0.0
H877 H 0.69463 0.25186 0.43389 0.0
H878 H 0.67661 0.24079 0.40429 0.0
H879 H 0.72413 0.20095 0.39037 0.0
C880 C 0.31251 0.14259 0.34025 0.0
C881 C 0.32106 0.13836 0.32177 0.0
C882 C 0.30013 0.10852 0.31875 0.0
C883 C 0.31493 0.12147 0.31112 0.0
C884 C 0.29182 0.11284 0.33738 0.0
C885 C 0.29794 0.12967 0.34796 0.0
U886 U 0.3459 0.1885 0.35092 0.0
O887 O 0.33733 0.21808 0.36135 0.0
O888 O 0.35689 0.19965 0.37976 0.0
C889 C 0.34672 0.21613 0.37843 0.0
C890 C 0.3184 0.16031 0.35179 0.0
C891 C 0.3356 0.22186 0.39634 0.0
C892 C 0.30649 0.21989 0.41778 0.0
C893 C 0.31681 0.21367 0.40085 0.0
C894 C 0.33374 0.24233 0.42591 0.0
C895 C 0.31477 0.23444 0.43047 0.0
C896 C 0.34399 0.23612 0.40905 0.0
C897 C 0.39032 0.20044 0.31601 0.0
C898 C 0.4157 0.22611 0.3211 0.0
C899 C 0.41661 0.20555 0.29173 0.0
C900 C 0.39943 0.19548 0.29806 0.0
C901 C 0.42514 0.22086 0.30325 0.0
C902 C 0.39844 0.21594 0.32745 0.0
C903 C 0.37275 0.18878 0.32253 0.0
O904 O 0.33536 0.15922 0.36152 0.0
O905 O 0.31589 0.17755 0.34294 0.0
O906 O 0.35541 0.19748 0.32082 0.0
O907 O 0.37472 0.17881 0.33926 0.0
H908 H 0.33237 0.14816 0.31556 0.0
H909 H 0.32156 0.11873 0.29677 0.0
H910 H 0.2807 0.10308 0.34395 0.0
H911 H 0.29124 0.13261 0.36225 0.0
H912 H 0.29188 0.21358 0.42071 0.0
H913 H 0.31008 0.20262 0.39121 0.0
H914 H 0.3408 0.25324 0.43547 0.0
H915 H 0.35851 0.24255 0.4059 0.0
H916 H 0.42192 0.23773 0.33039 0.0
H917 H 0.42322 0.20133 0.27776 0.0
H918 H 0.39334 0.18362 0.28897 0.0
H919 H 0.39161 0.21999 0.34138 0.0
C920 C 0.33617 0.89408 0.31489 0.0
C921 C 0.32141 0.90206 0.32709 0.0
C922 C 0.31556 0.92868 0.30288 0.0
C923 C 0.31119 0.91919 0.32113 0.0
C924 C 0.33022 0.92038 0.29069 0.0
C925 C 0.34038 0.90332 0.29664 0.0
U926 U 0.34772 0.84872 0.34868 0.0
O927 O 0.35742 0.81889 0.33989 0.0
O928 O 0.37692 0.83761 0.35834 0.0
C929 C 0.37492 0.82089 0.34852 0.0
C930 C 0.34761 0.87638 0.32081 0.0
C931 C 0.39236 0.81451 0.33695 0.0
C932 C 0.41885 0.82063 0.31293 0.0
C933 C 0.4018 0.827 0.32299 0.0
C934 C 0.41699 0.7892 0.33046 0.0
C935 C 0.42681 0.80169 0.31669 0.0
C936 C 0.40002 0.79555 0.34045 0.0
C937 C 0.31438 0.83758 0.39461 0.0
C938 C 0.31721 0.80936 0.41726 0.0
C939 C 0.29243 0.83437 0.42317 0.0
C940 C 0.29882 0.84475 0.40623 0.0
C941 C 0.30146 0.81648 0.42893 0.0
C942 C 0.3236 0.8198 0.40024 0.0
C943 C 0.32049 0.84896 0.37675 0.0
O944 O 0.35803 0.8778 0.33735 0.0
O945 O 0.33844 0.85914 0.31895 0.0
O946 O 0.31794 0.84007 0.35957 0.0
O947 O 0.33747 0.8588 0.37797 0.0
H948 H 0.31793 0.89515 0.34126 0.0
H949 H 0.30014 0.92521 0.331 0.0
H950 H 0.33379 0.92698 0.2764 0.0
H951 H 0.35165 0.89736 0.28696 0.0
H952 H 0.42605 0.83073 0.30256 0.0
H953 H 0.39614 0.84172 0.32006 0.0
H954 H 0.42239 0.77441 0.33351 0.0
H955 H 0.39293 0.78565 0.35109 0.0
H956 H 0.32442 0.79557 0.4211 0.0
H957 H 0.28055 0.84056 0.4319 0.0
H958 H 0.29156 0.85848 0.4022 0.0
H959 H 0.33564 0.81399 0.39145 0.0
C960 C 0.69776 0.64391 0.22403 0.0
C961 C 0.71361 0.63652 0.21286 0.0
C962 C 0.71773 0.60912 0.23655 0.0
C963 C 0.72353 0.6193 0.21908 0.0
C964 C 0.70195 0.61681 0.24772 0.0
C965 C 0.69212 0.63396 0.24151 0.0
U966 U 0.68726 0.68957 0.19016 0.0
O967 O 0.65827 0.70089 0.1801 0.0
O968 O 0.67753 0.71937 0.19904 0.0
C969 C 0.66015 0.71749 0.19014 0.0
C970 C 0.68667 0.66174 0.21786 0.0
C971 C 0.64258 0.72369 0.20161 0.0
C972 C 0.6161 0.71731 0.22557 0.0
C973 C 0.63322 0.71111 0.21553 0.0
C974 C 0.61771 0.74878 0.20808 0.0
C975 C 0.60799 0.73619 0.22183 0.0
C976 C 0.63476 0.74258 0.19811 0.0
C977 C 0.72141 0.70097 0.14486 0.0
C978 C 0.71584 0.72566 0.11884 0.0
C979 C 0.74633 0.70692 0.11928 0.0
C980 C 0.73992 0.69687 0.13641 0.0
C981 C 0.73434 0.72135 0.11011 0.0
C982 C 0.70942 0.71555 0.13604 0.0
C983 C 0.71497 0.68948 0.16255 0.0
O984 O 0.69597 0.67889 0.21996 0.0
O985 O 0.6766 0.66046 0.2011 0.0
O986 O 0.69797 0.6797 0.161 0.0
O987 O 0.71729 0.69821 0.17984 0.0
H988 H 0.7182 0.64398 0.19929 0.0
H989 H 0.73548 0.61376 0.21 0.0
H990 H 0.69727 0.60967 0.26141 0.0
H991 H 0.67999 0.63946 0.25041 0.0
H992 H 0.60897 0.70714 0.23592 0.0
H993 H 0.63901 0.69644 0.21846 0.0
H994 H 0.6122 0.76352 0.20505 0.0
H995 H 0.64179 0.75256 0.1875 0.0
H996 H 0.70613 0.73655 0.11215 0.0
H997 H 0.76079 0.70342 0.11328 0.0
H998 H 0.74944 0.68574 0.14301 0.0
H999 H 0.69506 0.71894 0.14233 0.0
C1000 C 0.31139 0.70003 0.14544 0.0
C1001 C 0.32375 0.71469 0.13689 0.0
C1002 C 0.29897 0.72069 0.11084 0.0
C1003 C 0.31759 0.72494 0.11975 0.0
C1004 C 0.28659 0.70617 0.11974 0.0
C1005 C 0.29276 0.69597 0.13682 0.0
U1006 U 0.34602 0.68968 0.1902 0.0
O1007 O 0.33831 0.67906 0.22024 0.0
O1008 O 0.3573 0.66108 0.20122 0.0
C1009 C 0.3476 0.66216 0.21809 0.0
C1010 C 0.31768 0.68848 0.16305 0.0
C1011 C 0.33649 0.64412 0.2242 0.0
C1012 C 0.30823 0.62129 0.22135 0.0
C1013 C 0.31846 0.6385 0.21507 0.0
C1014 C 0.334 0.61517 0.24585 0.0
C1015 C 0.31585 0.60941 0.23688 0.0
C1016 C 0.34417 0.63232 0.23957 0.0
C1017 C 0.39068 0.72479 0.20084 0.0
C1018 C 0.41699 0.71857 0.22505 0.0
C1019 C 0.41616 0.74994 0.20733 0.0
C1020 C 0.39895 0.74366 0.19725 0.0
C1021 C 0.42554 0.73744 0.22126 0.0
C1022 C 0.39971 0.7123 0.21492 0.0
C1023 C 0.37292 0.71843 0.18943 0.0
O1024 O 0.33457 0.67901 0.16143 0.0
O1025 O 0.31567 0.69721 0.18033 0.0
O1026 O 0.35576 0.71988 0.19856 0.0
O1027 O 0.37455 0.70187 0.17938 0.0
H1028 H 0.33821 0.71804 0.14334 0.0
H1029 H 0.32759 0.73588 0.11324 0.0
H1030 H 0.27204 0.70273 0.11356 0.0
H1031 H 0.28297 0.68477 0.14325 0.0
H1032 H 0.29422 0.61744 0.21421 0.0
H1033 H 0.31229 0.64744 0.20316 0.0
H1034 H 0.34053 0.60627 0.25758 0.0
H1035 H 0.35811 0.63637 0.24675 0.0
H1036 H 0.42387 0.70848 0.23553 0.0
H1037 H 0.42206 0.76467 0.20426 0.0
H1038 H 0.39214 0.75355 0.1865 0.0
H1039 H 0.39354 0.69766 0.21791 0.0
C1040 C 0.31611 0.33905 0.14228 0.0
C1041 C 0.32641 0.32209 0.13639 0.0
C1042 C 0.30326 0.31723 0.10854 0.0
C1043 C 0.32006 0.31129 0.11965 0.0
C1044 C 0.29316 0.33435 0.11455 0.0
C1045 C 0.29951 0.34509 0.1312 0.0
U1046 U 0.34979 0.35106 0.18782 0.0
O1047 O 0.35981 0.38035 0.19868 0.0
O1048 O 0.3409 0.36134 0.21747 0.0
C1049 C 0.34977 0.37872 0.21535 0.0
C1050 C 0.32215 0.35075 0.15987 0.0
C1051 C 0.33819 0.3962 0.22128 0.0
C1052 C 0.3105 0.4189 0.21703 0.0
C1053 C 0.32118 0.40227 0.21078 0.0
C1054 C 0.33377 0.42352 0.24426 0.0
C1055 C 0.31661 0.42971 0.23395 0.0
C1056 C 0.34439 0.40699 0.23799 0.0
C1057 C 0.39504 0.31745 0.19975 0.0
C1058 C 0.41683 0.31942 0.22879 0.0
C1059 C 0.42345 0.2956 0.20294 0.0
C1060 C 0.40687 0.30226 0.19228 0.0
C1061 C 0.42863 0.30396 0.22142 0.0
C1062 C 0.40015 0.32608 0.21806 0.0
C1063 C 0.37739 0.32363 0.18815 0.0
O1064 O 0.31996 0.34197 0.17724 0.0
O1065 O 0.33895 0.36088 0.15843 0.0
O1066 O 0.37907 0.34038 0.17816 0.0
O1067 O 0.36004 0.32143 0.1969 0.0
H1068 H 0.33927 0.31717 0.14478 0.0
H1069 H 0.32813 0.29812 0.11559 0.0
H1070 H 0.28043 0.33964 0.10622 0.0
H1071 H 0.29141 0.35819 0.13543 0.0
H1072 H 0.29729 0.4231 0.20881 0.0
H1073 H 0.31613 0.39411 0.19783 0.0
H1074 H 0.33919 0.43162 0.25709 0.0
H1075 H 0.35753 0.40262 0.24626 0.0
H1076 H 0.42027 0.32612 0.243 0.0
H1077 H 0.43233 0.28398 0.19655 0.0
H1078 H 0.40323 0.29546 0.17814 0.0
H1079 H 0.3912 0.33784 0.2241 0.0
C1080 C 0.6423 0.31361 0.20096 0.0
C1081 C 0.63761 0.32233 0.21924 0.0
C1082 C 0.60781 0.30122 0.22199 0.0
C1083 C 0.6205 0.3162 0.22965 0.0
C1084 C 0.61257 0.29278 0.20355 0.0
C1085 C 0.6296 0.2989 0.1932 0.0
U1086 U 0.68875 0.34663 0.19059 0.0
O1087 O 0.71861 0.33756 0.18101 0.0
O1088 O 0.70067 0.35681 0.16181 0.0
C1089 C 0.7171 0.34657 0.1637 0.0
C1090 C 0.66035 0.31934 0.18975 0.0
C1091 C 0.72315 0.33508 0.14616 0.0
C1092 C 0.71645 0.31099 0.12 0.0
C1093 C 0.71043 0.32103 0.13717 0.0
C1094 C 0.74803 0.32873 0.12092 0.0
C1095 C 0.73527 0.3149 0.11152 0.0
C1096 C 0.74202 0.33868 0.13801 0.0
C1097 C 0.70049 0.3916 0.22463 0.0
C1098 C 0.7247 0.41812 0.21833 0.0
C1099 C 0.70702 0.41684 0.24959 0.0
C1100 C 0.69698 0.39962 0.24343 0.0
C1101 C 0.72084 0.42651 0.23705 0.0
C1102 C 0.71458 0.40083 0.21215 0.0
C1103 C 0.68871 0.37405 0.21831 0.0
O1104 O 0.6595 0.33607 0.17968 0.0
O1105 O 0.67743 0.31696 0.19902 0.0
O1106 O 0.69718 0.35671 0.22065 0.0
O1107 O 0.67905 0.3757 0.20135 0.0
H1108 H 0.64724 0.33373 0.22549 0.0
H1109 H 0.61741 0.32294 0.24386 0.0
H1110 H 0.60301 0.28151 0.19696 0.0
H1111 H 0.6329 0.29206 0.17907 0.0
H1112 H 0.70619 0.30056 0.11312 0.0
H1113 H 0.69579 0.31802 0.14326 0.0
H1114 H 0.76274 0.33187 0.11508 0.0
H1115 H 0.7521 0.34939 0.14478 0.0
H1116 H 0.73514 0.42522 0.20824 0.0
H1117 H 0.70393 0.4226 0.26423 0.0
H1118 H 0.68623 0.39267 0.25332 0.0
H1119 H 0.71752 0.39485 0.19756 0.0
C1120 C 0.644 0.31225 0.83849 0.0
C1121 C 0.63505 0.32477 0.82438 0.0
C1122 C 0.60923 0.29967 0.81788 0.0
C1123 C 0.61782 0.31853 0.81416 0.0
C1124 C 0.61854 0.28713 0.83183 0.0
C1125 C 0.6357 0.29338 0.84201 0.0
U1126 U 0.68868 0.34727 0.84906 0.0
O1127 O 0.7 0.35829 0.87775 0.0
O1128 O 0.71896 0.33984 0.85916 0.0
C1129 C 0.71693 0.34886 0.87629 0.0
C1130 C 0.6617 0.3186 0.85 0.0
C1131 C 0.72327 0.33766 0.89409 0.0
C1132 C 0.71786 0.31216 0.91936 0.0
C1133 C 0.71163 0.32214 0.90208 0.0
C1134 C 0.74748 0.33301 0.92066 0.0
C1135 C 0.73581 0.31759 0.92897 0.0
C1136 C 0.74125 0.34292 0.90343 0.0
C1137 C 0.6987 0.39239 0.81481 0.0
C1138 C 0.72637 0.41574 0.81893 0.0
C1139 C 0.70241 0.42061 0.79237 0.0
C1140 C 0.69204 0.40352 0.79848 0.0
C1141 C 0.71974 0.42697 0.80248 0.0
C1142 C 0.71594 0.39859 0.82503 0.0
C1143 C 0.68736 0.37448 0.82087 0.0
O1144 O 0.67893 0.31699 0.841 0.0
O1145 O 0.66008 0.33526 0.85988 0.0
O1146 O 0.67751 0.37574 0.83763 0.0
O1147 O 0.69657 0.35752 0.81893 0.0
H1148 H 0.64125 0.33941 0.82144 0.0
H1149 H 0.61099 0.32866 0.80368 0.0
H1150 H 0.61261 0.2724 0.83484 0.0
H1151 H 0.64245 0.28346 0.85277 0.0
H1152 H 0.70841 0.30049 0.92542 0.0
H1153 H 0.69767 0.31787 0.89506 0.0
H1154 H 0.76153 0.33738 0.9274 0.0
H1155 H 0.75049 0.35481 0.89744 0.0
H1156 H 0.73974 0.42006 0.82695 0.0
H1157 H 0.69665 0.42901 0.77989 0.0
H1158 H 0.67871 0.39901 0.79046 0.0
H1159 H 0.72133 0.39016 0.83768 0.0
C1160 C 0.64265 0.699 0.81538 0.0
C1161 C 0.63555 0.71482 0.82671 0.0
C1162 C 0.60797 0.71945 0.80328 0.0
C1163 C 0.61838 0.725 0.82069 0.0
C1164 C 0.61541 0.70374 0.79192 0.0
C1165 C 0.63251 0.69365 0.79792 0.0
U1166 U 0.68789 0.68738 0.84942 0.0
O1167 O 0.6987 0.65823 0.85936 0.0
O1168 O 0.71773 0.67736 0.84081 0.0
C1169 C 0.71551 0.65999 0.84957 0.0
C1170 C 0.66032 0.68756 0.82142 0.0
C1171 C 0.72161 0.64248 0.83807 0.0
C1172 C 0.7167 0.6185 0.81144 0.0
C1173 C 0.71065 0.63554 0.82163 0.0
C1174 C 0.74476 0.61537 0.83393 0.0
C1175 C 0.73377 0.60808 0.81759 0.0
C1176 C 0.73873 0.63234 0.84402 0.0
C1177 C 0.69906 0.72045 0.89535 0.0
C1178 C 0.7282 0.71876 0.91702 0.0
C1179 C 0.70153 0.74121 0.92474 0.0
C1180 C 0.69108 0.73482 0.90787 0.0
C1181 C 0.72032 0.73341 0.92952 0.0
C1182 C 0.71768 0.71236 0.90007 0.0
C1183 C 0.68769 0.71454 0.87743 0.0
O1184 O 0.67766 0.69665 0.81963 0.0
O1185 O 0.65873 0.67722 0.83798 0.0
O1186 O 0.6776 0.69773 0.87861 0.0
O1187 O 0.69674 0.71699 0.86029 0.0
H1188 H 0.64317 0.71917 0.84026 0.0
H1189 H 0.61303 0.73691 0.82988 0.0
H1190 H 0.60807 0.69926 0.77826 0.0
H1191 H 0.63779 0.68155 0.78891 0.0
H1192 H 0.70779 0.61326 0.79903 0.0
H1193 H 0.69735 0.64316 0.81681 0.0
H1194 H 0.75815 0.60802 0.83889 0.0
H1195 H 0.74746 0.6375 0.85661 0.0
H1196 H 0.74267 0.71251 0.92013 0.0
H1197 H 0.69477 0.7522 0.93415 0.0
H1198 H 0.67669 0.74118 0.90456 0.0
H1199 H 0.72411 0.70123 0.89058 0.0
C1200 C 0.31251 0.64293 0.84047 0.0
C1201 C 0.3211 0.63871 0.82202 0.0
C1202 C 0.30022 0.60884 0.81896 0.0
C1203 C 0.31502 0.6218 0.81135 0.0
C1204 C 0.29186 0.61316 0.83757 0.0
C1205 C 0.29793 0.63 0.84816 0.0
U1206 U 0.34585 0.68886 0.85116 0.0
O1207 O 0.33726 0.71843 0.86158 0.0
O1208 O 0.35682 0.70001 0.88 0.0
C1209 C 0.34663 0.71648 0.87868 0.0
C1210 C 0.31836 0.66065 0.85202 0.0
C1211 C 0.33549 0.72219 0.89658 0.0
C1212 C 0.30635 0.72016 0.91798 0.0
C1213 C 0.3167 0.71397 0.90106 0.0
C1214 C 0.33356 0.74263 0.92617 0.0
C1215 C 0.3146 0.7347 0.93069 0.0
C1216 C 0.34384 0.73645 0.90932 0.0
C1217 C 0.39027 0.70078 0.81624 0.0
C1218 C 0.41567 0.72644 0.82129 0.0
C1219 C 0.41654 0.70587 0.79193 0.0
C1220 C 0.39936 0.69581 0.79828 0.0
C1221 C 0.4251 0.72117 0.80344 0.0
C1222 C 0.39842 0.71628 0.82767 0.0
C1223 C 0.3727 0.68914 0.82278 0.0
O1224 O 0.33532 0.65957 0.86177 0.0
O1225 O 0.31584 0.67789 0.84318 0.0
O1226 O 0.35537 0.69783 0.82107 0.0
O1227 O 0.37468 0.67918 0.83952 0.0
H1228 H 0.33242 0.64852 0.81583 0.0
H1229 H 0.32169 0.61907 0.79702 0.0
H1230 H 0.28073 0.60339 0.84412 0.0
H1231 H 0.2912 0.63294 0.86243 0.0
H1232 H 0.29175 0.71383 0.92089 0.0
H1233 H 0.30999 0.70292 0.8914 0.0
H1234 H 0.34059 0.75354 0.93575 0.0
H1235 H 0.35836 0.7429 0.90618 0.0
H1236 H 0.42191 0.73805 0.83058 0.0
H1237 H 0.42313 0.70164 0.77795 0.0
H1238 H 0.39325 0.68395 0.7892 0.0
H1239 H 0.3916 0.72033 0.84161 0.0
C1240 C 0.33647 0.39426 0.81514 0.0
C1241 C 0.32168 0.40222 0.82732 0.0
C1242 C 0.31594 0.42892 0.80317 0.0
C1243 C 0.3115 0.41938 0.82138 0.0
C1244 C 0.33063 0.42065 0.791 0.0
C1245 C 0.34075 0.40356 0.79693 0.0
U1246 U 0.34784 0.34877 0.8488 0.0
O1247 O 0.35753 0.31895 0.83993 0.0
O1248 O 0.377 0.33758 0.85851 0.0
C1249 C 0.37501 0.3209 0.84863 0.0
C1250 C 0.34787 0.37653 0.82103 0.0
C1251 C 0.39246 0.31454 0.83707 0.0
C1252 C 0.41896 0.32067 0.81306 0.0
C1253 C 0.4019 0.32703 0.82312 0.0
C1254 C 0.41712 0.28924 0.83061 0.0
C1255 C 0.42693 0.30174 0.81683 0.0
C1256 C 0.40014 0.29559 0.84058 0.0
C1257 C 0.31436 0.33752 0.89461 0.0
C1258 C 0.31706 0.30921 0.91715 0.0
C1259 C 0.29234 0.33428 0.92311 0.0
C1260 C 0.29879 0.3447 0.90622 0.0
C1261 C 0.30131 0.31633 0.92882 0.0
C1262 C 0.32351 0.3197 0.90018 0.0
C1263 C 0.32053 0.34895 0.8768 0.0
O1264 O 0.35824 0.37787 0.8376 0.0
O1265 O 0.33867 0.35931 0.81908 0.0
O1266 O 0.31802 0.34013 0.85958 0.0
O1267 O 0.33753 0.35876 0.8781 0.0
H1268 H 0.31815 0.39527 0.84145 0.0
H1269 H 0.30042 0.42538 0.83123 0.0
H1270 H 0.33424 0.42729 0.77675 0.0
H1271 H 0.35204 0.39762 0.78727 0.0
H1272 H 0.42616 0.33076 0.80269 0.0
H1273 H 0.39622 0.34173 0.82018 0.0
H1274 H 0.42253 0.27446 0.83366 0.0
H1275 H 0.39305 0.28568 0.85123 0.0
H1276 H 0.32422 0.29539 0.92096 0.0
H1277 H 0.28047 0.34047 0.93185 0.0
H1278 H 0.29159 0.35846 0.90223 0.0
H1279 H 0.33555 0.31388 0.89139 0.0
H1280 H 0.21911 0.2598 0.99291 0.0
H1281 H 0.20259 0.24781 0.96285 0.0
H1282 H 0.25973 0.23387 0.93767 0.0
H1283 H 0.27622 0.24541 0.96819 0.0
H1284 H 0.24117 0.24194 0.02005 0.0
H1285 H 0.25147 0.29483 0.97242 0.0
H1286 H 0.26288 0.31106 0.94192 0.0
H1287 H 0.32365 0.29676 0.95704 0.0
H1288 H 0.312 0.27987 0.98723 0.0
H1289 H 0.31372 0.28233 0.04965 0.0
H1290 H 0.32563 0.29981 0.07935 0.0
H1291 H 0.26475 0.30882 0.09726 0.0
H1292 H 0.25301 0.29205 0.06732 0.0
H1293 H 0.29296 0.29504 0.01888 0.0
H1294 H 0.28311 0.24462 0.06786 0.0
H1295 H 0.2719 0.22852 0.09849 0.0
H1296 H 0.21071 0.23775 0.081 0.0
H1297 H 0.22207 0.25454 0.05068 0.0
C1298 C 0.24896 0.25374 0.98284 0.0
C1299 C 0.22813 0.25407 0.98099 0.0
C1300 C 0.21869 0.24735 0.96366 0.0
C1301 C 0.22981 0.24002 0.94767 0.0
C1302 C 0.25068 0.23932 0.94968 0.0
C1303 C 0.26015 0.2461 0.96707 0.0
C1304 C 0.25872 0.26139 1.00135 0.0
C1305 C 0.25236 0.25369 0.01982 0.0
C1306 C 0.27389 0.27627 1.00099 0.0
C1307 C 0.28081 0.28586 0.9821 0.0
C1308 C 0.26723 0.2949 0.96905 0.0
C1309 C 0.27383 0.30441 0.95167 0.0
C1310 C 0.29424 0.30533 0.94694 0.0
C1311 C 0.30782 0.29617 0.96 0.0
C1312 C 0.30118 0.28663 0.97739 0.0
C1313 C 0.28244 0.28566 0.05622 0.0
C1314 C 0.30294 0.28806 0.05999 0.0
C1315 C 0.30974 0.29793 0.0771 0.0
C1316 C 0.29619 0.30581 0.09077 0.0
C1317 C 0.27567 0.30321 0.087 0.0
C1318 C 0.2689 0.29337 0.06994 0.0
C1319 C 0.27509 0.27588 0.03763 0.0
C1320 C 0.28192 0.28314 0.01914 0.0
C1321 C 0.26037 0.26056 0.03796 0.0
C1322 C 0.25349 0.251 0.05691 0.0
C1323 C 0.26727 0.24345 0.07071 0.0
C1324 C 0.26081 0.23401 0.08818 0.0
C1325 C 0.24035 0.23171 0.09229 0.0
C1326 C 0.22656 0.23941 0.07851 0.0
C1327 C 0.23305 0.24888 0.06103 0.0
H1328 H 0.77561 0.22422 0.98702 0.0
H1329 H 0.79276 0.21244 0.95737 0.0
H1330 H 0.81301 0.27234 0.94489 0.0
H1331 H 0.79657 0.28381 0.97483 0.0
H1332 H 0.78981 0.24026 0.01993 0.0
H1333 H 0.74425 0.26159 0.96935 0.0
H1334 H 0.73336 0.27786 0.9386 0.0
H1335 H 0.75293 0.33447 0.96197 0.0
H1336 H 0.76437 0.31806 0.9923 0.0
H1337 H 0.76637 0.31577 0.04974 0.0
H1338 H 0.7552 0.33165 0.0801 0.0
H1339 H 0.72941 0.27599 0.10009 0.0
H1340 H 0.74016 0.26026 0.06923 0.0
H1341 H 0.74604 0.29892 0.02026 0.0
H1342 H 0.79383 0.27654 0.06992 0.0
H1343 H 0.80436 0.25989 0.10059 0.0
H1344 H 0.77962 0.20461 0.07874 0.0
H1345 H 0.76855 0.22148 0.0485 0.0
C1346 C 0.78457 0.25496 0.98315 0.0
C1347 C 0.78373 0.23481 0.97788 0.0
C1348 C 0.79343 0.22811 0.9608 0.0
C1349 C 0.80435 0.2414 0.94867 0.0
C1350 C 0.805 0.2616 0.95395 0.0
C1351 C 0.79535 0.26825 0.971 0.0
C1352 C 0.77497 0.26206 1.00176 0.0
C1353 C 0.77994 0.25288 0.01996 0.0
C1354 C 0.76225 0.2787 1.00186 0.0
C1355 C 0.75536 0.28853 0.98314 0.0
C1356 C 0.74636 0.27748 0.96778 0.0
C1357 C 0.73994 0.28685 0.95026 0.0
C1358 C 0.74232 0.3075 0.94771 0.0
C1359 C 0.75114 0.31852 0.96323 0.0
C1360 C 0.75754 0.30916 0.98071 0.0
C1361 C 0.75431 0.28674 0.05719 0.0
C1362 C 0.75825 0.30696 0.0606 0.0
C1363 C 0.75198 0.316 0.07811 0.0
C1364 C 0.74154 0.30509 0.09271 0.0
C1365 C 0.73733 0.28488 0.08916 0.0
C1366 C 0.74364 0.27581 0.07158 0.0
C1367 C 0.76127 0.27743 0.03842 0.0
C1368 C 0.75576 0.28618 0.02018 0.0
C1369 C 0.7734 0.26036 0.0383 0.0
C1370 C 0.7801 0.25035 0.05697 0.0
C1371 C 0.79048 0.26088 0.07183 0.0
C1372 C 0.7967 0.25127 0.0893 0.0
C1373 C 0.79277 0.23089 0.09226 0.0
C1374 C 0.78261 0.22037 0.07719 0.0
C1375 C 0.7764 0.22998 0.05977 0.0
H1376 H 0.77027 0.8162 0.04853 0.0
H1377 H 0.78178 0.83253 0.07879 0.0
H1378 H 0.80599 0.77717 0.09996 0.0
H1379 H 0.79488 0.76096 0.0692 0.0
H1380 H 0.7904 0.7991 0.01969 0.0
H1381 H 0.74167 0.77705 0.06872 0.0
H1382 H 0.7303 0.76065 0.09929 0.0
H1383 H 0.75363 0.70516 0.07834 0.0
H1384 H 0.7655 0.72176 0.04821 0.0
H1385 H 0.75963 0.72399 0.98639 0.0
H1386 H 0.7425 0.7119 0.95647 0.0
H1387 H 0.72343 0.77156 0.94332 0.0
H1388 H 0.73987 0.78334 0.97348 0.0
H1389 H 0.74534 0.74026 0.01899 0.0
H1390 H 0.79173 0.76158 0.9688 0.0
H1391 H 0.80298 0.77784 0.93811 0.0
H1392 H 0.7845 0.83437 0.96111 0.0
H1393 H 0.77275 0.81799 0.99137 0.0
C1394 C 0.7815 0.78727 0.05656 0.0
C1395 C 0.7781 0.80754 0.05964 0.0
C1396 C 0.78456 0.81685 0.07708 0.0
C1397 C 0.79469 0.80617 0.09198 0.0
C1398 C 0.79834 0.78589 0.0888 0.0
C1399 C 0.79181 0.77655 0.07128 0.0
C1400 C 0.77449 0.77772 0.03775 0.0
C1401 C 0.78041 0.78632 0.01952 0.0
C1402 C 0.76195 0.7606 0.03756 0.0
C1403 C 0.75477 0.75075 0.05621 0.0
C1404 C 0.74454 0.7614 0.0708 0.0
C1405 C 0.73782 0.75193 0.08822 0.0
C1406 C 0.74111 0.73155 0.09143 0.0
C1407 C 0.75112 0.72091 0.07662 0.0
C1408 C 0.7578 0.73038 0.05926 0.0
C1409 C 0.75127 0.75464 0.98219 0.0
C1410 C 0.75177 0.73446 0.97704 0.0
C1411 C 0.74208 0.72758 0.95981 0.0
C1412 C 0.7315 0.74071 0.94742 0.0
C1413 C 0.73118 0.76093 0.95258 0.0
C1414 C 0.74082 0.76777 0.96976 0.0
C1415 C 0.76086 0.76195 1.00092 0.0
C1416 C 0.75548 0.75291 0.01912 0.0
C1417 C 0.77394 0.77866 1.00111 0.0
C1418 C 0.78114 0.78847 0.98242 0.0
C1419 C 0.78994 0.77745 0.96717 0.0
C1420 C 0.79657 0.78682 0.94967 0.0
C1421 C 0.79458 0.80745 0.947 0.0
C1422 C 0.786 0.81844 0.96243 0.0
C1423 C 0.77941 0.80909 0.97988 0.0
H1424 H 0.27497 0.72449 0.98694 0.0
H1425 H 0.29195 0.71279 0.95715 0.0
H1426 H 0.31238 0.77268 0.94488 0.0
H1427 H 0.2961 0.78407 0.97494 0.0
H1428 H 0.28936 0.74048 0.0199 0.0
H1429 H 0.2437 0.76181 0.96945 0.0
H1430 H 0.23288 0.77807 0.93866 0.0
H1431 H 0.25247 0.83468 0.96202 0.0
H1432 H 0.26385 0.81828 0.99238 0.0
H1433 H 0.26596 0.81595 0.04984 0.0
H1434 H 0.25486 0.83178 0.08025 0.0
H1435 H 0.22916 0.77608 0.10024 0.0
H1436 H 0.23982 0.7604 0.06933 0.0
H1437 H 0.24557 0.79911 0.02038 0.0
H1438 H 0.29349 0.77672 0.06991 0.0
H1439 H 0.30412 0.76005 0.10054 0.0
H1440 H 0.27936 0.70477 0.0787 0.0
H1441 H 0.26819 0.72166 0.04851 0.0
C1442 C 0.28403 0.75523 0.98317 0.0
C1443 C 0.2831 0.7351 0.97781 0.0
C1444 C 0.2927 0.72845 0.96066 0.0
C1445 C 0.30361 0.74176 0.94855 0.0
C1446 C 0.30437 0.76192 0.95392 0.0
C1447 C 0.29482 0.76853 0.97104 0.0
C1448 C 0.27447 0.76229 1.0018 0.0
C1449 C 0.27949 0.75309 0.01997 0.0
C1450 C 0.26174 0.77892 1.00193 0.0
C1451 C 0.25482 0.78875 0.98323 0.0
C1452 C 0.24583 0.7777 0.96787 0.0
C1453 C 0.23944 0.78706 0.95033 0.0
C1454 C 0.24186 0.8077 0.94776 0.0
C1455 C 0.25065 0.81873 0.96329 0.0
C1456 C 0.25701 0.80938 0.98079 0.0
C1457 C 0.25393 0.7869 0.05729 0.0
C1458 C 0.25787 0.80712 0.06071 0.0
C1459 C 0.25165 0.81613 0.07824 0.0
C1460 C 0.24125 0.8052 0.09286 0.0
C1461 C 0.23704 0.78499 0.0893 0.0
C1462 C 0.2433 0.77595 0.07169 0.0
C1463 C 0.26085 0.77761 0.03849 0.0
C1464 C 0.25529 0.78638 0.02028 0.0
C1465 C 0.27299 0.76055 0.03833 0.0
C1466 C 0.27974 0.75053 0.05698 0.0
C1467 C 0.29015 0.76105 0.07182 0.0
C1468 C 0.29643 0.75144 0.08926 0.0
C1469 C 0.29253 0.73105 0.09221 0.0
C1470 C 0.28233 0.72054 0.07716 0.0
C1471 C 0.27606 0.73015 0.05977 0.0
H1472 H 0.04709 0.26842 0.22213 0.0
H1473 H 0.07711 0.25678 0.20585 0.0
H1474 H 0.09639 0.22983 0.261 0.0
H1475 H 0.0659 0.241 0.27706 0.0
H1476 H 0.01688 0.24905 0.23837 0.0
H1477 H 0.06718 0.2951 0.26223 0.0
H1478 H 0.09812 0.30566 0.27866 0.0
H1479 H 0.07745 0.27919 0.3336 0.0
H1480 H 0.04696 0.26809 0.31693 0.0
H1481 H 0.98759 0.26933 0.31659 0.0
H1482 H 0.95753 0.28108 0.33271 0.0
H1483 H 0.93843 0.30775 0.27737 0.0
H1484 H 0.96895 0.29647 0.26146 0.0
H1485 H 0.01789 0.28844 0.30035 0.0
H1486 H 0.96772 0.24234 0.27668 0.0
H1487 H 0.93677 0.2316 0.26039 0.0
H1488 H 0.95718 0.2579 0.20527 0.0
H1489 H 0.98769 0.26916 0.2218 0.0
C1490 C 0.05422 0.25583 0.25092 0.0
C1491 C 0.05773 0.25996 0.23074 0.0
C1492 C 0.07505 0.25341 0.22147 0.0
C1493 C 0.08936 0.24246 0.23211 0.0
C1494 C 0.08571 0.23811 0.25228 0.0
C1495 C 0.06834 0.24469 0.26156 0.0
C1496 C 0.0356 0.26286 0.26057 0.0
C1497 C 0.01712 0.25789 0.25179 0.0
C1498 C 0.03586 0.27402 0.27839 0.0
C1499 C 0.05478 0.28054 0.28824 0.0
C1500 C 0.06942 0.29136 0.27775 0.0
C1501 C 0.08704 0.2976 0.28724 0.0
C1502 C 0.09039 0.29323 0.30748 0.0
C1503 C 0.07559 0.28255 0.31795 0.0
C1504 C 0.05803 0.27632 0.30846 0.0
C1505 C 0.98055 0.28176 0.28771 0.0
C1506 C 0.97698 0.27775 0.3079 0.0
C1507 C 0.95964 0.28436 0.31708 0.0
C1508 C 0.94537 0.29527 0.30635 0.0
C1509 C 0.94909 0.29952 0.28617 0.0
C1510 C 0.96647 0.29287 0.27697 0.0
C1511 C 0.99918 0.27465 0.27813 0.0
C1512 C 0.01766 0.2796 0.28692 0.0
C1513 C 0.99892 0.26345 0.26034 0.0
C1514 C 0.97999 0.25683 0.25057 0.0
C1515 C 0.96543 0.246 0.26114 0.0
C1516 C 0.9478 0.23966 0.25174 0.0
C1517 C 0.94437 0.24393 0.2315 0.0
C1518 C 0.9591 0.25461 0.22093 0.0
C1519 C 0.97668 0.26094 0.23034 0.0
H1520 H 0.77936 0.0509 0.22573 0.0
H1521 H 0.79611 0.08139 0.21446 0.0
H1522 H 0.81115 0.09549 0.27534 0.0
H1523 H 0.79506 0.06468 0.28638 0.0
H1524 H 0.7949 0.01905 0.24488 0.0
H1525 H 0.74533 0.06935 0.26087 0.0
H1526 H 0.73405 0.09959 0.27724 0.0
H1527 H 0.74792 0.07358 0.33443 0.0
H1528 H 0.75968 0.04381 0.31803 0.0
H1529 H 0.75428 0.98611 0.31466 0.0
H1530 H 0.73724 0.95565 0.32549 0.0
H1531 H 0.72746 0.93945 0.26413 0.0
H1532 H 0.74383 0.97024 0.25343 0.0
H1533 H 0.74155 0.01702 0.29554 0.0
H1534 H 0.7916 0.97015 0.2846 0.0
H1535 H 0.80807 0.94031 0.27319 0.0
H1536 H 0.79916 0.95887 0.21224 0.0
H1537 H 0.78198 0.98849 0.22381 0.0
C1538 C 0.78574 0.05552 0.25694 0.0
C1539 C 0.78627 0.06057 0.23664 0.0
C1540 C 0.79572 0.07813 0.23023 0.0
C1541 C 0.805 0.09099 0.24396 0.0
C1542 C 0.80438 0.08589 0.26429 0.0
C1543 C 0.79496 0.06833 0.27068 0.0
C1544 C 0.77612 0.03657 0.26362 0.0
C1545 C 0.78296 0.0186 0.25567 0.0
C1546 C 0.76118 0.03598 0.27848 0.0
C1547 C 0.75363 0.0543 0.28817 0.0
C1548 C 0.74606 0.07022 0.27693 0.0
C1549 C 0.73942 0.08745 0.28634 0.0
C1550 C 0.74019 0.08916 0.30719 0.0
C1551 C 0.74742 0.07301 0.31835 0.0
C1552 C 0.75401 0.05584 0.30898 0.0
C1553 C 0.75047 0.98051 0.2832 0.0
C1554 C 0.74844 0.97601 0.30353 0.0
C1555 C 0.73884 0.95846 0.30971 0.0
C1556 C 0.73094 0.94503 0.29571 0.0
C1557 C 0.73313 0.94952 0.27535 0.0
C1558 C 0.7427 0.96707 0.26919 0.0
C1559 C 0.76018 0.9995 0.27665 0.0
C1560 C 0.75336 0.01745 0.2846 0.0
C1561 C 0.77558 1.00004 0.26228 0.0
C1562 C 0.78528 0.98158 0.25511 0.0
C1563 C 0.79289 0.96771 0.26876 0.0
C1564 C 0.80255 0.9507 0.26219 0.0
C1565 C 0.80508 0.94713 0.24175 0.0
C1566 C 0.79733 0.96097 0.22807 0.0
C1567 C 0.78763 0.97803 0.23468 0.0
H1568 H 0.04399 0.71853 0.27658 0.0
H1569 H 0.07419 0.70219 0.28792 0.0
H1570 H 0.09969 0.75904 0.30418 0.0
H1571 H 0.06902 0.77532 0.29334 0.0
H1572 H 0.01689 0.73865 0.29443 0.0
H1573 H 0.06286 0.75167 0.24253 0.0
H1574 H 0.09325 0.76299 0.22608 0.0
H1575 H 0.08095 0.82329 0.24318 0.0
H1576 H 0.05081 0.81168 0.26031 0.0
H1577 H 0.98607 0.8125 0.26056 0.0
H1578 H 0.95635 0.82491 0.24349 0.0
H1579 H 0.94062 0.765 0.22641 0.0
H1580 H 0.97057 0.75286 0.24282 0.0
H1581 H 0.01783 0.79365 0.24516 0.0
H1582 H 0.96669 0.77626 0.29398 0.0
H1583 H 0.93557 0.76045 0.30522 0.0
H1584 H 0.95793 0.70334 0.28783 0.0
H1585 H 0.98858 0.7192 0.27618 0.0
C1586 C 0.05417 0.74822 0.28391 0.0
C1587 C 0.056 0.72752 0.2827 0.0
C1588 C 0.07342 0.71819 0.28904 0.0
C1589 C 0.08954 0.72928 0.29682 0.0
C1590 C 0.08758 0.75 0.29837 0.0
C1591 C 0.07009 0.75936 0.29199 0.0
C1592 C 0.03556 0.75792 0.27666 0.0
C1593 C 0.0171 0.75063 0.28359 0.0
C1594 C 0.03583 0.77374 0.26265 0.0
C1595 C 0.05461 0.78075 0.25295 0.0
C1596 C 0.06682 0.76729 0.24303 0.0
C1597 C 0.08413 0.77385 0.23339 0.0
C1598 C 0.0896 0.7941 0.23319 0.0
C1599 C 0.07737 0.80757 0.2432 0.0
C1600 C 0.06003 0.80097 0.25289 0.0
C1601 C 0.98053 0.78169 0.25323 0.0
C1602 C 0.97618 0.80204 0.25317 0.0
C1603 C 0.95908 0.80911 0.24351 0.0
C1604 C 0.94602 0.796 0.23349 0.0
C1605 C 0.9504 0.77561 0.23372 0.0
C1606 C 0.96745 0.76858 0.24335 0.0
C1607 C 0.99914 0.77419 0.26277 0.0
C1608 C 0.01763 0.78193 0.25629 0.0
C1609 C 0.9989 0.75833 0.27674 0.0
C1610 C 0.97999 0.74898 0.28404 0.0
C1611 C 0.96482 0.76035 0.29247 0.0
C1612 C 0.94709 0.75127 0.29906 0.0
C1613 C 0.94415 0.73061 0.29732 0.0
C1614 C 0.95949 0.7193 0.28911 0.0
C1615 C 0.97716 0.72835 0.28259 0.0
H1616 H 0.21721 0.04492 0.26509 0.0
H1617 H 0.20073 0.07482 0.25321 0.0
H1618 H 0.25765 0.09978 0.23581 0.0
H1619 H 0.27401 0.06945 0.24712 0.0
H1620 H 0.23682 0.01743 0.24793 0.0
H1621 H 0.25106 0.0633 0.29848 0.0
H1622 H 0.26211 0.09355 0.31512 0.0
H1623 H 0.32256 0.08263 0.29691 0.0
H1624 H 0.31121 0.05267 0.27953 0.0
H1625 H 0.31448 0.99133 0.27285 0.0
H1626 H 0.33151 0.96151 0.28419 0.0
H1627 H 0.276 0.93812 0.3073 0.0
H1628 H 0.25918 0.96838 0.29649 0.0
H1629 H 0.2952 0.01944 0.29329 0.0
H1630 H 0.27566 0.96944 0.24337 0.0
H1631 H 0.25995 0.93823 0.23249 0.0
H1632 H 0.20405 0.95707 0.2571 0.0
H1633 H 0.21989 0.98778 0.26837 0.0
C1634 C 0.24693 0.05488 0.25722 0.0
C1635 C 0.22617 0.05676 0.25862 0.0
C1636 C 0.21676 0.074 0.25196 0.0
C1637 C 0.22783 0.08988 0.24365 0.0
C1638 C 0.2486 0.08786 0.24198 0.0
C1639 C 0.25802 0.07057 0.24866 0.0
C1640 C 0.25683 0.03642 0.26452 0.0
C1641 C 0.2495 0.01789 0.25798 0.0
C1642 C 0.27337 0.03697 0.27773 0.0
C1643 C 0.28022 0.05574 0.28747 0.0
C1644 C 0.26665 0.06754 0.29775 0.0
C1645 C 0.27306 0.08477 0.30752 0.0
C1646 C 0.29328 0.09058 0.30749 0.0
C1647 C 0.30686 0.07879 0.29708 0.0
C1648 C 0.30041 0.06154 0.28726 0.0
C1649 C 0.28546 0.98209 0.28352 0.0
C1650 C 0.30596 0.97983 0.28041 0.0
C1651 C 0.31566 0.96263 0.28678 0.0
C1652 C 0.30514 0.94722 0.29654 0.0
C1653 C 0.28464 0.94967 0.29995 0.0
C1654 C 0.27494 0.96691 0.29357 0.0
C1655 C 0.27532 1.00049 0.27649 0.0
C1656 C 0.28264 0.01904 0.28309 0.0
C1657 C 0.2583 0.99992 0.26391 0.0
C1658 C 0.24904 0.98093 0.25692 0.0
C1659 C 0.26006 0.96675 0.24656 0.0
C1660 C 0.25101 0.94898 0.24018 0.0
C1661 C 0.23074 0.94502 0.24402 0.0
C1662 C 0.21975 0.95939 0.25418 0.0
C1663 C 0.22877 0.97709 0.2605 0.0
H1664 H 0.04701 0.76801 0.81681 0.0
H1665 H 0.0775 0.77911 0.83349 0.0
H1666 H 0.09815 0.8056 0.77855 0.0
H1667 H 0.06722 0.79503 0.76212 0.0
H1668 H 0.01795 0.78836 0.80025 0.0
H1669 H 0.06593 0.74093 0.77695 0.0
H1670 H 0.09643 0.72977 0.76091 0.0
H1671 H 0.07716 0.75669 0.70575 0.0
H1672 H 0.04712 0.76833 0.72201 0.0
H1673 H 0.98772 0.76913 0.7217 0.0
H1674 H 0.9572 0.75789 0.70518 0.0
H1675 H 0.93679 0.73159 0.76029 0.0
H1676 H 0.96776 0.74229 0.77658 0.0
H1677 H 0.01691 0.749 0.73826 0.0
H1678 H 0.96899 0.79642 0.76139 0.0
H1679 H 0.93849 0.80771 0.77733 0.0
H1680 H 0.95762 0.781 0.83265 0.0
H1681 H 0.98766 0.76924 0.81649 0.0
C1682 C 0.05483 0.78046 0.78813 0.0
C1683 C 0.05808 0.77624 0.80834 0.0
C1684 C 0.07564 0.78247 0.81783 0.0
C1685 C 0.09043 0.79316 0.80736 0.0
C1686 C 0.08707 0.79753 0.78713 0.0
C1687 C 0.06946 0.79129 0.77764 0.0
C1688 C 0.0359 0.77395 0.77828 0.0
C1689 C 0.01771 0.77953 0.78682 0.0
C1690 C 0.03564 0.76279 0.76046 0.0
C1691 C 0.05426 0.75576 0.75081 0.0
C1692 C 0.06837 0.74462 0.76146 0.0
C1693 C 0.08574 0.73804 0.75218 0.0
C1694 C 0.0894 0.74239 0.73201 0.0
C1695 C 0.07509 0.75333 0.72137 0.0
C1696 C 0.05777 0.75988 0.73063 0.0
C1697 C 0.98003 0.75678 0.75047 0.0
C1698 C 0.97671 0.76091 0.73024 0.0
C1699 C 0.95912 0.7546 0.72084 0.0
C1700 C 0.94439 0.74392 0.73141 0.0
C1701 C 0.94782 0.73964 0.75164 0.0
C1702 C 0.96546 0.74596 0.76105 0.0
C1703 C 0.99896 0.76339 0.76024 0.0
C1704 C 0.01716 0.75783 0.75169 0.0
C1705 C 0.99922 0.77459 0.77803 0.0
C1706 C 0.9806 0.7817 0.78763 0.0
C1707 C 0.96652 0.79281 0.7769 0.0
C1708 C 0.94915 0.79946 0.78611 0.0
C1709 C 0.94544 0.79521 0.8063 0.0
C1710 C 0.95972 0.78429 0.81702 0.0
C1711 C 0.97705 0.77767 0.80782 0.0
H1712 H 0.27918 0.05123 0.7256 0.0
H1713 H 0.29597 0.08173 0.7144 0.0
H1714 H 0.31078 0.09582 0.77534 0.0
H1715 H 0.29465 0.065 0.78631 0.0
H1716 H 0.2947 0.01946 0.74466 0.0
H1717 H 0.24504 0.06954 0.76073 0.0
H1718 H 0.23356 0.09969 0.77711 0.0
H1719 H 0.2472 0.07357 0.83431 0.0
H1720 H 0.25918 0.0439 0.81789 0.0
H1721 H 0.25431 0.98622 0.81441 0.0
H1722 H 0.23736 0.95571 0.82524 0.0
H1723 H 0.22753 0.93955 0.76387 0.0
H1724 H 0.24381 0.97039 0.75318 0.0
H1725 H 0.24139 0.01709 0.79535 0.0
H1726 H 0.2916 0.97033 0.78412 0.0
H1727 H 0.30823 0.94066 0.77249 0.0
H1728 H 0.29915 0.9596 0.71168 0.0
H1729 H 0.28183 0.98904 0.72347 0.0
C1730 C 0.28544 0.05585 0.75683 0.0
C1731 C 0.28604 0.06091 0.73655 0.0
C1732 C 0.29552 0.07846 0.73017 0.0
C1733 C 0.30476 0.09131 0.74394 0.0
C1734 C 0.30404 0.08621 0.76427 0.0
C1735 C 0.2946 0.06866 0.77061 0.0
C1736 C 0.27586 0.03685 0.76347 0.0
C1737 C 0.28276 0.01893 0.75546 0.0
C1738 C 0.26093 0.03618 0.77832 0.0
C1739 C 0.25326 0.05445 0.78802 0.0
C1740 C 0.24568 0.07037 0.7768 0.0
C1741 C 0.23893 0.08755 0.78621 0.0
C1742 C 0.23956 0.0892 0.80707 0.0
C1743 C 0.24679 0.07305 0.81823 0.0
C1744 C 0.25351 0.05594 0.80884 0.0
C1745 C 0.25048 0.98065 0.78295 0.0
C1746 C 0.24848 0.97612 0.80328 0.0
C1747 C 0.23893 0.95854 0.80946 0.0
C1748 C 0.23104 0.9451 0.79546 0.0
C1749 C 0.2332 0.94962 0.7751 0.0
C1750 C 0.24272 0.96719 0.76894 0.0
C1751 C 0.26008 0.99969 0.77641 0.0
C1752 C 0.2532 0.01759 0.78441 0.0
C1753 C 0.27545 1.00033 0.76201 0.0
C1754 C 0.2852 0.98193 0.75472 0.0
C1755 C 0.29289 0.968 0.76827 0.0
C1756 C 0.30264 0.95109 0.76156 0.0
C1757 C 0.30517 0.94769 0.7411 0.0
C1758 C 0.29733 0.96157 0.72752 0.0
C1759 C 0.28754 0.97853 0.73426 0.0
H1760 H 0.98976 0.27514 0.72116 0.0
H1761 H 0.9596 0.28715 0.70509 0.0
H1762 H 0.93622 0.3036 0.76229 0.0
H1763 H 0.96689 0.29205 0.77832 0.0
H1764 H 0.01796 0.29252 0.74112 0.0
H1765 H 0.97032 0.24153 0.75451 0.0
H1766 H 0.93992 0.22531 0.76634 0.0
H1767 H 0.9553 0.24138 0.82664 0.0
H1768 H 0.98544 0.25832 0.81453 0.0
H1769 H 0.05005 0.25745 0.81425 0.0
H1770 H 0.07979 0.24008 0.82596 0.0
H1771 H 0.09277 0.22337 0.76554 0.0
H1772 H 0.06278 0.24006 0.75411 0.0
H1773 H 0.01703 0.24283 0.79576 0.0
H1774 H 0.06932 0.29065 0.77822 0.0
H1775 H 0.10044 0.30129 0.76222 0.0
H1776 H 0.07566 0.28543 0.70501 0.0
H1777 H 0.045 0.27429 0.72106 0.0
C1778 C 0.98065 0.2825 0.75102 0.0
C1779 C 0.97823 0.28144 0.73029 0.0
C1780 C 0.96083 0.28816 0.72111 0.0
C1781 C 0.94531 0.2962 0.73238 0.0
C1782 C 0.94787 0.2976 0.75312 0.0
C1783 C 0.96534 0.29082 0.76234 0.0
C1784 C 0.99927 0.27491 0.76051 0.0
C1785 C 0.01774 0.28159 0.75302 0.0
C1786 C 0.99901 0.26081 0.77627 0.0
C1787 C 0.98012 0.25144 0.78356 0.0
C1788 C 0.96702 0.2419 0.77024 0.0
C1789 C 0.94971 0.23237 0.77709 0.0
C1790 C 0.94512 0.23191 0.7975 0.0
C1791 C 0.95819 0.24161 0.81082 0.0
C1792 C 0.97553 0.25118 0.80392 0.0
C1793 C 0.05421 0.25031 0.78324 0.0
C1794 C 0.05933 0.25005 0.80353 0.0
C1795 C 0.07645 0.24023 0.8102 0.0
C1796 C 0.08876 0.23026 0.79673 0.0
C1797 C 0.08358 0.23064 0.77641 0.0
C1798 C 0.0665 0.24042 0.76979 0.0
C1799 C 0.0357 0.26023 0.77613 0.0
C1800 C 0.01724 0.25405 0.78412 0.0
C1801 C 0.03593 0.27437 0.76041 0.0
C1802 C 0.05481 0.28145 0.7509 0.0
C1803 C 0.07065 0.28935 0.76224 0.0
C1804 C 0.08839 0.29561 0.75305 0.0
C1805 C 0.09066 0.29411 0.73231 0.0
C1806 C 0.07462 0.2865 0.72102 0.0
C1807 C 0.05696 0.28028 0.73019 0.0
H1808 H 0.71758 0.0458 0.76494 0.0
H1809 H 0.70115 0.07572 0.75308 0.0
H1810 H 0.75809 0.10055 0.73556 0.0
H1811 H 0.77441 0.07019 0.74687 0.0
H1812 H 0.73704 0.01828 0.74768 0.0
H1813 H 0.75167 0.06409 0.79824 0.0
H1814 H 0.76297 0.09416 0.81504 0.0
H1815 H 0.82331 0.08286 0.79672 0.0
H1816 H 0.81171 0.05309 0.77918 0.0
H1817 H 0.8147 0.99187 0.77226 0.0
H1818 H 0.83166 0.96195 0.78346 0.0
H1819 H 0.77616 0.9387 0.8067 0.0
H1820 H 0.75941 0.96905 0.79604 0.0
H1821 H 0.79558 0.01998 0.79285 0.0
H1822 H 0.77577 0.97019 0.74289 0.0
H1823 H 0.76002 0.939 0.73205 0.0
H1824 H 0.70419 0.95788 0.75679 0.0
H1825 H 0.72009 0.98858 0.76803 0.0
C1826 C 0.74731 0.05568 0.75702 0.0
C1827 C 0.72656 0.05761 0.75846 0.0
C1828 C 0.71718 0.07488 0.75181 0.0
C1829 C 0.72826 0.09072 0.74346 0.0
C1830 C 0.74903 0.08866 0.74177 0.0
C1831 C 0.75843 0.07134 0.74845 0.0
C1832 C 0.75718 0.03717 0.76425 0.0
C1833 C 0.74975 0.01867 0.7577 0.0
C1834 C 0.77377 0.03763 0.77741 0.0
C1835 C 0.78075 0.05635 0.78716 0.0
C1836 C 0.76729 0.06822 0.79751 0.0
C1837 C 0.77384 0.08534 0.80737 0.0
C1838 C 0.79411 0.09098 0.80737 0.0
C1839 C 0.80758 0.07915 0.79688 0.0
C1840 C 0.80098 0.062 0.78696 0.0
C1841 C 0.78568 0.9827 0.78301 0.0
C1842 C 0.80617 0.98037 0.77982 0.0
C1843 C 0.81583 0.96312 0.78611 0.0
C1844 C 0.80529 0.94772 0.79586 0.0
C1845 C 0.78482 0.95023 0.79936 0.0
C1846 C 0.77515 0.96753 0.79306 0.0
C1847 C 0.77558 1.00114 0.77607 0.0
C1848 C 0.78299 0.01965 0.78268 0.0
C1849 C 0.75852 1.00066 0.76354 0.0
C1850 C 0.7492 0.9817 0.75651 0.0
C1851 C 0.76018 0.96752 0.74611 0.0
C1852 C 0.7511 0.94976 0.73976 0.0
C1853 C 0.73083 0.94581 0.74365 0.0
C1854 C 0.71988 0.9602 0.75382 0.0
C1855 C 0.72893 0.97789 0.76013 0.0
H1856 H 0.31232 0.7802 0.48743 0.0
H1857 H 0.32389 0.79707 0.45719 0.0
H1858 H 0.26306 0.81112 0.44208 0.0
H1859 H 0.25173 0.79492 0.47261 0.0
H1860 H 0.29317 0.79529 0.5191 0.0
H1861 H 0.27683 0.74565 0.4684 0.0
H1862 H 0.26054 0.73412 0.43779 0.0
H1863 H 0.20321 0.74759 0.4628 0.0
H1864 H 0.21954 0.75961 0.49296 0.0
H1865 H 0.22237 0.75457 0.55075 0.0
H1866 H 0.21098 0.73776 0.58104 0.0
H1867 H 0.27215 0.72869 0.5987 0.0
H1868 H 0.28339 0.74482 0.56809 0.0
H1869 H 0.24161 0.74196 0.52018 0.0
H1870 H 0.25319 0.79215 0.56748 0.0
H1871 H 0.26484 0.80896 0.59744 0.0
H1872 H 0.32577 0.80012 0.57959 0.0
H1873 H 0.31395 0.78261 0.54988 0.0
C1874 C 0.28111 0.78607 0.4823 0.0
C1875 C 0.30147 0.78691 0.47758 0.0
C1876 C 0.30806 0.79643 0.46017 0.0
C1877 C 0.29445 0.80551 0.44709 0.0
C1878 C 0.27404 0.80454 0.45184 0.0
C1879 C 0.26748 0.79504 0.46924 0.0
C1880 C 0.27421 0.77644 0.50117 0.0
C1881 C 0.28218 0.78335 0.51934 0.0
C1882 C 0.25913 0.76149 0.50151 0.0
C1883 C 0.24947 0.75377 0.48298 0.0
C1884 C 0.26076 0.74624 0.46723 0.0
C1885 C 0.2514 0.73946 0.44978 0.0
C1886 C 0.23053 0.74004 0.4477 0.0
C1887 C 0.2193 0.74723 0.46367 0.0
C1888 C 0.22864 0.75396 0.48106 0.0
C1889 C 0.25378 0.75112 0.55706 0.0
C1890 C 0.23334 0.74894 0.56113 0.0
C1891 C 0.22684 0.73946 0.5786 0.0
C1892 C 0.2406 0.7318 0.59241 0.0
C1893 C 0.26107 0.73415 0.58835 0.0
C1894 C 0.26756 0.74361 0.57089 0.0
C1895 C 0.26068 0.76068 0.53813 0.0
C1896 C 0.25275 0.75377 0.51997 0.0
C1897 C 0.27535 0.77605 0.53782 0.0
C1898 C 0.28264 0.78585 0.55642 0.0
C1899 C 0.26907 0.79352 0.57012 0.0
C1900 C 0.27579 0.80338 0.58719 0.0
C1901 C 0.29629 0.80604 0.59098 0.0
C1902 C 0.30989 0.7982 0.57732 0.0
C1903 C 0.30314 0.78831 0.56021 0.0
H1904 H 0.77489 0.72446 0.48714 0.0
H1905 H 0.79182 0.71269 0.45735 0.0
H1906 H 0.81233 0.77252 0.44498 0.0
H1907 H 0.7961 0.78398 0.47504 0.0
H1908 H 0.78933 0.74046 0.52008 0.0
H1909 H 0.74366 0.76181 0.46964 0.0
H1910 H 0.73282 0.77804 0.43886 0.0
H1911 H 0.75253 0.83465 0.46211 0.0
H1912 H 0.76393 0.81828 0.49248 0.0
H1913 H 0.76609 0.81601 0.54995 0.0
H1914 H 0.75502 0.83192 0.58033 0.0
H1915 H 0.7292 0.77629 0.6004 0.0
H1916 H 0.73985 0.76054 0.56951 0.0
H1917 H 0.74565 0.79918 0.52052 0.0
H1918 H 0.79354 0.77674 0.57006 0.0
H1919 H 0.80414 0.76007 0.6007 0.0
H1920 H 0.77928 0.70482 0.5789 0.0
H1921 H 0.76814 0.72171 0.5487 0.0
C1922 C 0.784 0.75517 0.48333 0.0
C1923 C 0.78303 0.73503 0.478 0.0
C1924 C 0.79261 0.72834 0.46084 0.0
C1925 C 0.80352 0.74162 0.4487 0.0
C1926 C 0.80432 0.76179 0.45405 0.0
C1927 C 0.7948 0.76844 0.47117 0.0
C1928 C 0.77447 0.76228 0.50195 0.0
C1929 C 0.77948 0.75309 0.52014 0.0
C1930 C 0.76178 0.77893 0.50208 0.0
C1931 C 0.75485 0.78875 0.48337 0.0
C1932 C 0.74581 0.77769 0.46804 0.0
C1933 C 0.73942 0.78704 0.4505 0.0
C1934 C 0.74186 0.80767 0.4479 0.0
C1935 C 0.75069 0.81871 0.4634 0.0
C1936 C 0.75707 0.80937 0.4809 0.0
C1937 C 0.75401 0.787 0.55743 0.0
C1938 C 0.75799 0.80721 0.56083 0.0
C1939 C 0.75178 0.81627 0.57835 0.0
C1940 C 0.74135 0.80538 0.59298 0.0
C1941 C 0.73711 0.78517 0.58944 0.0
C1942 C 0.74336 0.77609 0.57185 0.0
C1943 C 0.7609 0.77767 0.53865 0.0
C1944 C 0.75535 0.78643 0.52042 0.0
C1945 C 0.77301 0.76058 0.5385 0.0
C1946 C 0.77974 0.75057 0.55715 0.0
C1947 C 0.79018 0.76108 0.57198 0.0
C1948 C 0.79644 0.75146 0.58943 0.0
C1949 C 0.7925 0.73108 0.59239 0.0
C1950 C 0.78228 0.72058 0.57735 0.0
C1951 C 0.77602 0.7302 0.55996 0.0
H1952 H 0.76965 0.31609 0.54838 0.0
H1953 H 0.7809 0.33243 0.57873 0.0
H1954 H 0.80517 0.27712 0.6 0.0
H1955 H 0.79435 0.26092 0.56915 0.0
H1956 H 0.78993 0.29904 0.5196 0.0
H1957 H 0.74111 0.27685 0.56847 0.0
H1958 H 0.72981 0.26045 0.59907 0.0
H1959 H 0.75345 0.20504 0.57825 0.0
H1960 H 0.76525 0.22165 0.54809 0.0
H1961 H 0.75948 0.22383 0.48623 0.0
H1962 H 0.74243 0.21169 0.45628 0.0
H1963 H 0.72325 0.2713 0.44307 0.0
H1964 H 0.7396 0.28313 0.47325 0.0
H1965 H 0.74506 0.24006 0.51878 0.0
H1966 H 0.79153 0.2615 0.46872 0.0
H1967 H 0.80282 0.27778 0.43805 0.0
H1968 H 0.78415 0.33428 0.46099 0.0
H1969 H 0.77235 0.31788 0.49122 0.0
C1970 C 0.78094 0.2872 0.55646 0.0
C1971 C 0.77744 0.30745 0.55952 0.0
C1972 C 0.78375 0.31675 0.57703 0.0
C1973 C 0.79382 0.30609 0.59199 0.0
C1974 C 0.79756 0.28583 0.5888 0.0
C1975 C 0.7912 0.2765 0.57122 0.0
C1976 C 0.77403 0.27763 0.53762 0.0
C1977 C 0.77998 0.28623 0.51941 0.0
C1978 C 0.76155 0.26046 0.53739 0.0
C1979 C 0.75435 0.2506 0.55603 0.0
C1980 C 0.74405 0.26121 0.57059 0.0
C1981 C 0.73738 0.25174 0.58802 0.0
C1982 C 0.74079 0.2314 0.59128 0.0
C1983 C 0.75085 0.22078 0.5765 0.0
C1984 C 0.75749 0.23024 0.55911 0.0
C1985 C 0.75105 0.25447 0.48199 0.0
C1986 C 0.75162 0.23428 0.47685 0.0
C1987 C 0.74197 0.22738 0.45962 0.0
C1988 C 0.73137 0.24047 0.4472 0.0
C1989 C 0.731 0.26069 0.45234 0.0
C1990 C 0.7406 0.26756 0.46954 0.0
C1991 C 0.76057 0.2618 0.50075 0.0
C1992 C 0.75517 0.25275 0.51894 0.0
C1993 C 0.7736 0.27855 0.50098 0.0
C1994 C 0.78083 0.28838 0.4823 0.0
C1995 C 0.78971 0.27737 0.46708 0.0
C1996 C 0.79636 0.28675 0.4496 0.0
C1997 C 0.79433 0.30737 0.44692 0.0
C1998 C 0.78568 0.31835 0.46232 0.0
C1999 C 0.77907 0.30899 0.47975 0.0
H2000 H 0.27525 0.22432 0.4868 0.0
H2001 H 0.29215 0.21258 0.45698 0.0
H2002 H 0.31261 0.27243 0.44461 0.0
H2003 H 0.29642 0.28386 0.47471 0.0
H2004 H 0.28978 0.24028 0.5197 0.0
H2005 H 0.24398 0.2617 0.46943 0.0
H2006 H 0.23306 0.27796 0.43868 0.0
H2007 H 0.25282 0.33455 0.46195 0.0
H2008 H 0.26429 0.31815 0.49228 0.0
H2009 H 0.2667 0.3158 0.54975 0.0
H2010 H 0.25589 0.33162 0.58029 0.0
H2011 H 0.23018 0.27595 0.60036 0.0
H2012 H 0.24053 0.2603 0.56933 0.0
H2013 H 0.24614 0.29902 0.52036 0.0
H2014 H 0.29422 0.27651 0.56968 0.0
H2015 H 0.3048 0.25985 0.60033 0.0
H2016 H 0.27975 0.20465 0.57863 0.0
H2017 H 0.26863 0.22153 0.54842 0.0
C2018 C 0.28434 0.25504 0.48299 0.0
C2019 C 0.28337 0.23491 0.47765 0.0
C2020 C 0.29293 0.22823 0.46048 0.0
C2021 C 0.30382 0.24152 0.44833 0.0
C2022 C 0.30461 0.26169 0.45369 0.0
C2023 C 0.29511 0.26832 0.47082 0.0
C2024 C 0.27487 0.26212 0.50165 0.0
C2025 C 0.27994 0.25291 0.51981 0.0
C2026 C 0.26218 0.27879 0.50184 0.0
C2027 C 0.2552 0.28863 0.48316 0.0
C2028 C 0.24612 0.27759 0.46784 0.0
C2029 C 0.23968 0.28695 0.45032 0.0
C2030 C 0.24212 0.30759 0.44774 0.0
C2031 C 0.25098 0.3186 0.46323 0.0
C2032 C 0.2574 0.30925 0.48071 0.0
C2033 C 0.25464 0.28679 0.55724 0.0
C2034 C 0.25866 0.30698 0.56067 0.0
C2035 C 0.25261 0.31598 0.57827 0.0
C2036 C 0.2423 0.30505 0.59295 0.0
C2037 C 0.23799 0.28486 0.58937 0.0
C2038 C 0.24408 0.27584 0.5717 0.0
C2039 C 0.26145 0.27749 0.5384 0.0
C2040 C 0.25582 0.28627 0.52021 0.0
C2041 C 0.27354 0.26039 0.53819 0.0
C2042 C 0.28033 0.25037 0.55681 0.0
C2043 C 0.29083 0.26086 0.57162 0.0
C2044 C 0.29706 0.25125 0.58908 0.0
C2045 C 0.29306 0.23089 0.59208 0.0
C2046 C 0.2828 0.2204 0.57706 0.0
C2047 C 0.27657 0.23 0.55965 0.0
H2048 H 0.75952 0.54416 0.81819 0.0
H2049 H 0.74783 0.57396 0.83461 0.0
H2050 H 0.73387 0.59996 0.77743 0.0
H2051 H 0.74509 0.56969 0.76106 0.0
H2052 H 0.74127 0.5174 0.79575 0.0
H2053 H 0.79486 0.56494 0.78648 0.0
H2054 H 0.81101 0.59571 0.7754 0.0
H2055 H 0.79585 0.58162 0.71455 0.0
H2056 H 0.77904 0.55117 0.72586 0.0
H2057 H 0.78138 0.48864 0.72398 0.0
H2058 H 0.79836 0.45889 0.71244 0.0
H2059 H 0.8076 0.44058 0.77341 0.0
H2060 H 0.79131 0.47054 0.78479 0.0
H2061 H 0.79453 0.51929 0.74499 0.0
H2062 H 0.74338 0.47062 0.75364 0.0
H2063 H 0.72707 0.4398 0.76435 0.0
H2064 H 0.73702 0.45594 0.82571 0.0
H2065 H 0.754 0.48643 0.81485 0.0
C2066 C 0.75342 0.55465 0.78834 0.0
C2067 C 0.75384 0.5562 0.80915 0.0
C2068 C 0.7473 0.57338 0.81853 0.0
C2069 C 0.74006 0.58953 0.80737 0.0
C2070 C 0.73925 0.58782 0.78652 0.0
C2071 C 0.74585 0.57057 0.77711 0.0
C2072 C 0.76091 0.53631 0.77865 0.0
C2073 C 0.75306 0.5178 0.78479 0.0
C2074 C 0.77582 0.53686 0.76377 0.0
C2075 C 0.78548 0.55579 0.75706 0.0
C2076 C 0.79475 0.56859 0.77078 0.0
C2077 C 0.8042 0.58611 0.76437 0.0
C2078 C 0.80481 0.5912 0.74404 0.0
C2079 C 0.79547 0.57836 0.73033 0.0
C2080 C 0.78599 0.56083 0.73676 0.0
C2081 C 0.78486 0.48185 0.75529 0.0
C2082 C 0.78707 0.47821 0.73486 0.0
C2083 C 0.79665 0.46108 0.72827 0.0
C2084 C 0.80442 0.44727 0.74197 0.0
C2085 C 0.80206 0.45094 0.7624 0.0
C2086 C 0.79251 0.46802 0.76896 0.0
C2087 C 0.7752 0.50034 0.76244 0.0
C2088 C 0.78261 0.51888 0.75581 0.0
C2089 C 0.75983 0.49983 0.77683 0.0
C2090 C 0.75011 0.48086 0.7834 0.0
C2091 C 0.7423 0.46743 0.7694 0.0
C2092 C 0.73276 0.44987 0.77557 0.0
C2093 C 0.73064 0.44534 0.79593 0.0
C2094 C 0.73857 0.45878 0.80992 0.0
C2095 C 0.74813 0.47634 0.80373 0.0
H2096 H 0.31151 0.55299 0.77981 0.0
H2097 H 0.32276 0.58299 0.79719 0.0
H2098 H 0.26223 0.5938 0.81525 0.0
H2099 H 0.25129 0.56351 0.7986 0.0
H2100 H 0.29552 0.51975 0.79359 0.0
H2101 H 0.27434 0.5697 0.74731 0.0
H2102 H 0.2579 0.59998 0.73596 0.0
H2103 H 0.20101 0.57484 0.75321 0.0
H2104 H 0.21756 0.54499 0.76512 0.0
H2105 H 0.2204 0.48785 0.76828 0.0
H2106 H 0.20477 0.45701 0.75705 0.0
H2107 H 0.26092 0.43837 0.73283 0.0
H2108 H 0.2764 0.4697 0.74365 0.0
H2109 H 0.23733 0.51757 0.74799 0.0
H2110 H 0.25958 0.46864 0.79667 0.0
H2111 H 0.27637 0.43836 0.8075 0.0
H2112 H 0.33195 0.4618 0.78462 0.0
H2113 H 0.31495 0.49164 0.77325 0.0
C2114 C 0.28049 0.556 0.78767 0.0
C2115 C 0.30067 0.56184 0.7875 0.0
C2116 C 0.30706 0.57912 0.79733 0.0
C2117 C 0.29343 0.59088 0.80769 0.0
C2118 C 0.27322 0.58504 0.80767 0.0
C2119 C 0.26687 0.56779 0.79791 0.0
C2120 C 0.27371 0.53721 0.77793 0.0
C2121 C 0.28301 0.51931 0.78333 0.0
C2122 C 0.25722 0.53662 0.76466 0.0
C2123 C 0.24727 0.55504 0.75734 0.0
C2124 C 0.25834 0.57077 0.74881 0.0
C2125 C 0.24888 0.58803 0.74211 0.0
C2126 C 0.22809 0.58998 0.74373 0.0
C2127 C 0.21706 0.57407 0.752 0.0
C2128 C 0.22651 0.55685 0.75868 0.0
C2129 C 0.24964 0.4811 0.75702 0.0
C2130 C 0.22937 0.47718 0.76049 0.0
C2131 C 0.22048 0.45941 0.75419 0.0
C2132 C 0.2316 0.44505 0.74417 0.0
C2133 C 0.25187 0.44911 0.74041 0.0
C2134 C 0.26079 0.46695 0.74676 0.0
C2135 C 0.2588 0.50012 0.76406 0.0
C2136 C 0.24996 0.51807 0.7581 0.0
C2137 C 0.27576 0.50074 0.77672 0.0
C2138 C 0.28589 0.48237 0.78381 0.0
C2139 C 0.27535 0.46717 0.79381 0.0
C2140 C 0.28503 0.44992 0.80021 0.0
C2141 C 0.30554 0.44749 0.79685 0.0
C2142 C 0.31609 0.46292 0.78716 0.0
C2143 C 0.30641 0.48012 0.78077 0.0
H2144 H 0.27944 0.55098 0.22545 0.0
H2145 H 0.29617 0.58149 0.2142 0.0
H2146 H 0.3113 0.59549 0.27508 0.0
H2147 H 0.29523 0.56466 0.28609 0.0
H2148 H 0.29499 0.51912 0.24447 0.0
H2149 H 0.24551 0.56932 0.26062 0.0
H2150 H 0.2343 0.59959 0.27698 0.0
H2151 H 0.24811 0.57357 0.33418 0.0
H2152 H 0.25983 0.54377 0.31778 0.0
H2153 H 0.25466 0.48605 0.31435 0.0
H2154 H 0.23764 0.45559 0.32523 0.0
H2155 H 0.22765 0.43942 0.26389 0.0
H2156 H 0.244 0.47021 0.25315 0.0
H2157 H 0.24183 0.51695 0.29532 0.0
H2158 H 0.29185 0.47003 0.28399 0.0
H2159 H 0.3084 0.44033 0.27234 0.0
H2160 H 0.29927 0.45926 0.21154 0.0
H2161 H 0.28202 0.48872 0.22334 0.0
C2162 C 0.28587 0.55555 0.25665 0.0
C2163 C 0.28636 0.56063 0.23637 0.0
C2164 C 0.2958 0.5782 0.22997 0.0
C2165 C 0.30511 0.59103 0.2437 0.0
C2166 C 0.30452 0.5859 0.26403 0.0
C2167 C 0.29512 0.56834 0.2704 0.0
C2168 C 0.27626 0.53658 0.26332 0.0
C2169 C 0.28309 0.51864 0.25531 0.0
C2170 C 0.26137 0.53596 0.27822 0.0
C2171 C 0.2538 0.55427 0.28791 0.0
C2172 C 0.24624 0.57019 0.27668 0.0
C2173 C 0.23964 0.58745 0.28608 0.0
C2174 C 0.24042 0.58916 0.30693 0.0
C2175 C 0.24761 0.573 0.3181 0.0
C2176 C 0.25417 0.55581 0.30873 0.0
C2177 C 0.25075 0.48046 0.2829 0.0
C2178 C 0.24878 0.47595 0.30324 0.0
C2179 C 0.23919 0.45841 0.30945 0.0
C2180 C 0.23123 0.44498 0.29547 0.0
C2181 C 0.23337 0.44948 0.27511 0.0
C2182 C 0.24293 0.46702 0.26892 0.0
C2183 C 0.26041 0.49947 0.27633 0.0
C2184 C 0.2536 0.51741 0.28434 0.0
C2185 C 0.27574 0.50006 0.26189 0.0
C2186 C 0.28542 0.48162 0.25459 0.0
C2187 C 0.2931 0.46769 0.26813 0.0
C2188 C 0.30281 0.45076 0.26142 0.0
C2189 C 0.30531 0.44735 0.24095 0.0
C2190 C 0.29747 0.46124 0.22738 0.0
C2191 C 0.28772 0.47821 0.23413 0.0
H2192 H 0.71706 0.54551 0.26447 0.0
H2193 H 0.70067 0.57546 0.25258 0.0
H2194 H 0.7577 0.60036 0.23543 0.0
H2195 H 0.77397 0.56999 0.24676 0.0
H2196 H 0.73669 0.518 0.24736 0.0
H2197 H 0.75082 0.56375 0.29802 0.0
H2198 H 0.76184 0.59394 0.31481 0.0
H2199 H 0.82236 0.58301 0.2968 0.0
H2200 H 0.81104 0.55312 0.27927 0.0
H2201 H 0.8143 0.49184 0.27227 0.0
H2202 H 0.83132 0.46198 0.2835 0.0
H2203 H 0.77582 0.43851 0.30654 0.0
H2204 H 0.759 0.46881 0.29584 0.0
H2205 H 0.79498 0.51988 0.29284 0.0
H2206 H 0.77552 0.47 0.24275 0.0
H2207 H 0.75986 0.43877 0.23189 0.0
H2208 H 0.70391 0.45754 0.25647 0.0
H2209 H 0.71972 0.48828 0.26773 0.0
C2210 C 0.74683 0.55543 0.25673 0.0
C2211 C 0.72607 0.55735 0.25805 0.0
C2212 C 0.71671 0.57462 0.25139 0.0
C2213 C 0.72783 0.5905 0.24315 0.0
C2214 C 0.74861 0.58845 0.24156 0.0
C2215 C 0.75798 0.57113 0.24824 0.0
C2216 C 0.75668 0.53695 0.26403 0.0
C2217 C 0.74935 0.51843 0.25744 0.0
C2218 C 0.77319 0.53745 0.27729 0.0
C2219 C 0.78002 0.55619 0.2871 0.0
C2220 C 0.76642 0.56798 0.29737 0.0
C2221 C 0.77281 0.58517 0.30722 0.0
C2222 C 0.79304 0.59095 0.30729 0.0
C2223 C 0.80665 0.57918 0.2969 0.0
C2224 C 0.80021 0.56197 0.28699 0.0
C2225 C 0.78527 0.48256 0.28292 0.0
C2226 C 0.80578 0.48031 0.27979 0.0
C2227 C 0.81548 0.46309 0.2861 0.0
C2228 C 0.80496 0.44764 0.2958 0.0
C2229 C 0.78446 0.45008 0.29923 0.0
C2230 C 0.77475 0.46735 0.29291 0.0
C2231 C 0.77514 0.50098 0.27594 0.0
C2232 C 0.78244 0.51951 0.28261 0.0
C2233 C 0.75813 0.50044 0.26334 0.0
C2234 C 0.74888 0.48146 0.2563 0.0
C2235 C 0.75992 0.4673 0.24593 0.0
C2236 C 0.75089 0.44951 0.23956 0.0
C2237 C 0.73063 0.44552 0.24341 0.0
C2238 C 0.71961 0.45989 0.25354 0.0
C2239 C 0.72861 0.47761 0.25986 0.0
H2240 H 0.5471 0.26863 0.7222 0.0
H2241 H 0.57713 0.25714 0.70584 0.0
H2242 H 0.59656 0.23004 0.76085 0.0
H2243 H 0.56605 0.24105 0.77699 0.0
H2244 H 0.51694 0.24921 0.7384 0.0
H2245 H 0.56721 0.29519 0.76242 0.0
H2246 H 0.59815 0.30573 0.77886 0.0
H2247 H 0.57761 0.27896 0.8337 0.0
H2248 H 0.54712 0.26788 0.81701 0.0
H2249 H 0.48778 0.26902 0.81679 0.0
H2250 H 0.45777 0.2807 0.83307 0.0
H2251 H 0.43851 0.30767 0.77794 0.0
H2252 H 0.46897 0.29646 0.76186 0.0
H2253 H 0.51801 0.28826 0.80059 0.0
H2254 H 0.46783 0.24226 0.77675 0.0
H2255 H 0.43688 0.23156 0.76043 0.0
H2256 H 0.45721 0.25814 0.70542 0.0
H2257 H 0.48772 0.26938 0.72198 0.0
C2258 C 0.5543 0.25596 0.75093 0.0
C2259 C 0.55777 0.26017 0.73076 0.0
C2260 C 0.5751 0.25371 0.72145 0.0
C2261 C 0.58945 0.24276 0.73202 0.0
C2262 C 0.58583 0.23831 0.75218 0.0
C2263 C 0.56846 0.2448 0.76151 0.0
C2264 C 0.53568 0.26292 0.76065 0.0
C2265 C 0.51719 0.25798 0.75187 0.0
C2266 C 0.53595 0.27398 0.77852 0.0
C2267 C 0.55488 0.28048 0.78838 0.0
C2268 C 0.56948 0.29138 0.77792 0.0
C2269 C 0.58709 0.29761 0.78742 0.0
C2270 C 0.59048 0.29315 0.80762 0.0
C2271 C 0.57572 0.28239 0.81806 0.0
C2272 C 0.55816 0.27617 0.80857 0.0
C2273 C 0.48065 0.28161 0.788 0.0
C2274 C 0.47714 0.27749 0.80818 0.0
C2275 C 0.45983 0.28406 0.81745 0.0
C2276 C 0.44554 0.29504 0.80683 0.0
C2277 C 0.44919 0.29938 0.78665 0.0
C2278 C 0.46654 0.29277 0.77736 0.0
C2279 C 0.49927 0.27457 0.77834 0.0
C2280 C 0.51776 0.2795 0.78712 0.0
C2281 C 0.49899 0.26347 0.76048 0.0
C2282 C 0.48006 0.25689 0.7507 0.0
C2283 C 0.46552 0.24599 0.76124 0.0
C2284 C 0.44789 0.23968 0.75181 0.0
C2285 C 0.44445 0.24403 0.73159 0.0
C2286 C 0.45915 0.25479 0.72107 0.0
C2287 C 0.47672 0.2611 0.73049 0.0
H2288 H 0.54382 0.71899 0.77647 0.0
H2289 H 0.57391 0.70258 0.78802 0.0
H2290 H 0.59944 0.75938 0.8044 0.0
H2291 H 0.56887 0.77573 0.79335 0.0
H2292 H 0.5167 0.73913 0.79419 0.0
H2293 H 0.56294 0.75214 0.74254 0.0
H2294 H 0.59338 0.76345 0.72619 0.0
H2295 H 0.581 0.82376 0.74318 0.0
H2296 H 0.5508 0.81216 0.76022 0.0
H2297 H 0.48623 0.81308 0.76014 0.0
H2298 H 0.45668 0.82562 0.74287 0.0
H2299 H 0.44065 0.76573 0.72595 0.0
H2300 H 0.47046 0.75347 0.74253 0.0
H2301 H 0.51791 0.79417 0.74497 0.0
H2302 H 0.46655 0.77675 0.79361 0.0
H2303 H 0.43544 0.7609 0.80485 0.0
H2304 H 0.45784 0.70383 0.78741 0.0
H2305 H 0.48848 0.71972 0.77577 0.0
C2306 C 0.55402 0.74866 0.78385 0.0
C2307 C 0.55581 0.72795 0.78266 0.0
C2308 C 0.57317 0.71858 0.78912 0.0
C2309 C 0.58926 0.72964 0.797 0.0
C2310 C 0.58734 0.75037 0.79852 0.0
C2311 C 0.56992 0.75977 0.79202 0.0
C2312 C 0.53546 0.75839 0.77652 0.0
C2313 C 0.51696 0.75112 0.78336 0.0
C2314 C 0.53581 0.77423 0.76251 0.0
C2315 C 0.55464 0.78123 0.7529 0.0
C2316 C 0.5669 0.76776 0.74305 0.0
C2317 C 0.58424 0.77432 0.73346 0.0
C2318 C 0.58969 0.79457 0.73325 0.0
C2319 C 0.57743 0.80804 0.7432 0.0
C2320 C 0.56006 0.80145 0.75284 0.0
C2321 C 0.48055 0.78228 0.75289 0.0
C2322 C 0.47631 0.80266 0.75275 0.0
C2323 C 0.4593 0.8098 0.74298 0.0
C2324 C 0.44622 0.79673 0.73293 0.0
C2325 C 0.45046 0.77631 0.73327 0.0
C2326 C 0.46743 0.76921 0.743 0.0
C2327 C 0.49912 0.77472 0.76248 0.0
C2328 C 0.51764 0.78244 0.75609 0.0
C2329 C 0.4988 0.75884 0.77644 0.0
C2330 C 0.47986 0.74948 0.78365 0.0
C2331 C 0.46468 0.76084 0.79209 0.0
C2332 C 0.44696 0.75173 0.79868 0.0
C2333 C 0.44404 0.73108 0.79694 0.0
C2334 C 0.45939 0.71978 0.7887 0.0
C2335 C 0.47704 0.72886 0.78218 0.0
H2336 H 0.54697 0.7686 0.22205 0.0
H2337 H 0.57702 0.75713 0.20569 0.0
H2338 H 0.59645 0.73002 0.26071 0.0
H2339 H 0.56593 0.74101 0.27684 0.0
H2340 H 0.51682 0.74918 0.23824 0.0
H2341 H 0.56708 0.79516 0.26228 0.0
H2342 H 0.59802 0.8057 0.27873 0.0
H2343 H 0.57746 0.77891 0.33357 0.0
H2344 H 0.54698 0.76783 0.31687 0.0
H2345 H 0.48764 0.76895 0.31664 0.0
H2346 H 0.45764 0.78063 0.33292 0.0
H2347 H 0.43839 0.80763 0.27779 0.0
H2348 H 0.46885 0.79642 0.26172 0.0
H2349 H 0.51787 0.78821 0.30045 0.0
H2350 H 0.4677 0.74221 0.27659 0.0
H2351 H 0.43675 0.73153 0.26026 0.0
H2352 H 0.45709 0.75812 0.20526 0.0
H2353 H 0.4876 0.76934 0.22183 0.0
C2354 C 0.55418 0.75592 0.25079 0.0
C2355 C 0.55765 0.76014 0.23062 0.0
C2356 C 0.57499 0.75369 0.2213 0.0
C2357 C 0.58935 0.74274 0.23188 0.0
C2358 C 0.58572 0.73829 0.25203 0.0
C2359 C 0.56834 0.74477 0.26136 0.0
C2360 C 0.53556 0.76288 0.2605 0.0
C2361 C 0.51707 0.75794 0.25172 0.0
C2362 C 0.53582 0.77394 0.27838 0.0
C2363 C 0.55475 0.78043 0.28824 0.0
C2364 C 0.56934 0.79135 0.27779 0.0
C2365 C 0.58696 0.79757 0.28729 0.0
C2366 C 0.59034 0.79311 0.3075 0.0
C2367 C 0.57558 0.78234 0.31793 0.0
C2368 C 0.55802 0.77612 0.30843 0.0
C2369 C 0.48052 0.78156 0.28785 0.0
C2370 C 0.47701 0.77743 0.30803 0.0
C2371 C 0.4597 0.784 0.3173 0.0
C2372 C 0.44541 0.79498 0.30668 0.0
C2373 C 0.44906 0.79933 0.2865 0.0
C2374 C 0.46641 0.79272 0.27722 0.0
C2375 C 0.49914 0.77452 0.27819 0.0
C2376 C 0.51763 0.77945 0.28697 0.0
C2377 C 0.49887 0.76343 0.26033 0.0
C2378 C 0.47994 0.75685 0.25054 0.0
C2379 C 0.46539 0.74595 0.26107 0.0
C2380 C 0.44777 0.73964 0.25165 0.0
C2381 C 0.44432 0.74401 0.23143 0.0
C2382 C 0.45903 0.75476 0.22091 0.0
C2383 C 0.4766 0.76106 0.23034 0.0
H2384 H 0.54384 0.21872 0.27633 0.0
H2385 H 0.57392 0.2023 0.28785 0.0
H2386 H 0.59951 0.25908 0.30422 0.0
H2387 H 0.56895 0.27545 0.29319 0.0
H2388 H 0.51674 0.23888 0.29407 0.0
H2389 H 0.56295 0.25186 0.24239 0.0
H2390 H 0.59339 0.26314 0.22601 0.0
H2391 H 0.58105 0.32347 0.24298 0.0
H2392 H 0.55087 0.31189 0.26006 0.0
H2393 H 0.48626 0.31281 0.26 0.0
H2394 H 0.4567 0.32532 0.24271 0.0
H2395 H 0.44072 0.26543 0.2258 0.0
H2396 H 0.47052 0.25319 0.2424 0.0
H2397 H 0.51795 0.2939 0.24484 0.0
H2398 H 0.46656 0.27647 0.29347 0.0
H2399 H 0.43546 0.26059 0.30468 0.0
H2400 H 0.45792 0.20354 0.28725 0.0
H2401 H 0.48855 0.21945 0.27564 0.0
C2402 C 0.55406 0.24839 0.2837 0.0
C2403 C 0.55584 0.22768 0.28251 0.0
C2404 C 0.57319 0.2183 0.28895 0.0
C2405 C 0.58931 0.22934 0.29683 0.0
C2406 C 0.5874 0.25007 0.29835 0.0
C2407 C 0.56998 0.25949 0.29186 0.0
C2408 C 0.53551 0.25813 0.27638 0.0
C2409 C 0.51701 0.25087 0.28324 0.0
C2410 C 0.53585 0.27396 0.26238 0.0
C2411 C 0.55468 0.28095 0.25275 0.0
C2412 C 0.56692 0.26748 0.24289 0.0
C2413 C 0.58425 0.27402 0.23328 0.0
C2414 C 0.58972 0.29427 0.23305 0.0
C2415 C 0.57747 0.30775 0.24302 0.0
C2416 C 0.56011 0.30117 0.25268 0.0
C2417 C 0.48059 0.282 0.25275 0.0
C2418 C 0.47634 0.30238 0.2526 0.0
C2419 C 0.45933 0.30951 0.24282 0.0
C2420 C 0.44626 0.29643 0.23278 0.0
C2421 C 0.45051 0.27601 0.23312 0.0
C2422 C 0.46748 0.26892 0.24286 0.0
C2423 C 0.49916 0.27445 0.26235 0.0
C2424 C 0.51768 0.28218 0.25596 0.0
C2425 C 0.49884 0.25858 0.27631 0.0
C2426 C 0.47991 0.24921 0.28352 0.0
C2427 C 0.46472 0.26056 0.29195 0.0
C2428 C 0.447 0.25143 0.29852 0.0
C2429 C 0.44409 0.23078 0.29677 0.0
C2430 C 0.45945 0.2195 0.28854 0.0
C2431 C 0.47711 0.22858 0.28204 0.0
loop_
_geom_bond_atom_site_label_1
_geom_bond_atom_site_label_2
_geom_bond_distance
_geom_bond_site_symmetry_2
_ccdc_geom_bond_type
C0 C1 1.264 . S
C0 C5 1.479 . S
C0 C10 1.465 . S
C1 C0 1.264 . S
C1 C3 1.339 . S
C1 H28 0.931 . S
C2 C3 1.395 . S
C2 C4 1.320 . S
C3 C1 1.339 . S
C3 C2 1.395 . S
C3 H29 0.929 . S
C4 C2 1.320 . S
C4 C5 1.405 . S
C4 H30 0.930 . S
C5 C0 1.479 . S
C5 C4 1.405 . S
C5 H31 0.931 . S
U6 O7 2.454 . S
U6 O8 2.458 . S
U6 C9 2.984 . S
U6 C10 2.847 . S
U6 C23 2.882 . S
U6 O24 2.441 . S
U6 O25 2.420 . S
U6 O26 2.455 . S
U6 O27 2.449 . S
O7 U6 2.454 . S
O7 C9 1.353 . S
O8 U6 2.458 . S
O8 C9 1.286 . S
C9 U6 2.984 . S
C9 O7 1.353 . S
C9 O8 1.286 . S
C9 C11 1.363 . S
C10 C0 1.465 . S
C10 U6 2.847 . S
C10 O24 1.249 . S
C10 O25 1.202 . S
C11 C9 1.363 . S
C11 C13 1.408 . S
C11 C16 1.342 . S
C12 C13 1.310 . S
C12 C15 1.461 . S
C12 H32 0.932 . S
C13 C11 1.408 . S
C13 C12 1.310 . S
C13 H33 0.930 . S
C14 C15 1.474 . S
C14 C16 1.285 . S
C14 H34 0.929 . S
C15 C12 1.461 . S
C15 C14 1.474 . S
C16 C11 1.342 . S
C16 C14 1.285 . S
C16 H35 0.930 . S
C17 C20 1.424 . S
C17 C22 1.245 . S
C17 C23 1.428 . S
C18 C21 1.260 . S
C18 C22 1.477 . S
C18 H36 0.932 . S
C19 C20 1.384 . S
C19 C21 1.479 . S
C19 H37 0.929 . S
C20 C17 1.424 . S
C20 C19 1.384 . S
C20 H38 0.928 . S
C21 C18 1.260 . S
C21 C19 1.479 . S
C22 C17 1.245 . S
C22 C18 1.477 . S
C22 H39 0.932 . S
C23 U6 2.882 . S
C23 C17 1.428 . S
C23 O26 1.301 . S
C23 O27 1.282 . S
O24 U6 2.441 . S
O24 C10 1.249 . S
O25 U6 2.420 . S
O25 C10 1.202 . S
O26 U6 2.455 . S
O26 C23 1.301 . S
O27 U6 2.449 . S
O27 C23 1.282 . S
H28 C1 0.931 . S
H29 C3 0.929 . S
H30 C4 0.930 . S
H31 C5 0.931 . S
H32 C12 0.932 . S
H33 C13 0.930 . S
H34 C14 0.929 . S
H35 C16 0.930 . S
H36 C18 0.932 . S
H37 C19 0.929 . S
H38 C20 0.928 . S
H39 C22 0.932 . S
C40 C41 1.264 . S
C40 C45 1.479 . S
C40 C50 1.465 . S
C41 C40 1.264 . S
C41 C43 1.339 . S
C41 H68 0.931 . S
C42 C43 1.395 . S
C42 C44 1.320 . S
C43 C41 1.339 . S
C43 C42 1.395 . S
C43 H69 0.929 . S
C44 C42 1.320 . S
C44 C45 1.405 . S
C44 H70 0.930 . S
C45 C40 1.479 . S
C45 C44 1.405 . S
C45 H71 0.931 . S
U46 O47 2.454 . S
U46 O48 2.458 . S
U46 C49 2.984 . S
U46 C50 2.847 . S
U46 C63 2.882 . S
U46 O64 2.441 . S
U46 O65 2.420 . S
U46 O66 2.455 . S
U46 O67 2.449 . S
O47 U46 2.454 . S
O47 C49 1.353 . S
O48 U46 2.458 . S
O48 C49 1.286 . S
C49 U46 2.984 . S
C49 O47 1.353 . S
C49 O48 1.286 . S
C49 C51 1.363 . S
C50 C40 1.465 . S
C50 U46 2.847 . S
C50 O64 1.249 . S
C50 O65 1.202 . S
C51 C49 1.363 . S
C51 C53 1.408 . S
C51 C56 1.342 . S
C52 C53 1.310 . S
C52 C55 1.461 . S
C52 H72 0.932 . S
C53 C51 1.408 . S
C53 C52 1.310 . S
C53 H73 0.930 . S
C54 C55 1.474 . S
C54 C56 1.285 . S
C54 H74 0.929 . S
C55 C52 1.461 . S
C55 C54 1.474 . S
C56 C51 1.342 . S
C56 C54 1.285 . S
C56 H75 0.930 . S
C57 C60 1.424 . S
C57 C62 1.245 . S
C57 C63 1.428 . S
C58 C61 1.260 . S
C58 C62 1.477 . S
C58 H76 0.932 . S
C59 C60 1.384 . S
C59 C61 1.479 . S
C59 H77 0.929 . S
C60 C57 1.424 . S
C60 C59 1.384 . S
C60 H78 0.928 . S
C61 C58 1.260 . S
C61 C59 1.479 . S
C62 C57 1.245 . S
C62 C58 1.477 . S
C62 H79 0.932 . S
C63 U46 2.882 . S
C63 C57 1.428 . S
C63 O66 1.301 . S
C63 O67 1.282 . S
O64 U46 2.441 . S
O64 C50 1.249 . S
O65 U46 2.420 . S
O65 C50 1.202 . S
O66 U46 2.455 . S
O66 C63 1.301 . S
O67 U46 2.449 . S
O67 C63 1.282 . S
H68 C41 0.931 . S
H69 C43 0.929 . S
H70 C44 0.930 . S
H71 C45 0.931 . S
H72 C52 0.932 . S
H73 C53 0.930 . S
H74 C54 0.929 . S
H75 C56 0.930 . S
H76 C58 0.932 . S
H77 C59 0.929 . S
H78 C60 0.928 . S
H79 C62 0.932 . S
C80 C81 1.264 . S
C80 C85 1.479 . S
C80 C90 1.465 . S
C81 C80 1.264 . S
C81 C83 1.339 . S
C81 H108 0.931 . S
C82 C83 1.395 . S
C82 C84 1.320 . S
C83 C81 1.339 . S
C83 C82 1.395 . S
C83 H109 0.929 . S
C84 C82 1.320 . S
C84 C85 1.405 . S
C84 H110 0.930 . S
C85 C80 1.479 . S
C85 C84 1.405 . S
C85 H111 0.931 . S
U86 O87 2.454 . S
U86 O88 2.458 . S
U86 C89 2.984 . S
U86 C90 2.847 . S
U86 C103 2.882 . S
U86 O104 2.441 . S
U86 O105 2.420 . S
U86 O106 2.455 . S
U86 O107 2.449 . S
O87 U86 2.454 . S
O87 C89 1.353 . S
O88 U86 2.458 . S
O88 C89 1.286 . S
C89 U86 2.984 . S
C89 O87 1.353 . S
C89 O88 1.286 . S
C89 C91 1.363 . S
C90 C80 1.465 . S
C90 U86 2.847 . S
C90 O104 1.249 . S
C90 O105 1.202 . S
C91 C89 1.363 . S
C91 C93 1.408 . S
C91 C96 1.342 . S
C92 C93 1.310 . S
C92 C95 1.461 . S
C92 H112 0.932 . S
C93 C91 1.408 . S
C93 C92 1.310 . S
C93 H113 0.930 . S
C94 C95 1.474 . S
C94 C96 1.285 . S
C94 H114 0.929 . S
C95 C92 1.461 . S
C95 C94 1.474 . S
C96 C91 1.342 . S
C96 C94 1.285 . S
C96 H115 0.930 . S
C97 C100 1.424 . S
C97 C102 1.245 . S
C97 C103 1.428 . S
C98 C101 1.260 . S
C98 C102 1.477 . S
C98 H116 0.932 . S
C99 C100 1.384 . S
C99 C101 1.479 . S
C99 H117 0.929 . S
C100 C97 1.424 . S
C100 C99 1.384 . S
C100 H118 0.928 . S
C101 C98 1.260 . S
C101 C99 1.479 . S
C102 C97 1.245 . S
C102 C98 1.477 . S
C102 H119 0.932 . S
C103 U86 2.882 . S
C103 C97 1.428 . S
C103 O106 1.301 . S
C103 O107 1.282 . S
O104 U86 2.441 . S
O104 C90 1.249 . S
O105 U86 2.420 . S
O105 C90 1.202 . S
O106 U86 2.455 . S
O106 C103 1.301 . S
O107 U86 2.449 . S
O107 C103 1.282 . S
H108 C81 0.931 . S
H109 C83 0.929 . S
H110 C84 0.930 . S
H111 C85 0.931 . S
H112 C92 0.932 . S
H113 C93 0.930 . S
H114 C94 0.929 . S
H115 C96 0.930 . S
H116 C98 0.932 . S
H117 C99 0.929 . S
H118 C100 0.928 . S
H119 C102 0.932 . S
C120 C121 1.264 . S
C120 C125 1.479 . S
C120 C130 1.465 . S
C121 C120 1.264 . S
C121 C123 1.339 . S
C121 H148 0.931 . S
C122 C123 1.395 . S
C122 C124 1.320 . S
C123 C121 1.339 . S
C123 C122 1.395 . S
C123 H149 0.929 . S
C124 C122 1.320 . S
C124 C125 1.405 . S
C124 H150 0.930 . S
C125 C120 1.479 . S
C125 C124 1.405 . S
C125 H151 0.931 . S
U126 O127 2.454 . S
U126 O128 2.458 . S
U126 C129 2.984 . S
U126 C130 2.847 . S
U126 C143 2.882 . S
U126 O144 2.441 . S
U126 O145 2.420 . S
U126 O146 2.455 . S
U126 O147 2.449 . S
O127 U126 2.454 . S
O127 C129 1.353 . S
O128 U126 2.458 . S
O128 C129 1.286 . S
C129 U126 2.984 . S
C129 O127 1.353 . S
C129 O128 1.286 . S
C129 C131 1.363 . S
C130 C120 1.465 . S
C130 U126 2.847 . S
C130 O144 1.249 . S
C130 O145 1.202 . S
C131 C129 1.363 . S
C131 C133 1.408 . S
C131 C136 1.342 . S
C132 C133 1.310 . S
C132 C135 1.461 . S
C132 H152 0.932 . S
C133 C131 1.408 . S
C133 C132 1.310 . S
C133 H153 0.930 . S
C134 C135 1.474 . S
C134 C136 1.285 . S
C134 H154 0.929 . S
C135 C132 1.461 . S
C135 C134 1.474 . S
C136 C131 1.342 . S
C136 C134 1.285 . S
C136 H155 0.930 . S
C137 C140 1.424 . S
C137 C142 1.245 . S
C137 C143 1.428 . S
C138 C141 1.260 . S
C138 C142 1.477 . S
C138 H156 0.932 . S
C139 C140 1.384 . S
C139 C141 1.479 . S
C139 H157 0.929 . S
C140 C137 1.424 . S
C140 C139 1.384 . S
C140 H158 0.928 . S
C141 C138 1.260 . S
C141 C139 1.479 . S
C142 C137 1.245 . S
C142 C138 1.477 . S
C142 H159 0.932 . S
C143 U126 2.882 . S
C143 C137 1.428 . S
C143 O146 1.301 . S
C143 O147 1.282 . S
O144 U126 2.441 . S
O144 C130 1.249 . S
O145 U126 2.420 . S
O145 C130 1.202 . S
O146 U126 2.455 . S
O146 C143 1.301 . S
O147 U126 2.449 . S
O147 C143 1.282 . S
H148 C121 0.931 . S
H149 C123 0.929 . S
H150 C124 0.930 . S
H151 C125 0.931 . S
H152 C132 0.932 . S
H153 C133 0.930 . S
H154 C134 0.929 . S
H155 C136 0.930 . S
H156 C138 0.932 . S
H157 C139 0.929 . S
H158 C140 0.928 . S
H159 C142 0.932 . S
C160 C161 1.264 . S
C160 C165 1.479 . S
C160 C170 1.465 . S
C161 C160 1.264 . S
C161 C163 1.339 . S
C161 H188 0.931 . S
C162 C163 1.395 . S
C162 C164 1.320 . S
C163 C161 1.339 . S
C163 C162 1.395 . S
C163 H189 0.929 . S
C164 C162 1.320 . S
C164 C165 1.405 . S
C164 H190 0.930 . S
C165 C160 1.479 . S
C165 C164 1.405 . S
C165 H191 0.931 . S
U166 O167 2.454 . S
U166 O168 2.458 . S
U166 C169 2.984 . S
U166 C170 2.847 . S
U166 C183 2.882 . S
U166 O184 2.441 . S
U166 O185 2.420 . S
U166 O186 2.455 . S
U166 O187 2.449 . S
O167 U166 2.454 . S
O167 C169 1.353 . S
O168 U166 2.458 . S
O168 C169 1.286 . S
C169 U166 2.984 . S
C169 O167 1.353 . S
C169 O168 1.286 . S
C169 C171 1.363 . S
C170 C160 1.465 . S
C170 U166 2.847 . S
C170 O184 1.249 . S
C170 O185 1.202 . S
C171 C169 1.363 . S
C171 C173 1.408 . S
C171 C176 1.342 . S
C172 C173 1.310 . S
C172 C175 1.461 . S
C172 H192 0.932 . S
C173 C171 1.408 . S
C173 C172 1.310 . S
C173 H193 0.930 . S
C174 C175 1.474 . S
C174 C176 1.285 . S
C174 H194 0.929 . S
C175 C172 1.461 . S
C175 C174 1.474 . S
C176 C171 1.342 . S
C176 C174 1.285 . S
C176 H195 0.930 . S
C177 C180 1.424 . S
C177 C182 1.245 . S
C177 C183 1.428 . S
C178 C181 1.260 . S
C178 C182 1.477 . S
C178 H196 0.932 . S
C179 C180 1.384 . S
C179 C181 1.479 . S
C179 H197 0.929 . S
C180 C177 1.424 . S
C180 C179 1.384 . S
C180 H198 0.928 . S
C181 C178 1.260 . S
C181 C179 1.479 . S
C182 C177 1.245 . S
C182 C178 1.477 . S
C182 H199 0.932 . S
C183 U166 2.882 . S
C183 C177 1.428 . S
C183 O186 1.301 . S
C183 O187 1.282 . S
O184 U166 2.441 . S
O184 C170 1.249 . S
O185 U166 2.420 . S
O185 C170 1.202 . S
O186 U166 2.455 . S
O186 C183 1.301 . S
O187 U166 2.449 . S
O187 C183 1.282 . S
H188 C161 0.931 . S
H189 C163 0.929 . S
H190 C164 0.930 . S
H191 C165 0.931 . S
H192 C172 0.932 . S
H193 C173 0.930 . S
H194 C174 0.929 . S
H195 C176 0.930 . S
H196 C178 0.932 . S
H197 C179 0.929 . S
H198 C180 0.928 . S
H199 C182 0.932 . S
C200 C201 1.264 . S
C200 C205 1.479 . S
C200 C210 1.465 . S
C201 C200 1.264 . S
C201 C203 1.339 . S
C201 H228 0.931 . S
C202 C203 1.395 . S
C202 C204 1.320 . S
C203 C201 1.339 . S
C203 C202 1.395 . S
C203 H229 0.929 . S
C204 C202 1.320 . S
C204 C205 1.405 . S
C204 H230 0.930 . S
C205 C200 1.479 . S
C205 C204 1.405 . S
C205 H231 0.931 . S
U206 O207 2.454 . S
U206 O208 2.458 . S
U206 C209 2.984 . S
U206 C210 2.847 . S
U206 C223 2.882 . S
U206 O224 2.441 . S
U206 O225 2.420 . S
U206 O226 2.455 . S
U206 O227 2.449 . S
O207 U206 2.454 . S
O207 C209 1.353 . S
O208 U206 2.458 . S
O208 C209 1.286 . S
C209 U206 2.984 . S
C209 O207 1.353 . S
C209 O208 1.286 . S
C209 C211 1.363 . S
C210 C200 1.465 . S
C210 U206 2.847 . S
C210 O224 1.249 . S
C210 O225 1.202 . S
C211 C209 1.363 . S
C211 C213 1.408 . S
C211 C216 1.342 . S
C212 C213 1.310 . S
C212 C215 1.461 . S
C212 H232 0.932 . S
C213 C211 1.408 . S
C213 C212 1.310 . S
C213 H233 0.930 . S
C214 C215 1.474 . S
C214 C216 1.285 . S
C214 H234 0.929 . S
C215 C212 1.461 . S
C215 C214 1.474 . S
C216 C211 1.342 . S
C216 C214 1.285 . S
C216 H235 0.930 . S
C217 C220 1.424 . S
C217 C222 1.245 . S
C217 C223 1.428 . S
C218 C221 1.260 . S
C218 C222 1.477 . S
C218 H236 0.932 . S
C219 C220 1.384 . S
C219 C221 1.479 . S
C219 H237 0.929 . S
C220 C217 1.424 . S
C220 C219 1.384 . S
C220 H238 0.928 . S
C221 C218 1.260 . S
C221 C219 1.479 . S
C222 C217 1.245 . S
C222 C218 1.477 . S
C222 H239 0.932 . S
C223 U206 2.882 . S
C223 C217 1.428 . S
C223 O226 1.301 . S
C223 O227 1.282 . S
O224 U206 2.441 . S
O224 C210 1.249 . S
O225 U206 2.420 . S
O225 C210 1.202 . S
O226 U206 2.455 . S
O226 C223 1.301 . S
O227 U206 2.449 . S
O227 C223 1.282 . S
H228 C201 0.931 . S
H229 C203 0.929 . S
H230 C204 0.930 . S
H231 C205 0.931 . S
H232 C212 0.932 . S
H233 C213 0.930 . S
H234 C214 0.929 . S
H235 C216 0.930 . S
H236 C218 0.932 . S
H237 C219 0.929 . S
H238 C220 0.928 . S
H239 C222 0.932 . S
C240 C241 1.264 . S
C240 C245 1.479 . S
C240 C250 1.465 . S
C241 C240 1.264 . S
C241 C243 1.339 . S
C241 H268 0.931 . S
C242 C243 1.395 . S
C242 C244 1.320 . S
C243 C241 1.339 . S
C243 C242 1.395 . S
C243 H269 0.929 . S
C244 C242 1.320 . S
C244 C245 1.405 . S
C244 H270 0.930 . S
C245 C240 1.479 . S
C245 C244 1.405 . S
C245 H271 0.931 . S
U246 O247 2.454 . S
U246 O248 2.458 . S
U246 C249 2.984 . S
U246 C250 2.847 . S
U246 C263 2.882 . S
U246 O264 2.441 . S
U246 O265 2.420 . S
U246 O266 2.455 . S
U246 O267 2.449 . S
O247 U246 2.454 . S
O247 C249 1.353 . S
O248 U246 2.458 . S
O248 C249 1.286 . S
C249 U246 2.984 . S
C249 O247 1.353 . S
C249 O248 1.286 . S
C249 C251 1.363 . S
C250 C240 1.465 . S
C250 U246 2.847 . S
C250 O264 1.249 . S
C250 O265 1.202 . S
C251 C249 1.363 . S
C251 C253 1.408 . S
C251 C256 1.342 . S
C252 C253 1.310 . S
C252 C255 1.461 . S
C252 H272 0.932 . S
C253 C251 1.408 . S
C253 C252 1.310 . S
C253 H273 0.930 . S
C254 C255 1.474 . S
C254 C256 1.285 . S
C254 H274 0.929 . S
C255 C252 1.461 . S
C255 C254 1.474 . S
C256 C251 1.342 . S
C256 C254 1.285 . S
C256 H275 0.930 . S
C257 C260 1.424 . S
C257 C262 1.245 . S
C257 C263 1.428 . S
C258 C261 1.260 . S
C258 C262 1.477 . S
C258 H276 0.932 . S
C259 C260 1.384 . S
C259 C261 1.479 . S
C259 H277 0.929 . S
C260 C257 1.424 . S
C260 C259 1.384 . S
C260 H278 0.928 . S
C261 C258 1.260 . S
C261 C259 1.479 . S
C262 C257 1.245 . S
C262 C258 1.477 . S
C262 H279 0.932 . S
C263 U246 2.882 . S
C263 C257 1.428 . S
C263 O266 1.301 . S
C263 O267 1.282 . S
O264 U246 2.441 . S
O264 C250 1.249 . S
O265 U246 2.420 . S
O265 C250 1.202 . S
O266 U246 2.455 . S
O266 C263 1.301 . S
O267 U246 2.449 . S
O267 C263 1.282 . S
H268 C241 0.931 . S
H269 C243 0.929 . S
H270 C244 0.930 . S
H271 C245 0.931 . S
H272 C252 0.932 . S
H273 C253 0.930 . S
H274 C254 0.929 . S
H275 C256 0.930 . S
H276 C258 0.932 . S
H277 C259 0.929 . S
H278 C260 0.928 . S
H279 C262 0.932 . S
C280 C281 1.264 . S
C280 C285 1.479 . S
C280 C290 1.465 . S
C281 C280 1.264 . S
C281 C283 1.339 . S
C281 H308 0.931 . S
C282 C283 1.395 . S
C282 C284 1.320 . S
C283 C281 1.339 . S
C283 C282 1.395 . S
C283 H309 0.929 . S
C284 C282 1.320 . S
C284 C285 1.405 . S
C284 H310 0.930 . S
C285 C280 1.479 . S
C285 C284 1.405 . S
C285 H311 0.931 . S
U286 O287 2.454 . S
U286 O288 2.458 . S
U286 C289 2.984 . S
U286 C290 2.847 . S
U286 C303 2.882 . S
U286 O304 2.441 . S
U286 O305 2.420 . S
U286 O306 2.455 . S
U286 O307 2.449 . S
O287 U286 2.454 . S
O287 C289 1.353 . S
O288 U286 2.458 . S
O288 C289 1.286 . S
C289 U286 2.984 . S
C289 O287 1.353 . S
C289 O288 1.286 . S
C289 C291 1.363 . S
C290 C280 1.465 . S
C290 U286 2.847 . S
C290 O304 1.249 . S
C290 O305 1.202 . S
C291 C289 1.363 . S
C291 C293 1.408 . S
C291 C296 1.342 . S
C292 C293 1.310 . S
C292 C295 1.461 . S
C292 H312 0.932 . S
C293 C291 1.408 . S
C293 C292 1.310 . S
C293 H313 0.930 . S
C294 C295 1.474 . S
C294 C296 1.285 . S
C294 H314 0.929 . S
C295 C292 1.461 . S
C295 C294 1.474 . S
C296 C291 1.342 . S
C296 C294 1.285 . S
C296 H315 0.930 . S
C297 C300 1.424 . S
C297 C302 1.245 . S
C297 C303 1.428 . S
C298 C301 1.260 . S
C298 C302 1.477 . S
C298 H316 0.932 . S
C299 C300 1.384 . S
C299 C301 1.479 . S
C299 H317 0.929 . S
C300 C297 1.424 . S
C300 C299 1.384 . S
C300 H318 0.928 . S
C301 C298 1.260 . S
C301 C299 1.479 . S
C302 C297 1.245 . S
C302 C298 1.477 . S
C302 H319 0.932 . S
C303 U286 2.882 . S
C303 C297 1.428 . S
C303 O306 1.301 . S
C303 O307 1.282 . S
O304 U286 2.441 . S
O304 C290 1.249 . S
O305 U286 2.420 . S
O305 C290 1.202 . S
O306 U286 2.455 . S
O306 C303 1.301 . S
O307 U286 2.449 . S
O307 C303 1.282 . S
H308 C281 0.931 . S
H309 C283 0.929 . S
H310 C284 0.930 . S
H311 C285 0.931 . S
H312 C292 0.932 . S
H313 C293 0.930 . S
H314 C294 0.929 . S
H315 C296 0.930 . S
H316 C298 0.932 . S
H317 C299 0.929 . S
H318 C300 0.928 . S
H319 C302 0.932 . S
C320 C321 1.264 . S
C320 C325 1.479 . S
C320 C330 1.465 . S
C321 C320 1.264 . S
C321 C323 1.339 . S
C321 H348 0.931 . S
C322 C323 1.395 . S
C322 C324 1.320 . S
C323 C321 1.339 . S
C323 C322 1.395 . S
C323 H349 0.929 . S
C324 C322 1.320 . S
C324 C325 1.405 . S
C324 H350 0.930 . S
C325 C320 1.479 . S
C325 C324 1.405 . S
C325 H351 0.931 . S
U326 O327 2.454 . S
U326 O328 2.458 . S
U326 C329 2.984 . S
U326 C330 2.847 . S
U326 C343 2.882 . S
U326 O344 2.441 . S
U326 O345 2.420 . S
U326 O346 2.455 . S
U326 O347 2.449 . S
O327 U326 2.454 . S
O327 C329 1.353 . S
O328 U326 2.458 . S
O328 C329 1.286 . S
C329 U326 2.984 . S
C329 O327 1.353 . S
C329 O328 1.286 . S
C329 C331 1.363 . S
C330 C320 1.465 . S
C330 U326 2.847 . S
C330 O344 1.249 . S
C330 O345 1.202 . S
C331 C329 1.363 . S
C331 C333 1.408 . S
C331 C336 1.342 . S
C332 C333 1.310 . S
C332 C335 1.461 . S
C332 H352 0.932 . S
C333 C331 1.408 . S
C333 C332 1.310 . S
C333 H353 0.930 . S
C334 C335 1.474 . S
C334 C336 1.285 . S
C334 H354 0.929 . S
C335 C332 1.461 . S
C335 C334 1.474 . S
C336 C331 1.342 . S
C336 C334 1.285 . S
C336 H355 0.930 . S
C337 C340 1.424 . S
C337 C342 1.245 . S
C337 C343 1.428 . S
C338 C341 1.260 . S
C338 C342 1.477 . S
C338 H356 0.932 . S
C339 C340 1.384 . S
C339 C341 1.479 . S
C339 H357 0.929 . S
C340 C337 1.424 . S
C340 C339 1.384 . S
C340 H358 0.928 . S
C341 C338 1.260 . S
C341 C339 1.479 . S
C342 C337 1.245 . S
C342 C338 1.477 . S
C342 H359 0.932 . S
C343 U326 2.882 . S
C343 C337 1.428 . S
C343 O346 1.301 . S
C343 O347 1.282 . S
O344 U326 2.441 . S
O344 C330 1.249 . S
O345 U326 2.420 . S
O345 C330 1.202 . S
O346 U326 2.455 . S
O346 C343 1.301 . S
O347 U326 2.449 . S
O347 C343 1.282 . S
H348 C321 0.931 . S
H349 C323 0.929 . S
H350 C324 0.930 . S
H351 C325 0.931 . S
H352 C332 0.932 . S
H353 C333 0.930 . S
H354 C334 0.929 . S
H355 C336 0.930 . S
H356 C338 0.932 . S
H357 C339 0.929 . S
H358 C340 0.928 . S
H359 C342 0.932 . S
C360 C361 1.264 . S
C360 C365 1.479 . S
C360 C370 1.465 . S
C361 C360 1.264 . S
C361 C363 1.339 . S
C361 H388 0.931 . S
C362 C363 1.395 . S
C362 C364 1.320 . S
C363 C361 1.339 . S
C363 C362 1.395 . S
C363 H389 0.929 . S
C364 C362 1.320 . S
C364 C365 1.405 . S
C364 H390 0.930 . S
C365 C360 1.479 . S
C365 C364 1.405 . S
C365 H391 0.931 . S
U366 O367 2.454 . S
U366 O368 2.458 . S
U366 C369 2.984 . S
U366 C370 2.847 . S
U366 C383 2.882 . S
U366 O384 2.441 . S
U366 O385 2.420 . S
U366 O386 2.455 . S
U366 O387 2.449 . S
O367 U366 2.454 . S
O367 C369 1.353 . S
O368 U366 2.458 . S
O368 C369 1.286 . S
C369 U366 2.984 . S
C369 O367 1.353 . S
C369 O368 1.286 . S
C369 C371 1.363 . S
C370 C360 1.465 . S
C370 U366 2.847 . S
C370 O384 1.249 . S
C370 O385 1.202 . S
C371 C369 1.363 . S
C371 C373 1.408 . S
C371 C376 1.342 . S
C372 C373 1.310 . S
C372 C375 1.461 . S
C372 H392 0.932 . S
C373 C371 1.408 . S
C373 C372 1.310 . S
C373 H393 0.930 . S
C374 C375 1.474 . S
C374 C376 1.285 . S
C374 H394 0.929 . S
C375 C372 1.461 . S
C375 C374 1.474 . S
C376 C371 1.342 . S
C376 C374 1.285 . S
C376 H395 0.930 . S
C377 C380 1.424 . S
C377 C382 1.245 . S
C377 C383 1.428 . S
C378 C381 1.260 . S
C378 C382 1.477 . S
C378 H396 0.932 . S
C379 C380 1.384 . S
C379 C381 1.479 . S
C379 H397 0.929 . S
C380 C377 1.424 . S
C380 C379 1.384 . S
C380 H398 0.928 . S
C381 C378 1.260 . S
C381 C379 1.479 . S
C382 C377 1.245 . S
C382 C378 1.477 . S
C382 H399 0.932 . S
C383 U366 2.882 . S
C383 C377 1.428 . S
C383 O386 1.301 . S
C383 O387 1.282 . S
O384 U366 2.441 . S
O384 C370 1.249 . S
O385 U366 2.420 . S
O385 C370 1.202 . S
O386 U366 2.455 . S
O386 C383 1.301 . S
O387 U366 2.449 . S
O387 C383 1.282 . S
H388 C361 0.931 . S
H389 C363 0.929 . S
H390 C364 0.930 . S
H391 C365 0.931 . S
H392 C372 0.932 . S
H393 C373 0.930 . S
H394 C374 0.929 . S
H395 C376 0.930 . S
H396 C378 0.932 . S
H397 C379 0.929 . S
H398 C380 0.928 . S
H399 C382 0.932 . S
C400 C401 1.264 . S
C400 C405 1.479 . S
C400 C410 1.465 . S
C401 C400 1.264 . S
C401 C403 1.339 . S
C401 H428 0.931 . S
C402 C403 1.395 . S
C402 C404 1.320 . S
C403 C401 1.339 . S
C403 C402 1.395 . S
C403 H429 0.929 . S
C404 C402 1.320 . S
C404 C405 1.405 . S
C404 H430 0.930 . S
C405 C400 1.479 . S
C405 C404 1.405 . S
C405 H431 0.931 . S
U406 O407 2.454 . S
U406 O408 2.458 . S
U406 C409 2.984 . S
U406 C410 2.847 . S
U406 C423 2.882 . S
U406 O424 2.441 . S
U406 O425 2.420 . S
U406 O426 2.455 . S
U406 O427 2.449 . S
O407 U406 2.454 . S
O407 C409 1.353 . S
O408 U406 2.458 . S
O408 C409 1.286 . S
C409 U406 2.984 . S
C409 O407 1.353 . S
C409 O408 1.286 . S
C409 C411 1.363 . S
C410 C400 1.465 . S
C410 U406 2.847 . S
C410 O424 1.249 . S
C410 O425 1.202 . S
C411 C409 1.363 . S
C411 C413 1.408 . S
C411 C416 1.342 . S
C412 C413 1.310 . S
C412 C415 1.461 . S
C412 H432 0.932 . S
C413 C411 1.408 . S
C413 C412 1.310 . S
C413 H433 0.930 . S
C414 C415 1.474 . S
C414 C416 1.285 . S
C414 H434 0.929 . S
C415 C412 1.461 . S
C415 C414 1.474 . S
C416 C411 1.342 . S
C416 C414 1.285 . S
C416 H435 0.930 . S
C417 C420 1.424 . S
C417 C422 1.245 . S
C417 C423 1.428 . S
C418 C421 1.260 . S
C418 C422 1.477 . S
C418 H436 0.932 . S
C419 C420 1.384 . S
C419 C421 1.479 . S
C419 H437 0.929 . S
C420 C417 1.424 . S
C420 C419 1.384 . S
C420 H438 0.928 . S
C421 C418 1.260 . S
C421 C419 1.479 . S
C422 C417 1.245 . S
C422 C418 1.477 . S
C422 H439 0.932 . S
C423 U406 2.882 . S
C423 C417 1.428 . S
C423 O426 1.301 . S
C423 O427 1.282 . S
O424 U406 2.441 . S
O424 C410 1.249 . S
O425 U406 2.420 . S
O425 C410 1.202 . S
O426 U406 2.455 . S
O426 C423 1.301 . S
O427 U406 2.449 . S
O427 C423 1.282 . S
H428 C401 0.931 . S
H429 C403 0.929 . S
H430 C404 0.930 . S
H431 C405 0.931 . S
H432 C412 0.932 . S
H433 C413 0.930 . S
H434 C414 0.929 . S
H435 C416 0.930 . S
H436 C418 0.932 . S
H437 C419 0.929 . S
H438 C420 0.928 . S
H439 C422 0.932 . S
C440 C441 1.264 . S
C440 C445 1.479 . S
C440 C450 1.465 . S
C441 C440 1.264 . S
C441 C443 1.339 . S
C441 H468 0.931 . S
C442 C443 1.395 . S
C442 C444 1.320 . S
C443 C441 1.339 . S
C443 C442 1.395 . S
C443 H469 0.929 . S
C444 C442 1.320 . S
C444 C445 1.405 . S
C444 H470 0.930 . S
C445 C440 1.479 . S
C445 C444 1.405 . S
C445 H471 0.931 . S
U446 O447 2.454 . S
U446 O448 2.458 . S
U446 C449 2.984 . S
U446 C450 2.847 . S
U446 C463 2.882 . S
U446 O464 2.441 . S
U446 O465 2.420 . S
U446 O466 2.455 . S
U446 O467 2.449 . S
O447 U446 2.454 . S
O447 C449 1.353 . S
O448 U446 2.458 . S
O448 C449 1.286 . S
C449 U446 2.984 . S
C449 O447 1.353 . S
C449 O448 1.286 . S
C449 C451 1.363 . S
C450 C440 1.465 . S
C450 U446 2.847 . S
C450 O464 1.249 . S
C450 O465 1.202 . S
C451 C449 1.363 . S
C451 C453 1.408 . S
C451 C456 1.342 . S
C452 C453 1.310 . S
C452 C455 1.461 . S
C452 H472 0.932 . S
C453 C451 1.408 . S
C453 C452 1.310 . S
C453 H473 0.930 . S
C454 C455 1.474 . S
C454 C456 1.285 . S
C454 H474 0.929 . S
C455 C452 1.461 . S
C455 C454 1.474 . S
C456 C451 1.342 . S
C456 C454 1.285 . S
C456 H475 0.930 . S
C457 C460 1.424 . S
C457 C462 1.245 . S
C457 C463 1.428 . S
C458 C461 1.260 . S
C458 C462 1.477 . S
C458 H476 0.932 . S
C459 C460 1.384 . S
C459 C461 1.479 . S
C459 H477 0.929 . S
C460 C457 1.424 . S
C460 C459 1.384 . S
C460 H478 0.928 . S
C461 C458 1.260 . S
C461 C459 1.479 . S
C462 C457 1.245 . S
C462 C458 1.477 . S
C462 H479 0.932 . S
C463 U446 2.882 . S
C463 C457 1.428 . S
C463 O466 1.301 . S
C463 O467 1.282 . S
O464 U446 2.441 . S
O464 C450 1.249 . S
O465 U446 2.420 . S
O465 C450 1.202 . S
O466 U446 2.455 . S
O466 C463 1.301 . S
O467 U446 2.449 . S
O467 C463 1.282 . S
H468 C441 0.931 . S
H469 C443 0.929 . S
H470 C444 0.930 . S
H471 C445 0.931 . S
H472 C452 0.932 . S
H473 C453 0.930 . S
H474 C454 0.929 . S
H475 C456 0.930 . S
H476 C458 0.932 . S
H477 C459 0.929 . S
H478 C460 0.928 . S
H479 C462 0.932 . S
C480 C481 1.264 . S
C480 C485 1.479 . S
C480 C490 1.465 . S
C481 C480 1.264 . S
C481 C483 1.339 . S
C481 H508 0.931 . S
C482 C483 1.395 . S
C482 C484 1.320 . S
C483 C481 1.339 . S
C483 C482 1.395 . S
C483 H509 0.929 . S
C484 C482 1.320 . S
C484 C485 1.405 . S
C484 H510 0.930 . S
C485 C480 1.479 . S
C485 C484 1.405 . S
C485 H511 0.931 . S
U486 O487 2.454 . S
U486 O488 2.458 . S
U486 C489 2.984 . S
U486 C490 2.847 . S
U486 C503 2.882 . S
U486 O504 2.441 . S
U486 O505 2.420 . S
U486 O506 2.455 . S
U486 O507 2.449 . S
O487 U486 2.454 . S
O487 C489 1.353 . S
O488 U486 2.458 . S
O488 C489 1.286 . S
C489 U486 2.984 . S
C489 O487 1.353 . S
C489 O488 1.286 . S
C489 C491 1.363 . S
C490 C480 1.465 . S
C490 U486 2.847 . S
C490 O504 1.249 . S
C490 O505 1.202 . S
C491 C489 1.363 . S
C491 C493 1.408 . S
C491 C496 1.342 . S
C492 C493 1.310 . S
C492 C495 1.461 . S
C492 H512 0.932 . S
C493 C491 1.408 . S
C493 C492 1.310 . S
C493 H513 0.930 . S
C494 C495 1.474 . S
C494 C496 1.285 . S
C494 H514 0.929 . S
C495 C492 1.461 . S
C495 C494 1.474 . S
C496 C491 1.342 . S
C496 C494 1.285 . S
C496 H515 0.930 . S
C497 C500 1.424 . S
C497 C502 1.245 . S
C497 C503 1.428 . S
C498 C501 1.260 . S
C498 C502 1.477 . S
C498 H516 0.932 . S
C499 C500 1.384 . S
C499 C501 1.479 . S
C499 H517 0.929 . S
C500 C497 1.424 . S
C500 C499 1.384 . S
C500 H518 0.928 . S
C501 C498 1.260 . S
C501 C499 1.479 . S
C502 C497 1.245 . S
C502 C498 1.477 . S
C502 H519 0.932 . S
C503 U486 2.882 . S
C503 C497 1.428 . S
C503 O506 1.301 . S
C503 O507 1.282 . S
O504 U486 2.441 . S
O504 C490 1.249 . S
O505 U486 2.420 . S
O505 C490 1.202 . S
O506 U486 2.455 . S
O506 C503 1.301 . S
O507 U486 2.449 . S
O507 C503 1.282 . S
H508 C481 0.931 . S
H509 C483 0.929 . S
H510 C484 0.930 . S
H511 C485 0.931 . S
H512 C492 0.932 . S
H513 C493 0.930 . S
H514 C494 0.929 . S
H515 C496 0.930 . S
H516 C498 0.932 . S
H517 C499 0.929 . S
H518 C500 0.928 . S
H519 C502 0.932 . S
C520 C521 1.264 . S
C520 C525 1.479 . S
C520 C530 1.465 . S
C521 C520 1.264 . S
C521 C523 1.339 . S
C521 H548 0.931 . S
C522 C523 1.395 . S
C522 C524 1.320 . S
C523 C521 1.339 . S
C523 C522 1.395 . S
C523 H549 0.929 . S
C524 C522 1.320 . S
C524 C525 1.405 . S
C524 H550 0.930 . S
C525 C520 1.479 . S
C525 C524 1.405 . S
C525 H551 0.931 . S
U526 O527 2.454 . S
U526 O528 2.458 . S
U526 C529 2.984 . S
U526 C530 2.847 . S
U526 C543 2.882 . S
U526 O544 2.441 . S
U526 O545 2.420 . S
U526 O546 2.455 . S
U526 O547 2.449 . S
O527 U526 2.454 . S
O527 C529 1.353 . S
O528 U526 2.458 . S
O528 C529 1.286 . S
C529 U526 2.984 . S
C529 O527 1.353 . S
C529 O528 1.286 . S
C529 C531 1.363 . S
C530 C520 1.465 . S
C530 U526 2.847 . S
C530 O544 1.249 . S
C530 O545 1.202 . S
C531 C529 1.363 . S
C531 C533 1.408 . S
C531 C536 1.342 . S
C532 C533 1.310 . S
C532 C535 1.461 . S
C532 H552 0.932 . S
C533 C531 1.408 . S
C533 C532 1.310 . S
C533 H553 0.930 . S
C534 C535 1.474 . S
C534 C536 1.285 . S
C534 H554 0.929 . S
C535 C532 1.461 . S
C535 C534 1.474 . S
C536 C531 1.342 . S
C536 C534 1.285 . S
C536 H555 0.930 . S
C537 C540 1.424 . S
C537 C542 1.245 . S
C537 C543 1.428 . S
C538 C541 1.260 . S
C538 C542 1.477 . S
C538 H556 0.932 . S
C539 C540 1.384 . S
C539 C541 1.479 . S
C539 H557 0.929 . S
C540 C537 1.424 . S
C540 C539 1.384 . S
C540 H558 0.928 . S
C541 C538 1.260 . S
C541 C539 1.479 . S
C542 C537 1.245 . S
C542 C538 1.477 . S
C542 H559 0.932 . S
C543 U526 2.882 . S
C543 C537 1.428 . S
C543 O546 1.301 . S
C543 O547 1.282 . S
O544 U526 2.441 . S
O544 C530 1.249 . S
O545 U526 2.420 . S
O545 C530 1.202 . S
O546 U526 2.455 . S
O546 C543 1.301 . S
O547 U526 2.449 . S
O547 C543 1.282 . S
H548 C521 0.931 . S
H549 C523 0.929 . S
H550 C524 0.930 . S
H551 C525 0.931 . S
H552 C532 0.932 . S
H553 C533 0.930 . S
H554 C534 0.929 . S
H555 C536 0.930 . S
H556 C538 0.932 . S
H557 C539 0.929 . S
H558 C540 0.928 . S
H559 C542 0.932 . S
C560 C561 1.264 . S
C560 C565 1.479 . S
C560 C570 1.465 . S
C561 C560 1.264 . S
C561 C563 1.339 . S
C561 H588 0.931 . S
C562 C563 1.395 . S
C562 C564 1.320 . S
C563 C561 1.339 . S
C563 C562 1.395 . S
C563 H589 0.929 . S
C564 C562 1.320 . S
C564 C565 1.405 . S
C564 H590 0.930 . S
C565 C560 1.479 . S
C565 C564 1.405 . S
C565 H591 0.931 . S
U566 O567 2.454 . S
U566 O568 2.458 . S
U566 C569 2.984 . S
U566 C570 2.847 . S
U566 C583 2.882 . S
U566 O584 2.441 . S
U566 O585 2.420 . S
U566 O586 2.455 . S
U566 O587 2.449 . S
O567 U566 2.454 . S
O567 C569 1.353 . S
O568 U566 2.458 . S
O568 C569 1.286 . S
C569 U566 2.984 . S
C569 O567 1.353 . S
C569 O568 1.286 . S
C569 C571 1.363 . S
C570 C560 1.465 . S
C570 U566 2.847 . S
C570 O584 1.249 . S
C570 O585 1.202 . S
C571 C569 1.363 . S
C571 C573 1.408 . S
C571 C576 1.342 . S
C572 C573 1.310 . S
C572 C575 1.461 . S
C572 H592 0.932 . S
C573 C571 1.408 . S
C573 C572 1.310 . S
C573 H593 0.930 . S
C574 C575 1.474 . S
C574 C576 1.285 . S
C574 H594 0.929 . S
C575 C572 1.461 . S
C575 C574 1.474 . S
C576 C571 1.342 . S
C576 C574 1.285 . S
C576 H595 0.930 . S
C577 C580 1.424 . S
C577 C582 1.245 . S
C577 C583 1.428 . S
C578 C581 1.260 . S
C578 C582 1.477 . S
C578 H596 0.932 . S
C579 C580 1.384 . S
C579 C581 1.479 . S
C579 H597 0.929 . S
C580 C577 1.424 . S
C580 C579 1.384 . S
C580 H598 0.928 . S
C581 C578 1.260 . S
C581 C579 1.479 . S
C582 C577 1.245 . S
C582 C578 1.477 . S
C582 H599 0.932 . S
C583 U566 2.882 . S
C583 C577 1.428 . S
C583 O586 1.301 . S
C583 O587 1.282 . S
O584 U566 2.441 . S
O584 C570 1.249 . S
O585 U566 2.420 . S
O585 C570 1.202 . S
O586 U566 2.455 . S
O586 C583 1.301 . S
O587 U566 2.449 . S
O587 C583 1.282 . S
H588 C561 0.931 . S
H589 C563 0.929 . S
H590 C564 0.930 . S
H591 C565 0.931 . S
H592 C572 0.932 . S
H593 C573 0.930 . S
H594 C574 0.929 . S
H595 C576 0.930 . S
H596 C578 0.932 . S
H597 C579 0.929 . S
H598 C580 0.928 . S
H599 C582 0.932 . S
C600 C601 1.264 . S
C600 C605 1.479 . S
C600 C610 1.465 . S
C601 C600 1.264 . S
C601 C603 1.339 . S
C601 H628 0.931 . S
C602 C603 1.395 . S
C602 C604 1.320 . S
C603 C601 1.339 . S
C603 C602 1.395 . S
C603 H629 0.929 . S
C604 C602 1.320 . S
C604 C605 1.405 . S
C604 H630 0.930 . S
C605 C600 1.479 . S
C605 C604 1.405 . S
C605 H631 0.931 . S
U606 O607 2.454 . S
U606 O608 2.458 . S
U606 C609 2.984 . S
U606 C610 2.847 . S
U606 C623 2.882 . S
U606 O624 2.441 . S
U606 O625 2.420 . S
U606 O626 2.455 . S
U606 O627 2.449 . S
O607 U606 2.454 . S
O607 C609 1.353 . S
O608 U606 2.458 . S
O608 C609 1.286 . S
C609 U606 2.984 . S
C609 O607 1.353 . S
C609 O608 1.286 . S
C609 C611 1.363 . S
C610 C600 1.465 . S
C610 U606 2.847 . S
C610 O624 1.249 . S
C610 O625 1.202 . S
C611 C609 1.363 . S
C611 C613 1.408 . S
C611 C616 1.342 . S
C612 C613 1.310 . S
C612 C615 1.461 . S
C612 H632 0.932 . S
C613 C611 1.408 . S
C613 C612 1.310 . S
C613 H633 0.930 . S
C614 C615 1.474 . S
C614 C616 1.285 . S
C614 H634 0.929 . S
C615 C612 1.461 . S
C615 C614 1.474 . S
C616 C611 1.342 . S
C616 C614 1.285 . S
C616 H635 0.930 . S
C617 C620 1.424 . S
C617 C622 1.245 . S
C617 C623 1.428 . S
C618 C621 1.260 . S
C618 C622 1.477 . S
C618 H636 0.932 . S
C619 C620 1.384 . S
C619 C621 1.479 . S
C619 H637 0.929 . S
C620 C617 1.424 . S
C620 C619 1.384 . S
C620 H638 0.928 . S
C621 C618 1.260 . S
C621 C619 1.479 . S
C622 C617 1.245 . S
C622 C618 1.477 . S
C622 H639 0.932 . S
C623 U606 2.882 . S
C623 C617 1.428 . S
C623 O626 1.301 . S
C623 O627 1.282 . S
O624 U606 2.441 . S
O624 C610 1.249 . S
O625 U606 2.420 . S
O625 C610 1.202 . S
O626 U606 2.455 . S
O626 C623 1.301 . S
O627 U606 2.449 . S
O627 C623 1.282 . S
H628 C601 0.931 . S
H629 C603 0.929 . S
H630 C604 0.930 . S
H631 C605 0.931 . S
H632 C612 0.932 . S
H633 C613 0.930 . S
H634 C614 0.929 . S
H635 C616 0.930 . S
H636 C618 0.932 . S
H637 C619 0.929 . S
H638 C620 0.928 . S
H639 C622 0.932 . S
C640 C641 1.264 . S
C640 C645 1.479 . S
C640 C650 1.465 . S
C641 C640 1.264 . S
C641 C643 1.339 . S
C641 H668 0.931 . S
C642 C643 1.395 . S
C642 C644 1.320 . S
C643 C641 1.339 . S
C643 C642 1.395 . S
C643 H669 0.929 . S
C644 C642 1.320 . S
C644 C645 1.405 . S
C644 H670 0.930 . S
C645 C640 1.479 . S
C645 C644 1.405 . S
C645 H671 0.931 . S
U646 O647 2.454 . S
U646 O648 2.458 . S
U646 C649 2.984 . S
U646 C650 2.847 . S
U646 C663 2.882 . S
U646 O664 2.441 . S
U646 O665 2.420 . S
U646 O666 2.455 . S
U646 O667 2.449 . S
O647 U646 2.454 . S
O647 C649 1.353 . S
O648 U646 2.458 . S
O648 C649 1.286 . S
C649 U646 2.984 . S
C649 O647 1.353 . S
C649 O648 1.286 . S
C649 C651 1.363 . S
C650 C640 1.465 . S
C650 U646 2.847 . S
C650 O664 1.249 . S
C650 O665 1.202 . S
C651 C649 1.363 . S
C651 C653 1.408 . S
C651 C656 1.342 . S
C652 C653 1.310 . S
C652 C655 1.461 . S
C652 H672 0.932 . S
C653 C651 1.408 . S
C653 C652 1.310 . S
C653 H673 0.930 . S
C654 C655 1.474 . S
C654 C656 1.285 . S
C654 H674 0.929 . S
C655 C652 1.461 . S
C655 C654 1.474 . S
C656 C651 1.342 . S
C656 C654 1.285 . S
C656 H675 0.930 . S
C657 C660 1.424 . S
C657 C662 1.245 . S
C657 C663 1.428 . S
C658 C661 1.260 . S
C658 C662 1.477 . S
C658 H676 0.932 . S
C659 C660 1.384 . S
C659 C661 1.479 . S
C659 H677 0.929 . S
C660 C657 1.424 . S
C660 C659 1.384 . S
C660 H678 0.928 . S
C661 C658 1.260 . S
C661 C659 1.479 . S
C662 C657 1.245 . S
C662 C658 1.477 . S
C662 H679 0.932 . S
C663 U646 2.882 . S
C663 C657 1.428 . S
C663 O666 1.301 . S
C663 O667 1.282 . S
O664 U646 2.441 . S
O664 C650 1.249 . S
O665 U646 2.420 . S
O665 C650 1.202 . S
O666 U646 2.455 . S
O666 C663 1.301 . S
O667 U646 2.449 . S
O667 C663 1.282 . S
H668 C641 0.931 . S
H669 C643 0.929 . S
H670 C644 0.930 . S
H671 C645 0.931 . S
H672 C652 0.932 . S
H673 C653 0.930 . S
H674 C654 0.929 . S
H675 C656 0.930 . S
H676 C658 0.932 . S
H677 C659 0.929 . S
H678 C660 0.928 . S
H679 C662 0.932 . S
C680 C681 1.264 . S
C680 C685 1.479 . S
C680 C690 1.465 . S
C681 C680 1.264 . S
C681 C683 1.339 . S
C681 H708 0.931 . S
C682 C683 1.395 . S
C682 C684 1.320 . S
C683 C681 1.339 . S
C683 C682 1.395 . S
C683 H709 0.929 . S
C684 C682 1.320 . S
C684 C685 1.405 . S
C684 H710 0.930 . S
C685 C680 1.479 . S
C685 C684 1.405 . S
C685 H711 0.931 . S
U686 O687 2.454 . S
U686 O688 2.458 . S
U686 C689 2.984 . S
U686 C690 2.847 . S
U686 C703 2.882 . S
U686 O704 2.441 . S
U686 O705 2.420 . S
U686 O706 2.455 . S
U686 O707 2.449 . S
O687 U686 2.454 . S
O687 C689 1.353 . S
O688 U686 2.458 . S
O688 C689 1.286 . S
C689 U686 2.984 . S
C689 O687 1.353 . S
C689 O688 1.286 . S
C689 C691 1.363 . S
C690 C680 1.465 . S
C690 U686 2.847 . S
C690 O704 1.249 . S
C690 O705 1.202 . S
C691 C689 1.363 . S
C691 C693 1.408 . S
C691 C696 1.342 . S
C692 C693 1.310 . S
C692 C695 1.461 . S
C692 H712 0.932 . S
C693 C691 1.408 . S
C693 C692 1.310 . S
C693 H713 0.930 . S
C694 C695 1.474 . S
C694 C696 1.285 . S
C694 H714 0.929 . S
C695 C692 1.461 . S
C695 C694 1.474 . S
C696 C691 1.342 . S
C696 C694 1.285 . S
C696 H715 0.930 . S
C697 C700 1.424 . S
C697 C702 1.245 . S
C697 C703 1.428 . S
C698 C701 1.260 . S
C698 C702 1.477 . S
C698 H716 0.932 . S
C699 C700 1.384 . S
C699 C701 1.479 . S
C699 H717 0.929 . S
C700 C697 1.424 . S
C700 C699 1.384 . S
C700 H718 0.928 . S
C701 C698 1.260 . S
C701 C699 1.479 . S
C702 C697 1.245 . S
C702 C698 1.477 . S
C702 H719 0.932 . S
C703 U686 2.882 . S
C703 C697 1.428 . S
C703 O706 1.301 . S
C703 O707 1.282 . S
O704 U686 2.441 . S
O704 C690 1.249 . S
O705 U686 2.420 . S
O705 C690 1.202 . S
O706 U686 2.455 . S
O706 C703 1.301 . S
O707 U686 2.449 . S
O707 C703 1.282 . S
H708 C681 0.931 . S
H709 C683 0.929 . S
H710 C684 0.930 . S
H711 C685 0.931 . S
H712 C692 0.932 . S
H713 C693 0.930 . S
H714 C694 0.929 . S
H715 C696 0.930 . S
H716 C698 0.932 . S
H717 C699 0.929 . S
H718 C700 0.928 . S
H719 C702 0.932 . S
C720 C721 1.264 . S
C720 C725 1.479 . S
C720 C730 1.465 . S
C721 C720 1.264 . S
C721 C723 1.339 . S
C721 H748 0.931 . S
C722 C723 1.395 . S
C722 C724 1.320 . S
C723 C721 1.339 . S
C723 C722 1.395 . S
C723 H749 0.929 . S
C724 C722 1.320 . S
C724 C725 1.405 . S
C724 H750 0.930 . S
C725 C720 1.479 . S
C725 C724 1.405 . S
C725 H751 0.931 . S
U726 O727 2.454 . S
U726 O728 2.458 . S
U726 C729 2.984 . S
U726 C730 2.847 . S
U726 C743 2.882 . S
U726 O744 2.441 . S
U726 O745 2.420 . S
U726 O746 2.455 . S
U726 O747 2.449 . S
O727 U726 2.454 . S
O727 C729 1.353 . S
O728 U726 2.458 . S
O728 C729 1.286 . S
C729 U726 2.984 . S
C729 O727 1.353 . S
C729 O728 1.286 . S
C729 C731 1.363 . S
C730 C720 1.465 . S
C730 U726 2.847 . S
C730 O744 1.249 . S
C730 O745 1.202 . S
C731 C729 1.363 . S
C731 C733 1.408 . S
C731 C736 1.342 . S
C732 C733 1.310 . S
C732 C735 1.461 . S
C732 H752 0.932 . S
C733 C731 1.408 . S
C733 C732 1.310 . S
C733 H753 0.930 . S
C734 C735 1.474 . S
C734 C736 1.285 . S
C734 H754 0.929 . S
C735 C732 1.461 . S
C735 C734 1.474 . S
C736 C731 1.342 . S
C736 C734 1.285 . S
C736 H755 0.930 . S
C737 C740 1.424 . S
C737 C742 1.245 . S
C737 C743 1.428 . S
C738 C741 1.260 . S
C738 C742 1.477 . S
C738 H756 0.932 . S
C739 C740 1.384 . S
C739 C741 1.479 . S
C739 H757 0.929 . S
C740 C737 1.424 . S
C740 C739 1.384 . S
C740 H758 0.928 . S
C741 C738 1.260 . S
C741 C739 1.479 . S
C742 C737 1.245 . S
C742 C738 1.477 . S
C742 H759 0.932 . S
C743 U726 2.882 . S
C743 C737 1.428 . S
C743 O746 1.301 . S
C743 O747 1.282 . S
O744 U726 2.441 . S
O744 C730 1.249 . S
O745 U726 2.420 . S
O745 C730 1.202 . S
O746 U726 2.455 . S
O746 C743 1.301 . S
O747 U726 2.449 . S
O747 C743 1.282 . S
H748 C721 0.931 . S
H749 C723 0.929 . S
H750 C724 0.930 . S
H751 C725 0.931 . S
H752 C732 0.932 . S
H753 C733 0.930 . S
H754 C734 0.929 . S
H755 C736 0.930 . S
H756 C738 0.932 . S
H757 C739 0.929 . S
H758 C740 0.928 . S
H759 C742 0.932 . S
C760 C761 1.264 . S
C760 C765 1.479 . S
C760 C770 1.465 . S
C761 C760 1.264 . S
C761 C763 1.339 . S
C761 H788 0.931 . S
C762 C763 1.395 . S
C762 C764 1.320 . S
C763 C761 1.339 . S
C763 C762 1.395 . S
C763 H789 0.929 . S
C764 C762 1.320 . S
C764 C765 1.405 . S
C764 H790 0.930 . S
C765 C760 1.479 . S
C765 C764 1.405 . S
C765 H791 0.931 . S
U766 O767 2.454 . S
U766 O768 2.458 . S
U766 C769 2.984 . S
U766 C770 2.847 . S
U766 C783 2.882 . S
U766 O784 2.441 . S
U766 O785 2.420 . S
U766 O786 2.455 . S
U766 O787 2.449 . S
O767 U766 2.454 . S
O767 C769 1.353 . S
O768 U766 2.458 . S
O768 C769 1.286 . S
C769 U766 2.984 . S
C769 O767 1.353 . S
C769 O768 1.286 . S
C769 C771 1.363 . S
C770 C760 1.465 . S
C770 U766 2.847 . S
C770 O784 1.249 . S
C770 O785 1.202 . S
C771 C769 1.363 . S
C771 C773 1.408 . S
C771 C776 1.342 . S
C772 C773 1.310 . S
C772 C775 1.461 . S
C772 H792 0.932 . S
C773 C771 1.408 . S
C773 C772 1.310 . S
C773 H793 0.930 . S
C774 C775 1.474 . S
C774 C776 1.285 . S
C774 H794 0.929 . S
C775 C772 1.461 . S
C775 C774 1.474 . S
C776 C771 1.342 . S
C776 C774 1.285 . S
C776 H795 0.930 . S
C777 C780 1.424 . S
C777 C782 1.245 . S
C777 C783 1.428 . S
C778 C781 1.260 . S
C778 C782 1.477 . S
C778 H796 0.932 . S
C779 C780 1.384 . S
C779 C781 1.479 . S
C779 H797 0.929 . S
C780 C777 1.424 . S
C780 C779 1.384 . S
C780 H798 0.928 . S
C781 C778 1.260 . S
C781 C779 1.479 . S
C782 C777 1.245 . S
C782 C778 1.477 . S
C782 H799 0.932 . S
C783 U766 2.882 . S
C783 C777 1.428 . S
C783 O786 1.301 . S
C783 O787 1.282 . S
O784 U766 2.441 . S
O784 C770 1.249 . S
O785 U766 2.420 . S
O785 C770 1.202 . S
O786 U766 2.455 . S
O786 C783 1.301 . S
O787 U766 2.449 . S
O787 C783 1.282 . S
H788 C761 0.931 . S
H789 C763 0.929 . S
H790 C764 0.930 . S
H791 C765 0.931 . S
H792 C772 0.932 . S
H793 C773 0.930 . S
H794 C774 0.929 . S
H795 C776 0.930 . S
H796 C778 0.932 . S
H797 C779 0.929 . S
H798 C780 0.928 . S
H799 C782 0.932 . S
C800 C801 1.264 . S
C800 C805 1.479 . S
C800 C810 1.465 . S
C801 C800 1.264 . S
C801 C803 1.339 . S
C801 H828 0.931 . S
C802 C803 1.395 . S
C802 C804 1.320 . S
C803 C801 1.339 . S
C803 C802 1.395 . S
C803 H829 0.929 . S
C804 C802 1.320 . S
C804 C805 1.405 . S
C804 H830 0.930 . S
C805 C800 1.479 . S
C805 C804 1.405 . S
C805 H831 0.931 . S
U806 O807 2.454 . S
U806 O808 2.458 . S
U806 C809 2.984 . S
U806 C810 2.847 . S
U806 C823 2.882 . S
U806 O824 2.441 . S
U806 O825 2.420 . S
U806 O826 2.455 . S
U806 O827 2.449 . S
O807 U806 2.454 . S
O807 C809 1.353 . S
O808 U806 2.458 . S
O808 C809 1.286 . S
C809 U806 2.984 . S
C809 O807 1.353 . S
C809 O808 1.286 . S
C809 C811 1.363 . S
C810 C800 1.465 . S
C810 U806 2.847 . S
C810 O824 1.249 . S
C810 O825 1.202 . S
C811 C809 1.363 . S
C811 C813 1.408 . S
C811 C816 1.342 . S
C812 C813 1.310 . S
C812 C815 1.461 . S
C812 H832 0.932 . S
C813 C811 1.408 . S
C813 C812 1.310 . S
C813 H833 0.930 . S
C814 C815 1.474 . S
C814 C816 1.285 . S
C814 H834 0.929 . S
C815 C812 1.461 . S
C815 C814 1.474 . S
C816 C811 1.342 . S
C816 C814 1.285 . S
C816 H835 0.930 . S
C817 C820 1.424 . S
C817 C822 1.245 . S
C817 C823 1.428 . S
C818 C821 1.260 . S
C818 C822 1.477 . S
C818 H836 0.932 . S
C819 C820 1.384 . S
C819 C821 1.479 . S
C819 H837 0.929 . S
C820 C817 1.424 . S
C820 C819 1.384 . S
C820 H838 0.928 . S
C821 C818 1.260 . S
C821 C819 1.479 . S
C822 C817 1.245 . S
C822 C818 1.477 . S
C822 H839 0.932 . S
C823 U806 2.882 . S
C823 C817 1.428 . S
C823 O826 1.301 . S
C823 O827 1.282 . S
O824 U806 2.441 . S
O824 C810 1.249 . S
O825 U806 2.420 . S
O825 C810 1.202 . S
O826 U806 2.455 . S
O826 C823 1.301 . S
O827 U806 2.449 . S
O827 C823 1.282 . S
H828 C801 0.931 . S
H829 C803 0.929 . S
H830 C804 0.930 . S
H831 C805 0.931 . S
H832 C812 0.932 . S
H833 C813 0.930 . S
H834 C814 0.929 . S
H835 C816 0.930 . S
H836 C818 0.932 . S
H837 C819 0.929 . S
H838 C820 0.928 . S
H839 C822 0.932 . S
C840 C841 1.264 . S
C840 C845 1.479 . S
C840 C850 1.465 . S
C841 C840 1.264 . S
C841 C843 1.339 . S
C841 H868 0.931 . S
C842 C843 1.395 . S
C842 C844 1.320 . S
C843 C841 1.339 . S
C843 C842 1.395 . S
C843 H869 0.929 . S
C844 C842 1.320 . S
C844 C845 1.405 . S
C844 H870 0.930 . S
C845 C840 1.479 . S
C845 C844 1.405 . S
C845 H871 0.931 . S
U846 O847 2.454 . S
U846 O848 2.458 . S
U846 C849 2.984 . S
U846 C850 2.847 . S
U846 C863 2.882 . S
U846 O864 2.441 . S
U846 O865 2.420 . S
U846 O866 2.455 . S
U846 O867 2.449 . S
O847 U846 2.454 . S
O847 C849 1.353 . S
O848 U846 2.458 . S
O848 C849 1.286 . S
C849 U846 2.984 . S
C849 O847 1.353 . S
C849 O848 1.286 . S
C849 C851 1.363 . S
C850 C840 1.465 . S
C850 U846 2.847 . S
C850 O864 1.249 . S
C850 O865 1.202 . S
C851 C849 1.363 . S
C851 C853 1.408 . S
C851 C856 1.342 . S
C852 C853 1.310 . S
C852 C855 1.461 . S
C852 H872 0.932 . S
C853 C851 1.408 . S
C853 C852 1.310 . S
C853 H873 0.930 . S
C854 C855 1.474 . S
C854 C856 1.285 . S
C854 H874 0.929 . S
C855 C852 1.461 . S
C855 C854 1.474 . S
C856 C851 1.342 . S
C856 C854 1.285 . S
C856 H875 0.930 . S
C857 C860 1.424 . S
C857 C862 1.245 . S
C857 C863 1.428 . S
C858 C861 1.260 . S
C858 C862 1.477 . S
C858 H876 0.932 . S
C859 C860 1.384 . S
C859 C861 1.479 . S
C859 H877 0.929 . S
C860 C857 1.424 . S
C860 C859 1.384 . S
C860 H878 0.928 . S
C861 C858 1.260 . S
C861 C859 1.479 . S
C862 C857 1.245 . S
C862 C858 1.477 . S
C862 H879 0.932 . S
C863 U846 2.882 . S
C863 C857 1.428 . S
C863 O866 1.301 . S
C863 O867 1.282 . S
O864 U846 2.441 . S
O864 C850 1.249 . S
O865 U846 2.420 . S
O865 C850 1.202 . S
O866 U846 2.455 . S
O866 C863 1.301 . S
O867 U846 2.449 . S
O867 C863 1.282 . S
H868 C841 0.931 . S
H869 C843 0.929 . S
H870 C844 0.930 . S
H871 C845 0.931 . S
H872 C852 0.932 . S
H873 C853 0.930 . S
H874 C854 0.929 . S
H875 C856 0.930 . S
H876 C858 0.932 . S
H877 C859 0.929 . S
H878 C860 0.928 . S
H879 C862 0.932 . S
C880 C881 1.264 . S
C880 C885 1.479 . S
C880 C890 1.465 . S
C881 C880 1.264 . S
C881 C883 1.339 . S
C881 H908 0.931 . S
C882 C883 1.395 . S
C882 C884 1.320 . S
C883 C881 1.339 . S
C883 C882 1.395 . S
C883 H909 0.929 . S
C884 C882 1.320 . S
C884 C885 1.405 . S
C884 H910 0.930 . S
C885 C880 1.479 . S
C885 C884 1.405 . S
C885 H911 0.931 . S
U886 O887 2.454 . S
U886 O888 2.458 . S
U886 C889 2.984 . S
U886 C890 2.847 . S
U886 C903 2.882 . S
U886 O904 2.441 . S
U886 O905 2.420 . S
U886 O906 2.455 . S
U886 O907 2.449 . S
O887 U886 2.454 . S
O887 C889 1.353 . S
O888 U886 2.458 . S
O888 C889 1.286 . S
C889 U886 2.984 . S
C889 O887 1.353 . S
C889 O888 1.286 . S
C889 C891 1.363 . S
C890 C880 1.465 . S
C890 U886 2.847 . S
C890 O904 1.249 . S
C890 O905 1.202 . S
C891 C889 1.363 . S
C891 C893 1.408 . S
C891 C896 1.342 . S
C892 C893 1.310 . S
C892 C895 1.461 . S
C892 H912 0.932 . S
C893 C891 1.408 . S
C893 C892 1.310 . S
C893 H913 0.930 . S
C894 C895 1.474 . S
C894 C896 1.285 . S
C894 H914 0.929 . S
C895 C892 1.461 . S
C895 C894 1.474 . S
C896 C891 1.342 . S
C896 C894 1.285 . S
C896 H915 0.930 . S
C897 C900 1.424 . S
C897 C902 1.245 . S
C897 C903 1.428 . S
C898 C901 1.260 . S
C898 C902 1.477 . S
C898 H916 0.932 . S
C899 C900 1.384 . S
C899 C901 1.479 . S
C899 H917 0.929 . S
C900 C897 1.424 . S
C900 C899 1.384 . S
C900 H918 0.928 . S
C901 C898 1.260 . S
C901 C899 1.479 . S
C902 C897 1.245 . S
C902 C898 1.477 . S
C902 H919 0.932 . S
C903 U886 2.882 . S
C903 C897 1.428 . S
C903 O906 1.301 . S
C903 O907 1.282 . S
O904 U886 2.441 . S
O904 C890 1.249 . S
O905 U886 2.420 . S
O905 C890 1.202 . S
O906 U886 2.455 . S
O906 C903 1.301 . S
O907 U886 2.449 . S
O907 C903 1.282 . S
H908 C881 0.931 . S
H909 C883 0.929 . S
H910 C884 0.930 . S
H911 C885 0.931 . S
H912 C892 0.932 . S
H913 C893 0.930 . S
H914 C894 0.929 . S
H915 C896 0.930 . S
H916 C898 0.932 . S
H917 C899 0.929 . S
H918 C900 0.928 . S
H919 C902 0.932 . S
C920 C921 1.264 . S
C920 C925 1.479 . S
C920 C930 1.465 . S
C921 C920 1.264 . S
C921 C923 1.339 . S
C921 H948 0.931 . S
C922 C923 1.395 . S
C922 C924 1.320 . S
C923 C921 1.339 . S
C923 C922 1.395 . S
C923 H949 0.929 . S
C924 C922 1.320 . S
C924 C925 1.405 . S
C924 H950 0.930 . S
C925 C920 1.479 . S
C925 C924 1.405 . S
C925 H951 0.931 . S
U926 O927 2.454 . S
U926 O928 2.458 . S
U926 C929 2.984 . S
U926 C930 2.847 . S
U926 C943 2.882 . S
U926 O944 2.441 . S
U926 O945 2.420 . S
U926 O946 2.455 . S
U926 O947 2.449 . S
O927 U926 2.454 . S
O927 C929 1.353 . S
O928 U926 2.458 . S
O928 C929 1.286 . S
C929 U926 2.984 . S
C929 O927 1.353 . S
C929 O928 1.286 . S
C929 C931 1.363 . S
C930 C920 1.465 . S
C930 U926 2.847 . S
C930 O944 1.249 . S
C930 O945 1.202 . S
C931 C929 1.363 . S
C931 C933 1.408 . S
C931 C936 1.342 . S
C932 C933 1.310 . S
C932 C935 1.461 . S
C932 H952 0.932 . S
C933 C931 1.408 . S
C933 C932 1.310 . S
C933 H953 0.930 . S
C934 C935 1.474 . S
C934 C936 1.285 . S
C934 H954 0.929 . S
C935 C932 1.461 . S
C935 C934 1.474 . S
C936 C931 1.342 . S
C936 C934 1.285 . S
C936 H955 0.930 . S
C937 C940 1.424 . S
C937 C942 1.245 . S
C937 C943 1.428 . S
C938 C941 1.260 . S
C938 C942 1.477 . S
C938 H956 0.932 . S
C939 C940 1.384 . S
C939 C941 1.479 . S
C939 H957 0.929 . S
C940 C937 1.424 . S
C940 C939 1.384 . S
C940 H958 0.928 . S
C941 C938 1.260 . S
C941 C939 1.479 . S
C942 C937 1.245 . S
C942 C938 1.477 . S
C942 H959 0.932 . S
C943 U926 2.882 . S
C943 C937 1.428 . S
C943 O946 1.301 . S
C943 O947 1.282 . S
O944 U926 2.441 . S
O944 C930 1.249 . S
O945 U926 2.420 . S
O945 C930 1.202 . S
O946 U926 2.455 . S
O946 C943 1.301 . S
O947 U926 2.449 . S
O947 C943 1.282 . S
H948 C921 0.931 . S
H949 C923 0.929 . S
H950 C924 0.930 . S
H951 C925 0.931 . S
H952 C932 0.932 . S
H953 C933 0.930 . S
H954 C934 0.929 . S
H955 C936 0.930 . S
H956 C938 0.932 . S
H957 C939 0.929 . S
H958 C940 0.928 . S
H959 C942 0.932 . S
C960 C961 1.264 . S
C960 C965 1.479 . S
C960 C970 1.465 . S
C961 C960 1.264 . S
C961 C963 1.339 . S
C961 H988 0.931 . S
C962 C963 1.395 . S
C962 C964 1.320 . S
C963 C961 1.339 . S
C963 C962 1.395 . S
C963 H989 0.929 . S
C964 C962 1.320 . S
C964 C965 1.405 . S
C964 H990 0.930 . S
C965 C960 1.479 . S
C965 C964 1.405 . S
C965 H991 0.931 . S
U966 O967 2.454 . S
U966 O968 2.458 . S
U966 C969 2.984 . S
U966 C970 2.847 . S
U966 C983 2.882 . S
U966 O984 2.441 . S
U966 O985 2.420 . S
U966 O986 2.455 . S
U966 O987 2.449 . S
O967 U966 2.454 . S
O967 C969 1.353 . S
O968 U966 2.458 . S
O968 C969 1.286 . S
C969 U966 2.984 . S
C969 O967 1.353 . S
C969 O968 1.286 . S
C969 C971 1.363 . S
C970 C960 1.465 . S
C970 U966 2.847 . S
C970 O984 1.249 . S
C970 O985 1.202 . S
C971 C969 1.363 . S
C971 C973 1.408 . S
C971 C976 1.342 . S
C972 C973 1.310 . S
C972 C975 1.461 . S
C972 H992 0.932 . S
C973 C971 1.408 . S
C973 C972 1.310 . S
C973 H993 0.930 . S
C974 C975 1.474 . S
C974 C976 1.285 . S
C974 H994 0.929 . S
C975 C972 1.461 . S
C975 C974 1.474 . S
C976 C971 1.342 . S
C976 C974 1.285 . S
C976 H995 0.930 . S
C977 C980 1.424 . S
C977 C982 1.245 . S
C977 C983 1.428 . S
C978 C981 1.260 . S
C978 C982 1.477 . S
C978 H996 0.932 . S
C979 C980 1.384 . S
C979 C981 1.479 . S
C979 H997 0.929 . S
C980 C977 1.424 . S
C980 C979 1.384 . S
C980 H998 0.928 . S
C981 C978 1.260 . S
C981 C979 1.479 . S
C982 C977 1.245 . S
C982 C978 1.477 . S
C982 H999 0.932 . S
C983 U966 2.882 . S
C983 C977 1.428 . S
C983 O986 1.301 . S
C983 O987 1.282 . S
O984 U966 2.441 . S
O984 C970 1.249 . S
O985 U966 2.420 . S
O985 C970 1.202 . S
O986 U966 2.455 . S
O986 C983 1.301 . S
O987 U966 2.449 . S
O987 C983 1.282 . S
H988 C961 0.931 . S
H989 C963 0.929 . S
H990 C964 0.930 . S
H991 C965 0.931 . S
H992 C972 0.932 . S
H993 C973 0.930 . S
H994 C974 0.929 . S
H995 C976 0.930 . S
H996 C978 0.932 . S
H997 C979 0.929 . S
H998 C980 0.928 . S
H999 C982 0.932 . S
C1000 C1001 1.264 . S
C1000 C1005 1.479 . S
C1000 C1010 1.465 . S
C1001 C1000 1.264 . S
C1001 C1003 1.339 . S
C1001 H1028 0.931 . S
C1002 C1003 1.395 . S
C1002 C1004 1.320 . S
C1003 C1001 1.339 . S
C1003 C1002 1.395 . S
C1003 H1029 0.929 . S
C1004 C1002 1.320 . S
C1004 C1005 1.405 . S
C1004 H1030 0.930 . S
C1005 C1000 1.479 . S
C1005 C1004 1.405 . S
C1005 H1031 0.931 . S
U1006 O1007 2.454 . S
U1006 O1008 2.458 . S
U1006 C1009 2.984 . S
U1006 C1010 2.847 . S
U1006 C1023 2.882 . S
U1006 O1024 2.441 . S
U1006 O1025 2.420 . S
U1006 O1026 2.455 . S
U1006 O1027 2.449 . S
O1007 U1006 2.454 . S
O1007 C1009 1.353 . S
O1008 U1006 2.458 . S
O1008 C1009 1.286 . S
C1009 U1006 2.984 . S
C1009 O1007 1.353 . S
C1009 O1008 1.286 . S
C1009 C1011 1.363 . S
C1010 C1000 1.465 . S
C1010 U1006 2.847 . S
C1010 O1024 1.249 . S
C1010 O1025 1.202 . S
C1011 C1009 1.363 . S
C1011 C1013 1.408 . S
C1011 C1016 1.342 . S
C1012 C1013 1.310 . S
C1012 C1015 1.461 . S
C1012 H1032 0.932 . S
C1013 C1011 1.408 . S
C1013 C1012 1.310 . S
C1013 H1033 0.930 . S
C1014 C1015 1.474 . S
C1014 C1016 1.285 . S
C1014 H1034 0.929 . S
C1015 C1012 1.461 . S
C1015 C1014 1.474 . S
C1016 C1011 1.342 . S
C1016 C1014 1.285 . S
C1016 H1035 0.930 . S
C1017 C1020 1.424 . S
C1017 C1022 1.245 . S
C1017 C1023 1.428 . S
C1018 C1021 1.260 . S
C1018 C1022 1.477 . S
C1018 H1036 0.932 . S
C1019 C1020 1.384 . S
C1019 C1021 1.479 . S
C1019 H1037 0.929 . S
C1020 C1017 1.424 . S
C1020 C1019 1.384 . S
C1020 H1038 0.928 . S
C1021 C1018 1.260 . S
C1021 C1019 1.479 . S
C1022 C1017 1.245 . S
C1022 C1018 1.477 . S
C1022 H1039 0.932 . S
C1023 U1006 2.882 . S
C1023 C1017 1.428 . S
C1023 O1026 1.301 . S
C1023 O1027 1.282 . S
O1024 U1006 2.441 . S
O1024 C1010 1.249 . S
O1025 U1006 2.420 . S
O1025 C1010 1.202 . S
O1026 U1006 2.455 . S
O1026 C1023 1.301 . S
O1027 U1006 2.449 . S
O1027 C1023 1.282 . S
H1028 C1001 0.931 . S
H1029 C1003 0.929 . S
H1030 C1004 0.930 . S
H1031 C1005 0.931 . S
H1032 C1012 0.932 . S
H1033 C1013 0.930 . S
H1034 C1014 0.929 . S
H1035 C1016 0.930 . S
H1036 C1018 0.932 . S
H1037 C1019 0.929 . S
H1038 C1020 0.928 . S
H1039 C1022 0.932 . S
C1040 C1041 1.264 . S
C1040 C1045 1.479 . S
C1040 C1050 1.465 . S
C1041 C1040 1.264 . S
C1041 C1043 1.339 . S
C1041 H1068 0.931 . S
C1042 C1043 1.395 . S
C1042 C1044 1.320 . S
C1043 C1041 1.339 . S
C1043 C1042 1.395 . S
C1043 H1069 0.929 . S
C1044 C1042 1.320 . S
C1044 C1045 1.405 . S
C1044 H1070 0.930 . S
C1045 C1040 1.479 . S
C1045 C1044 1.405 . S
C1045 H1071 0.931 . S
U1046 O1047 2.454 . S
U1046 O1048 2.458 . S
U1046 C1049 2.984 . S
U1046 C1050 2.847 . S
U1046 C1063 2.882 . S
U1046 O1064 2.441 . S
U1046 O1065 2.420 . S
U1046 O1066 2.455 . S
U1046 O1067 2.449 . S
O1047 U1046 2.454 . S
O1047 C1049 1.353 . S
O1048 U1046 2.458 . S
O1048 C1049 1.286 . S
C1049 U1046 2.984 . S
C1049 O1047 1.353 . S
C1049 O1048 1.286 . S
C1049 C1051 1.363 . S
C1050 C1040 1.465 . S
C1050 U1046 2.847 . S
C1050 O1064 1.249 . S
C1050 O1065 1.202 . S
C1051 C1049 1.363 . S
C1051 C1053 1.408 . S
C1051 C1056 1.342 . S
C1052 C1053 1.310 . S
C1052 C1055 1.461 . S
C1052 H1072 0.932 . S
C1053 C1051 1.408 . S
C1053 C1052 1.310 . S
C1053 H1073 0.930 . S
C1054 C1055 1.474 . S
C1054 C1056 1.285 . S
C1054 H1074 0.929 . S
C1055 C1052 1.461 . S
C1055 C1054 1.474 . S
C1056 C1051 1.342 . S
C1056 C1054 1.285 . S
C1056 H1075 0.930 . S
C1057 C1060 1.424 . S
C1057 C1062 1.245 . S
C1057 C1063 1.428 . S
C1058 C1061 1.260 . S
C1058 C1062 1.477 . S
C1058 H1076 0.932 . S
C1059 C1060 1.384 . S
C1059 C1061 1.479 . S
C1059 H1077 0.929 . S
C1060 C1057 1.424 . S
C1060 C1059 1.384 . S
C1060 H1078 0.928 . S
C1061 C1058 1.260 . S
C1061 C1059 1.479 . S
C1062 C1057 1.245 . S
C1062 C1058 1.477 . S
C1062 H1079 0.932 . S
C1063 U1046 2.882 . S
C1063 C1057 1.428 . S
C1063 O1066 1.301 . S
C1063 O1067 1.282 . S
O1064 U1046 2.441 . S
O1064 C1050 1.249 . S
O1065 U1046 2.420 . S
O1065 C1050 1.202 . S
O1066 U1046 2.455 . S
O1066 C1063 1.301 . S
O1067 U1046 2.449 . S
O1067 C1063 1.282 . S
H1068 C1041 0.931 . S
H1069 C1043 0.929 . S
H1070 C1044 0.930 . S
H1071 C1045 0.931 . S
H1072 C1052 0.932 . S
H1073 C1053 0.930 . S
H1074 C1054 0.929 . S
H1075 C1056 0.930 . S
H1076 C1058 0.932 . S
H1077 C1059 0.929 . S
H1078 C1060 0.928 . S
H1079 C1062 0.932 . S
C1080 C1081 1.264 . S
C1080 C1085 1.479 . S
C1080 C1090 1.465 . S
C1081 C1080 1.264 . S
C1081 C1083 1.339 . S
C1081 H1108 0.931 . S
C1082 C1083 1.395 . S
C1082 C1084 1.320 . S
C1083 C1081 1.339 . S
C1083 C1082 1.395 . S
C1083 H1109 0.929 . S
C1084 C1082 1.320 . S
C1084 C1085 1.405 . S
C1084 H1110 0.930 . S
C1085 C1080 1.479 . S
C1085 C1084 1.405 . S
C1085 H1111 0.931 . S
U1086 O1087 2.454 . S
U1086 O1088 2.458 . S
U1086 C1089 2.984 . S
U1086 C1090 2.847 . S
U1086 C1103 2.882 . S
U1086 O1104 2.441 . S
U1086 O1105 2.420 . S
U1086 O1106 2.455 . S
U1086 O1107 2.449 . S
O1087 U1086 2.454 . S
O1087 C1089 1.353 . S
O1088 U1086 2.458 . S
O1088 C1089 1.286 . S
C1089 U1086 2.984 . S
C1089 O1087 1.353 . S
C1089 O1088 1.286 . S
C1089 C1091 1.363 . S
C1090 C1080 1.465 . S
C1090 U1086 2.847 . S
C1090 O1104 1.249 . S
C1090 O1105 1.202 . S
C1091 C1089 1.363 . S
C1091 C1093 1.408 . S
C1091 C1096 1.342 . S
C1092 C1093 1.310 . S
C1092 C1095 1.461 . S
C1092 H1112 0.932 . S
C1093 C1091 1.408 . S
C1093 C1092 1.310 . S
C1093 H1113 0.930 . S
C1094 C1095 1.474 . S
C1094 C1096 1.285 . S
C1094 H1114 0.929 . S
C1095 C1092 1.461 . S
C1095 C1094 1.474 . S
C1096 C1091 1.342 . S
C1096 C1094 1.285 . S
C1096 H1115 0.930 . S
C1097 C1100 1.424 . S
C1097 C1102 1.245 . S
C1097 C1103 1.428 . S
C1098 C1101 1.260 . S
C1098 C1102 1.477 . S
C1098 H1116 0.932 . S
C1099 C1100 1.384 . S
C1099 C1101 1.479 . S
C1099 H1117 0.929 . S
C1100 C1097 1.424 . S
C1100 C1099 1.384 . S
C1100 H1118 0.928 . S
C1101 C1098 1.260 . S
C1101 C1099 1.479 . S
C1102 C1097 1.245 . S
C1102 C1098 1.477 . S
C1102 H1119 0.932 . S
C1103 U1086 2.882 . S
C1103 C1097 1.428 . S
C1103 O1106 1.301 . S
C1103 O1107 1.282 . S
O1104 U1086 2.441 . S
O1104 C1090 1.249 . S
O1105 U1086 2.420 . S
O1105 C1090 1.202 . S
O1106 U1086 2.455 . S
O1106 C1103 1.301 . S
O1107 U1086 2.449 . S
O1107 C1103 1.282 . S
H1108 C1081 0.931 . S
H1109 C1083 0.929 . S
H1110 C1084 0.930 . S
H1111 C1085 0.931 . S
H1112 C1092 0.932 . S
H1113 C1093 0.930 . S
H1114 C1094 0.929 . S
H1115 C1096 0.930 . S
H1116 C1098 0.932 . S
H1117 C1099 0.929 . S
H1118 C1100 0.928 . S
H1119 C1102 0.932 . S
C1120 C1121 1.264 . S
C1120 C1125 1.479 . S
C1120 C1130 1.465 . S
C1121 C1120 1.264 . S
C1121 C1123 1.339 . S
C1121 H1148 0.931 . S
C1122 C1123 1.395 . S
C1122 C1124 1.320 . S
C1123 C1121 1.339 . S
C1123 C1122 1.395 . S
C1123 H1149 0.929 . S
C1124 C1122 1.320 . S
C1124 C1125 1.405 . S
C1124 H1150 0.930 . S
C1125 C1120 1.479 . S
C1125 C1124 1.405 . S
C1125 H1151 0.931 . S
U1126 O1127 2.454 . S
U1126 O1128 2.458 . S
U1126 C1129 2.984 . S
U1126 C1130 2.847 . S
U1126 C1143 2.882 . S
U1126 O1144 2.441 . S
U1126 O1145 2.420 . S
U1126 O1146 2.455 . S
U1126 O1147 2.449 . S
O1127 U1126 2.454 . S
O1127 C1129 1.353 . S
O1128 U1126 2.458 . S
O1128 C1129 1.286 . S
C1129 U1126 2.984 . S
C1129 O1127 1.353 . S
C1129 O1128 1.286 . S
C1129 C1131 1.363 . S
C1130 C1120 1.465 . S
C1130 U1126 2.847 . S
C1130 O1144 1.249 . S
C1130 O1145 1.202 . S
C1131 C1129 1.363 . S
C1131 C1133 1.408 . S
C1131 C1136 1.342 . S
C1132 C1133 1.310 . S
C1132 C1135 1.461 . S
C1132 H1152 0.932 . S
C1133 C1131 1.408 . S
C1133 C1132 1.310 . S
C1133 H1153 0.930 . S
C1134 C1135 1.474 . S
C1134 C1136 1.285 . S
C1134 H1154 0.929 . S
C1135 C1132 1.461 . S
C1135 C1134 1.474 . S
C1136 C1131 1.342 . S
C1136 C1134 1.285 . S
C1136 H1155 0.930 . S
C1137 C1140 1.424 . S
C1137 C1142 1.245 . S
C1137 C1143 1.428 . S
C1138 C1141 1.260 . S
C1138 C1142 1.477 . S
C1138 H1156 0.932 . S
C1139 C1140 1.384 . S
C1139 C1141 1.479 . S
C1139 H1157 0.929 . S
C1140 C1137 1.424 . S
C1140 C1139 1.384 . S
C1140 H1158 0.928 . S
C1141 C1138 1.260 . S
C1141 C1139 1.479 . S
C1142 C1137 1.245 . S
C1142 C1138 1.477 . S
C1142 H1159 0.932 . S
C1143 U1126 2.882 . S
C1143 C1137 1.428 . S
C1143 O1146 1.301 . S
C1143 O1147 1.282 . S
O1144 U1126 2.441 . S
O1144 C1130 1.249 . S
O1145 U1126 2.420 . S
O1145 C1130 1.202 . S
O1146 U1126 2.455 . S
O1146 C1143 1.301 . S
O1147 U1126 2.449 . S
O1147 C1143 1.282 . S
H1148 C1121 0.931 . S
H1149 C1123 0.929 . S
H1150 C1124 0.930 . S
H1151 C1125 0.931 . S
H1152 C1132 0.932 . S
H1153 C1133 0.930 . S
H1154 C1134 0.929 . S
H1155 C1136 0.930 . S
H1156 C1138 0.932 . S
H1157 C1139 0.929 . S
H1158 C1140 0.928 . S
H1159 C1142 0.932 . S
C1160 C1161 1.264 . S
C1160 C1165 1.479 . S
C1160 C1170 1.465 . S
C1161 C1160 1.264 . S
C1161 C1163 1.339 . S
C1161 H1188 0.931 . S
C1162 C1163 1.395 . S
C1162 C1164 1.320 . S
C1163 C1161 1.339 . S
C1163 C1162 1.395 . S
C1163 H1189 0.929 . S
C1164 C1162 1.320 . S
C1164 C1165 1.405 . S
C1164 H1190 0.930 . S
C1165 C1160 1.479 . S
C1165 C1164 1.405 . S
C1165 H1191 0.931 . S
U1166 O1167 2.454 . S
U1166 O1168 2.458 . S
U1166 C1169 2.984 . S
U1166 C1170 2.847 . S
U1166 C1183 2.882 . S
U1166 O1184 2.441 . S
U1166 O1185 2.420 . S
U1166 O1186 2.455 . S
U1166 O1187 2.449 . S
O1167 U1166 2.454 . S
O1167 C1169 1.353 . S
O1168 U1166 2.458 . S
O1168 C1169 1.286 . S
C1169 U1166 2.984 . S
C1169 O1167 1.353 . S
C1169 O1168 1.286 . S
C1169 C1171 1.363 . S
C1170 C1160 1.465 . S
C1170 U1166 2.847 . S
C1170 O1184 1.249 . S
C1170 O1185 1.202 . S
C1171 C1169 1.363 . S
C1171 C1173 1.408 . S
C1171 C1176 1.342 . S
C1172 C1173 1.310 . S
C1172 C1175 1.461 . S
C1172 H1192 0.932 . S
C1173 C1171 1.408 . S
C1173 C1172 1.310 . S
C1173 H1193 0.930 . S
C1174 C1175 1.474 . S
C1174 C1176 1.285 . S
C1174 H1194 0.929 . S
C1175 C1172 1.461 . S
C1175 C1174 1.474 . S
C1176 C1171 1.342 . S
C1176 C1174 1.285 . S
C1176 H1195 0.930 . S
C1177 C1180 1.424 . S
C1177 C1182 1.245 . S
C1177 C1183 1.428 . S
C1178 C1181 1.260 . S
C1178 C1182 1.477 . S
C1178 H1196 0.932 . S
C1179 C1180 1.384 . S
C1179 C1181 1.479 . S
C1179 H1197 0.929 . S
C1180 C1177 1.424 . S
C1180 C1179 1.384 . S
C1180 H1198 0.928 . S
C1181 C1178 1.260 . S
C1181 C1179 1.479 . S
C1182 C1177 1.245 . S
C1182 C1178 1.477 . S
C1182 H1199 0.932 . S
C1183 U1166 2.882 . S
C1183 C1177 1.428 . S
C1183 O1186 1.301 . S
C1183 O1187 1.282 . S
O1184 U1166 2.441 . S
O1184 C1170 1.249 . S
O1185 U1166 2.420 . S
O1185 C1170 1.202 . S
O1186 U1166 2.455 . S
O1186 C1183 1.301 . S
O1187 U1166 2.449 . S
O1187 C1183 1.282 . S
H1188 C1161 0.931 . S
H1189 C1163 0.929 . S
H1190 C1164 0.930 . S
H1191 C1165 0.931 . S
H1192 C1172 0.932 . S
H1193 C1173 0.930 . S
H1194 C1174 0.929 . S
H1195 C1176 0.930 . S
H1196 C1178 0.932 . S
H1197 C1179 0.929 . S
H1198 C1180 0.928 . S
H1199 C1182 0.932 . S
C1200 C1201 1.264 . S
C1200 C1205 1.479 . S
C1200 C1210 1.465 . S
C1201 C1200 1.264 . S
C1201 C1203 1.339 . S
C1201 H1228 0.931 . S
C1202 C1203 1.395 . S
C1202 C1204 1.320 . S
C1203 C1201 1.339 . S
C1203 C1202 1.395 . S
C1203 H1229 0.929 . S
C1204 C1202 1.320 . S
C1204 C1205 1.405 . S
C1204 H1230 0.930 . S
C1205 C1200 1.479 . S
C1205 C1204 1.405 . S
C1205 H1231 0.931 . S
U1206 O1207 2.454 . S
U1206 O1208 2.458 . S
U1206 C1209 2.984 . S
U1206 C1210 2.847 . S
U1206 C1223 2.882 . S
U1206 O1224 2.441 . S
U1206 O1225 2.420 . S
U1206 O1226 2.455 . S
U1206 O1227 2.449 . S
O1207 U1206 2.454 . S
O1207 C1209 1.353 . S
O1208 U1206 2.458 . S
O1208 C1209 1.286 . S
C1209 U1206 2.984 . S
C1209 O1207 1.353 . S
C1209 O1208 1.286 . S
C1209 C1211 1.363 . S
C1210 C1200 1.465 . S
C1210 U1206 2.847 . S
C1210 O1224 1.249 . S
C1210 O1225 1.202 . S
C1211 C1209 1.363 . S
C1211 C1213 1.408 . S
C1211 C1216 1.342 . S
C1212 C1213 1.310 . S
C1212 C1215 1.461 . S
C1212 H1232 0.932 . S
C1213 C1211 1.408 . S
C1213 C1212 1.310 . S
C1213 H1233 0.930 . S
C1214 C1215 1.474 . S
C1214 C1216 1.285 . S
C1214 H1234 0.929 . S
C1215 C1212 1.461 . S
C1215 C1214 1.474 . S
C1216 C1211 1.342 . S
C1216 C1214 1.285 . S
C1216 H1235 0.930 . S
C1217 C1220 1.424 . S
C1217 C1222 1.245 . S
C1217 C1223 1.428 . S
C1218 C1221 1.260 . S
C1218 C1222 1.477 . S
C1218 H1236 0.932 . S
C1219 C1220 1.384 . S
C1219 C1221 1.479 . S
C1219 H1237 0.929 . S
C1220 C1217 1.424 . S
C1220 C1219 1.384 . S
C1220 H1238 0.928 . S
C1221 C1218 1.260 . S
C1221 C1219 1.479 . S
C1222 C1217 1.245 . S
C1222 C1218 1.477 . S
C1222 H1239 0.932 . S
C1223 U1206 2.882 . S
C1223 C1217 1.428 . S
C1223 O1226 1.301 . S
C1223 O1227 1.282 . S
O1224 U1206 2.441 . S
O1224 C1210 1.249 . S
O1225 U1206 2.420 . S
O1225 C1210 1.202 . S
O1226 U1206 2.455 . S
O1226 C1223 1.301 . S
O1227 U1206 2.449 . S
O1227 C1223 1.282 . S
H1228 C1201 0.931 . S
H1229 C1203 0.929 . S
H1230 C1204 0.930 . S
H1231 C1205 0.931 . S
H1232 C1212 0.932 . S
H1233 C1213 0.930 . S
H1234 C1214 0.929 . S
H1235 C1216 0.930 . S
H1236 C1218 0.932 . S
H1237 C1219 0.929 . S
H1238 C1220 0.928 . S
H1239 C1222 0.932 . S
C1240 C1241 1.264 . S
C1240 C1245 1.479 . S
C1240 C1250 1.465 . S
C1241 C1240 1.264 . S
C1241 C1243 1.339 . S
C1241 H1268 0.931 . S
C1242 C1243 1.395 . S
C1242 C1244 1.320 . S
C1243 C1241 1.339 . S
C1243 C1242 1.395 . S
C1243 H1269 0.929 . S
C1244 C1242 1.320 . S
C1244 C1245 1.405 . S
C1244 H1270 0.930 . S
C1245 C1240 1.479 . S
C1245 C1244 1.405 . S
C1245 H1271 0.931 . S
U1246 O1247 2.454 . S
U1246 O1248 2.458 . S
U1246 C1249 2.984 . S
U1246 C1250 2.847 . S
U1246 C1263 2.882 . S
U1246 O1264 2.441 . S
U1246 O1265 2.420 . S
U1246 O1266 2.455 . S
U1246 O1267 2.449 . S
O1247 U1246 2.454 . S
O1247 C1249 1.353 . S
O1248 U1246 2.458 . S
O1248 C1249 1.286 . S
C1249 U1246 2.984 . S
C1249 O1247 1.353 . S
C1249 O1248 1.286 . S
C1249 C1251 1.363 . S
C1250 C1240 1.465 . S
C1250 U1246 2.847 . S
C1250 O1264 1.249 . S
C1250 O1265 1.202 . S
C1251 C1249 1.363 . S
C1251 C1253 1.408 . S
C1251 C1256 1.342 . S
C1252 C1253 1.310 . S
C1252 C1255 1.461 . S
C1252 H1272 0.932 . S
C1253 C1251 1.408 . S
C1253 C1252 1.310 . S
C1253 H1273 0.930 . S
C1254 C1255 1.474 . S
C1254 C1256 1.285 . S
C1254 H1274 0.929 . S
C1255 C1252 1.461 . S
C1255 C1254 1.474 . S
C1256 C1251 1.342 . S
C1256 C1254 1.285 . S
C1256 H1275 0.930 . S
C1257 C1260 1.424 . S
C1257 C1262 1.245 . S
C1257 C1263 1.428 . S
C1258 C1261 1.260 . S
C1258 C1262 1.477 . S
C1258 H1276 0.932 . S
C1259 C1260 1.384 . S
C1259 C1261 1.479 . S
C1259 H1277 0.929 . S
C1260 C1257 1.424 . S
C1260 C1259 1.384 . S
C1260 H1278 0.928 . S
C1261 C1258 1.260 . S
C1261 C1259 1.479 . S
C1262 C1257 1.245 . S
C1262 C1258 1.477 . S
C1262 H1279 0.932 . S
C1263 U1246 2.882 . S
C1263 C1257 1.428 . S
C1263 O1266 1.301 . S
C1263 O1267 1.282 . S
O1264 U1246 2.441 . S
O1264 C1250 1.249 . S
O1265 U1246 2.420 . S
O1265 C1250 1.202 . S
O1266 U1246 2.455 . S
O1266 C1263 1.301 . S
O1267 U1246 2.449 . S
O1267 C1263 1.282 . S
H1268 C1241 0.931 . S
H1269 C1243 0.929 . S
H1270 C1244 0.930 . S
H1271 C1245 0.931 . S
H1272 C1252 0.932 . S
H1273 C1253 0.930 . S
H1274 C1254 0.929 . S
H1275 C1256 0.930 . S
H1276 C1258 0.932 . S
H1277 C1259 0.929 . S
H1278 C1260 0.928 . S
H1279 C1262 0.932 . S
H1280 C1299 0.949 . S
H1281 C1300 0.950 . S
H1282 C1302 0.950 . S
H1283 C1303 0.950 . S
H1284 C1305 0.950 . S
H1285 C1308 0.950 . S
H1286 C1309 0.950 . S
H1287 C1311 0.951 . S
H1288 C1312 0.949 . S
H1289 C1314 0.949 . S
H1290 C1315 0.950 . S
H1291 C1317 0.950 . S
H1292 C1318 0.950 . S
H1293 C1320 0.950 . S
H1294 C1323 0.950 . S
H1295 C1324 0.950 . S
H1296 C1326 0.951 . S
H1297 C1327 0.949 . S
C1298 C1299 1.376 . S
C1298 C1303 1.386 . S
C1298 C1304 1.483 . S
C1299 H1280 0.949 . S
C1299 C1298 1.376 . S
C1299 C1300 1.397 . S
C1300 H1281 0.950 . S
C1300 C1299 1.397 . S
C1300 C1301 1.391 . S
C1301 C1300 1.391 . S
C1301 C1302 1.405 . S
C1302 H1282 0.950 . S
C1302 C1301 1.405 . S
C1302 C1303 1.367 . S
C1303 H1283 0.950 . S
C1303 C1298 1.386 . S
C1303 C1302 1.367 . S
C1304 C1298 1.483 . S
C1304 C1305 1.382 1_556 S
C1304 C1306 1.403 . S
C1305 H1284 0.950 . S
C1305 C1304 1.382 1_554 S
C1305 C1321 1.411 . S
C1306 C1304 1.403 . S
C1306 C1307 1.489 . S
C1306 C1320 1.411 1_556 S
C1307 C1306 1.489 . S
C1307 C1308 1.383 . S
C1307 C1312 1.382 . S
C1308 H1285 0.950 . S
C1308 C1307 1.383 . S
C1308 C1309 1.395 . S
C1309 H1286 0.950 . S
C1309 C1308 1.395 . S
C1309 C1310 1.288 . S
C1310 C1309 1.288 . S
C1310 C1311 1.392 . S
C1311 H1287 0.951 . S
C1311 C1310 1.392 . S
C1311 C1312 1.392 . S
C1312 H1288 0.949 . S
C1312 C1307 1.382 . S
C1312 C1311 1.392 . S
C1313 C1314 1.376 . S
C1313 C1318 1.386 . S
C1313 C1319 1.483 . S
C1314 H1289 0.949 . S
C1314 C1313 1.376 . S
C1314 C1315 1.397 . S
C1315 H1290 0.950 . S
C1315 C1314 1.397 . S
C1315 C1316 1.391 . S
C1316 C1315 1.391 . S
C1316 C1317 1.405 . S
C1317 H1291 0.950 . S
C1317 C1316 1.405 . S
C1317 C1318 1.367 . S
C1318 H1292 0.950 . S
C1318 C1313 1.386 . S
C1318 C1317 1.367 . S
C1319 C1313 1.483 . S
C1319 C1320 1.382 . S
C1319 C1321 1.403 . S
C1320 H1293 0.950 . S
C1320 C1306 1.411 1_554 S
C1320 C1319 1.382 . S
C1321 C1305 1.411 . S
C1321 C1319 1.403 . S
C1321 C1322 1.489 . S
C1322 C1321 1.489 . S
C1322 C1323 1.383 . S
C1322 C1327 1.382 . S
C1323 H1294 0.950 . S
C1323 C1322 1.383 . S
C1323 C1324 1.395 . S
C1324 H1295 0.950 . S
C1324 C1323 1.395 . S
C1324 C1325 1.288 . S
C1325 C1324 1.288 . S
C1325 C1326 1.392 . S
C1326 H1296 0.951 . S
C1326 C1325 1.392 . S
C1326 C1327 1.392 . S
C1327 H1297 0.949 . S
C1327 C1322 1.382 . S
C1327 C1326 1.392 . S
H1328 C1347 0.949 . S
H1329 C1348 0.950 . S
H1330 C1350 0.950 . S
H1331 C1351 0.950 . S
H1332 C1353 0.950 . S
H1333 C1356 0.950 . S
H1334 C1357 0.950 . S
H1335 C1359 0.951 . S
H1336 C1360 0.949 . S
H1337 C1362 0.949 . S
H1338 C1363 0.950 . S
H1339 C1365 0.950 . S
H1340 C1366 0.950 . S
H1341 C1368 0.950 . S
H1342 C1371 0.950 . S
H1343 C1372 0.950 . S
H1344 C1374 0.951 . S
H1345 C1375 0.949 . S
C1346 C1347 1.376 . S
C1346 C1351 1.386 . S
C1346 C1352 1.483 . S
C1347 H1328 0.949 . S
C1347 C1346 1.376 . S
C1347 C1348 1.397 . S
C1348 H1329 0.950 . S
C1348 C1347 1.397 . S
C1348 C1349 1.391 . S
C1349 C1348 1.391 . S
C1349 C1350 1.405 . S
C1350 H1330 0.950 . S
C1350 C1349 1.405 . S
C1350 C1351 1.367 . S
C1351 H1331 0.950 . S
C1351 C1346 1.386 . S
C1351 C1350 1.367 . S
C1352 C1346 1.483 . S
C1352 C1353 1.382 1_556 S
C1352 C1354 1.403 . S
C1353 H1332 0.950 . S
C1353 C1352 1.382 1_554 S
C1353 C1369 1.411 . S
C1354 C1352 1.403 . S
C1354 C1355 1.489 . S
C1354 C1368 1.411 1_556 S
C1355 C1354 1.489 . S
C1355 C1356 1.383 . S
C1355 C1360 1.382 . S
C1356 H1333 0.950 . S
C1356 C1355 1.383 . S
C1356 C1357 1.395 . S
C1357 H1334 0.950 . S
C1357 C1356 1.395 . S
C1357 C1358 1.288 . S
C1358 C1357 1.288 . S
C1358 C1359 1.392 . S
C1359 H1335 0.951 . S
C1359 C1358 1.392 . S
C1359 C1360 1.392 . S
C1360 H1336 0.949 . S
C1360 C1355 1.382 . S
C1360 C1359 1.392 . S
C1361 C1362 1.376 . S
C1361 C1366 1.386 . S
C1361 C1367 1.483 . S
C1362 H1337 0.949 . S
C1362 C1361 1.376 . S
C1362 C1363 1.397 . S
C1363 H1338 0.950 . S
C1363 C1362 1.397 . S
C1363 C1364 1.391 . S
C1364 C1363 1.391 . S
C1364 C1365 1.405 . S
C1365 H1339 0.950 . S
C1365 C1364 1.405 . S
C1365 C1366 1.367 . S
C1366 H1340 0.950 . S
C1366 C1361 1.386 . S
C1366 C1365 1.367 . S
C1367 C1361 1.483 . S
C1367 C1368 1.382 . S
C1367 C1369 1.403 . S
C1368 H1341 0.950 . S
C1368 C1354 1.411 1_554 S
C1368 C1367 1.382 . S
C1369 C1353 1.411 . S
C1369 C1367 1.403 . S
C1369 C1370 1.489 . S
C1370 C1369 1.489 . S
C1370 C1371 1.383 . S
C1370 C1375 1.382 . S
C1371 H1342 0.950 . S
C1371 C1370 1.383 . S
C1371 C1372 1.395 . S
C1372 H1343 0.950 . S
C1372 C1371 1.395 . S
C1372 C1373 1.288 . S
C1373 C1372 1.288 . S
C1373 C1374 1.392 . S
C1374 H1344 0.951 . S
C1374 C1373 1.392 . S
C1374 C1375 1.392 . S
C1375 H1345 0.949 . S
C1375 C1370 1.382 . S
C1375 C1374 1.392 . S
H1376 C1395 0.949 . S
H1377 C1396 0.950 . S
H1378 C1398 0.950 . S
H1379 C1399 0.950 . S
H1380 C1401 0.950 . S
H1381 C1404 0.950 . S
H1382 C1405 0.950 . S
H1383 C1407 0.951 . S
H1384 C1408 0.949 . S
H1385 C1410 0.949 . S
H1386 C1411 0.950 . S
H1387 C1413 0.950 . S
H1388 C1414 0.950 . S
H1389 C1416 0.950 . S
H1390 C1419 0.950 . S
H1391 C1420 0.950 . S
H1392 C1422 0.951 . S
H1393 C1423 0.949 . S
C1394 C1395 1.376 . S
C1394 C1399 1.386 . S
C1394 C1400 1.483 . S
C1395 H1376 0.949 . S
C1395 C1394 1.376 . S
C1395 C1396 1.397 . S
C1396 H1377 0.950 . S
C1396 C1395 1.397 . S
C1396 C1397 1.391 . S
C1397 C1396 1.391 . S
C1397 C1398 1.405 . S
C1398 H1378 0.950 . S
C1398 C1397 1.405 . S
C1398 C1399 1.367 . S
C1399 H1379 0.950 . S
C1399 C1394 1.386 . S
C1399 C1398 1.367 . S
C1400 C1394 1.483 . S
C1400 C1401 1.382 . S
C1400 C1402 1.403 . S
C1401 H1380 0.950 . S
C1401 C1400 1.382 . S
C1401 C1417 1.411 1_554 S
C1402 C1400 1.403 . S
C1402 C1403 1.489 . S
C1402 C1416 1.411 . S
C1403 C1402 1.489 . S
C1403 C1404 1.383 . S
C1403 C1408 1.382 . S
C1404 H1381 0.950 . S
C1404 C1403 1.383 . S
C1404 C1405 1.395 . S
C1405 H1382 0.950 . S
C1405 C1404 1.395 . S
C1405 C1406 1.288 . S
C1406 C1405 1.288 . S
C1406 C1407 1.392 . S
C1407 H1383 0.951 . S
C1407 C1406 1.392 . S
C1407 C1408 1.392 . S
C1408 H1384 0.949 . S
C1408 C1403 1.382 . S
C1408 C1407 1.392 . S
C1409 C1410 1.376 . S
C1409 C1414 1.386 . S
C1409 C1415 1.483 . S
C1410 H1385 0.949 . S
C1410 C1409 1.376 . S
C1410 C1411 1.397 . S
C1411 H1386 0.950 . S
C1411 C1410 1.397 . S
C1411 C1412 1.391 . S
C1412 C1411 1.391 . S
C1412 C1413 1.405 . S
C1413 H1387 0.950 . S
C1413 C1412 1.405 . S
C1413 C1414 1.367 . S
C1414 H1388 0.950 . S
C1414 C1409 1.386 . S
C1414 C1413 1.367 . S
C1415 C1409 1.483 . S
C1415 C1416 1.382 1_556 S
C1415 C1417 1.403 . S
C1416 H1389 0.950 . S
C1416 C1402 1.411 . S
C1416 C1415 1.382 1_554 S
C1417 C1401 1.411 1_556 S
C1417 C1415 1.403 . S
C1417 C1418 1.489 . S
C1418 C1417 1.489 . S
C1418 C1419 1.383 . S
C1418 C1423 1.382 . S
C1419 H1390 0.950 . S
C1419 C1418 1.383 . S
C1419 C1420 1.395 . S
C1420 H1391 0.950 . S
C1420 C1419 1.395 . S
C1420 C1421 1.288 . S
C1421 C1420 1.288 . S
C1421 C1422 1.392 . S
C1422 H1392 0.951 . S
C1422 C1421 1.392 . S
C1422 C1423 1.392 . S
C1423 H1393 0.949 . S
C1423 C1418 1.382 . S
C1423 C1422 1.392 . S
H1424 C1443 0.949 . S
H1425 C1444 0.950 . S
H1426 C1446 0.950 . S
H1427 C1447 0.950 . S
H1428 C1449 0.950 . S
H1429 C1452 0.950 . S
H1430 C1453 0.950 . S
H1431 C1455 0.951 . S
H1432 C1456 0.949 . S
H1433 C1458 0.949 . S
H1434 C1459 0.950 . S
H1435 C1461 0.950 . S
H1436 C1462 0.950 . S
H1437 C1464 0.950 . S
H1438 C1467 0.950 . S
H1439 C1468 0.950 . S
H1440 C1470 0.951 . S
H1441 C1471 0.949 . S
C1442 C1443 1.376 . S
C1442 C1447 1.386 . S
C1442 C1448 1.483 . S
C1443 H1424 0.949 . S
C1443 C1442 1.376 . S
C1443 C1444 1.397 . S
C1444 H1425 0.950 . S
C1444 C1443 1.397 . S
C1444 C1445 1.391 . S
C1445 C1444 1.391 . S
C1445 C1446 1.405 . S
C1446 H1426 0.950 . S
C1446 C1445 1.405 . S
C1446 C1447 1.367 . S
C1447 H1427 0.950 . S
C1447 C1442 1.386 . S
C1447 C1446 1.367 . S
C1448 C1442 1.483 . S
C1448 C1449 1.382 1_556 S
C1448 C1450 1.403 . S
C1449 H1428 0.950 . S
C1449 C1448 1.382 1_554 S
C1449 C1465 1.411 . S
C1450 C1448 1.403 . S
C1450 C1451 1.489 . S
C1450 C1464 1.411 1_556 S
C1451 C1450 1.489 . S
C1451 C1452 1.383 . S
C1451 C1456 1.382 . S
C1452 H1429 0.950 . S
C1452 C1451 1.383 . S
C1452 C1453 1.395 . S
C1453 H1430 0.950 . S
C1453 C1452 1.395 . S
C1453 C1454 1.288 . S
C1454 C1453 1.288 . S
C1454 C1455 1.392 . S
C1455 H1431 0.951 . S
C1455 C1454 1.392 . S
C1455 C1456 1.392 . S
C1456 H1432 0.949 . S
C1456 C1451 1.382 . S
C1456 C1455 1.392 . S
C1457 C1458 1.376 . S
C1457 C1462 1.386 . S
C1457 C1463 1.483 . S
C1458 H1433 0.949 . S
C1458 C1457 1.376 . S
C1458 C1459 1.397 . S
C1459 H1434 0.950 . S
C1459 C1458 1.397 . S
C1459 C1460 1.391 . S
C1460 C1459 1.391 . S
C1460 C1461 1.405 . S
C1461 H1435 0.950 . S
C1461 C1460 1.405 . S
C1461 C1462 1.367 . S
C1462 H1436 0.950 . S
C1462 C1457 1.386 . S
C1462 C1461 1.367 . S
C1463 C1457 1.483 . S
C1463 C1464 1.382 . S
C1463 C1465 1.403 . S
C1464 H1437 0.950 . S
C1464 C1450 1.411 1_554 S
C1464 C1463 1.382 . S
C1465 C1449 1.411 . S
C1465 C1463 1.403 . S
C1465 C1466 1.489 . S
C1466 C1465 1.489 . S
C1466 C1467 1.383 . S
C1466 C1471 1.382 . S
C1467 H1438 0.950 . S
C1467 C1466 1.383 . S
C1467 C1468 1.395 . S
C1468 H1439 0.950 . S
C1468 C1467 1.395 . S
C1468 C1469 1.288 . S
C1469 C1468 1.288 . S
C1469 C1470 1.392 . S
C1470 H1440 0.951 . S
C1470 C1469 1.392 . S
C1470 C1471 1.392 . S
C1471 H1441 0.949 . S
C1471 C1466 1.382 . S
C1471 C1470 1.392 . S
H1472 C1491 0.949 . S
H1473 C1492 0.950 . S
H1474 C1494 0.950 . S
H1475 C1495 0.950 . S
H1476 C1497 0.950 . S
H1477 C1500 0.950 . S
H1478 C1501 0.950 . S
H1479 C1503 0.951 . S
H1480 C1504 0.949 . S
H1481 C1506 0.949 . S
H1482 C1507 0.950 . S
H1483 C1509 0.950 . S
H1484 C1510 0.950 . S
H1485 C1512 0.950 . S
H1486 C1515 0.950 . S
H1487 C1516 0.950 . S
H1488 C1518 0.951 . S
H1489 C1519 0.949 . S
C1490 C1491 1.376 . S
C1490 C1495 1.386 . S
C1490 C1496 1.483 . S
C1491 H1472 0.949 . S
C1491 C1490 1.376 . S
C1491 C1492 1.397 . S
C1492 H1473 0.950 . S
C1492 C1491 1.397 . S
C1492 C1493 1.391 . S
C1493 C1492 1.391 . S
C1493 C1494 1.405 . S
C1494 H1474 0.950 . S
C1494 C1493 1.405 . S
C1494 C1495 1.367 . S
C1495 H1475 0.950 . S
C1495 C1490 1.386 . S
C1495 C1494 1.367 . S
C1496 C1490 1.483 . S
C1496 C1497 1.382 . S
C1496 C1498 1.403 . S
C1497 H1476 0.950 . S
C1497 C1496 1.382 . S
C1497 C1513 1.411 1_455 S
C1498 C1496 1.403 . S
C1498 C1499 1.489 . S
C1498 C1512 1.411 . S
C1499 C1498 1.489 . S
C1499 C1500 1.383 . S
C1499 C1504 1.382 . S
C1500 H1477 0.950 . S
C1500 C1499 1.383 . S
C1500 C1501 1.395 . S
C1501 H1478 0.950 . S
C1501 C1500 1.395 . S
C1501 C1502 1.288 . S
C1502 C1501 1.288 . S
C1502 C1503 1.392 . S
C1503 H1479 0.951 . S
C1503 C1502 1.392 . S
C1503 C1504 1.392 . S
C1504 H1480 0.949 . S
C1504 C1499 1.382 . S
C1504 C1503 1.392 . S
C1505 C1506 1.376 . S
C1505 C1510 1.386 . S
C1505 C1511 1.483 . S
C1506 H1481 0.949 . S
C1506 C1505 1.376 . S
C1506 C1507 1.397 . S
C1507 H1482 0.950 . S
C1507 C1506 1.397 . S
C1507 C1508 1.391 . S
C1508 C1507 1.391 . S
C1508 C1509 1.405 . S
C1509 H1483 0.950 . S
C1509 C1508 1.405 . S
C1509 C1510 1.367 . S
C1510 H1484 0.950 . S
C1510 C1505 1.386 . S
C1510 C1509 1.367 . S
C1511 C1505 1.483 . S
C1511 C1512 1.382 1_655 S
C1511 C1513 1.403 . S
C1512 H1485 0.950 . S
C1512 C1498 1.411 . S
C1512 C1511 1.382 1_455 S
C1513 C1497 1.411 1_655 S
C1513 C1511 1.403 . S
C1513 C1514 1.489 . S
C1514 C1513 1.489 . S
C1514 C1515 1.383 . S
C1514 C1519 1.382 . S
C1515 H1486 0.950 . S
C1515 C1514 1.383 . S
C1515 C1516 1.395 . S
C1516 H1487 0.950 . S
C1516 C1515 1.395 . S
C1516 C1517 1.288 . S
C1517 C1516 1.288 . S
C1517 C1518 1.392 . S
C1518 H1488 0.951 . S
C1518 C1517 1.392 . S
C1518 C1519 1.392 . S
C1519 H1489 0.949 . S
C1519 C1514 1.382 . S
C1519 C1518 1.392 . S
H1520 C1539 0.949 . S
H1521 C1540 0.950 . S
H1522 C1542 0.950 . S
H1523 C1543 0.950 . S
H1524 C1545 0.950 . S
H1525 C1548 0.950 . S
H1526 C1549 0.950 . S
H1527 C1551 0.951 . S
H1528 C1552 0.949 . S
H1529 C1554 0.949 . S
H1530 C1555 0.950 . S
H1531 C1557 0.950 . S
H1532 C1558 0.950 . S
H1533 C1560 0.951 . S
H1534 C1563 0.950 . S
H1535 C1564 0.950 . S
H1536 C1566 0.951 . S
H1537 C1567 0.949 . S
C1538 C1539 1.376 . S
C1538 C1543 1.386 . S
C1538 C1544 1.483 . S
C1539 H1520 0.949 . S
C1539 C1538 1.376 . S
C1539 C1540 1.397 . S
C1540 H1521 0.950 . S
C1540 C1539 1.397 . S
C1540 C1541 1.391 . S
C1541 C1540 1.391 . S
C1541 C1542 1.405 . S
C1542 H1522 0.950 . S
C1542 C1541 1.405 . S
C1542 C1543 1.367 . S
C1543 H1523 0.950 . S
C1543 C1538 1.386 . S
C1543 C1542 1.367 . S
C1544 C1538 1.483 . S
C1544 C1545 1.382 . S
C1544 C1546 1.403 . S
C1545 H1524 0.950 . S
C1545 C1544 1.382 . S
C1545 C1561 1.411 1_545 S
C1546 C1544 1.403 . S
C1546 C1547 1.489 . S
C1546 C1560 1.389 1_545 S
C1547 C1546 1.489 . S
C1547 C1548 1.383 . S
C1547 C1552 1.382 . S
C1548 H1525 0.950 . S
C1548 C1547 1.383 . S
C1548 C1549 1.395 . S
C1549 H1526 0.950 . S
C1549 C1548 1.395 . S
C1549 C1550 1.288 . S
C1550 C1549 1.288 . S
C1550 C1551 1.392 . S
C1551 H1527 0.951 . S
C1551 C1550 1.392 . S
C1551 C1552 1.392 . S
C1552 H1528 0.949 . S
C1552 C1547 1.382 . S
C1552 C1551 1.392 . S
C1553 C1554 1.376 . S
C1553 C1558 1.386 . S
C1553 C1559 1.483 . S
C1554 H1529 0.949 . S
C1554 C1553 1.376 . S
C1554 C1555 1.397 . S
C1555 H1530 0.950 . S
C1555 C1554 1.397 . S
C1555 C1556 1.391 . S
C1556 C1555 1.391 . S
C1556 C1557 1.405 . S
C1557 H1531 0.950 . S
C1557 C1556 1.405 . S
C1557 C1558 1.367 . S
C1558 H1532 0.950 . S
C1558 C1553 1.386 . S
C1558 C1557 1.367 . S
C1559 C1553 1.483 . S
C1559 C1560 1.403 . S
C1559 C1561 1.403 . S
C1560 H1533 0.951 . S
C1560 C1546 1.389 1_565 S
C1560 C1559 1.403 . S
C1561 C1545 1.411 1_565 S
C1561 C1559 1.403 . S
C1561 C1562 1.489 . S
C1562 C1561 1.489 . S
C1562 C1563 1.383 . S
C1562 C1567 1.382 . S
C1563 H1534 0.950 . S
C1563 C1562 1.383 . S
C1563 C1564 1.395 . S
C1564 H1535 0.950 . S
C1564 C1563 1.395 . S
C1564 C1565 1.288 . S
C1565 C1564 1.288 . S
C1565 C1566 1.392 . S
C1566 H1536 0.951 . S
C1566 C1565 1.392 . S
C1566 C1567 1.392 . S
C1567 H1537 0.949 . S
C1567 C1562 1.382 . S
C1567 C1566 1.392 . S
H1568 C1587 0.949 . S
H1569 C1588 0.950 . S
H1570 C1590 0.950 . S
H1571 C1591 0.950 . S
H1572 C1593 0.953 . S
H1573 C1596 0.950 . S
H1574 C1597 0.950 . S
H1575 C1599 0.951 . S
H1576 C1600 0.949 . S
H1577 C1602 0.949 . S
H1578 C1603 0.950 . S
H1579 C1605 0.950 . S
H1580 C1606 0.950 . S
H1581 C1608 0.950 1_655 S
H1582 C1611 0.950 . S
H1583 C1612 0.950 . S
H1584 C1614 0.951 . S
H1585 C1615 0.949 . S
C1586 C1587 1.376 . S
C1586 C1591 1.386 . S
C1586 C1592 1.483 . S
C1587 H1568 0.949 . S
C1587 C1586 1.376 . S
C1587 C1588 1.397 . S
C1588 H1569 0.950 . S
C1588 C1587 1.397 . S
C1588 C1589 1.391 . S
C1589 C1588 1.391 . S
C1589 C1590 1.405 . S
C1590 H1570 0.950 . S
C1590 C1589 1.405 . S
C1590 C1591 1.367 . S
C1591 H1571 0.950 . S
C1591 C1586 1.386 . S
C1591 C1590 1.367 . S
C1592 C1586 1.483 . S
C1592 C1593 1.434 . S
C1592 C1594 1.403 . S
C1593 H1572 0.953 . S
C1593 C1592 1.434 . S
C1593 C1609 1.358 1_455 S
C1594 C1592 1.403 . S
C1594 C1595 1.489 . S
C1594 C1608 1.414 . S
C1595 C1594 1.489 . S
C1595 C1596 1.383 . S
C1595 C1600 1.382 . S
C1596 H1573 0.950 . S
C1596 C1595 1.383 . S
C1596 C1597 1.395 . S
C1597 H1574 0.950 . S
C1597 C1596 1.395 . S
C1597 C1598 1.288 . S
C1598 C1597 1.288 . S
C1598 C1599 1.392 . S
C1599 H1575 0.951 . S
C1599 C1598 1.392 . S
C1599 C1600 1.392 . S
C1600 H1576 0.949 . S
C1600 C1595 1.382 . S
C1600 C1599 1.392 . S
C1601 C1602 1.376 . S
C1601 C1606 1.386 . S
C1601 C1607 1.483 . S
C1602 H1577 0.949 . S
C1602 C1601 1.376 . S
C1602 C1603 1.397 . S
C1603 H1578 0.950 . S
C1603 C1602 1.397 . S
C1603 C1604 1.391 . S
C1604 C1603 1.391 . S
C1604 C1605 1.405 . S
C1605 H1579 0.950 . S
C1605 C1604 1.405 . S
C1605 C1606 1.367 . S
C1606 H1580 0.950 . S
C1606 C1601 1.386 . S
C1606 C1605 1.367 . S
C1607 C1601 1.483 . S
C1607 C1608 1.379 1_655 S
C1607 C1609 1.403 . S
C1608 H1581 0.950 1_455 S
C1608 C1594 1.414 . S
C1608 C1607 1.379 1_455 S
C1609 C1593 1.358 1_655 S
C1609 C1607 1.403 . S
C1609 C1610 1.489 . S
C1610 C1609 1.489 . S
C1610 C1611 1.383 . S
C1610 C1615 1.382 . S
C1611 H1582 0.950 . S
C1611 C1610 1.383 . S
C1611 C1612 1.395 . S
C1612 H1583 0.950 . S
C1612 C1611 1.395 . S
C1612 C1613 1.288 . S
C1613 C1612 1.288 . S
C1613 C1614 1.392 . S
C1614 H1584 0.951 . S
C1614 C1613 1.392 . S
C1614 C1615 1.392 . S
C1615 H1585 0.949 . S
C1615 C1610 1.382 . S
C1615 C1614 1.392 . S
H1616 C1635 0.949 . S
H1617 C1636 0.950 . S
H1618 C1638 0.950 . S
H1619 C1639 0.950 . S
H1620 C1641 0.950 . S
H1621 C1644 0.950 . S
H1622 C1645 0.950 . S
H1623 C1647 0.951 . S
H1624 C1648 0.949 . S
H1625 C1650 0.949 . S
H1626 C1651 0.950 . S
H1627 C1653 0.950 . S
H1628 C1654 0.950 . S
H1629 C1656 0.950 . S
H1630 C1659 0.950 . S
H1631 C1660 0.950 . S
H1632 C1662 0.951 . S
H1633 C1663 0.949 . S
C1634 C1635 1.376 . S
C1634 C1639 1.386 . S
C1634 C1640 1.483 . S
C1635 H1616 0.949 . S
C1635 C1634 1.376 . S
C1635 C1636 1.397 . S
C1636 H1617 0.950 . S
C1636 C1635 1.397 . S
C1636 C1637 1.391 . S
C1637 C1636 1.391 . S
C1637 C1638 1.405 . S
C1638 H1618 0.950 . S
C1638 C1637 1.405 . S
C1638 C1639 1.367 . S
C1639 H1619 0.950 . S
C1639 C1634 1.386 . S
C1639 C1638 1.367 . S
C1640 C1634 1.483 . S
C1640 C1641 1.382 . S
C1640 C1642 1.403 . S
C1641 H1620 0.950 . S
C1641 C1640 1.382 . S
C1641 C1657 1.411 1_545 S
C1642 C1640 1.403 . S
C1642 C1643 1.489 . S
C1642 C1656 1.411 . S
C1643 C1642 1.489 . S
C1643 C1644 1.383 . S
C1643 C1648 1.382 . S
C1644 H1621 0.950 . S
C1644 C1643 1.383 . S
C1644 C1645 1.395 . S
C1645 H1622 0.950 . S
C1645 C1644 1.395 . S
C1645 C1646 1.288 . S
C1646 C1645 1.288 . S
C1646 C1647 1.392 . S
C1647 H1623 0.951 . S
C1647 C1646 1.392 . S
C1647 C1648 1.392 . S
C1648 H1624 0.949 . S
C1648 C1643 1.382 . S
C1648 C1647 1.392 . S
C1649 C1650 1.376 . S
C1649 C1654 1.386 . S
C1649 C1655 1.483 . S
C1650 H1625 0.949 . S
C1650 C1649 1.376 . S
C1650 C1651 1.397 . S
C1651 H1626 0.950 . S
C1651 C1650 1.397 . S
C1651 C1652 1.391 . S
C1652 C1651 1.391 . S
C1652 C1653 1.405 . S
C1653 H1627 0.950 . S
C1653 C1652 1.405 . S
C1653 C1654 1.367 . S
C1654 H1628 0.950 . S
C1654 C1649 1.386 . S
C1654 C1653 1.367 . S
C1655 C1649 1.483 . S
C1655 C1656 1.382 1_565 S
C1655 C1657 1.403 . S
C1656 H1629 0.950 . S
C1656 C1642 1.411 . S
C1656 C1655 1.382 1_545 S
C1657 C1641 1.411 1_565 S
C1657 C1655 1.403 . S
C1657 C1658 1.489 . S
C1658 C1657 1.489 . S
C1658 C1659 1.383 . S
C1658 C1663 1.382 . S
C1659 H1630 0.950 . S
C1659 C1658 1.383 . S
C1659 C1660 1.395 . S
C1660 H1631 0.950 . S
C1660 C1659 1.395 . S
C1660 C1661 1.288 . S
C1661 C1660 1.288 . S
C1661 C1662 1.392 . S
C1662 H1632 0.951 . S
C1662 C1661 1.392 . S
C1662 C1663 1.392 . S
C1663 H1633 0.949 . S
C1663 C1658 1.382 . S
C1663 C1662 1.392 . S
H1664 C1683 0.949 . S
H1665 C1684 0.950 . S
H1666 C1686 0.950 . S
H1667 C1687 0.950 . S
H1668 C1689 0.950 . S
H1669 C1692 0.950 . S
H1670 C1693 0.950 . S
H1671 C1695 0.951 . S
H1672 C1696 0.949 . S
H1673 C1698 0.949 . S
H1674 C1699 0.950 . S
H1675 C1701 0.950 . S
H1676 C1702 0.950 . S
H1677 C1704 0.950 . S
H1678 C1707 0.950 . S
H1679 C1708 0.950 . S
H1680 C1710 0.951 . S
H1681 C1711 0.949 . S
C1682 C1683 1.376 . S
C1682 C1687 1.386 . S
C1682 C1688 1.483 . S
C1683 H1664 0.949 . S
C1683 C1682 1.376 . S
C1683 C1684 1.397 . S
C1684 H1665 0.950 . S
C1684 C1683 1.397 . S
C1684 C1685 1.391 . S
C1685 C1684 1.391 . S
C1685 C1686 1.405 . S
C1686 H1666 0.950 . S
C1686 C1685 1.405 . S
C1686 C1687 1.367 . S
C1687 H1667 0.950 . S
C1687 C1682 1.386 . S
C1687 C1686 1.367 . S
C1688 C1682 1.483 . S
C1688 C1689 1.382 . S
C1688 C1690 1.403 . S
C1689 H1668 0.950 . S
C1689 C1688 1.382 . S
C1689 C1705 1.411 1_455 S
C1690 C1688 1.403 . S
C1690 C1691 1.489 . S
C1690 C1704 1.466 . S
C1691 C1690 1.489 . S
C1691 C1692 1.383 . S
C1691 C1696 1.382 . S
C1692 H1669 0.950 . S
C1692 C1691 1.383 . S
C1692 C1693 1.395 . S
C1693 H1670 0.950 . S
C1693 C1692 1.395 . S
C1693 C1694 1.288 . S
C1694 C1693 1.288 . S
C1694 C1695 1.392 . S
C1695 H1671 0.951 . S
C1695 C1694 1.392 . S
C1695 C1696 1.392 . S
C1696 H1672 0.949 . S
C1696 C1691 1.382 . S
C1696 C1695 1.392 . S
C1697 C1698 1.376 . S
C1697 C1702 1.386 . S
C1697 C1703 1.483 . S
C1698 H1673 0.949 . S
C1698 C1697 1.376 . S
C1698 C1699 1.397 . S
C1699 H1674 0.950 . S
C1699 C1698 1.397 . S
C1699 C1700 1.391 . S
C1700 C1699 1.391 . S
C1700 C1701 1.405 . S
C1701 H1675 0.950 . S
C1701 C1700 1.405 . S
C1701 C1702 1.367 . S
C1702 H1676 0.950 . S
C1702 C1697 1.386 . S
C1702 C1701 1.367 . S
C1703 C1697 1.483 . S
C1703 C1704 1.329 1_655 S
C1703 C1705 1.403 . S
C1704 H1677 0.950 . S
C1704 C1690 1.466 . S
C1704 C1703 1.329 1_455 S
C1705 C1689 1.411 1_655 S
C1705 C1703 1.403 . S
C1705 C1706 1.489 . S
C1706 C1705 1.489 . S
C1706 C1707 1.383 . S
C1706 C1711 1.382 . S
C1707 H1678 0.950 . S
C1707 C1706 1.383 . S
C1707 C1708 1.395 . S
C1708 H1679 0.950 . S
C1708 C1707 1.395 . S
C1708 C1709 1.288 . S
C1709 C1708 1.288 . S
C1709 C1710 1.392 . S
C1710 H1680 0.951 . S
C1710 C1709 1.392 . S
C1710 C1711 1.392 . S
C1711 H1681 0.949 . S
C1711 C1706 1.382 . S
C1711 C1710 1.392 . S
H1712 C1731 0.949 . S
H1713 C1732 0.950 . S
H1714 C1734 0.950 . S
H1715 C1735 0.950 . S
H1716 C1737 0.950 . S
H1717 C1740 0.950 . S
H1718 C1741 0.950 . S
H1719 C1743 0.951 . S
H1720 C1744 0.949 . S
H1721 C1746 0.949 . S
H1722 C1747 0.950 . S
H1723 C1749 0.950 . S
H1724 C1750 0.950 . S
H1725 C1752 0.951 . S
H1726 C1755 0.950 . S
H1727 C1756 0.950 . S
H1728 C1758 0.951 . S
H1729 C1759 0.949 . S
C1730 C1731 1.376 . S
C1730 C1735 1.386 . S
C1730 C1736 1.483 . S
C1731 H1712 0.949 . S
C1731 C1730 1.376 . S
C1731 C1732 1.397 . S
C1732 H1713 0.950 . S
C1732 C1731 1.397 . S
C1732 C1733 1.391 . S
C1733 C1732 1.391 . S
C1733 C1734 1.405 . S
C1734 H1714 0.950 . S
C1734 C1733 1.405 . S
C1734 C1735 1.367 . S
C1735 H1715 0.950 . S
C1735 C1730 1.386 . S
C1735 C1734 1.367 . S
C1736 C1730 1.483 . S
C1736 C1737 1.382 . S
C1736 C1738 1.403 . S
C1737 H1716 0.950 . S
C1737 C1736 1.382 . S
C1737 C1753 1.411 1_545 S
C1738 C1736 1.403 . S
C1738 C1739 1.489 . S
C1738 C1752 1.389 1_545 S
C1739 C1738 1.489 . S
C1739 C1740 1.383 . S
C1739 C1744 1.382 . S
C1740 H1717 0.950 . S
C1740 C1739 1.383 . S
C1740 C1741 1.395 . S
C1741 H1718 0.950 . S
C1741 C1740 1.395 . S
C1741 C1742 1.288 . S
C1742 C1741 1.288 . S
C1742 C1743 1.392 . S
C1743 H1719 0.951 . S
C1743 C1742 1.392 . S
C1743 C1744 1.392 . S
C1744 H1720 0.949 . S
C1744 C1739 1.382 . S
C1744 C1743 1.392 . S
C1745 C1746 1.376 . S
C1745 C1750 1.386 . S
C1745 C1751 1.483 . S
C1746 H1721 0.949 . S
C1746 C1745 1.376 . S
C1746 C1747 1.397 . S
C1747 H1722 0.950 . S
C1747 C1746 1.397 . S
C1747 C1748 1.391 . S
C1748 C1747 1.391 . S
C1748 C1749 1.405 . S
C1749 H1723 0.950 . S
C1749 C1748 1.405 . S
C1749 C1750 1.367 . S
C1750 H1724 0.950 . S
C1750 C1745 1.386 . S
C1750 C1749 1.367 . S
C1751 C1745 1.483 . S
C1751 C1752 1.403 . S
C1751 C1753 1.403 . S
C1752 H1725 0.951 . S
C1752 C1738 1.389 1_565 S
C1752 C1751 1.403 . S
C1753 C1737 1.411 1_565 S
C1753 C1751 1.403 . S
C1753 C1754 1.489 . S
C1754 C1753 1.489 . S
C1754 C1755 1.383 . S
C1754 C1759 1.382 . S
C1755 H1726 0.950 . S
C1755 C1754 1.383 . S
C1755 C1756 1.395 . S
C1756 H1727 0.950 . S
C1756 C1755 1.395 . S
C1756 C1757 1.288 . S
C1757 C1756 1.288 . S
C1757 C1758 1.392 . S
C1758 H1728 0.951 . S
C1758 C1757 1.392 . S
C1758 C1759 1.392 . S
C1759 H1729 0.949 . S
C1759 C1754 1.382 . S
C1759 C1758 1.392 . S
H1760 C1779 0.949 . S
H1761 C1780 0.950 . S
H1762 C1782 0.950 . S
H1763 C1783 0.950 . S
H1764 C1785 0.950 1_655 S
H1765 C1788 0.950 . S
H1766 C1789 0.950 . S
H1767 C1791 0.951 . S
H1768 C1792 0.949 . S
H1769 C1794 0.949 . S
H1770 C1795 0.950 . S
H1771 C1797 0.950 . S
H1772 C1798 0.950 . S
H1773 C1800 0.950 . S
H1774 C1803 0.950 . S
H1775 C1804 0.950 . S
H1776 C1806 0.951 . S
H1777 C1807 0.949 . S
C1778 C1779 1.376 . S
C1778 C1783 1.386 . S
C1778 C1784 1.483 . S
C1779 H1760 0.949 . S
C1779 C1778 1.376 . S
C1779 C1780 1.397 . S
C1780 H1761 0.950 . S
C1780 C1779 1.397 . S
C1780 C1781 1.391 . S
C1781 C1780 1.391 . S
C1781 C1782 1.405 . S
C1782 H1762 0.950 . S
C1782 C1781 1.405 . S
C1782 C1783 1.367 . S
C1783 H1763 0.950 . S
C1783 C1778 1.386 . S
C1783 C1782 1.367 . S
C1784 C1778 1.483 . S
C1784 C1785 1.382 1_655 S
C1784 C1786 1.403 . S
C1785 H1764 0.950 1_455 S
C1785 C1784 1.382 1_455 S
C1785 C1801 1.411 . S
C1786 C1784 1.403 . S
C1786 C1787 1.489 . S
C1786 C1800 1.411 1_655 S
C1787 C1786 1.489 . S
C1787 C1788 1.383 . S
C1787 C1792 1.382 . S
C1788 H1765 0.950 . S
C1788 C1787 1.383 . S
C1788 C1789 1.395 . S
C1789 H1766 0.950 . S
C1789 C1788 1.395 . S
C1789 C1790 1.288 . S
C1790 C1789 1.288 . S
C1790 C1791 1.392 . S
C1791 H1767 0.951 . S
C1791 C1790 1.392 . S
C1791 C1792 1.392 . S
C1792 H1768 0.949 . S
C1792 C1787 1.382 . S
C1792 C1791 1.392 . S
C1793 C1794 1.376 . S
C1793 C1798 1.386 . S
C1793 C1799 1.483 . S
C1794 H1769 0.949 . S
C1794 C1793 1.376 . S
C1794 C1795 1.397 . S
C1795 H1770 0.950 . S
C1795 C1794 1.397 . S
C1795 C1796 1.391 . S
C1796 C1795 1.391 . S
C1796 C1797 1.405 . S
C1797 H1771 0.950 . S
C1797 C1796 1.405 . S
C1797 C1798 1.367 . S
C1798 H1772 0.950 . S
C1798 C1793 1.386 . S
C1798 C1797 1.367 . S
C1799 C1793 1.483 . S
C1799 C1800 1.382 . S
C1799 C1801 1.403 . S
C1800 H1773 0.950 . S
C1800 C1786 1.411 1_455 S
C1800 C1799 1.382 . S
C1801 C1785 1.411 . S
C1801 C1799 1.403 . S
C1801 C1802 1.489 . S
C1802 C1801 1.489 . S
C1802 C1803 1.383 . S
C1802 C1807 1.382 . S
C1803 H1774 0.950 . S
C1803 C1802 1.383 . S
C1803 C1804 1.395 . S
C1804 H1775 0.950 . S
C1804 C1803 1.395 . S
C1804 C1805 1.288 . S
C1805 C1804 1.288 . S
C1805 C1806 1.392 . S
C1806 H1776 0.951 . S
C1806 C1805 1.392 . S
C1806 C1807 1.392 . S
C1807 H1777 0.949 . S
C1807 C1802 1.382 . S
C1807 C1806 1.392 . S
H1808 C1827 0.949 . S
H1809 C1828 0.950 . S
H1810 C1830 0.950 . S
H1811 C1831 0.950 . S
H1812 C1833 0.950 . S
H1813 C1836 0.950 . S
H1814 C1837 0.950 . S
H1815 C1839 0.951 . S
H1816 C1840 0.949 . S
H1817 C1842 0.949 . S
H1818 C1843 0.950 . S
H1819 C1845 0.950 . S
H1820 C1846 0.950 . S
H1821 C1848 0.950 . S
H1822 C1851 0.950 . S
H1823 C1852 0.950 . S
H1824 C1854 0.951 . S
H1825 C1855 0.949 . S
C1826 C1827 1.376 . S
C1826 C1831 1.386 . S
C1826 C1832 1.483 . S
C1827 H1808 0.949 . S
C1827 C1826 1.376 . S
C1827 C1828 1.397 . S
C1828 H1809 0.950 . S
C1828 C1827 1.397 . S
C1828 C1829 1.391 . S
C1829 C1828 1.391 . S
C1829 C1830 1.405 . S
C1830 H1810 0.950 . S
C1830 C1829 1.405 . S
C1830 C1831 1.367 . S
C1831 H1811 0.950 . S
C1831 C1826 1.386 . S
C1831 C1830 1.367 . S
C1832 C1826 1.483 . S
C1832 C1833 1.382 . S
C1832 C1834 1.403 . S
C1833 H1812 0.950 . S
C1833 C1832 1.382 . S
C1833 C1849 1.411 1_545 S
C1834 C1832 1.403 . S
C1834 C1835 1.489 . S
C1834 C1848 1.411 . S
C1835 C1834 1.489 . S
C1835 C1836 1.383 . S
C1835 C1840 1.382 . S
C1836 H1813 0.950 . S
C1836 C1835 1.383 . S
C1836 C1837 1.395 . S
C1837 H1814 0.950 . S
C1837 C1836 1.395 . S
C1837 C1838 1.288 . S
C1838 C1837 1.288 . S
C1838 C1839 1.392 . S
C1839 H1815 0.951 . S
C1839 C1838 1.392 . S
C1839 C1840 1.392 . S
C1840 H1816 0.949 . S
C1840 C1835 1.382 . S
C1840 C1839 1.392 . S
C1841 C1842 1.376 . S
C1841 C1846 1.386 . S
C1841 C1847 1.483 . S
C1842 H1817 0.949 . S
C1842 C1841 1.376 . S
C1842 C1843 1.397 . S
C1843 H1818 0.950 . S
C1843 C1842 1.397 . S
C1843 C1844 1.391 . S
C1844 C1843 1.391 . S
C1844 C1845 1.405 . S
C1845 H1819 0.950 . S
C1845 C1844 1.405 . S
C1845 C1846 1.367 . S
C1846 H1820 0.950 . S
C1846 C1841 1.386 . S
C1846 C1845 1.367 . S
C1847 C1841 1.483 . S
C1847 C1848 1.382 1_565 S
C1847 C1849 1.403 . S
C1848 H1821 0.950 . S
C1848 C1834 1.411 . S
C1848 C1847 1.382 1_545 S
C1849 C1833 1.411 1_565 S
C1849 C1847 1.403 . S
C1849 C1850 1.489 . S
C1850 C1849 1.489 . S
C1850 C1851 1.383 . S
C1850 C1855 1.382 . S
C1851 H1822 0.950 . S
C1851 C1850 1.383 . S
C1851 C1852 1.395 . S
C1852 H1823 0.950 . S
C1852 C1851 1.395 . S
C1852 C1853 1.288 . S
C1853 C1852 1.288 . S
C1853 C1854 1.392 . S
C1854 H1824 0.951 . S
C1854 C1853 1.392 . S
C1854 C1855 1.392 . S
C1855 H1825 0.949 . S
C1855 C1850 1.382 . S
C1855 C1854 1.392 . S
H1856 C1875 0.949 . S
H1857 C1876 0.950 . S
H1858 C1878 0.950 . S
H1859 C1879 0.950 . S
H1860 C1881 0.950 . S
H1861 C1884 0.950 . S
H1862 C1885 0.950 . S
H1863 C1887 0.951 . S
H1864 C1888 0.949 . S
H1865 C1890 0.949 . S
H1866 C1891 0.950 . S
H1867 C1893 0.950 . S
H1868 C1894 0.950 . S
H1869 C1896 0.950 . S
H1870 C1899 0.950 . S
H1871 C1900 0.950 . S
H1872 C1902 0.951 . S
H1873 C1903 0.949 . S
C1874 C1875 1.376 . S
C1874 C1879 1.386 . S
C1874 C1880 1.483 . S
C1875 H1856 0.949 . S
C1875 C1874 1.376 . S
C1875 C1876 1.397 . S
C1876 H1857 0.950 . S
C1876 C1875 1.397 . S
C1876 C1877 1.391 . S
C1877 C1876 1.391 . S
C1877 C1878 1.405 . S
C1878 H1858 0.950 . S
C1878 C1877 1.405 . S
C1878 C1879 1.367 . S
C1879 H1859 0.950 . S
C1879 C1874 1.386 . S
C1879 C1878 1.367 . S
C1880 C1874 1.483 . S
C1880 C1881 1.382 . S
C1880 C1882 1.403 . S
C1881 H1860 0.950 . S
C1881 C1880 1.382 . S
C1881 C1897 1.411 . S
C1882 C1880 1.403 . S
C1882 C1883 1.489 . S
C1882 C1896 1.411 . S
C1883 C1882 1.489 . S
C1883 C1884 1.383 . S
C1883 C1888 1.382 . S
C1884 H1861 0.950 . S
C1884 C1883 1.383 . S
C1884 C1885 1.395 . S
C1885 H1862 0.950 . S
C1885 C1884 1.395 . S
C1885 C1886 1.288 . S
C1886 C1885 1.288 . S
C1886 C1887 1.392 . S
C1887 H1863 0.951 . S
C1887 C1886 1.392 . S
C1887 C1888 1.392 . S
C1888 H1864 0.949 . S
C1888 C1883 1.382 . S
C1888 C1887 1.392 . S
C1889 C1890 1.376 . S
C1889 C1894 1.386 . S
C1889 C1895 1.483 . S
C1890 H1865 0.949 . S
C1890 C1889 1.376 . S
C1890 C1891 1.397 . S
C1891 H1866 0.950 . S
C1891 C1890 1.397 . S
C1891 C1892 1.391 . S
C1892 C1891 1.391 . S
C1892 C1893 1.405 . S
C1893 H1867 0.950 . S
C1893 C1892 1.405 . S
C1893 C1894 1.367 . S
C1894 H1868 0.950 . S
C1894 C1889 1.386 . S
C1894 C1893 1.367 . S
C1895 C1889 1.483 . S
C1895 C1896 1.382 . S
C1895 C1897 1.403 . S
C1896 H1869 0.950 . S
C1896 C1882 1.411 . S
C1896 C1895 1.382 . S
C1897 C1881 1.411 . S
C1897 C1895 1.403 . S
C1897 C1898 1.489 . S
C1898 C1897 1.489 . S
C1898 C1899 1.383 . S
C1898 C1903 1.382 . S
C1899 H1870 0.950 . S
C1899 C1898 1.383 . S
C1899 C1900 1.395 . S
C1900 H1871 0.950 . S
C1900 C1899 1.395 . S
C1900 C1901 1.288 . S
C1901 C1900 1.288 . S
C1901 C1902 1.392 . S
C1902 H1872 0.951 . S
C1902 C1901 1.392 . S
C1902 C1903 1.392 . S
C1903 H1873 0.949 . S
C1903 C1898 1.382 . S
C1903 C1902 1.392 . S
H1904 C1923 0.949 . S
H1905 C1924 0.950 . S
H1906 C1926 0.950 . S
H1907 C1927 0.950 . S
H1908 C1929 0.950 . S
H1909 C1932 0.950 . S
H1910 C1933 0.950 . S
H1911 C1935 0.951 . S
H1912 C1936 0.949 . S
H1913 C1938 0.949 . S
H1914 C1939 0.950 . S
H1915 C1941 0.950 . S
H1916 C1942 0.950 . S
H1917 C1944 0.950 . S
H1918 C1947 0.950 . S
H1919 C1948 0.950 . S
H1920 C1950 0.951 . S
H1921 C1951 0.949 . S
C1922 C1923 1.376 . S
C1922 C1927 1.386 . S
C1922 C1928 1.483 . S
C1923 H1904 0.949 . S
C1923 C1922 1.376 . S
C1923 C1924 1.397 . S
C1924 H1905 0.950 . S
C1924 C1923 1.397 . S
C1924 C1925 1.391 . S
C1925 C1924 1.391 . S
C1925 C1926 1.405 . S
C1926 H1906 0.950 . S
C1926 C1925 1.405 . S
C1926 C1927 1.367 . S
C1927 H1907 0.950 . S
C1927 C1922 1.386 . S
C1927 C1926 1.367 . S
C1928 C1922 1.483 . S
C1928 C1929 1.382 . S
C1928 C1930 1.403 . S
C1929 H1908 0.950 . S
C1929 C1928 1.382 . S
C1929 C1945 1.411 . S
C1930 C1928 1.403 . S
C1930 C1931 1.489 . S
C1930 C1944 1.411 . S
C1931 C1930 1.489 . S
C1931 C1932 1.383 . S
C1931 C1936 1.382 . S
C1932 H1909 0.950 . S
C1932 C1931 1.383 . S
C1932 C1933 1.395 . S
C1933 H1910 0.950 . S
C1933 C1932 1.395 . S
C1933 C1934 1.288 . S
C1934 C1933 1.288 . S
C1934 C1935 1.392 . S
C1935 H1911 0.951 . S
C1935 C1934 1.392 . S
C1935 C1936 1.392 . S
C1936 H1912 0.949 . S
C1936 C1931 1.382 . S
C1936 C1935 1.392 . S
C1937 C1938 1.376 . S
C1937 C1942 1.386 . S
C1937 C1943 1.483 . S
C1938 H1913 0.949 . S
C1938 C1937 1.376 . S
C1938 C1939 1.397 . S
C1939 H1914 0.950 . S
C1939 C1938 1.397 . S
C1939 C1940 1.391 . S
C1940 C1939 1.391 . S
C1940 C1941 1.405 . S
C1941 H1915 0.950 . S
C1941 C1940 1.405 . S
C1941 C1942 1.367 . S
C1942 H1916 0.950 . S
C1942 C1937 1.386 . S
C1942 C1941 1.367 . S
C1943 C1937 1.483 . S
C1943 C1944 1.382 . S
C1943 C1945 1.403 . S
C1944 H1917 0.950 . S
C1944 C1930 1.411 . S
C1944 C1943 1.382 . S
C1945 C1929 1.411 . S
C1945 C1943 1.403 . S
C1945 C1946 1.489 . S
C1946 C1945 1.489 . S
C1946 C1947 1.383 . S
C1946 C1951 1.382 . S
C1947 H1918 0.950 . S
C1947 C1946 1.383 . S
C1947 C1948 1.395 . S
C1948 H1919 0.950 . S
C1948 C1947 1.395 . S
C1948 C1949 1.288 . S
C1949 C1948 1.288 . S
C1949 C1950 1.392 . S
C1950 H1920 0.951 . S
C1950 C1949 1.392 . S
C1950 C1951 1.392 . S
C1951 H1921 0.949 . S
C1951 C1946 1.382 . S
C1951 C1950 1.392 . S
H1952 C1971 0.949 . S
H1953 C1972 0.950 . S
H1954 C1974 0.950 . S
H1955 C1975 0.950 . S
H1956 C1977 0.950 . S
H1957 C1980 0.950 . S
H1958 C1981 0.950 . S
H1959 C1983 0.951 . S
H1960 C1984 0.949 . S
H1961 C1986 0.949 . S
H1962 C1987 0.950 . S
H1963 C1989 0.950 . S
H1964 C1990 0.950 . S
H1965 C1992 0.950 . S
H1966 C1995 0.950 . S
H1967 C1996 0.950 . S
H1968 C1998 0.951 . S
H1969 C1999 0.949 . S
C1970 C1971 1.376 . S
C1970 C1975 1.386 . S
C1970 C1976 1.483 . S
C1971 H1952 0.949 . S
C1971 C1970 1.376 . S
C1971 C1972 1.397 . S
C1972 H1953 0.950 . S
C1972 C1971 1.397 . S
C1972 C1973 1.391 . S
C1973 C1972 1.391 . S
C1973 C1974 1.405 . S
C1974 H1954 0.950 . S
C1974 C1973 1.405 . S
C1974 C1975 1.367 . S
C1975 H1955 0.950 . S
C1975 C1970 1.386 . S
C1975 C1974 1.367 . S
C1976 C1970 1.483 . S
C1976 C1977 1.382 . S
C1976 C1978 1.403 . S
C1977 H1956 0.950 . S
C1977 C1976 1.382 . S
C1977 C1993 1.411 . S
C1978 C1976 1.403 . S
C1978 C1979 1.489 . S
C1978 C1992 1.411 . S
C1979 C1978 1.489 . S
C1979 C1980 1.383 . S
C1979 C1984 1.382 . S
C1980 H1957 0.950 . S
C1980 C1979 1.383 . S
C1980 C1981 1.395 . S
C1981 H1958 0.950 . S
C1981 C1980 1.395 . S
C1981 C1982 1.288 . S
C1982 C1981 1.288 . S
C1982 C1983 1.392 . S
C1983 H1959 0.951 . S
C1983 C1982 1.392 . S
C1983 C1984 1.392 . S
C1984 H1960 0.949 . S
C1984 C1979 1.382 . S
C1984 C1983 1.392 . S
C1985 C1986 1.376 . S
C1985 C1990 1.386 . S
C1985 C1991 1.483 . S
C1986 H1961 0.949 . S
C1986 C1985 1.376 . S
C1986 C1987 1.397 . S
C1987 H1962 0.950 . S
C1987 C1986 1.397 . S
C1987 C1988 1.391 . S
C1988 C1987 1.391 . S
C1988 C1989 1.405 . S
C1989 H1963 0.950 . S
C1989 C1988 1.405 . S
C1989 C1990 1.367 . S
C1990 H1964 0.950 . S
C1990 C1985 1.386 . S
C1990 C1989 1.367 . S
C1991 C1985 1.483 . S
C1991 C1992 1.382 . S
C1991 C1993 1.403 . S
C1992 H1965 0.950 . S
C1992 C1978 1.411 . S
C1992 C1991 1.382 . S
C1993 C1977 1.411 . S
C1993 C1991 1.403 . S
C1993 C1994 1.489 . S
C1994 C1993 1.489 . S
C1994 C1995 1.383 . S
C1994 C1999 1.382 . S
C1995 H1966 0.950 . S
C1995 C1994 1.383 . S
C1995 C1996 1.395 . S
C1996 H1967 0.950 . S
C1996 C1995 1.395 . S
C1996 C1997 1.288 . S
C1997 C1996 1.288 . S
C1997 C1998 1.392 . S
C1998 H1968 0.951 . S
C1998 C1997 1.392 . S
C1998 C1999 1.392 . S
C1999 H1969 0.949 . S
C1999 C1994 1.382 . S
C1999 C1998 1.392 . S
H2000 C2019 0.949 . S
H2001 C2020 0.950 . S
H2002 C2022 0.950 . S
H2003 C2023 0.950 . S
H2004 C2025 0.950 . S
H2005 C2028 0.950 . S
H2006 C2029 0.950 . S
H2007 C2031 0.951 . S
H2008 C2032 0.949 . S
H2009 C2034 0.949 . S
H2010 C2035 0.950 . S
H2011 C2037 0.950 . S
H2012 C2038 0.950 . S
H2013 C2040 0.950 . S
H2014 C2043 0.950 . S
H2015 C2044 0.950 . S
H2016 C2046 0.951 . S
H2017 C2047 0.949 . S
C2018 C2019 1.376 . S
C2018 C2023 1.386 . S
C2018 C2024 1.483 . S
C2019 H2000 0.949 . S
C2019 C2018 1.376 . S
C2019 C2020 1.397 . S
C2020 H2001 0.950 . S
C2020 C2019 1.397 . S
C2020 C2021 1.391 . S
C2021 C2020 1.391 . S
C2021 C2022 1.405 . S
C2022 H2002 0.950 . S
C2022 C2021 1.405 . S
C2022 C2023 1.367 . S
C2023 H2003 0.950 . S
C2023 C2018 1.386 . S
C2023 C2022 1.367 . S
C2024 C2018 1.483 . S
C2024 C2025 1.382 . S
C2024 C2026 1.403 . S
C2025 H2004 0.950 . S
C2025 C2024 1.382 . S
C2025 C2041 1.411 . S
C2026 C2024 1.403 . S
C2026 C2027 1.489 . S
C2026 C2040 1.411 . S
C2027 C2026 1.489 . S
C2027 C2028 1.383 . S
C2027 C2032 1.382 . S
C2028 H2005 0.950 . S
C2028 C2027 1.383 . S
C2028 C2029 1.395 . S
C2029 H2006 0.950 . S
C2029 C2028 1.395 . S
C2029 C2030 1.288 . S
C2030 C2029 1.288 . S
C2030 C2031 1.392 . S
C2031 H2007 0.951 . S
C2031 C2030 1.392 . S
C2031 C2032 1.392 . S
C2032 H2008 0.949 . S
C2032 C2027 1.382 . S
C2032 C2031 1.392 . S
C2033 C2034 1.376 . S
C2033 C2038 1.386 . S
C2033 C2039 1.483 . S
C2034 H2009 0.949 . S
C2034 C2033 1.376 . S
C2034 C2035 1.397 . S
C2035 H2010 0.950 . S
C2035 C2034 1.397 . S
C2035 C2036 1.391 . S
C2036 C2035 1.391 . S
C2036 C2037 1.405 . S
C2037 H2011 0.950 . S
C2037 C2036 1.405 . S
C2037 C2038 1.367 . S
C2038 H2012 0.950 . S
C2038 C2033 1.386 . S
C2038 C2037 1.367 . S
C2039 C2033 1.483 . S
C2039 C2040 1.382 . S
C2039 C2041 1.403 . S
C2040 H2013 0.950 . S
C2040 C2026 1.411 . S
C2040 C2039 1.382 . S
C2041 C2025 1.411 . S
C2041 C2039 1.403 . S
C2041 C2042 1.489 . S
C2042 C2041 1.489 . S
C2042 C2043 1.383 . S
C2042 C2047 1.382 . S
C2043 H2014 0.950 . S
C2043 C2042 1.383 . S
C2043 C2044 1.395 . S
C2044 H2015 0.950 . S
C2044 C2043 1.395 . S
C2044 C2045 1.288 . S
C2045 C2044 1.288 . S
C2045 C2046 1.392 . S
C2046 H2016 0.951 . S
C2046 C2045 1.392 . S
C2046 C2047 1.392 . S
C2047 H2017 0.949 . S
C2047 C2042 1.382 . S
C2047 C2046 1.392 . S
H2048 C2067 0.949 . S
H2049 C2068 0.950 . S
H2050 C2070 0.950 . S
H2051 C2071 0.950 . S
H2052 C2073 0.950 . S
H2053 C2076 0.950 . S
H2054 C2077 0.950 . S
H2055 C2079 0.951 . S
H2056 C2080 0.949 . S
H2057 C2082 0.949 . S
H2058 C2083 0.950 . S
H2059 C2085 0.950 . S
H2060 C2086 0.950 . S
H2061 C2088 0.950 . S
H2062 C2091 0.950 . S
H2063 C2092 0.950 . S
H2064 C2094 0.951 . S
H2065 C2095 0.949 . S
C2066 C2067 1.376 . S
C2066 C2071 1.386 . S
C2066 C2072 1.483 . S
C2067 H2048 0.949 . S
C2067 C2066 1.376 . S
C2067 C2068 1.397 . S
C2068 H2049 0.950 . S
C2068 C2067 1.397 . S
C2068 C2069 1.391 . S
C2069 C2068 1.391 . S
C2069 C2070 1.405 . S
C2070 H2050 0.950 . S
C2070 C2069 1.405 . S
C2070 C2071 1.367 . S
C2071 H2051 0.950 . S
C2071 C2066 1.386 . S
C2071 C2070 1.367 . S
C2072 C2066 1.483 . S
C2072 C2073 1.382 . S
C2072 C2074 1.403 . S
C2073 H2052 0.950 . S
C2073 C2072 1.382 . S
C2073 C2089 1.411 . S
C2074 C2072 1.403 . S
C2074 C2075 1.489 . S
C2074 C2088 1.411 . S
C2075 C2074 1.489 . S
C2075 C2076 1.383 . S
C2075 C2080 1.382 . S
C2076 H2053 0.950 . S
C2076 C2075 1.383 . S
C2076 C2077 1.395 . S
C2077 H2054 0.950 . S
C2077 C2076 1.395 . S
C2077 C2078 1.288 . S
C2078 C2077 1.288 . S
C2078 C2079 1.392 . S
C2079 H2055 0.951 . S
C2079 C2078 1.392 . S
C2079 C2080 1.392 . S
C2080 H2056 0.949 . S
C2080 C2075 1.382 . S
C2080 C2079 1.392 . S
C2081 C2082 1.376 . S
C2081 C2086 1.386 . S
C2081 C2087 1.483 . S
C2082 H2057 0.949 . S
C2082 C2081 1.376 . S
C2082 C2083 1.397 . S
C2083 H2058 0.950 . S
C2083 C2082 1.397 . S
C2083 C2084 1.391 . S
C2084 C2083 1.391 . S
C2084 C2085 1.405 . S
C2085 H2059 0.950 . S
C2085 C2084 1.405 . S
C2085 C2086 1.367 . S
C2086 H2060 0.950 . S
C2086 C2081 1.386 . S
C2086 C2085 1.367 . S
C2087 C2081 1.483 . S
C2087 C2088 1.382 . S
C2087 C2089 1.403 . S
C2088 H2061 0.950 . S
C2088 C2074 1.411 . S
C2088 C2087 1.382 . S
C2089 C2073 1.411 . S
C2089 C2087 1.403 . S
C2089 C2090 1.489 . S
C2090 C2089 1.489 . S
C2090 C2091 1.383 . S
C2090 C2095 1.382 . S
C2091 H2062 0.950 . S
C2091 C2090 1.383 . S
C2091 C2092 1.395 . S
C2092 H2063 0.950 . S
C2092 C2091 1.395 . S
C2092 C2093 1.288 . S
C2093 C2092 1.288 . S
C2093 C2094 1.392 . S
C2094 H2064 0.951 . S
C2094 C2093 1.392 . S
C2094 C2095 1.392 . S
C2095 H2065 0.949 . S
C2095 C2090 1.382 . S
C2095 C2094 1.392 . S
H2096 C2115 0.949 . S
H2097 C2116 0.950 . S
H2098 C2118 0.950 . S
H2099 C2119 0.950 . S
H2100 C2121 0.950 . S
H2101 C2124 0.950 . S
H2102 C2125 0.950 . S
H2103 C2127 0.951 . S
H2104 C2128 0.949 . S
H2105 C2130 0.949 . S
H2106 C2131 0.950 . S
H2107 C2133 0.950 . S
H2108 C2134 0.950 . S
H2109 C2136 0.950 . S
H2110 C2139 0.950 . S
H2111 C2140 0.950 . S
H2112 C2142 0.951 . S
H2113 C2143 0.949 . S
C2114 C2115 1.376 . S
C2114 C2119 1.386 . S
C2114 C2120 1.483 . S
C2115 H2096 0.949 . S
C2115 C2114 1.376 . S
C2115 C2116 1.397 . S
C2116 H2097 0.950 . S
C2116 C2115 1.397 . S
C2116 C2117 1.391 . S
C2117 C2116 1.391 . S
C2117 C2118 1.405 . S
C2118 H2098 0.950 . S
C2118 C2117 1.405 . S
C2118 C2119 1.367 . S
C2119 H2099 0.950 . S
C2119 C2114 1.386 . S
C2119 C2118 1.367 . S
C2120 C2114 1.483 . S
C2120 C2121 1.382 . S
C2120 C2122 1.403 . S
C2121 H2100 0.950 . S
C2121 C2120 1.382 . S
C2121 C2137 1.411 . S
C2122 C2120 1.403 . S
C2122 C2123 1.489 . S
C2122 C2136 1.411 . S
C2123 C2122 1.489 . S
C2123 C2124 1.383 . S
C2123 C2128 1.382 . S
C2124 H2101 0.950 . S
C2124 C2123 1.383 . S
C2124 C2125 1.395 . S
C2125 H2102 0.950 . S
C2125 C2124 1.395 . S
C2125 C2126 1.288 . S
C2126 C2125 1.288 . S
C2126 C2127 1.392 . S
C2127 H2103 0.951 . S
C2127 C2126 1.392 . S
C2127 C2128 1.392 . S
C2128 H2104 0.949 . S
C2128 C2123 1.382 . S
C2128 C2127 1.392 . S
C2129 C2130 1.376 . S
C2129 C2134 1.386 . S
C2129 C2135 1.483 . S
C2130 H2105 0.949 . S
C2130 C2129 1.376 . S
C2130 C2131 1.397 . S
C2131 H2106 0.950 . S
C2131 C2130 1.397 . S
C2131 C2132 1.391 . S
C2132 C2131 1.391 . S
C2132 C2133 1.405 . S
C2133 H2107 0.950 . S
C2133 C2132 1.405 . S
C2133 C2134 1.367 . S
C2134 H2108 0.950 . S
C2134 C2129 1.386 . S
C2134 C2133 1.367 . S
C2135 C2129 1.483 . S
C2135 C2136 1.382 . S
C2135 C2137 1.403 . S
C2136 H2109 0.950 . S
C2136 C2122 1.411 . S
C2136 C2135 1.382 . S
C2137 C2121 1.411 . S
C2137 C2135 1.403 . S
C2137 C2138 1.489 . S
C2138 C2137 1.489 . S
C2138 C2139 1.383 . S
C2138 C2143 1.382 . S
C2139 H2110 0.950 . S
C2139 C2138 1.383 . S
C2139 C2140 1.395 . S
C2140 H2111 0.950 . S
C2140 C2139 1.395 . S
C2140 C2141 1.288 . S
C2141 C2140 1.288 . S
C2141 C2142 1.392 . S
C2142 H2112 0.951 . S
C2142 C2141 1.392 . S
C2142 C2143 1.392 . S
C2143 H2113 0.949 . S
C2143 C2138 1.382 . S
C2143 C2142 1.392 . S
H2144 C2163 0.949 . S
H2145 C2164 0.950 . S
H2146 C2166 0.950 . S
H2147 C2167 0.950 . S
H2148 C2169 0.950 . S
H2149 C2172 0.950 . S
H2150 C2173 0.950 . S
H2151 C2175 0.951 . S
H2152 C2176 0.949 . S
H2153 C2178 0.949 . S
H2154 C2179 0.950 . S
H2155 C2181 0.950 . S
H2156 C2182 0.950 . S
H2157 C2184 0.950 . S
H2158 C2187 0.950 . S
H2159 C2188 0.950 . S
H2160 C2190 0.951 . S
H2161 C2191 0.949 . S
C2162 C2163 1.376 . S
C2162 C2167 1.386 . S
C2162 C2168 1.483 . S
C2163 H2144 0.949 . S
C2163 C2162 1.376 . S
C2163 C2164 1.397 . S
C2164 H2145 0.950 . S
C2164 C2163 1.397 . S
C2164 C2165 1.391 . S
C2165 C2164 1.391 . S
C2165 C2166 1.405 . S
C2166 H2146 0.950 . S
C2166 C2165 1.405 . S
C2166 C2167 1.367 . S
C2167 H2147 0.950 . S
C2167 C2162 1.386 . S
C2167 C2166 1.367 . S
C2168 C2162 1.483 . S
C2168 C2169 1.382 . S
C2168 C2170 1.403 . S
C2169 H2148 0.950 . S
C2169 C2168 1.382 . S
C2169 C2185 1.411 . S
C2170 C2168 1.403 . S
C2170 C2171 1.489 . S
C2170 C2184 1.411 . S
C2171 C2170 1.489 . S
C2171 C2172 1.383 . S
C2171 C2176 1.382 . S
C2172 H2149 0.950 . S
C2172 C2171 1.383 . S
C2172 C2173 1.395 . S
C2173 H2150 0.950 . S
C2173 C2172 1.395 . S
C2173 C2174 1.288 . S
C2174 C2173 1.288 . S
C2174 C2175 1.392 . S
C2175 H2151 0.951 . S
C2175 C2174 1.392 . S
C2175 C2176 1.392 . S
C2176 H2152 0.949 . S
C2176 C2171 1.382 . S
C2176 C2175 1.392 . S
C2177 C2178 1.376 . S
C2177 C2182 1.386 . S
C2177 C2183 1.483 . S
C2178 H2153 0.949 . S
C2178 C2177 1.376 . S
C2178 C2179 1.397 . S
C2179 H2154 0.950 . S
C2179 C2178 1.397 . S
C2179 C2180 1.391 . S
C2180 C2179 1.391 . S
C2180 C2181 1.405 . S
C2181 H2155 0.950 . S
C2181 C2180 1.405 . S
C2181 C2182 1.367 . S
C2182 H2156 0.950 . S
C2182 C2177 1.386 . S
C2182 C2181 1.367 . S
C2183 C2177 1.483 . S
C2183 C2184 1.382 . S
C2183 C2185 1.403 . S
C2184 H2157 0.950 . S
C2184 C2170 1.411 . S
C2184 C2183 1.382 . S
C2185 C2169 1.411 . S
C2185 C2183 1.403 . S
C2185 C2186 1.489 . S
C2186 C2185 1.489 . S
C2186 C2187 1.383 . S
C2186 C2191 1.382 . S
C2187 H2158 0.950 . S
C2187 C2186 1.383 . S
C2187 C2188 1.395 . S
C2188 H2159 0.950 . S
C2188 C2187 1.395 . S
C2188 C2189 1.288 . S
C2189 C2188 1.288 . S
C2189 C2190 1.392 . S
C2190 H2160 0.951 . S
C2190 C2189 1.392 . S
C2190 C2191 1.392 . S
C2191 H2161 0.949 . S
C2191 C2186 1.382 . S
C2191 C2190 1.392 . S
H2192 C2211 0.949 . S
H2193 C2212 0.950 . S
H2194 C2214 0.950 . S
H2195 C2215 0.950 . S
H2196 C2217 0.950 . S
H2197 C2220 0.950 . S
H2198 C2221 0.950 . S
H2199 C2223 0.951 . S
H2200 C2224 0.949 . S
H2201 C2226 0.949 . S
H2202 C2227 0.950 . S
H2203 C2229 0.950 . S
H2204 C2230 0.950 . S
H2205 C2232 0.950 . S
H2206 C2235 0.950 . S
H2207 C2236 0.950 . S
H2208 C2238 0.951 . S
H2209 C2239 0.949 . S
C2210 C2211 1.376 . S
C2210 C2215 1.386 . S
C2210 C2216 1.483 . S
C2211 H2192 0.949 . S
C2211 C2210 1.376 . S
C2211 C2212 1.397 . S
C2212 H2193 0.950 . S
C2212 C2211 1.397 . S
C2212 C2213 1.391 . S
C2213 C2212 1.391 . S
C2213 C2214 1.405 . S
C2214 H2194 0.950 . S
C2214 C2213 1.405 . S
C2214 C2215 1.367 . S
C2215 H2195 0.950 . S
C2215 C2210 1.386 . S
C2215 C2214 1.367 . S
C2216 C2210 1.483 . S
C2216 C2217 1.382 . S
C2216 C2218 1.403 . S
C2217 H2196 0.950 . S
C2217 C2216 1.382 . S
C2217 C2233 1.411 . S
C2218 C2216 1.403 . S
C2218 C2219 1.489 . S
C2218 C2232 1.411 . S
C2219 C2218 1.489 . S
C2219 C2220 1.383 . S
C2219 C2224 1.382 . S
C2220 H2197 0.950 . S
C2220 C2219 1.383 . S
C2220 C2221 1.395 . S
C2221 H2198 0.950 . S
C2221 C2220 1.395 . S
C2221 C2222 1.288 . S
C2222 C2221 1.288 . S
C2222 C2223 1.392 . S
C2223 H2199 0.951 . S
C2223 C2222 1.392 . S
C2223 C2224 1.392 . S
C2224 H2200 0.949 . S
C2224 C2219 1.382 . S
C2224 C2223 1.392 . S
C2225 C2226 1.376 . S
C2225 C2230 1.386 . S
C2225 C2231 1.483 . S
C2226 H2201 0.949 . S
C2226 C2225 1.376 . S
C2226 C2227 1.397 . S
C2227 H2202 0.950 . S
C2227 C2226 1.397 . S
C2227 C2228 1.391 . S
C2228 C2227 1.391 . S
C2228 C2229 1.405 . S
C2229 H2203 0.950 . S
C2229 C2228 1.405 . S
C2229 C2230 1.367 . S
C2230 H2204 0.950 . S
C2230 C2225 1.386 . S
C2230 C2229 1.367 . S
C2231 C2225 1.483 . S
C2231 C2232 1.382 . S
C2231 C2233 1.403 . S
C2232 H2205 0.950 . S
C2232 C2218 1.411 . S
C2232 C2231 1.382 . S
C2233 C2217 1.411 . S
C2233 C2231 1.403 . S
C2233 C2234 1.489 . S
C2234 C2233 1.489 . S
C2234 C2235 1.383 . S
C2234 C2239 1.382 . S
C2235 H2206 0.950 . S
C2235 C2234 1.383 . S
C2235 C2236 1.395 . S
C2236 H2207 0.950 . S
C2236 C2235 1.395 . S
C2236 C2237 1.288 . S
C2237 C2236 1.288 . S
C2237 C2238 1.392 . S
C2238 H2208 0.951 . S
C2238 C2237 1.392 . S
C2238 C2239 1.392 . S
C2239 H2209 0.949 . S
C2239 C2234 1.382 . S
C2239 C2238 1.392 . S
H2240 C2259 0.949 . S
H2241 C2260 0.950 . S
H2242 C2262 0.950 . S
H2243 C2263 0.950 . S
H2244 C2265 0.950 . S
H2245 C2268 0.950 . S
H2246 C2269 0.950 . S
H2247 C2271 0.951 . S
H2248 C2272 0.949 . S
H2249 C2274 0.949 . S
H2250 C2275 0.950 . S
H2251 C2277 0.950 . S
H2252 C2278 0.950 . S
H2253 C2280 0.950 . S
H2254 C2283 0.950 . S
H2255 C2284 0.950 . S
H2256 C2286 0.951 . S
H2257 C2287 0.949 . S
C2258 C2259 1.376 . S
C2258 C2263 1.386 . S
C2258 C2264 1.483 . S
C2259 H2240 0.949 . S
C2259 C2258 1.376 . S
C2259 C2260 1.397 . S
C2260 H2241 0.950 . S
C2260 C2259 1.397 . S
C2260 C2261 1.391 . S
C2261 C2260 1.391 . S
C2261 C2262 1.405 . S
C2262 H2242 0.950 . S
C2262 C2261 1.405 . S
C2262 C2263 1.367 . S
C2263 H2243 0.950 . S
C2263 C2258 1.386 . S
C2263 C2262 1.367 . S
C2264 C2258 1.483 . S
C2264 C2265 1.382 . S
C2264 C2266 1.403 . S
C2265 H2244 0.950 . S
C2265 C2264 1.382 . S
C2265 C2281 1.411 . S
C2266 C2264 1.403 . S
C2266 C2267 1.489 . S
C2266 C2280 1.411 . S
C2267 C2266 1.489 . S
C2267 C2268 1.383 . S
C2267 C2272 1.382 . S
C2268 H2245 0.950 . S
C2268 C2267 1.383 . S
C2268 C2269 1.395 . S
C2269 H2246 0.950 . S
C2269 C2268 1.395 . S
C2269 C2270 1.288 . S
C2270 C2269 1.288 . S
C2270 C2271 1.392 . S
C2271 H2247 0.951 . S
C2271 C2270 1.392 . S
C2271 C2272 1.392 . S
C2272 H2248 0.949 . S
C2272 C2267 1.382 . S
C2272 C2271 1.392 . S
C2273 C2274 1.376 . S
C2273 C2278 1.386 . S
C2273 C2279 1.483 . S
C2274 H2249 0.949 . S
C2274 C2273 1.376 . S
C2274 C2275 1.397 . S
C2275 H2250 0.950 . S
C2275 C2274 1.397 . S
C2275 C2276 1.391 . S
C2276 C2275 1.391 . S
C2276 C2277 1.405 . S
C2277 H2251 0.950 . S
C2277 C2276 1.405 . S
C2277 C2278 1.367 . S
C2278 H2252 0.950 . S
C2278 C2273 1.386 . S
C2278 C2277 1.367 . S
C2279 C2273 1.483 . S
C2279 C2280 1.382 . S
C2279 C2281 1.403 . S
C2280 H2253 0.950 . S
C2280 C2266 1.411 . S
C2280 C2279 1.382 . S
C2281 C2265 1.411 . S
C2281 C2279 1.403 . S
C2281 C2282 1.489 . S
C2282 C2281 1.489 . S
C2282 C2283 1.383 . S
C2282 C2287 1.382 . S
C2283 H2254 0.950 . S
C2283 C2282 1.383 . S
C2283 C2284 1.395 . S
C2284 H2255 0.950 . S
C2284 C2283 1.395 . S
C2284 C2285 1.288 . S
C2285 C2284 1.288 . S
C2285 C2286 1.392 . S
C2286 H2256 0.951 . S
C2286 C2285 1.392 . S
C2286 C2287 1.392 . S
C2287 H2257 0.949 . S
C2287 C2282 1.382 . S
C2287 C2286 1.392 . S
H2288 C2307 0.949 . S
H2289 C2308 0.950 . S
H2290 C2310 0.950 . S
H2291 C2311 0.950 . S
H2292 C2313 0.950 . S
H2293 C2316 0.950 . S
H2294 C2317 0.950 . S
H2295 C2319 0.951 . S
H2296 C2320 0.949 . S
H2297 C2322 0.949 . S
H2298 C2323 0.950 . S
H2299 C2325 0.950 . S
H2300 C2326 0.950 . S
H2301 C2328 0.950 . S
H2302 C2331 0.950 . S
H2303 C2332 0.950 . S
H2304 C2334 0.951 . S
H2305 C2335 0.949 . S
C2306 C2307 1.376 . S
C2306 C2311 1.386 . S
C2306 C2312 1.483 . S
C2307 H2288 0.949 . S
C2307 C2306 1.376 . S
C2307 C2308 1.397 . S
C2308 H2289 0.950 . S
C2308 C2307 1.397 . S
C2308 C2309 1.391 . S
C2309 C2308 1.391 . S
C2309 C2310 1.405 . S
C2310 H2290 0.950 . S
C2310 C2309 1.405 . S
C2310 C2311 1.367 . S
C2311 H2291 0.950 . S
C2311 C2306 1.386 . S
C2311 C2310 1.367 . S
C2312 C2306 1.483 . S
C2312 C2313 1.382 . S
C2312 C2314 1.403 . S
C2313 H2292 0.950 . S
C2313 C2312 1.382 . S
C2313 C2329 1.411 . S
C2314 C2312 1.403 . S
C2314 C2315 1.489 . S
C2314 C2328 1.411 . S
C2315 C2314 1.489 . S
C2315 C2316 1.383 . S
C2315 C2320 1.382 . S
C2316 H2293 0.950 . S
C2316 C2315 1.383 . S
C2316 C2317 1.395 . S
C2317 H2294 0.950 . S
C2317 C2316 1.395 . S
C2317 C2318 1.288 . S
C2318 C2317 1.288 . S
C2318 C2319 1.392 . S
C2319 H2295 0.951 . S
C2319 C2318 1.392 . S
C2319 C2320 1.392 . S
C2320 H2296 0.949 . S
C2320 C2315 1.382 . S
C2320 C2319 1.392 . S
C2321 C2322 1.376 . S
C2321 C2326 1.386 . S
C2321 C2327 1.483 . S
C2322 H2297 0.949 . S
C2322 C2321 1.376 . S
C2322 C2323 1.397 . S
C2323 H2298 0.950 . S
C2323 C2322 1.397 . S
C2323 C2324 1.391 . S
C2324 C2323 1.391 . S
C2324 C2325 1.405 . S
C2325 H2299 0.950 . S
C2325 C2324 1.405 . S
C2325 C2326 1.367 . S
C2326 H2300 0.950 . S
C2326 C2321 1.386 . S
C2326 C2325 1.367 . S
C2327 C2321 1.483 . S
C2327 C2328 1.382 . S
C2327 C2329 1.403 . S
C2328 H2301 0.950 . S
C2328 C2314 1.411 . S
C2328 C2327 1.382 . S
C2329 C2313 1.411 . S
C2329 C2327 1.403 . S
C2329 C2330 1.489 . S
C2330 C2329 1.489 . S
C2330 C2331 1.383 . S
C2330 C2335 1.382 . S
C2331 H2302 0.950 . S
C2331 C2330 1.383 . S
C2331 C2332 1.395 . S
C2332 H2303 0.950 . S
C2332 C2331 1.395 . S
C2332 C2333 1.288 . S
C2333 C2332 1.288 . S
C2333 C2334 1.392 . S
C2334 H2304 0.951 . S
C2334 C2333 1.392 . S
C2334 C2335 1.392 . S
C2335 H2305 0.949 . S
C2335 C2330 1.382 . S
C2335 C2334 1.392 . S
H2336 C2355 0.949 . S
H2337 C2356 0.950 . S
H2338 C2358 0.950 . S
H2339 C2359 0.950 . S
H2340 C2361 0.950 . S
H2341 C2364 0.950 . S
H2342 C2365 0.950 . S
H2343 C2367 0.951 . S
H2344 C2368 0.949 . S
H2345 C2370 0.949 . S
H2346 C2371 0.950 . S
H2347 C2373 0.950 . S
H2348 C2374 0.950 . S
H2349 C2376 0.950 . S
H2350 C2379 0.950 . S
H2351 C2380 0.950 . S
H2352 C2382 0.951 . S
H2353 C2383 0.949 . S
C2354 C2355 1.376 . S
C2354 C2359 1.386 . S
C2354 C2360 1.483 . S
C2355 H2336 0.949 . S
C2355 C2354 1.376 . S
C2355 C2356 1.397 . S
C2356 H2337 0.950 . S
C2356 C2355 1.397 . S
C2356 C2357 1.391 . S
C2357 C2356 1.391 . S
C2357 C2358 1.405 . S
C2358 H2338 0.950 . S
C2358 C2357 1.405 . S
C2358 C2359 1.367 . S
C2359 H2339 0.950 . S
C2359 C2354 1.386 . S
C2359 C2358 1.367 . S
C2360 C2354 1.483 . S
C2360 C2361 1.382 . S
C2360 C2362 1.403 . S
C2361 H2340 0.950 . S
C2361 C2360 1.382 . S
C2361 C2377 1.411 . S
C2362 C2360 1.403 . S
C2362 C2363 1.489 . S
C2362 C2376 1.411 . S
C2363 C2362 1.489 . S
C2363 C2364 1.383 . S
C2363 C2368 1.382 . S
C2364 H2341 0.950 . S
C2364 C2363 1.383 . S
C2364 C2365 1.395 . S
C2365 H2342 0.950 . S
C2365 C2364 1.395 . S
C2365 C2366 1.288 . S
C2366 C2365 1.288 . S
C2366 C2367 1.392 . S
C2367 H2343 0.951 . S
C2367 C2366 1.392 . S
C2367 C2368 1.392 . S
C2368 H2344 0.949 . S
C2368 C2363 1.382 . S
C2368 C2367 1.392 . S
C2369 C2370 1.376 . S
C2369 C2374 1.386 . S
C2369 C2375 1.483 . S
C2370 H2345 0.949 . S
C2370 C2369 1.376 . S
C2370 C2371 1.397 . S
C2371 H2346 0.950 . S
C2371 C2370 1.397 . S
C2371 C2372 1.391 . S
C2372 C2371 1.391 . S
C2372 C2373 1.405 . S
C2373 H2347 0.950 . S
C2373 C2372 1.405 . S
C2373 C2374 1.367 . S
C2374 H2348 0.950 . S
C2374 C2369 1.386 . S
C2374 C2373 1.367 . S
C2375 C2369 1.483 . S
C2375 C2376 1.382 . S
C2375 C2377 1.403 . S
C2376 H2349 0.950 . S
C2376 C2362 1.411 . S
C2376 C2375 1.382 . S
C2377 C2361 1.411 . S
C2377 C2375 1.403 . S
C2377 C2378 1.489 . S
C2378 C2377 1.489 . S
C2378 C2379 1.383 . S
C2378 C2383 1.382 . S
C2379 H2350 0.950 . S
C2379 C2378 1.383 . S
C2379 C2380 1.395 . S
C2380 H2351 0.950 . S
C2380 C2379 1.395 . S
C2380 C2381 1.288 . S
C2381 C2380 1.288 . S
C2381 C2382 1.392 . S
C2382 H2352 0.951 . S
C2382 C2381 1.392 . S
C2382 C2383 1.392 . S
C2383 H2353 0.949 . S
C2383 C2378 1.382 . S
C2383 C2382 1.392 . S
H2384 C2403 0.949 . S
H2385 C2404 0.950 . S
H2386 C2406 0.950 . S
H2387 C2407 0.950 . S
H2388 C2409 0.950 . S
H2389 C2412 0.950 . S
H2390 C2413 0.950 . S
H2391 C2415 0.951 . S
H2392 C2416 0.949 . S
H2393 C2418 0.949 . S
H2394 C2419 0.950 . S
H2395 C2421 0.950 . S
H2396 C2422 0.950 . S
H2397 C2424 0.950 . S
H2398 C2427 0.950 . S
H2399 C2428 0.950 . S
H2400 C2430 0.951 . S
H2401 C2431 0.949 . S
C2402 C2403 1.376 . S
C2402 C2407 1.386 . S
C2402 C2408 1.483 . S
C2403 H2384 0.949 . S
C2403 C2402 1.376 . S
C2403 C2404 1.397 . S
C2404 H2385 0.950 . S
C2404 C2403 1.397 . S
C2404 C2405 1.391 . S
C2405 C2404 1.391 . S
C2405 C2406 1.405 . S
C2406 H2386 0.950 . S
C2406 C2405 1.405 . S
C2406 C2407 1.367 . S
C2407 H2387 0.950 . S
C2407 C2402 1.386 . S
C2407 C2406 1.367 . S
C2408 C2402 1.483 . S
C2408 C2409 1.382 . S
C2408 C2410 1.403 . S
C2409 H2388 0.950 . S
C2409 C2408 1.382 . S
C2409 C2425 1.411 . S
C2410 C2408 1.403 . S
C2410 C2411 1.489 . S
C2410 C2424 1.411 . S
C2411 C2410 1.489 . S
C2411 C2412 1.383 . S
C2411 C2416 1.382 . S
C2412 H2389 0.950 . S
C2412 C2411 1.383 . S
C2412 C2413 1.395 . S
C2413 H2390 0.950 . S
C2413 C2412 1.395 . S
C2413 C2414 1.288 . S
C2414 C2413 1.288 . S
C2414 C2415 1.392 . S
C2415 H2391 0.951 . S
C2415 C2414 1.392 . S
C2415 C2416 1.392 . S
C2416 H2392 0.949 . S
C2416 C2411 1.382 . S
C2416 C2415 1.392 . S
C2417 C2418 1.376 . S
C2417 C2422 1.386 . S
C2417 C2423 1.483 . S
C2418 H2393 0.949 . S
C2418 C2417 1.376 . S
C2418 C2419 1.397 . S
C2419 H2394 0.950 . S
C2419 C2418 1.397 . S
C2419 C2420 1.391 . S
C2420 C2419 1.391 . S
C2420 C2421 1.405 . S
C2421 H2395 0.950 . S
C2421 C2420 1.405 . S
C2421 C2422 1.367 . S
C2422 H2396 0.950 . S
C2422 C2417 1.386 . S
C2422 C2421 1.367 . S
C2423 C2417 1.483 . S
C2423 C2424 1.382 . S
C2423 C2425 1.403 . S
C2424 H2397 0.950 . S
C2424 C2410 1.411 . S
C2424 C2423 1.382 . S
C2425 C2409 1.411 . S
C2425 C2423 1.403 . S
C2425 C2426 1.489 . S
C2426 C2425 1.489 . S
C2426 C2427 1.383 . S
C2426 C2431 1.382 . S
C2427 H2398 0.950 . S
C2427 C2426 1.383 . S
C2427 C2428 1.395 . S
C2428 H2399 0.950 . S
C2428 C2427 1.395 . S
C2428 C2429 1.288 . S
C2429 C2428 1.288 . S
C2429 C2430 1.392 . S
C2430 H2400 0.951 . S
C2430 C2429 1.392 . S
C2430 C2431 1.392 . S
C2431 H2401 0.949 . S
C2431 C2426 1.382 . S
C2431 C2430 1.392 . S
C1325 C21 1.540 . S
C1373 C42 1.457 . S
C82 C1397 1.514 . S
C1460 C135 1.505 . S
C175 C1454 1.449 . S
C221 C1301 1.545 . S
C255 C1349 1.486 . S
C1421 C301 1.586 . S
C1493 C15 1.527 . S
C55 C1541 1.437 . S
C101 C1604 1.561 . S
C1661 C141 1.533 . S
C162 C1685 1.414 . S
C1742 C215 1.533 . S
C261 C1790 1.537 . S
C1844 C282 1.528 . S
C2 C1637 1.520 . S
C181 C1748 1.395 . S
C1796 C202 1.546 . S
C242 C1838 1.533 . S
C1709 C295 1.515 . S
C1565 C95 1.530 . S
C122 C1598 1.522 . S
C1517 C61 1.506 . S
C1892 C341 1.546 . S
C362 C1949 1.457 . S
C402 C1973 1.517 . S
C2036 C455 1.506 . S
C495 C2030 1.448 . S
C541 C1886 1.526 . S
C575 C1925 1.487 . S
C621 C1997 1.586 . S
C1694 C335 1.527 . S
C375 C2078 1.453 . S
C1781 C421 1.558 . S
C461 C2132 1.520 . S
C482 C1502 1.404 . S
C2174 C535 1.531 . S
C581 C1613 1.523 . S
C2228 C602 1.530 . S
C322 C2126 1.517 . S
C2180 C501 1.394 . S
C522 C1589 1.537 . S
C2222 C562 1.533 . S
C615 C1508 1.522 . S
C415 C2084 1.530 . S
C442 C1805 1.518 . S
C381 C1700 1.480 . S
C661 C1982 1.543 . S
C2045 C682 1.458 . S
C722 C1901 1.516 . S
C775 C1940 1.505 . S
C815 C1934 1.448 . S
C861 C1988 1.556 . S
C2021 C895 1.487 . S
C941 C1877 1.595 . S
C2261 C655 1.524 . S
C695 C1733 1.437 . S
C2324 C741 1.561 . S
C781 C1853 1.533 . S
C802 C2366 1.406 . S
C855 C1550 1.533 . S
C2429 C901 1.524 . S
C922 C1652 1.530 . S
C1829 C642 1.519 . S
C1556 C821 1.394 . S
C842 C2405 1.539 . S
C882 C1646 1.534 . S
C2372 C935 1.522 . S
C1757 C735 1.529 . S
C2318 C762 1.522 . S
C2285 C701 1.506 . S
C981 C1406 1.544 . S
C1002 C1469 1.458 . S
C1316 C1042 1.519 . S
C1364 C1095 1.504 . S
C1358 C1135 1.447 . S
C1412 C1181 1.555 . S
C1445 C1215 1.488 . S
C1261 C1310 1.609 . S
C975 C2357 1.527 . S
C2165 C1015 1.438 . S
C2420 C1061 1.562 . S
C2237 C1101 1.532 . S
C1122 C2270 1.404 . S
C2069 C1175 1.528 . S
C2333 C1221 1.525 . S
C1242 C2141 1.537 . S
C2213 C962 1.521 . S
C2093 C1141 1.402 . S
C2309 C1162 1.540 . S
C1202 C2117 1.520 . S
C1255 C2276 1.519 . S
C1055 C2189 1.529 . S
C1082 C2414 1.522 . S
C2381 C1021 1.507 . S
