# Generated by pormake.
# Topology dag, (6,3)-cn, num edge types: 1
# Building blocks:
#     Node 0, Type 0, BuildingBlock: OJICUG_clean_sbu_0, # of connection points: 6
#     Node 1, Type 0, BuildingBlock: OJICUG_clean_sbu_0, # of connection points: 6
#     Node 2, Type 0, BuildingBlock: OJICUG_clean_sbu_0, # of connection points: 6
#     Node 3, Type 0, BuildingBlock: OJICUG_clean_sbu_0, # of connection points: 6
#     Node 4, Type 1, BuildingBlock: ESEHIV_clean_linker_0, # of connection points: 3
#     Node 5, Type 1, BuildingBlock: ESEHIV_clean_linker_0, # of connection points: 3
#     Node 6, Type 1, BuildingBlock: ESEHIV_clean_linker_0, # of connection points: 3
#     Node 7, Type 1, BuildingBlock: ESEHIV_clean_linker_0, # of connection points: 3
#     Node 8, Type 1, BuildingBlock: ESEHIV_clean_linker_0, # of connection points: 3
#     Node 9, Type 1, BuildingBlock: ESEHIV_clean_linker_0, # of connection points: 3
#     Node 10, Type 1, BuildingBlock: ESEHIV_clean_linker_0, # of connection points: 3
#     Node 11, Type 1, BuildingBlock: ESEHIV_clean_linker_0, # of connection points: 3
#     Edge 12, Type (0, 1), BuildingBlock: XUDNAN_clean_linker_2, # of connection points: 2
#     Edge 13, Type (0, 1), BuildingBlock: XUDNAN_clean_linker_2, # of connection points: 2
#     Edge 14, Type (0, 1), BuildingBlock: XUDNAN_clean_linker_2, # of connection points: 2
#     Edge 15, Type (0, 1), BuildingBlock: XUDNAN_clean_linker_2, # of connection points: 2
#     Edge 16, Type (0, 1), BuildingBlock: XUDNAN_clean_linker_2, # of connection points: 2
#     Edge 17, Type (0, 1), BuildingBlock: XUDNAN_clean_linker_2, # of connection points: 2
#     Edge 18, Type (0, 1), BuildingBlock: XUDNAN_clean_linker_2, # of connection points: 2
#     Edge 19, Type (0, 1), BuildingBlock: XUDNAN_clean_linker_2, # of connection points: 2
#     Edge 20, Type (0, 1), BuildingBlock: XUDNAN_clean_linker_2, # of connection points: 2
#     Edge 21, Type (0, 1), BuildingBlock: XUDNAN_clean_linker_2, # of connection points: 2
#     Edge 22, Type (0, 1), BuildingBlock: XUDNAN_clean_linker_2, # of connection points: 2
#     Edge 23, Type (0, 1), BuildingBlock: XUDNAN_clean_linker_2, # of connection points: 2
#     Edge 24, Type (0, 1), BuildingBlock: XUDNAN_clean_linker_2, # of connection points: 2
#     Edge 25, Type (0, 1), BuildingBlock: XUDNAN_clean_linker_2, # of connection points: 2
#     Edge 26, Type (0, 1), BuildingBlock: XUDNAN_clean_linker_2, # of connection points: 2
#     Edge 27, Type (0, 1), BuildingBlock: XUDNAN_clean_linker_2, # of connection points: 2
#     Edge 28, Type (0, 1), BuildingBlock: XUDNAN_clean_linker_2, # of connection points: 2
#     Edge 29, Type (0, 1), BuildingBlock: XUDNAN_clean_linker_2, # of connection points: 2
#     Edge 30, Type (0, 1), BuildingBlock: XUDNAN_clean_linker_2, # of connection points: 2
#     Edge 31, Type (0, 1), BuildingBlock: XUDNAN_clean_linker_2, # of connection points: 2
#     Edge 32, Type (0, 1), BuildingBlock: XUDNAN_clean_linker_2, # of connection points: 2
#     Edge 33, Type (0, 1), BuildingBlock: XUDNAN_clean_linker_2, # of connection points: 2
#     Edge 34, Type (0, 1), BuildingBlock: XUDNAN_clean_linker_2, # of connection points: 2
#     Edge 35, Type (0, 1), BuildingBlock: XUDNAN_clean_linker_2, # of connection points: 2
# Relax obj value: 0.253
# Max RMSD: 0.198
# Mean RMSD: 0.163
data_MOF--net-dag--node1-OJICUG_clean_sbu_0--node2-ESEHIV_clean_linker_0--edge1-XUDNAN_clean_linker_2
_symmetry_space_group_name_H-M    P1
_symmetry_Int_Tables_number       1
_symmetry_cell_setting            triclinic
loop_
_symmetry_equiv_pos_as_xyz
'x, y, z'
_cell_length_a     34.02505
_cell_length_b     35.690306
_cell_length_c     34.98771
_cell_angle_alpha  95.518729
_cell_angle_beta   90.213586
_cell_angle_gamma 90.006727
loop_
_atom_site_label
_atom_site_type_symbol
_atom_site_fract_x
_atom_site_fract_y
_atom_site_fract_z
_atom_type_partial_charge
Sc0 Sc 0.13265 0.85957 0.04434 0.0
Sc1 Sc 0.16562 0.76537 0.03207 0.0
Sc2 Sc 0.22122 0.8357 0.08692 0.0
O3 O 0.17322 0.82012 0.05429 0.0
C4 C 0.21306 0.90438 0.03687 0.0
C5 C 0.13694 0.81099 0.96275 0.0
C6 C 0.25798 0.77636 0.02285 0.0
C7 C 0.07812 0.789 0.05587 0.0
C8 C 0.1541 0.8846 0.13155 0.0
C9 C 0.19568 0.75817 0.1176 0.0
O10 O 0.17639 0.89991 0.03139 0.0
O11 O 0.15037 0.78087 0.97485 0.0
O12 O 0.26041 0.80401 0.04838 0.0
O13 O 0.08395 0.82408 0.05551 0.0
O14 O 0.18807 0.86976 0.12995 0.0
O15 O 0.17868 0.74459 0.08686 0.0
O16 O 0.13066 0.8825 0.10312 0.0
O17 O 0.10459 0.76433 0.04844 0.0
O18 O 0.21258 0.79004 0.12102 0.0
O19 O 0.13024 0.84059 0.98488 0.0
O20 O 0.234 0.88312 0.05564 0.0
O21 O 0.22598 0.75934 0.01376 0.0
Sc22 Sc 0.71966 0.65074 0.45284 0.0
Sc23 Sc 0.66416 0.72938 0.49075 0.0
Sc24 Sc 0.63251 0.63671 0.50271 0.0
O25 O 0.67206 0.67234 0.48226 0.0
C26 C 0.65182 0.59529 0.41985 0.0
C27 C 0.69375 0.71775 0.40443 0.0
C28 C 0.57658 0.7002 0.47394 0.0
C29 C 0.75635 0.72009 0.50539 0.0
C30 C 0.71311 0.5952 0.51785 0.0
C31 C 0.63789 0.70219 0.57108 0.0
O32 O 0.68486 0.61131 0.41691 0.0
O33 O 0.67575 0.73709 0.43126 0.0
O34 O 0.58296 0.66724 0.48337 0.0
O35 O 0.75876 0.68795 0.48648 0.0
O36 O 0.6773 0.60238 0.5254 0.0
O37 O 0.64991 0.72777 0.551 0.0
O38 O 0.73218 0.60978 0.49204 0.0
O39 O 0.72473 0.73922 0.50818 0.0
O40 O 0.63061 0.66866 0.55749 0.0
O41 O 0.71203 0.68763 0.40914 0.0
O42 O 0.63004 0.60103 0.44932 0.0
O43 O 0.60288 0.72555 0.47448 0.0
Sc44 Sc 0.83482 0.22523 0.01354 0.0
Sc45 Sc 0.77797 0.15452 0.96086 0.0
Sc46 Sc 0.86773 0.13103 0.00181 0.0
O47 O 0.82684 0.17034 0.99216 0.0
C48 C 0.92174 0.20117 0.98771 0.0
C49 C 0.8018 0.23199 0.92903 0.0
C50 C 0.84371 0.10478 0.91517 0.0
C51 C 0.743 0.21382 0.02595 0.0
C52 C 0.8661 0.1811 0.08264 0.0
C53 C 0.78764 0.08674 0.01203 0.0
O54 O 0.8955 0.22594 0.99583 0.0
O55 O 0.7848 0.20018 0.92631 0.0
O56 O 0.8675 0.10665 0.94334 0.0
O57 O 0.77508 0.23127 0.03344 0.0
O58 O 0.87279 0.15121 0.06094 0.0
O59 O 0.76652 0.10714 0.99249 0.0
O60 O 0.85141 0.2106 0.07048 0.0
O61 O 0.73983 0.18594 0.00076 0.0
O62 O 0.8243 0.09153 0.0173 0.0
O63 O 0.82018 0.24544 0.959 0.0
O64 O 0.91593 0.16608 0.98822 0.0
O65 O 0.81015 0.12048 0.91703 0.0
Sc66 Sc 0.37006 0.3577 0.54595 0.0
Sc67 Sc 0.28286 0.3324 0.58918 0.0
Sc68 Sc 0.34552 0.26167 0.5443 0.0
O69 O 0.33289 0.31716 0.55997 0.0
C70 C 0.3662 0.30142 0.46934 0.0
C71 C 0.28749 0.39675 0.53306 0.0
C72 C 0.25266 0.26603 0.52943 0.0
C73 C 0.34594 0.38856 0.63115 0.0
C74 C 0.43102 0.29443 0.56552 0.0
C75 C 0.31267 0.26013 0.62875 0.0
O76 O 0.37229 0.33342 0.48759 0.0
O77 O 0.26787 0.37744 0.55487 0.0
O78 O 0.28543 0.24882 0.52627 0.0
O79 O 0.36986 0.38611 0.60314 0.0
O80 O 0.40733 0.26689 0.55974 0.0
O81 O 0.29136 0.28917 0.62697 0.0
O82 O 0.42095 0.32805 0.56178 0.0
O83 O 0.31338 0.37093 0.63033 0.0
O84 O 0.33513 0.24698 0.60175 0.0
O85 O 0.32409 0.39248 0.5279 0.0
O86 O 0.35723 0.27207 0.4854 0.0
O87 O 0.24779 0.29673 0.55027 0.0
H88 H 0.99104 0.06627 0.29289 0.0
H89 H 0.09696 0.08974 0.35748 0.0
H90 H 0.00824 0.17543 0.35187 0.0
C91 C 0.00867 0.08514 0.31213 0.0
C92 C 0.99711 0.12283 0.31893 0.0
C93 C 0.04561 0.07337 0.32412 0.0
C94 C 0.06769 0.09803 0.3495 0.0
C95 C 0.05384 0.13458 0.3615 0.0
C96 C 0.01831 0.14677 0.34561 0.0
H97 H 0.48519 0.6052 0.74949 0.0
H98 H 0.40829 0.61197 0.84671 0.0
H99 H 0.50007 0.6944 0.83881 0.0
C100 C 0.47675 0.6181 0.77757 0.0
C101 C 0.49612 0.6509 0.79256 0.0
C102 C 0.44568 0.60308 0.79754 0.0
C103 C 0.43327 0.62262 0.83226 0.0
C104 C 0.45156 0.65645 0.84727 0.0
C105 C 0.48451 0.66914 0.82787 0.0
H106 H 0.81265 0.84914 0.09224 0.0
H107 H 0.78449 0.75467 0.15468 0.0
H108 H 0.70293 0.84607 0.1519 0.0
C109 C 0.79192 0.83379 0.10821 0.0
C110 C 0.7555 0.85049 0.11812 0.0
C111 C 0.80284 0.79894 0.12063 0.0
C112 C 0.7767 0.78127 0.14418 0.0
C113 C 0.74135 0.79881 0.1563 0.0
C114 C 0.73054 0.83302 0.14277 0.0
H115 H 0.7108 0.35819 0.58997 0.0
H116 H 0.71599 0.28423 0.6792 0.0
H117 H 0.80854 0.36484 0.66832 0.0
C118 C 0.72702 0.34713 0.61313 0.0
C119 C 0.76183 0.36491 0.62678 0.0
C120 C 0.71069 0.31758 0.63154 0.0
C121 C 0.73013 0.30508 0.66334 0.0
C122 C 0.76523 0.32241 0.67723 0.0
C123 C 0.7816 0.35125 0.65778 0.0
H124 H 0.48674 0.39778 0.27638 0.0
H125 H 0.59106 0.37619 0.20942 0.0
H126 H 0.49563 0.29611 0.20149 0.0
C127 C 0.50306 0.38041 0.25481 0.0
C128 C 0.48764 0.34546 0.24049 0.0
C129 C 0.54035 0.39186 0.24359 0.0
C130 C 0.56138 0.36841 0.21636 0.0
C131 C 0.54551 0.33397 0.20009 0.0
C132 C 0.50841 0.32273 0.21265 0.0
H133 H 0.18859 0.14367 0.95716 0.0
H134 H 0.21503 0.23478 0.88979 0.0
H135 H 0.29393 0.14101 0.89043 0.0
C136 C 0.20875 0.1579 0.9396 0.0
C137 C 0.24435 0.14009 0.92848 0.0
C138 C 0.19755 0.19211 0.92592 0.0
C139 C 0.22265 0.20812 0.90021 0.0
C140 C 0.25612 0.18874 0.88543 0.0
C141 C 0.26777 0.15568 0.90108 0.0
H142 H 0.30805 0.6336 0.44476 0.0
H143 H 0.28464 0.71208 0.36145 0.0
H144 H 0.20152 0.62473 0.37964 0.0
C145 C 0.28863 0.64555 0.42457 0.0
C146 C 0.25272 0.62748 0.41576 0.0
C147 C 0.3006 0.67665 0.40567 0.0
C148 C 0.27562 0.68895 0.37721 0.0
C149 C 0.24035 0.66978 0.36683 0.0
C150 C 0.22837 0.63999 0.38745 0.0
H151 H 0.00516 0.92466 0.75054 0.0
H152 H 0.99077 0.81323 0.69528 0.0
H153 H 0.89842 0.89517 0.69007 0.0
C154 C 0.98752 0.90395 0.73353 0.0
C155 C 0.94956 0.91383 0.72261 0.0
C156 C 0.00054 0.86653 0.72786 0.0
C157 C 0.97969 0.84145 0.70172 0.0
C158 C 0.94375 0.85231 0.68546 0.0
C159 C 0.92813 0.8881 0.69785 0.0
H160 H 0.09801 0.93887 0.13821 0.0
H161 H 0.18235 0.88137 0.20527 0.0
H162 H 0.16133 0.92074 0.26398 0.0
H163 H 0.11423 0.02946 0.18499 0.0
H164 H 0.06361 0.04368 0.18141 0.0
H165 H 0.08375 0.00901 0.14618 0.0
H166 H 0.02829 0.96249 0.16063 0.0
H167 H 0.00826 -0.00291 0.19614 0.0
H168 H 0.02114 0.951 0.20919 0.0
H169 H 0.13088 0.96892 0.31541 0.0
H170 H 0.09701 0.0221 0.35263 0.0
H171 H 0.03731 0.04797 0.24842 0.0
C172 C 0.11179 0.93406 0.16527 0.0
C173 C 0.14157 0.90686 0.16725 0.0
C174 C 0.1594 0.90211 0.20315 0.0
C175 C 0.14754 0.9242 0.23662 0.0
C176 C 0.1181 0.95099 0.2335 0.0
C177 C 0.10075 0.95601 0.19854 0.0
C178 C 0.07158 0.98794 0.20182 0.0
C179 C 0.08407 0.01937 0.17716 0.0
C180 C 0.02985 0.97376 0.19134 0.0
C181 C 0.07518 0.00034 0.24411 0.0
C182 C 0.10171 0.97869 0.26225 0.0
C183 C 0.10994 0.98593 0.30141 0.0
C184 C 0.09069 0.01627 0.32229 0.0
C185 C 0.06381 0.03905 0.30383 0.0
C186 C 0.05635 0.03062 0.26416 0.0
H187 H 0.56497 0.71617 0.59608 0.0
H188 H 0.68472 0.70435 0.63475 0.0
H189 H 0.66105 0.70052 0.70126 0.0
H190 H 0.52351 0.76651 0.6889 0.0
H191 H 0.47842 0.74016 0.68207 0.0
H192 H 0.50549 0.75293 0.64105 0.0
H193 H 0.50712 0.68282 0.61404 0.0
H194 H 0.48103 0.6696 0.65513 0.0
H195 H 0.52798 0.64847 0.64283 0.0
H196 H 0.62325 0.68546 0.76001 0.0
H197 H 0.5752 0.66115 0.80497 0.0
H198 H 0.48075 0.67979 0.72581 0.0
C199 C 0.58618 0.71502 0.61913 0.0
C200 C 0.62655 0.7119 0.61106 0.0
C201 C 0.65375 0.70817 0.64104 0.0
C202 C 0.64049 0.70579 0.67873 0.0
C203 C 0.60005 0.70716 0.68558 0.0
C204 C 0.57333 0.7122 0.65655 0.0
C205 C 0.53152 0.70673 0.66935 0.0
C206 C 0.50838 0.7438 0.67042 0.0
C207 C 0.51075 0.67502 0.64383 0.0
C208 C 0.53884 0.69568 0.70933 0.0
C209 C 0.57838 0.697 0.71873 0.0
C210 C 0.59219 0.68511 0.75324 0.0
C211 C 0.56489 0.67125 0.77849 0.0
C212 C 0.52465 0.66877 0.76849 0.0
C213 C 0.51151 0.68171 0.73393 0.0
H214 H 0.79417 0.01328 0.98711 0.0
H215 H 0.74143 0.09039 0.07534 0.0
H216 H 0.71787 0.03637 0.1087 0.0
H217 H 0.71661 0.93781 0.9878 0.0
H218 H 0.75284 0.90111 0.97951 0.0
H219 H 0.75988 0.94559 0.96004 0.0
H220 H 0.82769 0.95283 0.994 0.0
H221 H 0.82081 0.90867 0.01373 0.0
H222 H 0.83063 0.95064 0.04521 0.0
H223 H 0.71112 0.97487 0.13748 0.0
H224 H 0.71896 0.91107 0.15803 0.0
H225 H 0.77065 0.87378 0.04761 0.0
C226 C 0.77663 0.0185 0.01286 0.0
C227 C 0.76914 0.05541 0.02885 0.0
C228 C 0.74686 0.06192 0.06279 0.0
C229 C 0.73338 0.03153 0.08174 0.0
C230 C 0.74191 0.99514 0.06569 0.0
C231 C 0.76245 0.98855 0.03162 0.0
C232 C 0.77057 0.94715 0.02191 0.0
C233 C 0.74865 0.93203 0.98513 0.0
C234 C 0.81505 0.9394 0.01855 0.0
C235 C 0.75335 0.93164 0.05685 0.0
C236 C 0.7366 0.95958 0.08164 0.0
C237 C 0.72305 0.95252 0.11782 0.0
C238 C 0.72751 0.91611 0.12919 0.0
C239 C 0.74535 0.88734 0.10439 0.0
C240 C 0.75705 0.89515 0.06732 0.0
H241 H 0.48601 0.34807 0.58576 0.0
H242 H 0.47007 0.22681 0.57049 0.0
H243 H 0.54037 0.21845 0.58693 0.0
H244 H 0.57967 0.35049 0.54377 0.0
H245 H 0.59702 0.38879 0.57687 0.0
H246 H 0.54545 0.38458 0.56568 0.0
H247 H 0.52925 0.38457 0.63808 0.0
H248 H 0.58076 0.38905 0.64956 0.0
H249 H 0.55274 0.35076 0.66572 0.0
H250 H 0.61421 0.22465 0.60425 0.0
H251 H 0.68285 0.24476 0.61998 0.0
H252 H 0.64698 0.3615 0.62239 0.0
C253 C 0.49695 0.31959 0.58589 0.0
C254 C 0.4724 0.28807 0.57669 0.0
C255 C 0.48827 0.25142 0.57748 0.0
C256 C 0.52815 0.24642 0.58675 0.0
C257 C 0.55153 0.27835 0.59523 0.0
C258 C 0.53624 0.31417 0.59493 0.0
C259 C 0.56698 0.34415 0.60429 0.0
C260 C 0.5726 0.36841 0.57064 0.0
C261 C 0.55682 0.36855 0.64163 0.0
C262 C 0.60235 0.31974 0.6095 0.0
C263 C 0.59314 0.28184 0.60448 0.0
C264 C 0.62164 0.25425 0.60815 0.0
C265 C 0.66044 0.26586 0.61707 0.0
C266 C 0.67021 0.30461 0.6217 0.0
C267 C 0.64059 0.33165 0.61811 0.0
H268 H 0.59876 0.53781 0.4217 0.0
H269 H 0.67417 0.59327 0.34465 0.0
H270 H 0.65152 0.54914 0.29031 0.0
H271 H 0.61661 0.44471 0.3794 0.0
H272 H 0.5672 0.42859 0.38648 0.0
H273 H 0.5876 0.46601 0.41868 0.0
H274 H 0.52885 0.50888 0.40444 0.0
H275 H 0.50835 0.4716 0.37203 0.0
H276 H 0.51784 0.51701 0.35548 0.0
H277 H 0.62083 0.49853 0.24446 0.0
H278 H 0.58728 0.44312 0.21133 0.0
H279 H 0.53564 0.41893 0.31965 0.0
C280 C 0.61023 0.5409 0.39334 0.0
C281 C 0.63806 0.56906 0.38734 0.0
C282 C 0.65288 0.57182 0.3499 0.0
C283 C 0.64007 0.54702 0.31884 0.0
C284 C 0.61271 0.51947 0.32578 0.0
C285 C 0.5982 0.51611 0.36216 0.0
C286 C 0.5706 0.48291 0.36232 0.0
C287 C 0.58646 0.45384 0.38825 0.0
C288 C 0.52894 0.49589 0.37427 0.0
C289 C 0.57196 0.46805 0.32039 0.0
C290 C 0.59605 0.48971 0.29968 0.0
C291 C 0.60197 0.48127 0.2604 0.0
C292 C 0.58298 0.44962 0.24189 0.0
C293 C 0.55871 0.42659 0.26276 0.0
C294 C 0.55323 0.43623 0.30254 0.0
H295 H 0.98961 0.18568 0.02334 0.0
H296 H 0.94227 0.24272 0.92956 0.0
H297 H 0.00997 0.25525 0.90791 0.0
H298 H 0.07776 0.24951 0.04112 0.0
H299 H 0.10812 0.2109 0.05307 0.0
H300 H 0.05631 0.21107 0.06368 0.0
H301 H 0.04908 0.14575 0.02506 0.0
H302 H 0.10063 0.14545 0.01409 0.0
H303 H 0.06498 0.13969 0.97574 0.0
H304 H 0.08111 0.24955 0.88989 0.0
H305 H 0.14999 0.23166 0.87955 0.0
H306 H 0.15267 0.1872 0.99106 0.0
C307 C 0.99373 0.20167 -0.00115 0.0
C308 C 0.96125 0.21333 0.97793 0.0
C309 C 0.96714 0.23394 0.94593 0.0
C310 C 0.00536 0.24115 0.93356 0.0
C311 C 0.03701 0.22851 0.95434 0.0
C312 C 0.03157 0.21002 0.98688 0.0
C313 C 0.07028 0.19757 0.00289 0.0
C314 C 0.07861 0.21853 0.04254 0.0
C315 C 0.07127 0.15458 0.00451 0.0
C316 C 0.09819 0.20986 0.97296 0.0
C317 C 0.0785 0.22776 0.94528 0.0
C318 C 0.09718 0.23689 0.9121 0.0
C319 C 0.13672 0.22678 0.90667 0.0
C320 C 0.15759 0.20815 0.9346 0.0
C321 C 0.13803 0.20106 0.96881 0.0
H322 H 0.31472 0.42854 0.47123 0.0
H323 H 0.21733 0.43288 0.55123 0.0
H324 H 0.19166 0.48937 0.52337 0.0
H325 H 0.33417 0.52196 0.48058 0.0
H326 H 0.34761 0.52519 0.43123 0.0
H327 H 0.3535 0.48144 0.45199 0.0
H328 H 0.31018 0.4474 0.39821 0.0
H329 H 0.30449 0.4911 0.37689 0.0
H330 H 0.26172 0.46514 0.38936 0.0
H331 H 0.18266 0.5508 0.49254 0.0
H332 H 0.19146 0.61035 0.46192 0.0
H333 H 0.29593 0.56451 0.40475 0.0
C334 C 0.28748 0.44079 0.48244 0.0
C335 C 0.26807 0.42652 0.51347 0.0
C336 C 0.23251 0.44332 0.52726 0.0
C337 C 0.21776 0.47536 0.5116 0.0
C338 C 0.23871 0.48965 0.48198 0.0
C339 C 0.27262 0.47251 0.46735 0.0
C340 C 0.29231 0.49504 0.43854 0.0
C341 C 0.33435 0.50659 0.45138 0.0
C342 C 0.29214 0.47338 0.39837 0.0
C343 C 0.26519 0.52849 0.44031 0.0
C344 C 0.23394 0.52479 0.46488 0.0
C345 C 0.20664 0.55369 0.4728 0.0
C346 C 0.21183 0.5873 0.4555 0.0
C347 C 0.24441 0.59156 0.43137 0.0
C348 C 0.27081 0.56162 0.42319 0.0
H349 H 0.09222 0.86439 0.9343 0.0
H350 H 0.15357 0.76028 0.89883 0.0
H351 H 0.12983 0.76429 0.83185 0.0
H352 H 0.00768 0.8438 0.87971 0.0
H353 H -0.00016 0.89215 0.87078 0.0
H354 H 0.02489 0.88146 0.91369 0.0
H355 H 0.08422 0.92209 0.89576 0.0
H356 H 0.05932 0.93246 0.85252 0.0
H357 H 0.1077 0.91182 0.84985 0.0
H358 H 0.09577 0.78136 0.7675 0.0
H359 H 0.05377 0.80605 0.71748 0.0
H360 H 0.01343 0.89461 0.80222 0.0
C361 C 0.10148 0.84248 0.91265 0.0
C362 C 0.12527 0.81223 0.92191 0.0
C363 C 0.13558 0.78392 0.89241 0.0
C364 C 0.1223 0.78606 0.85431 0.0
C365 C 0.09861 0.81651 0.84649 0.0
C366 C 0.08829 0.84393 0.87528 0.0
C367 C 0.06052 0.87253 0.8614 0.0
C368 C 0.02091 0.87244 0.88263 0.0
C369 C 0.07907 0.91205 0.8651 0.0
C370 C 0.05644 0.85715 0.82005 0.0
C371 C 0.07873 0.82519 0.81131 0.0
C372 C 0.07831 0.80644 0.77432 0.0
C373 C 0.05414 0.82063 0.74606 0.0
C374 C 0.03035 0.85299 0.75511 0.0
C375 C 0.03204 0.87099 0.79289 0.0
H376 H 0.90044 0.05097 0.90778 0.0
H377 H 0.8127 0.10582 0.84215 0.0
H378 H 0.83192 0.06516 0.78366 0.0
H379 H 0.97455 0.03797 0.83429 0.0
H380 H 0.9888 0.9925 0.84805 0.0
H381 H 0.9695 0.0276 0.88345 0.0
H382 H 0.91555 0.98082 0.90102 0.0
H383 H 0.93492 0.94567 0.86582 0.0
H384 H 0.88395 0.95914 0.86376 0.0
H385 H 0.86113 0.01601 0.73221 0.0
H386 H 0.89507 0.96291 0.69487 0.0
H387 H 0.95929 0.94046 0.7977 0.0
C388 C 0.88549 0.05492 0.88108 0.0
C389 C 0.85528 0.08178 0.87949 0.0
C390 C 0.83601 0.0854 0.84402 0.0
C391 C 0.84681 0.06253 0.81066 0.0
C392 C 0.87669 0.03611 0.81342 0.0
C393 C 0.89551 0.03223 0.84792 0.0
C394 C 0.92514 0.00067 0.84435 0.0
C395 C 0.96697 0.0156 0.85304 0.0
C396 C 0.91421 0.96976 0.87025 0.0
C397 C 0.92016 0.98722 0.80243 0.0
C398 C 0.89246 0.00795 0.7847 0.0
C399 C 0.88298 -0.00028 0.7459 0.0
C400 C 0.90228 0.96943 0.72494 0.0
C401 C 0.93053 0.94772 0.74296 0.0
C402 C 0.93909 0.95702 0.78231 0.0
H403 H 0.41463 0.25871 0.42083 0.0
H404 H 0.32307 0.34309 0.42472 0.0
H405 H 0.33392 0.35119 0.35638 0.0
H406 H 0.47872 0.30648 0.37381 0.0
H407 H 0.50042 0.2677 0.34442 0.0
H408 H 0.47753 0.25959 0.38894 0.0
H409 H 0.43195 0.20953 0.35315 0.0
H410 H 0.45485 0.21764 0.30826 0.0
H411 H 0.40231 0.22193 0.31346 0.0
H412 H 0.36461 0.36206 0.29548 0.0
H413 H 0.41418 0.3759 0.24739 0.0
H414 H 0.48651 0.28471 0.28068 0.0
C415 C 0.39568 0.27735 0.40647 0.0
C416 C 0.36753 0.29972 0.42734 0.0
C417 C 0.34433 0.32533 0.40868 0.0
C418 C 0.35015 0.32992 0.36987 0.0
C419 C 0.37938 0.30872 0.35018 0.0
C420 C 0.40166 0.28268 0.36772 0.0
C421 C 0.43588 0.26885 0.3426 0.0
C422 C 0.47543 0.27614 0.3637 0.0
C423 C 0.43093 0.227 0.32853 0.0
C424 C 0.4311 0.29329 0.30977 0.0
C425 C 0.39759 0.31522 0.31409 0.0
C426 C 0.39014 0.34413 0.29088 0.0
C427 C 0.41835 0.35185 0.26365 0.0
C428 C 0.45341 0.33068 0.25992 0.0
C429 C 0.45905 0.30013 0.28208 0.0
H430 H 0.20603 0.9781 0.06143 0.0
H431 H 0.26025 0.90071 0.97437 0.0
H432 H 0.28336 0.95455 0.94054 0.0
H433 H 0.16949 0.03995 0.00253 0.0
H434 H 0.17888 0.08232 0.03354 0.0
H435 H 0.17225 0.0384 0.05384 0.0
H436 H 0.23986 0.04645 0.08803 0.0
H437 H 0.24662 0.09073 0.06808 0.0
H438 H 0.28318 0.05426 0.06035 0.0
H439 H 0.28859 0.01536 0.91067 0.0
H440 H 0.2801 0.07841 0.88909 0.0
H441 H 0.22953 0.11736 -0.00027 0.0
C442 C 0.22387 0.97279 0.0359 0.0
C443 C 0.23187 0.9358 0.02035 0.0
C444 C 0.25448 0.92922 0.98664 0.0
C445 C 0.26767 0.95952 0.96739 0.0
C446 C 0.25858 0.99594 0.98293 0.0
C447 C 0.23789 0.0027 0.01688 0.0
C448 C 0.22944 0.04415 0.02607 0.0
C449 C 0.18489 0.05161 0.02915 0.0
C450 C 0.25108 0.05982 0.06281 0.0
C451 C 0.24666 0.05944 0.99097 0.0
C452 C 0.26353 0.03131 0.96651 0.0
C453 C 0.27674 0.03792 0.93013 0.0
C454 C 0.27196 0.07405 0.9182 0.0
C455 C 0.25439 0.10326 0.94276 0.0
C456 C 0.24292 0.09582 0.98007 0.0
H457 H 0.50791 0.68672 0.50951 0.0
H458 H 0.55595 0.73201 0.40906 0.0
H459 H 0.48858 0.73845 0.38322 0.0
H460 H 0.43474 0.63261 0.46533 0.0
H461 H 0.39807 0.64228 0.502 0.0
H462 H 0.44934 0.6454 0.51446 0.0
H463 H 0.43974 0.71411 0.54413 0.0
H464 H 0.3882 0.71115 0.53206 0.0
H465 H 0.41792 0.74818 0.51565 0.0
H466 H 0.41792 0.72824 0.36367 0.0
H467 H 0.34929 0.70879 0.35428 0.0
H468 H 0.34532 0.67983 0.47225 0.0
C469 C 0.50402 0.69878 0.48248 0.0
C470 C 0.53673 0.70884 0.46106 0.0
C471 C 0.53097 0.72446 0.42585 0.0
C472 C 0.49292 0.72816 0.41103 0.0
C473 C 0.46115 0.71719 0.43247 0.0
C474 C 0.46627 0.70372 0.46791 0.0
C475 C 0.42746 0.69259 0.48456 0.0
C476 C 0.42743 0.65075 0.492 0.0
C477 C 0.41776 0.71804 0.52127 0.0
C478 C 0.39994 0.69993 0.45202 0.0
C479 C 0.41989 0.7141 0.42226 0.0
C480 C 0.40163 0.71847 0.3873 0.0
C481 C 0.36219 0.70754 0.38241 0.0
C482 C 0.34093 0.69291 0.41258 0.0
C483 C 0.36019 0.69042 0.44823 0.0
H484 H 0.41785 0.41786 0.6539 0.0
H485 H 0.294 0.42142 0.68352 0.0
H486 H 0.30713 0.4733 0.73367 0.0
H487 H 0.45489 0.44115 0.7542 0.0
H488 H 0.4949 0.46878 0.73821 0.0
H489 H 0.47651 0.42903 0.70768 0.0
H490 H 0.46485 0.47213 0.65331 0.0
H491 H 0.48269 0.51209 0.68366 0.0
H492 H 0.43447 0.51341 0.66233 0.0
H493 H 0.33154 0.53104 0.7723 0.0
H494 H 0.36651 0.58649 0.80208 0.0
H495 H 0.4761 0.54188 0.75285 0.0
C496 C 0.39363 0.42901 0.6715 0.0
C497 C 0.35488 0.41564 0.66473 0.0
C498 C 0.32397 0.43101 0.68832 0.0
C499 C 0.33111 0.46056 0.71684 0.0
C500 C 0.36944 0.47386 0.72196 0.0
C501 C 0.40035 0.45809 0.70054 0.0
C502 C 0.43846 0.47871 0.71069 0.0
C503 C 0.46792 0.45287 0.72878 0.0
C504 C 0.45613 0.49505 0.6754 0.0
C505 C 0.42376 0.50953 0.73993 0.0
C506 C 0.3839 0.50618 0.74602 0.0
C507 C 0.36302 0.53333 0.76882 0.0
C508 C 0.38338 0.56474 0.78592 0.0
C509 C 0.4245 0.56865 0.78068 0.0
C510 C 0.44478 0.54015 0.75763 0.0
H511 H 0.00993 0.80634 0.02171 0.0
H512 H 0.0578 0.74558 0.11259 0.0
H513 H 0.99026 0.73341 0.1349 0.0
H514 H 0.93606 0.85212 0.07184 0.0
H515 H 0.89977 0.84805 0.03401 0.0
H516 H 0.95113 0.84734 0.02225 0.0
H517 H 0.94238 0.78311 0.98181 0.0
H518 H 0.89073 0.78376 0.99317 0.0
H519 H 0.92063 0.74422 0.0034 0.0
H520 H 0.91915 0.73951 0.15416 0.0
H521 H 0.85025 0.75766 0.16552 0.0
H522 H 0.84747 0.80595 0.05606 0.0
C523 C 0.00595 0.7896 0.04566 0.0
C524 C 0.03857 0.77678 0.06558 0.0
C525 C 0.03283 0.75523 0.09692 0.0
C526 C 0.9947 0.74824 0.1097 0.0
C527 C 0.96294 0.76207 0.08997 0.0
C528 C 0.96819 0.78146 0.05798 0.0
C529 C 0.92948 0.79502 0.04302 0.0
C530 C 0.92912 0.83817 0.0428 0.0
C531 C 0.92027 0.77534 0.00297 0.0
C532 C 0.90184 0.78219 0.07289 0.0
C533 C 0.92158 0.76317 0.09967 0.0
C534 C 0.90306 0.75315 0.13264 0.0
C535 C 0.8636 0.76344 0.1387 0.0
C536 C 0.84281 0.78322 0.11166 0.0
C537 C 0.86218 0.79128 0.07769 0.0
H538 H 0.7279 0.52358 0.49014 0.0
H539 H 0.74003 0.60264 0.59132 0.0
H540 H 0.76833 0.55227 0.62709 0.0
H541 H 0.69233 0.45157 0.53749 0.0
H542 H 0.71587 0.41393 0.50803 0.0
H543 H 0.70508 0.45749 0.48845 0.0
H544 H 0.77845 0.46417 0.47041 0.0
H545 H 0.78948 0.42055 0.49025 0.0
H546 H 0.81577 0.46287 0.50698 0.0
H547 H 0.78561 0.49273 0.65374 0.0
H548 H 0.78418 0.42802 0.67188 0.0
H549 H 0.76037 0.38632 0.5534 0.0
C550 C 0.73774 0.53027 0.51949 0.0
C551 C 0.73269 0.56663 0.53817 0.0
C552 C 0.74433 0.57475 0.5768 0.0
C553 C 0.76063 0.54647 0.59707 0.0
C554 C 0.7648 0.51047 0.57809 0.0
C555 C 0.75349 0.50224 0.54019 0.0
C556 C 0.75534 0.4604 0.52822 0.0
C557 C 0.71475 0.44497 0.51479 0.0
C558 C 0.78664 0.45148 0.49712 0.0
C559 C 0.76763 0.44616 0.56581 0.0
C560 C 0.77403 0.47557 0.59387 0.0
C561 C 0.78164 0.46945 0.63186 0.0
C562 C 0.78104 0.43244 0.64183 0.0
C563 C 0.7725 0.40198 0.61395 0.0
C564 C 0.76731 0.40899 0.57522 0.0
H565 H 0.92614 0.1408 0.10732 0.0
H566 H 0.83754 0.22199 0.14858 0.0
H567 H 0.86088 0.21749 0.21565 0.0
H568 H 0.91972 0.08133 0.18117 0.0
H569 H 0.97178 0.07201 0.18174 0.0
H570 H 0.94832 0.0832 0.13812 0.0
H571 H 0.99712 0.13849 0.13328 0.0
H572 H 0.02091 0.12711 0.17671 0.0
H573 H 0.00229 0.17396 0.17328 0.0
H574 H 0.89487 0.20034 0.27973 0.0
H575 H 0.9358 0.17482 0.33057 0.0
H576 H 0.00058 0.10759 0.24221 0.0
C577 C 0.91135 0.15768 0.13033 0.0
C578 C 0.87968 0.18135 0.12287 0.0
C579 C 0.86186 0.20357 0.1538 0.0
C580 C 0.87487 0.20108 0.19188 0.0
C581 C 0.90595 0.17668 0.19814 0.0
C582 C 0.92402 0.15577 0.16783 0.0
C583 C 0.95679 0.13169 0.18088 0.0
C584 C 0.94863 0.08958 0.16983 0.0
C585 C 0.99662 0.14354 0.16512 0.0
C586 C 0.95413 0.14148 0.22354 0.0
C587 C 0.92493 0.16745 0.23351 0.0
C588 C 0.91774 0.17997 0.27201 0.0
C589 C 0.941 0.16536 0.30068 0.0
C590 C 0.97063 0.13837 0.29046 0.0
C591 C 0.97727 0.12705 0.2513 0.0
H592 H 0.20612 0.78767 0.1914 0.0
H593 H 0.18042 0.68285 0.12226 0.0
H594 H 0.17922 0.64972 0.18135 0.0
H595 H 0.27136 0.75192 0.25403 0.0
H596 H 0.25576 0.78177 0.2957 0.0
H597 H 0.24988 0.79731 0.24868 0.0
H598 H 0.17537 0.80735 0.26114 0.0
H599 H 0.18098 0.79158 0.30828 0.0
H600 H 0.14592 0.7689 0.27492 0.0
H601 H 0.18915 0.62746 0.24673 0.0
H602 H 0.21088 0.61721 0.31201 0.0
H603 H 0.22626 0.73768 0.33851 0.0
C604 C 0.19998 0.75775 0.18852 0.0
C605 C 0.19375 0.73769 0.15221 0.0
C606 C 0.18535 0.69869 0.14984 0.0
C607 C 0.1844 0.67976 0.18321 0.0
C608 C 0.19112 0.70047 0.21855 0.0
C609 C 0.19848 0.73867 0.22133 0.0
C610 C 0.20741 0.75422 0.26214 0.0
C611 C 0.24854 0.77234 0.2653 0.0
C612 C 0.17551 0.78216 0.27752 0.0
C613 C 0.20582 0.71843 0.28181 0.0
C614 C 0.19576 0.68781 0.25636 0.0
C615 C 0.1961 0.6513 0.26713 0.0
C616 C 0.20825 0.64582 0.30448 0.0
C617 C 0.21997 0.67673 0.33061 0.0
C618 C 0.21737 0.71353 0.31932 0.0
H619 H 0.77959 0.79321 0.52623 0.0
H620 H 0.80953 0.67682 0.53885 0.0
H621 H 0.8622 0.69779 0.58452 0.0
H622 H 0.8825 0.82755 0.53105 0.0
H623 H 0.86913 0.87188 0.55676 0.0
H624 H 0.83479 0.84769 0.52369 0.0
H625 H 0.78289 0.84924 0.57784 0.0
H626 H 0.81719 0.87301 0.61116 0.0
H627 H 0.79487 0.82947 0.62195 0.0
H628 H 0.90515 0.73101 0.63492 0.0
H629 H 0.94219 0.77406 0.68035 0.0
H630 H 0.8916 0.86939 0.62868 0.0
C631 C 0.79768 0.77224 0.5382 0.0
C632 C 0.79057 0.73342 0.529 0.0
C633 C 0.81477 0.70672 0.54519 0.0
C634 C 0.84462 0.71833 0.57133 0.0
C635 C 0.85049 0.75675 0.58032 0.0
C636 C 0.82839 0.78335 0.56363 0.0
C637 C 0.84108 0.82287 0.57824 0.0
C638 C 0.85788 0.84372 0.54548 0.0
C639 C 0.80697 0.84493 0.5985 0.0
C640 C 0.87288 0.81421 0.60655 0.0
C641 C 0.87754 0.77593 0.60753 0.0
C642 C 0.90274 0.7611 0.63361 0.0
C643 C 0.92409 0.78605 0.65919 0.0
C644 C 0.92093 0.82564 0.65808 0.0
C645 C 0.89495 0.83954 0.63093 0.0
H646 H 0.71865 0.28512 0.05033 0.0
H647 H 0.68956 0.16721 0.054 0.0
H648 H 0.63355 0.18497 0.0968 0.0
H649 H 0.69626 0.31645 0.1461 0.0
H650 H 0.67442 0.36033 0.13563 0.0
H651 H 0.71138 0.33848 0.10428 0.0
H652 H 0.66372 0.33889 0.04635 0.0
H653 H 0.62665 0.36099 0.07751 0.0
H654 H 0.61587 0.31755 0.04873 0.0
H655 H 0.58615 0.21535 0.14484 0.0
H656 H 0.5459 0.25609 0.1896 0.0
H657 H 0.59971 0.35471 0.14734 0.0
C658 C 0.70021 0.26317 0.05996 0.0
C659 C 0.70826 0.22487 0.04918 0.0
C660 C 0.68354 0.19674 0.06192 0.0
C661 C 0.65182 0.20653 0.08625 0.0
C662 C 0.64478 0.24457 0.09669 0.0
C663 C 0.66776 0.27248 0.08337 0.0
C664 C 0.65361 0.31121 0.09867 0.0
C665 C 0.68584 0.33287 0.12259 0.0
C666 C 0.63909 0.33346 0.06586 0.0
C667 C 0.61992 0.30065 0.12364 0.0
C668 C 0.6155 0.26211 0.1223 0.0
C669 C 0.58852 0.24564 0.14536 0.0
C670 C 0.56544 0.26921 0.17054 0.0
C671 C 0.56888 0.30899 0.17201 0.0
C672 C 0.59625 0.3246 0.14758 0.0
H673 H 0.25022 0.25378 0.67525 0.0
H674 H 0.37444 0.22811 0.6643 0.0
H675 H 0.37477 0.2075 0.73008 0.0
H676 H 0.25107 0.29108 0.77107 0.0
H677 H 0.20473 0.2708 0.78306 0.0
H678 H 0.21395 0.28121 0.73458 0.0
H679 H 0.19923 0.21189 0.7092 0.0
H680 H 0.18901 0.20149 0.75751 0.0
H681 H 0.22524 0.1744 0.7294 0.0
H682 H 0.36157 0.19517 0.7999 0.0
H683 H 0.33454 0.18461 0.86362 0.0
H684 H 0.21857 0.21539 0.82469 0.0
C685 C 0.27738 0.24332 0.68651 0.0
C686 C 0.3123 0.24253 0.66502 0.0
C687 C 0.34729 0.22854 0.68042 0.0
C688 C 0.3478 0.2171 0.71776 0.0
C689 C 0.31294 0.21936 0.73872 0.0
C690 C 0.27824 0.23138 0.7232 0.0
C691 C 0.24465 0.23116 0.75114 0.0
C692 C 0.22762 0.27093 0.7605 0.0
C693 C 0.21266 0.20305 0.73591 0.0
C694 C 0.26591 0.21792 0.78523 0.0
C695 C 0.30528 0.21139 0.77785 0.0
C696 C 0.33065 0.19975 0.80579 0.0
C697 C 0.31503 0.19383 0.84188 0.0
C698 C 0.2744 0.19936 0.84948 0.0
C699 C 0.2499 0.21177 0.82056 0.0
H700 H 0.69936 0.78663 0.37518 0.0
H701 H 0.67714 0.66794 0.3441 0.0
H702 H 0.67371 0.67903 0.27592 0.0
H703 H 0.63944 0.82309 0.2946 0.0
H704 H 0.67525 0.85908 0.28789 0.0
H705 H 0.66761 0.84383 0.33497 0.0
H706 H 0.74181 0.82847 0.33995 0.0
H707 H 0.7496 0.84379 0.29315 0.0
H708 H 0.76434 0.79712 0.30286 0.0
H709 H 0.68428 0.69944 0.21215 0.0
H710 H 0.71006 0.72853 0.15601 0.0
H711 H 0.72503 0.8343 0.2263 0.0
C712 C 0.69265 0.76339 0.35394 0.0
C713 C 0.68856 0.72652 0.36459 0.0
C714 C 0.68067 0.69639 0.33625 0.0
C715 C 0.67821 0.70245 0.29753 0.0
C716 C 0.6836 0.73885 0.28757 0.0
C717 C 0.69059 0.76892 0.31483 0.0
C718 C 0.70069 0.80407 0.29587 0.0
C719 C 0.66883 0.8343 0.30381 0.0
C720 C 0.74153 0.81921 0.30871 0.0
C721 C 0.70045 0.7884 0.25402 0.0
C722 C 0.68958 0.75092 0.24988 0.0
C723 C 0.69174 0.72905 0.2147 0.0
C724 C 0.70645 0.74565 0.18306 0.0
C725 C 0.71863 0.78363 0.18699 0.0
C726 C 0.71453 0.80552 0.22253 0.0
H727 H 0.7858 0.20359 0.85566 0.0
H728 H 0.8194 0.30669 0.92414 0.0
H729 H 0.82015 0.34006 0.86528 0.0
H730 H 0.84509 0.21878 0.77201 0.0
H731 H 0.80863 0.1983 0.73881 0.0
H732 H 0.81298 0.18233 0.78597 0.0
H733 H 0.73932 0.19721 0.79871 0.0
H734 H 0.73469 0.213 0.75162 0.0
H735 H 0.72108 0.24384 0.7933 0.0
H736 H 0.81161 0.36276 0.80002 0.0
H737 H 0.7939 0.37374 0.73386 0.0
H738 H 0.76985 0.25445 0.70781 0.0
C739 C 0.79333 0.23321 0.85845 0.0
C740 C 0.8022 0.25268 0.89453 0.0
C741 C 0.8124 0.29129 0.89677 0.0
C742 C 0.81306 0.31038 0.86353 0.0
C743 C 0.80406 0.29022 0.82844 0.0
C744 C 0.79457 0.25245 0.82573 0.0
C745 C 0.78473 0.2374 0.78497 0.0
C746 C 0.81465 0.20743 0.76954 0.0
C747 C 0.74245 0.22198 0.782 0.0
C748 C 0.78884 0.27296 0.7652 0.0
C749 C 0.80037 0.30303 0.79066 0.0
C750 C 0.80339 0.33931 0.77963 0.0
C751 C 0.79355 0.34516 0.74178 0.0
C752 C 0.78096 0.31481 0.71533 0.0
C753 C 0.77948 0.27817 0.7272 0.0
H754 H 0.22696 0.19306 0.51179 0.0
H755 H 0.20415 0.30898 0.49094 0.0
H756 H 0.14987 0.28821 0.44706 0.0
H757 H 0.20609 0.15061 0.41736 0.0
H758 H 0.18138 0.11008 0.4329 0.0
H759 H 0.21876 0.13375 0.46277 0.0
H760 H 0.16954 0.14289 0.51926 0.0
H761 H 0.13204 0.11913 0.48956 0.0
H762 H 0.12317 0.1658 0.5124 0.0
H763 H 0.10263 0.25499 0.40153 0.0
H764 H 0.0603 0.21197 0.36132 0.0
H765 H 0.10642 0.11779 0.41808 0.0
C766 C 0.21037 0.21391 0.49799 0.0
C767 C 0.21962 0.25255 0.50455 0.0
C768 C 0.19723 0.27924 0.48638 0.0
C769 C 0.16648 0.26775 0.46135 0.0
C770 C 0.15798 0.22952 0.45542 0.0
C771 C 0.17872 0.20299 0.47362 0.0
C772 C 0.16258 0.16381 0.46278 0.0
C773 C 0.19409 0.13805 0.44276 0.0
C774 C 0.14583 0.14692 0.4981 0.0
C775 C 0.13022 0.17253 0.43506 0.0
C776 C 0.12841 0.21055 0.43103 0.0
C777 C 0.10293 0.22521 0.40513 0.0
C778 C 0.0785 0.20035 0.38264 0.0
C779 C 0.07892 0.16112 0.38672 0.0
C780 C 0.1051 0.14739 0.41378 0.0
H781 H 0.28368 0.70481 0.00106 0.0
H782 H 0.31249 0.82263 0.9963 0.0
H783 H 0.37063 0.80456 0.95659 0.0
H784 H 0.38797 0.67283 0.00653 0.0
H785 H 0.37792 0.62908 0.978 0.0
H786 H 0.34019 0.65123 0.00835 0.0
H787 H 0.29344 0.65077 0.94965 0.0
H788 H 0.33096 0.62873 0.91918 0.0
H789 H 0.3092 0.67234 0.90775 0.0
H790 H 0.41798 0.77417 0.90944 0.0
H791 H 0.455 0.73408 0.86211 0.0
H792 H 0.40385 0.6349 0.90617 0.0
C793 C 0.30262 0.72666 0.99199 0.0
C794 C 0.29378 0.76504 0.00141 0.0
C795 C 0.31908 0.79305 0.98938 0.0
C796 C 0.35209 0.78308 0.96692 0.0
C797 C 0.35992 0.74498 0.95778 0.0
C798 C 0.33643 0.71717 0.97055 0.0
C799 C 0.35104 0.67837 0.95586 0.0
C800 C 0.36513 0.6566 0.98918 0.0
C801 C 0.31927 0.65627 0.93167 0.0
C802 C 0.38516 0.68883 0.9313 0.0
C803 C 0.3897 0.72736 0.93282 0.0
C804 C 0.41578 0.74388 0.90898 0.0
C805 C 0.4372 0.72048 0.88224 0.0
C806 C 0.43324 0.68063 0.8799 0.0
C807 C 0.40771 0.66494 0.90611 0.0
loop_
_geom_bond_atom_site_label_1
_geom_bond_atom_site_label_2
_geom_bond_distance
_geom_bond_site_symmetry_2
_ccdc_geom_bond_type
Sc0 O3 2.025 . S
Sc0 O10 2.105 . S
Sc0 O13 2.105 . S
Sc0 O16 2.105 . S
Sc0 O19 2.105 1_554 S
Sc1 O3 2.025 . S
Sc1 O11 2.105 1_554 S
Sc1 O15 2.105 . S
Sc1 O17 2.105 . S
Sc1 O21 2.105 . S
Sc2 O3 2.025 . S
Sc2 O12 2.105 . S
Sc2 O14 2.105 . S
Sc2 O18 2.105 . S
Sc2 O20 2.105 . S
O3 Sc0 2.025 . S
O3 Sc1 2.025 . S
O3 Sc2 2.025 . S
C4 O10 1.268 . S
C4 O20 1.268 . S
C5 O11 1.268 . S
C5 O19 1.268 . S
C6 O12 1.268 . S
C6 O21 1.268 . S
C7 O13 1.268 . S
C7 O17 1.268 . S
C8 O14 1.268 . S
C8 O16 1.268 . S
C9 O15 1.268 . S
C9 O18 1.268 . S
O10 Sc0 2.105 . S
O10 C4 1.268 . S
O11 Sc1 2.105 1_556 S
O11 C5 1.268 . S
O12 Sc2 2.105 . S
O12 C6 1.268 . S
O13 Sc0 2.105 . S
O13 C7 1.268 . S
O14 Sc2 2.105 . S
O14 C8 1.268 . S
O15 Sc1 2.105 . S
O15 C9 1.268 . S
O16 Sc0 2.105 . S
O16 C8 1.268 . S
O17 Sc1 2.105 . S
O17 C7 1.268 . S
O18 Sc2 2.105 . S
O18 C9 1.268 . S
O19 Sc0 2.105 1_556 S
O19 C5 1.268 . S
O20 Sc2 2.105 . S
O20 C4 1.268 . S
O21 Sc1 2.105 . S
O21 C6 1.268 . S
Sc22 O25 2.025 . S
Sc22 O32 2.105 . S
Sc22 O35 2.105 . S
Sc22 O38 2.105 . S
Sc22 O41 2.105 . S
Sc23 O25 2.025 . S
Sc23 O33 2.105 . S
Sc23 O37 2.105 . S
Sc23 O39 2.105 . S
Sc23 O43 2.105 . S
Sc24 O25 2.025 . S
Sc24 O34 2.105 . S
Sc24 O36 2.105 . S
Sc24 O40 2.105 . S
Sc24 O42 2.105 . S
O25 Sc22 2.025 . S
O25 Sc23 2.025 . S
O25 Sc24 2.025 . S
C26 O32 1.268 . S
C26 O42 1.268 . S
C27 O33 1.268 . S
C27 O41 1.268 . S
C28 O34 1.268 . S
C28 O43 1.268 . S
C29 O35 1.268 . S
C29 O39 1.268 . S
C30 O36 1.268 . S
C30 O38 1.268 . S
C31 O37 1.268 . S
C31 O40 1.268 . S
O32 Sc22 2.105 . S
O32 C26 1.268 . S
O33 Sc23 2.105 . S
O33 C27 1.268 . S
O34 Sc24 2.105 . S
O34 C28 1.268 . S
O35 Sc22 2.105 . S
O35 C29 1.268 . S
O36 Sc24 2.105 . S
O36 C30 1.268 . S
O37 Sc23 2.105 . S
O37 C31 1.268 . S
O38 Sc22 2.105 . S
O38 C30 1.268 . S
O39 Sc23 2.105 . S
O39 C29 1.268 . S
O40 Sc24 2.105 . S
O40 C31 1.268 . S
O41 Sc22 2.105 . S
O41 C27 1.268 . S
O42 Sc24 2.105 . S
O42 C26 1.268 . S
O43 Sc23 2.105 . S
O43 C28 1.268 . S
Sc44 O47 2.026 . S
Sc44 O54 2.105 1_554 S
Sc44 O57 2.105 . S
Sc44 O60 2.105 . S
Sc44 O63 2.105 1_554 S
Sc45 O47 2.025 1_556 S
Sc45 O55 2.105 . S
Sc45 O59 2.105 1_556 S
Sc45 O61 2.105 1_556 S
Sc45 O65 2.105 . S
Sc46 O47 2.026 . S
Sc46 O56 2.105 1_554 S
Sc46 O58 2.105 . S
Sc46 O62 2.105 . S
Sc46 O64 2.105 1_554 S
O47 Sc44 2.026 . S
O47 Sc45 2.025 1_554 S
O47 Sc46 2.026 . S
C48 O54 1.268 . S
C48 O64 1.268 . S
C49 O55 1.268 . S
C49 O63 1.268 . S
C50 O56 1.268 . S
C50 O65 1.268 . S
C51 O57 1.268 . S
C51 O61 1.268 . S
C52 O58 1.268 . S
C52 O60 1.268 . S
C53 O59 1.268 . S
C53 O62 1.268 . S
O54 Sc44 2.105 1_556 S
O54 C48 1.268 . S
O55 Sc45 2.105 . S
O55 C49 1.268 . S
O56 Sc46 2.105 1_556 S
O56 C50 1.268 . S
O57 Sc44 2.105 . S
O57 C51 1.268 . S
O58 Sc46 2.105 . S
O58 C52 1.268 . S
O59 Sc45 2.105 1_554 S
O59 C53 1.268 . S
O60 Sc44 2.105 . S
O60 C52 1.268 . S
O61 Sc45 2.105 1_554 S
O61 C51 1.268 . S
O62 Sc46 2.105 . S
O62 C53 1.268 . S
O63 Sc44 2.105 1_556 S
O63 C49 1.268 . S
O64 Sc46 2.105 1_556 S
O64 C48 1.268 . S
O65 Sc45 2.105 . S
O65 C50 1.268 . S
Sc66 O69 2.025 . S
Sc66 O76 2.105 . S
Sc66 O79 2.105 . S
Sc66 O82 2.105 . S
Sc66 O85 2.105 . S
Sc67 O69 2.025 . S
Sc67 O77 2.105 . S
Sc67 O81 2.105 . S
Sc67 O83 2.105 . S
Sc67 O87 2.105 . S
Sc68 O69 2.025 . S
Sc68 O78 2.105 . S
Sc68 O80 2.105 . S
Sc68 O84 2.105 . S
Sc68 O86 2.105 . S
O69 Sc66 2.025 . S
O69 Sc67 2.025 . S
O69 Sc68 2.025 . S
C70 O76 1.268 . S
C70 O86 1.268 . S
C71 O77 1.268 . S
C71 O85 1.268 . S
C72 O78 1.268 . S
C72 O87 1.268 . S
C73 O79 1.268 . S
C73 O83 1.268 . S
C74 O80 1.268 . S
C74 O82 1.268 . S
C75 O81 1.268 . S
C75 O84 1.268 . S
O76 Sc66 2.105 . S
O76 C70 1.268 . S
O77 Sc67 2.105 . S
O77 C71 1.268 . S
O78 Sc68 2.105 . S
O78 C72 1.268 . S
O79 Sc66 2.105 . S
O79 C73 1.268 . S
O80 Sc68 2.105 . S
O80 C74 1.268 . S
O81 Sc67 2.105 . S
O81 C75 1.268 . S
O82 Sc66 2.105 . S
O82 C74 1.268 . S
O83 Sc67 2.105 . S
O83 C73 1.268 . S
O84 Sc68 2.105 . S
O84 C75 1.268 . S
O85 Sc66 2.105 . S
O85 C71 1.268 . S
O86 Sc68 2.105 . S
O86 C70 1.268 . S
O87 Sc67 2.105 . S
O87 C72 1.268 . S
H88 C91 0.931 . S
H89 C94 0.928 . S
H90 C96 0.930 . S
C91 H88 0.931 . S
C91 C92 1.413 . S
C91 C93 1.360 . S
C92 C91 1.413 . S
C92 C96 1.429 . S
C93 C91 1.360 . S
C93 C94 1.372 . S
C94 H89 0.928 . S
C94 C93 1.372 . S
C94 C95 1.404 . S
C95 C94 1.404 . S
C95 C96 1.391 . S
C96 H90 0.930 . S
C96 C92 1.429 . S
C96 C95 1.391 . S
H97 C100 0.931 . S
H98 C103 0.928 . S
H99 C105 0.930 . S
C100 H97 0.931 . S
C100 C101 1.413 . S
C100 C102 1.360 . S
C101 C100 1.413 . S
C101 C105 1.429 . S
C102 C100 1.360 . S
C102 C103 1.372 . S
C103 H98 0.928 . S
C103 C102 1.372 . S
C103 C104 1.404 . S
C104 C103 1.404 . S
C104 C105 1.391 . S
C105 H99 0.930 . S
C105 C101 1.429 . S
C105 C104 1.391 . S
H106 C109 0.931 . S
H107 C112 0.928 . S
H108 C114 0.930 . S
C109 H106 0.931 . S
C109 C110 1.413 . S
C109 C111 1.360 . S
C110 C109 1.413 . S
C110 C114 1.429 . S
C111 C109 1.360 . S
C111 C112 1.372 . S
C112 H107 0.928 . S
C112 C111 1.372 . S
C112 C113 1.404 . S
C113 C112 1.404 . S
C113 C114 1.391 . S
C114 H108 0.930 . S
C114 C110 1.429 . S
C114 C113 1.391 . S
H115 C118 0.931 . S
H116 C121 0.928 . S
H117 C123 0.930 . S
C118 H115 0.931 . S
C118 C119 1.413 . S
C118 C120 1.360 . S
C119 C118 1.413 . S
C119 C123 1.429 . S
C120 C118 1.360 . S
C120 C121 1.372 . S
C121 H116 0.928 . S
C121 C120 1.372 . S
C121 C122 1.404 . S
C122 C121 1.404 . S
C122 C123 1.391 . S
C123 H117 0.930 . S
C123 C119 1.429 . S
C123 C122 1.391 . S
H124 C127 0.931 . S
H125 C130 0.928 . S
H126 C132 0.930 . S
C127 H124 0.931 . S
C127 C128 1.413 . S
C127 C129 1.360 . S
C128 C127 1.413 . S
C128 C132 1.429 . S
C129 C127 1.360 . S
C129 C130 1.372 . S
C130 H125 0.928 . S
C130 C129 1.372 . S
C130 C131 1.404 . S
C131 C130 1.404 . S
C131 C132 1.391 . S
C132 H126 0.930 . S
C132 C128 1.429 . S
C132 C131 1.391 . S
H133 C136 0.931 . S
H134 C139 0.928 . S
H135 C141 0.930 . S
C136 H133 0.931 . S
C136 C137 1.413 . S
C136 C138 1.360 . S
C137 C136 1.413 . S
C137 C141 1.429 . S
C138 C136 1.360 . S
C138 C139 1.372 . S
C139 H134 0.928 . S
C139 C138 1.372 . S
C139 C140 1.404 . S
C140 C139 1.404 . S
C140 C141 1.391 . S
C141 H135 0.930 . S
C141 C137 1.429 . S
C141 C140 1.391 . S
H142 C145 0.931 . S
H143 C148 0.928 . S
H144 C150 0.930 . S
C145 H142 0.931 . S
C145 C146 1.413 . S
C145 C147 1.360 . S
C146 C145 1.413 . S
C146 C150 1.429 . S
C147 C145 1.360 . S
C147 C148 1.372 . S
C148 H143 0.928 . S
C148 C147 1.372 . S
C148 C149 1.404 . S
C149 C148 1.404 . S
C149 C150 1.391 . S
C150 H144 0.930 . S
C150 C146 1.429 . S
C150 C149 1.391 . S
H151 C154 0.931 . S
H152 C157 0.928 . S
H153 C159 0.930 . S
C154 H151 0.931 . S
C154 C155 1.413 . S
C154 C156 1.360 . S
C155 C154 1.413 . S
C155 C159 1.429 . S
C156 C154 1.360 . S
C156 C157 1.372 . S
C157 H152 0.928 . S
C157 C156 1.372 . S
C157 C158 1.404 . S
C158 C157 1.404 . S
C158 C159 1.391 . S
C159 H153 0.930 . S
C159 C155 1.429 . S
C159 C158 1.391 . S
H160 C172 0.930 . S
H161 C174 0.930 . S
H162 C175 0.930 . S
H163 C179 0.959 . S
H164 C179 0.959 . S
H165 C179 0.961 . S
H166 C180 0.960 . S
H167 C180 0.961 . S
H168 C180 0.959 . S
H169 C183 0.929 . S
H170 C184 0.931 . S
H171 C186 0.930 . S
C172 H160 0.930 . S
C172 C173 1.399 . S
C172 C177 1.399 . S
C173 C172 1.399 . S
C173 C174 1.376 . S
C174 H161 0.930 . S
C174 C173 1.376 . S
C174 C175 1.388 . S
C175 H162 0.930 . S
C175 C174 1.388 . S
C175 C176 1.390 . S
C176 C175 1.390 . S
C176 C177 1.394 . S
C176 C182 1.465 . S
C177 C172 1.399 . S
C177 C176 1.394 . S
C177 C178 1.516 1_565 S
C178 C177 1.516 1_545 S
C178 C179 1.502 . S
C178 C180 1.561 . S
C178 C181 1.526 . S
C179 H163 0.959 . S
C179 H164 0.959 . S
C179 H165 0.961 . S
C179 C178 1.502 . S
C180 H166 0.960 . S
C180 H167 0.961 . S
C180 H168 0.959 . S
C180 C178 1.561 . S
C181 C178 1.526 . S
C181 C182 1.396 1_545 S
C181 C186 1.390 . S
C182 C176 1.465 . S
C182 C181 1.396 1_565 S
C182 C183 1.399 . S
C183 H169 0.929 . S
C183 C182 1.399 . S
C183 C184 1.385 1_565 S
C184 H170 0.931 . S
C184 C183 1.385 1_545 S
C184 C185 1.389 . S
C185 C184 1.389 . S
C185 C186 1.387 . S
C186 H171 0.930 . S
C186 C181 1.390 . S
C186 C185 1.387 . S
H187 C199 0.930 . S
H188 C201 0.930 . S
H189 C202 0.930 . S
H190 C206 0.959 . S
H191 C206 0.959 . S
H192 C206 0.961 . S
H193 C207 0.960 . S
H194 C207 0.961 . S
H195 C207 0.959 . S
H196 C210 0.929 . S
H197 C211 0.931 . S
H198 C213 0.930 . S
C199 H187 0.930 . S
C199 C200 1.399 . S
C199 C204 1.399 . S
C200 C199 1.399 . S
C200 C201 1.376 . S
C201 H188 0.930 . S
C201 C200 1.376 . S
C201 C202 1.388 . S
C202 H189 0.930 . S
C202 C201 1.388 . S
C202 C203 1.390 . S
C203 C202 1.390 . S
C203 C204 1.394 . S
C203 C209 1.465 . S
C204 C199 1.399 . S
C204 C203 1.394 . S
C204 C205 1.516 . S
C205 C204 1.516 . S
C205 C206 1.502 . S
C205 C207 1.561 . S
C205 C208 1.526 . S
C206 H190 0.959 . S
C206 H191 0.959 . S
C206 H192 0.961 . S
C206 C205 1.502 . S
C207 H193 0.960 . S
C207 H194 0.961 . S
C207 H195 0.959 . S
C207 C205 1.561 . S
C208 C205 1.526 . S
C208 C209 1.396 . S
C208 C213 1.390 . S
C209 C203 1.465 . S
C209 C208 1.396 . S
C209 C210 1.399 . S
C210 H196 0.929 . S
C210 C209 1.399 . S
C210 C211 1.385 . S
C211 H197 0.931 . S
C211 C210 1.385 . S
C211 C212 1.389 . S
C212 C211 1.389 . S
C212 C213 1.387 . S
C213 H198 0.930 . S
C213 C208 1.390 . S
C213 C212 1.387 . S
H214 C226 0.930 . S
H215 C228 0.930 . S
H216 C229 0.930 . S
H217 C233 0.959 . S
H218 C233 0.959 . S
H219 C233 0.961 . S
H220 C234 0.960 . S
H221 C234 0.961 . S
H222 C234 0.959 . S
H223 C237 0.929 . S
H224 C238 0.931 . S
H225 C240 0.930 . S
C226 H214 0.930 . S
C226 C227 1.399 . S
C226 C231 1.399 . S
C227 C226 1.399 . S
C227 C228 1.376 . S
C228 H215 0.930 . S
C228 C227 1.376 . S
C228 C229 1.388 . S
C229 H216 0.930 . S
C229 C228 1.388 . S
C229 C230 1.390 . S
C230 C229 1.390 . S
C230 C231 1.394 . S
C230 C236 1.465 1_545 S
C231 C226 1.399 . S
C231 C230 1.394 . S
C231 C232 1.516 1_545 S
C232 C231 1.516 1_565 S
C232 C233 1.502 . S
C232 C234 1.561 . S
C232 C235 1.526 . S
C233 H217 0.959 . S
C233 H218 0.959 . S
C233 H219 0.961 . S
C233 C232 1.502 . S
C234 H220 0.960 . S
C234 H221 0.961 . S
C234 H222 0.959 . S
C234 C232 1.561 . S
C235 C232 1.526 . S
C235 C236 1.396 . S
C235 C240 1.390 . S
C236 C230 1.465 1_565 S
C236 C235 1.396 . S
C236 C237 1.399 . S
C237 H223 0.929 . S
C237 C236 1.399 . S
C237 C238 1.385 . S
C238 H224 0.931 . S
C238 C237 1.385 . S
C238 C239 1.389 . S
C239 C238 1.389 . S
C239 C240 1.387 . S
C240 H225 0.930 . S
C240 C235 1.390 . S
C240 C239 1.387 . S
H241 C253 0.930 . S
H242 C255 0.930 . S
H243 C256 0.930 . S
H244 C260 0.959 . S
H245 C260 0.959 . S
H246 C260 0.961 . S
H247 C261 0.960 . S
H248 C261 0.961 . S
H249 C261 0.959 . S
H250 C264 0.929 . S
H251 C265 0.931 . S
H252 C267 0.930 . S
C253 H241 0.930 . S
C253 C254 1.399 . S
C253 C258 1.399 . S
C254 C253 1.399 . S
C254 C255 1.376 . S
C255 H242 0.930 . S
C255 C254 1.376 . S
C255 C256 1.388 . S
C256 H243 0.930 . S
C256 C255 1.388 . S
C256 C257 1.390 . S
C257 C256 1.390 . S
C257 C258 1.394 . S
C257 C263 1.465 . S
C258 C253 1.399 . S
C258 C257 1.394 . S
C258 C259 1.516 . S
C259 C258 1.516 . S
C259 C260 1.502 . S
C259 C261 1.561 . S
C259 C262 1.526 . S
C260 H244 0.959 . S
C260 H245 0.959 . S
C260 H246 0.961 . S
C260 C259 1.502 . S
C261 H247 0.960 . S
C261 H248 0.961 . S
C261 H249 0.959 . S
C261 C259 1.561 . S
C262 C259 1.526 . S
C262 C263 1.396 . S
C262 C267 1.390 . S
C263 C257 1.465 . S
C263 C262 1.396 . S
C263 C264 1.399 . S
C264 H250 0.929 . S
C264 C263 1.399 . S
C264 C265 1.385 . S
C265 H251 0.931 . S
C265 C264 1.385 . S
C265 C266 1.389 . S
C266 C265 1.389 . S
C266 C267 1.387 . S
C267 H252 0.930 . S
C267 C262 1.390 . S
C267 C266 1.387 . S
H268 C280 0.930 . S
H269 C282 0.930 . S
H270 C283 0.930 . S
H271 C287 0.959 . S
H272 C287 0.959 . S
H273 C287 0.961 . S
H274 C288 0.960 . S
H275 C288 0.961 . S
H276 C288 0.959 . S
H277 C291 0.929 . S
H278 C292 0.931 . S
H279 C294 0.930 . S
C280 H268 0.930 . S
C280 C281 1.399 . S
C280 C285 1.399 . S
C281 C280 1.399 . S
C281 C282 1.376 . S
C282 H269 0.930 . S
C282 C281 1.376 . S
C282 C283 1.388 . S
C283 H270 0.930 . S
C283 C282 1.388 . S
C283 C284 1.390 . S
C284 C283 1.390 . S
C284 C285 1.394 . S
C284 C290 1.465 . S
C285 C280 1.399 . S
C285 C284 1.394 . S
C285 C286 1.516 . S
C286 C285 1.516 . S
C286 C287 1.502 . S
C286 C288 1.561 . S
C286 C289 1.526 . S
C287 H271 0.959 . S
C287 H272 0.959 . S
C287 H273 0.961 . S
C287 C286 1.502 . S
C288 H274 0.960 . S
C288 H275 0.961 . S
C288 H276 0.959 . S
C288 C286 1.561 . S
C289 C286 1.526 . S
C289 C290 1.396 . S
C289 C294 1.390 . S
C290 C284 1.465 . S
C290 C289 1.396 . S
C290 C291 1.399 . S
C291 H277 0.929 . S
C291 C290 1.399 . S
C291 C292 1.385 . S
C292 H278 0.931 . S
C292 C291 1.385 . S
C292 C293 1.389 . S
C293 C292 1.389 . S
C293 C294 1.387 . S
C294 H279 0.930 . S
C294 C289 1.390 . S
C294 C293 1.387 . S
H295 C307 0.928 1_655 S
H296 C309 0.930 . S
H297 C310 0.930 . S
H298 C314 0.959 . S
H299 C314 0.959 . S
H300 C314 0.961 . S
H301 C315 0.960 . S
H302 C315 0.961 . S
H303 C315 0.959 . S
H304 C318 0.929 . S
H305 C319 0.931 . S
H306 C321 0.930 . S
C307 H295 0.928 1_455 S
C307 C308 1.395 1_455 S
C307 C312 1.405 . S
C308 C307 1.395 1_655 S
C308 C309 1.376 . S
C309 H296 0.930 . S
C309 C308 1.376 . S
C309 C310 1.388 1_655 S
C310 H297 0.930 . S
C310 C309 1.388 1_455 S
C310 C311 1.390 . S
C311 C310 1.390 . S
C311 C312 1.394 . S
C311 C317 1.465 . S
C312 C307 1.405 . S
C312 C311 1.394 . S
C312 C313 1.516 . S
C313 C312 1.516 . S
C313 C314 1.502 . S
C313 C315 1.561 . S
C313 C316 1.526 . S
C314 H298 0.959 . S
C314 H299 0.959 . S
C314 H300 0.961 . S
C314 C313 1.502 . S
C315 H301 0.960 . S
C315 H302 0.961 . S
C315 H303 0.959 . S
C315 C313 1.561 . S
C316 C313 1.526 . S
C316 C317 1.396 . S
C316 C321 1.390 . S
C317 C311 1.465 . S
C317 C316 1.396 . S
C317 C318 1.399 . S
C318 H304 0.929 . S
C318 C317 1.399 . S
C318 C319 1.385 . S
C319 H305 0.931 . S
C319 C318 1.385 . S
C319 C320 1.389 . S
C320 C319 1.389 . S
C320 C321 1.387 . S
C321 H306 0.930 . S
C321 C316 1.390 . S
C321 C320 1.387 . S
H322 C334 0.930 . S
H323 C336 0.930 . S
H324 C337 0.930 . S
H325 C341 0.959 . S
H326 C341 0.959 . S
H327 C341 0.961 . S
H328 C342 0.960 . S
H329 C342 0.961 . S
H330 C342 0.959 . S
H331 C345 0.929 . S
H332 C346 0.931 . S
H333 C348 0.930 . S
C334 H322 0.930 . S
C334 C335 1.399 . S
C334 C339 1.399 . S
C335 C334 1.399 . S
C335 C336 1.376 . S
C336 H323 0.930 . S
C336 C335 1.376 . S
C336 C337 1.388 . S
C337 H324 0.930 . S
C337 C336 1.388 . S
C337 C338 1.390 . S
C338 C337 1.390 . S
C338 C339 1.394 . S
C338 C344 1.465 . S
C339 C334 1.399 . S
C339 C338 1.394 . S
C339 C340 1.516 . S
C340 C339 1.516 . S
C340 C341 1.502 . S
C340 C342 1.561 . S
C340 C343 1.526 . S
C341 H325 0.959 . S
C341 H326 0.959 . S
C341 H327 0.961 . S
C341 C340 1.502 . S
C342 H328 0.960 . S
C342 H329 0.961 . S
C342 H330 0.959 . S
C342 C340 1.561 . S
C343 C340 1.526 . S
C343 C344 1.396 . S
C343 C348 1.390 . S
C344 C338 1.465 . S
C344 C343 1.396 . S
C344 C345 1.399 . S
C345 H331 0.929 . S
C345 C344 1.399 . S
C345 C346 1.385 . S
C346 H332 0.931 . S
C346 C345 1.385 . S
C346 C347 1.389 . S
C347 C346 1.389 . S
C347 C348 1.387 . S
C348 H333 0.930 . S
C348 C343 1.390 . S
C348 C347 1.387 . S
H349 C361 0.930 . S
H350 C363 0.930 . S
H351 C364 0.930 . S
H352 C368 0.959 1_655 S
H353 C368 0.959 1_655 S
H354 C368 0.961 . S
H355 C369 0.960 . S
H356 C369 0.961 . S
H357 C369 0.959 . S
H358 C372 0.929 . S
H359 C373 0.931 . S
H360 C375 0.930 1_655 S
C361 H349 0.930 . S
C361 C362 1.399 . S
C361 C366 1.399 . S
C362 C361 1.399 . S
C362 C363 1.376 . S
C363 H350 0.930 . S
C363 C362 1.376 . S
C363 C364 1.388 . S
C364 H351 0.930 . S
C364 C363 1.388 . S
C364 C365 1.390 . S
C365 C364 1.390 . S
C365 C366 1.394 . S
C365 C371 1.465 . S
C366 C361 1.399 . S
C366 C365 1.394 . S
C366 C367 1.516 . S
C367 C366 1.516 . S
C367 C368 1.502 . S
C367 C369 1.561 . S
C367 C370 1.526 . S
C368 H352 0.959 1_455 S
C368 H353 0.959 1_455 S
C368 H354 0.961 . S
C368 C367 1.502 . S
C369 H355 0.960 . S
C369 H356 0.961 . S
C369 H357 0.959 . S
C369 C367 1.561 . S
C370 C367 1.526 . S
C370 C371 1.396 . S
C370 C375 1.390 . S
C371 C365 1.465 . S
C371 C370 1.396 . S
C371 C372 1.399 . S
C372 H358 0.929 . S
C372 C371 1.399 . S
C372 C373 1.385 . S
C373 H359 0.931 . S
C373 C372 1.385 . S
C373 C374 1.389 1_455 S
C374 C373 1.389 1_655 S
C374 C375 1.387 1_655 S
C375 H360 0.930 1_455 S
C375 C370 1.390 . S
C375 C374 1.387 1_455 S
H376 C388 0.930 . S
H377 C390 0.930 . S
H378 C391 0.930 . S
H379 C395 0.959 . S
H380 C395 0.959 . S
H381 C395 0.961 . S
H382 C396 0.960 . S
H383 C396 0.961 . S
H384 C396 0.959 . S
H385 C399 0.929 . S
H386 C400 0.931 . S
H387 C402 0.930 . S
C388 H376 0.930 . S
C388 C389 1.399 . S
C388 C393 1.399 . S
C389 C388 1.399 . S
C389 C390 1.376 . S
C390 H377 0.930 . S
C390 C389 1.376 . S
C390 C391 1.388 . S
C391 H378 0.930 . S
C391 C390 1.388 . S
C391 C392 1.390 . S
C392 C391 1.390 . S
C392 C393 1.394 . S
C392 C398 1.459 1_545 S
C393 C388 1.399 . S
C393 C392 1.394 . S
C393 C394 1.516 . S
C394 C393 1.516 . S
C394 C395 1.502 . S
C394 C396 1.561 1_545 S
C394 C397 1.526 1_545 S
C395 H379 0.959 . S
C395 H380 0.959 . S
C395 H381 0.961 . S
C395 C394 1.502 . S
C396 H382 0.960 . S
C396 H383 0.961 . S
C396 H384 0.959 . S
C396 C394 1.561 1_565 S
C397 C394 1.526 1_565 S
C397 C398 1.399 . S
C397 C402 1.390 . S
C398 C392 1.459 1_565 S
C398 C397 1.399 . S
C398 C399 1.402 . S
C399 H385 0.929 . S
C399 C398 1.402 . S
C399 C400 1.385 . S
C400 H386 0.931 . S
C400 C399 1.385 . S
C400 C401 1.389 . S
C401 C400 1.389 . S
C401 C402 1.387 . S
C402 H387 0.930 . S
C402 C397 1.390 . S
C402 C401 1.387 . S
H403 C415 0.930 . S
H404 C417 0.930 . S
H405 C418 0.930 . S
H406 C422 0.959 . S
H407 C422 0.959 . S
H408 C422 0.961 . S
H409 C423 0.960 . S
H410 C423 0.961 . S
H411 C423 0.959 . S
H412 C426 0.929 . S
H413 C427 0.931 . S
H414 C429 0.930 . S
C415 H403 0.930 . S
C415 C416 1.399 . S
C415 C420 1.399 . S
C416 C415 1.399 . S
C416 C417 1.376 . S
C417 H404 0.930 . S
C417 C416 1.376 . S
C417 C418 1.388 . S
C418 H405 0.930 . S
C418 C417 1.388 . S
C418 C419 1.390 . S
C419 C418 1.390 . S
C419 C420 1.394 . S
C419 C425 1.465 . S
C420 C415 1.399 . S
C420 C419 1.394 . S
C420 C421 1.516 . S
C421 C420 1.516 . S
C421 C422 1.502 . S
C421 C423 1.561 . S
C421 C424 1.526 . S
C422 H406 0.959 . S
C422 H407 0.959 . S
C422 H408 0.961 . S
C422 C421 1.502 . S
C423 H409 0.960 . S
C423 H410 0.961 . S
C423 H411 0.959 . S
C423 C421 1.561 . S
C424 C421 1.526 . S
C424 C425 1.396 . S
C424 C429 1.390 . S
C425 C419 1.465 . S
C425 C424 1.396 . S
C425 C426 1.399 . S
C426 H412 0.929 . S
C426 C425 1.399 . S
C426 C427 1.385 . S
C427 H413 0.931 . S
C427 C426 1.385 . S
C427 C428 1.389 . S
C428 C427 1.389 . S
C428 C429 1.387 . S
C429 H414 0.930 . S
C429 C424 1.390 . S
C429 C428 1.387 . S
H430 C442 0.938 . S
H431 C444 0.930 . S
H432 C445 0.930 . S
H433 C449 0.959 . S
H434 C449 0.959 1_554 S
H435 C449 0.961 1_554 S
H436 C450 0.960 . S
H437 C450 0.961 . S
H438 C450 0.959 . S
H439 C453 0.929 . S
H440 C454 0.931 . S
H441 C456 0.930 . S
C442 H430 0.938 . S
C442 C443 1.396 1_554 S
C442 C447 1.393 1_554 S
C443 C442 1.396 1_556 S
C443 C444 1.376 . S
C444 H431 0.930 . S
C444 C443 1.376 . S
C444 C445 1.388 . S
C445 H432 0.930 . S
C445 C444 1.388 . S
C445 C446 1.390 . S
C446 C445 1.390 . S
C446 C447 1.394 . S
C446 C452 1.465 1_565 S
C447 C442 1.393 1_556 S
C447 C446 1.394 . S
C447 C448 1.516 1_565 S
C448 C447 1.516 1_545 S
C448 C449 1.502 . S
C448 C450 1.561 1_556 S
C448 C451 1.526 . S
C449 H433 0.959 . S
C449 H434 0.959 1_556 S
C449 H435 0.961 1_556 S
C449 C448 1.502 . S
C450 H436 0.960 . S
C450 H437 0.961 . S
C450 H438 0.959 . S
C450 C448 1.561 1_554 S
C451 C448 1.526 . S
C451 C452 1.396 . S
C451 C456 1.390 . S
C452 C446 1.465 1_545 S
C452 C451 1.396 . S
C452 C453 1.399 . S
C453 H439 0.929 . S
C453 C452 1.399 . S
C453 C454 1.385 . S
C454 H440 0.931 . S
C454 C453 1.385 . S
C454 C455 1.389 . S
C455 C454 1.389 . S
C455 C456 1.387 . S
C456 H441 0.930 . S
C456 C451 1.390 . S
C456 C455 1.387 . S
H457 C469 0.930 . S
H458 C471 0.930 . S
H459 C472 0.930 . S
H460 C476 0.959 . S
H461 C476 0.959 . S
H462 C476 0.961 . S
H463 C477 0.960 . S
H464 C477 0.961 . S
H465 C477 0.959 . S
H466 C480 0.929 . S
H467 C481 0.931 . S
H468 C483 0.930 . S
C469 H457 0.930 . S
C469 C470 1.399 . S
C469 C474 1.399 . S
C470 C469 1.399 . S
C470 C471 1.376 . S
C471 H458 0.930 . S
C471 C470 1.376 . S
C471 C472 1.388 . S
C472 H459 0.930 . S
C472 C471 1.388 . S
C472 C473 1.390 . S
C473 C472 1.390 . S
C473 C474 1.394 . S
C473 C479 1.465 . S
C474 C469 1.399 . S
C474 C473 1.394 . S
C474 C475 1.516 . S
C475 C474 1.516 . S
C475 C476 1.502 . S
C475 C477 1.561 . S
C475 C478 1.526 . S
C476 H460 0.959 . S
C476 H461 0.959 . S
C476 H462 0.961 . S
C476 C475 1.502 . S
C477 H463 0.960 . S
C477 H464 0.961 . S
C477 H465 0.959 . S
C477 C475 1.561 . S
C478 C475 1.526 . S
C478 C479 1.396 . S
C478 C483 1.390 . S
C479 C473 1.465 . S
C479 C478 1.396 . S
C479 C480 1.399 . S
C480 H466 0.929 . S
C480 C479 1.399 . S
C480 C481 1.385 . S
C481 H467 0.931 . S
C481 C480 1.385 . S
C481 C482 1.389 . S
C482 C481 1.389 . S
C482 C483 1.387 . S
C483 H468 0.930 . S
C483 C478 1.390 . S
C483 C482 1.387 . S
H484 C496 0.930 . S
H485 C498 0.930 . S
H486 C499 0.930 . S
H487 C503 0.959 . S
H488 C503 0.959 . S
H489 C503 0.961 . S
H490 C504 0.960 . S
H491 C504 0.961 . S
H492 C504 0.959 . S
H493 C507 0.929 . S
H494 C508 0.931 . S
H495 C510 0.930 . S
C496 H484 0.930 . S
C496 C497 1.399 . S
C496 C501 1.399 . S
C497 C496 1.399 . S
C497 C498 1.376 . S
C498 H485 0.930 . S
C498 C497 1.376 . S
C498 C499 1.388 . S
C499 H486 0.930 . S
C499 C498 1.388 . S
C499 C500 1.390 . S
C500 C499 1.390 . S
C500 C501 1.394 . S
C500 C506 1.465 . S
C501 C496 1.399 . S
C501 C500 1.394 . S
C501 C502 1.516 . S
C502 C501 1.516 . S
C502 C503 1.502 . S
C502 C504 1.561 . S
C502 C505 1.526 . S
C503 H487 0.959 . S
C503 H488 0.959 . S
C503 H489 0.961 . S
C503 C502 1.502 . S
C504 H490 0.960 . S
C504 H491 0.961 . S
C504 H492 0.959 . S
C504 C502 1.561 . S
C505 C502 1.526 . S
C505 C506 1.396 . S
C505 C510 1.390 . S
C506 C500 1.465 . S
C506 C505 1.396 . S
C506 C507 1.399 . S
C507 H493 0.929 . S
C507 C506 1.399 . S
C507 C508 1.385 . S
C508 H494 0.931 . S
C508 C507 1.385 . S
C508 C509 1.389 . S
C509 C508 1.389 . S
C509 C510 1.387 . S
C510 H495 0.930 . S
C510 C505 1.390 . S
C510 C509 1.387 . S
H511 C523 0.930 . S
H512 C525 0.930 . S
H513 C526 0.930 . S
H514 C530 0.959 . S
H515 C530 0.959 . S
H516 C530 0.961 . S
H517 C531 0.960 . S
H518 C531 0.961 . S
H519 C531 0.959 . S
H520 C534 0.929 . S
H521 C535 0.931 . S
H522 C537 0.930 . S
C523 H511 0.930 . S
C523 C524 1.399 1_655 S
C523 C528 1.399 . S
C524 C523 1.399 1_455 S
C524 C525 1.376 . S
C525 H512 0.930 . S
C525 C524 1.376 . S
C525 C526 1.388 1_455 S
C526 H513 0.930 . S
C526 C525 1.388 1_655 S
C526 C527 1.390 . S
C527 C526 1.390 . S
C527 C528 1.394 . S
C527 C533 1.465 . S
C528 C523 1.399 . S
C528 C527 1.394 . S
C528 C529 1.516 . S
C529 C528 1.516 . S
C529 C530 1.502 . S
C529 C531 1.561 . S
C529 C532 1.526 . S
C530 H514 0.959 . S
C530 H515 0.959 . S
C530 H516 0.961 . S
C530 C529 1.502 . S
C531 H517 0.960 . S
C531 H518 0.961 . S
C531 H519 0.959 . S
C531 C529 1.561 . S
C532 C529 1.526 . S
C532 C533 1.396 . S
C532 C537 1.390 . S
C533 C527 1.465 . S
C533 C532 1.396 . S
C533 C534 1.399 . S
C534 H520 0.929 . S
C534 C533 1.399 . S
C534 C535 1.385 . S
C535 H521 0.931 . S
C535 C534 1.385 . S
C535 C536 1.389 . S
C536 C535 1.389 . S
C536 C537 1.387 . S
C537 H522 0.930 . S
C537 C532 1.390 . S
C537 C536 1.387 . S
H538 C550 0.930 . S
H539 C552 0.930 . S
H540 C553 0.930 . S
H541 C557 0.959 . S
H542 C557 0.959 . S
H543 C557 0.961 . S
H544 C558 0.960 . S
H545 C558 0.961 . S
H546 C558 0.959 . S
H547 C561 0.929 . S
H548 C562 0.931 . S
H549 C564 0.930 . S
C550 H538 0.930 . S
C550 C551 1.399 . S
C550 C555 1.399 . S
C551 C550 1.399 . S
C551 C552 1.376 . S
C552 H539 0.930 . S
C552 C551 1.376 . S
C552 C553 1.388 . S
C553 H540 0.930 . S
C553 C552 1.388 . S
C553 C554 1.390 . S
C554 C553 1.390 . S
C554 C555 1.394 . S
C554 C560 1.465 . S
C555 C550 1.399 . S
C555 C554 1.394 . S
C555 C556 1.516 . S
C556 C555 1.516 . S
C556 C557 1.502 . S
C556 C558 1.561 . S
C556 C559 1.526 . S
C557 H541 0.959 . S
C557 H542 0.959 . S
C557 H543 0.961 . S
C557 C556 1.502 . S
C558 H544 0.960 . S
C558 H545 0.961 . S
C558 H546 0.959 . S
C558 C556 1.561 . S
C559 C556 1.526 . S
C559 C560 1.396 . S
C559 C564 1.390 . S
C560 C554 1.465 . S
C560 C559 1.396 . S
C560 C561 1.399 . S
C561 H547 0.929 . S
C561 C560 1.399 . S
C561 C562 1.385 . S
C562 H548 0.931 . S
C562 C561 1.385 . S
C562 C563 1.389 . S
C563 C562 1.389 . S
C563 C564 1.387 . S
C564 H549 0.930 . S
C564 C559 1.390 . S
C564 C563 1.387 . S
H565 C577 0.930 . S
H566 C579 0.930 . S
H567 C580 0.930 . S
H568 C584 0.959 . S
H569 C584 0.942 1_455 S
H570 C584 0.961 . S
H571 C585 0.960 . S
H572 C585 0.961 . S
H573 C585 0.959 . S
H574 C588 0.929 . S
H575 C589 0.931 . S
H576 C591 0.930 . S
C577 H565 0.930 . S
C577 C578 1.399 . S
C577 C582 1.399 . S
C578 C577 1.399 . S
C578 C579 1.376 . S
C579 H566 0.930 . S
C579 C578 1.376 . S
C579 C580 1.388 . S
C580 H567 0.930 . S
C580 C579 1.388 . S
C580 C581 1.390 . S
C581 C580 1.390 . S
C581 C582 1.394 . S
C581 C587 1.465 . S
C582 C577 1.399 . S
C582 C581 1.394 . S
C582 C583 1.516 . S
C583 C582 1.516 . S
C583 C584 1.502 . S
C583 C585 1.561 1_655 S
C583 C586 1.526 . S
C584 H568 0.959 . S
C584 H569 0.942 1_655 S
C584 H570 0.961 . S
C584 C583 1.502 . S
C585 H571 0.960 . S
C585 H572 0.961 . S
C585 H573 0.959 . S
C585 C583 1.561 1_455 S
C586 C583 1.526 . S
C586 C587 1.396 . S
C586 C591 1.390 1_655 S
C587 C581 1.465 . S
C587 C586 1.396 . S
C587 C588 1.399 . S
C588 H574 0.929 . S
C588 C587 1.399 . S
C588 C589 1.385 . S
C589 H575 0.931 . S
C589 C588 1.385 . S
C589 C590 1.389 1_655 S
C590 C589 1.389 1_455 S
C590 C591 1.387 . S
C591 H576 0.930 . S
C591 C586 1.390 1_455 S
C591 C590 1.387 . S
H592 C604 0.930 . S
H593 C606 0.930 . S
H594 C607 0.930 . S
H595 C611 0.959 . S
H596 C611 0.959 . S
H597 C611 0.961 . S
H598 C612 0.960 . S
H599 C612 0.961 . S
H600 C612 0.959 . S
H601 C615 0.929 . S
H602 C616 0.931 . S
H603 C618 0.930 . S
C604 H592 0.930 . S
C604 C605 1.399 . S
C604 C609 1.399 . S
C605 C604 1.399 . S
C605 C606 1.376 . S
C606 H593 0.930 . S
C606 C605 1.376 . S
C606 C607 1.388 . S
C607 H594 0.930 . S
C607 C606 1.388 . S
C607 C608 1.390 . S
C608 C607 1.390 . S
C608 C609 1.394 . S
C608 C614 1.465 . S
C609 C604 1.399 . S
C609 C608 1.394 . S
C609 C610 1.516 . S
C610 C609 1.516 . S
C610 C611 1.502 . S
C610 C612 1.561 . S
C610 C613 1.526 . S
C611 H595 0.959 . S
C611 H596 0.959 . S
C611 H597 0.961 . S
C611 C610 1.502 . S
C612 H598 0.960 . S
C612 H599 0.961 . S
C612 H600 0.959 . S
C612 C610 1.561 . S
C613 C610 1.526 . S
C613 C614 1.396 . S
C613 C618 1.390 . S
C614 C608 1.465 . S
C614 C613 1.396 . S
C614 C615 1.399 . S
C615 H601 0.929 . S
C615 C614 1.399 . S
C615 C616 1.385 . S
C616 H602 0.931 . S
C616 C615 1.385 . S
C616 C617 1.389 . S
C617 C616 1.389 . S
C617 C618 1.387 . S
C618 H603 0.930 . S
C618 C613 1.390 . S
C618 C617 1.387 . S
H619 C631 0.930 . S
H620 C633 0.930 . S
H621 C634 0.930 . S
H622 C638 0.959 . S
H623 C638 0.959 . S
H624 C638 0.961 . S
H625 C639 0.960 . S
H626 C639 0.961 . S
H627 C639 0.959 . S
H628 C642 0.929 . S
H629 C643 0.931 . S
H630 C645 0.930 . S
C631 H619 0.930 . S
C631 C632 1.399 . S
C631 C636 1.399 . S
C632 C631 1.399 . S
C632 C633 1.376 . S
C633 H620 0.930 . S
C633 C632 1.376 . S
C633 C634 1.388 . S
C634 H621 0.930 . S
C634 C633 1.388 . S
C634 C635 1.390 . S
C635 C634 1.390 . S
C635 C636 1.394 . S
C635 C641 1.465 . S
C636 C631 1.399 . S
C636 C635 1.394 . S
C636 C637 1.516 . S
C637 C636 1.516 . S
C637 C638 1.502 . S
C637 C639 1.561 . S
C637 C640 1.526 . S
C638 H622 0.959 . S
C638 H623 0.959 . S
C638 H624 0.961 . S
C638 C637 1.502 . S
C639 H625 0.960 . S
C639 H626 0.961 . S
C639 H627 0.959 . S
C639 C637 1.561 . S
C640 C637 1.526 . S
C640 C641 1.396 . S
C640 C645 1.390 . S
C641 C635 1.465 . S
C641 C640 1.396 . S
C641 C642 1.399 . S
C642 H628 0.929 . S
C642 C641 1.399 . S
C642 C643 1.385 . S
C643 H629 0.931 . S
C643 C642 1.385 . S
C643 C644 1.389 . S
C644 C643 1.389 . S
C644 C645 1.387 . S
C645 H630 0.930 . S
C645 C640 1.390 . S
C645 C644 1.387 . S
H646 C658 0.930 . S
H647 C660 0.930 . S
H648 C661 0.930 . S
H649 C665 0.959 . S
H650 C665 0.959 . S
H651 C665 0.961 . S
H652 C666 0.960 . S
H653 C666 0.961 . S
H654 C666 0.959 . S
H655 C669 0.929 . S
H656 C670 0.931 . S
H657 C672 0.930 . S
C658 H646 0.930 . S
C658 C659 1.399 . S
C658 C663 1.399 . S
C659 C658 1.399 . S
C659 C660 1.376 . S
C660 H647 0.930 . S
C660 C659 1.376 . S
C660 C661 1.388 . S
C661 H648 0.930 . S
C661 C660 1.388 . S
C661 C662 1.390 . S
C662 C661 1.390 . S
C662 C663 1.394 . S
C662 C668 1.465 . S
C663 C658 1.399 . S
C663 C662 1.394 . S
C663 C664 1.516 . S
C664 C663 1.516 . S
C664 C665 1.502 . S
C664 C666 1.561 . S
C664 C667 1.526 . S
C665 H649 0.959 . S
C665 H650 0.959 . S
C665 H651 0.961 . S
C665 C664 1.502 . S
C666 H652 0.960 . S
C666 H653 0.961 . S
C666 H654 0.959 . S
C666 C664 1.561 . S
C667 C664 1.526 . S
C667 C668 1.396 . S
C667 C672 1.390 . S
C668 C662 1.465 . S
C668 C667 1.396 . S
C668 C669 1.399 . S
C669 H655 0.929 . S
C669 C668 1.399 . S
C669 C670 1.385 . S
C670 H656 0.931 . S
C670 C669 1.385 . S
C670 C671 1.389 . S
C671 C670 1.389 . S
C671 C672 1.387 . S
C672 H657 0.930 . S
C672 C667 1.390 . S
C672 C671 1.387 . S
H673 C685 0.930 . S
H674 C687 0.930 . S
H675 C688 0.930 . S
H676 C692 0.959 . S
H677 C692 0.959 . S
H678 C692 0.961 . S
H679 C693 0.960 . S
H680 C693 0.961 . S
H681 C693 0.959 . S
H682 C696 0.929 . S
H683 C697 0.931 . S
H684 C699 0.930 . S
C685 H673 0.930 . S
C685 C686 1.399 . S
C685 C690 1.399 . S
C686 C685 1.399 . S
C686 C687 1.376 . S
C687 H674 0.930 . S
C687 C686 1.376 . S
C687 C688 1.388 . S
C688 H675 0.930 . S
C688 C687 1.388 . S
C688 C689 1.390 . S
C689 C688 1.390 . S
C689 C690 1.394 . S
C689 C695 1.465 . S
C690 C685 1.399 . S
C690 C689 1.394 . S
C690 C691 1.516 . S
C691 C690 1.516 . S
C691 C692 1.502 . S
C691 C693 1.561 . S
C691 C694 1.526 . S
C692 H676 0.959 . S
C692 H677 0.959 . S
C692 H678 0.961 . S
C692 C691 1.502 . S
C693 H679 0.960 . S
C693 H680 0.961 . S
C693 H681 0.959 . S
C693 C691 1.561 . S
C694 C691 1.526 . S
C694 C695 1.396 . S
C694 C699 1.390 . S
C695 C689 1.465 . S
C695 C694 1.396 . S
C695 C696 1.399 . S
C696 H682 0.929 . S
C696 C695 1.399 . S
C696 C697 1.385 . S
C697 H683 0.931 . S
C697 C696 1.385 . S
C697 C698 1.389 . S
C698 C697 1.389 . S
C698 C699 1.387 . S
C699 H684 0.930 . S
C699 C694 1.390 . S
C699 C698 1.387 . S
H700 C712 0.930 . S
H701 C714 0.930 . S
H702 C715 0.930 . S
H703 C719 0.959 . S
H704 C719 0.959 . S
H705 C719 0.961 . S
H706 C720 0.960 . S
H707 C720 0.961 . S
H708 C720 0.959 . S
H709 C723 0.929 . S
H710 C724 0.931 . S
H711 C726 0.930 . S
C712 H700 0.930 . S
C712 C713 1.399 . S
C712 C717 1.399 . S
C713 C712 1.399 . S
C713 C714 1.376 . S
C714 H701 0.930 . S
C714 C713 1.376 . S
C714 C715 1.388 . S
C715 H702 0.930 . S
C715 C714 1.388 . S
C715 C716 1.390 . S
C716 C715 1.390 . S
C716 C717 1.394 . S
C716 C722 1.465 . S
C717 C712 1.399 . S
C717 C716 1.394 . S
C717 C718 1.516 . S
C718 C717 1.516 . S
C718 C719 1.502 . S
C718 C720 1.561 . S
C718 C721 1.526 . S
C719 H703 0.959 . S
C719 H704 0.959 . S
C719 H705 0.961 . S
C719 C718 1.502 . S
C720 H706 0.960 . S
C720 H707 0.961 . S
C720 H708 0.959 . S
C720 C718 1.561 . S
C721 C718 1.526 . S
C721 C722 1.396 . S
C721 C726 1.390 . S
C722 C716 1.465 . S
C722 C721 1.396 . S
C722 C723 1.399 . S
C723 H709 0.929 . S
C723 C722 1.399 . S
C723 C724 1.385 . S
C724 H710 0.931 . S
C724 C723 1.385 . S
C724 C725 1.389 . S
C725 C724 1.389 . S
C725 C726 1.387 . S
C726 H711 0.930 . S
C726 C721 1.390 . S
C726 C725 1.387 . S
H727 C739 0.930 . S
H728 C741 0.930 . S
H729 C742 0.930 . S
H730 C746 0.959 . S
H731 C746 0.959 . S
H732 C746 0.961 . S
H733 C747 0.960 . S
H734 C747 0.961 . S
H735 C747 0.959 . S
H736 C750 0.929 . S
H737 C751 0.931 . S
H738 C753 0.930 . S
C739 H727 0.930 . S
C739 C740 1.399 . S
C739 C744 1.399 . S
C740 C739 1.399 . S
C740 C741 1.376 . S
C741 H728 0.930 . S
C741 C740 1.376 . S
C741 C742 1.388 . S
C742 H729 0.930 . S
C742 C741 1.388 . S
C742 C743 1.390 . S
C743 C742 1.390 . S
C743 C744 1.394 . S
C743 C749 1.465 . S
C744 C739 1.399 . S
C744 C743 1.394 . S
C744 C745 1.516 . S
C745 C744 1.516 . S
C745 C746 1.502 . S
C745 C747 1.561 . S
C745 C748 1.526 . S
C746 H730 0.959 . S
C746 H731 0.959 . S
C746 H732 0.961 . S
C746 C745 1.502 . S
C747 H733 0.960 . S
C747 H734 0.961 . S
C747 H735 0.959 . S
C747 C745 1.561 . S
C748 C745 1.526 . S
C748 C749 1.396 . S
C748 C753 1.390 . S
C749 C743 1.465 . S
C749 C748 1.396 . S
C749 C750 1.399 . S
C750 H736 0.929 . S
C750 C749 1.399 . S
C750 C751 1.385 . S
C751 H737 0.931 . S
C751 C750 1.385 . S
C751 C752 1.389 . S
C752 C751 1.389 . S
C752 C753 1.387 . S
C753 H738 0.930 . S
C753 C748 1.390 . S
C753 C752 1.387 . S
H754 C766 0.930 . S
H755 C768 0.930 . S
H756 C769 0.930 . S
H757 C773 0.959 . S
H758 C773 0.959 . S
H759 C773 0.961 . S
H760 C774 0.960 . S
H761 C774 0.961 . S
H762 C774 0.959 . S
H763 C777 0.929 . S
H764 C778 0.931 . S
H765 C780 0.930 . S
C766 H754 0.930 . S
C766 C767 1.399 . S
C766 C771 1.399 . S
C767 C766 1.399 . S
C767 C768 1.376 . S
C768 H755 0.930 . S
C768 C767 1.376 . S
C768 C769 1.388 . S
C769 H756 0.930 . S
C769 C768 1.388 . S
C769 C770 1.390 . S
C770 C769 1.390 . S
C770 C771 1.394 . S
C770 C776 1.465 . S
C771 C766 1.399 . S
C771 C770 1.394 . S
C771 C772 1.516 . S
C772 C771 1.516 . S
C772 C773 1.502 . S
C772 C774 1.561 . S
C772 C775 1.526 . S
C773 H757 0.959 . S
C773 H758 0.959 . S
C773 H759 0.961 . S
C773 C772 1.502 . S
C774 H760 0.960 . S
C774 H761 0.961 . S
C774 H762 0.959 . S
C774 C772 1.561 . S
C775 C772 1.526 . S
C775 C776 1.396 . S
C775 C780 1.390 . S
C776 C770 1.465 . S
C776 C775 1.396 . S
C776 C777 1.399 . S
C777 H763 0.929 . S
C777 C776 1.399 . S
C777 C778 1.385 . S
C778 H764 0.931 . S
C778 C777 1.385 . S
C778 C779 1.389 . S
C779 C778 1.389 . S
C779 C780 1.387 . S
C780 H765 0.930 . S
C780 C775 1.390 . S
C780 C779 1.387 . S
H781 C793 0.930 1_554 S
H782 C795 0.930 . S
H783 C796 0.930 . S
H784 C800 0.959 . S
H785 C800 0.959 . S
H786 C800 0.961 1_554 S
H787 C801 0.960 . S
H788 C801 0.961 . S
H789 C801 0.959 . S
H790 C804 0.929 . S
H791 C805 0.931 . S
H792 C807 0.930 . S
C793 H781 0.930 1_556 S
C793 C794 1.399 . S
C793 C798 1.399 . S
C794 C793 1.399 . S
C794 C795 1.376 . S
C795 H782 0.930 . S
C795 C794 1.376 . S
C795 C796 1.388 . S
C796 H783 0.930 . S
C796 C795 1.388 . S
C796 C797 1.390 . S
C797 C796 1.390 . S
C797 C798 1.394 . S
C797 C803 1.465 . S
C798 C793 1.399 . S
C798 C797 1.394 . S
C798 C799 1.516 . S
C799 C798 1.516 . S
C799 C800 1.502 . S
C799 C801 1.561 . S
C799 C802 1.526 . S
C800 H784 0.959 . S
C800 H785 0.959 . S
C800 H786 0.961 1_556 S
C800 C799 1.502 . S
C801 H787 0.960 . S
C801 H788 0.961 . S
C801 H789 0.959 . S
C801 C799 1.561 . S
C802 C799 1.526 . S
C802 C803 1.396 . S
C802 C807 1.390 . S
C803 C797 1.465 . S
C803 C802 1.396 . S
C803 C804 1.399 . S
C804 H790 0.929 . S
C804 C803 1.399 . S
C804 C805 1.385 . S
C805 H791 0.931 . S
C805 C804 1.385 . S
C805 C806 1.389 . S
C806 C805 1.389 . S
C806 C807 1.387 . S
C807 H792 0.930 . S
C807 C802 1.390 . S
C807 C806 1.387 . S
C173 C8 1.382 . S
C185 C93 1.395 . S
C200 C31 1.214 . S
C212 C101 1.222 . S
C227 C53 1.402 . S
C239 C110 1.361 . S
C266 C120 1.340 . S
C254 C74 1.287 . S
C293 C129 1.401 . S
C281 C26 1.391 . S
C308 C48 1.292 . S
C320 C138 1.331 . S
C335 C71 1.395 . S
C347 C146 1.409 . S
C362 C5 1.271 . S
C374 C156 1.264 . S
C389 C50 1.379 . S
C401 C155 1.381 . S
C428 C128 1.212 . S
C416 C70 1.227 . S
C455 C137 1.396 . S
C443 C4 1.417 1_556 S
C470 C28 1.369 . S
C482 C147 1.350 . S
C509 C102 1.333 . S
C497 C73 1.343 . S
C524 C7 1.365 . S
C536 C111 1.344 . S
C563 C119 1.383 . S
C551 C30 1.418 . S
C590 C92 1.262 . S
C578 C52 1.261 . S
C617 C149 1.356 . S
C605 C9 1.399 . S
C644 C158 1.275 . S
C632 C29 1.319 . S
C659 C51 1.313 . S
C671 C131 1.280 . S
C698 C140 1.393 . S
C686 C75 1.400 . S
C725 C113 1.351 . S
C713 C27 1.375 . S
C740 C49 1.383 . S
C752 C122 1.330 . S
C779 C95 1.278 . S
C767 C72 1.316 . S
C806 C104 1.264 . S
C794 C6 1.318 1_556 S
