# Generated by pormake.
# Topology zzz, (3,6)-cn, num edge types: 1
# Building blocks:
#     Node 0, Type 0, BuildingBlock: PAMTOO_clean_linker_0, # of connection points: 3
#     Node 1, Type 0, BuildingBlock: PAMTOO_clean_linker_0, # of connection points: 3
#     Node 2, Type 0, BuildingBlock: PAMTOO_clean_linker_0, # of connection points: 3
#     Node 3, Type 0, BuildingBlock: PAMTOO_clean_linker_0, # of connection points: 3
#     Node 4, Type 0, BuildingBlock: PAMTOO_clean_linker_0, # of connection points: 3
#     Node 5, Type 0, BuildingBlock: PAMTOO_clean_linker_0, # of connection points: 3
#     Node 6, Type 0, BuildingBlock: PAMTOO_clean_linker_0, # of connection points: 3
#     Node 7, Type 0, BuildingBlock: PAMTOO_clean_linker_0, # of connection points: 3
#     Node 8, Type 1, BuildingBlock: BETDIP_clean_sbu_0, # of connection points: 6
#     Node 9, Type 1, BuildingBlock: BETDIP_clean_sbu_0, # of connection points: 6
#     Node 10, Type 1, BuildingBlock: BETDIP_clean_sbu_0, # of connection points: 6
#     Node 11, Type 1, BuildingBlock: BETDIP_clean_sbu_0, # of connection points: 6
#     Edge 12, Type (0, 1), BuildingBlock: OJICUG_clean_linker_0, # of connection points: 2
#     Edge 13, Type (0, 1), BuildingBlock: OJICUG_clean_linker_0, # of connection points: 2
#     Edge 14, Type (0, 1), BuildingBlock: OJICUG_clean_linker_0, # of connection points: 2
#     Edge 15, Type (0, 1), BuildingBlock: OJICUG_clean_linker_0, # of connection points: 2
#     Edge 16, Type (0, 1), BuildingBlock: OJICUG_clean_linker_0, # of connection points: 2
#     Edge 17, Type (0, 1), BuildingBlock: OJICUG_clean_linker_0, # of connection points: 2
#     Edge 18, Type (0, 1), BuildingBlock: OJICUG_clean_linker_0, # of connection points: 2
#     Edge 19, Type (0, 1), BuildingBlock: OJICUG_clean_linker_0, # of connection points: 2
#     Edge 20, Type (0, 1), BuildingBlock: OJICUG_clean_linker_0, # of connection points: 2
#     Edge 21, Type (0, 1), BuildingBlock: OJICUG_clean_linker_0, # of connection points: 2
#     Edge 22, Type (0, 1), BuildingBlock: OJICUG_clean_linker_0, # of connection points: 2
#     Edge 23, Type (0, 1), BuildingBlock: OJICUG_clean_linker_0, # of connection points: 2
#     Edge 24, Type (0, 1), BuildingBlock: OJICUG_clean_linker_0, # of connection points: 2
#     Edge 25, Type (0, 1), BuildingBlock: OJICUG_clean_linker_0, # of connection points: 2
#     Edge 26, Type (0, 1), BuildingBlock: OJICUG_clean_linker_0, # of connection points: 2
#     Edge 27, Type (0, 1), BuildingBlock: OJICUG_clean_linker_0, # of connection points: 2
#     Edge 28, Type (0, 1), BuildingBlock: OJICUG_clean_linker_0, # of connection points: 2
#     Edge 29, Type (0, 1), BuildingBlock: OJICUG_clean_linker_0, # of connection points: 2
#     Edge 30, Type (0, 1), BuildingBlock: OJICUG_clean_linker_0, # of connection points: 2
#     Edge 31, Type (0, 1), BuildingBlock: OJICUG_clean_linker_0, # of connection points: 2
#     Edge 32, Type (0, 1), BuildingBlock: OJICUG_clean_linker_0, # of connection points: 2
#     Edge 33, Type (0, 1), BuildingBlock: OJICUG_clean_linker_0, # of connection points: 2
#     Edge 34, Type (0, 1), BuildingBlock: OJICUG_clean_linker_0, # of connection points: 2
#     Edge 35, Type (0, 1), BuildingBlock: OJICUG_clean_linker_0, # of connection points: 2
# Relax obj value: 0.359
# Max RMSD: 0.191
# Mean RMSD: 0.147
data_MOF--net-zzz--node1-BETDIP_clean_sbu_0--node2-PAMTOO_clean_linker_0--edge1-OJICUG_clean_linker_0
_symmetry_space_group_name_H-M    P1
_symmetry_Int_Tables_number       1
_symmetry_cell_setting            triclinic
loop_
_symmetry_equiv_pos_as_xyz
'x, y, z'
_cell_length_a     37.45831
_cell_length_b     37.501211
_cell_length_c     10.189861
_cell_angle_alpha  89.710717
_cell_angle_beta   89.714751
_cell_angle_gamma 89.844977
loop_
_atom_site_label
_atom_site_type_symbol
_atom_site_fract_x
_atom_site_fract_y
_atom_site_fract_z
_atom_type_partial_charge
H0 H 0.82943 0.45925 0.44932 0.0
H1 H 0.7334 0.47744 0.22922 0.0
H2 H 0.77809 0.56186 0.46139 0.0
H3 H 0.68379 0.56743 0.39666 0.0
C4 C 0.6889 0.54266 0.34032 0.0
O5 O 0.72438 0.54296 0.29743 0.0
H6 H 0.68458 0.52006 0.40965 0.0
C7 C 0.80675 0.47612 0.42581 0.0
C8 C 0.80681 0.5113 0.47129 0.0
C9 C 0.78089 0.46382 0.33707 0.0
C10 C 0.75278 0.48638 0.30046 0.0
C11 C 0.75073 0.52136 0.34688 0.0
C12 C 0.77833 0.53424 0.43099 0.0
H13 H 0.08661 0.8346 0.4958 0.0
H14 H 0.07399 0.73849 0.27061 0.0
H15 H 0.98246 0.78986 0.4444 0.0
H16 H 0.97349 0.69743 0.37411 0.0
C17 C 1.00069 0.69993 0.33136 0.0
O18 O 1.00563 0.73527 0.29127 0.0
H19 H 1.01991 0.69314 0.41085 0.0
C20 C 0.07024 0.81281 0.46158 0.0
C21 C 0.03349 0.81501 0.48617 0.0
C22 C 0.0853 0.78621 0.3807 0.0
C23 C 0.06307 0.75909 0.33341 0.0
C24 C 1.02618 0.7597 0.35612 0.0
C25 C 1.01111 0.7882 0.43142 0.0
H26 H 0.70872 0.09856 0.43988 0.0
H27 H 0.80369 0.08144 0.20973 0.0
H28 H 0.75884 0.99532 0.43742 0.0
H29 H 0.85197 0.98782 0.36222 0.0
C30 C 0.84751 1.0138 0.3121 0.0
O31 O 0.81206 1.01518 0.2705 0.0
H32 H 0.85237 0.03496 0.38625 0.0
C33 C 0.73116 0.08171 0.41288 0.0
C34 C 0.73088 0.04611 0.45501 0.0
C35 C 0.75674 0.09457 0.32278 0.0
C36 C 0.78451 0.07207 0.28193 0.0
C37 C 0.78627 0.03661 0.32468 0.0
C38 C 0.75886 1.02323 0.40984 0.0
H39 H 0.45117 0.71939 0.44746 0.0
H40 H 0.47101 0.81486 0.22374 0.0
H41 H 0.55482 0.76822 0.45662 0.0
H42 H 0.56356 0.86152 0.38566 0.0
C43 C 0.53795 0.85731 0.33366 0.0
O44 O 0.53686 0.82203 0.29102 0.0
H45 H 0.51613 0.86226 0.40611 0.0
C46 C 0.46842 0.74168 0.42316 0.0
C47 C 0.5037 0.74084 0.46818 0.0
C48 C 0.45653 0.76774 0.33342 0.0
C49 C 0.47959 0.79532 0.29582 0.0
C50 C 0.51469 0.79646 0.34184 0.0
C51 C 0.52713 0.76866 0.42663 0.0
H52 H 0.20976 0.59831 0.16282 0.0
H53 H 0.30492 0.5805 0.38841 0.0
H54 H 0.25999 0.49511 0.16186 0.0
H55 H 0.35406 0.53546 0.21377 0.0
C56 C 0.34884 0.5133 0.28449 0.0
O57 O 0.31331 0.51443 0.32679 0.0
H58 H 0.35313 0.488 0.23045 0.0
C59 C 0.23224 0.5814 0.18849 0.0
C60 C 0.23195 0.54594 0.14596 0.0
C61 C 0.25785 0.59395 0.27769 0.0
C62 C 0.28571 0.57136 0.31688 0.0
C63 C 0.28751 0.53605 0.27364 0.0
C64 C 0.26002 0.52294 0.18961 0.0
H65 H 0.0962 0.20937 0.1763 0.0
H66 H 0.0918 0.31213 0.36323 0.0
H67 H 1.00335 0.27513 0.13197 0.0
H68 H 1.01872 0.31729 0.46525 0.0
C69 C 1.01233 0.33791 0.38977 0.0
O70 O 0.03024 0.33055 0.27231 0.0
H71 H 0.98319 0.33571 0.3718 0.0
C72 C 0.0831 0.23473 0.19318 0.0
C73 C 0.04889 0.23893 0.14149 0.0
C74 C 0.09803 0.25971 0.2802 0.0
C75 C 0.08049 0.29243 0.29817 0.0
C76 C 0.04657 0.29861 0.24531 0.0
C77 C 0.03016 0.27129 0.16866 0.0
H78 H 0.33295 0.95818 0.19205 0.0
H79 H 0.23128 0.9722 0.38312 0.0
H80 H 0.27533 0.05674 0.14411 0.0
H81 H 0.21277 0.08518 0.36583 0.0
C82 C 0.2142 0.05711 0.40069 0.0
O83 O 0.21844 0.03529 0.29125 0.0
H84 H 0.2382 0.05512 0.46459 0.0
C85 C 0.30898 0.97397 0.20755 0.0
C86 C 0.30765 1.00841 0.15423 0.0
C87 C 0.28195 0.96091 0.29118 0.0
C88 C 0.25187 0.98194 0.31704 0.0
C89 C 0.24882 1.01626 0.26389 0.0
C90 C 0.27711 0.02991 0.1832 0.0
H91 H 0.58717 0.33774 0.15591 0.0
H92 H 0.5721 0.23927 0.3688 0.0
H93 H 0.48395 0.28864 0.16792 0.0
H94 H 0.52353 0.19324 0.2079 0.0
C95 C 0.50227 0.19882 0.28195 0.0
O96 O 0.50475 0.23401 0.32472 0.0
H97 H 0.47623 0.19544 0.23203 0.0
C98 C 0.5708 0.315 0.18238 0.0
C99 C 0.53483 0.31594 0.1456 0.0
C100 C 0.58454 0.28824 0.266 0.0
C101 C 0.5622 0.25995 0.30371 0.0
C102 C 0.52614 0.25945 0.26846 0.0
C103 C 0.51217 0.28789 0.19026 0.0
Tb104 Tb 0.04317 1.0159 0.93314 0.0
Tb105 Tb 1.0059 0.03883 0.7128 0.0
C106 C 0.06936 0.98346 0.12582 0.0
C107 C 0.09025 0.95003 0.13223 0.0
C108 C 0.07478 0.91764 0.0954 0.0
C109 C 0.09441 0.88619 0.10059 0.0
C110 C 0.13008 0.88602 0.14434 0.0
C111 C 0.14601 0.91863 0.17734 0.0
C112 C 0.12631 0.95039 0.17013 0.0
C113 C 0.08747 0.03823 0.74366 0.0
C114 C 1.01722 0.95677 0.72119 0.0
C115 C 0.99628 0.07522 0.51213 0.0
C116 C 1.02199 0.10365 0.47712 0.0
C117 C 0.05759 0.09467 0.44606 0.0
C118 C 0.08485 0.1198 0.45648 0.0
C119 C 0.07708 0.15495 0.49405 0.0
C120 C 0.04098 0.16449 0.51482 0.0
C121 C 1.01388 0.13914 0.50737 0.0
C122 C 0.96069 1.01947 0.9042 0.0
C123 C 0.0283 0.09641 0.92551 0.0
O124 O 0.03581 0.98076 0.09154 0.0
O125 O 0.0852 1.01008 0.06716 0.0
O126 O 0.05983 1.0192 0.7292 0.0
O127 O 0.09025 0.04532 0.86686 0.0
O128 O 0.03193 0.96363 0.83689 0.0
O129 O 1.00512 0.98334 0.6487 0.0
O130 O 1.0089 0.04275 0.50738 0.0
O131 O 0.978 0.08066 0.62 0.0
O132 O 0.98982 0.03616 0.91717 0.0
O133 O 0.95525 1.01511 0.77961 0.0
O134 O 1.02676 0.0894 0.79839 0.0
O135 O 0.02895 0.06904 1.00753 0.0
H136 H 0.04717 0.91629 0.0649 0.0
H137 H 0.08062 0.86166 0.07785 0.0
H138 H 0.17324 0.9194 0.21253 0.0
H139 H 0.13911 0.97516 0.19566 0.0
H140 H 0.0648 0.06763 0.42059 0.0
H141 H 0.11202 0.11133 0.43753 0.0
H142 H 0.03332 0.19165 0.537 0.0
H143 H 0.98679 0.14697 0.53162 0.0
Tb144 Tb 0.52846 0.05075 0.90573 0.0
Tb145 Tb 0.51059 1.00478 0.70903 0.0
C146 C 0.55646 0.08417 0.09192 0.0
C147 C 0.58601 0.1094 0.10267 0.0
C148 C 0.60019 0.11641 0.2262 0.0
C149 C 0.63108 0.13663 0.23752 0.0
C150 C 0.64886 0.14971 0.12473 0.0
C151 C 0.6327 0.14513 1.00155 0.0
C152 C 0.6015 0.12496 0.99055 0.0
C153 C 0.50631 0.0872 0.69441 0.0
C154 C 0.59005 0.02774 0.70138 0.0
C155 C 0.48235 0.97084 0.52486 0.0
C156 C 0.4524 0.94601 0.51766 0.0
C157 C 0.43819 0.93777 0.39528 0.0
C158 C 0.40685 0.91813 0.38704 0.0
C159 C 0.38865 0.90695 0.50168 0.0
C160 C 0.40476 0.91275 0.62417 0.0
C161 C 0.43644 0.93227 0.63211 0.0
C162 C 0.53298 0.96866 0.92061 0.0
C163 C 0.44886 0.02769 0.91208 0.0
O164 O 0.56524 0.05155 0.06054 0.0
O165 O 0.52885 0.0956 0.02677 0.0
O166 O 0.52645 0.05993 0.69439 0.0
O167 O 0.49811 0.09404 0.81457 0.0
O168 O 0.58256 0.03977 0.82072 0.0
O169 O 0.5635 1.01674 0.62755 0.0
O170 O 0.47409 1.00379 0.55346 0.0
O171 O 0.50988 0.95943 0.59051 0.0
O172 O 0.51255 0.9957 0.92022 0.0
O173 O 0.5414 0.96188 0.80062 0.0
O174 O 0.45644 1.01587 0.7927 0.0
O175 O 0.47538 0.03862 0.98631 0.0
H176 H 0.58855 0.10454 0.31358 0.0
H177 H 0.64276 0.13883 0.33412 0.0
H178 H 0.64563 0.1548 0.913 0.0
H179 H 0.59057 0.11994 0.89415 0.0
H180 H 0.45015 0.94828 0.30617 0.0
H181 H 0.39521 0.91496 0.29075 0.0
H182 H 0.3915 0.90457 0.71406 0.0
H183 H 0.44738 0.93829 0.72769 0.0
Tb184 Tb 0.49519 0.53762 0.90887 0.0
Tb185 Tb 0.54324 0.51999 0.71808 0.0
C186 C 0.46035 0.56623 0.09182 0.0
C187 C 0.43619 0.59682 0.10199 0.0
C188 C 0.4283 0.61052 0.22586 0.0
C189 C 0.40961 0.64246 0.23754 0.0
C190 C 0.399 0.66175 0.12491 0.0
C191 C 0.40421 0.64613 1.00088 0.0
C192 C 0.42285 0.61389 0.98947 0.0
C193 C 0.46043 0.51555 0.69561 0.0
C194 C 0.5209 0.5994 0.70816 0.0
C195 C 0.58091 0.48983 0.54632 0.0
C196 C 0.598 0.45435 0.54282 0.0
C197 C 0.57734 0.42345 0.55589 0.0
C198 C 0.5933 0.39003 0.55009 0.0
C199 C 0.63035 0.3865 0.52922 0.0
C200 C 0.65131 0.41737 0.51993 0.0
C201 C 0.63527 0.45107 0.52902 0.0
C202 C 0.57645 0.54251 0.9338 0.0
C203 C 0.51687 0.45821 0.91502 0.0
O204 O 0.49371 0.57367 0.06576 0.0
O205 O 0.44868 0.53954 0.02303 0.0
O206 O 0.48779 0.53561 0.6967 0.0
O207 O 0.45299 0.50713 0.81536 0.0
O208 O 0.50643 0.5915 0.82383 0.0
O209 O 0.53434 0.57336 0.63667 0.0
O210 O 0.546 0.49074 0.54342 0.0
O211 O 0.59373 0.51179 0.63241 0.0
O212 O 0.5501 0.52134 0.92946 0.0
O213 O 0.58309 0.55309 0.81554 0.0
O214 O 0.52913 0.46602 0.79609 0.0
O215 O 0.50623 0.48463 0.99048 0.0
H216 H 0.43848 0.5977 0.31357 0.0
H217 H 0.40684 0.65359 0.33491 0.0
H218 H 0.39634 0.66013 0.91239 0.0
H219 H 0.42855 0.60335 0.89277 0.0
H220 H 0.54863 0.4249 0.56801 0.0
H221 H 0.57608 0.36687 0.55395 0.0
H222 H 0.67977 0.41542 0.50186 0.0
H223 H 0.65186 0.47457 0.52233 0.0
Tb224 Tb 1.01095 0.50594 0.90697 0.0
Tb225 Tb 0.02794 0.55157 0.70969 0.0
C226 C 0.98337 0.47184 0.0945 0.0
C227 C 0.95228 0.44856 0.10796 0.0
C228 C 0.93512 0.44655 0.22939 0.0
C229 C 0.90365 0.42734 0.24313 0.0
C230 C 0.88796 0.41066 0.13403 0.0
C231 C 0.9059 0.41173 0.01257 0.0
C232 C 0.93804 0.43046 0.99972 0.0
C233 C 0.03192 0.46951 0.6936 0.0
C234 C 0.94832 0.52927 0.70864 0.0
C235 C 0.05593 0.58498 0.52114 0.0
C236 C 0.08605 0.60956 0.5083 0.0
C237 C 0.10033 0.61631 0.38394 0.0
C238 C 0.13162 0.63592 0.37062 0.0
C239 C 0.14972 0.64858 0.48217 0.0
C240 C 0.13363 0.64415 0.60629 0.0
C241 C 0.102 0.62465 0.61929 0.0
C242 C 1.00662 0.5883 0.92122 0.0
C243 C 0.09044 0.52829 0.90883 0.0
O244 O 0.97634 0.50533 0.06957 0.0
O245 O 1.00947 0.45965 0.02254 0.0
O246 O 1.01134 0.49645 0.69626 0.0
O247 O 0.04242 0.4639 0.81218 0.0
O248 O 0.95635 0.51703 0.82737 0.0
O249 O 0.97462 0.54038 0.63257 0.0
O250 O 0.06406 0.55206 0.55143 0.0
O251 O 0.02879 0.59678 0.58864 0.0
O252 O 1.02689 0.56108 0.92064 0.0
O253 O 0.99773 0.59484 0.80155 0.0
O254 O 0.08246 0.54056 0.79013 0.0
O255 O 0.06416 0.51707 0.98463 0.0
H256 H 0.94529 0.46111 0.31266 0.0
H257 H 0.89007 0.42828 0.33718 0.0
H258 H 0.89402 0.39993 0.92642 0.0
H259 H 0.95081 0.43223 0.90428 0.0
H260 H 0.08841 0.60473 0.29744 0.0
H261 H 0.14328 0.63798 0.27343 0.0
H262 H 0.14685 0.65345 0.69394 0.0
H263 H 0.09105 0.61978 0.71636 0.0
C264 C 0.15073 0.03032 0.443 0.0
C265 C 0.18079 0.0497 0.48545 0.0
H266 H 0.09787 1.01063 0.49031 0.0
C267 C 0.1788 0.06563 0.60999 0.0
H268 H 0.15075 1.01858 0.34655 0.0
C269 C 0.1485 0.06195 0.69045 0.0
C270 C 0.11867 0.0421 0.65031 0.0
H271 H 0.20091 0.08142 0.6453 0.0
H272 H 0.14855 0.07486 0.78531 0.0
C273 C 0.12023 1.02613 0.52512 0.0
C274 C 0.51575 0.13588 0.36364 0.0
C275 C 0.50481 0.17096 0.39313 0.0
H276 H 0.52554 0.08232 0.43289 0.0
C277 C 0.49305 0.17773 0.52205 0.0
H278 H 0.52339 0.12942 0.26442 0.0
C279 C 0.49337 0.15052 0.61846 0.0
C280 C 0.50532 0.11561 0.58928 0.0
H281 H 0.48335 0.20397 0.54834 0.0
H282 H 0.48427 0.15695 0.7166 0.0
C283 C 0.51654 0.10876 0.46005 0.0
C284 C 0.36948 0.50438 0.52554 0.0
C285 C 0.37663 0.51522 0.39565 0.0
H286 H 0.38992 0.49591 0.72011 0.0
C287 C 0.41208 0.52491 0.36493 0.0
H288 H 0.34294 0.49568 0.5532 0.0
C289 C 0.43921 0.52544 0.46065 0.0
C290 C 0.43202 0.51508 0.59077 0.0
H291 H 0.41882 0.53177 0.2651 0.0
H292 H 0.46591 0.5335 0.43222 0.0
C293 C 0.3967 0.50432 0.6213 0.0
C294 C 0.0513 0.3801 0.52558 0.0
C295 C 1.02086 0.37487 0.4475 0.0
H296 H 0.07855 0.41371 0.6633 0.0
C297 C 0.99577 0.40296 0.44124 0.0
H298 H 0.07096 0.35902 0.53479 0.0
C299 C 1.00022 0.43464 0.51424 0.0
C300 C 0.02977 0.43906 0.5975 0.0
H301 H 0.97162 0.39948 0.38527 0.0
H302 H 0.97949 0.45479 0.51154 0.0
C303 C 0.05554 0.41151 0.5999 0.0
C304 C 0.90926 0.03165 0.22796 0.0
C305 C 0.87526 1.01739 0.20047 0.0
H306 H 0.96232 0.04347 0.15881 0.0
C307 C 0.86998 1.00299 0.07449 0.0
H308 H 0.91483 0.04209 0.32462 0.0
C309 C 0.89751 1.00369 0.97874 0.0
C310 C 0.93139 1.01823 1.00648 0.0
H311 H 0.84468 0.99086 0.05027 0.0
H312 H 0.89231 0.99252 0.88293 0.0
C313 C 0.93674 0.03218 0.13287 0.0
C314 C 0.54776 0.87855 0.09411 0.0
C315 C 0.53523 0.88505 0.22223 0.0
H316 H 0.55691 0.89951 0.90006 0.0
C317 C 0.52325 0.91985 0.25093 0.0
H318 H 0.55824 0.85256 0.06851 0.0
C319 C 0.52226 0.94693 0.15444 0.0
C320 C 0.53425 0.94033 0.02595 0.0
H321 H 0.51494 0.92611 0.34962 0.0
H322 H 0.51245 0.97314 0.18094 0.0
C323 C 0.5472 0.90573 0.99759 0.0
C324 C 0.66292 0.56399 0.11943 0.0
C325 C 0.66145 0.54074 0.22822 0.0
H326 H 0.63762 0.58279 0.94276 0.0
C327 C 0.63105 0.51873 0.24044 0.0
H328 H 0.68527 0.582 0.10785 0.0
C329 C 0.6033 0.51957 0.1473 0.0
C330 C 0.60491 0.54259 0.03808 0.0
H331 H 0.62842 0.50101 0.32354 0.0
H332 H 0.58063 0.50202 0.16072 0.0
C333 C 0.63528 0.56468 0.02544 0.0
C334 C 1.01625 0.63745 0.24971 0.0
C335 C 1.00451 0.67236 0.22006 0.0
H336 H 1.02683 0.58403 0.18173 0.0
C337 C 0.99248 0.67888 0.09148 0.0
H338 H 1.02409 0.63106 0.34871 0.0
C339 C 0.99314 0.65165 0.99581 0.0
C340 C 1.00571 0.61689 0.02531 0.0
H341 H 0.98211 0.70491 0.06512 0.0
H342 H 0.98368 0.65792 0.89811 0.0
C343 C 1.01736 0.61032 0.15409 0.0
C344 C 0.11035 0.24711 0.50926 0.0
C345 C 0.12402 0.24654 0.38046 0.0
H346 H 0.08184 0.21538 0.64963 0.0
C347 C 0.14396 0.216 0.34719 0.0
H348 H 0.09944 0.27144 0.55008 0.0
C349 C 0.13229 0.18322 0.39805 0.0
C350 C 0.10521 0.18301 0.49484 0.0
H351 H 0.15931 0.21573 0.25681 0.0
H352 H 0.13997 0.15923 0.34649 0.0
C353 C 0.09944 0.21479 0.56506 0.0
C354 C 0.29682 0.93633 0.50731 0.0
C355 C 0.29043 0.92964 0.37414 0.0
H356 H 0.33513 0.93227 0.65978 0.0
C357 C 0.30687 0.8999 0.31596 0.0
H358 H 0.28357 0.95829 0.55643 0.0
C359 C 0.33648 0.88435 0.37661 0.0
C360 C 0.3498 0.89955 0.49241 0.0
H361 H 0.30139 0.89332 0.21464 0.0
H362 H 0.35277 0.86597 0.32036 0.0
C363 C 0.32671 0.92121 0.56698 0.0
C364 C 0.61632 0.29332 0.47841 0.0
C365 C 0.61784 0.29592 0.34051 0.0
H366 H 0.62253 0.32227 0.65658 0.0
C367 C 0.6434 0.31911 0.28519 0.0
H368 H 0.59876 0.2745 0.5269 0.0
C369 C 0.65613 0.34745 0.36014 0.0
C370 C 0.64424 0.3511 0.4903 0.0
H371 H 0.64746 0.32 0.17988 0.0
H372 H 0.66887 0.36952 0.30957 0.0
C373 C 0.63016 0.32092 0.55397 0.0
C374 C 0.24208 0.62055 0.49026 0.0
C375 C 0.24864 0.62596 0.35576 0.0
H376 H 0.20345 0.62551 0.64253 0.0
C377 C 0.23192 0.655 0.29327 0.0
H378 H 0.25555 0.5994 0.54343 0.0
C379 C 0.20176 0.67044 0.35125 0.0
C380 C 0.18851 0.65622 0.46987 0.0
H381 H 0.23762 0.66087 0.19109 0.0
H382 H 0.18526 0.68796 0.29212 0.0
C383 C 0.21182 0.63573 0.54768 0.0
C384 C 0.14461 0.81649 0.38143 0.0
C385 C 0.12086 0.79317 0.31834 0.0
H386 H 0.16684 0.86875 0.36963 0.0
C387 C 0.12288 0.79158 0.18038 0.0
H388 H 0.14669 0.81627 0.48745 0.0
C389 C 0.13649 0.82081 0.11119 0.0
C390 C 0.14651 0.85132 0.18152 0.0
H391 H 0.10761 0.77226 0.12577 0.0
H392 H 0.13121 0.82267 1.00689 0.0
C393 C 0.15657 0.84666 0.31323 0.0
C394 C 0.74115 0.12224 0.11142 0.0
C395 C 0.74763 0.12697 0.24589 0.0
H396 H 0.70262 0.12798 0.96051 0.0
C397 C 0.73097 0.15576 0.30964 0.0
H398 H 0.75462 0.10133 0.05721 0.0
C399 C 0.70088 0.17155 0.25295 0.0
C400 C 0.68758 0.15778 0.13467 0.0
H401 H 0.73663 0.16114 0.4118 0.0
H402 H 0.6844 0.18882 0.31309 0.0
C403 C 0.71095 0.13775 0.05538 0.0
C404 C 0.43054 0.75292 0.11953 0.0
C405 C 0.42471 0.75936 0.25362 0.0
H406 H 0.42497 0.71504 0.96683 0.0
C407 C 0.39495 0.7435 0.31463 0.0
H408 H 0.45236 0.76575 0.06764 0.0
C409 C 0.37868 0.71423 0.25547 0.0
C410 C 0.39294 0.70079 0.13755 0.0
H411 H 0.38883 0.74913 0.41649 0.0
H412 H 0.36024 0.69836 0.31335 0.0
C413 C 0.41461 0.72347 0.06115 0.0
C414 C 0.79626 0.43764 0.12331 0.0
C415 C 0.78975 0.43196 0.25777 0.0
H416 H 0.83499 0.43269 0.97082 0.0
C417 C 0.80628 0.40268 0.31934 0.0
H418 H 0.78294 0.45906 0.07104 0.0
C419 C 0.83635 0.38725 0.26085 0.0
C420 C 0.84956 0.40169 0.14262 0.0
H421 H 0.80066 0.39671 0.42151 0.0
H422 H 0.85305 0.36994 0.32001 0.0
C423 C 0.82635 0.4223 0.06516 0.0
C424 C 0.04185 0.19844 0.94402 0.0
C425 C 0.03369 0.20615 0.07623 0.0
H426 H 0.04647 0.15855 0.79311 0.0
C427 C 1.02188 0.17754 0.15558 0.0
H428 H 0.05252 0.21921 0.88103 0.0
C429 C 1.01964 0.14241 0.10665 0.0
C430 C 0.02877 0.13447 0.97547 0.0
H431 H 1.01648 0.18203 0.25855 0.0
H432 H 1.01151 0.12124 0.17295 0.0
C433 C 0.03893 0.16336 0.89407 0.0
C434 C 0.36752 0.03977 0.1424 0.0
C435 C 0.34038 1.0206 0.0788 0.0
H436 H 0.42235 0.05691 0.14173 0.0
C437 C 0.34894 1.00523 0.95633 0.0
H438 H 0.36254 0.05083 0.23878 0.0
C439 C 0.38343 1.00852 0.90028 0.0
C440 C 0.411 1.02665 0.9661 0.0
H441 H 0.32927 0.98917 0.90637 0.0
H442 H 0.38885 0.99555 0.80755 0.0
C443 C 0.40215 0.04274 0.08721 0.0
C444 C 0.50417 0.37639 0.14196 0.0
C445 C 0.52247 0.34918 0.07429 0.0
H446 H 0.48821 0.4316 0.14665 0.0
C447 C 0.53697 0.3578 0.95004 0.0
H448 H 0.49374 0.37127 0.23956 0.0
C449 C 0.53401 0.39251 0.89666 0.0
C450 C 0.51705 0.4202 0.96655 0.0
H451 H 0.55222 0.33798 0.89661 0.0
H452 H 0.54643 0.39794 0.80268 0.0
C453 C 0.50153 0.41128 0.08914 0.0
C454 C 0.1902 0.55118 0.9508 0.0
C455 C 0.19915 0.53433 0.07071 0.0
H456 H 0.14999 0.56238 0.80553 0.0
C457 C 0.17237 0.5138 0.13234 0.0
H458 H 0.20959 0.56813 0.9021 0.0
C459 C 0.13768 0.51123 0.07853 0.0
C460 C 0.12844 0.52892 0.96046 0.0
H461 H 0.17761 0.50143 0.22659 0.0
H462 H 0.11773 0.49605 0.13183 0.0
C463 C 0.1557 0.54822 0.89596 0.0
C464 C 0.03435 0.85579 0.6837 0.0
C465 C 1.02079 0.84813 0.55784 0.0
H466 H 0.04392 0.89486 0.83301 0.0
C467 C 1.00359 0.8762 0.49039 0.0
H468 H 0.0487 0.83534 0.73751 0.0
C469 C 1.0013 0.91089 0.54482 0.0
C470 C 1.01622 0.91885 0.66865 0.0
H471 H 0.99389 0.87194 0.39179 0.0
H472 H 0.98897 0.93184 0.48709 0.0
C473 C 0.03196 0.8903 0.73822 0.0
C474 C 0.68967 0.05054 0.65297 0.0
C475 C 0.69824 0.03424 0.532 0.0
H476 H 0.64988 0.06118 0.80139 0.0
C477 C 0.67127 1.01411 0.47157 0.0
H478 H 0.70925 0.06718 0.70077 0.0
C479 C 0.6367 1.01137 0.52765 0.0
C480 C 0.62785 0.02854 0.64688 0.0
H481 H 0.67623 1.00218 0.3766 0.0
H482 H 0.6166 0.99654 0.47545 0.0
C483 C 0.65531 0.04742 0.71 0.0
C484 C 0.49682 0.69858 0.66162 0.0
C485 C 0.51485 0.70793 0.54437 0.0
H486 H 0.4847 0.65804 0.8052 0.0
C487 C 0.53664 0.68168 0.48606 0.0
H488 H 0.47902 0.71765 0.7077 0.0
C489 C 0.53925 0.64696 0.54042 0.0
C490 C 0.52033 0.63729 0.65559 0.0
H491 H 0.55003 0.68733 0.39387 0.0
H492 H 0.55542 0.62734 0.48981 0.0
C493 C 0.49978 0.66409 0.71692 0.0
C494 C 0.84869 0.50583 0.66607 0.0
C495 C 0.83966 0.52282 0.54651 0.0
H496 H 0.88895 0.4947 0.81125 0.0
C497 C 0.86635 0.5435 0.4851 0.0
H498 H 0.82937 0.48874 0.71448 0.0
C499 C 0.90103 0.54618 0.53896 0.0
C500 C 0.91034 0.52846 0.65689 0.0
H501 H 0.86106 0.55595 0.39103 0.0
H502 H 0.92091 0.5615 0.48586 0.0
C503 C 0.88318 0.50893 0.72101 0.0
loop_
_geom_bond_atom_site_label_1
_geom_bond_atom_site_label_2
_geom_bond_distance
_geom_bond_site_symmetry_2
_ccdc_geom_bond_type
H0 C7 0.929 . S
H1 C10 0.930 . S
H2 C12 0.929 . S
H3 C4 0.969 . S
C4 H3 0.969 . S
C4 O5 1.550 . S
C4 H6 0.973 . S
O5 C4 1.550 . S
O5 C11 1.412 . S
H6 C4 0.973 . S
C7 H0 0.929 . S
C7 C8 1.400 . S
C7 C9 1.364 . S
C8 C7 1.400 . S
C8 C12 1.377 . S
C9 C7 1.364 . S
C9 C10 1.374 . S
C10 H1 0.930 . S
C10 C9 1.374 . S
C10 C11 1.383 . S
C11 O5 1.412 . S
C11 C10 1.383 . S
C11 C12 1.394 . S
C12 H2 0.929 . S
C12 C8 1.377 . S
C12 C11 1.394 . S
H13 C20 0.928 1_655 S
H14 C23 0.931 . S
H15 C25 0.928 1_655 S
H16 C17 0.969 . S
C17 H16 0.969 . S
C17 O18 1.550 1_455 S
C17 H19 0.973 1_455 S
O18 C17 1.550 1_655 S
O18 C24 1.404 1_655 S
H19 C17 0.973 1_655 S
C20 H13 0.928 1_455 S
C20 C21 1.399 . S
C20 C22 1.364 . S
C21 C20 1.399 . S
C21 C25 1.377 . S
C22 C20 1.364 . S
C22 C23 1.374 1_455 S
C23 H14 0.931 . S
C23 C22 1.374 1_655 S
C23 C24 1.382 1_655 S
C24 O18 1.404 1_455 S
C24 C23 1.382 1_455 S
C24 C25 1.394 . S
C25 H15 0.928 1_455 S
C25 C21 1.377 . S
C25 C24 1.394 . S
H26 C33 0.928 1_565 S
H27 C36 0.931 . S
H28 C38 0.929 1_565 S
H29 C30 0.969 . S
C30 H29 0.969 . S
C30 O31 1.550 1_545 S
C30 H32 0.973 1_545 S
O31 C30 1.550 1_565 S
O31 C37 1.404 1_565 S
H32 C30 0.973 1_565 S
C33 H26 0.928 1_545 S
C33 C34 1.399 . S
C33 C35 1.364 . S
C34 C33 1.399 . S
C34 C38 1.377 . S
C35 C33 1.364 . S
C35 C36 1.374 1_545 S
C36 H27 0.931 . S
C36 C35 1.374 1_565 S
C36 C37 1.382 1_565 S
C37 O31 1.404 1_545 S
C37 C36 1.382 1_545 S
C37 C38 1.395 . S
C38 H28 0.929 1_545 S
C38 C34 1.377 . S
C38 C37 1.395 . S
H39 C46 0.929 . S
H40 C49 0.930 . S
H41 C51 0.929 . S
H42 C43 0.969 . S
C43 H42 0.969 . S
C43 O44 1.550 . S
C43 H45 0.973 . S
O44 C43 1.550 . S
O44 C50 1.412 . S
H45 C43 0.973 . S
C46 H39 0.929 . S
C46 C47 1.400 . S
C46 C48 1.364 . S
C47 C46 1.400 . S
C47 C51 1.377 . S
C48 C46 1.364 . S
C48 C49 1.374 . S
C49 H40 0.930 . S
C49 C48 1.374 . S
C49 C50 1.383 . S
C50 O44 1.412 . S
C50 C49 1.383 . S
C50 C51 1.394 . S
C51 H41 0.929 . S
C51 C47 1.377 . S
C51 C50 1.394 . S
H52 C59 0.929 . S
H53 C62 0.930 . S
H54 C64 0.929 . S
H55 C56 0.969 . S
C56 H55 0.969 . S
C56 O57 1.550 . S
C56 H58 0.973 . S
O57 C56 1.550 . S
O57 C63 1.412 . S
H58 C56 0.973 . S
C59 H52 0.929 . S
C59 C60 1.400 1_554 S
C59 C61 1.364 . S
C60 C59 1.400 1_556 S
C60 C64 1.377 . S
C61 C59 1.364 . S
C61 C62 1.374 . S
C62 H53 0.930 . S
C62 C61 1.374 . S
C62 C63 1.383 . S
C63 O57 1.412 . S
C63 C62 1.383 . S
C63 C64 1.394 1_554 S
C64 H54 0.929 . S
C64 C60 1.377 . S
C64 C63 1.394 1_556 S
H65 C72 0.928 1_655 S
H66 C75 0.930 . S
H67 C77 0.928 1_655 S
H68 C69 0.969 . S
C69 H68 0.969 . S
C69 O70 1.550 1_455 S
C69 H71 0.973 1_455 S
O70 C69 1.550 1_655 S
O70 C76 1.412 1_655 S
H71 C69 0.973 1_655 S
C72 H65 0.928 1_455 S
C72 C73 1.400 1_554 S
C72 C74 1.364 . S
C73 C72 1.400 1_556 S
C73 C77 1.377 . S
C74 C72 1.364 . S
C74 C75 1.374 1_455 S
C75 H66 0.930 . S
C75 C74 1.374 1_655 S
C75 C76 1.383 1_655 S
C76 O70 1.412 1_455 S
C76 C75 1.383 1_455 S
C76 C77 1.395 1_554 S
C77 H67 0.928 1_455 S
C77 C73 1.377 . S
C77 C76 1.395 1_556 S
H78 C85 0.928 1_565 S
H79 C88 0.930 . S
H80 C90 0.928 1_565 S
H81 C82 0.969 . S
C82 H81 0.969 . S
C82 O83 1.550 1_545 S
C82 H84 0.973 1_545 S
O83 C82 1.550 1_565 S
O83 C89 1.412 1_565 S
H84 C82 0.973 1_565 S
C85 H78 0.928 1_545 S
C85 C86 1.400 1_554 S
C85 C87 1.364 . S
C86 C85 1.400 1_556 S
C86 C90 1.377 . S
C87 C85 1.364 . S
C87 C88 1.374 1_545 S
C88 H79 0.930 . S
C88 C87 1.374 1_565 S
C88 C89 1.383 1_565 S
C89 O83 1.412 1_545 S
C89 C88 1.383 1_545 S
C89 C90 1.395 1_554 S
C90 H80 0.928 1_545 S
C90 C86 1.377 . S
C90 C89 1.395 1_556 S
H91 C98 0.929 . S
H92 C101 0.930 . S
H93 C103 0.929 . S
H94 C95 0.969 . S
C95 H94 0.969 . S
C95 O96 1.550 . S
C95 H97 0.973 . S
O96 C95 1.550 . S
O96 C102 1.412 . S
H97 C95 0.973 . S
C98 H91 0.929 . S
C98 C99 1.400 1_554 S
C98 C100 1.364 . S
C99 C98 1.400 1_556 S
C99 C103 1.377 . S
C100 C98 1.364 . S
C100 C101 1.374 . S
C101 H92 0.930 . S
C101 C100 1.374 . S
C101 C102 1.383 . S
C102 O96 1.412 . S
C102 C101 1.383 . S
C102 C103 1.394 1_554 S
C103 H93 0.929 . S
C103 C99 1.377 . S
C103 C102 1.394 1_556 S
Tb104 C106 2.809 1_556 S
Tb104 O124 2.484 1_556 S
Tb104 O125 2.440 1_556 S
Tb104 O126 2.658 1_565 S
Tb104 O127 2.409 . S
Tb104 O128 2.378 . S
Tb104 O132 2.325 1_455 S
Tb104 O135 2.341 1_565 S
Tb105 C115 2.809 . S
Tb105 O126 2.325 1_655 S
Tb105 O129 2.341 1_545 S
Tb105 O130 2.484 . S
Tb105 O131 2.440 . S
Tb105 O132 2.658 1_545 S
Tb105 O133 2.409 . S
Tb105 O134 2.378 . S
C106 Tb104 2.809 1_554 S
C106 C107 1.514 . S
C106 O124 1.248 . S
C106 O125 1.266 . S
C107 C106 1.514 . S
C107 C108 1.359 . S
C107 C112 1.348 . S
C108 C107 1.359 . S
C108 C109 1.380 . S
C108 H136 0.929 1_455 S
C109 C108 1.380 . S
C109 C110 1.347 . S
C109 H137 0.931 1_455 S
C110 C109 1.347 . S
C110 C111 1.369 . S
C111 C110 1.369 . S
C111 C112 1.408 . S
C111 H138 0.930 . S
C112 C107 1.348 . S
C112 C111 1.408 . S
C112 H139 0.930 . S
C113 O126 1.281 1_565 S
C113 O127 1.254 . S
C114 O128 1.236 1_655 S
C114 O129 1.266 . S
C115 Tb105 2.809 . S
C115 C116 1.514 . S
C115 O130 1.248 . S
C115 O131 1.266 . S
C116 C115 1.514 . S
C116 C117 1.359 . S
C116 C121 1.348 . S
C117 C116 1.359 . S
C117 C118 1.380 . S
C117 H140 0.929 1_655 S
C118 C117 1.380 . S
C118 C119 1.347 . S
C118 H141 0.931 1_655 S
C119 C118 1.347 . S
C119 C120 1.369 . S
C120 C119 1.369 . S
C120 C121 1.408 . S
C120 H142 0.930 . S
C121 C116 1.348 . S
C121 C120 1.408 . S
C121 H143 0.930 . S
C122 O132 1.281 1_545 S
C122 O133 1.254 . S
C123 O134 1.236 1_455 S
C123 O135 1.266 . S
O124 Tb104 2.484 1_554 S
O124 C106 1.248 . S
O125 Tb104 2.440 1_554 S
O125 C106 1.266 . S
O126 Tb104 2.658 1_545 S
O126 Tb105 2.325 1_455 S
O126 C113 1.281 1_545 S
O127 Tb104 2.409 . S
O127 C113 1.254 . S
O128 Tb104 2.378 . S
O128 C114 1.236 1_455 S
O129 Tb105 2.341 1_565 S
O129 C114 1.266 . S
O130 Tb105 2.484 . S
O130 C115 1.248 . S
O131 Tb105 2.440 . S
O131 C115 1.266 . S
O132 Tb104 2.325 1_655 S
O132 Tb105 2.658 1_565 S
O132 C122 1.281 1_565 S
O133 Tb105 2.409 . S
O133 C122 1.254 . S
O134 Tb105 2.378 . S
O134 C123 1.236 1_655 S
O135 Tb104 2.341 1_545 S
O135 C123 1.266 . S
H136 C108 0.929 1_655 S
H137 C109 0.931 1_655 S
H138 C111 0.930 . S
H139 C112 0.930 . S
H140 C117 0.929 1_455 S
H141 C118 0.931 1_455 S
H142 C120 0.930 . S
H143 C121 0.930 . S
Tb144 C146 2.809 1_556 S
Tb144 O164 2.484 1_556 S
Tb144 O165 2.440 1_556 S
Tb144 O166 2.658 . S
Tb144 O167 2.409 . S
Tb144 O168 2.378 . S
Tb144 O172 2.325 1_545 S
Tb144 O175 2.341 . S
Tb145 C155 2.809 . S
Tb145 O166 2.325 1_565 S
Tb145 O169 2.341 . S
Tb145 O170 2.484 . S
Tb145 O171 2.440 . S
Tb145 O172 2.658 . S
Tb145 O173 2.409 . S
Tb145 O174 2.378 . S
C146 Tb144 2.809 1_554 S
C146 C147 1.514 . S
C146 O164 1.248 . S
C146 O165 1.266 . S
C147 C146 1.514 . S
C147 C148 1.359 . S
C147 C152 1.348 . S
C148 C147 1.359 . S
C148 C149 1.380 . S
C148 H176 0.929 1_545 S
C149 C148 1.380 . S
C149 C150 1.347 . S
C149 H177 0.931 1_545 S
C150 C149 1.347 . S
C150 C151 1.369 . S
C151 C150 1.369 . S
C151 C152 1.408 . S
C151 H178 0.930 . S
C152 C147 1.348 . S
C152 C151 1.408 . S
C152 H179 0.930 . S
C153 O166 1.281 . S
C153 O167 1.254 . S
C154 O168 1.236 1_565 S
C154 O169 1.266 . S
C155 Tb145 2.809 . S
C155 C156 1.514 . S
C155 O170 1.248 . S
C155 O171 1.266 . S
C156 C155 1.514 . S
C156 C157 1.359 . S
C156 C161 1.348 . S
C157 C156 1.359 . S
C157 C158 1.380 . S
C157 H180 0.929 1_565 S
C158 C157 1.380 . S
C158 C159 1.347 . S
C158 H181 0.931 1_565 S
C159 C158 1.347 . S
C159 C160 1.369 . S
C160 C159 1.369 . S
C160 C161 1.408 . S
C160 H182 0.930 . S
C161 C156 1.348 . S
C161 C160 1.408 . S
C161 H183 0.930 . S
C162 O172 1.281 . S
C162 O173 1.254 . S
C163 O174 1.236 1_545 S
C163 O175 1.266 . S
O164 Tb144 2.484 1_554 S
O164 C146 1.248 . S
O165 Tb144 2.440 1_554 S
O165 C146 1.266 . S
O166 Tb144 2.658 . S
O166 Tb145 2.325 1_545 S
O166 C153 1.281 . S
O167 Tb144 2.409 . S
O167 C153 1.254 . S
O168 Tb144 2.378 . S
O168 C154 1.236 1_545 S
O169 Tb145 2.341 . S
O169 C154 1.266 . S
O170 Tb145 2.484 . S
O170 C155 1.248 . S
O171 Tb145 2.440 . S
O171 C155 1.266 . S
O172 Tb144 2.325 1_565 S
O172 Tb145 2.658 . S
O172 C162 1.281 . S
O173 Tb145 2.409 . S
O173 C162 1.254 . S
O174 Tb145 2.378 . S
O174 C163 1.236 1_565 S
O175 Tb144 2.341 . S
O175 C163 1.266 . S
H176 C148 0.929 1_565 S
H177 C149 0.931 1_565 S
H178 C151 0.930 . S
H179 C152 0.930 . S
H180 C157 0.929 1_545 S
H181 C158 0.931 1_545 S
H182 C160 0.930 . S
H183 C161 0.930 . S
Tb184 C186 2.809 1_556 S
Tb184 O204 2.484 1_556 S
Tb184 O205 2.440 1_556 S
Tb184 O206 2.658 . S
Tb184 O207 2.409 . S
Tb184 O208 2.378 . S
Tb184 O212 2.325 . S
Tb184 O215 2.341 . S
Tb185 C195 2.809 . S
Tb185 O206 2.325 . S
Tb185 O209 2.341 . S
Tb185 O210 2.484 . S
Tb185 O211 2.440 . S
Tb185 O212 2.658 . S
Tb185 O213 2.409 . S
Tb185 O214 2.378 . S
C186 Tb184 2.809 1_554 S
C186 C187 1.514 . S
C186 O204 1.248 . S
C186 O205 1.266 . S
C187 C186 1.514 . S
C187 C188 1.359 . S
C187 C192 1.348 . S
C188 C187 1.359 . S
C188 C189 1.380 . S
C188 H216 0.929 . S
C189 C188 1.380 . S
C189 C190 1.347 . S
C189 H217 0.931 . S
C190 C189 1.347 . S
C190 C191 1.369 . S
C191 C190 1.369 . S
C191 C192 1.408 . S
C191 H218 0.930 . S
C192 C187 1.348 . S
C192 C191 1.408 . S
C192 H219 0.930 . S
C193 O206 1.281 . S
C193 O207 1.254 . S
C194 O208 1.236 . S
C194 O209 1.266 . S
C195 Tb185 2.809 . S
C195 C196 1.514 . S
C195 O210 1.248 . S
C195 O211 1.266 . S
C196 C195 1.514 . S
C196 C197 1.359 . S
C196 C201 1.348 . S
C197 C196 1.359 . S
C197 C198 1.380 . S
C197 H220 0.929 . S
C198 C197 1.380 . S
C198 C199 1.347 . S
C198 H221 0.931 . S
C199 C198 1.347 . S
C199 C200 1.369 . S
C200 C199 1.369 . S
C200 C201 1.408 . S
C200 H222 0.930 . S
C201 C196 1.348 . S
C201 C200 1.408 . S
C201 H223 0.930 . S
C202 O212 1.281 . S
C202 O213 1.254 . S
C203 O214 1.236 . S
C203 O215 1.266 . S
O204 Tb184 2.484 1_554 S
O204 C186 1.248 . S
O205 Tb184 2.440 1_554 S
O205 C186 1.266 . S
O206 Tb184 2.658 . S
O206 Tb185 2.325 . S
O206 C193 1.281 . S
O207 Tb184 2.409 . S
O207 C193 1.254 . S
O208 Tb184 2.378 . S
O208 C194 1.236 . S
O209 Tb185 2.341 . S
O209 C194 1.266 . S
O210 Tb185 2.484 . S
O210 C195 1.248 . S
O211 Tb185 2.440 . S
O211 C195 1.266 . S
O212 Tb184 2.325 . S
O212 Tb185 2.658 . S
O212 C202 1.281 . S
O213 Tb185 2.409 . S
O213 C202 1.254 . S
O214 Tb185 2.378 . S
O214 C203 1.236 . S
O215 Tb184 2.341 . S
O215 C203 1.266 . S
H216 C188 0.929 . S
H217 C189 0.931 . S
H218 C191 0.930 . S
H219 C192 0.930 . S
H220 C197 0.929 . S
H221 C198 0.931 . S
H222 C200 0.930 . S
H223 C201 0.930 . S
Tb224 C226 2.809 1_556 S
Tb224 O244 2.484 1_556 S
Tb224 O245 2.440 1_556 S
Tb224 O246 2.658 1_655 S
Tb224 O247 2.409 . S
Tb224 O248 2.378 . S
Tb224 O252 2.325 . S
Tb224 O255 2.341 1_655 S
Tb225 C235 2.809 . S
Tb225 O246 2.325 . S
Tb225 O249 2.341 1_455 S
Tb225 O250 2.484 . S
Tb225 O251 2.440 . S
Tb225 O252 2.658 1_455 S
Tb225 O253 2.409 . S
Tb225 O254 2.378 . S
C226 Tb224 2.809 1_554 S
C226 C227 1.514 . S
C226 O244 1.248 . S
C226 O245 1.266 . S
C227 C226 1.514 . S
C227 C228 1.359 . S
C227 C232 1.348 . S
C228 C227 1.359 . S
C228 C229 1.380 . S
C228 H256 0.929 . S
C229 C228 1.380 . S
C229 C230 1.347 . S
C229 H257 0.931 . S
C230 C229 1.347 . S
C230 C231 1.369 . S
C231 C230 1.369 . S
C231 C232 1.408 . S
C231 H258 0.930 . S
C232 C227 1.348 . S
C232 C231 1.408 . S
C232 H259 0.930 . S
C233 O246 1.277 1_655 S
C233 O247 1.259 . S
C234 O248 1.236 . S
C234 O249 1.266 . S
C235 Tb225 2.809 . S
C235 C236 1.514 . S
C235 O250 1.248 . S
C235 O251 1.266 . S
C236 C235 1.514 . S
C236 C237 1.359 . S
C236 C241 1.348 . S
C237 C236 1.359 . S
C237 C238 1.380 . S
C237 H260 0.929 . S
C238 C237 1.380 . S
C238 C239 1.347 . S
C238 H261 0.931 . S
C239 C238 1.347 . S
C239 C240 1.369 . S
C240 C239 1.369 . S
C240 C241 1.408 . S
C240 H262 0.930 . S
C241 C236 1.348 . S
C241 C240 1.408 . S
C241 H263 0.930 . S
C242 O252 1.275 1_455 S
C242 O253 1.262 . S
C243 O254 1.236 . S
C243 O255 1.266 . S
O244 Tb224 2.484 1_554 S
O244 C226 1.248 . S
O245 Tb224 2.440 1_554 S
O245 C226 1.266 . S
O246 Tb224 2.658 1_455 S
O246 Tb225 2.325 . S
O246 C233 1.277 1_455 S
O247 Tb224 2.409 . S
O247 C233 1.259 . S
O248 Tb224 2.378 . S
O248 C234 1.236 . S
O249 Tb225 2.341 1_655 S
O249 C234 1.266 . S
O250 Tb225 2.484 . S
O250 C235 1.248 . S
O251 Tb225 2.440 . S
O251 C235 1.266 . S
O252 Tb224 2.325 . S
O252 Tb225 2.658 1_655 S
O252 C242 1.275 1_655 S
O253 Tb225 2.409 . S
O253 C242 1.262 . S
O254 Tb225 2.378 . S
O254 C243 1.236 . S
O255 Tb224 2.341 1_455 S
O255 C243 1.266 . S
H256 C228 0.929 . S
H257 C229 0.931 . S
H258 C231 0.930 . S
H259 C232 0.930 . S
H260 C237 0.929 . S
H261 C238 0.931 . S
H262 C240 0.930 . S
H263 C241 0.930 . S
C264 C265 1.387 . S
C264 H268 0.950 . S
C264 C273 1.390 . S
C265 C264 1.387 . S
C265 C267 1.388 1_565 S
H266 C273 0.950 . S
C267 C265 1.388 1_545 S
C267 C269 1.390 . S
C267 H271 0.950 . S
H268 C264 0.950 . S
C269 C267 1.390 . S
C269 C270 1.372 1_545 S
C269 H272 0.950 . S
C270 C269 1.372 1_565 S
C270 C273 1.403 . S
H271 C267 0.950 . S
H272 C269 0.950 . S
C273 C264 1.390 . S
C273 H266 0.950 . S
C273 C270 1.403 . S
C274 C275 1.387 . S
C274 H278 0.950 . S
C274 C283 1.390 . S
C275 C274 1.387 . S
C275 C277 1.387 . S
H276 C283 0.950 . S
C277 C275 1.387 . S
C277 C279 1.390 . S
C277 H281 0.950 . S
H278 C274 0.950 . S
C279 C277 1.390 . S
C279 C280 1.387 . S
C279 H282 0.950 . S
C280 C279 1.387 . S
C280 C283 1.387 . S
H281 C277 0.950 . S
H282 C279 0.950 . S
C283 C274 1.390 . S
C283 H276 0.950 . S
C283 C280 1.387 . S
C284 C285 1.387 . S
C284 H288 0.950 . S
C284 C293 1.390 . S
C285 C284 1.387 . S
C285 C287 1.387 . S
H286 C293 0.950 . S
C287 C285 1.387 . S
C287 C289 1.390 . S
C287 H291 0.950 . S
H288 C284 0.950 . S
C289 C287 1.390 . S
C289 C290 1.387 . S
C289 H292 0.950 . S
C290 C289 1.387 . S
C290 C293 1.387 . S
H291 C287 0.950 . S
H292 C289 0.950 . S
C293 C284 1.390 . S
C293 H286 0.950 . S
C293 C290 1.387 . S
C294 C295 1.396 . S
C294 H298 0.950 . S
C294 C303 1.390 . S
C295 C294 1.396 . S
C295 C297 1.379 1_455 S
H296 C303 0.950 . S
C297 C295 1.379 1_655 S
C297 C299 1.390 . S
C297 H301 0.950 . S
H298 C294 0.950 . S
C299 C297 1.390 . S
C299 C300 1.387 1_655 S
C299 H302 0.950 . S
C300 C299 1.387 1_455 S
C300 C303 1.387 . S
H301 C297 0.950 . S
H302 C299 0.950 . S
C303 C294 1.390 . S
C303 H296 0.950 . S
C303 C300 1.387 . S
C304 C305 1.395 . S
C304 H308 0.950 . S
C304 C313 1.390 . S
C305 C304 1.395 . S
C305 C307 1.380 1_545 S
H306 C313 0.950 . S
C307 C305 1.380 1_565 S
C307 C309 1.390 . S
C307 H311 0.950 . S
H308 C304 0.950 . S
C309 C307 1.390 . S
C309 C310 1.366 1_565 S
C309 H312 0.950 . S
C310 C309 1.366 1_545 S
C310 C313 1.409 . S
H311 C307 0.950 . S
H312 C309 0.950 . S
C313 C304 1.390 . S
C313 H306 0.950 . S
C313 C310 1.409 . S
C314 C315 1.387 . S
C314 H318 0.950 . S
C314 C323 1.390 . S
C315 C314 1.387 . S
C315 C317 1.387 . S
H316 C323 0.950 . S
C317 C315 1.387 . S
C317 C319 1.390 . S
C317 H321 0.950 . S
H318 C314 0.950 . S
C319 C317 1.390 . S
C319 C320 1.387 . S
C319 H322 0.950 . S
C320 C319 1.387 . S
C320 C323 1.387 . S
H321 C317 0.950 . S
H322 C319 0.950 . S
C323 C314 1.390 . S
C323 H316 0.950 . S
C323 C320 1.387 . S
C324 C325 1.387 . S
C324 H328 0.950 . S
C324 C333 1.390 . S
C325 C324 1.387 . S
C325 C327 1.387 . S
H326 C333 0.950 . S
C327 C325 1.387 . S
C327 C329 1.390 . S
C327 H331 0.950 . S
H328 C324 0.950 . S
C329 C327 1.390 . S
C329 C330 1.387 . S
C329 H332 0.950 . S
C330 C329 1.387 . S
C330 C333 1.387 . S
H331 C327 0.950 . S
H332 C329 0.950 . S
C333 C324 1.390 . S
C333 H326 0.950 . S
C333 C330 1.387 . S
C334 C335 1.376 1_455 S
C334 H338 0.950 . S
C334 C343 1.390 . S
C335 C334 1.376 1_655 S
C335 C337 1.399 . S
H336 C343 0.950 . S
C337 C335 1.399 . S
C337 C339 1.390 . S
C337 H341 0.950 . S
H338 C334 0.950 . S
C339 C337 1.390 . S
C339 C340 1.387 . S
C339 H342 0.950 . S
C340 C339 1.387 . S
C340 C343 1.387 1_655 S
H341 C337 0.950 . S
H342 C339 0.950 . S
C343 C334 1.390 . S
C343 H336 0.950 . S
C343 C340 1.387 1_455 S
C344 C345 1.387 . S
C344 H348 0.950 . S
C344 C353 1.390 . S
C345 C344 1.387 . S
C345 C347 1.387 1_655 S
H346 C353 0.950 . S
C347 C345 1.387 1_455 S
C347 C349 1.390 1_455 S
C347 H351 0.950 . S
H348 C344 0.950 . S
C349 C347 1.390 1_655 S
C349 C350 1.387 . S
C349 H352 0.950 . S
C350 C349 1.387 . S
C350 C353 1.387 . S
H351 C347 0.950 . S
H352 C349 0.950 . S
C353 C344 1.390 . S
C353 H346 0.950 . S
C353 C350 1.387 . S
C354 C355 1.389 . S
C354 H358 0.950 1_565 S
C354 C363 1.390 . S
C355 C354 1.389 . S
C355 C357 1.405 . S
H356 C363 0.950 . S
C357 C355 1.405 . S
C357 C359 1.390 . S
C357 H361 0.950 . S
H358 C354 0.950 1_545 S
C359 C357 1.390 . S
C359 C360 1.387 . S
C359 H362 0.950 . S
C360 C359 1.387 . S
C360 C363 1.387 . S
H361 C357 0.950 . S
H362 C359 0.950 . S
C363 C354 1.390 . S
C363 H356 0.950 . S
C363 C360 1.387 . S
C364 C365 1.387 . S
C364 H368 0.950 . S
C364 C373 1.390 . S
C365 C364 1.387 . S
C365 C367 1.387 . S
H366 C373 0.950 . S
C367 C365 1.387 . S
C367 C369 1.390 . S
C367 H371 0.950 . S
H368 C364 0.950 . S
C369 C367 1.390 . S
C369 C370 1.387 . S
C369 H372 0.950 . S
C370 C369 1.387 . S
C370 C373 1.387 . S
H371 C367 0.950 . S
H372 C369 0.950 . S
C373 C364 1.390 . S
C373 H366 0.950 . S
C373 C370 1.387 . S
C374 C375 1.387 . S
C374 H378 0.950 . S
C374 C383 1.390 . S
C375 C374 1.387 . S
C375 C377 1.387 . S
H376 C383 0.950 . S
C377 C375 1.387 . S
C377 C379 1.390 . S
C377 H381 0.950 . S
H378 C374 0.950 . S
C379 C377 1.390 . S
C379 C380 1.387 . S
C379 H382 0.950 . S
C380 C379 1.387 . S
C380 C383 1.387 . S
H381 C377 0.950 . S
H382 C379 0.950 . S
C383 C374 1.390 . S
C383 H376 0.950 . S
C383 C380 1.387 . S
C384 C385 1.387 . S
C384 H388 0.950 . S
C384 C393 1.390 . S
C385 C384 1.387 . S
C385 C387 1.387 . S
H386 C393 0.950 . S
C387 C385 1.387 . S
C387 C389 1.390 . S
C387 H391 0.950 . S
H388 C384 0.950 . S
C389 C387 1.390 . S
C389 C390 1.387 . S
C389 H392 0.950 . S
C390 C389 1.387 . S
C390 C393 1.387 . S
H391 C387 0.950 . S
H392 C389 0.950 . S
C393 C384 1.390 . S
C393 H386 0.950 . S
C393 C390 1.387 . S
C394 C395 1.387 1_565 S
C394 H398 0.950 . S
C394 C403 1.390 1_565 S
C395 C394 1.387 1_545 S
C395 C397 1.387 . S
H396 C403 0.950 . S
C397 C395 1.387 . S
C397 C399 1.390 . S
C397 H401 0.950 . S
H398 C394 0.950 . S
C399 C397 1.390 . S
C399 C400 1.387 . S
C399 H402 0.950 . S
C400 C399 1.387 . S
C400 C403 1.387 . S
H401 C397 0.950 . S
H402 C399 0.950 . S
C403 C394 1.390 1_545 S
C403 H396 0.950 . S
C403 C400 1.387 . S
C404 C405 1.387 . S
C404 H408 0.950 . S
C404 C413 1.390 . S
C405 C404 1.387 . S
C405 C407 1.387 . S
H406 C413 0.950 . S
C407 C405 1.387 . S
C407 C409 1.390 . S
C407 H411 0.950 . S
H408 C404 0.950 . S
C409 C407 1.390 . S
C409 C410 1.387 . S
C409 H412 0.950 . S
C410 C409 1.387 . S
C410 C413 1.387 . S
H411 C407 0.950 . S
H412 C409 0.950 . S
C413 C404 1.390 . S
C413 H406 0.950 . S
C413 C410 1.387 . S
C414 C415 1.387 . S
C414 H418 0.950 . S
C414 C423 1.390 . S
C415 C414 1.387 . S
C415 C417 1.387 . S
H416 C423 0.950 . S
C417 C415 1.387 . S
C417 C419 1.390 . S
C417 H421 0.950 . S
H418 C414 0.950 . S
C419 C417 1.390 . S
C419 C420 1.387 . S
C419 H422 0.950 . S
C420 C419 1.387 . S
C420 C423 1.387 . S
H421 C417 0.950 . S
H422 C419 0.950 . S
C423 C414 1.390 . S
C423 H416 0.950 . S
C423 C420 1.387 . S
C424 C425 1.387 . S
C424 H428 0.950 . S
C424 C433 1.390 . S
C425 C424 1.387 . S
C425 C427 1.387 1_455 S
H426 C433 0.950 . S
C427 C425 1.387 1_655 S
C427 C429 1.390 . S
C427 H431 0.950 1_556 S
H428 C424 0.950 . S
C429 C427 1.390 . S
C429 C430 1.387 1_655 S
C429 H432 0.950 1_556 S
C430 C429 1.387 1_455 S
C430 C433 1.387 . S
H431 C427 0.950 1_554 S
H432 C429 0.950 1_554 S
C433 C424 1.390 . S
C433 H426 0.950 . S
C433 C430 1.387 . S
C434 C435 1.387 . S
C434 H438 0.950 . S
C434 C443 1.390 . S
C435 C434 1.387 . S
C435 C437 1.387 . S
H436 C443 0.950 . S
C437 C435 1.387 . S
C437 C439 1.390 . S
C437 H441 0.950 1_546 S
H438 C434 0.950 . S
C439 C437 1.390 . S
C439 C440 1.387 . S
C439 H442 0.950 1_556 S
C440 C439 1.387 . S
C440 C443 1.387 . S
H441 C437 0.950 1_564 S
H442 C439 0.950 1_554 S
C443 C434 1.390 . S
C443 H436 0.950 . S
C443 C440 1.387 . S
C444 C445 1.387 . S
C444 H448 0.950 . S
C444 C453 1.390 . S
C445 C444 1.387 . S
C445 C447 1.387 . S
H446 C453 0.950 . S
C447 C445 1.387 . S
C447 C449 1.390 . S
C447 H451 0.950 1_556 S
H448 C444 0.950 . S
C449 C447 1.390 . S
C449 C450 1.387 . S
C449 H452 0.950 1_556 S
C450 C449 1.387 . S
C450 C453 1.387 . S
H451 C447 0.950 1_554 S
H452 C449 0.950 1_554 S
C453 C444 1.390 . S
C453 H446 0.950 . S
C453 C450 1.387 . S
C454 C455 1.387 . S
C454 H458 0.950 1_556 S
C454 C463 1.390 . S
C455 C454 1.387 . S
C455 C457 1.387 . S
H456 C463 0.950 1_554 S
C457 C455 1.387 . S
C457 C459 1.390 . S
C457 H461 0.950 . S
H458 C454 0.950 1_554 S
C459 C457 1.390 . S
C459 C460 1.387 . S
C459 H462 0.950 . S
C460 C459 1.387 . S
C460 C463 1.387 . S
H461 C457 0.950 . S
H462 C459 0.950 . S
C463 C454 1.390 . S
C463 H456 0.950 1_556 S
C463 C460 1.387 . S
C464 C465 1.391 . S
C464 H468 0.944 1_655 S
C464 C473 1.394 . S
C465 C464 1.391 . S
C465 C467 1.387 . S
H466 C473 0.950 . S
C467 C465 1.387 . S
C467 C469 1.390 . S
C467 H471 0.950 . S
H468 C464 0.944 1_455 S
C469 C467 1.390 . S
C469 C470 1.387 . S
C469 H472 0.950 . S
C470 C469 1.387 . S
C470 C473 1.387 . S
H471 C467 0.950 . S
H472 C469 0.950 . S
C473 C464 1.394 . S
C473 H466 0.950 . S
C473 C470 1.387 . S
C474 C475 1.387 1_545 S
C474 H478 0.950 . S
C474 C483 1.390 . S
C475 C474 1.387 1_565 S
C475 C477 1.387 . S
H476 C483 0.950 . S
C477 C475 1.387 . S
C477 C479 1.390 . S
C477 H481 0.950 . S
H478 C474 0.950 . S
C479 C477 1.390 . S
C479 C480 1.387 . S
C479 H482 0.950 . S
C480 C479 1.387 . S
C480 C483 1.387 1_565 S
H481 C477 0.950 . S
H482 C479 0.950 . S
C483 C474 1.390 . S
C483 H476 0.950 . S
C483 C480 1.387 1_545 S
C484 C485 1.387 . S
C484 H488 0.950 . S
C484 C493 1.390 . S
C485 C484 1.387 . S
C485 C487 1.387 . S
H486 C493 0.950 . S
C487 C485 1.387 . S
C487 C489 1.390 . S
C487 H491 0.950 . S
H488 C484 0.950 . S
C489 C487 1.390 . S
C489 C490 1.387 . S
C489 H492 0.950 . S
C490 C489 1.387 . S
C490 C493 1.387 . S
H491 C487 0.950 . S
H492 C489 0.950 . S
C493 C484 1.390 . S
C493 H486 0.950 . S
C493 C490 1.387 . S
C494 C495 1.387 . S
C494 H498 0.950 . S
C494 C503 1.390 . S
C495 C494 1.387 . S
C495 C497 1.387 . S
H496 C503 0.950 . S
C497 C495 1.387 . S
C497 C499 1.390 . S
C497 H501 0.950 . S
H498 C494 0.950 . S
C499 C497 1.390 . S
C499 C500 1.387 . S
C499 H502 0.950 . S
C500 C499 1.387 . S
C500 C503 1.387 . S
H501 C497 0.950 . S
H502 C499 0.950 . S
C503 C494 1.390 . S
C503 H496 0.950 . S
C503 C500 1.387 . S
C265 C82 1.753 1_565 S
C270 C113 2.190 . S
C280 C153 2.213 . S
C275 C95 1.756 . S
C290 C193 2.226 . S
C285 C56 1.768 . S
C300 C233 2.203 1_455 S
C295 C69 1.763 . S
C310 C122 2.191 1_554 S
C305 C30 1.749 . S
C315 C43 1.787 . S
C320 C162 2.215 1_554 S
C325 C4 1.808 . S
C330 C202 2.226 1_554 S
C335 C17 1.763 1_655 S
C340 C242 2.204 1_654 S
C350 C119 0.796 . S
C345 C74 0.801 1_655 S
C360 C159 0.797 . S
C355 C87 0.797 1_565 S
C370 C199 0.786 . S
C365 C100 0.788 . S
C375 C61 0.783 . S
C380 C239 0.778 . S
C385 C22 0.803 . S
C390 C110 0.802 . S
C400 C150 0.790 . S
C395 C35 0.795 . S
C410 C190 0.785 . S
C405 C48 0.788 . S
C415 C9 0.782 . S
C420 C230 0.780 . S
C425 C73 2.257 . S
C430 C123 2.569 . S
C435 C86 2.206 . S
C440 C163 2.522 . S
C450 C203 2.504 . S
C445 C99 2.188 . S
C460 C243 2.554 . S
C455 C60 2.232 . S
C465 C21 2.257 1_655 S
C470 C114 2.578 . S
C480 C154 2.522 . S
C475 C34 2.207 1_565 S
C490 C194 2.502 . S
C485 C47 2.193 . S
C495 C8 2.243 . S
C500 C234 2.559 . S
