# Generated by pormake.
# Topology zzz, (3,6)-cn, num edge types: 1
# Building blocks:
#     Node 0, Type 0, BuildingBlock: MIDCAF_clean_linker_0, # of connection points: 3
#     Node 1, Type 0, BuildingBlock: MIDCAF_clean_linker_0, # of connection points: 3
#     Node 2, Type 0, BuildingBlock: MIDCAF_clean_linker_0, # of connection points: 3
#     Node 3, Type 0, BuildingBlock: MIDCAF_clean_linker_0, # of connection points: 3
#     Node 4, Type 0, BuildingBlock: MIDCAF_clean_linker_0, # of connection points: 3
#     Node 5, Type 0, BuildingBlock: MIDCAF_clean_linker_0, # of connection points: 3
#     Node 6, Type 0, BuildingBlock: MIDCAF_clean_linker_0, # of connection points: 3
#     Node 7, Type 0, BuildingBlock: MIDCAF_clean_linker_0, # of connection points: 3
#     Node 8, Type 1, BuildingBlock: BETFAJ_clean_sbu_0, # of connection points: 6
#     Node 9, Type 1, BuildingBlock: BETFAJ_clean_sbu_0, # of connection points: 6
#     Node 10, Type 1, BuildingBlock: BETFAJ_clean_sbu_0, # of connection points: 6
#     Node 11, Type 1, BuildingBlock: BETFAJ_clean_sbu_0, # of connection points: 6
#     Edge 12, Type (0, 1), BuildingBlock: ZUJKAS_clean_linker_0, # of connection points: 2
#     Edge 13, Type (0, 1), BuildingBlock: ZUJKAS_clean_linker_0, # of connection points: 2
#     Edge 14, Type (0, 1), BuildingBlock: ZUJKAS_clean_linker_0, # of connection points: 2
#     Edge 15, Type (0, 1), BuildingBlock: ZUJKAS_clean_linker_0, # of connection points: 2
#     Edge 16, Type (0, 1), BuildingBlock: ZUJKAS_clean_linker_0, # of connection points: 2
#     Edge 17, Type (0, 1), BuildingBlock: ZUJKAS_clean_linker_0, # of connection points: 2
#     Edge 18, Type (0, 1), BuildingBlock: ZUJKAS_clean_linker_0, # of connection points: 2
#     Edge 19, Type (0, 1), BuildingBlock: ZUJKAS_clean_linker_0, # of connection points: 2
#     Edge 20, Type (0, 1), BuildingBlock: ZUJKAS_clean_linker_0, # of connection points: 2
#     Edge 21, Type (0, 1), BuildingBlock: ZUJKAS_clean_linker_0, # of connection points: 2
#     Edge 22, Type (0, 1), BuildingBlock: ZUJKAS_clean_linker_0, # of connection points: 2
#     Edge 23, Type (0, 1), BuildingBlock: ZUJKAS_clean_linker_0, # of connection points: 2
#     Edge 24, Type (0, 1), BuildingBlock: ZUJKAS_clean_linker_0, # of connection points: 2
#     Edge 25, Type (0, 1), BuildingBlock: ZUJKAS_clean_linker_0, # of connection points: 2
#     Edge 26, Type (0, 1), BuildingBlock: ZUJKAS_clean_linker_0, # of connection points: 2
#     Edge 27, Type (0, 1), BuildingBlock: ZUJKAS_clean_linker_0, # of connection points: 2
#     Edge 28, Type (0, 1), BuildingBlock: ZUJKAS_clean_linker_0, # of connection points: 2
#     Edge 29, Type (0, 1), BuildingBlock: ZUJKAS_clean_linker_0, # of connection points: 2
#     Edge 30, Type (0, 1), BuildingBlock: ZUJKAS_clean_linker_0, # of connection points: 2
#     Edge 31, Type (0, 1), BuildingBlock: ZUJKAS_clean_linker_0, # of connection points: 2
#     Edge 32, Type (0, 1), BuildingBlock: ZUJKAS_clean_linker_0, # of connection points: 2
#     Edge 33, Type (0, 1), BuildingBlock: ZUJKAS_clean_linker_0, # of connection points: 2
#     Edge 34, Type (0, 1), BuildingBlock: ZUJKAS_clean_linker_0, # of connection points: 2
#     Edge 35, Type (0, 1), BuildingBlock: ZUJKAS_clean_linker_0, # of connection points: 2
# Relax obj value: 0.418
# Max RMSD: 0.276
# Mean RMSD: 0.253
data_MOF--net-zzz--node1-BETFAJ_clean_sbu_0--node2-MIDCAF_clean_linker_0--edge1-ZUJKAS_clean_linker_0
_symmetry_space_group_name_H-M    P1
_symmetry_Int_Tables_number       1
_symmetry_cell_setting            triclinic
loop_
_symmetry_equiv_pos_as_xyz
'x, y, z'
_cell_length_a     73.754831
_cell_length_b     73.752704
_cell_length_c     22.579313
_cell_angle_alpha  89.824044
_cell_angle_beta   89.835366
_cell_angle_gamma 90.088797
loop_
_atom_site_label
_atom_site_type_symbol
_atom_site_fract_x
_atom_site_fract_y
_atom_site_fract_z
_atom_type_partial_charge
C0 C 0.799 0.55068 0.37244 0.0
C1 C 0.79804 0.53663 0.41453 0.0
C2 C 0.78255 0.52539 0.41514 0.0
C3 C 0.76872 0.52774 0.37298 0.0
H4 H 0.70768 0.51254 0.25746 0.0
H5 H 0.67629 0.50892 0.22362 0.0
H6 H 0.67656 0.56445 0.16178 0.0
H7 H 0.70752 0.56792 0.19638 0.0
H8 H 0.74047 0.54039 0.06284 0.0
H9 H 0.75567 0.53605 0.96788 0.0
H10 H 0.80762 0.5416 0.05403 0.0
H11 H 0.79258 0.5463 0.14816 0.0
H12 H 0.78708 0.56323 0.29653 0.0
H13 H 0.81077 0.55945 0.37 0.0
H14 H 0.78136 0.51449 0.44718 0.0
H15 H 0.75735 0.51843 0.37265 0.0
N16 N 0.73994 0.54022 0.28045 0.0
N17 N 0.7381 0.54266 0.17652 0.0
N18 N 0.76637 0.5431 0.22235 0.0
C19 C 0.72979 0.5411 0.22996 0.0
C20 C 0.75636 0.54351 0.17219 0.0
C21 C 0.7584 0.5415 0.27642 0.0
C22 C 0.70984 0.54058 0.23023 0.0
C23 C 0.70063 0.52415 0.23926 0.0
C24 C 0.68277 0.52203 0.21892 0.0
C25 C 0.6739 0.53632 0.18917 0.0
C26 C 0.68275 0.55319 0.18494 0.0
C27 C 0.70053 0.55524 0.20495 0.0
C28 C 0.76531 0.54345 0.11341 0.0
C29 C 0.75514 0.54103 0.06135 0.0
C30 C 0.76382 0.53848 0.00689 0.0
C31 C 0.78284 0.5384 1.00335 0.0
C32 C 0.79294 0.54183 0.05487 0.0
C33 C 0.78429 0.54436 0.10917 0.0
C34 C 0.77037 0.54115 0.32896 0.0
C35 C 0.78543 0.55282 0.3301 0.0
C36 C 0.98787 0.79032 0.38378 0.0
C37 C 0.99951 0.79214 0.4326 0.0
C38 C 0.01267 0.77869 0.44273 0.0
C39 C 0.01497 0.76443 0.40253 0.0
H40 H 0.98684 0.70469 0.26477 0.0
H41 H 0.98265 0.67372 0.22715 0.0
H42 H 0.03911 0.6722 0.17607 0.0
H43 H 0.04314 0.70288 0.21294 0.0
H44 H 0.05148 0.74168 0.12724 0.0
H45 H 0.06676 0.75958 0.05009 0.0
H46 H 0.03801 0.80731 0.10812 0.0
H47 H 0.0229 0.7897 0.18477 0.0
H48 H 0.98233 0.77608 0.3031 0.0
H49 H 0.97775 0.80056 0.37447 0.0
H50 H 0.02179 0.77974 0.48008 0.0
H51 H 0.02607 0.75503 0.4089 0.0
N52 N 1.00957 0.73473 0.29682 0.0
N53 N 0.02579 0.73553 0.20675 0.0
N54 N 0.01937 0.76251 0.25629 0.0
C55 C 0.01706 0.7259 0.24964 0.0
C56 C 0.02689 0.75382 0.20959 0.0
C57 C 0.01088 0.75316 0.30006 0.0
C58 C 0.0153 0.70612 0.24166 0.0
C59 C 0.99843 0.69743 0.2473 0.0
C60 C 0.99601 0.67981 0.22527 0.0
C61 C 0.01053 0.67054 0.19835 0.0
C62 C 0.02769 0.67884 0.19703 0.0
C63 C 0.03 0.69645 0.21799 0.0
C64 C 0.036 0.76429 0.16216 0.0
C65 C 0.04837 0.75598 0.12323 0.0
C66 C 0.05716 0.76618 0.07929 0.0
C67 C 0.05341 0.78474 0.07294 0.0
C68 C 0.04094 0.79295 0.11149 0.0
C69 C 0.0324 0.78288 0.15574 0.0
C70 C 1.00428 0.76352 0.35132 0.0
C71 C 0.9904 0.77626 0.34312 0.0
C72 C 0.72627 0.97552 0.40375 0.0
C73 C 0.72622 0.98981 0.44482 0.0
C74 C 0.74099 1.00201 0.44449 0.0
C75 C 0.75495 1.0004 0.40225 0.0
H76 H 0.82388 0.97839 0.30464 0.0
H77 H 0.85506 0.98339 0.26996 0.0
H78 H 0.8368 0.02911 0.16601 0.0
H79 H 0.80598 0.02407 0.20101 0.0
H80 H 0.78111 0.99161 0.09238 0.0
H81 H 0.76484 0.98752 0.99931 0.0
H82 H 0.72297 0.95775 0.09204 0.0
H83 H 0.73912 0.96177 0.18477 0.0
H84 H 0.73913 0.96326 0.32917 0.0
H85 H 0.71511 0.96599 0.40188 0.0
H86 H 0.7415 0.01307 0.47585 0.0
H87 H 0.76568 0.01044 0.40131 0.0
N88 N 0.7838 0.99349 0.30863 0.0
N89 N 0.78653 0.98883 0.20578 0.0
N90 N 0.75961 0.98114 0.25414 0.0
C91 C 0.79385 0.99432 0.25775 0.0
C92 C 0.76949 0.98211 0.20359 0.0
C93 C 0.7665 0.98682 0.30668 0.0
C94 C 0.81265 1.00102 0.25607 0.0
C95 C 0.8268 0.99002 0.27676 0.0
C96 C 0.84457 0.99273 0.2561 0.0
C97 C 0.84844 1.00652 0.21455 0.0
C98 C 0.83445 0.01848 0.19835 0.0
C99 C 0.81675 0.01567 0.21857 0.0
C100 C 0.76124 0.97726 0.14616 0.0
C101 C 0.76864 0.98384 0.09272 0.0
C102 C 0.75935 0.98152 0.03939 0.0
C103 C 0.74265 0.97235 0.03844 0.0
C104 C 0.73593 0.96469 0.0912 0.0
C105 C 0.74508 0.96718 0.14452 0.0
C106 C 0.75428 0.9867 0.35914 0.0
C107 C 0.74005 0.97402 0.3616 0.0
C108 C 0.57202 0.73758 0.08753 0.0
C109 C 0.56559 0.74469 0.03373 0.0
C110 C 0.55754 0.76192 0.0332 0.0
C111 C 0.55484 0.77132 0.08612 0.0
H112 H 0.50636 0.80958 0.2479 0.0
H113 H 0.49765 0.83902 0.20596 0.0
H114 H 0.55423 0.85398 0.19381 0.0
H115 H 0.56263 0.82491 0.23642 0.0
H116 H 0.51912 0.76827 0.38748 0.0
H117 H 0.51419 0.74462 0.46289 0.0
H118 H 0.56015 0.71505 0.39413 0.0
H119 H 0.56521 0.73848 0.32102 0.0
H120 H 0.5733 0.74054 0.1816 0.0
H121 H 0.5781 0.72423 0.08934 0.0
H122 H 0.55248 0.76767 0.99226 0.0
H123 H 0.54775 0.78416 0.08461 0.0
N124 N 0.54818 0.789 0.19873 0.0
N125 N 0.53852 0.78535 0.29767 0.0
N126 N 0.55193 0.76113 0.24598 0.0
C127 C 0.54075 0.79603 0.24858 0.0
C128 C 0.54443 0.76777 0.2965 0.0
C129 C 0.55375 0.77158 0.19692 0.0
C130 C 0.53513 0.81516 0.24614 0.0
C131 C 0.51678 0.8196 0.23904 0.0
C132 C 0.51186 0.83633 0.21399 0.0
C133 C 0.52524 0.84883 0.19551 0.0
C134 C 0.5435 0.84489 0.20785 0.0
C135 C 0.54837 0.82822 0.23259 0.0
C136 C 0.54247 0.75524 0.34793 0.0
C137 C 0.52835 0.75689 0.38955 0.0
C138 C 0.52545 0.74325 0.43235 0.0
C139 C 0.53676 0.72784 0.43475 0.0
C140 C 0.5513 0.72675 0.3946 0.0
C141 C 0.5541 0.74019 0.35202 0.0
C142 C 0.55987 0.76348 0.14054 0.0
C143 C 0.5691 0.74684 0.14047 0.0
C144 C 0.24607 0.50296 0.9499 0.0
C145 C 0.23595 0.49116 0.91369 0.0
C146 C 0.24057 0.47267 0.91316 0.0
C147 C 0.25375 0.46591 0.95154 0.0
H148 H 0.32264 0.48758 0.07413 0.0
H149 H 0.34995 0.49768 0.12715 0.0
H150 H 0.32597 0.48011 0.29237 0.0
H151 H 0.29907 0.47026 0.24034 0.0
H152 H 0.26627 0.44494 0.24323 0.0
H153 H 0.24076 0.432 0.29657 0.0
H154 H 0.21951 0.41058 0.13276 0.0
H155 H 0.24474 0.42432 0.07894 0.0
H156 H 0.26602 0.50533 0.01874 0.0
H157 H 0.24304 0.51732 0.95081 0.0
H158 H 0.23305 0.4631 0.88645 0.0
H159 H 0.25598 0.45139 0.95315 0.0
N160 N 0.28659 0.47698 0.06958 0.0
N161 N 0.28366 0.45637 0.14895 0.0
N162 N 0.26316 0.45532 0.07063 0.0
C163 C 0.29279 0.47019 0.12218 0.0
C164 C 0.26894 0.44878 0.12328 0.0
C165 C 0.27174 0.46935 0.0435 0.0
C166 C 0.30872 0.47805 0.15293 0.0
C167 C 0.32318 0.48615 0.12184 0.0
C168 C 0.33884 0.4918 0.1521 0.0
C169 C 0.34012 0.48974 0.21401 0.0
C170 C 0.32539 0.48213 0.24487 0.0
C171 C 0.30997 0.47633 0.21482 0.0
C172 C 0.2572 0.4361 0.1567 0.0
C173 C 0.2565 0.43695 0.21879 0.0
C174 C 0.24184 0.4294 0.24952 0.0
C175 C 0.22776 0.42067 0.21874 0.0
C176 C 0.22983 0.41772 0.15757 0.0
C177 C 0.24432 0.42552 0.12674 0.0
C178 C 0.26277 0.47744 0.99121 0.0
C179 C 0.25944 0.49616 0.98817 0.0
C180 C 1.00325 0.23457 0.96471 0.0
C181 C 0.01855 0.23254 0.92815 0.0
C182 C 0.03289 0.24509 0.93345 0.0
C183 C 0.03227 0.25879 0.97654 0.0
H184 H 0.05738 0.313 0.13428 0.0
H185 H 0.06382 0.34373 0.16947 0.0
H186 H 1.00689 0.35685 0.15509 0.0
H187 H 1.00078 0.32638 0.11873 0.0
H188 H 1.00996 0.28758 0.28393 0.0
H189 H 1.003 0.27186 0.37697 0.0
H190 H 1.00003 0.22106 0.28294 0.0
H191 H 1.00701 0.23648 0.19074 0.0
H192 H 0.99122 0.2485 0.03779 0.0
H193 H 0.99208 0.22505 0.96243 0.0
H194 H 0.04483 0.24391 0.90571 0.0
H195 H 0.04384 0.2677 0.98185 0.0
N196 N 0.0237 0.28871 0.06915 0.0
N197 N 0.01903 0.29006 0.17241 0.0
N198 N 0.01337 0.26312 0.12177 0.0
C199 C 0.02394 0.29824 0.12086 0.0
C200 C 0.01384 0.27245 0.17331 0.0
C201 C 0.01823 0.27103 0.06976 0.0
C202 C 0.02867 0.31756 0.12291 0.0
C203 C 0.04647 0.3228 0.13617 0.0
C204 C 0.05007 0.34029 0.15715 0.0
C205 C 0.03585 0.35275 0.1659 0.0
C206 C 0.01823 0.34778 0.14831 0.0
C207 C 0.01469 0.33033 0.12729 0.0
C208 C 1.00913 0.26329 0.22978 0.0
C209 C 1.00783 0.27305 0.28315 0.0
C210 C 1.0038 0.2641 0.3364 0.0
C211 C 1.00122 0.24524 0.33722 0.0
C212 C 1.00231 0.23557 0.28384 0.0
C213 C 1.00619 0.24447 0.23082 0.0
C214 C 0.01747 0.25988 0.01558 0.0
C215 C 1.00279 0.24797 0.00812 0.0
C216 C 0.27565 0.01424 0.94411 0.0
C217 C 0.28097 0.02532 0.89617 0.0
C218 C 0.27025 0.04051 0.88223 0.0
C219 C 0.25595 0.04568 0.91929 0.0
H220 H 0.19936 0.01787 0.0764 0.0
H221 H 0.17041 0.01048 0.12488 0.0
H222 H 0.17057 0.06288 0.20968 0.0
H223 H 0.1991 0.07024 0.16172 0.0
H224 H 0.24556 0.07401 0.21644 0.0
H225 H 0.27062 0.08552 0.27609 0.0
H226 H 0.30206 0.09437 0.11676 0.0
H227 H 0.27706 0.08339 0.0576 0.0
H228 H 0.2586 0.01162 0.02092 0.0
H229 H 0.28362 1.00251 0.95648 0.0
H230 H 0.27368 0.04914 0.84493 0.0
H231 H 0.24915 0.05844 0.9109 0.0
N232 N 0.2265 0.0403 0.0418 0.0
N233 N 0.23029 0.06146 0.1189 0.0
N234 N 0.25319 0.05757 0.04863 0.0
C235 C 0.21982 0.04893 0.09076 0.0
C236 C 0.24697 0.06585 0.09797 0.0
C237 C 0.24318 0.04491 0.02036 0.0
C238 C 0.20162 0.0446 0.11542 0.0
C239 C 0.19306 0.02786 0.10482 0.0
C240 C 0.17655 0.0236 0.1328 0.0
C241 C 0.16815 0.03612 0.17102 0.0
C242 C 0.1765 0.05301 0.17995 0.0
C243 C 0.193 0.05716 0.15276 0.0
C244 C 0.25952 0.07735 0.13243 0.0
C245 C 0.25758 0.07904 0.1941 0.0
C246 C 0.27198 0.08553 0.22831 0.0
C247 C 0.28849 0.0905 0.20135 0.0
C248 C 0.28958 0.09072 0.1392 0.0
C249 C 0.27525 0.08422 0.10515 0.0
C250 C 0.25184 0.03558 0.97031 0.0
C251 C 0.2612 0.01935 0.98088 0.0
C252 C 0.43097 0.29148 0.17852 0.0
C253 C 0.42849 0.28638 0.2381 0.0
C254 C 0.42989 0.2679 0.25315 0.0
C255 C 0.4356 0.25522 0.21105 0.0
H256 H 0.44465 0.19951 0.1626 0.0
H257 H 0.45244 0.17087 0.2086 0.0
H258 H 0.5047 0.17205 0.12182 0.0
H259 H 0.4969 0.20121 0.0758 0.0
H260 H 0.45568 0.25364 0.92344 0.0
H261 H 0.46466 0.27875 0.8589 0.0
H262 H 0.51193 0.2878 0.96762 0.0
H263 H 0.50312 0.26225 0.03048 0.0
H264 H 0.43936 0.2836 0.09204 0.0
H265 H 0.43018 0.30554 0.1648 0.0
H266 H 0.42763 0.26339 0.29825 0.0
H267 H 0.43777 0.24134 0.22511 0.0
N268 N 0.45427 0.23156 0.12813 0.0
N269 N 0.47425 0.22902 0.04693 0.0
N270 N 0.45825 0.25606 0.06388 0.0
C271 C 0.466 0.22145 0.09541 0.0
C272 C 0.47004 0.24634 0.03075 0.0
C273 C 0.45034 0.24888 0.11274 0.0
C274 C 0.47022 0.20277 0.11587 0.0
C275 C 0.45776 0.19362 0.1526 0.0
C276 C 0.46216 0.17705 0.17867 0.0
C277 C 0.47921 0.16912 0.16906 0.0
C278 C 0.4915 0.17788 0.13049 0.0
C279 C 0.48699 0.19451 0.10378 0.0
C280 C 0.4789 0.25583 0.9811 0.0
C281 C 0.46847 0.26043 0.93146 0.0
C282 C 0.47346 0.27505 0.89527 0.0
C283 C 0.48881 0.28564 0.90873 0.0
C284 C 0.50009 0.27996 0.9555 0.0
C285 C 0.49515 0.26521 0.99139 0.0
C286 C 0.43992 0.2608 0.15308 0.0
C287 C 0.43651 0.27884 0.13655 0.0
Sm288 Sm 0.02063 1.00663 0.7419 0.0
Sm289 Sm 0.99424 0.01663 0.63753 0.0
C290 C 0.03381 0.99426 0.84238 0.0
C291 C 0.04605 0.97907 0.85417 0.0
C292 C 0.0502 0.9669 0.80852 0.0
C293 C 0.0611 0.95185 0.81961 0.0
C294 C 0.06814 0.94874 0.87656 0.0
C295 C 0.06446 0.96139 0.92167 0.0
C296 C 0.05345 0.97644 0.91053 0.0
C297 C 0.0403 1.00785 0.63717 0.0
C298 C 1.00518 0.97489 0.65209 0.0
C299 C 0.97731 0.03256 0.54916 0.0
C300 C 0.96921 0.05076 0.54687 0.0
C301 C 0.97298 0.06217 0.49874 0.0
C302 C 0.96852 0.08055 0.50128 0.0
C303 C 0.96012 0.08783 0.55203 0.0
C304 C 0.9555 0.07611 0.59889 0.0
C305 C 0.96011 0.05778 0.59652 0.0
C306 C 0.97808 1.00792 0.74399 0.0
C307 C 0.01204 0.04959 0.71967 0.0
O308 O 0.01776 0.98967 0.82243 0.0
O309 O 0.04109 1.00791 0.81353 0.0
O310 O 0.02362 0.01062 0.64394 0.0
O311 O 0.04743 1.0042 0.6882 0.0
O312 O 1.0098 0.97907 0.70711 0.0
O313 O 1.00134 0.98749 0.61234 0.0
O314 O 0.99499 0.0324 0.55369 0.0
O315 O 0.96936 0.02077 0.58414 0.0
O316 O 0.99212 0.01754 0.73751 0.0
O317 O 0.97174 1.00296 0.6929 0.0
O318 O 1.00215 0.04486 0.67341 0.0
O319 O 0.01987 0.03752 0.75464 0.0
H320 H 0.04464 0.96882 0.76457 0.0
H321 H 0.06336 0.94227 0.78411 0.0
H322 H 0.06984 0.95948 0.96583 0.0
H323 H 0.05049 0.98584 0.94603 0.0
H324 H 0.98026 0.05707 0.4605 0.0
H325 H 0.97259 0.08919 0.46473 0.0
H326 H 0.94884 0.08121 0.63826 0.0
H327 H 0.95727 0.04931 0.63473 0.0
Sm328 Sm 0.51025 0.02075 0.73573 0.0
Sm329 Sm 0.50035 0.99779 0.61963 0.0
C330 C 0.51985 0.03373 0.83896 0.0
C331 C 0.53875 0.03454 0.86018 0.0
C332 C 0.54441 0.022 0.90322 0.0
C333 C 0.56268 0.01731 0.90769 0.0
C334 C 0.57558 0.02535 0.87 0.0
C335 C 0.57028 0.03949 0.83227 0.0
C336 C 0.55198 0.04402 0.82718 0.0
C337 C 0.50913 0.03924 0.63006 0.0
C338 C 0.54324 1.0042 0.65638 0.0
C339 C 0.49138 0.99217 0.50848 0.0
C340 C 0.47793 1.00106 0.46944 0.0
C341 C 0.48314 0.01545 0.43199 0.0
C342 C 0.47009 0.02557 0.40165 0.0
C343 C 0.45159 0.0214 0.40779 0.0
C344 C 0.44647 1.00643 0.44269 0.0
C345 C 0.45948 0.99635 0.47305 0.0
C346 C 0.50733 0.97477 0.71408 0.0
C347 C 0.4672 0.01194 0.70701 0.0
O348 O 0.51355 0.01725 0.83256 0.0
O349 O 0.51568 0.04434 0.79433 0.0
O350 O 0.49814 0.0271 0.64639 0.0
O351 O 0.52096 0.04255 0.67112 0.0
O352 O 0.53805 1.00918 0.71005 0.0
O353 O 0.5315 1.00122 0.61307 0.0
O354 O 0.50539 1.0021 0.52379 0.0
O355 O 0.48488 0.9824 0.55246 0.0
O356 O 0.50781 0.99177 0.71251 0.0
O357 O 0.50335 0.96882 0.66146 0.0
O358 O 0.47194 1.00489 0.65529 0.0
O359 O 0.47919 0.01822 0.74556 0.0
H360 H 0.53454 0.01452 0.92929 0.0
H361 H 0.56657 1.0066 0.93805 0.0
H362 H 0.58004 0.04594 0.80304 0.0
H363 H 0.54813 0.05378 0.79358 0.0
H364 H 0.49726 0.01933 0.4278 0.0
H365 H 0.47444 0.03687 0.37434 0.0
H366 H 0.43231 1.00294 0.44867 0.0
H367 H 0.45496 0.98528 0.5011 0.0
Sm368 Sm 0.49869 0.51545 0.74681 0.0
Sm369 Sm 0.52192 0.50448 0.63252 0.0
C370 C 0.48689 0.52609 0.85051 0.0
C371 C 0.48988 0.54459 0.8739 0.0
C372 C 0.50567 0.5483 0.90645 0.0
C373 C 0.51245 0.56594 0.90939 0.0
C374 C 0.50338 0.58022 0.88084 0.0
C375 C 0.48646 0.5769 0.85475 0.0
C376 C 0.47973 0.55923 0.85141 0.0
C377 C 0.48014 0.51295 0.642 0.0
C378 C 0.51555 0.54752 0.66337 0.0
C379 C 0.52866 0.49301 0.52471 0.0
C380 C 0.52075 0.47736 0.49292 0.0
C381 C 0.50369 0.47875 0.46566 0.0
C382 C 0.49431 0.46317 0.44842 0.0
C383 C 0.50186 0.44592 0.45772 0.0
C384 C 0.5196 0.44467 0.47991 0.0
C385 C 0.52896 0.46022 0.49719 0.0
C386 C 0.54469 0.51364 0.72546 0.0
C387 C 0.50681 0.47205 0.72197 0.0
O388 O 0.50154 0.5162 0.84464 0.0
O389 O 0.47617 0.5249 0.80447 0.0
O390 O 0.49242 0.50224 0.65902 0.0
O391 O 0.47664 0.52503 0.68214 0.0
O392 O 0.51097 0.5428 0.71802 0.0
O393 O 0.51808 0.53538 0.62093 0.0
O394 O 0.51769 0.50664 0.5355 0.0
O395 O 0.53898 0.4889 0.57008 0.0
O396 O 0.5277 0.51358 0.72398 0.0
O397 O 0.55073 0.50858 0.67394 0.0
O398 O 0.51487 0.47644 0.67142 0.0
O399 O 0.49993 0.48433 0.75846 0.0
H400 H 0.51366 0.53738 0.92512 0.0
H401 H 0.52528 0.56826 0.93133 0.0
H402 H 0.4791 0.5877 0.83289 0.0
H403 H 0.46739 0.55692 0.82664 0.0
H404 H 0.49709 0.49178 0.46072 0.0
H405 H 0.48076 0.46464 0.43077 0.0
H406 H 0.52607 0.43161 0.48569 0.0
H407 H 0.54225 0.45869 0.51686 0.0
Sm408 Sm 0.01194 0.50063 0.72344 0.0
Sm409 Sm 0.02166 0.52734 0.6168 0.0
C410 C 0.99564 0.48347 0.81121 0.0
C411 C 0.97632 0.47876 0.81944 0.0
C412 C 0.96607 0.48778 0.86262 0.0
C413 C 0.94723 0.48605 0.8638 0.0
C414 C 0.93825 0.47511 0.8221 0.0
C415 C 0.94863 0.4652 0.78126 0.0
C416 C 0.96746 0.46703 0.77982 0.0
C417 C 0.02487 0.48472 0.62194 0.0
C418 C 0.97902 0.51794 0.63718 0.0
C419 C 0.03497 0.53659 0.51268 0.0
C420 C 0.04878 0.52714 0.47644 0.0
C421 C 0.04409 0.51171 0.44334 0.0
C422 C 0.05753 0.50013 0.42191 0.0
C423 C 0.0759 0.50404 0.43176 0.0
C424 C 0.08064 0.52032 0.4598 0.0
C425 C 0.0672 0.53177 0.48203 0.0
C426 C 0.01504 0.54728 0.71793 0.0
C427 C 0.0532 0.51265 0.70967 0.0
O428 O 0.9995 0.5008 0.81318 0.0
O429 O 1.00422 0.47504 0.76864 0.0
O430 O 0.01394 0.49783 0.62441 0.0
O431 O 0.02899 0.47905 0.67478 0.0
O432 O 0.98388 0.50741 0.68222 0.0
O433 O 0.99089 0.52712 0.60477 0.0
O434 O 0.01929 0.52838 0.51883 0.0
O435 O 0.04085 0.54354 0.56241 0.0
O436 O 0.0146 0.53036 0.71192 0.0
O437 O 0.01848 0.55475 0.66682 0.0
O438 O 0.04895 0.51647 0.65392 0.0
O439 O 0.04065 0.50884 0.74972 0.0
H440 H 0.97255 0.49692 0.89355 0.0
H441 H 0.93967 0.49405 0.89547 0.0
H442 H 0.94217 0.45643 0.74924 0.0
H443 H 0.97495 0.45981 0.74599 0.0
H444 H 0.03003 0.50803 0.4367 0.0
H445 H 0.05357 0.48782 0.39925 0.0
H446 H 0.09474 0.52367 0.46769 0.0
H447 H 0.07127 0.54368 0.50664 0.0
H448 H 0.13826 0.05736 0.18909 0.0
H449 H 0.11306 0.05173 0.25748 0.0
H450 H 0.13485 0.99897 0.29821 0.0
H451 H 0.16016 1.0045 0.22982 0.0
H452 H 0.09548 1.00036 0.28939 0.0
H453 H 0.12413 0.0533 0.43716 0.0
H454 H 0.11959 0.06049 0.36257 0.0
H455 H 0.1368 0.04379 0.37627 0.0
C456 C 0.13759 0.04447 0.21212 0.0
C457 C 0.15136 0.03148 0.20463 0.0
C458 C 0.12317 0.04128 0.25112 0.0
C459 C 0.12226 0.02507 0.2837 0.0
C460 C 0.13532 0.01159 0.27357 0.0
H461 H 0.07638 1.00304 0.62369 0.0
H462 H 0.09461 1.00682 0.5342 0.0
C463 C 0.14975 0.01475 0.23434 0.0
C464 C 0.10868 0.02285 0.33195 0.0
H465 H 0.09693 0.03944 0.4678 0.0
C466 C 0.09569 1.00896 0.32827 0.0
C467 C 0.10912 0.03398 0.38289 0.0
C468 C 0.12322 0.04864 0.39051 0.0
C469 C 0.08315 1.00587 0.37442 0.0
C470 C 0.08362 0.01703 0.42525 0.0
C471 C 0.09651 0.031 0.42855 0.0
C472 C 0.07194 0.01364 0.47785 0.0
C473 C 0.06989 0.99038 0.36951 0.0
C474 C 0.05305 0.01614 0.47592 0.0
C475 C 0.04252 0.014 0.52742 0.0
C476 C 0.05078 1.00939 0.58144 0.0
C477 C 0.06962 1.00663 0.58278 0.0
C478 C 0.08007 1.00879 0.53165 0.0
H479 H 0.07315 0.98129 0.3318 0.0
H480 H 0.06975 0.98225 0.411 0.0
H481 H 0.05605 0.99587 0.36282 0.0
H482 H 0.04652 0.02012 0.435 0.0
H483 H 0.02803 0.01618 0.52518 0.0
H484 H 0.51149 0.16201 0.22416 0.0
H485 H 0.51828 0.13714 0.29254 0.0
H486 H 0.46513 0.11456 0.26273 0.0
H487 H 0.45846 0.13903 0.19293 0.0
H488 H 0.49904 0.13153 0.39531 0.0
H489 H 0.49663 0.06942 0.25777 0.0
H490 H 0.49857 0.09184 0.22594 0.0
H491 H 0.47692 0.0835 0.2509 0.0
C492 C 0.50145 0.15145 0.23067 0.0
C493 C 0.4844 0.15257 0.20314 0.0
C494 C 0.50531 0.1373 0.27014 0.0
C495 C 0.49227 0.12389 0.28255 0.0
C496 C 0.47553 0.12454 0.2532 0.0
H497 H 0.4807 0.03999 0.55245 0.0
H498 H 0.47694 0.06025 0.46702 0.0
C499 C 0.47167 0.13867 0.21375 0.0
C500 C 0.49543 0.11045 0.33067 0.0
H501 H 0.4965 0.0651 0.36254 0.0
C502 C 0.49867 0.117 0.38798 0.0
C503 C 0.49466 0.09149 0.32131 0.0
C504 C 0.49166 0.08361 0.26056 0.0
C505 C 0.50091 0.10519 0.43627 0.0
C506 C 0.50034 0.08623 0.42689 0.0
C507 C 0.49702 0.07963 0.36964 0.0
C508 C 0.50313 0.07313 0.47623 0.0
C509 C 0.50332 0.1132 0.49721 0.0
C510 C 0.51926 0.07338 0.5091 0.0
C511 C 0.52132 0.06207 0.55843 0.0
C512 C 0.50741 0.05006 0.57519 0.0
C513 C 0.49161 0.04918 0.54066 0.0
C514 C 0.48947 0.06069 0.49173 0.0
H515 H 0.49835 0.1274 0.4993 0.0
H516 H 0.49603 0.10507 0.53124 0.0
H517 H 0.51795 0.1133 0.5085 0.0
H518 H 0.53017 0.08255 0.49718 0.0
H519 H 0.53372 0.06288 0.58386 0.0
H520 H 0.34251 0.5077 0.31925 0.0
H521 H 0.36931 0.51164 0.38126 0.0
H522 H 0.40244 0.48662 0.2469 0.0
H523 H 0.37553 0.48247 0.18449 0.0
H524 H 0.39075 0.48157 0.42072 0.0
H525 H 0.43147 0.53282 0.29673 0.0
H526 H 0.40742 0.52989 0.28497 0.0
H527 H 0.42314 0.51368 0.25561 0.0
C528 C 0.35552 0.50319 0.30255 0.0
C529 C 0.35686 0.49464 0.2471 0.0
C530 C 0.37083 0.50549 0.33801 0.0
C531 C 0.38786 0.49943 0.31874 0.0
C532 C 0.38945 0.49159 0.26235 0.0
H533 H 0.47693 0.48269 0.57262 0.0
H534 H 0.45598 0.47827 0.48931 0.0
C535 C 0.37408 0.48927 0.22668 0.0
C536 C 0.40351 0.50019 0.35993 0.0
H537 H 0.44407 0.52124 0.38506 0.0
C538 C 0.40249 0.49012 0.41272 0.0
C539 C 0.41877 0.51138 0.34937 0.0
C540 C 0.42035 0.52269 0.29384 0.0
C541 C 0.41613 0.49122 0.45582 0.0
C542 C 0.4313 0.50258 0.44569 0.0
C543 C 0.43249 0.51244 0.39245 0.0
C544 C 0.44519 0.50551 0.49215 0.0
C545 C 0.4139 0.48074 0.51291 0.0
C546 C 0.44625 0.52235 0.52059 0.0
C547 C 0.45798 0.52482 0.56842 0.0
C548 C 0.46906 0.51057 0.58817 0.0
C549 C 0.46855 0.49391 0.55819 0.0
C550 C 0.45661 0.49137 0.51072 0.0
H551 H 0.40005 0.47498 0.51781 0.0
H552 H 0.42375 0.46939 0.51381 0.0
H553 H 0.41672 0.48958 0.55155 0.0
H554 H 0.43755 0.53342 0.50703 0.0
H555 H 0.45815 0.53783 0.59061 0.0
H556 H 0.02048 0.38632 0.14798 0.0
H557 H 0.02143 0.4124 0.21477 0.0
H558 H 0.05836 0.38366 0.32899 0.0
H559 H 0.05728 0.35753 0.26337 0.0
H560 H 1.00987 0.41068 0.33079 0.0
H561 H 0.08102 0.43414 0.32153 0.0
H562 H 0.0717 0.41879 0.26738 0.0
H563 H 0.0794 0.41036 0.33786 0.0
C564 C 0.029 0.38564 0.18688 0.0
C565 C 0.03878 0.36976 0.2002 0.0
C566 C 0.02959 0.40059 0.22488 0.0
C567 C 0.04009 0.40006 0.27662 0.0
C568 C 0.05047 0.38456 0.28869 0.0
H569 H 0.04818 0.45633 0.60862 0.0
H570 H 0.05227 0.43728 0.52082 0.0
C571 C 0.04986 0.3696 0.25088 0.0
C572 C 0.03864 0.41472 0.32135 0.0
H573 H 0.06359 0.44371 0.40584 0.0
C574 C 0.02156 0.41816 0.34652 0.0
C575 C 0.05393 0.42434 0.34224 0.0
C576 C 0.07252 0.42184 0.31542 0.0
C577 C 0.01946 0.43043 0.39346 0.0
C578 C 0.03481 0.43984 0.4151 0.0
C579 C 0.05183 0.43663 0.38919 0.0
C580 C 0.03353 0.45243 0.46626 0.0
C581 C 1.00093 0.43255 0.42119 0.0
C582 C 0.02207 0.46761 0.46427 0.0
C583 C 0.01964 0.47843 0.51446 0.0
C584 C 0.02879 0.4744 0.56734 0.0
C585 C 0.04088 0.4597 0.56851 0.0
C586 C 0.04326 0.44884 0.51836 0.0
H587 H 0.99176 0.42114 0.40961 0.0
H588 H 1.00189 0.43336 0.47019 0.0
H589 H 0.99466 0.44527 0.4048 0.0
H590 H 0.01476 0.47093 0.42416 0.0
H591 H 1.01027 0.48971 0.51221 0.0
H592 H 0.86857 0.03627 0.18074 0.0
H593 H 0.89392 0.03695 0.11041 0.0
H594 H 0.89316 0.97858 0.10184 0.0
H595 H 0.8678 0.97775 0.17164 0.0
H596 H 0.92886 0.994 0.10048 0.0
H597 H 0.883 0.02571 0.93494 0.0
H598 H 0.88507 0.03769 1.00377 0.0
H599 H 0.87471 0.01563 1.00271 0.0
C600 C 0.87395 0.02356 0.16451 0.0
C601 C 0.866 1.00697 0.18154 0.0
C602 C 0.88843 0.02398 0.12427 0.0
C603 C 0.8952 1.00783 0.10002 0.0
C604 C 0.88813 0.99121 0.11989 0.0
H605 H 0.94596 0.99054 0.76129 0.0
H606 H 0.92721 0.99018 0.85077 0.0
C607 C 0.87367 0.99077 0.16016 0.0
C608 C 0.90852 1.00822 0.05047 0.0
H609 H 0.91326 0.02091 0.90559 0.0
C610 C 0.92552 0.99997 0.05794 0.0
C611 C 0.90402 0.01578 0.99471 0.0
C612 C 0.88567 0.02408 0.98307 0.0
C613 C 0.93815 0.99911 0.0111 0.0
C614 C 0.93368 1.00681 0.95555 0.0
C615 C 0.9167 0.01509 0.94827 0.0
C616 C 0.946 1.00586 0.90337 0.0
C617 C 0.95594 0.98952 0.02084 0.0
C618 C 0.96292 0.01465 0.90328 0.0
C619 C 0.9737 0.01486 0.85201 0.0
C620 C 0.96767 1.00637 0.79994 0.0
C621 C 0.95096 0.99722 0.80067 0.0
C622 C 0.94021 0.99702 0.85177 0.0
H623 H 0.9557 0.98099 0.06147 0.0
H624 H 0.95937 0.98083 0.98234 0.0
H625 H 0.96688 0.99975 0.02574 0.0
H626 H 0.96754 0.0218 0.94224 0.0
H627 H 0.98651 0.02206 0.85266 0.0
H628 H 0.54031 0.88305 0.19495 0.0
H629 H 0.53642 0.90675 0.11991 0.0
H630 H 0.49626 0.87403 0.03206 0.0
H631 H 0.50029 0.85016 0.10585 0.0
H632 H 0.54311 0.90149 0.99803 0.0
H633 H 0.47256 0.92457 0.03726 0.0
H634 H 0.48535 0.91211 0.09199 0.0
H635 H 0.47493 0.90041 0.03122 0.0
C636 C 0.53049 0.88095 0.16007 0.0
C637 C 0.52065 0.8646 0.15663 0.0
C638 C 0.52826 0.89455 0.11728 0.0
C639 C 0.51597 0.89222 0.07054 0.0
C640 C 0.50558 0.87629 0.06829 0.0
H641 H 0.5147 0.93862 0.71821 0.0
H642 H 0.51749 0.91929 0.80636 0.0
C643 C 0.50786 0.86265 0.11085 0.0
C644 C 0.51511 0.90569 0.02145 0.0
H645 H 0.4863 0.93368 0.94606 0.0
C646 C 0.53073 0.90864 0.98696 0.0
C647 C 0.49899 0.91511 0.00725 0.0
C648 C 0.48203 0.91306 0.04414 0.0
C649 C 0.53052 0.92034 0.93771 0.0
C650 C 0.51422 0.92923 0.92219 0.0
C651 C 0.49874 0.92672 0.95768 0.0
C652 C 0.51294 0.94101 0.86885 0.0
C653 C 0.54775 0.92316 0.90267 0.0
C654 C 0.50922 0.95958 0.87463 0.0
C655 C 0.50768 0.97062 0.82433 0.0
C656 C 0.50971 0.96329 0.76737 0.0
C657 C 0.51325 0.94467 0.76162 0.0
C658 C 0.51491 0.93364 0.81191 0.0
H659 H 0.5599 0.91881 0.92792 0.0
H660 H 0.5471 0.91503 0.86144 0.0
H661 H 0.54938 0.93763 0.88995 0.0
H662 H 0.50746 0.96552 0.91809 0.0
H663 H 0.50439 0.98476 0.82998 0.0
H664 H 0.6449 0.55945 0.17564 0.0
H665 H 0.61965 0.55641 0.10625 0.0
H666 H 0.63881 0.50341 0.05642 0.0
H667 H 0.66424 0.50644 0.12455 0.0
H668 H 0.62455 0.55201 0.98373 0.0
H669 H 0.58393 0.49544 0.07759 0.0
H670 H 0.60022 0.50803 0.1208 0.0
H671 H 0.60771 0.49053 0.07122 0.0
C672 C 0.64364 0.54704 0.1505 0.0
C673 C 0.65671 0.53322 0.15575 0.0
C674 C 0.62914 0.54531 0.11096 0.0
C675 C 0.62725 0.52964 0.07637 0.0
C676 C 0.63977 0.51549 0.08343 0.0
H677 H 0.58125 0.50998 0.73472 0.0
H678 H 0.6002 0.51529 0.82194 0.0
C679 C 0.65431 0.51723 0.12272 0.0
C680 C 0.61333 0.52878 0.0289 0.0
H681 H 0.57808 0.50336 0.97649 0.0
C682 C 0.61426 0.5415 0.98254 0.0
C683 C 0.59982 0.51514 0.02748 0.0
C684 C 0.59769 0.50159 0.07719 0.0
C685 C 0.60251 0.54051 0.93377 0.0
C686 C 0.58955 0.5264 0.93112 0.0
C687 C 0.58813 0.51409 0.97847 0.0
C688 C 0.57799 0.52373 0.87815 0.0
C689 C 0.60413 0.55443 0.88496 0.0
C690 C 0.55922 0.52675 0.88085 0.0
C691 C 0.54839 0.52385 0.83083 0.0
C692 C 0.55609 0.5176 0.77771 0.0
C693 C 0.57491 0.51476 0.77507 0.0
C694 C 0.58575 0.51779 0.82483 0.0
H695 H 0.61208 0.56646 0.89909 0.0
H696 H 0.61108 0.54825 0.84634 0.0
H697 H 0.5905 0.55896 0.8703 0.0
H698 H 0.55297 0.53143 0.9215 0.0
H699 H 0.53402 0.5265 0.83369 0.0
H700 H 0.98318 0.66251 0.1214 0.0
H701 H 0.98192 0.63726 0.05181 0.0
H702 H 0.03042 0.61476 0.12873 0.0
H703 H 0.03183 0.64012 0.19823 0.0
H704 H 0.03389 0.61948 0.01168 0.0
H705 H 0.96912 0.58394 0.05582 0.0
H706 H 0.96611 0.6079 0.04635 0.0
H707 H 0.97909 0.59953 0.10801 0.0
C708 C 0.99323 0.65187 0.1249 0.0
C709 C 1.00765 0.65336 0.16525 0.0
C710 C 0.99248 0.63739 0.08503 0.0
C711 C 1.006 0.62399 0.08518 0.0
C712 C 0.01982 0.62491 0.12776 0.0
H713 H 0.01138 0.53376 0.83068 0.0
H714 H 1.00882 0.55113 0.92307 0.0
C715 C 0.02063 0.63942 0.16741 0.0
C716 C 1.00708 0.61053 0.03636 0.0
H717 H 0.98275 0.57875 0.96019 0.0
C718 C 0.02278 0.61041 1.00104 0.0
C719 C 0.99267 0.59857 0.02252 0.0
C720 C 0.97587 0.59733 0.06055 0.0
C721 C 0.02421 0.59921 0.95115 0.0
C722 C 1.00942 0.58802 0.9354 0.0
C723 C 0.99399 0.58753 0.97194 0.0
C724 C 1.00961 0.57734 0.8798 0.0
C725 C 0.04152 0.59957 0.91535 0.0
C726 C 0.01048 0.5863 0.82495 0.0
C727 C 0.01187 0.57643 0.77244 0.0
C728 C 0.01231 0.5574 0.77366 0.0
C729 C 0.01092 0.54839 0.82844 0.0
C730 C 1.0095 0.5583 0.88117 0.0
H731 H 0.05307 0.60498 0.94145 0.0
H732 H 0.04508 0.58579 0.8994 0.0
H733 H 0.03965 0.60847 0.87615 0.0
H734 H 1.01033 0.60097 0.82285 0.0
H735 H 0.01285 0.58374 0.73087 0.0
H736 H 0.97648 0.25396 0.42343 0.0
H737 H 0.96636 0.23451 0.50561 0.0
H738 H 1.0062 0.19451 0.45559 0.0
H739 H 0.01667 0.21403 0.37582 0.0
H740 H 0.95048 0.20382 0.48961 0.0
H741 H 1.00885 0.18868 0.62948 0.0
H742 H 1.00888 0.20796 0.57984 0.0
H743 H 0.01643 0.18596 0.55476 0.0
C744 C 0.98346 0.2413 0.43155 0.0
C745 C 0.99719 0.23536 0.39292 0.0
C746 C 0.97766 0.23019 0.47839 0.0
C747 C 0.98565 0.21311 0.48746 0.0
C748 C 1.00012 0.20779 0.45092 0.0
H749 H 0.95026 0.11217 0.46624 0.0
H750 H 0.95218 0.14499 0.47107 0.0
C751 C 1.00591 0.21884 0.40451 0.0
C752 C 0.97708 0.19936 0.52663 0.0
H753 H 0.98928 0.16179 0.60463 0.0
C754 C 0.9588 0.19497 0.51664 0.0
C755 C 0.98752 0.18808 0.56408 0.0
C756 C 1.00644 0.19312 0.5831 0.0
C757 C 0.9516 0.17834 0.53568 0.0
C758 C 0.96314 0.16564 0.56353 0.0
C759 C 0.98053 0.17119 0.5813 0.0
C760 C 0.95891 0.14596 0.56446 0.0
C761 C 0.93199 0.17418 0.52264 0.0
C762 C 0.9622 0.13541 0.61511 0.0
C763 C 0.96161 0.11649 0.61191 0.0
C764 C 0.9578 0.10777 0.55792 0.0
C765 C 0.9535 0.11841 0.50825 0.0
C766 C 0.95425 0.13726 0.51133 0.0
H767 H 0.92356 0.18654 0.52821 0.0
H768 H 0.93067 0.16985 0.47582 0.0
H769 H 0.92657 0.16333 0.55194 0.0
H770 H 0.96601 0.14177 0.65644 0.0
H771 H 0.96509 0.10873 0.65098 0.0
H772 H 0.317 0.11425 0.18579 0.0
H773 H 0.34769 0.11055 0.22534 0.0
H774 H 0.32911 0.06618 0.33454 0.0
H775 H 0.29866 0.06958 0.29516 0.0
H776 H 0.35652 0.08829 0.38812 0.0
H777 H 0.37421 0.06515 0.16033 0.0
H778 H 0.36516 0.08766 0.16759 0.0
H779 H 0.35105 0.06841 0.18377 0.0
C780 C 0.31937 0.10399 0.21928 0.0
C781 C 0.30542 0.09203 0.23658 0.0
C782 C 0.3369 0.1019 0.24178 0.0
C783 C 0.34069 0.08784 0.28182 0.0
C784 C 0.32645 0.07709 0.30352 0.0
H785 H 0.42079 0.01086 0.35045 0.0
H786 H 0.39578 0.03009 0.31756 0.0
C787 C 0.30897 0.07914 0.28112 0.0
C788 C 0.35956 0.08251 0.29531 0.0
H789 H 0.39583 0.06059 0.23442 0.0
C790 C 0.36533 0.0826 0.35446 0.0
C791 C 0.37085 0.07485 0.25116 0.0
C792 C 0.36506 0.07384 0.18716 0.0
C793 C 0.38181 0.07457 0.37102 0.0
C794 C 0.39277 0.0664 0.32712 0.0
C795 C 0.38738 0.06699 0.26771 0.0
C796 C 0.40868 0.05525 0.34289 0.0
C797 C 0.3869 0.07391 0.43567 0.0
C798 C 0.42438 0.06313 0.36646 0.0
C799 C 0.43871 0.05216 0.38531 0.0
C800 C 0.43748 0.03315 0.38107 0.0
C801 C 0.42202 0.02542 0.3551 0.0
C802 C 0.40777 0.03638 0.33607 0.0
H803 H 0.37588 0.07901 0.4648 0.0
H804 H 0.39023 0.0598 0.44903 0.0
H805 H 0.39915 0.08236 0.44297 0.0
H806 H 0.42538 0.0777 0.37139 0.0
H807 H 0.4504 0.05853 0.40527 0.0
H808 H 0.41168 0.31972 0.23372 0.0
H809 H 0.42003 0.34608 0.29265 0.0
H810 H 0.45111 0.31187 0.40939 0.0
H811 H 0.44416 0.28572 0.34823 0.0
H812 H 0.42039 0.35936 0.40552 0.0
H813 H 0.49021 0.34201 0.33121 0.0
H814 H 0.47048 0.33029 0.30414 0.0
H815 H 0.47959 0.32486 0.37589 0.0
C816 C 0.42013 0.31773 0.27232 0.0
C817 C 0.42784 0.30067 0.28457 0.0
C818 C 0.42473 0.33281 0.30637 0.0
C819 C 0.43679 0.331 0.3539 0.0
C820 C 0.44227 0.31362 0.37159 0.0
H821 H 0.50075 0.41525 0.52606 0.0
H822 H 0.48353 0.38747 0.50822 0.0
C823 C 0.43802 0.29858 0.33683 0.0
C824 C 0.44569 0.34733 0.3785 0.0
H825 H 0.48692 0.36827 0.38833 0.0
C826 C 0.43494 0.36125 0.40228 0.0
C827 C 0.4647 0.34989 0.37329 0.0
C828 C 0.47692 0.33607 0.34427 0.0
C829 C 0.44272 0.3777 0.42065 0.0
C830 C 0.46163 0.38016 0.41512 0.0
C831 C 0.47241 0.36616 0.39276 0.0
C832 C 0.47056 0.39752 0.42893 0.0
C833 C 0.43077 0.39244 0.44525 0.0
C834 C 0.46901 0.41222 0.3898 0.0
C835 C 0.47913 0.42799 0.39902 0.0
C836 C 0.49096 0.42927 0.44761 0.0
C837 C 0.49212 0.41457 0.4874 0.0
C838 C 0.48211 0.39878 0.47784 0.0
H839 H 0.41687 0.38746 0.45522 0.0
H840 H 0.43678 0.39811 0.48627 0.0
H841 H 0.42979 0.40363 0.41242 0.0
H842 H 0.46037 0.41129 0.35121 0.0
H843 H 0.47802 0.43897 0.36732 0.0
H844 H 0.22012 0.40968 0.33318 0.0
H845 H 0.19137 0.41408 0.38575 0.0
H846 H 0.16627 0.43124 0.22268 0.0
H847 H 0.19458 0.42711 0.17052 0.0
H848 H 0.17799 0.44722 0.39483 0.0
H849 H 0.12477 0.40456 0.29691 0.0
H850 H 0.1486 0.39963 0.28725 0.0
H851 H 0.13729 0.41546 0.23877 0.0
C852 C 0.20832 0.41388 0.30827 0.0
C853 C 0.20977 0.41818 0.24765 0.0
C854 C 0.19187 0.41629 0.33832 0.0
C855 C 0.1766 0.42286 0.30812 0.0
C856 C 0.17767 0.42568 0.24679 0.0
H857 H 0.10752 0.50971 0.37146 0.0
H858 H 0.13141 0.48752 0.3511 0.0
C859 C 0.19402 0.42331 0.21685 0.0
C860 C 0.16085 0.43025 0.34097 0.0
H861 H 0.11492 0.4347 0.33114 0.0
C862 C 0.16416 0.44409 0.38217 0.0
C863 C 0.14276 0.42609 0.32527 0.0
C864 C 0.13818 0.41046 0.28508 0.0
C865 C 0.15005 0.45491 0.40381 0.0
C866 C 0.13225 0.45204 0.3828 0.0
C867 C 0.12866 0.43717 0.34603 0.0
C868 C 0.1176 0.4652 0.39462 0.0
C869 C 0.15444 0.46978 0.44727 0.0
C870 C 0.10174 0.45985 0.42426 0.0
C871 C 0.08809 0.47249 0.4357 0.0
C872 C 0.09 0.49059 0.41692 0.0
C873 C 0.10577 0.49585 0.38653 0.0
C874 C 0.11941 0.48323 0.37517 0.0
H875 H 0.16686 0.46655 0.47299 0.0
H876 H 0.15698 0.48258 0.42265 0.0
H877 H 0.14305 0.47204 0.47865 0.0
H878 H 0.10007 0.44599 0.43941 0.0
H879 H 0.07623 0.46828 0.46054 0.0
H880 H 0.03804 0.8082 0.99536 0.0
H881 H 0.05333 0.83154 0.93763 0.0
H882 H 0.10528 0.81028 0.99118 0.0
H883 H 0.08982 0.78698 0.05071 0.0
H884 H 0.10256 0.84472 0.01901 0.0
H885 H 0.08101 0.8391 0.78779 0.0
H886 H 0.06121 0.83681 0.83318 0.0
H887 H 0.07915 0.82024 0.8388 0.0
C888 C 0.05272 0.8082 0.99354 0.0
C889 C 0.06277 0.79597 0.02792 0.0
C890 C 0.06149 0.8214 0.9598 0.0
C891 C 0.0805 0.82255 0.9593 0.0
C892 C 0.09061 0.80953 0.99043 0.0
H893 H 0.09291 0.93056 0.80746 0.0
H894 H 0.10406 0.89959 0.8225 0.0
C895 C 0.08179 0.79623 0.02428 0.0
C896 C 0.08911 0.8393 0.9361 0.0
H897 H 0.08217 0.87072 0.82779 0.0
C898 C 0.09872 0.85019 0.9762 0.0
C899 C 0.08469 0.84638 0.87972 0.0
C900 C 0.07613 0.83486 0.83233 0.0
C901 C 0.10165 0.86864 0.96464 0.0
C902 C 0.09447 0.87635 0.91238 0.0
C903 C 0.08725 0.86493 0.86872 0.0
C904 C 0.09092 0.89605 0.90753 0.0
C905 C 0.11129 0.87993 0.01039 0.0
C906 C 0.08003 0.90439 0.95064 0.0
C907 C 0.07353 0.92192 0.94201 0.0
C908 C 0.07766 0.93148 0.88978 0.0
C909 C 0.08932 0.92346 0.84788 0.0
C910 C 0.0958 0.90583 0.85654 0.0
H911 H 0.12206 0.87189 0.03254 0.0
H912 H 0.11748 0.89226 0.99047 0.0
H913 H 0.10145 0.88412 0.04501 0.0
H914 H 0.07558 0.89693 0.98945 0.0
H915 H 0.06432 0.92748 0.97463 0.0
H916 H 0.7228 0.94491 0.98901 0.0
H917 H 0.6967 0.94872 0.92351 0.0
H918 H 0.709 1.00572 0.90667 0.0
H919 H 0.7351 1.00193 0.97096 0.0
H920 H 0.67104 0.96931 0.96945 0.0
H921 H 0.68673 0.99628 0.74713 0.0
H922 H 0.70353 0.98493 0.79203 0.0
H923 H 0.69883 1.00867 0.80265 0.0
C924 C 0.72033 0.95808 0.9693 0.0
C925 C 0.73079 0.97317 0.9857 0.0
C926 C 0.70549 0.96023 0.93166 0.0
C927 C 0.70087 0.97751 0.91017 0.0
C928 C 0.71246 0.99219 0.92154 0.0
H929 H 0.60813 0.04317 0.87328 0.0
H930 H 0.6385 0.02951 0.87093 0.0
C931 C 0.72738 0.99002 0.95874 0.0
C932 C 0.68215 0.98113 0.8898 0.0
H933 H 0.65755 1.00544 0.78934 0.0
C934 C 0.66803 0.97675 0.92915 0.0
C935 C 0.67825 0.99104 0.83765 0.0
C936 C 0.69266 0.99533 0.79223 0.0
C937 C 0.65037 0.98299 0.91993 0.0
C938 C 0.64664 0.99364 0.86929 0.0
C939 C 0.66051 0.99733 0.82827 0.0
C940 C 0.62865 1.00201 0.86121 0.0
C941 C 0.63612 0.97907 0.96649 0.0
C942 C 0.61323 0.99109 0.85488 0.0
C943 C 0.596 0.99879 0.85729 0.0
C944 C 0.59395 0.01756 0.86534 0.0
C945 C 0.60942 0.02864 0.86786 0.0
C946 C 0.62669 0.02088 0.86607 0.0
H947 H 0.64211 0.9738 0.00821 0.0
H948 H 0.62824 0.99148 0.97692 0.0
H949 H 0.62656 0.9687 0.9495 0.0
H950 H 0.61452 0.97654 0.84997 0.0
H951 H 0.58425 0.99005 0.85337 0.0
H952 H 0.59219 0.72352 0.98506 0.0
H953 H 0.5873 0.69745 0.92013 0.0
H954 H 0.5308 0.71185 0.90487 0.0
H955 H 0.53579 0.73807 0.9674 0.0
H956 H 0.56738 0.67218 0.96309 0.0
H957 H 0.53745 0.68929 0.74751 0.0
H958 H 0.54914 0.70602 0.79159 0.0
H959 H 0.5254 0.7013 0.804 0.0
C960 C 0.57895 0.72151 0.96553 0.0
C961 C 0.56434 0.73268 0.98156 0.0
C962 C 0.57615 0.70666 0.92838 0.0
C963 C 0.55867 0.70263 0.90746 0.0
C964 C 0.5445 0.71482 0.91896 0.0
H965 H 0.4885 0.61384 0.89683 0.0
H966 H 0.50399 0.64322 0.88939 0.0
C967 C 0.54735 0.72982 0.95523 0.0
C968 C 0.55425 0.68404 0.88704 0.0
H969 H 0.52652 0.66076 0.7932 0.0
C970 C 0.55897 0.66961 0.92468 0.0
C971 C 0.54314 0.68063 0.83727 0.0
C972 C 0.53869 0.69517 0.79258 0.0
C973 C 0.55181 0.65223 0.91663 0.0
C974 C 0.53969 0.64915 0.86939 0.0
C975 C 0.53575 0.66324 0.82961 0.0
C976 C 0.5299 0.63178 0.86452 0.0
C977 C 0.55628 0.63757 0.96113 0.0
C978 C 0.53931 0.61578 0.85169 0.0
C979 C 0.53058 0.59905 0.85648 0.0
C980 C 0.51228 0.59808 0.87395 0.0
C981 C 0.50264 0.61421 0.88374 0.0
C982 C 0.51142 0.63095 0.87916 0.0
H983 H 0.56381 0.64292 0.99989 0.0
H984 H 0.5437 0.63087 0.97725 0.0
H985 H 0.5648 0.62709 0.93957 0.0
H986 H 0.55354 0.61622 0.83966 0.0
H987 H 0.53819 0.58684 0.84694 0.0
H988 H 0.81395 0.55251 0.95581 0.0
H989 H 0.83364 0.53792 0.88407 0.0
H990 H 0.79284 0.49704 0.85296 0.0
H991 H 0.77345 0.51104 0.92767 0.0
H992 H 0.82189 0.48149 0.88498 0.0
H993 H 0.84264 0.52989 0.7139 0.0
H994 H 0.84536 0.54125 0.78315 0.0
H995 H 0.82304 0.53402 0.76003 0.0
C996 C 0.80898 0.54065 0.93273 0.0
C997 C 0.79232 0.53273 0.94839 0.0
C998 C 0.82015 0.53246 0.89075 0.0
C999 C 0.81473 0.51638 0.8626 0.0
C1000 C 0.79731 0.50946 0.87392 0.0
H1001 H 0.91725 0.47544 0.72222 0.0
H1002 H 0.88456 0.48057 0.71614 0.0
C1003 C 0.78619 0.51755 0.91651 0.0
C1004 C 0.8286 0.50513 0.83244 0.0
H1005 H 0.86757 0.50996 0.75277 0.0
C1006 C 0.83154 0.48752 0.85434 0.0
C1007 C 0.841 0.51254 0.79102 0.0
C1008 C 0.83765 0.5304 0.76032 0.0
C1009 C 0.84765 0.47822 0.84211 0.0
C1010 C 0.86131 0.48698 0.80859 0.0
C1011 C 0.85736 0.50346 0.78017 0.0
C1012 C 0.88044 0.48099 0.81104 0.0
C1013 C 0.85028 0.45955 0.86813 0.0
C1014 C 0.88896 0.47933 0.86635 0.0
C1015 C 0.90758 0.4764 0.86997 0.0
C1016 C 0.91816 0.47533 0.81831 0.0
C1017 C 0.90949 0.47618 0.76288 0.0
C1018 C 0.89081 0.47914 0.75926 0.0
H1019 H 0.83722 0.45202 0.86934 0.0
H1020 H 0.86032 0.45155 0.84251 0.0
H1021 H 0.85508 0.46081 0.91447 0.0
H1022 H 0.88136 0.48117 0.90699 0.0
H1023 H 0.91377 0.47555 0.91333 0.0
H1024 H 0.99275 0.21761 0.85574 0.0
H1025 H 0.99344 0.18756 0.80966 0.0
H1026 H 0.04835 0.1801 0.86958 0.0
H1027 H 0.04773 0.21002 0.91631 0.0
H1028 H 0.01951 0.16943 0.72507 0.0
H1029 H 0.01646 0.13929 0.95109 0.0
H1030 H 0.01055 0.16262 0.93645 0.0
H1031 H 0.03392 0.1559 0.93832 0.0
C1032 C 1.00508 0.20969 0.85824 0.0
C1033 C 0.02013 0.21615 0.89012 0.0
C1034 C 1.00546 0.19256 0.83173 0.0
C1035 C 0.02085 0.18154 0.83696 0.0
C1036 C 0.0363 0.18838 0.86547 0.0
H1037 H 0.03765 0.06593 0.78895 0.0
H1038 H 0.04054 0.09816 0.81223 0.0
C1039 C 0.03596 0.20554 0.89172 0.0
C1040 C 0.02018 0.16235 0.8175 0.0
H1041 H 0.01874 0.11907 0.87124 0.0
C1042 C 0.01939 0.15837 0.75684 0.0
C1043 C 0.01992 0.148 0.85915 0.0
C1044 C 0.02012 0.15155 0.92496 0.0
C1045 C 0.01875 0.14033 0.73663 0.0
C1046 C 0.01842 0.12592 0.77843 0.0
C1047 C 0.01912 0.13003 0.83911 0.0
C1048 C 0.01721 0.10648 0.76087 0.0
C1049 C 0.01892 0.13696 0.67075 0.0
C1050 C 1.0031 0.10028 0.72449 0.0
C1051 C 1.00159 0.08187 0.71033 0.0
C1052 C 0.0139 0.06916 0.73356 0.0
C1053 C 0.02791 0.07534 0.7705 0.0
C1054 C 0.02959 0.09379 0.78375 0.0
H1055 H 0.02467 0.14869 0.64597 0.0
H1056 H 0.0269 0.12467 0.65967 0.0
H1057 H 1.00481 0.13492 0.6552 0.0
H1058 H 0.993 0.10962 0.70801 0.0
H1059 H 0.99051 0.07756 0.68226 0.0
H1060 H 0.29749 0.99326 0.86356 0.0
H1061 H 0.32835 0.98929 0.82487 0.0
H1062 H 0.33604 0.04724 0.82487 0.0
H1063 H 0.30549 0.05133 0.86353 0.0
H1064 H 0.34957 0.03128 0.72378 0.0
H1065 H 0.3739 0.99561 0.92555 0.0
H1066 H 0.35477 0.98527 0.88992 0.0
H1067 H 0.35242 1.00727 0.92303 0.0
C1068 C 0.30573 1.00515 0.85509 0.0
C1069 C 0.29891 0.02262 0.86661 0.0
C1070 C 0.32339 1.00286 0.83314 0.0
C1071 C 0.33463 0.01796 0.8228 0.0
C1072 C 0.32765 0.03538 0.83242 0.0
H1073 H 0.45141 0.02617 0.8068 0.0
H1074 H 0.41916 0.02723 0.83186 0.0
C1075 C 0.31006 0.03769 0.85418 0.0
C1076 C 0.35382 0.01583 0.80356 0.0
H1077 H 0.39492 0.99927 0.84747 0.0
C1078 C 0.35947 0.02419 0.75063 0.0
C1079 C 0.3668 1.00683 0.83911 0.0
C1080 C 0.36178 0.99836 0.89784 0.0
C1081 C 0.37772 0.02386 0.73241 0.0
C1082 C 0.39065 0.01466 0.76758 0.0
C1083 C 0.38499 1.00623 0.82036 0.0
C1084 C 0.41023 0.01409 0.75149 0.0
C1085 C 0.38306 0.03389 0.67664 0.0
C1086 C 0.416 1.00624 0.69812 0.0
C1087 C 0.43445 1.00569 0.68346 0.0
C1088 C 0.44757 0.01284 0.72214 0.0
C1089 C 0.44174 0.02058 0.77581 0.0
C1090 C 0.42328 0.02116 0.79032 0.0
H1091 H 0.37265 0.04398 0.66343 0.0
H1092 H 0.39622 0.04101 0.68237 0.0
H1093 H 0.38457 0.02404 0.63991 0.0
H1094 H 0.40624 1.00035 0.66799 0.0
H1095 H 0.43839 0.99951 0.64193 0.0
H1096 H 0.52102 0.30206 0.87594 0.0
H1097 H 0.52533 0.33299 0.83823 0.0
H1098 H 0.46747 0.34109 0.83889 0.0
H1099 H 0.46302 0.31046 0.87698 0.0
H1100 H 0.48428 0.35479 0.73708 0.0
H1101 H 0.51876 0.37828 0.94156 0.0
H1102 H 0.52898 0.35903 0.90616 0.0
H1103 H 0.50671 0.357 0.93793 0.0
C1104 C 0.50921 0.3104 0.86793 0.0
C1105 C 0.49167 0.30366 0.8796 0.0
C1106 C 0.5117 0.3281 0.84644 0.0
C1107 C 0.49672 0.33947 0.83654 0.0
C1108 C 0.47922 0.33258 0.84614 0.0
H1109 H 0.49134 0.45672 0.82111 0.0
H1110 H 0.48903 0.42449 0.84609 0.0
C1111 C 0.47672 0.31495 0.86758 0.0
C1112 C 0.49912 0.35871 0.81796 0.0
H1113 H 0.51601 0.39951 0.86372 0.0
C1114 C 0.49129 0.36456 0.76459 0.0
C1115 C 0.50803 0.37152 0.85436 0.0
C1116 C 0.51598 0.36625 0.91346 0.0
C1117 C 0.49213 0.38283 0.74661 0.0
C1118 C 0.50126 0.39559 0.78265 0.0
C1119 C 0.50909 0.38972 0.83599 0.0
C1120 C 0.50251 0.41516 0.7666 0.0
C1121 C 0.48277 0.38838 0.69003 0.0
C1122 C 0.51099 0.4207 0.71383 0.0
C1123 C 0.51228 0.43912 0.69928 0.0
C1124 C 0.50525 0.45247 0.73747 0.0
C1125 C 0.49687 0.44687 0.79055 0.0
C1126 C 0.49557 0.42843 0.80498 0.0
H1127 H 0.4725 0.37821 0.67616 0.0
H1128 H 0.47599 0.40172 0.69502 0.0
H1129 H 0.49298 0.38957 0.65402 0.0
H1130 H 0.5168 0.41078 0.68407 0.0
H1131 H 0.5189 0.44286 0.65812 0.0
H1132 H 0.22359 0.48106 0.80374 0.0
H1133 H 0.1937 0.48702 0.76117 0.0
H1134 H 0.18036 0.52089 0.91024 0.0
H1135 H 0.21005 0.51481 0.95356 0.0
H1136 H 0.16129 0.4774 0.81738 0.0
H1137 H 0.16277 0.55114 0.76846 0.0
H1138 H 0.18312 0.53802 0.78033 0.0
H1139 H 0.16972 0.54537 0.84235 0.0
C1140 C 0.2144 0.48998 0.82715 0.0
C1141 C 0.21928 0.49739 0.88228 0.0
C1142 C 0.19733 0.4934 0.80264 0.0
C1143 C 0.18481 0.50448 0.8323 0.0
C1144 C 0.1899 0.51257 0.88595 0.0
H1145 H 0.06761 0.50256 0.81666 0.0
H1146 H 0.09962 0.50076 0.84393 0.0
C1147 C 0.20696 0.50911 0.91061 0.0
C1148 C 0.1659 0.50616 0.81013 0.0
H1149 H 0.13375 0.53676 0.76667 0.0
C1150 C 0.15532 0.49037 0.80588 0.0
C1151 C 0.15813 0.52307 0.79476 0.0
C1152 C 0.16905 0.54037 0.79611 0.0
C1153 C 0.13708 0.49107 0.78817 0.0
C1154 C 0.12913 0.50804 0.77485 0.0
C1155 C 0.13982 0.52379 0.77749 0.0
C1156 C 0.10968 0.50962 0.75853 0.0
C1157 C 0.12647 0.47363 0.7836 0.0
C1158 C 0.10468 0.51555 0.70178 0.0
C1159 C 0.08635 0.51657 0.68591 0.0
C1160 C 0.07265 0.51185 0.72675 0.0
C1161 C 0.07775 0.50623 0.78395 0.0
C1162 C 0.09607 0.50513 0.79962 0.0
H1163 H 0.13551 0.46161 0.78173 0.0
H1164 H 0.11758 0.47219 0.82308 0.0
H1165 H 0.11772 0.4737 0.74366 0.0
H1166 H 0.11497 0.51913 0.66945 0.0
H1167 H 0.08296 0.52102 0.64155 0.0
H1168 H 0.02836 0.81363 0.45891 0.0
H1169 H 0.02812 0.84347 0.50516 0.0
H1170 H 0.9703 0.83923 0.53162 0.0
H1171 H 0.97043 0.80956 0.48276 0.0
H1172 H 0.97756 0.87065 0.48882 0.0
H1173 H 0.02589 0.8598 0.67134 0.0
H1174 H 0.03626 0.85422 0.60198 0.0
H1175 H 0.01707 0.84126 0.62816 0.0
C1176 C 0.01565 0.81887 0.47581 0.0
C1177 C 0.99944 0.80916 0.46778 0.0
C1178 C 0.01553 0.83595 0.50255 0.0
C1179 C 0.99926 0.84356 0.52327 0.0
C1180 C 0.98307 0.83367 0.51638 0.0
H1181 H 1.00196 0.94521 0.72464 0.0
H1182 H 0.9992 0.91338 0.69559 0.0
C1183 C 0.98314 0.8167 0.48861 0.0
C1184 C 0.99897 0.86236 0.54767 0.0
H1185 H 0.02072 0.89092 0.64307 0.0
C1186 C 0.98685 0.87498 0.52314 0.0
C1187 C 0.01083 0.8681 0.59325 0.0
C1188 C 0.02308 0.85505 0.62561 0.0
C1189 C 0.98665 0.89319 0.54136 0.0
C1190 C 0.99944 0.89922 0.58373 0.0
C1191 C 0.01113 0.88647 0.60979 0.0
C1192 C 1.001 0.91865 0.60134 0.0
C1193 C 0.9725 0.90565 0.51547 0.0
C1194 C 1.00325 0.9323 0.55831 0.0
C1195 C 1.00449 0.95053 0.57478 0.0
C1196 C 1.00401 0.95552 0.6348 0.0
C1197 C 1.00234 0.94183 0.678 0.0
C1198 C 1.00077 0.92361 0.66142 0.0
H1199 H 0.96032 0.89795 0.50109 0.0
H1200 H 0.96817 0.9161 0.54781 0.0
H1201 H 0.97819 0.91255 0.47582 0.0
H1202 H 1.00416 0.92886 0.51182 0.0
H1203 H 1.00606 0.9607 0.54043 0.0
H1204 H 0.70578 0.96409 0.50296 0.0
H1205 H 0.67622 0.96819 0.55012 0.0
H1206 H 0.68036 0.02596 0.52377 0.0
H1207 H 0.7096 0.02192 0.47412 0.0
H1208 H 0.66246 0.98724 0.64522 0.0
H1209 H 0.63442 0.01358 0.43378 0.0
H1210 H 0.65656 1.00336 0.4384 0.0
H1211 H 0.65319 0.02637 0.46216 0.0
C1212 C 0.70046 0.9777 0.50733 0.0
C1213 C 0.70999 0.99263 0.48359 0.0
C1214 C 0.68358 0.98003 0.53477 0.0
C1215 C 0.67582 0.99733 0.53927 0.0
C1216 C 0.68587 0.01242 0.51962 0.0
H1217 H 0.57178 0.0164 0.72327 0.0
H1218 H 0.60407 0.01528 0.69913 0.0
C1219 C 0.70273 1.0101 0.49185 0.0
C1220 C 0.65675 0.99931 0.56042 0.0
H1221 H 0.61461 0.01263 0.51548 0.0
C1222 C 0.65198 0.99283 0.61698 0.0
C1223 C 0.64301 1.0064 0.52329 0.0
C1224 C 0.64695 0.01268 0.46084 0.0
C1225 C 0.63387 0.99311 0.63717 0.0
C1226 C 0.62016 1.00037 0.60015 0.0
C1227 C 0.62504 1.00706 0.54397 0.0
C1228 C 0.60055 1.00053 0.61707 0.0
C1229 C 0.62958 0.98508 0.69715 0.0
C1230 C 0.58759 0.99303 0.57862 0.0
C1231 C 0.56906 0.99403 0.59168 0.0
C1232 C 0.56298 1.00244 0.64385 0.0
C1233 C 0.57596 1.00969 0.6829 0.0
C1234 C 0.59451 1.00892 0.66936 0.0
H1235 H 0.64052 0.97591 0.71281 0.0
H1236 H 0.62825 0.99621 0.72975 0.0
H1237 H 0.61663 0.97741 0.69635 0.0
H1238 H 0.59183 0.98649 0.53798 0.0
H1239 H 0.5595 0.98825 0.56067 0.0
H1240 H 0.56121 0.70687 0.49568 0.0
H1241 H 0.55555 0.67803 0.5457 0.0
H1242 H 0.49809 0.68472 0.51913 0.0
H1243 H 0.50371 0.71317 0.46599 0.0
H1244 H 0.53685 0.6658 0.64063 0.0
H1245 H 0.50699 0.63749 0.43513 0.0
H1246 H 0.51817 0.65922 0.43663 0.0
H1247 H 0.49526 0.65694 0.46332 0.0
C1248 C 0.54733 0.70225 0.50041 0.0
C1249 C 0.53296 0.71221 0.4754 0.0
C1250 C 0.54411 0.68578 0.52958 0.0
C1251 C 0.52643 0.67888 0.53484 0.0
C1252 C 0.51191 0.68948 0.51421 0.0
H1253 H 0.5049 0.57685 0.72963 0.0
H1254 H 0.5068 0.60893 0.70283 0.0
C1255 C 0.51513 0.70591 0.48448 0.0
C1256 C 0.52352 0.66012 0.558 0.0
H1257 H 0.50764 0.61832 0.51842 0.0
C1258 C 0.5304 0.65542 0.61403 0.0
C1259 C 0.51534 0.64646 0.52301 0.0
C1260 C 0.50866 0.65018 0.46099 0.0
C1261 C 0.52952 0.63748 0.6356 0.0
C1262 C 0.52116 0.62389 0.60076 0.0
C1263 C 0.51402 0.62869 0.54527 0.0
C1264 C 0.52042 0.60441 0.61902 0.0
C1265 C 0.53819 0.63317 0.69444 0.0
C1266 C 0.52702 0.59098 0.58052 0.0
C1267 C 0.52559 0.57259 0.59515 0.0
C1268 C 0.51763 0.56711 0.64895 0.0
C1269 C 0.51124 0.58055 0.68798 0.0
C1270 C 0.51245 0.59898 0.6729 0.0
H1271 H 0.54797 0.64384 0.70803 0.0
H1272 H 0.52748 0.63231 0.72893 0.0
H1273 H 0.54537 0.61996 0.693 0.0
H1274 H 0.53323 0.59474 0.53869 0.0
H1275 H 0.53072 0.56266 0.56411 0.0
H1276 H 0.81885 0.56124 0.47485 0.0
H1277 H 0.84807 0.5559 0.52285 0.0
H1278 H 0.84276 0.49858 0.49029 0.0
H1279 H 0.81367 0.50386 0.44096 0.0
H1280 H 0.86022 0.53363 0.61851 0.0
H1281 H 0.88979 0.51308 0.40211 0.0
H1282 H 0.86804 0.5241 0.40801 0.0
H1283 H 0.8702 0.50046 0.42585 0.0
C1284 C 0.82379 0.54746 0.47842 0.0
C1285 C 0.81399 0.53301 0.45336 0.0
C1286 C 0.84047 0.54442 0.50615 0.0
C1287 C 0.84778 0.52689 0.5092 0.0
C1288 C 0.83752 0.51227 0.48762 0.0
H1289 H 0.95014 0.50035 0.68957 0.0
H1290 H 0.91814 0.50197 0.66165 0.0
C1291 C 0.82079 0.51529 0.45996 0.0
C1292 C 0.86664 0.52422 0.53088 0.0
H1293 H 0.90922 0.51261 0.48449 0.0
C1294 C 0.87093 0.52888 0.58947 0.0
C1295 C 0.88066 0.51831 0.49257 0.0
C1296 C 0.87707 0.51382 0.42848 0.0
C1297 C 0.88884 0.52786 0.61071 0.0
C1298 C 0.90285 0.52192 0.57233 0.0
C1299 C 0.8985 0.51713 0.51393 0.0
C1300 C 0.92224 0.52127 0.59075 0.0
C1301 C 0.89274 0.53379 0.67329 0.0
C1302 C 0.93531 0.53133 0.5594 0.0
C1303 C 0.95366 0.53036 0.57478 0.0
C1304 C 0.95942 0.51922 0.62182 0.0
C1305 C 0.94627 0.50915 0.65327 0.0
C1306 C 0.9279 0.51013 0.63769 0.0
H1307 H 0.88122 0.54139 0.69295 0.0
H1308 H 0.89525 0.52167 0.70128 0.0
H1309 H 0.90506 0.54244 0.67469 0.0
H1310 H 0.9313 0.53997 0.52284 0.0
H1311 H 0.96332 0.53831 0.54946 0.0
loop_
_geom_bond_atom_site_label_1
_geom_bond_atom_site_label_2
_geom_bond_distance
_geom_bond_site_symmetry_2
_ccdc_geom_bond_type
C0 C1 1.384 . S
C0 H13 0.947 . S
C0 C35 1.382 . S
C1 C0 1.384 . S
C1 C2 1.378 . S
C2 C1 1.378 . S
C2 C3 1.378 . S
C2 H14 0.952 . S
C3 C2 1.378 . S
C3 H15 0.950 . S
C3 C34 1.383 . S
H4 C23 0.947 . S
H5 C24 0.946 . S
H6 C26 0.953 . S
H7 C27 0.945 . S
H8 C29 0.952 . S
H9 C30 0.949 . S
H10 C32 0.950 . S
H11 C33 0.948 . S
H12 C35 0.951 . S
H13 C0 0.947 . S
H14 C2 0.952 . S
H15 C3 0.950 . S
N16 C19 1.382 . S
N16 C21 1.363 . S
N17 C19 1.371 . S
N17 C20 1.372 . S
N18 C20 1.361 . S
N18 C21 1.377 . S
C19 N16 1.382 . S
C19 N17 1.371 . S
C19 C22 1.480 . S
C20 N17 1.372 . S
C20 N18 1.361 . S
C20 C28 1.457 . S
C21 N16 1.363 . S
C21 N18 1.377 . S
C21 C34 1.479 . S
C22 C19 1.480 . S
C22 C23 1.383 . S
C22 C27 1.385 . S
C23 H4 0.947 . S
C23 C22 1.383 . S
C23 C24 1.388 . S
C24 H5 0.946 . S
C24 C23 1.388 . S
C24 C25 1.384 . S
C25 C24 1.384 . S
C25 C26 1.377 . S
C26 H6 0.953 . S
C26 C25 1.377 . S
C26 C27 1.369 . S
C27 H7 0.945 . S
C27 C22 1.385 . S
C27 C26 1.369 . S
C28 C20 1.457 . S
C28 C29 1.372 . S
C28 C33 1.364 . S
C29 H8 0.952 . S
C29 C28 1.372 . S
C29 C30 1.389 . S
C30 H9 0.949 . S
C30 C29 1.389 . S
C30 C31 1.387 . S
C31 C30 1.387 . S
C31 C32 1.372 . S
C32 H10 0.950 . S
C32 C31 1.372 . S
C32 C33 1.379 . S
C33 H11 0.948 . S
C33 C28 1.364 . S
C33 C32 1.379 . S
C34 C3 1.383 . S
C34 C21 1.479 . S
C34 C35 1.398 . S
C35 C0 1.382 . S
C35 H12 0.951 . S
C35 C34 1.398 . S
C36 C37 1.381 1_655 S
C36 H49 0.949 . S
C36 C71 1.382 . S
C37 C36 1.381 1_455 S
C37 C38 1.386 . S
C38 C37 1.386 . S
C38 C39 1.378 . S
C38 H50 0.952 . S
C39 C38 1.378 . S
C39 H51 0.950 . S
C39 C70 1.383 . S
H40 C59 0.947 . S
H41 C60 0.955 . S
H42 C62 0.953 . S
H43 C63 0.945 . S
H44 C65 0.951 1_655 S
H45 C66 0.958 . S
H46 C68 0.950 . S
H47 C69 0.948 . S
H48 C71 0.951 . S
H49 C36 0.949 . S
H50 C38 0.952 . S
H51 C39 0.950 . S
N52 C55 1.382 . S
N52 C57 1.363 . S
N53 C55 1.371 . S
N53 C56 1.372 . S
N54 C56 1.361 . S
N54 C57 1.377 . S
C55 N52 1.382 . S
C55 N53 1.371 . S
C55 C58 1.480 . S
C56 N53 1.372 . S
C56 N54 1.361 . S
C56 C64 1.457 . S
C57 N52 1.363 . S
C57 N54 1.377 . S
C57 C70 1.479 . S
C58 C55 1.480 . S
C58 C59 1.383 . S
C58 C63 1.385 . S
C59 H40 0.947 . S
C59 C58 1.383 . S
C59 C60 1.385 1_455 S
C60 H41 0.955 . S
C60 C59 1.385 1_655 S
C60 C61 1.380 1_655 S
C61 C60 1.380 1_455 S
C61 C62 1.377 . S
C62 H42 0.953 . S
C62 C61 1.377 . S
C62 C63 1.369 . S
C63 H43 0.945 . S
C63 C58 1.385 . S
C63 C62 1.369 . S
C64 C56 1.457 . S
C64 C65 1.373 . S
C64 C69 1.364 . S
C65 H44 0.951 1_455 S
C65 C64 1.373 . S
C65 C66 1.387 1_455 S
C66 H45 0.958 . S
C66 C65 1.387 1_655 S
C66 C67 1.382 1_655 S
C67 C66 1.382 1_455 S
C67 C68 1.372 . S
C68 H46 0.950 . S
C68 C67 1.372 . S
C68 C69 1.379 . S
C69 H47 0.948 . S
C69 C64 1.364 . S
C69 C68 1.379 . S
C70 C39 1.383 . S
C70 C57 1.479 . S
C70 C71 1.398 1_455 S
C71 C36 1.382 . S
C71 H48 0.951 . S
C71 C70 1.398 1_655 S
C72 C73 1.384 . S
C72 H85 0.947 . S
C72 C107 1.382 . S
C73 C72 1.384 . S
C73 C74 1.378 1_565 S
C74 C73 1.378 1_545 S
C74 C75 1.378 . S
C74 H86 0.952 . S
C75 C74 1.378 . S
C75 H87 0.950 . S
C75 C106 1.379 1_545 S
H76 C95 0.947 . S
H77 C96 0.946 . S
H78 C98 0.952 . S
H79 C99 0.945 . S
H80 C101 0.952 . S
H81 C102 0.949 . S
H82 C104 0.950 . S
H83 C105 0.948 . S
H84 C107 0.951 . S
H85 C72 0.947 . S
H86 C74 0.952 . S
H87 C75 0.950 . S
N88 C91 1.382 . S
N88 C93 1.364 . S
N89 C91 1.368 1_565 S
N89 C92 1.367 1_565 S
N90 C92 1.363 . S
N90 C93 1.378 . S
C91 N88 1.382 . S
C91 N89 1.368 1_545 S
C91 C94 1.479 . S
C92 N89 1.367 1_545 S
C92 N90 1.363 . S
C92 C100 1.457 . S
C93 N88 1.364 . S
C93 N90 1.378 . S
C93 C106 1.476 1_545 S
C94 C91 1.479 . S
C94 C95 1.383 1_545 S
C94 C99 1.385 . S
C95 H76 0.947 . S
C95 C94 1.383 1_565 S
C95 C96 1.388 . S
C96 H77 0.946 . S
C96 C95 1.388 . S
C96 C97 1.384 . S
C97 C96 1.384 . S
C97 C98 1.375 1_565 S
C98 H78 0.952 . S
C98 C97 1.375 1_545 S
C98 C99 1.370 . S
C99 H79 0.945 . S
C99 C94 1.385 . S
C99 C98 1.370 . S
C100 C92 1.457 . S
C100 C101 1.372 1_545 S
C100 C105 1.364 . S
C101 H80 0.952 . S
C101 C100 1.372 1_565 S
C101 C102 1.389 . S
C102 H81 0.949 . S
C102 C101 1.389 . S
C102 C103 1.387 . S
C103 C102 1.387 . S
C103 C104 1.372 1_565 S
C104 H82 0.950 . S
C104 C103 1.372 1_545 S
C104 C105 1.379 . S
C105 H83 0.948 . S
C105 C100 1.364 . S
C105 C104 1.379 . S
C106 C75 1.379 1_565 S
C106 C93 1.476 1_565 S
C106 C107 1.404 . S
C107 C72 1.382 . S
C107 H84 0.951 . S
C107 C106 1.404 . S
C108 C109 1.384 . S
C108 H121 0.947 . S
C108 C143 1.382 . S
C109 C108 1.384 . S
C109 C110 1.378 . S
C110 C109 1.378 . S
C110 C111 1.378 . S
C110 H122 0.952 . S
C111 C110 1.378 . S
C111 H123 0.950 . S
C111 C142 1.383 . S
H112 C131 0.947 . S
H113 C132 0.946 . S
H114 C134 0.953 . S
H115 C135 0.945 . S
H116 C137 0.952 . S
H117 C138 0.949 . S
H118 C140 0.950 . S
H119 C141 0.948 . S
H120 C143 0.951 . S
H121 C108 0.947 . S
H122 C110 0.952 . S
H123 C111 0.950 . S
N124 C127 1.382 . S
N124 C129 1.363 . S
N125 C127 1.371 . S
N125 C128 1.372 . S
N126 C128 1.361 . S
N126 C129 1.377 . S
C127 N124 1.382 . S
C127 N125 1.371 . S
C127 C130 1.480 . S
C128 N125 1.372 . S
C128 N126 1.361 . S
C128 C136 1.457 . S
C129 N124 1.363 . S
C129 N126 1.377 . S
C129 C142 1.479 . S
C130 C127 1.480 . S
C130 C131 1.383 . S
C130 C135 1.385 . S
C131 H112 0.947 . S
C131 C130 1.383 . S
C131 C132 1.388 . S
C132 H113 0.946 . S
C132 C131 1.388 . S
C132 C133 1.384 . S
C133 C132 1.384 . S
C133 C134 1.377 . S
C134 H114 0.953 . S
C134 C133 1.377 . S
C134 C135 1.369 . S
C135 H115 0.945 . S
C135 C130 1.385 . S
C135 C134 1.369 . S
C136 C128 1.457 . S
C136 C137 1.372 . S
C136 C141 1.364 . S
C137 H116 0.952 . S
C137 C136 1.372 . S
C137 C138 1.389 . S
C138 H117 0.949 . S
C138 C137 1.389 . S
C138 C139 1.387 . S
C139 C138 1.387 . S
C139 C140 1.372 . S
C140 H118 0.950 . S
C140 C139 1.372 . S
C140 C141 1.379 . S
C141 H119 0.948 . S
C141 C136 1.364 . S
C141 C140 1.379 . S
C142 C111 1.383 . S
C142 C129 1.479 . S
C142 C143 1.398 . S
C143 C108 1.382 . S
C143 H120 0.951 . S
C143 C142 1.398 . S
C144 C145 1.384 . S
C144 H157 0.947 . S
C144 C179 1.382 . S
C145 C144 1.384 . S
C145 C146 1.378 . S
C146 C145 1.378 . S
C146 C147 1.378 . S
C146 H158 0.952 . S
C147 C146 1.378 . S
C147 H159 0.950 . S
C147 C178 1.383 . S
H148 C167 0.947 1_556 S
H149 C168 0.946 . S
H150 C170 0.953 . S
H151 C171 0.945 . S
H152 C173 0.952 . S
H153 C174 0.949 . S
H154 C176 0.950 . S
H155 C177 0.948 . S
H156 C179 0.951 . S
H157 C144 0.947 . S
H158 C146 0.952 . S
H159 C147 0.950 . S
N160 C163 1.382 1_556 S
N160 C165 1.363 . S
N161 C163 1.371 . S
N161 C164 1.372 . S
N162 C164 1.361 . S
N162 C165 1.377 1_554 S
C163 N160 1.382 1_554 S
C163 N161 1.371 . S
C163 C166 1.480 . S
C164 N161 1.372 . S
C164 N162 1.361 . S
C164 C172 1.457 . S
C165 N160 1.363 . S
C165 N162 1.377 1_556 S
C165 C178 1.479 . S
C166 C163 1.480 . S
C166 C167 1.383 . S
C166 C171 1.385 . S
C167 H148 0.947 1_554 S
C167 C166 1.383 . S
C167 C168 1.388 . S
C168 H149 0.946 . S
C168 C167 1.388 . S
C168 C169 1.384 . S
C169 C168 1.384 . S
C169 C170 1.377 . S
C170 H150 0.953 . S
C170 C169 1.377 . S
C170 C171 1.369 . S
C171 H151 0.945 . S
C171 C166 1.385 . S
C171 C170 1.369 . S
C172 C164 1.457 . S
C172 C173 1.372 . S
C172 C177 1.364 . S
C173 H152 0.952 . S
C173 C172 1.372 . S
C173 C174 1.389 . S
C174 H153 0.949 . S
C174 C173 1.389 . S
C174 C175 1.387 . S
C175 C174 1.387 . S
C175 C176 1.372 . S
C176 H154 0.950 . S
C176 C175 1.372 . S
C176 C177 1.379 . S
C177 H155 0.948 . S
C177 C172 1.364 . S
C177 C176 1.379 . S
C178 C147 1.383 . S
C178 C165 1.479 . S
C178 C179 1.398 . S
C179 C144 1.382 . S
C179 H156 0.951 . S
C179 C178 1.398 . S
C180 C181 1.384 . S
C180 H193 0.944 1_455 S
C180 C215 1.382 . S
C181 C180 1.384 . S
C181 C182 1.378 . S
C182 C181 1.378 . S
C182 C183 1.378 . S
C182 H194 0.952 . S
C183 C182 1.378 . S
C183 H195 0.950 . S
C183 C214 1.383 . S
H184 C203 0.947 1_556 S
H185 C204 0.946 . S
H186 C206 0.953 . S
H187 C207 0.945 . S
H188 C209 0.946 1_655 S
H189 C210 0.951 . S
H190 C212 0.950 . S
H191 C213 0.948 . S
H192 C215 0.946 1_655 S
H193 C180 0.944 1_655 S
H194 C182 0.952 . S
H195 C183 0.950 . S
N196 C199 1.382 1_556 S
N196 C201 1.363 . S
N197 C199 1.371 . S
N197 C200 1.372 . S
N198 C200 1.361 . S
N198 C201 1.377 1_554 S
C199 N196 1.382 1_554 S
C199 N197 1.371 . S
C199 C202 1.480 . S
C200 N197 1.372 . S
C200 N198 1.361 . S
C200 C208 1.457 . S
C201 N196 1.363 . S
C201 N198 1.377 1_556 S
C201 C214 1.479 . S
C202 C199 1.480 . S
C202 C203 1.383 . S
C202 C207 1.385 . S
C203 H184 0.947 1_554 S
C203 C202 1.383 . S
C203 C204 1.388 1_455 S
C204 H185 0.946 . S
C204 C203 1.388 1_655 S
C204 C205 1.384 1_655 S
C205 C204 1.384 1_455 S
C205 C206 1.377 . S
C206 H186 0.953 . S
C206 C205 1.377 . S
C206 C207 1.369 . S
C207 H187 0.945 . S
C207 C202 1.385 . S
C207 C206 1.369 . S
C208 C200 1.457 . S
C208 C209 1.382 . S
C208 C213 1.364 . S
C209 H188 0.946 1_455 S
C209 C208 1.382 . S
C209 C210 1.387 1_455 S
C210 H189 0.951 . S
C210 C209 1.387 1_655 S
C210 C211 1.385 1_655 S
C211 C210 1.385 1_455 S
C211 C212 1.372 . S
C212 H190 0.950 . S
C212 C211 1.372 . S
C212 C213 1.379 . S
C213 H191 0.948 . S
C213 C208 1.364 . S
C213 C212 1.379 . S
C214 C183 1.383 . S
C214 C201 1.479 . S
C214 C215 1.401 . S
C215 C180 1.382 . S
C215 H192 0.946 1_455 S
C215 C214 1.401 . S
C216 C217 1.384 . S
C216 H229 0.947 . S
C216 C251 1.382 . S
C217 C216 1.384 . S
C217 C218 1.378 . S
C218 C217 1.378 . S
C218 C219 1.378 . S
C218 H230 0.952 . S
C219 C218 1.378 . S
C219 H231 0.950 . S
C219 C250 1.383 . S
H220 C239 0.947 1_556 S
H221 C240 0.946 . S
H222 C242 0.953 . S
H223 C243 0.945 . S
H224 C245 0.952 . S
H225 C246 0.949 . S
H226 C248 0.950 . S
H227 C249 0.948 . S
H228 C251 0.951 . S
H229 C216 0.947 . S
H230 C218 0.952 . S
H231 C219 0.950 . S
N232 C235 1.382 1_556 S
N232 C237 1.363 . S
N233 C235 1.371 . S
N233 C236 1.372 . S
N234 C236 1.361 . S
N234 C237 1.377 1_554 S
C235 N232 1.382 1_554 S
C235 N233 1.371 . S
C235 C238 1.480 . S
C236 N233 1.372 . S
C236 N234 1.361 . S
C236 C244 1.457 . S
C237 N232 1.363 . S
C237 N234 1.377 1_556 S
C237 C250 1.479 . S
C238 C235 1.480 . S
C238 C239 1.383 . S
C238 C243 1.385 . S
C239 H220 0.947 1_554 S
C239 C238 1.383 . S
C239 C240 1.388 . S
C240 H221 0.946 . S
C240 C239 1.388 . S
C240 C241 1.384 . S
C241 C240 1.384 . S
C241 C242 1.377 . S
C242 H222 0.953 . S
C242 C241 1.377 . S
C242 C243 1.369 . S
C243 H223 0.945 . S
C243 C238 1.385 . S
C243 C242 1.369 . S
C244 C236 1.457 . S
C244 C245 1.372 . S
C244 C249 1.364 . S
C245 H224 0.952 . S
C245 C244 1.372 . S
C245 C246 1.389 . S
C246 H225 0.949 . S
C246 C245 1.389 . S
C246 C247 1.387 . S
C247 C246 1.387 . S
C247 C248 1.372 . S
C248 H226 0.950 . S
C248 C247 1.372 . S
C248 C249 1.379 . S
C249 H227 0.948 . S
C249 C244 1.364 . S
C249 C248 1.379 . S
C250 C219 1.383 . S
C250 C237 1.479 . S
C250 C251 1.398 . S
C251 C216 1.382 . S
C251 H228 0.951 . S
C251 C250 1.398 . S
C252 C253 1.384 . S
C252 H265 0.947 . S
C252 C287 1.382 . S
C253 C252 1.384 . S
C253 C254 1.378 . S
C254 C253 1.378 . S
C254 C255 1.378 . S
C254 H266 0.952 . S
C255 C254 1.378 . S
C255 H267 0.950 . S
C255 C286 1.383 . S
H256 C275 0.947 . S
H257 C276 0.946 . S
H258 C278 0.953 1_556 S
H259 C279 0.945 1_556 S
H260 C281 0.952 . S
H261 C282 0.949 . S
H262 C284 0.950 . S
H263 C285 0.948 . S
H264 C287 0.951 . S
H265 C252 0.947 . S
H266 C254 0.952 . S
H267 C255 0.950 . S
N268 C271 1.382 . S
N268 C273 1.363 . S
N269 C271 1.371 1_556 S
N269 C272 1.372 . S
N270 C272 1.361 1_554 S
N270 C273 1.377 . S
C271 N268 1.382 . S
C271 N269 1.371 1_554 S
C271 C274 1.480 . S
C272 N269 1.372 . S
C272 N270 1.361 1_556 S
C272 C280 1.457 . S
C273 N268 1.363 . S
C273 N270 1.377 . S
C273 C286 1.479 . S
C274 C271 1.480 . S
C274 C275 1.383 . S
C274 C279 1.385 . S
C275 H256 0.947 . S
C275 C274 1.383 . S
C275 C276 1.388 . S
C276 H257 0.946 . S
C276 C275 1.388 . S
C276 C277 1.384 . S
C277 C276 1.384 . S
C277 C278 1.377 . S
C278 H258 0.953 1_554 S
C278 C277 1.377 . S
C278 C279 1.369 . S
C279 H259 0.945 1_554 S
C279 C274 1.385 . S
C279 C278 1.369 . S
C280 C272 1.457 . S
C280 C281 1.372 . S
C280 C285 1.364 . S
C281 H260 0.952 . S
C281 C280 1.372 . S
C281 C282 1.389 . S
C282 H261 0.949 . S
C282 C281 1.389 . S
C282 C283 1.387 . S
C283 C282 1.387 . S
C283 C284 1.372 . S
C284 H262 0.950 . S
C284 C283 1.372 . S
C284 C285 1.379 . S
C285 H263 0.948 . S
C285 C280 1.364 . S
C285 C284 1.379 . S
C286 C255 1.383 . S
C286 C273 1.479 . S
C286 C287 1.398 . S
C287 C252 1.382 . S
C287 H264 0.951 . S
C287 C286 1.398 . S
Sm288 C290 2.846 . S
Sm288 O308 2.543 . S
Sm288 O309 2.450 . S
Sm288 O310 2.681 1_565 S
Sm288 O311 2.464 . S
Sm288 O312 2.396 . S
Sm288 O316 2.386 1_455 S
Sm288 O319 2.408 1_565 S
Sm289 C299 2.846 . S
Sm289 O310 2.386 1_655 S
Sm289 O313 2.408 1_545 S
Sm289 O314 2.543 . S
Sm289 O315 2.450 . S
Sm289 O316 2.681 1_545 S
Sm289 O317 2.464 . S
Sm289 O318 2.396 . S
C290 Sm288 2.846 . S
C290 C291 1.506 . S
C290 O308 1.261 . S
C290 O309 1.242 . S
C291 C290 1.506 . S
C291 C292 1.358 . S
C291 C296 1.382 . S
C292 C291 1.358 . S
C292 C293 1.385 . S
C292 H320 0.930 1_455 S
C293 C292 1.385 . S
C293 C294 1.395 . S
C293 H321 0.929 1_455 S
C294 C293 1.395 . S
C294 C295 1.335 . S
C295 C294 1.335 . S
C295 C296 1.398 . S
C295 H322 0.930 . S
C296 C291 1.382 . S
C296 C295 1.398 . S
C296 H323 0.929 . S
C297 O310 1.270 1_565 S
C297 O311 1.253 . S
C298 O312 1.252 1_655 S
C298 O313 1.272 . S
C299 Sm289 2.846 . S
C299 C300 1.506 . S
C299 O314 1.261 . S
C299 O315 1.242 . S
C300 C299 1.506 . S
C300 C301 1.358 . S
C300 C305 1.382 . S
C301 C300 1.358 . S
C301 C302 1.385 . S
C301 H324 0.930 1_655 S
C302 C301 1.385 . S
C302 C303 1.395 . S
C302 H325 0.929 1_655 S
C303 C302 1.395 . S
C303 C304 1.335 . S
C304 C303 1.335 . S
C304 C305 1.398 . S
C304 H326 0.930 . S
C305 C300 1.382 . S
C305 C304 1.398 . S
C305 H327 0.929 . S
C306 O316 1.271 1_545 S
C306 O317 1.251 . S
C307 O318 1.252 1_455 S
C307 O319 1.272 . S
O308 Sm288 2.543 . S
O308 C290 1.261 . S
O309 Sm288 2.450 . S
O309 C290 1.242 . S
O310 Sm288 2.681 1_545 S
O310 Sm289 2.386 1_455 S
O310 C297 1.270 1_545 S
O311 Sm288 2.464 . S
O311 C297 1.253 . S
O312 Sm288 2.396 . S
O312 C298 1.252 1_455 S
O313 Sm289 2.408 1_565 S
O313 C298 1.272 . S
O314 Sm289 2.543 . S
O314 C299 1.261 . S
O315 Sm289 2.450 . S
O315 C299 1.242 . S
O316 Sm288 2.386 1_655 S
O316 Sm289 2.681 1_565 S
O316 C306 1.271 1_565 S
O317 Sm289 2.464 . S
O317 C306 1.251 . S
O318 Sm289 2.396 . S
O318 C307 1.252 1_655 S
O319 Sm288 2.408 1_545 S
O319 C307 1.272 . S
H320 C292 0.930 1_655 S
H321 C293 0.929 1_655 S
H322 C295 0.930 . S
H323 C296 0.929 . S
H324 C301 0.930 1_455 S
H325 C302 0.929 1_455 S
H326 C304 0.930 . S
H327 C305 0.929 . S
Sm328 C330 2.846 . S
Sm328 O348 2.543 . S
Sm328 O349 2.450 . S
Sm328 O350 2.681 . S
Sm328 O351 2.464 . S
Sm328 O352 2.396 . S
Sm328 O356 2.386 1_545 S
Sm328 O359 2.408 . S
Sm329 C339 2.846 . S
Sm329 O350 2.386 1_565 S
Sm329 O353 2.408 . S
Sm329 O354 2.545 . S
Sm329 O355 2.450 . S
Sm329 O356 2.681 . S
Sm329 O357 2.464 . S
Sm329 O358 2.396 . S
C330 Sm328 2.846 . S
C330 C331 1.506 . S
C330 O348 1.261 . S
C330 O349 1.242 . S
C331 C330 1.506 . S
C331 C332 1.358 . S
C331 C336 1.382 . S
C332 C331 1.358 . S
C332 C333 1.385 . S
C332 H360 0.930 1_545 S
C333 C332 1.385 . S
C333 C334 1.395 . S
C333 H361 0.929 1_545 S
C334 C333 1.395 . S
C334 C335 1.335 . S
C335 C334 1.335 . S
C335 C336 1.398 . S
C335 H362 0.930 . S
C336 C331 1.382 . S
C336 C335 1.398 . S
C336 H363 0.929 . S
C337 O350 1.271 . S
C337 O351 1.251 . S
C338 O352 1.252 1_565 S
C338 O353 1.272 . S
C339 Sm329 2.846 . S
C339 C340 1.506 . S
C339 O354 1.266 . S
C339 O355 1.242 . S
C340 C339 1.506 . S
C340 C341 1.358 . S
C340 C345 1.382 . S
C341 C340 1.358 . S
C341 C342 1.385 . S
C341 H364 0.930 1_565 S
C342 C341 1.385 . S
C342 C343 1.395 . S
C342 H365 0.929 1_565 S
C343 C342 1.395 . S
C343 C344 1.335 . S
C344 C343 1.335 . S
C344 C345 1.398 . S
C344 H366 0.930 . S
C345 C340 1.382 . S
C345 C344 1.398 . S
C345 H367 0.929 . S
C346 O356 1.271 . S
C346 O357 1.251 . S
C347 O358 1.252 1_545 S
C347 O359 1.272 . S
O348 Sm328 2.543 . S
O348 C330 1.261 . S
O349 Sm328 2.450 . S
O349 C330 1.242 . S
O350 Sm328 2.681 . S
O350 Sm329 2.386 1_545 S
O350 C337 1.271 . S
O351 Sm328 2.464 . S
O351 C337 1.251 . S
O352 Sm328 2.396 . S
O352 C338 1.252 1_545 S
O353 Sm329 2.408 . S
O353 C338 1.272 . S
O354 Sm329 2.545 . S
O354 C339 1.266 . S
O355 Sm329 2.450 . S
O355 C339 1.242 . S
O356 Sm328 2.386 1_565 S
O356 Sm329 2.681 . S
O356 C346 1.271 . S
O357 Sm329 2.464 . S
O357 C346 1.251 . S
O358 Sm329 2.396 . S
O358 C347 1.252 1_565 S
O359 Sm328 2.408 . S
O359 C347 1.272 . S
H360 C332 0.930 1_565 S
H361 C333 0.929 1_565 S
H362 C335 0.930 . S
H363 C336 0.929 . S
H364 C341 0.930 1_545 S
H365 C342 0.929 1_545 S
H366 C344 0.930 . S
H367 C345 0.929 . S
Sm368 C370 2.846 . S
Sm368 O388 2.543 . S
Sm368 O389 2.450 . S
Sm368 O390 2.681 . S
Sm368 O391 2.464 . S
Sm368 O392 2.396 . S
Sm368 O396 2.386 . S
Sm368 O399 2.408 . S
Sm369 C379 2.846 . S
Sm369 O390 2.386 . S
Sm369 O393 2.408 . S
Sm369 O394 2.543 . S
Sm369 O395 2.450 . S
Sm369 O396 2.681 . S
Sm369 O397 2.464 . S
Sm369 O398 2.396 . S
C370 Sm368 2.846 . S
C370 C371 1.506 . S
C370 O388 1.261 . S
C370 O389 1.242 . S
C371 C370 1.506 . S
C371 C372 1.358 . S
C371 C376 1.382 . S
C372 C371 1.358 . S
C372 C373 1.385 . S
C372 H400 0.930 . S
C373 C372 1.385 . S
C373 C374 1.395 . S
C373 H401 0.929 . S
C374 C373 1.395 . S
C374 C375 1.335 . S
C375 C374 1.335 . S
C375 C376 1.398 . S
C375 H402 0.930 . S
C376 C371 1.382 . S
C376 C375 1.398 . S
C376 H403 0.929 . S
C377 O390 1.271 . S
C377 O391 1.251 . S
C378 O392 1.252 . S
C378 O393 1.272 . S
C379 Sm369 2.846 . S
C379 C380 1.506 . S
C379 O394 1.261 . S
C379 O395 1.242 . S
C380 C379 1.506 . S
C380 C381 1.358 . S
C380 C385 1.382 . S
C381 C380 1.358 . S
C381 C382 1.385 . S
C381 H404 0.930 . S
C382 C381 1.385 . S
C382 C383 1.395 . S
C382 H405 0.929 . S
C383 C382 1.395 . S
C383 C384 1.335 . S
C384 C383 1.335 . S
C384 C385 1.398 . S
C384 H406 0.930 . S
C385 C380 1.382 . S
C385 C384 1.398 . S
C385 H407 0.929 . S
C386 O396 1.271 . S
C386 O397 1.251 . S
C387 O398 1.252 . S
C387 O399 1.272 . S
O388 Sm368 2.543 . S
O388 C370 1.261 . S
O389 Sm368 2.450 . S
O389 C370 1.242 . S
O390 Sm368 2.681 . S
O390 Sm369 2.386 . S
O390 C377 1.271 . S
O391 Sm368 2.464 . S
O391 C377 1.251 . S
O392 Sm368 2.396 . S
O392 C378 1.252 . S
O393 Sm369 2.408 . S
O393 C378 1.272 . S
O394 Sm369 2.543 . S
O394 C379 1.261 . S
O395 Sm369 2.450 . S
O395 C379 1.242 . S
O396 Sm368 2.386 . S
O396 Sm369 2.681 . S
O396 C386 1.271 . S
O397 Sm369 2.464 . S
O397 C386 1.251 . S
O398 Sm369 2.396 . S
O398 C387 1.252 . S
O399 Sm368 2.408 . S
O399 C387 1.272 . S
H400 C372 0.930 . S
H401 C373 0.929 . S
H402 C375 0.930 . S
H403 C376 0.929 . S
H404 C381 0.930 . S
H405 C382 0.929 . S
H406 C384 0.930 . S
H407 C385 0.929 . S
Sm408 C410 2.846 . S
Sm408 O428 2.543 . S
Sm408 O429 2.450 . S
Sm408 O430 2.681 1_655 S
Sm408 O431 2.464 . S
Sm408 O432 2.396 . S
Sm408 O436 2.386 . S
Sm408 O439 2.408 1_655 S
Sm409 C419 2.846 . S
Sm409 O430 2.386 . S
Sm409 O433 2.408 1_455 S
Sm409 O434 2.543 . S
Sm409 O435 2.450 . S
Sm409 O436 2.681 1_455 S
Sm409 O437 2.464 . S
Sm409 O438 2.396 . S
C410 Sm408 2.846 . S
C410 C411 1.506 . S
C410 O428 1.261 . S
C410 O429 1.242 . S
C411 C410 1.506 . S
C411 C412 1.358 . S
C411 C416 1.382 . S
C412 C411 1.358 . S
C412 C413 1.385 . S
C412 H440 0.930 . S
C413 C412 1.385 . S
C413 C414 1.395 . S
C413 H441 0.929 . S
C414 C413 1.395 . S
C414 C415 1.335 . S
C415 C414 1.335 . S
C415 C416 1.398 . S
C415 H442 0.930 . S
C416 C411 1.382 . S
C416 C415 1.398 . S
C416 H443 0.929 . S
C417 O430 1.252 1_655 S
C417 O431 1.285 . S
C418 O432 1.252 . S
C418 O433 1.272 . S
C419 Sm409 2.846 . S
C419 C420 1.506 . S
C419 O434 1.261 . S
C419 O435 1.242 . S
C420 C419 1.506 . S
C420 C421 1.358 . S
C420 C425 1.382 . S
C421 C420 1.358 . S
C421 C422 1.385 . S
C421 H444 0.930 . S
C422 C421 1.385 . S
C422 C423 1.395 . S
C422 H445 0.929 . S
C423 C422 1.395 . S
C423 C424 1.335 . S
C424 C423 1.335 . S
C424 C425 1.398 . S
C424 H446 0.930 . S
C425 C420 1.382 . S
C425 C424 1.398 . S
C425 H447 0.929 . S
C426 O436 1.271 1_455 S
C426 O437 1.251 . S
C427 O438 1.252 . S
C427 O439 1.272 . S
O428 Sm408 2.543 . S
O428 C410 1.261 . S
O429 Sm408 2.450 . S
O429 C410 1.242 . S
O430 Sm408 2.681 1_455 S
O430 Sm409 2.386 . S
O430 C417 1.252 1_455 S
O431 Sm408 2.464 . S
O431 C417 1.285 . S
O432 Sm408 2.396 . S
O432 C418 1.252 . S
O433 Sm409 2.408 1_655 S
O433 C418 1.272 . S
O434 Sm409 2.543 . S
O434 C419 1.261 . S
O435 Sm409 2.450 . S
O435 C419 1.242 . S
O436 Sm408 2.386 . S
O436 Sm409 2.681 1_655 S
O436 C426 1.271 1_655 S
O437 Sm409 2.464 . S
O437 C426 1.251 . S
O438 Sm409 2.396 . S
O438 C427 1.252 . S
O439 Sm408 2.408 1_455 S
O439 C427 1.272 . S
H440 C412 0.930 . S
H441 C413 0.929 . S
H442 C415 0.930 . S
H443 C416 0.929 . S
H444 C421 0.930 . S
H445 C422 0.929 . S
H446 C424 0.930 . S
H447 C425 0.929 . S
H448 C456 0.929 . S
H449 C458 0.930 . S
H450 C460 0.930 . S
H451 C463 0.929 . S
H452 C466 0.930 . S
H453 C468 0.960 . S
H454 C468 0.960 . S
H455 C468 0.960 1_565 S
C456 H448 0.929 . S
C456 C457 1.377 . S
C456 C458 1.384 . S
C457 C456 1.377 . S
C457 C463 1.390 1_545 S
C458 H449 0.930 . S
C458 C456 1.384 . S
C458 C459 1.372 . S
C459 C458 1.372 . S
C459 C460 1.400 1_545 S
C459 C464 1.490 . S
C460 H450 0.930 . S
C460 C459 1.400 1_565 S
C460 C463 1.386 . S
H461 C477 0.930 . S
H462 C478 0.931 . S
C463 H451 0.929 . S
C463 C457 1.390 1_565 S
C463 C460 1.386 . S
C464 C459 1.490 . S
C464 C466 1.395 . S
C464 C467 1.403 . S
H465 C471 0.930 . S
C466 H452 0.930 . S
C466 C464 1.395 . S
C466 C469 1.403 . S
C467 C464 1.403 . S
C467 C468 1.524 . S
C467 C471 1.400 . S
C468 H453 0.960 . S
C468 H454 0.960 . S
C468 H455 0.960 1_545 S
C468 C467 1.524 . S
C469 C466 1.403 . S
C469 C470 1.392 . S
C469 C473 1.496 1_545 S
C470 C469 1.392 . S
C470 C471 1.385 . S
C470 C472 1.478 . S
C471 H465 0.930 . S
C471 C467 1.400 . S
C471 C470 1.385 . S
C472 C470 1.478 . S
C472 C474 1.381 . S
C472 C478 1.383 1_545 S
C473 C469 1.496 1_565 S
C473 H479 0.958 . S
C473 H480 0.959 . S
C473 H481 0.961 1_565 S
C474 C472 1.381 . S
C474 C475 1.394 . S
C474 H482 0.930 . S
C475 C474 1.394 . S
C475 C476 1.383 . S
C475 H483 0.929 . S
C476 C475 1.383 . S
C476 C477 1.377 1_545 S
C477 H461 0.930 . S
C477 C476 1.377 1_565 S
C477 C478 1.379 . S
C478 H462 0.931 . S
C478 C472 1.383 1_565 S
C478 C477 1.379 . S
H479 C473 0.958 . S
H480 C473 0.959 . S
H481 C473 0.961 1_545 S
H482 C474 0.930 . S
H483 C475 0.929 . S
H484 C492 0.929 . S
H485 C494 0.930 . S
H486 C496 0.930 . S
H487 C499 0.929 . S
H488 C502 0.930 . S
H489 C504 0.960 . S
H490 C504 0.960 . S
H491 C504 0.960 . S
C492 H484 0.929 . S
C492 C493 1.377 . S
C492 C494 1.384 . S
C493 C492 1.377 . S
C493 C499 1.390 . S
C494 H485 0.930 . S
C494 C492 1.384 . S
C494 C495 1.372 . S
C495 C494 1.372 . S
C495 C496 1.400 . S
C495 C500 1.490 . S
C496 H486 0.930 . S
C496 C495 1.400 . S
C496 C499 1.386 . S
H497 C513 0.930 . S
H498 C514 0.931 . S
C499 H487 0.929 . S
C499 C493 1.390 . S
C499 C496 1.386 . S
C500 C495 1.490 . S
C500 C502 1.395 . S
C500 C503 1.403 . S
H501 C507 0.930 . S
C502 H488 0.930 . S
C502 C500 1.395 . S
C502 C505 1.403 . S
C503 C500 1.403 . S
C503 C504 1.524 . S
C503 C507 1.400 . S
C504 H489 0.960 . S
C504 H490 0.960 . S
C504 H491 0.960 . S
C504 C503 1.524 . S
C505 C502 1.403 . S
C505 C506 1.392 . S
C505 C509 1.495 . S
C506 C505 1.392 . S
C506 C507 1.385 . S
C506 C508 1.478 . S
C507 H501 0.930 . S
C507 C503 1.400 . S
C507 C506 1.385 . S
C508 C506 1.478 . S
C508 C510 1.381 . S
C508 C514 1.383 . S
C509 C505 1.495 . S
C509 H515 0.959 . S
C509 H516 0.961 . S
C509 H517 0.960 . S
C510 C508 1.381 . S
C510 C511 1.394 . S
C510 H518 0.930 . S
C511 C510 1.394 . S
C511 C512 1.383 . S
C511 H519 0.929 . S
C512 C511 1.383 . S
C512 C513 1.377 . S
C513 H497 0.930 . S
C513 C512 1.377 . S
C513 C514 1.379 . S
C514 H498 0.931 . S
C514 C508 1.383 . S
C514 C513 1.379 . S
H515 C509 0.959 . S
H516 C509 0.961 . S
H517 C509 0.960 . S
H518 C510 0.930 . S
H519 C511 0.929 . S
H520 C528 0.929 . S
H521 C530 0.930 . S
H522 C532 0.930 . S
H523 C535 0.929 . S
H524 C538 0.930 . S
H525 C540 0.960 . S
H526 C540 0.960 . S
H527 C540 0.960 . S
C528 H520 0.929 . S
C528 C529 1.377 . S
C528 C530 1.384 . S
C529 C528 1.377 . S
C529 C535 1.390 . S
C530 H521 0.930 . S
C530 C528 1.384 . S
C530 C531 1.372 . S
C531 C530 1.372 . S
C531 C532 1.400 . S
C531 C536 1.490 . S
C532 H522 0.930 . S
C532 C531 1.400 . S
C532 C535 1.386 . S
H533 C549 0.930 . S
H534 C550 0.931 . S
C535 H523 0.929 . S
C535 C529 1.390 . S
C535 C532 1.386 . S
C536 C531 1.490 . S
C536 C538 1.395 . S
C536 C539 1.403 . S
H537 C543 0.930 . S
C538 H524 0.930 . S
C538 C536 1.395 . S
C538 C541 1.403 . S
C539 C536 1.403 . S
C539 C540 1.524 . S
C539 C543 1.400 . S
C540 H525 0.960 . S
C540 H526 0.960 . S
C540 H527 0.960 . S
C540 C539 1.524 . S
C541 C538 1.403 . S
C541 C542 1.392 . S
C541 C545 1.495 . S
C542 C541 1.392 . S
C542 C543 1.385 . S
C542 C544 1.478 . S
C543 H537 0.930 . S
C543 C539 1.400 . S
C543 C542 1.385 . S
C544 C542 1.478 . S
C544 C546 1.381 . S
C544 C550 1.383 . S
C545 C541 1.495 . S
C545 H551 0.959 . S
C545 H552 0.961 . S
C545 H553 0.960 . S
C546 C544 1.381 . S
C546 C547 1.394 . S
C546 H554 0.930 . S
C547 C546 1.394 . S
C547 C548 1.383 . S
C547 H555 0.929 . S
C548 C547 1.383 . S
C548 C549 1.377 . S
C549 H533 0.930 . S
C549 C548 1.377 . S
C549 C550 1.379 . S
C550 H534 0.931 . S
C550 C544 1.383 . S
C550 C549 1.379 . S
H551 C545 0.959 . S
H552 C545 0.961 . S
H553 C545 0.960 . S
H554 C546 0.930 . S
H555 C547 0.929 . S
H556 C564 0.929 . S
H557 C566 0.930 . S
H558 C568 0.930 . S
H559 C571 0.929 . S
H560 C574 0.930 . S
H561 C576 0.960 . S
H562 C576 0.960 . S
H563 C576 0.960 . S
C564 H556 0.929 . S
C564 C565 1.361 1_655 S
C564 C566 1.384 . S
C565 C564 1.361 1_455 S
C565 C571 1.406 . S
C566 H557 0.930 . S
C566 C564 1.384 . S
C566 C567 1.373 . S
C567 C566 1.373 . S
C567 C568 1.398 1_655 S
C567 C572 1.489 . S
C568 H558 0.930 . S
C568 C567 1.398 1_455 S
C568 C571 1.386 . S
H569 C585 0.930 . S
H570 C586 0.931 . S
C571 H559 0.929 . S
C571 C565 1.406 . S
C571 C568 1.386 . S
C572 C567 1.489 . S
C572 C574 1.427 . S
C572 C575 1.373 1_655 S
H573 C579 0.930 . S
C574 H560 0.930 . S
C574 C572 1.427 . S
C574 C577 1.403 . S
C575 C572 1.373 1_455 S
C575 C576 1.524 . S
C575 C579 1.400 . S
C576 H561 0.960 . S
C576 H562 0.960 . S
C576 H563 0.960 . S
C576 C575 1.524 . S
C577 C574 1.403 . S
C577 C578 1.392 . S
C577 C581 1.495 . S
C578 C577 1.392 . S
C578 C579 1.385 1_655 S
C578 C580 1.478 . S
C579 H573 0.930 . S
C579 C575 1.400 . S
C579 C578 1.385 1_455 S
C580 C578 1.478 . S
C580 C582 1.381 . S
C580 C586 1.383 1_655 S
C581 C577 1.495 . S
C581 H587 0.959 . S
C581 H588 0.961 . S
C581 H589 0.960 . S
C582 C580 1.381 . S
C582 C583 1.394 . S
C582 H590 0.930 . S
C583 C582 1.394 . S
C583 C584 1.383 . S
C583 H591 0.929 . S
C584 C583 1.383 . S
C584 C585 1.377 1_655 S
C585 H569 0.930 . S
C585 C584 1.377 1_455 S
C585 C586 1.379 . S
C586 H570 0.931 . S
C586 C580 1.383 1_455 S
C586 C585 1.379 . S
H587 C581 0.959 . S
H588 C581 0.961 . S
H589 C581 0.960 . S
H590 C582 0.930 . S
H591 C583 0.929 . S
H592 C600 0.929 . S
H593 C602 0.930 . S
H594 C604 0.930 . S
H595 C607 0.929 . S
H596 C610 0.930 . S
H597 C612 0.960 . S
H598 C612 0.960 . S
H599 C612 0.960 1_565 S
C600 H592 0.929 . S
C600 C601 1.377 1_545 S
C600 C602 1.384 . S
C601 C600 1.377 1_565 S
C601 C607 1.390 . S
C602 H593 0.930 . S
C602 C600 1.384 . S
C602 C603 1.372 1_545 S
C603 C602 1.372 1_565 S
C603 C604 1.400 . S
C603 C608 1.490 . S
C604 H594 0.930 . S
C604 C603 1.400 . S
C604 C607 1.386 . S
H605 C621 0.930 . S
H606 C622 0.931 . S
C607 H595 0.929 . S
C607 C601 1.390 . S
C607 C604 1.386 . S
C608 C603 1.490 . S
C608 C610 1.395 . S
C608 C611 1.404 1_554 S
H609 C615 0.930 . S
C610 H596 0.930 . S
C610 C608 1.395 . S
C610 C613 1.403 1_554 S
C611 C608 1.404 1_556 S
C611 C612 1.522 1_565 S
C611 C615 1.400 . S
C612 H597 0.960 . S
C612 H598 0.960 . S
C612 H599 0.960 1_545 S
C612 C611 1.522 1_545 S
C613 C610 1.403 1_556 S
C613 C614 1.392 . S
C613 C617 1.495 1_556 S
C614 C613 1.392 . S
C614 C615 1.388 . S
C614 C616 1.478 . S
C615 H609 0.930 . S
C615 C611 1.400 . S
C615 C614 1.388 . S
C616 C614 1.478 . S
C616 C618 1.381 1_565 S
C616 C622 1.383 . S
C617 C613 1.495 1_554 S
C617 H623 0.959 . S
C617 H624 0.961 1_554 S
C617 H625 0.960 1_564 S
C618 C616 1.381 1_545 S
C618 C619 1.394 . S
C618 H626 0.930 . S
C619 C618 1.394 . S
C619 C620 1.383 1_545 S
C619 H627 0.929 . S
C620 C619 1.383 1_565 S
C620 C621 1.377 . S
C621 H605 0.930 . S
C621 C620 1.377 . S
C621 C622 1.379 . S
C622 H606 0.931 . S
C622 C616 1.383 . S
C622 C621 1.379 . S
H623 C617 0.959 . S
H624 C617 0.961 1_556 S
H625 C617 0.960 1_546 S
H626 C618 0.930 . S
H627 C619 0.929 . S
H628 C636 0.929 . S
H629 C638 0.930 . S
H630 C640 0.930 . S
H631 C643 0.929 . S
H632 C646 0.930 . S
H633 C648 0.960 . S
H634 C648 0.960 1_554 S
H635 C648 0.960 . S
C636 H628 0.929 . S
C636 C637 1.377 . S
C636 C638 1.384 . S
C637 C636 1.377 . S
C637 C643 1.390 . S
C638 H629 0.930 . S
C638 C636 1.384 . S
C638 C639 1.372 . S
C639 C638 1.372 . S
C639 C640 1.400 . S
C639 C644 1.490 . S
C640 H630 0.930 . S
C640 C639 1.400 . S
C640 C643 1.386 . S
H641 C657 0.930 . S
H642 C658 0.931 . S
C643 H631 0.929 . S
C643 C637 1.390 . S
C643 C640 1.386 . S
C644 C639 1.490 . S
C644 C646 1.395 . S
C644 C647 1.403 1_554 S
H645 C651 0.930 . S
C646 H632 0.930 . S
C646 C644 1.395 . S
C646 C649 1.403 1_554 S
C647 C644 1.403 1_556 S
C647 C648 1.524 . S
C647 C651 1.400 . S
C648 H633 0.960 . S
C648 H634 0.960 1_556 S
C648 H635 0.960 . S
C648 C647 1.524 . S
C649 C646 1.403 1_556 S
C649 C650 1.392 . S
C649 C653 1.495 . S
C650 C649 1.392 . S
C650 C651 1.385 . S
C650 C652 1.478 . S
C651 H645 0.930 . S
C651 C647 1.400 . S
C651 C650 1.385 . S
C652 C650 1.478 . S
C652 C654 1.381 . S
C652 C658 1.383 . S
C653 C649 1.495 . S
C653 H659 0.959 1_556 S
C653 H660 0.961 . S
C653 H661 0.960 . S
C654 C652 1.381 . S
C654 C655 1.394 . S
C654 H662 0.930 . S
C655 C654 1.394 . S
C655 C656 1.383 . S
C655 H663 0.929 . S
C656 C655 1.383 . S
C656 C657 1.377 . S
C657 H641 0.930 . S
C657 C656 1.377 . S
C657 C658 1.379 . S
C658 H642 0.931 . S
C658 C652 1.383 . S
C658 C657 1.379 . S
H659 C653 0.959 1_554 S
H660 C653 0.961 . S
H661 C653 0.960 . S
H662 C654 0.930 . S
H663 C655 0.929 . S
H664 C672 0.929 . S
H665 C674 0.930 . S
H666 C676 0.930 . S
H667 C679 0.929 . S
H668 C682 0.930 . S
H669 C684 0.960 . S
H670 C684 0.960 . S
H671 C684 0.960 . S
C672 H664 0.929 . S
C672 C673 1.377 . S
C672 C674 1.384 . S
C673 C672 1.377 . S
C673 C679 1.390 . S
C674 H665 0.930 . S
C674 C672 1.384 . S
C674 C675 1.372 . S
C675 C674 1.372 . S
C675 C676 1.400 . S
C675 C680 1.490 . S
C676 H666 0.930 . S
C676 C675 1.400 . S
C676 C679 1.386 . S
H677 C693 0.930 . S
H678 C694 0.931 . S
C679 H667 0.929 . S
C679 C673 1.390 . S
C679 C676 1.386 . S
C680 C675 1.490 . S
C680 C682 1.395 . S
C680 C683 1.403 . S
H681 C687 0.930 . S
C682 H668 0.930 . S
C682 C680 1.395 . S
C682 C685 1.403 1_554 S
C683 C680 1.403 . S
C683 C684 1.524 . S
C683 C687 1.400 1_554 S
C684 H669 0.960 . S
C684 H670 0.960 . S
C684 H671 0.960 . S
C684 C683 1.524 . S
C685 C682 1.403 1_556 S
C685 C686 1.392 . S
C685 C689 1.495 . S
C686 C685 1.392 . S
C686 C687 1.385 . S
C686 C688 1.478 . S
C687 H681 0.930 . S
C687 C683 1.400 1_556 S
C687 C686 1.385 . S
C688 C686 1.478 . S
C688 C690 1.381 . S
C688 C694 1.383 . S
C689 C685 1.495 . S
C689 H695 0.959 . S
C689 H696 0.961 . S
C689 H697 0.960 . S
C690 C688 1.381 . S
C690 C691 1.394 . S
C690 H698 0.930 . S
C691 C690 1.394 . S
C691 C692 1.383 . S
C691 H699 0.929 . S
C692 C691 1.383 . S
C692 C693 1.377 . S
C693 H677 0.930 . S
C693 C692 1.377 . S
C693 C694 1.379 . S
C694 H678 0.931 . S
C694 C688 1.383 . S
C694 C693 1.379 . S
H695 C689 0.959 . S
H696 C689 0.961 . S
H697 C689 0.960 . S
H698 C690 0.930 . S
H699 C691 0.929 . S
H700 C708 0.929 . S
H701 C710 0.930 . S
H702 C712 0.930 . S
H703 C715 0.929 . S
H704 C718 0.930 . S
H705 C720 0.960 . S
H706 C720 0.960 . S
H707 C720 0.960 . S
C708 H700 0.929 . S
C708 C709 1.399 . S
C708 C710 1.384 . S
C709 C708 1.399 . S
C709 C715 1.370 1_655 S
C710 H701 0.930 . S
C710 C708 1.384 . S
C710 C711 1.372 . S
C711 C710 1.372 . S
C711 C712 1.400 1_655 S
C711 C716 1.490 . S
C712 H702 0.930 . S
C712 C711 1.400 1_455 S
C712 C715 1.386 . S
H713 C729 0.930 . S
H714 C730 0.931 . S
C715 H703 0.929 . S
C715 C709 1.370 1_455 S
C715 C712 1.386 . S
C716 C711 1.490 . S
C716 C718 1.395 1_654 S
C716 C719 1.403 . S
H717 C723 0.930 . S
C718 H704 0.930 . S
C718 C716 1.395 1_456 S
C718 C721 1.403 . S
C719 C716 1.403 . S
C719 C720 1.524 . S
C719 C723 1.400 1_554 S
C720 H705 0.960 . S
C720 H706 0.960 . S
C720 H707 0.960 . S
C720 C719 1.524 . S
C721 C718 1.403 . S
C721 C722 1.395 . S
C721 C725 1.495 . S
C722 C721 1.395 . S
C722 C723 1.382 1_455 S
C722 C724 1.477 . S
C723 H717 0.930 . S
C723 C719 1.400 1_556 S
C723 C722 1.382 1_655 S
C724 C722 1.477 . S
C724 C726 1.358 1_455 S
C724 C730 1.405 . S
C725 C721 1.495 . S
C725 H731 0.959 . S
C725 H732 0.961 . S
C725 H733 0.960 . S
C726 C724 1.358 1_655 S
C726 C727 1.394 . S
C726 H734 0.930 . S
C727 C726 1.394 . S
C727 C728 1.392 . S
C727 H735 0.929 . S
C728 C727 1.392 . S
C728 C729 1.367 1_655 S
C729 H713 0.930 . S
C729 C728 1.367 1_455 S
C729 C730 1.379 . S
C730 H714 0.931 . S
C730 C724 1.405 . S
C730 C729 1.379 . S
H731 C725 0.959 . S
H732 C725 0.961 . S
H733 C725 0.960 . S
H734 C726 0.930 . S
H735 C727 0.929 . S
H736 C744 0.929 . S
H737 C746 0.930 . S
H738 C748 0.930 . S
H739 C751 0.929 . S
H740 C754 0.930 . S
H741 C756 0.960 . S
H742 C756 0.960 . S
H743 C756 0.960 . S
C744 H736 0.929 . S
C744 C745 1.377 1_655 S
C744 C746 1.384 . S
C745 C744 1.377 1_455 S
C745 C751 1.390 . S
C746 H737 0.930 . S
C746 C744 1.384 . S
C746 C747 1.372 . S
C747 C746 1.372 . S
C747 C748 1.400 1_655 S
C747 C752 1.490 . S
C748 H738 0.930 . S
C748 C747 1.400 1_455 S
C748 C751 1.386 . S
H749 C765 0.930 . S
H750 C766 0.931 . S
C751 H739 0.929 . S
C751 C745 1.390 . S
C751 C748 1.386 . S
C752 C747 1.490 . S
C752 C754 1.395 . S
C752 C755 1.403 1_655 S
H753 C759 0.930 1_455 S
C754 H740 0.930 . S
C754 C752 1.395 . S
C754 C757 1.403 . S
C755 C752 1.403 1_455 S
C755 C756 1.524 . S
C755 C759 1.400 1_455 S
C756 H741 0.960 . S
C756 H742 0.960 . S
C756 H743 0.960 . S
C756 C755 1.524 . S
C757 C754 1.403 . S
C757 C758 1.392 . S
C757 C761 1.495 . S
C758 C757 1.392 . S
C758 C759 1.385 . S
C758 C760 1.478 . S
C759 H753 0.930 1_655 S
C759 C755 1.400 1_655 S
C759 C758 1.385 . S
C760 C758 1.478 . S
C760 C762 1.381 . S
C760 C766 1.383 . S
C761 C757 1.495 . S
C761 H767 0.959 . S
C761 H768 0.961 . S
C761 H769 0.960 . S
C762 C760 1.381 . S
C762 C763 1.394 . S
C762 H770 0.930 . S
C763 C762 1.394 . S
C763 C764 1.383 . S
C763 H771 0.929 . S
C764 C763 1.383 . S
C764 C765 1.377 . S
C765 H749 0.930 . S
C765 C764 1.377 . S
C765 C766 1.379 . S
C766 H750 0.931 . S
C766 C760 1.383 . S
C766 C765 1.379 . S
H767 C761 0.959 . S
H768 C761 0.961 . S
H769 C761 0.960 . S
H770 C762 0.930 . S
H771 C763 0.929 . S
H772 C780 0.929 . S
H773 C782 0.930 . S
H774 C784 0.930 . S
H775 C787 0.929 . S
H776 C790 0.930 . S
H777 C792 0.960 . S
H778 C792 0.960 . S
H779 C792 0.960 1_565 S
C780 H772 0.929 . S
C780 C781 1.377 . S
C780 C782 1.384 . S
C781 C780 1.377 . S
C781 C787 1.390 1_545 S
C782 H773 0.930 . S
C782 C780 1.384 . S
C782 C783 1.372 1_545 S
C783 C782 1.372 1_565 S
C783 C784 1.400 . S
C783 C788 1.490 . S
C784 H774 0.930 . S
C784 C783 1.400 . S
C784 C787 1.386 . S
H785 C801 0.930 . S
H786 C802 0.931 . S
C787 H775 0.929 . S
C787 C781 1.390 1_565 S
C787 C784 1.386 . S
C788 C783 1.490 . S
C788 C790 1.395 . S
C788 C791 1.403 . S
H789 C795 0.930 . S
C790 H776 0.930 . S
C790 C788 1.395 . S
C790 C793 1.403 . S
C791 C788 1.403 . S
C791 C792 1.524 1_565 S
C791 C795 1.400 . S
C792 H777 0.960 . S
C792 H778 0.960 . S
C792 H779 0.960 1_545 S
C792 C791 1.524 1_545 S
C793 C790 1.403 . S
C793 C794 1.392 . S
C793 C797 1.495 . S
C794 C793 1.392 . S
C794 C795 1.385 . S
C794 C796 1.478 . S
C795 H789 0.930 . S
C795 C791 1.400 . S
C795 C794 1.385 . S
C796 C794 1.478 . S
C796 C798 1.381 . S
C796 C802 1.383 . S
C797 C793 1.495 . S
C797 H803 0.959 . S
C797 H804 0.961 . S
C797 H805 0.960 . S
C798 C796 1.381 . S
C798 C799 1.394 . S
C798 H806 0.907 1_565 S
C799 C798 1.394 . S
C799 C800 1.383 . S
C799 H807 0.929 . S
C800 C799 1.383 . S
C800 C801 1.377 . S
C801 H785 0.930 . S
C801 C800 1.377 . S
C801 C802 1.379 . S
C802 H786 0.931 . S
C802 C796 1.383 . S
C802 C801 1.379 . S
H803 C797 0.959 . S
H804 C797 0.961 . S
H805 C797 0.960 . S
H806 C798 0.907 1_545 S
H807 C799 0.929 . S
H808 C816 0.929 . S
H809 C818 0.930 . S
H810 C820 0.930 . S
H811 C823 0.929 . S
H812 C826 0.930 . S
H813 C828 0.960 . S
H814 C828 0.960 . S
H815 C828 0.960 . S
C816 H808 0.929 . S
C816 C817 1.377 . S
C816 C818 1.384 . S
C817 C816 1.377 . S
C817 C823 1.390 . S
C818 H809 0.930 . S
C818 C816 1.384 . S
C818 C819 1.372 . S
C819 C818 1.372 . S
C819 C820 1.400 . S
C819 C824 1.490 . S
C820 H810 0.930 . S
C820 C819 1.400 . S
C820 C823 1.386 . S
H821 C837 0.930 . S
H822 C838 0.931 . S
C823 H811 0.929 . S
C823 C817 1.390 . S
C823 C820 1.386 . S
C824 C819 1.490 . S
C824 C826 1.395 . S
C824 C827 1.403 . S
H825 C831 0.930 . S
C826 H812 0.930 . S
C826 C824 1.395 . S
C826 C829 1.403 . S
C827 C824 1.403 . S
C827 C828 1.524 . S
C827 C831 1.400 . S
C828 H813 0.960 . S
C828 H814 0.960 . S
C828 H815 0.960 . S
C828 C827 1.524 . S
C829 C826 1.403 . S
C829 C830 1.392 . S
C829 C833 1.495 . S
C830 C829 1.392 . S
C830 C831 1.385 . S
C830 C832 1.478 . S
C831 H825 0.930 . S
C831 C827 1.400 . S
C831 C830 1.385 . S
C832 C830 1.478 . S
C832 C834 1.381 . S
C832 C838 1.383 . S
C833 C829 1.495 . S
C833 H839 0.959 . S
C833 H840 0.961 . S
C833 H841 0.960 . S
C834 C832 1.381 . S
C834 C835 1.394 . S
C834 H842 0.930 . S
C835 C834 1.394 . S
C835 C836 1.383 . S
C835 H843 0.929 . S
C836 C835 1.383 . S
C836 C837 1.377 . S
C837 H821 0.930 . S
C837 C836 1.377 . S
C837 C838 1.379 . S
C838 H822 0.931 . S
C838 C832 1.383 . S
C838 C837 1.379 . S
H839 C833 0.959 . S
H840 C833 0.961 . S
H841 C833 0.960 . S
H842 C834 0.930 . S
H843 C835 0.929 . S
H844 C852 0.929 . S
H845 C854 0.930 . S
H846 C856 0.930 . S
H847 C859 0.929 . S
H848 C862 0.930 . S
H849 C864 0.960 . S
H850 C864 0.960 . S
H851 C864 0.960 . S
C852 H844 0.929 . S
C852 C853 1.377 . S
C852 C854 1.384 . S
C853 C852 1.377 . S
C853 C859 1.390 . S
C854 H845 0.930 . S
C854 C852 1.384 . S
C854 C855 1.372 . S
C855 C854 1.372 . S
C855 C856 1.400 . S
C855 C860 1.490 . S
C856 H846 0.930 . S
C856 C855 1.400 . S
C856 C859 1.386 . S
H857 C873 0.930 . S
H858 C874 0.931 . S
C859 H847 0.929 . S
C859 C853 1.390 . S
C859 C856 1.386 . S
C860 C855 1.490 . S
C860 C862 1.395 . S
C860 C863 1.403 . S
H861 C867 0.930 . S
C862 H848 0.930 . S
C862 C860 1.395 . S
C862 C865 1.403 . S
C863 C860 1.403 . S
C863 C864 1.524 . S
C863 C867 1.400 . S
C864 H849 0.960 . S
C864 H850 0.960 . S
C864 H851 0.960 . S
C864 C863 1.524 . S
C865 C862 1.403 . S
C865 C866 1.392 . S
C865 C869 1.495 . S
C866 C865 1.392 . S
C866 C867 1.385 . S
C866 C868 1.478 . S
C867 H861 0.930 . S
C867 C863 1.400 . S
C867 C866 1.385 . S
C868 C866 1.478 . S
C868 C870 1.381 . S
C868 C874 1.383 . S
C869 C865 1.495 . S
C869 H875 0.959 . S
C869 H876 0.961 . S
C869 H877 0.960 . S
C870 C868 1.381 . S
C870 C871 1.394 . S
C870 H878 0.930 . S
C871 C870 1.394 . S
C871 C872 1.383 . S
C871 H879 0.929 . S
C872 C871 1.383 . S
C872 C873 1.377 . S
C873 H857 0.930 . S
C873 C872 1.377 . S
C873 C874 1.379 . S
C874 H858 0.931 . S
C874 C868 1.383 . S
C874 C873 1.379 . S
H875 C869 0.959 . S
H876 C869 0.961 . S
H877 C869 0.960 . S
H878 C870 0.930 . S
H879 C871 0.929 . S
H880 C888 0.929 . S
H881 C890 0.930 . S
H882 C892 0.933 1_556 S
H883 C895 0.929 . S
H884 C898 0.930 . S
H885 C900 0.960 . S
H886 C900 0.960 1_554 S
H887 C900 0.960 . S
C888 H880 0.929 . S
C888 C889 1.377 1_455 S
C888 C890 1.384 . S
C889 C888 1.377 1_655 S
C889 C895 1.390 . S
C890 H881 0.930 . S
C890 C888 1.384 . S
C890 C891 1.372 . S
C891 C890 1.372 . S
C891 C892 1.400 . S
C891 C896 1.490 . S
C892 H882 0.933 1_554 S
C892 C891 1.400 . S
C892 C895 1.386 1_455 S
H893 C909 0.930 . S
H894 C910 0.931 . S
C895 H883 0.929 . S
C895 C889 1.390 . S
C895 C892 1.386 1_655 S
C896 C891 1.490 . S
C896 C898 1.395 . S
C896 C899 1.403 1_454 S
H897 C903 0.930 1_655 S
C898 H884 0.930 . S
C898 C896 1.395 . S
C898 C901 1.403 1_554 S
C899 C896 1.403 1_656 S
C899 C900 1.524 . S
C899 C903 1.400 1_655 S
C900 H885 0.960 . S
C900 H886 0.960 1_556 S
C900 H887 0.960 . S
C900 C899 1.524 . S
C901 C898 1.403 1_556 S
C901 C902 1.392 . S
C901 C905 1.495 1_556 S
C902 C901 1.392 . S
C902 C903 1.385 . S
C902 C904 1.478 . S
C903 H897 0.930 1_455 S
C903 C899 1.400 1_455 S
C903 C902 1.385 . S
C904 C902 1.478 . S
C904 C906 1.381 . S
C904 C910 1.383 . S
C905 C901 1.495 1_554 S
C905 H911 0.959 . S
C905 H912 0.961 1_554 S
C905 H913 0.960 . S
C906 C904 1.381 . S
C906 C907 1.394 . S
C906 H914 0.930 . S
C907 C906 1.394 . S
C907 C908 1.383 . S
C907 H915 0.929 . S
C908 C907 1.383 . S
C908 C909 1.377 . S
C909 H893 0.930 . S
C909 C908 1.377 . S
C909 C910 1.379 . S
C910 H894 0.931 . S
C910 C904 1.383 . S
C910 C909 1.379 . S
H911 C905 0.959 . S
H912 C905 0.961 1_556 S
H913 C905 0.960 . S
H914 C906 0.930 . S
H915 C907 0.929 . S
H916 C924 0.929 . S
H917 C926 0.930 . S
H918 C928 0.930 . S
H919 C931 0.929 . S
H920 C934 0.930 . S
H921 C936 0.960 . S
H922 C936 0.960 . S
H923 C936 0.960 . S
C924 H916 0.929 . S
C924 C925 1.377 . S
C924 C926 1.384 . S
C925 C924 1.377 . S
C925 C931 1.390 1_565 S
C926 H917 0.930 . S
C926 C924 1.384 . S
C926 C927 1.372 1_565 S
C927 C926 1.372 1_545 S
C927 C928 1.400 . S
C927 C932 1.490 . S
C928 H918 0.930 . S
C928 C927 1.400 . S
C928 C931 1.386 . S
H929 C945 0.930 . S
H930 C946 0.931 . S
C931 H919 0.929 . S
C931 C925 1.390 1_545 S
C931 C928 1.386 . S
C932 C927 1.490 . S
C932 C934 1.395 1_545 S
C932 C935 1.403 1_554 S
H933 C939 0.930 . S
C934 H920 0.930 . S
C934 C932 1.395 1_565 S
C934 C937 1.404 . S
C935 C932 1.403 1_556 S
C935 C936 1.524 . S
C935 C939 1.400 . S
C936 H921 0.960 . S
C936 H922 0.960 . S
C936 H923 0.960 . S
C936 C935 1.524 . S
C937 C934 1.404 . S
C937 C938 1.389 1_564 S
C937 C941 1.498 . S
C938 C937 1.389 1_546 S
C938 C939 1.385 . S
C938 C940 1.478 . S
C939 H933 0.930 . S
C939 C935 1.400 . S
C939 C938 1.385 . S
C940 C938 1.478 . S
C940 C942 1.381 . S
C940 C946 1.383 . S
C941 C937 1.498 . S
C941 H947 0.959 . S
C941 H948 0.961 . S
C941 H949 0.960 1_554 S
C942 C940 1.381 . S
C942 C943 1.394 . S
C942 H950 0.930 1_545 S
C943 C942 1.394 . S
C943 C944 1.383 . S
C943 H951 0.950 . S
C944 C943 1.383 . S
C944 C945 1.377 . S
C945 H929 0.930 . S
C945 C944 1.377 . S
C945 C946 1.379 . S
C946 H930 0.931 . S
C946 C940 1.383 . S
C946 C945 1.379 . S
H947 C941 0.959 . S
H948 C941 0.961 . S
H949 C941 0.960 1_556 S
H950 C942 0.930 1_565 S
H951 C943 0.950 . S
H952 C960 0.929 . S
H953 C962 0.930 . S
H954 C964 0.930 . S
H955 C967 0.929 . S
H956 C970 0.930 . S
H957 C972 0.960 . S
H958 C972 0.960 . S
H959 C972 0.960 . S
C960 H952 0.929 . S
C960 C961 1.377 . S
C960 C962 1.384 . S
C961 C960 1.377 . S
C961 C967 1.390 . S
C962 H953 0.930 . S
C962 C960 1.384 . S
C962 C963 1.372 . S
C963 C962 1.372 . S
C963 C964 1.400 . S
C963 C968 1.490 . S
C964 H954 0.930 . S
C964 C963 1.400 . S
C964 C967 1.386 . S
H965 C981 0.930 . S
H966 C982 0.931 . S
C967 H955 0.929 . S
C967 C961 1.390 . S
C967 C964 1.386 . S
C968 C963 1.490 . S
C968 C970 1.395 . S
C968 C971 1.403 1_554 S
H969 C975 0.930 . S
C970 H956 0.930 . S
C970 C968 1.395 . S
C970 C973 1.403 1_554 S
C971 C968 1.403 1_556 S
C971 C972 1.524 . S
C971 C975 1.400 . S
C972 H957 0.960 . S
C972 H958 0.960 . S
C972 H959 0.960 . S
C972 C971 1.524 . S
C973 C970 1.403 1_556 S
C973 C974 1.392 . S
C973 C977 1.495 . S
C974 C973 1.392 . S
C974 C975 1.385 . S
C974 C976 1.478 . S
C975 H969 0.930 . S
C975 C971 1.400 . S
C975 C974 1.385 . S
C976 C974 1.478 . S
C976 C978 1.381 . S
C976 C982 1.383 . S
C977 C973 1.495 . S
C977 H983 0.959 1_556 S
C977 H984 0.961 1_556 S
C977 H985 0.960 . S
C978 C976 1.381 . S
C978 C979 1.394 . S
C978 H986 0.930 . S
C979 C978 1.394 . S
C979 C980 1.383 . S
C979 H987 0.929 . S
C980 C979 1.383 . S
C980 C981 1.377 . S
C981 H965 0.930 . S
C981 C980 1.377 . S
C981 C982 1.379 . S
C982 H966 0.931 . S
C982 C976 1.383 . S
C982 C981 1.379 . S
H983 C977 0.959 1_554 S
H984 C977 0.961 1_554 S
H985 C977 0.960 . S
H986 C978 0.930 . S
H987 C979 0.929 . S
H988 C996 0.929 . S
H989 C998 0.930 . S
H990 C1000 0.930 1_556 S
H991 C1003 0.929 . S
H992 C1006 0.930 . S
H993 C1008 0.960 . S
H994 C1008 0.960 . S
H995 C1008 0.960 . S
C996 H988 0.929 . S
C996 C997 1.377 . S
C996 C998 1.384 . S
C997 C996 1.377 . S
C997 C1003 1.390 . S
C998 H989 0.930 . S
C998 C996 1.384 . S
C998 C999 1.372 . S
C999 C998 1.372 . S
C999 C1000 1.400 . S
C999 C1004 1.490 . S
C1000 H990 0.930 1_554 S
C1000 C999 1.400 . S
C1000 C1003 1.386 . S
H1001 C1017 0.930 . S
H1002 C1018 0.931 . S
C1003 H991 0.929 . S
C1003 C997 1.390 . S
C1003 C1000 1.386 . S
C1004 C999 1.490 . S
C1004 C1006 1.395 . S
C1004 C1007 1.403 1_554 S
H1005 C1011 0.930 . S
C1006 H992 0.930 . S
C1006 C1004 1.395 . S
C1006 C1009 1.403 . S
C1007 C1004 1.403 1_556 S
C1007 C1008 1.524 . S
C1007 C1011 1.400 . S
C1008 H993 0.960 . S
C1008 H994 0.960 . S
C1008 H995 0.960 . S
C1008 C1007 1.524 . S
C1009 C1006 1.403 . S
C1009 C1010 1.392 1_554 S
C1009 C1013 1.495 . S
C1010 C1009 1.392 1_556 S
C1010 C1011 1.385 . S
C1010 C1012 1.478 . S
C1011 H1005 0.930 . S
C1011 C1007 1.400 . S
C1011 C1010 1.385 . S
C1012 C1010 1.478 . S
C1012 C1014 1.381 . S
C1012 C1018 1.383 . S
C1013 C1009 1.495 . S
C1013 H1019 0.959 . S
C1013 H1020 0.961 . S
C1013 H1021 0.960 . S
C1014 C1012 1.381 . S
C1014 C1015 1.394 . S
C1014 H1022 0.930 . S
C1015 C1014 1.394 . S
C1015 C1016 1.383 . S
C1015 H1023 0.929 . S
C1016 C1015 1.383 . S
C1016 C1017 1.377 . S
C1017 H1001 0.930 . S
C1017 C1016 1.377 . S
C1017 C1018 1.379 . S
C1018 H1002 0.931 . S
C1018 C1012 1.383 . S
C1018 C1017 1.379 . S
H1019 C1013 0.959 . S
H1020 C1013 0.961 . S
H1021 C1013 0.960 . S
H1022 C1014 0.930 . S
H1023 C1015 0.929 . S
H1024 C1032 0.929 . S
H1025 C1034 0.930 . S
H1026 C1036 0.930 . S
H1027 C1039 0.929 . S
H1028 C1042 0.930 . S
H1029 C1044 0.960 . S
H1030 C1044 0.960 . S
H1031 C1044 0.960 . S
C1032 H1024 0.929 . S
C1032 C1033 1.377 1_655 S
C1032 C1034 1.384 . S
C1033 C1032 1.377 1_455 S
C1033 C1039 1.390 . S
C1034 H1025 0.930 . S
C1034 C1032 1.384 . S
C1034 C1035 1.372 1_655 S
C1035 C1034 1.372 1_455 S
C1035 C1036 1.400 . S
C1035 C1040 1.490 . S
C1036 H1026 0.930 . S
C1036 C1035 1.400 . S
C1036 C1039 1.386 . S
H1037 C1053 0.930 . S
H1038 C1054 0.931 . S
C1039 H1027 0.929 . S
C1039 C1033 1.390 . S
C1039 C1036 1.386 . S
C1040 C1035 1.490 . S
C1040 C1042 1.395 . S
C1040 C1043 1.403 1_455 S
H1041 C1047 0.931 . S
C1042 H1028 0.930 . S
C1042 C1040 1.395 . S
C1042 C1045 1.403 . S
C1043 C1040 1.403 1_655 S
C1043 C1044 1.524 . S
C1043 C1047 1.400 . S
C1044 H1029 0.960 . S
C1044 H1030 0.960 . S
C1044 H1031 0.960 . S
C1044 C1043 1.524 . S
C1045 C1042 1.403 . S
C1045 C1046 1.392 . S
C1045 C1049 1.495 . S
C1046 C1045 1.392 . S
C1046 C1047 1.385 1_455 S
C1046 C1048 1.478 . S
C1047 H1041 0.931 . S
C1047 C1043 1.400 . S
C1047 C1046 1.385 1_655 S
C1048 C1046 1.478 . S
C1048 C1050 1.381 1_455 S
C1048 C1054 1.383 . S
C1049 C1045 1.495 . S
C1049 H1055 0.959 . S
C1049 H1056 0.961 . S
C1049 H1057 0.960 . S
C1050 C1048 1.381 1_655 S
C1050 C1051 1.394 . S
C1050 H1058 0.930 . S
C1051 C1050 1.394 . S
C1051 C1052 1.383 1_655 S
C1051 H1059 0.929 . S
C1052 C1051 1.383 1_455 S
C1052 C1053 1.377 . S
C1053 H1037 0.930 . S
C1053 C1052 1.377 . S
C1053 C1054 1.379 . S
C1054 H1038 0.931 . S
C1054 C1048 1.383 . S
C1054 C1053 1.379 . S
H1055 C1049 0.959 . S
H1056 C1049 0.961 . S
H1057 C1049 0.960 . S
H1058 C1050 0.930 . S
H1059 C1051 0.929 . S
H1060 C1068 0.929 . S
H1061 C1070 0.930 . S
H1062 C1072 0.930 . S
H1063 C1075 0.929 . S
H1064 C1078 0.930 . S
H1065 C1080 0.960 . S
H1066 C1080 0.960 . S
H1067 C1080 0.960 1_545 S
C1068 H1060 0.929 . S
C1068 C1069 1.377 1_565 S
C1068 C1070 1.384 . S
C1069 C1068 1.377 1_545 S
C1069 C1075 1.390 . S
C1070 H1061 0.930 . S
C1070 C1068 1.384 . S
C1070 C1071 1.372 1_565 S
C1071 C1070 1.372 1_545 S
C1071 C1072 1.400 . S
C1071 C1076 1.490 . S
C1072 H1062 0.930 . S
C1072 C1071 1.400 . S
C1072 C1075 1.386 . S
H1073 C1089 0.930 . S
H1074 C1090 0.931 . S
C1075 H1063 0.929 . S
C1075 C1069 1.390 . S
C1075 C1072 1.386 . S
C1076 C1071 1.490 . S
C1076 C1078 1.395 . S
C1076 C1079 1.403 . S
H1077 C1083 0.934 . S
C1078 H1064 0.930 . S
C1078 C1076 1.395 . S
C1078 C1081 1.403 . S
C1079 C1076 1.403 . S
C1079 C1080 1.524 1_545 S
C1079 C1083 1.400 . S
C1080 H1065 0.960 . S
C1080 H1066 0.960 . S
C1080 H1067 0.960 1_565 S
C1080 C1079 1.524 1_565 S
C1081 C1078 1.403 . S
C1081 C1082 1.392 . S
C1081 C1085 1.495 . S
C1082 C1081 1.392 . S
C1082 C1083 1.385 . S
C1082 C1084 1.478 . S
C1083 H1077 0.934 . S
C1083 C1079 1.400 . S
C1083 C1082 1.385 . S
C1084 C1082 1.478 . S
C1084 C1086 1.381 1_545 S
C1084 C1090 1.383 . S
C1085 C1081 1.495 . S
C1085 H1091 0.959 . S
C1085 H1092 0.961 . S
C1085 H1093 0.960 . S
C1086 C1084 1.381 1_565 S
C1086 C1087 1.394 . S
C1086 H1094 0.930 . S
C1087 C1086 1.394 . S
C1087 C1088 1.383 1_565 S
C1087 H1095 0.929 . S
C1088 C1087 1.383 1_545 S
C1088 C1089 1.377 . S
C1089 H1073 0.930 . S
C1089 C1088 1.377 . S
C1089 C1090 1.379 . S
C1090 H1074 0.931 . S
C1090 C1084 1.383 . S
C1090 C1089 1.379 . S
H1091 C1085 0.959 . S
H1092 C1085 0.961 . S
H1093 C1085 0.960 . S
H1094 C1086 0.930 . S
H1095 C1087 0.929 . S
H1096 C1104 0.929 . S
H1097 C1106 0.930 . S
H1098 C1108 0.930 . S
H1099 C1111 0.929 . S
H1100 C1114 0.930 . S
H1101 C1116 0.960 . S
H1102 C1116 0.960 . S
H1103 C1116 0.960 . S
C1104 H1096 0.929 . S
C1104 C1105 1.377 . S
C1104 C1106 1.384 . S
C1105 C1104 1.377 . S
C1105 C1111 1.390 . S
C1106 H1097 0.930 . S
C1106 C1104 1.384 . S
C1106 C1107 1.372 . S
C1107 C1106 1.372 . S
C1107 C1108 1.400 . S
C1107 C1112 1.490 . S
C1108 H1098 0.930 . S
C1108 C1107 1.400 . S
C1108 C1111 1.386 . S
H1109 C1125 0.930 . S
H1110 C1126 0.931 . S
C1111 H1099 0.929 . S
C1111 C1105 1.390 . S
C1111 C1108 1.386 . S
C1112 C1107 1.490 . S
C1112 C1114 1.395 . S
C1112 C1115 1.403 . S
H1113 C1119 0.930 . S
C1114 H1100 0.930 . S
C1114 C1112 1.395 . S
C1114 C1117 1.403 . S
C1115 C1112 1.403 . S
C1115 C1116 1.524 . S
C1115 C1119 1.400 . S
C1116 H1101 0.960 . S
C1116 H1102 0.960 . S
C1116 H1103 0.960 . S
C1116 C1115 1.524 . S
C1117 C1114 1.403 . S
C1117 C1118 1.392 . S
C1117 C1121 1.495 . S
C1118 C1117 1.392 . S
C1118 C1119 1.385 . S
C1118 C1120 1.478 . S
C1119 H1113 0.930 . S
C1119 C1115 1.400 . S
C1119 C1118 1.385 . S
C1120 C1118 1.478 . S
C1120 C1122 1.381 . S
C1120 C1126 1.383 . S
C1121 C1117 1.495 . S
C1121 H1127 0.959 . S
C1121 H1128 0.961 . S
C1121 H1129 0.960 . S
C1122 C1120 1.381 . S
C1122 C1123 1.394 . S
C1122 H1130 0.930 . S
C1123 C1122 1.394 . S
C1123 C1124 1.383 . S
C1123 H1131 0.929 . S
C1124 C1123 1.383 . S
C1124 C1125 1.377 . S
C1125 H1109 0.930 . S
C1125 C1124 1.377 . S
C1125 C1126 1.379 . S
C1126 H1110 0.931 . S
C1126 C1120 1.383 . S
C1126 C1125 1.379 . S
H1127 C1121 0.959 . S
H1128 C1121 0.961 . S
H1129 C1121 0.960 . S
H1130 C1122 0.930 . S
H1131 C1123 0.929 . S
H1132 C1140 0.929 . S
H1133 C1142 0.930 . S
H1134 C1144 0.930 . S
H1135 C1147 0.929 . S
H1136 C1150 0.930 . S
H1137 C1152 0.960 . S
H1138 C1152 0.960 . S
H1139 C1152 0.960 . S
C1140 H1132 0.929 . S
C1140 C1141 1.377 . S
C1140 C1142 1.384 . S
C1141 C1140 1.377 . S
C1141 C1147 1.390 . S
C1142 H1133 0.930 . S
C1142 C1140 1.384 . S
C1142 C1143 1.372 . S
C1143 C1142 1.372 . S
C1143 C1144 1.400 . S
C1143 C1148 1.490 . S
C1144 H1134 0.930 . S
C1144 C1143 1.400 . S
C1144 C1147 1.386 . S
H1145 C1161 0.930 . S
H1146 C1162 0.931 . S
C1147 H1135 0.929 . S
C1147 C1141 1.390 . S
C1147 C1144 1.386 . S
C1148 C1143 1.490 . S
C1148 C1150 1.395 . S
C1148 C1151 1.403 . S
H1149 C1155 0.930 . S
C1150 H1136 0.930 . S
C1150 C1148 1.395 . S
C1150 C1153 1.403 . S
C1151 C1148 1.403 . S
C1151 C1152 1.524 . S
C1151 C1155 1.400 . S
C1152 H1137 0.960 . S
C1152 H1138 0.960 . S
C1152 H1139 0.960 . S
C1152 C1151 1.524 . S
C1153 C1150 1.403 . S
C1153 C1154 1.392 . S
C1153 C1157 1.495 . S
C1154 C1153 1.392 . S
C1154 C1155 1.385 . S
C1154 C1156 1.478 . S
C1155 H1149 0.930 . S
C1155 C1151 1.400 . S
C1155 C1154 1.385 . S
C1156 C1154 1.478 . S
C1156 C1158 1.381 . S
C1156 C1162 1.383 . S
C1157 C1153 1.495 . S
C1157 H1163 0.959 . S
C1157 H1164 0.961 . S
C1157 H1165 0.960 . S
C1158 C1156 1.381 . S
C1158 C1159 1.394 . S
C1158 H1166 0.930 . S
C1159 C1158 1.394 . S
C1159 C1160 1.383 . S
C1159 H1167 0.929 . S
C1160 C1159 1.383 . S
C1160 C1161 1.377 . S
C1161 H1145 0.930 . S
C1161 C1160 1.377 . S
C1161 C1162 1.379 . S
C1162 H1146 0.931 . S
C1162 C1156 1.383 . S
C1162 C1161 1.379 . S
H1163 C1157 0.959 . S
H1164 C1157 0.961 . S
H1165 C1157 0.960 . S
H1166 C1158 0.930 . S
H1167 C1159 0.929 . S
H1168 C1176 0.929 . S
H1169 C1178 0.930 . S
H1170 C1180 0.930 . S
H1171 C1183 0.929 . S
H1172 C1186 0.930 . S
H1173 C1188 0.960 . S
H1174 C1188 0.960 . S
H1175 C1188 0.960 . S
C1176 H1168 0.929 . S
C1176 C1177 1.377 1_455 S
C1176 C1178 1.384 . S
C1177 C1176 1.377 1_655 S
C1177 C1183 1.390 . S
C1178 H1169 0.930 . S
C1178 C1176 1.384 . S
C1178 C1179 1.372 1_455 S
C1179 C1178 1.372 1_655 S
C1179 C1180 1.400 . S
C1179 C1184 1.490 . S
C1180 H1170 0.930 . S
C1180 C1179 1.400 . S
C1180 C1183 1.386 . S
H1181 C1197 0.930 . S
H1182 C1198 0.931 . S
C1183 H1171 0.929 . S
C1183 C1177 1.390 . S
C1183 C1180 1.386 . S
C1184 C1179 1.490 . S
C1184 C1186 1.395 . S
C1184 C1187 1.403 1_655 S
H1185 C1191 0.930 . S
C1186 H1172 0.930 . S
C1186 C1184 1.395 . S
C1186 C1189 1.403 . S
C1187 C1184 1.403 1_455 S
C1187 C1188 1.524 . S
C1187 C1191 1.400 . S
C1188 H1173 0.960 . S
C1188 H1174 0.960 . S
C1188 H1175 0.960 . S
C1188 C1187 1.524 . S
C1189 C1186 1.403 . S
C1189 C1190 1.392 . S
C1189 C1193 1.495 . S
C1190 C1189 1.392 . S
C1190 C1191 1.385 1_655 S
C1190 C1192 1.478 . S
C1191 H1185 0.930 . S
C1191 C1187 1.400 . S
C1191 C1190 1.385 1_455 S
C1192 C1190 1.478 . S
C1192 C1194 1.375 1_655 S
C1192 C1198 1.383 . S
C1193 C1189 1.495 . S
C1193 H1199 0.959 . S
C1193 H1200 0.961 . S
C1193 H1201 0.960 . S
C1194 C1192 1.375 1_455 S
C1194 C1195 1.394 . S
C1194 H1202 0.936 . S
C1195 C1194 1.394 . S
C1195 C1196 1.379 1_455 S
C1195 H1203 0.933 . S
C1196 C1195 1.379 1_655 S
C1196 C1197 1.377 . S
C1197 H1181 0.930 . S
C1197 C1196 1.377 . S
C1197 C1198 1.379 . S
C1198 H1182 0.931 . S
C1198 C1192 1.383 . S
C1198 C1197 1.379 . S
H1199 C1193 0.959 . S
H1200 C1193 0.961 . S
H1201 C1193 0.960 . S
H1202 C1194 0.936 . S
H1203 C1195 0.933 . S
H1204 C1212 0.929 . S
H1205 C1214 0.930 . S
H1206 C1216 0.930 . S
H1207 C1219 0.929 . S
H1208 C1222 0.930 . S
H1209 C1224 0.960 . S
H1210 C1224 0.960 . S
H1211 C1224 0.960 1_545 S
C1212 H1204 0.929 . S
C1212 C1213 1.377 . S
C1212 C1214 1.384 . S
C1213 C1212 1.377 . S
C1213 C1219 1.390 1_565 S
C1214 H1205 0.930 . S
C1214 C1212 1.384 . S
C1214 C1215 1.372 . S
C1215 C1214 1.372 . S
C1215 C1216 1.400 1_565 S
C1215 C1220 1.490 . S
C1216 H1206 0.930 . S
C1216 C1215 1.400 1_545 S
C1216 C1219 1.386 . S
H1217 C1233 0.930 . S
H1218 C1234 0.931 . S
C1219 H1207 0.929 . S
C1219 C1213 1.390 1_545 S
C1219 C1216 1.386 . S
C1220 C1215 1.490 . S
C1220 C1222 1.395 . S
C1220 C1223 1.403 . S
H1221 C1227 0.930 . S
C1222 H1208 0.930 . S
C1222 C1220 1.395 . S
C1222 C1225 1.403 . S
C1223 C1220 1.403 . S
C1223 C1224 1.524 . S
C1223 C1227 1.400 . S
C1224 H1209 0.960 . S
C1224 H1210 0.960 . S
C1224 H1211 0.960 1_565 S
C1224 C1223 1.524 . S
C1225 C1222 1.403 . S
C1225 C1226 1.392 . S
C1225 C1229 1.495 . S
C1226 C1225 1.392 . S
C1226 C1227 1.385 . S
C1226 C1228 1.478 . S
C1227 H1221 0.930 . S
C1227 C1223 1.400 . S
C1227 C1226 1.385 . S
C1228 C1226 1.478 . S
C1228 C1230 1.381 . S
C1228 C1234 1.383 1_565 S
C1229 C1225 1.495 . S
C1229 H1235 0.959 . S
C1229 H1236 0.964 . S
C1229 H1237 0.960 . S
C1230 C1228 1.381 . S
C1230 C1231 1.394 . S
C1230 H1238 0.930 . S
C1231 C1230 1.394 . S
C1231 C1232 1.383 . S
C1231 H1239 0.929 . S
C1232 C1231 1.383 . S
C1232 C1233 1.377 1_565 S
C1233 H1217 0.930 . S
C1233 C1232 1.377 1_545 S
C1233 C1234 1.379 . S
C1234 H1218 0.931 . S
C1234 C1228 1.383 1_545 S
C1234 C1233 1.379 . S
H1235 C1229 0.959 . S
H1236 C1229 0.964 . S
H1237 C1229 0.960 . S
H1238 C1230 0.930 . S
H1239 C1231 0.929 . S
H1240 C1248 0.929 . S
H1241 C1250 0.930 . S
H1242 C1252 0.930 . S
H1243 C1255 0.929 . S
H1244 C1258 0.930 . S
H1245 C1260 0.960 . S
H1246 C1260 0.960 . S
H1247 C1260 0.960 . S
C1248 H1240 0.929 . S
C1248 C1249 1.377 . S
C1248 C1250 1.384 . S
C1249 C1248 1.377 . S
C1249 C1255 1.390 . S
C1250 H1241 0.930 . S
C1250 C1248 1.384 . S
C1250 C1251 1.372 . S
C1251 C1250 1.372 . S
C1251 C1252 1.400 . S
C1251 C1256 1.490 . S
C1252 H1242 0.930 . S
C1252 C1251 1.400 . S
C1252 C1255 1.386 . S
H1253 C1269 0.930 . S
H1254 C1270 0.931 . S
C1255 H1243 0.929 . S
C1255 C1249 1.390 . S
C1255 C1252 1.386 . S
C1256 C1251 1.490 . S
C1256 C1258 1.395 . S
C1256 C1259 1.403 . S
H1257 C1263 0.930 . S
C1258 H1244 0.930 . S
C1258 C1256 1.395 . S
C1258 C1261 1.403 . S
C1259 C1256 1.403 . S
C1259 C1260 1.524 . S
C1259 C1263 1.400 . S
C1260 H1245 0.960 . S
C1260 H1246 0.960 . S
C1260 H1247 0.960 . S
C1260 C1259 1.524 . S
C1261 C1258 1.403 . S
C1261 C1262 1.392 . S
C1261 C1265 1.495 . S
C1262 C1261 1.392 . S
C1262 C1263 1.385 . S
C1262 C1264 1.478 . S
C1263 H1257 0.930 . S
C1263 C1259 1.400 . S
C1263 C1262 1.385 . S
C1264 C1262 1.478 . S
C1264 C1266 1.381 . S
C1264 C1270 1.383 . S
C1265 C1261 1.495 . S
C1265 H1271 0.959 . S
C1265 H1272 0.961 . S
C1265 H1273 0.960 . S
C1266 C1264 1.381 . S
C1266 C1267 1.394 . S
C1266 H1274 0.930 . S
C1267 C1266 1.394 . S
C1267 C1268 1.383 . S
C1267 H1275 0.929 . S
C1268 C1267 1.383 . S
C1268 C1269 1.377 . S
C1269 H1253 0.930 . S
C1269 C1268 1.377 . S
C1269 C1270 1.379 . S
C1270 H1254 0.931 . S
C1270 C1264 1.383 . S
C1270 C1269 1.379 . S
H1271 C1265 0.959 . S
H1272 C1265 0.961 . S
H1273 C1265 0.960 . S
H1274 C1266 0.930 . S
H1275 C1267 0.929 . S
H1276 C1284 0.929 . S
H1277 C1286 0.930 . S
H1278 C1288 0.930 . S
H1279 C1291 0.929 . S
H1280 C1294 0.930 . S
H1281 C1296 0.960 . S
H1282 C1296 0.960 . S
H1283 C1296 0.960 . S
C1284 H1276 0.929 . S
C1284 C1285 1.377 . S
C1284 C1286 1.384 . S
C1285 C1284 1.377 . S
C1285 C1291 1.390 . S
C1286 H1277 0.930 . S
C1286 C1284 1.384 . S
C1286 C1287 1.372 . S
C1287 C1286 1.372 . S
C1287 C1288 1.400 . S
C1287 C1292 1.490 . S
C1288 H1278 0.930 . S
C1288 C1287 1.400 . S
C1288 C1291 1.386 . S
H1289 C1305 0.930 . S
H1290 C1306 0.931 . S
C1291 H1279 0.929 . S
C1291 C1285 1.390 . S
C1291 C1288 1.386 . S
C1292 C1287 1.490 . S
C1292 C1294 1.395 . S
C1292 C1295 1.403 . S
H1293 C1299 0.930 . S
C1294 H1280 0.930 . S
C1294 C1292 1.395 . S
C1294 C1297 1.403 . S
C1295 C1292 1.403 . S
C1295 C1296 1.524 . S
C1295 C1299 1.400 . S
C1296 H1281 0.960 . S
C1296 H1282 0.960 . S
C1296 H1283 0.960 . S
C1296 C1295 1.524 . S
C1297 C1294 1.403 . S
C1297 C1298 1.392 . S
C1297 C1301 1.495 . S
C1298 C1297 1.392 . S
C1298 C1299 1.385 . S
C1298 C1300 1.478 . S
C1299 H1293 0.930 . S
C1299 C1295 1.400 . S
C1299 C1298 1.385 . S
C1300 C1298 1.478 . S
C1300 C1302 1.381 . S
C1300 C1306 1.383 . S
C1301 C1297 1.495 . S
C1301 H1307 0.959 . S
C1301 H1308 0.961 . S
C1301 H1309 0.960 . S
C1302 C1300 1.381 . S
C1302 C1303 1.394 . S
C1302 H1310 0.930 . S
C1303 C1302 1.394 . S
C1303 C1304 1.383 . S
C1303 H1311 0.929 . S
C1304 C1303 1.383 . S
C1304 C1305 1.377 . S
C1305 H1289 0.930 . S
C1305 C1304 1.377 . S
C1305 C1306 1.379 . S
C1306 H1290 0.931 . S
C1306 C1300 1.383 . S
C1306 C1305 1.379 . S
H1307 C1301 0.959 . S
H1308 C1301 0.961 . S
H1309 C1301 0.960 . S
H1310 C1302 0.930 . S
H1311 C1303 0.929 . S
C457 C241 1.856 . S
C476 C297 2.001 1_545 S
C512 C337 2.014 . S
C493 C277 1.918 . S
C548 C377 1.999 . S
C529 C169 1.862 . S
C584 C417 2.002 . S
C565 C205 1.873 . S
C620 C306 2.000 1_565 S
C601 C97 1.851 . S
C637 C133 1.909 . S
C656 C346 2.010 . S
C673 C25 1.865 . S
C692 C386 2.011 . S
C709 C61 1.864 1_655 S
C728 C426 2.004 1_655 S
C764 C303 0.342 . S
C745 C211 0.289 . S
C800 C343 0.316 . S
C781 C247 0.274 . S
C836 C383 0.171 . S
C817 C253 0.266 . S
C853 C175 0.283 . S
C872 C423 0.346 . S
C889 C67 0.352 1_655 S
C908 C294 0.354 . S
C944 C334 0.215 . S
C925 C103 0.379 . S
C980 C374 0.183 . S
C961 C109 0.217 . S
C997 C31 0.367 . S
C1016 C414 0.341 . S
C1033 C181 2.532 . S
C1052 C307 2.806 . S
C1069 C217 2.521 . S
C1088 C347 2.793 . S
C1124 C387 2.803 . S
C1105 C283 2.466 . S
C1160 C427 2.796 . S
C1141 C145 2.515 . S
C1177 C37 2.532 1_655 S
C1196 C298 2.808 . S
C1232 C338 2.786 . S
C1213 C73 2.519 . S
C1268 C378 2.800 . S
C1249 C139 2.455 . S
C1285 C1 2.526 . S
C1304 C418 2.811 . S
