# Generated by pormake.
# Topology pyr, (3,6)-cn, num edge types: 1
# Building blocks:
#     Node 0, Type 0, BuildingBlock: BETDAH_clean_linker_0, # of connection points: 3
#     Node 1, Type 0, BuildingBlock: BETDAH_clean_linker_0, # of connection points: 3
#     Node 2, Type 0, BuildingBlock: BETDAH_clean_linker_0, # of connection points: 3
#     Node 3, Type 0, BuildingBlock: BETDAH_clean_linker_0, # of connection points: 3
#     Node 4, Type 0, BuildingBlock: BETDAH_clean_linker_0, # of connection points: 3
#     Node 5, Type 0, BuildingBlock: BETDAH_clean_linker_0, # of connection points: 3
#     Node 6, Type 0, BuildingBlock: BETDAH_clean_linker_0, # of connection points: 3
#     Node 7, Type 0, BuildingBlock: BETDAH_clean_linker_0, # of connection points: 3
#     Node 8, Type 1, BuildingBlock: FUNLAD_clean_sbu_0, # of connection points: 6
#     Node 9, Type 1, BuildingBlock: FUNLAD_clean_sbu_0, # of connection points: 6
#     Node 10, Type 1, BuildingBlock: FUNLAD_clean_sbu_0, # of connection points: 6
#     Node 11, Type 1, BuildingBlock: FUNLAD_clean_sbu_0, # of connection points: 6
#     Edge 12, Type (0, 1), BuildingBlock: UVAHIK_clean_linker_0, # of connection points: 2
#     Edge 13, Type (0, 1), BuildingBlock: UVAHIK_clean_linker_0, # of connection points: 2
#     Edge 14, Type (0, 1), BuildingBlock: UVAHIK_clean_linker_0, # of connection points: 2
#     Edge 15, Type (0, 1), BuildingBlock: UVAHIK_clean_linker_0, # of connection points: 2
#     Edge 16, Type (0, 1), BuildingBlock: UVAHIK_clean_linker_0, # of connection points: 2
#     Edge 17, Type (0, 1), BuildingBlock: UVAHIK_clean_linker_0, # of connection points: 2
#     Edge 18, Type (0, 1), BuildingBlock: UVAHIK_clean_linker_0, # of connection points: 2
#     Edge 19, Type (0, 1), BuildingBlock: UVAHIK_clean_linker_0, # of connection points: 2
#     Edge 20, Type (0, 1), BuildingBlock: UVAHIK_clean_linker_0, # of connection points: 2
#     Edge 21, Type (0, 1), BuildingBlock: UVAHIK_clean_linker_0, # of connection points: 2
#     Edge 22, Type (0, 1), BuildingBlock: UVAHIK_clean_linker_0, # of connection points: 2
#     Edge 23, Type (0, 1), BuildingBlock: UVAHIK_clean_linker_0, # of connection points: 2
#     Edge 24, Type (0, 1), BuildingBlock: UVAHIK_clean_linker_0, # of connection points: 2
#     Edge 25, Type (0, 1), BuildingBlock: UVAHIK_clean_linker_0, # of connection points: 2
#     Edge 26, Type (0, 1), BuildingBlock: UVAHIK_clean_linker_0, # of connection points: 2
#     Edge 27, Type (0, 1), BuildingBlock: UVAHIK_clean_linker_0, # of connection points: 2
#     Edge 28, Type (0, 1), BuildingBlock: UVAHIK_clean_linker_0, # of connection points: 2
#     Edge 29, Type (0, 1), BuildingBlock: UVAHIK_clean_linker_0, # of connection points: 2
#     Edge 30, Type (0, 1), BuildingBlock: UVAHIK_clean_linker_0, # of connection points: 2
#     Edge 31, Type (0, 1), BuildingBlock: UVAHIK_clean_linker_0, # of connection points: 2
#     Edge 32, Type (0, 1), BuildingBlock: UVAHIK_clean_linker_0, # of connection points: 2
#     Edge 33, Type (0, 1), BuildingBlock: UVAHIK_clean_linker_0, # of connection points: 2
#     Edge 34, Type (0, 1), BuildingBlock: UVAHIK_clean_linker_0, # of connection points: 2
#     Edge 35, Type (0, 1), BuildingBlock: UVAHIK_clean_linker_0, # of connection points: 2
# Relax obj value: 0.158
# Max RMSD: 0.202
# Mean RMSD: 0.129
data_MOF--net-pry--node1-FUNLAD_clean_sbu_0--node2-BETDAH_clean_linker_0--edge1-UVAHIK_clean_linker_0
_symmetry_space_group_name_H-M    P1
_symmetry_Int_Tables_number       1
_symmetry_cell_setting            triclinic
loop_
_symmetry_equiv_pos_as_xyz
'x, y, z'
_cell_length_a     44.442591
_cell_length_b     47.744653
_cell_length_c     49.911819
_cell_angle_alpha  90.20385
_cell_angle_beta   90.44249
_cell_angle_gamma 90.738414
loop_
_atom_site_label
_atom_site_type_symbol
_atom_site_fract_x
_atom_site_fract_y
_atom_site_fract_z
_atom_type_partial_charge
H0 H 0.19906 0.17093 0.23152 0.0
H1 H 0.18121 0.22893 0.16732 0.0
H2 H 0.12008 0.22215 0.23297 0.0
C3 C 0.18508 0.18686 0.22263 0.0
C4 C 0.15885 0.19535 0.236 0.0
C5 C 0.1933 0.19848 0.19763 0.0
C6 C 0.17514 0.21958 0.18629 0.0
C7 C 0.14895 0.22832 0.19945 0.0
C8 C 0.14092 0.21582 0.22376 0.0
N9 N 0.12916 0.24889 0.18897 0.0
C10 C 0.13418 0.26758 0.168 0.0
H11 H 0.42157 0.8701 0.74809 0.0
H12 H 0.37644 0.94818 0.73418 0.0
H13 H 0.38387 0.88908 0.6703 0.0
C14 C 0.40903 0.88379 0.73498 0.0
C15 C 0.40407 0.876 0.7079 0.0
C16 C 0.39856 0.90961 0.74501 0.0
C17 C 0.3832 0.9276 0.72746 0.0
C18 C 0.37778 0.92004 0.70076 0.0
C19 C 0.38792 0.89431 0.69116 0.0
N20 N 0.36706 0.94036 0.68256 0.0
C21 C 0.33715 0.94206 0.67441 0.0
H22 H 0.64923 0.44643 1.0061 0.0
H23 H 0.63618 0.53509 0.99577 0.0
H24 H 0.56253 0.47783 0.98325 0.0
C25 C 0.6349 0.4639 1.00124 0.0
C26 C 0.60455 0.45871 0.99459 0.0
C27 C 0.64695 0.4913 1.00139 0.0
C28 C 0.62753 0.5138 0.99648 0.0
C29 C 0.5972 0.50893 0.99016 0.0
C30 C 0.58582 0.48143 0.98905 0.0
N31 N 0.57899 0.53171 0.98263 0.0
C32 C 0.56421 0.53122 0.95806 0.0
H33 H 0.88849 0.67162 0.47384 0.0
H34 H 0.95763 0.63668 0.42469 0.0
H35 H 0.89407 0.58227 0.4639 0.0
C36 C 0.8993 0.65353 0.46516 0.0
C37 C 0.888 0.6266 0.4707 0.0
C38 C 0.92445 0.65737 0.44872 0.0
C39 C 0.93848 0.63387 0.43776 0.0
C40 C 0.92757 0.60674 0.44333 0.0
C41 C 0.90281 0.6032 0.46025 0.0
N42 N 0.94017 0.58289 0.43095 0.0
C43 C 0.95076 0.58403 0.40487 0.0
H44 H 0.91994 0.87168 0.8262 0.0
H45 H 0.87323 0.8866 0.90038 0.0
H46 H 0.87477 0.94975 0.83992 0.0
C47 C 0.90609 0.88486 0.83863 0.0
C48 C 0.89807 0.91174 0.82942 0.0
C49 C 0.89712 0.87531 0.86424 0.0
C50 C 0.87926 0.89287 0.88026 0.0
C51 C 0.87124 0.91961 0.87138 0.0
C52 C 0.88075 0.92883 0.84621 0.0
N53 N 0.85878 0.93935 0.88933 0.0
C54 C 0.82932 0.93848 0.89865 0.0
H55 H 0.69747 0.16533 0.34554 0.0
H56 H 0.68787 0.23216 0.40364 0.0
H57 H 0.62587 0.22408 0.33774 0.0
C58 C 0.68609 0.1837 0.35287 0.0
C59 C 0.66116 0.19355 0.33836 0.0
C60 C 0.69641 0.19744 0.37648 0.0
C61 C 0.68048 0.22108 0.38577 0.0
C62 C 0.65484 0.23044 0.3718 0.0
C63 C 0.64564 0.21668 0.34829 0.0
N64 N 0.63687 0.25311 0.38057 0.0
C65 C 0.6433 0.27268 0.40065 0.0
H66 H 0.38204 0.66399 0.09888 0.0
H67 H 0.3984 0.57641 0.11276 0.0
H68 H 0.45639 0.6393 0.14824 0.0
C69 C 0.39539 0.64752 0.1077 0.0
C70 C 0.42031 0.65482 0.12376 0.0
C71 C 0.38729 0.61932 0.10332 0.0
C72 C 0.40446 0.59828 0.11557 0.0
C73 C 0.4289 0.60535 0.13229 0.0
C74 C 0.43716 0.63366 0.1358 0.0
N75 N 0.44402 0.58381 0.14632 0.0
C76 C 0.4575 0.58872 0.17115 0.0
H77 H 0.15657 0.45191 0.57261 0.0
H78 H 0.13945 0.54015 0.57899 0.0
H79 H 0.0672 0.48066 0.58908 0.0
C80 C 0.14092 0.46889 0.57537 0.0
C81 C 0.11043 0.46281 0.58014 0.0
C82 C 0.15164 0.49665 0.57494 0.0
C83 C 0.13138 0.51863 0.57861 0.0
C84 C 0.10114 0.51283 0.58426 0.0
C85 C 0.0907 0.48496 0.5849 0.0
N86 N 0.08207 0.53499 0.59175 0.0
C87 C 0.06686 0.53344 0.61587 0.0
C88 C 0.03813 0.07695 0.48206 0.0
N89 N 0.02302 0.11485 0.55648 0.0
C90 C 0.05159 0.12512 0.55447 0.0
C91 C 0.05835 0.15255 0.56205 0.0
C92 C 0.03541 0.16994 0.57136 0.0
C93 C 1.0064 0.15843 0.5746 0.0
C94 C 1.00067 0.13061 0.567 0.0
Zn95 Zn 0.01442 0.07682 0.53902 0.0
C96 C 0.95561 0.07634 0.50881 0.0
N97 N 0.99908 0.9989 0.49932 0.0
C98 C 0.02177 0.9879 0.48465 0.0
C99 C 0.97266 0.98472 0.50269 0.0
C100 C 0.9686 0.95802 0.49163 0.0
C101 C 0.99193 0.94587 0.47687 0.0
C102 C 0.0186 0.96139 0.47311 0.0
Zn103 Zn 1.00627 0.03656 0.51768 0.0
O104 O 0.03641 0.09176 0.50322 0.0
C105 C 0.06491 0.03716 0.54799 0.0
O106 O 0.027 0.05231 0.48215 0.0
H107 H 0.95497 0.99388 0.51447 0.0
H108 H 0.06902 0.11243 0.54584 0.0
H109 H 0.04262 0.99951 0.48226 0.0
O110 O 0.05589 0.06149 0.55402 0.0
O111 O 0.0488 0.02195 0.53242 0.0
H112 H 0.97809 0.12204 0.56837 0.0
O113 O 0.98567 0.02116 0.55382 0.0
O114 O 0.99306 0.06131 0.57452 0.0
O115 O 0.96398 0.05166 0.50299 0.0
O116 O 0.97231 0.09154 0.52391 0.0
C117 C 0.98354 0.03602 0.57497 0.0
H118 H 0.08118 0.16035 0.55976 0.0
H119 H 0.98803 0.17114 0.5816 0.0
H120 H 0.9478 0.94669 0.49536 0.0
H121 H 0.037 0.95306 0.46156 0.0
C122 C 0.56054 0.03565 0.02721 0.0
N123 N 0.51787 0.1134 0.0191 0.0
C124 C 0.54534 0.12601 0.0218 0.0
C125 C 0.54996 0.15332 1.01275 0.0
C126 C 0.52602 0.16783 1.00091 0.0
C127 C 0.49825 0.15389 0.9974 0.0
C128 C 0.49465 0.12651 1.00666 0.0
Zn129 Zn 0.51051 0.0757 0.03701 0.0
C130 C 0.47835 0.03474 1.00118 0.0
N131 N 0.49495 0.99801 0.07611 0.0
C132 C 0.51769 0.98549 0.08976 0.0
C133 C 0.46733 0.98564 0.07374 0.0
C134 C 0.46188 0.95937 0.08493 0.0
C135 C 0.48508 0.94568 0.09873 0.0
C136 C 0.51322 0.95919 0.1013 0.0
Zn137 Zn 0.50244 0.03544 0.05784 0.0
O138 O 0.55195 0.06032 0.02177 0.0
C139 C 0.53558 0.07571 0.09344 0.0
O140 O 0.54433 0.02045 0.04242 0.0
H141 H 0.44962 0.99596 0.06272 0.0
H142 H 0.56342 0.11525 0.0319 0.0
H143 H 0.53946 0.99577 0.09143 0.0
O144 O 0.53291 0.09091 0.07268 0.0
O145 O 0.52481 0.05092 0.09291 0.0
H146 H 0.47301 0.11605 1.00471 0.0
O147 O 0.46048 0.05107 0.07308 0.0
O148 O 0.46891 0.09074 0.05243 0.0
O149 O 0.48057 0.02003 0.02229 0.0
O150 O 0.48837 0.05985 1.0016 0.0
C151 C 0.45229 0.07586 0.06752 0.0
H152 H 0.57163 0.16339 1.01615 0.0
H153 H 0.47932 0.16425 0.98812 0.0
H154 H 0.43998 0.94955 0.08208 0.0
H155 H 0.53162 0.94949 0.11199 0.0
C156 C 0.54699 0.51893 0.54064 0.0
N157 N 0.53899 0.54657 0.62033 0.0
C158 C 0.52586 0.52234 0.62891 0.0
C159 C 0.52762 0.51481 0.65593 0.0
C160 C 0.54326 0.53231 0.6741 0.0
C161 C 0.5573 0.55672 0.66446 0.0
C162 C 0.5548 0.56352 0.63745 0.0
Zn163 Zn 0.53285 0.56049 0.58215 0.0
C164 C 0.58905 0.58737 0.56066 0.0
N165 N 0.51988 0.5935 0.50377 0.0
C166 C 0.50368 0.57622 0.48724 0.0
C167 C 0.53213 0.61792 0.49464 0.0
C168 C 0.5285 0.62554 0.46775 0.0
C169 C 0.51184 0.60797 0.45035 0.0
C170 C 0.49925 0.58313 0.46047 0.0
Zn171 Zn 0.52644 0.57984 0.54212 0.0
O172 O 0.54555 0.52093 0.56602 0.0
C173 C 0.47012 0.55309 0.56325 0.0
O174 O 0.53999 0.53999 0.52643 0.0
H175 H 0.54503 0.63129 0.50811 0.0
H176 H 0.51335 0.50921 0.61494 0.0
H177 H 0.49455 0.55668 0.49471 0.0
O178 O 0.4871 0.54723 0.58299 0.0
O179 O 0.48101 0.56636 0.54351 0.0
H180 H 0.56472 0.58286 0.63031 0.0
O181 O 0.5135 0.61935 0.55837 0.0
O182 O 0.51985 0.60042 0.59794 0.0
O183 O 0.57155 0.59337 0.54134 0.0
O184 O 0.57881 0.57376 0.58053 0.0
C185 C 0.51268 0.62147 0.58379 0.0
H186 H 0.51663 0.49572 0.66258 0.0
H187 H 0.56913 0.57106 0.67785 0.0
H188 H 0.53852 0.64491 0.46065 0.0
H189 H 0.48676 0.56874 0.44762 0.0
C190 C 1.00775 0.62167 0.99059 0.0
N191 N 0.0142 0.59065 0.07011 0.0
C192 C 0.02539 0.61498 0.08076 0.0
C193 C 0.02053 0.62145 0.1078 0.0
C194 C 1.00368 0.60285 0.12368 0.0
C195 C 0.99241 0.57806 0.11204 0.0
C196 C 0.99807 0.5723 0.08526 0.0
Zn197 Zn 0.02158 0.57841 0.0314 0.0
C198 C 0.9658 0.55201 1.00802 0.0
N199 N 0.03513 0.54798 0.95219 0.0
C200 C 0.05104 0.56499 0.93552 0.0
C201 C 0.02198 0.52382 0.94312 0.0
C202 C 0.02373 0.51645 0.91607 0.0
C203 C 0.03939 0.534 0.89833 0.0
C204 C 0.05357 0.55831 0.90843 0.0
Zn205 Zn 0.02849 0.561 0.99059 0.0
O206 O 1.00792 0.61852 1.01595 0.0
C207 C 0.08441 0.58689 1.01455 0.0
O208 O 0.0158 0.60132 0.97586 0.0
H209 H 1.00948 0.5106 0.95675 0.0
H210 H 0.03832 0.62919 0.0684 0.0
H211 H 0.06104 0.58424 0.94309 0.0
O212 O 0.06668 0.59243 0.03366 0.0
O213 O 0.0743 0.57408 0.99392 0.0
H214 H 0.98983 0.55282 0.07669 0.0
O215 O 0.04111 0.52082 1.00575 0.0
O216 O 0.03547 0.53816 0.04606 0.0
O217 O 0.98264 0.54796 0.98798 0.0
O218 O 0.97656 0.56404 0.02872 0.0
C219 C 0.04247 0.51769 0.03104 0.0
H220 H 0.02964 0.64077 0.11615 0.0
H221 H 0.97989 0.56286 0.12372 0.0
H222 H 0.0127 0.49741 0.90906 0.0
H223 H 0.06554 0.57258 0.89535 0.0
C224 C 0.15535 0.15467 0.26873 0.0
C225 C 0.14964 0.18287 0.26243 0.0
C226 C 0.14554 0.14298 0.293 0.0
C227 C 0.11385 0.16275 0.36047 0.0
H228 H 0.09194 0.08405 0.36227 0.0
C229 C 0.07315 0.1109 0.45903 0.0
C230 C 0.05253 0.08838 0.45748 0.0
C231 C 0.08662 0.12168 0.43584 0.0
C232 C 0.09746 0.10618 0.36221 0.0
H233 H 0.12981 0.22094 0.27794 0.0
H234 H 0.11113 0.20036 0.31876 0.0
H235 H 0.11116 0.10421 0.3213 0.0
H236 H 0.02957 0.05981 0.43018 0.0
H237 H 0.05155 0.07936 0.38978 0.0
H238 H 0.09828 0.1652 0.40076 0.0
C239 C 0.12388 0.18721 0.30542 0.0
C240 C 0.10919 0.11774 0.33861 0.0
C241 C 0.13417 0.199 0.28146 0.0
C242 C 0.04557 0.07702 0.43213 0.0
C243 C 0.05849 0.08819 0.40888 0.0
C244 C 0.10154 0.15133 0.38387 0.0
C245 C 0.12928 0.15896 0.31168 0.0
C246 C 0.11754 0.14628 0.33724 0.0
C247 C 0.07935 0.1107 0.41025 0.0
C248 C 0.09305 0.12283 0.38522 0.0
H249 H 0.16689 0.14131 0.2547 0.0
H250 H 0.15083 0.12134 0.29702 0.0
H251 H 0.12048 0.18463 0.36077 0.0
H252 H 0.07923 0.12 0.47827 0.0
H253 H 0.10299 0.1385 0.43815 0.0
C254 C 0.38313 0.93367 0.7877 0.0
C255 C 0.40495 0.91899 0.77317 0.0
C256 C 0.38981 0.94499 0.81301 0.0
C257 C 0.4438 0.94183 0.87023 0.0
H258 H 0.41459 0.01639 0.88533 0.0
C259 C 0.45792 0.99344 0.97501 0.0
C260 C 0.46649 0.02192 0.97588 0.0
C261 C 0.44928 0.98061 0.95079 0.0
C262 C 0.42308 0.99563 0.88143 0.0
H263 H 0.45086 0.90422 0.77447 0.0
H264 H 0.46248 0.92381 0.81871 0.0
H265 H 0.40243 0.99405 0.84254 0.0
H266 H 0.47201 0.05932 0.9518 0.0
H267 H 0.45693 0.03699 0.90962 0.0
H268 H 0.46494 0.94366 0.90895 0.0
C269 C 0.44006 0.92642 0.81054 0.0
C270 C 0.4158 0.98263 0.85696 0.0
C271 C 0.43337 0.9151 0.78514 0.0
C272 C 0.46545 0.03739 0.95195 0.0
C273 C 0.45671 0.02457 0.92773 0.0
C274 C 0.45098 0.95478 0.89477 0.0
C275 C 0.41852 0.94194 0.82463 0.0
C276 C 0.42608 0.95556 0.85096 0.0
C277 C 0.44885 0.9959 0.92674 0.0
C278 C 0.44078 0.98191 0.90071 0.0
H279 H 0.36083 0.93667 0.77938 0.0
H280 H 0.37242 0.95624 0.82346 0.0
H281 H 0.45194 0.92091 0.86646 0.0
H282 H 0.45839 0.98082 0.993 0.0
H283 H 0.44293 0.95864 0.95094 0.0
C284 C 0.55429 0.50369 0.91736 0.0
C285 C 0.55338 0.52938 0.93093 0.0
C286 C 0.54856 0.50246 0.88982 0.0
C287 C 0.52566 0.5044 0.83202 0.0
H288 H 0.56732 0.56258 0.79229 0.0
C289 C 0.517 0.51843 0.71645 0.0
C290 C 0.54358 0.52639 0.70324 0.0
C291 C 0.51645 0.5166 0.74441 0.0
C292 C 0.55571 0.54607 0.80308 0.0
H293 H 0.54488 0.57368 0.92737 0.0
H294 H 0.53437 0.57165 0.87912 0.0
H295 H 0.56724 0.56434 0.84095 0.0
H296 H 0.59088 0.5367 0.70874 0.0
H297 H 0.58997 0.53339 0.75744 0.0
H298 H 0.51478 0.48586 0.7939 0.0
C299 C 0.53974 0.55247 0.88956 0.0
C300 C 0.55527 0.54732 0.83098 0.0
C301 C 0.54548 0.55366 0.9171 0.0
C302 C 0.56993 0.53104 0.71841 0.0
C303 C 0.56939 0.52921 0.74628 0.0
C304 C 0.526 0.50322 0.804 0.0
C305 C 0.54204 0.52698 0.87549 0.0
C306 C 0.54043 0.52641 0.84579 0.0
C307 C 0.54247 0.52271 0.75962 0.0
C308 C 0.54136 0.52389 0.78929 0.0
H309 H 0.56071 0.4848 0.92782 0.0
H310 H 0.55083 0.48258 0.87955 0.0
H311 H 0.51391 0.48806 0.84291 0.0
H312 H 0.49627 0.51496 0.7053 0.0
H313 H 0.49536 0.51166 0.75415 0.0
C314 C 0.98662 0.59597 0.369 0.0
C315 C 0.95808 0.58663 0.37698 0.0
C316 C 0.99288 0.59952 0.34175 0.0
C317 C 0.96546 0.57764 0.27461 0.0
H318 H 1.01052 0.6424 0.24948 0.0
C319 C 0.96979 0.60299 0.1633 0.0
C320 C 0.99841 0.60817 0.15252 0.0
C321 C 0.96555 0.6032 0.19093 0.0
C322 C 0.9981 0.62413 0.25627 0.0
H323 H 0.9135 0.57412 0.36365 0.0
H324 H 0.92411 0.58047 0.31612 0.0
H325 H 1.00242 0.63609 0.29758 0.0
H326 H 0.04467 0.61936 0.16208 0.0
H327 H 0.03723 0.6198 0.2107 0.0
H328 H 0.9609 0.56572 0.23349 0.0
C329 C 0.94196 0.58456 0.33056 0.0
C330 C 0.99354 0.62046 0.28378 0.0
C331 C 0.93581 0.581 0.3577 0.0
C332 C 0.02234 0.6154 0.16988 0.0
C333 C 0.01809 0.6156 0.19767 0.0
C334 C 0.96989 0.58137 0.24724 0.0
C335 C 0.97059 0.59379 0.32222 0.0
C336 C 0.97687 0.59729 0.29321 0.0
C337 C 0.98985 0.60856 0.20845 0.0
C338 C 0.98594 0.60479 0.23772 0.0
H339 H 1.00398 0.60062 0.38378 0.0
H340 H 0.01519 0.60646 0.33598 0.0
H341 H 0.95314 0.55923 0.28121 0.0
H342 H 0.95082 0.59785 0.15035 0.0
H343 H 0.94337 0.59839 0.19864 0.0
C344 C 0.24706 0.18183 0.19736 0.0
C345 C 0.22036 0.1878 0.18326 0.0
C346 C 0.27175 0.17013 0.18429 0.0
C347 C 0.30441 0.15764 0.11651 0.0
H348 H 0.35157 0.10254 0.15451 0.0
C349 C 0.41698 0.11601 0.07469 0.0
C350 C 0.42448 0.08787 0.07932 0.0
C351 C 0.39169 0.12786 0.08669 0.0
C352 C 0.33853 0.11766 0.14342 0.0
H353 H 0.19905 0.18621 0.14408 0.0
H354 H 0.24192 0.16569 0.1213 0.0
H355 H 0.30863 0.1237 0.17632 0.0
H356 H 0.41065 0.05005 0.10001 0.0
H357 H 0.36629 0.07051 0.12053 0.0
H358 H 0.33387 0.15106 0.08337 0.0
C359 C 0.24401 0.17042 0.14247 0.0
C360 C 0.31405 0.13018 0.15613 0.0
C361 C 0.21932 0.18224 0.15556 0.0
C362 C 0.40568 0.0718 0.09602 0.0
C363 C 0.3803 0.08364 0.10798 0.0
C364 C 0.32887 0.14508 0.10377 0.0
C365 C 0.27054 0.16393 0.15668 0.0
C366 C 0.29664 0.15046 0.14294 0.0
C367 C 0.373 0.11194 0.10365 0.0
C368 C 0.3464 0.12494 0.11704 0.0
H369 H 0.24893 0.18625 0.21861 0.0
H370 H 0.29192 0.1661 0.19588 0.0
H371 H 0.29185 0.17331 0.10569 0.0
H372 H 0.43095 0.12913 0.06207 0.0
H373 H 0.38723 0.14977 0.0831 0.0
C374 C 0.29387 0.97343 0.67152 0.0
C375 C 0.30753 0.94835 0.66407 0.0
C376 C 0.26703 0.98166 0.65923 0.0
C377 C 0.20183 0.95664 0.61867 0.0
H378 H 0.19798 0.03456 0.59741 0.0
C379 C 0.1039 0.99965 0.55337 0.0
C380 C 0.09324 0.02641 0.55993 0.0
C381 C 0.13006 0.98936 0.56552 0.0
C382 C 0.19843 0.01281 0.60347 0.0
H383 H 0.30409 0.91179 0.63848 0.0
H384 H 0.25683 0.92602 0.61692 0.0
H385 H 0.2425 0.01763 0.62056 0.0
H386 H 0.10183 0.06327 0.58451 0.0
H387 H 0.14689 0.04527 0.60586 0.0
H388 H 0.15756 0.95192 0.60176 0.0
C389 C 0.26665 0.93928 0.63241 0.0
C390 C 0.22403 1.00309 0.61677 0.0
C391 C 0.29365 0.93112 0.64468 0.0
C392 C 0.10945 0.04264 0.57881 0.0
C393 C 0.13547 0.03234 0.59099 0.0
C394 C 0.17607 0.96642 0.60545 0.0
C395 C 0.25333 0.96495 0.63917 0.0
C396 C 0.22601 0.97494 0.62471 0.0
C397 C 0.14618 1.00555 0.58456 0.0
C398 C 0.17394 0.99471 0.59783 0.0
H399 H 0.30437 0.98708 0.68637 0.0
H400 H 0.25716 1.00132 0.66522 0.0
H401 H 0.20253 0.93488 0.62466 0.0
H402 H 0.09199 0.98659 0.5389 0.0
H403 H 0.1378 0.96879 0.55979 0.0
C404 C 0.70041 0.47676 0.99382 0.0
C405 C 0.68003 0.49613 1.00443 0.0
C406 C 0.73137 0.48178 0.99523 0.0
C407 C 0.79409 0.50351 0.98558 0.0
H408 H 0.83002 0.54537 0.04451 0.0
C409 C 0.91795 0.5414 0.98307 0.0
C410 C 0.93384 0.54341 1.00741 0.0
C411 C 0.88714 0.53507 0.98286 0.0
C412 C 0.82055 0.53325 0.02805 0.0
H413 H 0.67675 0.5359 0.02537 0.0
H414 H 0.73052 0.54549 0.02628 0.0
H415 H 0.77666 0.53443 0.04508 0.0
H416 H 0.93047 0.53926 0.0505 0.0
H417 H 0.87731 0.52673 0.05015 0.0
H418 H 0.83824 0.50094 0.9693 0.0
C419 C 0.72261 0.52593 0.01755 0.0
C420 C 0.78967 0.52742 0.02815 0.0
C421 C 0.69161 0.52063 1.01664 0.0
C422 C 0.91865 0.53814 0.03145 0.0
C423 C 0.88806 0.53121 0.03123 0.0
C424 C 0.82505 0.50886 0.98576 0.0
C425 C 0.74293 0.50664 1.00669 0.0
C426 C 0.77596 0.51256 1.00686 0.0
C427 C 0.87172 0.53001 1.00697 0.0
C428 C 0.83873 0.52392 1.00693 0.0
H429 H 0.69256 0.45789 0.98376 0.0
H430 H 0.74618 0.46609 0.98715 0.0
H431 H 0.7844 0.49249 0.96854 0.0
H432 H 0.92912 0.54559 0.96426 0.0
H433 H 0.87536 0.53483 0.9638 0.0
C434 C 0.83515 0.64072 0.47966 0.0
C435 C 0.85952 0.62336 0.48573 0.0
C436 C 0.80808 0.63791 0.49332 0.0
C437 C 0.76306 0.58751 0.53207 0.0
H438 H 0.71535 0.65337 0.54615 0.0
C439 C 0.6426 0.58072 0.57506 0.0
C440 C 0.62137 0.59465 0.55908 0.0
C441 C 0.67341 0.58551 0.57137 0.0
C442 C 0.72849 0.63481 0.54244 0.0
H443 H 0.8747 0.58943 0.51095 0.0
H444 H 0.82715 0.58454 0.53514 0.0
H445 H 0.76681 0.6589 0.53019 0.0
H446 H 0.61562 0.62544 0.52766 0.0
H447 H 0.66927 0.63407 0.52154 0.0
H448 H 0.7244 0.56348 0.54398 0.0
C449 C 0.82902 0.60022 0.5196 0.0
C450 C 0.75789 0.63794 0.5332 0.0
C451 C 0.8562 0.60299 0.50578 0.0
C452 C 0.63145 0.61433 0.54022 0.0
C453 C 0.66216 0.6194 0.53682 0.0
C454 C 0.7337 0.5844 0.54155 0.0
C455 C 0.80465 0.61769 0.5135 0.0
C456 C 0.77519 0.61432 0.52707 0.0
C457 C 0.68344 0.60466 0.55198 0.0
C458 C 0.71587 0.60802 0.54606 0.0
H459 H 0.83678 0.6562 0.4639 0.0
H460 H 0.78957 0.6512 0.48756 0.0
H461 H 0.77565 0.56888 0.52736 0.0
H462 H 0.63548 0.56539 0.58972 0.0
H463 H 0.6894 0.57398 0.58338 0.0
C464 C 0.14972 0.31409 0.15043 0.0
C465 C 0.13122 0.29014 0.14876 0.0
C466 C 0.14303 0.33799 0.13525 0.0
C467 C 0.0943 0.36401 0.07881 0.0
H468 H 0.10542 0.43548 0.11478 0.0
C469 C 0.06509 0.46958 0.02709 0.0
C470 C 0.05303 0.49095 0.04308 0.0
C471 C 0.07612 0.44496 0.03871 0.0
C472 C 0.10186 0.41573 0.10445 0.0
H473 H 0.09155 0.272 0.12994 0.0
H474 H 0.07961 0.31345 0.10366 0.0
H475 H 0.12234 0.39293 0.13644 0.0
H476 H 0.04271 0.50275 0.08396 0.0
H477 H 0.06113 0.45984 0.10406 0.0
H478 H 0.07268 0.38674 0.0473 0.0
C479 C 0.0997 0.31393 0.11607 0.0
C480 C 0.11209 0.39122 0.11675 0.0
C481 C 0.1065 0.29008 0.13114 0.0
C482 C 0.05197 0.48687 0.07097 0.0
C483 C 0.06282 0.46224 0.08256 0.0
C484 C 0.08394 0.38852 0.06655 0.0
C485 C 0.11747 0.33852 0.11829 0.0
C486 C 0.10827 0.3649 0.10425 0.0
C487 C 0.0753 0.44094 0.06667 0.0
C488 C 0.08729 0.41477 0.07928 0.0
H489 H 0.16869 0.31474 0.16419 0.0
H490 H 0.15759 0.35624 0.13724 0.0
H491 H 0.09123 0.3443 0.0683 0.0
H492 H 0.06644 0.47202 1.00556 0.0
H493 H 0.08583 0.42932 0.02575 0.0
C494 C 0.56426 0.42211 1.00174 0.0
C495 C 0.59293 0.4295 0.99217 0.0
C496 C 0.55363 0.39449 0.99963 0.0
C497 C 0.56686 0.32721 0.96433 0.0
H498 H 0.52777 0.29479 0.0263 0.0
C499 C 0.55607 0.20822 0.98262 0.0
C500 C 0.52948 0.19795 0.9943 0.0
C501 C 0.56059 0.23698 0.97915 0.0
C502 C 0.5382 0.30363 1.00865 0.0
H503 H 0.6325 0.41388 0.97209 0.0
H504 H 0.6144 0.36569 0.96918 0.0
H505 H 0.54168 0.34426 0.02663 0.0
H506 H 0.48642 0.20975 1.01081 0.0
H507 H 0.4942 0.25993 1.00445 0.0
H508 H 0.56409 0.28626 0.94672 0.0
C509 C 0.59994 0.38122 0.97804 0.0
C510 C 0.54617 0.33201 1.00883 0.0
C511 C 0.61052 0.40879 0.98009 0.0
C512 C 0.50704 0.21698 1.00153 0.0
C513 C 0.51162 0.24573 0.99816 0.0
C514 C 0.55899 0.29878 0.96421 0.0
C515 C 0.57144 0.3737 0.9879 0.0
C516 C 0.56095 0.34405 0.98682 0.0
C517 C 0.53867 0.25607 0.98742 0.0
C518 C 0.5449 0.28663 0.9865 0.0
H519 H 0.55021 0.43756 1.01124 0.0
H520 H 0.53144 0.38944 1.00718 0.0
H521 H 0.57776 0.33596 0.94686 0.0
H522 H 0.57364 0.19403 0.97664 0.0
H523 H 0.58177 0.24432 0.97098 0.0
C524 C 0.9665 0.69269 0.44549 0.0
C525 C 0.93571 0.68607 0.44309 0.0
C526 C 0.97654 0.72043 0.44312 0.0
C527 C 0.95396 0.79142 0.42121 0.0
H528 H 1.00489 0.81631 0.48027 0.0
C529 C 0.96152 0.90635 0.4565 0.0
C530 C 0.98908 0.91667 0.46671 0.0
C531 C 0.95836 0.87827 0.44889 0.0
C532 C 0.99117 0.80971 0.46331 0.0
H533 H 0.89158 0.70283 0.43455 0.0
H534 H 0.90899 0.75123 0.43078 0.0
H535 H 0.99394 0.76667 0.47451 0.0
H536 H 0.03516 0.90562 0.47628 0.0
H537 H 0.02985 0.85696 0.46232 0.0
H538 H 0.95059 0.83466 0.41045 0.0
C539 C 0.92542 0.73509 0.43441 0.0
C540 C 0.98491 0.7812 0.46 0.0
C541 C 0.91539 0.70743 0.43688 0.0
C542 C 0.01368 0.89848 0.46827 0.0
C543 C 1.01055 0.87047 0.46056 0.0
C544 C 0.9603 0.81998 0.42447 0.0
C545 C 0.95599 0.74199 0.43814 0.0
C546 C 0.96573 0.77179 0.43927 0.0
C547 C 0.98271 0.8599 0.45127 0.0
C548 C 0.97848 0.82949 0.4459 0.0
H549 H 0.98264 0.67662 0.45029 0.0
H550 H 1.00029 0.72511 0.44582 0.0
H551 H 0.9394 0.78473 0.40483 0.0
H552 H 0.94225 0.91988 0.45469 0.0
H553 H 0.93652 0.87076 0.44205 0.0
C554 C 0.41758 0.82463 0.71133 0.0
C555 C 0.41686 0.84963 0.69648 0.0
C556 C 0.42897 0.79995 0.70007 0.0
C557 C 0.47546 0.77408 0.64281 0.0
H558 H 0.43762 0.70266 0.65924 0.0
C559 C 0.49856 0.67248 0.58225 0.0
C560 C 0.50279 0.64778 0.59702 0.0
C561 C 0.4889 0.69705 0.59488 0.0
C562 C 0.44861 0.72242 0.6546 0.0
H563 H 0.42879 0.86812 0.65825 0.0
H564 H 0.44718 0.82532 0.63846 0.0
H565 H 0.41952 0.74525 0.68053 0.0
H566 H 0.50003 0.6297 0.63677 0.0
H567 H 0.48296 0.67237 0.65863 0.0
H568 H 0.50406 0.75118 0.6164 0.0
C569 C 0.4394 0.82465 0.65895 0.0
C570 C 0.43831 0.74691 0.66692 0.0
C571 C 0.42828 0.84927 0.67023 0.0
C572 C 0.49705 0.6483 0.62472 0.0
C573 C 0.48708 0.67274 0.63727 0.0
C574 C 0.48552 0.74964 0.6303 0.0
C575 C 0.43991 0.79955 0.67362 0.0
C576 C 0.45149 0.77318 0.66115 0.0
C577 C 0.48288 0.69745 0.62254 0.0
C578 C 0.4722 0.72349 0.63598 0.0
H579 H 0.4089 0.82396 0.73153 0.0
H580 H 0.42932 0.78123 0.71223 0.0
H581 H 0.48673 0.79369 0.6382 0.0
H582 H 0.50274 0.67286 0.5609 0.0
H583 H 0.48567 0.71564 0.58288 0.0
C584 C 0.91851 0.95087 0.80066 0.0
C585 C 0.90863 0.92284 0.80295 0.0
C586 C 0.9268 0.96206 0.77584 0.0
C587 C 0.9176 0.95111 0.7023 0.0
H588 H 0.98309 1.00533 0.69862 0.0
C589 C 0.96299 0.99497 0.60118 0.0
C590 C 0.97223 0.02328 0.60036 0.0
C591 C 0.9547 0.98233 0.62544 0.0
C592 C 0.96448 0.9905 0.69926 0.0
H593 H 0.9004 0.8845 0.78058 0.0
H594 H 0.91537 0.90389 0.73722 0.0
H595 H 0.97099 0.98346 0.74123 0.0
H596 H 0.97923 0.06058 0.62463 0.0
H597 H 0.96448 0.03874 0.66674 0.0
H598 H 0.91117 0.95821 0.66023 0.0
C599 C 0.91624 0.91737 0.7547 0.0
C600 C 0.95752 0.97786 0.7238 0.0
C601 C 0.90797 0.90612 0.77965 0.0
C602 C 0.9723 0.03874 0.62442 0.0
C603 C 0.96408 0.0261 0.64868 0.0
C604 C 0.92459 0.96375 0.6777 0.0
C605 C 0.92563 0.94559 0.7524 0.0
C606 C 0.93383 0.95811 0.7258 0.0
C607 C 0.95548 0.9976 0.64965 0.0
C608 C 0.94802 0.98381 0.67582 0.0
H609 H 0.91981 0.96434 0.81814 0.0
H610 H 0.93357 0.9839 0.77502 0.0
H611 H 0.89895 0.93632 0.703 0.0
H612 H 0.96273 0.98231 0.58313 0.0
H613 H 0.9485 0.96033 0.62531 0.0
C614 C 0.64369 0.19668 0.29043 0.0
C615 C 0.65118 0.18007 0.31267 0.0
C616 C 0.6332 0.18442 0.26656 0.0
C617 C 0.59554 0.12082 0.23995 0.0
H618 H 0.6223 0.14889 0.17123 0.0
C619 C 0.55628 0.06923 0.14006 0.0
C620 C 0.55061 0.08684 0.11811 0.0
C621 C 0.56989 0.07977 0.1635 0.0
C622 C 0.61424 0.14098 0.1902 0.0
H623 H 0.65368 0.13741 0.32709 0.0
H624 H 0.63526 0.11592 0.28531 0.0
H625 H 0.64371 0.16852 0.2124 0.0
H626 H 0.55492 0.12949 0.10372 0.0
H627 H 0.57797 0.14799 0.14467 0.0
H628 H 0.5656 0.09371 0.21789 0.0
C629 C 0.63745 0.13851 0.28644 0.0
C630 C 0.62664 0.15222 0.21386 0.0
C631 C 0.64826 0.15079 0.3103 0.0
C632 C 0.55906 0.11526 0.12017 0.0
C633 C 0.57249 0.12585 0.14367 0.0
C634 C 0.58297 0.10971 0.21629 0.0
C635 C 0.62968 0.15519 0.26429 0.0
C636 C 0.61736 0.14239 0.23906 0.0
C637 C 0.57808 0.10828 0.16574 0.0
C638 C 0.59201 0.11971 0.19103 0.0
H639 H 0.64595 0.21927 0.29148 0.0
H640 H 0.62721 0.19795 0.25003 0.0
H641 H 0.58756 0.113 0.25899 0.0
H642 H 0.55025 0.04719 0.13916 0.0
H643 H 0.57424 0.06542 0.17978 0.0
C644 C 0.46312 0.62205 0.20846 0.0
C645 C 0.4685 0.59551 0.19762 0.0
C646 C 0.47143 0.62817 0.23489 0.0
C647 C 0.51729 0.60322 0.29239 0.0
H648 H 0.4572 0.64129 0.33454 0.0
C649 C 0.53317 0.62255 0.40603 0.0
C650 C 0.50824 0.61457 0.42152 0.0
C651 C 0.53035 0.62511 0.37819 0.0
C652 C 0.47424 0.6307 0.32304 0.0
H653 H 0.48691 0.55457 0.20511 0.0
H654 H 0.50115 0.56497 0.25166 0.0
H655 H 0.44942 0.63531 0.28653 0.0
H656 H 0.46053 0.60466 0.42033 0.0
H657 H 0.45561 0.6089 0.37193 0.0
H658 H 0.54141 0.5975 0.32922 0.0
C659 C 0.49108 0.58131 0.23972 0.0
C660 C 0.46995 0.62751 0.29546 0.0
C661 C 0.48282 0.57526 0.2132 0.0
C662 C 0.48018 0.61057 0.40884 0.0
C663 C 0.47733 0.61326 0.38113 0.0
C664 C 0.52159 0.60642 0.32003 0.0
C665 C 0.48505 0.60773 0.251 0.0
C666 C 0.49115 0.61328 0.27987 0.0
C667 C 0.50249 0.61997 0.36541 0.0
C668 C 0.4998 0.61969 0.33573 0.0
H669 H 0.45188 0.63791 0.19674 0.0
H670 H 0.46681 0.6488 0.24283 0.0
H671 H 0.53422 0.59248 0.2809 0.0
H672 H 0.55511 0.62562 0.41527 0.0
H673 H 0.55007 0.6306 0.36663 0.0
C674 C 0.05844 0.50329 0.6547 0.0
C675 C 0.05585 0.52957 0.6426 0.0
C676 C 0.05226 0.5001 0.6819 0.0
C677 C 0.01724 0.53374 0.7406 0.0
H678 H 0.07947 0.49527 0.78049 0.0
C679 C 0.01302 0.5204 0.85559 0.0
C680 C 0.03973 0.52797 0.8692 0.0
C681 C 0.01277 0.51717 0.82775 0.0
C682 C 0.0619 0.50601 0.76961 0.0
H683 H 0.04417 0.57295 0.6485 0.0
H684 H 0.03323 0.56751 0.69629 0.0
H685 H 0.0814 0.49646 0.7317 0.0
H686 H 0.08731 0.53701 0.86454 0.0
H687 H 0.08691 0.53139 0.81593 0.0
H688 H 0.99829 0.54402 0.77866 0.0
C689 C 0.03964 0.54927 0.68481 0.0
C690 C 0.06281 0.50646 0.74168 0.0
C691 C 0.04593 0.55245 0.65757 0.0
C692 C 0.06636 0.53136 0.85454 0.0
C693 C 0.06617 0.52792 0.82676 0.0
C694 C 0.01622 0.53313 0.76858 0.0
C695 C 0.04348 0.5232 0.69739 0.0
C696 C 0.04075 0.52068 0.72688 0.0
C697 C 0.03929 0.5212 0.81303 0.0
C698 C 0.03883 0.51966 0.78337 0.0
H699 H 0.06632 0.48546 0.64337 0.0
H700 H 0.05509 0.47971 0.69097 0.0
H701 H 0.99984 0.5447 0.72972 0.0
H702 H 0.99209 0.51789 0.86636 0.0
H703 H 0.99179 0.51178 0.8177 0.0
C704 C 0.78456 0.96805 0.90113 0.0
C705 C 0.79973 0.94398 0.90934 0.0
C706 C 0.75765 0.97576 0.91335 0.0
C707 C 0.71392 0.96539 0.97594 0.0
H708 H 0.65174 1.00307 0.93542 0.0
C709 C 0.59907 0.99773 0.02185 0.0
C710 C 0.58831 0.02435 1.01486 0.0
C711 C 0.62442 0.98665 1.00922 0.0
C712 C 0.66899 0.99279 0.9471 0.0
H713 H 0.79888 0.90876 0.93642 0.0
H714 H 0.75126 0.92169 0.9575 0.0
H715 H 0.69551 0.98496 0.91234 0.0
H716 H 0.59615 0.06025 0.98921 0.0
H717 H 0.64015 0.04096 0.96726 0.0
H718 H 0.68709 0.97316 1.01069 0.0
C719 C 0.76026 0.93495 0.94186 0.0
C720 C 0.69419 0.98238 0.93384 0.0
C721 C 0.78734 0.92732 0.92963 0.0
C722 C 0.60373 0.03969 0.99513 0.0
C723 C 0.62887 0.02853 0.98236 0.0
C724 C 0.68856 0.97564 0.98917 0.0
C725 C 0.74519 0.95951 0.93412 0.0
C726 C 0.71727 0.96885 0.94809 0.0
C727 C 0.63947 1.00179 0.9891 0.0
C728 C 0.66594 0.9898 0.97497 0.0
H729 H 0.79401 0.98144 0.88576 0.0
H730 H 0.74719 0.99504 0.90707 0.0
H731 H 0.73131 0.95548 0.98773 0.0
H732 H 0.58775 0.98529 0.03693 0.0
H733 H 0.63183 0.96594 1.0148 0.0
C734 C 0.72625 0.18864 0.41924 0.0
C735 C 0.72367 0.18684 0.39113 0.0
C736 C 0.75132 0.17776 0.43276 0.0
C737 C 0.82921 0.14981 0.42052 0.0
H738 H 0.81982 0.12015 0.49222 0.0
C739 C 0.91604 0.07748 0.4726 0.0
C740 C 0.9276 0.08793 0.49703 0.0
C741 C 0.891 0.08984 0.46041 0.0
C742 C 0.82273 0.12844 0.47222 0.0
H743 H 0.74678 0.17275 0.3554 0.0
H744 H 0.78868 0.15219 0.37874 0.0
H745 H 0.77685 0.14113 0.46951 0.0
H746 H 0.9213 0.119 0.5282 0.0
H747 H 0.87672 0.13981 0.50735 0.0
H748 H 0.87482 0.13571 0.42303 0.0
C749 C 0.77189 0.16268 0.39056 0.0
C750 C 0.79815 0.14075 0.45918 0.0
C751 C 0.74723 0.17407 0.37705 0.0
C752 C 0.91296 0.11047 0.50937 0.0
C753 C 0.88743 0.12236 0.49751 0.0
C754 C 0.8535 0.1369 0.43332 0.0
C755 C 0.77447 0.16428 0.41867 0.0
C756 C 0.80092 0.15165 0.43304 0.0
C757 C 0.87648 0.11244 0.47271 0.0
C758 C 0.85053 0.12609 0.45928 0.0
H759 H 0.70865 0.19803 0.43099 0.0
H760 H 0.75246 0.18004 0.45432 0.0
H761 H 0.83287 0.15852 0.40082 0.0
H762 H 0.92689 0.06027 0.46249 0.0
H763 H 0.88294 0.08174 0.44132 0.0
C764 C 0.35222 0.62813 0.06466 0.0
C765 C 0.3597 0.61238 0.08749 0.0
C766 C 0.32427 0.62455 0.05207 0.0
C767 C 0.25843 0.57758 0.04489 0.0
H768 H 0.21364 0.64631 0.03667 0.0
C769 C 0.12764 0.61072 0.03802 0.0
C770 C 0.11695 0.59303 0.0174 0.0
C771 C 0.15852 0.6141 0.04259 0.0
C772 C 0.22595 0.62699 0.03872 0.0
H773 H 0.34416 0.57946 0.11407 0.0
H774 H 0.29562 0.57278 0.09164 0.0
H775 H 0.26615 0.64845 0.05153 0.0
H776 H 0.13025 0.56563 0.9849 0.0
H777 H 0.18427 0.57129 0.99321 0.0
H778 H 0.21798 0.55611 0.03256 0.0
C779 C 0.31143 0.58796 0.0836 0.0
C780 C 0.25602 0.62821 0.04701 0.0
C781 C 0.33929 0.59174 0.0964 0.0
C782 C 0.13779 0.57946 1.00092 0.0
C783 C 0.16868 0.58253 1.00575 0.0
C784 C 0.22845 0.57639 0.03623 0.0
C785 C 0.30335 0.60488 0.06179 0.0
C786 C 0.2724 0.60349 0.05059 0.0
C787 C 0.1793 0.59958 0.02685 0.0
C788 C 0.2118 0.60106 0.03351 0.0
H789 H 0.36768 0.64378 0.05692 0.0
H790 H 0.31876 0.63755 0.03502 0.0
H791 H 0.27061 0.55824 0.0474 0.0
H792 H 0.11214 0.62147 0.05104 0.0
H793 H 0.16612 0.62723 0.05911 0.0
C794 C 0.20461 0.48755 0.58911 0.0
C795 C 0.18436 0.50238 0.5729 0.0
C796 C 0.23546 0.49293 0.5877 0.0
C797 C 0.29414 0.52002 0.54371 0.0
H798 H 0.33996 0.53015 0.60957 0.0
C799 C 0.41826 0.55661 0.544 0.0
C800 C 0.43774 0.54565 0.56352 0.0
C801 C 0.38743 0.55079 0.54478 0.0
C802 C 0.32763 0.52693 0.59099 0.0
H803 H 0.18042 0.53439 0.54248 0.0
H804 H 0.23474 0.54368 0.53978 0.0
H805 H 0.28588 0.52143 0.61155 0.0
H806 H 0.44028 0.5194 0.5988 0.0
H807 H 0.38652 0.50855 0.59976 0.0
H808 H 0.33585 0.52493 0.52309 0.0
C809 C 0.22658 0.52788 0.55355 0.0
C810 C 0.29662 0.52209 0.59215 0.0
C811 C 0.19558 0.52272 0.5552 0.0
C812 C 0.42581 0.52829 0.58357 0.0
C813 C 0.39496 0.52224 0.58421 0.0
C814 C 0.32522 0.52457 0.54254 0.0
C815 C 0.24677 0.5131 0.56989 0.0
C816 C 0.27958 0.51863 0.56853 0.0
C817 C 0.37534 0.53363 0.56496 0.0
C818 C 0.34236 0.52815 0.56617 0.0
H819 H 0.19652 0.472 0.60316 0.0
H820 H 0.25053 0.4811 0.60037 0.0
H821 H 0.28156 0.51706 0.52521 0.0
H822 H 0.42671 0.57019 0.52835 0.0
H823 H 0.37301 0.5603 0.52989 0.0
C824 C 0.88909 0.83061 0.89045 0.0
C825 C 0.90816 0.84811 0.87534 0.0
C826 C 0.89998 0.80618 0.9025 0.0
C827 C 0.96468 0.75652 0.90171 0.0
H828 H 0.93323 0.73468 0.97088 0.0
C829 C 0.99444 0.65001 0.94986 0.0
C830 C 0.99744 0.64823 0.97791 0.0
C831 C 0.98399 0.67444 0.93763 0.0
C832 C 0.94258 0.74054 0.95171 0.0
H833 H 0.95387 0.85339 0.86123 0.0
H834 H 0.97293 0.81117 0.88237 0.0
H835 H 0.91464 0.77667 0.94916 0.0
H836 H 0.99192 0.67124 1.015 0.0
H837 H 0.97432 0.71413 0.99369 0.0
H838 H 0.99331 0.72094 0.90463 0.0
C839 C 0.94931 0.81591 0.88452 0.0
C840 C 0.93151 0.76453 0.93897 0.0
C841 C 0.93836 0.84023 0.87231 0.0
C842 C 0.98986 0.67177 0.99338 0.0
C843 C 0.97952 0.69636 0.98109 0.0
C844 C 0.97584 0.73264 0.91451 0.0
C845 C 0.93037 0.79856 0.90001 0.0
C846 C 0.94228 0.77289 0.91369 0.0
C847 C 0.97634 0.69807 0.95299 0.0
C848 C 0.96489 0.72413 0.93967 0.0
H849 H 0.86563 0.8358 0.89298 0.0
H850 H 0.88442 0.79321 0.9137 0.0
H851 H 0.97343 0.76191 0.88219 0.0
H852 H 0.99983 0.63231 0.93722 0.0
H853 H 0.98139 0.67453 0.91605 0.0
C854 C 0.40577 0.70369 0.13545 0.0
C855 C 0.42816 0.68467 0.12827 0.0
C856 C 0.41254 0.7322 0.13781 0.0
C857 C 0.47563 0.78406 0.14198 0.0
H858 H 0.41701 0.83315 0.10942 0.0
C859 C 0.50238 0.89644 0.10582 0.0
C860 C 0.48022 0.9169 0.10911 0.0
C861 C 0.49664 0.86866 0.11305 0.0
C862 C 0.4334 0.81982 0.11902 0.0
H863 H 0.47532 0.68022 0.11878 0.0
H864 H 0.48712 0.73022 0.12226 0.0
H865 H 0.40585 0.78341 0.11293 0.0
H866 H 0.4354 0.9246 0.12413 0.0
H867 H 0.4253 0.87601 0.13654 0.0
H868 H 0.50357 0.82066 0.14713 0.0
C869 C 0.46444 0.72311 0.12655 0.0
C870 C 0.427 0.79126 0.12107 0.0
C871 C 0.4577 0.69451 0.12443 0.0
C872 C 0.4527 0.90921 0.12086 0.0
C873 C 0.44694 0.88143 0.12801 0.0
C874 C 0.48211 0.8127 0.13978 0.0
C875 C 0.44179 0.74235 0.13279 0.0
C876 C 0.44811 0.77297 0.13235 0.0
C877 C 0.4686 0.86077 0.12364 0.0
C878 C 0.46114 0.83081 0.12805 0.0
H879 H 0.38293 0.69652 0.139 0.0
H880 H 0.39472 0.74635 0.14325 0.0
H881 H 0.49221 0.77061 0.15111 0.0
H882 H 0.52368 0.9016 0.09655 0.0
H883 H 0.51364 0.85314 0.10917 0.0
C884 C 0.10994 0.41397 0.56191 0.0
C885 C 0.09975 0.43327 0.58098 0.0
C886 C 0.10171 0.38577 0.56354 0.0
C887 C 0.0463 0.33644 0.59155 0.0
H888 H 0.10942 0.28282 0.57857 0.0
C889 C 0.02902 0.21512 0.59703 0.0
C890 C 0.04152 0.20031 0.57547 0.0
C891 C 0.03533 0.24375 0.6005 0.0
C892 C 0.09153 0.29754 0.58216 0.0
H893 H 0.07236 0.43821 0.61644 0.0
H894 H 0.05775 0.38871 0.61916 0.0
H895 H 0.12152 0.33267 0.57908 0.0
H896 H 0.06914 0.20432 0.53996 0.0
H897 H 0.08032 0.25374 0.5462 0.0
H898 H 0.01624 0.30103 0.59421 0.0
C899 C 0.07205 0.39555 0.60291 0.0
C900 C 0.09844 0.32607 0.5824 0.0
C901 C 0.08037 0.42387 0.6013 0.0
C902 C 0.05989 0.21483 0.55725 0.0
C903 C 0.06625 0.24321 0.56077 0.0
C904 C 0.03935 0.30774 0.59132 0.0
C905 C 0.08307 0.37616 0.58427 0.0
C906 C 0.0758 0.34587 0.58645 0.0
C907 C 0.05429 0.25795 0.58252 0.0
C908 C 0.06182 0.28808 0.58597 0.0
H909 H 0.12441 0.42067 0.54572 0.0
H910 H 0.10999 0.37143 0.54851 0.0
H911 H 0.02839 0.35124 0.5947 0.0
H912 H 0.01481 0.2045 0.61142 0.0
H913 H 0.02584 0.25464 0.61746 0.0
C914 C 0.64455 0.32373 0.40658 0.0
C915 C 0.64212 0.29703 0.41799 0.0
C916 C 0.63687 0.34756 0.42132 0.0
C917 C 0.62226 0.37575 0.4891 0.0
H918 H 0.56874 0.42548 0.45096 0.0
C919 C 0.56221 0.46817 0.54229 0.0
C920 C 0.55785 0.49289 0.52757 0.0
C921 C 0.57311 0.44396 0.52981 0.0
C922 C 0.58405 0.41219 0.4619 0.0
H923 H 0.63064 0.27403 0.45381 0.0
H924 H 0.61776 0.31586 0.47999 0.0
H925 H 0.58872 0.38477 0.42821 0.0
H926 H 0.56206 0.51152 0.48819 0.0
H927 H 0.58172 0.46995 0.46675 0.0
H928 H 0.618 0.40345 0.52271 0.0
C929 C 0.62574 0.31845 0.45969 0.0
C930 C 0.59547 0.38871 0.44879 0.0
C931 C 0.63321 0.29452 0.44479 0.0
C932 C 0.5648 0.49281 0.50014 0.0
C933 C 0.57597 0.46878 0.48776 0.0
C934 C 0.61108 0.3995 0.50219 0.0
C935 C 0.62659 0.34518 0.44782 0.0
C936 C 0.61482 0.37023 0.46215 0.0
C937 C 0.58021 0.4439 0.50232 0.0
C938 C 0.59186 0.41817 0.48874 0.0
H939 H 0.65096 0.3261 0.3858 0.0
H940 H 0.63816 0.36783 0.41169 0.0
H941 H 0.6372 0.36198 0.49993 0.0
H942 H 0.55706 0.46746 0.56345 0.0
H943 H 0.57561 0.42521 0.5417 0.0
loop_
_geom_bond_atom_site_label_1
_geom_bond_atom_site_label_2
_geom_bond_distance
_geom_bond_site_symmetry_2
_ccdc_geom_bond_type
H0 C3 0.929 . S
H1 C6 0.929 . S
H2 C8 0.930 . S
C3 H0 0.929 . S
C3 C4 1.398 . S
C3 C5 1.396 . S
C4 C3 1.398 . S
C4 C8 1.407 . S
C5 C3 1.396 . S
C5 C6 1.394 . S
C6 H1 0.929 . S
C6 C5 1.394 . S
C6 C7 1.382 . S
C7 C6 1.382 . S
C7 C8 1.392 . S
C7 N9 1.420 . S
C8 H2 0.930 . S
C8 C4 1.407 . S
C8 C7 1.392 . S
N9 C7 1.420 . S
N9 C10 1.244 . S
C10 N9 1.244 . S
H11 C14 0.929 . S
H12 C17 0.929 . S
H13 C19 0.930 . S
C14 H11 0.929 . S
C14 C15 1.398 . S
C14 C16 1.396 . S
C15 C14 1.398 . S
C15 C19 1.407 . S
C16 C14 1.396 . S
C16 C17 1.394 . S
C17 H12 0.929 . S
C17 C16 1.394 . S
C17 C18 1.382 . S
C18 C17 1.382 . S
C18 C19 1.392 . S
C18 N20 1.420 . S
C19 H13 0.930 . S
C19 C15 1.407 . S
C19 C18 1.392 . S
N20 C18 1.420 . S
N20 C21 1.244 . S
C21 N20 1.244 . S
H22 C25 0.929 . S
H23 C28 0.929 . S
H24 C30 0.930 . S
C25 H22 0.929 . S
C25 C26 1.398 . S
C25 C27 1.396 . S
C26 C25 1.398 . S
C26 C30 1.407 . S
C27 C25 1.396 . S
C27 C28 1.394 . S
C28 H23 0.929 . S
C28 C27 1.394 . S
C28 C29 1.382 . S
C29 C28 1.382 . S
C29 C30 1.392 . S
C29 N31 1.420 . S
C30 H24 0.930 . S
C30 C26 1.407 . S
C30 C29 1.392 . S
N31 C29 1.420 . S
N31 C32 1.244 . S
C32 N31 1.244 . S
H33 C36 0.929 . S
H34 C39 0.929 . S
H35 C41 0.930 . S
C36 H33 0.929 . S
C36 C37 1.398 . S
C36 C38 1.396 . S
C37 C36 1.398 . S
C37 C41 1.407 . S
C38 C36 1.396 . S
C38 C39 1.394 . S
C39 H34 0.929 . S
C39 C38 1.394 . S
C39 C40 1.382 . S
C40 C39 1.382 . S
C40 C41 1.392 . S
C40 N42 1.420 . S
C41 H35 0.930 . S
C41 C37 1.407 . S
C41 C40 1.392 . S
N42 C40 1.420 . S
N42 C43 1.244 . S
C43 N42 1.244 . S
H44 C47 0.929 . S
H45 C50 0.929 . S
H46 C52 0.930 . S
C47 H44 0.929 . S
C47 C48 1.398 . S
C47 C49 1.396 . S
C48 C47 1.398 . S
C48 C52 1.407 . S
C49 C47 1.396 . S
C49 C50 1.394 . S
C50 H45 0.929 . S
C50 C49 1.394 . S
C50 C51 1.382 . S
C51 C50 1.382 . S
C51 C52 1.392 . S
C51 N53 1.420 . S
C52 H46 0.930 . S
C52 C48 1.407 . S
C52 C51 1.392 . S
N53 C51 1.420 . S
N53 C54 1.244 . S
C54 N53 1.244 . S
H55 C58 0.929 . S
H56 C61 0.929 . S
H57 C63 0.930 . S
C58 H55 0.929 . S
C58 C59 1.398 . S
C58 C60 1.396 . S
C59 C58 1.398 . S
C59 C63 1.407 . S
C60 C58 1.396 . S
C60 C61 1.394 . S
C61 H56 0.929 . S
C61 C60 1.394 . S
C61 C62 1.382 . S
C62 C61 1.382 . S
C62 C63 1.392 . S
C62 N64 1.420 . S
C63 H57 0.930 . S
C63 C59 1.407 . S
C63 C62 1.392 . S
N64 C62 1.420 . S
N64 C65 1.244 . S
C65 N64 1.244 . S
H66 C69 0.929 . S
H67 C72 0.929 . S
H68 C74 0.930 . S
C69 H66 0.929 . S
C69 C70 1.398 . S
C69 C71 1.396 . S
C70 C69 1.398 . S
C70 C74 1.407 . S
C71 C69 1.396 . S
C71 C72 1.394 . S
C72 H67 0.929 . S
C72 C71 1.394 . S
C72 C73 1.382 . S
C73 C72 1.382 . S
C73 C74 1.392 . S
C73 N75 1.420 . S
C74 H68 0.930 . S
C74 C70 1.407 . S
C74 C73 1.392 . S
N75 C73 1.420 . S
N75 C76 1.244 . S
C76 N75 1.244 . S
H77 C80 0.929 . S
H78 C83 0.929 . S
H79 C85 0.930 . S
C80 H77 0.929 . S
C80 C81 1.398 . S
C80 C82 1.396 . S
C81 C80 1.398 . S
C81 C85 1.407 . S
C82 C80 1.396 . S
C82 C83 1.394 . S
C83 H78 0.929 . S
C83 C82 1.394 . S
C83 C84 1.382 . S
C84 C83 1.382 . S
C84 C85 1.392 . S
C84 N86 1.420 . S
C85 H79 0.930 . S
C85 C81 1.407 . S
C85 C84 1.392 . S
N86 C84 1.420 . S
N86 C87 1.244 . S
C87 N86 1.244 . S
C88 O104 1.251 . S
C88 O106 1.254 . S
N89 C90 1.333 . S
N89 C94 1.307 . S
N89 Zn95 2.020 . S
C90 N89 1.333 . S
C90 C91 1.379 . S
C90 H108 0.952 . S
C91 C90 1.379 . S
C91 C92 1.390 . S
C91 H118 0.949 . S
C92 C91 1.390 . S
C92 C93 1.357 . S
C93 C92 1.357 . S
C93 C94 1.370 . S
C93 H119 0.950 . S
C94 N89 1.307 . S
C94 C93 1.370 . S
C94 H112 0.948 . S
Zn95 N89 2.020 . S
Zn95 O104 2.039 . S
Zn95 O110 2.034 . S
Zn95 O114 2.026 1_455 S
Zn95 O116 2.024 1_455 S
C96 O115 1.246 . S
C96 O116 1.249 . S
N97 C98 1.307 . S
N97 C99 1.333 . S
N97 Zn103 2.017 1_665 S
C98 N97 1.307 . S
C98 C102 1.370 . S
C98 H109 0.948 1_655 S
C99 N97 1.333 . S
C99 C100 1.379 . S
C99 H107 0.952 . S
C100 C99 1.379 . S
C100 C101 1.390 . S
C100 H120 0.949 . S
C101 C100 1.390 . S
C101 C102 1.357 . S
C102 C98 1.370 . S
C102 C101 1.357 . S
C102 H121 0.950 . S
Zn103 N97 2.017 1_445 S
Zn103 O106 2.029 . S
Zn103 O111 2.035 . S
Zn103 O113 2.036 1_455 S
Zn103 O115 2.024 1_455 S
O104 C88 1.251 . S
O104 Zn95 2.039 . S
C105 O110 1.246 . S
C105 O111 1.249 . S
O106 C88 1.254 . S
O106 Zn103 2.029 . S
H107 C99 0.952 . S
H108 C90 0.952 . S
H109 C98 0.948 1_455 S
O110 Zn95 2.034 . S
O110 C105 1.246 . S
O111 Zn103 2.035 . S
O111 C105 1.249 . S
H112 C94 0.948 . S
O113 Zn103 2.036 1_655 S
O113 C117 1.251 . S
O114 Zn95 2.026 1_655 S
O114 C117 1.253 . S
O115 C96 1.246 . S
O115 Zn103 2.024 1_655 S
O116 Zn95 2.024 1_655 S
O116 C96 1.249 . S
C117 O113 1.251 . S
C117 O114 1.253 . S
H118 C91 0.949 . S
H119 C93 0.950 . S
H120 C100 0.949 . S
H121 C102 0.950 . S
C122 O138 1.251 . S
C122 O140 1.254 . S
N123 C124 1.333 . S
N123 C128 1.307 1_554 S
N123 Zn129 2.020 . S
C124 N123 1.333 . S
C124 C125 1.379 . S
C124 H142 0.952 . S
C125 C124 1.379 . S
C125 C126 1.390 1_554 S
C125 H152 0.949 . S
C126 C125 1.390 1_556 S
C126 C127 1.357 . S
C127 C126 1.357 . S
C127 C128 1.370 . S
C127 H153 0.950 . S
C128 N123 1.307 1_556 S
C128 C127 1.370 . S
C128 H146 0.948 . S
Zn129 N123 2.020 . S
Zn129 O138 2.039 . S
Zn129 O144 2.034 . S
Zn129 O148 2.025 . S
Zn129 O150 2.024 1_554 S
C130 O149 1.246 1_556 S
C130 O150 1.249 . S
N131 C132 1.307 . S
N131 C133 1.333 . S
N131 Zn137 2.020 1_565 S
C132 N131 1.307 . S
C132 C136 1.370 . S
C132 H143 0.948 . S
C133 N131 1.333 . S
C133 C134 1.379 . S
C133 H141 0.952 . S
C134 C133 1.379 . S
C134 C135 1.390 . S
C134 H154 0.949 . S
C135 C134 1.390 . S
C135 C136 1.357 . S
C136 C132 1.370 . S
C136 C135 1.357 . S
C136 H155 0.950 . S
Zn137 N131 2.020 1_545 S
Zn137 O140 2.025 . S
Zn137 O145 2.024 . S
Zn137 O147 2.039 . S
Zn137 O149 2.034 . S
O138 C122 1.251 . S
O138 Zn129 2.039 . S
C139 O144 1.246 . S
C139 O145 1.249 . S
O140 C122 1.254 . S
O140 Zn137 2.025 . S
H141 C133 0.952 . S
H142 C124 0.952 . S
H143 C132 0.948 . S
O144 Zn129 2.034 . S
O144 C139 1.246 . S
O145 Zn137 2.024 . S
O145 C139 1.249 . S
H146 C128 0.948 . S
O147 Zn137 2.039 . S
O147 C151 1.251 . S
O148 Zn129 2.025 . S
O148 C151 1.254 . S
O149 C130 1.246 1_554 S
O149 Zn137 2.034 . S
O150 Zn129 2.024 1_556 S
O150 C130 1.249 . S
C151 O147 1.251 . S
C151 O148 1.254 . S
H152 C125 0.949 . S
H153 C127 0.950 . S
H154 C134 0.949 . S
H155 C136 0.950 . S
C156 O172 1.251 . S
C156 O174 1.254 . S
N157 C158 1.333 . S
N157 C162 1.307 . S
N157 Zn163 2.020 . S
C158 N157 1.333 . S
C158 C159 1.379 . S
C158 H176 0.952 . S
C159 C158 1.379 . S
C159 C160 1.390 . S
C159 H186 0.949 . S
C160 C159 1.390 . S
C160 C161 1.357 . S
C161 C160 1.357 . S
C161 C162 1.370 . S
C161 H187 0.950 . S
C162 N157 1.307 . S
C162 C161 1.370 . S
C162 H180 0.948 . S
Zn163 N157 2.020 . S
Zn163 O172 2.039 . S
Zn163 O178 2.034 . S
Zn163 O182 2.025 . S
Zn163 O184 2.024 . S
C164 O183 1.246 . S
C164 O184 1.249 . S
N165 C166 1.307 . S
N165 C167 1.333 . S
N165 Zn171 2.020 . S
C166 N165 1.307 . S
C166 C170 1.370 . S
C166 H177 0.948 . S
C167 N165 1.333 . S
C167 C168 1.379 . S
C167 H175 0.952 . S
C168 C167 1.379 . S
C168 C169 1.390 . S
C168 H188 0.949 . S
C169 C168 1.390 . S
C169 C170 1.357 . S
C170 C166 1.370 . S
C170 C169 1.357 . S
C170 H189 0.950 . S
Zn171 N165 2.020 . S
Zn171 O174 2.025 . S
Zn171 O179 2.024 . S
Zn171 O181 2.039 . S
Zn171 O183 2.034 . S
O172 C156 1.251 . S
O172 Zn163 2.039 . S
C173 O178 1.246 . S
C173 O179 1.249 . S
O174 C156 1.254 . S
O174 Zn171 2.025 . S
H175 C167 0.952 . S
H176 C158 0.952 . S
H177 C166 0.948 . S
O178 Zn163 2.034 . S
O178 C173 1.246 . S
O179 Zn171 2.024 . S
O179 C173 1.249 . S
H180 C162 0.948 . S
O181 Zn171 2.039 . S
O181 C185 1.251 . S
O182 Zn163 2.025 . S
O182 C185 1.254 . S
O183 C164 1.246 . S
O183 Zn171 2.034 . S
O184 Zn163 2.024 . S
O184 C164 1.249 . S
C185 O181 1.251 . S
C185 O182 1.254 . S
H186 C159 0.949 . S
H187 C161 0.950 . S
H188 C168 0.949 . S
H189 C170 0.950 . S
C190 O206 1.254 1_556 S
C190 O208 1.246 1_655 S
N191 C192 1.333 . S
N191 C196 1.307 . S
N191 Zn197 2.008 1_655 S
C192 N191 1.333 . S
C192 C193 1.379 . S
C192 H210 0.952 . S
C193 C192 1.379 . S
C193 C194 1.390 . S
C193 H220 0.949 . S
C194 C193 1.390 . S
C194 C195 1.357 . S
C195 C194 1.357 . S
C195 C196 1.370 . S
C195 H221 0.950 . S
C196 N191 1.307 . S
C196 C195 1.370 . S
C196 H214 0.948 . S
Zn197 N191 2.008 1_455 S
Zn197 O206 2.031 1_455 S
Zn197 O212 2.069 . S
Zn197 O216 2.039 . S
Zn197 O218 1.993 1_455 S
C198 O217 1.246 . S
C198 O218 1.249 1_556 S
N199 C200 1.307 . S
N199 C201 1.333 . S
N199 Zn205 2.020 . S
C200 N199 1.307 . S
C200 C204 1.370 . S
C200 H211 0.948 . S
C201 N199 1.333 . S
C201 C202 1.379 . S
C201 H209 0.952 . S
C202 C201 1.379 . S
C202 C203 1.390 . S
C202 H222 0.949 . S
C203 C202 1.390 . S
C203 C204 1.357 . S
C204 C200 1.370 . S
C204 C203 1.357 . S
C204 H223 0.950 . S
Zn205 N199 2.020 . S
Zn205 O208 2.025 . S
Zn205 O213 2.035 . S
Zn205 O215 2.047 . S
Zn205 O217 2.034 1_455 S
O206 C190 1.254 1_554 S
O206 Zn197 2.031 1_655 S
C207 O212 1.246 . S
C207 O213 1.225 1_554 S
O208 C190 1.246 1_455 S
O208 Zn205 2.025 . S
H209 C201 0.952 . S
H210 C192 0.952 . S
H211 C200 0.948 . S
O212 Zn197 2.069 . S
O212 C207 1.246 . S
O213 Zn205 2.035 . S
O213 C207 1.225 1_556 S
H214 C196 0.948 . S
O215 Zn205 2.047 . S
O215 C219 1.235 1_556 S
O216 Zn197 2.039 . S
O216 C219 1.254 . S
O217 C198 1.246 . S
O217 Zn205 2.034 1_655 S
O218 Zn197 1.993 1_655 S
O218 C198 1.249 1_554 S
C219 O215 1.235 1_554 S
C219 O216 1.254 . S
H220 C193 0.949 . S
H221 C195 0.950 . S
H222 C202 0.949 . S
H223 C204 0.950 . S
C224 C225 1.349 . S
C224 C226 1.327 . S
C224 H249 0.950 . S
C225 C224 1.349 . S
C225 C241 1.349 . S
C226 C224 1.327 . S
C226 C245 1.429 . S
C226 H250 0.950 . S
C227 C244 1.574 . S
C227 C246 1.368 . S
C227 H251 0.949 . S
H228 C232 0.949 . S
C229 C230 1.349 . S
C229 C231 1.327 . S
C229 H252 0.950 . S
C230 C229 1.349 . S
C230 C242 1.349 . S
C231 C229 1.327 . S
C231 C247 1.429 . S
C231 H253 0.950 . S
C232 H228 0.949 . S
C232 C240 1.574 . S
C232 C248 1.368 . S
H233 C241 0.950 . S
H234 C239 0.950 . S
H235 C240 0.949 . S
H236 C242 0.950 . S
H237 C243 0.950 . S
H238 C244 0.949 . S
C239 H234 0.950 . S
C239 C241 1.327 . S
C239 C245 1.429 . S
C240 C232 1.574 . S
C240 H235 0.949 . S
C240 C246 1.368 . S
C241 C225 1.349 . S
C241 H233 0.950 . S
C241 C239 1.327 . S
C242 C230 1.349 . S
C242 H236 0.950 . S
C242 C243 1.327 . S
C243 H237 0.950 . S
C243 C242 1.327 . S
C243 C247 1.429 . S
C244 C227 1.574 . S
C244 H238 0.949 . S
C244 C248 1.368 . S
C245 C226 1.429 . S
C245 C239 1.429 . S
C245 C246 1.523 . S
C246 C227 1.368 . S
C246 C240 1.368 . S
C246 C245 1.523 . S
C247 C231 1.429 . S
C247 C243 1.429 . S
C247 C248 1.523 . S
C248 C232 1.368 . S
C248 C244 1.368 . S
C248 C247 1.523 . S
H249 C224 0.950 . S
H250 C226 0.950 . S
H251 C227 0.949 . S
H252 C229 0.950 . S
H253 C231 0.950 . S
C254 C255 1.349 . S
C254 C256 1.327 . S
C254 H279 0.950 . S
C255 C254 1.349 . S
C255 C271 1.349 . S
C256 C254 1.327 . S
C256 C275 1.429 . S
C256 H280 0.950 . S
C257 C274 1.574 . S
C257 C276 1.368 . S
C257 H281 0.949 . S
H258 C262 0.949 . S
C259 C260 1.349 1_565 S
C259 C261 1.327 . S
C259 H282 0.950 . S
C260 C259 1.349 1_545 S
C260 C272 1.349 . S
C261 C259 1.327 . S
C261 C277 1.429 . S
C261 H283 0.950 . S
C262 H258 0.949 . S
C262 C270 1.574 1_545 S
C262 C278 1.368 1_545 S
H263 C271 0.950 . S
H264 C269 0.950 . S
H265 C270 0.949 1_545 S
H266 C272 0.950 . S
H267 C273 0.950 . S
H268 C274 0.949 . S
C269 H264 0.950 . S
C269 C271 1.327 . S
C269 C275 1.429 . S
C270 C262 1.574 1_565 S
C270 H265 0.949 1_565 S
C270 C276 1.368 . S
C271 C255 1.349 . S
C271 H263 0.950 . S
C271 C269 1.327 . S
C272 C260 1.349 . S
C272 H266 0.950 . S
C272 C273 1.327 . S
C273 H267 0.950 . S
C273 C272 1.327 . S
C273 C277 1.429 1_545 S
C274 C257 1.574 . S
C274 H268 0.949 . S
C274 C278 1.368 . S
C275 C256 1.429 . S
C275 C269 1.429 . S
C275 C276 1.523 . S
C276 C257 1.368 . S
C276 C270 1.368 . S
C276 C275 1.523 . S
C277 C261 1.429 . S
C277 C273 1.429 1_565 S
C277 C278 1.523 . S
C278 C262 1.368 1_565 S
C278 C274 1.368 . S
C278 C277 1.523 . S
H279 C254 0.950 . S
H280 C256 0.950 . S
H281 C257 0.949 . S
H282 C259 0.950 . S
H283 C261 0.950 . S
C284 C285 1.349 . S
C284 C286 1.327 . S
C284 H309 0.950 . S
C285 C284 1.349 . S
C285 C301 1.349 . S
C286 C284 1.327 . S
C286 C305 1.429 . S
C286 H310 0.950 . S
C287 C304 1.574 . S
C287 C306 1.368 . S
C287 H311 0.949 . S
H288 C292 0.949 . S
C289 C290 1.349 . S
C289 C291 1.327 . S
C289 H312 0.950 . S
C290 C289 1.349 . S
C290 C302 1.349 . S
C291 C289 1.327 . S
C291 C307 1.429 . S
C291 H313 0.950 . S
C292 H288 0.949 . S
C292 C300 1.574 . S
C292 C308 1.368 . S
H293 C301 0.950 . S
H294 C299 0.950 . S
H295 C300 0.949 . S
H296 C302 0.950 . S
H297 C303 0.950 . S
H298 C304 0.949 . S
C299 H294 0.950 . S
C299 C301 1.327 . S
C299 C305 1.429 . S
C300 C292 1.574 . S
C300 H295 0.949 . S
C300 C306 1.368 . S
C301 C285 1.349 . S
C301 H293 0.950 . S
C301 C299 1.327 . S
C302 C290 1.349 . S
C302 H296 0.950 . S
C302 C303 1.327 . S
C303 H297 0.950 . S
C303 C302 1.327 . S
C303 C307 1.429 . S
C304 C287 1.574 . S
C304 H298 0.949 . S
C304 C308 1.368 . S
C305 C286 1.429 . S
C305 C299 1.429 . S
C305 C306 1.523 . S
C306 C287 1.368 . S
C306 C300 1.368 . S
C306 C305 1.523 . S
C307 C291 1.429 . S
C307 C303 1.429 . S
C307 C308 1.523 . S
C308 C292 1.368 . S
C308 C304 1.368 . S
C308 C307 1.523 . S
H309 C284 0.950 . S
H310 C286 0.950 . S
H311 C287 0.949 . S
H312 C289 0.950 . S
H313 C291 0.950 . S
C314 C315 1.349 . S
C314 C316 1.327 . S
C314 H339 0.950 . S
C315 C314 1.349 . S
C315 C331 1.349 . S
C316 C314 1.327 . S
C316 C335 1.429 . S
C316 H340 0.950 . S
C317 C334 1.574 . S
C317 C336 1.368 . S
C317 H341 0.949 . S
H318 C322 0.949 . S
C319 C320 1.349 . S
C319 C321 1.327 . S
C319 H342 0.950 . S
C320 C319 1.349 . S
C320 C332 1.349 . S
C321 C319 1.327 . S
C321 C337 1.429 . S
C321 H343 0.950 . S
C322 H318 0.949 . S
C322 C330 1.574 . S
C322 C338 1.368 . S
H323 C331 0.950 . S
H324 C329 0.950 . S
H325 C330 0.949 . S
H326 C332 0.950 . S
H327 C333 0.950 . S
H328 C334 0.949 . S
C329 H324 0.950 . S
C329 C331 1.327 . S
C329 C335 1.429 . S
C330 C322 1.574 . S
C330 H325 0.949 . S
C330 C336 1.368 . S
C331 C315 1.349 . S
C331 H323 0.950 . S
C331 C329 1.327 . S
C332 C320 1.349 . S
C332 H326 0.950 . S
C332 C333 1.327 . S
C333 H327 0.950 . S
C333 C332 1.327 . S
C333 C337 1.429 . S
C334 C317 1.574 . S
C334 H328 0.949 . S
C334 C338 1.368 . S
C335 C316 1.429 . S
C335 C329 1.429 . S
C335 C336 1.523 . S
C336 C317 1.368 . S
C336 C330 1.368 . S
C336 C335 1.523 . S
C337 C321 1.429 . S
C337 C333 1.429 . S
C337 C338 1.523 . S
C338 C322 1.368 . S
C338 C334 1.368 . S
C338 C337 1.523 . S
H339 C314 0.950 . S
H340 C316 0.950 . S
H341 C317 0.949 . S
H342 C319 0.950 . S
H343 C321 0.950 . S
C344 C345 1.349 . S
C344 C346 1.327 . S
C344 H369 0.950 . S
C345 C344 1.349 . S
C345 C361 1.349 . S
C346 C344 1.327 . S
C346 C365 1.429 . S
C346 H370 0.950 . S
C347 C364 1.574 . S
C347 C366 1.368 . S
C347 H371 0.949 . S
H348 C352 0.949 . S
C349 C350 1.349 . S
C349 C351 1.327 . S
C349 H372 0.950 . S
C350 C349 1.349 . S
C350 C362 1.349 . S
C351 C349 1.327 . S
C351 C367 1.429 . S
C351 H373 0.950 . S
C352 H348 0.949 . S
C352 C360 1.574 . S
C352 C368 1.368 . S
H353 C361 0.950 . S
H354 C359 0.950 . S
H355 C360 0.949 . S
H356 C362 0.950 . S
H357 C363 0.950 . S
H358 C364 0.949 . S
C359 H354 0.950 . S
C359 C361 1.327 . S
C359 C365 1.429 . S
C360 C352 1.574 . S
C360 H355 0.949 . S
C360 C366 1.368 . S
C361 C345 1.349 . S
C361 H353 0.950 . S
C361 C359 1.327 . S
C362 C350 1.349 . S
C362 H356 0.950 . S
C362 C363 1.327 . S
C363 H357 0.950 . S
C363 C362 1.327 . S
C363 C367 1.429 . S
C364 C347 1.574 . S
C364 H358 0.949 . S
C364 C368 1.368 . S
C365 C346 1.429 . S
C365 C359 1.429 . S
C365 C366 1.523 . S
C366 C347 1.368 . S
C366 C360 1.368 . S
C366 C365 1.523 . S
C367 C351 1.429 . S
C367 C363 1.429 . S
C367 C368 1.523 . S
C368 C352 1.368 . S
C368 C364 1.368 . S
C368 C367 1.523 . S
H369 C344 0.950 . S
H370 C346 0.950 . S
H371 C347 0.949 . S
H372 C349 0.950 . S
H373 C351 0.950 . S
C374 C375 1.349 . S
C374 C376 1.327 . S
C374 H399 0.950 . S
C375 C374 1.349 . S
C375 C391 1.349 . S
C376 C374 1.327 . S
C376 C395 1.429 . S
C376 H400 0.950 1_565 S
C377 C394 1.574 . S
C377 C396 1.368 . S
C377 H401 0.949 . S
H378 C382 0.949 . S
C379 C380 1.349 1_565 S
C379 C381 1.327 . S
C379 H402 0.950 . S
C380 C379 1.349 1_545 S
C380 C392 1.349 . S
C381 C379 1.327 . S
C381 C397 1.429 1_565 S
C381 H403 0.950 . S
C382 H378 0.949 . S
C382 C390 1.574 . S
C382 C398 1.368 1_545 S
H383 C391 0.950 . S
H384 C389 0.950 . S
H385 C390 0.949 . S
H386 C392 0.950 . S
H387 C393 0.950 . S
H388 C394 0.949 . S
C389 H384 0.950 . S
C389 C391 1.327 . S
C389 C395 1.429 . S
C390 C382 1.574 . S
C390 H385 0.949 . S
C390 C396 1.368 1_545 S
C391 C375 1.349 . S
C391 H383 0.950 . S
C391 C389 1.327 . S
C392 C380 1.349 . S
C392 H386 0.950 . S
C392 C393 1.327 . S
C393 H387 0.950 . S
C393 C392 1.327 . S
C393 C397 1.429 . S
C394 C377 1.574 . S
C394 H388 0.949 . S
C394 C398 1.368 . S
C395 C376 1.429 . S
C395 C389 1.429 . S
C395 C396 1.523 . S
C396 C377 1.368 . S
C396 C390 1.368 1_565 S
C396 C395 1.523 . S
C397 C381 1.429 1_545 S
C397 C393 1.429 . S
C397 C398 1.523 1_545 S
C398 C382 1.368 1_565 S
C398 C394 1.368 . S
C398 C397 1.523 1_565 S
H399 C374 0.950 . S
H400 C376 0.950 1_545 S
H401 C377 0.949 . S
H402 C379 0.950 . S
H403 C381 0.950 . S
C404 C405 1.349 . S
C404 C406 1.327 . S
C404 H429 0.950 . S
C405 C404 1.349 . S
C405 C421 1.349 . S
C406 C404 1.327 . S
C406 C425 1.429 . S
C406 H430 0.950 . S
C407 C424 1.574 . S
C407 C426 1.368 . S
C407 H431 0.949 . S
H408 C412 0.949 . S
C409 C410 1.349 . S
C409 C411 1.327 . S
C409 H432 0.950 . S
C410 C409 1.349 . S
C410 C422 1.349 . S
C411 C409 1.327 . S
C411 C427 1.429 . S
C411 H433 0.950 . S
C412 H408 0.949 . S
C412 C420 1.574 . S
C412 C428 1.368 . S
H413 C421 0.950 . S
H414 C419 0.950 . S
H415 C420 0.949 . S
H416 C422 0.950 1_554 S
H417 C423 0.950 . S
H418 C424 0.949 . S
C419 H414 0.950 . S
C419 C421 1.327 . S
C419 C425 1.429 . S
C420 C412 1.574 . S
C420 H415 0.949 . S
C420 C426 1.368 . S
C421 C405 1.349 . S
C421 H413 0.950 . S
C421 C419 1.327 . S
C422 C410 1.349 . S
C422 H416 0.950 1_556 S
C422 C423 1.327 . S
C423 H417 0.950 . S
C423 C422 1.327 . S
C423 C427 1.429 . S
C424 C407 1.574 . S
C424 H418 0.949 . S
C424 C428 1.368 . S
C425 C406 1.429 . S
C425 C419 1.429 . S
C425 C426 1.523 . S
C426 C407 1.368 . S
C426 C420 1.368 . S
C426 C425 1.523 . S
C427 C411 1.429 . S
C427 C423 1.429 . S
C427 C428 1.523 . S
C428 C412 1.368 . S
C428 C424 1.368 . S
C428 C427 1.523 . S
H429 C404 0.950 . S
H430 C406 0.950 . S
H431 C407 0.949 . S
H432 C409 0.950 . S
H433 C411 0.950 . S
C434 C435 1.349 . S
C434 C436 1.327 . S
C434 H459 0.950 . S
C435 C434 1.349 . S
C435 C451 1.349 . S
C436 C434 1.327 . S
C436 C455 1.429 . S
C436 H460 0.950 . S
C437 C454 1.574 . S
C437 C456 1.368 . S
C437 H461 0.949 . S
H438 C442 0.949 . S
C439 C440 1.349 . S
C439 C441 1.327 . S
C439 H462 0.950 . S
C440 C439 1.349 . S
C440 C452 1.349 . S
C441 C439 1.327 . S
C441 C457 1.429 . S
C441 H463 0.950 . S
C442 H438 0.949 . S
C442 C450 1.574 . S
C442 C458 1.368 . S
H443 C451 0.950 . S
H444 C449 0.950 . S
H445 C450 0.949 . S
H446 C452 0.950 . S
H447 C453 0.950 . S
H448 C454 0.949 . S
C449 H444 0.950 . S
C449 C451 1.327 . S
C449 C455 1.429 . S
C450 C442 1.574 . S
C450 H445 0.949 . S
C450 C456 1.368 . S
C451 C435 1.349 . S
C451 H443 0.950 . S
C451 C449 1.327 . S
C452 C440 1.349 . S
C452 H446 0.950 . S
C452 C453 1.327 . S
C453 H447 0.950 . S
C453 C452 1.327 . S
C453 C457 1.429 . S
C454 C437 1.574 . S
C454 H448 0.949 . S
C454 C458 1.368 . S
C455 C436 1.429 . S
C455 C449 1.429 . S
C455 C456 1.523 . S
C456 C437 1.368 . S
C456 C450 1.368 . S
C456 C455 1.523 . S
C457 C441 1.429 . S
C457 C453 1.429 . S
C457 C458 1.523 . S
C458 C442 1.368 . S
C458 C454 1.368 . S
C458 C457 1.523 . S
H459 C434 0.950 . S
H460 C436 0.950 . S
H461 C437 0.949 . S
H462 C439 0.950 . S
H463 C441 0.950 . S
C464 C465 1.349 . S
C464 C466 1.327 . S
C464 H489 0.950 . S
C465 C464 1.349 . S
C465 C481 1.349 . S
C466 C464 1.327 . S
C466 C485 1.429 . S
C466 H490 0.950 . S
C467 C484 1.574 . S
C467 C486 1.368 . S
C467 H491 0.949 . S
H468 C472 0.949 . S
C469 C470 1.349 . S
C469 C471 1.327 . S
C469 H492 0.950 . S
C470 C469 1.349 . S
C470 C482 1.349 . S
C471 C469 1.327 . S
C471 C487 1.429 . S
C471 H493 0.950 . S
C472 H468 0.949 . S
C472 C480 1.574 . S
C472 C488 1.368 . S
H473 C481 0.950 . S
H474 C479 0.950 . S
H475 C480 0.949 . S
H476 C482 0.950 . S
H477 C483 0.950 . S
H478 C484 0.949 . S
C479 H474 0.950 . S
C479 C481 1.327 . S
C479 C485 1.429 . S
C480 C472 1.574 . S
C480 H475 0.949 . S
C480 C486 1.368 . S
C481 C465 1.349 . S
C481 H473 0.950 . S
C481 C479 1.327 . S
C482 C470 1.349 . S
C482 H476 0.950 . S
C482 C483 1.327 . S
C483 H477 0.950 . S
C483 C482 1.327 . S
C483 C487 1.429 . S
C484 C467 1.574 . S
C484 H478 0.949 . S
C484 C488 1.368 . S
C485 C466 1.429 . S
C485 C479 1.429 . S
C485 C486 1.523 . S
C486 C467 1.368 . S
C486 C480 1.368 . S
C486 C485 1.523 . S
C487 C471 1.429 . S
C487 C483 1.429 . S
C487 C488 1.523 . S
C488 C472 1.368 . S
C488 C484 1.368 . S
C488 C487 1.523 . S
H489 C464 0.950 . S
H490 C466 0.950 . S
H491 C467 0.949 . S
H492 C469 0.950 . S
H493 C471 0.950 . S
C494 C495 1.349 . S
C494 C496 1.327 . S
C494 H519 0.950 . S
C495 C494 1.349 . S
C495 C511 1.349 . S
C496 C494 1.327 . S
C496 C515 1.429 . S
C496 H520 0.950 . S
C497 C514 1.574 . S
C497 C516 1.368 . S
C497 H521 0.949 . S
H498 C502 0.949 . S
C499 C500 1.349 . S
C499 C501 1.327 . S
C499 H522 0.950 . S
C500 C499 1.349 . S
C500 C512 1.340 1_556 S
C501 C499 1.327 . S
C501 C517 1.429 . S
C501 H523 0.950 . S
C502 H498 0.949 . S
C502 C510 1.574 . S
C502 C518 1.368 . S
H503 C511 0.950 . S
H504 C509 0.950 . S
H505 C510 0.949 . S
H506 C512 0.962 . S
H507 C513 0.950 1_554 S
H508 C514 0.949 . S
C509 H504 0.950 . S
C509 C511 1.327 . S
C509 C515 1.429 . S
C510 C502 1.574 . S
C510 H505 0.949 . S
C510 C516 1.368 . S
C511 C495 1.349 . S
C511 H503 0.950 . S
C511 C509 1.327 . S
C512 C500 1.340 1_554 S
C512 H506 0.962 . S
C512 C513 1.324 1_554 S
C513 H507 0.950 1_556 S
C513 C512 1.324 1_556 S
C513 C517 1.429 . S
C514 C497 1.574 . S
C514 H508 0.949 . S
C514 C518 1.368 . S
C515 C496 1.429 . S
C515 C509 1.429 . S
C515 C516 1.523 . S
C516 C497 1.368 . S
C516 C510 1.368 . S
C516 C515 1.523 . S
C517 C501 1.429 . S
C517 C513 1.429 . S
C517 C518 1.523 . S
C518 C502 1.368 . S
C518 C514 1.368 . S
C518 C517 1.523 . S
H519 C494 0.950 . S
H520 C496 0.950 . S
H521 C497 0.949 . S
H522 C499 0.950 . S
H523 C501 0.950 . S
C524 C525 1.349 . S
C524 C526 1.327 . S
C524 H549 0.950 . S
C525 C524 1.349 . S
C525 C541 1.349 . S
C526 C524 1.327 . S
C526 C545 1.429 . S
C526 H550 0.950 . S
C527 C544 1.574 . S
C527 C546 1.368 . S
C527 H551 0.949 . S
H528 C532 0.949 . S
C529 C530 1.349 . S
C529 C531 1.327 . S
C529 H552 0.950 . S
C530 C529 1.349 . S
C530 C542 1.349 . S
C531 C529 1.327 . S
C531 C547 1.429 . S
C531 H553 0.950 . S
C532 H528 0.949 . S
C532 C540 1.574 . S
C532 C548 1.368 . S
H533 C541 0.950 . S
H534 C539 0.950 . S
H535 C540 0.949 . S
H536 C542 0.950 . S
H537 C543 0.950 . S
H538 C544 0.949 . S
C539 H534 0.950 . S
C539 C541 1.327 . S
C539 C545 1.429 . S
C540 C532 1.574 . S
C540 H535 0.949 . S
C540 C546 1.368 . S
C541 C525 1.349 . S
C541 H533 0.950 . S
C541 C539 1.327 . S
C542 C530 1.349 . S
C542 H536 0.950 . S
C542 C543 1.327 . S
C543 H537 0.950 . S
C543 C542 1.327 . S
C543 C547 1.429 . S
C544 C527 1.574 . S
C544 H538 0.949 . S
C544 C548 1.368 . S
C545 C526 1.429 . S
C545 C539 1.429 . S
C545 C546 1.523 . S
C546 C527 1.368 . S
C546 C540 1.368 . S
C546 C545 1.523 . S
C547 C531 1.429 . S
C547 C543 1.429 . S
C547 C548 1.523 . S
C548 C532 1.368 . S
C548 C544 1.368 . S
C548 C547 1.523 . S
H549 C524 0.950 . S
H550 C526 0.950 . S
H551 C527 0.949 . S
H552 C529 0.950 . S
H553 C531 0.950 . S
C554 C555 1.349 . S
C554 C556 1.327 . S
C554 H579 0.950 . S
C555 C554 1.349 . S
C555 C571 1.349 . S
C556 C554 1.327 . S
C556 C575 1.429 . S
C556 H580 0.950 . S
C557 C574 1.574 . S
C557 C576 1.368 . S
C557 H581 0.949 . S
H558 C562 0.949 . S
C559 C560 1.349 . S
C559 C561 1.327 . S
C559 H582 0.950 . S
C560 C559 1.349 . S
C560 C572 1.349 . S
C561 C559 1.327 . S
C561 C577 1.429 . S
C561 H583 0.950 . S
C562 H558 0.949 . S
C562 C570 1.574 . S
C562 C578 1.368 . S
H563 C571 0.950 . S
H564 C569 0.950 . S
H565 C570 0.949 . S
H566 C572 0.950 . S
H567 C573 0.950 . S
H568 C574 0.949 . S
C569 H564 0.950 . S
C569 C571 1.327 . S
C569 C575 1.429 . S
C570 C562 1.574 . S
C570 H565 0.949 . S
C570 C576 1.368 . S
C571 C555 1.349 . S
C571 H563 0.950 . S
C571 C569 1.327 . S
C572 C560 1.349 . S
C572 H566 0.950 . S
C572 C573 1.327 . S
C573 H567 0.950 . S
C573 C572 1.327 . S
C573 C577 1.429 . S
C574 C557 1.574 . S
C574 H568 0.949 . S
C574 C578 1.368 . S
C575 C556 1.429 . S
C575 C569 1.429 . S
C575 C576 1.523 . S
C576 C557 1.368 . S
C576 C570 1.368 . S
C576 C575 1.523 . S
C577 C561 1.429 . S
C577 C573 1.429 . S
C577 C578 1.523 . S
C578 C562 1.368 . S
C578 C574 1.368 . S
C578 C577 1.523 . S
H579 C554 0.950 . S
H580 C556 0.950 . S
H581 C557 0.949 . S
H582 C559 0.950 . S
H583 C561 0.950 . S
C584 C585 1.349 . S
C584 C586 1.327 . S
C584 H609 0.950 . S
C585 C584 1.349 . S
C585 C601 1.349 . S
C586 C584 1.327 . S
C586 C605 1.429 . S
C586 H610 0.950 . S
C587 C604 1.574 . S
C587 C606 1.368 . S
C587 H611 0.949 . S
H588 C592 0.949 . S
C589 C590 1.349 1_565 S
C589 C591 1.327 . S
C589 H612 0.950 . S
C590 C589 1.349 1_545 S
C590 C602 1.349 . S
C591 C589 1.327 . S
C591 C607 1.429 . S
C591 H613 0.950 . S
C592 H588 0.949 . S
C592 C600 1.574 1_545 S
C592 C608 1.368 1_545 S
H593 C601 0.950 . S
H594 C599 0.950 . S
H595 C600 0.949 1_545 S
H596 C602 0.950 1_455 S
H597 C603 0.950 . S
H598 C604 0.949 . S
C599 H594 0.950 . S
C599 C601 1.327 . S
C599 C605 1.429 . S
C600 C592 1.574 1_565 S
C600 H595 0.949 1_565 S
C600 C606 1.368 . S
C601 C585 1.349 . S
C601 H593 0.950 . S
C601 C599 1.327 . S
C602 C590 1.349 . S
C602 H596 0.950 1_655 S
C602 C603 1.327 . S
C603 H597 0.950 . S
C603 C602 1.327 . S
C603 C607 1.429 1_545 S
C604 C587 1.574 . S
C604 H598 0.949 . S
C604 C608 1.368 . S
C605 C586 1.429 . S
C605 C599 1.429 . S
C605 C606 1.523 . S
C606 C587 1.368 . S
C606 C600 1.368 . S
C606 C605 1.523 . S
C607 C591 1.429 . S
C607 C603 1.429 1_565 S
C607 C608 1.523 . S
C608 C592 1.368 1_565 S
C608 C604 1.368 . S
C608 C607 1.523 . S
H609 C584 0.950 . S
H610 C586 0.950 . S
H611 C587 0.949 . S
H612 C589 0.950 . S
H613 C591 0.950 . S
C614 C615 1.349 . S
C614 C616 1.327 . S
C614 H639 0.950 . S
C615 C614 1.349 . S
C615 C631 1.349 . S
C616 C614 1.327 . S
C616 C635 1.429 . S
C616 H640 0.950 . S
C617 C634 1.574 . S
C617 C636 1.368 . S
C617 H641 0.949 . S
H618 C622 0.949 . S
C619 C620 1.349 . S
C619 C621 1.327 . S
C619 H642 0.950 . S
C620 C619 1.349 . S
C620 C632 1.349 . S
C621 C619 1.327 . S
C621 C637 1.429 . S
C621 H643 0.950 . S
C622 H618 0.949 . S
C622 C630 1.574 . S
C622 C638 1.368 . S
H623 C631 0.950 . S
H624 C629 0.950 . S
H625 C630 0.949 . S
H626 C632 0.950 . S
H627 C633 0.950 . S
H628 C634 0.949 . S
C629 H624 0.950 . S
C629 C631 1.327 . S
C629 C635 1.429 . S
C630 C622 1.574 . S
C630 H625 0.949 . S
C630 C636 1.368 . S
C631 C615 1.349 . S
C631 H623 0.950 . S
C631 C629 1.327 . S
C632 C620 1.349 . S
C632 H626 0.950 . S
C632 C633 1.327 . S
C633 H627 0.950 . S
C633 C632 1.327 . S
C633 C637 1.429 . S
C634 C617 1.574 . S
C634 H628 0.949 . S
C634 C638 1.368 . S
C635 C616 1.429 . S
C635 C629 1.429 . S
C635 C636 1.523 . S
C636 C617 1.368 . S
C636 C630 1.368 . S
C636 C635 1.523 . S
C637 C621 1.429 . S
C637 C633 1.429 . S
C637 C638 1.523 . S
C638 C622 1.368 . S
C638 C634 1.368 . S
C638 C637 1.523 . S
H639 C614 0.950 . S
H640 C616 0.950 . S
H641 C617 0.949 . S
H642 C619 0.950 . S
H643 C621 0.950 . S
C644 C645 1.349 . S
C644 C646 1.327 . S
C644 H669 0.950 . S
C645 C644 1.349 . S
C645 C661 1.349 . S
C646 C644 1.327 . S
C646 C665 1.429 . S
C646 H670 0.950 . S
C647 C664 1.574 . S
C647 C666 1.368 . S
C647 H671 0.949 . S
H648 C652 0.949 . S
C649 C650 1.349 . S
C649 C651 1.327 . S
C649 H672 0.950 . S
C650 C649 1.349 . S
C650 C662 1.349 . S
C651 C649 1.327 . S
C651 C667 1.429 . S
C651 H673 0.950 . S
C652 H648 0.949 . S
C652 C660 1.574 . S
C652 C668 1.368 . S
H653 C661 0.950 . S
H654 C659 0.950 . S
H655 C660 0.949 . S
H656 C662 0.950 . S
H657 C663 0.950 . S
H658 C664 0.949 . S
C659 H654 0.950 . S
C659 C661 1.327 . S
C659 C665 1.429 . S
C660 C652 1.574 . S
C660 H655 0.949 . S
C660 C666 1.368 . S
C661 C645 1.349 . S
C661 H653 0.950 . S
C661 C659 1.327 . S
C662 C650 1.349 . S
C662 H656 0.950 . S
C662 C663 1.327 . S
C663 H657 0.950 . S
C663 C662 1.327 . S
C663 C667 1.429 . S
C664 C647 1.574 . S
C664 H658 0.949 . S
C664 C668 1.368 . S
C665 C646 1.429 . S
C665 C659 1.429 . S
C665 C666 1.523 . S
C666 C647 1.368 . S
C666 C660 1.368 . S
C666 C665 1.523 . S
C667 C651 1.429 . S
C667 C663 1.429 . S
C667 C668 1.523 . S
C668 C652 1.368 . S
C668 C664 1.368 . S
C668 C667 1.523 . S
H669 C644 0.950 . S
H670 C646 0.950 . S
H671 C647 0.949 . S
H672 C649 0.950 . S
H673 C651 0.950 . S
C674 C675 1.349 . S
C674 C676 1.327 . S
C674 H699 0.950 . S
C675 C674 1.349 . S
C675 C691 1.349 . S
C676 C674 1.327 . S
C676 C695 1.429 . S
C676 H700 0.950 . S
C677 C694 1.574 . S
C677 C696 1.368 . S
C677 H701 0.949 . S
H678 C682 0.949 . S
C679 C680 1.349 . S
C679 C681 1.327 . S
C679 H702 0.950 . S
C680 C679 1.349 . S
C680 C692 1.349 . S
C681 C679 1.327 . S
C681 C697 1.429 . S
C681 H703 0.950 . S
C682 H678 0.949 . S
C682 C690 1.574 . S
C682 C698 1.368 . S
H683 C691 0.950 . S
H684 C689 0.950 . S
H685 C690 0.949 . S
H686 C692 0.950 . S
H687 C693 0.950 . S
H688 C694 0.949 . S
C689 H684 0.950 . S
C689 C691 1.327 . S
C689 C695 1.429 . S
C690 C682 1.574 . S
C690 H685 0.949 . S
C690 C696 1.368 . S
C691 C675 1.349 . S
C691 H683 0.950 . S
C691 C689 1.327 . S
C692 C680 1.349 . S
C692 H686 0.950 . S
C692 C693 1.327 . S
C693 H687 0.950 . S
C693 C692 1.327 . S
C693 C697 1.429 . S
C694 C677 1.574 . S
C694 H688 0.949 . S
C694 C698 1.368 . S
C695 C676 1.429 . S
C695 C689 1.429 . S
C695 C696 1.523 . S
C696 C677 1.368 . S
C696 C690 1.368 . S
C696 C695 1.523 . S
C697 C681 1.429 . S
C697 C693 1.429 . S
C697 C698 1.523 . S
C698 C682 1.368 . S
C698 C694 1.368 . S
C698 C697 1.523 . S
H699 C674 0.950 . S
H700 C676 0.950 . S
H701 C677 0.949 . S
H702 C679 0.950 . S
H703 C681 0.950 . S
C704 C705 1.349 . S
C704 C706 1.327 . S
C704 H729 0.950 . S
C705 C704 1.349 . S
C705 C721 1.349 . S
C706 C704 1.327 . S
C706 C725 1.429 . S
C706 H730 0.950 . S
C707 C724 1.574 . S
C707 C726 1.368 . S
C707 H731 0.949 . S
H708 C712 0.947 1_545 S
C709 C710 1.349 . S
C709 C711 1.327 . S
C709 H732 0.950 . S
C710 C709 1.349 . S
C710 C722 1.349 1_554 S
C711 C709 1.327 . S
C711 C727 1.429 1_554 S
C711 H733 0.950 1_545 S
C712 H708 0.947 1_565 S
C712 C720 1.576 . S
C712 C728 1.369 . S
H713 C721 0.950 . S
H714 C719 0.950 . S
H715 C720 0.949 . S
H716 C722 0.950 . S
H717 C723 0.950 . S
H718 C724 0.949 1_554 S
C719 H714 0.950 . S
C719 C721 1.327 . S
C719 C725 1.429 . S
C720 C712 1.576 . S
C720 H715 0.949 . S
C720 C726 1.368 . S
C721 C705 1.349 . S
C721 H713 0.950 . S
C721 C719 1.327 . S
C722 C710 1.349 1_556 S
C722 H716 0.950 . S
C722 C723 1.327 . S
C723 H717 0.950 . S
C723 C722 1.327 . S
C723 C727 1.429 . S
C724 C707 1.574 . S
C724 H718 0.949 1_556 S
C724 C728 1.368 . S
C725 C706 1.429 . S
C725 C719 1.429 . S
C725 C726 1.523 . S
C726 C707 1.368 . S
C726 C720 1.368 . S
C726 C725 1.523 . S
C727 C711 1.429 1_556 S
C727 C723 1.429 . S
C727 C728 1.523 1_545 S
C728 C712 1.369 . S
C728 C724 1.368 . S
C728 C727 1.523 1_565 S
H729 C704 0.950 . S
H730 C706 0.950 . S
H731 C707 0.949 . S
H732 C709 0.950 . S
H733 C711 0.950 1_565 S
C734 C735 1.349 . S
C734 C736 1.327 . S
C734 H759 0.950 . S
C735 C734 1.349 . S
C735 C751 1.349 . S
C736 C734 1.327 . S
C736 C755 1.429 . S
C736 H760 0.950 . S
C737 C754 1.574 . S
C737 C756 1.368 . S
C737 H761 0.949 . S
H738 C742 0.949 . S
C739 C740 1.349 . S
C739 C741 1.327 . S
C739 H762 0.950 . S
C740 C739 1.349 . S
C740 C752 1.349 . S
C741 C739 1.327 . S
C741 C757 1.429 . S
C741 H763 0.950 . S
C742 H738 0.949 . S
C742 C750 1.574 . S
C742 C758 1.368 . S
H743 C751 0.950 . S
H744 C749 0.950 . S
H745 C750 0.949 . S
H746 C752 0.950 . S
H747 C753 0.950 . S
H748 C754 0.949 . S
C749 H744 0.950 . S
C749 C751 1.327 . S
C749 C755 1.429 . S
C750 C742 1.574 . S
C750 H745 0.949 . S
C750 C756 1.368 . S
C751 C735 1.349 . S
C751 H743 0.950 . S
C751 C749 1.327 . S
C752 C740 1.349 . S
C752 H746 0.950 . S
C752 C753 1.327 . S
C753 H747 0.950 . S
C753 C752 1.327 . S
C753 C757 1.429 . S
C754 C737 1.574 . S
C754 H748 0.949 . S
C754 C758 1.368 . S
C755 C736 1.429 . S
C755 C749 1.429 . S
C755 C756 1.523 . S
C756 C737 1.368 . S
C756 C750 1.368 . S
C756 C755 1.523 . S
C757 C741 1.429 . S
C757 C753 1.429 . S
C757 C758 1.523 . S
C758 C742 1.368 . S
C758 C754 1.368 . S
C758 C757 1.523 . S
H759 C734 0.950 . S
H760 C736 0.950 . S
H761 C737 0.949 . S
H762 C739 0.950 . S
H763 C741 0.950 . S
C764 C765 1.349 . S
C764 C766 1.327 . S
C764 H789 0.950 . S
C765 C764 1.349 . S
C765 C781 1.349 . S
C766 C764 1.327 . S
C766 C785 1.429 . S
C766 H790 0.950 . S
C767 C784 1.574 . S
C767 C786 1.368 . S
C767 H791 0.949 . S
H768 C772 0.949 . S
C769 C770 1.349 . S
C769 C771 1.327 . S
C769 H792 0.950 . S
C770 C769 1.349 . S
C770 C782 1.349 . S
C771 C769 1.327 . S
C771 C787 1.429 . S
C771 H793 0.950 . S
C772 H768 0.949 . S
C772 C780 1.574 . S
C772 C788 1.368 . S
H773 C781 0.950 . S
H774 C779 0.950 . S
H775 C780 0.949 . S
H776 C782 0.950 . S
H777 C783 0.950 . S
H778 C784 0.949 . S
C779 H774 0.950 . S
C779 C781 1.327 . S
C779 C785 1.429 . S
C780 C772 1.574 . S
C780 H775 0.949 . S
C780 C786 1.368 . S
C781 C765 1.349 . S
C781 H773 0.950 . S
C781 C779 1.327 . S
C782 C770 1.349 . S
C782 H776 0.950 . S
C782 C783 1.327 . S
C783 H777 0.950 . S
C783 C782 1.327 . S
C783 C787 1.429 . S
C784 C767 1.574 . S
C784 H778 0.949 . S
C784 C788 1.368 . S
C785 C766 1.429 . S
C785 C779 1.429 . S
C785 C786 1.523 . S
C786 C767 1.368 . S
C786 C780 1.368 . S
C786 C785 1.523 . S
C787 C771 1.429 . S
C787 C783 1.429 . S
C787 C788 1.523 . S
C788 C772 1.368 . S
C788 C784 1.368 . S
C788 C787 1.523 . S
H789 C764 0.950 . S
H790 C766 0.950 . S
H791 C767 0.949 . S
H792 C769 0.950 . S
H793 C771 0.950 . S
C794 C795 1.349 . S
C794 C796 1.327 . S
C794 H819 0.950 . S
C795 C794 1.349 . S
C795 C811 1.349 . S
C796 C794 1.327 . S
C796 C815 1.429 . S
C796 H820 0.950 . S
C797 C814 1.574 . S
C797 C816 1.368 . S
C797 H821 0.949 . S
H798 C802 0.949 . S
C799 C800 1.349 . S
C799 C801 1.327 . S
C799 H822 0.950 . S
C800 C799 1.349 . S
C800 C812 1.349 . S
C801 C799 1.327 . S
C801 C817 1.429 . S
C801 H823 0.950 . S
C802 H798 0.949 . S
C802 C810 1.574 . S
C802 C818 1.368 . S
H803 C811 0.950 . S
H804 C809 0.950 . S
H805 C810 0.949 . S
H806 C812 0.950 . S
H807 C813 0.950 . S
H808 C814 0.949 . S
C809 H804 0.950 . S
C809 C811 1.327 . S
C809 C815 1.429 . S
C810 C802 1.574 . S
C810 H805 0.949 . S
C810 C816 1.368 . S
C811 C795 1.349 . S
C811 H803 0.950 . S
C811 C809 1.327 . S
C812 C800 1.349 . S
C812 H806 0.950 . S
C812 C813 1.327 . S
C813 H807 0.950 . S
C813 C812 1.327 . S
C813 C817 1.429 . S
C814 C797 1.574 . S
C814 H808 0.949 . S
C814 C818 1.368 . S
C815 C796 1.429 . S
C815 C809 1.429 . S
C815 C816 1.523 . S
C816 C797 1.368 . S
C816 C810 1.368 . S
C816 C815 1.523 . S
C817 C801 1.429 . S
C817 C813 1.429 . S
C817 C818 1.523 . S
C818 C802 1.368 . S
C818 C814 1.368 . S
C818 C817 1.523 . S
H819 C794 0.950 . S
H820 C796 0.950 . S
H821 C797 0.949 . S
H822 C799 0.950 . S
H823 C801 0.950 . S
C824 C825 1.349 . S
C824 C826 1.327 . S
C824 H849 0.950 . S
C825 C824 1.349 . S
C825 C841 1.349 . S
C826 C824 1.327 . S
C826 C845 1.429 . S
C826 H850 0.950 . S
C827 C844 1.574 . S
C827 C846 1.368 . S
C827 H851 0.949 . S
H828 C832 0.949 . S
C829 C830 1.349 . S
C829 C831 1.327 . S
C829 H852 0.950 1_655 S
C830 C829 1.349 . S
C830 C842 1.349 . S
C831 C829 1.327 . S
C831 C847 1.429 . S
C831 H853 0.950 . S
C832 H828 0.949 . S
C832 C840 1.574 . S
C832 C848 1.368 . S
H833 C841 0.950 . S
H834 C839 0.950 . S
H835 C840 0.949 . S
H836 C842 0.950 1_554 S
H837 C843 0.950 . S
H838 C844 0.949 . S
C839 H834 0.950 . S
C839 C841 1.327 . S
C839 C845 1.429 . S
C840 C832 1.574 . S
C840 H835 0.949 . S
C840 C846 1.368 . S
C841 C825 1.349 . S
C841 H833 0.950 . S
C841 C839 1.327 . S
C842 C830 1.349 . S
C842 H836 0.950 1_556 S
C842 C843 1.327 . S
C843 H837 0.950 . S
C843 C842 1.327 . S
C843 C847 1.429 . S
C844 C827 1.574 . S
C844 H838 0.949 . S
C844 C848 1.368 . S
C845 C826 1.429 . S
C845 C839 1.429 . S
C845 C846 1.523 . S
C846 C827 1.368 . S
C846 C840 1.368 . S
C846 C845 1.523 . S
C847 C831 1.429 . S
C847 C843 1.429 . S
C847 C848 1.523 . S
C848 C832 1.368 . S
C848 C844 1.368 . S
C848 C847 1.523 . S
H849 C824 0.950 . S
H850 C826 0.950 . S
H851 C827 0.949 . S
H852 C829 0.950 1_455 S
H853 C831 0.950 . S
C854 C855 1.349 . S
C854 C856 1.327 . S
C854 H879 0.950 . S
C855 C854 1.349 . S
C855 C871 1.349 . S
C856 C854 1.327 . S
C856 C875 1.429 . S
C856 H880 0.950 . S
C857 C874 1.574 . S
C857 C876 1.368 . S
C857 H881 0.949 . S
H858 C862 0.949 . S
C859 C860 1.349 . S
C859 C861 1.327 . S
C859 H882 0.950 . S
C860 C859 1.349 . S
C860 C872 1.349 . S
C861 C859 1.327 . S
C861 C877 1.429 . S
C861 H883 0.950 . S
C862 H858 0.949 . S
C862 C870 1.574 . S
C862 C878 1.368 . S
H863 C871 0.950 . S
H864 C869 0.950 . S
H865 C870 0.949 . S
H866 C872 0.950 . S
H867 C873 0.950 . S
H868 C874 0.949 . S
C869 H864 0.950 . S
C869 C871 1.327 . S
C869 C875 1.429 . S
C870 C862 1.574 . S
C870 H865 0.949 . S
C870 C876 1.368 . S
C871 C855 1.349 . S
C871 H863 0.950 . S
C871 C869 1.327 . S
C872 C860 1.349 . S
C872 H866 0.950 . S
C872 C873 1.327 . S
C873 H867 0.950 . S
C873 C872 1.327 . S
C873 C877 1.429 . S
C874 C857 1.574 . S
C874 H868 0.949 . S
C874 C878 1.368 . S
C875 C856 1.429 . S
C875 C869 1.429 . S
C875 C876 1.523 . S
C876 C857 1.368 . S
C876 C870 1.368 . S
C876 C875 1.523 . S
C877 C861 1.429 . S
C877 C873 1.429 . S
C877 C878 1.523 . S
C878 C862 1.368 . S
C878 C874 1.368 . S
C878 C877 1.523 . S
H879 C854 0.950 . S
H880 C856 0.950 . S
H881 C857 0.949 . S
H882 C859 0.950 . S
H883 C861 0.950 . S
C884 C885 1.349 . S
C884 C886 1.327 . S
C884 H909 0.950 . S
C885 C884 1.349 . S
C885 C901 1.349 . S
C886 C884 1.327 . S
C886 C905 1.429 . S
C886 H910 0.950 . S
C887 C904 1.574 . S
C887 C906 1.368 . S
C887 H911 0.949 . S
H888 C892 0.949 . S
C889 C890 1.349 . S
C889 C891 1.327 . S
C889 H912 0.950 . S
C890 C889 1.349 . S
C890 C902 1.349 . S
C891 C889 1.327 . S
C891 C907 1.429 . S
C891 H913 0.950 . S
C892 H888 0.949 . S
C892 C900 1.574 . S
C892 C908 1.368 . S
H893 C901 0.950 . S
H894 C899 0.950 . S
H895 C900 0.949 . S
H896 C902 0.950 . S
H897 C903 0.950 . S
H898 C904 0.949 . S
C899 H894 0.950 . S
C899 C901 1.327 . S
C899 C905 1.429 . S
C900 C892 1.574 . S
C900 H895 0.949 . S
C900 C906 1.368 . S
C901 C885 1.349 . S
C901 H893 0.950 . S
C901 C899 1.327 . S
C902 C890 1.349 . S
C902 H896 0.950 . S
C902 C903 1.327 . S
C903 H897 0.950 . S
C903 C902 1.327 . S
C903 C907 1.429 . S
C904 C887 1.574 . S
C904 H898 0.949 . S
C904 C908 1.368 . S
C905 C886 1.429 . S
C905 C899 1.429 . S
C905 C906 1.523 . S
C906 C887 1.368 . S
C906 C900 1.368 . S
C906 C905 1.523 . S
C907 C891 1.429 . S
C907 C903 1.429 . S
C907 C908 1.523 . S
C908 C892 1.368 . S
C908 C904 1.368 . S
C908 C907 1.523 . S
H909 C884 0.950 . S
H910 C886 0.950 . S
H911 C887 0.949 . S
H912 C889 0.950 . S
H913 C891 0.950 . S
C914 C915 1.349 . S
C914 C916 1.327 . S
C914 H939 0.950 . S
C915 C914 1.349 . S
C915 C931 1.349 . S
C916 C914 1.327 . S
C916 C935 1.429 . S
C916 H940 0.950 . S
C917 C934 1.574 . S
C917 C936 1.368 . S
C917 H941 0.949 . S
H918 C922 0.949 . S
C919 C920 1.349 . S
C919 C921 1.327 . S
C919 H942 0.950 . S
C920 C919 1.349 . S
C920 C932 1.349 . S
C921 C919 1.327 . S
C921 C937 1.429 . S
C921 H943 0.950 . S
C922 H918 0.949 . S
C922 C930 1.574 . S
C922 C938 1.368 . S
H923 C931 0.950 . S
H924 C929 0.950 . S
H925 C930 0.949 . S
H926 C932 0.950 . S
H927 C933 0.950 . S
H928 C934 0.949 . S
C929 H924 0.950 . S
C929 C931 1.327 . S
C929 C935 1.429 . S
C930 C922 1.574 . S
C930 H925 0.949 . S
C930 C936 1.368 . S
C931 C915 1.349 . S
C931 H923 0.950 . S
C931 C929 1.327 . S
C932 C920 1.349 . S
C932 H926 0.950 . S
C932 C933 1.327 . S
C933 H927 0.950 . S
C933 C932 1.327 . S
C933 C937 1.429 . S
C934 C917 1.574 . S
C934 H928 0.949 . S
C934 C938 1.368 . S
C935 C916 1.429 . S
C935 C929 1.429 . S
C935 C936 1.523 . S
C936 C917 1.368 . S
C936 C930 1.368 . S
C936 C935 1.523 . S
C937 C921 1.429 . S
C937 C933 1.429 . S
C937 C938 1.523 . S
C938 C922 1.368 . S
C938 C934 1.368 . S
C938 C937 1.523 . S
H939 C914 0.950 . S
H940 C916 0.950 . S
H941 C917 0.949 . S
H942 C919 0.950 . S
H943 C921 0.950 . S
C225 C4 2.541 . S
C230 C88 2.546 . S
C255 C16 2.651 . S
C260 C130 2.660 . S
C290 C160 0.513 . S
C285 C32 0.518 . S
C315 C43 0.836 . S
C320 C194 0.841 . S
C350 C151 2.367 . S
C345 C5 2.356 . S
C380 C105 1.642 . S
C375 C21 1.630 . S
C410 C198 1.089 . S
C405 C27 1.080 . S
C440 C164 1.154 . S
C435 C37 1.146 . S
C465 C10 2.224 . S
C470 C219 2.241 . S
C500 C126 1.167 . S
C495 C26 1.156 . S
C525 C38 0.852 . S
C530 C101 0.854 . S
C555 C15 2.363 . S
C560 C185 2.370 . S
C590 C117 2.692 . S
C585 C48 2.685 . S
C615 C59 2.396 . S
C620 C139 2.413 . S
C645 C76 0.795 . S
C650 C169 0.796 . S
C675 C87 0.649 . S
C680 C203 0.644 . S
C705 C54 1.689 . S
C710 C122 1.705 . S
C740 C96 2.313 . S
C735 C60 2.299 . S
C770 C207 1.074 . S
C765 C71 1.061 . S
C800 C173 1.123 . S
C795 C82 1.115 . S
C825 C49 2.526 . S
C830 C190 2.537 . S
C860 C135 0.793 . S
C855 C70 0.793 . S
C890 C92 1.132 . S
C885 C81 1.125 . S
C915 C65 2.160 . S
C920 C156 2.170 . S
