# Generated by pormake.
# Topology anh, (6,3)-cn, num edge types: 1
# Building blocks:
#     Node 0, Type 0, BuildingBlock: HISSIN_clean_sbu_0, # of connection points: 6
#     Node 1, Type 0, BuildingBlock: HISSIN_clean_sbu_0, # of connection points: 6
#     Node 2, Type 0, BuildingBlock: HISSIN_clean_sbu_0, # of connection points: 6
#     Node 3, Type 1, BuildingBlock: BELTOD_clean_linker_0, # of connection points: 3
#     Node 4, Type 1, BuildingBlock: BELTOD_clean_linker_0, # of connection points: 3
#     Node 5, Type 1, BuildingBlock: BELTOD_clean_linker_0, # of connection points: 3
#     Node 6, Type 1, BuildingBlock: BELTOD_clean_linker_0, # of connection points: 3
#     Node 7, Type 1, BuildingBlock: BELTOD_clean_linker_0, # of connection points: 3
#     Node 8, Type 1, BuildingBlock: BELTOD_clean_linker_0, # of connection points: 3
#     Edge 9, Type (0, 1), BuildingBlock: KIFKEQ_clean_linker_1, # of connection points: 2
#     Edge 10, Type (0, 1), BuildingBlock: KIFKEQ_clean_linker_1, # of connection points: 2
#     Edge 11, Type (0, 1), BuildingBlock: KIFKEQ_clean_linker_1, # of connection points: 2
#     Edge 12, Type (0, 1), BuildingBlock: KIFKEQ_clean_linker_1, # of connection points: 2
#     Edge 13, Type (0, 1), BuildingBlock: KIFKEQ_clean_linker_1, # of connection points: 2
#     Edge 14, Type (0, 1), BuildingBlock: KIFKEQ_clean_linker_1, # of connection points: 2
#     Edge 15, Type (0, 1), BuildingBlock: KIFKEQ_clean_linker_1, # of connection points: 2
#     Edge 16, Type (0, 1), BuildingBlock: KIFKEQ_clean_linker_1, # of connection points: 2
#     Edge 17, Type (0, 1), BuildingBlock: KIFKEQ_clean_linker_1, # of connection points: 2
#     Edge 18, Type (0, 1), BuildingBlock: KIFKEQ_clean_linker_1, # of connection points: 2
#     Edge 19, Type (0, 1), BuildingBlock: KIFKEQ_clean_linker_1, # of connection points: 2
#     Edge 20, Type (0, 1), BuildingBlock: KIFKEQ_clean_linker_1, # of connection points: 2
#     Edge 21, Type (0, 1), BuildingBlock: KIFKEQ_clean_linker_1, # of connection points: 2
#     Edge 22, Type (0, 1), BuildingBlock: KIFKEQ_clean_linker_1, # of connection points: 2
#     Edge 23, Type (0, 1), BuildingBlock: KIFKEQ_clean_linker_1, # of connection points: 2
#     Edge 24, Type (0, 1), BuildingBlock: KIFKEQ_clean_linker_1, # of connection points: 2
#     Edge 25, Type (0, 1), BuildingBlock: KIFKEQ_clean_linker_1, # of connection points: 2
#     Edge 26, Type (0, 1), BuildingBlock: KIFKEQ_clean_linker_1, # of connection points: 2
# Relax obj value: 0.240
# Max RMSD: 0.183
# Mean RMSD: 0.147
data_MOF--net-anh--node1-HISSIN_clean_sbu_0--node2-BELTOD_clean_linker_0--edge1-KIFKEQ_clean_linker_1
_symmetry_space_group_name_H-M    P1
_symmetry_Int_Tables_number       1
_symmetry_cell_setting            triclinic
loop_
_symmetry_equiv_pos_as_xyz
'x, y, z'
_cell_length_a     34.712502
_cell_length_b     34.66159
_cell_length_c     61.76483
_cell_angle_alpha  92.161942
_cell_angle_beta   89.608627
_cell_angle_gamma 120.07458
loop_
_atom_site_label
_atom_site_type_symbol
_atom_site_fract_x
_atom_site_fract_y
_atom_site_fract_z
_atom_type_partial_charge
Eu0 Eu 1.0525 0.58728 0.15505 0.0
Eu1 Eu 0.10529 0.68909 0.17484 0.0
C2 C 1.05871 0.60829 0.20676 0.0
C3 C 0.97239 0.46184 0.14609 0.0
C4 C 0.96591 0.45189 0.16806 0.0
C5 C 0.91551 0.38598 0.13632 0.0
C6 C 0.93535 0.40878 0.1741 0.0
C7 C 0.94635 0.42905 0.1303 0.0
C8 C 0.91056 0.37505 0.15826 0.0
C9 C 1.00794 0.50528 0.13936 0.0
O10 O 0.15644 0.6656 0.17561 0.0
O11 O 0.12489 0.60781 0.15033 0.0
C12 C 0.15928 0.63636 0.16234 0.0
O13 O 1.07172 0.63024 0.12574 0.0
O14 O 0.1451 0.73669 0.20085 0.0
O15 O 0.12755 0.75995 0.17253 0.0
O16 O 0.12992 0.6938 0.14094 0.0
C17 C 0.10774 0.66936 0.12388 0.0
O18 O 0.99852 0.6026 0.16536 0.0
O19 O 1.03809 0.67844 0.16328 0.0
O20 O 1.06503 0.6478 0.20245 0.0
O21 O 0.99678 0.53524 0.13581 0.0
O22 O 1.04563 0.52177 0.14995 0.0
O23 O 1.05974 0.58176 0.19123 0.0
C24 C 0.20219 0.79964 0.18508 0.0
C25 C 0.21871 0.79767 0.16447 0.0
C26 C 0.2775 0.83528 0.19976 0.0
C27 C 0.26376 0.81228 0.16175 0.0
C28 C 0.23219 0.82037 0.20251 0.0
C29 C 0.29316 0.82925 0.17958 0.0
C30 C 0.15439 0.77095 0.18926 0.0
C31 C 0.9996 0.64084 0.16357 0.0
H32 H 0.98562 0.477 0.18049 0.0
H33 H 0.89634 0.36099 0.12377 0.0
H34 H 0.93277 0.40146 0.19112 0.0
H35 H 0.95076 0.43643 0.11327 0.0
H36 H 0.19641 0.78164 0.15074 0.0
H37 H 0.29951 0.84808 0.21381 0.0
H38 H 0.27513 0.80774 0.14598 0.0
H39 H 0.22013 0.82173 0.21859 0.0
Eu40 Eu 0.57702 1.00855 0.5033 0.0
Eu41 Eu 0.52327 1.06041 0.49633 0.0
C42 C 0.54841 1.04623 0.54342 0.0
C43 C 0.6222 0.92714 0.50403 0.0
C44 C 0.58436 0.88514 0.50674 0.0
C45 C 0.66448 0.89134 0.49359 0.0
C46 C 0.58707 0.84642 0.50354 0.0
C47 C 0.6618 0.92986 0.49688 0.0
C48 C 0.62754 0.84929 0.49748 0.0
C49 C 0.62248 0.96878 0.50957 0.0
O50 O 0.59574 0.11602 0.50057 0.0
O51 O 0.62931 0.0759 0.49085 0.0
C52 C 0.63138 0.11462 0.49427 0.0
O53 O 0.54754 0.98805 0.47014 0.0
O54 O 0.50244 0.1065 0.50905 0.0
O55 O 0.48434 0.07932 0.47616 0.0
O56 O 0.5508 1.05367 0.46375 0.0
C57 C 0.54961 1.01692 0.45656 0.0
O58 O 0.504 0.95252 0.50446 0.0
O59 O 0.46789 0.98819 0.49219 0.0
O60 O 0.51454 1.04026 0.53151 0.0
O61 O 0.6298 0.99526 0.49368 0.0
O62 O 0.59241 0.96709 0.52299 0.0
O63 O 0.583 1.04806 0.53396 0.0
C64 C 0.50998 0.15626 0.48273 0.0
C65 C 0.54125 0.16935 0.46601 0.0
C66 C 0.53755 0.23417 0.49276 0.0
C67 C 0.5716 0.21444 0.4633 0.0
C68 C 0.50688 0.18905 0.49532 0.0
C69 C 0.57177 0.24721 0.47749 0.0
C70 C 0.48821 0.11026 0.49019 0.0
C71 C 0.4674 0.95146 0.49756 0.0
H72 H 0.55322 0.88229 0.512 0.0
H73 H 0.69634 0.89481 0.48928 0.0
H74 H 0.55802 0.81441 0.50651 0.0
H75 H 0.69129 0.96202 0.49465 0.0
H76 H 0.54458 0.14476 0.45608 0.0
H77 H 0.53676 0.25834 0.50411 0.0
H78 H 0.59694 0.2234 0.45109 0.0
H79 H 0.48326 0.17968 0.5084 0.0
Eu80 Eu 0.51115 0.50963 0.83368 0.0
Eu81 Eu 0.61605 0.56226 0.84624 0.0
C82 C 0.54347 0.53241 0.88287 0.0
C83 C 0.4103 0.50337 0.81117 0.0
C84 C 0.37483 0.50493 0.82129 0.0
C85 C 0.42443 0.56726 0.79034 0.0
C86 C 0.36588 0.53893 0.81689 0.0
C87 C 0.43365 0.53353 0.79489 0.0
C88 C 0.39217 0.57189 0.80218 0.0
C89 C 0.42913 0.47827 0.82107 0.0
O90 O 0.59759 0.48873 0.84674 0.0
O91 O 0.52527 0.45245 0.83352 0.0
C92 C 0.5612 0.45187 0.83985 0.0
O93 O 0.55153 0.5359 0.80296 0.0
O94 O 0.66826 0.57709 0.87008 0.0
O95 O 0.68417 0.6139 0.84039 0.0
O96 O 0.61182 0.53164 0.81353 0.0
C97 C 0.58674 0.53251 0.79817 0.0
O98 O 0.52889 0.58175 0.8399 0.0
O99 O 0.60276 0.61488 0.83227 0.0
O100 O 0.57886 0.56627 0.87513 0.0
O101 O 0.45792 0.47279 0.80963 0.0
O102 O 0.44253 0.49069 0.84112 0.0
O103 O 0.51452 0.50037 0.86974 0.0
C104 C 0.74241 0.60829 0.85747 0.0
C105 C 0.76359 0.60974 0.83779 0.0
C106 C 0.80857 0.62175 0.87706 0.0
C107 C 0.80753 0.61842 0.8378 0.0
C108 C 0.76485 0.61319 0.87704 0.0
C109 C 0.83086 0.62573 0.85746 0.0
C110 C 0.69947 0.60709 0.85825 0.0
C111 C 0.56626 0.61731 0.83474 0.0
H112 H 0.35665 0.4823 0.83401 0.0
H113 H 0.44465 0.59148 0.77859 0.0
H114 H 0.34098 0.5415 0.82648 0.0
H115 H 0.46136 0.53334 0.78682 0.0
H116 H 0.74693 0.60591 0.82243 0.0
H117 H 0.82569 0.62786 0.8925 0.0
H118 H 0.8237 0.62082 0.82244 0.0
H119 H 0.74925 0.61253 0.8924 0.0
P120 P 0.70849 0.93502 0.25004 0.0
H121 H 0.69267 0.90196 0.20496 0.0
H122 H 0.62375 0.86563 0.1832 0.0
H123 H 0.54723 0.83942 0.24169 0.0
H124 H 0.61542 0.87675 0.26317 0.0
H125 H 0.80078 1.00765 0.24714 0.0
H126 H 0.83416 0.07928 0.22929 0.0
H127 H 0.70584 1.04265 0.20159 0.0
H128 H 0.67274 0.9723 0.21965 0.0
H129 H 0.68596 0.89301 0.29195 0.0
H130 H 0.69646 1.01047 0.26431 0.0
O131 O 0.7431 0.91556 0.25387 0.0
H132 H 0.65654 0.90884 0.32529 0.0
H133 H 0.66828 1.02658 0.29746 0.0
C134 C 0.65928 0.89349 0.23561 0.0
C135 C 0.661 0.88708 0.21313 0.0
C136 C 0.62174 0.86638 0.20071 0.0
C137 C 0.58042 0.85035 0.21081 0.0
C138 C 0.57873 0.85149 0.23353 0.0
C139 C 0.61793 0.87318 0.24585 0.0
C140 C 0.73469 0.98392 0.2341 0.0
C141 C 0.78017 1.01468 0.2368 0.0
C142 C 0.79905 1.05562 0.22676 0.0
C143 C 0.77256 0.06618 0.21392 0.0
C144 C 0.7272 1.03494 0.21098 0.0
C145 C 0.70834 0.99445 0.22119 0.0
C146 C 0.69387 0.95062 0.27566 0.0
C147 C 0.68287 0.92259 0.29319 0.0
C148 C 0.6658 0.93146 0.3121 0.0
C149 C 0.66017 0.9689 0.31384 0.0
C150 C 0.67266 0.99772 0.29657 0.0
C151 C 0.68887 0.9884 0.27756 0.0
P152 P 0.83364 0.63525 0.59492 0.0
H153 H 0.87762 0.62741 0.5565 0.0
H154 H 0.85441 0.56466 0.53031 0.0
H155 H 0.76092 0.47607 0.57641 0.0
H156 H 0.78276 0.53867 0.60212 0.0
H157 H 0.85302 0.72436 0.58281 0.0
H158 H 0.81422 0.74872 0.55876 0.0
H159 H 0.72006 0.611 0.54091 0.0
H160 H 0.75759 0.5871 0.56552 0.0
H161 H 0.83908 0.59574 0.63497 0.0
H162 H 0.75818 0.64604 0.60922 0.0
O163 O 0.88627 0.67457 0.60024 0.0
H164 H 0.79414 0.57484 0.66778 0.0
H165 H 0.71436 0.62651 0.64187 0.0
C166 C 0.83215 0.58778 0.58132 0.0
C167 C 0.85366 0.59413 0.56136 0.0
C168 C 0.84018 0.55843 0.54634 0.0
C169 C 0.80578 0.51581 0.55137 0.0
C170 C 0.78784 0.50863 0.57226 0.0
C171 C 0.80056 0.5445 0.58707 0.0
C172 C 0.80873 0.65406 0.57562 0.0
C173 C 0.82441 0.69957 0.57347 0.0
C174 C 0.80232 0.71336 0.55963 0.0
C175 C 0.76413 0.68172 0.54785 0.0
C176 C 0.7491 0.63617 0.54987 0.0
C177 C 0.77091 0.6225 0.56379 0.0
C178 C 0.80177 0.62185 0.61947 0.0
C179 C 0.81187 0.60248 0.63641 0.0
C180 C 0.78625 0.59075 0.65517 0.0
C181 C 0.75036 0.5987 0.65739 0.0
C182 C 0.74105 0.61898 0.64052 0.0
C183 C 0.76648 0.63045 0.62179 0.0
P184 P 0.29975 0.86383 0.9165 0.0
H185 H 0.33284 0.89069 0.87325 0.0
H186 H 0.36599 0.86206 0.84667 0.0
H187 H 0.37679 0.78213 0.89566 0.0
H188 H 0.34381 0.81079 0.92205 0.0
H189 H 0.22752 0.88308 0.92166 0.0
H190 H 0.15068 0.84454 0.90777 0.0
H191 H 0.17794 0.75505 0.86883 0.0
H192 H 0.25399 0.79299 0.88283 0.0
H193 H 0.31822 0.89739 0.96183 0.0
H194 H 0.251 0.76993 0.92706 0.0
O195 O 0.32257 0.91888 0.9206 0.0
H196 H 0.28938 0.86036 0.99595 0.0
H197 H 0.22212 0.73263 0.96113 0.0
C198 C 0.33545 0.85247 0.89951 0.0
C199 C 0.34361 0.86801 0.87839 0.0
C200 C 0.36226 0.85147 0.86321 0.0
C201 C 0.37358 0.81961 0.86905 0.0
C202 C 0.36867 0.80691 0.89072 0.0
C203 C 0.34955 0.8231 0.90583 0.0
C204 C 0.24685 0.84178 0.90287 0.0
C205 C 0.21724 0.85595 0.90969 0.0
C206 C 0.17334 0.83371 0.9019 0.0
C207 C 0.15851 0.79692 0.88718 0.0
C208 C 0.1887 0.78376 0.87985 0.0
C209 C 0.23235 0.80567 0.88782 0.0
C210 C 0.28674 0.83642 0.94193 0.0
C211 C 0.29805 0.86137 0.96157 0.0
C212 C 0.28154 0.84012 0.98109 0.0
C213 C 0.25312 0.79357 0.98121 0.0
C214 C 0.2434 0.76857 0.96153 0.0
C215 C 0.26016 0.78982 0.94208 0.0
P216 P 1.06201 0.51355 0.43875 0.0
H217 H 0.15413 0.5437 0.45235 0.0
H218 H 0.21664 0.6148 0.46454 0.0
H219 H 0.13196 0.67284 0.4661 0.0
H220 H 1.06825 0.60022 0.45416 0.0
H221 H 1.03353 0.46664 0.47975 0.0
H222 H 0.96237 0.40459 0.4913 0.0
H223 H 0.89805 0.41728 0.43464 0.0
H224 H 0.96887 0.47947 0.4235 0.0
H225 H 1.05275 0.58342 0.41674 0.0
H226 H 1.05652 0.46423 0.39815 0.0
O227 O 1.08307 0.47951 0.43792 0.0
H228 H 1.04772 0.59701 0.37862 0.0
H229 H 1.05216 0.47788 0.3601 0.0
C230 C 0.10557 0.56562 0.45224 0.0
C231 C 0.14814 0.57108 0.4557 0.0
C232 C 0.18446 0.61233 0.46274 0.0
C233 C 0.18004 0.65028 0.46633 0.0
C234 C 0.13714 0.64476 0.46331 0.0
C235 C 0.10039 0.60295 0.45655 0.0
C236 C 1.00719 0.47887 0.45087 0.0
C237 C 1.00386 0.45717 0.47018 0.0
C238 C 0.96296 0.42083 0.47657 0.0
C239 C 0.92379 0.40481 0.46385 0.0
C240 C 0.92686 0.42828 0.44511 0.0
C241 C 0.96781 0.46444 0.43869 0.0
C242 C 1.05629 0.52344 0.41051 0.0
C243 C 1.05296 0.56036 0.40456 0.0
C244 C 1.05011 0.56812 0.38262 0.0
C245 C 1.04997 0.53882 0.3661 0.0
C246 C 1.05189 0.50111 0.37224 0.0
C247 C 1.05483 0.49348 0.39412 0.0
P248 P 0.58311 1.0422 0.78199 0.0
H249 H 0.6036 0.09221 0.82432 0.0
H250 H 0.59593 0.1556 0.83737 0.0
H251 H 0.52054 0.14246 0.77944 0.0
H252 H 0.52634 0.07872 0.76732 0.0
H253 H 0.55156 0.95481 0.75882 0.0
H254 H 0.54442 0.88504 0.76923 0.0
H255 H 0.57278 0.93416 0.83579 0.0
H256 H 0.57878 1.00466 0.82518 0.0
H257 H 0.64483 0.0839 0.74612 0.0
H258 H 0.50343 0.99758 0.75332 0.0
O259 O 0.63806 0.06884 0.78632 0.0
H260 H 0.63463 0.08281 0.70708 0.0
H261 H 0.49292 0.99672 0.71393 0.0
C262 C 0.56541 0.0796 0.79477 0.0
C263 C 0.58408 0.10199 0.81477 0.0
C264 C 0.58038 0.13917 0.82204 0.0
C265 C 0.55809 0.15552 0.80947 0.0
C266 C 0.53759 0.13143 0.78998 0.0
C267 C 0.54102 0.09424 0.78286 0.0
C268 C 0.56449 0.9856 0.79119 0.0
C269 C 0.55471 0.95067 0.77583 0.0
C270 C 0.5515 0.91043 0.78181 0.0
C271 C 0.55872 0.90348 0.80339 0.0
C272 C 0.56668 0.93768 0.81901 0.0
C273 C 0.56984 0.97821 0.81296 0.0
C274 C 0.57494 1.04054 0.75279 0.0
C275 C 0.6115 1.06448 0.73936 0.0
C276 C 0.60565 1.06379 0.71692 0.0
C277 C 0.56297 1.03953 0.70731 0.0
C278 C 0.52621 1.01595 0.7208 0.0
C279 C 0.53219 1.01623 0.7433 0.0
P280 P 0.55284 0.58265 0.12179 0.0
H281 H 0.60107 0.602 0.16358 0.0
H282 H 0.67681 0.61908 0.17281 0.0
H283 H 0.71063 0.63512 0.10511 0.0
H284 H 0.6359 0.61854 0.09614 0.0
H285 H 0.53831 0.65925 0.11303 0.0
H286 H 0.47708 0.67243 0.12195 0.0
H287 H 0.42483 0.56313 0.16532 0.0
H288 H 0.48495 0.54919 0.15577 0.0
H289 H 0.51275 0.50382 0.09183 0.0
H290 H 0.57712 0.64654 0.0868 0.0
O291 O 0.53266 0.53123 0.13072 0.0
H292 H 0.50579 0.49431 0.05266 0.0
H293 H 0.56704 0.63722 0.04762 0.0
C294 C 0.61218 0.60989 0.12917 0.0
C295 C 0.62522 0.61077 0.15079 0.0
C296 C 0.6686 0.61981 0.15601 0.0
C297 C 0.70043 0.62829 0.13975 0.0
C298 C 0.68778 0.62944 0.11824 0.0
C299 C 0.64445 0.62008 0.11305 0.0
C300 C 0.51643 0.60244 0.13322 0.0
C301 C 0.51409 0.63824 0.12458 0.0
C302 C 0.47877 0.64595 0.12985 0.0
C303 C 0.44476 0.6182 0.14402 0.0
C304 C 0.44919 0.58449 0.15382 0.0
C305 C 0.48429 0.57678 0.14851 0.0
C306 C 0.54506 0.57599 0.09252 0.0
C307 C 0.52467 0.53324 0.08239 0.0
C308 C 0.52025 0.52775 0.05979 0.0
C309 C 0.53566 0.56489 0.04666 0.0
C310 C 0.55524 0.60768 0.05697 0.0
C311 C 0.56026 0.61313 0.07957 0.0
H312 H 0.17355 0.57505 0.13981 0.0
H313 H 0.24293 0.69543 0.18009 0.0
H314 H 0.24188 0.57242 0.13588 0.0
H315 H 0.31185 0.69242 0.17636 0.0
H316 H 0.43745 0.69468 0.14673 0.0
H317 H 0.37022 0.70011 0.1513 0.0
H318 H 0.29165 0.55711 0.15505 0.0
H319 H 0.35798 0.55138 0.14957 0.0
C320 C 0.20334 0.601 0.14797 0.0
C321 C 0.20213 0.63534 0.1604 0.0
C322 C 0.24281 0.59931 0.1458 0.0
C323 C 0.28291 0.63196 0.1559 0.0
C324 C 0.28196 0.66671 0.16818 0.0
C325 C 0.24219 0.66828 0.17047 0.0
C326 C 0.40585 0.66429 0.1484 0.0
C327 C 0.40382 0.62253 0.14777 0.0
C328 C 0.36715 0.66752 0.15132 0.0
C329 C 0.32496 0.62916 0.15359 0.0
C330 C 0.3231 0.58755 0.15312 0.0
C331 C 0.36163 0.5843 0.15026 0.0
H332 H 0.65041 0.20193 0.50087 0.0
H333 H 0.71124 0.12525 0.47935 0.0
H334 H 0.72042 0.27088 0.49493 0.0
H335 H 0.7806 0.19423 0.47267 0.0
H336 H 0.91263 0.32782 0.48188 0.0
H337 H 0.84379 0.25956 0.48988 0.0
H338 H 0.76748 0.31599 0.46551 0.0
H339 H 0.83624 0.38502 0.45828 0.0
C340 C 0.67849 0.19957 0.49474 0.0
C341 C 0.67458 0.15742 0.49063 0.0
C342 C 0.71873 0.2394 0.49107 0.0
C343 C 0.75654 0.23878 0.48296 0.0
C344 C 0.75269 0.1966 0.47904 0.0
C345 C 0.71254 0.15674 0.48279 0.0
C346 C 0.8813 0.32625 0.47852 0.0
C347 C 0.88079 0.36282 0.46944 0.0
C348 C 0.84149 0.28653 0.48289 0.0
C349 C 0.79942 0.28171 0.4785 0.0
C350 C 0.79886 0.31831 0.46956 0.0
C351 C 0.83866 0.35798 0.4651 0.0
H352 H 0.5026 0.63944 0.84617 0.0
H353 H 0.63048 0.69352 0.81559 0.0
H354 H 0.50193 0.70827 0.8401 0.0
H355 H 0.62952 0.76221 0.80914 0.0
H356 H 0.59239 0.85868 0.77927 0.0
H357 H 0.59431 0.79162 0.78742 0.0
H358 H 0.53284 0.7868 0.84896 0.0
H359 H 0.52923 0.85335 0.84038 0.0
C360 C 0.53072 0.666 0.83815 0.0
C361 C 0.56661 0.66042 0.83138 0.0
C362 C 0.53039 0.70584 0.8347 0.0
C363 C 0.56539 0.74129 0.82383 0.0
C364 C 0.60144 0.73575 0.81721 0.0
C365 C 0.60218 0.69622 0.82105 0.0
C366 C 0.57867 0.84325 0.79448 0.0
C367 C 0.56029 0.86195 0.809 0.0
C368 C 0.58041 0.80478 0.79933 0.0
C369 C 0.56388 0.78317 0.81895 0.0
C370 C 0.54557 0.80184 0.83357 0.0
C371 C 0.54392 0.84055 0.82873 0.0
H372 H 0.98624 0.71168 0.15629 0.0
H373 H 0.91407 0.56993 0.16572 0.0
H374 H 0.91574 0.71064 0.15172 0.0
H375 H 0.8439 0.56873 0.16087 0.0
H376 H 0.72172 0.58421 0.16966 0.0
H377 H 0.7932 0.58916 0.17646 0.0
H378 H 0.8533 0.68714 0.1275 0.0
H379 H 0.78211 0.68328 0.12119 0.0
C380 C 0.95544 0.68026 0.15745 0.0
C381 C 0.95636 0.64094 0.16144 0.0
C382 C 0.91475 0.67957 0.15467 0.0
C383 C 0.87347 0.63957 0.15589 0.0
C384 C 0.87455 0.6004 0.16009 0.0
C385 C 0.91514 0.60105 0.16277 0.0
C386 C 0.75021 0.60741 0.16053 0.0
C387 C 0.74545 0.63328 0.14481 0.0
C388 C 0.79141 0.60982 0.16425 0.0
C389 C 0.82963 0.63836 0.15248 0.0
C390 C 0.82511 0.66494 0.13708 0.0
C391 C 0.78385 0.66236 0.13328 0.0
H392 H 0.38283 0.93626 0.48921 0.0
H393 H 0.45394 0.86578 0.49887 0.0
H394 H 0.31401 0.86563 0.48308 0.0
H395 H 0.38547 0.79494 0.49188 0.0
H396 H 0.24944 0.66901 0.49446 0.0
H397 H 0.31646 0.74004 0.5029 0.0
H398 H 0.27111 0.80511 0.45998 0.0
H399 H 0.20345 0.73403 0.4521 0.0
C400 C 0.38396 0.90568 0.49 0.0
C401 C 0.4245 0.90732 0.49467 0.0
C402 C 0.34416 0.86473 0.48624 0.0
C403 C 0.34318 0.82353 0.48677 0.0
C404 C 0.38385 0.82528 0.4916 0.0
C405 C 0.4236 0.86629 0.49556 0.0
C406 C 0.25363 0.69843 0.48678 0.0
C407 C 0.22046 0.69514 0.4725 0.0
C408 C 0.29259 0.73958 0.49157 0.0
C409 C 0.30038 0.77932 0.48212 0.0
C410 C 0.26681 0.77603 0.46802 0.0
C411 C 0.2276 0.73488 0.4634 0.0
H412 H 0.48919 0.36675 0.83663 0.0
H413 H 0.63266 0.43736 0.83819 0.0
H414 H 0.48798 0.29632 0.83137 0.0
H415 H 0.63186 0.36705 0.83175 0.0
H416 H 0.6212 0.23075 0.83315 0.0
H417 H 0.62141 0.29964 0.84234 0.0
H418 H 0.49607 0.24871 0.80813 0.0
H419 H 0.49407 0.17879 0.80058 0.0
C420 C 0.52066 0.36736 0.83578 0.0
C421 C 0.56102 0.40822 0.8379 0.0
C422 C 0.52004 0.3266 0.8325 0.0
C423 C 0.55981 0.32492 0.83078 0.0
C424 C 0.60027 0.36597 0.83322 0.0
C425 C 0.60084 0.40675 0.83686 0.0
C426 C 0.59307 0.23359 0.82793 0.0
C427 C 0.55765 0.19817 0.81595 0.0
C428 C 0.59358 0.27396 0.83293 0.0
C429 C 0.5589 0.28096 0.82602 0.0
C430 C 0.52335 0.24535 0.8142 0.0
C431 C 0.52258 0.20488 0.80945 0.0
H432 H 0.67264 0.82401 0.46909 0.0
H433 H 0.59794 0.78727 0.52837 0.0
H434 H 0.69954 0.7726 0.47619 0.0
H435 H 0.62466 0.73637 0.53545 0.0
H436 H 0.67369 0.64355 0.54488 0.0
H437 H 0.63139 0.67152 0.52649 0.0
H438 H 0.75391 0.7815 0.50368 0.0
H439 H 0.79609 0.75233 0.5212 0.0
C440 C 0.66112 0.80413 0.48333 0.0
C441 C 0.63378 0.81015 0.49835 0.0
C442 C 0.67657 0.77484 0.48741 0.0
C443 C 0.66487 0.75107 0.50656 0.0
C444 C 0.63408 0.75391 0.52046 0.0
C445 C 0.61866 0.78314 0.51639 0.0
C446 C 0.69155 0.67297 0.53541 0.0
C447 C 0.73833 0.69604 0.53468 0.0
C448 C 0.66728 0.68915 0.52501 0.0
C449 C 0.68927 0.72885 0.51377 0.0
C450 C 0.73587 0.75053 0.51202 0.0
C451 C 0.76015 0.73426 0.52236 0.0
H452 H 0.89431 0.68809 0.83183 0.0
H453 H 0.87737 0.60206 0.88429 0.0
H454 H 0.97481 0.72601 0.83714 0.0
H455 H 0.95795 0.64064 0.8898 0.0
H456 H 0.12256 0.76538 0.84663 0.0
H457 H 1.04361 0.7176 0.83688 0.0
H458 H 1.00888 0.71952 0.90404 0.0
H459 H 1.08736 0.76668 0.91375 0.0
C460 C 0.90777 0.67641 0.84408 0.0
C461 C 0.87943 0.64243 0.85783 0.0
C462 C 0.95389 0.69828 0.84717 0.0
C463 C 0.97244 0.68672 0.86411 0.0
C464 C 0.94435 0.65076 0.87689 0.0
C465 C 0.89831 0.62871 0.87373 0.0
C466 C 0.09792 0.75548 0.85925 0.0
C467 C 0.11092 0.76992 0.88091 0.0
C468 C 1.0529 0.72829 0.85368 0.0
C469 C 1.02029 0.71458 0.86974 0.0
C470 C 1.03339 0.72905 0.89138 0.0
C471 C 1.07822 0.75655 0.89689 0.0
H472 H 0.31392 0.76931 0.16175 0.0
H473 H 0.37268 0.89926 0.19431 0.0
H474 H 0.38552 0.77197 0.16336 0.0
H475 H 0.44447 0.90186 0.19575 0.0
H476 H 0.57368 0.90499 0.18294 0.0
H477 H 0.50495 0.90026 0.17005 0.0
H478 H 0.42839 0.77174 0.19841 0.0
H479 H 0.49722 0.77688 0.21169 0.0
C480 C 0.34242 0.79889 0.16877 0.0
C481 C 0.3379 0.83417 0.17792 0.0
C482 C 0.38317 0.80018 0.16978 0.0
C483 C 0.42024 0.83699 0.17964 0.0
C484 C 0.41635 0.87326 0.18785 0.0
C485 C 0.37537 0.8717 0.18716 0.0
C486 C 0.54224 0.87503 0.18573 0.0
C487 C 0.54053 0.84122 0.19826 0.0
C488 C 0.50302 0.87258 0.17854 0.0
C489 C 0.46161 0.8359 0.18345 0.0
C490 C 0.46003 0.80031 0.19438 0.0
C491 C 0.49925 0.80316 0.20194 0.0
H492 H 0.65896 0.2701 0.47384 0.0
H493 H 0.57482 0.32734 0.48584 0.0
H494 H 0.72369 0.34018 0.48601 0.0
H495 H 0.63996 0.39727 0.49834 0.0
H496 H 0.77044 0.52355 0.51395 0.0
H497 H 0.71862 0.4628 0.48923 0.0
H498 H 0.73628 0.36893 0.52585 0.0
H499 H 0.78748 0.42956 0.5507 0.0
C500 C 0.65433 0.29793 0.47841 0.0
C501 C 0.61146 0.29274 0.47928 0.0
C502 C 0.69145 0.33788 0.48551 0.0
C503 C 0.68661 0.37357 0.49342 0.0
C504 C 0.64456 0.37011 0.49232 0.0
C505 C 0.60725 0.32997 0.48534 0.0
C506 C 0.76424 0.49008 0.51625 0.0
C507 C 0.78291 0.48101 0.53412 0.0
C508 C 0.73441 0.45542 0.50225 0.0
C509 C 0.72348 0.41133 0.50569 0.0
C510 C 0.74452 0.40275 0.52272 0.0
C511 C 0.77367 0.43727 0.53695 0.0
H512 H 0.31944 0.58339 0.80502 0.0
H513 H 0.46282 0.6568 0.79986 0.0
H514 H 0.32044 0.65251 0.81514 0.0
H515 H 0.46337 0.72592 0.8091 0.0
H516 H 0.44023 0.79941 0.87016 0.0
H517 H 0.44756 0.74564 0.84643 0.0
H518 H 0.33863 0.73004 0.80652 0.0
H519 H 0.33072 0.78325 0.83051 0.0
C520 C 0.35102 0.61434 0.80547 0.0
C521 C 0.39108 0.61425 0.80218 0.0
C522 C 0.35156 0.65406 0.81103 0.0
C523 C 0.39216 0.69444 0.81334 0.0
C524 C 0.43174 0.69507 0.80785 0.0
C525 C 0.43125 0.6554 0.80233 0.0
C526 C 0.41857 0.78526 0.85603 0.0
C527 C 0.38468 0.79516 0.85229 0.0
C528 C 0.42304 0.75484 0.84231 0.0
C529 C 0.39354 0.73357 0.82466 0.0
C530 C 0.36164 0.7458 0.82007 0.0
C531 C 0.35737 0.77648 0.83371 0.0
H532 H 0.90247 0.30051 0.13728 0.0
H533 H 0.85689 0.3433 0.19362 0.0
H534 H 0.86516 0.22468 0.14986 0.0
H535 H 0.82043 0.26734 0.20643 0.0
H536 H 0.76182 0.0856 0.17276 0.0
H537 H 0.78941 0.15951 0.15821 0.0
H538 H 0.85207 0.22063 0.21998 0.0
H539 H 0.82414 0.14688 0.23456 0.0
C540 C 0.88368 0.29361 0.1521 0.0
C541 C 0.88293 0.32807 0.16453 0.0
C542 C 0.86247 0.25017 0.15933 0.0
C543 C 0.84042 0.24038 0.17922 0.0
C544 C 0.83793 0.27428 0.19121 0.0
C545 C 0.85882 0.31769 0.18389 0.0
C546 C 0.7815 0.11491 0.18318 0.0
C547 C 0.79117 0.11068 0.20472 0.0
C548 C 0.7973 0.15706 0.17486 0.0
C549 C 0.82257 0.19563 0.18804 0.0
C550 C 0.83216 0.19136 0.20957 0.0
C551 C 0.81676 0.14927 0.21781 0.0
H552 H 1.08701 0.62243 0.08469 0.0
H553 H 0.17 0.75392 0.11411 0.0
H554 H 0.12235 0.64972 0.04982 0.0
H555 H 0.20434 0.7812 0.07952 0.0
H556 H 0.29157 0.80767 0.02141 0.0
H557 H 0.25527 0.77536 0.05527 0.0
H558 H 0.12951 0.69839 0.02102 0.0
H559 H 0.16609 0.73024 0.98711 0.0
C560 C 0.11238 0.6572 0.08368 0.0
C561 C 0.1259 0.68588 0.10224 0.0
C562 C 0.13263 0.67287 0.06371 0.0
C563 C 0.16668 0.71756 0.0619 0.0
C564 C 0.17914 0.74634 0.08038 0.0
C565 C 0.15915 0.7307 0.10025 0.0
C566 C 0.2562 0.78378 0.02113 0.0
C567 C 0.23171 0.77165 0.0016 0.0
C568 C 0.23531 0.76534 0.04053 0.0
C569 C 0.1893 0.73458 0.04094 0.0
C570 C 0.16503 0.72159 0.0213 0.0
C571 C 0.18601 0.73987 0.00185 0.0
H572 H 0.53875 0.94055 0.4373 0.0
H573 H 0.57691 0.07649 0.42378 0.0
H574 H 0.56166 0.93031 0.40163 0.0
H575 H 0.5984 0.06554 0.38718 0.0
H576 H 0.58232 0.91016 0.33231 0.0
H577 H 0.54785 0.92264 0.36427 0.0
H578 H 0.65764 1.05824 0.37109 0.0
H579 H 0.6909 1.04597 0.33847 0.0
C580 C 0.55124 0.96811 0.4265 0.0
C581 C 0.5565 1.00956 0.43348 0.0
C582 C 0.56406 0.96205 0.40586 0.0
C583 C 0.58211 0.99712 0.39146 0.0
C584 C 0.58526 1.03803 0.398 0.0
C585 C 0.57254 1.0442 0.41886 0.0
C586 C 0.59895 0.94258 0.34069 0.0
C587 C 0.63949 0.97691 0.33319 0.0
C588 C 0.57927 0.94983 0.35898 0.0
C589 C 0.60014 0.99136 0.37043 0.0
C590 C 0.64028 1.02605 0.36255 0.0
C591 C 0.6596 1.01896 0.34401 0.0
H592 H 0.56724 0.56567 0.76261 0.0
H593 H 0.64191 0.50409 0.78311 0.0
H594 H 0.60409 0.57946 0.72734 0.0
H595 H 0.67798 0.51739 0.74821 0.0
H596 H 0.77891 0.60739 0.69937 0.0
H597 H 0.73437 0.58718 0.73197 0.0
H598 H 0.61525 0.54293 0.69334 0.0
H599 H 0.65982 0.56257 0.66049 0.0
C600 C 0.59074 0.5543 0.75943 0.0
C601 C 0.60223 0.53448 0.7757 0.0
C602 C 0.61185 0.56221 0.7393 0.0
C603 C 0.64461 0.55032 0.73524 0.0
C604 C 0.65377 0.52797 0.75107 0.0
C605 C 0.6329 0.52019 0.77104 0.0
C606 C 0.74319 0.59283 0.69774 0.0
C607 C 0.72298 0.58636 0.67728 0.0
C608 C 0.71765 0.58134 0.71644 0.0
C609 C 0.67125 0.56317 0.71518 0.0
C610 C 0.65096 0.55717 0.6948 0.0
C611 C 0.67654 0.56848 0.67602 0.0
H612 H 0.6199 0.08201 0.57076 0.0
H613 H 0.47641 1.01609 0.57071 0.0
H614 H 0.62116 0.08081 0.60995 0.0
H615 H 0.4774 1.01326 0.61032 0.0
H616 H 0.50099 1.04942 0.68427 0.0
H617 H 0.49551 1.05274 0.64494 0.0
H618 H 0.60622 1.02968 0.6369 0.0
H619 H 0.61226 1.02768 0.67596 0.0
C620 C 0.58846 0.06715 0.57916 0.0
C621 C 0.54802 1.04885 0.56753 0.0
C622 C 0.58915 0.06607 0.60173 0.0
C623 C 0.54936 1.04605 0.61349 0.0
C624 C 0.50878 1.02909 0.60192 0.0
C625 C 0.50814 1.03064 0.57918 0.0
C626 C 0.52393 1.04481 0.67403 0.0
C627 C 0.55741 1.03881 0.6833 0.0
C628 C 0.52077 1.04664 0.65144 0.0
C629 C 0.55083 1.04218 0.63756 0.0
C630 C 0.58328 1.03467 0.64694 0.0
C631 C 0.58667 1.03328 0.66942 0.0
H632 H 0.46656 0.49812 0.90706 0.0
H633 H 0.60972 0.56459 0.91265 0.0
H634 H 0.46189 0.50541 0.94661 0.0
H635 H 0.60533 0.56989 0.95165 0.0
H636 H 0.59485 0.62076 0.01698 0.0
H637 H 0.59253 0.61113 0.97799 0.0
H638 H 0.47079 0.48436 0.98171 0.0
H639 H 0.47105 0.49582 0.02089 0.0
C640 C 0.49688 0.51358 0.91676 0.0
C641 C 0.5385 0.53135 0.90675 0.0
C642 C 0.49432 0.51775 0.93943 0.0
C643 C 0.53333 0.53921 0.95248 0.0
C644 C 0.5746 0.55473 0.94229 0.0
C645 C 0.57713 0.55129 0.91983 0.0
C646 C 0.56691 0.59122 0.00962 0.0
C647 C 0.5332 0.55913 0.02241 0.0
C648 C 0.56603 0.58521 0.98709 0.0
C649 C 0.53191 0.54645 0.97649 0.0
C650 C 0.4976 0.51468 0.98916 0.0
C651 C 0.49815 0.52102 0.01178 0.0
H652 H 1.0534 0.53336 0.22382 0.0
H653 H 1.05106 0.65362 0.24222 0.0
H654 H 1.04991 0.51577 0.26202 0.0
H655 H 1.04659 0.63564 0.28012 0.0
H656 H 1.09277 0.61937 0.34646 0.0
H657 H 1.09249 0.63412 0.30827 0.0
H658 H 1.00432 0.49356 0.29398 0.0
H659 H 1.00469 0.47878 0.33228 0.0
C660 C 1.05163 0.5558 0.23594 0.0
C661 C 1.05278 0.59507 0.22982 0.0
C662 C 1.04947 0.54563 0.2579 0.0
C663 C 1.04838 0.57446 0.27433 0.0
C664 C 1.04834 0.61306 0.26808 0.0
C665 C 1.05055 0.62321 0.24621 0.0
C666 C 1.07284 0.59159 0.33527 0.0
C667 C 1.0487 0.54786 0.34263 0.0
C668 C 1.07268 0.60006 0.31326 0.0
C669 C 1.04828 0.56508 0.29786 0.0
C670 C 1.02403 0.52132 0.30521 0.0
C671 C 1.02422 0.51284 0.32726 0.0
loop_
_geom_bond_atom_site_label_1
_geom_bond_atom_site_label_2
_geom_bond_distance
_geom_bond_site_symmetry_2
_ccdc_geom_bond_type
Eu0 C9 2.828 . S
Eu0 O11 2.392 1_655 S
Eu0 O13 2.418 . S
Eu0 O18 2.373 . S
Eu0 O21 2.488 . S
Eu0 O22 2.471 . S
Eu0 O23 2.349 . S
Eu1 O10 2.373 . S
Eu1 O14 2.488 . S
Eu1 O15 2.471 . S
Eu1 O16 2.349 . S
Eu1 O19 2.392 1_455 S
Eu1 O20 2.418 . S
Eu1 C30 2.828 . S
C2 O20 1.244 . S
C2 O23 1.265 1_455 S
C3 C4 1.379 . S
C3 C7 1.373 . S
C3 C9 1.505 . S
C4 C3 1.379 . S
C4 C6 1.369 . S
C4 H32 0.930 . S
C5 C7 1.383 . S
C5 C8 1.382 . S
C5 H33 0.930 . S
C6 C4 1.369 . S
C6 C8 1.392 . S
C6 H34 0.930 . S
C7 C3 1.373 . S
C7 C5 1.383 . S
C7 H35 0.931 . S
C8 C5 1.382 . S
C8 C6 1.392 . S
C9 Eu0 2.828 . S
C9 C3 1.505 . S
C9 O21 1.249 . S
C9 O22 1.244 . S
O10 Eu1 2.373 . S
O10 C12 1.258 . S
O11 Eu0 2.392 1_455 S
O11 C12 1.242 . S
C12 O10 1.258 . S
C12 O11 1.242 . S
O13 Eu0 2.418 . S
O13 C17 1.244 . S
O14 Eu1 2.488 . S
O14 C30 1.249 . S
O15 Eu1 2.471 . S
O15 C30 1.244 . S
O16 Eu1 2.349 . S
O16 C17 1.265 1_455 S
C17 O13 1.244 . S
C17 O16 1.265 1_655 S
O18 Eu0 2.373 . S
O18 C31 1.258 . S
O19 Eu1 2.392 1_655 S
O19 C31 1.242 . S
O20 Eu1 2.418 . S
O20 C2 1.244 . S
O21 Eu0 2.488 . S
O21 C9 1.249 . S
O22 Eu0 2.471 . S
O22 C9 1.244 . S
O23 Eu0 2.349 . S
O23 C2 1.265 1_655 S
C24 C25 1.379 . S
C24 C28 1.373 . S
C24 C30 1.505 . S
C25 C24 1.379 . S
C25 C27 1.369 . S
C25 H36 0.930 . S
C26 C28 1.383 . S
C26 C29 1.382 . S
C26 H37 0.930 . S
C27 C25 1.369 . S
C27 C29 1.392 . S
C27 H38 0.930 . S
C28 C24 1.373 . S
C28 C26 1.383 . S
C28 H39 0.931 . S
C29 C26 1.382 . S
C29 C27 1.392 . S
C30 Eu1 2.828 . S
C30 O14 1.249 . S
C30 O15 1.244 . S
C30 C24 1.505 . S
C31 O18 1.258 . S
C31 O19 1.242 . S
H32 C4 0.930 . S
H33 C5 0.930 . S
H34 C6 0.930 . S
H35 C7 0.931 . S
H36 C25 0.930 . S
H37 C26 0.930 . S
H38 C27 0.930 . S
H39 C28 0.931 . S
Eu40 C49 2.828 . S
Eu40 O51 2.392 1_565 S
Eu40 O53 2.418 . S
Eu40 O58 2.373 . S
Eu40 O61 2.488 . S
Eu40 O62 2.471 . S
Eu40 O63 2.362 . S
Eu41 O50 2.373 . S
Eu41 O54 2.488 . S
Eu41 O55 2.471 . S
Eu41 O56 2.349 . S
Eu41 O59 2.392 1_545 S
Eu41 O60 2.418 . S
Eu41 C70 2.828 . S
C42 O60 1.244 . S
C42 O63 1.252 1_545 S
C43 C44 1.379 . S
C43 C47 1.373 . S
C43 C49 1.505 . S
C44 C43 1.379 . S
C44 C46 1.369 . S
C44 H72 0.930 . S
C45 C47 1.383 . S
C45 C48 1.382 . S
C45 H73 0.930 . S
C46 C44 1.369 . S
C46 C48 1.392 . S
C46 H74 0.930 . S
C47 C43 1.373 . S
C47 C45 1.383 . S
C47 H75 0.931 . S
C48 C45 1.382 . S
C48 C46 1.392 . S
C49 Eu40 2.828 . S
C49 C43 1.505 . S
C49 O61 1.249 . S
C49 O62 1.244 . S
O50 Eu41 2.373 . S
O50 C52 1.258 . S
O51 Eu40 2.392 1_545 S
O51 C52 1.242 . S
C52 O50 1.258 . S
C52 O51 1.242 . S
O53 Eu40 2.418 . S
O53 C57 1.244 1_565 S
O54 Eu41 2.488 . S
O54 C70 1.249 . S
O55 Eu41 2.471 . S
O55 C70 1.244 . S
O56 Eu41 2.349 . S
O56 C57 1.265 . S
C57 O53 1.244 1_545 S
C57 O56 1.265 . S
O58 Eu40 2.373 . S
O58 C71 1.258 . S
O59 Eu41 2.392 1_565 S
O59 C71 1.242 . S
O60 Eu41 2.418 . S
O60 C42 1.244 . S
O61 Eu40 2.488 . S
O61 C49 1.249 . S
O62 Eu40 2.471 . S
O62 C49 1.244 . S
O63 Eu40 2.362 . S
O63 C42 1.252 1_565 S
C64 C65 1.379 . S
C64 C68 1.373 . S
C64 C70 1.505 . S
C65 C64 1.379 . S
C65 C67 1.369 . S
C65 H76 0.930 . S
C66 C68 1.383 . S
C66 C69 1.382 . S
C66 H77 0.930 . S
C67 C65 1.369 . S
C67 C69 1.392 . S
C67 H78 0.930 . S
C68 C64 1.373 . S
C68 C66 1.383 . S
C68 H79 0.931 . S
C69 C66 1.382 . S
C69 C67 1.392 . S
C70 Eu41 2.828 . S
C70 O54 1.249 . S
C70 O55 1.244 . S
C70 C64 1.505 . S
C71 O58 1.258 . S
C71 O59 1.242 . S
H72 C44 0.930 . S
H73 C45 0.930 . S
H74 C46 0.930 . S
H75 C47 0.931 . S
H76 C65 0.930 . S
H77 C66 0.930 . S
H78 C67 0.930 . S
H79 C68 0.931 . S
Eu80 C89 2.828 . S
Eu80 O91 2.392 . S
Eu80 O93 2.418 . S
Eu80 O98 2.373 . S
Eu80 O101 2.488 . S
Eu80 O102 2.471 . S
Eu80 O103 2.349 . S
Eu81 O90 2.373 . S
Eu81 O94 2.488 . S
Eu81 O95 2.471 . S
Eu81 O96 2.349 . S
Eu81 O99 2.392 . S
Eu81 O100 2.418 . S
Eu81 C110 2.828 . S
C82 O100 1.244 . S
C82 O103 1.265 . S
C83 C84 1.379 . S
C83 C87 1.373 . S
C83 C89 1.505 . S
C84 C83 1.379 . S
C84 C86 1.369 . S
C84 H112 0.930 . S
C85 C87 1.383 . S
C85 C88 1.382 . S
C85 H113 0.930 . S
C86 C84 1.369 . S
C86 C88 1.392 . S
C86 H114 0.930 . S
C87 C83 1.373 . S
C87 C85 1.383 . S
C87 H115 0.931 . S
C88 C85 1.382 . S
C88 C86 1.392 . S
C89 Eu80 2.828 . S
C89 C83 1.505 . S
C89 O101 1.249 . S
C89 O102 1.244 . S
O90 Eu81 2.373 . S
O90 C92 1.258 . S
O91 Eu80 2.392 . S
O91 C92 1.242 . S
C92 O90 1.258 . S
C92 O91 1.242 . S
O93 Eu80 2.418 . S
O93 C97 1.244 . S
O94 Eu81 2.488 . S
O94 C110 1.249 . S
O95 Eu81 2.471 . S
O95 C110 1.244 . S
O96 Eu81 2.349 . S
O96 C97 1.265 . S
C97 O93 1.244 . S
C97 O96 1.265 . S
O98 Eu80 2.373 . S
O98 C111 1.258 . S
O99 Eu81 2.392 . S
O99 C111 1.242 . S
O100 Eu81 2.418 . S
O100 C82 1.244 . S
O101 Eu80 2.488 . S
O101 C89 1.249 . S
O102 Eu80 2.471 . S
O102 C89 1.244 . S
O103 Eu80 2.349 . S
O103 C82 1.265 . S
C104 C105 1.379 . S
C104 C108 1.373 . S
C104 C110 1.505 . S
C105 C104 1.379 . S
C105 C107 1.369 . S
C105 H116 0.930 . S
C106 C108 1.383 . S
C106 C109 1.382 . S
C106 H117 0.930 . S
C107 C105 1.369 . S
C107 C109 1.392 . S
C107 H118 0.930 . S
C108 C104 1.373 . S
C108 C106 1.383 . S
C108 H119 0.931 . S
C109 C106 1.382 . S
C109 C107 1.392 . S
C110 Eu81 2.828 . S
C110 O94 1.249 . S
C110 O95 1.244 . S
C110 C104 1.505 . S
C111 O98 1.258 . S
C111 O99 1.242 . S
H112 C84 0.930 . S
H113 C85 0.930 . S
H114 C86 0.930 . S
H115 C87 0.931 . S
H116 C105 0.930 . S
H117 C106 0.930 . S
H118 C107 0.930 . S
H119 C108 0.931 . S
P120 O131 1.487 . S
P120 C134 1.811 . S
P120 C140 1.806 1_565 S
P120 C146 1.820 1_565 S
H121 C135 0.941 . S
H122 C136 0.939 . S
H123 C138 0.940 . S
H124 C139 0.940 . S
H125 C141 0.939 . S
H126 C142 0.942 . S
H127 C144 0.940 . S
H128 C145 0.939 . S
H129 C147 0.941 . S
H130 C151 0.939 . S
O131 P120 1.487 . S
H132 C148 0.939 . S
H133 C150 0.940 . S
C134 P120 1.811 . S
C134 C135 1.389 . S
C134 C139 1.391 . S
C135 H121 0.941 . S
C135 C134 1.389 . S
C135 C136 1.397 . S
C136 H122 0.939 . S
C136 C135 1.397 . S
C136 C137 1.378 . S
C137 C136 1.378 . S
C137 C138 1.378 . S
C138 H123 0.940 . S
C138 C137 1.378 . S
C138 C139 1.396 . S
C139 H124 0.940 . S
C139 C134 1.391 . S
C139 C138 1.396 . S
C140 P120 1.806 1_545 S
C140 C141 1.378 . S
C140 C145 1.400 . S
C141 H125 0.939 . S
C141 C140 1.378 . S
C141 C142 1.361 . S
C142 H126 0.942 . S
C142 C141 1.361 . S
C142 C143 1.369 . S
C143 C142 1.369 . S
C143 C144 1.404 . S
C144 H127 0.940 . S
C144 C143 1.404 . S
C144 C145 1.389 . S
C145 H128 0.939 . S
C145 C140 1.400 . S
C145 C144 1.389 . S
C146 P120 1.820 1_545 S
C146 C147 1.391 1_545 S
C146 C151 1.391 . S
C147 H129 0.941 . S
C147 C146 1.391 1_565 S
C147 C148 1.396 . S
C148 H132 0.939 . S
C148 C147 1.396 . S
C148 C149 1.397 1_565 S
C149 C148 1.397 1_545 S
C149 C150 1.385 . S
C150 H133 0.940 . S
C150 C149 1.385 . S
C150 C151 1.388 . S
C151 H130 0.939 . S
C151 C146 1.391 . S
C151 C150 1.388 . S
P152 O163 1.490 . S
P152 C166 1.812 . S
P152 C172 1.803 . S
P152 C178 1.819 . S
H153 C167 0.941 . S
H154 C168 0.939 . S
H155 C170 0.940 . S
H156 C171 0.940 . S
H157 C173 0.939 . S
H158 C174 0.942 . S
H159 C176 0.940 . S
H160 C177 0.939 . S
H161 C179 0.941 . S
H162 C183 0.939 . S
O163 P152 1.490 . S
H164 C180 0.939 . S
H165 C182 0.940 . S
C166 P152 1.812 . S
C166 C167 1.389 . S
C166 C171 1.391 . S
C167 H153 0.941 . S
C167 C166 1.389 . S
C167 C168 1.397 . S
C168 H154 0.939 . S
C168 C167 1.397 . S
C168 C169 1.378 . S
C169 C168 1.378 . S
C169 C170 1.378 . S
C170 H155 0.940 . S
C170 C169 1.378 . S
C170 C171 1.396 . S
C171 H156 0.940 . S
C171 C166 1.391 . S
C171 C170 1.396 . S
C172 P152 1.803 . S
C172 C173 1.378 . S
C172 C177 1.400 . S
C173 H157 0.939 . S
C173 C172 1.378 . S
C173 C174 1.361 . S
C174 H158 0.942 . S
C174 C173 1.361 . S
C174 C175 1.369 . S
C175 C174 1.369 . S
C175 C176 1.404 . S
C176 H159 0.940 . S
C176 C175 1.404 . S
C176 C177 1.389 . S
C177 H160 0.939 . S
C177 C172 1.400 . S
C177 C176 1.389 . S
C178 P152 1.819 . S
C178 C179 1.391 . S
C178 C183 1.391 . S
C179 H161 0.941 . S
C179 C178 1.391 . S
C179 C180 1.396 . S
C180 H164 0.939 . S
C180 C179 1.396 . S
C180 C181 1.397 . S
C181 C180 1.397 . S
C181 C182 1.385 . S
C182 H165 0.940 . S
C182 C181 1.385 . S
C182 C183 1.388 . S
C183 H162 0.939 . S
C183 C178 1.391 . S
C183 C182 1.388 . S
P184 O195 1.490 . S
P184 C198 1.812 . S
P184 C204 1.803 . S
P184 C210 1.819 . S
H185 C199 0.941 . S
H186 C200 0.939 . S
H187 C202 0.940 . S
H188 C203 0.940 . S
H189 C205 0.939 1_455 S
H190 C206 0.942 . S
H191 C208 0.940 . S
H192 C209 0.939 1_455 S
H193 C211 0.941 . S
H194 C215 0.939 1_655 S
O195 P184 1.490 . S
H196 C212 0.939 . S
H197 C214 0.940 1_655 S
C198 P184 1.812 . S
C198 C199 1.389 . S
C198 C203 1.391 . S
C199 H185 0.941 . S
C199 C198 1.389 . S
C199 C200 1.397 . S
C200 H186 0.939 . S
C200 C199 1.397 . S
C200 C201 1.378 . S
C201 C200 1.378 . S
C201 C202 1.378 . S
C202 H187 0.940 . S
C202 C201 1.378 . S
C202 C203 1.396 . S
C203 H188 0.940 . S
C203 C198 1.391 . S
C203 C202 1.396 . S
C204 P184 1.803 . S
C204 C205 1.378 1_455 S
C204 C209 1.400 1_455 S
C205 H189 0.939 1_655 S
C205 C204 1.378 1_655 S
C205 C206 1.361 . S
C206 H190 0.942 . S
C206 C205 1.361 . S
C206 C207 1.369 . S
C207 C206 1.369 . S
C207 C208 1.404 . S
C208 H191 0.940 . S
C208 C207 1.404 . S
C208 C209 1.389 . S
C209 H192 0.939 1_655 S
C209 C204 1.400 1_655 S
C209 C208 1.389 . S
C210 P184 1.819 . S
C210 C211 1.391 . S
C210 C215 1.391 . S
C211 H193 0.941 . S
C211 C210 1.391 . S
C211 C212 1.396 . S
C212 H196 0.939 . S
C212 C211 1.396 . S
C212 C213 1.397 . S
C213 C212 1.397 . S
C213 C214 1.385 . S
C214 H197 0.940 1_455 S
C214 C213 1.385 . S
C214 C215 1.388 . S
C215 H194 0.939 1_455 S
C215 C210 1.391 . S
C215 C214 1.388 . S
P216 O227 1.490 . S
P216 C230 1.812 . S
P216 C236 1.803 1_455 S
P216 C242 1.819 . S
H217 C231 0.941 . S
H218 C232 0.939 . S
H219 C234 0.940 . S
H220 C235 0.940 . S
H221 C237 0.939 . S
H222 C238 0.942 . S
H223 C240 0.940 . S
H224 C241 0.939 . S
H225 C243 0.941 . S
H226 C247 0.939 . S
O227 P216 1.490 . S
H228 C244 0.939 . S
H229 C246 0.940 . S
C230 P216 1.812 . S
C230 C231 1.389 . S
C230 C235 1.391 . S
C231 H217 0.941 . S
C231 C230 1.389 . S
C231 C232 1.397 . S
C232 H218 0.939 . S
C232 C231 1.397 . S
C232 C233 1.378 . S
C233 C232 1.378 . S
C233 C234 1.378 . S
C234 H219 0.940 . S
C234 C233 1.378 . S
C234 C235 1.396 . S
C235 H220 0.940 . S
C235 C230 1.391 . S
C235 C234 1.396 . S
C236 P216 1.803 1_655 S
C236 C237 1.378 . S
C236 C241 1.400 . S
C237 H221 0.939 . S
C237 C236 1.378 . S
C237 C238 1.361 . S
C238 H222 0.942 . S
C238 C237 1.361 . S
C238 C239 1.369 . S
C239 C238 1.369 . S
C239 C240 1.404 . S
C240 H223 0.940 . S
C240 C239 1.404 . S
C240 C241 1.389 . S
C241 H224 0.939 . S
C241 C236 1.400 . S
C241 C240 1.389 . S
C242 P216 1.819 . S
C242 C243 1.391 . S
C242 C247 1.391 1_455 S
C243 H225 0.941 . S
C243 C242 1.391 . S
C243 C244 1.396 . S
C244 H228 0.939 . S
C244 C243 1.396 . S
C244 C245 1.397 . S
C245 C244 1.397 . S
C245 C246 1.385 1_455 S
C246 H229 0.940 . S
C246 C245 1.385 1_655 S
C246 C247 1.388 . S
C247 H226 0.939 . S
C247 C242 1.391 1_655 S
C247 C246 1.388 . S
P248 O259 1.490 . S
P248 C262 1.812 . S
P248 C268 1.803 1_545 S
P248 C274 1.819 . S
H249 C263 0.941 . S
H250 C264 0.939 . S
H251 C266 0.940 . S
H252 C267 0.940 . S
H253 C269 0.939 . S
H254 C270 0.942 . S
H255 C272 0.940 . S
H256 C273 0.939 . S
H257 C275 0.941 . S
H258 C279 0.939 . S
O259 P248 1.490 . S
H260 C276 0.939 . S
H261 C278 0.940 . S
C262 P248 1.812 . S
C262 C263 1.389 . S
C262 C267 1.391 . S
C263 H249 0.941 . S
C263 C262 1.389 . S
C263 C264 1.397 . S
C264 H250 0.939 . S
C264 C263 1.397 . S
C264 C265 1.378 . S
C265 C264 1.378 . S
C265 C266 1.378 . S
C266 H251 0.940 . S
C266 C265 1.378 . S
C266 C267 1.396 . S
C267 H252 0.940 . S
C267 C262 1.391 . S
C267 C266 1.396 . S
C268 P248 1.803 1_565 S
C268 C269 1.378 . S
C268 C273 1.400 . S
C269 H253 0.939 . S
C269 C268 1.378 . S
C269 C270 1.361 . S
C270 H254 0.942 . S
C270 C269 1.361 . S
C270 C271 1.369 . S
C271 C270 1.369 . S
C271 C272 1.404 . S
C272 H255 0.940 . S
C272 C271 1.404 . S
C272 C273 1.389 . S
C273 H256 0.939 . S
C273 C268 1.400 . S
C273 C272 1.389 . S
C274 P248 1.819 . S
C274 C275 1.391 . S
C274 C279 1.391 1_545 S
C275 H257 0.941 . S
C275 C274 1.391 . S
C275 C276 1.396 . S
C276 H260 0.939 . S
C276 C275 1.396 . S
C276 C277 1.397 . S
C277 C276 1.397 . S
C277 C278 1.385 1_545 S
C278 H261 0.940 . S
C278 C277 1.385 1_565 S
C278 C279 1.388 . S
C279 H258 0.939 . S
C279 C274 1.391 1_565 S
C279 C278 1.388 . S
P280 O291 1.490 . S
P280 C294 1.812 . S
P280 C300 1.803 . S
P280 C306 1.819 . S
H281 C295 0.941 . S
H282 C296 0.939 . S
H283 C298 0.940 . S
H284 C299 0.940 . S
H285 C301 0.939 . S
H286 C302 0.942 . S
H287 C304 0.940 . S
H288 C305 0.939 . S
H289 C307 0.941 . S
H290 C311 0.939 . S
O291 P280 1.490 . S
H292 C308 0.939 . S
H293 C310 0.940 . S
C294 P280 1.812 . S
C294 C295 1.389 . S
C294 C299 1.391 . S
C295 H281 0.941 . S
C295 C294 1.389 . S
C295 C296 1.397 . S
C296 H282 0.939 . S
C296 C295 1.397 . S
C296 C297 1.378 . S
C297 C296 1.378 . S
C297 C298 1.378 . S
C298 H283 0.940 . S
C298 C297 1.378 . S
C298 C299 1.396 . S
C299 H284 0.940 . S
C299 C294 1.391 . S
C299 C298 1.396 . S
C300 P280 1.803 . S
C300 C301 1.378 . S
C300 C305 1.400 . S
C301 H285 0.939 . S
C301 C300 1.378 . S
C301 C302 1.361 . S
C302 H286 0.942 . S
C302 C301 1.361 . S
C302 C303 1.369 . S
C303 C302 1.369 . S
C303 C304 1.404 . S
C304 H287 0.940 . S
C304 C303 1.404 . S
C304 C305 1.389 . S
C305 H288 0.939 . S
C305 C300 1.400 . S
C305 C304 1.389 . S
C306 P280 1.819 . S
C306 C307 1.391 . S
C306 C311 1.391 . S
C307 H289 0.941 . S
C307 C306 1.391 . S
C307 C308 1.396 . S
C308 H292 0.939 . S
C308 C307 1.396 . S
C308 C309 1.397 . S
C309 C308 1.397 . S
C309 C310 1.385 . S
C310 H293 0.940 . S
C310 C309 1.385 . S
C310 C311 1.388 . S
C311 H290 0.939 . S
C311 C306 1.391 . S
C311 C310 1.388 . S
H312 C320 0.950 . S
H313 C325 0.950 . S
H314 C322 0.950 . S
H315 C324 0.950 . S
H316 C326 0.950 . S
H317 C328 0.950 . S
H318 C330 0.950 . S
H319 C331 0.950 . S
C320 H312 0.950 . S
C320 C321 1.386 . S
C320 C322 1.391 . S
C321 C320 1.386 . S
C321 C325 1.393 . S
C322 H314 0.950 . S
C322 C320 1.391 . S
C322 C323 1.400 . S
C323 C322 1.400 . S
C323 C324 1.398 . S
C323 C329 1.491 . S
C324 H315 0.950 . S
C324 C323 1.398 . S
C324 C325 1.391 . S
C325 H313 0.950 . S
C325 C321 1.393 . S
C325 C324 1.391 . S
C326 H316 0.950 . S
C326 C327 1.386 . S
C326 C328 1.391 . S
C327 C326 1.386 . S
C327 C331 1.393 . S
C328 H317 0.950 . S
C328 C326 1.391 . S
C328 C329 1.400 . S
C329 C323 1.491 . S
C329 C328 1.400 . S
C329 C330 1.398 . S
C330 H318 0.950 . S
C330 C329 1.398 . S
C330 C331 1.391 . S
C331 H319 0.950 . S
C331 C327 1.393 . S
C331 C330 1.391 . S
H332 C340 0.950 . S
H333 C345 0.950 . S
H334 C342 0.950 . S
H335 C344 0.950 . S
H336 C346 0.950 . S
H337 C348 0.950 . S
H338 C350 0.950 . S
H339 C351 0.950 . S
C340 H332 0.950 . S
C340 C341 1.386 . S
C340 C342 1.391 . S
C341 C340 1.386 . S
C341 C345 1.393 . S
C342 H334 0.950 . S
C342 C340 1.391 . S
C342 C343 1.400 . S
C343 C342 1.400 . S
C343 C344 1.398 . S
C343 C349 1.491 . S
C344 H335 0.950 . S
C344 C343 1.398 . S
C344 C345 1.391 . S
C345 H333 0.950 . S
C345 C341 1.393 . S
C345 C344 1.391 . S
C346 H336 0.950 . S
C346 C347 1.386 . S
C346 C348 1.391 . S
C347 C346 1.386 . S
C347 C351 1.393 . S
C348 H337 0.950 . S
C348 C346 1.391 . S
C348 C349 1.400 . S
C349 C343 1.491 . S
C349 C348 1.400 . S
C349 C350 1.398 . S
C350 H338 0.950 . S
C350 C349 1.398 . S
C350 C351 1.391 . S
C351 H339 0.950 . S
C351 C347 1.393 . S
C351 C350 1.391 . S
H352 C360 0.950 . S
H353 C365 0.950 . S
H354 C362 0.950 . S
H355 C364 0.950 . S
H356 C366 0.950 . S
H357 C368 0.950 . S
H358 C370 0.950 . S
H359 C371 0.950 . S
C360 H352 0.950 . S
C360 C361 1.386 . S
C360 C362 1.391 . S
C361 C360 1.386 . S
C361 C365 1.393 . S
C362 H354 0.950 . S
C362 C360 1.391 . S
C362 C363 1.400 . S
C363 C362 1.400 . S
C363 C364 1.398 . S
C363 C369 1.491 . S
C364 H355 0.950 . S
C364 C363 1.398 . S
C364 C365 1.391 . S
C365 H353 0.950 . S
C365 C361 1.393 . S
C365 C364 1.391 . S
C366 H356 0.950 . S
C366 C367 1.386 . S
C366 C368 1.391 . S
C367 C366 1.386 . S
C367 C371 1.393 . S
C368 H357 0.950 . S
C368 C366 1.391 . S
C368 C369 1.400 . S
C369 C363 1.491 . S
C369 C368 1.400 . S
C369 C370 1.398 . S
C370 H358 0.950 . S
C370 C369 1.398 . S
C370 C371 1.391 . S
C371 H359 0.950 . S
C371 C367 1.393 . S
C371 C370 1.391 . S
H372 C380 0.950 . S
H373 C385 0.950 . S
H374 C382 0.950 . S
H375 C384 0.950 . S
H376 C386 0.950 . S
H377 C388 0.950 . S
H378 C390 0.950 . S
H379 C391 0.950 . S
C380 H372 0.950 . S
C380 C381 1.386 . S
C380 C382 1.391 . S
C381 C380 1.386 . S
C381 C385 1.393 . S
C382 H374 0.950 . S
C382 C380 1.391 . S
C382 C383 1.400 . S
C383 C382 1.400 . S
C383 C384 1.398 . S
C383 C389 1.491 . S
C384 H375 0.950 . S
C384 C383 1.398 . S
C384 C385 1.391 . S
C385 H373 0.950 . S
C385 C381 1.393 . S
C385 C384 1.391 . S
C386 H376 0.950 . S
C386 C387 1.386 . S
C386 C388 1.391 . S
C387 C386 1.386 . S
C387 C391 1.393 . S
C388 H377 0.950 . S
C388 C386 1.391 . S
C388 C389 1.400 . S
C389 C383 1.491 . S
C389 C388 1.400 . S
C389 C390 1.398 . S
C390 H378 0.950 . S
C390 C389 1.398 . S
C390 C391 1.391 . S
C391 H379 0.950 . S
C391 C387 1.393 . S
C391 C390 1.391 . S
H392 C400 0.950 . S
H393 C405 0.950 . S
H394 C402 0.950 . S
H395 C404 0.950 . S
H396 C406 0.950 . S
H397 C408 0.950 . S
H398 C410 0.950 . S
H399 C411 0.950 . S
C400 H392 0.950 . S
C400 C401 1.386 . S
C400 C402 1.391 . S
C401 C400 1.386 . S
C401 C405 1.393 . S
C402 H394 0.950 . S
C402 C400 1.391 . S
C402 C403 1.400 . S
C403 C402 1.400 . S
C403 C404 1.398 . S
C403 C409 1.491 . S
C404 H395 0.950 . S
C404 C403 1.398 . S
C404 C405 1.391 . S
C405 H393 0.950 . S
C405 C401 1.393 . S
C405 C404 1.391 . S
C406 H396 0.950 . S
C406 C407 1.386 . S
C406 C408 1.391 . S
C407 C406 1.386 . S
C407 C411 1.393 . S
C408 H397 0.950 . S
C408 C406 1.391 . S
C408 C409 1.400 . S
C409 C403 1.491 . S
C409 C408 1.400 . S
C409 C410 1.398 . S
C410 H398 0.950 . S
C410 C409 1.398 . S
C410 C411 1.391 . S
C411 H399 0.950 . S
C411 C407 1.393 . S
C411 C410 1.391 . S
H412 C420 0.950 . S
H413 C425 0.950 . S
H414 C422 0.950 . S
H415 C424 0.950 . S
H416 C426 0.950 . S
H417 C428 0.950 . S
H418 C430 0.950 . S
H419 C431 0.950 . S
C420 H412 0.950 . S
C420 C421 1.386 . S
C420 C422 1.391 . S
C421 C420 1.386 . S
C421 C425 1.393 . S
C422 H414 0.950 . S
C422 C420 1.391 . S
C422 C423 1.400 . S
C423 C422 1.400 . S
C423 C424 1.398 . S
C423 C429 1.491 . S
C424 H415 0.950 . S
C424 C423 1.398 . S
C424 C425 1.391 . S
C425 H413 0.950 . S
C425 C421 1.393 . S
C425 C424 1.391 . S
C426 H416 0.950 . S
C426 C427 1.386 . S
C426 C428 1.391 . S
C427 C426 1.386 . S
C427 C431 1.393 . S
C428 H417 0.950 . S
C428 C426 1.391 . S
C428 C429 1.400 . S
C429 C423 1.491 . S
C429 C428 1.400 . S
C429 C430 1.398 . S
C430 H418 0.950 . S
C430 C429 1.398 . S
C430 C431 1.391 . S
C431 H419 0.950 . S
C431 C427 1.393 . S
C431 C430 1.391 . S
H432 C440 0.950 . S
H433 C445 0.950 . S
H434 C442 0.950 . S
H435 C444 0.950 . S
H436 C446 0.950 . S
H437 C448 0.950 . S
H438 C450 0.950 . S
H439 C451 0.950 . S
C440 H432 0.950 . S
C440 C441 1.386 . S
C440 C442 1.391 . S
C441 C440 1.386 . S
C441 C445 1.393 . S
C442 H434 0.950 . S
C442 C440 1.391 . S
C442 C443 1.400 . S
C443 C442 1.400 . S
C443 C444 1.398 . S
C443 C449 1.491 . S
C444 H435 0.950 . S
C444 C443 1.398 . S
C444 C445 1.391 . S
C445 H433 0.950 . S
C445 C441 1.393 . S
C445 C444 1.391 . S
C446 H436 0.950 . S
C446 C447 1.386 . S
C446 C448 1.391 . S
C447 C446 1.386 . S
C447 C451 1.393 . S
C448 H437 0.950 . S
C448 C446 1.391 . S
C448 C449 1.400 . S
C449 C443 1.491 . S
C449 C448 1.400 . S
C449 C450 1.398 . S
C450 H438 0.950 . S
C450 C449 1.398 . S
C450 C451 1.391 . S
C451 H439 0.950 . S
C451 C447 1.393 . S
C451 C450 1.391 . S
H452 C460 0.950 . S
H453 C465 0.950 . S
H454 C462 0.950 . S
H455 C464 0.950 . S
H456 C466 0.950 . S
H457 C468 0.950 . S
H458 C470 0.950 . S
H459 C471 0.950 . S
C460 H452 0.950 . S
C460 C461 1.386 . S
C460 C462 1.391 . S
C461 C460 1.386 . S
C461 C465 1.393 . S
C462 H454 0.950 . S
C462 C460 1.391 . S
C462 C463 1.400 . S
C463 C462 1.400 . S
C463 C464 1.398 . S
C463 C469 1.491 . S
C464 H455 0.950 . S
C464 C463 1.398 . S
C464 C465 1.391 . S
C465 H453 0.950 . S
C465 C461 1.393 . S
C465 C464 1.391 . S
C466 H456 0.950 . S
C466 C467 1.386 . S
C466 C468 1.391 . S
C467 C466 1.386 . S
C467 C471 1.393 . S
C468 H457 0.950 . S
C468 C466 1.391 . S
C468 C469 1.400 . S
C469 C463 1.491 . S
C469 C468 1.400 . S
C469 C470 1.398 . S
C470 H458 0.950 . S
C470 C469 1.398 . S
C470 C471 1.391 . S
C471 H459 0.950 . S
C471 C467 1.393 . S
C471 C470 1.391 . S
H472 C480 0.950 . S
H473 C485 0.950 . S
H474 C482 0.950 . S
H475 C484 0.950 . S
H476 C486 0.950 . S
H477 C488 0.950 . S
H478 C490 0.950 . S
H479 C491 0.950 . S
C480 H472 0.950 . S
C480 C481 1.386 . S
C480 C482 1.391 . S
C481 C480 1.386 . S
C481 C485 1.393 . S
C482 H474 0.950 . S
C482 C480 1.391 . S
C482 C483 1.400 . S
C483 C482 1.400 . S
C483 C484 1.398 . S
C483 C489 1.491 . S
C484 H475 0.950 . S
C484 C483 1.398 . S
C484 C485 1.391 . S
C485 H473 0.950 . S
C485 C481 1.393 . S
C485 C484 1.391 . S
C486 H476 0.950 . S
C486 C487 1.386 . S
C486 C488 1.391 . S
C487 C486 1.386 . S
C487 C491 1.393 . S
C488 H477 0.950 . S
C488 C486 1.391 . S
C488 C489 1.400 . S
C489 C483 1.491 . S
C489 C488 1.400 . S
C489 C490 1.398 . S
C490 H478 0.950 . S
C490 C489 1.398 . S
C490 C491 1.391 . S
C491 H479 0.950 . S
C491 C487 1.393 . S
C491 C490 1.391 . S
H492 C500 0.950 . S
H493 C505 0.950 . S
H494 C502 0.950 . S
H495 C504 0.950 . S
H496 C506 0.950 . S
H497 C508 0.950 . S
H498 C510 0.950 . S
H499 C511 0.950 . S
C500 H492 0.950 . S
C500 C501 1.386 . S
C500 C502 1.391 . S
C501 C500 1.386 . S
C501 C505 1.393 . S
C502 H494 0.950 . S
C502 C500 1.391 . S
C502 C503 1.400 . S
C503 C502 1.400 . S
C503 C504 1.398 . S
C503 C509 1.491 . S
C504 H495 0.950 . S
C504 C503 1.398 . S
C504 C505 1.391 . S
C505 H493 0.950 . S
C505 C501 1.393 . S
C505 C504 1.391 . S
C506 H496 0.950 . S
C506 C507 1.386 . S
C506 C508 1.391 . S
C507 C506 1.386 . S
C507 C511 1.393 . S
C508 H497 0.950 . S
C508 C506 1.391 . S
C508 C509 1.400 . S
C509 C503 1.491 . S
C509 C508 1.400 . S
C509 C510 1.398 . S
C510 H498 0.950 . S
C510 C509 1.398 . S
C510 C511 1.391 . S
C511 H499 0.950 . S
C511 C507 1.393 . S
C511 C510 1.391 . S
H512 C520 0.950 . S
H513 C525 0.950 . S
H514 C522 0.950 . S
H515 C524 0.950 . S
H516 C526 0.950 . S
H517 C528 0.950 . S
H518 C530 0.950 . S
H519 C531 0.950 . S
C520 H512 0.950 . S
C520 C521 1.386 . S
C520 C522 1.391 . S
C521 C520 1.386 . S
C521 C525 1.393 . S
C522 H514 0.950 . S
C522 C520 1.391 . S
C522 C523 1.400 . S
C523 C522 1.400 . S
C523 C524 1.398 . S
C523 C529 1.491 . S
C524 H515 0.950 . S
C524 C523 1.398 . S
C524 C525 1.391 . S
C525 H513 0.950 . S
C525 C521 1.393 . S
C525 C524 1.391 . S
C526 H516 0.950 . S
C526 C527 1.386 . S
C526 C528 1.391 . S
C527 C526 1.386 . S
C527 C531 1.393 . S
C528 H517 0.950 . S
C528 C526 1.391 . S
C528 C529 1.400 . S
C529 C523 1.491 . S
C529 C528 1.400 . S
C529 C530 1.398 . S
C530 H518 0.950 . S
C530 C529 1.398 . S
C530 C531 1.391 . S
C531 H519 0.950 . S
C531 C527 1.393 . S
C531 C530 1.391 . S
H532 C540 0.950 . S
H533 C545 0.950 . S
H534 C542 0.950 . S
H535 C544 0.950 . S
H536 C546 0.950 . S
H537 C548 0.950 . S
H538 C550 0.950 . S
H539 C551 0.950 . S
C540 H532 0.950 . S
C540 C541 1.386 . S
C540 C542 1.391 . S
C541 C540 1.386 . S
C541 C545 1.393 . S
C542 H534 0.950 . S
C542 C540 1.391 . S
C542 C543 1.400 . S
C543 C542 1.400 . S
C543 C544 1.398 . S
C543 C549 1.491 . S
C544 H535 0.950 . S
C544 C543 1.398 . S
C544 C545 1.391 . S
C545 H533 0.950 . S
C545 C541 1.393 . S
C545 C544 1.391 . S
C546 H536 0.950 . S
C546 C547 1.386 . S
C546 C548 1.391 . S
C547 C546 1.386 . S
C547 C551 1.393 . S
C548 H537 0.950 . S
C548 C546 1.391 . S
C548 C549 1.400 . S
C549 C543 1.491 . S
C549 C548 1.400 . S
C549 C550 1.398 . S
C550 H538 0.950 . S
C550 C549 1.398 . S
C550 C551 1.391 . S
C551 H539 0.950 . S
C551 C547 1.393 . S
C551 C550 1.391 . S
H552 C560 0.950 . S
H553 C565 0.950 . S
H554 C562 0.950 . S
H555 C564 0.950 . S
H556 C566 0.950 . S
H557 C568 0.950 . S
H558 C570 0.950 . S
H559 C571 0.950 1_556 S
C560 H552 0.950 . S
C560 C561 1.386 1_655 S
C560 C562 1.391 . S
C561 C560 1.386 1_455 S
C561 C565 1.393 . S
C562 H554 0.950 . S
C562 C560 1.391 . S
C562 C563 1.400 1_655 S
C563 C562 1.400 1_455 S
C563 C564 1.398 . S
C563 C569 1.491 . S
C564 H555 0.950 . S
C564 C563 1.398 . S
C564 C565 1.391 . S
C565 H553 0.950 . S
C565 C561 1.393 . S
C565 C564 1.391 . S
C566 H556 0.950 . S
C566 C567 1.386 1_554 S
C566 C568 1.391 . S
C567 C566 1.386 1_556 S
C567 C571 1.393 1_456 S
C568 H557 0.950 . S
C568 C566 1.391 . S
C568 C569 1.400 . S
C569 C563 1.491 . S
C569 C568 1.400 . S
C569 C570 1.398 1_455 S
C570 H558 0.950 . S
C570 C569 1.398 1_655 S
C570 C571 1.391 . S
C571 H559 0.950 1_554 S
C571 C567 1.393 1_654 S
C571 C570 1.391 . S
H572 C580 0.950 . S
H573 C585 0.950 . S
H574 C582 0.950 . S
H575 C584 0.950 . S
H576 C586 0.950 . S
H577 C588 0.950 . S
H578 C590 0.950 . S
H579 C591 0.950 . S
C580 H572 0.950 . S
C580 C581 1.386 . S
C580 C582 1.391 . S
C581 C580 1.386 . S
C581 C585 1.393 . S
C582 H574 0.950 . S
C582 C580 1.391 . S
C582 C583 1.400 . S
C583 C582 1.400 . S
C583 C584 1.398 . S
C583 C589 1.491 . S
C584 H575 0.950 . S
C584 C583 1.398 . S
C584 C585 1.391 . S
C585 H573 0.950 . S
C585 C581 1.393 . S
C585 C584 1.391 . S
C586 H576 0.950 . S
C586 C587 1.386 . S
C586 C588 1.391 . S
C587 C586 1.386 . S
C587 C591 1.393 . S
C588 H577 0.950 . S
C588 C586 1.391 . S
C588 C589 1.400 . S
C589 C583 1.491 . S
C589 C588 1.400 . S
C589 C590 1.398 . S
C590 H578 0.950 . S
C590 C589 1.398 . S
C590 C591 1.391 . S
C591 H579 0.950 . S
C591 C587 1.393 . S
C591 C590 1.391 . S
H592 C600 0.950 . S
H593 C605 0.950 . S
H594 C602 0.950 . S
H595 C604 0.950 . S
H596 C606 0.950 . S
H597 C608 0.950 . S
H598 C610 0.950 . S
H599 C611 0.950 . S
C600 H592 0.950 . S
C600 C601 1.386 . S
C600 C602 1.391 . S
C601 C600 1.386 . S
C601 C605 1.393 . S
C602 H594 0.950 . S
C602 C600 1.391 . S
C602 C603 1.400 . S
C603 C602 1.400 . S
C603 C604 1.398 . S
C603 C609 1.491 . S
C604 H595 0.950 . S
C604 C603 1.398 . S
C604 C605 1.391 . S
C605 H593 0.950 . S
C605 C601 1.393 . S
C605 C604 1.391 . S
C606 H596 0.950 . S
C606 C607 1.386 . S
C606 C608 1.391 . S
C607 C606 1.386 . S
C607 C611 1.393 . S
C608 H597 0.950 . S
C608 C606 1.391 . S
C608 C609 1.400 . S
C609 C603 1.491 . S
C609 C608 1.400 . S
C609 C610 1.398 . S
C610 H598 0.950 . S
C610 C609 1.398 . S
C610 C611 1.391 . S
C611 H599 0.950 . S
C611 C607 1.393 . S
C611 C610 1.391 . S
H612 C620 0.950 . S
H613 C625 0.950 . S
H614 C622 0.950 . S
H615 C624 0.950 . S
H616 C626 0.950 . S
H617 C628 0.950 . S
H618 C630 0.950 . S
H619 C631 0.950 . S
C620 H612 0.950 . S
C620 C621 1.386 . S
C620 C622 1.391 . S
C621 C620 1.386 . S
C621 C625 1.393 1_545 S
C622 H614 0.950 . S
C622 C620 1.391 . S
C622 C623 1.400 . S
C623 C622 1.400 . S
C623 C624 1.398 1_545 S
C623 C629 1.491 . S
C624 H615 0.950 . S
C624 C623 1.398 1_565 S
C624 C625 1.391 . S
C625 H613 0.950 . S
C625 C621 1.393 1_565 S
C625 C624 1.391 . S
C626 H616 0.950 . S
C626 C627 1.386 1_565 S
C626 C628 1.391 . S
C627 C626 1.386 1_545 S
C627 C631 1.393 . S
C628 H617 0.950 . S
C628 C626 1.391 . S
C628 C629 1.400 1_565 S
C629 C623 1.491 . S
C629 C628 1.400 1_545 S
C629 C630 1.398 . S
C630 H618 0.950 . S
C630 C629 1.398 . S
C630 C631 1.391 . S
C631 H619 0.950 . S
C631 C627 1.393 . S
C631 C630 1.391 . S
H632 C640 0.950 . S
H633 C645 0.950 . S
H634 C642 0.950 . S
H635 C644 0.950 . S
H636 C646 0.950 . S
H637 C648 0.950 . S
H638 C650 0.950 . S
H639 C651 0.950 . S
C640 H632 0.950 . S
C640 C641 1.386 . S
C640 C642 1.391 . S
C641 C640 1.386 . S
C641 C645 1.393 . S
C642 H634 0.950 . S
C642 C640 1.391 . S
C642 C643 1.400 . S
C643 C642 1.400 . S
C643 C644 1.398 . S
C643 C649 1.491 . S
C644 H635 0.950 . S
C644 C643 1.398 . S
C644 C645 1.391 . S
C645 H633 0.950 . S
C645 C641 1.393 . S
C645 C644 1.391 . S
C646 H636 0.950 . S
C646 C647 1.386 . S
C646 C648 1.391 1_554 S
C647 C646 1.386 . S
C647 C651 1.393 . S
C648 H637 0.950 . S
C648 C646 1.391 1_556 S
C648 C649 1.400 . S
C649 C643 1.491 . S
C649 C648 1.400 . S
C649 C650 1.398 . S
C650 H638 0.950 . S
C650 C649 1.398 . S
C650 C651 1.391 1_556 S
C651 H639 0.950 . S
C651 C647 1.393 . S
C651 C650 1.391 1_554 S
H652 C660 0.950 . S
H653 C665 0.950 . S
H654 C662 0.950 . S
H655 C664 0.950 . S
H656 C666 0.950 . S
H657 C668 0.950 . S
H658 C670 0.950 . S
H659 C671 0.950 . S
C660 H652 0.950 . S
C660 C661 1.386 . S
C660 C662 1.391 . S
C661 C660 1.386 . S
C661 C665 1.393 1_655 S
C662 H654 0.950 . S
C662 C660 1.391 . S
C662 C663 1.400 1_655 S
C663 C662 1.400 1_455 S
C663 C664 1.398 . S
C663 C669 1.491 . S
C664 H655 0.950 . S
C664 C663 1.398 . S
C664 C665 1.391 . S
C665 H653 0.950 . S
C665 C661 1.393 1_455 S
C665 C664 1.391 . S
C666 H656 0.950 . S
C666 C667 1.386 . S
C666 C668 1.391 . S
C667 C666 1.386 . S
C667 C671 1.393 1_455 S
C668 H657 0.950 . S
C668 C666 1.391 . S
C668 C669 1.400 . S
C669 C663 1.491 . S
C669 C668 1.400 . S
C669 C670 1.398 1_455 S
C670 H658 0.950 . S
C670 C669 1.398 1_655 S
C670 C671 1.391 . S
C671 H659 0.950 . S
C671 C667 1.393 1_655 S
C671 C670 1.391 . S
C321 C12 2.894 . S
C327 C303 2.840 . S
C341 C52 2.924 . S
C347 C239 2.868 . S
C361 C111 2.967 . S
C367 C271 2.911 . S
C381 C31 3.104 . S
C387 C297 3.045 . S
C407 C233 3.016 . S
C401 C71 3.079 . S
C427 C265 2.971 . S
C421 C92 3.028 . S
C441 C48 0.474 . S
C447 C175 0.454 . S
C461 C109 0.540 . S
C467 C207 0.412 . S
C481 C29 0.534 . S
C487 C137 0.514 . S
C507 C169 0.355 . S
C501 C69 0.488 . S
C527 C201 0.308 . S
C521 C88 0.318 . S
C541 C8 0.340 . S
C547 C143 0.357 . S
C567 C213 1.084 . S
C561 C17 1.082 1_455 S
C581 C57 1.058 . S
C587 C149 1.052 . S
C601 C97 1.082 . S
C607 C181 1.090 . S
C627 C277 1.739 . S
C621 C42 1.711 . S
C647 C309 1.739 . S
C641 C82 1.719 . S
C661 C2 1.746 1_655 S
C667 C245 1.757 . S
