# Generated by pormake.
# Topology ptr, (4,4)-cn, num edge types: 1
# Building blocks:
#     Node 0, Type 0, BuildingBlock: GALJAG_clean_sbu_0, # of connection points: 4
#     Node 1, Type 0, BuildingBlock: GALJAG_clean_sbu_0, # of connection points: 4
#     Node 2, Type 0, BuildingBlock: GALJAG_clean_sbu_0, # of connection points: 4
#     Node 3, Type 0, BuildingBlock: GALJAG_clean_sbu_0, # of connection points: 4
#     Node 4, Type 0, BuildingBlock: GALJAG_clean_sbu_0, # of connection points: 4
#     Node 5, Type 0, BuildingBlock: GALJAG_clean_sbu_0, # of connection points: 4
#     Node 6, Type 0, BuildingBlock: GALJAG_clean_sbu_0, # of connection points: 4
#     Node 7, Type 0, BuildingBlock: GALJAG_clean_sbu_0, # of connection points: 4
#     Node 8, Type 0, BuildingBlock: GALJAG_clean_sbu_0, # of connection points: 4
#     Node 9, Type 0, BuildingBlock: GALJAG_clean_sbu_0, # of connection points: 4
#     Node 10, Type 0, BuildingBlock: GALJAG_clean_sbu_0, # of connection points: 4
#     Node 11, Type 0, BuildingBlock: GALJAG_clean_sbu_0, # of connection points: 4
#     Node 12, Type 0, BuildingBlock: GALJAG_clean_sbu_0, # of connection points: 4
#     Node 13, Type 0, BuildingBlock: GALJAG_clean_sbu_0, # of connection points: 4
#     Node 14, Type 0, BuildingBlock: GALJAG_clean_sbu_0, # of connection points: 4
#     Node 15, Type 0, BuildingBlock: GALJAG_clean_sbu_0, # of connection points: 4
#     Node 16, Type 0, BuildingBlock: GALJAG_clean_sbu_0, # of connection points: 4
#     Node 17, Type 0, BuildingBlock: GALJAG_clean_sbu_0, # of connection points: 4
#     Node 18, Type 1, BuildingBlock: GIZVER_clean_linker_0, # of connection points: 4
#     Node 19, Type 1, BuildingBlock: GIZVER_clean_linker_0, # of connection points: 4
#     Node 20, Type 1, BuildingBlock: GIZVER_clean_linker_0, # of connection points: 4
#     Node 21, Type 1, BuildingBlock: GIZVER_clean_linker_0, # of connection points: 4
#     Node 22, Type 1, BuildingBlock: GIZVER_clean_linker_0, # of connection points: 4
#     Node 23, Type 1, BuildingBlock: GIZVER_clean_linker_0, # of connection points: 4
#     Node 24, Type 1, BuildingBlock: GIZVER_clean_linker_0, # of connection points: 4
#     Node 25, Type 1, BuildingBlock: GIZVER_clean_linker_0, # of connection points: 4
#     Node 26, Type 1, BuildingBlock: GIZVER_clean_linker_0, # of connection points: 4
#     Node 27, Type 1, BuildingBlock: GIZVER_clean_linker_0, # of connection points: 4
#     Node 28, Type 1, BuildingBlock: GIZVER_clean_linker_0, # of connection points: 4
#     Node 29, Type 1, BuildingBlock: GIZVER_clean_linker_0, # of connection points: 4
#     Node 30, Type 1, BuildingBlock: GIZVER_clean_linker_0, # of connection points: 4
#     Node 31, Type 1, BuildingBlock: GIZVER_clean_linker_0, # of connection points: 4
#     Node 32, Type 1, BuildingBlock: GIZVER_clean_linker_0, # of connection points: 4
#     Node 33, Type 1, BuildingBlock: GIZVER_clean_linker_0, # of connection points: 4
#     Node 34, Type 1, BuildingBlock: GIZVER_clean_linker_0, # of connection points: 4
#     Node 35, Type 1, BuildingBlock: GIZVER_clean_linker_0, # of connection points: 4
#     Edge 36, Type (0, 1), BuildingBlock: AJUNOK_clean_linker_0, # of connection points: 2
#     Edge 37, Type (0, 1), BuildingBlock: AJUNOK_clean_linker_0, # of connection points: 2
#     Edge 38, Type (0, 1), BuildingBlock: AJUNOK_clean_linker_0, # of connection points: 2
#     Edge 39, Type (0, 1), BuildingBlock: AJUNOK_clean_linker_0, # of connection points: 2
#     Edge 40, Type (0, 1), BuildingBlock: AJUNOK_clean_linker_0, # of connection points: 2
#     Edge 41, Type (0, 1), BuildingBlock: AJUNOK_clean_linker_0, # of connection points: 2
#     Edge 42, Type (0, 1), BuildingBlock: AJUNOK_clean_linker_0, # of connection points: 2
#     Edge 43, Type (0, 1), BuildingBlock: AJUNOK_clean_linker_0, # of connection points: 2
#     Edge 44, Type (0, 1), BuildingBlock: AJUNOK_clean_linker_0, # of connection points: 2
#     Edge 45, Type (0, 1), BuildingBlock: AJUNOK_clean_linker_0, # of connection points: 2
#     Edge 46, Type (0, 1), BuildingBlock: AJUNOK_clean_linker_0, # of connection points: 2
#     Edge 47, Type (0, 1), BuildingBlock: AJUNOK_clean_linker_0, # of connection points: 2
#     Edge 48, Type (0, 1), BuildingBlock: AJUNOK_clean_linker_0, # of connection points: 2
#     Edge 49, Type (0, 1), BuildingBlock: AJUNOK_clean_linker_0, # of connection points: 2
#     Edge 50, Type (0, 1), BuildingBlock: AJUNOK_clean_linker_0, # of connection points: 2
#     Edge 51, Type (0, 1), BuildingBlock: AJUNOK_clean_linker_0, # of connection points: 2
#     Edge 52, Type (0, 1), BuildingBlock: AJUNOK_clean_linker_0, # of connection points: 2
#     Edge 53, Type (0, 1), BuildingBlock: AJUNOK_clean_linker_0, # of connection points: 2
#     Edge 54, Type (0, 1), BuildingBlock: AJUNOK_clean_linker_0, # of connection points: 2
#     Edge 55, Type (0, 1), BuildingBlock: AJUNOK_clean_linker_0, # of connection points: 2
#     Edge 56, Type (0, 1), BuildingBlock: AJUNOK_clean_linker_0, # of connection points: 2
#     Edge 57, Type (0, 1), BuildingBlock: AJUNOK_clean_linker_0, # of connection points: 2
#     Edge 58, Type (0, 1), BuildingBlock: AJUNOK_clean_linker_0, # of connection points: 2
#     Edge 59, Type (0, 1), BuildingBlock: AJUNOK_clean_linker_0, # of connection points: 2
#     Edge 60, Type (0, 1), BuildingBlock: AJUNOK_clean_linker_0, # of connection points: 2
#     Edge 61, Type (0, 1), BuildingBlock: AJUNOK_clean_linker_0, # of connection points: 2
#     Edge 62, Type (0, 1), BuildingBlock: AJUNOK_clean_linker_0, # of connection points: 2
#     Edge 63, Type (0, 1), BuildingBlock: AJUNOK_clean_linker_0, # of connection points: 2
#     Edge 64, Type (0, 1), BuildingBlock: AJUNOK_clean_linker_0, # of connection points: 2
#     Edge 65, Type (0, 1), BuildingBlock: AJUNOK_clean_linker_0, # of connection points: 2
#     Edge 66, Type (0, 1), BuildingBlock: AJUNOK_clean_linker_0, # of connection points: 2
#     Edge 67, Type (0, 1), BuildingBlock: AJUNOK_clean_linker_0, # of connection points: 2
#     Edge 68, Type (0, 1), BuildingBlock: AJUNOK_clean_linker_0, # of connection points: 2
#     Edge 69, Type (0, 1), BuildingBlock: AJUNOK_clean_linker_0, # of connection points: 2
#     Edge 70, Type (0, 1), BuildingBlock: AJUNOK_clean_linker_0, # of connection points: 2
#     Edge 71, Type (0, 1), BuildingBlock: AJUNOK_clean_linker_0, # of connection points: 2
#     Edge 72, Type (0, 1), BuildingBlock: AJUNOK_clean_linker_0, # of connection points: 2
#     Edge 73, Type (0, 1), BuildingBlock: AJUNOK_clean_linker_0, # of connection points: 2
#     Edge 74, Type (0, 1), BuildingBlock: AJUNOK_clean_linker_0, # of connection points: 2
#     Edge 75, Type (0, 1), BuildingBlock: AJUNOK_clean_linker_0, # of connection points: 2
#     Edge 76, Type (0, 1), BuildingBlock: AJUNOK_clean_linker_0, # of connection points: 2
#     Edge 77, Type (0, 1), BuildingBlock: AJUNOK_clean_linker_0, # of connection points: 2
#     Edge 78, Type (0, 1), BuildingBlock: AJUNOK_clean_linker_0, # of connection points: 2
#     Edge 79, Type (0, 1), BuildingBlock: AJUNOK_clean_linker_0, # of connection points: 2
#     Edge 80, Type (0, 1), BuildingBlock: AJUNOK_clean_linker_0, # of connection points: 2
#     Edge 81, Type (0, 1), BuildingBlock: AJUNOK_clean_linker_0, # of connection points: 2
#     Edge 82, Type (0, 1), BuildingBlock: AJUNOK_clean_linker_0, # of connection points: 2
#     Edge 83, Type (0, 1), BuildingBlock: AJUNOK_clean_linker_0, # of connection points: 2
#     Edge 84, Type (0, 1), BuildingBlock: AJUNOK_clean_linker_0, # of connection points: 2
#     Edge 85, Type (0, 1), BuildingBlock: AJUNOK_clean_linker_0, # of connection points: 2
#     Edge 86, Type (0, 1), BuildingBlock: AJUNOK_clean_linker_0, # of connection points: 2
#     Edge 87, Type (0, 1), BuildingBlock: AJUNOK_clean_linker_0, # of connection points: 2
#     Edge 88, Type (0, 1), BuildingBlock: AJUNOK_clean_linker_0, # of connection points: 2
#     Edge 89, Type (0, 1), BuildingBlock: AJUNOK_clean_linker_0, # of connection points: 2
#     Edge 90, Type (0, 1), BuildingBlock: AJUNOK_clean_linker_0, # of connection points: 2
#     Edge 91, Type (0, 1), BuildingBlock: AJUNOK_clean_linker_0, # of connection points: 2
#     Edge 92, Type (0, 1), BuildingBlock: AJUNOK_clean_linker_0, # of connection points: 2
#     Edge 93, Type (0, 1), BuildingBlock: AJUNOK_clean_linker_0, # of connection points: 2
#     Edge 94, Type (0, 1), BuildingBlock: AJUNOK_clean_linker_0, # of connection points: 2
#     Edge 95, Type (0, 1), BuildingBlock: AJUNOK_clean_linker_0, # of connection points: 2
#     Edge 96, Type (0, 1), BuildingBlock: AJUNOK_clean_linker_0, # of connection points: 2
#     Edge 97, Type (0, 1), BuildingBlock: AJUNOK_clean_linker_0, # of connection points: 2
#     Edge 98, Type (0, 1), BuildingBlock: AJUNOK_clean_linker_0, # of connection points: 2
#     Edge 99, Type (0, 1), BuildingBlock: AJUNOK_clean_linker_0, # of connection points: 2
#     Edge 100, Type (0, 1), BuildingBlock: AJUNOK_clean_linker_0, # of connection points: 2
#     Edge 101, Type (0, 1), BuildingBlock: AJUNOK_clean_linker_0, # of connection points: 2
#     Edge 102, Type (0, 1), BuildingBlock: AJUNOK_clean_linker_0, # of connection points: 2
#     Edge 103, Type (0, 1), BuildingBlock: AJUNOK_clean_linker_0, # of connection points: 2
#     Edge 104, Type (0, 1), BuildingBlock: AJUNOK_clean_linker_0, # of connection points: 2
#     Edge 105, Type (0, 1), BuildingBlock: AJUNOK_clean_linker_0, # of connection points: 2
#     Edge 106, Type (0, 1), BuildingBlock: AJUNOK_clean_linker_0, # of connection points: 2
#     Edge 107, Type (0, 1), BuildingBlock: AJUNOK_clean_linker_0, # of connection points: 2
# Relax obj value: 0.069
# Max RMSD: 0.094
# Mean RMSD: 0.093
data_MOF--net-ptr--node1-GALJAG_clean_sbu_0--node2-GIZVER_clean_linker_0--edge1-AJUNOK_clean_linker_0
_symmetry_space_group_name_H-M    P1
_symmetry_Int_Tables_number       1
_symmetry_cell_setting            triclinic
loop_
_symmetry_equiv_pos_as_xyz
'x, y, z'
_cell_length_a     58.3856
_cell_length_b     58.386403
_cell_length_c     38.435097
_cell_angle_alpha  90.314997
_cell_angle_beta   90.382029
_cell_angle_gamma 120.16431
loop_
_atom_site_label
_atom_site_type_symbol
_atom_site_fract_x
_atom_site_fract_y
_atom_site_fract_z
_atom_type_partial_charge
In0 In 0.01883 0.39406 0.00818 0.0
O1 O 0.01337 0.39419 0.0667 0.0
O2 O 0.01831 0.42758 0.03865 0.0
C3 C 0.97875 0.3431 0.00148 0.0
C4 C 0.06545 0.39524 0.0197 0.0
C5 C 0.01661 0.41902 0.94984 0.0
O6 O 0.97517 0.3612 0.01352 0.0
O7 O 1.00236 0.35065 0.99336 0.0
O8 O 0.03791 0.42078 0.96058 0.0
O9 O 0.99684 0.40452 0.96809 0.0
C10 C 0.01551 0.4168 0.06782 0.0
O11 O 0.06117 0.41331 0.02987 0.0
O12 O 0.04669 0.37721 0.002 0.0
In13 In 0.646 0.6388 0.01372 0.0
O14 O 0.64115 0.61519 0.06353 0.0
O15 O 0.61133 0.62441 0.05077 0.0
C16 C 0.69258 0.64074 0.0007 0.0
C17 C 0.65529 0.68841 0.02626 0.0
C18 C 0.62104 0.61514 0.95332 0.0
O19 O 0.67158 0.61926 0.00705 0.0
O20 O 0.69013 0.66095 0.00265 0.0
O21 O 0.64088 0.63815 0.95492 0.0
O22 O 0.61272 0.60443 0.98237 0.0
C23 C 0.61932 0.61329 0.0716 0.0
O24 O 0.63614 0.67213 0.00731 0.0
O25 O 0.66928 0.67954 0.03884 0.0
In26 In 0.39207 0.0105 0.00994 0.0
O27 O 0.36875 0.02952 0.99026 0.0
O28 O 0.40743 0.05536 0.01005 0.0
C29 C 0.41871 0.00941 0.06707 0.0
C30 C 0.41648 0.00838 0.95128 0.0
C31 C 0.34422 0.96907 0.02692 0.0
O32 O 0.41299 0.02733 0.06231 0.0
O33 O 0.41109 0.99231 0.04303 0.0
O34 O 0.35224 0.99251 0.0371 0.0
O35 O 0.36026 0.96646 0.00776 0.0
C36 C 0.38647 0.05306 -0.00303 0.0
O37 O 0.39163 0.99692 0.95398 0.0
O38 O 0.42903 0.02116 0.97806 0.0
In39 In 0.01268 0.63558 0.01192 0.0
O40 O 0.03193 0.6306 0.9627 0.0
O41 O 0.99196 0.60184 0.97248 0.0
C42 C 0.0566 0.68371 0.02202 0.0
C43 C 0.97108 0.64273 -0.00025 0.0
C44 C 0.01236 0.61194 0.07268 0.0
O45 O 0.05788 0.66307 0.01609 0.0
O46 O 0.03339 0.67997 0.02198 0.0
O47 O 1.00796 0.63091 0.07062 0.0
O48 O 0.01582 0.60391 0.04381 0.0
C49 C 0.01146 0.6097 0.95255 0.0
O50 O 0.99415 0.65824 0.98901 0.0
O51 O 0.9687 0.62317 0.0167 0.0
In52 In 0.3923 0.39194 0.01605 0.0
O53 O 0.39858 0.4126 0.96346 0.0
O54 O 0.43132 0.41235 0.98704 0.0
C55 C 0.34233 0.38113 0.02833 0.0
C56 C 0.38559 0.34369 0.00031 0.0
C57 C 0.41709 0.42108 0.0736 0.0
O58 O 0.35845 0.40104 0.01105 0.0
O59 O 0.35151 0.36706 0.03959 0.0
O60 O 0.41461 0.39864 0.0678 0.0
O61 O 0.40689 0.4286 0.05065 0.0
C62 C 0.4227 0.41924 0.96148 0.0
O63 O 0.40231 0.35886 0.02281 0.0
O64 O 0.37225 0.35277 0.98621 0.0
In65 In 0.64157 0.01708 0.01182 0.0
O66 O 0.63971 0.03097 0.06718 0.0
O67 O 0.60349 1.00493 0.04119 0.0
C68 C 0.69135 0.05956 0.00572 0.0
C69 C 0.64572 0.97335 0.02206 0.0
C70 C 0.61528 0.01657 0.95289 0.0
O71 O 0.67097 0.06167 0.00804 0.0
O72 O 0.68679 0.03612 0.00818 0.0
O73 O 0.61615 0.99648 0.96287 0.0
O74 O 0.62752 0.03647 0.97248 0.0
C75 C 0.61471 0.01792 0.06851 0.0
O76 O 0.65618 0.98838 -0.00366 0.0
O77 O 0.63308 0.98024 0.04188 0.0
In78 In 0.6864 0.73203 0.33964 0.0
O79 O 0.67921 0.73014 0.39805 0.0
O80 O 0.69059 0.76659 0.37312 0.0
C81 C 0.64164 0.68381 0.33039 0.0
C82 C 0.73196 0.73065 0.34689 0.0
C83 C 0.69009 0.7597 0.28156 0.0
O84 O 0.64283 0.70534 0.3228 0.0
O85 O 0.66272 0.68666 0.34353 0.0
O86 O 0.70396 0.74894 0.28634 0.0
O87 O 0.67462 0.75658 0.30609 0.0
C88 C 0.68521 0.75403 0.40121 0.0
O89 O 0.72928 0.74946 0.35834 0.0
O90 O 0.71216 0.71333 0.32986 0.0
In91 In 0.30902 0.96852 0.35085 0.0
O92 O 0.30947 0.9553 0.40673 0.0
O93 O 0.2722 0.94111 0.38195 0.0
C94 C 0.35773 0.97716 0.33433 0.0
C95 C 0.31373 0.01635 0.36473 0.0
C96 C 0.28256 0.94042 0.29343 0.0
O97 O 0.34233 0.95838 0.3538 0.0
O98 O 0.34844 0.99118 0.32324 0.0
O99 O 0.28739 0.96378 0.29896 0.0
O100 O 0.29123 0.93154 0.31666 0.0
C101 C 0.28461 0.9412 0.40888 0.0
O102 O 0.29207 0.99658 0.35506 0.0
O103 O 0.3326 0.01184 0.36776 0.0
In104 In 0.05764 0.34915 0.34471 0.0
O105 O 0.0712 0.39335 0.34928 0.0
O106 O 0.03561 0.36838 0.32116 0.0
C107 C 0.08306 0.34584 0.40225 0.0
C108 C 0.0846 0.35062 0.28676 0.0
C109 C 1.00801 0.30867 0.35671 0.0
O110 O 0.07527 0.36237 0.39969 0.0
O111 O 0.07816 0.33122 0.37584 0.0
O112 O 0.01631 0.33204 0.36734 0.0
O113 O 0.02479 0.30553 0.34 0.0
C114 C 0.05186 0.39148 0.33197 0.0
O115 O 0.06129 0.33224 0.29243 0.0
O116 O 0.09419 0.36832 0.31008 0.0
In117 In 0.68704 0.96745 0.34455 0.0
O118 O 0.70232 0.97159 0.28897 0.0
O119 O 0.67992 0.93287 0.3091 0.0
C120 C 0.72841 0.01451 0.36593 0.0
C121 C 0.64457 0.97264 0.32889 0.0
C122 C 0.68341 0.93856 0.40125 0.0
O123 O 0.70457 0.00755 0.37178 0.0
O124 O 0.73158 0.99767 0.34918 0.0
O125 O 0.66755 0.94686 0.39549 0.0
O126 O 0.70085 0.94474 0.37836 0.0
C127 C 0.69254 0.94707 0.28373 0.0
O128 O 0.66815 0.99152 0.32797 0.0
O129 O 0.6422 0.9507 0.33743 0.0
In130 In 0.05655 0.7202 0.34713 0.0
O131 O 0.06299 0.71946 0.28877 0.0
O132 O 0.08771 0.75552 0.31536 0.0
C133 C 1.00755 0.71325 0.35614 0.0
C134 C 0.05015 0.67105 0.34182 0.0
C135 C 0.08341 0.74699 0.4053 0.0
O136 O 0.02426 0.73125 0.33677 0.0
O137 O 0.01564 0.69931 0.37071 0.0
O138 O 0.08472 0.72755 0.39324 0.0
O139 O 0.06841 0.75259 0.38829 0.0
C140 C 0.08221 0.74274 0.28714 0.0
O141 O 0.03142 0.67577 0.33839 0.0
O142 O 0.07235 0.69123 0.34901 0.0
In143 In 0.30784 0.34694 0.34284 0.0
O144 O 0.29756 0.30337 0.3408 0.0
O145 O 0.33176 0.33091 0.36953 0.0
C146 C 0.28014 0.34487 0.28476 0.0
C147 C 0.27933 0.34418 0.39955 0.0
C148 C 0.35553 0.39025 0.3291 0.0
O149 O 0.29257 0.33244 0.28737 0.0
O150 O 0.28193 0.35846 0.31125 0.0
O151 O 0.33686 0.39201 0.3428 0.0
O152 O 0.3501 0.36688 0.32241 0.0
C153 C 0.31716 0.30726 0.35934 0.0
O154 O 0.30281 0.3628 0.39528 0.0
O155 O 0.27055 0.3271 0.37545 0.0
In156 In 0.34976 0.05521 0.67993 0.0
O157 O 0.39311 0.06513 0.67544 0.0
O158 O 0.36658 0.03151 0.7048 0.0
C159 C 0.34675 0.08062 0.62282 0.0
C160 C 0.35247 0.08399 0.73706 0.0
C161 C 0.30917 1.00606 0.66544 0.0
O162 O 0.36635 0.07766 0.62899 0.0
O163 O 0.32884 0.07078 0.6453 0.0
O164 O 0.30605 0.02259 0.68307 0.0
O165 O 0.33248 0.01442 0.65497 0.0
C166 C 0.38976 0.04571 0.69354 0.0
O167 O 0.33498 0.05998 0.73309 0.0
O168 O 0.36855 0.09336 0.71236 0.0
In169 In 0.97543 0.30571 0.68534 0.0
O170 O 0.96379 0.33777 0.67973 0.0
O171 O 0.99928 0.34754 0.70734 0.0
C172 C 0.95014 0.28294 0.62472 0.0
C173 C 0.95008 0.27986 0.74385 0.0
C174 C 0.02192 0.30724 0.67338 0.0
O175 O 0.97081 0.30536 0.62647 0.0
O176 O 0.94149 0.27228 0.65371 0.0
O177 O 1.00026 0.28577 0.67651 0.0
O178 O 0.02016 0.32772 0.67773 0.0
C179 C 0.98391 0.3552 0.69614 0.0
O180 O 0.9711 0.28094 0.7337 0.0
O181 O 0.94226 0.29216 0.72493 0.0
In182 In 0.7217 0.67807 0.671 0.0
O183 O 0.73269 0.72144 0.67883 0.0
O184 O 0.69809 0.69604 0.64911 0.0
C185 C 0.74801 0.67254 0.72596 0.0
C186 C 0.74852 0.68127 0.61217 0.0
C187 C 0.67246 0.63765 0.68411 0.0
O188 O 0.74082 0.65768 0.69952 0.0
O189 O 0.74238 0.69073 0.72459 0.0
O190 O 0.68776 0.63531 0.66322 0.0
O191 O 0.68197 0.66024 0.69814 0.0
C192 C 0.71288 0.71886 0.6619 0.0
O193 O 0.72583 0.66198 0.61844 0.0
O194 O 0.75755 0.69916 0.63528 0.0
In195 In 0.34916 0.30453 0.67898 0.0
O196 O 0.36709 0.30013 0.62851 0.0
O197 O 0.32953 0.26831 0.64298 0.0
C198 C 0.38842 0.35389 0.69569 0.0
C199 C 0.30825 0.31214 0.66374 0.0
C200 C 0.35355 0.27826 0.7342 0.0
O201 O 0.3916 0.33934 0.67415 0.0
O202 O 0.36558 0.34354 0.70863 0.0
O203 O 0.33527 0.28375 0.73161 0.0
O204 O 0.36904 0.28559 0.7088 0.0
C205 C 0.34809 0.27728 0.62133 0.0
O206 O 0.30536 0.29289 0.68187 0.0
O207 O 0.33154 0.3272 0.65331 0.0
In208 In 0.7277 0.06487 0.67918 0.0
O209 O 0.73244 0.08642 0.62786 0.0
O210 O 0.76724 0.09204 0.65349 0.0
C211 C 0.67642 0.05188 0.68828 0.0
C212 C 0.72624 0.01991 0.65796 0.0
C213 C 0.75275 0.08999 0.73911 0.0
O214 O 0.6943 0.07485 0.68008 0.0
O215 O 0.68427 0.03542 0.69111 0.0
O216 O 0.75443 0.07085 0.72665 0.0
O217 O 0.73852 0.09622 0.72142 0.0
C218 C 0.75737 0.09701 0.62732 0.0
O219 O 0.72494 0.02462 0.68983 0.0
O220 O 0.72748 0.03729 0.6375 0.0
In221 In 0.97062 0.67775 0.67024 0.0
O222 O 0.95344 0.63529 0.68966 0.0
O223 O 0.98919 0.65173 0.66143 0.0
C224 C 0.94456 0.67889 0.61193 0.0
C225 C 0.94826 0.67878 0.73119 0.0
C226 C 0.02095 0.71892 0.66433 0.0
O227 O 0.9437 0.658 0.6222 0.0
O228 O 0.95866 0.6989 0.6307 0.0
O229 O 1.00216 0.72215 0.67416 0.0
O230 O 0.01438 0.69518 0.65817 0.0
C231 C 0.97214 0.63237 0.67866 0.0
O232 O 0.97157 0.68287 0.72914 0.0
O233 O 0.93666 0.67568 0.70232 0.0
H234 H 0.15507 0.33599 0.16486 0.0
H235 H 0.15592 0.36017 0.05882 0.0
H236 H 0.11813 0.38105 0.13852 0.0
H237 H 0.16045 0.31195 0.1119 0.0
H238 H 0.16895 0.32821 0.07109 0.0
H239 H 0.19292 0.33406 0.16447 0.0
H240 H 0.27363 0.36593 0.13362 0.0
H241 H 0.21457 0.35274 0.05673 0.0
C242 C 0.15119 0.34722 0.1458 0.0
C243 C 0.13697 0.35962 0.15579 0.0
C244 C 0.15905 0.34806 0.11102 0.0
C245 C 0.15146 0.36074 0.08603 0.0
C246 C 0.13685 0.3729 0.09583 0.0
C247 C 0.13034 0.37275 0.13091 0.0
C248 C 0.17143 0.3318 0.0997 0.0
C249 C 0.20046 0.34401 0.10984 0.0
C250 C 0.20783 0.34274 0.14457 0.0
C251 C 0.23422 0.35064 0.15318 0.0
C252 C 0.25333 0.36036 0.12718 0.0
C253 C 0.24641 0.36103 0.09255 0.0
C254 C 0.22004 0.35313 0.08381 0.0
H255 H 0.70497 0.84369 0.15608 0.0
H256 H 0.68722 0.81763 0.04878 0.0
H257 H 0.67121 0.76167 0.1302 0.0
H258 H 0.73002 0.87301 0.09993 0.0
H259 H 0.71134 0.86378 0.06052 0.0
H260 H 0.71155 0.88401 0.15408 0.0
H261 H 0.66939 0.92433 0.13009 0.0
H262 H 0.68157 0.88006 0.04991 0.0
C263 C 0.69613 0.82814 0.13667 0.0
C264 C 0.68705 0.80201 0.14704 0.0
C265 C 0.69562 0.83416 0.1012 0.0
C266 C 0.68626 0.81334 0.0763 0.0
C267 C 0.67739 0.7872 0.08685 0.0
C268 C 0.67738 0.78174 0.12216 0.0
C269 C 0.70943 0.86282 0.08933 0.0
C270 C 0.69636 0.87835 0.10122 0.0
C271 C 0.69985 0.88793 0.13576 0.0
C272 C 0.68976 0.90412 0.14635 0.0
C273 C 0.67665 0.9113 0.12204 0.0
C274 C 0.67385 0.90307 0.08722 0.0
C275 C 0.68341 0.88624 0.07691 0.0
H276 H 0.18127 0.80427 0.18023 0.0
H277 H 0.17469 0.78967 0.06941 0.0
H278 H 0.10518 0.75563 0.1328 0.0
H279 H 0.21919 0.80752 0.14258 0.0
H280 H 0.21722 0.80939 0.09659 0.0
H281 H 0.21789 0.84428 0.18027 0.0
H282 H 0.27006 0.92081 0.13862 0.0
H283 H 0.23831 0.85222 0.07167 0.0
C284 C 0.16934 0.79675 0.1568 0.0
C285 C 0.14181 0.78071 0.15984 0.0
C286 C 0.18151 0.80094 0.124 0.0
C287 C 0.16557 0.78812 0.09441 0.0
C288 C 0.13799 0.77196 0.09749 0.0
C289 C 0.12633 0.76899 0.13007 0.0
C290 C 0.21145 0.81484 0.12147 0.0
C291 C 0.22504 0.84475 0.12505 0.0
C292 C 0.22718 0.85652 0.1579 0.0
C293 C 0.24273 0.88405 0.16262 0.0
C294 C 0.25652 0.89982 0.13434 0.0
C295 C 0.25528 0.88864 0.10153 0.0
C296 C 0.23904 0.86107 0.09681 0.0
H297 H 0.3888 0.21792 0.84921 0.0
H298 H 0.3963 0.23657 0.95885 0.0
H299 H 0.36306 0.26958 0.88876 0.0
H300 H 0.42434 0.21717 0.89057 0.0
H301 H 0.41839 0.21497 0.93605 0.0
H302 H 0.38651 0.18013 0.85029 0.0
H303 H 0.36065 0.10353 0.89215 0.0
H304 H 0.39824 0.1718 0.95943 0.0
C305 C 0.38492 0.22682 0.87134 0.0
C306 C 0.37357 0.24271 0.86554 0.0
C307 C 0.39257 0.22373 0.90506 0.0
C308 C 0.38942 0.23772 0.93302 0.0
C309 C 0.37877 0.25436 0.92729 0.0
C310 C 0.37036 0.25608 0.89365 0.0
C311 C 0.4083 0.20964 0.91017 0.0
C312 C 0.39223 0.17965 0.906 0.0
C313 C 0.38305 0.16797 0.87283 0.0
C314 C 0.37076 0.14044 0.86797 0.0
C315 C 0.36835 0.12456 0.89634 0.0
C316 C 0.37818 0.13561 0.92927 0.0
C317 C 0.38992 0.16317 0.93418 0.0
H318 H 0.8791 0.19207 0.86346 0.0
H319 H 0.88321 0.21383 0.97178 0.0
H320 H 0.92136 0.27378 0.89432 0.0
H321 H 0.87146 0.1601 0.91419 0.0
H322 H 0.86484 0.16807 0.95635 0.0
H323 H 0.8395 0.15508 0.86308 0.0
H324 H 0.75822 0.11504 0.89364 0.0
H325 H 0.81952 0.15059 0.97176 0.0
C326 C 0.88451 0.20695 0.88362 0.0
C327 C 0.89991 0.23377 0.87482 0.0
C328 C 0.87718 0.19943 0.91843 0.0
C329 C 0.88696 0.21928 0.94464 0.0
C330 C 0.90288 0.24612 0.93588 0.0
C331 C 0.90843 0.25314 0.90095 0.0
C332 C 0.8624 0.17031 0.92806 0.0
C333 C 0.83315 0.15625 0.91841 0.0
C334 C 0.825 0.14975 0.88336 0.0
C335 C 0.79802 0.13551 0.87433 0.0
C336 C 0.77906 0.12713 0.90051 0.0
C337 C 0.7866 0.13224 0.93561 0.0
C338 C 0.81367 0.14702 0.94456 0.0
H339 H 0.8513 0.63631 0.83762 0.0
H340 H 0.85375 0.62813 0.94874 0.0
H341 H 0.92593 0.67123 0.89169 0.0
H342 H 0.81301 0.60051 0.87132 0.0
H343 H 0.81295 0.60211 0.91758 0.0
H344 H 0.81156 0.63718 0.83628 0.0
H345 H 0.75905 0.66036 0.88135 0.0
H346 H 0.79199 0.62362 0.94501 0.0
C347 C 0.86241 0.64143 0.86185 0.0
C348 C 0.89023 0.65515 0.86102 0.0
C349 C 0.84896 0.63239 0.89364 0.0
C350 C 0.8638 0.63667 0.92456 0.0
C351 C 0.89162 0.65061 0.92393 0.0
C352 C 0.90447 0.66079 0.89236 0.0
C353 C 0.81915 0.61452 0.89381 0.0
C354 C 0.8044 0.62964 0.89121 0.0
C355 C 0.80173 0.63927 0.85883 0.0
C356 C 0.78536 0.65037 0.855 0.0
C357 C 0.77243 0.65266 0.88426 0.0
C358 C 0.77482 0.64322 0.91674 0.0
C359 C 0.79079 0.63167 0.92016 0.0
H360 H 0.81945 0.66808 0.49022 0.0
H361 H 0.82233 0.69379 0.38455 0.0
H362 H 0.78228 0.71282 0.46322 0.0
H363 H 0.82702 0.6454 0.43777 0.0
H364 H 0.83538 0.66176 0.39696 0.0
H365 H 0.85875 0.66929 0.49092 0.0
H366 H 0.94024 0.70452 0.46222 0.0
H367 H 0.88108 0.68654 0.38326 0.0
C368 C 0.81572 0.67939 0.47113 0.0
C369 C 0.80116 0.6915 0.48087 0.0
C370 C 0.82431 0.68084 0.43662 0.0
C371 C 0.81706 0.69371 0.41155 0.0
C372 C 0.80176 0.70521 0.42095 0.0
C373 C 0.7947 0.70469 0.45587 0.0
C374 C 0.83753 0.66528 0.42558 0.0
C375 C 0.86654 0.6784 0.43616 0.0
C376 C 0.87377 0.67809 0.47119 0.0
C377 C 0.90038 0.68793 0.48068 0.0
C378 C 0.91984 0.69807 0.45511 0.0
C379 C 0.91301 0.69735 0.42002 0.0
C380 C 0.88641 0.68783 0.41056 0.0
H381 H 0.36154 0.16646 0.5019 0.0
H382 H 0.34261 0.14311 0.39411 0.0
H383 H 0.31977 0.08436 0.47365 0.0
H384 H 0.38625 0.19714 0.4497 0.0
H385 H 0.37053 0.18884 0.40801 0.0
H386 H 0.36085 0.20379 0.50126 0.0
H387 H 0.32482 0.24874 0.4704 0.0
H388 H 0.34605 0.20986 0.39252 0.0
C389 C 0.35133 0.15137 0.48214 0.0
C390 C 0.33911 0.12469 0.4918 0.0
C391 C 0.35147 0.15839 0.44704 0.0
C392 C 0.34085 0.13809 0.42144 0.0
C393 C 0.32949 0.11134 0.431 0.0
C394 C 0.32778 0.10489 0.46624 0.0
C395 C 0.36656 0.1873 0.43642 0.0
C396 C 0.35273 0.20262 0.44595 0.0
C397 C 0.35202 0.20962 0.48092 0.0
C398 C 0.34139 0.22568 0.48975 0.0
C399 C 0.33173 0.23517 0.46361 0.0
C400 C 0.33373 0.22991 0.42858 0.0
C401 C 0.34383 0.21329 0.41971 0.0
H402 H 0.85254 0.15534 0.5129 0.0
H403 H 0.8435 0.12287 0.40932 0.0
H404 H 0.77606 0.09623 0.47554 0.0
H405 H 0.88984 0.15012 0.47733 0.0
H406 H 0.88687 0.15031 0.43132 0.0
H407 H 0.89435 0.1881 0.51365 0.0
H408 H 0.93293 0.2633 0.46329 0.0
H409 H 0.90284 0.19182 0.40243 0.0
C410 C 0.84015 0.14309 0.4917 0.0
C411 C 0.8128 0.12723 0.49711 0.0
C412 C 0.85152 0.14209 0.45987 0.0
C413 C 0.83498 0.12449 0.43352 0.0
C414 C 0.80766 0.10805 0.43899 0.0
C415 C 0.79685 0.10986 0.47061 0.0
C416 C 0.8814 0.15644 0.45591 0.0
C417 C 0.89436 0.18637 0.45752 0.0
C418 C 0.89935 0.19946 0.48997 0.0
C419 C 0.91281 0.22722 0.49219 0.0
C420 C 0.9217 0.24186 0.46155 0.0
C421 C 0.919 0.22942 0.42928 0.0
C422 C 0.90468 0.20158 0.42722 0.0
H423 H 0.05176 0.55545 0.17999 0.0
H424 H 0.06314 0.56734 0.29077 0.0
H425 H 0.01691 0.59412 0.23585 0.0
H426 H 0.0874 0.55201 0.21252 0.0
H427 H 0.08745 0.5513 0.25884 0.0
H428 H 0.05258 0.51356 0.1781 0.0
H429 H 0.02167 0.43817 0.22772 0.0
H430 H 0.06362 0.50974 0.28835 0.0
C431 C 0.04722 0.5617 0.2043 0.0
C432 C 0.03343 0.57572 0.20391 0.0
C433 C 0.05699 0.55748 0.23582 0.0
C434 C 0.05375 0.56842 0.2669 0.0
C435 C 0.03964 0.58204 0.26683 0.0
C436 C 0.02809 0.58391 0.23571 0.0
C437 C 0.0742 0.54491 0.23551 0.0
C438 C 0.05801 0.51497 0.23383 0.0
C439 C 0.04839 0.50194 0.20151 0.0
C440 C 0.03539 0.47415 0.19909 0.0
C441 C 0.0314 0.45959 0.22954 0.0
C442 C 0.04228 0.47208 0.2615 0.0
C443 C 0.055 0.49986 0.26377 0.0
H444 H 0.54608 0.52929 0.19455 0.0
H445 H 0.54526 0.55597 0.29927 0.0
H446 H 0.58773 0.61216 0.21893 0.0
H447 H 0.535 0.49932 0.24788 0.0
H448 H 0.52811 0.50966 0.28824 0.0
H449 H 0.50426 0.49597 0.19384 0.0
H450 H 0.42262 0.45316 0.22221 0.0
H451 H 0.4825 0.48867 0.30202 0.0
C452 C 0.55075 0.54506 0.21311 0.0
C453 C 0.56666 0.5714 0.20259 0.0
C454 C 0.54177 0.53917 0.2477 0.0
C455 C 0.55057 0.56019 0.27215 0.0
C456 C 0.56732 0.58659 0.26188 0.0
C457 C 0.57442 0.59192 0.2269 0.0
C458 C 0.52616 0.51055 0.25953 0.0
C459 C 0.49701 0.49644 0.24904 0.0
C460 C 0.48946 0.4902 0.21377 0.0
C461 C 0.46266 0.47512 0.2041 0.0
C462 C 0.44324 0.46596 0.22968 0.0
C463 C 0.45021 0.47042 0.26494 0.0
C464 C 0.47709 0.48589 0.27466 0.0
H465 H 0.52037 0.98315 0.18204 0.0
H466 H 0.52751 0.96315 0.28789 0.0
H467 H 0.59625 1.00331 0.22405 0.0
H468 H 0.48271 0.94155 0.21784 0.0
H469 H 0.48457 0.94557 0.26376 0.0
H470 H 0.48055 0.97651 0.17972 0.0
H471 H 0.43135 1.00367 0.22338 0.0
H472 H 0.46443 0.96837 0.28963 0.0
C473 C 0.53233 0.98442 0.20424 0.0
C474 C 0.55984 0.99613 0.1999 0.0
C475 C 0.5203 0.97301 0.23618 0.0
C476 C 0.53641 0.97301 0.26374 0.0
C477 C 0.56389 0.98445 0.25952 0.0
C478 C 0.57532 0.99608 0.2278 0.0
C479 C 0.49029 0.95676 0.23898 0.0
C480 C 0.47622 0.97261 0.23559 0.0
C481 C 0.47269 0.98082 0.20258 0.0
C482 C 0.4575 0.9931 0.19835 0.0
C483 C 0.44486 0.99623 0.22721 0.0
C484 C 0.44713 0.98738 0.26017 0.0
C485 C 0.46317 0.97588 0.2644 0.0
H486 H 0.48684 0.992 0.83025 0.0
H487 H 0.48482 0.01126 0.72238 0.0
H488 H 0.44357 0.02998 0.79912 0.0
H489 H 0.49564 0.96865 0.77951 0.0
H490 H 0.50231 0.98323 0.73753 0.0
H491 H 0.52733 0.99569 0.83086 0.0
H492 H 0.6087 0.03738 0.80049 0.0
H493 H 0.54749 0.01155 0.72237 0.0
C494 C 0.48167 1.00166 0.8103 0.0
C495 C 0.46511 0.01179 0.81883 0.0
C496 C 0.48975 1.00212 0.77562 0.0
C497 C 0.48033 0.01233 0.74944 0.0
C498 C 0.4637 0.0224 0.75807 0.0
C499 C 0.45689 0.02271 0.79274 0.0
C500 C 0.50465 0.98797 0.76586 0.0
C501 C 0.53382 1.00345 0.77565 0.0
C502 C 0.54189 1.00502 0.81067 0.0
C503 C 0.56886 0.01775 0.81969 0.0
C504 C 0.58788 0.0286 0.79361 0.0
C505 C 0.58035 0.02616 0.75855 0.0
C506 C 0.55332 0.01388 0.74958 0.0
H507 H 0.03102 0.5064 0.83018 0.0
H508 H 0.01494 0.48384 0.72172 0.0
H509 H 0.99271 0.42458 0.80026 0.0
H510 H 0.05602 0.53808 0.77883 0.0
H511 H 0.04111 0.52973 0.73664 0.0
H512 H 0.0309 0.54478 0.82908 0.0
H513 H 0.98757 0.58247 0.79747 0.0
H514 H 1.01048 0.54401 0.72082 0.0
C515 C 0.02193 0.49138 0.81006 0.0
C516 C 1.01054 0.46466 0.81925 0.0
C517 C 0.02248 0.4986 0.77495 0.0
C518 C 0.01291 0.4786 0.74898 0.0
C519 C 1.00212 0.45189 0.75819 0.0
C520 C 1.00025 0.44512 0.79327 0.0
C521 C 0.0366 0.5276 0.76491 0.0
C522 C 0.02122 0.54137 0.7741 0.0
C523 C 0.02076 0.54909 0.80877 0.0
C524 C 1.00792 0.56316 0.81733 0.0
C525 C 0.99621 0.57034 0.79093 0.0
C526 C 0.99735 0.56394 0.75601 0.0
C527 C 1.00943 0.54895 0.74775 0.0
H528 H 0.51804 0.48248 0.84626 0.0
H529 H 0.50466 0.45978 0.73787 0.0
H530 H 0.4394 0.4298 0.80846 0.0
H531 H 0.55281 0.47992 0.80645 0.0
H532 H 0.54866 0.48047 0.76066 0.0
H533 H 0.55936 0.51863 0.84415 0.0
H534 H 0.60171 0.5936 0.79367 0.0
H535 H 0.56503 0.52199 0.73233 0.0
C536 C 0.50464 0.47251 0.82466 0.0
C537 C 0.4774 0.4569 0.83095 0.0
C538 C 0.51474 0.47394 0.79107 0.0
C539 C 0.49705 0.4597 0.76354 0.0
C540 C 0.4697 0.44417 0.76952 0.0
C541 C 0.4602 0.44313 0.8032 0.0
C542 C 0.54436 0.48693 0.78587 0.0
C543 C 0.55851 0.51689 0.78783 0.0
C544 C 0.56501 0.52998 0.82043 0.0
C545 C 0.58076 0.55767 0.82257 0.0
C546 C 0.58931 0.57223 0.79189 0.0
C547 C 0.5847 0.55962 0.75939 0.0
C548 C 0.56855 0.53192 0.75735 0.0
H549 H 0.70688 0.87389 0.52248 0.0
H550 H 0.73437 0.91112 0.62323 0.0
H551 H 0.69309 0.93606 0.5547 0.0
H552 H 0.75238 0.88297 0.56014 0.0
H553 H 0.74624 0.87976 0.60543 0.0
H554 H 0.72227 0.84623 0.51818 0.0
H555 H 0.68531 0.76852 0.5615 0.0
H556 H 0.72057 0.83658 0.62938 0.0
C557 C 0.7075 0.88696 0.54285 0.0
C558 C 0.69725 0.90364 0.5356 0.0
C559 C 0.72036 0.8888 0.57481 0.0
C560 C 0.7229 0.90798 0.59959 0.0
C561 C 0.71287 0.92488 0.59233 0.0
C562 C 0.69945 0.92198 0.56088 0.0
C563 C 0.73619 0.8748 0.57952 0.0
C564 C 0.72039 0.84492 0.57451 0.0
C565 C 0.71508 0.83362 0.54074 0.0
C566 C 0.70237 0.80604 0.53599 0.0
C567 C 0.69482 0.7898 0.56521 0.0
C568 C 0.70222 0.80056 0.59878 0.0
C569 C 0.71442 0.82814 0.60348 0.0
H570 H 0.21213 0.85412 0.52885 0.0
H571 H 0.21227 0.87676 0.63604 0.0
H572 H 0.25581 0.93588 0.55962 0.0
H573 H 0.20166 0.82235 0.58002 0.0
H574 H 0.1947 0.83099 0.62151 0.0
H575 H 0.17092 0.81849 0.52759 0.0
H576 H 0.08919 0.77649 0.55633 0.0
H577 H 0.14934 0.81306 0.63564 0.0
C578 C 0.21709 0.86923 0.54858 0.0
C579 C 0.23417 0.89586 0.54007 0.0
C580 C 0.20819 0.86204 0.58304 0.0
C581 C 0.21737 0.88201 0.60905 0.0
C582 C 0.23453 0.90862 0.60045 0.0
C583 C 0.24212 0.91534 0.56596 0.0
C584 C 0.19274 0.83304 0.59304 0.0
C585 C 0.16367 0.81936 0.58264 0.0
C586 C 0.15606 0.81285 0.54746 0.0
C587 C 0.12923 0.79771 0.53789 0.0
C588 C 0.10987 0.78919 0.56358 0.0
C589 C 0.11694 0.79439 0.5988 0.0
C590 C 0.14385 0.80972 0.60832 0.0
H591 H 0.18208 0.30906 0.50952 0.0
H592 H 0.19088 0.29952 0.61911 0.0
H593 H 0.25917 0.33767 0.55383 0.0
H594 H 0.14543 0.27242 0.54657 0.0
H595 H 0.14796 0.2754 0.5927 0.0
H596 H 0.14512 0.31088 0.51188 0.0
H597 H 0.09242 0.3326 0.55907 0.0
H598 H 0.12553 0.29484 0.62033 0.0
C599 C 0.19447 0.3132 0.53238 0.0
C600 C 0.22208 0.32624 0.52843 0.0
C601 C 0.18291 0.30417 0.56524 0.0
C602 C 0.1995 0.30761 0.59408 0.0
C603 C 0.22713 0.3201 0.59016 0.0
C604 C 0.23808 0.32956 0.55741 0.0
C605 C 0.15305 0.2871 0.56834 0.0
C606 C 0.13856 0.30259 0.56684 0.0
C607 C 0.1358 0.31286 0.53499 0.0
C608 C 0.11976 0.32438 0.53218 0.0
C609 C 0.10618 0.32532 0.56155 0.0
C610 C 0.10808 0.3147 0.59331 0.0
C611 C 0.12455 0.30363 0.59602 0.0
C612 C 0.03 0.42528 0.12947 0.0
C613 C 0.01874 0.43105 0.10094 0.0
C614 C 0.03559 0.43967 0.16053 0.0
C615 C 0.02942 0.45997 0.16493 0.0
H616 H 0.0354 0.41008 0.12748 0.0
H617 H 0.04525 0.43498 0.18115 0.0
S618 S 0.99882 0.48216 0.09812 0.0
N619 N 1.00161 0.45843 0.07849 0.0
N620 N 1.0108 0.48468 0.13792 0.0
C621 C 0.01789 0.46581 0.1366 0.0
C622 C 0.01277 0.45148 0.10445 0.0
C623 C 0.58429 0.60465 0.11497 0.0
C624 C 0.60452 0.60006 0.1035 0.0
C625 C 0.57116 0.59414 0.14631 0.0
C626 C 0.57736 0.57821 0.167 0.0
H627 H 0.57915 0.61723 0.10026 0.0
H628 H 0.55655 0.59912 0.15496 0.0
S629 S 0.62742 0.55876 0.14796 0.0
N630 N 0.62926 0.57749 0.1148 0.0
N631 N 0.60418 0.55746 0.17356 0.0
C632 C 0.59671 0.57253 0.1553 0.0
C633 C 0.61041 0.58354 0.12358 0.0
C634 C 0.43264 0.98403 0.1052 0.0
C635 C 0.43171 1.00731 0.09912 0.0
C636 C 0.44232 0.98015 0.13671 0.0
C637 C 0.45158 0.99948 0.16328 0.0
H638 H 0.4249 0.96818 0.08599 0.0
H639 H 0.44134 0.96135 0.14086 0.0
S640 S 0.45671 0.06535 0.15878 0.0
N641 N 0.44308 0.05095 0.12117 0.0
N642 N 0.46171 0.0438 0.18024 0.0
C643 C 0.45215 0.02346 0.15683 0.0
C644 C 0.44213 0.02735 0.1248 0.0
C645 C 0.41414 0.99561 0.88884 0.0
C646 C 0.42964 0.0076 0.91881 0.0
C647 C 0.42588 0.99617 0.85703 0.0
C648 C 0.45356 0.00861 0.85389 0.0
H649 H 0.39276 0.98628 0.88965 0.0
H650 H 0.41317 0.98728 0.83442 0.0
S651 S 0.50305 0.04111 0.9248 0.0
N652 N 0.47423 0.03095 0.94373 0.0
N653 N 0.49618 0.03189 0.88355 0.0
C654 C 0.46931 0.01965 0.88382 0.0
C655 C 0.45737 0.01923 0.91635 0.0
C656 C 0.03783 0.45144 0.90142 0.0
C657 C 0.01473 0.43252 0.9183 0.0
C658 C 0.03637 0.46333 0.87045 0.0
C659 C 0.01177 0.45654 0.85525 0.0
H660 H 0.05719 0.45671 0.91177 0.0
H661 H 0.05457 0.47694 0.85743 0.0
S662 S 0.94549 0.40951 0.8898 0.0
N663 N 0.96645 0.40874 0.91819 0.0
N664 N 0.96396 0.43086 0.85984 0.0
C665 C 0.9886 0.43843 0.8724 0.0
C666 C 0.99001 0.42648 0.90398 0.0
C667 C 0.58377 0.58145 0.91596 0.0
C668 C 0.61071 0.6007 0.92008 0.0
C669 C 0.57408 0.56723 0.88451 0.0
C670 C 0.59114 0.57157 0.85649 0.0
H671 H 0.57007 0.57764 0.93697 0.0
H672 H 0.5531 0.55308 0.88191 0.0
S673 S 0.66411 0.61673 0.85658 0.0
N674 N 0.65461 0.62165 0.89488 0.0
N675 N 0.6368 0.59424 0.83663 0.0
C676 C 0.61835 0.5899 0.86109 0.0
C677 C 0.62803 0.60468 0.89265 0.0
C678 C 0.03353 0.60123 0.90245 0.0
C679 C 1.0101 0.59604 0.91935 0.0
C680 C 0.03268 0.58949 0.87012 0.0
C681 C 1.00839 0.57249 0.85339 0.0
H682 H 0.05268 0.61467 0.91408 0.0
H683 H 0.05115 0.5945 0.85755 0.0
S684 S 0.94145 0.55187 0.88682 0.0
N685 N 0.96188 0.572 0.91722 0.0
N686 N 0.96044 0.55038 0.8563 0.0
C687 C 0.98486 0.56674 0.87024 0.0
C688 C 0.98567 0.57838 0.90329 0.0
C689 C 0.42941 0.44236 0.90473 0.0
C690 C 0.43901 0.43233 0.93061 0.0
C691 C 0.44298 0.45203 0.87345 0.0
C692 C 0.46658 0.45188 0.86674 0.0
H693 H 0.41085 0.44203 0.90819 0.0
H694 H 0.43438 0.45873 0.85374 0.0
S695 S 0.50072 0.42882 0.92672 0.0
N696 N 0.4744 0.4242 0.94829 0.0
N697 N 0.49945 0.44166 0.88911 0.0
C698 C 0.47703 0.443 0.89303 0.0
C699 C 0.46333 0.43336 0.92504 0.0
C700 C 0.5839 0.99339 0.90308 0.0
C701 C 0.60173 0.01714 0.92045 0.0
C702 C 0.57198 0.99365 0.87135 0.0
C703 C 0.57775 0.01767 0.85577 0.0
H704 H 0.57945 0.97448 0.91377 0.0
H705 H 0.55907 0.97501 0.85817 0.0
S706 S 0.62201 0.08519 0.89102 0.0
N707 N 0.62357 0.06533 0.92018 0.0
N708 N 0.60147 0.06561 0.86032 0.0
C709 C 0.5949 0.04146 0.87322 0.0
C710 C 0.6068 0.04125 0.90564 0.0
C711 C 0.57395 0.99357 0.10416 0.0
C712 C 0.59974 0.01532 0.10064 0.0
C713 C 0.56052 0.98835 0.13581 0.0
C714 C 0.57223 1.00487 0.1651 0.0
H715 H 0.56451 0.97964 0.08282 0.0
H716 H 0.54144 0.97042 0.13777 0.0
S717 S 0.63759 0.06688 0.16775 0.0
N718 N 0.63537 0.05505 0.12796 0.0
N719 N 0.60976 0.0458 0.18715 0.0
C720 C 0.59724 0.02776 0.16115 0.0
C721 C 0.61109 0.03285 0.12903 0.0
C722 C 0.0125 0.57655 0.10956 0.0
C723 C 0.01635 0.60226 0.10639 0.0
C724 C 0.01768 0.56788 0.14118 0.0
C725 C 0.02741 0.5848 0.17054 0.0
H726 H 1.00532 0.56302 0.0875 0.0
H727 H 0.01402 0.54779 0.14262 0.0
S728 S 0.0435 0.6551 0.17406 0.0
N729 N 0.03138 0.64484 0.13456 0.0
N730 N 0.0429 0.62949 0.19288 0.0
C731 C 0.03204 0.61087 0.16713 0.0
C732 C 0.02604 0.61934 0.13538 0.0
C733 C 0.44859 0.43244 0.12374 0.0
C734 C 0.43057 0.43712 0.10501 0.0
C735 C 0.46048 0.44634 0.15468 0.0
C736 C 0.45447 0.46511 0.16814 0.0
H737 H 0.4532 0.41761 0.11475 0.0
H738 H 0.47347 0.44146 0.16905 0.0
S739 S 0.40939 0.48535 0.12877 0.0
N740 N 0.4082 0.46275 0.10159 0.0
N741 N 0.43011 0.48829 0.16027 0.0
C742 C 0.43709 0.47049 0.1493 0.0
C743 C 0.42528 0.45667 0.11756 0.0
C744 C 0.6832 0.7873 0.44069 0.0
C745 C 0.68942 0.76718 0.4354 0.0
C746 C 0.68783 0.80027 0.47312 0.0
C747 C 0.69926 0.79381 0.50096 0.0
H748 H 0.67432 0.79273 0.41984 0.0
H749 H 0.68201 0.81506 0.47662 0.0
S750 S 0.72335 0.74577 0.49801 0.0
N751 N 0.7098 0.74321 0.4593 0.0
N752 N 0.71975 0.76833 0.51942 0.0
C753 C 0.70683 0.77468 0.49517 0.0
C754 C 0.70155 0.76114 0.46261 0.0
C755 C 0.28622 0.93043 0.47124 0.0
C756 C 0.27113 0.92692 0.44095 0.0
C757 C 0.27403 0.91918 0.50277 0.0
C758 C 0.24628 0.90388 0.50526 0.0
H759 H 0.30761 0.94261 0.47092 0.0
H760 H 0.28641 0.92309 0.52569 0.0
S761 S 0.19777 0.88674 0.43324 0.0
N762 N 0.22686 0.90548 0.415 0.0
N763 N 0.20408 0.88441 0.47462 0.0
C764 C 0.23096 0.89909 0.47497 0.0
C765 C 0.24335 0.91065 0.44274 0.0
C766 C 0.09754 0.31973 0.4381 0.0
C767 C 0.09532 0.3425 0.43428 0.0
C768 C 0.10668 0.31464 0.46929 0.0
C769 C 0.11414 0.33224 0.49782 0.0
H770 H 0.09124 0.30515 0.41729 0.0
H771 H 0.10675 0.2962 0.47154 0.0
S772 S 0.11547 0.39644 0.49967 0.0
N773 N 0.10354 0.38395 0.46068 0.0
N774 N 0.12124 0.37464 0.51906 0.0
C775 C 0.11339 0.35579 0.4937 0.0
C776 C 0.10387 0.36087 0.46202 0.0
C777 C 0.12011 0.37655 0.24369 0.0
C778 C 0.09924 0.35197 0.2548 0.0
C779 C 0.13302 0.37877 0.21217 0.0
C780 C 0.12595 0.35639 0.19114 0.0
H781 H 0.1259 0.39438 0.25883 0.0
H782 H 0.14822 0.39819 0.20378 0.0
S783 S 0.07386 0.28735 0.20928 0.0
N784 N 0.07285 0.30466 0.24277 0.0
N785 N 0.09755 0.30886 0.18389 0.0
C786 C 0.10587 0.33159 0.2025 0.0
C787 C 0.09239 0.32937 0.23426 0.0
C788 C 0.70922 0.77705 0.22308 0.0
C789 C 0.69087 0.77359 0.249 0.0
C790 C 0.70877 0.78774 0.19072 0.0
C791 C 0.69011 0.79554 0.1832 0.0
H792 H 0.72355 0.77072 0.22738 0.0
H793 H 0.72252 0.78907 0.17094 0.0
S794 S 0.63824 0.79142 0.24186 0.0
N795 N 0.65392 0.77966 0.26501 0.0
N796 N 0.6533 0.79976 0.20395 0.0
C797 C 0.6723 0.79316 0.20907 0.0
C798 C 0.67264 0.78218 0.24207 0.0
C799 C 0.26754 0.90037 0.25568 0.0
C800 C 0.26909 0.92494 0.2616 0.0
C801 C 0.25736 0.88636 0.22437 0.0
C802 C 0.24826 0.89636 0.19783 0.0
H803 H 0.27518 0.89229 0.27483 0.0
H804 H 0.25794 0.86829 0.22025 0.0
S805 S 0.24458 0.9579 0.20202 0.0
N806 N 0.25829 0.9574 0.23951 0.0
N807 N 0.23888 0.93085 0.18076 0.0
C808 C 0.2482 0.92008 0.20419 0.0
C809 C 0.25868 0.93442 0.23604 0.0
C810 C 0.70394 0.95246 0.22073 0.0
C811 C 0.6944 0.93591 0.24985 0.0
C812 C 0.70347 0.94213 0.18762 0.0
C813 C 0.69361 0.91486 0.18234 0.0
H814 H 0.71103 0.97347 0.22324 0.0
H815 H 0.71028 0.95551 0.16576 0.0
S816 S 0.6688 0.86344 0.25041 0.0
N817 N 0.67667 0.89113 0.27168 0.0
N818 N 0.67576 0.87175 0.20921 0.0
C819 C 0.68531 0.89827 0.21142 0.0
C820 C 0.68565 0.90877 0.24522 0.0
C821 C 0.11036 0.77982 0.24653 0.0
C822 C 0.09858 0.75295 0.2557 0.0
C823 C 0.12531 0.78923 0.21595 0.0
C824 C 0.12917 0.77207 0.19415 0.0
H825 H 0.1074 0.79342 0.26253 0.0
H826 H 0.13325 0.80976 0.20883 0.0
S827 S 0.1065 0.70134 0.20983 0.0
N828 N 0.09431 0.71018 0.24253 0.0
N829 N 0.12263 0.72797 0.18564 0.0
C830 C 0.11868 0.74561 0.20409 0.0
C831 C 0.10331 0.736 0.23473 0.0
C832 C 0.26694 0.33104 0.22292 0.0
C833 C 0.26564 0.34441 0.25269 0.0
C834 C 0.25549 0.33212 0.19132 0.0
C835 C 0.24217 0.3465 0.18823 0.0
H836 H 0.27757 0.32027 0.22366 0.0
H837 H 0.25774 0.32221 0.16878 0.0
S838 S 0.2311 0.38313 0.25882 0.0
N839 N 0.24832 0.37109 0.27756 0.0
N840 N 0.22686 0.37304 0.21783 0.0
C841 C 0.23953 0.35888 0.21804 0.0
C842 C 0.25131 0.35791 0.25034 0.0
C843 C 0.23944 0.31795 0.43622 0.0
C844 C 0.26357 0.34159 0.43087 0.0
C845 C 0.22519 0.31376 0.46701 0.0
C846 C 0.23447 0.3331 0.49357 0.0
H847 H 0.23192 0.30209 0.41705 0.0
H848 H 0.20752 0.2947 0.47075 0.0
S849 S 0.29456 0.39979 0.49058 0.0
N850 N 0.29479 0.38556 0.45343 0.0
N851 N 0.26777 0.3778 0.5111 0.0
C852 C 0.25772 0.35743 0.4877 0.0
C853 C 0.27233 0.36165 0.45643 0.0
C854 C 0.70405 0.9196 0.43989 0.0
C855 C 0.68339 0.92489 0.43361 0.0
C856 C 0.70712 0.91055 0.47227 0.0
C857 C 0.68957 0.90633 0.4996 0.0
H858 H 0.71885 0.92376 0.42027 0.0
H859 H 0.72441 0.90859 0.47657 0.0
S860 S 0.62963 0.91283 0.49481 0.0
N861 N 0.64322 0.92214 0.45612 0.0
N862 N 0.64889 0.90482 0.51695 0.0
C863 C 0.66763 0.90951 0.49282 0.0
C864 C 0.66455 0.91885 0.45984 0.0
C865 C 0.09054 0.77917 0.45303 0.0
C866 C 0.09744 0.76163 0.43741 0.0
C867 C 0.10189 0.79182 0.48479 0.0
C868 C 0.1209 0.78777 0.50183 0.0
H869 H 0.07558 0.78253 0.44124 0.0
H870 H 0.09525 0.80433 0.49661 0.0
S871 S 0.14706 0.74511 0.47113 0.0
N872 N 0.12544 0.74183 0.44076 0.0
N873 N 0.14688 0.76581 0.50042 0.0
C874 C 0.12881 0.77116 0.48591 0.0
C875 C 0.11703 0.75802 0.45372 0.0
C876 C 0.37829 0.12413 0.77471 0.0
C877 C 0.35504 0.09959 0.76884 0.0
C878 C 0.38257 0.1381 0.8061 0.0
C879 C 0.36369 0.12814 0.83271 0.0
H880 H 0.39383 0.13213 0.75549 0.0
H881 H 0.40139 0.15613 0.81021 0.0
S882 S 0.29793 0.0668 0.82847 0.0
N883 N 0.3118 0.06725 0.79098 0.0
N884 N 0.3197 0.09379 0.84974 0.0
C885 C 0.33967 0.10449 0.82633 0.0
C886 C 0.33539 0.09015 0.79448 0.0
C887 C 0.91719 0.27156 0.79036 0.0
C888 C 0.9359 0.26594 0.77573 0.0
C889 C 0.90464 0.26006 0.82169 0.0
C890 C 0.90991 0.24211 0.83916 0.0
H891 H 0.91282 0.28562 0.77814 0.0
H892 H 0.89121 0.26576 0.83283 0.0
S893 S 0.95594 0.21948 0.81102 0.0
N894 N 0.95822 0.24034 0.78053 0.0
N895 N 0.93427 0.21851 0.83926 0.0
C896 C 0.92775 0.2355 0.82424 0.0
C897 C 0.94085 0.2475 0.79257 0.0
C898 C 0.76961 0.68617 0.78482 0.0
C899 C 0.76032 0.66786 0.75699 0.0
C900 C 0.77895 0.68097 0.8158 0.0
C901 C 0.7793 0.65722 0.8202 0.0
H902 H 0.7691 0.70442 0.78304 0.0
H903 H 0.78532 0.69537 0.83684 0.0
S904 S 0.75755 0.6029 0.755 0.0
N905 N 0.75286 0.62533 0.73545 0.0
N906 N 0.76978 0.61534 0.79388 0.0
C907 C 0.77082 0.63909 0.79219 0.0
C908 C 0.76146 0.64445 0.76056 0.0
C909 C 0.78298 0.70803 0.56824 0.0
C910 C 0.76311 0.68313 0.57996 0.0
C911 C 0.79592 0.71053 0.53665 0.0
C912 C 0.7899 0.68816 0.51613 0.0
H913 H 0.78798 0.72583 0.583 0.0
H914 H 0.81039 0.73013 0.52787 0.0
S915 S 0.74057 0.61843 0.53588 0.0
N916 N 0.73873 0.63557 0.56899 0.0
N917 N 0.76345 0.64034 0.50997 0.0
C918 C 0.77078 0.6631 0.52806 0.0
C919 C 0.75726 0.66057 0.55988 0.0
C920 C 0.36743 0.1109 0.57241 0.0
C921 C 0.34459 0.09389 0.59129 0.0
C922 C 0.36567 0.12237 0.54126 0.0
C923 C 0.34099 0.11691 0.52775 0.0
H924 H 0.38677 0.11503 0.58144 0.0
H925 H 0.38359 0.13457 0.5268 0.0
S926 S 0.27541 0.07452 0.56743 0.0
N927 N 0.2966 0.07308 0.59474 0.0
N928 N 0.29343 0.0942 0.53574 0.0
C929 C 0.31812 0.10056 0.54673 0.0
C930 C 0.31989 0.08918 0.57866 0.0
C931 C 0.95585 0.27643 0.5623 0.0
C932 C 0.93915 0.26912 0.59121 0.0
C933 C 0.94711 0.26264 0.53075 0.0
C934 C 0.92103 0.24131 0.52639 0.0
H935 H 0.97621 0.29246 0.5643 0.0
H936 H 0.96121 0.26853 0.50977 0.0
S937 S 0.86894 0.21522 0.59377 0.0
N938 N 0.89519 0.23945 0.6137 0.0
N939 N 0.87823 0.21417 0.55357 0.0
C940 C 0.90391 0.23404 0.55498 0.0
C941 C 0.91305 0.24783 0.58752 0.0
C942 C 0.32248 0.2428 0.57591 0.0
C943 C 0.3471 0.26252 0.58944 0.0
C944 C 0.32079 0.23002 0.54419 0.0
C945 C 0.34369 0.23604 0.52549 0.0
H946 H 0.30431 0.23793 0.5892 0.0
H947 H 0.30143 0.21582 0.53377 0.0
S948 S 0.41291 0.28474 0.55058 0.0
N949 N 0.39493 0.28659 0.58229 0.0
N950 N 0.39165 0.26209 0.52303 0.0
C951 C 0.36844 0.25487 0.53935 0.0
C952 C 0.37018 0.26825 0.57127 0.0
C953 C 0.79896 0.114 0.59321 0.0
C954 C 0.77327 0.11026 0.59617 0.0
C955 C 0.81255 0.12144 0.56161 0.0
C956 C 0.80102 0.12561 0.53185 0.0
H957 H 0.80806 0.10957 0.61483 0.0
H958 H 0.83143 0.1222 0.55997 0.0
S959 S 0.73648 0.12349 0.52764 0.0
N960 N 0.73837 0.11475 0.56788 0.0
N961 N 0.76417 0.1293 0.50869 0.0
C962 C 0.77637 0.12423 0.53531 0.0
C963 C 0.76244 0.11643 0.5674 0.0
C964 C 0.93824 0.70541 0.56609 0.0
C965 C 0.93103 0.68043 0.57999 0.0
C966 C 0.92723 0.70772 0.53472 0.0
C967 C 0.90822 0.68516 0.51642 0.0
H968 H 0.95316 0.72338 0.57893 0.0
H969 H 0.93415 0.72727 0.52418 0.0
S970 S 0.88139 0.61528 0.54231 0.0
N971 N 0.90285 0.63267 0.57354 0.0
N972 N 0.88195 0.63714 0.5147 0.0
C973 C 0.90005 0.66012 0.53057 0.0
C974 C 0.91152 0.65771 0.56232 0.0
C975 C 0.91378 0.67958 0.76904 0.0
C976 C 0.93426 0.67378 0.76462 0.0
C977 C 0.8994 0.67343 0.80017 0.0
C978 C 0.90479 0.66091 0.82761 0.0
H979 H 0.90897 0.68908 0.74841 0.0
H980 H 0.88417 0.67871 0.80291 0.0
S981 S 0.95373 0.6379 0.82653 0.0
N982 N 0.95773 0.65297 0.78898 0.0
N983 N 0.93009 0.64032 0.84652 0.0
C984 C 0.92455 0.65408 0.82276 0.0
C985 C 0.93947 0.66084 0.79154 0.0
C986 C 0.33855 0.25622 0.79183 0.0
C987 C 0.35771 0.2661 0.76556 0.0
C988 C 0.34327 0.24727 0.82336 0.0
C989 C 0.36737 0.24797 0.82991 0.0
H990 H 0.32002 0.25602 0.78842 0.0
H991 H 0.32824 0.2405 0.84325 0.0
S992 S 0.42375 0.27127 0.76923 0.0
N993 N 0.40133 0.27498 0.74761 0.0
N994 N 0.4104 0.25884 0.80721 0.0
C995 C 0.38632 0.2569 0.8034 0.0
C996 C 0.38145 0.26582 0.77116 0.0
C997 C 0.78482 0.09891 0.78811 0.0
C998 C 0.76582 0.10365 0.77219 0.0
C999 C 0.79636 0.11052 0.82038 0.0
C1000 C 0.78907 0.12703 0.83797 0.0
H1001 H 0.79052 0.08579 0.77587 0.0
H1002 H 0.81024 0.10567 0.83232 0.0
S1003 S 0.74151 0.14701 0.80691 0.0
N1004 N 0.74131 0.12719 0.77595 0.0
N1005 N 0.76279 0.1486 0.83668 0.0
C1006 C 0.77076 0.13257 0.82194 0.0
C1007 C 0.7592 0.121 0.78902 0.0
C1008 C 0.08894 0.36944 0.0265 0.0
C1009 C 0.08829 0.39294 0.0326 0.0
C1010 C 0.10668 0.36412 0.04473 0.0
C1011 C 0.12441 0.38211 0.0697 0.0
H1012 H 0.07449 0.35423 0.00924 0.0
H1013 H 0.10506 0.34494 0.04119 0.0
S1014 S 0.13406 0.44843 0.09085 0.0
N1015 N 0.10958 0.43588 0.062 0.0
N1016 N 0.14275 0.42576 0.09614 0.0
C1017 C 0.1256 0.40662 0.07371 0.0
C1018 C 0.10761 0.41208 0.05518 0.0
C1019 C 0.68693 0.73522 0.04311 0.0
C1020 C 0.66086 0.71555 0.03449 0.0
C1021 C 0.69251 0.75988 0.05647 0.0
C1022 C 0.6722 0.76568 0.06204 0.0
H1023 H 0.70303 0.73112 0.04094 0.0
H1024 H 0.71259 0.77379 0.06493 0.0
S1025 S 0.60095 0.72183 0.04172 0.0
N1026 N 0.61478 0.70429 0.03008 0.0
N1027 N 0.62532 0.75052 0.05637 0.0
C1028 C 0.64629 0.74684 0.05178 0.0
C1029 C 0.64061 0.72179 0.03763 0.0
C1030 C 0.29916 0.95112 0.0519 0.0
C1031 C 0.31897 0.94647 0.03908 0.0
C1032 C 0.27703 0.93127 0.06905 0.0
C1033 C 0.27404 0.90608 0.07457 0.0
H1034 H 0.3013 0.97061 0.04997 0.0
H1035 H 0.26298 0.93619 0.08004 0.0
S1036 S 0.31923 0.88315 0.04336 0.0
N1037 N 0.33303 0.91413 0.03021 0.0
N1038 N 0.29187 0.87703 0.06354 0.0
C1039 C 0.29278 0.9006 0.05978 0.0
C1040 C 0.31518 0.92078 0.04184 0.0
C1041 C 0.40609 0.10116 0.98256 0.0
C1042 C 0.38354 0.07603 0.98733 0.0
C1043 C 0.404 0.12179 0.96702 0.0
C1044 C 0.37928 0.11799 0.95606 0.0
H1045 H 0.42565 0.10438 0.98862 0.0
H1046 H 0.422 0.14003 0.96098 0.0
S1047 S 0.3139 0.0578 0.96889 0.0
N1048 N 0.33542 0.04989 0.98446 0.0
N1049 N 0.33161 0.08867 0.95554 0.0
C1050 C 0.35645 0.09387 0.96383 0.0
C1051 C 0.35855 0.07286 0.97935 0.0
C1052 C 0.93204 0.31212 0.98216 0.0
C1053 C 0.95683 0.31605 0.99311 0.0
C1054 C 0.91309 0.2881 0.96648 0.0
C1055 C 0.91802 0.26703 0.96225 0.0
H1056 H 0.92808 0.32835 0.98314 0.0
H1057 H 0.89525 0.28662 0.95549 0.0
S1058 S 0.97823 0.26606 0.99082 0.0
N1059 N 0.98419 0.296 0.00164 0.0
N1060 N 0.94829 0.25074 0.97305 0.0
C1061 C 0.94174 0.26996 0.9758 0.0
C1062 C 0.96123 0.29452 0.99104 0.0
C1063 C 0.71646 0.61836 0.9772 0.0
C1064 C 0.71675 0.64189 0.98652 0.0
C1065 C 0.73674 0.61897 0.95701 0.0
C1066 C 0.75795 0.64311 0.94545 0.0
H1067 H 0.69967 0.59928 0.98368 0.0
H1068 H 0.73486 0.6004 0.94834 0.0
S1069 S 0.7703 0.7103 0.96701 0.0
N1070 N 0.74198 0.69014 0.98609 0.0
N1071 N 0.77968 0.69103 0.94781 0.0
C1072 C 0.75954 0.66674 0.95678 0.0
C1073 C 0.73907 0.6662 0.97745 0.0
C1074 C 0.92327 0.62344 0.98362 0.0
C1075 C 0.94837 0.64588 0.9895 0.0
C1076 C 0.90334 0.62551 0.96572 0.0
C1077 C 0.90785 0.65012 0.9535 0.0
H1078 H 0.91974 0.60391 0.9902 0.0
H1079 H 0.88528 0.60745 0.95861 0.0
S1080 S 0.96794 0.71541 0.96973 0.0
N1081 N 0.97507 0.69388 0.98704 0.0
N1082 N 0.93745 0.69778 0.95407 0.0
C1083 C 0.93173 0.67297 0.96296 0.0
C1084 C 0.95208 0.67085 0.98071 0.0
C1085 C 0.35886 0.29854 0.97422 0.0
C1086 C 0.38292 0.31816 0.98903 0.0
C1087 C 0.35693 0.27623 0.95752 0.0
C1088 C 0.37913 0.27293 0.95432 0.0
H1089 H 0.34166 0.30099 0.97419 0.0
H1090 H 0.33834 0.26235 0.9449 0.0
S1091 S 0.44609 0.31752 0.99155 0.0
N1092 N 0.42874 0.33167 0.0025 0.0
N1093 N 0.42542 0.29023 0.96988 0.0
C1094 C 0.40281 0.29145 0.97123 0.0
C1095 C 0.40465 0.314 0.9888 0.0
C1096 C 0.73999 0.07865 -0.00403 0.0
C1097 C 0.71762 0.08184 0.99541 0.0
C1098 C 0.76363 0.09688 0.97963 0.0
C1099 C 0.76564 0.1188 0.96193 0.0
H1100 H 0.73878 0.06115 0.00739 0.0
H1101 H 0.77968 0.09265 0.97847 0.0
S1102 S 0.71413 0.13794 0.95595 0.0
N1103 N 0.70012 0.11029 0.97855 0.0
N1104 N 0.74435 0.14406 0.94731 0.0
C1105 C 0.74417 0.12327 0.9633 0.0
C1106 C 0.72022 0.10493 0.98023 0.0
C1107 C 0.63299 0.93207 0.05496 0.0
C1108 C 0.64998 0.95107 0.03102 0.0
C1109 C 0.6394 0.91423 0.07014 0.0
C1110 C 0.6632 0.91484 0.06225 0.0
H1111 H 0.61529 0.93195 0.06358 0.0
H1112 H 0.62664 0.90122 0.09024 0.0
S1113 S 0.71287 0.95845 -0.00202 0.0
N1114 N 0.69015 0.9674 -0.00288 0.0
N1115 N 0.7025 0.93418 0.02638 0.0
C1116 C 0.67923 0.93213 0.03614 0.0
C1117 C 0.67257 0.95022 0.02037 0.0
C1118 C 0.10419 0.71088 0.04081 0.0
C1119 C 0.07984 0.70935 0.03305 0.0
C1120 C 0.12452 0.73294 0.05851 0.0
C1121 C 0.12116 0.75418 0.06897 0.0
H1122 H 0.10693 0.69419 0.03536 0.0
H1123 H 0.14202 0.73235 0.06661 0.0
S1124 S 0.06334 0.76212 0.04963 0.0
N1125 N 0.0552 0.73285 0.03291 0.0
N1126 N 0.09331 0.77397 0.06655 0.0
C1127 C 0.09799 0.75398 0.0586 0.0
C1128 C 0.07734 0.73165 0.04052 0.0
C1129 C 0.31053 0.39642 0.04384 0.0
C1130 C 0.31536 0.37551 0.03699 0.0
C1131 C 0.28657 0.39153 0.05877 0.0
C1132 C 0.26651 0.36557 0.06621 0.0
H1133 H 0.32605 0.41675 0.04014 0.0
H1134 H 0.28446 0.4082 0.06674 0.0
S1135 S 0.26803 0.30392 0.0487 0.0
N1136 N 0.29717 0.32784 0.03565 0.0
N1137 N 0.25202 0.31874 0.06277 0.0
C1138 C 0.27031 0.34448 0.05673 0.0
C1139 C 0.29479 0.34943 0.04233 0.0
C1140 C 0.77323 0.74496 0.38207 0.0
C1141 C 0.75423 0.72686 0.35824 0.0
C1142 C 0.79049 0.73889 0.39999 0.0
C1143 C 0.78957 0.71458 0.39465 0.0
H1144 H 0.77363 0.7632 0.38876 0.0
H1145 H 0.80347 0.75259 0.41987 0.0
S1146 S 0.74622 0.66201 0.33148 0.0
N1147 N 0.73777 0.68493 0.32725 0.0
N1148 N 0.77006 0.67351 0.36122 0.0
C1149 C 0.77236 0.69736 0.36868 0.0
C1150 C 0.75472 0.70351 0.35041 0.0
C1151 C 0.29514 0.04347 0.38885 0.0
C1152 C 0.31661 0.04224 0.37451 0.0
C1153 C 0.29881 0.06692 0.40445 0.0
C1154 C 0.3239 0.09006 0.40537 0.0
H1155 H 0.27582 0.02576 0.39025 0.0
H1156 H 0.28233 0.06653 0.4178 0.0
S1157 S 0.38559 0.09808 0.36718 0.0
N1158 N 0.36317 0.06682 0.35914 0.0
N1159 N 0.36988 0.11092 0.38784 0.0
C1160 C 0.34495 0.08963 0.38855 0.0
C1161 C 0.34136 0.06568 0.3733 0.0
C1162 C 0.97815 0.26087 0.37075 0.0
C1163 C 0.98178 0.28641 0.36658 0.0
C1164 C 0.95574 0.24101 0.38764 0.0
C1165 C 0.93612 0.24599 0.40055 0.0
H1166 H 0.99368 0.25682 0.36351 0.0
H1167 H 0.95503 0.22252 0.39343 0.0
S1168 S 0.93332 0.30749 0.38852 0.0
N1169 N 0.96184 0.31416 0.37131 0.0
N1170 N 0.91948 0.27665 0.40226 0.0
C1171 C 0.93809 0.27041 0.39275 0.0
C1172 C 0.96103 0.29072 0.37607 0.0
C1173 C 0.02425 0.41069 0.3127 0.0
C1174 C 0.04923 0.41459 0.32236 0.0
C1175 C 0.02169 0.43089 0.29693 0.0
C1176 C 0.04409 0.45558 0.28955 0.0
H1177 H 1.00665 0.39145 0.31568 0.0
H1178 H 1.00226 0.42641 0.2878 0.0
S1179 S 0.11364 0.47682 0.31377 0.0
N1180 N 0.09645 0.44597 0.32743 0.0
N1181 N 0.09179 0.48364 0.29651 0.0
C1182 C 0.06892 0.46048 0.3019 0.0
C1183 C 0.07147 0.44 0.31851 0.0
C1184 C 0.59884 0.65623 0.29812 0.0
C1185 C 0.6189 0.65755 0.32003 0.0
C1186 C 0.58028 0.63236 0.28188 0.0
C1187 C 0.58086 0.60884 0.28725 0.0
H1188 H 0.59847 0.67407 0.2916 0.0
H1189 H 0.56647 0.63267 0.26318 0.0
S1190 S 0.6269 0.60075 0.34588 0.0
N1191 N 0.6363 0.6325 0.34922 0.0
N1192 N 0.6014 0.58773 0.3186 0.0
C1193 C 0.59931 0.60937 0.31136 0.0
C1194 C 0.61836 0.63371 0.32775 0.0
C1195 C 0.38798 0.95975 0.31952 0.0
C1196 C 0.3837 0.98133 0.3228 0.0
C1197 C 0.41029 0.9624 0.30211 0.0
C1198 C 0.42915 0.98679 0.28783 0.0
H1199 H 0.37309 0.94028 0.32817 0.0
H1200 H 0.41165 0.9448 0.29742 0.0
S1201 S 0.42987 0.05045 0.2961 0.0
N1202 N 0.4021 0.02865 0.31498 0.0
N1203 N 0.44419 0.03371 0.28308 0.0
C1204 C 0.42639 0.00902 0.29419 0.0
C1205 C 0.40359 1.00627 0.3114 0.0
C1206 C 0.59744 0.95347 0.30864 0.0
C1207 C 0.62188 0.97579 0.31804 0.0
C1208 C 0.57732 0.95633 0.2926 0.0
C1209 C 0.58098 0.98157 0.28569 0.0
H1210 H 0.59441 0.93371 0.31169 0.0
H1211 H 0.55964 0.93875 0.28327 0.0
S1212 S 0.63925 0.04607 0.31059 0.0
N1213 N 0.64706 0.02387 0.32338 0.0
N1214 N 0.60929 0.02905 0.29319 0.0
C1215 C 0.60435 1.00389 0.2976 0.0
C1216 C 0.62481 1.00105 0.31379 0.0
C1217 C 0.06937 0.64302 0.32369 0.0
C1218 C 0.04699 0.64496 0.3322 0.0
C1219 C 0.0667 0.62071 0.30593 0.0
C1220 C 0.04159 0.59958 0.2962 0.0
H1221 H 0.08911 0.65967 0.32818 0.0
H1222 H 0.08447 0.62115 0.29694 0.0
S1223 S 0.97679 0.59241 0.31913 0.0
N1224 N 0.99884 0.62187 0.33473 0.0
N1225 N 0.994 0.58008 0.30131 0.0
C1226 C 0.0191 0.60004 0.30796 0.0
C1227 C 0.02176 0.62271 0.32597 0.0
C1228 C 0.40379 0.4107 0.31658 0.0
C1229 C 0.38129 0.41349 0.31955 0.0
C1230 C 0.42741 0.43087 0.3024 0.0
C1231 C 0.42924 0.45437 0.29021 0.0
H1232 H 0.40281 0.39234 0.32391 0.0
H1233 H 0.44365 0.42719 0.29847 0.0
S1234 S 0.3768 0.4723 0.29411 0.0
N1235 N 0.36309 0.44254 0.31153 0.0
N1236 N 0.40725 0.48 0.2837 0.0
C1237 C 0.40744 0.45802 0.29472 0.0
C1238 C 0.38352 0.4377 0.30976 0.0
C1239 C 0.30045 0.26025 0.37707 0.0
C1240 C 0.32191 0.28573 0.37044 0.0
C1241 C 0.30443 0.241 0.39343 0.0
C1242 C 0.33003 0.24639 0.40257 0.0
H1243 H 0.28035 0.25574 0.37176 0.0
H1244 H 0.28733 0.22237 0.40072 0.0
S1245 S 0.3929 0.30883 0.38726 0.0
N1246 N 0.36975 0.31451 0.37188 0.0
N1247 N 0.37715 0.27812 0.40164 0.0
C1248 C 0.35169 0.27107 0.39383 0.0
C1249 C 0.34765 0.29081 0.37797 0.0
C1250 C 0.74566 0.06037 0.3888 0.0
C1251 C 0.75057 0.03996 0.37923 0.0
C1252 C 0.76508 0.08338 0.40565 0.0
C1253 C 0.79015 0.08682 0.41392 0.0
H1254 H 0.72633 0.05822 0.38423 0.0
H1255 H 0.76003 0.09808 0.41378 0.0
S1256 S 0.8135 0.03991 0.39282 0.0
N1257 N 0.78288 0.02535 0.37728 0.0
N1258 N 0.81924 0.06838 0.40983 0.0
C1259 C 0.79582 0.0672 0.40289 0.0
C1260 C 0.77605 0.0438 0.38538 0.0
C1261 C 0.97826 0.73123 0.37307 0.0
C1262 C 0.98112 0.70947 0.36372 0.0
C1263 C 0.95483 0.72738 0.38859 0.0
C1264 C 0.93338 0.70171 0.39411 0.0
H1265 H 0.99492 0.75119 0.37105 0.0
H1266 H 0.95413 0.74444 0.39838 0.0
S1267 S 0.92994 0.63852 0.37015 0.0
N1268 N 0.95988 0.66162 0.35834 0.0
N1269 N 0.91567 0.65448 0.38634 0.0
C1270 C 0.9353 0.68 0.38217 0.0
C1271 C 0.95924 0.68386 0.36723 0.0
C1272 C 0.40472 0.01382 0.7083 0.0
C1273 C 0.41117 0.04013 0.70233 0.0
C1274 C 0.42335 0.008 0.72249 0.0
C1275 C 0.44897 0.02831 0.73167 0.0
H1276 H 0.38473 0.99767 0.7035 0.0
H1277 H 0.417 0.98765 0.72901 0.0
S1278 S 0.4764 0.10021 0.71904 0.0
N1279 N 0.44566 0.08652 0.70402 0.0
N1280 N 0.48041 0.0755 0.73204 0.0
C1281 C 0.4562 0.05454 0.72394 0.0
C1282 C 0.43735 0.06048 0.70886 0.0
C1283 C 0.96704 0.38556 0.71257 0.0
C1284 C 0.98845 0.38197 0.70408 0.0
C1285 C 0.97141 0.40959 0.72711 0.0
C1286 C 0.99727 0.43097 0.73249 0.0
H1287 H 0.94691 0.3691 0.71051 0.0
H1288 H 0.9546 0.41088 0.73636 0.0
S1289 S 0.05972 0.43274 0.71013 0.0
N1290 N 0.03621 0.40253 0.699 0.0
N1291 N 0.0443 0.44784 0.72532 0.0
C1292 C 0.01864 0.42831 0.72131 0.0
C1293 C 0.01426 0.40374 0.70735 0.0
C1294 C 0.62705 0.62054 0.7072 0.0
C1295 C 0.64646 0.61533 0.69433 0.0
C1296 C 0.60474 0.60096 0.72434 0.0
C1297 C 0.60138 0.57564 0.73 0.0
H1298 H 0.62987 0.64032 0.70577 0.0
H1299 H 0.59125 0.60638 0.73597 0.0
S1300 S 0.64492 0.55113 0.69723 0.0
N1301 N 0.65927 0.58219 0.68429 0.0
N1302 N 0.61792 0.54563 0.71786 0.0
C1303 C 0.61939 0.56949 0.71436 0.0
C1304 C 0.6419 0.58934 0.6963 0.0
C1305 C 0.72994 0.76728 0.65383 0.0
C1306 C 0.7084 0.7412 0.65479 0.0
C1307 C 0.72704 0.7878 0.63961 0.0
C1308 C 0.70246 0.7829 0.62623 0.0
H1309 H 0.74959 0.77146 0.66143 0.0
H1310 H 0.74466 0.80693 0.63597 0.0
S1311 S 0.63879 0.71953 0.63053 0.0
N1312 N 0.66085 0.71262 0.64685 0.0
N1313 N 0.6554 0.75129 0.62071 0.0
C1314 C 0.68023 0.75766 0.63105 0.0
C1315 C 0.68322 0.73674 0.64504 0.0
C1316 C 0.29294 0.95858 0.65205 0.0
C1317 C 0.28737 0.97921 0.65637 0.0
C1318 C 0.27402 0.93407 0.63783 0.0
C1319 C 0.24904 0.9295 0.62692 0.0
H1320 H 0.31249 0.9618 0.65821 0.0
H1321 H 0.27975 0.91938 0.6326 0.0
S1322 S 0.22402 0.97632 0.63466 0.0
N1323 N 0.25436 0.99276 0.65118 0.0
N1324 N 0.21913 0.94688 0.62305 0.0
C1325 C 0.24265 0.94935 0.63294 0.0
C1326 C 0.26175 0.97419 0.64808 0.0
C1327 C 0.06829 0.33345 0.65176 0.0
C1328 C 0.04649 0.30864 0.66033 0.0
C1329 C 0.08949 0.33537 0.63255 0.0
C1330 C 0.08992 0.31258 0.62155 0.0
H1331 H 0.06827 0.35155 0.65801 0.0
H1332 H 0.10493 0.35477 0.62443 0.0
S1333 S 0.03959 0.24308 0.64095 0.0
N1334 N 0.02807 0.26086 0.65934 0.0
N1335 N 0.06803 0.26459 0.62323 0.0
C1336 C 0.0694 0.28777 0.63232 0.0
C1337 C 0.04765 0.28577 0.65172 0.0
C1338 C 0.26026 0.29347 0.64879 0.0
C1339 C 0.28587 0.31561 0.6526 0.0
C1340 C 0.24009 0.29553 0.63149 0.0
C1341 C 0.24487 0.31985 0.61784 0.0
H1342 H 0.25628 0.27408 0.65688 0.0
H1343 H 0.22138 0.27761 0.62632 0.0
S1344 S 0.30679 0.38463 0.6278 0.0
N1345 N 0.31368 0.36325 0.64611 0.0
N1346 N 0.27568 0.36717 0.61432 0.0
C1347 C 0.26955 0.34255 0.62481 0.0
C1348 C 0.29011 0.34041 0.64194 0.0
C1349 C 0.71114 0.97125 0.66071 0.0
C1350 C 0.7263 0.99608 0.6448 0.0
C1351 C 0.70809 0.94798 0.64497 0.0
C1352 C 0.72052 0.94908 0.61331 0.0
H1353 H 0.70039 0.96962 0.6843 0.0
H1354 H 0.6949 0.929 0.6566 0.0
S1355 S 0.76536 0.00952 0.56409 0.0
N1356 N 0.75592 0.02049 0.59758 0.0
N1357 N 0.75063 0.97709 0.56866 0.0
C1358 C 0.7372 0.97398 0.59867 0.0
C1359 C 0.73997 0.99741 0.61424 0.0
C1360 C 0.05066 0.76496 0.643 0.0
C1361 C 0.04766 0.74109 0.65588 0.0
C1362 C 0.07433 0.78369 0.62716 0.0
C1363 C 0.09598 0.7795 0.62461 0.0
H1364 H 0.03398 0.76825 0.64265 0.0
H1365 H 0.07513 0.80073 0.61486 0.0
S1366 S 0.09938 0.72198 0.65844 0.0
N1367 N 0.06918 0.71552 0.66798 0.0
N1368 N 0.11376 0.75102 0.639 0.0
C1369 C 0.09396 0.75682 0.64001 0.0
C1370 C 0.06976 0.73753 0.65547 0.0
C1371 C 0.95772 0.59137 0.71345 0.0
C1372 C 0.9762 0.61051 0.69079 0.0
C1373 C 0.96376 0.57448 0.73215 0.0
C1374 C 0.98847 0.57596 0.72888 0.0
H1375 H 0.9391 0.59053 0.71857 0.0
H1376 H 0.94964 0.5613 0.75103 0.0
S1377 S 0.04242 0.6201 0.66963 0.0
N1378 N 0.01913 0.62783 0.66323 0.0
N1379 N 0.0305 0.59627 0.69873 0.0
C1380 C 1.00621 0.59338 0.70413 0.0
C1381 C 1.00007 0.61062 0.68502 0.0
C1382 C 0.43639 0.38476 0.709 0.0
C1383 C 0.41024 0.37994 0.70759 0.0
C1384 C 0.45644 0.40712 0.72653 0.0
C1385 C 0.45101 0.42552 0.7428 0.0
H1386 H 0.44099 0.37025 0.69868 0.0
H1387 H 0.47574 0.40892 0.72956 0.0
S1388 S 0.38712 0.42477 0.73981 0.0
N1389 N 0.38091 0.39724 0.71936 0.0
N1390 N 0.41871 0.43963 0.75135 0.0
C1391 C 0.42558 0.42222 0.73842 0.0
C1392 C 0.40514 0.3993 0.72111 0.0
C1393 C 0.64558 0.0657 0.71273 0.0
C1394 C 0.6495 0.04561 0.6987 0.0
C1395 C 0.62194 0.05953 0.72964 0.0
C1396 C 0.60118 0.03316 0.73222 0.0
H1397 H 0.66157 0.08612 0.71294 0.0
H1398 H 0.62048 0.07527 0.7426 0.0
S1399 S 0.60015 0.97376 0.6959 0.0
N1400 N 0.62967 0.99859 0.68574 0.0
N1401 N 0.58508 0.98716 0.71684 0.0
C1402 C 0.60403 0.01319 0.71589 0.0
C1403 C 0.62825 0.01937 0.69928 0.0
loop_
_geom_bond_atom_site_label_1
_geom_bond_atom_site_label_2
_geom_bond_distance
_geom_bond_site_symmetry_2
_ccdc_geom_bond_type
In0 O1 2.294 1_455 S
In0 O2 2.326 . S
In0 O6 2.266 1_455 S
In0 O7 2.326 1_454 S
In0 O8 2.266 1_554 S
In0 O9 2.326 1_454 S
In0 O11 2.294 . S
In0 O12 2.326 . S
O1 In0 2.294 1_655 S
O1 C10 1.240 1_655 S
O2 In0 2.326 . S
O2 C10 1.252 . S
C3 O6 1.252 1_556 S
C3 O7 1.260 . S
C4 O11 1.240 . S
C4 O12 1.252 . S
C5 O8 1.252 . S
C5 O9 1.260 1_455 S
O6 In0 2.266 1_655 S
O6 C3 1.252 1_554 S
O7 In0 2.326 1_656 S
O7 C3 1.260 . S
O8 In0 2.266 1_556 S
O8 C5 1.252 . S
O9 In0 2.326 1_656 S
O9 C5 1.260 1_655 S
C10 O1 1.240 1_455 S
C10 O2 1.252 . S
O11 In0 2.294 . S
O11 C4 1.240 . S
O12 In0 2.326 . S
O12 C4 1.252 . S
In13 O14 2.294 . S
In13 O15 2.326 . S
In13 O19 2.266 . S
In13 O20 2.326 1_554 S
In13 O21 2.266 1_554 S
In13 O22 2.326 1_554 S
In13 O24 2.294 . S
In13 O25 2.326 . S
O14 In13 2.294 . S
O14 C23 1.240 . S
O15 In13 2.326 . S
O15 C23 1.252 . S
C16 O19 1.252 1_556 S
C16 O20 1.260 . S
C17 O24 1.240 . S
C17 O25 1.252 . S
C18 O21 1.252 . S
C18 O22 1.260 . S
O19 In13 2.266 . S
O19 C16 1.252 1_554 S
O20 In13 2.326 1_556 S
O20 C16 1.260 . S
O21 In13 2.266 1_556 S
O21 C18 1.252 . S
O22 In13 2.326 1_556 S
O22 C18 1.260 . S
C23 O14 1.240 . S
C23 O15 1.252 . S
O24 In13 2.294 . S
O24 C17 1.240 . S
O25 In13 2.326 . S
O25 C17 1.252 . S
In26 O27 2.294 . S
In26 O28 2.326 1_554 S
In26 O32 2.266 . S
In26 O33 2.326 1_545 S
In26 O34 2.266 1_545 S
In26 O35 2.326 1_545 S
In26 O37 2.294 1_544 S
In26 O38 2.326 1_554 S
O27 In26 2.294 . S
O27 C36 1.240 1_554 S
O28 In26 2.326 1_556 S
O28 C36 1.252 . S
C29 O32 1.252 . S
C29 O33 1.260 1_545 S
C30 O37 1.240 1_545 S
C30 O38 1.252 . S
C31 O34 1.252 . S
C31 O35 1.260 . S
O32 In26 2.266 . S
O32 C29 1.252 . S
O33 In26 2.326 1_565 S
O33 C29 1.260 1_565 S
O34 In26 2.266 1_565 S
O34 C31 1.252 . S
O35 In26 2.326 1_565 S
O35 C31 1.260 . S
C36 O27 1.240 1_556 S
C36 O28 1.252 . S
O37 In26 2.294 1_566 S
O37 C30 1.240 1_565 S
O38 In26 2.326 1_556 S
O38 C30 1.252 . S
In39 O40 2.294 1_554 S
In39 O41 2.326 1_454 S
In39 O45 2.266 . S
In39 O46 2.326 . S
In39 O47 2.266 1_455 S
In39 O48 2.326 . S
In39 O50 2.294 1_455 S
In39 O51 2.326 1_454 S
O40 In39 2.294 1_556 S
O40 C49 1.240 . S
O41 In39 2.326 1_656 S
O41 C49 1.252 1_655 S
C42 O45 1.252 . S
C42 O46 1.260 . S
C43 O50 1.240 1_556 S
C43 O51 1.252 . S
C44 O47 1.252 1_455 S
C44 O48 1.260 . S
O45 In39 2.266 . S
O45 C42 1.252 . S
O46 In39 2.326 . S
O46 C42 1.260 . S
O47 In39 2.266 1_655 S
O47 C44 1.252 1_655 S
O48 In39 2.326 . S
O48 C44 1.260 . S
C49 O40 1.240 . S
C49 O41 1.252 1_455 S
O50 In39 2.294 1_655 S
O50 C43 1.240 1_554 S
O51 In39 2.326 1_656 S
O51 C43 1.252 . S
In52 O53 2.294 1_554 S
In52 O54 2.326 1_554 S
In52 O58 2.266 . S
In52 O59 2.326 . S
In52 O60 2.266 . S
In52 O61 2.326 . S
In52 O63 2.294 . S
In52 O64 2.326 1_554 S
O53 In52 2.294 1_556 S
O53 C62 1.240 . S
O54 In52 2.326 1_556 S
O54 C62 1.252 . S
C55 O58 1.252 . S
C55 O59 1.260 . S
C56 O63 1.240 1_556 S
C56 O64 1.252 . S
C57 O60 1.252 . S
C57 O61 1.260 . S
O58 In52 2.266 . S
O58 C55 1.252 . S
O59 In52 2.326 . S
O59 C55 1.260 . S
O60 In52 2.266 . S
O60 C57 1.252 . S
O61 In52 2.326 . S
O61 C57 1.260 . S
C62 O53 1.240 . S
C62 O54 1.252 . S
O63 In52 2.294 . S
O63 C56 1.240 1_554 S
O64 In52 2.326 1_556 S
O64 C56 1.252 . S
In65 O66 2.294 . S
In65 O67 2.326 1_545 S
In65 O71 2.266 . S
In65 O72 2.326 1_554 S
In65 O73 2.266 1_544 S
In65 O74 2.326 1_554 S
In65 O76 2.294 1_545 S
In65 O77 2.326 1_545 S
O66 In65 2.294 . S
O66 C75 1.240 . S
O67 In65 2.326 1_565 S
O67 C75 1.252 1_565 S
C68 O71 1.252 1_556 S
C68 O72 1.260 . S
C69 O76 1.240 . S
C69 O77 1.252 . S
C70 O73 1.252 1_545 S
C70 O74 1.260 . S
O71 In65 2.266 . S
O71 C68 1.252 1_554 S
O72 In65 2.326 1_556 S
O72 C68 1.260 . S
O73 In65 2.266 1_566 S
O73 C70 1.252 1_565 S
O74 In65 2.326 1_556 S
O74 C70 1.260 . S
C75 O66 1.240 . S
C75 O67 1.252 1_545 S
O76 In65 2.294 1_565 S
O76 C69 1.240 . S
O77 In65 2.326 1_565 S
O77 C69 1.252 . S
In78 O79 2.294 . S
In78 O80 2.326 . S
In78 O84 2.266 . S
In78 O85 2.326 . S
In78 O86 2.266 . S
In78 O87 2.326 . S
In78 O89 2.294 . S
In78 O90 2.326 . S
O79 In78 2.294 . S
O79 C88 1.240 . S
O80 In78 2.326 . S
O80 C88 1.252 . S
C81 O84 1.252 . S
C81 O85 1.260 . S
C82 O89 1.240 . S
C82 O90 1.252 . S
C83 O86 1.252 . S
C83 O87 1.260 . S
O84 In78 2.266 . S
O84 C81 1.252 . S
O85 In78 2.326 . S
O85 C81 1.260 . S
O86 In78 2.266 . S
O86 C83 1.252 . S
O87 In78 2.326 . S
O87 C83 1.260 . S
C88 O79 1.240 . S
C88 O80 1.252 . S
O89 In78 2.294 . S
O89 C82 1.240 . S
O90 In78 2.326 . S
O90 C82 1.252 . S
In91 O92 2.294 . S
In91 O93 2.326 . S
In91 O97 2.266 . S
In91 O98 2.326 1_565 S
In91 O99 2.266 . S
In91 O100 2.326 . S
In91 O102 2.294 1_565 S
In91 O103 2.326 1_565 S
O92 In91 2.294 . S
O92 C101 1.240 . S
O93 In91 2.326 . S
O93 C101 1.252 . S
C94 O97 1.252 . S
C94 O98 1.260 1_565 S
C95 O102 1.240 . S
C95 O103 1.252 . S
C96 O99 1.252 . S
C96 O100 1.260 . S
O97 In91 2.266 . S
O97 C94 1.252 . S
O98 In91 2.326 1_545 S
O98 C94 1.260 1_545 S
O99 In91 2.266 . S
O99 C96 1.252 . S
O100 In91 2.326 . S
O100 C96 1.260 . S
C101 O92 1.240 . S
C101 O93 1.252 . S
O102 In91 2.294 1_545 S
O102 C95 1.240 . S
O103 In91 2.326 1_545 S
O103 C95 1.252 . S
In104 O105 2.294 . S
In104 O106 2.326 . S
In104 O110 2.266 . S
In104 O111 2.326 . S
In104 O112 2.266 1_455 S
In104 O113 2.326 1_455 S
In104 O115 2.294 . S
In104 O116 2.326 . S
O105 In104 2.294 . S
O105 C114 1.240 . S
O106 In104 2.326 . S
O106 C114 1.252 . S
C107 O110 1.252 . S
C107 O111 1.260 . S
C108 O115 1.240 . S
C108 O116 1.252 . S
C109 O112 1.252 . S
C109 O113 1.260 . S
O110 In104 2.266 . S
O110 C107 1.252 . S
O111 In104 2.326 . S
O111 C107 1.260 . S
O112 In104 2.266 1_655 S
O112 C109 1.252 . S
O113 In104 2.326 1_655 S
O113 C109 1.260 . S
C114 O105 1.240 . S
C114 O106 1.252 . S
O115 In104 2.294 . S
O115 C108 1.240 . S
O116 In104 2.326 . S
O116 C108 1.252 . S
In117 O118 2.294 . S
In117 O119 2.326 . S
In117 O123 2.266 1_565 S
In117 O124 2.326 1_565 S
In117 O125 2.266 . S
In117 O126 2.326 . S
In117 O128 2.294 . S
In117 O129 2.326 1_565 S
O118 In117 2.294 . S
O118 C127 1.240 . S
O119 In117 2.326 . S
O119 C127 1.252 . S
C120 O123 1.252 . S
C120 O124 1.260 . S
C121 O128 1.240 . S
C121 O129 1.252 1_565 S
C122 O125 1.252 . S
C122 O126 1.260 . S
O123 In117 2.266 1_545 S
O123 C120 1.252 . S
O124 In117 2.326 1_545 S
O124 C120 1.260 . S
O125 In117 2.266 . S
O125 C122 1.252 . S
O126 In117 2.326 . S
O126 C122 1.260 . S
C127 O118 1.240 . S
C127 O119 1.252 . S
O128 In117 2.294 . S
O128 C121 1.240 . S
O129 In117 2.326 1_545 S
O129 C121 1.252 1_545 S
In130 O131 2.294 . S
In130 O132 2.326 . S
In130 O136 2.266 1_455 S
In130 O137 2.326 1_455 S
In130 O138 2.266 . S
In130 O139 2.326 . S
In130 O141 2.294 . S
In130 O142 2.326 . S
O131 In130 2.294 . S
O131 C140 1.240 . S
O132 In130 2.326 . S
O132 C140 1.252 . S
C133 O136 1.252 . S
C133 O137 1.260 . S
C134 O141 1.240 . S
C134 O142 1.252 . S
C135 O138 1.252 . S
C135 O139 1.260 . S
O136 In130 2.266 1_655 S
O136 C133 1.252 . S
O137 In130 2.326 1_655 S
O137 C133 1.260 . S
O138 In130 2.266 . S
O138 C135 1.252 . S
O139 In130 2.326 . S
O139 C135 1.260 . S
C140 O131 1.240 . S
C140 O132 1.252 . S
O141 In130 2.294 . S
O141 C134 1.240 . S
O142 In130 2.326 . S
O142 C134 1.252 . S
In143 O144 2.294 . S
In143 O145 2.326 . S
In143 O149 2.266 . S
In143 O150 2.326 . S
In143 O151 2.266 . S
In143 O152 2.326 . S
In143 O154 2.294 . S
In143 O155 2.326 . S
O144 In143 2.294 . S
O144 C153 1.240 . S
O145 In143 2.326 . S
O145 C153 1.252 . S
C146 O149 1.252 . S
C146 O150 1.260 . S
C147 O154 1.240 . S
C147 O155 1.252 . S
C148 O151 1.252 . S
C148 O152 1.260 . S
O149 In143 2.266 . S
O149 C146 1.252 . S
O150 In143 2.326 . S
O150 C146 1.260 . S
O151 In143 2.266 . S
O151 C148 1.252 . S
O152 In143 2.326 . S
O152 C148 1.260 . S
C153 O144 1.240 . S
C153 O145 1.252 . S
O154 In143 2.294 . S
O154 C147 1.240 . S
O155 In143 2.326 . S
O155 C147 1.252 . S
In156 O157 2.294 . S
In156 O158 2.326 . S
In156 O162 2.266 . S
In156 O163 2.326 . S
In156 O164 2.266 1_545 S
In156 O165 2.326 1_545 S
In156 O167 2.294 . S
In156 O168 2.326 . S
O157 In156 2.294 . S
O157 C166 1.240 . S
O158 In156 2.326 . S
O158 C166 1.252 . S
C159 O162 1.252 . S
C159 O163 1.260 . S
C160 O167 1.240 . S
C160 O168 1.252 . S
C161 O164 1.252 . S
C161 O165 1.260 . S
O162 In156 2.266 . S
O162 C159 1.252 . S
O163 In156 2.326 . S
O163 C159 1.260 . S
O164 In156 2.266 1_565 S
O164 C161 1.252 . S
O165 In156 2.326 1_565 S
O165 C161 1.260 . S
C166 O157 1.240 . S
C166 O158 1.252 . S
O167 In156 2.294 . S
O167 C160 1.240 . S
O168 In156 2.326 . S
O168 C160 1.252 . S
In169 O170 2.294 . S
In169 O171 2.326 1_655 S
In169 O175 2.266 . S
In169 O176 2.326 . S
In169 O177 2.266 1_655 S
In169 O178 2.326 1_655 S
In169 O180 2.294 . S
In169 O181 2.326 . S
O170 In169 2.294 . S
O170 C179 1.240 . S
O171 In169 2.326 1_455 S
O171 C179 1.252 1_455 S
C172 O175 1.252 . S
C172 O176 1.260 . S
C173 O180 1.240 . S
C173 O181 1.252 . S
C174 O177 1.252 . S
C174 O178 1.260 . S
O175 In169 2.266 . S
O175 C172 1.252 . S
O176 In169 2.326 . S
O176 C172 1.260 . S
O177 In169 2.266 1_455 S
O177 C174 1.252 . S
O178 In169 2.326 1_455 S
O178 C174 1.260 . S
C179 O170 1.240 . S
C179 O171 1.252 1_655 S
O180 In169 2.294 . S
O180 C173 1.240 . S
O181 In169 2.326 . S
O181 C173 1.252 . S
In182 O183 2.294 . S
In182 O184 2.326 . S
In182 O188 2.266 . S
In182 O189 2.326 . S
In182 O190 2.266 . S
In182 O191 2.326 . S
In182 O193 2.294 . S
In182 O194 2.326 . S
O183 In182 2.294 . S
O183 C192 1.240 . S
O184 In182 2.326 . S
O184 C192 1.252 . S
C185 O188 1.252 . S
C185 O189 1.260 . S
C186 O193 1.240 . S
C186 O194 1.252 . S
C187 O190 1.252 . S
C187 O191 1.260 . S
O188 In182 2.266 . S
O188 C185 1.252 . S
O189 In182 2.326 . S
O189 C185 1.260 . S
O190 In182 2.266 . S
O190 C187 1.252 . S
O191 In182 2.326 . S
O191 C187 1.260 . S
C192 O183 1.240 . S
C192 O184 1.252 . S
O193 In182 2.294 . S
O193 C186 1.240 . S
O194 In182 2.326 . S
O194 C186 1.252 . S
In195 O196 2.294 . S
In195 O197 2.326 . S
In195 O201 2.266 . S
In195 O202 2.326 . S
In195 O203 2.266 . S
In195 O204 2.326 . S
In195 O206 2.294 . S
In195 O207 2.326 . S
O196 In195 2.294 . S
O196 C205 1.240 . S
O197 In195 2.326 . S
O197 C205 1.252 . S
C198 O201 1.252 . S
C198 O202 1.260 . S
C199 O206 1.240 . S
C199 O207 1.252 . S
C200 O203 1.252 . S
C200 O204 1.260 . S
O201 In195 2.266 . S
O201 C198 1.252 . S
O202 In195 2.326 . S
O202 C198 1.260 . S
O203 In195 2.266 . S
O203 C200 1.252 . S
O204 In195 2.326 . S
O204 C200 1.260 . S
C205 O196 1.240 . S
C205 O197 1.252 . S
O206 In195 2.294 . S
O206 C199 1.240 . S
O207 In195 2.326 . S
O207 C199 1.252 . S
In208 O209 2.294 . S
In208 O210 2.326 . S
In208 O214 2.266 . S
In208 O215 2.326 . S
In208 O216 2.266 . S
In208 O217 2.326 . S
In208 O219 2.294 1_545 S
In208 O220 2.326 1_545 S
O209 In208 2.294 . S
O209 C218 1.240 . S
O210 In208 2.326 . S
O210 C218 1.252 . S
C211 O214 1.252 . S
C211 O215 1.260 . S
C212 O219 1.240 . S
C212 O220 1.252 . S
C213 O216 1.252 . S
C213 O217 1.260 . S
O214 In208 2.266 . S
O214 C211 1.252 . S
O215 In208 2.326 . S
O215 C211 1.260 . S
O216 In208 2.266 . S
O216 C213 1.252 . S
O217 In208 2.326 . S
O217 C213 1.260 . S
C218 O209 1.240 . S
C218 O210 1.252 . S
O219 In208 2.294 1_565 S
O219 C212 1.240 . S
O220 In208 2.326 1_565 S
O220 C212 1.252 . S
In221 O222 2.294 . S
In221 O223 2.326 1_655 S
In221 O227 2.266 . S
In221 O228 2.326 . S
In221 O229 2.266 1_655 S
In221 O230 2.326 1_655 S
In221 O232 2.294 . S
In221 O233 2.326 . S
O222 In221 2.294 . S
O222 C231 1.240 . S
O223 In221 2.326 1_455 S
O223 C231 1.252 1_455 S
C224 O227 1.252 . S
C224 O228 1.260 . S
C225 O232 1.240 . S
C225 O233 1.252 . S
C226 O229 1.252 . S
C226 O230 1.260 . S
O227 In221 2.266 . S
O227 C224 1.252 . S
O228 In221 2.326 . S
O228 C224 1.260 . S
O229 In221 2.266 1_455 S
O229 C226 1.252 . S
O230 In221 2.326 1_455 S
O230 C226 1.260 . S
C231 O222 1.240 . S
C231 O223 1.252 1_655 S
O232 In221 2.294 . S
O232 C225 1.240 . S
O233 In221 2.326 . S
O233 C225 1.252 . S
H234 C242 0.930 . S
H235 C245 0.930 . S
H236 C247 0.930 . S
H237 C248 0.970 . S
H238 C248 0.970 . S
H239 C250 0.930 . S
H240 C252 0.930 . S
H241 C254 0.930 . S
C242 H234 0.930 . S
C242 C243 1.382 . S
C242 C244 1.426 . S
C243 C242 1.382 . S
C243 C247 1.389 . S
C244 C242 1.426 . S
C244 C245 1.375 . S
C244 C248 1.532 . S
C245 H235 0.930 . S
C245 C244 1.375 . S
C245 C246 1.416 . S
C246 C245 1.416 . S
C246 C247 1.371 . S
C247 H236 0.930 . S
C247 C243 1.389 . S
C247 C246 1.371 . S
C248 H237 0.970 . S
C248 H238 0.970 . S
C248 C244 1.532 . S
C248 C249 1.499 . S
C249 C248 1.499 . S
C249 C250 1.370 . S
C249 C254 1.415 . S
C250 H239 0.930 . S
C250 C249 1.370 . S
C250 C251 1.407 . S
C251 C250 1.407 . S
C251 C252 1.365 . S
C252 H240 0.930 . S
C252 C251 1.365 . S
C252 C253 1.393 . S
C253 C252 1.393 . S
C253 C254 1.387 . S
C254 H241 0.930 . S
C254 C249 1.415 . S
C254 C253 1.387 . S
H255 C263 0.930 . S
H256 C266 0.930 . S
H257 C268 0.930 . S
H258 C269 0.970 . S
H259 C269 0.970 . S
H260 C271 0.930 . S
H261 C273 0.930 . S
H262 C275 0.930 . S
C263 H255 0.930 . S
C263 C264 1.382 . S
C263 C265 1.426 . S
C264 C263 1.382 . S
C264 C268 1.389 . S
C265 C263 1.426 . S
C265 C266 1.375 . S
C265 C269 1.532 . S
C266 H256 0.930 . S
C266 C265 1.375 . S
C266 C267 1.416 . S
C267 C266 1.416 . S
C267 C268 1.371 . S
C268 H257 0.930 . S
C268 C264 1.389 . S
C268 C267 1.371 . S
C269 H258 0.970 . S
C269 H259 0.970 . S
C269 C265 1.532 . S
C269 C270 1.499 . S
C270 C269 1.499 . S
C270 C271 1.370 . S
C270 C275 1.415 . S
C271 H260 0.930 . S
C271 C270 1.370 . S
C271 C272 1.407 . S
C272 C271 1.407 . S
C272 C273 1.365 . S
C273 H261 0.930 . S
C273 C272 1.365 . S
C273 C274 1.393 . S
C274 C273 1.393 . S
C274 C275 1.387 . S
C275 H262 0.930 . S
C275 C270 1.415 . S
C275 C274 1.387 . S
H276 C284 0.930 . S
H277 C287 0.930 . S
H278 C289 0.930 . S
H279 C290 0.970 . S
H280 C290 0.970 . S
H281 C292 0.930 . S
H282 C294 0.930 . S
H283 C296 0.930 . S
C284 H276 0.930 . S
C284 C285 1.382 . S
C284 C286 1.426 . S
C285 C284 1.382 . S
C285 C289 1.389 . S
C286 C284 1.426 . S
C286 C287 1.375 . S
C286 C290 1.532 . S
C287 H277 0.930 . S
C287 C286 1.375 . S
C287 C288 1.416 . S
C288 C287 1.416 . S
C288 C289 1.371 . S
C289 H278 0.930 . S
C289 C285 1.389 . S
C289 C288 1.371 . S
C290 H279 0.970 . S
C290 H280 0.970 . S
C290 C286 1.532 . S
C290 C291 1.499 . S
C291 C290 1.499 . S
C291 C292 1.370 . S
C291 C296 1.415 . S
C292 H281 0.930 . S
C292 C291 1.370 . S
C292 C293 1.407 . S
C293 C292 1.407 . S
C293 C294 1.365 . S
C294 H282 0.930 . S
C294 C293 1.365 . S
C294 C295 1.393 . S
C295 C294 1.393 . S
C295 C296 1.387 . S
C296 H283 0.930 . S
C296 C291 1.415 . S
C296 C295 1.387 . S
H297 C305 0.930 . S
H298 C308 0.930 . S
H299 C310 0.930 . S
H300 C311 0.970 . S
H301 C311 0.970 . S
H302 C313 0.930 . S
H303 C315 0.930 . S
H304 C317 0.930 . S
C305 H297 0.930 . S
C305 C306 1.382 . S
C305 C307 1.426 . S
C306 C305 1.382 . S
C306 C310 1.389 . S
C307 C305 1.426 . S
C307 C308 1.375 . S
C307 C311 1.532 . S
C308 H298 0.930 . S
C308 C307 1.375 . S
C308 C309 1.416 . S
C309 C308 1.416 . S
C309 C310 1.371 . S
C310 H299 0.930 . S
C310 C306 1.389 . S
C310 C309 1.371 . S
C311 H300 0.970 . S
C311 H301 0.970 . S
C311 C307 1.532 . S
C311 C312 1.499 . S
C312 C311 1.499 . S
C312 C313 1.370 . S
C312 C317 1.415 . S
C313 H302 0.930 . S
C313 C312 1.370 . S
C313 C314 1.407 . S
C314 C313 1.407 . S
C314 C315 1.365 . S
C315 H303 0.930 . S
C315 C314 1.365 . S
C315 C316 1.393 . S
C316 C315 1.393 . S
C316 C317 1.387 . S
C317 H304 0.930 . S
C317 C312 1.415 . S
C317 C316 1.387 . S
H318 C326 0.930 . S
H319 C329 0.930 . S
H320 C331 0.930 . S
H321 C332 0.970 . S
H322 C332 0.970 . S
H323 C334 0.930 . S
H324 C336 0.930 . S
H325 C338 0.930 . S
C326 H318 0.930 . S
C326 C327 1.382 . S
C326 C328 1.426 . S
C327 C326 1.382 . S
C327 C331 1.389 . S
C328 C326 1.426 . S
C328 C329 1.375 . S
C328 C332 1.532 . S
C329 H319 0.930 . S
C329 C328 1.375 . S
C329 C330 1.416 . S
C330 C329 1.416 . S
C330 C331 1.371 . S
C331 H320 0.930 . S
C331 C327 1.389 . S
C331 C330 1.371 . S
C332 H321 0.970 . S
C332 H322 0.970 . S
C332 C328 1.532 . S
C332 C333 1.499 . S
C333 C332 1.499 . S
C333 C334 1.370 . S
C333 C338 1.415 . S
C334 H323 0.930 . S
C334 C333 1.370 . S
C334 C335 1.407 . S
C335 C334 1.407 . S
C335 C336 1.365 . S
C336 H324 0.930 . S
C336 C335 1.365 . S
C336 C337 1.393 . S
C337 C336 1.393 . S
C337 C338 1.387 . S
C338 H325 0.930 . S
C338 C333 1.415 . S
C338 C337 1.387 . S
H339 C347 0.930 . S
H340 C350 0.930 . S
H341 C352 0.930 . S
H342 C353 0.970 . S
H343 C353 0.970 . S
H344 C355 0.930 . S
H345 C357 0.930 . S
H346 C359 0.930 . S
C347 H339 0.930 . S
C347 C348 1.382 . S
C347 C349 1.426 . S
C348 C347 1.382 . S
C348 C352 1.389 . S
C349 C347 1.426 . S
C349 C350 1.375 . S
C349 C353 1.532 . S
C350 H340 0.930 . S
C350 C349 1.375 . S
C350 C351 1.416 . S
C351 C350 1.416 . S
C351 C352 1.371 . S
C352 H341 0.930 . S
C352 C348 1.389 . S
C352 C351 1.371 . S
C353 H342 0.970 . S
C353 H343 0.970 . S
C353 C349 1.532 . S
C353 C354 1.499 . S
C354 C353 1.499 . S
C354 C355 1.370 . S
C354 C359 1.415 . S
C355 H344 0.930 . S
C355 C354 1.370 . S
C355 C356 1.407 . S
C356 C355 1.407 . S
C356 C357 1.365 . S
C357 H345 0.930 . S
C357 C356 1.365 . S
C357 C358 1.393 . S
C358 C357 1.393 . S
C358 C359 1.387 . S
C359 H346 0.930 . S
C359 C354 1.415 . S
C359 C358 1.387 . S
H360 C368 0.930 . S
H361 C371 0.930 . S
H362 C373 0.930 . S
H363 C374 0.970 . S
H364 C374 0.970 . S
H365 C376 0.930 . S
H366 C378 0.930 . S
H367 C380 0.930 . S
C368 H360 0.930 . S
C368 C369 1.382 . S
C368 C370 1.426 . S
C369 C368 1.382 . S
C369 C373 1.389 . S
C370 C368 1.426 . S
C370 C371 1.375 . S
C370 C374 1.532 . S
C371 H361 0.930 . S
C371 C370 1.375 . S
C371 C372 1.416 . S
C372 C371 1.416 . S
C372 C373 1.371 . S
C373 H362 0.930 . S
C373 C369 1.389 . S
C373 C372 1.371 . S
C374 H363 0.970 . S
C374 H364 0.970 . S
C374 C370 1.532 . S
C374 C375 1.499 . S
C375 C374 1.499 . S
C375 C376 1.370 . S
C375 C380 1.415 . S
C376 H365 0.930 . S
C376 C375 1.370 . S
C376 C377 1.407 . S
C377 C376 1.407 . S
C377 C378 1.365 . S
C378 H366 0.930 . S
C378 C377 1.365 . S
C378 C379 1.393 . S
C379 C378 1.393 . S
C379 C380 1.387 . S
C380 H367 0.930 . S
C380 C375 1.415 . S
C380 C379 1.387 . S
H381 C389 0.930 . S
H382 C392 0.930 . S
H383 C394 0.930 . S
H384 C395 0.970 . S
H385 C395 0.970 . S
H386 C397 0.930 . S
H387 C399 0.930 . S
H388 C401 0.930 . S
C389 H381 0.930 . S
C389 C390 1.382 . S
C389 C391 1.426 . S
C390 C389 1.382 . S
C390 C394 1.389 . S
C391 C389 1.426 . S
C391 C392 1.375 . S
C391 C395 1.532 . S
C392 H382 0.930 . S
C392 C391 1.375 . S
C392 C393 1.416 . S
C393 C392 1.416 . S
C393 C394 1.371 . S
C394 H383 0.930 . S
C394 C390 1.389 . S
C394 C393 1.371 . S
C395 H384 0.970 . S
C395 H385 0.970 . S
C395 C391 1.532 . S
C395 C396 1.499 . S
C396 C395 1.499 . S
C396 C397 1.370 . S
C396 C401 1.415 . S
C397 H386 0.930 . S
C397 C396 1.370 . S
C397 C398 1.407 . S
C398 C397 1.407 . S
C398 C399 1.365 . S
C399 H387 0.930 . S
C399 C398 1.365 . S
C399 C400 1.393 . S
C400 C399 1.393 . S
C400 C401 1.387 . S
C401 H388 0.930 . S
C401 C396 1.415 . S
C401 C400 1.387 . S
H402 C410 0.930 . S
H403 C413 0.930 . S
H404 C415 0.930 . S
H405 C416 0.970 . S
H406 C416 0.970 . S
H407 C418 0.930 . S
H408 C420 0.930 . S
H409 C422 0.930 . S
C410 H402 0.930 . S
C410 C411 1.382 . S
C410 C412 1.426 . S
C411 C410 1.382 . S
C411 C415 1.389 . S
C412 C410 1.426 . S
C412 C413 1.375 . S
C412 C416 1.532 . S
C413 H403 0.930 . S
C413 C412 1.375 . S
C413 C414 1.416 . S
C414 C413 1.416 . S
C414 C415 1.371 . S
C415 H404 0.930 . S
C415 C411 1.389 . S
C415 C414 1.371 . S
C416 H405 0.970 . S
C416 H406 0.970 . S
C416 C412 1.532 . S
C416 C417 1.499 . S
C417 C416 1.499 . S
C417 C418 1.370 . S
C417 C422 1.415 . S
C418 H407 0.930 . S
C418 C417 1.370 . S
C418 C419 1.407 . S
C419 C418 1.407 . S
C419 C420 1.365 . S
C420 H408 0.930 . S
C420 C419 1.365 . S
C420 C421 1.393 . S
C421 C420 1.393 . S
C421 C422 1.387 . S
C422 H409 0.930 . S
C422 C417 1.415 . S
C422 C421 1.387 . S
H423 C431 0.930 . S
H424 C434 0.930 . S
H425 C436 0.935 . S
H426 C437 0.970 . S
H427 C437 0.970 . S
H428 C439 0.930 . S
H429 C441 0.930 1_655 S
H430 C443 0.930 . S
C431 H423 0.930 . S
C431 C432 1.382 . S
C431 C433 1.426 . S
C432 C431 1.382 . S
C432 C436 1.389 . S
C433 C431 1.426 . S
C433 C434 1.375 . S
C433 C437 1.532 . S
C434 H424 0.930 . S
C434 C433 1.375 . S
C434 C435 1.416 . S
C435 C434 1.416 . S
C435 C436 1.371 . S
C436 H425 0.935 . S
C436 C432 1.389 . S
C436 C435 1.371 . S
C437 H426 0.970 . S
C437 H427 0.970 . S
C437 C433 1.532 . S
C437 C438 1.499 . S
C438 C437 1.499 . S
C438 C439 1.370 . S
C438 C443 1.415 . S
C439 H428 0.930 . S
C439 C438 1.370 . S
C439 C440 1.407 . S
C440 C439 1.407 . S
C440 C441 1.365 . S
C441 H429 0.930 1_455 S
C441 C440 1.365 . S
C441 C442 1.393 . S
C442 C441 1.393 . S
C442 C443 1.387 . S
C443 H430 0.930 . S
C443 C438 1.415 . S
C443 C442 1.387 . S
H444 C452 0.930 . S
H445 C455 0.930 . S
H446 C457 0.930 . S
H447 C458 0.970 . S
H448 C458 0.970 . S
H449 C460 0.930 . S
H450 C462 0.930 . S
H451 C464 0.930 . S
C452 H444 0.930 . S
C452 C453 1.382 . S
C452 C454 1.426 . S
C453 C452 1.382 . S
C453 C457 1.389 . S
C454 C452 1.426 . S
C454 C455 1.375 . S
C454 C458 1.532 . S
C455 H445 0.930 . S
C455 C454 1.375 . S
C455 C456 1.416 . S
C456 C455 1.416 . S
C456 C457 1.371 . S
C457 H446 0.930 . S
C457 C453 1.389 . S
C457 C456 1.371 . S
C458 H447 0.970 . S
C458 H448 0.970 . S
C458 C454 1.532 . S
C458 C459 1.499 . S
C459 C458 1.499 . S
C459 C460 1.370 . S
C459 C464 1.415 . S
C460 H449 0.930 . S
C460 C459 1.370 . S
C460 C461 1.407 . S
C461 C460 1.407 . S
C461 C462 1.365 . S
C462 H450 0.930 . S
C462 C461 1.365 . S
C462 C463 1.393 . S
C463 C462 1.393 . S
C463 C464 1.387 . S
C464 H451 0.930 . S
C464 C459 1.415 . S
C464 C463 1.387 . S
H465 C473 0.930 . S
H466 C476 0.930 . S
H467 C478 0.930 . S
H468 C479 0.970 . S
H469 C479 0.970 . S
H470 C481 0.930 . S
H471 C483 0.930 . S
H472 C485 0.930 . S
C473 H465 0.930 . S
C473 C474 1.382 . S
C473 C475 1.426 . S
C474 C473 1.382 . S
C474 C478 1.389 1_565 S
C475 C473 1.426 . S
C475 C476 1.375 . S
C475 C479 1.532 . S
C476 H466 0.930 . S
C476 C475 1.375 . S
C476 C477 1.416 . S
C477 C476 1.416 . S
C477 C478 1.371 1_565 S
C478 H467 0.930 . S
C478 C474 1.389 1_545 S
C478 C477 1.371 1_545 S
C479 H468 0.970 . S
C479 H469 0.970 . S
C479 C475 1.532 . S
C479 C480 1.499 . S
C480 C479 1.499 . S
C480 C481 1.370 . S
C480 C485 1.415 . S
C481 H470 0.930 . S
C481 C480 1.370 . S
C481 C482 1.444 . S
C482 C481 1.444 . S
C482 C483 1.350 1_565 S
C483 H471 0.930 . S
C483 C482 1.350 1_545 S
C483 C484 1.393 1_545 S
C484 C483 1.393 1_565 S
C484 C485 1.387 . S
C485 H472 0.930 . S
C485 C480 1.415 . S
C485 C484 1.387 . S
H486 C494 0.930 . S
H487 C497 0.930 . S
H488 C499 0.930 . S
H489 C500 0.970 . S
H490 C500 0.970 . S
H491 C502 0.930 . S
H492 C504 0.930 . S
H493 C506 0.930 . S
C494 H486 0.930 . S
C494 C495 1.382 1_565 S
C494 C496 1.426 . S
C495 C494 1.382 1_545 S
C495 C499 1.389 . S
C496 C494 1.426 . S
C496 C497 1.375 . S
C496 C500 1.532 . S
C497 H487 0.930 . S
C497 C496 1.375 . S
C497 C498 1.416 1_565 S
C498 C497 1.416 1_545 S
C498 C499 1.371 . S
C499 H488 0.930 . S
C499 C495 1.389 . S
C499 C498 1.371 . S
C500 H489 0.970 . S
C500 H490 0.970 . S
C500 C496 1.532 . S
C500 C501 1.499 . S
C501 C500 1.499 . S
C501 C502 1.370 . S
C501 C506 1.415 . S
C502 H491 0.930 . S
C502 C501 1.370 . S
C502 C503 1.407 1_565 S
C503 C502 1.407 1_545 S
C503 C504 1.365 . S
C504 H492 0.930 . S
C504 C503 1.365 . S
C504 C505 1.393 . S
C505 C504 1.393 . S
C505 C506 1.387 1_545 S
C506 H493 0.930 . S
C506 C501 1.415 . S
C506 C505 1.387 1_565 S
H507 C515 0.930 . S
H508 C518 0.930 . S
H509 C520 0.930 . S
H510 C521 0.970 . S
H511 C521 0.970 . S
H512 C523 0.930 . S
H513 C525 0.930 . S
H514 C527 0.930 . S
C515 H507 0.930 . S
C515 C516 1.382 . S
C515 C517 1.426 . S
C516 C515 1.382 . S
C516 C520 1.389 1_455 S
C517 C515 1.426 . S
C517 C518 1.375 . S
C517 C521 1.532 . S
C518 H508 0.930 . S
C518 C517 1.375 . S
C518 C519 1.416 . S
C519 C518 1.416 . S
C519 C520 1.371 1_455 S
C520 H509 0.930 . S
C520 C516 1.389 1_655 S
C520 C519 1.371 1_655 S
C521 H510 0.970 . S
C521 H511 0.970 . S
C521 C517 1.532 . S
C521 C522 1.499 . S
C522 C521 1.499 . S
C522 C523 1.370 . S
C522 C527 1.415 . S
C523 H512 0.930 . S
C523 C522 1.370 . S
C523 C524 1.407 . S
C524 C523 1.407 . S
C524 C525 1.365 1_455 S
C525 H513 0.930 . S
C525 C524 1.365 1_655 S
C525 C526 1.393 1_655 S
C526 C525 1.393 1_455 S
C526 C527 1.387 . S
C527 H514 0.930 . S
C527 C522 1.415 . S
C527 C526 1.387 . S
H528 C536 0.930 . S
H529 C539 0.930 . S
H530 C541 0.930 . S
H531 C542 0.970 . S
H532 C542 0.970 . S
H533 C544 0.930 . S
H534 C546 0.930 . S
H535 C548 0.930 . S
C536 H528 0.930 . S
C536 C537 1.382 . S
C536 C538 1.426 . S
C537 C536 1.382 . S
C537 C541 1.389 . S
C538 C536 1.426 . S
C538 C539 1.375 . S
C538 C542 1.532 . S
C539 H529 0.930 . S
C539 C538 1.375 . S
C539 C540 1.416 . S
C540 C539 1.416 . S
C540 C541 1.371 . S
C541 H530 0.930 . S
C541 C537 1.389 . S
C541 C540 1.371 . S
C542 H531 0.970 . S
C542 H532 0.970 . S
C542 C538 1.532 . S
C542 C543 1.499 . S
C543 C542 1.499 . S
C543 C544 1.370 . S
C543 C548 1.415 . S
C544 H533 0.930 . S
C544 C543 1.370 . S
C544 C545 1.407 . S
C545 C544 1.407 . S
C545 C546 1.365 . S
C546 H534 0.930 . S
C546 C545 1.365 . S
C546 C547 1.393 . S
C547 C546 1.393 . S
C547 C548 1.387 . S
C548 H535 0.930 . S
C548 C543 1.415 . S
C548 C547 1.387 . S
H549 C557 0.930 . S
H550 C560 0.930 . S
H551 C562 0.930 . S
H552 C563 0.970 . S
H553 C563 0.970 . S
H554 C565 0.930 . S
H555 C567 0.930 . S
H556 C569 0.930 . S
C557 H549 0.930 . S
C557 C558 1.382 . S
C557 C559 1.426 . S
C558 C557 1.382 . S
C558 C562 1.389 . S
C559 C557 1.426 . S
C559 C560 1.375 . S
C559 C563 1.532 . S
C560 H550 0.930 . S
C560 C559 1.375 . S
C560 C561 1.416 . S
C561 C560 1.416 . S
C561 C562 1.371 . S
C562 H551 0.930 . S
C562 C558 1.389 . S
C562 C561 1.371 . S
C563 H552 0.970 . S
C563 H553 0.970 . S
C563 C559 1.532 . S
C563 C564 1.499 . S
C564 C563 1.499 . S
C564 C565 1.370 . S
C564 C569 1.415 . S
C565 H554 0.930 . S
C565 C564 1.370 . S
C565 C566 1.407 . S
C566 C565 1.407 . S
C566 C567 1.365 . S
C567 H555 0.930 . S
C567 C566 1.365 . S
C567 C568 1.393 . S
C568 C567 1.393 . S
C568 C569 1.387 . S
C569 H556 0.930 . S
C569 C564 1.415 . S
C569 C568 1.387 . S
H570 C578 0.930 . S
H571 C581 0.930 . S
H572 C583 0.930 . S
H573 C584 0.970 . S
H574 C584 0.970 . S
H575 C586 0.930 . S
H576 C588 0.930 . S
H577 C590 0.930 . S
C578 H570 0.930 . S
C578 C579 1.382 . S
C578 C580 1.426 . S
C579 C578 1.382 . S
C579 C583 1.389 . S
C580 C578 1.426 . S
C580 C581 1.375 . S
C580 C584 1.532 . S
C581 H571 0.930 . S
C581 C580 1.375 . S
C581 C582 1.416 . S
C582 C581 1.416 . S
C582 C583 1.371 . S
C583 H572 0.930 . S
C583 C579 1.389 . S
C583 C582 1.371 . S
C584 H573 0.970 . S
C584 H574 0.970 . S
C584 C580 1.532 . S
C584 C585 1.499 . S
C585 C584 1.499 . S
C585 C586 1.370 . S
C585 C590 1.415 . S
C586 H575 0.930 . S
C586 C585 1.370 . S
C586 C587 1.407 . S
C587 C586 1.407 . S
C587 C588 1.365 . S
C588 H576 0.930 . S
C588 C587 1.365 . S
C588 C589 1.393 . S
C589 C588 1.393 . S
C589 C590 1.387 . S
C590 H577 0.930 . S
C590 C585 1.415 . S
C590 C589 1.387 . S
H591 C599 0.930 . S
H592 C602 0.930 . S
H593 C604 0.930 . S
H594 C605 0.970 . S
H595 C605 0.970 . S
H596 C607 0.930 . S
H597 C609 0.930 . S
H598 C611 0.930 . S
C599 H591 0.930 . S
C599 C600 1.382 . S
C599 C601 1.426 . S
C600 C599 1.382 . S
C600 C604 1.389 . S
C601 C599 1.426 . S
C601 C602 1.375 . S
C601 C605 1.532 . S
C602 H592 0.930 . S
C602 C601 1.375 . S
C602 C603 1.416 . S
C603 C602 1.416 . S
C603 C604 1.371 . S
C604 H593 0.930 . S
C604 C600 1.389 . S
C604 C603 1.371 . S
C605 H594 0.970 . S
C605 H595 0.970 . S
C605 C601 1.532 . S
C605 C606 1.499 . S
C606 C605 1.499 . S
C606 C607 1.370 . S
C606 C611 1.415 . S
C607 H596 0.930 . S
C607 C606 1.370 . S
C607 C608 1.407 . S
C608 C607 1.407 . S
C608 C609 1.365 . S
C609 H597 0.930 . S
C609 C608 1.365 . S
C609 C610 1.393 . S
C610 C609 1.393 . S
C610 C611 1.387 . S
C611 H598 0.930 . S
C611 C606 1.415 . S
C611 C610 1.387 . S
C612 C613 1.369 . S
C612 C614 1.419 . S
C612 H616 0.930 1_455 S
C613 C612 1.369 . S
C613 C622 1.429 . S
C614 C612 1.419 . S
C614 C615 1.363 . S
C614 H617 0.929 1_455 S
C615 C614 1.363 . S
C615 C621 1.428 . S
H616 C612 0.930 1_655 S
H617 C614 0.929 1_655 S
S618 N619 1.613 . S
S618 N620 1.610 . S
N619 S618 1.613 . S
N619 C622 1.350 . S
N620 S618 1.610 . S
N620 C621 1.351 . S
C621 C615 1.428 . S
C621 N620 1.351 . S
C621 C622 1.434 . S
C622 C613 1.429 . S
C622 N619 1.350 . S
C622 C621 1.434 . S
C623 C624 1.369 . S
C623 C625 1.419 . S
C623 H627 0.930 . S
C624 C623 1.369 . S
C624 C633 1.429 . S
C625 C623 1.419 . S
C625 C626 1.363 . S
C625 H628 0.929 . S
C626 C625 1.363 . S
C626 C632 1.428 . S
H627 C623 0.930 . S
H628 C625 0.929 . S
S629 N630 1.613 . S
S629 N631 1.610 . S
N630 S629 1.613 . S
N630 C633 1.350 . S
N631 S629 1.610 . S
N631 C632 1.351 . S
C632 C626 1.428 . S
C632 N631 1.351 . S
C632 C633 1.434 . S
C633 C624 1.429 . S
C633 N630 1.350 . S
C633 C632 1.434 . S
C634 C635 1.369 1_565 S
C634 C636 1.419 . S
C634 H638 0.930 . S
C635 C634 1.369 1_545 S
C635 C644 1.429 . S
C636 C634 1.419 . S
C636 C637 1.363 1_565 S
C636 H639 0.929 . S
C637 C636 1.363 1_545 S
C637 C643 1.428 . S
H638 C634 0.930 . S
H639 C636 0.929 . S
S640 N641 1.613 . S
S640 N642 1.610 . S
N641 S640 1.613 . S
N641 C644 1.350 . S
N642 S640 1.610 . S
N642 C643 1.351 . S
C643 C637 1.428 . S
C643 N642 1.351 . S
C643 C644 1.434 . S
C644 C635 1.429 . S
C644 N641 1.350 . S
C644 C643 1.434 . S
C645 C646 1.369 . S
C645 C647 1.419 . S
C645 H649 0.930 . S
C646 C645 1.369 . S
C646 C655 1.429 . S
C647 C645 1.419 . S
C647 C648 1.363 . S
C647 H650 0.929 . S
C648 C647 1.363 . S
C648 C654 1.428 . S
H649 C645 0.930 . S
H650 C647 0.929 . S
S651 N652 1.626 . S
S651 N653 1.610 . S
N652 S651 1.626 . S
N652 C655 1.343 1_565 S
N653 S651 1.610 . S
N653 C654 1.351 1_565 S
C654 C648 1.428 . S
C654 N653 1.351 1_545 S
C654 C655 1.434 . S
C655 C646 1.429 . S
C655 N652 1.343 1_545 S
C655 C654 1.434 . S
C656 C657 1.369 . S
C656 C658 1.419 . S
C656 H660 0.930 . S
C657 C656 1.369 . S
C657 C666 1.429 1_455 S
C658 C656 1.419 . S
C658 C659 1.363 . S
C658 H661 0.929 . S
C659 C658 1.363 . S
C659 C665 1.428 1_455 S
H660 C656 0.930 . S
H661 C658 0.929 . S
S662 N663 1.613 . S
S662 N664 1.610 . S
N663 S662 1.613 . S
N663 C666 1.350 . S
N664 S662 1.610 . S
N664 C665 1.351 . S
C665 C659 1.428 1_655 S
C665 N664 1.351 . S
C665 C666 1.434 . S
C666 C657 1.429 1_655 S
C666 N663 1.350 . S
C666 C665 1.434 . S
C667 C668 1.369 . S
C667 C669 1.419 . S
C667 H671 0.930 . S
C668 C667 1.369 . S
C668 C677 1.429 . S
C669 C667 1.419 . S
C669 C670 1.363 . S
C669 H672 0.929 . S
C670 C669 1.363 . S
C670 C676 1.428 . S
H671 C667 0.930 . S
H672 C669 0.929 . S
S673 N674 1.613 . S
S673 N675 1.610 . S
N674 S673 1.613 . S
N674 C677 1.350 . S
N675 S673 1.610 . S
N675 C676 1.351 . S
C676 C670 1.428 . S
C676 N675 1.351 . S
C676 C677 1.434 . S
C677 C668 1.429 . S
C677 N674 1.350 . S
C677 C676 1.434 . S
C678 C679 1.369 . S
C678 C680 1.419 . S
C678 H682 0.930 . S
C679 C678 1.369 . S
C679 C688 1.429 1_455 S
C680 C678 1.419 . S
C680 C681 1.385 . S
C680 H683 0.929 . S
C681 C680 1.385 . S
C681 C687 1.392 1_455 S
H682 C678 0.930 . S
H683 C680 0.929 . S
S684 N685 1.613 . S
S684 N686 1.610 . S
N685 S684 1.613 . S
N685 C688 1.350 . S
N686 S684 1.610 . S
N686 C687 1.351 . S
C687 C681 1.392 1_655 S
C687 N686 1.351 . S
C687 C688 1.434 . S
C688 C679 1.429 1_655 S
C688 N685 1.350 . S
C688 C687 1.434 . S
C689 C690 1.369 . S
C689 C691 1.419 . S
C689 H693 0.930 . S
C690 C689 1.369 . S
C690 C699 1.429 . S
C691 C689 1.419 . S
C691 C692 1.363 . S
C691 H694 0.929 . S
C692 C691 1.363 . S
C692 C698 1.428 . S
H693 C689 0.930 . S
H694 C691 0.929 . S
S695 N696 1.613 . S
S695 N697 1.610 . S
N696 S695 1.613 . S
N696 C699 1.350 . S
N697 S695 1.610 . S
N697 C698 1.351 . S
C698 C692 1.428 . S
C698 N697 1.351 . S
C698 C699 1.434 . S
C699 C690 1.429 . S
C699 N696 1.350 . S
C699 C698 1.434 . S
C700 C701 1.369 1_565 S
C700 C702 1.419 . S
C700 H704 0.930 . S
C701 C700 1.369 1_545 S
C701 C710 1.429 . S
C702 C700 1.419 . S
C702 C703 1.363 1_565 S
C702 H705 0.929 . S
C703 C702 1.363 1_545 S
C703 C709 1.428 . S
H704 C700 0.930 . S
H705 C702 0.929 . S
S706 N707 1.613 . S
S706 N708 1.610 . S
N707 S706 1.613 . S
N707 C710 1.350 . S
N708 S706 1.610 . S
N708 C709 1.351 . S
C709 C703 1.428 . S
C709 N708 1.351 . S
C709 C710 1.434 . S
C710 C701 1.429 . S
C710 N707 1.350 . S
C710 C709 1.434 . S
C711 C712 1.369 1_565 S
C711 C713 1.419 . S
C711 H715 0.930 . S
C712 C711 1.369 1_545 S
C712 C721 1.429 . S
C713 C711 1.419 . S
C713 C714 1.363 1_565 S
C713 H716 0.929 . S
C714 C713 1.363 1_545 S
C714 C720 1.428 . S
H715 C711 0.930 . S
H716 C713 0.929 . S
S717 N718 1.613 . S
S717 N719 1.610 . S
N718 S717 1.613 . S
N718 C721 1.350 . S
N719 S717 1.610 . S
N719 C720 1.351 . S
C720 C714 1.428 . S
C720 N719 1.351 . S
C720 C721 1.434 . S
C721 C712 1.429 . S
C721 N718 1.350 . S
C721 C720 1.434 . S
C722 C723 1.369 . S
C722 C724 1.419 . S
C722 H726 0.930 . S
C723 C722 1.369 . S
C723 C732 1.429 . S
C724 C722 1.419 . S
C724 C725 1.363 . S
C724 H727 0.929 . S
C725 C724 1.363 . S
C725 C731 1.428 . S
H726 C722 0.930 . S
H727 C724 0.929 . S
S728 N729 1.613 . S
S728 N730 1.610 . S
N729 S728 1.613 . S
N729 C732 1.350 1_655 S
N730 S728 1.610 . S
N730 C731 1.351 1_655 S
C731 C725 1.428 . S
C731 N730 1.351 1_455 S
C731 C732 1.434 . S
C732 C723 1.429 . S
C732 N729 1.350 1_455 S
C732 C731 1.434 . S
C733 C734 1.369 . S
C733 C735 1.419 . S
C733 H737 0.930 . S
C734 C733 1.369 . S
C734 C743 1.429 . S
C735 C733 1.419 . S
C735 C736 1.363 . S
C735 H738 0.929 . S
C736 C735 1.363 . S
C736 C742 1.428 . S
H737 C733 0.930 . S
H738 C735 0.929 . S
S739 N740 1.613 . S
S739 N741 1.610 . S
N740 S739 1.613 . S
N740 C743 1.350 . S
N741 S739 1.610 . S
N741 C742 1.351 . S
C742 C736 1.428 . S
C742 N741 1.351 . S
C742 C743 1.434 . S
C743 C734 1.429 . S
C743 N740 1.350 . S
C743 C742 1.434 . S
C744 C745 1.369 . S
C744 C746 1.419 . S
C744 H748 0.930 . S
C745 C744 1.369 . S
C745 C754 1.429 . S
C746 C744 1.419 . S
C746 C747 1.363 . S
C746 H749 0.929 . S
C747 C746 1.363 . S
C747 C753 1.428 . S
H748 C744 0.930 . S
H749 C746 0.929 . S
S750 N751 1.613 . S
S750 N752 1.610 . S
N751 S750 1.613 . S
N751 C754 1.350 . S
N752 S750 1.610 . S
N752 C753 1.351 . S
C753 C747 1.428 . S
C753 N752 1.351 . S
C753 C754 1.434 . S
C754 C745 1.429 . S
C754 N751 1.350 . S
C754 C753 1.434 . S
C755 C756 1.369 . S
C755 C757 1.419 . S
C755 H759 0.930 . S
C756 C755 1.369 . S
C756 C765 1.429 . S
C757 C755 1.419 . S
C757 C758 1.363 . S
C757 H760 0.929 . S
C758 C757 1.363 . S
C758 C764 1.428 . S
H759 C755 0.930 . S
H760 C757 0.929 . S
S761 N762 1.613 . S
S761 N763 1.610 . S
N762 S761 1.613 . S
N762 C765 1.350 . S
N763 S761 1.610 . S
N763 C764 1.351 . S
C764 C758 1.428 . S
C764 N763 1.351 . S
C764 C765 1.434 . S
C765 C756 1.429 . S
C765 N762 1.350 . S
C765 C764 1.434 . S
C766 C767 1.369 . S
C766 C768 1.419 . S
C766 H770 0.930 . S
C767 C766 1.369 . S
C767 C776 1.429 . S
C768 C766 1.419 . S
C768 C769 1.363 . S
C768 H771 0.929 . S
C769 C768 1.363 . S
C769 C775 1.428 . S
H770 C766 0.930 . S
H771 C768 0.929 . S
S772 N773 1.613 . S
S772 N774 1.610 . S
N773 S772 1.613 . S
N773 C776 1.350 . S
N774 S772 1.610 . S
N774 C775 1.351 . S
C775 C769 1.428 . S
C775 N774 1.351 . S
C775 C776 1.434 . S
C776 C767 1.429 . S
C776 N773 1.350 . S
C776 C775 1.434 . S
C777 C778 1.369 . S
C777 C779 1.419 . S
C777 H781 0.930 . S
C778 C777 1.369 . S
C778 C787 1.429 . S
C779 C777 1.419 . S
C779 C780 1.363 . S
C779 H782 0.929 . S
C780 C779 1.363 . S
C780 C786 1.428 . S
H781 C777 0.930 . S
H782 C779 0.929 . S
S783 N784 1.613 . S
S783 N785 1.610 . S
N784 S783 1.613 . S
N784 C787 1.350 . S
N785 S783 1.610 . S
N785 C786 1.351 . S
C786 C780 1.428 . S
C786 N785 1.351 . S
C786 C787 1.434 . S
C787 C778 1.429 . S
C787 N784 1.350 . S
C787 C786 1.434 . S
C788 C789 1.369 . S
C788 C790 1.419 . S
C788 H792 0.930 . S
C789 C788 1.369 . S
C789 C798 1.429 . S
C790 C788 1.419 . S
C790 C791 1.363 . S
C790 H793 0.929 . S
C791 C790 1.363 . S
C791 C797 1.428 . S
H792 C788 0.930 . S
H793 C790 0.929 . S
S794 N795 1.613 . S
S794 N796 1.610 . S
N795 S794 1.613 . S
N795 C798 1.350 . S
N796 S794 1.610 . S
N796 C797 1.351 . S
C797 C791 1.428 . S
C797 N796 1.351 . S
C797 C798 1.434 . S
C798 C789 1.429 . S
C798 N795 1.350 . S
C798 C797 1.434 . S
C799 C800 1.369 . S
C799 C801 1.419 . S
C799 H803 0.930 . S
C800 C799 1.369 . S
C800 C809 1.429 . S
C801 C799 1.419 . S
C801 C802 1.363 . S
C801 H804 0.929 . S
C802 C801 1.363 . S
C802 C808 1.428 . S
H803 C799 0.930 . S
H804 C801 0.929 . S
S805 N806 1.613 . S
S805 N807 1.610 . S
N806 S805 1.613 . S
N806 C809 1.350 . S
N807 S805 1.610 . S
N807 C808 1.351 . S
C808 C802 1.428 . S
C808 N807 1.351 . S
C808 C809 1.434 . S
C809 C800 1.429 . S
C809 N806 1.350 . S
C809 C808 1.434 . S
C810 C811 1.369 . S
C810 C812 1.419 . S
C810 H814 0.930 . S
C811 C810 1.369 . S
C811 C820 1.429 . S
C812 C810 1.419 . S
C812 C813 1.363 . S
C812 H815 0.929 . S
C813 C812 1.363 . S
C813 C819 1.428 . S
H814 C810 0.930 . S
H815 C812 0.929 . S
S816 N817 1.613 . S
S816 N818 1.610 . S
N817 S816 1.613 . S
N817 C820 1.350 . S
N818 S816 1.610 . S
N818 C819 1.351 . S
C819 C813 1.428 . S
C819 N818 1.351 . S
C819 C820 1.434 . S
C820 C811 1.429 . S
C820 N817 1.350 . S
C820 C819 1.434 . S
C821 C822 1.369 . S
C821 C823 1.419 . S
C821 H825 0.930 . S
C822 C821 1.369 . S
C822 C831 1.429 . S
C823 C821 1.419 . S
C823 C824 1.363 . S
C823 H826 0.929 . S
C824 C823 1.363 . S
C824 C830 1.428 . S
H825 C821 0.930 . S
H826 C823 0.929 . S
S827 N828 1.613 . S
S827 N829 1.610 . S
N828 S827 1.613 . S
N828 C831 1.350 . S
N829 S827 1.610 . S
N829 C830 1.351 . S
C830 C824 1.428 . S
C830 N829 1.351 . S
C830 C831 1.434 . S
C831 C822 1.429 . S
C831 N828 1.350 . S
C831 C830 1.434 . S
C832 C833 1.369 . S
C832 C834 1.419 . S
C832 H836 0.930 . S
C833 C832 1.369 . S
C833 C842 1.429 . S
C834 C832 1.419 . S
C834 C835 1.363 . S
C834 H837 0.929 . S
C835 C834 1.363 . S
C835 C841 1.428 . S
H836 C832 0.930 . S
H837 C834 0.929 . S
S838 N839 1.613 . S
S838 N840 1.610 . S
N839 S838 1.613 . S
N839 C842 1.350 . S
N840 S838 1.610 . S
N840 C841 1.351 . S
C841 C835 1.428 . S
C841 N840 1.351 . S
C841 C842 1.434 . S
C842 C833 1.429 . S
C842 N839 1.350 . S
C842 C841 1.434 . S
C843 C844 1.369 . S
C843 C845 1.419 . S
C843 H847 0.930 . S
C844 C843 1.369 . S
C844 C853 1.429 . S
C845 C843 1.419 . S
C845 C846 1.363 . S
C845 H848 0.929 . S
C846 C845 1.363 . S
C846 C852 1.428 . S
H847 C843 0.930 . S
H848 C845 0.929 . S
S849 N850 1.613 . S
S849 N851 1.610 . S
N850 S849 1.613 . S
N850 C853 1.350 . S
N851 S849 1.610 . S
N851 C852 1.351 . S
C852 C846 1.428 . S
C852 N851 1.351 . S
C852 C853 1.434 . S
C853 C844 1.429 . S
C853 N850 1.350 . S
C853 C852 1.434 . S
C854 C855 1.369 . S
C854 C856 1.419 . S
C854 H858 0.930 . S
C855 C854 1.369 . S
C855 C864 1.429 . S
C856 C854 1.419 . S
C856 C857 1.363 . S
C856 H859 0.929 . S
C857 C856 1.363 . S
C857 C863 1.428 . S
H858 C854 0.930 . S
H859 C856 0.929 . S
S860 N861 1.613 . S
S860 N862 1.610 . S
N861 S860 1.613 . S
N861 C864 1.350 . S
N862 S860 1.610 . S
N862 C863 1.351 . S
C863 C857 1.428 . S
C863 N862 1.351 . S
C863 C864 1.434 . S
C864 C855 1.429 . S
C864 N861 1.350 . S
C864 C863 1.434 . S
C865 C866 1.369 . S
C865 C867 1.419 . S
C865 H869 0.930 . S
C866 C865 1.369 . S
C866 C875 1.429 . S
C867 C865 1.419 . S
C867 C868 1.363 . S
C867 H870 0.929 . S
C868 C867 1.363 . S
C868 C874 1.428 . S
H869 C865 0.930 . S
H870 C867 0.929 . S
S871 N872 1.613 . S
S871 N873 1.610 . S
N872 S871 1.613 . S
N872 C875 1.350 . S
N873 S871 1.610 . S
N873 C874 1.351 . S
C874 C868 1.428 . S
C874 N873 1.351 . S
C874 C875 1.434 . S
C875 C866 1.429 . S
C875 N872 1.350 . S
C875 C874 1.434 . S
C876 C877 1.369 . S
C876 C878 1.419 . S
C876 H880 0.930 . S
C877 C876 1.369 . S
C877 C886 1.429 . S
C878 C876 1.419 . S
C878 C879 1.363 . S
C878 H881 0.929 . S
C879 C878 1.363 . S
C879 C885 1.428 . S
H880 C876 0.930 . S
H881 C878 0.929 . S
S882 N883 1.613 . S
S882 N884 1.610 . S
N883 S882 1.613 . S
N883 C886 1.350 . S
N884 S882 1.610 . S
N884 C885 1.351 . S
C885 C879 1.428 . S
C885 N884 1.351 . S
C885 C886 1.434 . S
C886 C877 1.429 . S
C886 N883 1.350 . S
C886 C885 1.434 . S
C887 C888 1.369 . S
C887 C889 1.419 . S
C887 H891 0.930 . S
C888 C887 1.369 . S
C888 C897 1.429 . S
C889 C887 1.419 . S
C889 C890 1.363 . S
C889 H892 0.929 . S
C890 C889 1.363 . S
C890 C896 1.428 . S
H891 C887 0.930 . S
H892 C889 0.929 . S
S893 N894 1.613 . S
S893 N895 1.610 . S
N894 S893 1.613 . S
N894 C897 1.350 . S
N895 S893 1.610 . S
N895 C896 1.351 . S
C896 C890 1.428 . S
C896 N895 1.351 . S
C896 C897 1.434 . S
C897 C888 1.429 . S
C897 N894 1.350 . S
C897 C896 1.434 . S
C898 C899 1.369 . S
C898 C900 1.419 . S
C898 H902 0.930 . S
C899 C898 1.369 . S
C899 C908 1.429 . S
C900 C898 1.419 . S
C900 C901 1.363 . S
C900 H903 0.929 . S
C901 C900 1.363 . S
C901 C907 1.428 . S
H902 C898 0.930 . S
H903 C900 0.929 . S
S904 N905 1.613 . S
S904 N906 1.610 . S
N905 S904 1.613 . S
N905 C908 1.350 . S
N906 S904 1.610 . S
N906 C907 1.351 . S
C907 C901 1.428 . S
C907 N906 1.351 . S
C907 C908 1.434 . S
C908 C899 1.429 . S
C908 N905 1.350 . S
C908 C907 1.434 . S
C909 C910 1.369 . S
C909 C911 1.419 . S
C909 H913 0.930 . S
C910 C909 1.369 . S
C910 C919 1.429 . S
C911 C909 1.419 . S
C911 C912 1.363 . S
C911 H914 0.929 . S
C912 C911 1.363 . S
C912 C918 1.428 . S
H913 C909 0.930 . S
H914 C911 0.929 . S
S915 N916 1.613 . S
S915 N917 1.610 . S
N916 S915 1.613 . S
N916 C919 1.350 . S
N917 S915 1.610 . S
N917 C918 1.351 . S
C918 C912 1.428 . S
C918 N917 1.351 . S
C918 C919 1.434 . S
C919 C910 1.429 . S
C919 N916 1.350 . S
C919 C918 1.434 . S
C920 C921 1.369 . S
C920 C922 1.419 . S
C920 H924 0.930 . S
C921 C920 1.369 . S
C921 C930 1.429 . S
C922 C920 1.419 . S
C922 C923 1.363 . S
C922 H925 0.929 . S
C923 C922 1.363 . S
C923 C929 1.428 . S
H924 C920 0.930 . S
H925 C922 0.929 . S
S926 N927 1.613 . S
S926 N928 1.610 . S
N927 S926 1.613 . S
N927 C930 1.350 . S
N928 S926 1.610 . S
N928 C929 1.351 . S
C929 C923 1.428 . S
C929 N928 1.351 . S
C929 C930 1.434 . S
C930 C921 1.429 . S
C930 N927 1.350 . S
C930 C929 1.434 . S
C931 C932 1.369 . S
C931 C933 1.419 . S
C931 H935 0.930 . S
C932 C931 1.369 . S
C932 C941 1.429 . S
C933 C931 1.419 . S
C933 C934 1.363 . S
C933 H936 0.929 . S
C934 C933 1.363 . S
C934 C940 1.428 . S
H935 C931 0.930 . S
H936 C933 0.929 . S
S937 N938 1.613 . S
S937 N939 1.610 . S
N938 S937 1.613 . S
N938 C941 1.350 . S
N939 S937 1.610 . S
N939 C940 1.351 . S
C940 C934 1.428 . S
C940 N939 1.351 . S
C940 C941 1.434 . S
C941 C932 1.429 . S
C941 N938 1.350 . S
C941 C940 1.434 . S
C942 C943 1.369 . S
C942 C944 1.419 . S
C942 H946 0.930 . S
C943 C942 1.369 . S
C943 C952 1.429 . S
C944 C942 1.419 . S
C944 C945 1.363 . S
C944 H947 0.929 . S
C945 C944 1.363 . S
C945 C951 1.428 . S
H946 C942 0.930 . S
H947 C944 0.929 . S
S948 N949 1.613 . S
S948 N950 1.610 . S
N949 S948 1.613 . S
N949 C952 1.350 . S
N950 S948 1.610 . S
N950 C951 1.351 . S
C951 C945 1.428 . S
C951 N950 1.351 . S
C951 C952 1.434 . S
C952 C943 1.429 . S
C952 N949 1.350 . S
C952 C951 1.434 . S
C953 C954 1.369 . S
C953 C955 1.419 . S
C953 H957 0.930 . S
C954 C953 1.369 . S
C954 C963 1.429 . S
C955 C953 1.419 . S
C955 C956 1.363 . S
C955 H958 0.929 . S
C956 C955 1.363 . S
C956 C962 1.428 . S
H957 C953 0.930 . S
H958 C955 0.929 . S
S959 N960 1.613 . S
S959 N961 1.610 . S
N960 S959 1.613 . S
N960 C963 1.350 . S
N961 S959 1.610 . S
N961 C962 1.351 . S
C962 C956 1.428 . S
C962 N961 1.351 . S
C962 C963 1.434 . S
C963 C954 1.429 . S
C963 N960 1.350 . S
C963 C962 1.434 . S
C964 C965 1.369 . S
C964 C966 1.419 . S
C964 H968 0.930 . S
C965 C964 1.369 . S
C965 C974 1.429 . S
C966 C964 1.419 . S
C966 C967 1.363 . S
C966 H969 0.929 . S
C967 C966 1.363 . S
C967 C973 1.428 . S
H968 C964 0.930 . S
H969 C966 0.929 . S
S970 N971 1.613 . S
S970 N972 1.610 . S
N971 S970 1.613 . S
N971 C974 1.350 . S
N972 S970 1.610 . S
N972 C973 1.351 . S
C973 C967 1.428 . S
C973 N972 1.351 . S
C973 C974 1.434 . S
C974 C965 1.429 . S
C974 N971 1.350 . S
C974 C973 1.434 . S
C975 C976 1.369 . S
C975 C977 1.419 . S
C975 H979 0.930 . S
C976 C975 1.369 . S
C976 C985 1.429 . S
C977 C975 1.419 . S
C977 C978 1.363 . S
C977 H980 0.929 . S
C978 C977 1.363 . S
C978 C984 1.428 . S
H979 C975 0.930 . S
H980 C977 0.929 . S
S981 N982 1.613 . S
S981 N983 1.610 . S
N982 S981 1.613 . S
N982 C985 1.350 . S
N983 S981 1.610 . S
N983 C984 1.351 . S
C984 C978 1.428 . S
C984 N983 1.351 . S
C984 C985 1.434 . S
C985 C976 1.429 . S
C985 N982 1.350 . S
C985 C984 1.434 . S
C986 C987 1.369 . S
C986 C988 1.419 . S
C986 H990 0.930 . S
C987 C986 1.369 . S
C987 C996 1.429 . S
C988 C986 1.419 . S
C988 C989 1.363 . S
C988 H991 0.929 . S
C989 C988 1.363 . S
C989 C995 1.428 . S
H990 C986 0.930 . S
H991 C988 0.929 . S
S992 N993 1.613 . S
S992 N994 1.610 . S
N993 S992 1.613 . S
N993 C996 1.350 . S
N994 S992 1.610 . S
N994 C995 1.351 . S
C995 C989 1.428 . S
C995 N994 1.351 . S
C995 C996 1.434 . S
C996 C987 1.429 . S
C996 N993 1.350 . S
C996 C995 1.434 . S
C997 C998 1.369 . S
C997 C999 1.419 . S
C997 H1001 0.930 . S
C998 C997 1.369 . S
C998 C1007 1.429 . S
C999 C997 1.419 . S
C999 C1000 1.363 . S
C999 H1002 0.929 . S
C1000 C999 1.363 . S
C1000 C1006 1.428 . S
H1001 C997 0.930 . S
H1002 C999 0.929 . S
S1003 N1004 1.613 . S
S1003 N1005 1.610 . S
N1004 S1003 1.613 . S
N1004 C1007 1.350 . S
N1005 S1003 1.610 . S
N1005 C1006 1.351 . S
C1006 C1000 1.428 . S
C1006 N1005 1.351 . S
C1006 C1007 1.434 . S
C1007 C998 1.429 . S
C1007 N1004 1.350 . S
C1007 C1006 1.434 . S
C1008 C1009 1.369 . S
C1008 C1010 1.419 . S
C1008 H1012 0.930 . S
C1009 C1008 1.369 . S
C1009 C1018 1.429 . S
C1010 C1008 1.419 . S
C1010 C1011 1.363 . S
C1010 H1013 0.929 . S
C1011 C1010 1.363 . S
C1011 C1017 1.428 . S
H1012 C1008 0.930 . S
H1013 C1010 0.929 . S
S1014 N1015 1.613 1_556 S
S1014 N1016 1.610 1_556 S
N1015 S1014 1.613 1_554 S
N1015 C1018 1.350 . S
N1016 S1014 1.610 1_554 S
N1016 C1017 1.351 . S
C1017 C1011 1.428 . S
C1017 N1016 1.351 . S
C1017 C1018 1.434 . S
C1018 C1009 1.429 . S
C1018 N1015 1.350 . S
C1018 C1017 1.434 . S
C1019 C1020 1.369 . S
C1019 C1021 1.419 . S
C1019 H1023 0.930 . S
C1020 C1019 1.369 . S
C1020 C1029 1.429 . S
C1021 C1019 1.419 . S
C1021 C1022 1.363 . S
C1021 H1024 0.929 . S
C1022 C1021 1.363 . S
C1022 C1028 1.428 . S
H1023 C1019 0.930 . S
H1024 C1021 0.929 . S
S1025 N1026 1.613 . S
S1025 N1027 1.610 . S
N1026 S1025 1.613 . S
N1026 C1029 1.350 . S
N1027 S1025 1.610 . S
N1027 C1028 1.351 . S
C1028 C1022 1.428 . S
C1028 N1027 1.351 . S
C1028 C1029 1.434 . S
C1029 C1020 1.429 . S
C1029 N1026 1.350 . S
C1029 C1028 1.434 . S
C1030 C1031 1.369 . S
C1030 C1032 1.419 . S
C1030 H1034 0.930 . S
C1031 C1030 1.369 . S
C1031 C1040 1.429 . S
C1032 C1030 1.419 . S
C1032 C1033 1.363 . S
C1032 H1035 0.929 . S
C1033 C1032 1.363 . S
C1033 C1039 1.428 . S
H1034 C1030 0.930 . S
H1035 C1032 0.929 . S
S1036 N1037 1.613 . S
S1036 N1038 1.610 . S
N1037 S1036 1.613 . S
N1037 C1040 1.350 . S
N1038 S1036 1.610 . S
N1038 C1039 1.351 . S
C1039 C1033 1.428 . S
C1039 N1038 1.351 . S
C1039 C1040 1.434 . S
C1040 C1031 1.429 . S
C1040 N1037 1.350 . S
C1040 C1039 1.434 . S
C1041 C1042 1.369 . S
C1041 C1043 1.419 . S
C1041 H1045 0.930 . S
C1042 C1041 1.369 . S
C1042 C1051 1.429 . S
C1043 C1041 1.419 . S
C1043 C1044 1.363 . S
C1043 H1046 0.929 . S
C1044 C1043 1.363 . S
C1044 C1050 1.428 . S
H1045 C1041 0.930 . S
H1046 C1043 0.929 . S
S1047 N1048 1.613 . S
S1047 N1049 1.610 . S
N1048 S1047 1.613 . S
N1048 C1051 1.350 1_554 S
N1049 S1047 1.610 . S
N1049 C1050 1.351 1_554 S
C1050 C1044 1.428 . S
C1050 N1049 1.351 1_556 S
C1050 C1051 1.434 . S
C1051 C1042 1.429 . S
C1051 N1048 1.350 1_556 S
C1051 C1050 1.434 . S
C1052 C1053 1.369 . S
C1052 C1054 1.419 . S
C1052 H1056 0.930 . S
C1053 C1052 1.369 . S
C1053 C1062 1.429 . S
C1054 C1052 1.419 . S
C1054 C1055 1.363 . S
C1054 H1057 0.929 . S
C1055 C1054 1.363 . S
C1055 C1061 1.428 . S
H1056 C1052 0.930 . S
H1057 C1054 0.929 . S
S1058 N1059 1.613 . S
S1058 N1060 1.610 1_554 S
N1059 S1058 1.613 . S
N1059 C1062 1.350 1_554 S
N1060 S1058 1.610 1_556 S
N1060 C1061 1.351 . S
C1061 C1055 1.428 . S
C1061 N1060 1.351 . S
C1061 C1062 1.434 . S
C1062 C1053 1.429 . S
C1062 N1059 1.350 1_556 S
C1062 C1061 1.434 . S
C1063 C1064 1.369 . S
C1063 C1065 1.419 . S
C1063 H1067 0.930 . S
C1064 C1063 1.369 . S
C1064 C1073 1.429 . S
C1065 C1063 1.419 . S
C1065 C1066 1.363 . S
C1065 H1068 0.929 . S
C1066 C1065 1.363 . S
C1066 C1072 1.428 . S
H1067 C1063 0.930 . S
H1068 C1065 0.929 . S
S1069 N1070 1.613 . S
S1069 N1071 1.610 . S
N1070 S1069 1.613 . S
N1070 C1073 1.350 . S
N1071 S1069 1.610 . S
N1071 C1072 1.351 . S
C1072 C1066 1.428 . S
C1072 N1071 1.351 . S
C1072 C1073 1.434 . S
C1073 C1064 1.429 . S
C1073 N1070 1.350 . S
C1073 C1072 1.434 . S
C1074 C1075 1.369 . S
C1074 C1076 1.419 . S
C1074 H1078 0.930 . S
C1075 C1074 1.369 . S
C1075 C1084 1.429 . S
C1076 C1074 1.419 . S
C1076 C1077 1.363 . S
C1076 H1079 0.929 . S
C1077 C1076 1.363 . S
C1077 C1083 1.428 . S
H1078 C1074 0.930 . S
H1079 C1076 0.929 . S
S1080 N1081 1.613 . S
S1080 N1082 1.610 1_554 S
N1081 S1080 1.613 . S
N1081 C1084 1.350 1_554 S
N1082 S1080 1.610 1_556 S
N1082 C1083 1.351 . S
C1083 C1077 1.428 . S
C1083 N1082 1.351 . S
C1083 C1084 1.434 . S
C1084 C1075 1.429 . S
C1084 N1081 1.350 1_556 S
C1084 C1083 1.434 . S
C1085 C1086 1.369 . S
C1085 C1087 1.419 . S
C1085 H1089 0.930 . S
C1086 C1085 1.369 . S
C1086 C1095 1.429 . S
C1087 C1085 1.419 . S
C1087 C1088 1.363 . S
C1087 H1090 0.929 . S
C1088 C1087 1.363 . S
C1088 C1094 1.428 . S
H1089 C1085 0.930 . S
H1090 C1087 0.929 . S
S1091 N1092 1.613 . S
S1091 N1093 1.610 . S
N1092 S1091 1.613 . S
N1092 C1095 1.350 . S
N1093 S1091 1.610 . S
N1093 C1094 1.351 . S
C1094 C1088 1.428 . S
C1094 N1093 1.351 . S
C1094 C1095 1.434 . S
C1095 C1086 1.429 . S
C1095 N1092 1.350 . S
C1095 C1094 1.434 . S
C1096 C1097 1.369 . S
C1096 C1098 1.419 . S
C1096 H1100 0.930 . S
C1097 C1096 1.369 . S
C1097 C1106 1.429 . S
C1098 C1096 1.419 . S
C1098 C1099 1.363 . S
C1098 H1101 0.929 . S
C1099 C1098 1.363 . S
C1099 C1105 1.428 . S
H1100 C1096 0.930 . S
H1101 C1098 0.929 . S
S1102 N1103 1.613 . S
S1102 N1104 1.610 1_554 S
N1103 S1102 1.613 . S
N1103 C1106 1.350 1_554 S
N1104 S1102 1.610 1_556 S
N1104 C1105 1.351 . S
C1105 C1099 1.428 . S
C1105 N1104 1.351 . S
C1105 C1106 1.434 . S
C1106 C1097 1.429 . S
C1106 N1103 1.350 1_556 S
C1106 C1105 1.434 . S
C1107 C1108 1.369 . S
C1107 C1109 1.419 . S
C1107 H1111 0.930 . S
C1108 C1107 1.369 . S
C1108 C1117 1.429 . S
C1109 C1107 1.419 . S
C1109 C1110 1.363 . S
C1109 H1112 0.929 . S
C1110 C1109 1.363 . S
C1110 C1116 1.428 . S
H1111 C1107 0.930 . S
H1112 C1109 0.929 . S
S1113 N1114 1.619 . S
S1113 N1115 1.632 . S
N1114 S1113 1.619 . S
N1114 C1117 1.350 . S
N1115 S1113 1.632 . S
N1115 C1116 1.351 . S
C1116 C1110 1.428 . S
C1116 N1115 1.351 . S
C1116 C1117 1.434 . S
C1117 C1108 1.429 . S
C1117 N1114 1.350 . S
C1117 C1116 1.434 . S
C1118 C1119 1.369 . S
C1118 C1120 1.419 . S
C1118 H1122 0.930 . S
C1119 C1118 1.369 . S
C1119 C1128 1.429 . S
C1120 C1118 1.419 . S
C1120 C1121 1.363 . S
C1120 H1123 0.929 . S
C1121 C1120 1.363 . S
C1121 C1127 1.428 . S
H1122 C1118 0.930 . S
H1123 C1120 0.929 . S
S1124 N1125 1.613 . S
S1124 N1126 1.610 . S
N1125 S1124 1.613 . S
N1125 C1128 1.350 . S
N1126 S1124 1.610 . S
N1126 C1127 1.351 . S
C1127 C1121 1.428 . S
C1127 N1126 1.351 . S
C1127 C1128 1.434 . S
C1128 C1119 1.429 . S
C1128 N1125 1.350 . S
C1128 C1127 1.434 . S
C1129 C1130 1.369 . S
C1129 C1131 1.419 . S
C1129 H1133 0.930 . S
C1130 C1129 1.369 . S
C1130 C1139 1.429 . S
C1131 C1129 1.419 . S
C1131 C1132 1.363 . S
C1131 H1134 0.929 . S
C1132 C1131 1.363 . S
C1132 C1138 1.428 . S
H1133 C1129 0.930 . S
H1134 C1131 0.929 . S
S1135 N1136 1.613 . S
S1135 N1137 1.610 . S
N1136 S1135 1.613 . S
N1136 C1139 1.350 . S
N1137 S1135 1.610 . S
N1137 C1138 1.351 . S
C1138 C1132 1.428 . S
C1138 N1137 1.351 . S
C1138 C1139 1.434 . S
C1139 C1130 1.429 . S
C1139 N1136 1.350 . S
C1139 C1138 1.434 . S
C1140 C1141 1.369 . S
C1140 C1142 1.419 . S
C1140 H1144 0.930 . S
C1141 C1140 1.369 . S
C1141 C1150 1.429 . S
C1142 C1140 1.419 . S
C1142 C1143 1.363 . S
C1142 H1145 0.929 . S
C1143 C1142 1.363 . S
C1143 C1149 1.428 . S
H1144 C1140 0.930 . S
H1145 C1142 0.929 . S
S1146 N1147 1.613 . S
S1146 N1148 1.610 . S
N1147 S1146 1.613 . S
N1147 C1150 1.350 . S
N1148 S1146 1.610 . S
N1148 C1149 1.351 . S
C1149 C1143 1.428 . S
C1149 N1148 1.351 . S
C1149 C1150 1.434 . S
C1150 C1141 1.429 . S
C1150 N1147 1.350 . S
C1150 C1149 1.434 . S
C1151 C1152 1.369 . S
C1151 C1153 1.419 . S
C1151 H1155 0.930 . S
C1152 C1151 1.369 . S
C1152 C1161 1.429 . S
C1153 C1151 1.419 . S
C1153 C1154 1.363 . S
C1153 H1156 0.929 . S
C1154 C1153 1.363 . S
C1154 C1160 1.428 . S
H1155 C1151 0.930 . S
H1156 C1153 0.929 . S
S1157 N1158 1.613 . S
S1157 N1159 1.610 . S
N1158 S1157 1.613 . S
N1158 C1161 1.350 . S
N1159 S1157 1.610 . S
N1159 C1160 1.351 . S
C1160 C1154 1.428 . S
C1160 N1159 1.351 . S
C1160 C1161 1.434 . S
C1161 C1152 1.429 . S
C1161 N1158 1.350 . S
C1161 C1160 1.434 . S
C1162 C1163 1.369 . S
C1162 C1164 1.419 . S
C1162 H1166 0.930 . S
C1163 C1162 1.369 . S
C1163 C1172 1.429 . S
C1164 C1162 1.419 . S
C1164 C1165 1.363 . S
C1164 H1167 0.929 . S
C1165 C1164 1.363 . S
C1165 C1171 1.428 . S
H1166 C1162 0.930 . S
H1167 C1164 0.929 . S
S1168 N1169 1.613 . S
S1168 N1170 1.610 . S
N1169 S1168 1.613 . S
N1169 C1172 1.350 . S
N1170 S1168 1.610 . S
N1170 C1171 1.351 . S
C1171 C1165 1.428 . S
C1171 N1170 1.351 . S
C1171 C1172 1.434 . S
C1172 C1163 1.429 . S
C1172 N1169 1.350 . S
C1172 C1171 1.434 . S
C1173 C1174 1.369 . S
C1173 C1175 1.419 . S
C1173 H1177 0.930 1_455 S
C1174 C1173 1.369 . S
C1174 C1183 1.429 . S
C1175 C1173 1.419 . S
C1175 C1176 1.363 . S
C1175 H1178 0.929 1_455 S
C1176 C1175 1.363 . S
C1176 C1182 1.428 . S
H1177 C1173 0.930 1_655 S
H1178 C1175 0.929 1_655 S
S1179 N1180 1.613 . S
S1179 N1181 1.610 . S
N1180 S1179 1.613 . S
N1180 C1183 1.350 . S
N1181 S1179 1.610 . S
N1181 C1182 1.351 . S
C1182 C1176 1.428 . S
C1182 N1181 1.351 . S
C1182 C1183 1.434 . S
C1183 C1174 1.429 . S
C1183 N1180 1.350 . S
C1183 C1182 1.434 . S
C1184 C1185 1.369 . S
C1184 C1186 1.419 . S
C1184 H1188 0.930 . S
C1185 C1184 1.369 . S
C1185 C1194 1.429 . S
C1186 C1184 1.419 . S
C1186 C1187 1.363 . S
C1186 H1189 0.929 . S
C1187 C1186 1.363 . S
C1187 C1193 1.428 . S
H1188 C1184 0.930 . S
H1189 C1186 0.929 . S
S1190 N1191 1.613 . S
S1190 N1192 1.610 . S
N1191 S1190 1.613 . S
N1191 C1194 1.350 . S
N1192 S1190 1.610 . S
N1192 C1193 1.351 . S
C1193 C1187 1.428 . S
C1193 N1192 1.351 . S
C1193 C1194 1.434 . S
C1194 C1185 1.429 . S
C1194 N1191 1.350 . S
C1194 C1193 1.434 . S
C1195 C1196 1.369 . S
C1195 C1197 1.419 . S
C1195 H1199 0.930 . S
C1196 C1195 1.369 . S
C1196 C1205 1.429 1_565 S
C1197 C1195 1.419 . S
C1197 C1198 1.363 . S
C1197 H1200 0.929 . S
C1198 C1197 1.363 . S
C1198 C1204 1.428 1_565 S
H1199 C1195 0.930 . S
H1200 C1197 0.929 . S
S1201 N1202 1.613 . S
S1201 N1203 1.610 . S
N1202 S1201 1.613 . S
N1202 C1205 1.350 . S
N1203 S1201 1.610 . S
N1203 C1204 1.351 . S
C1204 C1198 1.428 1_545 S
C1204 N1203 1.351 . S
C1204 C1205 1.434 . S
C1205 C1196 1.429 1_545 S
C1205 N1202 1.350 . S
C1205 C1204 1.434 . S
C1206 C1207 1.369 . S
C1206 C1208 1.437 . S
C1206 H1210 0.923 . S
C1207 C1206 1.369 . S
C1207 C1216 1.429 . S
C1208 C1206 1.437 . S
C1208 C1209 1.349 . S
C1208 H1211 0.926 . S
C1209 C1208 1.349 . S
C1209 C1215 1.428 . S
H1210 C1206 0.923 . S
H1211 C1208 0.926 . S
S1212 N1213 1.613 . S
S1212 N1214 1.610 . S
N1213 S1212 1.613 . S
N1213 C1216 1.350 . S
N1214 S1212 1.610 . S
N1214 C1215 1.351 . S
C1215 C1209 1.428 . S
C1215 N1214 1.351 . S
C1215 C1216 1.434 . S
C1216 C1207 1.429 . S
C1216 N1213 1.350 . S
C1216 C1215 1.434 . S
C1217 C1218 1.369 . S
C1217 C1219 1.419 . S
C1217 H1221 0.930 . S
C1218 C1217 1.369 . S
C1218 C1227 1.429 . S
C1219 C1217 1.419 . S
C1219 C1220 1.363 . S
C1219 H1222 0.929 . S
C1220 C1219 1.363 . S
C1220 C1226 1.428 . S
H1221 C1217 0.930 . S
H1222 C1219 0.929 . S
S1223 N1224 1.613 . S
S1223 N1225 1.610 . S
N1224 S1223 1.613 . S
N1224 C1227 1.350 . S
N1225 S1223 1.610 . S
N1225 C1226 1.351 . S
C1226 C1220 1.428 . S
C1226 N1225 1.351 . S
C1226 C1227 1.434 . S
C1227 C1218 1.429 . S
C1227 N1224 1.350 . S
C1227 C1226 1.434 . S
C1228 C1229 1.369 . S
C1228 C1230 1.419 . S
C1228 H1232 0.930 . S
C1229 C1228 1.369 . S
C1229 C1238 1.429 . S
C1230 C1228 1.419 . S
C1230 C1231 1.363 . S
C1230 H1233 0.929 . S
C1231 C1230 1.363 . S
C1231 C1237 1.428 . S
H1232 C1228 0.930 . S
H1233 C1230 0.929 . S
S1234 N1235 1.613 . S
S1234 N1236 1.610 . S
N1235 S1234 1.613 . S
N1235 C1238 1.350 . S
N1236 S1234 1.610 . S
N1236 C1237 1.351 . S
C1237 C1231 1.428 . S
C1237 N1236 1.351 . S
C1237 C1238 1.434 . S
C1238 C1229 1.429 . S
C1238 N1235 1.350 . S
C1238 C1237 1.434 . S
C1239 C1240 1.369 . S
C1239 C1241 1.419 . S
C1239 H1243 0.930 . S
C1240 C1239 1.369 . S
C1240 C1249 1.429 . S
C1241 C1239 1.419 . S
C1241 C1242 1.363 . S
C1241 H1244 0.929 . S
C1242 C1241 1.363 . S
C1242 C1248 1.428 . S
H1243 C1239 0.930 . S
H1244 C1241 0.929 . S
S1245 N1246 1.613 . S
S1245 N1247 1.610 . S
N1246 S1245 1.613 . S
N1246 C1249 1.350 . S
N1247 S1245 1.610 . S
N1247 C1248 1.351 . S
C1248 C1242 1.428 . S
C1248 N1247 1.351 . S
C1248 C1249 1.434 . S
C1249 C1240 1.429 . S
C1249 N1246 1.350 . S
C1249 C1248 1.434 . S
C1250 C1251 1.369 . S
C1250 C1252 1.419 . S
C1250 H1254 0.930 . S
C1251 C1250 1.369 . S
C1251 C1260 1.429 . S
C1252 C1250 1.419 . S
C1252 C1253 1.363 . S
C1252 H1255 0.929 . S
C1253 C1252 1.363 . S
C1253 C1259 1.428 . S
H1254 C1250 0.930 . S
H1255 C1252 0.929 . S
S1256 N1257 1.613 . S
S1256 N1258 1.610 . S
N1257 S1256 1.613 . S
N1257 C1260 1.350 . S
N1258 S1256 1.610 . S
N1258 C1259 1.351 . S
C1259 C1253 1.428 . S
C1259 N1258 1.351 . S
C1259 C1260 1.434 . S
C1260 C1251 1.429 . S
C1260 N1257 1.350 . S
C1260 C1259 1.434 . S
C1261 C1262 1.369 . S
C1261 C1263 1.419 . S
C1261 H1265 0.930 . S
C1262 C1261 1.369 . S
C1262 C1271 1.429 . S
C1263 C1261 1.419 . S
C1263 C1264 1.363 . S
C1263 H1266 0.929 . S
C1264 C1263 1.363 . S
C1264 C1270 1.428 . S
H1265 C1261 0.930 . S
H1266 C1263 0.929 . S
S1267 N1268 1.613 . S
S1267 N1269 1.610 . S
N1268 S1267 1.613 . S
N1268 C1271 1.350 . S
N1269 S1267 1.610 . S
N1269 C1270 1.351 . S
C1270 C1264 1.428 . S
C1270 N1269 1.351 . S
C1270 C1271 1.434 . S
C1271 C1262 1.429 . S
C1271 N1268 1.350 . S
C1271 C1270 1.434 . S
C1272 C1273 1.390 . S
C1272 C1274 1.405 . S
C1272 H1276 0.924 1_545 S
C1273 C1272 1.390 . S
C1273 C1282 1.429 . S
C1274 C1272 1.405 . S
C1274 C1275 1.363 . S
C1274 H1277 0.929 1_545 S
C1275 C1274 1.363 . S
C1275 C1281 1.428 . S
H1276 C1272 0.924 1_565 S
H1277 C1274 0.929 1_565 S
S1278 N1279 1.613 . S
S1278 N1280 1.610 . S
N1279 S1278 1.613 . S
N1279 C1282 1.350 . S
N1280 S1278 1.610 . S
N1280 C1281 1.351 . S
C1281 C1275 1.428 . S
C1281 N1280 1.351 . S
C1281 C1282 1.434 . S
C1282 C1273 1.429 . S
C1282 N1279 1.350 . S
C1282 C1281 1.434 . S
C1283 C1284 1.369 . S
C1283 C1285 1.419 . S
C1283 H1287 0.930 . S
C1284 C1283 1.369 . S
C1284 C1293 1.429 1_655 S
C1285 C1283 1.419 . S
C1285 C1286 1.363 . S
C1285 H1288 0.929 . S
C1286 C1285 1.363 . S
C1286 C1292 1.428 1_655 S
H1287 C1283 0.930 . S
H1288 C1285 0.929 . S
S1289 N1290 1.613 . S
S1289 N1291 1.610 . S
N1290 S1289 1.613 . S
N1290 C1293 1.350 . S
N1291 S1289 1.610 . S
N1291 C1292 1.351 . S
C1292 C1286 1.428 1_455 S
C1292 N1291 1.351 . S
C1292 C1293 1.434 . S
C1293 C1284 1.429 1_455 S
C1293 N1290 1.350 . S
C1293 C1292 1.434 . S
C1294 C1295 1.369 . S
C1294 C1296 1.419 . S
C1294 H1298 0.930 . S
C1295 C1294 1.369 . S
C1295 C1304 1.429 . S
C1296 C1294 1.419 . S
C1296 C1297 1.363 . S
C1296 H1299 0.929 . S
C1297 C1296 1.363 . S
C1297 C1303 1.428 . S
H1298 C1294 0.930 . S
H1299 C1296 0.929 . S
S1300 N1301 1.613 . S
S1300 N1302 1.610 . S
N1301 S1300 1.613 . S
N1301 C1304 1.350 . S
N1302 S1300 1.610 . S
N1302 C1303 1.351 . S
C1303 C1297 1.428 . S
C1303 N1302 1.351 . S
C1303 C1304 1.434 . S
C1304 C1295 1.429 . S
C1304 N1301 1.350 . S
C1304 C1303 1.434 . S
C1305 C1306 1.369 . S
C1305 C1307 1.419 . S
C1305 H1309 0.930 . S
C1306 C1305 1.369 . S
C1306 C1315 1.429 . S
C1307 C1305 1.419 . S
C1307 C1308 1.363 . S
C1307 H1310 0.929 . S
C1308 C1307 1.363 . S
C1308 C1314 1.428 . S
H1309 C1305 0.930 . S
H1310 C1307 0.929 . S
S1311 N1312 1.613 . S
S1311 N1313 1.610 . S
N1312 S1311 1.613 . S
N1312 C1315 1.350 . S
N1313 S1311 1.610 . S
N1313 C1314 1.351 . S
C1314 C1308 1.428 . S
C1314 N1313 1.351 . S
C1314 C1315 1.434 . S
C1315 C1306 1.429 . S
C1315 N1312 1.350 . S
C1315 C1314 1.434 . S
C1316 C1317 1.369 . S
C1316 C1318 1.419 . S
C1316 H1320 0.930 . S
C1317 C1316 1.369 . S
C1317 C1326 1.429 . S
C1318 C1316 1.419 . S
C1318 C1319 1.363 . S
C1318 H1321 0.929 . S
C1319 C1318 1.363 . S
C1319 C1325 1.428 . S
H1320 C1316 0.930 . S
H1321 C1318 0.929 . S
S1322 N1323 1.613 . S
S1322 N1324 1.610 . S
N1323 S1322 1.613 . S
N1323 C1326 1.350 . S
N1324 S1322 1.610 . S
N1324 C1325 1.351 . S
C1325 C1319 1.428 . S
C1325 N1324 1.351 . S
C1325 C1326 1.434 . S
C1326 C1317 1.429 . S
C1326 N1323 1.350 . S
C1326 C1325 1.434 . S
C1327 C1328 1.369 . S
C1327 C1329 1.419 . S
C1327 H1331 0.930 . S
C1328 C1327 1.369 . S
C1328 C1337 1.429 . S
C1329 C1327 1.419 . S
C1329 C1330 1.363 . S
C1329 H1332 0.929 . S
C1330 C1329 1.363 . S
C1330 C1336 1.428 . S
H1331 C1327 0.930 . S
H1332 C1329 0.929 . S
S1333 N1334 1.613 . S
S1333 N1335 1.610 . S
N1334 S1333 1.613 . S
N1334 C1337 1.350 . S
N1335 S1333 1.610 . S
N1335 C1336 1.351 . S
C1336 C1330 1.428 . S
C1336 N1335 1.351 . S
C1336 C1337 1.434 . S
C1337 C1328 1.429 . S
C1337 N1334 1.350 . S
C1337 C1336 1.434 . S
C1338 C1339 1.369 . S
C1338 C1340 1.419 . S
C1338 H1342 0.930 . S
C1339 C1338 1.369 . S
C1339 C1348 1.429 . S
C1340 C1338 1.419 . S
C1340 C1341 1.363 . S
C1340 H1343 0.929 . S
C1341 C1340 1.363 . S
C1341 C1347 1.428 . S
H1342 C1338 0.930 . S
H1343 C1340 0.929 . S
S1344 N1345 1.613 . S
S1344 N1346 1.610 . S
N1345 S1344 1.613 . S
N1345 C1348 1.350 . S
N1346 S1344 1.610 . S
N1346 C1347 1.351 . S
C1347 C1341 1.428 . S
C1347 N1346 1.351 . S
C1347 C1348 1.434 . S
C1348 C1339 1.429 . S
C1348 N1345 1.350 . S
C1348 C1347 1.434 . S
C1349 C1350 1.369 . S
C1349 C1351 1.419 . S
C1349 H1353 0.930 . S
C1350 C1349 1.369 . S
C1350 C1359 1.429 . S
C1351 C1349 1.419 . S
C1351 C1352 1.363 . S
C1351 H1354 0.929 . S
C1352 C1351 1.363 . S
C1352 C1358 1.428 . S
H1353 C1349 0.930 . S
H1354 C1351 0.929 . S
S1355 N1356 1.613 . S
S1355 N1357 1.610 . S
N1356 S1355 1.613 . S
N1356 C1359 1.350 . S
N1357 S1355 1.610 . S
N1357 C1358 1.351 . S
C1358 C1352 1.428 . S
C1358 N1357 1.351 . S
C1358 C1359 1.434 . S
C1359 C1350 1.429 . S
C1359 N1356 1.350 . S
C1359 C1358 1.434 . S
C1360 C1361 1.369 . S
C1360 C1362 1.419 . S
C1360 H1364 0.930 . S
C1361 C1360 1.369 . S
C1361 C1370 1.429 . S
C1362 C1360 1.419 . S
C1362 C1363 1.363 . S
C1362 H1365 0.929 . S
C1363 C1362 1.363 . S
C1363 C1369 1.428 . S
H1364 C1360 0.930 . S
H1365 C1362 0.929 . S
S1366 N1367 1.613 . S
S1366 N1368 1.610 . S
N1367 S1366 1.613 . S
N1367 C1370 1.350 . S
N1368 S1366 1.610 . S
N1368 C1369 1.351 . S
C1369 C1363 1.428 . S
C1369 N1368 1.351 . S
C1369 C1370 1.434 . S
C1370 C1361 1.429 . S
C1370 N1367 1.350 . S
C1370 C1369 1.434 . S
C1371 C1372 1.369 . S
C1371 C1373 1.419 . S
C1371 H1375 0.930 . S
C1372 C1371 1.369 . S
C1372 C1381 1.429 1_655 S
C1373 C1371 1.419 . S
C1373 C1374 1.363 . S
C1373 H1376 0.929 . S
C1374 C1373 1.363 . S
C1374 C1380 1.428 1_655 S
H1375 C1371 0.930 . S
H1376 C1373 0.929 . S
S1377 N1378 1.613 . S
S1377 N1379 1.610 . S
N1378 S1377 1.613 . S
N1378 C1381 1.350 . S
N1379 S1377 1.610 . S
N1379 C1380 1.351 . S
C1380 C1374 1.428 1_455 S
C1380 N1379 1.351 . S
C1380 C1381 1.434 . S
C1381 C1372 1.429 1_455 S
C1381 N1378 1.350 . S
C1381 C1380 1.434 . S
C1382 C1383 1.369 . S
C1382 C1384 1.419 . S
C1382 H1386 0.930 . S
C1383 C1382 1.369 . S
C1383 C1392 1.429 . S
C1384 C1382 1.419 . S
C1384 C1385 1.363 . S
C1384 H1387 0.929 . S
C1385 C1384 1.363 . S
C1385 C1391 1.428 . S
H1386 C1382 0.930 . S
H1387 C1384 0.929 . S
S1388 N1389 1.613 . S
S1388 N1390 1.610 . S
N1389 S1388 1.613 . S
N1389 C1392 1.350 . S
N1390 S1388 1.610 . S
N1390 C1391 1.351 . S
C1391 C1385 1.428 . S
C1391 N1390 1.351 . S
C1391 C1392 1.434 . S
C1392 C1383 1.429 . S
C1392 N1389 1.350 . S
C1392 C1391 1.434 . S
C1393 C1394 1.369 . S
C1393 C1395 1.419 . S
C1393 H1397 0.930 . S
C1394 C1393 1.369 . S
C1394 C1403 1.429 . S
C1395 C1393 1.419 . S
C1395 C1396 1.363 . S
C1395 H1398 0.929 . S
C1396 C1395 1.363 . S
C1396 C1402 1.428 . S
H1397 C1393 0.930 . S
H1398 C1395 0.929 . S
S1399 N1400 1.613 . S
S1399 N1401 1.610 . S
N1400 S1399 1.613 . S
N1400 C1403 1.350 . S
N1401 S1399 1.610 . S
N1401 C1402 1.351 . S
C1402 C1396 1.428 . S
C1402 N1401 1.351 . S
C1402 C1403 1.434 . S
C1403 C1394 1.429 . S
C1403 N1400 1.350 . S
C1403 C1402 1.434 . S
C613 C10 1.630 . S
C615 C440 1.565 . S
C624 C23 1.616 . S
C626 C453 1.584 . S
C637 C482 1.539 1_545 S
C635 C29 1.618 . S
C646 C30 1.615 . S
C648 C495 1.585 . S
C657 C5 1.630 . S
C659 C516 1.600 . S
C668 C18 1.620 . S
C670 C545 1.557 . S
C679 C49 1.624 . S
C681 C524 1.590 . S
C692 C537 1.568 . S
C690 C62 1.610 . S
C703 C503 1.567 . S
C701 C70 1.610 . S
C712 C75 1.611 . S
C714 C474 1.566 1_545 S
C725 C432 1.576 . S
C723 C44 1.624 . S
C734 C57 1.612 . S
C736 C461 1.571 . S
C745 C88 1.631 . S
C747 C566 1.561 . S
C756 C101 1.616 . S
C758 C579 1.586 . S
C769 C608 1.558 . S
C767 C107 1.616 . S
C778 C108 1.616 . S
C780 C243 1.583 . S
C789 C83 1.629 . S
C791 C264 1.602 . S
C800 C96 1.617 . S
C802 C293 1.561 . S
C811 C127 1.623 . S
C813 C272 1.578 . S
C822 C140 1.613 . S
C824 C285 1.563 . S
C835 C251 1.567 . S
C833 C146 1.609 . S
C846 C600 1.564 . S
C844 C147 1.612 . S
C857 C558 1.580 . S
C855 C122 1.622 . S
C868 C587 1.564 . S
C866 C135 1.615 . S
C877 C160 1.629 . S
C879 C314 1.567 . S
C888 C173 1.616 . S
C890 C327 1.584 . S
C899 C185 1.618 . S
C901 C356 1.554 . S
C910 C186 1.616 . S
C912 C369 1.581 . S
C923 C390 1.598 . S
C921 C159 1.631 . S
C934 C419 1.560 . S
C932 C172 1.617 . S
C945 C398 1.572 . S
C943 C205 1.625 . S
C956 C411 1.567 . S
C954 C218 1.612 . S
C965 C224 1.612 . S
C967 C377 1.562 . S
C978 C348 1.562 . S
C976 C225 1.612 . S
C987 C200 1.623 . S
C989 C306 1.575 . S
C1000 C335 1.571 . S
C998 C213 1.612 . S
C1011 C246 1.383 . S
C1009 C4 1.519 . S
C1020 C17 1.503 . S
C1022 C267 1.367 . S
C1033 C295 1.414 . S
C1031 C31 1.512 . S
C1044 C316 1.415 . S
C1042 C36 1.501 . S
C1055 C330 1.378 . S
C1053 C3 1.522 . S
C1066 C358 1.417 . S
C1064 C16 1.515 . S
C1075 C43 1.519 . S
C1077 C351 1.391 . S
C1086 C56 1.505 . S
C1088 C309 1.369 . S
C1097 C68 1.510 . S
C1099 C337 1.413 . S
C1108 C69 1.501 . S
C1110 C274 1.406 . S
C1121 C288 1.389 . S
C1119 C42 1.521 . S
C1130 C55 1.515 . S
C1132 C253 1.408 . S
C1143 C372 1.377 . S
C1141 C82 1.521 . S
C1152 C95 1.506 . S
C1154 C393 1.362 . S
C1163 C109 1.513 . S
C1165 C421 1.423 . S
C1176 C442 1.414 . S
C1174 C114 1.500 . S
C1185 C81 1.521 . S
C1187 C456 1.373 . S
C1196 C94 1.515 . S
C1198 C484 1.423 . S
C1207 C121 1.518 . S
C1209 C477 1.388 . S
C1218 C134 1.504 . S
C1220 C435 1.378 . S
C1231 C463 1.411 . S
C1229 C148 1.510 . S
C1240 C153 1.502 . S
C1242 C400 1.398 . S
C1251 C120 1.520 . S
C1253 C414 1.381 . S
C1264 C379 1.407 . S
C1262 C133 1.514 . S
C1275 C498 1.384 . S
C1273 C166 1.518 . S
C1284 C179 1.507 . S
C1286 C519 1.364 1_655 S
C1295 C187 1.512 . S
C1297 C547 1.423 . S
C1308 C568 1.409 . S
C1306 C192 1.502 . S
C1319 C582 1.383 . S
C1317 C161 1.521 . S
C1328 C174 1.513 . S
C1330 C610 1.419 . S
C1339 C199 1.520 . S
C1341 C603 1.386 . S
C1350 C212 1.505 . S
C1352 C561 1.369 . S
C1363 C589 1.407 . S
C1361 C226 1.513 . S
C1374 C526 1.399 1_655 S
C1372 C231 1.499 . S
C1385 C540 1.386 . S
C1383 C198 1.521 . S
C1394 C211 1.514 . S
C1396 C505 1.407 . S
