# Generated by pormake.
# Topology pyr, (3,6)-cn, num edge types: 1
# Building blocks:
#     Node 0, Type 0, BuildingBlock: CUQRIR_clean_linker_1, # of connection points: 3
#     Node 1, Type 0, BuildingBlock: CUQRIR_clean_linker_1, # of connection points: 3
#     Node 2, Type 0, BuildingBlock: CUQRIR_clean_linker_1, # of connection points: 3
#     Node 3, Type 0, BuildingBlock: CUQRIR_clean_linker_1, # of connection points: 3
#     Node 4, Type 0, BuildingBlock: CUQRIR_clean_linker_1, # of connection points: 3
#     Node 5, Type 0, BuildingBlock: CUQRIR_clean_linker_1, # of connection points: 3
#     Node 6, Type 0, BuildingBlock: CUQRIR_clean_linker_1, # of connection points: 3
#     Node 7, Type 0, BuildingBlock: CUQRIR_clean_linker_1, # of connection points: 3
#     Node 8, Type 1, BuildingBlock: PAMTOO_clean_sbu_0, # of connection points: 6
#     Node 9, Type 1, BuildingBlock: PAMTOO_clean_sbu_0, # of connection points: 6
#     Node 10, Type 1, BuildingBlock: PAMTOO_clean_sbu_0, # of connection points: 6
#     Node 11, Type 1, BuildingBlock: PAMTOO_clean_sbu_0, # of connection points: 6
#     Edge 12, Type (0, 1), BuildingBlock: XUDNAN_clean_linker_2, # of connection points: 2
#     Edge 13, Type (0, 1), BuildingBlock: XUDNAN_clean_linker_2, # of connection points: 2
#     Edge 14, Type (0, 1), BuildingBlock: XUDNAN_clean_linker_2, # of connection points: 2
#     Edge 15, Type (0, 1), BuildingBlock: XUDNAN_clean_linker_2, # of connection points: 2
#     Edge 16, Type (0, 1), BuildingBlock: XUDNAN_clean_linker_2, # of connection points: 2
#     Edge 17, Type (0, 1), BuildingBlock: XUDNAN_clean_linker_2, # of connection points: 2
#     Edge 18, Type (0, 1), BuildingBlock: XUDNAN_clean_linker_2, # of connection points: 2
#     Edge 19, Type (0, 1), BuildingBlock: XUDNAN_clean_linker_2, # of connection points: 2
#     Edge 20, Type (0, 1), BuildingBlock: XUDNAN_clean_linker_2, # of connection points: 2
#     Edge 21, Type (0, 1), BuildingBlock: XUDNAN_clean_linker_2, # of connection points: 2
#     Edge 22, Type (0, 1), BuildingBlock: XUDNAN_clean_linker_2, # of connection points: 2
#     Edge 23, Type (0, 1), BuildingBlock: XUDNAN_clean_linker_2, # of connection points: 2
#     Edge 24, Type (0, 1), BuildingBlock: XUDNAN_clean_linker_2, # of connection points: 2
#     Edge 25, Type (0, 1), BuildingBlock: XUDNAN_clean_linker_2, # of connection points: 2
#     Edge 26, Type (0, 1), BuildingBlock: XUDNAN_clean_linker_2, # of connection points: 2
#     Edge 27, Type (0, 1), BuildingBlock: XUDNAN_clean_linker_2, # of connection points: 2
#     Edge 28, Type (0, 1), BuildingBlock: XUDNAN_clean_linker_2, # of connection points: 2
#     Edge 29, Type (0, 1), BuildingBlock: XUDNAN_clean_linker_2, # of connection points: 2
#     Edge 30, Type (0, 1), BuildingBlock: XUDNAN_clean_linker_2, # of connection points: 2
#     Edge 31, Type (0, 1), BuildingBlock: XUDNAN_clean_linker_2, # of connection points: 2
#     Edge 32, Type (0, 1), BuildingBlock: XUDNAN_clean_linker_2, # of connection points: 2
#     Edge 33, Type (0, 1), BuildingBlock: XUDNAN_clean_linker_2, # of connection points: 2
#     Edge 34, Type (0, 1), BuildingBlock: XUDNAN_clean_linker_2, # of connection points: 2
#     Edge 35, Type (0, 1), BuildingBlock: XUDNAN_clean_linker_2, # of connection points: 2
# Relax obj value: 0.192
# Max RMSD: 0.276
# Mean RMSD: 0.167
data_MOF--net-pyr--node1-PAMTOO_clean_sbu_0--node2-CUQRIR_clean_linker_1--edge1-XUDNAN_clean_linker_2
_symmetry_space_group_name_H-M    P1
_symmetry_Int_Tables_number       1
_symmetry_cell_setting            triclinic
loop_
_symmetry_equiv_pos_as_xyz
'x, y, z'
_cell_length_a     34.296067
_cell_length_b     36.168663
_cell_length_c     35.060956
_cell_angle_alpha  89.218639
_cell_angle_beta   90.553039
_cell_angle_gamma 108.2511
loop_
_atom_site_label
_atom_site_type_symbol
_atom_site_fract_x
_atom_site_fract_y
_atom_site_fract_z
_atom_type_partial_charge
C0 C 0.37063 0.36551 0.22229 0.0
N1 N 0.38877 0.33737 0.21937 0.0
N2 N 0.37772 0.3886 0.19072 0.0
C3 C 0.33988 0.36591 0.25277 0.0
C4 C 0.40038 0.37315 0.16823 0.0
N5 N 0.40747 0.34221 0.18576 0.0
C6 C 0.41316 0.38693 0.12834 0.0
H7 H 0.31766 0.33634 0.25674 0.0
H8 H 0.32236 0.38625 0.24615 0.0
H9 H 0.35632 0.37461 0.28023 0.0
H10 H 0.41882 0.41881 0.1258 0.0
H11 H 0.38798 0.37233 0.1083 0.0
H12 H 0.44116 0.37981 0.12022 0.0
C13 C 0.18395 0.81102 0.71685 0.0
N14 N 0.18187 0.84655 0.72609 0.0
N15 N 0.20017 0.79555 0.74591 0.0
C16 C 0.17394 0.79273 0.67825 0.0
C17 C 0.20749 0.82294 0.77331 0.0
N18 N 0.19624 0.85389 0.76139 0.0
C19 C 0.23222 0.82239 0.80896 0.0
H20 H 0.1627 0.76053 0.68114 0.0
H21 H 0.20225 0.80076 0.6608 0.0
H22 H 0.15042 0.8029 0.66335 0.0
H23 H 0.2627 0.84495 0.80648 0.0
H24 H 0.23653 0.79354 0.81384 0.0
H25 H 0.21653 0.82946 0.83404 0.0
C26 C 0.60856 0.36759 0.87733 0.0
N27 N 0.63341 0.36597 0.90741 0.0
N28 N 0.62659 0.39831 0.85384 0.0
C29 C 0.56512 0.34127 0.87252 0.0
C30 C 0.66344 0.41553 0.87091 0.0
N31 N 0.66755 0.39637 0.90374 0.0
C32 C 0.69704 0.44844 0.85313 0.0
H33 H 0.5652 0.31548 0.8558 0.0
H34 H 0.54623 0.35651 0.85691 0.0
H35 H 0.55085 0.3311 0.9006 0.0
H36 H 0.69406 0.47653 0.86273 0.0
H37 H 0.69458 0.44768 0.82156 0.0
H38 H 0.7278 0.44704 0.8616 0.0
C39 C 0.85113 0.68442 0.37533 0.0
N40 N 0.8838 0.71484 0.36327 0.0
N41 N 0.82594 0.69638 0.3985 0.0
C42 C 0.84351 0.6427 0.36382 0.0
C43 C 0.8444 0.73527 0.40038 0.0
N44 N 0.87957 0.74676 0.37966 0.0
C45 C 0.82657 0.76292 0.42036 0.0
H46 H 0.83418 0.63933 0.33334 0.0
H47 H 0.8196 0.62208 0.38149 0.0
H48 H 0.87193 0.63461 0.36723 0.0
H49 H 0.83597 0.76482 0.45082 0.0
H50 H 0.79254 0.75251 0.41885 0.0
H51 H 0.8378 0.79255 0.4075 0.0
C52 C 0.6352 0.79525 0.9345 0.0
N53 N 0.65305 0.78132 0.90627 0.0
N54 N 0.62473 0.8266 0.92238 0.0
C55 C 0.63194 0.78087 0.97517 0.0
C56 C 0.6363 0.83073 0.88535 0.0
N57 N 0.65338 0.8032 0.87553 0.0
C58 C 0.63851 0.86604 0.86123 0.0
H59 H 0.6057 0.7866 0.98945 0.0
H60 H 0.66044 0.79642 0.99092 0.0
H61 H 0.62811 0.74924 0.97626 0.0
H62 H 0.66673 0.8899 0.8689 0.0
H63 H 0.61165 0.87605 0.86664 0.0
H64 H 0.63967 0.8597 0.83046 0.0
C65 C 0.88377 0.37023 0.48542 0.0
N66 N 0.89341 0.34036 0.46938 0.0
N67 N 0.86147 0.38494 0.461 0.0
C68 C 0.89358 0.38367 0.52575 0.0
C69 C 0.8574 0.36265 0.42959 0.0
N70 N 0.87698 0.33567 0.4345 0.0
C71 C 0.82818 0.36266 0.39701 0.0
H72 H 0.86708 0.36876 0.54422 0.0
H73 H 0.89868 0.41547 0.5274 0.0
H74 H 0.92114 0.3769 0.53651 0.0
H75 H 0.8075 0.38 0.40311 0.0
H76 H 0.80903 0.33248 0.39039 0.0
H77 H 0.84617 0.3753 0.37123 0.0
C78 C 0.33534 0.69002 0.29076 0.0
N79 N 0.37213 0.71557 0.30138 0.0
N80 N 0.31915 0.70385 0.26045 0.0
C81 C 0.31384 0.6528 0.31182 0.0
C82 C 0.34705 0.7389 0.25306 0.0
N83 N 0.37944 0.74627 0.27758 0.0
C84 C 0.34174 0.76693 0.22261 0.0
H85 H 0.33092 0.63172 0.30762 0.0
H86 H 0.28182 0.63963 0.30161 0.0
H87 H 0.31377 0.65842 0.34286 0.0
H88 H 0.35044 0.79695 0.23391 0.0
H89 H 0.30998 0.75892 0.21126 0.0
H90 H 0.36225 0.76683 0.1984 0.0
C91 C 0.10556 0.37646 0.78055 0.0
N92 N 0.13053 0.37033 0.75269 0.0
N93 N 0.12515 0.40837 0.80172 0.0
C94 C 0.06098 0.35354 0.78491 0.0
C95 C 0.16288 0.42143 0.78555 0.0
N96 N 0.1662 0.39913 0.7555 0.0
C97 C 0.19742 0.45475 0.80125 0.0
H98 H 0.04688 0.34326 0.75681 0.0
H99 H 0.04383 0.37118 0.79856 0.0
H100 H 0.0584 0.32772 0.80334 0.0
H101 H 0.19385 0.45723 0.83245 0.0
H102 H 0.19669 0.48239 0.78762 0.0
H103 H 0.22765 0.4508 0.79569 0.0
Dy104 Dy 0.05967 0.08177 0.51688 0.0
Dy105 Dy 0.98821 0.04637 0.57991 0.0
C106 C 0.05459 0.13285 0.59235 0.0
O107 O 0.07415 1.0333 0.5478 0.0
O108 O 0.04207 1.03281 0.60452 0.0
O109 O 0.12401 0.09667 0.50358 0.0
O110 O 0.07916 0.09566 0.4587 0.0
O111 O 0.98726 0.99669 0.54019 0.0
O112 O 1.00962 1.03474 0.48787 0.0
O113 O 0.96518 0.0842 0.54052 0.0
O114 O 0.02432 0.12376 0.51303 0.0
O115 O 0.92343 1.01771 0.58803 0.0
O116 O 0.96447 1.03245 0.63693 0.0
C117 C 0.06958 1.02411 0.58409 0.0
O118 O 0.07631 0.12692 0.56337 0.0
O119 O 0.01922 0.10716 0.60219 0.0
C120 C 0.1496 0.13106 0.44555 0.0
C121 C 0.21342 0.16956 0.39549 0.0
C122 C 0.2224 0.16192 0.43333 0.0
C123 C 0.1907 0.14257 0.45814 0.0
C124 C 0.14063 0.14153 0.40858 0.0
C125 C 0.17226 0.16065 0.38381 0.0
C126 C 0.1178 0.10166 0.46733 0.0
C127 C 0.99188 1.00015 0.50289 0.0
C128 C 0.98586 0.11661 0.52288 0.0
C129 C 0.90451 0.97705 0.64281 0.0
C130 C 0.85546 0.9111 0.68312 0.0
C131 C 0.83946 0.92594 0.65151 0.0
C132 C 0.86368 0.95863 0.63169 0.0
C133 C 0.9213 0.96109 0.67318 0.0
C134 C 0.89695 0.92839 0.69315 0.0
C135 C 0.92725 1.01472 0.6249 0.0
H136 H 0.25393 0.16859 0.44295 0.0
H137 H 0.19861 0.13447 0.48634 0.0
H138 H 0.10936 0.13283 0.39791 0.0
H139 H 0.16459 0.16694 0.3549 0.0
H140 H 0.80746 0.91375 0.64341 0.0
H141 H 0.84988 0.97053 0.60861 0.0
H142 H 0.95273 0.9746 0.68242 0.0
H143 H 0.91017 0.91741 0.71725 0.0
Dy144 Dy 0.48541 0.04987 0.09356 0.0
Dy145 Dy 0.56883 0.07816 0.14644 0.0
C146 C 0.49773 1.00158 0.16805 0.0
O147 O 0.47501 0.08082 0.1453 0.0
O148 O 0.53867 0.12376 0.1547 0.0
O149 O 0.43826 1.00337 0.06618 0.0
O150 O 0.43071 0.06038 0.07192 0.0
O151 O 0.58056 0.12538 0.10174 0.0
O152 O 0.5212 0.10647 0.06476 0.0
O153 O 0.5704 1.02935 0.10867 0.0
O154 O 0.53263 1.03806 0.05737 0.0
O155 O 0.63358 0.0846 0.1489 0.0
O156 O 0.60076 0.091 0.20028 0.0
C157 C 0.4987 0.11577 0.15441 0.0
O158 O 0.48636 0.99926 0.132 0.0
O159 O 0.52165 1.03454 0.18166 0.0
C160 C 0.39492 1.0207 1.02107 0.0
C161 C 0.3492 1.01033 0.95261 0.0
C162 C 0.34419 0.97924 0.97858 0.0
C163 C 0.36668 0.98445 1.01244 0.0
C164 C 0.40086 0.05179 0.99494 0.0
C165 C 0.3782 0.04658 0.96085 0.0
C166 C 0.41535 1.02531 0.05858 0.0
C167 C 0.55753 0.13131 0.07333 0.0
C168 C 0.56084 1.02492 0.07233 0.0
C169 C 0.67384 0.1162 0.20163 0.0
C170 C 0.74298 0.15785 0.24403 0.0
C171 C 0.71282 0.17517 0.234 0.0
C172 C 0.67816 0.1543 0.21301 0.0
C173 C 0.70534 0.10011 0.2093 0.0
C174 C 0.7396 0.12069 0.23051 0.0
C175 C 0.63552 0.09056 0.18559 0.0
H176 H 0.32295 0.95066 0.97267 0.0
H177 H 0.36163 0.96012 1.03221 0.0
H178 H 0.4225 0.08013 1.00104 0.0
H179 H 0.38279 0.07101 0.94132 0.0
H180 H 0.7147 0.2037 0.24456 0.0
H181 H 0.65403 0.16709 0.20728 0.0
H182 H 0.7024 0.0707 0.20064 0.0
H183 H 0.76248 0.10683 0.23801 0.0
Dy184 Dy 0.48614 0.50852 0.5414 0.0
Dy185 Dy 0.50048 0.58064 0.59988 0.0
C186 C 0.52719 0.50678 0.62524 0.0
O187 O 0.42328 0.49686 0.5654 0.0
O188 O 0.44108 0.53598 0.61814 0.0
O189 O 0.47037 0.44729 0.52803 0.0
O190 O 0.49292 0.49083 0.4839 0.0
O191 O 0.45806 0.59079 0.55463 0.0
O192 O 0.4754 0.55749 0.50633 0.0
O193 O 0.55347 0.59923 0.55848 0.0
O194 O 0.55356 0.53798 0.54444 0.0
O195 O 0.51025 0.64172 0.60997 0.0
O196 O 0.50541 0.60193 0.65751 0.0
C197 C 0.41462 0.50784 0.59904 0.0
O198 O 0.50335 0.4871 0.59783 0.0
O199 O 0.53677 0.5449 0.62671 0.0
C200 C 0.52312 0.44124 0.48765 0.0
C201 C 0.60276 0.43552 0.47937 0.0
C202 C 0.58194 0.42558 0.51418 0.0
C203 C 0.5426 0.42851 0.51833 0.0
C204 C 0.54276 0.44852 0.45211 0.0
C205 C 0.5823 0.44583 0.44803 0.0
C206 C 0.48752 0.45493 0.49454 0.0
C207 C 0.46036 0.58465 0.51797 0.0
C208 C 0.57101 0.5757 0.54275 0.0
C209 C 0.47034 0.64736 0.66197 0.0
C210 C 0.40322 0.66658 0.69136 0.0
C211 C 0.39696 0.63677 0.66454 0.0
C212 C 0.43022 0.62732 0.64996 0.0
C213 C 0.47692 0.67686 0.68896 0.0
C214 C 0.44354 0.68651 0.70353 0.0
C215 C 0.50456 0.63622 0.64659 0.0
H216 H 0.59694 0.41774 0.53891 0.0
H217 H 0.52864 0.42311 0.54628 0.0
H218 H 0.52859 0.45867 0.42812 0.0
H219 H 0.59735 0.45301 0.42066 0.0
H220 H 0.36645 0.62131 0.65411 0.0
H221 H 0.42463 0.60444 0.62906 0.0
H222 H 0.50771 0.69237 0.6987 0.0
H223 H 0.44924 0.70944 0.7244 0.0
Dy224 Dy 0.99334 0.59991 0.05034 0.0
Dy225 Dy 0.99853 0.5282 0.10446 0.0
C226 C 0.96094 0.59556 0.13557 0.0
O227 O 0.04535 0.62356 0.09158 0.0
O228 O 0.0626 0.56818 0.09752 0.0
O229 O 0.99683 0.66018 1.04198 0.0
O230 O 0.98881 0.62208 0.99354 0.0
O231 O 1.01321 0.51182 1.04513 0.0
O232 O 0.03531 0.57326 1.01978 0.0
O233 O 0.9325 0.50816 0.08588 0.0
O234 O 0.93608 0.55142 1.03614 0.0
O235 O 0.99385 0.46797 0.11572 0.0
O236 O 0.01607 0.51091 0.15962 0.0
C237 C 0.07137 0.60562 0.10276 0.0
O238 O 0.95321 0.60229 0.09975 0.0
O239 O 0.98164 0.57108 0.14375 0.0
C240 C 0.95263 0.66755 0.99185 0.0
C241 C 0.8823 0.68421 0.96459 0.0
C242 C 0.89198 0.68673 1.0037 0.0
C243 C 0.92671 0.67831 1.01726 0.0
C244 C 0.94342 0.66586 0.95267 0.0
C245 C 0.90844 0.67389 0.93917 0.0
C246 C 0.98761 0.65553 1.00581 0.0
C247 C 0.03138 0.53593 1.01747 0.0
C248 C 0.91662 0.5195 0.05521 0.0
C249 C 0.0511 0.46522 0.1529 0.0
C250 C 0.12984 0.45692 0.16196 0.0
C251 C 0.11232 0.45607 0.12546 0.0
C252 C 0.07346 0.46045 0.12093 0.0
C253 C 0.06787 0.46454 0.18945 0.0
C254 C 0.10693 0.46055 0.19396 0.0
C255 C 1.01321 0.47604 0.14826 0.0
H256 H 0.87214 0.6943 1.02395 0.0
H257 H 0.93273 0.67955 1.04767 0.0
H258 H 0.96293 0.6576 0.93256 0.0
H259 H 0.90189 0.67215 0.90884 0.0
H260 H 0.1294 0.45371 0.10027 0.0
H261 H 0.06165 0.46153 0.09231 0.0
H262 H 0.05137 0.46854 0.21446 0.0
H263 H 0.11949 0.46091 0.22247 0.0
H264 H 0.39508 0.32947 0.29554 0.0
H265 H 0.34952 0.2659 0.19237 0.0
H266 H 0.3131 0.20826 0.23004 0.0
H267 H 0.39078 0.2414 0.36201 0.0
H268 H 0.37094 0.26313 0.40015 0.0
H269 H 0.40687 0.2936 0.36666 0.0
H270 H 0.35539 0.33118 0.35189 0.0
H271 H 0.31898 0.30056 0.3845 0.0
H272 H 0.30437 0.30482 0.33549 0.0
H273 H 0.2678 0.16514 0.27549 0.0
H274 H 0.2168 0.13897 0.32589 0.0
H275 H 0.28394 0.23174 0.40112 0.0
C276 C 0.37908 0.30259 0.28126 0.0
C277 C 0.37649 0.30156 0.24112 0.0
C278 C 0.35389 0.26669 0.22293 0.0
C279 C 0.33263 0.23383 0.24426 0.0
C280 C 0.33342 0.23654 0.28383 0.0
C281 C 0.3562 0.27001 0.30235 0.0
C282 C 0.34457 0.26856 0.3441 0.0
C283 C 0.38043 0.26654 0.36975 0.0
C284 C 0.32994 0.30332 0.35457 0.0
C285 C 0.30966 0.23054 0.34535 0.0
C286 C 0.3048 0.21199 0.31057 0.0
C287 C 0.27187 0.17881 0.30313 0.0
C288 C 0.24279 0.16447 0.33172 0.0
C289 C 0.24652 0.18354 0.36716 0.0
C290 C 0.28091 0.21637 0.37441 0.0
H291 H 0.17448 0.87576 0.8285 0.0
H292 H 0.25534 0.91522 0.73255 0.0
H293 H 0.29605 0.97257 0.76891 0.0
H294 H 0.18731 0.9779 0.87131 0.0
H295 H 0.18671 0.95787 0.91874 0.0
H296 H 0.15622 0.92851 0.88137 0.0
H297 H 0.19114 0.87569 0.89494 0.0
H298 H 0.22218 0.90488 0.93165 0.0
H299 H 0.24631 0.88866 0.89261 0.0
H300 H 0.33787 1.01341 0.82 0.0
H301 H 0.3756 1.03497 0.88019 0.0
H302 H 0.26794 0.9697 0.94415 0.0
C303 C 0.1994 0.89788 0.81477 0.0
C304 C 0.21155 0.89192 0.77781 0.0
C305 C 0.24512 0.92019 0.76058 0.0
C306 C 0.26842 0.95269 0.78113 0.0
C307 C 0.25742 0.95652 0.81872 0.0
C308 C 0.22311 0.93019 0.83519 0.0
C309 C 0.222 0.93647 0.87769 0.0
C310 C 0.18592 0.95107 0.88787 0.0
C311 C 0.22036 0.89924 0.90052 0.0
C312 C 0.26263 0.96809 0.88307 0.0
C313 C 0.2821 0.98015 0.84865 0.0
C314 C 0.32239 1.0052 0.84702 0.0
C315 C 0.34364 1.01732 0.88136 0.0
C316 C 0.32468 1.00395 0.9168 0.0
C317 C 0.28318 0.98036 0.91744 0.0
H318 H 0.62156 0.46916 0.82951 0.0
H319 H 0.59797 0.34962 0.79494 0.0
H320 H 0.57124 0.36467 0.73283 0.0
H321 H 0.53224 0.48383 0.78477 0.0
H322 H 0.5581 0.53333 0.76998 0.0
H323 H 0.57567 0.51335 0.81165 0.0
H324 H 0.64845 0.53073 0.7828 0.0
H325 H 0.6311 0.55077 0.74103 0.0
H326 H 0.65487 0.51315 0.73615 0.0
H327 H 0.54594 0.39232 0.67465 0.0
H328 H 0.52397 0.43015 0.62462 0.0
H329 H 0.56486 0.53318 0.695 0.0
C330 C 0.61096 0.4463 0.80869 0.0
C331 C 0.61155 0.40799 0.81727 0.0
C332 C 0.59721 0.37888 0.78931 0.0
C333 C 0.58221 0.38728 0.75384 0.0
C334 C 0.5818 0.42516 0.74632 0.0
C335 C 0.59588 0.45429 0.77289 0.0
C336 C 0.59174 0.49252 0.75746 0.0
C337 C 0.56271 0.50658 0.78246 0.0
C338 C 0.63406 0.52363 0.75416 0.0
C339 C 0.57298 0.48027 0.71821 0.0
C340 C 0.56758 0.44125 0.71247 0.0
C341 C 0.55017 0.42292 0.67885 0.0
C342 C 0.5377 0.44478 0.65049 0.0
C343 C 0.54262 0.48487 0.65546 0.0
C344 C 0.56086 0.50275 0.68992 0.0
H345 H 0.93742 0.67384 0.3487 0.0
H346 H 0.87331 0.74684 0.29562 0.0
H347 H 0.88872 0.72637 0.23197 0.0
H348 H 0.01663 0.68355 0.27228 0.0
H349 H 1.01423 0.63319 0.27695 0.0
H350 H 1.00454 0.65882 0.31771 0.0
H351 H 0.93441 0.60572 0.32686 0.0
H352 H 0.94338 0.58029 0.28571 0.0
H353 H 0.89782 0.59491 0.2881 0.0
H354 H 0.90291 0.69096 0.17393 0.0
H355 H 0.92028 0.64941 0.12631 0.0
H356 H 0.97376 0.5958 0.21547 0.0
C357 C 0.92801 0.68665 0.3236 0.0
C358 C 0.90489 0.71304 0.32756 0.0
C359 C 0.89236 0.72809 0.29372 0.0
C360 C 0.90036 0.71588 0.2573 0.0
C361 C 0.92103 0.68824 0.25458 0.0
C362 C 0.93533 0.67422 0.28685 0.0
C363 C 0.95422 0.64265 0.27607 0.0
C364 C 1.00014 0.65531 0.28637 0.0
C365 C 0.93108 0.60358 0.29533 0.0
C366 C 0.94783 0.64065 0.23281 0.0
C367 C 0.92866 0.66734 0.22115 0.0
C368 C 0.91831 0.67033 0.18289 0.0
C369 C 0.92823 0.6462 0.15586 0.0
C370 C 0.94851 0.61877 0.16648 0.0
C371 C 0.95824 0.61613 0.20591 0.0
H372 H 0.46682 0.31654 0.21633 0.0
H373 H 0.38333 0.30273 0.12042 0.0
H374 H 0.39975 0.24391 0.10099 0.0
H375 H 0.54436 0.2799 0.16648 0.0
H376 H 0.55456 0.25641 0.20939 0.0
H377 H 0.54019 0.30013 0.21241 0.0
H378 H 0.48044 0.26391 0.25726 0.0
H379 H 0.49371 0.21973 0.25355 0.0
H380 H 0.4426 0.21991 0.24126 0.0
H381 H 0.41549 0.18134 0.09901 0.0
H382 H 0.44022 0.12471 0.10628 0.0
H383 H 0.51834 0.18035 0.20059 0.0
C384 C 0.45344 0.30187 0.19039 0.0
C385 C 0.42447 0.31436 0.16937 0.0
C386 C 0.40654 0.29421 0.13609 0.0
C387 C 0.41525 0.2605 0.12524 0.0
C388 C 0.44258 0.24791 0.14758 0.0
C389 C 0.46243 0.26854 0.1788 0.0
C390 C 0.48935 0.24784 0.19863 0.0
C391 C 0.53482 0.27254 0.19659 0.0
C392 C 0.47569 0.23722 0.24013 0.0
C393 C 0.48062 0.21178 0.17432 0.0
C394 C 0.45313 0.2123 0.14536 0.0
C395 C 0.4377 0.18098 0.12103 0.0
C396 C 0.45156 0.1487 0.1257 0.0
C397 C 0.48109 0.14813 0.154 0.0
C398 C 0.49586 0.18016 0.17862 0.0
H399 H 0.12603 0.88349 0.73776 0.0
H400 H 0.21811 0.87309 0.65877 0.0
H401 H 0.20127 0.92003 0.61472 0.0
H402 H 0.05165 0.8892 0.66842 0.0
H403 H 0.03494 0.92448 0.69383 0.0
H404 H 0.05555 0.89141 0.71971 0.0
H405 H 0.10995 0.9498 0.75128 0.0
H406 H 0.08946 0.98307 0.72547 0.0
H407 H 0.14312 0.9875 0.7216 0.0
H408 H 0.17244 0.96529 0.5785 0.0
H409 H 0.13372 1.00668 0.5518 0.0
H410 H 0.06044 0.98871 0.65486 0.0
C411 C 0.14255 0.89141 0.71119 0.0
C412 C 0.17262 0.87438 0.70094 0.0
C413 C 0.19418 0.88526 0.66631 0.0
C414 C 0.18509 0.91207 0.64145 0.0
C415 C 0.15467 0.92789 0.65197 0.0
C416 C 0.13379 0.91813 0.68605 0.0
C417 C 0.10177 0.93867 0.69 0.0
C418 C 0.05842 0.90917 0.69316 0.0
C419 C 0.11168 0.96641 0.72411 0.0
C420 C 0.10744 0.96094 0.65249 0.0
C421 C 0.13829 0.95447 0.63116 0.0
C422 C 0.14839 0.97082 0.59501 0.0
C423 C 0.12612 0.99422 0.58007 0.0
C424 C 0.09406 1.00098 0.60124 0.0
C425 C 0.08496 0.98435 0.63809 0.0
H426 H 0.70888 0.46835 0.93117 0.0
H427 H 0.70758 0.34818 0.93356 0.0
H428 H 0.76723 0.36575 0.97765 0.0
H429 H 0.8191 0.50748 0.92509 0.0
H430 H 0.82218 0.55002 0.95268 0.0
H431 H 0.77673 0.52697 0.92505 0.0
H432 H 0.73252 0.51996 0.98581 0.0
H433 H 0.77797 0.54263 1.01367 0.0
H434 H 0.74427 0.49521 1.02723 0.0
H435 H 0.82724 0.39703 1.02261 0.0
H436 H 0.88812 0.43995 0.05622 0.0
H437 H 0.85643 0.54111 1.01686 0.0
C438 C 0.72125 0.44574 0.94082 0.0
C439 C 0.70284 0.40662 0.92943 0.0
C440 C 0.72018 0.37803 0.94274 0.0
C441 C 0.75427 0.38784 0.96765 0.0
C442 C 0.77161 0.42667 0.97826 0.0
C443 C 0.75617 0.45531 0.96456 0.0
C444 C 0.78258 0.49534 0.97748 0.0
C445 C 0.80126 0.52149 0.94303 0.0
C446 C 0.75785 0.5144 1.00254 0.0
C447 C 0.81533 0.48482 1.00064 0.0
C448 C 0.80791 0.44497 1.00148 0.0
C449 C 0.83342 0.42827 1.02188 0.0
C450 C 0.86781 0.45287 1.04114 0.0
C451 C 0.87711 0.49388 1.03923 0.0
C452 C 0.8502 0.50989 1.01884 0.0
H453 H 0.79863 0.69789 0.47147 0.0
H454 H 0.76233 0.64594 0.36079 0.0
H455 H 0.69469 0.6081 0.38682 0.0
H456 H 0.74365 0.61656 0.5311 0.0
H457 H 0.72763 0.64576 0.56511 0.0
H458 H 0.77455 0.66632 0.53891 0.0
H459 H 0.74852 0.72232 0.51449 0.0
H460 H 0.70155 0.70198 0.54069 0.0
H461 H 0.69975 0.71088 0.49008 0.0
H462 H 0.63228 0.57396 0.42535 0.0
H463 H 0.57538 0.55164 0.47116 0.0
H464 H 0.64673 0.63249 0.55508 0.0
C465 C 0.77638 0.67862 0.45272 0.0
C466 C 0.78633 0.67409 0.41421 0.0
C467 C 0.7561 0.64881 0.39062 0.0
C468 C 0.71744 0.62747 0.40511 0.0
C469 C 0.70873 0.63255 0.4431 0.0
C470 C 0.73698 0.65807 0.46644 0.0
C471 C 0.71859 0.65999 0.50546 0.0
C472 C 0.74253 0.64634 0.53701 0.0
C473 C 0.71701 0.70125 0.51312 0.0
C474 C 0.67567 0.6313 0.50049 0.0
C475 C 0.67111 0.61537 0.46442 0.0
C476 C 0.63529 0.58669 0.45342 0.0
C477 C 0.60315 0.57414 0.4797 0.0
C478 C 0.60638 0.59068 0.51646 0.0
C479 C 0.64315 0.61985 0.52695 0.0
H480 H 0.31515 0.3706 0.14065 0.0
H481 H 0.38381 0.45888 0.21881 0.0
H482 H 0.32956 0.49077 0.21492 0.0
H483 H 0.26748 0.4356 0.08204 0.0
H484 H 0.22001 0.3963 0.07733 0.0
H485 H 0.26813 0.38601 0.07995 0.0
H486 H 0.24022 0.33906 0.13681 0.0
H487 H 0.19255 0.34993 0.13524 0.0
H488 H 0.22233 0.35704 0.17872 0.0
H489 H 0.26206 0.50354 0.21374 0.0
H490 H 0.19015 0.50301 0.20759 0.0
H491 H 0.16578 0.40807 0.12752 0.0
C492 C 0.31962 0.39793 0.15504 0.0
C493 C 0.35377 0.41309 0.1793 0.0
C494 C 0.35818 0.44775 0.19939 0.0
C495 C 0.3274 0.4657 0.19755 0.0
C496 C 0.2928 0.44877 0.17503 0.0
C497 C 0.28921 0.41621 0.15329 0.0
C498 C 0.24727 0.40151 0.13449 0.0
C499 C 0.25096 0.40509 0.09086 0.0
C500 C 0.22426 0.35941 0.14709 0.0
C501 C 0.22726 0.42986 0.15028 0.0
C502 C 0.25404 0.45688 0.17359 0.0
C503 C 0.24124 0.48337 0.19458 0.0
C504 C 0.20028 0.4827 0.1911 0.0
C505 C 0.17268 0.45616 0.1664 0.0
C506 C 0.18651 0.42942 0.14579 0.0
H507 H 0.60483 0.28699 0.89933 0.0
H508 H 0.64088 0.37772 0.984 0.0
H509 H 0.62708 0.32746 1.03523 0.0
H510 H 0.51888 0.22469 0.95432 0.0
H511 H 0.52568 0.18016 0.93775 0.0
H512 H 0.54052 0.22323 0.90793 0.0
H513 H 0.61388 0.21804 0.90292 0.0
H514 H 0.59937 0.17511 0.9329 0.0
H515 H 0.64261 0.21633 0.94588 0.0
H516 H 0.61183 0.26679 0.07706 0.0
H517 H 0.59017 0.20132 0.10691 0.0
H518 H 0.55566 0.14932 0.99592 0.0
C519 C 0.60937 0.29629 0.92868 0.0
C520 C 0.62448 0.33647 0.93759 0.0
C521 C 0.63023 0.34727 0.97641 0.0
C522 C 0.62223 0.31886 1.00568 0.0
C523 C 0.60745 0.27957 0.99587 0.0
C524 C 0.60039 0.26828 0.95831 0.0
C525 C 0.58264 0.22418 0.95555 0.0
C526 C 0.53936 0.21237 0.93784 0.0
C527 C 0.61135 0.20743 0.93297 0.0
C528 C 0.58124 0.21228 0.99742 0.0
C529 C 0.59624 0.24475 1.0201 0.0
C530 C 0.59975 0.24129 0.05954 0.0
C531 C 0.58755 0.20389 0.07623 0.0
C532 C 0.57122 0.17014 0.05383 0.0
C533 C 0.56776 0.17454 1.01383 0.0
H534 H 0.91763 0.77245 0.44624 0.0
H535 H 0.90595 0.80792 0.32967 0.0
H536 H 0.93759 0.87701 0.34787 0.0
H537 H 0.88406 0.84363 0.48593 0.0
H538 H 0.91646 0.85154 0.52778 0.0
H539 H 0.90198 0.8051 0.50452 0.0
H540 H 0.97827 0.8098 0.49659 0.0
H541 H 0.99317 0.85587 0.52072 0.0
H542 H 1.01309 0.85229 0.47399 0.0
H543 H 0.96375 0.94358 0.38143 0.0
H544 H 0.98295 0.99956 0.42499 0.0
H545 H 0.97137 0.92081 0.52164 0.0
C546 C 0.9239 0.79471 0.42414 0.0
C547 C 0.9107 0.7843 0.38601 0.0
C548 C 0.91724 0.8146 0.35849 0.0
C549 C 0.93461 0.85413 0.3689 0.0
C550 C 0.94492 0.86328 0.40722 0.0
C551 C 0.94001 0.83421 0.43437 0.0
C552 C 0.94888 0.85139 0.47425 0.0
C553 C 0.91057 0.83706 0.4996 0.0
C554 C 0.98554 0.84177 0.49246 0.0
C555 C 0.95947 0.89478 0.46558 0.0
C556 C 0.95742 0.90105 0.42668 0.0
C557 C 0.96556 0.93872 0.41183 0.0
C558 C 0.9764 0.97053 0.43701 0.0
C559 C 0.97866 0.96511 0.47711 0.0
C560 C 0.96978 0.92635 0.49134 0.0
H561 H 0.28016 0.81527 0.7306 0.0
H562 H 0.17155 0.71691 0.75005 0.0
H563 H 0.21265 0.67171 0.74142 0.0
H564 H 0.3227 0.77276 0.65758 0.0
H565 H 0.37507 0.79522 0.67277 0.0
H566 H 0.33701 0.8187 0.68194 0.0
H567 H 0.35488 0.82072 0.75409 0.0
H568 H 0.39289 0.79703 0.74515 0.0
H569 H 0.35254 0.77617 0.77905 0.0
H570 H 0.26629 0.63823 0.72893 0.0
H571 H 0.32678 0.61867 0.71195 0.0
H572 H 0.3995 0.74029 0.70032 0.0
C573 C 0.26537 0.78415 0.73323 0.0
C574 C 0.22318 0.76906 0.74114 0.0
C575 C 0.20407 0.72847 0.74412 0.0
C576 C 0.22714 0.70289 0.73936 0.0
C577 C 0.26904 0.71875 0.73172 0.0
C578 C 0.28787 0.7585 0.72862 0.0
C579 C 0.33286 0.76839 0.71915 0.0
C580 C 0.34245 0.79003 0.68057 0.0
C581 C 0.35988 0.79196 0.75128 0.0
C582 C 0.33657 0.72798 0.71702 0.0
C583 C 0.29956 0.69968 0.72452 0.0
C584 C 0.29541 0.66015 0.72312 0.0
C585 C 0.32986 0.64934 0.7133 0.0
C586 C 0.36787 0.67799 0.70492 0.0
C587 C 0.37114 0.71774 0.70727 0.0
H588 H 0.73137 0.8492 0.87367 0.0
H589 H 0.63734 0.76642 0.80807 0.0
H590 H 0.68466 0.77716 0.75273 0.0
H591 H 0.76555 0.91679 0.80188 0.0
H592 H 0.81904 0.93122 0.81536 0.0
H593 H 0.78023 0.91179 0.85073 0.0
H594 H 0.81373 0.85891 0.86847 0.0
H595 H 0.85256 0.87772 0.83271 0.0
H596 H 0.82153 0.82724 0.8321 0.0
H597 H 0.73892 0.80373 0.7029 0.0
H598 H 0.79392 0.84522 0.66177 0.0
H599 H 0.85214 0.91106 0.76073 0.0
C600 C 0.72143 0.83288 0.84775 0.0
C601 C 0.6813 0.80703 0.84448 0.0
C602 C 0.66831 0.78622 0.81053 0.0
C603 C 0.69499 0.79201 0.77931 0.0
C604 C 0.73446 0.8184 0.78306 0.0
C605 C 0.74764 0.83838 0.81657 0.0
C606 C 0.78969 0.86801 0.81227 0.0
C607 C 0.78852 0.90938 0.82052 0.0
C608 C 0.82125 0.85731 0.8379 0.0
C609 C 0.79744 0.86302 0.77055 0.0
C610 C 0.76566 0.83373 0.75436 0.0
C611 C 0.76429 0.82625 0.71539 0.0
C612 C 0.79553 0.85006 0.69224 0.0
C613 C 0.82743 0.8812 0.7081 0.0
C614 C 0.82886 0.88683 0.74792 0.0
H615 H 0.88783 0.33486 0.35843 0.0
H616 H 0.84584 0.26005 0.45693 0.0
H617 H 0.82467 0.20305 0.41587 0.0
H618 H 0.7983 0.29494 0.31297 0.0
H619 H 0.81771 0.29929 0.26495 0.0
H620 H 0.84561 0.33212 0.30094 0.0
H621 H 0.91054 0.31235 0.2877 0.0
H622 H 0.88291 0.27955 0.25123 0.0
H623 H 0.90754 0.26171 0.28975 0.0
H624 H 0.79624 0.15622 0.36558 0.0
H625 H 0.75368 0.12461 0.31097 0.0
H626 H 0.79967 0.23095 0.24421 0.0
C627 C 0.87556 0.30619 0.3712 0.0
C628 C 0.87055 0.30176 0.41106 0.0
C629 C 0.85273 0.26408 0.42689 0.0
C630 C 0.8401 0.23142 0.40358 0.0
C631 C 0.84368 0.23698 0.36425 0.0
C632 C 0.86025 0.27359 0.34805 0.0
C633 C 0.85077 0.2732 0.30569 0.0
C634 C 0.82665 0.30154 0.29558 0.0
C635 C 0.8903 0.28223 0.2822 0.0
C636 C 0.82448 0.23118 0.30114 0.0
C637 C 0.82257 0.21047 0.3349 0.0
C638 C 0.79805 0.17187 0.33878 0.0
C639 C 0.774 0.15418 0.30768 0.0
C640 C 0.77381 0.17543 0.27356 0.0
C641 C 0.79985 0.21415 0.26997 0.0
H642 H 0.41368 0.66338 0.31062 0.0
H643 H 0.37566 0.75025 0.36962 0.0
H644 H 0.39768 0.72862 0.43098 0.0
H645 H 0.37506 0.58973 0.37788 0.0
H646 H 0.41525 0.56764 0.37432 0.0
H647 H 0.40362 0.59412 0.33425 0.0
H648 H 0.47906 0.6388 0.33202 0.0
H649 H 0.49122 0.61196 0.37162 0.0
H650 H 0.50264 0.66401 0.37445 0.0
H651 H 0.4162 0.69204 0.48713 0.0
H652 H 0.43396 0.64726 0.5327 0.0
H653 H 0.45842 0.58141 0.43831 0.0
C654 C 0.41206 0.67907 0.33632 0.0
C655 C 0.39527 0.71034 0.33485 0.0
C656 C 0.39103 0.72835 0.36946 0.0
C657 C 0.40264 0.7155 0.40467 0.0
C658 C 0.41809 0.68402 0.40519 0.0
C659 C 0.42324 0.66625 0.37182 0.0
C660 C 0.4374 0.63102 0.38053 0.0
C661 C 0.40596 0.59341 0.36587 0.0
C662 C 0.48012 0.6368 0.36366 0.0
C663 C 0.43897 0.63142 0.42399 0.0
C664 C 0.4277 0.66229 0.43757 0.0
C665 C 0.42546 0.66806 0.47666 0.0
C666 C 0.43547 0.64217 0.50246 0.0
C667 C 0.44773 0.61047 0.48952 0.0
C668 C 0.4493 0.60521 0.44948 0.0
H669 H 0.09273 0.38633 0.87386 0.0
H670 H 0.12039 0.4804 0.79065 0.0
H671 H 0.09982 0.52196 0.83655 0.0
H672 H 1.00235 0.40638 0.9153 0.0
H673 H 1.01354 0.39466 0.96346 0.0
H674 H 0.02914 0.37138 0.92387 0.0
H675 H 0.10406 0.39491 0.9486 0.0
H676 H 0.08875 0.41853 0.98808 0.0
H677 H 0.1288 0.4461 0.9565 0.0
H678 H 0.0801 0.55506 0.89187 0.0
H679 H 0.0577 0.57668 0.95152 0.0
H680 H 0.03943 0.46208 1.00173 0.0
C681 C 0.09374 0.41547 0.86527 0.0
C682 C 0.10826 0.43012 0.82835 0.0
C683 C 0.10956 0.4686 0.81853 0.0
C684 C 0.09794 0.49245 0.84454 0.0
C685 C 0.08465 0.47768 0.88077 0.0
C686 C 0.08198 0.43997 0.89122 0.0
C687 C 0.06673 0.43198 0.9324 0.0
C688 C 0.02549 0.39914 0.93384 0.0
C689 C 0.09901 0.4223 0.9579 0.0
C690 C 0.06156 0.47105 0.94332 0.0
C691 C 0.07237 0.49687 0.91293 0.0
C692 C 0.07132 0.53496 0.91574 0.0
C693 C 0.0586 0.54707 0.95011 0.0
C694 C 0.04655 0.52142 0.98195 0.0
C695 C 0.0482 0.48265 0.97821 0.0
H696 H 0.56224 0.85741 0.92649 0.0
H697 H 0.68329 0.86689 0.97053 0.0
H698 H 0.68142 0.92144 1.01143 0.0
H699 H 0.57711 0.96206 0.92392 0.0
H700 H 0.52521 0.95674 0.93799 0.0
H701 H 0.5361 0.91863 0.91176 0.0
H702 H 0.50222 0.86875 0.96494 0.0
H703 H 0.49104 0.90664 0.99117 0.0
H704 H 0.51993 0.87826 1.01351 0.0
H705 H 0.66529 0.97182 0.04944 0.0
H706 H 0.63608 1.01668 0.08263 0.0
H707 H 0.52649 0.9778 1.01202 0.0
C708 C 0.58813 0.87116 0.94486 0.0
C709 C 0.62257 0.85782 0.94625 0.0
C710 C 0.65634 0.87641 0.97006 0.0
C711 C 0.65566 0.9075 0.99299 0.0
C712 C 0.62118 0.91995 0.99128 0.0
C713 C 0.58807 0.9026 0.96777 0.0
C714 C 0.55473 0.92161 0.97186 0.0
C715 C 0.5479 0.94091 0.93413 0.0
C716 C 0.51462 0.89205 0.98624 0.0
C717 C 0.57404 0.95179 1.00183 0.0
C718 C 0.61242 0.95028 1.01248 0.0
C719 C 0.63549 0.97366 1.0411 0.0
C720 C 0.61864 0.99896 0.0598 0.0
C721 C 0.57929 1.00086 0.0496 0.0
C722 C 0.557 0.97742 1.01982 0.0
H723 H 0.95487 0.31476 0.44505 0.0
H724 H 0.86517 0.301 0.53452 0.0
H725 H 0.881 0.24304 0.55896 0.0
H726 H 0.9304 0.21691 0.42435 0.0
H727 H 0.98192 0.21658 0.41516 0.0
H728 H 0.96873 0.2606 0.40788 0.0
H729 H 0.02697 0.29782 0.45395 0.0
H730 H 0.04113 0.2542 0.46063 0.0
H731 H 0.02943 0.27865 0.50135 0.0
H732 H 0.89839 0.18178 0.56744 0.0
H733 H 0.92473 0.12586 0.56664 0.0
H734 H 1.00507 0.17899 0.47251 0.0
C735 C 0.93993 0.30029 0.47069 0.0
C736 C 0.90957 0.31276 0.48854 0.0
C737 C 0.88954 0.29271 0.52136 0.0
C738 C 0.89787 0.2594 0.53501 0.0
C739 C 0.92656 0.24676 0.51568 0.0
C740 C 0.94801 0.26699 0.48475 0.0
C741 C 0.9756 0.24587 0.46796 0.0
C742 C 0.96343 0.23431 0.42638 0.0
C743 C 0.02098 0.27061 0.47118 0.0
C744 C 0.96585 0.21037 0.49398 0.0
C745 C 0.93714 0.21137 0.521 0.0
C746 C 0.92138 0.18093 0.54685 0.0
C747 C 0.93623 0.14906 0.54584 0.0
C748 C 0.96692 0.14802 0.51947 0.0
C749 C 0.98171 0.17906 0.49306 0.0
H750 H 0.28927 0.64529 0.20976 0.0
H751 H 0.25761 0.73225 0.2751 0.0
H752 H 0.19088 0.71696 0.24103 0.0
H753 H 0.24598 0.66208 0.12182 0.0
H754 H 0.2261 0.61172 0.1082 0.0
H755 H 0.27037 0.62753 0.13907 0.0
H756 H 0.23377 0.57616 0.18983 0.0
H757 H 0.1896 0.55977 0.15884 0.0
H758 H 0.18383 0.57481 0.20669 0.0
H759 H 0.13155 0.69731 0.19556 0.0
H760 H 0.07742 0.66734 0.14845 0.0
H761 H 0.14416 0.58918 0.11457 0.0
C762 C 0.26765 0.66024 0.21734 0.0
C763 C 0.2781 0.68982 0.24502 0.0
C764 C 0.24962 0.70934 0.25413 0.0
C765 C 0.21197 0.70102 0.23475 0.0
C766 C 0.20297 0.67262 0.20667 0.0
C767 C 0.22949 0.65184 0.19851 0.0
C768 C 0.21204 0.62282 0.16692 0.0
C769 C 0.24031 0.63158 0.13193 0.0
C770 C 0.20435 0.58091 0.18145 0.0
C771 C 0.17192 0.63088 0.15839 0.0
C772 C 0.16769 0.66013 0.18135 0.0
C773 C 0.13426 0.67405 0.17775 0.0
C774 C 0.10383 0.65706 0.15062 0.0
C775 C 0.10653 0.62597 0.12774 0.0
C776 C 0.1412 0.61285 0.13169 0.0
H777 H 0.20974 0.46912 0.72361 0.0
H778 H 0.20329 0.3476 0.72978 0.0
H779 H 0.26308 0.36155 0.68653 0.0
H780 H 0.24624 0.49202 0.62802 0.0
H781 H 0.28165 0.53905 0.63971 0.0
H782 H 0.23589 0.5188 0.6676 0.0
H783 H 0.28003 0.52624 0.72892 0.0
H784 H 0.32598 0.54644 0.70128 0.0
H785 H 0.32062 0.50445 0.73151 0.0
H786 H 0.3231 0.38933 0.64061 0.0
H787 H 0.38373 0.42901 0.60436 0.0
H788 H 0.35845 0.53418 0.63751 0.0
C789 C 0.22115 0.44545 0.71635 0.0
C790 C 0.2013 0.40703 0.72998 0.0
C791 C 0.21717 0.37698 0.71912 0.0
C792 C 0.25131 0.38475 0.69471 0.0
C793 C 0.27027 0.42302 0.68221 0.0
C794 C 0.25625 0.45303 0.69343 0.0
C795 C 0.28411 0.49209 0.67879 0.0
C796 C 0.26055 0.51163 0.65193 0.0
C797 C 0.30385 0.51888 0.71212 0.0
C798 C 0.31589 0.47944 0.6572 0.0
C799 C 0.30679 0.43937 0.65879 0.0
C800 C 0.33065 0.42071 0.6396 0.0
C801 C 0.36492 0.44347 0.61887 0.0
C802 C 0.37588 0.48464 0.61815 0.0
C803 C 0.35094 0.50278 0.63768 0.0
H804 H 0.72071 0.80084 0.95028 0.0
H805 H 0.64922 0.71375 0.87225 0.0
H806 H 0.70068 0.67831 0.87807 0.0
H807 H 0.81892 0.80324 0.91578 0.0
H808 H 0.84295 0.81082 0.96219 0.0
H809 H 0.79986 0.82785 0.95207 0.0
H810 H 0.76114 0.7882 1.0102 0.0
H811 H 0.8042 0.77112 1.02033 0.0
H812 H 0.75382 0.73667 1.01338 0.0
H813 H 0.76115 0.65369 0.89241 0.0
H814 H 0.82463 0.64099 0.91452 0.0
H815 H 0.85557 0.74523 0.9831 0.0
C816 C 0.7155 0.77371 0.93532 0.0
C817 C 0.6807 0.75898 0.91184 0.0
C818 C 0.67548 0.72461 0.89102 0.0
C819 C 0.70452 0.7046 0.89407 0.0
C820 C 0.73857 0.71983 0.91779 0.0
C821 C 0.74409 0.75364 0.93803 0.0
C822 C 0.78363 0.76468 0.96074 0.0
C823 C 0.81307 0.80398 0.94686 0.0
C824 C 0.77517 0.76517 1.00371 0.0
C825 C 0.79937 0.73146 0.9507 0.0
C826 C 0.77321 0.70601 0.92566 0.0
C827 C 0.78181 0.67341 0.91202 0.0
C828 C 0.81796 0.66655 0.92454 0.0
C829 C 0.84482 0.69211 0.95054 0.0
C830 C 0.83532 0.72497 0.96357 0.0
H831 H 0.43321 0.77413 0.22097 0.0
H832 H 0.39473 0.80334 0.33025 0.0
H833 H 0.42926 0.87298 0.31686 0.0
H834 H 0.53041 0.86014 0.2077 0.0
H835 H 0.51838 0.86447 0.15801 0.0
H836 H 0.50304 0.81736 0.18122 0.0
H837 H 0.42816 0.80748 0.15982 0.0
H838 H 0.44274 0.85492 0.13769 0.0
H839 H 0.40326 0.84238 0.17352 0.0
H840 H 0.45898 0.9407 0.28691 0.0
H841 H 0.47979 0.99853 0.24412 0.0
H842 H 0.48791 0.92509 0.14986 0.0
C843 C 0.43446 0.79515 0.24301 0.0
C844 C 0.41274 0.7828 0.27754 0.0
C845 C 0.41292 0.81142 0.30474 0.0
C846 C 0.43179 0.85137 0.29682 0.0
C847 C 0.44983 0.86258 0.26114 0.0
C848 C 0.45138 0.83514 0.23465 0.0
C849 C 0.46581 0.85432 0.19615 0.0
C850 C 0.50686 0.84875 0.18512 0.0
C851 C 0.43303 0.83884 0.16499 0.0
C852 C 0.4712 0.89668 0.20477 0.0
C853 C 0.4629 0.90101 0.24268 0.0
C854 C 0.46566 0.93749 0.25727 0.0
C855 C 0.47737 0.97023 0.23269 0.0
C856 C 0.48501 0.9664 0.19352 0.0
C857 C 0.48176 0.92896 0.17953 0.0
H858 H 0.09516 0.29119 0.76272 0.0
H859 H 0.14017 0.38043 0.67592 0.0
H860 H 0.12725 0.32965 0.62665 0.0
H861 H 0.13265 0.21797 0.72337 0.0
H862 H 0.0877 0.17761 0.73461 0.0
H863 H 0.10115 0.22069 0.76345 0.0
H864 H 0.02931 0.22785 0.75142 0.0
H865 H 0.01551 0.18459 0.7228 0.0
H866 H 1.01138 0.22953 0.70312 0.0
H867 H 0.11345 0.26854 0.58695 0.0
H868 H 0.09224 0.20306 0.55865 0.0
H869 H 0.04827 0.152 0.66891 0.0
C870 C 0.10184 0.30004 0.73328 0.0
C871 C 0.11974 0.34013 0.72349 0.0
C872 C 0.12772 0.35017 0.68447 0.0
C873 C 0.12023 0.3214 0.65619 0.0
C874 C 0.1035 0.28227 0.66685 0.0
C875 C 0.09356 0.27155 0.70437 0.0
C876 C 0.07441 0.22738 0.70777 0.0
C877 C 0.10054 0.20988 0.73385 0.0
C878 C 0.03001 0.21671 0.72213 0.0
C879 C 0.07566 0.21491 0.66647 0.0
C880 C 0.09309 0.24715 0.6435 0.0
C881 C 0.0994 0.24323 0.60469 0.0
C882 C 0.08744 0.20571 0.58885 0.0
C883 C 0.0685 0.17204 0.6113 0.0
C884 C 0.06238 0.17698 0.65077 0.0
H885 H 0.79397 0.35721 0.50316 0.0
H886 H 0.86477 0.45695 0.43726 0.0
H887 H 0.80726 0.48484 0.4399 0.0
H888 H 0.70442 0.34466 0.45596 0.0
H889 H 0.67053 0.3294 0.49615 0.0
H890 H 0.71979 0.32162 0.4968 0.0
H891 H 0.73919 0.3598 0.55982 0.0
H892 H 0.68947 0.36691 0.56001 0.0
H893 H 0.73535 0.40827 0.56269 0.0
H894 H 0.73847 0.4961 0.44144 0.0
H895 H 0.66541 0.49239 0.44505 0.0
H896 H 0.63893 0.38318 0.50786 0.0
C897 C 0.79788 0.38589 0.49118 0.0
C898 C 0.83382 0.40578 0.47106 0.0
C899 C 0.83769 0.4422 0.45372 0.0
C900 C 0.80514 0.45793 0.45489 0.0
C901 C 0.76916 0.43668 0.47354 0.0
C902 C 0.76559 0.40165 0.49184 0.0
C903 C 0.72234 0.38227 0.50595 0.0
C904 C 0.70317 0.34213 0.4876 0.0
C905 C 0.72155 0.37915 0.54972 0.0
C906 C 0.70175 0.41122 0.49177 0.0
C907 C 0.72929 0.44259 0.47347 0.0
C908 C 0.71678 0.47193 0.45613 0.0
C909 C 0.67515 0.46931 0.45791 0.0
C910 C 0.64648 0.43742 0.47665 0.0
C911 C 0.66019 0.40815 0.4938 0.0
loop_
_geom_bond_atom_site_label_1
_geom_bond_atom_site_label_2
_geom_bond_distance
_geom_bond_site_symmetry_2
_ccdc_geom_bond_type
C0 N1 1.317 . S
C0 N2 1.348 . S
C0 C3 1.485 . S
N1 C0 1.317 . S
N1 N5 1.370 . S
N2 C0 1.348 . S
N2 C4 1.346 . S
C3 C0 1.485 . S
C3 H7 0.960 . S
C3 H8 0.961 . S
C3 H9 0.960 . S
C4 N2 1.346 . S
C4 N5 1.307 . S
C4 C6 1.486 . S
N5 N1 1.370 . S
N5 C4 1.307 . S
C6 C4 1.486 . S
C6 H10 0.960 . S
C6 H11 0.960 . S
C6 H12 0.959 . S
H7 C3 0.960 . S
H8 C3 0.961 . S
H9 C3 0.960 . S
H10 C6 0.960 . S
H11 C6 0.960 . S
H12 C6 0.959 . S
C13 N14 1.317 . S
C13 N15 1.348 . S
C13 C16 1.485 . S
N14 C13 1.317 . S
N14 N18 1.370 . S
N15 C13 1.348 . S
N15 C17 1.346 . S
C16 C13 1.485 . S
C16 H20 0.960 . S
C16 H21 0.961 . S
C16 H22 0.960 . S
C17 N15 1.346 . S
C17 N18 1.307 . S
C17 C19 1.486 . S
N18 N14 1.370 . S
N18 C17 1.307 . S
C19 C17 1.486 . S
C19 H23 0.960 . S
C19 H24 0.960 . S
C19 H25 0.959 . S
H20 C16 0.960 . S
H21 C16 0.961 . S
H22 C16 0.960 . S
H23 C19 0.960 . S
H24 C19 0.960 . S
H25 C19 0.959 . S
C26 N27 1.317 . S
C26 N28 1.348 . S
C26 C29 1.485 . S
N27 C26 1.317 . S
N27 N31 1.370 . S
N28 C26 1.348 . S
N28 C30 1.346 . S
C29 C26 1.485 . S
C29 H33 0.960 . S
C29 H34 0.961 . S
C29 H35 0.960 . S
C30 N28 1.346 . S
C30 N31 1.307 . S
C30 C32 1.486 . S
N31 N27 1.370 . S
N31 C30 1.307 . S
C32 C30 1.486 . S
C32 H36 0.960 . S
C32 H37 0.960 . S
C32 H38 0.959 . S
H33 C29 0.960 . S
H34 C29 0.961 . S
H35 C29 0.960 . S
H36 C32 0.960 . S
H37 C32 0.960 . S
H38 C32 0.959 . S
C39 N40 1.317 . S
C39 N41 1.348 . S
C39 C42 1.485 . S
N40 C39 1.317 . S
N40 N44 1.370 . S
N41 C39 1.348 . S
N41 C43 1.346 . S
C42 C39 1.485 . S
C42 H46 0.960 . S
C42 H47 0.961 . S
C42 H48 0.960 . S
C43 N41 1.346 . S
C43 N44 1.307 . S
C43 C45 1.486 . S
N44 N40 1.370 . S
N44 C43 1.307 . S
C45 C43 1.486 . S
C45 H49 0.960 . S
C45 H50 0.960 . S
C45 H51 0.959 . S
H46 C42 0.960 . S
H47 C42 0.961 . S
H48 C42 0.960 . S
H49 C45 0.960 . S
H50 C45 0.960 . S
H51 C45 0.959 . S
C52 N53 1.317 . S
C52 N54 1.348 . S
C52 C55 1.485 . S
N53 C52 1.317 . S
N53 N57 1.370 . S
N54 C52 1.348 . S
N54 C56 1.346 . S
C55 C52 1.485 . S
C55 H59 0.960 . S
C55 H60 0.961 . S
C55 H61 0.960 . S
C56 N54 1.346 . S
C56 N57 1.307 . S
C56 C58 1.486 . S
N57 N53 1.370 . S
N57 C56 1.307 . S
C58 C56 1.486 . S
C58 H62 0.960 . S
C58 H63 0.960 . S
C58 H64 0.959 . S
H59 C55 0.960 . S
H60 C55 0.961 . S
H61 C55 0.960 . S
H62 C58 0.960 . S
H63 C58 0.960 . S
H64 C58 0.959 . S
C65 N66 1.317 . S
C65 N67 1.348 . S
C65 C68 1.485 . S
N66 C65 1.317 . S
N66 N70 1.370 . S
N67 C65 1.348 . S
N67 C69 1.346 . S
C68 C65 1.485 . S
C68 H72 0.960 . S
C68 H73 0.961 . S
C68 H74 0.960 . S
C69 N67 1.346 . S
C69 N70 1.307 . S
C69 C71 1.486 . S
N70 N66 1.370 . S
N70 C69 1.307 . S
C71 C69 1.486 . S
C71 H75 0.960 . S
C71 H76 0.960 . S
C71 H77 0.959 . S
H72 C68 0.960 . S
H73 C68 0.961 . S
H74 C68 0.960 . S
H75 C71 0.960 . S
H76 C71 0.960 . S
H77 C71 0.959 . S
C78 N79 1.317 . S
C78 N80 1.348 . S
C78 C81 1.485 . S
N79 C78 1.317 . S
N79 N83 1.370 . S
N80 C78 1.348 . S
N80 C82 1.346 . S
C81 C78 1.485 . S
C81 H85 0.960 . S
C81 H86 0.961 . S
C81 H87 0.960 . S
C82 N80 1.346 . S
C82 N83 1.307 . S
C82 C84 1.486 . S
N83 N79 1.370 . S
N83 C82 1.307 . S
C84 C82 1.486 . S
C84 H88 0.960 . S
C84 H89 0.960 . S
C84 H90 0.959 . S
H85 C81 0.960 . S
H86 C81 0.961 . S
H87 C81 0.960 . S
H88 C84 0.960 . S
H89 C84 0.960 . S
H90 C84 0.959 . S
C91 N92 1.317 . S
C91 N93 1.348 . S
C91 C94 1.485 . S
N92 C91 1.317 . S
N92 N96 1.370 . S
N93 C91 1.348 . S
N93 C95 1.346 . S
C94 C91 1.485 . S
C94 H98 0.960 . S
C94 H99 0.961 . S
C94 H100 0.960 . S
C95 N93 1.346 . S
C95 N96 1.307 . S
C95 C97 1.486 . S
N96 N92 1.370 . S
N96 C95 1.307 . S
C97 C95 1.486 . S
C97 H101 0.960 . S
C97 H102 0.960 . S
C97 H103 0.959 . S
H98 C94 0.960 . S
H99 C94 0.961 . S
H100 C94 0.960 . S
H101 C97 0.960 . S
H102 C97 0.960 . S
H103 C97 0.959 . S
Dy104 O107 2.307 1_545 S
Dy104 O109 2.395 . S
Dy104 O110 2.379 . S
Dy104 O112 2.339 1_545 S
Dy104 O114 2.298 . S
Dy104 O118 2.275 . S
Dy104 C126 2.738 . S
Dy105 O108 2.298 1_645 S
Dy105 O111 2.275 1_645 S
Dy105 O113 2.307 . S
Dy105 O115 2.395 1_545 S
Dy105 O116 2.379 1_545 S
Dy105 O119 2.339 1_655 S
Dy105 C135 2.738 1_545 S
C106 O118 1.254 . S
C106 O119 1.257 . S
O107 Dy104 2.307 1_565 S
O107 C117 1.266 . S
O108 Dy105 2.298 1_465 S
O108 C117 1.236 . S
O109 Dy104 2.395 . S
O109 C126 1.255 . S
O110 Dy104 2.379 . S
O110 C126 1.249 . S
O111 Dy105 2.275 1_465 S
O111 C127 1.254 . S
O112 Dy104 2.339 1_565 S
O112 C127 1.257 . S
O113 Dy105 2.307 . S
O113 C128 1.266 1_655 S
O114 Dy104 2.298 . S
O114 C128 1.236 . S
O115 Dy105 2.395 1_565 S
O115 C135 1.255 . S
O116 Dy105 2.379 1_565 S
O116 C135 1.249 . S
C117 O107 1.266 . S
C117 O108 1.236 . S
O118 Dy104 2.275 . S
O118 C106 1.254 . S
O119 Dy105 2.339 1_455 S
O119 C106 1.257 . S
C120 C123 1.344 . S
C120 C124 1.328 . S
C120 C126 1.516 . S
C121 C122 1.304 . S
C121 C125 1.323 . S
C122 C121 1.304 . S
C122 C123 1.371 . S
C122 H136 0.930 . S
C123 C120 1.344 . S
C123 C122 1.371 . S
C123 H137 0.931 . S
C124 C120 1.328 . S
C124 C125 1.433 . S
C124 H138 0.931 . S
C125 C121 1.323 . S
C125 C124 1.433 . S
C125 H139 0.933 . S
C126 Dy104 2.738 . S
C126 O109 1.255 . S
C126 O110 1.249 . S
C126 C120 1.516 . S
C127 O111 1.254 . S
C127 O112 1.257 . S
C128 O113 1.266 1_455 S
C128 O114 1.236 . S
C129 C132 1.344 . S
C129 C133 1.328 . S
C129 C135 1.516 . S
C130 C131 1.304 . S
C130 C134 1.323 . S
C131 C130 1.304 . S
C131 C132 1.371 . S
C131 H140 0.930 . S
C132 C129 1.344 . S
C132 C131 1.371 . S
C132 H141 0.931 . S
C133 C129 1.328 . S
C133 C134 1.433 . S
C133 H142 0.931 . S
C134 C130 1.323 . S
C134 C133 1.433 . S
C134 H143 0.933 . S
C135 Dy105 2.738 1_565 S
C135 O115 1.255 . S
C135 O116 1.249 . S
C135 C129 1.516 . S
H136 C122 0.930 . S
H137 C123 0.931 . S
H138 C124 0.931 . S
H139 C125 0.933 . S
H140 C131 0.930 . S
H141 C132 0.931 . S
H142 C133 0.931 . S
H143 C134 0.933 . S
Dy144 O147 2.307 . S
Dy144 O149 2.395 1_545 S
Dy144 O150 2.379 1_554 S
Dy144 O152 2.339 1_554 S
Dy144 O154 2.298 1_545 S
Dy144 O158 2.275 1_545 S
Dy144 C166 2.738 1_544 S
Dy145 O148 2.298 . S
Dy145 O151 2.275 . S
Dy145 O153 2.307 1_545 S
Dy145 O155 2.395 . S
Dy145 O156 2.379 . S
Dy145 O159 2.339 1_545 S
Dy145 C175 2.738 . S
C146 O158 1.254 . S
C146 O159 1.257 . S
O147 Dy144 2.307 . S
O147 C157 1.266 . S
O148 Dy145 2.298 . S
O148 C157 1.236 . S
O149 Dy144 2.395 1_565 S
O149 C166 1.255 1_554 S
O150 Dy144 2.379 1_556 S
O150 C166 1.249 1_545 S
O151 Dy145 2.275 . S
O151 C167 1.254 . S
O152 Dy144 2.339 1_556 S
O152 C167 1.257 1_556 S
O153 Dy145 2.307 1_565 S
O153 C168 1.266 . S
O154 Dy144 2.298 1_565 S
O154 C168 1.236 . S
O155 Dy145 2.395 . S
O155 C175 1.255 . S
O156 Dy145 2.379 . S
O156 C175 1.249 . S
C157 O147 1.266 . S
C157 O148 1.236 . S
O158 Dy144 2.275 1_565 S
O158 C146 1.254 . S
O159 Dy145 2.339 1_565 S
O159 C146 1.257 . S
C160 C163 1.344 . S
C160 C164 1.328 . S
C160 C166 1.516 . S
C161 C162 1.304 . S
C161 C165 1.323 . S
C162 C161 1.304 . S
C162 C163 1.371 . S
C162 H176 0.930 . S
C163 C160 1.344 . S
C163 C162 1.371 . S
C163 H177 0.931 . S
C164 C160 1.328 . S
C164 C165 1.433 . S
C164 H178 0.931 . S
C165 C161 1.323 . S
C165 C164 1.433 . S
C165 H179 0.933 . S
C166 Dy144 2.738 1_566 S
C166 O149 1.255 1_556 S
C166 O150 1.249 1_565 S
C166 C160 1.516 . S
C167 O151 1.254 . S
C167 O152 1.257 1_554 S
C168 O153 1.266 . S
C168 O154 1.236 . S
C169 C172 1.344 . S
C169 C173 1.328 . S
C169 C175 1.516 . S
C170 C171 1.304 . S
C170 C174 1.323 . S
C171 C170 1.304 . S
C171 C172 1.371 . S
C171 H180 0.930 . S
C172 C169 1.344 . S
C172 C171 1.371 . S
C172 H181 0.931 . S
C173 C169 1.328 . S
C173 C174 1.433 . S
C173 H182 0.931 . S
C174 C170 1.323 . S
C174 C173 1.433 . S
C174 H183 0.933 . S
C175 Dy145 2.738 . S
C175 O155 1.255 . S
C175 O156 1.249 . S
C175 C169 1.516 . S
H176 C162 0.930 . S
H177 C163 0.931 . S
H178 C164 0.931 . S
H179 C165 0.933 . S
H180 C171 0.930 . S
H181 C172 0.931 . S
H182 C173 0.931 . S
H183 C174 0.933 . S
Dy184 O187 2.307 . S
Dy184 O189 2.395 . S
Dy184 O190 2.379 . S
Dy184 O192 2.339 . S
Dy184 O194 2.298 . S
Dy184 O198 2.275 . S
Dy184 C206 2.738 . S
Dy185 O188 2.298 . S
Dy185 O191 2.275 . S
Dy185 O193 2.307 . S
Dy185 O195 2.395 . S
Dy185 O196 2.379 . S
Dy185 O199 2.339 . S
Dy185 C215 2.738 . S
C186 O198 1.254 . S
C186 O199 1.257 . S
O187 Dy184 2.307 . S
O187 C197 1.266 . S
O188 Dy185 2.298 . S
O188 C197 1.236 . S
O189 Dy184 2.395 . S
O189 C206 1.255 . S
O190 Dy184 2.379 . S
O190 C206 1.249 . S
O191 Dy185 2.275 . S
O191 C207 1.254 . S
O192 Dy184 2.339 . S
O192 C207 1.257 . S
O193 Dy185 2.307 . S
O193 C208 1.266 . S
O194 Dy184 2.298 . S
O194 C208 1.236 . S
O195 Dy185 2.395 . S
O195 C215 1.255 . S
O196 Dy185 2.379 . S
O196 C215 1.249 . S
C197 O187 1.266 . S
C197 O188 1.236 . S
O198 Dy184 2.275 . S
O198 C186 1.254 . S
O199 Dy185 2.339 . S
O199 C186 1.257 . S
C200 C203 1.344 . S
C200 C204 1.328 . S
C200 C206 1.516 . S
C201 C202 1.304 . S
C201 C205 1.323 . S
C202 C201 1.304 . S
C202 C203 1.371 . S
C202 H216 0.930 . S
C203 C200 1.344 . S
C203 C202 1.371 . S
C203 H217 0.931 . S
C204 C200 1.328 . S
C204 C205 1.433 . S
C204 H218 0.931 . S
C205 C201 1.323 . S
C205 C204 1.433 . S
C205 H219 0.933 . S
C206 Dy184 2.738 . S
C206 O189 1.255 . S
C206 O190 1.249 . S
C206 C200 1.516 . S
C207 O191 1.254 . S
C207 O192 1.257 . S
C208 O193 1.266 . S
C208 O194 1.236 . S
C209 C212 1.344 . S
C209 C213 1.328 . S
C209 C215 1.516 . S
C210 C211 1.304 . S
C210 C214 1.323 . S
C211 C210 1.304 . S
C211 C212 1.371 . S
C211 H220 0.930 . S
C212 C209 1.344 . S
C212 C211 1.371 . S
C212 H221 0.931 . S
C213 C209 1.328 . S
C213 C214 1.433 . S
C213 H222 0.931 . S
C214 C210 1.323 . S
C214 C213 1.433 . S
C214 H223 0.933 . S
C215 Dy185 2.738 . S
C215 O195 1.255 . S
C215 O196 1.249 . S
C215 C209 1.516 . S
H216 C202 0.930 . S
H217 C203 0.931 . S
H218 C204 0.931 . S
H219 C205 0.933 . S
H220 C211 0.930 . S
H221 C212 0.931 . S
H222 C213 0.931 . S
H223 C214 0.933 . S
Dy224 O227 2.314 1_556 S
Dy224 O229 2.387 1_455 S
Dy224 O230 2.375 1_455 S
Dy224 O232 2.343 . S
Dy224 O234 2.293 1_455 S
Dy224 O238 2.274 1_456 S
Dy224 C246 2.731 1_455 S
Dy225 O228 2.298 . S
Dy225 O231 2.275 1_554 S
Dy225 O233 2.307 1_455 S
Dy225 O235 2.395 . S
Dy225 O236 2.379 . S
Dy225 O239 2.339 1_455 S
Dy225 C255 2.738 . S
C226 O238 1.254 . S
C226 O239 1.257 . S
O227 Dy224 2.314 1_554 S
O227 C237 1.266 . S
O228 Dy225 2.298 . S
O228 C237 1.236 . S
O229 Dy224 2.387 1_655 S
O229 C246 1.255 . S
O230 Dy224 2.375 1_655 S
O230 C246 1.249 . S
O231 Dy225 2.275 1_556 S
O231 C247 1.254 . S
O232 Dy224 2.343 . S
O232 C247 1.257 . S
O233 Dy225 2.307 1_655 S
O233 C248 1.266 1_554 S
O234 Dy224 2.293 1_655 S
O234 C248 1.236 . S
O235 Dy225 2.395 . S
O235 C255 1.255 . S
O236 Dy225 2.379 . S
O236 C255 1.249 . S
C237 O227 1.266 . S
C237 O228 1.236 . S
O238 Dy224 2.274 1_654 S
O238 C226 1.254 . S
O239 Dy225 2.339 1_655 S
O239 C226 1.257 . S
C240 C243 1.344 . S
C240 C244 1.328 . S
C240 C246 1.516 . S
C241 C242 1.304 . S
C241 C245 1.323 . S
C242 C241 1.304 . S
C242 C243 1.371 . S
C242 H256 0.930 . S
C243 C240 1.344 . S
C243 C242 1.371 . S
C243 H257 0.931 . S
C244 C240 1.328 . S
C244 C245 1.433 . S
C244 H258 0.931 . S
C245 C241 1.323 . S
C245 C244 1.433 . S
C245 H259 0.933 . S
C246 Dy224 2.731 1_655 S
C246 O229 1.255 . S
C246 O230 1.249 . S
C246 C240 1.516 . S
C247 O231 1.254 . S
C247 O232 1.257 . S
C248 O233 1.266 1_556 S
C248 O234 1.236 . S
C249 C252 1.344 . S
C249 C253 1.328 . S
C249 C255 1.516 . S
C250 C251 1.304 . S
C250 C254 1.323 . S
C251 C250 1.304 . S
C251 C252 1.371 . S
C251 H260 0.930 . S
C252 C249 1.344 . S
C252 C251 1.371 . S
C252 H261 0.931 . S
C253 C249 1.328 . S
C253 C254 1.433 . S
C253 H262 0.931 . S
C254 C250 1.323 . S
C254 C253 1.433 . S
C254 H263 0.933 . S
C255 Dy225 2.738 . S
C255 O235 1.255 . S
C255 O236 1.249 . S
C255 C249 1.516 . S
H256 C242 0.930 . S
H257 C243 0.931 . S
H258 C244 0.931 . S
H259 C245 0.933 . S
H260 C251 0.930 . S
H261 C252 0.931 . S
H262 C253 0.931 . S
H263 C254 0.933 . S
H264 C276 0.930 . S
H265 C278 0.930 . S
H266 C279 0.930 . S
H267 C283 0.959 . S
H268 C283 0.959 . S
H269 C283 0.961 . S
H270 C284 0.960 . S
H271 C284 0.961 . S
H272 C284 0.959 . S
H273 C287 0.929 . S
H274 C288 0.931 . S
H275 C290 0.930 . S
C276 H264 0.930 . S
C276 C277 1.399 . S
C276 C281 1.399 . S
C277 C276 1.399 . S
C277 C278 1.376 . S
C278 H265 0.930 . S
C278 C277 1.376 . S
C278 C279 1.388 . S
C279 H266 0.930 . S
C279 C278 1.388 . S
C279 C280 1.390 . S
C280 C279 1.390 . S
C280 C281 1.394 . S
C280 C286 1.465 . S
C281 C276 1.399 . S
C281 C280 1.394 . S
C281 C282 1.516 . S
C282 C281 1.516 . S
C282 C283 1.502 . S
C282 C284 1.561 . S
C282 C285 1.526 . S
C283 H267 0.959 . S
C283 H268 0.959 . S
C283 H269 0.961 . S
C283 C282 1.502 . S
C284 H270 0.960 . S
C284 H271 0.961 . S
C284 H272 0.959 . S
C284 C282 1.561 . S
C285 C282 1.526 . S
C285 C286 1.396 . S
C285 C290 1.390 . S
C286 C280 1.465 . S
C286 C285 1.396 . S
C286 C287 1.399 . S
C287 H273 0.929 . S
C287 C286 1.399 . S
C287 C288 1.385 . S
C288 H274 0.931 . S
C288 C287 1.385 . S
C288 C289 1.389 . S
C289 C288 1.389 . S
C289 C290 1.387 . S
C290 H275 0.930 . S
C290 C285 1.390 . S
C290 C289 1.387 . S
H291 C303 0.930 . S
H292 C305 0.930 . S
H293 C306 0.930 . S
H294 C310 0.959 . S
H295 C310 0.959 . S
H296 C310 0.961 . S
H297 C311 0.960 . S
H298 C311 0.961 . S
H299 C311 0.959 . S
H300 C314 0.929 . S
H301 C315 0.931 . S
H302 C317 0.930 . S
C303 H291 0.930 . S
C303 C304 1.399 . S
C303 C308 1.399 . S
C304 C303 1.399 . S
C304 C305 1.376 . S
C305 H292 0.930 . S
C305 C304 1.376 . S
C305 C306 1.388 . S
C306 H293 0.930 . S
C306 C305 1.388 . S
C306 C307 1.390 . S
C307 C306 1.390 . S
C307 C308 1.394 . S
C307 C313 1.465 . S
C308 C303 1.399 . S
C308 C307 1.394 . S
C308 C309 1.516 . S
C309 C308 1.516 . S
C309 C310 1.502 . S
C309 C311 1.561 . S
C309 C312 1.526 . S
C310 H294 0.959 . S
C310 H295 0.959 . S
C310 H296 0.961 . S
C310 C309 1.502 . S
C311 H297 0.960 . S
C311 H298 0.961 . S
C311 H299 0.959 . S
C311 C309 1.561 . S
C312 C309 1.526 . S
C312 C313 1.396 . S
C312 C317 1.390 . S
C313 C307 1.465 . S
C313 C312 1.396 . S
C313 C314 1.399 . S
C314 H300 0.929 . S
C314 C313 1.399 . S
C314 C315 1.385 . S
C315 H301 0.931 . S
C315 C314 1.385 . S
C315 C316 1.389 . S
C316 C315 1.389 . S
C316 C317 1.387 . S
C317 H302 0.930 . S
C317 C312 1.390 . S
C317 C316 1.387 . S
H318 C330 0.930 . S
H319 C332 0.930 . S
H320 C333 0.930 . S
H321 C337 0.959 . S
H322 C337 0.959 . S
H323 C337 0.961 . S
H324 C338 0.960 . S
H325 C338 0.961 . S
H326 C338 0.959 . S
H327 C341 0.929 . S
H328 C342 0.931 . S
H329 C344 0.930 . S
C330 H318 0.930 . S
C330 C331 1.399 . S
C330 C335 1.399 . S
C331 C330 1.399 . S
C331 C332 1.376 . S
C332 H319 0.930 . S
C332 C331 1.376 . S
C332 C333 1.388 . S
C333 H320 0.930 . S
C333 C332 1.388 . S
C333 C334 1.390 . S
C334 C333 1.390 . S
C334 C335 1.394 . S
C334 C340 1.465 . S
C335 C330 1.399 . S
C335 C334 1.394 . S
C335 C336 1.516 . S
C336 C335 1.516 . S
C336 C337 1.502 . S
C336 C338 1.561 . S
C336 C339 1.526 . S
C337 H321 0.959 . S
C337 H322 0.959 . S
C337 H323 0.961 . S
C337 C336 1.502 . S
C338 H324 0.960 . S
C338 H325 0.961 . S
C338 H326 0.959 . S
C338 C336 1.561 . S
C339 C336 1.526 . S
C339 C340 1.396 . S
C339 C344 1.390 . S
C340 C334 1.465 . S
C340 C339 1.396 . S
C340 C341 1.399 . S
C341 H327 0.929 . S
C341 C340 1.399 . S
C341 C342 1.385 . S
C342 H328 0.931 . S
C342 C341 1.385 . S
C342 C343 1.389 . S
C343 C342 1.389 . S
C343 C344 1.387 . S
C344 H329 0.930 . S
C344 C339 1.390 . S
C344 C343 1.387 . S
H345 C357 0.930 . S
H346 C359 0.930 . S
H347 C360 0.930 . S
H348 C364 0.959 . S
H349 C364 0.959 . S
H350 C364 0.961 . S
H351 C365 0.960 . S
H352 C365 0.961 . S
H353 C365 0.959 . S
H354 C368 0.929 . S
H355 C369 0.931 . S
H356 C371 0.930 . S
C357 H345 0.930 . S
C357 C358 1.399 . S
C357 C362 1.399 . S
C358 C357 1.399 . S
C358 C359 1.376 . S
C359 H346 0.930 . S
C359 C358 1.376 . S
C359 C360 1.388 . S
C360 H347 0.930 . S
C360 C359 1.388 . S
C360 C361 1.390 . S
C361 C360 1.390 . S
C361 C362 1.394 . S
C361 C367 1.465 . S
C362 C357 1.399 . S
C362 C361 1.394 . S
C362 C363 1.516 . S
C363 C362 1.516 . S
C363 C364 1.502 . S
C363 C365 1.561 . S
C363 C366 1.526 . S
C364 H348 0.959 . S
C364 H349 0.959 . S
C364 H350 0.961 . S
C364 C363 1.502 . S
C365 H351 0.960 . S
C365 H352 0.961 . S
C365 H353 0.959 . S
C365 C363 1.561 . S
C366 C363 1.526 . S
C366 C367 1.396 . S
C366 C371 1.390 . S
C367 C361 1.465 . S
C367 C366 1.396 . S
C367 C368 1.399 . S
C368 H354 0.929 . S
C368 C367 1.399 . S
C368 C369 1.385 . S
C369 H355 0.931 . S
C369 C368 1.385 . S
C369 C370 1.389 . S
C370 C369 1.389 . S
C370 C371 1.387 . S
C371 H356 0.930 . S
C371 C366 1.390 . S
C371 C370 1.387 . S
H372 C384 0.930 . S
H373 C386 0.930 . S
H374 C387 0.930 . S
H375 C391 0.959 . S
H376 C391 0.959 . S
H377 C391 0.961 . S
H378 C392 0.960 . S
H379 C392 0.961 . S
H380 C392 0.959 . S
H381 C395 0.929 . S
H382 C396 0.931 . S
H383 C398 0.930 . S
C384 H372 0.930 . S
C384 C385 1.399 . S
C384 C389 1.399 . S
C385 C384 1.399 . S
C385 C386 1.376 . S
C386 H373 0.930 . S
C386 C385 1.376 . S
C386 C387 1.388 . S
C387 H374 0.930 . S
C387 C386 1.388 . S
C387 C388 1.390 . S
C388 C387 1.390 . S
C388 C389 1.394 . S
C388 C394 1.465 . S
C389 C384 1.399 . S
C389 C388 1.394 . S
C389 C390 1.516 . S
C390 C389 1.516 . S
C390 C391 1.502 . S
C390 C392 1.561 . S
C390 C393 1.526 . S
C391 H375 0.959 . S
C391 H376 0.959 . S
C391 H377 0.961 . S
C391 C390 1.502 . S
C392 H378 0.960 . S
C392 H379 0.961 . S
C392 H380 0.959 . S
C392 C390 1.561 . S
C393 C390 1.526 . S
C393 C394 1.396 . S
C393 C398 1.390 . S
C394 C388 1.465 . S
C394 C393 1.396 . S
C394 C395 1.399 . S
C395 H381 0.929 . S
C395 C394 1.399 . S
C395 C396 1.385 . S
C396 H382 0.931 . S
C396 C395 1.385 . S
C396 C397 1.389 . S
C397 C396 1.389 . S
C397 C398 1.387 . S
C398 H383 0.930 . S
C398 C393 1.390 . S
C398 C397 1.387 . S
H399 C411 0.930 . S
H400 C413 0.930 . S
H401 C414 0.930 . S
H402 C418 0.959 . S
H403 C418 0.959 . S
H404 C418 0.961 . S
H405 C419 0.960 . S
H406 C419 0.948 1_655 S
H407 C419 0.959 . S
H408 C422 0.929 . S
H409 C423 0.931 . S
H410 C425 0.930 . S
C411 H399 0.930 . S
C411 C412 1.399 . S
C411 C416 1.399 . S
C412 C411 1.399 . S
C412 C413 1.376 . S
C413 H400 0.930 . S
C413 C412 1.376 . S
C413 C414 1.388 . S
C414 H401 0.930 . S
C414 C413 1.388 . S
C414 C415 1.390 . S
C415 C414 1.390 . S
C415 C416 1.394 . S
C415 C421 1.465 . S
C416 C411 1.399 . S
C416 C415 1.394 . S
C416 C417 1.516 . S
C417 C416 1.516 . S
C417 C418 1.502 . S
C417 C419 1.561 . S
C417 C420 1.526 . S
C418 H402 0.959 . S
C418 H403 0.959 . S
C418 H404 0.961 . S
C418 C417 1.502 . S
C419 H405 0.960 . S
C419 H406 0.948 1_455 S
C419 H407 0.959 . S
C419 C417 1.561 . S
C420 C417 1.526 . S
C420 C421 1.396 . S
C420 C425 1.390 . S
C421 C415 1.465 . S
C421 C420 1.396 . S
C421 C422 1.399 . S
C422 H408 0.929 . S
C422 C421 1.399 . S
C422 C423 1.385 . S
C423 H409 0.931 . S
C423 C422 1.385 . S
C423 C424 1.389 . S
C424 C423 1.389 . S
C424 C425 1.387 . S
C425 H410 0.930 . S
C425 C420 1.390 . S
C425 C424 1.387 . S
H426 C438 0.930 . S
H427 C440 0.930 . S
H428 C441 0.930 . S
H429 C445 0.959 . S
H430 C445 0.959 1_554 S
H431 C445 0.961 . S
H432 C446 0.960 . S
H433 C446 0.961 . S
H434 C446 0.959 . S
H435 C449 0.929 . S
H436 C450 0.931 . S
H437 C452 0.930 1_554 S
C438 H426 0.930 . S
C438 C439 1.399 . S
C438 C443 1.399 . S
C439 C438 1.399 . S
C439 C440 1.376 . S
C440 H427 0.930 . S
C440 C439 1.376 . S
C440 C441 1.388 . S
C441 H428 0.930 . S
C441 C440 1.388 . S
C441 C442 1.390 . S
C442 C441 1.390 . S
C442 C443 1.394 . S
C442 C448 1.465 . S
C443 C438 1.399 . S
C443 C442 1.394 . S
C443 C444 1.516 . S
C444 C443 1.516 . S
C444 C445 1.502 . S
C444 C446 1.561 . S
C444 C447 1.526 . S
C445 H429 0.959 . S
C445 H430 0.959 1_556 S
C445 H431 0.961 . S
C445 C444 1.502 . S
C446 H432 0.960 . S
C446 H433 0.961 . S
C446 H434 0.959 . S
C446 C444 1.561 . S
C447 C444 1.526 . S
C447 C448 1.396 . S
C447 C452 1.390 . S
C448 C442 1.465 . S
C448 C447 1.396 . S
C448 C449 1.399 . S
C449 H435 0.929 . S
C449 C448 1.399 . S
C449 C450 1.385 . S
C450 H436 0.931 . S
C450 C449 1.385 . S
C450 C451 1.389 . S
C451 C450 1.389 . S
C451 C452 1.387 . S
C452 H437 0.930 1_556 S
C452 C447 1.390 . S
C452 C451 1.387 . S
H453 C465 0.930 . S
H454 C467 0.930 . S
H455 C468 0.930 . S
H456 C472 0.959 . S
H457 C472 0.959 . S
H458 C472 0.961 . S
H459 C473 0.960 . S
H460 C473 0.961 . S
H461 C473 0.959 . S
H462 C476 0.929 . S
H463 C477 0.931 . S
H464 C479 0.930 . S
C465 H453 0.930 . S
C465 C466 1.399 . S
C465 C470 1.399 . S
C466 C465 1.399 . S
C466 C467 1.376 . S
C467 H454 0.930 . S
C467 C466 1.376 . S
C467 C468 1.388 . S
C468 H455 0.930 . S
C468 C467 1.388 . S
C468 C469 1.390 . S
C469 C468 1.390 . S
C469 C470 1.394 . S
C469 C475 1.465 . S
C470 C465 1.399 . S
C470 C469 1.394 . S
C470 C471 1.516 . S
C471 C470 1.516 . S
C471 C472 1.502 . S
C471 C473 1.561 . S
C471 C474 1.526 . S
C472 H456 0.959 . S
C472 H457 0.959 . S
C472 H458 0.961 . S
C472 C471 1.502 . S
C473 H459 0.960 . S
C473 H460 0.961 . S
C473 H461 0.959 . S
C473 C471 1.561 . S
C474 C471 1.526 . S
C474 C475 1.396 . S
C474 C479 1.390 . S
C475 C469 1.465 . S
C475 C474 1.396 . S
C475 C476 1.399 . S
C476 H462 0.929 . S
C476 C475 1.399 . S
C476 C477 1.385 . S
C477 H463 0.931 . S
C477 C476 1.385 . S
C477 C478 1.389 . S
C478 C477 1.389 . S
C478 C479 1.387 . S
C479 H464 0.930 . S
C479 C474 1.390 . S
C479 C478 1.387 . S
H480 C492 0.930 . S
H481 C494 0.930 . S
H482 C495 0.930 . S
H483 C499 0.959 . S
H484 C499 0.959 . S
H485 C499 0.961 . S
H486 C500 0.960 . S
H487 C500 0.961 . S
H488 C500 0.959 . S
H489 C503 0.929 . S
H490 C504 0.931 . S
H491 C506 0.930 . S
C492 H480 0.930 . S
C492 C493 1.399 . S
C492 C497 1.399 . S
C493 C492 1.399 . S
C493 C494 1.376 . S
C494 H481 0.930 . S
C494 C493 1.376 . S
C494 C495 1.388 . S
C495 H482 0.930 . S
C495 C494 1.388 . S
C495 C496 1.390 . S
C496 C495 1.390 . S
C496 C497 1.394 . S
C496 C502 1.465 . S
C497 C492 1.399 . S
C497 C496 1.394 . S
C497 C498 1.516 . S
C498 C497 1.516 . S
C498 C499 1.502 . S
C498 C500 1.561 . S
C498 C501 1.526 . S
C499 H483 0.959 . S
C499 H484 0.959 . S
C499 H485 0.961 . S
C499 C498 1.502 . S
C500 H486 0.960 . S
C500 H487 0.961 . S
C500 H488 0.959 . S
C500 C498 1.561 . S
C501 C498 1.526 . S
C501 C502 1.396 . S
C501 C506 1.390 . S
C502 C496 1.465 . S
C502 C501 1.396 . S
C502 C503 1.399 . S
C503 H489 0.929 . S
C503 C502 1.399 . S
C503 C504 1.385 . S
C504 H490 0.931 . S
C504 C503 1.385 . S
C504 C505 1.389 . S
C505 C504 1.389 . S
C505 C506 1.387 . S
C506 H491 0.930 . S
C506 C501 1.390 . S
C506 C505 1.387 . S
H507 C519 0.930 . S
H508 C521 0.930 . S
H509 C522 0.930 . S
H510 C526 0.959 . S
H511 C526 0.959 . S
H512 C526 0.961 . S
H513 C527 0.960 . S
H514 C527 0.961 . S
H515 C527 0.959 . S
H516 C530 0.929 . S
H517 C531 0.931 . S
H518 C533 0.930 . S
C519 H507 0.930 . S
C519 C520 1.399 . S
C519 C524 1.399 . S
C520 C519 1.399 . S
C520 C521 1.376 . S
C521 H508 0.930 . S
C521 C520 1.376 . S
C521 C522 1.388 . S
C522 H509 0.930 . S
C522 C521 1.388 . S
C522 C523 1.390 . S
C523 C522 1.390 . S
C523 C524 1.394 . S
C523 C529 1.465 . S
C524 C519 1.399 . S
C524 C523 1.394 . S
C524 C525 1.516 . S
C525 C524 1.516 . S
C525 C526 1.502 . S
C525 C527 1.561 . S
C525 C528 1.526 . S
C526 H510 0.959 . S
C526 H511 0.959 . S
C526 H512 0.961 . S
C526 C525 1.502 . S
C527 H513 0.960 . S
C527 H514 0.961 . S
C527 H515 0.959 . S
C527 C525 1.561 . S
C528 C525 1.526 . S
C528 C529 1.396 . S
C528 C533 1.390 . S
C529 C523 1.465 . S
C529 C528 1.396 . S
C529 C530 1.399 1_556 S
C530 H516 0.929 . S
C530 C529 1.399 1_554 S
C530 C531 1.385 . S
C531 H517 0.931 . S
C531 C530 1.385 . S
C531 C532 1.389 1_554 S
C532 C531 1.389 1_556 S
C532 C533 1.387 . S
C533 H518 0.930 . S
C533 C528 1.390 . S
C533 C532 1.387 . S
H534 C546 0.930 . S
H535 C548 0.930 . S
H536 C549 0.930 . S
H537 C553 0.959 . S
H538 C553 0.959 . S
H539 C553 0.961 . S
H540 C554 0.960 . S
H541 C554 0.961 . S
H542 C554 0.959 . S
H543 C557 0.929 . S
H544 C558 0.931 1_455 S
H545 C560 0.930 . S
C546 H534 0.930 . S
C546 C547 1.399 . S
C546 C551 1.399 . S
C547 C546 1.399 . S
C547 C548 1.376 . S
C548 H535 0.930 . S
C548 C547 1.376 . S
C548 C549 1.388 . S
C549 H536 0.930 . S
C549 C548 1.388 . S
C549 C550 1.390 . S
C550 C549 1.390 . S
C550 C551 1.394 . S
C550 C556 1.465 . S
C551 C546 1.399 . S
C551 C550 1.394 . S
C551 C552 1.516 . S
C552 C551 1.516 . S
C552 C553 1.502 . S
C552 C554 1.561 . S
C552 C555 1.526 . S
C553 H537 0.959 . S
C553 H538 0.959 . S
C553 H539 0.961 . S
C553 C552 1.502 . S
C554 H540 0.960 . S
C554 H541 0.961 . S
C554 H542 0.959 . S
C554 C552 1.561 . S
C555 C552 1.526 . S
C555 C556 1.396 . S
C555 C560 1.390 . S
C556 C550 1.465 . S
C556 C555 1.396 . S
C556 C557 1.399 . S
C557 H543 0.929 . S
C557 C556 1.399 . S
C557 C558 1.385 . S
C558 H544 0.931 1_655 S
C558 C557 1.385 . S
C558 C559 1.389 . S
C559 C558 1.389 . S
C559 C560 1.387 . S
C560 H545 0.930 . S
C560 C555 1.390 . S
C560 C559 1.387 . S
H561 C573 0.930 . S
H562 C575 0.930 . S
H563 C576 0.930 . S
H564 C580 0.959 . S
H565 C580 0.959 . S
H566 C580 0.961 . S
H567 C581 0.960 . S
H568 C581 0.961 . S
H569 C581 0.959 . S
H570 C584 0.929 . S
H571 C585 0.931 . S
H572 C587 0.930 . S
C573 H561 0.930 . S
C573 C574 1.399 . S
C573 C578 1.399 . S
C574 C573 1.399 . S
C574 C575 1.376 . S
C575 H562 0.930 . S
C575 C574 1.376 . S
C575 C576 1.388 . S
C576 H563 0.930 . S
C576 C575 1.388 . S
C576 C577 1.390 . S
C577 C576 1.390 . S
C577 C578 1.394 . S
C577 C583 1.465 . S
C578 C573 1.399 . S
C578 C577 1.394 . S
C578 C579 1.516 . S
C579 C578 1.516 . S
C579 C580 1.502 . S
C579 C581 1.561 . S
C579 C582 1.526 . S
C580 H564 0.959 . S
C580 H565 0.959 . S
C580 H566 0.961 . S
C580 C579 1.502 . S
C581 H567 0.960 . S
C581 H568 0.961 . S
C581 H569 0.959 . S
C581 C579 1.561 . S
C582 C579 1.526 . S
C582 C583 1.396 . S
C582 C587 1.390 . S
C583 C577 1.465 . S
C583 C582 1.396 . S
C583 C584 1.399 . S
C584 H570 0.929 . S
C584 C583 1.399 . S
C584 C585 1.385 . S
C585 H571 0.931 . S
C585 C584 1.385 . S
C585 C586 1.389 . S
C586 C585 1.389 . S
C586 C587 1.387 . S
C587 H572 0.930 . S
C587 C582 1.390 . S
C587 C586 1.387 . S
H588 C600 0.930 . S
H589 C602 0.930 . S
H590 C603 0.930 . S
H591 C607 0.959 . S
H592 C607 0.959 . S
H593 C607 0.961 . S
H594 C608 0.960 . S
H595 C608 0.961 . S
H596 C608 0.959 . S
H597 C611 0.929 . S
H598 C612 0.931 . S
H599 C614 0.930 . S
C600 H588 0.930 . S
C600 C601 1.399 . S
C600 C605 1.399 . S
C601 C600 1.399 . S
C601 C602 1.376 . S
C602 H589 0.930 . S
C602 C601 1.376 . S
C602 C603 1.388 . S
C603 H590 0.930 . S
C603 C602 1.388 . S
C603 C604 1.390 . S
C604 C603 1.390 . S
C604 C605 1.394 . S
C604 C610 1.465 . S
C605 C600 1.399 . S
C605 C604 1.394 . S
C605 C606 1.516 . S
C606 C605 1.516 . S
C606 C607 1.502 . S
C606 C608 1.561 . S
C606 C609 1.526 . S
C607 H591 0.959 . S
C607 H592 0.959 . S
C607 H593 0.961 . S
C607 C606 1.502 . S
C608 H594 0.960 . S
C608 H595 0.961 . S
C608 H596 0.959 . S
C608 C606 1.561 . S
C609 C606 1.526 . S
C609 C610 1.396 . S
C609 C614 1.390 . S
C610 C604 1.465 . S
C610 C609 1.396 . S
C610 C611 1.399 . S
C611 H597 0.929 . S
C611 C610 1.399 . S
C611 C612 1.385 . S
C612 H598 0.931 . S
C612 C611 1.385 . S
C612 C613 1.389 . S
C613 C612 1.389 . S
C613 C614 1.387 . S
C614 H599 0.930 . S
C614 C609 1.390 . S
C614 C613 1.387 . S
H615 C627 0.930 . S
H616 C629 0.930 . S
H617 C630 0.930 . S
H618 C634 0.959 . S
H619 C634 0.959 . S
H620 C634 0.961 . S
H621 C635 0.960 . S
H622 C635 0.961 . S
H623 C635 0.959 . S
H624 C638 0.929 . S
H625 C639 0.931 . S
H626 C641 0.930 . S
C627 H615 0.930 . S
C627 C628 1.399 . S
C627 C632 1.399 . S
C628 C627 1.399 . S
C628 C629 1.376 . S
C629 H616 0.930 . S
C629 C628 1.376 . S
C629 C630 1.388 . S
C630 H617 0.930 . S
C630 C629 1.388 . S
C630 C631 1.390 . S
C631 C630 1.390 . S
C631 C632 1.394 . S
C631 C637 1.465 . S
C632 C627 1.399 . S
C632 C631 1.394 . S
C632 C633 1.516 . S
C633 C632 1.516 . S
C633 C634 1.502 . S
C633 C635 1.561 . S
C633 C636 1.526 . S
C634 H618 0.959 . S
C634 H619 0.959 . S
C634 H620 0.961 . S
C634 C633 1.502 . S
C635 H621 0.960 . S
C635 H622 0.961 . S
C635 H623 0.959 . S
C635 C633 1.561 . S
C636 C633 1.526 . S
C636 C637 1.396 . S
C636 C641 1.390 . S
C637 C631 1.465 . S
C637 C636 1.396 . S
C637 C638 1.399 . S
C638 H624 0.929 . S
C638 C637 1.399 . S
C638 C639 1.385 . S
C639 H625 0.931 . S
C639 C638 1.385 . S
C639 C640 1.389 . S
C640 C639 1.389 . S
C640 C641 1.387 . S
C641 H626 0.930 . S
C641 C636 1.390 . S
C641 C640 1.387 . S
H642 C654 0.930 . S
H643 C656 0.930 . S
H644 C657 0.930 . S
H645 C661 0.959 . S
H646 C661 0.959 . S
H647 C661 0.961 . S
H648 C662 0.960 . S
H649 C662 0.961 . S
H650 C662 0.959 . S
H651 C665 0.929 . S
H652 C666 0.931 . S
H653 C668 0.930 . S
C654 H642 0.930 . S
C654 C655 1.399 . S
C654 C659 1.399 . S
C655 C654 1.399 . S
C655 C656 1.376 . S
C656 H643 0.930 . S
C656 C655 1.376 . S
C656 C657 1.388 . S
C657 H644 0.930 . S
C657 C656 1.388 . S
C657 C658 1.390 . S
C658 C657 1.390 . S
C658 C659 1.394 . S
C658 C664 1.465 . S
C659 C654 1.399 . S
C659 C658 1.394 . S
C659 C660 1.516 . S
C660 C659 1.516 . S
C660 C661 1.502 . S
C660 C662 1.561 . S
C660 C663 1.526 . S
C661 H645 0.959 . S
C661 H646 0.959 . S
C661 H647 0.961 . S
C661 C660 1.502 . S
C662 H648 0.960 . S
C662 H649 0.961 . S
C662 H650 0.959 . S
C662 C660 1.561 . S
C663 C660 1.526 . S
C663 C664 1.396 . S
C663 C668 1.390 . S
C664 C658 1.465 . S
C664 C663 1.396 . S
C664 C665 1.399 . S
C665 H651 0.929 . S
C665 C664 1.399 . S
C665 C666 1.385 . S
C666 H652 0.931 . S
C666 C665 1.385 . S
C666 C667 1.389 . S
C667 C666 1.389 . S
C667 C668 1.387 . S
C668 H653 0.930 . S
C668 C663 1.390 . S
C668 C667 1.387 . S
H669 C681 0.930 . S
H670 C683 0.930 . S
H671 C684 0.930 . S
H672 C688 0.959 . S
H673 C688 0.959 . S
H674 C688 0.961 . S
H675 C689 0.960 . S
H676 C689 0.961 . S
H677 C689 0.959 . S
H678 C692 0.929 . S
H679 C693 0.931 . S
H680 C695 0.930 . S
C681 H669 0.930 . S
C681 C682 1.399 . S
C681 C686 1.399 . S
C682 C681 1.399 . S
C682 C683 1.376 . S
C683 H670 0.930 . S
C683 C682 1.376 . S
C683 C684 1.388 . S
C684 H671 0.930 . S
C684 C683 1.388 . S
C684 C685 1.390 . S
C685 C684 1.390 . S
C685 C686 1.394 . S
C685 C691 1.465 . S
C686 C681 1.399 . S
C686 C685 1.394 . S
C686 C687 1.516 . S
C687 C686 1.516 . S
C687 C688 1.502 . S
C687 C689 1.561 . S
C687 C690 1.526 . S
C688 H672 0.959 . S
C688 H673 0.959 . S
C688 H674 0.961 . S
C688 C687 1.502 . S
C689 H675 0.960 . S
C689 H676 0.961 . S
C689 H677 0.959 . S
C689 C687 1.561 . S
C690 C687 1.526 . S
C690 C691 1.396 . S
C690 C695 1.390 . S
C691 C685 1.465 . S
C691 C690 1.396 . S
C691 C692 1.399 . S
C692 H678 0.929 . S
C692 C691 1.399 . S
C692 C693 1.385 . S
C693 H679 0.931 . S
C693 C692 1.385 . S
C693 C694 1.389 . S
C694 C693 1.389 . S
C694 C695 1.387 . S
C695 H680 0.930 . S
C695 C690 1.390 . S
C695 C694 1.387 . S
H696 C708 0.930 . S
H697 C710 0.930 . S
H698 C711 0.930 . S
H699 C715 0.959 . S
H700 C715 0.959 . S
H701 C715 0.961 . S
H702 C716 0.960 . S
H703 C716 0.961 . S
H704 C716 0.959 . S
H705 C719 0.929 . S
H706 C720 0.931 . S
H707 C722 0.930 . S
C708 H696 0.930 . S
C708 C709 1.399 . S
C708 C713 1.399 . S
C709 C708 1.399 . S
C709 C710 1.376 . S
C710 H697 0.930 . S
C710 C709 1.376 . S
C710 C711 1.388 . S
C711 H698 0.930 . S
C711 C710 1.388 . S
C711 C712 1.390 . S
C712 C711 1.390 . S
C712 C713 1.394 . S
C712 C718 1.465 . S
C713 C708 1.399 . S
C713 C712 1.394 . S
C713 C714 1.516 . S
C714 C713 1.516 . S
C714 C715 1.502 . S
C714 C716 1.561 . S
C714 C717 1.526 . S
C715 H699 0.959 . S
C715 H700 0.959 . S
C715 H701 0.961 . S
C715 C714 1.502 . S
C716 H702 0.960 . S
C716 H703 0.961 . S
C716 H704 0.959 . S
C716 C714 1.561 . S
C717 C714 1.526 . S
C717 C718 1.396 . S
C717 C722 1.390 . S
C718 C712 1.465 . S
C718 C717 1.396 . S
C718 C719 1.399 1_556 S
C719 H705 0.929 . S
C719 C718 1.399 1_554 S
C719 C720 1.385 . S
C720 H706 0.931 . S
C720 C719 1.385 . S
C720 C721 1.389 1_554 S
C721 C720 1.389 1_556 S
C721 C722 1.387 . S
C722 H707 0.930 . S
C722 C717 1.390 . S
C722 C721 1.387 . S
H723 C735 0.930 . S
H724 C737 0.930 . S
H725 C738 0.930 . S
H726 C742 0.959 . S
H727 C742 0.959 . S
H728 C742 0.961 . S
H729 C743 0.963 . S
H730 C743 0.955 1_455 S
H731 C743 0.955 1_455 S
H732 C746 0.929 . S
H733 C747 0.931 . S
H734 C749 0.930 . S
C735 H723 0.930 . S
C735 C736 1.399 . S
C735 C740 1.399 . S
C736 C735 1.399 . S
C736 C737 1.376 . S
C737 H724 0.930 . S
C737 C736 1.376 . S
C737 C738 1.388 . S
C738 H725 0.930 . S
C738 C737 1.388 . S
C738 C739 1.390 . S
C739 C738 1.390 . S
C739 C740 1.394 . S
C739 C745 1.465 . S
C740 C735 1.399 . S
C740 C739 1.394 . S
C740 C741 1.516 . S
C741 C740 1.516 . S
C741 C742 1.502 . S
C741 C743 1.568 . S
C741 C744 1.526 . S
C742 H726 0.959 . S
C742 H727 0.959 . S
C742 H728 0.961 . S
C742 C741 1.502 . S
C743 H729 0.963 . S
C743 H730 0.955 1_655 S
C743 H731 0.955 1_655 S
C743 C741 1.568 . S
C744 C741 1.526 . S
C744 C745 1.396 . S
C744 C749 1.390 . S
C745 C739 1.465 . S
C745 C744 1.396 . S
C745 C746 1.399 . S
C746 H732 0.929 . S
C746 C745 1.399 . S
C746 C747 1.385 . S
C747 H733 0.931 . S
C747 C746 1.385 . S
C747 C748 1.389 . S
C748 C747 1.389 . S
C748 C749 1.387 . S
C749 H734 0.930 . S
C749 C744 1.390 . S
C749 C748 1.387 . S
H750 C762 0.930 . S
H751 C764 0.930 . S
H752 C765 0.930 . S
H753 C769 0.959 . S
H754 C769 0.959 . S
H755 C769 0.961 . S
H756 C770 0.960 . S
H757 C770 0.961 . S
H758 C770 0.959 . S
H759 C773 0.929 . S
H760 C774 0.931 . S
H761 C776 0.930 . S
C762 H750 0.930 . S
C762 C763 1.399 . S
C762 C767 1.399 . S
C763 C762 1.399 . S
C763 C764 1.376 . S
C764 H751 0.930 . S
C764 C763 1.376 . S
C764 C765 1.388 . S
C765 H752 0.930 . S
C765 C764 1.388 . S
C765 C766 1.390 . S
C766 C765 1.390 . S
C766 C767 1.394 . S
C766 C772 1.465 . S
C767 C762 1.399 . S
C767 C766 1.394 . S
C767 C768 1.516 . S
C768 C767 1.516 . S
C768 C769 1.502 . S
C768 C770 1.561 . S
C768 C771 1.526 . S
C769 H753 0.959 . S
C769 H754 0.959 . S
C769 H755 0.961 . S
C769 C768 1.502 . S
C770 H756 0.960 . S
C770 H757 0.961 . S
C770 H758 0.959 . S
C770 C768 1.561 . S
C771 C768 1.526 . S
C771 C772 1.396 . S
C771 C776 1.390 . S
C772 C766 1.465 . S
C772 C771 1.396 . S
C772 C773 1.399 . S
C773 H759 0.929 . S
C773 C772 1.399 . S
C773 C774 1.385 . S
C774 H760 0.931 . S
C774 C773 1.385 . S
C774 C775 1.389 . S
C775 C774 1.389 . S
C775 C776 1.387 . S
C776 H761 0.930 . S
C776 C771 1.390 . S
C776 C775 1.387 . S
H777 C789 0.930 . S
H778 C791 0.930 . S
H779 C792 0.930 . S
H780 C796 0.959 . S
H781 C796 0.959 . S
H782 C796 0.961 . S
H783 C797 0.960 . S
H784 C797 0.961 . S
H785 C797 0.959 . S
H786 C800 0.929 . S
H787 C801 0.931 . S
H788 C803 0.930 . S
C789 H777 0.930 . S
C789 C790 1.399 . S
C789 C794 1.399 . S
C790 C789 1.399 . S
C790 C791 1.376 . S
C791 H778 0.930 . S
C791 C790 1.376 . S
C791 C792 1.388 . S
C792 H779 0.930 . S
C792 C791 1.388 . S
C792 C793 1.390 . S
C793 C792 1.390 . S
C793 C794 1.394 . S
C793 C799 1.465 . S
C794 C789 1.399 . S
C794 C793 1.394 . S
C794 C795 1.516 . S
C795 C794 1.516 . S
C795 C796 1.502 . S
C795 C797 1.561 . S
C795 C798 1.526 . S
C796 H780 0.959 . S
C796 H781 0.959 . S
C796 H782 0.961 . S
C796 C795 1.502 . S
C797 H783 0.960 . S
C797 H784 0.961 . S
C797 H785 0.959 . S
C797 C795 1.561 . S
C798 C795 1.526 . S
C798 C799 1.396 . S
C798 C803 1.390 . S
C799 C793 1.465 . S
C799 C798 1.396 . S
C799 C800 1.399 . S
C800 H786 0.929 . S
C800 C799 1.399 . S
C800 C801 1.385 . S
C801 H787 0.931 . S
C801 C800 1.385 . S
C801 C802 1.389 . S
C802 C801 1.389 . S
C802 C803 1.387 . S
C803 H788 0.930 . S
C803 C798 1.390 . S
C803 C802 1.387 . S
H804 C816 0.930 . S
H805 C818 0.930 . S
H806 C819 0.930 . S
H807 C823 0.959 . S
H808 C823 0.959 . S
H809 C823 0.961 . S
H810 C824 0.960 . S
H811 C824 0.961 . S
H812 C824 0.959 . S
H813 C827 0.929 . S
H814 C828 0.931 . S
H815 C830 0.930 . S
C816 H804 0.930 . S
C816 C817 1.399 . S
C816 C821 1.399 . S
C817 C816 1.399 . S
C817 C818 1.376 . S
C818 H805 0.930 . S
C818 C817 1.376 . S
C818 C819 1.388 . S
C819 H806 0.930 . S
C819 C818 1.388 . S
C819 C820 1.390 . S
C820 C819 1.390 . S
C820 C821 1.394 . S
C820 C826 1.465 . S
C821 C816 1.399 . S
C821 C820 1.394 . S
C821 C822 1.516 . S
C822 C821 1.516 . S
C822 C823 1.502 . S
C822 C824 1.561 . S
C822 C825 1.526 . S
C823 H807 0.959 . S
C823 H808 0.959 . S
C823 H809 0.961 . S
C823 C822 1.502 . S
C824 H810 0.960 . S
C824 H811 0.961 . S
C824 H812 0.959 . S
C824 C822 1.561 . S
C825 C822 1.526 . S
C825 C826 1.396 . S
C825 C830 1.390 . S
C826 C820 1.465 . S
C826 C825 1.396 . S
C826 C827 1.399 . S
C827 H813 0.929 . S
C827 C826 1.399 . S
C827 C828 1.385 . S
C828 H814 0.931 . S
C828 C827 1.385 . S
C828 C829 1.389 . S
C829 C828 1.389 . S
C829 C830 1.387 . S
C830 H815 0.930 . S
C830 C825 1.390 . S
C830 C829 1.387 . S
H831 C843 0.930 . S
H832 C845 0.930 . S
H833 C846 0.930 . S
H834 C850 0.959 . S
H835 C850 0.959 . S
H836 C850 0.961 . S
H837 C851 0.960 . S
H838 C851 0.961 . S
H839 C851 0.959 . S
H840 C854 0.929 . S
H841 C855 0.931 . S
H842 C857 0.930 . S
C843 H831 0.930 . S
C843 C844 1.399 . S
C843 C848 1.399 . S
C844 C843 1.399 . S
C844 C845 1.376 . S
C845 H832 0.930 . S
C845 C844 1.376 . S
C845 C846 1.388 . S
C846 H833 0.930 . S
C846 C845 1.388 . S
C846 C847 1.390 . S
C847 C846 1.390 . S
C847 C848 1.394 . S
C847 C853 1.465 . S
C848 C843 1.399 . S
C848 C847 1.394 . S
C848 C849 1.516 . S
C849 C848 1.516 . S
C849 C850 1.502 . S
C849 C851 1.561 . S
C849 C852 1.526 . S
C850 H834 0.959 . S
C850 H835 0.959 . S
C850 H836 0.961 . S
C850 C849 1.502 . S
C851 H837 0.960 . S
C851 H838 0.961 . S
C851 H839 0.959 . S
C851 C849 1.561 . S
C852 C849 1.526 . S
C852 C853 1.396 . S
C852 C857 1.390 . S
C853 C847 1.465 . S
C853 C852 1.396 . S
C853 C854 1.399 . S
C854 H840 0.929 . S
C854 C853 1.399 . S
C854 C855 1.385 . S
C855 H841 0.931 . S
C855 C854 1.385 . S
C855 C856 1.389 . S
C856 C855 1.389 . S
C856 C857 1.387 . S
C857 H842 0.930 . S
C857 C852 1.390 . S
C857 C856 1.387 . S
H858 C870 0.930 . S
H859 C872 0.930 . S
H860 C873 0.930 . S
H861 C877 0.959 . S
H862 C877 0.959 . S
H863 C877 0.961 . S
H864 C878 0.960 . S
H865 C878 0.961 . S
H866 C878 0.959 . S
H867 C881 0.929 . S
H868 C882 0.931 . S
H869 C884 0.930 . S
C870 H858 0.930 . S
C870 C871 1.399 . S
C870 C875 1.399 . S
C871 C870 1.399 . S
C871 C872 1.376 . S
C872 H859 0.930 . S
C872 C871 1.376 . S
C872 C873 1.388 . S
C873 H860 0.930 . S
C873 C872 1.388 . S
C873 C874 1.390 . S
C874 C873 1.390 . S
C874 C875 1.394 . S
C874 C880 1.465 . S
C875 C870 1.399 . S
C875 C874 1.394 . S
C875 C876 1.516 . S
C876 C875 1.516 . S
C876 C877 1.502 . S
C876 C878 1.561 . S
C876 C879 1.526 . S
C877 H861 0.959 . S
C877 H862 0.959 . S
C877 H863 0.961 . S
C877 C876 1.502 . S
C878 H864 0.960 . S
C878 H865 0.961 . S
C878 H866 0.959 . S
C878 C876 1.561 . S
C879 C876 1.526 . S
C879 C880 1.396 . S
C879 C884 1.390 . S
C880 C874 1.465 . S
C880 C879 1.396 . S
C880 C881 1.399 . S
C881 H867 0.929 . S
C881 C880 1.399 . S
C881 C882 1.385 . S
C882 H868 0.931 . S
C882 C881 1.385 . S
C882 C883 1.389 . S
C883 C882 1.389 . S
C883 C884 1.387 . S
C884 H869 0.930 . S
C884 C879 1.390 . S
C884 C883 1.387 . S
H885 C897 0.930 . S
H886 C899 0.930 . S
H887 C900 0.930 . S
H888 C904 0.959 . S
H889 C904 0.959 . S
H890 C904 0.961 . S
H891 C905 0.960 . S
H892 C905 0.961 . S
H893 C905 0.959 . S
H894 C908 0.929 . S
H895 C909 0.931 . S
H896 C911 0.930 . S
C897 H885 0.930 . S
C897 C898 1.399 . S
C897 C902 1.399 . S
C898 C897 1.399 . S
C898 C899 1.376 . S
C899 H886 0.930 . S
C899 C898 1.376 . S
C899 C900 1.388 . S
C900 H887 0.930 . S
C900 C899 1.388 . S
C900 C901 1.390 . S
C901 C900 1.390 . S
C901 C902 1.394 . S
C901 C907 1.465 . S
C902 C897 1.399 . S
C902 C901 1.394 . S
C902 C903 1.516 . S
C903 C902 1.516 . S
C903 C904 1.502 . S
C903 C905 1.561 . S
C903 C906 1.526 . S
C904 H888 0.959 . S
C904 H889 0.959 . S
C904 H890 0.961 . S
C904 C903 1.502 . S
C905 H891 0.960 . S
C905 H892 0.961 . S
C905 H893 0.959 . S
C905 C903 1.561 . S
C906 C903 1.526 . S
C906 C907 1.396 . S
C906 C911 1.390 . S
C907 C901 1.465 . S
C907 C906 1.396 . S
C907 C908 1.399 . S
C908 H894 0.929 . S
C908 C907 1.399 . S
C908 C909 1.385 . S
C909 H895 0.931 . S
C909 C908 1.385 . S
C909 C910 1.389 . S
C910 C909 1.389 . S
C910 C911 1.387 . S
C911 H896 0.930 . S
C911 C906 1.390 . S
C911 C910 1.387 . S
C277 N1 0.916 . S
C289 C121 0.936 . S
C304 N18 1.058 . S
C316 C161 1.146 . S
C343 C186 2.012 . S
C331 N28 2.043 . S
C358 N40 2.661 . S
C370 C226 2.674 . S
C397 C157 1.887 . S
C385 N5 1.829 . S
C424 C117 1.485 . S
C412 N14 1.415 . S
C451 C248 1.767 . S
C439 N31 1.781 . S
C478 C208 1.464 . S
C466 N41 1.517 . S
C493 N2 1.065 . S
C505 C250 1.146 . S
C532 C167 2.359 1_556 S
C520 N27 2.388 . S
C547 N44 2.347 . S
C559 C127 2.348 1_655 S
C574 N15 1.050 . S
C586 C210 0.978 . S
C613 C130 1.471 . S
C601 N57 1.443 . S
C628 N70 0.830 . S
C640 C170 0.958 . S
C655 N79 2.261 . S
C667 C207 2.283 . S
C682 N93 2.403 . S
C694 C247 2.367 . S
C709 N54 1.491 . S
C721 C168 1.559 1_556 S
C748 C128 2.103 1_655 S
C736 N66 2.080 . S
C775 C237 1.239 . S
C763 N80 1.315 . S
C802 C197 1.710 . S
C790 N96 1.746 . S
C817 N53 1.304 . S
C829 C241 1.308 . S
C856 C146 1.884 . S
C844 N83 1.874 . S
C883 C106 2.396 . S
C871 N92 2.457 . S
C898 N67 1.288 . S
C910 C201 1.247 . S
