# Generated by pormake.
# Topology pto, (3,4)-cn, num edge types: 1
# Building blocks:
#     Node 0, Type 0, BuildingBlock: KAKCAD_clean_linker_0, # of connection points: 3
#     Node 1, Type 0, BuildingBlock: KAKCAD_clean_linker_0, # of connection points: 3
#     Node 2, Type 0, BuildingBlock: KAKCAD_clean_linker_0, # of connection points: 3
#     Node 3, Type 0, BuildingBlock: KAKCAD_clean_linker_0, # of connection points: 3
#     Node 4, Type 0, BuildingBlock: KAKCAD_clean_linker_0, # of connection points: 3
#     Node 5, Type 0, BuildingBlock: KAKCAD_clean_linker_0, # of connection points: 3
#     Node 6, Type 0, BuildingBlock: KAKCAD_clean_linker_0, # of connection points: 3
#     Node 7, Type 0, BuildingBlock: KAKCAD_clean_linker_0, # of connection points: 3
#     Node 8, Type 1, BuildingBlock: NAWXER_clean_sbu_0, # of connection points: 4
#     Node 9, Type 1, BuildingBlock: NAWXER_clean_sbu_0, # of connection points: 4
#     Node 10, Type 1, BuildingBlock: NAWXER_clean_sbu_0, # of connection points: 4
#     Node 11, Type 1, BuildingBlock: NAWXER_clean_sbu_0, # of connection points: 4
#     Node 12, Type 1, BuildingBlock: NAWXER_clean_sbu_0, # of connection points: 4
#     Node 13, Type 1, BuildingBlock: NAWXER_clean_sbu_0, # of connection points: 4
#     Edge 14, Type (0, 1), BuildingBlock: EZIPEK_clean_linker_0, # of connection points: 2
#     Edge 15, Type (0, 1), BuildingBlock: EZIPEK_clean_linker_0, # of connection points: 2
#     Edge 16, Type (0, 1), BuildingBlock: EZIPEK_clean_linker_0, # of connection points: 2
#     Edge 17, Type (0, 1), BuildingBlock: EZIPEK_clean_linker_0, # of connection points: 2
#     Edge 18, Type (0, 1), BuildingBlock: EZIPEK_clean_linker_0, # of connection points: 2
#     Edge 19, Type (0, 1), BuildingBlock: EZIPEK_clean_linker_0, # of connection points: 2
#     Edge 20, Type (0, 1), BuildingBlock: EZIPEK_clean_linker_0, # of connection points: 2
#     Edge 21, Type (0, 1), BuildingBlock: EZIPEK_clean_linker_0, # of connection points: 2
#     Edge 22, Type (0, 1), BuildingBlock: EZIPEK_clean_linker_0, # of connection points: 2
#     Edge 23, Type (0, 1), BuildingBlock: EZIPEK_clean_linker_0, # of connection points: 2
#     Edge 24, Type (0, 1), BuildingBlock: EZIPEK_clean_linker_0, # of connection points: 2
#     Edge 25, Type (0, 1), BuildingBlock: EZIPEK_clean_linker_0, # of connection points: 2
#     Edge 26, Type (0, 1), BuildingBlock: EZIPEK_clean_linker_0, # of connection points: 2
#     Edge 27, Type (0, 1), BuildingBlock: EZIPEK_clean_linker_0, # of connection points: 2
#     Edge 28, Type (0, 1), BuildingBlock: EZIPEK_clean_linker_0, # of connection points: 2
#     Edge 29, Type (0, 1), BuildingBlock: EZIPEK_clean_linker_0, # of connection points: 2
#     Edge 30, Type (0, 1), BuildingBlock: EZIPEK_clean_linker_0, # of connection points: 2
#     Edge 31, Type (0, 1), BuildingBlock: EZIPEK_clean_linker_0, # of connection points: 2
#     Edge 32, Type (0, 1), BuildingBlock: EZIPEK_clean_linker_0, # of connection points: 2
#     Edge 33, Type (0, 1), BuildingBlock: EZIPEK_clean_linker_0, # of connection points: 2
#     Edge 34, Type (0, 1), BuildingBlock: EZIPEK_clean_linker_0, # of connection points: 2
#     Edge 35, Type (0, 1), BuildingBlock: EZIPEK_clean_linker_0, # of connection points: 2
#     Edge 36, Type (0, 1), BuildingBlock: EZIPEK_clean_linker_0, # of connection points: 2
#     Edge 37, Type (0, 1), BuildingBlock: EZIPEK_clean_linker_0, # of connection points: 2
# Relax obj value: 0.000
# Max RMSD: 0.003
# Mean RMSD: 0.002
data_MOF--net-pto--node1-NAWXER_clean_sbu_0--node2-KAKCAD_clean_linker_0--edge1-EZIPEK_clean_linker_0
_symmetry_space_group_name_H-M    P1
_symmetry_Int_Tables_number       1
_symmetry_cell_setting            triclinic
loop_
_symmetry_equiv_pos_as_xyz
'x, y, z'
_cell_length_a     41.554643
_cell_length_b     39.128895
_cell_length_c     36.559405
_cell_angle_alpha  90.381882
_cell_angle_beta   90.585395
_cell_angle_gamma 90.39596
loop_
_atom_site_label
_atom_site_type_symbol
_atom_site_fract_x
_atom_site_fract_y
_atom_site_fract_z
_atom_type_partial_charge
C0 C 0.30859 0.19451 0.37229 0.0
C1 C 0.28204 0.17742 0.38707 0.0
C2 C 0.30424 0.21798 0.34401 0.0
C3 C 0.2733 0.2243 0.32944 0.0
C4 C 0.24661 0.20857 0.34585 0.0
C5 C 0.25096 0.18544 0.37446 0.0
C6 C 0.2693 0.24406 0.29494 0.0
C7 C 0.2917 0.23988 0.26679 0.0
C8 C 0.28766 0.25622 0.23319 0.0
C9 C 0.26072 0.27685 0.22727 0.0
C10 C 0.23824 0.28241 0.25525 0.0
C11 C 0.24271 0.26565 0.28904 0.0
C12 C 0.21083 0.3064 0.24928 0.0
C13 C 0.21503 0.33609 0.22816 0.0
C14 C 0.18043 0.30022 0.26474 0.0
C15 C 0.1552 0.32338 0.25975 0.0
C16 C 0.15973 0.35299 0.23889 0.0
C17 C 0.31233 0.25229 0.20469 0.0
C18 C 0.34453 0.26078 0.21269 0.0
C19 C 0.30405 0.23987 0.16969 0.0
C20 C 0.32775 0.2359 0.14311 0.0
C21 C 0.35983 0.24515 0.15095 0.0
C22 C 0.36804 0.25753 0.18594 0.0
C23 C 0.18972 0.35891 0.22278 0.0
H24 H 0.33274 0.18865 0.38163 0.0
H25 H 0.3253 0.23022 0.33263 0.0
H26 H 0.22251 0.21255 0.33526 0.0
H27 H 0.23017 0.17235 0.38545 0.0
H28 H 0.31204 0.223 0.27045 0.0
H29 H 0.22595 0.26995 0.31106 0.0
H30 H 0.25764 0.28891 0.20089 0.0
H31 H 0.23813 0.34227 0.21639 0.0
H32 H 0.17604 0.27746 0.28066 0.0
H33 H 0.13222 0.31841 0.27248 0.0
H34 H 0.35138 0.27047 0.23952 0.0
H35 H 0.27937 0.23295 0.1631 0.0
H36 H 0.19378 0.38175 0.20684 0.0
H37 H 0.39264 0.26485 0.19244 0.0
H38 H 0.32103 0.22623 0.11625 0.0
C39 C 0.36213 0.73193 0.84743 0.0
C40 C 0.37135 0.69792 0.85258 0.0
C41 C 0.33702 0.7397 0.82337 0.0
C42 C 0.32065 0.71352 0.80417 0.0
C43 C 0.3304 0.67945 0.80893 0.0
C44 C 0.35567 0.6717 0.83295 0.0
C45 C 0.29248 0.7218 0.78074 0.0
C46 C 0.29326 0.75022 0.75757 0.0
C47 C 0.26593 0.75975 0.73722 0.0
C48 C 0.23744 0.74024 0.74025 0.0
C49 C 0.2365 0.71144 0.76312 0.0
C50 C 0.26414 0.70236 0.78301 0.0
C51 C 0.20665 0.69103 0.76761 0.0
C52 C 0.178 0.70662 0.77881 0.0
C53 C 0.20737 0.65533 0.76329 0.0
C54 C 0.17993 0.63556 0.76988 0.0
C55 C 0.15141 0.65105 0.78148 0.0
C56 C 0.26752 0.79035 0.71334 0.0
C57 C 0.2827 0.82052 0.72603 0.0
C58 C 0.25497 0.7894 0.67746 0.0
C59 C 0.2578 0.81792 0.65472 0.0
C60 C 0.27302 0.84786 0.6676 0.0
C61 C 0.28535 0.84901 0.7034 0.0
C62 C 0.15067 0.68674 0.78608 0.0
H63 H 0.374 0.75238 0.86259 0.0
H64 H 0.32978 0.76611 0.82067 0.0
H65 H 0.31836 0.65882 0.79425 0.0
H66 H 0.3626 0.64532 0.83676 0.0
H67 H 0.3154 0.76482 0.75514 0.0
H68 H 0.26311 0.68084 0.80151 0.0
H69 H 0.21603 0.74752 0.72511 0.0
H70 H 0.17702 0.73405 0.78282 0.0
H71 H 0.22921 0.64273 0.75479 0.0
H72 H 0.18095 0.60811 0.76599 0.0
H73 H 0.29227 0.82221 0.75365 0.0
H74 H 0.24342 0.76646 0.66682 0.0
H75 H 0.12886 0.69915 0.79499 0.0
H76 H 0.2968 0.87208 0.71388 0.0
H77 H 0.24791 0.81678 0.62721 0.0
C78 C 0.67697 0.68292 0.17113 0.0
C79 C 0.66272 0.71047 0.15297 0.0
C80 C 0.70318 0.68858 0.1947 0.0
C81 C 0.71521 0.72189 0.20055 0.0
C82 C 0.70096 0.7493 0.18195 0.0
C83 C 0.67494 0.74361 0.15833 0.0
C84 C 0.74242 0.72826 0.22613 0.0
C85 C 0.76977 0.70764 0.2251 0.0
C86 C 0.79616 0.71435 0.24832 0.0
C87 C 0.79501 0.74204 0.27309 0.0
C88 C 0.76714 0.76227 0.27525 0.0
C89 C 0.7412 0.75532 0.25137 0.0
C90 C 0.76429 0.7905 0.3024 0.0
C91 C 0.73575 0.79416 0.32245 0.0
C92 C 0.78892 0.81501 0.30698 0.0
C93 C 0.78465 0.84312 0.33034 0.0
C94 C 0.75584 0.84691 0.34964 0.0
C95 C 0.82449 0.69176 0.2463 0.0
C96 C 0.82044 0.65623 0.24959 0.0
C97 C 0.85507 0.70506 0.23835 0.0
C98 C 0.88109 0.68305 0.23314 0.0
C99 C 0.87696 0.64752 0.23655 0.0
C100 C 0.84649 0.63433 0.24505 0.0
C101 C 0.73159 0.82208 0.34587 0.0
H102 H 0.66757 0.65724 0.16736 0.0
H103 H 0.71361 0.66707 0.20892 0.0
H104 H 0.71003 0.77514 0.18559 0.0
H105 H 0.66407 0.7651 0.14445 0.0
H106 H 0.77093 0.68679 0.20547 0.0
H107 H 0.71986 0.77108 0.25244 0.0
H108 H 0.81521 0.74703 0.29138 0.0
H109 H 0.7165 0.77547 0.31984 0.0
H110 H 0.81104 0.81296 0.29172 0.0
H111 H 0.80367 0.86205 0.33317 0.0
H112 H 0.79702 0.64543 0.25562 0.0
H113 H 0.85862 0.73234 0.23526 0.0
H114 H 0.70934 0.8245 0.36083 0.0
H115 H 0.84289 0.60705 0.24806 0.0
H116 H 0.90448 0.69367 0.22669 0.0
C117 C 0.77615 0.18561 0.64539 0.0
C118 C 0.74599 0.17765 0.62975 0.0
C119 C 0.77888 0.21013 0.67326 0.0
C120 C 0.75147 0.22734 0.68582 0.0
C121 C 0.72162 0.2207 0.66842 0.0
C122 C 0.71885 0.19585 0.64092 0.0
C123 C 0.75337 0.24984 0.71884 0.0
C124 C 0.78016 0.27131 0.72577 0.0
C125 C 0.78176 0.29171 0.75762 0.0
C126 C 0.75655 0.29021 0.78283 0.0
C127 C 0.72991 0.26873 0.77645 0.0
C128 C 0.72848 0.24877 0.74455 0.0
C129 C 0.70355 0.2667 0.80319 0.0
C130 C 0.7103 0.26063 0.84028 0.0
C131 C 0.67141 0.27024 0.79157 0.0
C132 C 0.64645 0.26837 0.81677 0.0
C133 C 0.65324 0.26237 0.85381 0.0
C134 C 0.80946 0.31504 0.76452 0.0
C135 C 0.84115 0.30285 0.76322 0.0
C136 C 0.80428 0.34972 0.77262 0.0
C137 C 0.83031 0.37203 0.77827 0.0
C138 C 0.86199 0.35993 0.77657 0.0
C139 C 0.86719 0.32504 0.7696 0.0
C140 C 0.68529 0.2582 0.86537 0.0
H141 H 0.79735 0.17166 0.63718 0.0
H142 H 0.80216 0.21431 0.68615 0.0
H143 H 0.70013 0.23403 0.67677 0.0
H144 H 0.6954 0.19005 0.62916 0.0
H145 H 0.79942 0.27279 0.70607 0.0
H146 H 0.70826 0.23146 0.74046 0.0
H147 H 0.75766 0.30577 0.80748 0.0
H148 H 0.73488 0.25747 0.84975 0.0
H149 H 0.66568 0.27504 0.7631 0.0
H150 H 0.62187 0.27193 0.80748 0.0
H151 H 0.84573 0.27615 0.75739 0.0
H152 H 0.78006 0.35974 0.77369 0.0
H153 H 0.69092 0.25366 0.89392 0.0
H154 H 0.89146 0.31522 0.76814 0.0
H155 H 0.82579 0.39887 0.78336 0.0
C156 C 0.7695 0.82828 0.64058 0.0
C157 C 0.77293 0.86216 0.65283 0.0
C158 C 0.76451 0.802 0.66557 0.0
C159 C 0.7624 0.80926 0.70317 0.0
C160 C 0.76557 0.84322 0.7154 0.0
C161 C 0.77107 0.86947 0.69042 0.0
C162 C 0.75876 0.78112 0.72965 0.0
C163 C 0.77993 0.75355 0.72831 0.0
C164 C 0.77805 0.72695 0.75373 0.0
C165 C 0.75348 0.72751 0.78 0.0
C166 C 0.73165 0.75495 0.78153 0.0
C167 C 0.7348 0.78187 0.75639 0.0
C168 C 0.70552 0.75568 0.80919 0.0
C169 C 0.6877 0.72595 0.81705 0.0
C170 C 0.69761 0.78637 0.82725 0.0
C171 C 0.67233 0.78736 0.85223 0.0
C172 C 0.65446 0.75773 0.85962 0.0
C173 C 0.80271 0.69958 0.75304 0.0
C174 C 0.83514 0.70817 0.74675 0.0
C175 C 0.79429 0.66497 0.75744 0.0
C176 C 0.8178 0.63954 0.75507 0.0
C177 C 0.84997 0.64841 0.7482 0.0
C178 C 0.85843 0.68287 0.74418 0.0
C179 C 0.66236 0.727 0.84199 0.0
H180 H 0.77058 0.82224 0.61166 0.0
H181 H 0.7621 0.77599 0.65553 0.0
H182 H 0.7644 0.84934 0.7443 0.0
H183 H 0.77354 0.89553 0.70029 0.0
H184 H 0.79837 0.75313 0.70754 0.0
H185 H 0.7181 0.80301 0.75689 0.0
H186 H 0.75203 0.70723 0.79997 0.0
H187 H 0.6929 0.70201 0.80338 0.0
H188 H 0.71109 0.80962 0.82223 0.0
H189 H 0.66664 0.81125 0.86575 0.0
H190 H 0.84261 0.7346 0.74403 0.0
H191 H 0.76952 0.65754 0.76211 0.0
H192 H 0.64878 0.70388 0.84741 0.0
H193 H 0.88323 0.69019 0.73942 0.0
H194 H 0.81098 0.61301 0.75865 0.0
C195 C 0.65041 0.28459 0.20547 0.0
C196 C 0.65386 0.30134 0.17191 0.0
C197 C 0.67682 0.28123 0.22928 0.0
C198 C 0.70719 0.29462 0.22001 0.0
C199 C 0.71024 0.31222 0.18674 0.0
C200 C 0.68386 0.31544 0.1629 0.0
C201 C 0.73581 0.28928 0.2443 0.0
C202 C 0.74103 0.25726 0.26083 0.0
C203 C 0.76851 0.25162 0.28269 0.0
C204 C 0.79038 0.27855 0.28866 0.0
C205 C 0.78565 0.31068 0.27285 0.0
C206 C 0.75846 0.31582 0.25036 0.0
C207 C 0.81006 0.33806 0.2794 0.0
C208 C 0.82337 0.34307 0.31464 0.0
C209 C 0.82243 0.35705 0.25015 0.0
C210 C 0.8486 0.37927 0.25574 0.0
C211 C 0.86267 0.38288 0.29064 0.0
C212 C 0.77479 0.21799 0.3 0.0
C213 C 0.75031 0.20054 0.31864 0.0
C214 C 0.80617 0.20457 0.30063 0.0
C215 C 0.81328 0.17545 0.32098 0.0
C216 C 0.7891 0.15907 0.34086 0.0
C217 C 0.75745 0.17131 0.33899 0.0
C218 C 0.84949 0.36521 0.32018 0.0
H219 H 0.62748 0.27337 0.21278 0.0
H220 H 0.67351 0.26791 0.25486 0.0
H221 H 0.7333 0.32252 0.17852 0.0
H222 H 0.68705 0.32814 0.13693 0.0
H223 H 0.72428 0.23638 0.25575 0.0
H224 H 0.75462 0.34066 0.23822 0.0
H225 H 0.81147 0.2744 0.30571 0.0
H226 H 0.81407 0.32915 0.33781 0.0
H227 H 0.81287 0.35354 0.2227 0.0
H228 H 0.85855 0.39282 0.23267 0.0
H229 H 0.726 0.21034 0.31889 0.0
H230 H 0.82545 0.21713 0.28606 0.0
H231 H 0.85999 0.3679 0.3473 0.0
H232 H 0.73854 0.15891 0.3543 0.0
H233 H 0.83779 0.16623 0.32208 0.0
C234 C 0.34802 0.28851 0.85538 0.0
C235 C 0.36754 0.31791 0.85551 0.0
C236 C 0.32296 0.28473 0.82974 0.0
C237 C 0.31679 0.31039 0.80384 0.0
C238 C 0.33636 0.33994 0.80426 0.0
C239 C 0.36159 0.34358 0.82975 0.0
C240 C 0.28998 0.30637 0.77665 0.0
C241 C 0.26925 0.33389 0.76913 0.0
C242 C 0.24367 0.33014 0.7439 0.0
C243 C 0.23881 0.29852 0.72637 0.0
C244 C 0.25887 0.27068 0.7336 0.0
C245 C 0.28461 0.27483 0.75858 0.0
C246 C 0.25249 0.23756 0.71462 0.0
C247 C 0.22076 0.22493 0.71102 0.0
C248 C 0.27757 0.21945 0.698 0.0
C249 C 0.27091 0.19002 0.67724 0.0
C250 C 0.23912 0.17817 0.67287 0.0
C251 C 0.22036 0.35807 0.73713 0.0
C252 C 0.20628 0.37544 0.76661 0.0
C253 C 0.20915 0.36462 0.70137 0.0
C254 C 0.18305 0.38631 0.69545 0.0
C255 C 0.16785 0.40191 0.72517 0.0
C256 C 0.18015 0.39711 0.76066 0.0
C257 C 0.21415 0.19548 0.69036 0.0
H258 H 0.3523 0.26841 0.87504 0.0
H259 H 0.30815 0.26186 0.83049 0.0
H260 H 0.33246 0.36003 0.7845 0.0
H261 H 0.37654 0.36636 0.82935 0.0
H262 H 0.27277 0.35811 0.7832 0.0
H263 H 0.30032 0.25345 0.7641 0.0
H264 H 0.21891 0.2954 0.70721 0.0
H265 H 0.20098 0.23805 0.72394 0.0
H266 H 0.30217 0.22865 0.70006 0.0
H267 H 0.29049 0.17675 0.66407 0.0
H268 H 0.21415 0.37068 0.79443 0.0
H269 H 0.21977 0.35186 0.67809 0.0
H270 H 0.18954 0.18642 0.68762 0.0
H271 H 0.16851 0.40884 0.78391 0.0
H272 H 0.17378 0.38967 0.66792 0.0
C273 C 0.24579 0.87653 0.32743 0.0
C274 C 0.24345 0.8693 0.3649 0.0
C275 C 0.25034 0.85009 0.30209 0.0
C276 C 0.25221 0.81604 0.31383 0.0
C277 C 0.24972 0.80895 0.35137 0.0
C278 C 0.2455 0.83537 0.37668 0.0
C279 C 0.25502 0.78768 0.28699 0.0
C280 C 0.27818 0.78844 0.25925 0.0
C281 C 0.28056 0.76127 0.23388 0.0
C282 C 0.25876 0.73358 0.23641 0.0
C283 C 0.23554 0.73254 0.26411 0.0
C284 C 0.23413 0.75958 0.28935 0.0
C285 C 0.21231 0.70361 0.26677 0.0
C286 C 0.22218 0.66962 0.26135 0.0
C287 C 0.17998 0.70992 0.27553 0.0
C288 C 0.1581 0.68301 0.27894 0.0
C289 C 0.16796 0.64923 0.27335 0.0
C290 C 0.30616 0.76129 0.2054 0.0
C291 C 0.31648 0.79193 0.18898 0.0
C292 C 0.32103 0.73055 0.1949 0.0
C293 C 0.3455 0.73044 0.16898 0.0
C294 C 0.35608 0.76108 0.15325 0.0
C295 C 0.34135 0.79184 0.16337 0.0
C296 C 0.20012 0.64262 0.26452 0.0
H297 H 0.24447 0.90265 0.31794 0.0
H298 H 0.25184 0.85617 0.27329 0.0
H299 H 0.25127 0.78294 0.36116 0.0
H300 H 0.24412 0.8294 0.40552 0.0
H301 H 0.29495 0.80973 0.2583 0.0
H302 H 0.2165 0.75892 0.31099 0.0
H303 H 0.25933 0.71312 0.21634 0.0
H304 H 0.24695 0.66388 0.25494 0.0
H305 H 0.1714 0.73578 0.27922 0.0
H306 H 0.13324 0.68855 0.28522 0.0
H307 H 0.30535 0.81604 0.19582 0.0
H308 H 0.31434 0.70652 0.20732 0.0
H309 H 0.20799 0.61665 0.25974 0.0
H310 H 0.34924 0.81576 0.15158 0.0
H311 H 0.35673 0.70646 0.16172 0.0
C312 C 0.97764 0.46517 0.29261 0.0
C313 C 0.06641 0.54694 0.27834 0.0
O314 O 0.99367 0.47913 0.31862 0.0
Zn315 Zn 0.02257 0.5053 0.28808 0.0
O316 O 0.98494 0.47099 0.25928 0.0
Zn317 Zn 0.01896 0.50055 0.22934 0.0
O318 O 0.04437 0.46578 0.20458 0.0
O319 O 0.0525 0.46707 0.26447 0.0
O320 O 0.0559 0.53394 0.24834 0.0
O321 O 0.05373 0.53797 0.3084 0.0
O322 O 0.98934 0.53889 0.26324 0.0
O323 O 0.99112 0.53296 0.20338 0.0
C324 C 0.05881 0.45451 0.2329 0.0
C325 C 0.97962 0.54779 0.23146 0.0
C326 C 0.96572 0.46076 0.78259 0.0
C327 C 0.044 0.55659 0.79003 0.0
O328 O 0.98116 0.47032 0.81123 0.0
Zn329 Zn 1.00514 0.50829 0.7895 0.0
O330 O 0.97132 0.47572 0.75227 0.0
Zn331 Zn 1.00191 0.51447 0.73098 0.0
O332 O 0.03165 0.48855 0.70044 0.0
O333 O 0.04068 0.48165 0.75956 0.0
O334 O 0.03445 0.54846 0.75777 0.0
O335 O 0.03222 0.54094 0.81737 0.0
O336 O 0.96725 0.54056 0.77123 0.0
O337 O 0.97064 0.54667 0.71145 0.0
C338 C 0.04842 0.47591 0.72634 0.0
C339 C 0.95691 0.55391 0.74153 0.0
C340 C 0.2763 0.96899 0.57628 0.0
C341 C 0.28376 0.06388 0.48779 0.0
O342 O 0.24943 0.97851 0.56244 0.0
Zn343 Zn 0.23124 0.01721 0.52729 0.0
O344 O 0.30201 0.98508 0.5681 0.0
Zn345 Zn 0.28306 0.01716 0.53322 0.0
O346 O 0.25952 0.05208 0.56821 0.0
O347 O 0.20697 0.04633 0.56091 0.0
O348 O 0.30772 0.04882 0.50247 0.0
O349 O 0.25519 0.05451 0.49576 0.0
O350 O 0.2121 0.98984 0.4875 0.0
O351 O 0.26445 0.98286 0.49296 0.0
C352 C 0.23096 0.06094 0.57658 0.0
C353 C 0.2378 0.97518 0.47709 0.0
C354 C 0.55201 0.70582 0.05675 0.0
C355 C 0.4702 0.69463 0.96176 0.0
O356 O 0.53882 0.67844 0.04498 0.0
Zn357 Zn 0.50982 0.69926 0.01032 0.0
O358 O 0.54241 0.73479 0.04496 0.0
Zn359 Zn 0.50694 0.7535 0.00763 0.0
O360 O 0.47645 0.77689 0.03902 0.0
O361 O 0.47343 0.72087 0.04433 0.0
O362 O 0.47627 0.72583 0.9703 0.0
O363 O 0.48453 0.67043 0.97807 0.0
O364 O 0.54255 0.72332 0.97284 0.0
O365 O 0.53383 0.77908 0.97435 0.0
C366 C 0.46339 0.75067 0.05308 0.0
C367 C 0.54914 0.75357 0.96182 0.0
C368 C 0.7845 0.96869 0.54366 0.0
C369 C 0.79908 0.05049 0.44386 0.0
O370 O 0.75843 0.97804 0.52791 0.0
Zn371 Zn 0.74267 0.01277 0.48734 0.0
O372 O 0.81115 0.98162 0.53351 0.0
Zn373 Zn 0.79425 0.00993 0.49407 0.0
O374 O 0.77264 0.04972 0.52442 0.0
O375 O 0.71999 0.04704 0.51635 0.0
O376 O 0.82174 0.03608 0.46156 0.0
O377 O 0.7697 0.04359 0.45104 0.0
O378 O 0.72078 0.9815 0.45364 0.0
O379 O 0.77332 0.97284 0.45766 0.0
C380 C 0.74459 0.06109 0.53128 0.0
C381 C 0.74561 0.96467 0.44452 0.0
C382 C 0.55029 0.30133 0.06301 0.0
C383 C 0.46867 0.31424 0.96511 0.0
O384 O 0.54006 0.27289 0.0497 0.0
Zn385 Zn 0.50889 0.25544 0.00674 0.0
O386 O 0.53873 0.32905 0.0507 0.0
Zn387 Zn 0.50896 0.30963 0.01404 0.0
O388 O 0.47389 0.28199 0.045 0.0
O389 O 0.47862 0.22682 0.03239 0.0
O390 O 0.48126 0.33835 0.98412 0.0
O391 O 0.47717 0.28324 0.97073 0.0
O392 O 0.53959 0.23527 0.97353 0.0
O393 O 0.54133 0.29153 0.97371 0.0
C394 C 0.4647 0.25093 0.04939 0.0
C395 C 0.55155 0.26295 0.96146 0.0
C396 C 0.10514 0.3718 0.21554 0.0
C397 C 0.13383 0.37905 0.23572 0.0
C398 C 0.1156 0.4377 0.24587 0.0
C399 C 0.08517 0.42916 0.23022 0.0
N400 N 0.04928 0.38652 0.20433 0.0
N401 N 0.16357 0.41708 0.27616 0.0
C402 C 0.07947 0.39581 0.21593 0.0
C403 C 0.13832 0.41154 0.25254 0.0
N404 N 0.10272 0.3424 0.1953 0.0
N405 N 0.12325 0.47108 0.25334 0.0
H406 H 0.18039 0.39835 0.28264 0.0
H407 H 0.16599 0.43913 0.29212 0.0
H408 H 0.10778 0.49119 0.24734 0.0
H409 H 0.14616 0.47914 0.26159 0.0
H410 H 0.08379 0.33736 0.17711 0.0
H411 H 0.12105 0.32436 0.19424 0.0
H412 H 0.04287 0.36148 0.19749 0.0
H413 H 0.02989 0.4033 0.2043 0.0
C414 C 0.09506 0.63294 0.76399 0.0
C415 C 0.12212 0.6297 0.78753 0.0
C416 C 0.09743 0.57912 0.81551 0.0
C417 C 0.06924 0.58385 0.7937 0.0
N418 N 0.03849 0.62157 0.75466 0.0
N419 N 0.14543 0.60529 0.84196 0.0
C420 C 0.06719 0.61285 0.77044 0.0
C421 C 0.12206 0.60463 0.81542 0.0
N422 N 0.09644 0.65372 0.73411 0.0
N423 N 0.10209 0.54939 0.83416 0.0
H424 H 0.16363 0.6238 0.84287 0.0
H425 H 0.14482 0.58969 0.86494 0.0
H426 H 0.0857 0.52917 0.83398 0.0
H427 H 0.12381 0.54339 0.84701 0.0
H428 H 0.07867 0.65392 0.7138 0.0
H429 H 0.11666 0.66828 0.72757 0.0
H430 H 0.03505 0.64439 0.74065 0.0
H431 H 0.01733 0.60787 0.75872 0.0
C432 C 0.90479 0.59906 0.20422 0.0
C433 C 0.9047 0.62393 0.23265 0.0
C434 C 0.95727 0.6038 0.25356 0.0
C435 C 0.95505 0.57541 0.22894 0.0
N436 N 0.92219 0.54278 0.18589 0.0
N437 N 0.92805 0.6453 0.28912 0.0
C438 C 0.92773 0.57223 0.20531 0.0
C439 C 0.93021 0.62512 0.25857 0.0
N440 N 0.88314 0.6012 0.17597 0.0
N441 N 0.98539 0.6111 0.27177 0.0
H442 H 0.90829 0.66072 0.29458 0.0
H443 H 0.94439 0.64406 0.31088 0.0
H444 H 1.00617 0.59676 0.26903 0.0
H445 H 0.98905 0.63357 0.28676 0.0
H446 H 0.88416 0.58567 0.15274 0.0
H447 H 0.86623 0.62072 0.1741 0.0
H448 H 0.9009 0.5381 0.17134 0.0
H449 H 0.93699 0.52147 0.18736 0.0
C450 C 0.90954 0.38964 0.74879 0.0
C451 C 0.88964 0.38431 0.77946 0.0
C452 C 0.91816 0.43057 0.8122 0.0
C453 C 0.94073 0.43297 0.78321 0.0
N454 N 0.96153 0.40744 0.72755 0.0
N455 N 0.87957 0.39465 0.8434 0.0
C456 C 0.93754 0.41027 0.75264 0.0
C457 C 0.89545 0.40313 0.81219 0.0
N458 N 0.90103 0.37636 0.71534 0.0
N459 N 0.91655 0.45559 0.83836 0.0
H460 H 0.86303 0.37451 0.84448 0.0
H461 H 0.88522 0.4054 0.86885 0.0
H462 H 0.93069 0.47765 0.83819 0.0
H463 H 0.89845 0.45643 0.85785 0.0
H464 H 0.91294 0.38271 0.69134 0.0
H465 H 0.88012 0.36201 0.71079 0.0
H466 H 0.9616 0.38859 0.70727 0.0
H467 H 0.98293 0.42123 0.72909 0.0
C468 C 0.27868 0.11486 0.39943 0.0
C469 C 0.2867 0.14805 0.41225 0.0
C470 C 0.30041 0.12428 0.4725 0.0
C471 C 0.28766 0.09207 0.46101 0.0
N472 N 0.2581 0.05931 0.41494 0.0
N473 N 0.30256 0.18554 0.46185 0.0
C474 C 0.27502 0.08803 0.42486 0.0
C475 C 0.29724 0.1531 0.44896 0.0
N476 N 0.27502 0.10875 0.36274 0.0
N477 N 0.3147 0.12763 0.50617 0.0
H478 H 0.3004 0.20711 0.44543 0.0
H479 H 0.30675 0.19136 0.48932 0.0
H480 H 0.31573 0.10782 0.52505 0.0
H481 H 0.32745 0.14936 0.51452 0.0
H482 H 0.27245 0.08425 0.35167 0.0
H483 H 0.27806 0.12767 0.34307 0.0
H484 H 0.2455 0.05702 0.39024 0.0
H485 H 0.25363 0.03916 0.43253 0.0
C486 C 0.38788 0.68739 0.9173 0.0
C487 C 0.3966 0.69011 0.88004 0.0
C488 C 0.45366 0.6855 0.89675 0.0
C489 C 0.44504 0.6876 0.93408 0.0
N490 N 0.40478 0.69166 0.98087 0.0
N491 N 0.43703 0.6923 0.83333 0.0
C492 C 0.41233 0.6884 0.94468 0.0
C493 C 0.42931 0.68883 0.8694 0.0
N494 N 0.35619 0.68374 0.92635 0.0
N495 N 0.48514 0.68057 0.88769 0.0
H496 H 0.4197 0.69366 0.81255 0.0
H497 H 0.46041 0.69553 0.82398 0.0
H498 H 0.50345 0.67854 0.9073 0.0
H499 H 0.49293 0.67597 0.86117 0.0
H500 H 0.34837 0.67832 0.95265 0.0
H501 H 0.33763 0.68339 0.90692 0.0
H502 H 0.38177 0.69698 0.99021 0.0
H503 H 0.42202 0.69076 1.00179 0.0
C504 C 0.75767 0.87379 0.41211 0.0
C505 C 0.75098 0.87683 0.37417 0.0
C506 C 0.73761 0.93742 0.38257 0.0
C507 C 0.74325 0.934 0.42068 0.0
N508 N 0.75189 0.89791 0.47297 0.0
N509 N 0.72927 0.90917 0.32386 0.0
C510 C 0.75124 0.90181 0.43581 0.0
C511 C 0.73924 0.90796 0.35957 0.0
N512 N 0.77108 0.84447 0.42531 0.0
N513 N 0.7322 0.96904 0.36816 0.0
H514 H 0.73083 0.88833 0.30603 0.0
H515 H 0.71728 0.92992 0.31256 0.0
H516 H 0.73008 0.991 0.38426 0.0
H517 H 0.73182 0.97397 0.34021 0.0
H518 H 0.78001 0.84206 0.45187 0.0
H519 H 0.77554 0.82313 0.40891 0.0
H520 H 0.75458 0.87446 0.48586 0.0
H521 H 0.74661 0.91777 0.49106 0.0
C522 C 0.6259 0.28887 0.90756 0.0
C523 C 0.62694 0.26247 0.88096 0.0
C524 C 0.5759 0.23965 0.90347 0.0
C525 C 0.57749 0.26277 0.93364 0.0
N526 N 0.60872 0.30545 0.96766 0.0
N527 N 0.6059 0.20895 0.8575 0.0
C528 C 0.60377 0.28634 0.93663 0.0
C529 C 0.60283 0.23667 0.88008 0.0
N530 N 0.64531 0.31706 0.90447 0.0
N531 N 0.54812 0.22205 0.89565 0.0
H532 H 0.62548 0.20568 0.84022 0.0
H533 H 0.59058 0.18778 0.85854 0.0
H534 H 0.52693 0.22538 0.91021 0.0
H535 H 0.54499 0.20732 0.87202 0.0
H536 H 0.64294 0.33872 0.92095 0.0
H537 H 0.66143 0.32037 0.88309 0.0
H538 H 0.62963 0.31973 0.97238 0.0
H539 H 0.59391 0.30471 0.99034 0.0
C540 C 0.29938 0.88308 0.6187 0.0
C541 C 0.27437 0.87888 0.6444 0.0
C542 C 0.25331 0.93533 0.62883 0.0
C543 C 0.27666 0.93846 0.60066 0.0
N544 N 0.31693 0.91101 0.56345 0.0
N545 N 0.22438 0.89803 0.66992 0.0
C546 C 0.29854 0.91126 0.59425 0.0
C547 C 0.25045 0.90417 0.6483 0.0
N548 N 0.32411 0.86026 0.61783 0.0
N549 N 0.23443 0.96245 0.63803 0.0
H550 H 0.22169 0.87586 0.68532 0.0
H551 H 0.2041 0.91352 0.67025 0.0
H552 H 0.23465 0.98552 0.62421 0.0
H553 H 0.22027 0.96312 0.66136 0.0
H554 H 0.34487 0.86406 0.60261 0.0
H555 H 0.32506 0.83884 0.63465 0.0
H556 H 0.33072 0.89017 0.5555 0.0
H557 H 0.31589 0.92998 0.54362 0.0
C558 C 0.63715 0.69281 0.09318 0.0
C559 C 0.63392 0.70533 0.12943 0.0
C560 C 0.57769 0.71959 0.11756 0.0
C561 C 0.57993 0.70469 0.08213 0.0
N562 N 0.61103 0.67474 0.03662 0.0
N563 N 0.59999 0.72332 0.17888 0.0
C564 C 0.60937 0.6902 0.07021 0.0
C565 C 0.60378 0.71636 0.14247 0.0
N566 N 0.66701 0.68514 0.08017 0.0
N567 N 0.55124 0.73805 0.12707 0.0
H568 H 0.61867 0.72117 0.198 0.0
H569 H 0.57771 0.72795 0.19066 0.0
H570 H 0.53185 0.74194 0.10947 0.0
H571 H 0.54989 0.75246 0.15105 0.0
H572 H 0.67167 0.67984 0.05281 0.0
H573 H 0.6878 0.6863 0.09637 0.0
H574 H 0.63047 0.6601 0.02827 0.0
H575 H 0.59229 0.67504 0.01746 0.0
C576 C 0.73477 0.15219 0.56706 0.0
C577 C 0.74249 0.14775 0.60464 0.0
C578 C 0.7521 0.08699 0.5939 0.0
C579 C 0.74177 0.09052 0.5569 0.0
N580 N 0.7198 0.12584 0.50896 0.0
N581 N 0.7496 0.1095 0.65551 0.0
C582 C 0.73165 0.12289 0.5438 0.0
C583 C 0.74834 0.11468 0.61856 0.0
N584 N 0.73209 0.18443 0.55323 0.0
N585 N 0.76671 0.05776 0.60547 0.0
H586 H 0.74631 0.12906 0.67461 0.0
H587 H 0.75044 0.08527 0.66713 0.0
H588 H 0.77096 0.03694 0.58847 0.0
H589 H 0.77771 0.05552 0.63108 0.0
H590 H 0.73005 0.18959 0.52541 0.0
H591 H 0.73444 0.20639 0.56938 0.0
H592 H 0.70877 0.14783 0.49921 0.0
H593 H 0.71909 0.10557 0.49031 0.0
C594 C 0.38339 0.26452 0.09139 0.0
C595 C 0.38496 0.24295 0.12239 0.0
C596 C 0.43868 0.22393 0.10427 0.0
C597 C 0.43628 0.24431 0.07244 0.0
N598 N 0.40251 0.27519 0.03027 0.0
N599 N 0.41027 0.19583 0.1534 0.0
C600 C 0.40736 0.2618 0.06428 0.0
C601 C 0.41143 0.22058 0.12724 0.0
N602 N 0.36015 0.28896 0.08868 0.0
N603 N 0.46732 0.20925 0.11363 0.0
H604 H 0.39044 0.19236 0.17028 0.0
H605 H 0.42751 0.17677 0.15592 0.0
H606 H 0.48785 0.21116 0.0976 0.0
H607 H 0.4714 0.19741 0.13867 0.0
H608 H 0.36019 0.30767 0.06852 0.0
H609 H 0.34259 0.29272 0.10843 0.0
H610 H 0.38058 0.28532 0.02173 0.0
H611 H 0.4192 0.27265 0.00932 0.0
C612 C 0.89852 0.62145 0.77621 0.0
C613 C 0.87563 0.62218 0.74734 0.0
C614 C 0.90326 0.5747 0.7172 0.0
C615 C 0.92894 0.57759 0.74313 0.0
N616 N 0.95294 0.60885 0.79436 0.0
N617 N 0.85836 0.60282 0.6875 0.0
C618 C 0.92707 0.60228 0.77194 0.0
C619 C 0.87858 0.59974 0.71697 0.0
N620 N 0.89269 0.63858 0.80816 0.0
N621 N 0.90125 0.54707 0.6942 0.0
H622 H 0.83978 0.62059 0.68648 0.0
H623 H 0.86171 0.58966 0.66297 0.0
H624 H 0.91752 0.52694 0.69494 0.0
H625 H 0.8814 0.54219 0.67729 0.0
H626 H 0.90688 0.63589 0.83162 0.0
H627 H 0.87184 0.6527 0.81248 0.0
H628 H 0.95386 0.6294 0.81262 0.0
H629 H 0.97475 0.59619 0.79263 0.0
C630 C 0.88987 0.43955 0.30159 0.0
C631 C 0.89234 0.40379 0.29585 0.0
C632 C 0.9513 0.40809 0.29848 0.0
C633 C 0.94876 0.44413 0.29968 0.0
N634 N 0.91638 0.49499 0.30041 0.0
N635 N 0.92475 0.35357 0.28689 0.0
C636 C 0.91823 0.46011 0.30111 0.0
C637 C 0.92291 0.38785 0.29413 0.0
N638 N 0.86043 0.4537 0.30788 0.0
N639 N 0.98095 0.39338 0.30165 0.0
H640 H 0.90451 0.33779 0.28429 0.0
H641 H 0.94611 0.34098 0.28118 0.0
H642 H 1.00208 0.40774 0.30464 0.0
H643 H 0.98453 0.36722 0.30436 0.0
H644 H 0.85723 0.47899 0.31596 0.0
H645 H 0.83913 0.43941 0.30772 0.0
H646 H 0.895 0.50826 0.29656 0.0
H647 H 0.93663 0.51087 0.30181 0.0
C648 C 0.10799 0.40244 0.7294 0.0
C649 C 0.13671 0.41973 0.71992 0.0
C650 C 0.10569 0.4711 0.70502 0.0
C651 C 0.07768 0.45526 0.71951 0.0
N652 N 0.0533 0.40709 0.75014 0.0
N653 N 0.16406 0.47076 0.70047 0.0
C654 C 0.0791 0.42119 0.73278 0.0
C655 C 0.13586 0.45404 0.70772 0.0
N656 N 0.10826 0.36787 0.73476 0.0
N657 N 0.10366 0.50274 0.68955 0.0
H658 H 0.18641 0.45879 0.70158 0.0
H659 H 0.16571 0.49688 0.69563 0.0
H660 H 0.08259 0.517 0.68899 0.0
H661 H 0.12229 0.51407 0.67508 0.0
H662 H 0.08743 0.35323 0.73776 0.0
H663 H 0.12904 0.35321 0.73269 0.0
H664 H 0.05434 0.38417 0.7644 0.0
H665 H 0.03146 0.41953 0.75296 0.0
C666 C 0.12023 0.61972 0.24549 0.0
C667 C 0.14363 0.62131 0.2738 0.0
C668 C 0.11948 0.57075 0.30203 0.0
C669 C 0.09308 0.57257 0.27703 0.0
N670 N 0.06629 0.60355 0.22802 0.0
N671 N 0.16353 0.6012 0.33191 0.0
C672 C 0.09292 0.59827 0.24948 0.0
C673 C 0.14272 0.59763 0.30295 0.0
N674 N 0.12443 0.63819 0.21424 0.0
N675 N 0.12353 0.54254 0.32338 0.0
H676 H 0.18109 0.62036 0.33335 0.0
H677 H 0.16161 0.58689 0.35574 0.0
H678 H 0.10834 0.52126 0.32196 0.0
H679 H 0.14402 0.53859 0.33942 0.0
H680 H 0.10995 0.63506 0.191 0.0
H681 H 0.14435 0.65401 0.21007 0.0
H682 H 0.06385 0.62466 0.21101 0.0
H683 H 0.04532 0.58908 0.22933 0.0
C684 C 0.75178 0.91411 0.62119 0.0
C685 C 0.77679 0.89017 0.62597 0.0
C686 C 0.80556 0.91534 0.57445 0.0
C687 C 0.78275 0.94228 0.57289 0.0
N688 N 0.73713 0.97034 0.60124 0.0
N689 N 0.8307 0.87214 0.61204 0.0
C690 C 0.75674 0.9426 0.59815 0.0
C691 C 0.80475 0.89213 0.60418 0.0
N692 N 0.72262 0.90899 0.63738 0.0
N693 N 0.8265 0.91011 0.5464 0.0
H694 H 0.83107 0.85503 0.63381 0.0
H695 H 0.85282 0.87503 0.59919 0.0
H696 H 0.8263 0.9244 0.52248 0.0
H697 H 0.84142 0.88886 0.54491 0.0
H698 H 0.70241 0.92363 0.63134 0.0
H699 H 0.71757 0.88803 0.65388 0.0
H700 H 0.72057 0.9731 0.62227 0.0
H701 H 0.73915 0.9921 0.58537 0.0
C702 C 0.60118 0.32468 0.14791 0.0
C703 C 0.62692 0.30128 0.14464 0.0
C704 C 0.60399 0.27992 0.08673 0.0
C705 C 0.57659 0.30131 0.09137 0.0
N706 N 0.54615 0.33819 0.13124 0.0
N707 N 0.64939 0.25173 0.11523 0.0
C708 C 0.5744 0.32222 0.12327 0.0
C709 C 0.62726 0.27745 0.11534 0.0
N710 N 0.60254 0.34962 0.17423 0.0
N711 N 0.60888 0.26302 0.05442 0.0
H712 H 0.66714 0.24916 0.13539 0.0
H713 H 0.64833 0.23113 0.09704 0.0
H714 H 0.59296 0.26341 0.03237 0.0
H715 H 0.63041 0.25095 0.04811 0.0
H716 H 0.58631 0.36975 0.17544 0.0
H717 H 0.62146 0.35173 0.19311 0.0
H718 H 0.54216 0.35095 0.15586 0.0
H719 H 0.52545 0.33567 0.11509 0.0
C720 C 0.21942 0.15092 0.61401 0.0
C721 C 0.2322 0.1474 0.64994 0.0
C722 C 0.24114 0.08649 0.63905 0.0
C723 C 0.22723 0.0894 0.60342 0.0
N724 N 0.19865 0.12346 0.55889 0.0
N725 N 0.24754 0.11094 0.6998 0.0
C726 C 0.21455 0.12125 0.59171 0.0
C727 C 0.24053 0.11484 0.66344 0.0
N728 N 0.2137 0.18283 0.60046 0.0
N729 N 0.25627 0.05711 0.64921 0.0
H730 H 0.24742 0.13126 0.71843 0.0
H731 H 0.2504 0.08722 0.71212 0.0
H732 H 0.2571 0.03549 0.63265 0.0
H733 H 0.27027 0.05503 0.67287 0.0
H734 H 0.20819 0.1876 0.57314 0.0
H735 H 0.21673 0.2051 0.61598 0.0
H736 H 0.1857 0.14486 0.55085 0.0
H737 H 0.1964 0.10315 0.54049 0.0
C738 C 0.37906 0.76776 0.0898 0.0
C739 C 0.38373 0.76071 0.12755 0.0
C740 C 0.43922 0.74353 0.11557 0.0
C741 C 0.43586 0.75407 0.07861 0.0
N742 N 0.40307 0.77856 0.0307 0.0
N743 N 0.42032 0.74965 0.17762 0.0
C744 C 0.40598 0.76723 0.06587 0.0
C745 C 0.41446 0.75095 0.14079 0.0
N746 N 0.34867 0.77315 0.07648 0.0
N747 N 0.4655 0.72538 0.12659 0.0
H748 H 0.40297 0.75558 0.19705 0.0
H749 H 0.44321 0.7462 0.18883 0.0
H750 H 0.48368 0.71813 0.10893 0.0
H751 H 0.46751 0.71421 0.1523 0.0
H752 H 0.3431 0.77462 0.04871 0.0
H753 H 0.32839 0.77341 0.09304 0.0
H754 H 0.3833 0.79219 0.02114 0.0
H755 H 0.42118 0.77595 0.01137 0.0
C756 C 0.79468 0.0963 0.35315 0.0
C757 C 0.7973 0.13055 0.36581 0.0
C758 C 0.81243 0.11054 0.4271 0.0
C759 C 0.80534 0.07659 0.41571 0.0
N760 N 0.79022 0.03615 0.36863 0.0
N761 N 0.80806 0.17117 0.41437 0.0
C762 C 0.797 0.06915 0.37875 0.0
C763 C 0.80649 0.13793 0.40257 0.0
N764 N 0.7901 0.08988 0.31664 0.0
N765 N 0.8244 0.11649 0.46155 0.0
H766 H 0.80483 0.19192 0.39699 0.0
H767 H 0.81076 0.17842 0.44166 0.0
H768 H 0.82831 0.09703 0.48039 0.0
H769 H 0.83289 0.14016 0.47069 0.0
H770 H 0.79092 0.0656 0.30494 0.0
H771 H 0.78769 0.10928 0.29739 0.0
H772 H 0.7801 0.02914 0.34351 0.0
H773 H 0.7937 0.01556 0.38621 0.0
C774 C 0.38968 0.33704 0.91677 0.0
C775 C 0.39472 0.3212 0.88227 0.0
C776 C 0.45077 0.30948 0.89972 0.0
C777 C 0.44443 0.32099 0.93584 0.0
N778 N 0.40728 0.34376 0.97993 0.0
N779 N 0.42922 0.29064 0.84097 0.0
C780 C 0.41386 0.33474 0.9446 0.0
C781 C 0.42513 0.30712 0.87368 0.0
N782 N 0.36173 0.35432 0.92286 0.0
N783 N 0.48161 0.3017 0.89012 0.0
H784 H 0.41147 0.2896 0.82061 0.0
H785 H 0.4494 0.27616 0.83481 0.0
H786 H 0.50104 0.30394 0.9083 0.0
H787 H 0.48853 0.29621 0.86345 0.0
H788 H 0.35789 0.36956 0.94582 0.0
H789 H 0.34316 0.35561 0.90351 0.0
H790 H 0.38437 0.34993 0.98901 0.0
H791 H 0.42427 0.34275 1.00105 0.0
C792 C 0.26762 0.91946 0.39835 0.0
C793 C 0.24098 0.89742 0.39224 0.0
C794 C 0.21303 0.92406 0.44371 0.0
C795 C 0.23794 0.94915 0.44689 0.0
N796 N 0.28625 0.97411 0.42038 0.0
N797 N 0.18565 0.88294 0.40425 0.0
C798 C 0.26442 0.94789 0.42221 0.0
C799 C 0.21278 0.90113 0.41333 0.0
N800 N 0.29661 0.91252 0.38262 0.0
N801 N 0.19096 0.92017 0.47086 0.0
H802 H 0.18462 0.86595 0.38214 0.0
H803 H 0.16347 0.88722 0.41646 0.0
H804 H 0.1916 0.93416 0.49518 0.0
H805 H 0.17432 0.90013 0.47124 0.0
H806 H 0.31779 0.92547 0.3897 0.0
H807 H 0.30031 0.89165 0.36531 0.0
H808 H 0.30322 0.97595 0.39968 0.0
H809 H 0.28592 0.99573 0.43692 0.0
C810 C 0.59521 0.76089 0.87261 0.0
C811 C 0.62736 0.75883 0.88593 0.0
C812 C 0.60792 0.75944 0.94914 0.0
C813 C 0.57577 0.75827 0.93569 0.0
N814 N 0.53824 0.75408 0.8852 0.0
N815 N 0.66472 0.75252 0.93627 0.0
C816 C 0.56923 0.7581 0.89755 0.0
C817 C 0.63385 0.7573 0.92409 0.0
N818 N 0.58959 0.76624 0.83619 0.0
N819 N 0.61356 0.76299 0.98591 0.0
H820 H 0.68437 0.75134 0.91878 0.0
H821 H 0.67075 0.74729 0.96335 0.0
H822 H 0.59512 0.76417 1.00502 0.0
H823 H 0.63624 0.76745 0.99737 0.0
H824 H 0.56697 0.77157 0.82523 0.0
H825 H 0.608 0.76798 0.81709 0.0
H826 H 0.53213 0.74954 0.85791 0.0
H827 H 0.51856 0.75307 0.90267 0.0
loop_
_geom_bond_atom_site_label_1
_geom_bond_atom_site_label_2
_geom_bond_distance
_geom_bond_site_symmetry_2
_ccdc_geom_bond_type
C0 C1 1.386 . S
C0 C2 1.397 . S
C0 H24 0.931 . S
C1 C0 1.386 . S
C1 C5 1.397 . S
C2 C0 1.397 . S
C2 C3 1.384 . S
C2 H25 0.930 . S
C3 C2 1.384 . S
C3 C4 1.377 . S
C3 C6 1.481 . S
C4 C3 1.377 . S
C4 C5 1.389 . S
C4 H26 0.929 . S
C5 C1 1.397 . S
C5 C4 1.389 . S
C5 H27 0.931 . S
C6 C3 1.481 . S
C6 C7 1.387 . S
C6 C11 1.390 . S
C7 C6 1.387 . S
C7 C8 1.401 . S
C7 H28 0.930 . S
C8 C7 1.401 . S
C8 C9 1.376 . S
C8 C17 1.511 . S
C9 C8 1.376 . S
C9 C10 1.392 . S
C9 H30 0.931 . S
C10 C9 1.392 . S
C10 C11 1.361 . S
C10 C12 1.500 . S
C11 C6 1.390 . S
C11 C10 1.361 . S
C11 H29 0.931 . S
C12 C10 1.500 . S
C12 C13 1.371 . S
C12 C14 1.365 . S
C13 C12 1.371 . S
C13 C23 1.386 . S
C13 H31 0.931 . S
C14 C12 1.365 . S
C14 C15 1.409 . S
C14 H32 0.929 . S
C15 C14 1.409 . S
C15 C16 1.380 . S
C15 H33 0.930 . S
C16 C15 1.380 . S
C16 C23 1.357 . S
C17 C8 1.511 . S
C17 C18 1.341 . S
C17 C19 1.371 . S
C18 C17 1.341 . S
C18 C22 1.394 . S
C18 H34 0.930 . S
C19 C17 1.371 . S
C19 C20 1.392 . S
C19 H35 0.931 . S
C20 C19 1.392 . S
C20 C21 1.331 . S
C20 H38 0.932 . S
C21 C20 1.331 . S
C21 C22 1.336 . S
C22 C18 1.394 . S
C22 C21 1.336 . S
C22 H37 0.929 . S
C23 C13 1.386 . S
C23 C16 1.357 . S
C23 H36 0.928 . S
H24 C0 0.931 . S
H25 C2 0.930 . S
H26 C4 0.929 . S
H27 C5 0.931 . S
H28 C7 0.930 . S
H29 C11 0.931 . S
H30 C9 0.931 . S
H31 C13 0.931 . S
H32 C14 0.929 . S
H33 C15 0.930 . S
H34 C18 0.930 . S
H35 C19 0.931 . S
H36 C23 0.928 . S
H37 C22 0.929 . S
H38 C20 0.932 . S
C39 C40 1.386 . S
C39 C41 1.397 . S
C39 H63 0.931 . S
C40 C39 1.386 . S
C40 C44 1.397 . S
C41 C39 1.397 . S
C41 C42 1.384 . S
C41 H64 0.930 . S
C42 C41 1.384 . S
C42 C43 1.377 . S
C42 C45 1.481 . S
C43 C42 1.377 . S
C43 C44 1.389 . S
C43 H65 0.929 . S
C44 C40 1.397 . S
C44 C43 1.389 . S
C44 H66 0.931 . S
C45 C42 1.481 . S
C45 C46 1.387 . S
C45 C50 1.390 . S
C46 C45 1.387 . S
C46 C47 1.401 . S
C46 H67 0.930 . S
C47 C46 1.401 . S
C47 C48 1.376 . S
C47 C56 1.511 . S
C48 C47 1.376 . S
C48 C49 1.392 . S
C48 H69 0.931 . S
C49 C48 1.392 . S
C49 C50 1.361 . S
C49 C51 1.500 . S
C50 C45 1.390 . S
C50 C49 1.361 . S
C50 H68 0.931 . S
C51 C49 1.500 . S
C51 C52 1.371 . S
C51 C53 1.365 . S
C52 C51 1.371 . S
C52 C62 1.386 . S
C52 H70 0.931 . S
C53 C51 1.365 . S
C53 C54 1.409 . S
C53 H71 0.929 . S
C54 C53 1.409 . S
C54 C55 1.380 . S
C54 H72 0.930 . S
C55 C54 1.380 . S
C55 C62 1.357 . S
C56 C47 1.511 . S
C56 C57 1.341 . S
C56 C58 1.371 . S
C57 C56 1.341 . S
C57 C61 1.394 . S
C57 H73 0.930 . S
C58 C56 1.371 . S
C58 C59 1.392 . S
C58 H74 0.931 . S
C59 C58 1.392 . S
C59 C60 1.331 . S
C59 H77 0.932 . S
C60 C59 1.331 . S
C60 C61 1.336 . S
C61 C57 1.394 . S
C61 C60 1.336 . S
C61 H76 0.929 . S
C62 C52 1.386 . S
C62 C55 1.357 . S
C62 H75 0.928 . S
H63 C39 0.931 . S
H64 C41 0.930 . S
H65 C43 0.929 . S
H66 C44 0.931 . S
H67 C46 0.930 . S
H68 C50 0.931 . S
H69 C48 0.931 . S
H70 C52 0.931 . S
H71 C53 0.929 . S
H72 C54 0.930 . S
H73 C57 0.930 . S
H74 C58 0.931 . S
H75 C62 0.928 . S
H76 C61 0.929 . S
H77 C59 0.932 . S
C78 C79 1.386 . S
C78 C80 1.397 . S
C78 H102 0.931 . S
C79 C78 1.386 . S
C79 C83 1.397 . S
C80 C78 1.397 . S
C80 C81 1.384 . S
C80 H103 0.930 . S
C81 C80 1.384 . S
C81 C82 1.377 . S
C81 C84 1.481 . S
C82 C81 1.377 . S
C82 C83 1.389 . S
C82 H104 0.929 . S
C83 C79 1.397 . S
C83 C82 1.389 . S
C83 H105 0.931 . S
C84 C81 1.481 . S
C84 C85 1.387 . S
C84 C89 1.390 . S
C85 C84 1.387 . S
C85 C86 1.401 . S
C85 H106 0.930 . S
C86 C85 1.401 . S
C86 C87 1.376 . S
C86 C95 1.511 . S
C87 C86 1.376 . S
C87 C88 1.392 . S
C87 H108 0.931 . S
C88 C87 1.392 . S
C88 C89 1.361 . S
C88 C90 1.500 . S
C89 C84 1.390 . S
C89 C88 1.361 . S
C89 H107 0.931 . S
C90 C88 1.500 . S
C90 C91 1.371 . S
C90 C92 1.365 . S
C91 C90 1.371 . S
C91 C101 1.386 . S
C91 H109 0.931 . S
C92 C90 1.365 . S
C92 C93 1.409 . S
C92 H110 0.929 . S
C93 C92 1.409 . S
C93 C94 1.380 . S
C93 H111 0.930 . S
C94 C93 1.380 . S
C94 C101 1.357 . S
C95 C86 1.511 . S
C95 C96 1.341 . S
C95 C97 1.371 . S
C96 C95 1.341 . S
C96 C100 1.394 . S
C96 H112 0.930 . S
C97 C95 1.371 . S
C97 C98 1.392 . S
C97 H113 0.931 . S
C98 C97 1.392 . S
C98 C99 1.331 . S
C98 H116 0.932 . S
C99 C98 1.331 . S
C99 C100 1.336 . S
C100 C96 1.394 . S
C100 C99 1.336 . S
C100 H115 0.929 . S
C101 C91 1.386 . S
C101 C94 1.357 . S
C101 H114 0.928 . S
H102 C78 0.931 . S
H103 C80 0.930 . S
H104 C82 0.929 . S
H105 C83 0.931 . S
H106 C85 0.930 . S
H107 C89 0.931 . S
H108 C87 0.931 . S
H109 C91 0.931 . S
H110 C92 0.929 . S
H111 C93 0.930 . S
H112 C96 0.930 . S
H113 C97 0.931 . S
H114 C101 0.928 . S
H115 C100 0.929 . S
H116 C98 0.932 . S
C117 C118 1.386 . S
C117 C119 1.397 . S
C117 H141 0.931 . S
C118 C117 1.386 . S
C118 C122 1.397 . S
C119 C117 1.397 . S
C119 C120 1.384 . S
C119 H142 0.930 . S
C120 C119 1.384 . S
C120 C121 1.377 . S
C120 C123 1.481 . S
C121 C120 1.377 . S
C121 C122 1.389 . S
C121 H143 0.929 . S
C122 C118 1.397 . S
C122 C121 1.389 . S
C122 H144 0.931 . S
C123 C120 1.481 . S
C123 C124 1.387 . S
C123 C128 1.390 . S
C124 C123 1.387 . S
C124 C125 1.401 . S
C124 H145 0.930 . S
C125 C124 1.401 . S
C125 C126 1.376 . S
C125 C134 1.511 . S
C126 C125 1.376 . S
C126 C127 1.392 . S
C126 H147 0.931 . S
C127 C126 1.392 . S
C127 C128 1.361 . S
C127 C129 1.500 . S
C128 C123 1.390 . S
C128 C127 1.361 . S
C128 H146 0.931 . S
C129 C127 1.500 . S
C129 C130 1.371 . S
C129 C131 1.365 . S
C130 C129 1.371 . S
C130 C140 1.386 . S
C130 H148 0.931 . S
C131 C129 1.365 . S
C131 C132 1.409 . S
C131 H149 0.929 . S
C132 C131 1.409 . S
C132 C133 1.380 . S
C132 H150 0.930 . S
C133 C132 1.380 . S
C133 C140 1.357 . S
C134 C125 1.511 . S
C134 C135 1.341 . S
C134 C136 1.371 . S
C135 C134 1.341 . S
C135 C139 1.394 . S
C135 H151 0.930 . S
C136 C134 1.371 . S
C136 C137 1.392 . S
C136 H152 0.931 . S
C137 C136 1.392 . S
C137 C138 1.331 . S
C137 H155 0.932 . S
C138 C137 1.331 . S
C138 C139 1.336 . S
C139 C135 1.394 . S
C139 C138 1.336 . S
C139 H154 0.929 . S
C140 C130 1.386 . S
C140 C133 1.357 . S
C140 H153 0.928 . S
H141 C117 0.931 . S
H142 C119 0.930 . S
H143 C121 0.929 . S
H144 C122 0.931 . S
H145 C124 0.930 . S
H146 C128 0.931 . S
H147 C126 0.931 . S
H148 C130 0.931 . S
H149 C131 0.929 . S
H150 C132 0.930 . S
H151 C135 0.930 . S
H152 C136 0.931 . S
H153 C140 0.928 . S
H154 C139 0.929 . S
H155 C137 0.932 . S
C156 C157 1.386 . S
C156 C158 1.397 . S
C156 H180 0.931 . S
C157 C156 1.386 . S
C157 C161 1.397 . S
C158 C156 1.397 . S
C158 C159 1.384 . S
C158 H181 0.930 . S
C159 C158 1.384 . S
C159 C160 1.377 . S
C159 C162 1.481 . S
C160 C159 1.377 . S
C160 C161 1.389 . S
C160 H182 0.929 . S
C161 C157 1.397 . S
C161 C160 1.389 . S
C161 H183 0.931 . S
C162 C159 1.481 . S
C162 C163 1.387 . S
C162 C167 1.390 . S
C163 C162 1.387 . S
C163 C164 1.401 . S
C163 H184 0.930 . S
C164 C163 1.401 . S
C164 C165 1.376 . S
C164 C173 1.511 . S
C165 C164 1.376 . S
C165 C166 1.392 . S
C165 H186 0.931 . S
C166 C165 1.392 . S
C166 C167 1.361 . S
C166 C168 1.500 . S
C167 C162 1.390 . S
C167 C166 1.361 . S
C167 H185 0.931 . S
C168 C166 1.500 . S
C168 C169 1.371 . S
C168 C170 1.365 . S
C169 C168 1.371 . S
C169 C179 1.386 . S
C169 H187 0.931 . S
C170 C168 1.365 . S
C170 C171 1.409 . S
C170 H188 0.929 . S
C171 C170 1.409 . S
C171 C172 1.380 . S
C171 H189 0.930 . S
C172 C171 1.380 . S
C172 C179 1.357 . S
C173 C164 1.511 . S
C173 C174 1.341 . S
C173 C175 1.371 . S
C174 C173 1.341 . S
C174 C178 1.394 . S
C174 H190 0.930 . S
C175 C173 1.371 . S
C175 C176 1.392 . S
C175 H191 0.931 . S
C176 C175 1.392 . S
C176 C177 1.331 . S
C176 H194 0.932 . S
C177 C176 1.331 . S
C177 C178 1.336 . S
C178 C174 1.394 . S
C178 C177 1.336 . S
C178 H193 0.929 . S
C179 C169 1.386 . S
C179 C172 1.357 . S
C179 H192 0.928 . S
H180 C156 0.931 . S
H181 C158 0.930 . S
H182 C160 0.929 . S
H183 C161 0.931 . S
H184 C163 0.930 . S
H185 C167 0.931 . S
H186 C165 0.931 . S
H187 C169 0.931 . S
H188 C170 0.929 . S
H189 C171 0.930 . S
H190 C174 0.930 . S
H191 C175 0.931 . S
H192 C179 0.928 . S
H193 C178 0.929 . S
H194 C176 0.932 . S
C195 C196 1.386 . S
C195 C197 1.397 . S
C195 H219 0.931 . S
C196 C195 1.386 . S
C196 C200 1.397 . S
C197 C195 1.397 . S
C197 C198 1.384 . S
C197 H220 0.930 . S
C198 C197 1.384 . S
C198 C199 1.377 . S
C198 C201 1.481 . S
C199 C198 1.377 . S
C199 C200 1.389 . S
C199 H221 0.929 . S
C200 C196 1.397 . S
C200 C199 1.389 . S
C200 H222 0.931 . S
C201 C198 1.481 . S
C201 C202 1.387 . S
C201 C206 1.390 . S
C202 C201 1.387 . S
C202 C203 1.401 . S
C202 H223 0.930 . S
C203 C202 1.401 . S
C203 C204 1.376 . S
C203 C212 1.511 . S
C204 C203 1.376 . S
C204 C205 1.392 . S
C204 H225 0.931 . S
C205 C204 1.392 . S
C205 C206 1.361 . S
C205 C207 1.500 . S
C206 C201 1.390 . S
C206 C205 1.361 . S
C206 H224 0.931 . S
C207 C205 1.500 . S
C207 C208 1.371 . S
C207 C209 1.365 . S
C208 C207 1.371 . S
C208 C218 1.386 . S
C208 H226 0.931 . S
C209 C207 1.365 . S
C209 C210 1.409 . S
C209 H227 0.929 . S
C210 C209 1.409 . S
C210 C211 1.380 . S
C210 H228 0.930 . S
C211 C210 1.380 . S
C211 C218 1.357 . S
C212 C203 1.511 . S
C212 C213 1.341 . S
C212 C214 1.371 . S
C213 C212 1.341 . S
C213 C217 1.394 . S
C213 H229 0.930 . S
C214 C212 1.371 . S
C214 C215 1.392 . S
C214 H230 0.931 . S
C215 C214 1.392 . S
C215 C216 1.331 . S
C215 H233 0.932 . S
C216 C215 1.331 . S
C216 C217 1.336 . S
C217 C213 1.394 . S
C217 C216 1.336 . S
C217 H232 0.929 . S
C218 C208 1.386 . S
C218 C211 1.357 . S
C218 H231 0.928 . S
H219 C195 0.931 . S
H220 C197 0.930 . S
H221 C199 0.929 . S
H222 C200 0.931 . S
H223 C202 0.930 . S
H224 C206 0.931 . S
H225 C204 0.931 . S
H226 C208 0.931 . S
H227 C209 0.929 . S
H228 C210 0.930 . S
H229 C213 0.930 . S
H230 C214 0.931 . S
H231 C218 0.928 . S
H232 C217 0.929 . S
H233 C215 0.932 . S
C234 C235 1.386 . S
C234 C236 1.397 . S
C234 H258 0.931 . S
C235 C234 1.386 . S
C235 C239 1.397 . S
C236 C234 1.397 . S
C236 C237 1.384 . S
C236 H259 0.930 . S
C237 C236 1.384 . S
C237 C238 1.377 . S
C237 C240 1.481 . S
C238 C237 1.377 . S
C238 C239 1.389 . S
C238 H260 0.929 . S
C239 C235 1.397 . S
C239 C238 1.389 . S
C239 H261 0.931 . S
C240 C237 1.481 . S
C240 C241 1.387 . S
C240 C245 1.390 . S
C241 C240 1.387 . S
C241 C242 1.401 . S
C241 H262 0.930 . S
C242 C241 1.401 . S
C242 C243 1.376 . S
C242 C251 1.511 . S
C243 C242 1.376 . S
C243 C244 1.392 . S
C243 H264 0.931 . S
C244 C243 1.392 . S
C244 C245 1.361 . S
C244 C246 1.500 . S
C245 C240 1.390 . S
C245 C244 1.361 . S
C245 H263 0.931 . S
C246 C244 1.500 . S
C246 C247 1.371 . S
C246 C248 1.365 . S
C247 C246 1.371 . S
C247 C257 1.386 . S
C247 H265 0.931 . S
C248 C246 1.365 . S
C248 C249 1.409 . S
C248 H266 0.929 . S
C249 C248 1.409 . S
C249 C250 1.380 . S
C249 H267 0.930 . S
C250 C249 1.380 . S
C250 C257 1.357 . S
C251 C242 1.511 . S
C251 C252 1.341 . S
C251 C253 1.371 . S
C252 C251 1.341 . S
C252 C256 1.394 . S
C252 H268 0.930 . S
C253 C251 1.371 . S
C253 C254 1.392 . S
C253 H269 0.931 . S
C254 C253 1.392 . S
C254 C255 1.331 . S
C254 H272 0.932 . S
C255 C254 1.331 . S
C255 C256 1.336 . S
C256 C252 1.394 . S
C256 C255 1.336 . S
C256 H271 0.929 . S
C257 C247 1.386 . S
C257 C250 1.357 . S
C257 H270 0.928 . S
H258 C234 0.931 . S
H259 C236 0.930 . S
H260 C238 0.929 . S
H261 C239 0.931 . S
H262 C241 0.930 . S
H263 C245 0.931 . S
H264 C243 0.931 . S
H265 C247 0.931 . S
H266 C248 0.929 . S
H267 C249 0.930 . S
H268 C252 0.930 . S
H269 C253 0.931 . S
H270 C257 0.928 . S
H271 C256 0.929 . S
H272 C254 0.932 . S
C273 C274 1.386 . S
C273 C275 1.397 . S
C273 H297 0.931 . S
C274 C273 1.386 . S
C274 C278 1.397 . S
C275 C273 1.397 . S
C275 C276 1.384 . S
C275 H298 0.930 . S
C276 C275 1.384 . S
C276 C277 1.377 . S
C276 C279 1.481 . S
C277 C276 1.377 . S
C277 C278 1.389 . S
C277 H299 0.929 . S
C278 C274 1.397 . S
C278 C277 1.389 . S
C278 H300 0.931 . S
C279 C276 1.481 . S
C279 C280 1.387 . S
C279 C284 1.390 . S
C280 C279 1.387 . S
C280 C281 1.401 . S
C280 H301 0.930 . S
C281 C280 1.401 . S
C281 C282 1.376 . S
C281 C290 1.511 . S
C282 C281 1.376 . S
C282 C283 1.392 . S
C282 H303 0.931 . S
C283 C282 1.392 . S
C283 C284 1.361 . S
C283 C285 1.500 . S
C284 C279 1.390 . S
C284 C283 1.361 . S
C284 H302 0.931 . S
C285 C283 1.500 . S
C285 C286 1.371 . S
C285 C287 1.365 . S
C286 C285 1.371 . S
C286 C296 1.386 . S
C286 H304 0.931 . S
C287 C285 1.365 . S
C287 C288 1.409 . S
C287 H305 0.929 . S
C288 C287 1.409 . S
C288 C289 1.380 . S
C288 H306 0.930 . S
C289 C288 1.380 . S
C289 C296 1.357 . S
C290 C281 1.511 . S
C290 C291 1.341 . S
C290 C292 1.371 . S
C291 C290 1.341 . S
C291 C295 1.394 . S
C291 H307 0.930 . S
C292 C290 1.371 . S
C292 C293 1.392 . S
C292 H308 0.931 . S
C293 C292 1.392 . S
C293 C294 1.331 . S
C293 H311 0.932 . S
C294 C293 1.331 . S
C294 C295 1.336 . S
C295 C291 1.394 . S
C295 C294 1.336 . S
C295 H310 0.929 . S
C296 C286 1.386 . S
C296 C289 1.357 . S
C296 H309 0.928 . S
H297 C273 0.931 . S
H298 C275 0.930 . S
H299 C277 0.929 . S
H300 C278 0.931 . S
H301 C280 0.930 . S
H302 C284 0.931 . S
H303 C282 0.931 . S
H304 C286 0.931 . S
H305 C287 0.929 . S
H306 C288 0.930 . S
H307 C291 0.930 . S
H308 C292 0.931 . S
H309 C296 0.928 . S
H310 C295 0.929 . S
H311 C293 0.932 . S
C312 O314 1.247 . S
C312 O316 1.258 . S
C313 O320 1.247 . S
C313 O321 1.258 . S
O314 C312 1.247 . S
O314 Zn315 2.028 1_655 S
Zn315 O314 2.028 1_455 S
Zn315 O319 2.035 . S
Zn315 O321 2.035 . S
Zn315 O322 2.028 1_455 S
O316 C312 1.258 . S
O316 Zn317 2.035 1_655 S
Zn317 O316 2.035 1_455 S
Zn317 O318 2.028 . S
Zn317 O320 2.028 . S
Zn317 O323 2.035 1_455 S
O318 Zn317 2.028 . S
O318 C324 1.247 . S
O319 Zn315 2.035 . S
O319 C324 1.258 . S
O320 C313 1.247 . S
O320 Zn317 2.028 . S
O321 C313 1.258 . S
O321 Zn315 2.035 . S
O322 Zn315 2.028 1_655 S
O322 C325 1.247 . S
O323 Zn317 2.035 1_655 S
O323 C325 1.258 . S
C324 O318 1.247 . S
C324 O319 1.258 . S
C325 O322 1.247 . S
C325 O323 1.258 . S
C326 O328 1.247 . S
C326 O330 1.258 . S
C327 O334 1.247 . S
C327 O335 1.258 . S
O328 C326 1.247 . S
O328 Zn329 2.028 1_655 S
Zn329 O328 2.028 1_455 S
Zn329 O333 2.035 . S
Zn329 O335 2.035 . S
Zn329 O336 2.028 1_455 S
O330 C326 1.258 . S
O330 Zn331 2.035 1_655 S
Zn331 O330 2.035 1_455 S
Zn331 O332 2.028 . S
Zn331 O334 2.028 . S
Zn331 O337 2.035 1_455 S
O332 Zn331 2.028 . S
O332 C338 1.247 . S
O333 Zn329 2.035 . S
O333 C338 1.258 . S
O334 C327 1.247 . S
O334 Zn331 2.028 . S
O335 C327 1.258 . S
O335 Zn329 2.035 . S
O336 Zn329 2.028 1_655 S
O336 C339 1.247 . S
O337 Zn331 2.035 1_655 S
O337 C339 1.258 . S
C338 O332 1.247 . S
C338 O333 1.258 . S
C339 O336 1.247 . S
C339 O337 1.258 . S
C340 O342 1.247 . S
C340 O344 1.258 . S
C341 O348 1.247 . S
C341 O349 1.258 . S
O342 C340 1.247 . S
O342 Zn343 2.028 1_565 S
Zn343 O342 2.028 1_545 S
Zn343 O347 2.035 . S
Zn343 O349 2.035 . S
Zn343 O350 2.028 1_545 S
O344 C340 1.258 . S
O344 Zn345 2.035 1_565 S
Zn345 O344 2.035 1_545 S
Zn345 O346 2.028 . S
Zn345 O348 2.028 . S
Zn345 O351 2.035 1_545 S
O346 Zn345 2.028 . S
O346 C352 1.247 . S
O347 Zn343 2.035 . S
O347 C352 1.258 . S
O348 C341 1.247 . S
O348 Zn345 2.028 . S
O349 C341 1.258 . S
O349 Zn343 2.035 . S
O350 Zn343 2.028 1_565 S
O350 C353 1.247 . S
O351 Zn345 2.035 1_565 S
O351 C353 1.258 . S
C352 O346 1.247 . S
C352 O347 1.258 . S
C353 O350 1.247 . S
C353 O351 1.258 . S
C354 O356 1.247 . S
C354 O358 1.258 . S
C355 O362 1.247 . S
C355 O363 1.258 . S
O356 C354 1.247 . S
O356 Zn357 2.047 . S
Zn357 O356 2.047 . S
Zn357 O361 2.054 . S
Zn357 O363 2.017 1_554 S
Zn357 O364 2.009 1_554 S
O358 C354 1.258 . S
O358 Zn359 2.035 . S
Zn359 O358 2.035 . S
Zn359 O360 2.028 . S
Zn359 O362 2.028 1_554 S
Zn359 O365 2.035 1_554 S
O360 Zn359 2.028 . S
O360 C366 1.247 . S
O361 Zn357 2.054 . S
O361 C366 1.258 . S
O362 C355 1.247 . S
O362 Zn359 2.028 1_556 S
O363 C355 1.258 . S
O363 Zn357 2.017 1_556 S
O364 Zn357 2.009 1_556 S
O364 C367 1.247 . S
O365 Zn359 2.035 1_556 S
O365 C367 1.258 . S
C366 O360 1.247 . S
C366 O361 1.258 . S
C367 O364 1.247 . S
C367 O365 1.258 . S
C368 O370 1.247 . S
C368 O372 1.258 . S
C369 O376 1.247 . S
C369 O377 1.258 . S
O370 C368 1.247 . S
O370 Zn371 2.028 1_565 S
Zn371 O370 2.028 1_545 S
Zn371 O375 2.035 . S
Zn371 O377 2.035 . S
Zn371 O378 2.028 1_545 S
O372 C368 1.258 . S
O372 Zn373 2.035 1_565 S
Zn373 O372 2.035 1_545 S
Zn373 O374 2.028 . S
Zn373 O376 2.028 . S
Zn373 O379 2.035 1_545 S
O374 Zn373 2.028 . S
O374 C380 1.247 . S
O375 Zn371 2.035 . S
O375 C380 1.258 . S
O376 C369 1.247 . S
O376 Zn373 2.028 . S
O377 C369 1.258 . S
O377 Zn371 2.035 . S
O378 Zn371 2.028 1_565 S
O378 C381 1.247 . S
O379 Zn373 2.035 1_565 S
O379 C381 1.258 . S
C380 O374 1.247 . S
C380 O375 1.258 . S
C381 O378 1.247 . S
C381 O379 1.258 . S
C382 O384 1.247 . S
C382 O386 1.258 . S
C383 O390 1.247 . S
C383 O391 1.258 . S
O384 C382 1.247 . S
O384 Zn385 2.028 . S
Zn385 O384 2.028 . S
Zn385 O389 2.035 . S
Zn385 O391 2.035 1_554 S
Zn385 O392 2.028 1_554 S
O386 C382 1.258 . S
O386 Zn387 2.035 . S
Zn387 O386 2.035 . S
Zn387 O388 2.028 . S
Zn387 O390 2.028 1_554 S
Zn387 O393 2.035 1_554 S
O388 Zn387 2.028 . S
O388 C394 1.247 . S
O389 Zn385 2.035 . S
O389 C394 1.258 . S
O390 C383 1.247 . S
O390 Zn387 2.028 1_556 S
O391 C383 1.258 . S
O391 Zn385 2.035 1_556 S
O392 Zn385 2.028 1_556 S
O392 C395 1.247 . S
O393 Zn387 2.035 1_556 S
O393 C395 1.258 . S
C394 O388 1.247 . S
C394 O389 1.258 . S
C395 O392 1.247 . S
C395 O393 1.258 . S
C396 C397 1.363 . S
C396 C402 1.379 . S
C396 N404 1.356 . S
C397 C396 1.363 . S
C397 C403 1.363 . S
C398 C399 1.363 . S
C398 C403 1.379 . S
C398 N405 1.356 . S
C399 C398 1.363 . S
C399 C402 1.363 . S
N400 C402 1.356 . S
N400 H412 0.984 . S
N400 H413 0.985 . S
N401 C403 1.356 . S
N401 H406 0.984 . S
N401 H407 0.985 . S
C402 C396 1.379 . S
C402 C399 1.363 . S
C402 N400 1.356 . S
C403 C397 1.363 . S
C403 C398 1.379 . S
C403 N401 1.356 . S
N404 C396 1.356 . S
N404 H410 0.984 . S
N404 H411 0.984 . S
N405 C398 1.356 . S
N405 H408 0.984 . S
N405 H409 0.985 . S
H406 N401 0.984 . S
H407 N401 0.985 . S
H408 N405 0.984 . S
H409 N405 0.985 . S
H410 N404 0.984 . S
H411 N404 0.984 . S
H412 N400 0.984 . S
H413 N400 0.985 . S
C414 C415 1.363 . S
C414 C420 1.379 . S
C414 N422 1.356 . S
C415 C414 1.363 . S
C415 C421 1.363 . S
C416 C417 1.363 . S
C416 C421 1.379 . S
C416 N423 1.356 . S
C417 C416 1.363 . S
C417 C420 1.363 . S
N418 C420 1.356 . S
N418 H430 0.984 . S
N418 H431 0.985 . S
N419 C421 1.356 . S
N419 H424 0.984 . S
N419 H425 0.985 . S
C420 C414 1.379 . S
C420 C417 1.363 . S
C420 N418 1.356 . S
C421 C415 1.363 . S
C421 C416 1.379 . S
C421 N419 1.356 . S
N422 C414 1.356 . S
N422 H428 0.984 . S
N422 H429 0.984 . S
N423 C416 1.356 . S
N423 H426 0.984 . S
N423 H427 0.985 . S
H424 N419 0.984 . S
H425 N419 0.985 . S
H426 N423 0.984 . S
H427 N423 0.985 . S
H428 N422 0.984 . S
H429 N422 0.984 . S
H430 N418 0.984 . S
H431 N418 0.985 . S
C432 C433 1.363 . S
C432 C438 1.379 . S
C432 N440 1.356 . S
C433 C432 1.363 . S
C433 C439 1.363 . S
C434 C435 1.363 . S
C434 C439 1.379 . S
C434 N441 1.356 . S
C435 C434 1.363 . S
C435 C438 1.363 . S
N436 C438 1.356 . S
N436 H448 0.984 . S
N436 H449 0.985 . S
N437 C439 1.356 . S
N437 H442 0.984 . S
N437 H443 0.985 . S
C438 C432 1.379 . S
C438 C435 1.363 . S
C438 N436 1.356 . S
C439 C433 1.363 . S
C439 C434 1.379 . S
C439 N437 1.356 . S
N440 C432 1.356 . S
N440 H446 0.984 . S
N440 H447 0.984 . S
N441 C434 1.356 . S
N441 H444 0.984 . S
N441 H445 0.985 . S
H442 N437 0.984 . S
H443 N437 0.985 . S
H444 N441 0.984 . S
H445 N441 0.985 . S
H446 N440 0.984 . S
H447 N440 0.984 . S
H448 N436 0.984 . S
H449 N436 0.985 . S
C450 C451 1.363 . S
C450 C456 1.379 . S
C450 N458 1.356 . S
C451 C450 1.363 . S
C451 C457 1.363 . S
C452 C453 1.363 . S
C452 C457 1.379 . S
C452 N459 1.356 . S
C453 C452 1.363 . S
C453 C456 1.363 . S
N454 C456 1.356 . S
N454 H466 0.984 . S
N454 H467 0.985 . S
N455 C457 1.356 . S
N455 H460 0.984 . S
N455 H461 0.985 . S
C456 C450 1.379 . S
C456 C453 1.363 . S
C456 N454 1.356 . S
C457 C451 1.363 . S
C457 C452 1.379 . S
C457 N455 1.356 . S
N458 C450 1.356 . S
N458 H464 0.984 . S
N458 H465 0.984 . S
N459 C452 1.356 . S
N459 H462 0.984 . S
N459 H463 0.985 . S
H460 N455 0.984 . S
H461 N455 0.985 . S
H462 N459 0.984 . S
H463 N459 0.985 . S
H464 N458 0.984 . S
H465 N458 0.984 . S
H466 N454 0.984 . S
H467 N454 0.985 . S
C468 C469 1.363 . S
C468 C474 1.379 . S
C468 N476 1.356 . S
C469 C468 1.363 . S
C469 C475 1.363 . S
C470 C471 1.363 . S
C470 C475 1.379 . S
C470 N477 1.356 . S
C471 C470 1.363 . S
C471 C474 1.363 . S
N472 C474 1.356 . S
N472 H484 0.984 . S
N472 H485 0.985 . S
N473 C475 1.356 . S
N473 H478 0.984 . S
N473 H479 0.985 . S
C474 C468 1.379 . S
C474 C471 1.363 . S
C474 N472 1.356 . S
C475 C469 1.363 . S
C475 C470 1.379 . S
C475 N473 1.356 . S
N476 C468 1.356 . S
N476 H482 0.984 . S
N476 H483 0.984 . S
N477 C470 1.356 . S
N477 H480 0.984 . S
N477 H481 0.985 . S
H478 N473 0.984 . S
H479 N473 0.985 . S
H480 N477 0.984 . S
H481 N477 0.985 . S
H482 N476 0.984 . S
H483 N476 0.984 . S
H484 N472 0.984 . S
H485 N472 0.985 . S
C486 C487 1.363 . S
C486 C492 1.379 . S
C486 N494 1.356 . S
C487 C486 1.363 . S
C487 C493 1.363 . S
C488 C489 1.363 . S
C488 C493 1.379 . S
C488 N495 1.356 . S
C489 C488 1.363 . S
C489 C492 1.363 . S
N490 C492 1.356 . S
N490 H502 0.984 . S
N490 H503 0.985 . S
N491 C493 1.356 . S
N491 H496 0.984 . S
N491 H497 0.985 . S
C492 C486 1.379 . S
C492 C489 1.363 . S
C492 N490 1.356 . S
C493 C487 1.363 . S
C493 C488 1.379 . S
C493 N491 1.356 . S
N494 C486 1.356 . S
N494 H500 0.984 . S
N494 H501 0.984 . S
N495 C488 1.356 . S
N495 H498 0.984 . S
N495 H499 0.985 . S
H496 N491 0.984 . S
H497 N491 0.985 . S
H498 N495 0.984 . S
H499 N495 0.985 . S
H500 N494 0.984 . S
H501 N494 0.984 . S
H502 N490 0.984 . S
H503 N490 0.985 . S
C504 C505 1.363 . S
C504 C510 1.379 . S
C504 N512 1.356 . S
C505 C504 1.363 . S
C505 C511 1.363 . S
C506 C507 1.363 . S
C506 C511 1.379 . S
C506 N513 1.356 . S
C507 C506 1.363 . S
C507 C510 1.363 . S
N508 C510 1.356 . S
N508 H520 0.984 . S
N508 H521 0.985 . S
N509 C511 1.356 . S
N509 H514 0.984 . S
N509 H515 0.985 . S
C510 C504 1.379 . S
C510 C507 1.363 . S
C510 N508 1.356 . S
C511 C505 1.363 . S
C511 C506 1.379 . S
C511 N509 1.356 . S
N512 C504 1.356 . S
N512 H518 0.984 . S
N512 H519 0.984 . S
N513 C506 1.356 . S
N513 H516 0.984 . S
N513 H517 0.985 . S
H514 N509 0.984 . S
H515 N509 0.985 . S
H516 N513 0.984 . S
H517 N513 0.985 . S
H518 N512 0.984 . S
H519 N512 0.984 . S
H520 N508 0.984 . S
H521 N508 0.985 . S
C522 C523 1.363 . S
C522 C528 1.379 . S
C522 N530 1.356 . S
C523 C522 1.363 . S
C523 C529 1.363 . S
C524 C525 1.363 . S
C524 C529 1.379 . S
C524 N531 1.356 . S
C525 C524 1.363 . S
C525 C528 1.363 . S
N526 C528 1.356 . S
N526 H538 0.984 . S
N526 H539 0.985 . S
N527 C529 1.356 . S
N527 H532 0.984 . S
N527 H533 0.985 . S
C528 C522 1.379 . S
C528 C525 1.363 . S
C528 N526 1.356 . S
C529 C523 1.363 . S
C529 C524 1.379 . S
C529 N527 1.356 . S
N530 C522 1.356 . S
N530 H536 0.984 . S
N530 H537 0.984 . S
N531 C524 1.356 . S
N531 H534 0.984 . S
N531 H535 0.985 . S
H532 N527 0.984 . S
H533 N527 0.985 . S
H534 N531 0.984 . S
H535 N531 0.985 . S
H536 N530 0.984 . S
H537 N530 0.984 . S
H538 N526 0.984 . S
H539 N526 0.985 . S
C540 C541 1.363 . S
C540 C546 1.379 . S
C540 N548 1.356 . S
C541 C540 1.363 . S
C541 C547 1.363 . S
C542 C543 1.363 . S
C542 C547 1.379 . S
C542 N549 1.356 . S
C543 C542 1.363 . S
C543 C546 1.363 . S
N544 C546 1.356 . S
N544 H556 0.984 . S
N544 H557 0.985 . S
N545 C547 1.356 . S
N545 H550 0.984 . S
N545 H551 0.985 . S
C546 C540 1.379 . S
C546 C543 1.363 . S
C546 N544 1.356 . S
C547 C541 1.363 . S
C547 C542 1.379 . S
C547 N545 1.356 . S
N548 C540 1.356 . S
N548 H554 0.984 . S
N548 H555 0.984 . S
N549 C542 1.356 . S
N549 H552 0.984 . S
N549 H553 0.985 . S
H550 N545 0.984 . S
H551 N545 0.985 . S
H552 N549 0.984 . S
H553 N549 0.985 . S
H554 N548 0.984 . S
H555 N548 0.984 . S
H556 N544 0.984 . S
H557 N544 0.985 . S
C558 C559 1.363 . S
C558 C564 1.379 . S
C558 N566 1.356 . S
C559 C558 1.363 . S
C559 C565 1.363 . S
C560 C561 1.363 . S
C560 C565 1.379 . S
C560 N567 1.356 . S
C561 C560 1.363 . S
C561 C564 1.363 . S
N562 C564 1.356 . S
N562 H574 0.984 . S
N562 H575 0.985 . S
N563 C565 1.356 . S
N563 H568 0.984 . S
N563 H569 0.985 . S
C564 C558 1.379 . S
C564 C561 1.363 . S
C564 N562 1.356 . S
C565 C559 1.363 . S
C565 C560 1.379 . S
C565 N563 1.356 . S
N566 C558 1.356 . S
N566 H572 0.984 . S
N566 H573 0.984 . S
N567 C560 1.356 . S
N567 H570 0.984 . S
N567 H571 0.985 . S
H568 N563 0.984 . S
H569 N563 0.985 . S
H570 N567 0.984 . S
H571 N567 0.985 . S
H572 N566 0.984 . S
H573 N566 0.984 . S
H574 N562 0.984 . S
H575 N562 0.985 . S
C576 C577 1.363 . S
C576 C582 1.379 . S
C576 N584 1.356 . S
C577 C576 1.363 . S
C577 C583 1.363 . S
C578 C579 1.363 . S
C578 C583 1.379 . S
C578 N585 1.356 . S
C579 C578 1.363 . S
C579 C582 1.363 . S
N580 C582 1.356 . S
N580 H592 0.984 . S
N580 H593 0.985 . S
N581 C583 1.356 . S
N581 H586 0.984 . S
N581 H587 0.985 . S
C582 C576 1.379 . S
C582 C579 1.363 . S
C582 N580 1.356 . S
C583 C577 1.363 . S
C583 C578 1.379 . S
C583 N581 1.356 . S
N584 C576 1.356 . S
N584 H590 0.984 . S
N584 H591 0.984 . S
N585 C578 1.356 . S
N585 H588 0.984 . S
N585 H589 0.985 . S
H586 N581 0.984 . S
H587 N581 0.985 . S
H588 N585 0.984 . S
H589 N585 0.985 . S
H590 N584 0.984 . S
H591 N584 0.984 . S
H592 N580 0.984 . S
H593 N580 0.985 . S
C594 C595 1.363 . S
C594 C600 1.379 . S
C594 N602 1.356 . S
C595 C594 1.363 . S
C595 C601 1.363 . S
C596 C597 1.363 . S
C596 C601 1.379 . S
C596 N603 1.356 . S
C597 C596 1.363 . S
C597 C600 1.363 . S
N598 C600 1.356 . S
N598 H610 0.984 . S
N598 H611 0.985 . S
N599 C601 1.356 . S
N599 H604 0.984 . S
N599 H605 0.985 . S
C600 C594 1.379 . S
C600 C597 1.363 . S
C600 N598 1.356 . S
C601 C595 1.363 . S
C601 C596 1.379 . S
C601 N599 1.356 . S
N602 C594 1.356 . S
N602 H608 0.984 . S
N602 H609 0.984 . S
N603 C596 1.356 . S
N603 H606 0.984 . S
N603 H607 0.985 . S
H604 N599 0.984 . S
H605 N599 0.985 . S
H606 N603 0.984 . S
H607 N603 0.985 . S
H608 N602 0.984 . S
H609 N602 0.984 . S
H610 N598 0.984 . S
H611 N598 0.985 . S
C612 C613 1.363 . S
C612 C618 1.379 . S
C612 N620 1.356 . S
C613 C612 1.363 . S
C613 C619 1.363 . S
C614 C615 1.363 . S
C614 C619 1.379 . S
C614 N621 1.356 . S
C615 C614 1.363 . S
C615 C618 1.363 . S
N616 C618 1.356 . S
N616 H628 0.984 . S
N616 H629 0.985 . S
N617 C619 1.356 . S
N617 H622 0.984 . S
N617 H623 0.985 . S
C618 C612 1.379 . S
C618 C615 1.363 . S
C618 N616 1.356 . S
C619 C613 1.363 . S
C619 C614 1.379 . S
C619 N617 1.356 . S
N620 C612 1.356 . S
N620 H626 0.984 . S
N620 H627 0.984 . S
N621 C614 1.356 . S
N621 H624 0.984 . S
N621 H625 0.985 . S
H622 N617 0.984 . S
H623 N617 0.985 . S
H624 N621 0.984 . S
H625 N621 0.985 . S
H626 N620 0.984 . S
H627 N620 0.984 . S
H628 N616 0.984 . S
H629 N616 0.985 . S
C630 C631 1.363 . S
C630 C636 1.379 . S
C630 N638 1.356 . S
C631 C630 1.363 . S
C631 C637 1.363 . S
C632 C633 1.363 . S
C632 C637 1.379 . S
C632 N639 1.356 . S
C633 C632 1.363 . S
C633 C636 1.363 . S
N634 C636 1.356 . S
N634 H646 0.984 . S
N634 H647 0.985 . S
N635 C637 1.356 . S
N635 H640 0.984 . S
N635 H641 0.985 . S
C636 C630 1.379 . S
C636 C633 1.363 . S
C636 N634 1.356 . S
C637 C631 1.363 . S
C637 C632 1.379 . S
C637 N635 1.356 . S
N638 C630 1.356 . S
N638 H644 0.984 . S
N638 H645 0.984 . S
N639 C632 1.356 . S
N639 H642 0.984 . S
N639 H643 0.985 . S
H640 N635 0.984 . S
H641 N635 0.985 . S
H642 N639 0.984 . S
H643 N639 0.985 . S
H644 N638 0.984 . S
H645 N638 0.984 . S
H646 N634 0.984 . S
H647 N634 0.985 . S
C648 C649 1.363 . S
C648 C654 1.379 . S
C648 N656 1.356 . S
C649 C648 1.363 . S
C649 C655 1.363 . S
C650 C651 1.363 . S
C650 C655 1.379 . S
C650 N657 1.356 . S
C651 C650 1.363 . S
C651 C654 1.363 . S
N652 C654 1.356 . S
N652 H664 0.984 . S
N652 H665 0.985 . S
N653 C655 1.356 . S
N653 H658 0.984 . S
N653 H659 0.985 . S
C654 C648 1.379 . S
C654 C651 1.363 . S
C654 N652 1.356 . S
C655 C649 1.363 . S
C655 C650 1.379 . S
C655 N653 1.356 . S
N656 C648 1.356 . S
N656 H662 0.984 . S
N656 H663 0.984 . S
N657 C650 1.356 . S
N657 H660 0.984 . S
N657 H661 0.985 . S
H658 N653 0.984 . S
H659 N653 0.985 . S
H660 N657 0.984 . S
H661 N657 0.985 . S
H662 N656 0.984 . S
H663 N656 0.984 . S
H664 N652 0.984 . S
H665 N652 0.985 . S
C666 C667 1.363 . S
C666 C672 1.379 . S
C666 N674 1.356 . S
C667 C666 1.363 . S
C667 C673 1.363 . S
C668 C669 1.363 . S
C668 C673 1.379 . S
C668 N675 1.356 . S
C669 C668 1.363 . S
C669 C672 1.363 . S
N670 C672 1.356 . S
N670 H682 0.984 . S
N670 H683 0.985 . S
N671 C673 1.356 . S
N671 H676 0.984 . S
N671 H677 0.985 . S
C672 C666 1.379 . S
C672 C669 1.363 . S
C672 N670 1.356 . S
C673 C667 1.363 . S
C673 C668 1.379 . S
C673 N671 1.356 . S
N674 C666 1.356 . S
N674 H680 0.984 . S
N674 H681 0.984 . S
N675 C668 1.356 . S
N675 H678 0.984 . S
N675 H679 0.985 . S
H676 N671 0.984 . S
H677 N671 0.985 . S
H678 N675 0.984 . S
H679 N675 0.985 . S
H680 N674 0.984 . S
H681 N674 0.984 . S
H682 N670 0.984 . S
H683 N670 0.985 . S
C684 C685 1.363 . S
C684 C690 1.379 . S
C684 N692 1.356 . S
C685 C684 1.363 . S
C685 C691 1.363 . S
C686 C687 1.363 . S
C686 C691 1.379 . S
C686 N693 1.356 . S
C687 C686 1.363 . S
C687 C690 1.363 . S
N688 C690 1.356 . S
N688 H700 0.984 . S
N688 H701 0.985 . S
N689 C691 1.356 . S
N689 H694 0.984 . S
N689 H695 0.985 . S
C690 C684 1.379 . S
C690 C687 1.363 . S
C690 N688 1.356 . S
C691 C685 1.363 . S
C691 C686 1.379 . S
C691 N689 1.356 . S
N692 C684 1.356 . S
N692 H698 0.984 . S
N692 H699 0.984 . S
N693 C686 1.356 . S
N693 H696 0.984 . S
N693 H697 0.985 . S
H694 N689 0.984 . S
H695 N689 0.985 . S
H696 N693 0.984 . S
H697 N693 0.985 . S
H698 N692 0.984 . S
H699 N692 0.984 . S
H700 N688 0.984 . S
H701 N688 0.985 . S
C702 C703 1.363 . S
C702 C708 1.379 . S
C702 N710 1.356 . S
C703 C702 1.363 . S
C703 C709 1.363 . S
C704 C705 1.363 . S
C704 C709 1.379 . S
C704 N711 1.356 . S
C705 C704 1.363 . S
C705 C708 1.363 . S
N706 C708 1.356 . S
N706 H718 0.984 . S
N706 H719 0.985 . S
N707 C709 1.356 . S
N707 H712 0.984 . S
N707 H713 0.985 . S
C708 C702 1.379 . S
C708 C705 1.363 . S
C708 N706 1.356 . S
C709 C703 1.363 . S
C709 C704 1.379 . S
C709 N707 1.356 . S
N710 C702 1.356 . S
N710 H716 0.984 . S
N710 H717 0.984 . S
N711 C704 1.356 . S
N711 H714 0.984 . S
N711 H715 0.985 . S
H712 N707 0.984 . S
H713 N707 0.985 . S
H714 N711 0.984 . S
H715 N711 0.985 . S
H716 N710 0.984 . S
H717 N710 0.984 . S
H718 N706 0.984 . S
H719 N706 0.985 . S
C720 C721 1.363 . S
C720 C726 1.379 . S
C720 N728 1.356 . S
C721 C720 1.363 . S
C721 C727 1.363 . S
C722 C723 1.363 . S
C722 C727 1.379 . S
C722 N729 1.356 . S
C723 C722 1.363 . S
C723 C726 1.363 . S
N724 C726 1.356 . S
N724 H736 0.984 . S
N724 H737 0.985 . S
N725 C727 1.356 . S
N725 H730 0.984 . S
N725 H731 0.985 . S
C726 C720 1.379 . S
C726 C723 1.363 . S
C726 N724 1.356 . S
C727 C721 1.363 . S
C727 C722 1.379 . S
C727 N725 1.356 . S
N728 C720 1.356 . S
N728 H734 0.984 . S
N728 H735 0.984 . S
N729 C722 1.356 . S
N729 H732 0.984 . S
N729 H733 0.985 . S
H730 N725 0.984 . S
H731 N725 0.985 . S
H732 N729 0.984 . S
H733 N729 0.985 . S
H734 N728 0.984 . S
H735 N728 0.984 . S
H736 N724 0.984 . S
H737 N724 0.985 . S
C738 C739 1.363 . S
C738 C744 1.379 . S
C738 N746 1.356 . S
C739 C738 1.363 . S
C739 C745 1.363 . S
C740 C741 1.363 . S
C740 C745 1.379 . S
C740 N747 1.356 . S
C741 C740 1.363 . S
C741 C744 1.363 . S
N742 C744 1.356 . S
N742 H754 0.984 . S
N742 H755 0.985 . S
N743 C745 1.356 . S
N743 H748 0.984 . S
N743 H749 0.985 . S
C744 C738 1.379 . S
C744 C741 1.363 . S
C744 N742 1.356 . S
C745 C739 1.363 . S
C745 C740 1.379 . S
C745 N743 1.356 . S
N746 C738 1.356 . S
N746 H752 0.984 . S
N746 H753 0.984 . S
N747 C740 1.356 . S
N747 H750 0.984 . S
N747 H751 0.985 . S
H748 N743 0.984 . S
H749 N743 0.985 . S
H750 N747 0.984 . S
H751 N747 0.985 . S
H752 N746 0.984 . S
H753 N746 0.984 . S
H754 N742 0.984 . S
H755 N742 0.985 . S
C756 C757 1.363 . S
C756 C762 1.379 . S
C756 N764 1.356 . S
C757 C756 1.363 . S
C757 C763 1.363 . S
C758 C759 1.363 . S
C758 C763 1.379 . S
C758 N765 1.356 . S
C759 C758 1.363 . S
C759 C762 1.363 . S
N760 C762 1.356 . S
N760 H772 0.984 . S
N760 H773 0.985 . S
N761 C763 1.356 . S
N761 H766 0.984 . S
N761 H767 0.985 . S
C762 C756 1.379 . S
C762 C759 1.363 . S
C762 N760 1.356 . S
C763 C757 1.363 . S
C763 C758 1.379 . S
C763 N761 1.356 . S
N764 C756 1.356 . S
N764 H770 0.984 . S
N764 H771 0.984 . S
N765 C758 1.356 . S
N765 H768 0.984 . S
N765 H769 0.985 . S
H766 N761 0.984 . S
H767 N761 0.985 . S
H768 N765 0.984 . S
H769 N765 0.985 . S
H770 N764 0.984 . S
H771 N764 0.984 . S
H772 N760 0.984 . S
H773 N760 0.985 . S
C774 C775 1.363 . S
C774 C780 1.379 . S
C774 N782 1.356 . S
C775 C774 1.363 . S
C775 C781 1.363 . S
C776 C777 1.363 . S
C776 C781 1.379 . S
C776 N783 1.356 . S
C777 C776 1.363 . S
C777 C780 1.363 . S
N778 C780 1.356 . S
N778 H790 0.984 . S
N778 H791 0.985 . S
N779 C781 1.356 . S
N779 H784 0.984 . S
N779 H785 0.985 . S
C780 C774 1.379 . S
C780 C777 1.363 . S
C780 N778 1.356 . S
C781 C775 1.363 . S
C781 C776 1.379 . S
C781 N779 1.356 . S
N782 C774 1.356 . S
N782 H788 0.984 . S
N782 H789 0.984 . S
N783 C776 1.356 . S
N783 H786 0.984 . S
N783 H787 0.985 . S
H784 N779 0.984 . S
H785 N779 0.985 . S
H786 N783 0.984 . S
H787 N783 0.985 . S
H788 N782 0.984 . S
H789 N782 0.984 . S
H790 N778 0.984 . S
H791 N778 0.985 . S
C792 C793 1.363 . S
C792 C798 1.379 . S
C792 N800 1.356 . S
C793 C792 1.363 . S
C793 C799 1.363 . S
C794 C795 1.363 . S
C794 C799 1.379 . S
C794 N801 1.356 . S
C795 C794 1.363 . S
C795 C798 1.363 . S
N796 C798 1.356 . S
N796 H808 0.984 . S
N796 H809 0.985 . S
N797 C799 1.356 . S
N797 H802 0.984 . S
N797 H803 0.985 . S
C798 C792 1.379 . S
C798 C795 1.363 . S
C798 N796 1.356 . S
C799 C793 1.363 . S
C799 C794 1.379 . S
C799 N797 1.356 . S
N800 C792 1.356 . S
N800 H806 0.984 . S
N800 H807 0.984 . S
N801 C794 1.356 . S
N801 H804 0.984 . S
N801 H805 0.985 . S
H802 N797 0.984 . S
H803 N797 0.985 . S
H804 N801 0.984 . S
H805 N801 0.985 . S
H806 N800 0.984 . S
H807 N800 0.984 . S
H808 N796 0.984 . S
H809 N796 0.985 . S
C810 C811 1.363 . S
C810 C816 1.379 . S
C810 N818 1.356 . S
C811 C810 1.363 . S
C811 C817 1.363 . S
C812 C813 1.363 . S
C812 C817 1.379 . S
C812 N819 1.356 . S
C813 C812 1.363 . S
C813 C816 1.363 . S
N814 C816 1.356 . S
N814 H826 0.984 . S
N814 H827 0.985 . S
N815 C817 1.356 . S
N815 H820 0.984 . S
N815 H821 0.985 . S
C816 C810 1.379 . S
C816 C813 1.363 . S
C816 N814 1.356 . S
C817 C811 1.363 . S
C817 C812 1.379 . S
C817 N815 1.356 . S
N818 C810 1.356 . S
N818 H824 0.984 . S
N818 H825 0.984 . S
N819 C812 1.356 . S
N819 H822 0.984 . S
N819 H823 0.985 . S
H820 N815 0.984 . S
H821 N815 0.985 . S
H822 N819 0.984 . S
H823 N819 0.985 . S
H824 N818 0.984 . S
H825 N818 0.984 . S
H826 N814 0.984 . S
H827 N814 0.985 . S
C399 C324 1.516 . S
C397 C16 1.517 . S
C417 C327 1.503 . S
C415 C55 1.505 . S
C435 C325 1.509 . S
C433 C99 1.511 . S
C453 C326 1.501 . S
C451 C138 1.501 . S
C471 C341 1.510 . S
C469 C1 1.512 . S
C489 C355 1.502 . S
C487 C40 1.505 . S
C505 C94 1.506 . S
C507 C381 1.506 . S
C525 C395 1.501 . S
C523 C133 1.505 . S
C543 C340 1.502 . S
C541 C60 1.500 . S
C559 C79 1.511 . S
C561 C354 1.508 . S
C579 C380 1.501 . S
C577 C118 1.500 . S
C597 C394 1.508 . S
C595 C21 1.510 . S
C613 C177 1.505 . S
C615 C339 1.503 . S
C633 C312 1.509 . S
C631 C211 1.511 . S
C649 C255 1.503 . S
C651 C338 1.503 . S
C667 C289 1.515 . S
C669 C313 1.513 . S
C687 C368 1.502 . S
C685 C157 1.502 . S
C705 C382 1.507 . S
C703 C196 1.511 . S
C723 C352 1.505 . S
C721 C250 1.506 . S
C739 C294 1.506 . S
C741 C366 1.504 . S
C759 C369 1.503 . S
C757 C216 1.504 . S
C777 C383 1.503 . S
C775 C235 1.505 . S
C795 C353 1.509 . S
C793 C274 1.510 . S
C811 C172 1.508 . S
C813 C367 1.505 . S
