# Generated by pormake.
# Topology pyr, (3,6)-cn, num edge types: 1
# Building blocks:
#     Node 0, Type 0, BuildingBlock: BELTOD_clean_linker_0, # of connection points: 3
#     Node 1, Type 0, BuildingBlock: BELTOD_clean_linker_0, # of connection points: 3
#     Node 2, Type 0, BuildingBlock: BELTOD_clean_linker_0, # of connection points: 3
#     Node 3, Type 0, BuildingBlock: BELTOD_clean_linker_0, # of connection points: 3
#     Node 4, Type 0, BuildingBlock: BELTOD_clean_linker_0, # of connection points: 3
#     Node 5, Type 0, BuildingBlock: BELTOD_clean_linker_0, # of connection points: 3
#     Node 6, Type 0, BuildingBlock: BELTOD_clean_linker_0, # of connection points: 3
#     Node 7, Type 0, BuildingBlock: BELTOD_clean_linker_0, # of connection points: 3
#     Node 8, Type 1, BuildingBlock: GEDQOX_clean_sbu_0, # of connection points: 6
#     Node 9, Type 1, BuildingBlock: GEDQOX_clean_sbu_0, # of connection points: 6
#     Node 10, Type 1, BuildingBlock: GEDQOX_clean_sbu_0, # of connection points: 6
#     Node 11, Type 1, BuildingBlock: GEDQOX_clean_sbu_0, # of connection points: 6
#     Edge 12, Type (0, 1), BuildingBlock: TEMPAE_clean_linker_10, # of connection points: 2
#     Edge 13, Type (0, 1), BuildingBlock: TEMPAE_clean_linker_10, # of connection points: 2
#     Edge 14, Type (0, 1), BuildingBlock: TEMPAE_clean_linker_10, # of connection points: 2
#     Edge 15, Type (0, 1), BuildingBlock: TEMPAE_clean_linker_10, # of connection points: 2
#     Edge 16, Type (0, 1), BuildingBlock: TEMPAE_clean_linker_10, # of connection points: 2
#     Edge 17, Type (0, 1), BuildingBlock: TEMPAE_clean_linker_10, # of connection points: 2
#     Edge 18, Type (0, 1), BuildingBlock: TEMPAE_clean_linker_10, # of connection points: 2
#     Edge 19, Type (0, 1), BuildingBlock: TEMPAE_clean_linker_10, # of connection points: 2
#     Edge 20, Type (0, 1), BuildingBlock: TEMPAE_clean_linker_10, # of connection points: 2
#     Edge 21, Type (0, 1), BuildingBlock: TEMPAE_clean_linker_10, # of connection points: 2
#     Edge 22, Type (0, 1), BuildingBlock: TEMPAE_clean_linker_10, # of connection points: 2
#     Edge 23, Type (0, 1), BuildingBlock: TEMPAE_clean_linker_10, # of connection points: 2
#     Edge 24, Type (0, 1), BuildingBlock: TEMPAE_clean_linker_10, # of connection points: 2
#     Edge 25, Type (0, 1), BuildingBlock: TEMPAE_clean_linker_10, # of connection points: 2
#     Edge 26, Type (0, 1), BuildingBlock: TEMPAE_clean_linker_10, # of connection points: 2
#     Edge 27, Type (0, 1), BuildingBlock: TEMPAE_clean_linker_10, # of connection points: 2
#     Edge 28, Type (0, 1), BuildingBlock: TEMPAE_clean_linker_10, # of connection points: 2
#     Edge 29, Type (0, 1), BuildingBlock: TEMPAE_clean_linker_10, # of connection points: 2
#     Edge 30, Type (0, 1), BuildingBlock: TEMPAE_clean_linker_10, # of connection points: 2
#     Edge 31, Type (0, 1), BuildingBlock: TEMPAE_clean_linker_10, # of connection points: 2
#     Edge 32, Type (0, 1), BuildingBlock: TEMPAE_clean_linker_10, # of connection points: 2
#     Edge 33, Type (0, 1), BuildingBlock: TEMPAE_clean_linker_10, # of connection points: 2
#     Edge 34, Type (0, 1), BuildingBlock: TEMPAE_clean_linker_10, # of connection points: 2
#     Edge 35, Type (0, 1), BuildingBlock: TEMPAE_clean_linker_10, # of connection points: 2
# Relax obj value: 0.111
# Max RMSD: 0.158
# Mean RMSD: 0.060
data_MOF--net-pyr--node1-GEDQOX_clean_sbu_0--node2-BELTOD_clean_linker_0--edge1-TEMPAE_clean_linker_10
_symmetry_space_group_name_H-M    P1
_symmetry_Int_Tables_number       1
_symmetry_cell_setting            triclinic
loop_
_symmetry_equiv_pos_as_xyz
'x, y, z'
_cell_length_a     46.070555
_cell_length_b     46.002968
_cell_length_c     40.117245
_cell_angle_alpha  88.340896
_cell_angle_beta   92.527512
_cell_angle_gamma 87.740584
loop_
_atom_site_label
_atom_site_type_symbol
_atom_site_fract_x
_atom_site_fract_y
_atom_site_fract_z
_atom_type_partial_charge
P0 P 0.20164 0.19848 0.19419 0.0
H1 H 0.24203 0.21518 0.14164 0.0
H2 H 0.2828 0.19041 0.11615 0.0
H3 H 0.26515 0.11139 0.17109 0.0
H4 H 0.22327 0.13598 0.19447 0.0
H5 H 0.16405 0.24512 0.21922 0.0
H6 H 0.13817 0.28826 0.19455 0.0
H7 H 0.16487 0.26382 0.09709 0.0
H8 H 0.18994 0.21981 0.12217 0.0
H9 H 0.21845 0.15876 0.25161 0.0
H10 H 0.13782 0.1906 0.2031 0.0
O11 O 0.22351 0.21633 0.21999 0.0
H12 H 0.19186 0.13437 0.29483 0.0
H13 H 0.11085 0.1674 0.24717 0.0
C14 C 0.22828 0.17764 0.16948 0.0
C15 C 0.24615 0.19221 0.14734 0.0
C16 C 0.27031 0.17789 0.1332 0.0
C17 C 0.27842 0.14836 0.14123 0.0
C18 C 0.26014 0.13377 0.16324 0.0
C19 C 0.23573 0.14806 0.17698 0.0
C20 C 0.1792 0.22862 0.17293 0.0
C21 C 0.16411 0.24867 0.19242 0.0
C22 C 0.14947 0.2739 0.17811 0.0
C23 C 0.14938 0.28054 0.14347 0.0
C24 C 0.16398 0.25995 0.12375 0.0
C25 C 0.17863 0.23451 0.1382 0.0
C26 C 0.1805 0.17649 0.22333 0.0
C27 C 0.19492 0.1603 0.24991 0.0
C28 C 0.17945 0.14662 0.27526 0.0
C29 C 0.14873 0.14881 0.27553 0.0
C30 C 0.1343 0.16459 0.24833 0.0
C31 C 0.14986 0.17812 0.22278 0.0
P32 P 0.38585 0.8142 0.71118 0.0
H33 H 0.42626 0.859 0.72824 0.0
H34 H 0.44094 0.88062 0.78052 0.0
H35 H 0.38864 0.82059 0.83406 0.0
H36 H 0.37348 0.79917 0.78088 0.0
H37 H 0.43905 0.79754 0.67891 0.0
H38 H 0.45791 0.75101 0.65952 0.0
H39 H 0.38845 0.70735 0.70674 0.0
H40 H 0.37024 0.75409 0.72701 0.0
H41 H 0.33781 0.84318 0.7454 0.0
H42 H 0.34827 0.78396 0.66493 0.0
O43 O 0.39517 0.83736 0.68106 0.0
H44 H 0.28541 0.84697 0.73235 0.0
H45 H 0.29601 0.78748 0.65206 0.0
C46 C 0.39841 0.8278 0.75065 0.0
C47 C 0.41799 0.85031 0.75115 0.0
C48 C 0.42659 0.86254 0.78121 0.0
C49 C 0.41598 0.85235 0.81154 0.0
C50 C 0.39695 0.82912 0.81109 0.0
C51 C 0.38839 0.81679 0.78082 0.0
C52 C 0.40281 0.77929 0.70353 0.0
C53 C 0.42814 0.77791 0.68554 0.0
C54 C 0.43876 0.75131 0.67426 0.0
C55 C 0.4242 0.72559 0.68079 0.0
C56 C 0.40008 0.72677 0.70113 0.0
C57 C 0.38959 0.75347 0.71262 0.0
C58 C 0.34691 0.81264 0.70674 0.0
C59 C 0.32879 0.83019 0.72573 0.0
C60 C 0.29881 0.83236 0.71825 0.0
C61 C 0.28667 0.81746 0.69124 0.0
C62 C 0.30479 0.79922 0.67299 0.0
C63 C 0.33465 0.79702 0.68052 0.0
P64 P 0.76607 0.36028 0.79616 0.0
H65 H 0.80915 0.3393 0.8467 0.0
H66 H 0.84351 0.36376 0.88343 0.0
H67 H 0.80771 0.4472 0.84585 0.0
H68 H 0.77299 0.42256 0.80967 0.0
H69 H 0.74763 0.30306 0.77709 0.0
H70 H 0.71636 0.26811 0.80298 0.0
H71 H 0.70745 0.32408 0.88696 0.0
H72 H 0.73949 0.35859 0.8612 0.0
H73 H 0.77386 0.40129 0.74073 0.0
H74 H 0.70264 0.37133 0.7971 0.0
O75 O 0.78812 0.3436 0.77019 0.0
H76 H 0.73937 0.42923 0.70289 0.0
H77 H 0.66825 0.3978 0.75886 0.0
C78 C 0.78859 0.37909 0.82549 0.0
C79 C 0.80846 0.36287 0.84672 0.0
C80 C 0.82818 0.37686 0.86753 0.0
C81 C 0.82847 0.40741 0.86735 0.0
C82 C 0.80785 0.42364 0.84677 0.0
C83 C 0.78809 0.40956 0.82591 0.0
C84 C 0.74631 0.33306 0.81756 0.0
C85 C 0.73944 0.3075 0.80139 0.0
C86 C 0.72127 0.28772 0.81606 0.0
C87 C 0.70928 0.29338 0.84697 0.0
C88 C 0.71664 0.31888 0.86337 0.0
C89 C 0.73495 0.33861 0.8487 0.0
C90 C 0.74088 0.38388 0.77144 0.0
C91 C 0.75084 0.40085 0.74507 0.0
C92 C 0.73107 0.41662 0.72333 0.0
C93 C 0.70094 0.41552 0.72751 0.0
C94 C 0.69124 0.39948 0.75496 0.0
C95 C 0.71101 0.384 0.77681 0.0
P96 P 0.78225 0.85887 0.26665 0.0
H97 H 0.831 0.8954 0.25175 0.0
H98 H 0.86503 0.92176 0.28736 0.0
H99 H 0.81975 0.89444 0.3742 0.0
H100 H 0.78603 0.86835 0.33874 0.0
H101 H 0.76123 0.83267 0.20581 0.0
H102 H 0.78257 0.79556 0.17113 0.0
H103 H 0.86489 0.80154 0.22616 0.0
H104 H 0.84277 0.83703 0.26206 0.0
H105 H 0.72124 0.84343 0.27089 0.0
H106 H 0.80492 0.81365 0.31395 0.0
O107 O 0.75766 0.88207 0.2477 0.0
H108 H 0.69832 0.8036 0.30006 0.0
H109 H 0.78216 0.77439 0.34411 0.0
C110 C 0.80667 0.87901 0.29268 0.0
C111 C 0.82856 0.89499 0.27848 0.0
C112 C 0.84787 0.91013 0.2988 0.0
C113 C 0.84536 0.90971 0.33363 0.0
C114 C 0.82272 0.89451 0.34755 0.0
C115 C 0.8034 0.87955 0.32724 0.0
C116 C 0.80056 0.83816 0.23598 0.0
C117 C 0.78409 0.82653 0.20977 0.0
C118 C 0.79638 0.80529 0.1899 0.0
C119 C 0.82547 0.79534 0.19589 0.0
C120 C 0.8423 0.80827 0.22115 0.0
C121 C 0.8298 0.82907 0.24139 0.0
C122 C 0.76466 0.8318 0.29088 0.0
C123 C 0.73459 0.82866 0.28716 0.0
C124 C 0.72152 0.80588 0.3039 0.0
C125 C 0.73839 0.7858 0.32449 0.0
C126 C 0.76856 0.78922 0.32817 0.0
C127 C 0.78157 0.81185 0.31127 0.0
P128 P 0.84793 0.87668 0.89173 0.0
H129 H 0.80757 0.85695 0.943 0.0
H130 H 0.76059 0.87598 0.96094 0.0
H131 H 0.75592 0.93772 0.87763 0.0
H132 H 0.80315 0.9188 0.86039 0.0
H133 H 0.90732 0.85372 0.9066 0.0
H134 H 0.92944 0.80654 0.92496 0.0
H135 H 0.84536 0.76867 0.91726 0.0
H136 H 0.82314 0.81657 0.89896 0.0
H137 H 0.87215 0.93317 0.87335 0.0
H138 H 0.85351 0.85467 0.82209 0.0
O139 O 0.86455 0.89579 0.92116 0.0
H140 H 0.89392 0.95303 0.82373 0.0
H141 H 0.87506 0.87486 0.77157 0.0
C142 C 0.80907 0.88541 0.89938 0.0
C143 C 0.79609 0.87394 0.92785 0.0
C144 C 0.76894 0.88518 0.93833 0.0
C145 C 0.75365 0.90882 0.92113 0.0
C146 C 0.76658 0.91991 0.89223 0.0
C147 C 0.79371 0.90861 0.88178 0.0
C148 C 0.86332 0.83931 0.9014 0.0
C149 C 0.89345 0.83535 0.90864 0.0
C150 C 0.90619 0.80811 0.91952 0.0
C151 C 0.88944 0.78328 0.92328 0.0
C152 C 0.85926 0.78697 0.91481 0.0
C153 C 0.84638 0.81455 0.90425 0.0
C154 C 0.86119 0.89204 0.85217 0.0
C155 C 0.87257 0.92005 0.8514 0.0
C156 C 0.8853 0.9315 0.82273 0.0
C157 C 0.88684 0.91566 0.79321 0.0
C158 C 0.87443 0.88795 0.79354 0.0
C159 C 0.86199 0.87627 0.82259 0.0
P160 P 0.70813 0.29409 0.23278 0.0
H161 H 0.66137 0.33815 0.22039 0.0
H162 H 0.63221 0.36753 0.25752 0.0
H163 H 0.6774 0.32441 0.34303 0.0
H164 H 0.70565 0.29473 0.306 0.0
H165 H 0.76499 0.31738 0.24831 0.0
H166 H 0.80686 0.29896 0.28346 0.0
H167 H 0.762 0.22019 0.30461 0.0
H168 H 0.72073 0.23842 0.26888 0.0
H169 H 0.6602 0.25931 0.25536 0.0
H170 H 0.71324 0.26501 0.16971 0.0
O171 O 0.71841 0.31663 0.20257 0.0
H172 H 0.63488 0.21882 0.23067 0.0
H173 H 0.68761 0.2251 0.14444 0.0
C174 C 0.68601 0.31464 0.26037 0.0
C175 C 0.66488 0.33502 0.24715 0.0
C176 C 0.64834 0.35187 0.2684 0.0
C177 C 0.65262 0.3485 0.30328 0.0
C178 C 0.67334 0.32743 0.31634 0.0
C179 C 0.68976 0.31057 0.29508 0.0
C180 C 0.74006 0.279 0.2554 0.0
C181 C 0.76447 0.2959 0.26 0.0
C182 C 0.78825 0.28547 0.28036 0.0
C183 C 0.78783 0.25806 0.29678 0.0
C184 C 0.76332 0.24113 0.29182 0.0
C185 C 0.73963 0.25155 0.27139 0.0
C186 C 0.68817 0.26549 0.21401 0.0
C187 C 0.66609 0.25212 0.23101 0.0
C188 C 0.65163 0.22898 0.21684 0.0
C189 C 0.65915 0.21874 0.18551 0.0
C190 C 0.68147 0.23219 0.16875 0.0
C191 C 0.69594 0.25523 0.18299 0.0
P192 P 0.36081 0.59315 0.13468 0.0
H193 H 0.3267 0.55135 0.09778 0.0
H194 H 0.27475 0.54541 0.08925 0.0
H195 H 0.25785 0.62228 0.14621 0.0
H196 H 0.31009 0.62653 0.15679 0.0
H197 H 0.41913 0.60902 0.11989 0.0
H198 H 0.43954 0.65494 0.10292 0.0
H199 H 0.35277 0.69374 0.08819 0.0
H200 H 0.33257 0.64794 0.10588 0.0
H201 H 0.35591 0.5502 0.18877 0.0
H202 H 0.38542 0.63776 0.17814 0.0
O203 O 0.37824 0.56409 0.11993 0.0
H204 H 0.37394 0.54821 0.24735 0.0
H205 H 0.40402 0.63545 0.23599 0.0
C206 C 0.32225 0.58952 0.12773 0.0
C207 C 0.31182 0.56687 0.10856 0.0
C208 C 0.28194 0.56369 0.10339 0.0
C209 C 0.26178 0.5835 0.11673 0.0
C210 C 0.2725 0.60629 0.1359 0.0
C211 C 0.30242 0.60899 0.1417 0.0
C212 C 0.37435 0.62497 0.11427 0.0
C213 C 0.40447 0.6272 0.1122 0.0
C214 C 0.41612 0.65352 0.10243 0.0
C215 C 0.3978 0.67814 0.09445 0.0
C216 C 0.3675 0.67533 0.09476 0.0
C217 C 0.35588 0.649 0.10474 0.0
C218 C 0.3698 0.59383 0.17883 0.0
C219 C 0.36591 0.56907 0.19909 0.0
C220 C 0.37612 0.56799 0.2325 0.0
C221 C 0.39061 0.59159 0.24595 0.0
C222 C 0.39322 0.61686 0.22604 0.0
C223 C 0.38264 0.61809 0.19286 0.0
P224 P 0.25235 0.20825 0.78057 0.0
H225 H 0.25045 0.14841 0.75905 0.0
H226 H 0.21424 0.12203 0.72714 0.0
H227 H 0.15604 0.19814 0.72409 0.0
H228 H 0.1926 0.22456 0.75572 0.0
H229 H 0.31391 0.21792 0.77091 0.0
H230 H 0.33836 0.25094 0.73364 0.0
H231 H 0.2555 0.2767 0.68462 0.0
H232 H 0.23124 0.24462 0.72275 0.0
H233 H 0.19934 0.213 0.81953 0.0
H234 H 0.27808 0.25942 0.80838 0.0
O235 O 0.2759 0.1848 0.80091 0.0
H236 H 0.18161 0.25032 0.85696 0.0
H237 H 0.26067 0.29637 0.84568 0.0
C238 C 0.22403 0.18826 0.76036 0.0
C239 C 0.22972 0.15929 0.75204 0.0
C240 C 0.20895 0.1442 0.73383 0.0
C241 C 0.18218 0.15794 0.72324 0.0
C242 C 0.17649 0.18699 0.73175 0.0
C243 C 0.19729 0.20203 0.75007 0.0
C244 C 0.27078 0.22836 0.74927 0.0
C245 C 0.30109 0.23024 0.75172 0.0
C246 C 0.31505 0.24915 0.73034 0.0
C247 C 0.29889 0.26656 0.70616 0.0
C248 C 0.26858 0.26393 0.70324 0.0
C249 C 0.25467 0.24522 0.72479 0.0
C250 C 0.23951 0.23407 0.81002 0.0
C251 C 0.21273 0.23124 0.82489 0.0
C252 C 0.20269 0.25247 0.84641 0.0
C253 C 0.21968 0.27636 0.85402 0.0
C254 C 0.24714 0.27817 0.84043 0.0
C255 C 0.25697 0.25718 0.81876 0.0
Nd256 Nd 0.02968 1.00466 0.52591 0.0
Nd257 Nd 0.99662 0.05922 0.53599 0.0
C258 C 0.04835 0.95005 0.52021 0.0
C259 C 0.06157 0.92866 0.54467 0.0
C260 C 0.07634 0.90371 0.53389 0.0
C261 C 0.0937 0.88627 0.55659 0.0
C262 C 0.09666 0.89377 0.59029 0.0
C263 C 0.08029 0.91777 0.60132 0.0
C264 C 0.06289 0.9351 0.57866 0.0
C265 C 0.05927 0.04209 0.56599 0.0
C266 C 0.98569 1.0074 0.59015 0.0
C267 C 0.97752 0.11373 0.54177 0.0
C268 C 0.96518 0.13579 0.51748 0.0
C269 C 0.9465 0.15812 0.52799 0.0
C270 C 0.93093 0.17636 0.50448 0.0
C271 C 0.93378 0.17245 0.4701 0.0
C272 C 0.9536 0.15086 0.45976 0.0
C273 C 0.96907 0.1326 0.48326 0.0
C274 C 0.9672 0.02182 0.49574 0.0
C275 C 0.04089 0.05632 0.47192 0.0
O276 O 1.02102 0.95758 0.52383 0.0
O277 O 0.06426 0.97234 0.51432 0.0
O278 O 0.07145 0.02594 0.54429 0.0
O279 O 0.03271 0.03706 0.56752 0.0
O280 O 0.9992 0.9908 0.56864 0.0
O281 O 0.98509 0.03606 0.58565 0.0
O282 O 1.00504 0.10625 0.53941 0.0
O283 O 0.96139 0.09137 0.54621 0.0
O284 O 0.95497 0.03782 0.51754 0.0
O285 O 0.99374 0.02694 0.49428 0.0
O286 O 0.02767 0.07299 0.49363 0.0
O287 O 0.04092 0.02767 0.47614 0.0
H288 H 0.07572 0.89862 0.50767 0.0
H289 H 0.10632 0.8681 0.54733 0.0
H290 H 0.08204 0.92391 0.62718 0.0
H291 H 0.05171 0.95442 0.58736 0.0
H292 H 0.9431 0.16072 0.5543 0.0
H293 H 0.91603 0.19299 0.51317 0.0
H294 H 0.95602 0.14706 0.43349 0.0
H295 H 0.9831 0.11518 0.47465 0.0
Nd296 Nd 0.51535 1.0054 0.05741 0.0
Nd297 Nd 0.51118 0.04187 1.00326 0.0
C298 C 0.51931 0.95953 0.09933 0.0
C299 C 0.5118 0.92886 0.09717 0.0
C300 C 0.51281 0.91454 0.06678 0.0
C301 C 0.50291 0.88633 0.06425 0.0
C302 C 0.49186 0.87198 0.09208 0.0
C303 C 0.49167 0.8861 0.12271 0.0
C304 C 0.50149 0.91435 0.12518 0.0
C305 C 0.4695 0.04644 0.06476 0.0
C306 C 0.47843 0.98534 0.99203 0.0
C307 C 0.50693 0.0872 0.96082 0.0
C308 C 0.52758 0.10908 0.95139 0.0
C309 C 0.51848 0.1328 0.93035 0.0
C310 C 0.53823 0.15372 0.92158 0.0
C311 C 0.56738 0.15111 0.93374 0.0
C312 C 0.57627 0.12737 0.95513 0.0
C313 C 0.55651 0.10654 0.96391 0.0
C314 C 0.55816 1.00195 0.99631 0.0
C315 C 0.54948 0.06241 0.06864 0.0
O316 O 0.54073 0.96794 0.08167 0.0
O317 O 0.49735 0.97829 0.09763 0.0
O318 O 0.49003 0.03958 0.08709 0.0
O319 O 0.47437 0.03287 0.03811 0.0
O320 O 0.49724 0.97634 0.01603 0.0
O321 O 0.47496 1.0133 0.98536 0.0
O322 O 0.49872 0.08818 0.99149 0.0
O323 O 0.51318 0.06071 0.95193 0.0
O324 O 0.53817 1.00899 0.97351 0.0
O325 O 0.55246 1.0152 0.02291 0.0
O326 O 0.53519 0.07049 0.04064 0.0
O327 O 0.54783 0.03576 0.08064 0.0
H328 H 0.52077 0.92531 0.04483 0.0
H329 H 0.50373 0.8758 0.04051 0.0
H330 H 0.48304 0.87566 0.14449 0.0
H331 H 0.50038 0.92514 0.14877 0.0
H332 H 0.49617 0.13508 0.92061 0.0
H333 H 0.53085 0.17164 0.90481 0.0
H334 H 0.59846 0.125 0.96522 0.0
H335 H 0.5638 0.08842 0.98045 0.0
Nd336 Nd 0.49989 0.49733 0.50981 0.0
Nd337 Nd 0.55023 0.53648 0.50868 0.0
C338 C 0.44923 0.47199 0.50741 0.0
C339 C 0.43249 0.45411 0.52986 0.0
C340 C 0.40307 0.44992 0.52206 0.0
C341 C 0.38746 0.43117 0.54191 0.0
C342 C 0.40113 0.41622 0.56981 0.0
C343 C 0.43053 0.42111 0.57793 0.0
C344 C 0.44605 0.43996 0.55817 0.0
C345 C 0.54423 0.4807 0.55557 0.0
C346 C 0.49998 0.55437 0.55597 0.0
C347 C 0.60047 0.5626 0.50978 0.0
C348 C 0.61593 0.58191 0.48757 0.0
C349 C 0.64563 0.58589 0.49376 0.0
C350 C 0.66013 0.60583 0.47427 0.0
C351 C 0.64508 0.62224 0.44834 0.0
C352 C 0.6154 0.61755 0.44172 0.0
C353 C 0.60097 0.59749 0.46112 0.0
C354 C 0.50573 0.55205 0.46212 0.0
C355 C 0.55147 0.47893 0.46413 0.0
O356 O 0.45199 0.49921 0.51503 0.0
O357 O 0.47338 0.45976 0.49779 0.0
O358 O 0.52766 0.46247 0.54088 0.0
O359 O 0.53531 0.50635 0.54868 0.0
O360 O 0.48357 0.53873 0.53612 0.0
O361 O 0.52849 0.55191 0.55515 0.0
O362 O 0.59766 0.53586 0.50043 0.0
O363 O 0.57675 0.57382 0.52168 0.0
O364 O 0.52102 0.57072 0.47788 0.0
O365 O 0.51544 0.52677 0.4694 0.0
O366 O 0.56732 0.49466 0.48441 0.0
O367 O 0.52287 0.48114 0.46418 0.0
H368 H 0.39228 0.46078 0.50032 0.0
H369 H 0.36474 0.42827 0.53529 0.0
H370 H 0.44182 0.40972 0.59899 0.0
H371 H 0.46882 0.44297 0.56452 0.0
H372 H 0.65749 0.57391 0.51403 0.0
H373 H 0.68309 0.60857 0.47967 0.0
H374 H 0.60308 0.63001 0.42221 0.0
H375 H 0.57799 0.59464 0.456 0.0
Nd376 Nd 0.99793 0.52649 0.05396 0.0
Nd377 Nd 0.04265 0.53531 1.00356 0.0
C378 C 0.94912 0.52817 0.08536 0.0
C379 C 0.93302 0.55442 0.09582 0.0
C380 C 0.90321 0.5587 0.08758 0.0
C381 C 0.88898 0.58551 0.09306 0.0
C382 C 0.90445 0.60846 0.10673 0.0
C383 C 0.93412 0.60376 0.11566 0.0
C384 C 0.94827 0.57718 0.11008 0.0
C385 C 0.04763 0.55082 0.07818 0.0
C386 C 0.99418 0.58843 1.00599 0.0
C387 C 0.09203 0.53654 0.97276 0.0
C388 C 0.11354 0.51335 0.96503 0.0
C389 C 0.1274 0.49544 0.99046 0.0
C390 C 0.14372 0.47055 0.98249 0.0
C391 C 0.14641 0.46303 0.94902 0.0
C392 C 0.13388 0.4819 0.92365 0.0
C393 C 0.11772 0.50685 0.9316 0.0
C394 C 0.99329 0.5108 0.97877 0.0
C395 C 0.04564 0.4732 0.0512 0.0
O396 O 0.94978 0.52532 0.05303 0.0
O397 O 0.97445 0.52239 0.10074 0.0
O398 O 0.03397 0.53135 0.09463 0.0
O399 O 0.03425 0.55762 0.05087 0.0
O400 O 0.98109 0.57017 0.02615 0.0
O401 O 1.02054 0.58147 0.99595 0.0
O402 O 0.08992 0.54284 1.00421 0.0
O403 O 0.06668 0.53535 0.95697 0.0
O404 O 1.00737 0.52999 0.96235 0.0
O405 O 1.00613 0.50394 1.00644 0.0
O406 O 0.05968 0.49214 0.03275 0.0
O407 O 1.01857 0.47966 0.05929 0.0
H408 H 0.89117 0.54164 0.07595 0.0
H409 H 0.86613 0.58854 0.08576 0.0
H410 H 0.94655 0.62074 0.12688 0.0
H411 H 0.9714 0.57479 0.11615 0.0
H412 H 0.12475 0.49995 0.01652 0.0
H413 H 0.15365 0.4568 1.00253 0.0
H414 H 0.1353 0.47666 0.89762 0.0
H415 H 0.10726 0.52031 0.91158 0.0
C416 C 0.14468 0.13239 0.33698 0.0
C417 C 0.13219 0.13529 0.30417 0.0
C418 C 0.12983 0.11977 0.36379 0.0
C419 C 0.10126 0.1097 0.35856 0.0
C420 C 0.08835 0.11273 0.3257 0.0
C421 C 0.10379 0.12523 0.29923 0.0
C422 C 0.14489 0.11722 0.39798 0.0
C423 C 0.05804 0.10261 0.31839 0.0
C424 C 0.07282 0.05294 0.42147 0.0
C425 C 0.05578 0.06997 0.44248 0.0
C426 C 0.08745 0.06541 0.39438 0.0
C427 C 0.08513 0.09592 0.38729 0.0
C428 C 0.06769 0.11319 0.40818 0.0
C429 C 0.0535 0.10018 0.4353 0.0
C430 C 0.10574 0.04581 0.37344 0.0
C431 C 0.06403 0.14565 0.40194 0.0
H432 H 0.16615 0.1404 0.34208 0.0
H433 H 0.09355 0.12667 0.27439 0.0
H434 H 0.13206 0.12953 0.41604 0.0
H435 H 0.14629 0.09411 0.40685 0.0
H436 H 0.16719 0.12558 0.3982 0.0
H437 H 0.05055 0.107 0.29196 0.0
H438 H 0.05735 0.07889 0.32394 0.0
H439 H 0.04255 0.11366 0.33476 0.0
H440 H 0.07506 0.02966 0.4264 0.0
H441 H 0.04049 0.11384 0.45095 0.0
H442 H 0.12861 0.05256 0.37469 0.0
H443 H 0.09788 0.04787 0.34691 0.0
H444 H 0.10531 0.02258 0.38173 0.0
H445 H 0.08548 0.15571 0.40449 0.0
H446 H 0.04913 0.15608 0.4195 0.0
H447 H 0.05536 0.15041 0.37603 0.0
C448 C 0.40282 0.87417 0.86588 0.0
C449 C 0.42399 0.86704 0.84301 0.0
C450 C 0.40945 0.89135 0.89341 0.0
C451 C 0.43781 0.9018 0.89797 0.0
C452 C 0.45958 0.89348 0.8759 0.0
C453 C 0.45244 0.87609 0.84885 0.0
C454 C 0.38576 0.89944 0.91667 0.0
C455 C 0.49015 0.90401 0.87995 0.0
C456 C 0.4508 0.97346 0.93948 0.0
C457 C 0.46442 0.96411 0.97008 0.0
C458 C 0.44091 0.95336 0.91636 0.0
C459 C 0.44446 0.92316 0.92414 0.0
C460 C 0.45672 0.91362 0.95573 0.0
C461 C 0.46665 0.93422 0.9783 0.0
C462 C 0.42809 0.96444 0.88286 0.0
C463 C 0.46032 0.88162 0.96514 0.0
H464 H 0.38075 0.86741 0.86147 0.0
H465 H 0.46906 0.87015 0.8317 0.0
H466 H 0.39363 0.89591 0.94306 0.0
H467 H 0.37956 0.92291 0.91303 0.0
H468 H 0.36604 0.8867 0.91223 0.0
H469 H 0.50489 0.89432 0.86171 0.0
H470 H 0.48979 0.92804 0.87651 0.0
H471 H 0.49929 0.89862 0.90553 0.0
H472 H 0.44895 0.9965 0.93292 0.0
H473 H 0.47683 0.92683 1.00206 0.0
H474 H 0.40679 0.95472 0.8775 0.0
H475 H 0.44269 0.95778 0.86292 0.0
H476 H 0.42499 0.98852 0.88156 0.0
H477 H 0.47495 0.87059 0.9478 0.0
H478 H 0.43902 0.87126 0.96285 0.0
H479 H 0.46949 0.87782 0.991 0.0
C480 C 0.68464 0.4279 0.66808 0.0
C481 C 0.67956 0.42924 0.70227 0.0
C482 C 0.66351 0.43812 0.64383 0.0
C483 C 0.63644 0.44956 0.65396 0.0
C484 C 0.63146 0.45183 0.68836 0.0
C485 C 0.65316 0.44186 0.71208 0.0
C486 C 0.66977 0.43571 0.60736 0.0
C487 C 0.60283 0.46383 0.70013 0.0
C488 C 0.58682 0.49379 0.59169 0.0
C489 C 0.56779 0.47272 0.58058 0.0
C490 C 0.60946 0.48655 0.6154 0.0
C491 C 0.61279 0.45767 0.62858 0.0
C492 C 0.5935 0.43637 0.61748 0.0
C493 C 0.57135 0.44412 0.59335 0.0
C494 C 0.62987 0.50973 0.6262 0.0
C495 C 0.59614 0.40542 0.63123 0.0
H496 H 0.70475 0.41785 0.66013 0.0
H497 H 0.64921 0.44352 0.7384 0.0
H498 H 0.65539 0.41969 0.59573 0.0
H499 H 0.66508 0.45693 0.59396 0.0
H500 H 0.69272 0.4287 0.60364 0.0
H501 H 0.60285 0.46527 0.72772 0.0
H502 H 0.59774 0.48581 0.68879 0.0
H503 H 0.58509 0.44967 0.69192 0.0
H504 H 0.58418 0.51591 0.58159 0.0
H505 H 0.5566 0.42784 0.58477 0.0
H506 H 0.65259 0.50285 0.62122 0.0
H507 H 0.62891 0.5127 0.65347 0.0
H508 H 0.6246 0.53102 0.6131 0.0
H509 H 0.61778 0.39557 0.62602 0.0
H510 H 0.57911 0.39162 0.62037 0.0
H511 H 0.59445 0.40517 0.65875 0.0
C512 C 0.82941 0.76539 0.14448 0.0
C513 C 0.83734 0.76979 0.17813 0.0
C514 C 0.83881 0.74012 0.12854 0.0
C515 C 0.85687 0.71899 0.14654 0.0
C516 C 0.86555 0.72362 0.18018 0.0
C517 C 0.85546 0.74875 0.19561 0.0
C518 C 0.82897 0.73575 0.0927 0.0
C519 C 0.88509 0.70174 0.20015 0.0
C520 C 0.86261 0.63921 0.12595 0.0
C521 C 0.89004 0.63726 0.11221 0.0
C522 C 0.85058 0.66613 0.13523 0.0
C523 C 0.86648 0.69159 0.13084 0.0
C524 C 0.89329 0.69001 0.11498 0.0
C525 C 0.90469 0.66287 0.10579 0.0
C526 C 0.82167 0.66703 0.15156 0.0
C527 C 0.9109 0.71662 0.10969 0.0
H528 H 0.8157 0.78163 0.13062 0.0
H529 H 0.86119 0.75145 0.22179 0.0
H530 H 0.84805 0.73205 0.07722 0.0
H531 H 0.81587 0.71607 0.09117 0.0
H532 H 0.81568 0.75467 0.08186 0.0
H533 H 0.89089 0.70926 0.22557 0.0
H534 H 0.87413 0.68079 0.20261 0.0
H535 H 0.90544 0.69744 0.18701 0.0
H536 H 0.85116 0.61953 0.13102 0.0
H537 H 0.92558 0.6616 0.09437 0.0
H538 H 0.80731 0.68502 0.14044 0.0
H539 H 0.82512 0.67125 0.17851 0.0
H540 H 0.81035 0.64627 0.14911 0.0
H541 H 0.89695 0.73512 0.09912 0.0
H542 H 0.92898 0.71248 0.09277 0.0
H543 H 0.9203 0.72331 0.13409 0.0
C544 C 0.32994 0.14929 0.11788 0.0
C545 C 0.30592 0.13331 0.12768 0.0
C546 C 0.35562 0.13572 0.10586 0.0
C547 C 0.35848 0.10492 0.10374 0.0
C548 C 0.33448 0.08859 0.11344 0.0
C549 C 0.30882 0.10275 0.12483 0.0
C550 C 0.38004 0.15453 0.09576 0.0
C551 C 0.33602 0.05583 0.11225 0.0
C552 C 0.41805 0.06885 0.05001 0.0
C553 C 0.44088 0.06158 0.07369 0.0
C554 C 0.39149 0.08296 0.05917 0.0
C555 C 0.38692 0.08987 0.09305 0.0
C556 C 0.40991 0.08237 0.11695 0.0
C557 C 0.43626 0.06875 0.10707 0.0
C558 C 0.36826 0.09066 0.03239 0.0
C559 C 0.40663 0.08859 0.15335 0.0
H560 H 0.32914 0.17268 0.12016 0.0
H561 H 0.29089 0.08953 0.13137 0.0
H562 H 0.39938 0.14995 0.11283 0.0
H563 H 0.38648 0.14934 0.0702 0.0
H564 H 0.37399 0.17812 0.09634 0.0
H565 H 0.31572 0.04599 0.12024 0.0
H566 H 0.34019 0.04901 0.08654 0.0
H567 H 0.35444 0.04693 0.12872 0.0
H568 H 0.42099 0.06368 0.02416 0.0
H569 H 0.45337 0.06341 0.12591 0.0
H570 H 0.363 0.11443 0.03203 0.0
H571 H 0.34804 0.07952 0.03796 0.0
H572 H 0.37498 0.08449 1.00722 0.0
H573 H 0.40302 0.11231 0.15647 0.0
H574 H 0.42603 0.08098 0.16912 0.0
H575 H 0.38731 0.07778 0.16261 0.0
C576 C 0.24958 0.8307 0.6458 0.0
C577 C 0.25601 0.82361 0.6796 0.0
C578 C 0.22134 0.83934 0.63437 0.0
C579 C 0.19883 0.84068 0.65726 0.0
C580 C 0.20488 0.83238 0.6912 0.0
C581 C 0.23355 0.8242 0.70208 0.0
C582 C 0.21592 0.8484 0.59805 0.0
C583 C 0.18131 0.83302 0.71615 0.0
C584 C 0.13951 0.89639 0.62993 0.0
C585 C 0.11983 0.87931 0.61243 0.0
C586 C 0.16451 0.88379 0.64648 0.0
C587 C 0.16979 0.8533 0.6458 0.0
C588 C 0.14896 0.8357 0.6302 0.0
C589 C 0.1243 0.84897 0.61335 0.0
C590 C 0.18632 0.90341 0.66244 0.0
C591 C 0.15355 0.80306 0.62961 0.0
H592 H 0.26697 0.83068 0.62845 0.0
H593 H 0.23848 0.81854 0.72819 0.0
H594 H 0.19799 0.83604 0.58677 0.0
H595 H 0.20915 0.87183 0.59598 0.0
H596 H 0.23551 0.84486 0.58326 0.0
H597 H 0.18876 0.82257 0.74051 0.0
H598 H 0.17427 0.85589 0.72041 0.0
H599 H 0.16199 0.82179 0.70631 0.0
H600 H 0.13634 0.91988 0.62894 0.0
H601 H 0.10896 0.83571 0.60006 0.0
H602 H 0.20622 0.90329 0.64781 0.0
H603 H 0.19284 0.89535 0.68811 0.0
H604 H 0.17769 0.92623 0.66361 0.0
H605 H 0.17074 0.79749 0.61208 0.0
H606 H 0.13341 0.79224 0.62146 0.0
H607 H 0.16101 0.79414 0.65466 0.0
C608 C 0.88035 0.41162 0.887 0.0
C609 C 0.85136 0.42216 0.88699 0.0
C610 C 0.90261 0.42594 0.90393 0.0
C611 C 0.89575 0.45144 0.92134 0.0
C612 C 0.86646 0.46189 0.92207 0.0
C613 C 0.8446 0.44717 0.90476 0.0
C614 C 0.9336 0.41422 0.90234 0.0
C615 C 0.85832 0.48892 0.94058 0.0
C616 C 0.95374 0.47547 0.98388 0.0
C617 C 0.96753 0.49647 0.96494 0.0
C618 C 0.92976 0.46115 0.97036 0.0
C619 C 0.91954 0.46796 0.93713 0.0
C620 C 0.93308 0.48961 0.91819 0.0
C621 C 0.95686 0.50366 0.93238 0.0
C622 C 0.91574 0.43834 0.99137 0.0
C623 C 0.92289 0.49743 0.88264 0.0
H624 H 0.8858 0.39256 0.8729 0.0
H625 H 0.82219 0.45523 0.9051 0.0
H626 H 0.94671 0.43038 0.88931 0.0
H627 H 0.94351 0.41062 0.9279 0.0
H628 H 0.93511 0.39341 0.88902 0.0
H629 H 0.83441 0.4932 0.94038 0.0
H630 H 0.86686 0.48683 0.96687 0.0
H631 H 0.86837 0.50805 0.92903 0.0
H632 H 0.96186 0.47003 1.00916 0.0
H633 H 0.9674 0.52001 0.91774 0.0
H634 H 0.91867 0.41675 0.98007 0.0
H635 H 0.89201 0.44324 0.99204 0.0
H636 H 0.92511 0.43689 0.01739 0.0
H637 H 0.92563 0.47817 0.86689 0.0
H638 H 0.93507 0.51551 0.87177 0.0
H639 H 0.89941 0.50389 0.8815 0.0
C640 C 0.73865 0.7334 0.3437 0.0
C641 C 0.72472 0.76114 0.34171 0.0
C642 C 0.72629 0.71003 0.36038 0.0
C643 C 0.69922 0.71442 0.37519 0.0
C644 C 0.68485 0.74223 0.37294 0.0
C645 C 0.69782 0.76528 0.35633 0.0
C646 C 0.7423 0.6807 0.36235 0.0
C647 C 0.6559 0.7477 0.38836 0.0
C648 C 0.65425 0.64912 0.39469 0.0
C649 C 0.65992 0.64501 0.4292 0.0
C650 C 0.66707 0.67148 0.37672 0.0
C651 C 0.68615 0.69007 0.39362 0.0
C652 C 0.69237 0.68574 0.42831 0.0
C653 C 0.6791 0.66335 0.44569 0.0
C654 C 0.65994 0.67545 0.33972 0.0
C655 C 0.71271 0.70504 0.44717 0.0
H656 H 0.75918 0.72988 0.33197 0.0
H657 H 0.68708 0.78669 0.35527 0.0
H658 H 0.7471 0.67393 0.38885 0.0
H659 H 0.72846 0.66403 0.35113 0.0
H660 H 0.76308 0.68086 0.34932 0.0
H661 H 0.64717 0.77037 0.38356 0.0
H662 H 0.63981 0.73251 0.3783 0.0
H663 H 0.65817 0.74351 0.41574 0.0
H664 H 0.63978 0.6348 0.38169 0.0
H665 H 0.68326 0.66064 0.47242 0.0
H666 H 0.68017 0.67409 0.32575 0.0
H667 H 0.64963 0.69738 0.3343 0.0
H668 H 0.64501 0.65888 0.33022 0.0
H669 H 0.73416 0.70484 0.43561 0.0
H670 H 0.71605 0.69815 0.47388 0.0
H671 H 0.70386 0.72785 0.44574 0.0
C672 C 0.13326 0.33452 0.14705 0.0
C673 C 0.13455 0.30883 0.12858 0.0
C674 C 0.11918 0.36079 0.13414 0.0
C675 C 0.10572 0.36229 0.10152 0.0
C676 C 0.10725 0.33668 0.08247 0.0
C677 C 0.12143 0.31059 0.09604 0.0
C678 C 0.11883 0.38721 0.15559 0.0
C679 C 0.09355 0.33673 0.04762 0.0
C680 C 0.04604 0.4231 0.08101 0.0
C681 C 0.0608 0.44446 0.06328 0.0
C682 C 0.0601 0.39647 0.093 0.0
C683 C 0.09006 0.39048 0.08766 0.0
C684 C 0.10509 0.41194 0.06975 0.0
C685 C 0.09042 0.43826 0.05776 0.0
C686 C 0.04279 0.37471 0.11173 0.0
C687 C 0.13688 0.40714 0.06318 0.0
H688 H 0.14367 0.33436 0.17178 0.0
H689 H 0.12171 0.29132 0.08116 0.0
H690 H 0.12933 0.40539 0.14266 0.0
H691 H 0.09606 0.39455 0.15961 0.0
H692 H 0.13027 0.38288 0.18029 0.0
H693 H 0.09745 0.3157 0.0353 0.0
H694 H 0.06975 0.34114 0.04851 0.0
H695 H 0.1023 0.35439 0.03207 0.0
H696 H 0.02327 0.42717 0.08565 0.0
H697 H 0.10242 0.45421 0.04426 0.0
H698 H 0.05236 0.3711 0.13745 0.0
H699 H 0.04383 0.35346 0.09935 0.0
H700 H 1.01962 0.38198 0.11322 0.0
H701 H 0.14941 0.40042 0.08657 0.0
H702 H 0.14642 0.42694 0.05253 0.0
H703 H 0.13952 0.38929 0.04543 0.0
C704 C 0.66696 0.2612 0.84058 0.0
C705 C 0.68835 0.27325 0.86133 0.0
C706 C 0.64721 0.24188 0.85346 0.0
C707 C 0.64873 0.23454 0.88801 0.0
C708 C 0.66995 0.24693 0.90923 0.0
C709 C 0.68957 0.26611 0.89562 0.0
C710 C 0.62485 0.22914 0.83003 0.0
C711 C 0.67213 0.23965 0.94622 0.0
C712 C 0.58129 0.20255 0.92304 0.0
C713 C 0.58862 0.17266 0.92347 0.0
C714 C 0.60094 0.22304 0.91235 0.0
C715 C 0.62845 0.21335 0.90163 0.0
C716 C 0.63612 0.18323 0.90249 0.0
C717 C 0.61613 0.16325 0.91346 0.0
C718 C 0.5921 0.25501 0.91203 0.0
C719 C 0.66517 0.17205 0.89103 0.0
H720 H 0.66549 0.26708 0.81419 0.0
H721 H 0.70618 0.27516 0.91176 0.0
H722 H 0.62767 0.20506 0.83066 0.0
H723 H 0.60265 0.23455 0.83821 0.0
H724 H 0.62644 0.23727 0.80385 0.0
H725 H 0.68916 0.25195 0.95949 0.0
H726 H 0.65096 0.24455 0.95743 0.0
H727 H 0.67723 0.21603 0.95046 0.0
H728 H 0.56019 0.20991 0.93117 0.0
H729 H 0.62176 0.14015 0.91341 0.0
H730 H 0.59134 0.26405 0.88605 0.0
H731 H 0.60846 0.26712 0.92656 0.0
H732 H 0.57048 0.25903 0.9226 0.0
H733 H 0.66705 0.1778 0.86418 0.0
H734 H 0.66824 0.14807 0.89455 0.0
H735 H 0.68308 0.18253 0.90494 0.0
C736 C 0.87343 0.95372 0.34745 0.0
C737 C 0.86601 0.92519 0.35557 0.0
C738 C 0.89145 0.96917 0.36916 0.0
C739 C 0.9024 0.95568 0.39959 0.0
C740 C 0.89574 0.92656 0.40738 0.0
C741 C 0.87757 0.9117 0.38531 0.0
C742 C 0.89798 1.00024 0.36007 0.0
C743 C 0.90719 0.91135 0.43944 0.0
C744 C 0.96547 0.98911 0.44707 0.0
C745 C 0.95093 1.00458 0.47134 0.0
C746 C 0.94999 0.97304 0.42347 0.0
C747 C 0.9193 0.97257 0.42423 0.0
C748 C 0.90459 0.98811 0.4488 0.0
C749 C 0.9206 1.00386 0.47213 0.0
C750 C 0.96642 0.95658 0.39776 0.0
C751 C 0.87189 0.98818 0.45042 0.0
H752 H 0.86437 0.9643 0.32461 0.0
H753 H 0.87225 0.88948 0.39142 0.0
H754 H 0.88829 1.01506 0.37828 0.0
H755 H 0.9218 1.00309 0.36139 0.0
H756 H 0.88927 1.00696 0.33463 0.0
H757 H 0.90149 0.88812 0.44079 0.0
H758 H 0.93119 0.91254 0.44192 0.0
H759 H 0.89809 0.92246 0.46107 0.0
H760 H 0.98896 0.98958 0.44651 0.0
H761 H 0.90931 1.01578 0.49091 0.0
H762 H 0.95889 0.96437 0.37229 0.0
H763 H 0.96198 0.93308 0.39982 0.0
H764 H 0.99028 0.9591 0.40063 0.0
H765 H 0.86154 0.99673 0.42643 0.0
H766 H 0.86377 1.0016 0.4709 0.0
H767 H 0.86478 0.96561 0.45425 0.0
C768 C 0.44029 0.69917 0.63084 0.0
C769 C 0.43306 0.69823 0.66445 0.0
C770 C 0.44925 0.67393 0.6148 0.0
C771 C 0.45086 0.64691 0.6327 0.0
C772 C 0.44284 0.64558 0.66638 0.0
C773 C 0.43403 0.6713 0.68189 0.0
C774 C 0.45758 0.67631 0.57884 0.0
C775 C 0.4442 0.61713 0.68619 0.0
C776 C 0.45656 0.58092 0.57812 0.0
C777 C 0.48677 0.57571 0.57839 0.0
C778 C 0.44432 0.60316 0.59704 0.0
C779 C 0.46277 0.6206 0.6165 0.0
C780 C 0.49315 0.61457 0.61798 0.0
C781 C 0.50475 0.59221 0.59899 0.0
C782 C 0.41178 0.60879 0.59507 0.0
C783 C 0.5136 0.63268 0.63835 0.0
H784 H 0.43888 0.71977 0.61692 0.0
H785 H 0.4285 0.67041 0.70787 0.0
H786 H 0.48085 0.66964 0.577 0.0
H787 H 0.44471 0.6614 0.5634 0.0
H788 H 0.45409 0.69878 0.56812 0.0
H789 H 0.43515 0.6194 0.71124 0.0
H790 H 0.43202 0.60053 0.67249 0.0
H791 H 0.46711 0.60884 0.68947 0.0
H792 H 0.44249 0.56819 0.56242 0.0
H793 H 0.52812 0.58825 0.5996 0.0
H794 H 0.40644 0.62979 0.58146 0.0
H795 H 0.40341 0.61062 0.62047 0.0
H796 H 0.40027 0.59135 0.58199 0.0
H797 H 0.51314 0.65521 0.62759 0.0
H798 H 0.53638 0.62374 0.63896 0.0
H799 H 0.50654 0.63402 0.66435 0.0
C800 C 0.88986 0.92543 0.73005 0.0
C801 C 0.90161 0.92808 0.76282 0.0
C802 C 0.90302 0.93795 0.70186 0.0
C803 C 0.92916 0.95326 0.70584 0.0
C804 C 0.9414 0.95551 0.73878 0.0
C805 C 0.92752 0.94327 0.76653 0.0
C806 C 0.8886 0.93516 0.66769 0.0
C807 C 0.9694 0.97087 0.74482 0.0
C808 C 0.97736 0.96423 0.62974 0.0
C809 C 0.97131 0.99357 0.61981 0.0
C810 C 0.9641 0.95103 0.65742 0.0
C811 C 0.94355 0.9671 0.67583 0.0
C812 C 0.93716 0.99665 0.66569 0.0
C813 C 0.95117 1.00946 0.63833 0.0
C814 C 0.97237 0.91979 0.66717 0.0
C815 C 0.91525 1.01484 0.68373 0.0
H816 H 0.86983 0.91411 0.72643 0.0
H817 H 0.93732 0.94531 0.79136 0.0
H818 H 0.88322 0.95711 0.65636 0.0
H819 H 0.90375 0.92394 0.65108 0.0
H820 H 0.86835 0.92287 0.66847 0.0
H821 H 0.97677 0.97007 0.77159 0.0
H822 H 0.98676 0.9608 0.7301 0.0
H823 H 0.96652 0.99399 0.73628 0.0
H824 H 0.99286 0.9515 0.61605 0.0
H825 H 0.94596 0.03202 0.63115 0.0
H826 H 0.95286 0.90643 0.66561 0.0
H827 H 0.981 0.91832 0.69346 0.0
H828 H 0.98901 0.91028 0.65099 0.0
H829 H 0.89409 1.00411 0.68343 0.0
H830 H 0.91182 0.0371 0.67238 0.0
H831 H 0.92263 1.01668 0.71025 0.0
C832 C 0.6592 0.17269 0.15339 0.0
C833 C 0.64374 0.19424 0.17022 0.0
C834 C 0.64481 0.15011 0.13768 0.0
C835 C 0.61423 0.14893 0.13896 0.0
C836 C 0.59855 0.17023 0.15648 0.0
C837 C 0.61348 0.19266 0.17183 0.0
C838 C 0.66229 0.12781 0.11922 0.0
C839 C 0.56591 0.16971 0.1584 0.0
C840 C 0.57249 0.11057 0.07068 0.0
C841 C 0.56697 0.08389 0.08652 0.0
C842 C 0.58819 0.13171 0.08732 0.0
C843 C 0.59846 0.12617 0.12076 0.0
C844 C 0.59325 0.09916 0.13682 0.0
C845 C 0.57765 0.07826 0.11944 0.0
C846 C 0.59354 0.1601 0.06917 0.0
C847 C 0.60377 0.09254 0.1725 0.0
H848 H 0.68264 0.17346 0.1525 0.0
H849 H 0.60132 0.20938 0.18443 0.0
H850 H 0.65825 0.10558 0.12894 0.0
H851 H 0.65532 0.12879 0.09237 0.0
H852 H 0.68601 0.13126 0.12147 0.0
H853 H 0.55713 0.18698 0.1744 0.0
H854 H 0.55552 0.17274 0.133 0.0
H855 H 0.5596 0.14825 0.16845 0.0
H856 H 0.5645 0.11504 0.04515 0.0
H857 H 0.57342 0.05772 0.13184 0.0
H858 H 0.6172 0.16381 0.06937 0.0
H859 H 0.58309 0.17844 0.08215 0.0
H860 H 0.58493 0.16059 0.04283 0.0
H861 H 0.62766 0.09466 0.17512 0.0
H862 H 0.59847 0.0703 0.18117 0.0
H863 H 0.59371 0.10853 0.18915 0.0
C864 C 0.3901 0.57985 0.30734 0.0
C865 C 0.40519 0.58895 0.27959 0.0
C866 C 0.40442 0.57582 0.3389 0.0
C867 C 0.43465 0.58025 0.34244 0.0
C868 C 0.44984 0.58983 0.3145 0.0
C869 C 0.43485 0.59434 0.2835 0.0
C870 C 0.38738 0.56621 0.36826 0.0
C871 C 0.48219 0.59416 0.31701 0.0
C872 C 0.47429 0.58753 0.42685 0.0
C873 C 0.48599 0.55921 0.43281 0.0
C874 C 0.45651 0.59453 0.39811 0.0
C875 C 0.45097 0.5728 0.37458 0.0
C876 C 0.46246 0.54407 0.38084 0.0
C877 C 0.47953 0.53757 0.41007 0.0
C878 C 0.44408 0.62523 0.39263 0.0
C879 C 0.45759 0.52039 0.35612 0.0
H880 H 0.36711 0.57586 0.3043 0.0
H881 H 0.44658 0.60106 0.26192 0.0
H882 H 0.39471 0.5438 0.37659 0.0
H883 H 0.39141 0.58057 0.38959 0.0
H884 H 0.36363 0.56644 0.36209 0.0
H885 H 0.49054 0.60267 0.29322 0.0
H886 H 0.48747 0.60954 0.33696 0.0
H887 H 0.49389 0.57314 0.32386 0.0
H888 H 0.47911 0.60422 0.44458 0.0
H889 H 0.48856 0.51562 0.4146 0.0
H890 H 0.42025 0.62502 0.38729 0.0
H891 H 0.45373 0.63553 0.37061 0.0
H892 H 0.44834 0.63888 0.41458 0.0
H893 H 0.43398 0.51778 0.35121 0.0
H894 H 0.46768 0.49907 0.36503 0.0
H895 H 0.46692 0.52655 0.33199 0.0
C896 C 0.18038 0.31272 0.86696 0.0
C897 C 0.20832 0.3004 0.87425 0.0
C898 C 0.17073 0.33798 0.88259 0.0
C899 C 0.18942 0.35109 0.90623 0.0
C900 C 0.21706 0.33786 0.915 0.0
C901 C 0.22624 0.31272 0.89877 0.0
C902 C 0.14112 0.35149 0.87248 0.0
C903 C 0.2374 0.35095 0.94044 0.0
C904 C 0.17752 0.43269 0.91264 0.0
C905 C 0.16023 0.43465 0.94044 0.0
C906 C 0.18785 0.40564 0.90186 0.0
C907 C 0.18093 0.37989 0.91948 0.0
C908 C 0.1646 0.38176 0.94847 0.0
C909 C 0.15435 0.40913 0.95854 0.0
C910 C 0.2053 0.40456 0.87088 0.0
C911 C 0.15699 0.35481 0.96806 0.0
H912 H 0.16658 0.30343 0.8478 0.0
H913 H 0.24774 0.30302 0.90474 0.0
H914 H 0.12848 0.35567 0.89486 0.0
H915 H 0.14367 0.37278 0.85943 0.0
H916 H 0.12843 0.33748 0.85563 0.0
H917 H 0.25676 0.33641 0.94701 0.0
H918 H 0.24493 0.37193 0.93039 0.0
H919 H 0.22592 0.35564 0.96355 0.0
H920 H 0.18255 0.45235 0.89889 0.0
H921 H 0.14071 0.41039 0.97984 0.0
H922 H 0.19324 0.39287 0.85118 0.0
H923 H 0.22628 0.39234 0.87632 0.0
H924 H 0.20985 0.42661 0.86088 0.0
H925 H 0.14163 0.34208 0.95287 0.0
H926 H 0.14677 0.36012 0.99182 0.0
H927 H 0.17673 0.34064 0.97382 0.0
C928 C 0.70509 0.90542 0.95071 0.0
C929 C 0.72509 0.92227 0.93365 0.0
C930 C 0.67865 0.91768 0.96243 0.0
C931 C 0.67123 0.94787 0.95739 0.0
C932 C 0.69133 0.96505 0.94045 0.0
C933 C 0.7176 0.95226 0.92898 0.0
C934 C 0.65834 0.89804 0.97997 0.0
C935 C 0.68503 0.99722 0.93426 0.0
C936 C 0.59027 0.97518 0.95623 0.0
C937 C 0.58714 0.98731 0.98785 0.0
C938 C 0.61699 0.96231 0.94637 0.0
C939 C 0.64208 0.96118 0.96838 0.0
C940 C 0.63906 0.97314 1.00055 0.0
C941 C 0.6119 0.98589 1.00985 0.0
C942 C 0.61835 0.95003 0.91197 0.0
C943 C 0.66474 0.97272 0.02519 0.0
H944 H 0.70978 0.88228 0.95448 0.0
H945 H 0.73255 0.9661 0.91661 0.0
H946 H 0.65372 0.90652 1.00488 0.0
H947 H 0.6373 0.89776 0.96546 0.0
H948 H 0.6674 0.87534 0.98324 0.0
H949 H 0.70289 1.00796 0.92158 0.0
H950 H 0.66468 1.00077 0.91857 0.0
H951 H 0.68158 1.00796 0.95826 0.0
H952 H 0.57161 0.97587 0.93876 0.0
H953 H 0.61018 0.99507 0.03429 0.0
H954 H 0.62563 0.92675 0.91388 0.0
H955 H 0.63454 0.96164 0.89748 0.0
H956 H 0.59701 0.95192 0.89789 0.0
H957 H 0.67325 0.95002 0.03004 0.0
H958 H 0.65912 0.98229 0.0493 0.0
H959 H 0.68253 0.98508 0.01455 0.0
C960 C 0.82172 0.21823 0.32114 0.0
C961 C 0.81218 0.24759 0.32018 0.0
C962 C 0.84307 0.20754 0.34486 0.0
C963 C 0.85533 0.22671 0.36807 0.0
C964 C 0.84657 0.25657 0.36652 0.0
C965 C 0.82502 0.26664 0.34266 0.0
C966 C 0.85186 0.17554 0.34572 0.0
C967 C 0.85923 0.27768 0.39078 0.0
C968 C 0.88444 0.19191 0.45026 0.0
C969 C 0.91431 0.18887 0.44511 0.0
C970 C 0.86514 0.20485 0.42568 0.0
C971 C 0.87596 0.21506 0.3952 0.0
C972 C 0.90619 0.21289 0.39021 0.0
C973 C 0.92502 0.19971 0.41521 0.0
C974 C 0.83302 0.20662 0.43188 0.0
C975 C 0.91853 0.22381 0.35816 0.0
H976 H 0.81226 0.20349 0.3035 0.0
H977 H 0.81755 0.28928 0.34237 0.0
H978 H 0.87578 0.17261 0.34421 0.0
H979 H 0.84593 0.16532 0.36974 0.0
H980 H 0.84122 0.1638 0.32499 0.0
H981 H 0.85188 0.30055 0.38452 0.0
H982 H 0.85267 0.27205 0.41638 0.0
H983 H 0.88333 0.27608 0.39111 0.0
H984 H 0.87596 0.18316 0.47308 0.0
H985 H 0.94812 0.19761 0.41125 0.0
H986 H 0.82114 0.19319 0.4137 0.0
H987 H 0.82434 0.22937 0.42811 0.0
H988 H 0.8283 0.19892 0.45751 0.0
H989 H 0.91019 0.21102 0.33702 0.0
H990 H 0.94268 0.22213 0.35901 0.0
H991 H 0.91137 0.24685 0.3529 0.0
C992 C 0.21869 0.56918 0.0808 0.0
C993 C 0.22982 0.58013 0.11092 0.0
C994 C 0.18888 0.56476 0.07554 0.0
C995 C 0.16948 0.5723 0.10057 0.0
C996 C 0.18033 0.58405 0.13063 0.0
C997 C 0.21035 0.58744 0.13563 0.0
C998 C 0.17819 0.55156 0.04342 0.0
C999 C 0.16023 0.59281 0.15767 0.0
C1000 C 0.08952 0.58312 0.07369 0.0
C1001 C 0.07831 0.55709 0.08537 0.0
C1002 C 0.11908 0.58868 0.07912 0.0
C1003 C 0.13791 0.56724 0.09562 0.0
C1004 C 0.12663 0.54074 0.1071 0.0
C1005 C 0.09684 0.53618 0.10228 0.0
C1006 C 0.13018 0.61742 0.06713 0.0
C1007 C 0.14613 0.51694 0.12379 0.0
H1008 H 0.23326 0.56403 0.06114 0.0
H1009 H 0.21853 0.59539 0.15924 0.0
H1010 H 0.16734 0.53098 0.04904 0.0
H1011 H 0.16179 0.56647 0.03009 0.0
H1012 H 0.19609 0.54683 0.02646 0.0
H1013 H 0.17186 0.6033 0.17867 0.0
H1014 H 0.14274 0.60813 0.1472 0.0
H1015 H 0.14963 0.57337 0.16766 0.0
H1016 H 0.0751 0.59919 0.06047 0.0
H1017 H 0.08821 0.5158 0.11077 0.0
H1018 H 0.1465 0.61373 0.04802 0.0
H1019 H 0.14122 0.62834 0.08819 0.0
H1020 H 0.11246 0.63228 0.05616 0.0
H1021 H 0.16338 0.51025 0.10679 0.0
H1022 H 0.13398 0.49745 0.13077 0.0
H1023 H 0.1571 0.52511 0.14663 0.0
C1024 C 0.34055 0.28179 0.67221 0.0
C1025 C 0.31335 0.28836 0.68516 0.0
C1026 C 0.35474 0.30257 0.65324 0.0
C1027 C 0.34132 0.33051 0.64689 0.0
C1028 C 0.31377 0.33721 0.65959 0.0
C1029 C 0.3002 0.31612 0.6787 0.0
C1030 C 0.38417 0.29467 0.64016 0.0
C1031 C 0.29873 0.36675 0.65323 0.0
C1032 C 0.38905 0.393 0.62461 0.0
C1033 C 0.38512 0.39485 0.58972 0.0
C1034 C 0.37491 0.37217 0.64353 0.0
C1035 C 0.35623 0.35286 0.62719 0.0
C1036 C 0.35186 0.35483 0.59205 0.0
C1037 C 0.36643 0.37572 0.57373 0.0
C1038 C 0.38011 0.37072 0.68098 0.0
C1039 C 0.33197 0.33471 0.57378 0.0
H1040 H 0.35071 0.26031 0.67674 0.0
H1041 H 0.27944 0.32161 0.6891 0.0
H1042 H 0.38336 0.29712 0.61254 0.0
H1043 H 0.40051 0.30974 0.64992 0.0
H1044 H 0.39165 0.27201 0.64733 0.0
H1045 H 0.27699 0.36823 0.66415 0.0
H1046 H 0.31227 0.38385 0.66402 0.0
H1047 H 0.29603 0.37156 0.62598 0.0
H1048 H 0.40312 0.40795 0.63719 0.0
H1049 H 0.36361 0.37669 0.54675 0.0
H1050 H 0.38919 0.34882 0.68908 0.0
H1051 H 0.35922 0.37408 0.69333 0.0
H1052 H 0.39533 0.38728 0.68984 0.0
H1053 H 0.34 0.3118 0.57815 0.0
H1054 H 0.3304 0.33952 0.54645 0.0
H1055 H 0.30983 0.33656 0.58353 0.0
C1056 C 0.89591 0.72741 0.92291 0.0
C1057 C 0.90363 0.7542 0.93629 0.0
C1058 C 0.90999 0.7005 0.93405 0.0
C1059 C 0.93233 0.69965 0.95983 0.0
C1060 C 0.93972 0.72654 0.97393 0.0
C1061 C 0.92564 0.75313 0.96199 0.0
C1062 C 0.90115 0.67284 0.91784 0.0
C1063 C 0.96267 0.72727 1.00187 0.0
C1064 C 0.95268 0.62692 1.00877 0.0
C1065 C 0.9786 0.6171 0.99446 0.0
C1066 C 0.93758 0.65334 0.99793 0.0
C1067 C 0.94817 0.67094 0.9717 0.0
C1068 C 0.97427 0.6611 0.95712 0.0
C1069 C 0.98908 0.6347 0.96864 0.0
C1070 C 0.91032 0.66258 0.01498 0.0
C1071 C 0.98662 0.67849 0.92901 0.0
H1072 H 0.87924 0.72749 0.903 0.0
H1073 H 0.93174 0.77326 0.97323 0.0
H1074 H 0.92016 0.66237 0.90623 0.0
H1075 H 0.89378 0.65722 0.93698 0.0
H1076 H 0.88341 0.67678 0.89838 0.0
H1077 H 0.96592 0.74966 1.01057 0.0
H1078 H 0.95644 0.71346 0.02333 0.0
H1079 H 0.98368 0.71816 0.9935 0.0
H1080 H 0.94413 0.61396 0.0288 0.0
H1081 H 1.00886 0.62769 0.95704 0.0
H1082 H 0.89234 0.66798 0.99626 0.0
H1083 H 0.91427 0.68252 0.02912 0.0
H1084 H 0.90322 0.64543 0.03254 0.0
H1085 H 0.97021 0.6814 0.90796 0.0
H1086 H 1.00665 0.66789 0.9197 0.0
H1087 H 0.9918 0.70049 0.93754 0.0
C1088 C 0.39822 0.73174 0.10359 0.0
C1089 C 0.41038 0.70708 0.08883 0.0
C1090 C 0.41137 0.75866 0.10151 0.0
C1091 C 0.43745 0.761 0.08445 0.0
C1092 C 0.44938 0.73648 0.06858 0.0
C1093 C 0.43567 0.70981 0.0709 0.0
C1094 C 0.3979 0.78435 0.11868 0.0
C1095 C 0.47712 0.73819 0.05006 0.0
C1096 C 0.45999 0.83743 0.06214 0.0
C1097 C 0.47944 0.84288 0.08892 0.0
C1098 C 0.44669 0.8106 0.05984 0.0
C1099 C 0.453 0.78872 0.08494 0.0
C1100 C 0.47316 0.79386 0.11159 0.0
C1101 C 0.48608 0.82092 0.1133 0.0
C1102 C 0.4252 0.80602 0.03114 0.0
C1103 C 0.48062 0.77099 0.13872 0.0
H1104 H 0.37898 0.72978 0.11796 0.0
H1105 H 0.44499 0.69096 0.05906 0.0
H1106 H 0.41273 0.79082 0.13947 0.0
H1107 H 0.39481 0.8033 0.10097 0.0
H1108 H 0.37657 0.77945 0.12893 0.0
H1109 H 0.4826 0.71767 0.03738 0.0
H1110 H 0.47521 0.7563 0.03113 0.0
H1111 H 0.4954 0.74286 0.06779 0.0
H1112 H 0.45445 0.85452 0.04354 0.0
H1113 H 0.50134 0.82497 0.13384 0.0
H1114 H 0.40315 0.80383 0.04075 0.0
H1115 H 0.43088 0.78556 0.01852 0.0
H1116 H 0.42439 0.82433 1.01238 0.0
H1117 H 0.46092 0.76625 0.15252 0.0
H1118 H 0.49776 0.77791 0.15682 0.0
H1119 H 0.48822 0.75041 0.12757 0.0
C1120 C 0.14713 0.15616 0.67378 0.0
C1121 C 0.16094 0.14229 0.70215 0.0
C1122 C 0.12877 0.14098 0.65218 0.0
C1123 C 0.12411 0.11122 0.65913 0.0
C1124 C 0.13723 0.09736 0.68829 0.0
C1125 C 0.1555 0.11305 0.70942 0.0
C1126 C 0.11523 0.15649 0.62129 0.0
C1127 C 0.13266 0.06569 0.69665 0.0
C1128 C 0.0612 0.07483 0.61468 0.0
C1129 C 0.07546 0.06029 0.58947 0.0
C1130 C 0.0767 0.09169 0.63748 0.0
C1131 C 0.10707 0.09407 0.63484 0.0
C1132 C 0.12145 0.07967 0.60913 0.0
C1133 C 0.10545 0.06296 0.58677 0.0
C1134 C 0.06064 0.10675 0.66453 0.0
C1135 C 0.15379 0.08174 0.6054 0.0
H1136 H 0.15148 0.17866 0.6678 0.0
H1137 H 0.16578 0.10234 0.73156 0.0
H1138 H 0.12424 0.14683 0.59873 0.0
H1139 H 0.0914 0.15368 0.61979 0.0
H1140 H 0.11929 0.18014 0.62075 0.0
H1141 H 0.14296 0.05864 0.72127 0.0
H1142 H 0.10908 0.06168 0.69686 0.0
H1143 H 0.14198 0.05193 0.67719 0.0
H1144 H 0.03797 0.07286 0.61673 0.0
H1145 H 0.1165 0.05184 0.5672 0.0
H1146 H 0.06389 0.1305 0.66293 0.0
H1147 H 0.06952 0.09872 0.68941 0.0
H1148 H 0.03693 0.1031 0.66284 0.0
H1149 H 0.1594 0.10486 0.60223 0.0
H1150 H 0.16156 0.06963 0.58373 0.0
H1151 H 0.16574 0.0729 0.62834 0.0
C1152 C 0.62585 0.35571 0.35578 0.0
C1153 C 0.63619 0.36734 0.32604 0.0
C1154 C 0.61158 0.37352 0.37826 0.0
C1155 C 0.60736 0.40368 0.37075 0.0
C1156 C 0.61727 0.4155 0.34053 0.0
C1157 C 0.63162 0.39721 0.31859 0.0
C1158 C 0.60129 0.36011 0.41023 0.0
C1159 C 0.61309 0.44756 0.33161 0.0
C1160 C 0.54917 0.446 0.41562 0.0
C1161 C 0.56577 0.45958 0.44039 0.0
C1162 C 0.56243 0.42781 0.39272 0.0
C1163 C 0.59299 0.42296 0.39477 0.0
C1164 C 0.60985 0.43652 0.41977 0.0
C1165 C 0.59605 0.45474 0.44223 0.0
C1166 C 0.54374 0.41388 0.36627 0.0
C1167 C 0.6425 0.43174 0.42284 0.0
H1168 H 0.6289 0.33259 0.3615 0.0
H1169 H 0.63988 0.40647 0.29591 0.0
H1170 H 0.61201 0.3703 0.43201 0.0
H1171 H 0.57752 0.36431 0.41181 0.0
H1172 H 0.606 0.33624 0.41219 0.0
H1173 H 0.62119 0.45315 0.30664 0.0
H1174 H 0.58971 0.45427 0.33183 0.0
H1175 H 0.62476 0.46045 0.35052 0.0
H1176 H 0.52577 0.44971 0.41391 0.0
H1177 H 0.60903 0.46509 0.46133 0.0
H1178 H 0.54657 0.38984 0.36864 0.0
H1179 H 0.55065 0.42047 0.3411 0.0
H1180 H 0.52028 0.41998 0.36796 0.0
H1181 H 0.64821 0.40821 0.42687 0.0
H1182 H 0.65244 0.44378 0.44376 0.0
H1183 H 0.65226 0.43885 0.39933 0.0
loop_
_geom_bond_atom_site_label_1
_geom_bond_atom_site_label_2
_geom_bond_distance
_geom_bond_site_symmetry_2
_ccdc_geom_bond_type
P0 O11 1.490 . S
P0 C14 1.812 . S
P0 C20 1.803 . S
P0 C26 1.819 . S
H1 C15 0.941 . S
H2 C16 0.939 . S
H3 C18 0.940 . S
H4 C19 0.940 . S
H5 C21 0.939 . S
H6 C22 0.942 . S
H7 C24 0.940 . S
H8 C25 0.939 . S
H9 C27 0.941 . S
H10 C31 0.939 . S
O11 P0 1.490 . S
H12 C28 0.939 . S
H13 C30 0.940 . S
C14 P0 1.812 . S
C14 C15 1.389 . S
C14 C19 1.391 . S
C15 H1 0.941 . S
C15 C14 1.389 . S
C15 C16 1.397 . S
C16 H2 0.939 . S
C16 C15 1.397 . S
C16 C17 1.378 . S
C17 C16 1.378 . S
C17 C18 1.378 . S
C18 H3 0.940 . S
C18 C17 1.378 . S
C18 C19 1.396 . S
C19 H4 0.940 . S
C19 C14 1.391 . S
C19 C18 1.396 . S
C20 P0 1.803 . S
C20 C21 1.378 . S
C20 C25 1.400 . S
C21 H5 0.939 . S
C21 C20 1.378 . S
C21 C22 1.361 . S
C22 H6 0.942 . S
C22 C21 1.361 . S
C22 C23 1.369 . S
C23 C22 1.369 . S
C23 C24 1.404 . S
C24 H7 0.940 . S
C24 C23 1.404 . S
C24 C25 1.389 . S
C25 H8 0.939 . S
C25 C20 1.400 . S
C25 C24 1.389 . S
C26 P0 1.819 . S
C26 C27 1.391 . S
C26 C31 1.391 . S
C27 H9 0.941 . S
C27 C26 1.391 . S
C27 C28 1.396 . S
C28 H12 0.939 . S
C28 C27 1.396 . S
C28 C29 1.397 . S
C29 C28 1.397 . S
C29 C30 1.385 . S
C30 H13 0.940 . S
C30 C29 1.385 . S
C30 C31 1.388 . S
C31 H10 0.939 . S
C31 C26 1.391 . S
C31 C30 1.388 . S
P32 O43 1.490 . S
P32 C46 1.812 . S
P32 C52 1.803 . S
P32 C58 1.819 . S
H33 C47 0.941 . S
H34 C48 0.939 . S
H35 C50 0.940 . S
H36 C51 0.940 . S
H37 C53 0.939 . S
H38 C54 0.942 . S
H39 C56 0.940 . S
H40 C57 0.939 . S
H41 C59 0.941 . S
H42 C63 0.939 . S
O43 P32 1.490 . S
H44 C60 0.939 . S
H45 C62 0.940 . S
C46 P32 1.812 . S
C46 C47 1.389 . S
C46 C51 1.391 . S
C47 H33 0.941 . S
C47 C46 1.389 . S
C47 C48 1.397 . S
C48 H34 0.939 . S
C48 C47 1.397 . S
C48 C49 1.378 . S
C49 C48 1.378 . S
C49 C50 1.378 . S
C50 H35 0.940 . S
C50 C49 1.378 . S
C50 C51 1.396 . S
C51 H36 0.940 . S
C51 C46 1.391 . S
C51 C50 1.396 . S
C52 P32 1.803 . S
C52 C53 1.378 . S
C52 C57 1.400 . S
C53 H37 0.939 . S
C53 C52 1.378 . S
C53 C54 1.361 . S
C54 H38 0.942 . S
C54 C53 1.361 . S
C54 C55 1.369 . S
C55 C54 1.369 . S
C55 C56 1.404 . S
C56 H39 0.940 . S
C56 C55 1.404 . S
C56 C57 1.389 . S
C57 H40 0.939 . S
C57 C52 1.400 . S
C57 C56 1.389 . S
C58 P32 1.819 . S
C58 C59 1.391 . S
C58 C63 1.391 . S
C59 H41 0.941 . S
C59 C58 1.391 . S
C59 C60 1.396 . S
C60 H44 0.939 . S
C60 C59 1.396 . S
C60 C61 1.397 . S
C61 C60 1.397 . S
C61 C62 1.385 . S
C62 H45 0.940 . S
C62 C61 1.385 . S
C62 C63 1.388 . S
C63 H42 0.939 . S
C63 C58 1.391 . S
C63 C62 1.388 . S
P64 O75 1.490 . S
P64 C78 1.812 . S
P64 C84 1.803 . S
P64 C90 1.819 . S
H65 C79 0.941 . S
H66 C80 0.939 . S
H67 C82 0.940 . S
H68 C83 0.940 . S
H69 C85 0.939 . S
H70 C86 0.942 . S
H71 C88 0.940 . S
H72 C89 0.939 . S
H73 C91 0.941 . S
H74 C95 0.939 . S
O75 P64 1.490 . S
H76 C92 0.939 . S
H77 C94 0.940 . S
C78 P64 1.812 . S
C78 C79 1.389 . S
C78 C83 1.391 . S
C79 H65 0.941 . S
C79 C78 1.389 . S
C79 C80 1.397 . S
C80 H66 0.939 . S
C80 C79 1.397 . S
C80 C81 1.378 . S
C81 C80 1.378 . S
C81 C82 1.378 . S
C82 H67 0.940 . S
C82 C81 1.378 . S
C82 C83 1.396 . S
C83 H68 0.940 . S
C83 C78 1.391 . S
C83 C82 1.396 . S
C84 P64 1.803 . S
C84 C85 1.378 . S
C84 C89 1.400 . S
C85 H69 0.939 . S
C85 C84 1.378 . S
C85 C86 1.361 . S
C86 H70 0.942 . S
C86 C85 1.361 . S
C86 C87 1.369 . S
C87 C86 1.369 . S
C87 C88 1.404 . S
C88 H71 0.940 . S
C88 C87 1.404 . S
C88 C89 1.389 . S
C89 H72 0.939 . S
C89 C84 1.400 . S
C89 C88 1.389 . S
C90 P64 1.819 . S
C90 C91 1.391 . S
C90 C95 1.391 . S
C91 H73 0.941 . S
C91 C90 1.391 . S
C91 C92 1.396 . S
C92 H76 0.939 . S
C92 C91 1.396 . S
C92 C93 1.397 . S
C93 C92 1.397 . S
C93 C94 1.385 . S
C94 H77 0.940 . S
C94 C93 1.385 . S
C94 C95 1.388 . S
C95 H74 0.939 . S
C95 C90 1.391 . S
C95 C94 1.388 . S
P96 O107 1.490 . S
P96 C110 1.812 . S
P96 C116 1.803 . S
P96 C122 1.819 . S
H97 C111 0.941 . S
H98 C112 0.939 . S
H99 C114 0.940 . S
H100 C115 0.940 . S
H101 C117 0.939 . S
H102 C118 0.942 . S
H103 C120 0.940 . S
H104 C121 0.939 . S
H105 C123 0.941 . S
H106 C127 0.939 . S
O107 P96 1.490 . S
H108 C124 0.939 . S
H109 C126 0.940 . S
C110 P96 1.812 . S
C110 C111 1.389 . S
C110 C115 1.391 . S
C111 H97 0.941 . S
C111 C110 1.389 . S
C111 C112 1.397 . S
C112 H98 0.939 . S
C112 C111 1.397 . S
C112 C113 1.378 . S
C113 C112 1.378 . S
C113 C114 1.378 . S
C114 H99 0.940 . S
C114 C113 1.378 . S
C114 C115 1.396 . S
C115 H100 0.940 . S
C115 C110 1.391 . S
C115 C114 1.396 . S
C116 P96 1.803 . S
C116 C117 1.378 . S
C116 C121 1.400 . S
C117 H101 0.939 . S
C117 C116 1.378 . S
C117 C118 1.361 . S
C118 H102 0.942 . S
C118 C117 1.361 . S
C118 C119 1.369 . S
C119 C118 1.369 . S
C119 C120 1.404 . S
C120 H103 0.940 . S
C120 C119 1.404 . S
C120 C121 1.389 . S
C121 H104 0.939 . S
C121 C116 1.400 . S
C121 C120 1.389 . S
C122 P96 1.819 . S
C122 C123 1.391 . S
C122 C127 1.391 . S
C123 H105 0.941 . S
C123 C122 1.391 . S
C123 C124 1.396 . S
C124 H108 0.939 . S
C124 C123 1.396 . S
C124 C125 1.397 . S
C125 C124 1.397 . S
C125 C126 1.385 . S
C126 H109 0.940 . S
C126 C125 1.385 . S
C126 C127 1.388 . S
C127 H106 0.939 . S
C127 C122 1.391 . S
C127 C126 1.388 . S
P128 O139 1.490 . S
P128 C142 1.812 . S
P128 C148 1.803 . S
P128 C154 1.819 . S
H129 C143 0.941 . S
H130 C144 0.939 . S
H131 C146 0.940 . S
H132 C147 0.940 . S
H133 C149 0.939 . S
H134 C150 0.942 . S
H135 C152 0.940 . S
H136 C153 0.939 . S
H137 C155 0.941 . S
H138 C159 0.939 . S
O139 P128 1.490 . S
H140 C156 0.939 . S
H141 C158 0.940 . S
C142 P128 1.812 . S
C142 C143 1.389 . S
C142 C147 1.391 . S
C143 H129 0.941 . S
C143 C142 1.389 . S
C143 C144 1.397 . S
C144 H130 0.939 . S
C144 C143 1.397 . S
C144 C145 1.378 . S
C145 C144 1.378 . S
C145 C146 1.378 . S
C146 H131 0.940 . S
C146 C145 1.378 . S
C146 C147 1.396 . S
C147 H132 0.940 . S
C147 C142 1.391 . S
C147 C146 1.396 . S
C148 P128 1.803 . S
C148 C149 1.378 . S
C148 C153 1.400 . S
C149 H133 0.939 . S
C149 C148 1.378 . S
C149 C150 1.361 . S
C150 H134 0.942 . S
C150 C149 1.361 . S
C150 C151 1.369 . S
C151 C150 1.369 . S
C151 C152 1.404 . S
C152 H135 0.940 . S
C152 C151 1.404 . S
C152 C153 1.389 . S
C153 H136 0.939 . S
C153 C148 1.400 . S
C153 C152 1.389 . S
C154 P128 1.819 . S
C154 C155 1.391 . S
C154 C159 1.391 . S
C155 H137 0.941 . S
C155 C154 1.391 . S
C155 C156 1.396 . S
C156 H140 0.939 . S
C156 C155 1.396 . S
C156 C157 1.397 . S
C157 C156 1.397 . S
C157 C158 1.385 . S
C158 H141 0.940 . S
C158 C157 1.385 . S
C158 C159 1.388 . S
C159 H138 0.939 . S
C159 C154 1.391 . S
C159 C158 1.388 . S
P160 O171 1.490 . S
P160 C174 1.812 . S
P160 C180 1.803 . S
P160 C186 1.819 . S
H161 C175 0.941 . S
H162 C176 0.939 . S
H163 C178 0.940 . S
H164 C179 0.940 . S
H165 C181 0.939 . S
H166 C182 0.942 . S
H167 C184 0.940 . S
H168 C185 0.939 . S
H169 C187 0.941 . S
H170 C191 0.939 . S
O171 P160 1.490 . S
H172 C188 0.939 . S
H173 C190 0.940 . S
C174 P160 1.812 . S
C174 C175 1.389 . S
C174 C179 1.391 . S
C175 H161 0.941 . S
C175 C174 1.389 . S
C175 C176 1.397 . S
C176 H162 0.939 . S
C176 C175 1.397 . S
C176 C177 1.378 . S
C177 C176 1.378 . S
C177 C178 1.378 . S
C178 H163 0.940 . S
C178 C177 1.378 . S
C178 C179 1.396 . S
C179 H164 0.940 . S
C179 C174 1.391 . S
C179 C178 1.396 . S
C180 P160 1.803 . S
C180 C181 1.378 . S
C180 C185 1.400 . S
C181 H165 0.939 . S
C181 C180 1.378 . S
C181 C182 1.361 . S
C182 H166 0.942 . S
C182 C181 1.361 . S
C182 C183 1.369 . S
C183 C182 1.369 . S
C183 C184 1.404 . S
C184 H167 0.940 . S
C184 C183 1.404 . S
C184 C185 1.389 . S
C185 H168 0.939 . S
C185 C180 1.400 . S
C185 C184 1.389 . S
C186 P160 1.819 . S
C186 C187 1.391 . S
C186 C191 1.391 . S
C187 H169 0.941 . S
C187 C186 1.391 . S
C187 C188 1.396 . S
C188 H172 0.939 . S
C188 C187 1.396 . S
C188 C189 1.397 . S
C189 C188 1.397 . S
C189 C190 1.385 . S
C190 H173 0.940 . S
C190 C189 1.385 . S
C190 C191 1.388 . S
C191 H170 0.939 . S
C191 C186 1.391 . S
C191 C190 1.388 . S
P192 O203 1.490 . S
P192 C206 1.812 . S
P192 C212 1.803 . S
P192 C218 1.819 . S
H193 C207 0.941 . S
H194 C208 0.939 . S
H195 C210 0.940 . S
H196 C211 0.940 . S
H197 C213 0.939 . S
H198 C214 0.942 . S
H199 C216 0.940 . S
H200 C217 0.939 . S
H201 C219 0.941 . S
H202 C223 0.939 . S
O203 P192 1.490 . S
H204 C220 0.939 . S
H205 C222 0.940 . S
C206 P192 1.812 . S
C206 C207 1.389 . S
C206 C211 1.391 . S
C207 H193 0.941 . S
C207 C206 1.389 . S
C207 C208 1.397 . S
C208 H194 0.939 . S
C208 C207 1.397 . S
C208 C209 1.378 . S
C209 C208 1.378 . S
C209 C210 1.378 . S
C210 H195 0.940 . S
C210 C209 1.378 . S
C210 C211 1.396 . S
C211 H196 0.940 . S
C211 C206 1.391 . S
C211 C210 1.396 . S
C212 P192 1.803 . S
C212 C213 1.378 . S
C212 C217 1.400 . S
C213 H197 0.939 . S
C213 C212 1.378 . S
C213 C214 1.361 . S
C214 H198 0.942 . S
C214 C213 1.361 . S
C214 C215 1.369 . S
C215 C214 1.369 . S
C215 C216 1.404 . S
C216 H199 0.940 . S
C216 C215 1.404 . S
C216 C217 1.389 . S
C217 H200 0.939 . S
C217 C212 1.400 . S
C217 C216 1.389 . S
C218 P192 1.819 . S
C218 C219 1.391 . S
C218 C223 1.391 . S
C219 H201 0.941 . S
C219 C218 1.391 . S
C219 C220 1.396 . S
C220 H204 0.939 . S
C220 C219 1.396 . S
C220 C221 1.397 . S
C221 C220 1.397 . S
C221 C222 1.385 . S
C222 H205 0.940 . S
C222 C221 1.385 . S
C222 C223 1.388 . S
C223 H202 0.939 . S
C223 C218 1.391 . S
C223 C222 1.388 . S
P224 O235 1.490 . S
P224 C238 1.812 . S
P224 C244 1.803 . S
P224 C250 1.819 . S
H225 C239 0.941 . S
H226 C240 0.939 . S
H227 C242 0.940 . S
H228 C243 0.940 . S
H229 C245 0.939 . S
H230 C246 0.942 . S
H231 C248 0.940 . S
H232 C249 0.939 . S
H233 C251 0.941 . S
H234 C255 0.939 . S
O235 P224 1.490 . S
H236 C252 0.939 . S
H237 C254 0.940 . S
C238 P224 1.812 . S
C238 C239 1.389 . S
C238 C243 1.391 . S
C239 H225 0.941 . S
C239 C238 1.389 . S
C239 C240 1.397 . S
C240 H226 0.939 . S
C240 C239 1.397 . S
C240 C241 1.378 . S
C241 C240 1.378 . S
C241 C242 1.378 . S
C242 H227 0.940 . S
C242 C241 1.378 . S
C242 C243 1.396 . S
C243 H228 0.940 . S
C243 C238 1.391 . S
C243 C242 1.396 . S
C244 P224 1.803 . S
C244 C245 1.378 . S
C244 C249 1.400 . S
C245 H229 0.939 . S
C245 C244 1.378 . S
C245 C246 1.361 . S
C246 H230 0.942 . S
C246 C245 1.361 . S
C246 C247 1.369 . S
C247 C246 1.369 . S
C247 C248 1.404 . S
C248 H231 0.940 . S
C248 C247 1.404 . S
C248 C249 1.389 . S
C249 H232 0.939 . S
C249 C244 1.400 . S
C249 C248 1.389 . S
C250 P224 1.819 . S
C250 C251 1.391 . S
C250 C255 1.391 . S
C251 H233 0.941 . S
C251 C250 1.391 . S
C251 C252 1.396 . S
C252 H236 0.939 . S
C252 C251 1.396 . S
C252 C253 1.397 . S
C253 C252 1.397 . S
C253 C254 1.385 . S
C254 H237 0.940 . S
C254 C253 1.385 . S
C254 C255 1.388 . S
C255 H234 0.939 . S
C255 C250 1.391 . S
C255 C254 1.388 . S
Nd256 C258 2.836 . S
Nd256 O276 2.500 . S
Nd256 O277 2.492 . S
Nd256 O278 2.487 1_565 S
Nd256 O279 2.682 1_565 S
Nd256 O280 2.410 . S
Nd256 O285 2.414 1_455 S
Nd256 O287 2.424 1_565 S
Nd257 C267 2.836 . S
Nd257 O279 2.414 1_655 S
Nd257 O281 2.424 1_545 S
Nd257 O282 2.500 . S
Nd257 O283 2.492 . S
Nd257 O284 2.487 1_545 S
Nd257 O285 2.682 1_545 S
Nd257 O286 2.410 . S
C258 Nd256 2.836 . S
C258 C259 1.498 . S
C258 O276 1.258 . S
C258 O277 1.239 . S
C259 C258 1.498 . S
C259 C260 1.366 . S
C259 C264 1.407 . S
C260 C259 1.366 . S
C260 C261 1.392 . S
C260 H288 0.930 . S
C261 C260 1.392 . S
C261 C262 1.398 . S
C261 H289 0.929 . S
C262 C261 1.398 . S
C262 C263 1.352 . S
C263 C262 1.352 . S
C263 C264 1.384 . S
C263 H290 0.930 . S
C264 C259 1.407 . S
C264 C263 1.384 . S
C264 H291 0.929 . S
C265 O278 1.241 . S
C265 O279 1.273 . S
C266 O280 1.251 1_655 S
C266 O281 1.268 . S
C267 Nd257 2.836 . S
C267 C268 1.498 . S
C267 O282 1.258 . S
C267 O283 1.239 . S
C268 C267 1.498 . S
C268 C269 1.366 . S
C268 C273 1.407 . S
C269 C268 1.366 . S
C269 C270 1.392 . S
C269 H292 0.930 . S
C270 C269 1.392 . S
C270 C271 1.398 . S
C270 H293 0.929 . S
C271 C270 1.398 . S
C271 C272 1.352 . S
C272 C271 1.352 . S
C272 C273 1.384 . S
C272 H294 0.930 . S
C273 C268 1.407 . S
C273 C272 1.384 . S
C273 H295 0.929 . S
C274 O284 1.241 . S
C274 O285 1.273 . S
C275 O286 1.251 1_455 S
C275 O287 1.268 . S
O276 Nd256 2.500 . S
O276 C258 1.258 . S
O277 Nd256 2.492 . S
O277 C258 1.239 . S
O278 Nd256 2.487 1_545 S
O278 C265 1.241 . S
O279 Nd256 2.682 1_545 S
O279 Nd257 2.414 1_455 S
O279 C265 1.273 . S
O280 Nd256 2.410 . S
O280 C266 1.251 1_455 S
O281 Nd257 2.424 1_565 S
O281 C266 1.268 . S
O282 Nd257 2.500 . S
O282 C267 1.258 . S
O283 Nd257 2.492 . S
O283 C267 1.239 . S
O284 Nd257 2.487 1_565 S
O284 C274 1.241 . S
O285 Nd256 2.414 1_655 S
O285 Nd257 2.682 1_565 S
O285 C274 1.273 . S
O286 Nd257 2.410 . S
O286 C275 1.251 1_655 S
O287 Nd256 2.424 1_545 S
O287 C275 1.268 . S
H288 C260 0.930 . S
H289 C261 0.929 . S
H290 C263 0.930 . S
H291 C264 0.929 . S
H292 C269 0.930 . S
H293 C270 0.929 . S
H294 C272 0.930 . S
H295 C273 0.929 . S
Nd296 C298 2.836 . S
Nd296 O316 2.500 . S
Nd296 O317 2.492 . S
Nd296 O318 2.487 1_565 S
Nd296 O319 2.682 1_565 S
Nd296 O320 2.410 1_554 S
Nd296 O325 2.414 1_554 S
Nd296 O327 2.424 1_565 S
Nd297 C307 2.836 . S
Nd297 O319 2.414 1_556 S
Nd297 O321 2.424 1_545 S
Nd297 O322 2.500 . S
Nd297 O323 2.492 . S
Nd297 O324 2.487 . S
Nd297 O325 2.682 1_545 S
Nd297 O326 2.410 1_556 S
C298 Nd296 2.836 . S
C298 C299 1.498 . S
C298 O316 1.258 . S
C298 O317 1.239 . S
C299 C298 1.498 . S
C299 C300 1.366 . S
C299 C304 1.407 . S
C300 C299 1.366 . S
C300 C301 1.392 . S
C300 H328 0.930 . S
C301 C300 1.392 . S
C301 C302 1.398 . S
C301 H329 0.929 . S
C302 C301 1.398 . S
C302 C303 1.352 . S
C303 C302 1.352 . S
C303 C304 1.384 . S
C303 H330 0.930 . S
C304 C299 1.407 . S
C304 C303 1.384 . S
C304 H331 0.929 . S
C305 O318 1.241 . S
C305 O319 1.273 . S
C306 O320 1.251 . S
C306 O321 1.268 . S
C307 Nd297 2.836 . S
C307 C308 1.498 . S
C307 O322 1.258 . S
C307 O323 1.239 . S
C308 C307 1.498 . S
C308 C309 1.366 . S
C308 C313 1.407 . S
C309 C308 1.366 . S
C309 C310 1.392 . S
C309 H332 0.930 . S
C310 C309 1.392 . S
C310 C311 1.398 . S
C310 H333 0.929 . S
C311 C310 1.398 . S
C311 C312 1.352 . S
C312 C311 1.352 . S
C312 C313 1.384 . S
C312 H334 0.930 . S
C313 C308 1.407 . S
C313 C312 1.384 . S
C313 H335 0.929 . S
C314 O324 1.241 1_565 S
C314 O325 1.273 . S
C315 O326 1.251 . S
C315 O327 1.268 . S
O316 Nd296 2.500 . S
O316 C298 1.258 . S
O317 Nd296 2.492 . S
O317 C298 1.239 . S
O318 Nd296 2.487 1_545 S
O318 C305 1.241 . S
O319 Nd296 2.682 1_545 S
O319 Nd297 2.414 1_554 S
O319 C305 1.273 . S
O320 Nd296 2.410 1_556 S
O320 C306 1.251 . S
O321 Nd297 2.424 1_565 S
O321 C306 1.268 . S
O322 Nd297 2.500 . S
O322 C307 1.258 . S
O323 Nd297 2.492 . S
O323 C307 1.239 . S
O324 Nd297 2.487 . S
O324 C314 1.241 1_545 S
O325 Nd296 2.414 1_556 S
O325 Nd297 2.682 1_565 S
O325 C314 1.273 . S
O326 Nd297 2.410 1_554 S
O326 C315 1.251 . S
O327 Nd296 2.424 1_545 S
O327 C315 1.268 . S
H328 C300 0.930 . S
H329 C301 0.929 . S
H330 C303 0.930 . S
H331 C304 0.929 . S
H332 C309 0.930 . S
H333 C310 0.929 . S
H334 C312 0.930 . S
H335 C313 0.929 . S
Nd336 C338 2.836 . S
Nd336 O356 2.500 . S
Nd336 O357 2.492 . S
Nd336 O358 2.487 . S
Nd336 O359 2.682 . S
Nd336 O360 2.410 . S
Nd336 O365 2.414 . S
Nd336 O367 2.424 . S
Nd337 C347 2.836 . S
Nd337 O359 2.414 . S
Nd337 O361 2.424 . S
Nd337 O362 2.500 . S
Nd337 O363 2.492 . S
Nd337 O364 2.487 . S
Nd337 O365 2.682 . S
Nd337 O366 2.410 . S
C338 Nd336 2.836 . S
C338 C339 1.498 . S
C338 O356 1.258 . S
C338 O357 1.239 . S
C339 C338 1.498 . S
C339 C340 1.366 . S
C339 C344 1.407 . S
C340 C339 1.366 . S
C340 C341 1.392 . S
C340 H368 0.930 . S
C341 C340 1.392 . S
C341 C342 1.398 . S
C341 H369 0.929 . S
C342 C341 1.398 . S
C342 C343 1.352 . S
C343 C342 1.352 . S
C343 C344 1.384 . S
C343 H370 0.930 . S
C344 C339 1.407 . S
C344 C343 1.384 . S
C344 H371 0.929 . S
C345 O358 1.241 . S
C345 O359 1.273 . S
C346 O360 1.251 . S
C346 O361 1.268 . S
C347 Nd337 2.836 . S
C347 C348 1.498 . S
C347 O362 1.258 . S
C347 O363 1.239 . S
C348 C347 1.498 . S
C348 C349 1.366 . S
C348 C353 1.407 . S
C349 C348 1.366 . S
C349 C350 1.392 . S
C349 H372 0.930 . S
C350 C349 1.392 . S
C350 C351 1.398 . S
C350 H373 0.929 . S
C351 C350 1.398 . S
C351 C352 1.352 . S
C352 C351 1.352 . S
C352 C353 1.384 . S
C352 H374 0.930 . S
C353 C348 1.407 . S
C353 C352 1.384 . S
C353 H375 0.929 . S
C354 O364 1.241 . S
C354 O365 1.273 . S
C355 O366 1.251 . S
C355 O367 1.268 . S
O356 Nd336 2.500 . S
O356 C338 1.258 . S
O357 Nd336 2.492 . S
O357 C338 1.239 . S
O358 Nd336 2.487 . S
O358 C345 1.241 . S
O359 Nd336 2.682 . S
O359 Nd337 2.414 . S
O359 C345 1.273 . S
O360 Nd336 2.410 . S
O360 C346 1.251 . S
O361 Nd337 2.424 . S
O361 C346 1.268 . S
O362 Nd337 2.500 . S
O362 C347 1.258 . S
O363 Nd337 2.492 . S
O363 C347 1.239 . S
O364 Nd337 2.487 . S
O364 C354 1.241 . S
O365 Nd336 2.414 . S
O365 Nd337 2.682 . S
O365 C354 1.273 . S
O366 Nd337 2.410 . S
O366 C355 1.251 . S
O367 Nd336 2.424 . S
O367 C355 1.268 . S
H368 C340 0.930 . S
H369 C341 0.929 . S
H370 C343 0.930 . S
H371 C344 0.929 . S
H372 C349 0.930 . S
H373 C350 0.929 . S
H374 C352 0.930 . S
H375 C353 0.929 . S
Nd376 C378 2.836 . S
Nd376 O396 2.500 . S
Nd376 O397 2.492 . S
Nd376 O398 2.487 1_655 S
Nd376 O399 2.682 1_655 S
Nd376 O400 2.410 . S
Nd376 O405 2.414 1_554 S
Nd376 O407 2.424 1_655 S
Nd377 C387 2.836 . S
Nd377 O399 2.414 1_556 S
Nd377 O401 2.424 1_455 S
Nd377 O402 2.500 . S
Nd377 O403 2.492 . S
Nd377 O404 2.487 1_455 S
Nd377 O405 2.682 1_455 S
Nd377 O406 2.410 . S
C378 Nd376 2.836 . S
C378 C379 1.498 . S
C378 O396 1.258 . S
C378 O397 1.239 . S
C379 C378 1.498 . S
C379 C380 1.366 . S
C379 C384 1.407 . S
C380 C379 1.366 . S
C380 C381 1.392 . S
C380 H408 0.930 . S
C381 C380 1.392 . S
C381 C382 1.398 . S
C381 H409 0.929 . S
C382 C381 1.398 . S
C382 C383 1.352 . S
C383 C382 1.352 . S
C383 C384 1.384 . S
C383 H410 0.930 . S
C384 C379 1.407 . S
C384 C383 1.384 . S
C384 H411 0.929 . S
C385 O398 1.241 . S
C385 O399 1.273 . S
C386 O400 1.251 1_556 S
C386 O401 1.268 . S
C387 Nd377 2.836 . S
C387 C388 1.498 . S
C387 O402 1.258 . S
C387 O403 1.239 . S
C388 C387 1.498 . S
C388 C389 1.366 . S
C388 C393 1.407 . S
C389 C388 1.366 . S
C389 C390 1.392 . S
C389 H412 0.930 . S
C390 C389 1.392 . S
C390 C391 1.398 . S
C390 H413 0.929 . S
C391 C390 1.398 . S
C391 C392 1.352 . S
C392 C391 1.352 . S
C392 C393 1.384 . S
C392 H414 0.930 . S
C393 C388 1.407 . S
C393 C392 1.384 . S
C393 H415 0.929 . S
C394 O404 1.241 . S
C394 O405 1.273 . S
C395 O406 1.251 1_554 S
C395 O407 1.268 . S
O396 Nd376 2.500 . S
O396 C378 1.258 . S
O397 Nd376 2.492 . S
O397 C378 1.239 . S
O398 Nd376 2.487 1_455 S
O398 C385 1.241 . S
O399 Nd376 2.682 1_455 S
O399 Nd377 2.414 1_554 S
O399 C385 1.273 . S
O400 Nd376 2.410 . S
O400 C386 1.251 1_554 S
O401 Nd377 2.424 1_655 S
O401 C386 1.268 . S
O402 Nd377 2.500 . S
O402 C387 1.258 . S
O403 Nd377 2.492 . S
O403 C387 1.239 . S
O404 Nd377 2.487 1_655 S
O404 C394 1.241 . S
O405 Nd376 2.414 1_556 S
O405 Nd377 2.682 1_655 S
O405 C394 1.273 . S
O406 Nd377 2.410 . S
O406 C395 1.251 1_556 S
O407 Nd376 2.424 1_455 S
O407 C395 1.268 . S
H408 C380 0.930 . S
H409 C381 0.929 . S
H410 C383 0.930 . S
H411 C384 0.929 . S
H412 C389 0.930 . S
H413 C390 0.929 . S
H414 C392 0.930 . S
H415 C393 0.929 . S
C416 C417 1.391 . S
C416 C418 1.394 . S
C416 H432 0.931 . S
C417 C416 1.391 . S
C417 C421 1.376 . S
C418 C416 1.394 . S
C418 C419 1.369 . S
C418 C422 1.531 . S
C419 C418 1.369 . S
C419 C420 1.410 . S
C419 C427 1.503 . S
C420 C419 1.410 . S
C420 C421 1.392 . S
C420 C423 1.511 . S
C421 C417 1.376 . S
C421 C420 1.392 . S
C421 H433 0.929 . S
C422 C418 1.531 . S
C422 H434 0.960 . S
C422 H435 0.962 . S
C422 H436 0.960 . S
C423 C420 1.511 . S
C423 H437 0.961 . S
C423 H438 0.961 . S
C423 H439 0.961 . S
C424 C425 1.370 . S
C424 C426 1.363 . S
C424 H440 0.931 . S
C425 C424 1.370 . S
C425 C429 1.408 . S
C426 C424 1.363 . S
C426 C427 1.370 . S
C426 C430 1.524 . S
C427 C419 1.503 . S
C427 C426 1.370 . S
C427 C428 1.403 . S
C428 C427 1.403 . S
C428 C429 1.404 . S
C428 C431 1.539 . S
C429 C425 1.408 . S
C429 C428 1.404 . S
C429 H441 0.930 . S
C430 C426 1.524 . S
C430 H442 0.956 . S
C430 H443 0.961 . S
C430 H444 0.961 . S
C431 C428 1.539 . S
C431 H445 0.958 . S
C431 H446 0.961 . S
C431 H447 0.960 . S
H432 C416 0.931 . S
H433 C421 0.929 . S
H434 C422 0.960 . S
H435 C422 0.962 . S
H436 C422 0.960 . S
H437 C423 0.961 . S
H438 C423 0.961 . S
H439 C423 0.961 . S
H440 C424 0.931 . S
H441 C429 0.930 . S
H442 C430 0.956 . S
H443 C430 0.961 . S
H444 C430 0.961 . S
H445 C431 0.958 . S
H446 C431 0.961 . S
H447 C431 0.960 . S
C448 C449 1.391 . S
C448 C450 1.394 . S
C448 H464 0.931 . S
C449 C448 1.391 . S
C449 C453 1.376 . S
C450 C448 1.394 . S
C450 C451 1.369 . S
C450 C454 1.531 . S
C451 C450 1.369 . S
C451 C452 1.410 . S
C451 C459 1.503 . S
C452 C451 1.410 . S
C452 C453 1.392 . S
C452 C455 1.511 . S
C453 C449 1.376 . S
C453 C452 1.392 . S
C453 H465 0.929 . S
C454 C450 1.531 . S
C454 H466 0.960 . S
C454 H467 0.962 . S
C454 H468 0.960 . S
C455 C452 1.511 . S
C455 H469 0.961 . S
C455 H470 0.961 . S
C455 H471 0.961 . S
C456 C457 1.370 . S
C456 C458 1.363 . S
C456 H472 0.931 . S
C457 C456 1.370 . S
C457 C461 1.408 . S
C458 C456 1.363 . S
C458 C459 1.370 . S
C458 C462 1.524 . S
C459 C451 1.503 . S
C459 C458 1.370 . S
C459 C460 1.403 . S
C460 C459 1.403 . S
C460 C461 1.404 . S
C460 C463 1.539 . S
C461 C457 1.408 . S
C461 C460 1.404 . S
C461 H473 0.930 . S
C462 C458 1.524 . S
C462 H474 0.956 . S
C462 H475 0.961 . S
C462 H476 0.961 . S
C463 C460 1.539 . S
C463 H477 0.958 . S
C463 H478 0.961 . S
C463 H479 0.960 . S
H464 C448 0.931 . S
H465 C453 0.929 . S
H466 C454 0.960 . S
H467 C454 0.962 . S
H468 C454 0.960 . S
H469 C455 0.961 . S
H470 C455 0.961 . S
H471 C455 0.961 . S
H472 C456 0.931 . S
H473 C461 0.930 . S
H474 C462 0.956 . S
H475 C462 0.961 . S
H476 C462 0.961 . S
H477 C463 0.958 . S
H478 C463 0.961 . S
H479 C463 0.960 . S
C480 C481 1.391 . S
C480 C482 1.394 . S
C480 H496 0.931 . S
C481 C480 1.391 . S
C481 C485 1.376 . S
C482 C480 1.394 . S
C482 C483 1.369 . S
C482 C486 1.531 . S
C483 C482 1.369 . S
C483 C484 1.410 . S
C483 C491 1.503 . S
C484 C483 1.410 . S
C484 C485 1.392 . S
C484 C487 1.511 . S
C485 C481 1.376 . S
C485 C484 1.392 . S
C485 H497 0.929 . S
C486 C482 1.531 . S
C486 H498 0.960 . S
C486 H499 0.962 . S
C486 H500 0.960 . S
C487 C484 1.511 . S
C487 H501 0.961 . S
C487 H502 0.961 . S
C487 H503 0.961 . S
C488 C489 1.370 . S
C488 C490 1.363 . S
C488 H504 0.931 . S
C489 C488 1.370 . S
C489 C493 1.408 . S
C490 C488 1.363 . S
C490 C491 1.370 . S
C490 C494 1.524 . S
C491 C483 1.503 . S
C491 C490 1.370 . S
C491 C492 1.403 . S
C492 C491 1.403 . S
C492 C493 1.404 . S
C492 C495 1.539 . S
C493 C489 1.408 . S
C493 C492 1.404 . S
C493 H505 0.930 . S
C494 C490 1.524 . S
C494 H506 0.956 . S
C494 H507 0.961 . S
C494 H508 0.961 . S
C495 C492 1.539 . S
C495 H509 0.958 . S
C495 H510 0.961 . S
C495 H511 0.960 . S
H496 C480 0.931 . S
H497 C485 0.929 . S
H498 C486 0.960 . S
H499 C486 0.962 . S
H500 C486 0.960 . S
H501 C487 0.961 . S
H502 C487 0.961 . S
H503 C487 0.961 . S
H504 C488 0.931 . S
H505 C493 0.930 . S
H506 C494 0.956 . S
H507 C494 0.961 . S
H508 C494 0.961 . S
H509 C495 0.958 . S
H510 C495 0.961 . S
H511 C495 0.960 . S
C512 C513 1.391 . S
C512 C514 1.394 . S
C512 H528 0.931 . S
C513 C512 1.391 . S
C513 C517 1.376 . S
C514 C512 1.394 . S
C514 C515 1.369 . S
C514 C518 1.531 . S
C515 C514 1.369 . S
C515 C516 1.410 . S
C515 C523 1.503 . S
C516 C515 1.410 . S
C516 C517 1.392 . S
C516 C519 1.511 . S
C517 C513 1.376 . S
C517 C516 1.392 . S
C517 H529 0.929 . S
C518 C514 1.531 . S
C518 H530 0.960 . S
C518 H531 0.962 . S
C518 H532 0.960 . S
C519 C516 1.511 . S
C519 H533 0.961 . S
C519 H534 0.961 . S
C519 H535 0.961 . S
C520 C521 1.370 . S
C520 C522 1.363 . S
C520 H536 0.931 . S
C521 C520 1.370 . S
C521 C525 1.408 . S
C522 C520 1.363 . S
C522 C523 1.370 . S
C522 C526 1.524 . S
C523 C515 1.503 . S
C523 C522 1.370 . S
C523 C524 1.403 . S
C524 C523 1.403 . S
C524 C525 1.404 . S
C524 C527 1.539 . S
C525 C521 1.408 . S
C525 C524 1.404 . S
C525 H537 0.930 . S
C526 C522 1.524 . S
C526 H538 0.956 . S
C526 H539 0.961 . S
C526 H540 0.961 . S
C527 C524 1.539 . S
C527 H541 0.958 . S
C527 H542 0.961 . S
C527 H543 0.960 . S
H528 C512 0.931 . S
H529 C517 0.929 . S
H530 C518 0.960 . S
H531 C518 0.962 . S
H532 C518 0.960 . S
H533 C519 0.961 . S
H534 C519 0.961 . S
H535 C519 0.961 . S
H536 C520 0.931 . S
H537 C525 0.930 . S
H538 C526 0.956 . S
H539 C526 0.961 . S
H540 C526 0.961 . S
H541 C527 0.958 . S
H542 C527 0.961 . S
H543 C527 0.960 . S
C544 C545 1.391 . S
C544 C546 1.394 . S
C544 H560 0.931 . S
C545 C544 1.391 . S
C545 C549 1.376 . S
C546 C544 1.394 . S
C546 C547 1.369 . S
C546 C550 1.531 . S
C547 C546 1.369 . S
C547 C548 1.410 . S
C547 C555 1.503 . S
C548 C547 1.410 . S
C548 C549 1.392 . S
C548 C551 1.511 . S
C549 C545 1.376 . S
C549 C548 1.392 . S
C549 H561 0.929 . S
C550 C546 1.531 . S
C550 H562 0.960 . S
C550 H563 0.962 . S
C550 H564 0.960 . S
C551 C548 1.511 . S
C551 H565 0.961 1_554 S
C551 H566 0.961 . S
C551 H567 0.961 . S
C552 C553 1.370 . S
C552 C554 1.363 . S
C552 H568 0.931 . S
C553 C552 1.370 . S
C553 C557 1.408 . S
C554 C552 1.363 . S
C554 C555 1.370 . S
C554 C558 1.524 . S
C555 C547 1.503 . S
C555 C554 1.370 . S
C555 C556 1.403 . S
C556 C555 1.403 . S
C556 C557 1.404 . S
C556 C559 1.539 . S
C557 C553 1.408 . S
C557 C556 1.404 . S
C557 H569 0.930 . S
C558 C554 1.524 . S
C558 H570 0.956 . S
C558 H571 0.961 . S
C558 H572 0.961 . S
C559 C556 1.539 . S
C559 H573 0.958 . S
C559 H574 0.961 . S
C559 H575 0.960 . S
H560 C544 0.931 . S
H561 C549 0.929 . S
H562 C550 0.960 . S
H563 C550 0.962 . S
H564 C550 0.960 . S
H565 C551 0.961 1_556 S
H566 C551 0.961 . S
H567 C551 0.961 . S
H568 C552 0.931 . S
H569 C557 0.930 . S
H570 C558 0.956 . S
H571 C558 0.961 . S
H572 C558 0.961 . S
H573 C559 0.958 . S
H574 C559 0.961 . S
H575 C559 0.960 . S
C576 C577 1.391 . S
C576 C578 1.394 . S
C576 H592 0.931 . S
C577 C576 1.391 . S
C577 C581 1.376 . S
C578 C576 1.394 . S
C578 C579 1.369 . S
C578 C582 1.531 . S
C579 C578 1.369 . S
C579 C580 1.410 . S
C579 C587 1.503 . S
C580 C579 1.410 . S
C580 C581 1.392 . S
C580 C583 1.511 . S
C581 C577 1.376 . S
C581 C580 1.392 . S
C581 H593 0.929 . S
C582 C578 1.531 . S
C582 H594 0.960 . S
C582 H595 0.962 . S
C582 H596 0.960 . S
C583 C580 1.511 . S
C583 H597 0.961 . S
C583 H598 0.961 . S
C583 H599 0.961 . S
C584 C585 1.370 . S
C584 C586 1.363 . S
C584 H600 0.931 . S
C585 C584 1.370 . S
C585 C589 1.408 . S
C586 C584 1.363 . S
C586 C587 1.370 . S
C586 C590 1.524 . S
C587 C579 1.503 . S
C587 C586 1.370 . S
C587 C588 1.403 . S
C588 C587 1.403 . S
C588 C589 1.404 . S
C588 C591 1.539 . S
C589 C585 1.408 . S
C589 C588 1.404 . S
C589 H601 0.930 . S
C590 C586 1.524 . S
C590 H602 0.956 . S
C590 H603 0.961 . S
C590 H604 0.961 . S
C591 C588 1.539 . S
C591 H605 0.958 . S
C591 H606 0.961 . S
C591 H607 0.960 . S
H592 C576 0.931 . S
H593 C581 0.929 . S
H594 C582 0.960 . S
H595 C582 0.962 . S
H596 C582 0.960 . S
H597 C583 0.961 . S
H598 C583 0.961 . S
H599 C583 0.961 . S
H600 C584 0.931 . S
H601 C589 0.930 . S
H602 C590 0.956 . S
H603 C590 0.961 . S
H604 C590 0.961 . S
H605 C591 0.958 . S
H606 C591 0.961 . S
H607 C591 0.960 . S
C608 C609 1.391 . S
C608 C610 1.394 . S
C608 H624 0.931 . S
C609 C608 1.391 . S
C609 C613 1.376 . S
C610 C608 1.394 . S
C610 C611 1.369 . S
C610 C614 1.531 . S
C611 C610 1.369 . S
C611 C612 1.410 . S
C611 C619 1.503 . S
C612 C611 1.410 . S
C612 C613 1.392 . S
C612 C615 1.511 . S
C613 C609 1.376 . S
C613 C612 1.392 . S
C613 H625 0.929 . S
C614 C610 1.531 . S
C614 H626 0.960 . S
C614 H627 0.962 . S
C614 H628 0.960 . S
C615 C612 1.511 . S
C615 H629 0.961 . S
C615 H630 0.961 . S
C615 H631 0.961 . S
C616 C617 1.370 . S
C616 C618 1.363 . S
C616 H632 0.931 . S
C617 C616 1.370 . S
C617 C621 1.408 . S
C618 C616 1.363 . S
C618 C619 1.370 . S
C618 C622 1.524 . S
C619 C611 1.503 . S
C619 C618 1.370 . S
C619 C620 1.403 . S
C620 C619 1.403 . S
C620 C621 1.404 . S
C620 C623 1.539 . S
C621 C617 1.408 . S
C621 C620 1.404 . S
C621 H633 0.930 . S
C622 C618 1.524 . S
C622 H634 0.956 . S
C622 H635 0.961 . S
C622 H636 0.961 . S
C623 C620 1.539 . S
C623 H637 0.958 . S
C623 H638 0.961 . S
C623 H639 0.960 . S
H624 C608 0.931 . S
H625 C613 0.929 . S
H626 C614 0.960 . S
H627 C614 0.962 . S
H628 C614 0.960 . S
H629 C615 0.961 . S
H630 C615 0.961 . S
H631 C615 0.961 . S
H632 C616 0.931 . S
H633 C621 0.930 . S
H634 C622 0.956 . S
H635 C622 0.961 . S
H636 C622 0.961 . S
H637 C623 0.958 . S
H638 C623 0.961 . S
H639 C623 0.960 . S
C640 C641 1.391 . S
C640 C642 1.394 . S
C640 H656 0.931 . S
C641 C640 1.391 . S
C641 C645 1.376 . S
C642 C640 1.394 . S
C642 C643 1.369 . S
C642 C646 1.531 . S
C643 C642 1.369 . S
C643 C644 1.410 . S
C643 C651 1.503 . S
C644 C643 1.410 . S
C644 C645 1.392 . S
C644 C647 1.511 . S
C645 C641 1.376 . S
C645 C644 1.392 . S
C645 H657 0.929 . S
C646 C642 1.531 . S
C646 H658 0.960 . S
C646 H659 0.962 . S
C646 H660 0.960 . S
C647 C644 1.511 . S
C647 H661 0.961 . S
C647 H662 0.961 . S
C647 H663 0.961 . S
C648 C649 1.370 . S
C648 C650 1.363 . S
C648 H664 0.931 . S
C649 C648 1.370 . S
C649 C653 1.408 . S
C650 C648 1.363 . S
C650 C651 1.370 . S
C650 C654 1.524 . S
C651 C643 1.503 . S
C651 C650 1.370 . S
C651 C652 1.403 . S
C652 C651 1.403 . S
C652 C653 1.404 . S
C652 C655 1.539 . S
C653 C649 1.408 . S
C653 C652 1.404 . S
C653 H665 0.930 . S
C654 C650 1.524 . S
C654 H666 0.956 . S
C654 H667 0.961 . S
C654 H668 0.961 . S
C655 C652 1.539 . S
C655 H669 0.958 . S
C655 H670 0.961 . S
C655 H671 0.960 . S
H656 C640 0.931 . S
H657 C645 0.929 . S
H658 C646 0.960 . S
H659 C646 0.962 . S
H660 C646 0.960 . S
H661 C647 0.961 . S
H662 C647 0.961 . S
H663 C647 0.961 . S
H664 C648 0.931 . S
H665 C653 0.930 . S
H666 C654 0.956 . S
H667 C654 0.961 . S
H668 C654 0.961 . S
H669 C655 0.958 . S
H670 C655 0.961 . S
H671 C655 0.960 . S
C672 C673 1.391 . S
C672 C674 1.394 . S
C672 H688 0.931 . S
C673 C672 1.391 . S
C673 C677 1.376 . S
C674 C672 1.394 . S
C674 C675 1.369 . S
C674 C678 1.531 . S
C675 C674 1.369 . S
C675 C676 1.410 . S
C675 C683 1.503 . S
C676 C675 1.410 . S
C676 C677 1.392 . S
C676 C679 1.511 . S
C677 C673 1.376 . S
C677 C676 1.392 . S
C677 H689 0.929 . S
C678 C674 1.531 . S
C678 H690 0.960 . S
C678 H691 0.962 . S
C678 H692 0.960 . S
C679 C676 1.511 . S
C679 H693 0.961 . S
C679 H694 0.961 . S
C679 H695 0.958 . S
C680 C681 1.370 . S
C680 C682 1.363 . S
C680 H696 0.931 . S
C681 C680 1.370 . S
C681 C685 1.411 . S
C682 C680 1.363 . S
C682 C683 1.370 . S
C682 C686 1.524 . S
C683 C675 1.503 . S
C683 C682 1.370 . S
C683 C684 1.403 . S
C684 C683 1.403 . S
C684 C685 1.404 . S
C684 C687 1.539 1_554 S
C685 C681 1.411 . S
C685 C684 1.404 . S
C685 H697 0.927 1_554 S
C686 C682 1.524 . S
C686 H698 0.956 . S
C686 H699 0.961 . S
C686 H700 0.961 . S
C687 C684 1.539 1_556 S
C687 H701 0.958 . S
C687 H702 0.961 . S
C687 H703 0.960 . S
H688 C672 0.931 . S
H689 C677 0.929 . S
H690 C678 0.960 . S
H691 C678 0.962 . S
H692 C678 0.960 . S
H693 C679 0.961 . S
H694 C679 0.961 . S
H695 C679 0.958 . S
H696 C680 0.931 . S
H697 C685 0.927 1_556 S
H698 C686 0.956 . S
H699 C686 0.961 . S
H700 C686 0.961 . S
H701 C687 0.958 . S
H702 C687 0.961 . S
H703 C687 0.960 . S
C704 C705 1.391 . S
C704 C706 1.394 . S
C704 H720 0.931 . S
C705 C704 1.391 . S
C705 C709 1.376 . S
C706 C704 1.394 . S
C706 C707 1.369 . S
C706 C710 1.531 . S
C707 C706 1.369 . S
C707 C708 1.410 . S
C707 C715 1.503 . S
C708 C707 1.410 . S
C708 C709 1.392 . S
C708 C711 1.511 . S
C709 C705 1.376 . S
C709 C708 1.392 . S
C709 H721 0.929 . S
C710 C706 1.531 . S
C710 H722 0.960 . S
C710 H723 0.962 . S
C710 H724 0.960 . S
C711 C708 1.511 . S
C711 H725 0.961 . S
C711 H726 0.961 . S
C711 H727 0.961 . S
C712 C713 1.370 . S
C712 C714 1.363 . S
C712 H728 0.931 . S
C713 C712 1.370 . S
C713 C717 1.408 . S
C714 C712 1.363 . S
C714 C715 1.370 . S
C714 C718 1.524 . S
C715 C707 1.503 . S
C715 C714 1.370 . S
C715 C716 1.403 . S
C716 C715 1.403 . S
C716 C717 1.404 . S
C716 C719 1.539 . S
C717 C713 1.408 . S
C717 C716 1.404 . S
C717 H729 0.930 . S
C718 C714 1.524 . S
C718 H730 0.956 . S
C718 H731 0.961 . S
C718 H732 0.961 . S
C719 C716 1.539 . S
C719 H733 0.958 . S
C719 H734 0.961 . S
C719 H735 0.960 . S
H720 C704 0.931 . S
H721 C709 0.929 . S
H722 C710 0.960 . S
H723 C710 0.962 . S
H724 C710 0.960 . S
H725 C711 0.961 . S
H726 C711 0.961 . S
H727 C711 0.961 . S
H728 C712 0.931 . S
H729 C717 0.930 . S
H730 C718 0.956 . S
H731 C718 0.961 . S
H732 C718 0.961 . S
H733 C719 0.958 . S
H734 C719 0.961 . S
H735 C719 0.960 . S
C736 C737 1.391 . S
C736 C738 1.394 . S
C736 H752 0.931 . S
C737 C736 1.391 . S
C737 C741 1.376 . S
C738 C736 1.394 . S
C738 C739 1.369 . S
C738 C742 1.531 . S
C739 C738 1.369 . S
C739 C740 1.410 . S
C739 C747 1.503 . S
C740 C739 1.410 . S
C740 C741 1.392 . S
C740 C743 1.511 . S
C741 C737 1.376 . S
C741 C740 1.392 . S
C741 H753 0.929 . S
C742 C738 1.531 . S
C742 H754 0.960 . S
C742 H755 0.962 . S
C742 H756 0.960 . S
C743 C740 1.511 . S
C743 H757 0.961 . S
C743 H758 0.961 . S
C743 H759 0.961 . S
C744 C745 1.370 . S
C744 C746 1.363 . S
C744 H760 0.931 . S
C745 C744 1.370 . S
C745 C749 1.408 . S
C746 C744 1.363 . S
C746 C747 1.370 . S
C746 C750 1.524 . S
C747 C739 1.503 . S
C747 C746 1.370 . S
C747 C748 1.403 . S
C748 C747 1.403 . S
C748 C749 1.404 . S
C748 C751 1.539 . S
C749 C745 1.408 . S
C749 C748 1.404 . S
C749 H761 0.930 . S
C750 C746 1.524 . S
C750 H762 0.956 . S
C750 H763 0.961 . S
C750 H764 0.961 . S
C751 C748 1.539 . S
C751 H765 0.958 . S
C751 H766 0.961 . S
C751 H767 0.960 . S
H752 C736 0.931 . S
H753 C741 0.929 . S
H754 C742 0.960 . S
H755 C742 0.962 . S
H756 C742 0.960 . S
H757 C743 0.961 . S
H758 C743 0.961 . S
H759 C743 0.961 . S
H760 C744 0.931 . S
H761 C749 0.930 . S
H762 C750 0.956 . S
H763 C750 0.961 . S
H764 C750 0.961 . S
H765 C751 0.958 . S
H766 C751 0.961 . S
H767 C751 0.960 . S
C768 C769 1.391 . S
C768 C770 1.394 . S
C768 H784 0.931 . S
C769 C768 1.391 . S
C769 C773 1.376 . S
C770 C768 1.394 . S
C770 C771 1.369 . S
C770 C774 1.531 . S
C771 C770 1.369 . S
C771 C772 1.410 . S
C771 C779 1.503 . S
C772 C771 1.410 . S
C772 C773 1.392 . S
C772 C775 1.511 . S
C773 C769 1.376 . S
C773 C772 1.392 . S
C773 H785 0.929 . S
C774 C770 1.531 . S
C774 H786 0.960 . S
C774 H787 0.962 . S
C774 H788 0.960 . S
C775 C772 1.511 . S
C775 H789 0.961 . S
C775 H790 0.961 . S
C775 H791 0.961 . S
C776 C777 1.370 . S
C776 C778 1.363 . S
C776 H792 0.931 . S
C777 C776 1.370 . S
C777 C781 1.408 . S
C778 C776 1.363 . S
C778 C779 1.370 . S
C778 C782 1.524 . S
C779 C771 1.503 . S
C779 C778 1.370 . S
C779 C780 1.403 . S
C780 C779 1.403 . S
C780 C781 1.404 . S
C780 C783 1.539 . S
C781 C777 1.408 . S
C781 C780 1.404 . S
C781 H793 0.930 . S
C782 C778 1.524 . S
C782 H794 0.956 . S
C782 H795 0.961 . S
C782 H796 0.961 . S
C783 C780 1.539 . S
C783 H797 0.958 . S
C783 H798 0.961 . S
C783 H799 0.960 . S
H784 C768 0.931 . S
H785 C773 0.929 . S
H786 C774 0.960 . S
H787 C774 0.962 . S
H788 C774 0.960 . S
H789 C775 0.961 . S
H790 C775 0.961 . S
H791 C775 0.961 . S
H792 C776 0.931 . S
H793 C781 0.930 . S
H794 C782 0.956 . S
H795 C782 0.961 . S
H796 C782 0.961 . S
H797 C783 0.958 . S
H798 C783 0.961 . S
H799 C783 0.960 . S
C800 C801 1.391 . S
C800 C802 1.394 . S
C800 H816 0.931 . S
C801 C800 1.391 . S
C801 C805 1.376 . S
C802 C800 1.394 . S
C802 C803 1.369 . S
C802 C806 1.531 . S
C803 C802 1.369 . S
C803 C804 1.410 . S
C803 C811 1.503 . S
C804 C803 1.410 . S
C804 C805 1.392 . S
C804 C807 1.511 . S
C805 C801 1.376 . S
C805 C804 1.392 . S
C805 H817 0.929 . S
C806 C802 1.531 . S
C806 H818 0.960 . S
C806 H819 0.962 . S
C806 H820 0.960 . S
C807 C804 1.511 . S
C807 H821 0.961 . S
C807 H822 0.961 . S
C807 H823 0.961 . S
C808 C809 1.370 . S
C808 C810 1.363 . S
C808 H824 0.931 . S
C809 C808 1.370 . S
C809 C813 1.408 . S
C810 C808 1.363 . S
C810 C811 1.370 . S
C810 C814 1.524 . S
C811 C803 1.503 . S
C811 C810 1.370 . S
C811 C812 1.403 . S
C812 C811 1.403 . S
C812 C813 1.404 . S
C812 C815 1.539 . S
C813 C809 1.408 . S
C813 C812 1.404 . S
C813 H825 0.930 . S
C814 C810 1.524 . S
C814 H826 0.956 . S
C814 H827 0.961 . S
C814 H828 0.961 . S
C815 C812 1.539 . S
C815 H829 0.958 . S
C815 H830 0.961 . S
C815 H831 0.960 . S
H816 C800 0.931 . S
H817 C805 0.929 . S
H818 C806 0.960 . S
H819 C806 0.962 . S
H820 C806 0.960 . S
H821 C807 0.961 . S
H822 C807 0.961 . S
H823 C807 0.961 . S
H824 C808 0.931 . S
H825 C813 0.930 . S
H826 C814 0.956 . S
H827 C814 0.961 . S
H828 C814 0.961 . S
H829 C815 0.958 . S
H830 C815 0.961 . S
H831 C815 0.960 . S
C832 C833 1.391 . S
C832 C834 1.394 . S
C832 H848 0.931 . S
C833 C832 1.391 . S
C833 C837 1.376 . S
C834 C832 1.394 . S
C834 C835 1.369 . S
C834 C838 1.531 . S
C835 C834 1.369 . S
C835 C836 1.410 . S
C835 C843 1.503 . S
C836 C835 1.410 . S
C836 C837 1.392 . S
C836 C839 1.511 . S
C837 C833 1.376 . S
C837 C836 1.392 . S
C837 H849 0.929 . S
C838 C834 1.531 . S
C838 H850 0.960 . S
C838 H851 0.962 . S
C838 H852 0.960 . S
C839 C836 1.511 . S
C839 H853 0.961 . S
C839 H854 0.961 . S
C839 H855 0.961 . S
C840 C841 1.370 . S
C840 C842 1.363 . S
C840 H856 0.931 . S
C841 C840 1.370 . S
C841 C845 1.408 . S
C842 C840 1.363 . S
C842 C843 1.370 . S
C842 C846 1.524 . S
C843 C835 1.503 . S
C843 C842 1.370 . S
C843 C844 1.403 . S
C844 C843 1.403 . S
C844 C845 1.404 . S
C844 C847 1.539 . S
C845 C841 1.408 . S
C845 C844 1.404 . S
C845 H857 0.930 . S
C846 C842 1.524 . S
C846 H858 0.956 . S
C846 H859 0.961 . S
C846 H860 0.961 . S
C847 C844 1.539 . S
C847 H861 0.958 . S
C847 H862 0.961 . S
C847 H863 0.960 . S
H848 C832 0.931 . S
H849 C837 0.929 . S
H850 C838 0.960 . S
H851 C838 0.962 . S
H852 C838 0.960 . S
H853 C839 0.961 . S
H854 C839 0.961 . S
H855 C839 0.961 . S
H856 C840 0.931 . S
H857 C845 0.930 . S
H858 C846 0.956 . S
H859 C846 0.961 . S
H860 C846 0.961 . S
H861 C847 0.958 . S
H862 C847 0.961 . S
H863 C847 0.960 . S
C864 C865 1.391 . S
C864 C866 1.394 . S
C864 H880 0.931 . S
C865 C864 1.391 . S
C865 C869 1.376 . S
C866 C864 1.394 . S
C866 C867 1.369 . S
C866 C870 1.531 . S
C867 C866 1.369 . S
C867 C868 1.410 . S
C867 C875 1.503 . S
C868 C867 1.410 . S
C868 C869 1.392 . S
C868 C871 1.511 . S
C869 C865 1.376 . S
C869 C868 1.392 . S
C869 H881 0.929 . S
C870 C866 1.531 . S
C870 H882 0.960 . S
C870 H883 0.962 . S
C870 H884 0.960 . S
C871 C868 1.511 . S
C871 H885 0.961 . S
C871 H886 0.961 . S
C871 H887 0.961 . S
C872 C873 1.370 . S
C872 C874 1.363 . S
C872 H888 0.931 . S
C873 C872 1.370 . S
C873 C877 1.408 . S
C874 C872 1.363 . S
C874 C875 1.370 . S
C874 C878 1.524 . S
C875 C867 1.503 . S
C875 C874 1.370 . S
C875 C876 1.403 . S
C876 C875 1.403 . S
C876 C877 1.404 . S
C876 C879 1.539 . S
C877 C873 1.408 . S
C877 C876 1.404 . S
C877 H889 0.930 . S
C878 C874 1.524 . S
C878 H890 0.956 . S
C878 H891 0.961 . S
C878 H892 0.961 . S
C879 C876 1.539 . S
C879 H893 0.958 . S
C879 H894 0.961 . S
C879 H895 0.960 . S
H880 C864 0.931 . S
H881 C869 0.929 . S
H882 C870 0.960 . S
H883 C870 0.962 . S
H884 C870 0.960 . S
H885 C871 0.961 . S
H886 C871 0.961 . S
H887 C871 0.961 . S
H888 C872 0.931 . S
H889 C877 0.930 . S
H890 C878 0.956 . S
H891 C878 0.961 . S
H892 C878 0.961 . S
H893 C879 0.958 . S
H894 C879 0.961 . S
H895 C879 0.960 . S
C896 C897 1.391 . S
C896 C898 1.394 . S
C896 H912 0.931 . S
C897 C896 1.391 . S
C897 C901 1.376 . S
C898 C896 1.394 . S
C898 C899 1.369 . S
C898 C902 1.531 . S
C899 C898 1.369 . S
C899 C900 1.410 . S
C899 C907 1.503 . S
C900 C899 1.410 . S
C900 C901 1.392 . S
C900 C903 1.511 . S
C901 C897 1.376 . S
C901 C900 1.392 . S
C901 H913 0.929 . S
C902 C898 1.531 . S
C902 H914 0.960 . S
C902 H915 0.962 . S
C902 H916 0.960 . S
C903 C900 1.511 . S
C903 H917 0.961 . S
C903 H918 0.961 . S
C903 H919 0.961 . S
C904 C905 1.370 . S
C904 C906 1.363 . S
C904 H920 0.931 . S
C905 C904 1.370 . S
C905 C909 1.408 . S
C906 C904 1.363 . S
C906 C907 1.370 . S
C906 C910 1.524 . S
C907 C899 1.503 . S
C907 C906 1.370 . S
C907 C908 1.403 . S
C908 C907 1.403 . S
C908 C909 1.404 . S
C908 C911 1.539 . S
C909 C905 1.408 . S
C909 C908 1.404 . S
C909 H921 0.930 . S
C910 C906 1.524 . S
C910 H922 0.956 . S
C910 H923 0.961 . S
C910 H924 0.961 . S
C911 C908 1.539 . S
C911 H925 0.958 . S
C911 H926 0.961 . S
C911 H927 0.960 . S
H912 C896 0.931 . S
H913 C901 0.929 . S
H914 C902 0.960 . S
H915 C902 0.962 . S
H916 C902 0.960 . S
H917 C903 0.961 . S
H918 C903 0.961 . S
H919 C903 0.961 . S
H920 C904 0.931 . S
H921 C909 0.930 . S
H922 C910 0.956 . S
H923 C910 0.961 . S
H924 C910 0.961 . S
H925 C911 0.958 . S
H926 C911 0.961 . S
H927 C911 0.960 . S
C928 C929 1.391 . S
C928 C930 1.394 . S
C928 H944 0.931 . S
C929 C928 1.391 . S
C929 C933 1.376 . S
C930 C928 1.394 . S
C930 C931 1.369 . S
C930 C934 1.531 . S
C931 C930 1.369 . S
C931 C932 1.410 . S
C931 C939 1.503 . S
C932 C931 1.410 . S
C932 C933 1.392 . S
C932 C935 1.511 . S
C933 C929 1.376 . S
C933 C932 1.392 . S
C933 H945 0.929 . S
C934 C930 1.531 . S
C934 H946 0.960 1_556 S
C934 H947 0.962 . S
C934 H948 0.960 1_556 S
C935 C932 1.511 . S
C935 H949 0.961 . S
C935 H950 0.961 . S
C935 H951 0.961 . S
C936 C937 1.370 . S
C936 C938 1.363 . S
C936 H952 0.931 . S
C937 C936 1.370 . S
C937 C941 1.408 . S
C938 C936 1.363 . S
C938 C939 1.370 . S
C938 C942 1.524 . S
C939 C931 1.503 . S
C939 C938 1.370 . S
C939 C940 1.403 . S
C940 C939 1.403 . S
C940 C941 1.404 . S
C940 C943 1.539 1_556 S
C941 C937 1.408 . S
C941 C940 1.404 . S
C941 H953 0.930 1_556 S
C942 C938 1.524 . S
C942 H954 0.956 . S
C942 H955 0.961 . S
C942 H956 0.961 . S
C943 C940 1.539 1_554 S
C943 H957 0.958 . S
C943 H958 0.961 . S
C943 H959 0.960 1_554 S
H944 C928 0.931 . S
H945 C933 0.929 . S
H946 C934 0.960 1_554 S
H947 C934 0.962 . S
H948 C934 0.960 1_554 S
H949 C935 0.961 . S
H950 C935 0.961 . S
H951 C935 0.961 . S
H952 C936 0.931 . S
H953 C941 0.930 1_554 S
H954 C942 0.956 . S
H955 C942 0.961 . S
H956 C942 0.961 . S
H957 C943 0.958 . S
H958 C943 0.961 . S
H959 C943 0.960 1_556 S
C960 C961 1.391 . S
C960 C962 1.394 . S
C960 H976 0.931 . S
C961 C960 1.391 . S
C961 C965 1.376 . S
C962 C960 1.394 . S
C962 C963 1.369 . S
C962 C966 1.531 . S
C963 C962 1.369 . S
C963 C964 1.410 . S
C963 C971 1.503 . S
C964 C963 1.410 . S
C964 C965 1.392 . S
C964 C967 1.511 . S
C965 C961 1.376 . S
C965 C964 1.392 . S
C965 H977 0.929 . S
C966 C962 1.531 . S
C966 H978 0.960 . S
C966 H979 0.962 . S
C966 H980 0.960 . S
C967 C964 1.511 . S
C967 H981 0.961 . S
C967 H982 0.961 . S
C967 H983 0.961 . S
C968 C969 1.370 . S
C968 C970 1.363 . S
C968 H984 0.931 . S
C969 C968 1.370 . S
C969 C973 1.408 . S
C970 C968 1.363 . S
C970 C971 1.370 . S
C970 C974 1.524 . S
C971 C963 1.503 . S
C971 C970 1.370 . S
C971 C972 1.403 . S
C972 C971 1.403 . S
C972 C973 1.404 . S
C972 C975 1.539 . S
C973 C969 1.408 . S
C973 C972 1.404 . S
C973 H985 0.930 . S
C974 C970 1.524 . S
C974 H986 0.956 . S
C974 H987 0.961 . S
C974 H988 0.961 . S
C975 C972 1.539 . S
C975 H989 0.958 . S
C975 H990 0.961 . S
C975 H991 0.960 . S
H976 C960 0.931 . S
H977 C965 0.929 . S
H978 C966 0.960 . S
H979 C966 0.962 . S
H980 C966 0.960 . S
H981 C967 0.961 . S
H982 C967 0.961 . S
H983 C967 0.961 . S
H984 C968 0.931 . S
H985 C973 0.930 . S
H986 C974 0.956 . S
H987 C974 0.961 . S
H988 C974 0.961 . S
H989 C975 0.958 . S
H990 C975 0.961 . S
H991 C975 0.960 . S
C992 C993 1.391 . S
C992 C994 1.394 . S
C992 H1008 0.931 . S
C993 C992 1.391 . S
C993 C997 1.376 . S
C994 C992 1.394 . S
C994 C995 1.369 . S
C994 C998 1.531 . S
C995 C994 1.369 . S
C995 C996 1.410 . S
C995 C1003 1.503 . S
C996 C995 1.410 . S
C996 C997 1.392 . S
C996 C999 1.511 . S
C997 C993 1.376 . S
C997 C996 1.392 . S
C997 H1009 0.929 . S
C998 C994 1.531 . S
C998 H1010 0.960 . S
C998 H1011 0.962 . S
C998 H1012 0.960 . S
C999 C996 1.511 . S
C999 H1013 0.961 . S
C999 H1014 0.961 . S
C999 H1015 0.961 . S
C1000 C1001 1.370 . S
C1000 C1002 1.363 . S
C1000 H1016 0.931 . S
C1001 C1000 1.370 . S
C1001 C1005 1.408 . S
C1002 C1000 1.363 . S
C1002 C1003 1.370 . S
C1002 C1006 1.524 . S
C1003 C995 1.503 . S
C1003 C1002 1.370 . S
C1003 C1004 1.403 . S
C1004 C1003 1.403 . S
C1004 C1005 1.404 . S
C1004 C1007 1.539 . S
C1005 C1001 1.408 . S
C1005 C1004 1.404 . S
C1005 H1017 0.930 1_554 S
C1006 C1002 1.524 . S
C1006 H1018 0.956 . S
C1006 H1019 0.961 . S
C1006 H1020 0.961 . S
C1007 C1004 1.539 . S
C1007 H1021 0.958 1_554 S
C1007 H1022 0.961 1_554 S
C1007 H1023 0.960 . S
H1008 C992 0.931 . S
H1009 C997 0.929 . S
H1010 C998 0.960 . S
H1011 C998 0.962 . S
H1012 C998 0.960 . S
H1013 C999 0.961 . S
H1014 C999 0.961 . S
H1015 C999 0.961 . S
H1016 C1000 0.931 . S
H1017 C1005 0.930 1_556 S
H1018 C1006 0.956 . S
H1019 C1006 0.961 . S
H1020 C1006 0.961 . S
H1021 C1007 0.958 1_556 S
H1022 C1007 0.961 1_556 S
H1023 C1007 0.960 . S
C1024 C1025 1.391 . S
C1024 C1026 1.394 . S
C1024 H1040 0.931 . S
C1025 C1024 1.391 . S
C1025 C1029 1.376 . S
C1026 C1024 1.394 . S
C1026 C1027 1.369 . S
C1026 C1030 1.531 . S
C1027 C1026 1.369 . S
C1027 C1028 1.410 . S
C1027 C1035 1.503 . S
C1028 C1027 1.410 . S
C1028 C1029 1.392 . S
C1028 C1031 1.511 . S
C1029 C1025 1.376 . S
C1029 C1028 1.392 . S
C1029 H1041 0.929 . S
C1030 C1026 1.531 . S
C1030 H1042 0.960 . S
C1030 H1043 0.962 . S
C1030 H1044 0.960 . S
C1031 C1028 1.511 . S
C1031 H1045 0.961 . S
C1031 H1046 0.961 . S
C1031 H1047 0.961 . S
C1032 C1033 1.370 . S
C1032 C1034 1.363 . S
C1032 H1048 0.931 . S
C1033 C1032 1.370 . S
C1033 C1037 1.408 . S
C1034 C1032 1.363 . S
C1034 C1035 1.370 . S
C1034 C1038 1.524 . S
C1035 C1027 1.503 . S
C1035 C1034 1.370 . S
C1035 C1036 1.403 . S
C1036 C1035 1.403 . S
C1036 C1037 1.404 . S
C1036 C1039 1.539 . S
C1037 C1033 1.408 . S
C1037 C1036 1.404 . S
C1037 H1049 0.930 . S
C1038 C1034 1.524 . S
C1038 H1050 0.956 . S
C1038 H1051 0.961 . S
C1038 H1052 0.961 . S
C1039 C1036 1.539 . S
C1039 H1053 0.958 . S
C1039 H1054 0.961 . S
C1039 H1055 0.960 . S
H1040 C1024 0.931 . S
H1041 C1029 0.929 . S
H1042 C1030 0.960 . S
H1043 C1030 0.962 . S
H1044 C1030 0.960 . S
H1045 C1031 0.961 . S
H1046 C1031 0.961 . S
H1047 C1031 0.961 . S
H1048 C1032 0.931 . S
H1049 C1037 0.930 . S
H1050 C1038 0.956 . S
H1051 C1038 0.961 . S
H1052 C1038 0.961 . S
H1053 C1039 0.958 . S
H1054 C1039 0.961 . S
H1055 C1039 0.960 . S
C1056 C1057 1.391 . S
C1056 C1058 1.394 . S
C1056 H1072 0.931 . S
C1057 C1056 1.391 . S
C1057 C1061 1.376 . S
C1058 C1056 1.394 . S
C1058 C1059 1.369 . S
C1058 C1062 1.531 . S
C1059 C1058 1.369 . S
C1059 C1060 1.410 . S
C1059 C1067 1.503 . S
C1060 C1059 1.410 . S
C1060 C1061 1.392 . S
C1060 C1063 1.511 1_556 S
C1061 C1057 1.376 . S
C1061 C1060 1.392 . S
C1061 H1073 0.929 . S
C1062 C1058 1.531 . S
C1062 H1074 0.960 . S
C1062 H1075 0.962 . S
C1062 H1076 0.960 . S
C1063 C1060 1.511 1_554 S
C1063 H1077 0.961 . S
C1063 H1078 0.961 . S
C1063 H1079 0.961 . S
C1064 C1065 1.370 . S
C1064 C1066 1.363 . S
C1064 H1080 0.931 . S
C1065 C1064 1.370 . S
C1065 C1069 1.408 . S
C1066 C1064 1.363 . S
C1066 C1067 1.370 . S
C1066 C1070 1.524 . S
C1067 C1059 1.503 . S
C1067 C1066 1.370 . S
C1067 C1068 1.403 . S
C1068 C1067 1.403 . S
C1068 C1069 1.404 . S
C1068 C1071 1.539 . S
C1069 C1065 1.408 . S
C1069 C1068 1.404 . S
C1069 H1081 0.914 1_655 S
C1070 C1066 1.524 . S
C1070 H1082 0.956 . S
C1070 H1083 0.961 . S
C1070 H1084 0.961 . S
C1071 C1068 1.539 . S
C1071 H1085 0.958 . S
C1071 H1086 0.961 1_655 S
C1071 H1087 0.960 . S
H1072 C1056 0.931 . S
H1073 C1061 0.929 . S
H1074 C1062 0.960 . S
H1075 C1062 0.962 . S
H1076 C1062 0.960 . S
H1077 C1063 0.961 . S
H1078 C1063 0.961 . S
H1079 C1063 0.961 . S
H1080 C1064 0.931 . S
H1081 C1069 0.914 1_455 S
H1082 C1070 0.956 . S
H1083 C1070 0.961 . S
H1084 C1070 0.961 . S
H1085 C1071 0.958 . S
H1086 C1071 0.961 1_455 S
H1087 C1071 0.960 . S
C1088 C1089 1.391 . S
C1088 C1090 1.394 . S
C1088 H1104 0.931 . S
C1089 C1088 1.391 . S
C1089 C1093 1.376 . S
C1090 C1088 1.394 . S
C1090 C1091 1.369 . S
C1090 C1094 1.531 . S
C1091 C1090 1.369 . S
C1091 C1092 1.410 . S
C1091 C1099 1.503 . S
C1092 C1091 1.410 . S
C1092 C1093 1.392 . S
C1092 C1095 1.511 . S
C1093 C1089 1.376 . S
C1093 C1092 1.392 . S
C1093 H1105 0.929 . S
C1094 C1090 1.531 . S
C1094 H1106 0.960 . S
C1094 H1107 0.962 . S
C1094 H1108 0.960 . S
C1095 C1092 1.511 . S
C1095 H1109 0.961 . S
C1095 H1110 0.961 . S
C1095 H1111 0.961 . S
C1096 C1097 1.370 . S
C1096 C1098 1.363 . S
C1096 H1112 0.931 . S
C1097 C1096 1.370 . S
C1097 C1101 1.408 . S
C1098 C1096 1.363 . S
C1098 C1099 1.370 . S
C1098 C1102 1.524 . S
C1099 C1091 1.503 . S
C1099 C1098 1.370 . S
C1099 C1100 1.403 . S
C1100 C1099 1.403 . S
C1100 C1101 1.404 . S
C1100 C1103 1.539 . S
C1101 C1097 1.408 . S
C1101 C1100 1.404 . S
C1101 H1113 0.930 . S
C1102 C1098 1.524 . S
C1102 H1114 0.956 . S
C1102 H1115 0.961 . S
C1102 H1116 0.961 . S
C1103 C1100 1.539 . S
C1103 H1117 0.958 . S
C1103 H1118 0.961 . S
C1103 H1119 0.960 . S
H1104 C1088 0.931 . S
H1105 C1093 0.929 . S
H1106 C1094 0.960 . S
H1107 C1094 0.962 . S
H1108 C1094 0.960 . S
H1109 C1095 0.961 . S
H1110 C1095 0.961 . S
H1111 C1095 0.961 . S
H1112 C1096 0.931 . S
H1113 C1101 0.930 . S
H1114 C1102 0.956 . S
H1115 C1102 0.961 . S
H1116 C1102 0.961 . S
H1117 C1103 0.958 . S
H1118 C1103 0.961 . S
H1119 C1103 0.960 . S
C1120 C1121 1.391 . S
C1120 C1122 1.394 . S
C1120 H1136 0.931 . S
C1121 C1120 1.391 . S
C1121 C1125 1.376 . S
C1122 C1120 1.394 . S
C1122 C1123 1.369 . S
C1122 C1126 1.531 . S
C1123 C1122 1.369 . S
C1123 C1124 1.410 . S
C1123 C1131 1.503 . S
C1124 C1123 1.410 . S
C1124 C1125 1.392 . S
C1124 C1127 1.511 . S
C1125 C1121 1.376 . S
C1125 C1124 1.392 . S
C1125 H1137 0.929 . S
C1126 C1122 1.531 . S
C1126 H1138 0.960 . S
C1126 H1139 0.962 . S
C1126 H1140 0.960 . S
C1127 C1124 1.511 . S
C1127 H1141 0.961 . S
C1127 H1142 0.961 . S
C1127 H1143 0.961 . S
C1128 C1129 1.370 . S
C1128 C1130 1.363 . S
C1128 H1144 0.931 . S
C1129 C1128 1.370 . S
C1129 C1133 1.408 . S
C1130 C1128 1.363 . S
C1130 C1131 1.370 . S
C1130 C1134 1.524 . S
C1131 C1123 1.503 . S
C1131 C1130 1.370 . S
C1131 C1132 1.403 . S
C1132 C1131 1.403 . S
C1132 C1133 1.404 . S
C1132 C1135 1.539 . S
C1133 C1129 1.408 . S
C1133 C1132 1.404 . S
C1133 H1145 0.930 . S
C1134 C1130 1.524 . S
C1134 H1146 0.956 . S
C1134 H1147 0.961 . S
C1134 H1148 0.961 . S
C1135 C1132 1.539 . S
C1135 H1149 0.958 . S
C1135 H1150 0.961 . S
C1135 H1151 0.960 . S
H1136 C1120 0.931 . S
H1137 C1125 0.929 . S
H1138 C1126 0.960 . S
H1139 C1126 0.962 . S
H1140 C1126 0.960 . S
H1141 C1127 0.961 . S
H1142 C1127 0.961 . S
H1143 C1127 0.961 . S
H1144 C1128 0.931 . S
H1145 C1133 0.930 . S
H1146 C1134 0.956 . S
H1147 C1134 0.961 . S
H1148 C1134 0.961 . S
H1149 C1135 0.958 . S
H1150 C1135 0.961 . S
H1151 C1135 0.960 . S
C1152 C1153 1.391 . S
C1152 C1154 1.394 . S
C1152 H1168 0.931 . S
C1153 C1152 1.391 . S
C1153 C1157 1.376 . S
C1154 C1152 1.394 . S
C1154 C1155 1.369 . S
C1154 C1158 1.531 . S
C1155 C1154 1.369 . S
C1155 C1156 1.410 . S
C1155 C1163 1.503 . S
C1156 C1155 1.410 . S
C1156 C1157 1.392 . S
C1156 C1159 1.511 . S
C1157 C1153 1.376 . S
C1157 C1156 1.392 . S
C1157 H1169 0.929 . S
C1158 C1154 1.531 . S
C1158 H1170 0.960 . S
C1158 H1171 0.962 . S
C1158 H1172 0.960 . S
C1159 C1156 1.511 . S
C1159 H1173 0.961 . S
C1159 H1174 0.961 . S
C1159 H1175 0.961 . S
C1160 C1161 1.370 . S
C1160 C1162 1.363 . S
C1160 H1176 0.931 . S
C1161 C1160 1.370 . S
C1161 C1165 1.408 . S
C1162 C1160 1.363 . S
C1162 C1163 1.370 . S
C1162 C1166 1.524 . S
C1163 C1155 1.503 . S
C1163 C1162 1.370 . S
C1163 C1164 1.403 . S
C1164 C1163 1.403 . S
C1164 C1165 1.404 . S
C1164 C1167 1.539 . S
C1165 C1161 1.408 . S
C1165 C1164 1.404 . S
C1165 H1177 0.930 . S
C1166 C1162 1.524 . S
C1166 H1178 0.956 . S
C1166 H1179 0.961 . S
C1166 H1180 0.961 . S
C1167 C1164 1.539 . S
C1167 H1181 0.958 . S
C1167 H1182 0.961 . S
C1167 H1183 0.960 . S
H1168 C1152 0.931 . S
H1169 C1157 0.929 . S
H1170 C1158 0.960 . S
H1171 C1158 0.962 . S
H1172 C1158 0.960 . S
H1173 C1159 0.961 . S
H1174 C1159 0.961 . S
H1175 C1159 0.961 . S
H1176 C1160 0.931 . S
H1177 C1165 0.930 . S
H1178 C1166 0.956 . S
H1179 C1166 0.961 . S
H1180 C1166 0.961 . S
H1181 C1167 0.958 . S
H1182 C1167 0.961 . S
H1183 C1167 0.960 . S
C417 C29 2.858 . S
C425 C275 2.921 . S
C449 C49 2.191 . S
C457 C306 2.363 . S
C489 C345 1.365 . S
C481 C93 1.332 . S
C513 C119 0.522 . S
C521 C382 0.449 . S
C553 C305 2.768 . S
C545 C17 2.810 . S
C585 C262 1.489 . S
C577 C61 1.438 . S
C617 C394 1.406 . S
C609 C81 1.432 . S
C649 C351 1.101 . S
C641 C125 1.137 . S
C673 C23 2.215 . S
C681 C395 2.258 . S
C713 C311 1.258 . S
C705 C87 1.204 . S
C737 C113 0.623 . S
C745 C274 0.652 . S
C769 C55 2.260 . S
C777 C346 2.444 . S
C809 C266 2.859 . S
C801 C157 2.857 . S
C833 C189 2.404 . S
C841 C315 2.430 . S
C865 C221 1.387 . S
C873 C354 1.366 . S
C897 C253 0.496 . S
C905 C391 0.528 . S
C929 C145 2.896 . S
C937 C314 2.827 . S
C969 C271 1.426 . S
C961 C183 1.417 . S
C1001 C385 1.454 . S
C993 C209 1.465 . S
C1033 C342 1.066 . S
C1025 C247 1.094 . S
C1057 C151 2.250 . S
C1065 C386 2.276 . S
C1097 C302 1.256 . S
C1089 C215 1.242 . S
C1129 C265 0.558 . S
C1121 C241 0.521 . S
C1153 C177 2.471 . S
C1161 C355 2.463 . S
