# Generated by pormake.
# Topology ssa, (4,4)-cn, num edge types: 1
# Building blocks:
#     Node 0, Type 0, BuildingBlock: NAWXER_clean_sbu_0, # of connection points: 4
#     Node 1, Type 0, BuildingBlock: NAWXER_clean_sbu_0, # of connection points: 4
#     Node 2, Type 0, BuildingBlock: NAWXER_clean_sbu_0, # of connection points: 4
#     Node 3, Type 0, BuildingBlock: NAWXER_clean_sbu_0, # of connection points: 4
#     Node 4, Type 0, BuildingBlock: NAWXER_clean_sbu_0, # of connection points: 4
#     Node 5, Type 0, BuildingBlock: NAWXER_clean_sbu_0, # of connection points: 4
#     Node 6, Type 1, BuildingBlock: NAWXER_clean_linker_0, # of connection points: 4
#     Node 7, Type 1, BuildingBlock: NAWXER_clean_linker_0, # of connection points: 4
#     Node 8, Type 1, BuildingBlock: NAWXER_clean_linker_0, # of connection points: 4
#     Node 9, Type 1, BuildingBlock: NAWXER_clean_linker_0, # of connection points: 4
#     Node 10, Type 1, BuildingBlock: NAWXER_clean_linker_0, # of connection points: 4
#     Node 11, Type 1, BuildingBlock: NAWXER_clean_linker_0, # of connection points: 4
#     Edge 12, Type (0, 1), BuildingBlock: AJUNOK_clean_linker_0, # of connection points: 2
#     Edge 13, Type (0, 1), BuildingBlock: AJUNOK_clean_linker_0, # of connection points: 2
#     Edge 14, Type (0, 1), BuildingBlock: AJUNOK_clean_linker_0, # of connection points: 2
#     Edge 15, Type (0, 1), BuildingBlock: AJUNOK_clean_linker_0, # of connection points: 2
#     Edge 16, Type (0, 1), BuildingBlock: AJUNOK_clean_linker_0, # of connection points: 2
#     Edge 17, Type (0, 1), BuildingBlock: AJUNOK_clean_linker_0, # of connection points: 2
#     Edge 18, Type (0, 1), BuildingBlock: AJUNOK_clean_linker_0, # of connection points: 2
#     Edge 19, Type (0, 1), BuildingBlock: AJUNOK_clean_linker_0, # of connection points: 2
#     Edge 20, Type (0, 1), BuildingBlock: AJUNOK_clean_linker_0, # of connection points: 2
#     Edge 21, Type (0, 1), BuildingBlock: AJUNOK_clean_linker_0, # of connection points: 2
#     Edge 22, Type (0, 1), BuildingBlock: AJUNOK_clean_linker_0, # of connection points: 2
#     Edge 23, Type (0, 1), BuildingBlock: AJUNOK_clean_linker_0, # of connection points: 2
#     Edge 24, Type (0, 1), BuildingBlock: AJUNOK_clean_linker_0, # of connection points: 2
#     Edge 25, Type (0, 1), BuildingBlock: AJUNOK_clean_linker_0, # of connection points: 2
#     Edge 26, Type (0, 1), BuildingBlock: AJUNOK_clean_linker_0, # of connection points: 2
#     Edge 27, Type (0, 1), BuildingBlock: AJUNOK_clean_linker_0, # of connection points: 2
#     Edge 28, Type (0, 1), BuildingBlock: AJUNOK_clean_linker_0, # of connection points: 2
#     Edge 29, Type (0, 1), BuildingBlock: AJUNOK_clean_linker_0, # of connection points: 2
#     Edge 30, Type (0, 1), BuildingBlock: AJUNOK_clean_linker_0, # of connection points: 2
#     Edge 31, Type (0, 1), BuildingBlock: AJUNOK_clean_linker_0, # of connection points: 2
#     Edge 32, Type (0, 1), BuildingBlock: AJUNOK_clean_linker_0, # of connection points: 2
#     Edge 33, Type (0, 1), BuildingBlock: AJUNOK_clean_linker_0, # of connection points: 2
#     Edge 34, Type (0, 1), BuildingBlock: AJUNOK_clean_linker_0, # of connection points: 2
#     Edge 35, Type (0, 1), BuildingBlock: AJUNOK_clean_linker_0, # of connection points: 2
# Relax obj value: 0.014
# Max RMSD: 0.030
# Mean RMSD: 0.028
data_MOF--net-ssa--node1-NAWXER_clean_sbu_0--node2-NAWXER_clean_linker_0--edge1-AJUNOK_clean_linker_0
_symmetry_space_group_name_H-M    P1
_symmetry_Int_Tables_number       1
_symmetry_cell_setting            triclinic
loop_
_symmetry_equiv_pos_as_xyz
'x, y, z'
_cell_length_a     44.693559
_cell_length_b     44.645941
_cell_length_c     30.870939
_cell_angle_alpha  90.027429
_cell_angle_beta   90.134986
_cell_angle_gamma 119.91264
loop_
_atom_site_label
_atom_site_type_symbol
_atom_site_fract_x
_atom_site_fract_y
_atom_site_fract_z
_atom_type_partial_charge
C0 C 0.06104 0.54037 0.0174 0.0
C1 C 0.99502 0.43238 0.93588 0.0
O2 O 0.03361 0.51784 0.03664 0.0
Zn3 Zn 0.99321 0.46545 0.02768 0.0
O4 O 0.0702 0.53271 0.982 0.0
Zn5 Zn 0.03099 0.48606 0.97717 0.0
O6 O 0.98919 0.4964 0.97189 0.0
O7 O 0.953 0.47134 0.02634 0.0
O8 O 0.0238 0.45829 0.92527 0.0
O9 O 0.9821 0.43211 0.97301 0.0
O10 O 1.00071 0.44188 0.07586 0.0
O11 O 0.04228 0.46042 0.02741 0.0
C12 C 0.96149 0.48958 0.99206 0.0
C13 C 0.02924 0.44512 0.06331 0.0
C14 C 0.44764 0.02356 0.57128 0.0
C15 C 0.49493 0.96411 0.48622 0.0
O16 O 0.44695 0.99552 0.58071 0.0
Zn17 Zn 0.46968 0.99165 0.52891 0.0
O18 O 0.46 0.03799 0.53478 0.0
Zn19 Zn 0.48408 0.03048 0.4799 0.0
O20 O 0.4524 0.02228 0.43178 0.0
O21 O 0.43384 0.97789 0.47637 0.0
O22 O 0.49767 0.9912 0.46803 0.0
O23 O 0.48066 0.95497 0.52326 0.0
O24 O 0.52037 0.03494 0.53503 0.0
O25 O 0.52941 0.07204 0.48241 0.0
C26 C 0.43035 0.99125 0.44135 0.0
C27 C 0.54008 0.06361 0.51599 0.0
C28 C 0.47468 0.47202 0.94094 0.0
C29 C 0.51975 0.5704 0.0409 0.0
O30 O 0.47448 0.50003 0.93372 0.0
Zn31 Zn 0.4991 0.52316 0.98674 0.0
O32 O 0.48921 0.4688 0.97499 0.0
Zn33 Zn 0.51668 0.49763 0.0307 0.0
O34 O 0.48652 0.46769 0.07596 0.0
O35 O 0.46272 0.49069 0.03469 0.0
O36 O 0.52489 0.54598 0.0532 0.0
O37 O 0.50708 0.56886 0.00345 0.0
O38 O 0.54851 0.53011 0.97186 0.0
O39 O 0.56249 0.50367 0.02133 0.0
C40 C 0.46067 0.47118 0.06636 0.0
C41 C 0.56975 0.52123 0.98661 0.0
C42 C 0.02489 0.56394 0.42898 0.0
C43 C 0.95955 0.45179 0.49942 0.0
O44 O 0.03942 0.5613 0.46351 0.0
Zn45 Zn 0.0302 0.52361 0.51231 0.0
O46 O 0.99606 0.53876 0.41692 0.0
Zn47 Zn 0.99095 0.50751 0.46342 0.0
O48 O 0.98256 0.53003 0.51979 0.0
O49 O 0.0254 0.54415 0.56578 0.0
O50 O 0.95068 0.46171 0.46556 0.0
O51 O 0.98809 0.47216 0.51847 0.0
O52 O 0.06867 0.51541 0.50385 0.0
O53 O 0.03157 0.49688 0.44959 0.0
C54 C 0.99672 0.54223 0.55663 0.0
C55 C 0.05952 0.50109 0.46679 0.0
C56 C 0.5542 0.99686 0.05574 0.0
C57 C 0.50989 0.06641 0.9887 0.0
O58 O 0.5597 0.02639 0.06797 0.0
Zn59 Zn 0.53439 0.03386 0.02179 0.0
O60 O 0.53722 0.98366 0.02071 0.0
Zn61 Zn 0.51104 0.99585 0.97183 0.0
O62 O 0.5365 1.00097 0.91887 0.0
O63 O 0.56493 0.04406 0.96483 0.0
O64 O 0.5016 0.03842 0.96808 0.0
O65 O 0.52894 0.07436 0.02227 0.0
O66 O 0.4828 0.99302 0.0342 0.0
O67 O 0.46451 0.95755 0.97814 0.0
C68 C 0.56286 0.02982 0.9281 0.0
C69 C 0.45914 0.96567 0.01569 0.0
C70 C 0.57487 0.52358 0.5471 0.0
C71 C 0.4721 0.47466 0.45399 0.0
O72 O 0.55026 0.52758 0.56159 0.0
Zn73 Zn 0.49988 0.51669 0.54326 0.0
O74 O 0.57199 0.51037 0.50969 0.0
Zn75 Zn 0.52538 0.50087 0.49648 0.0
O76 O 0.53107 0.55013 0.4844 0.0
O77 O 0.50298 0.56156 0.53433 0.0
O78 O 0.50043 0.47601 0.4442 0.0
O79 O 0.46975 0.48867 0.489 0.0
O80 O 0.47247 0.4851 0.58963 0.0
O81 O 0.496 0.46389 0.54522 0.0
C82 C 0.52123 0.57031 0.50011 0.0
C83 C 0.47717 0.4603 0.57824 0.0
C84 C 0.34568 0.45677 0.20093 0.0
C85 C 0.33935 0.43163 0.16946 0.0
C86 C 0.31856 0.45522 0.22484 0.0
C87 C 0.28466 0.42784 0.21879 0.0
C88 C 0.30527 0.4052 0.16167 0.0
C89 C 0.27806 0.40323 0.18635 0.0
C90 C 0.25654 0.42505 0.24688 0.0
C91 C 0.33112 0.40972 0.32565 0.0
C92 C 0.34882 0.43565 0.35659 0.0
C93 C 0.30131 0.40622 0.306 0.0
C94 C 0.28953 0.42939 0.31601 0.0
C95 C 0.33621 0.4577 0.36813 0.0
C96 C 0.30683 0.45465 0.34796 0.0
C97 C 0.26008 0.42839 0.29238 0.0
C98 C 0.12872 0.42525 0.34896 0.0
C99 C 0.14349 0.45536 0.3746 0.0
C100 C 0.14961 0.41678 0.32414 0.0
C101 C 0.18561 0.43842 0.32434 0.0
C102 C 0.17957 0.476 0.37636 0.0
C103 C 0.20041 0.46755 0.35155 0.0
C104 C 0.20836 0.43144 0.29647 0.0
C105 C 0.14049 0.45146 0.20567 0.0
C106 C 0.12158 0.42449 0.17616 0.0
C107 C 0.16695 0.4519 0.23048 0.0
C108 C 0.17446 0.42493 0.22695 0.0
C109 C 0.12898 0.39746 0.17283 0.0
C110 C 0.15528 0.39779 0.19783 0.0
C111 C 0.20357 0.42577 0.25119 0.0
H112 H 0.37161 0.47802 0.20646 0.0
H113 H 0.32417 0.47528 0.2485 0.0
H114 H 0.29982 0.38597 0.13685 0.0
H115 H 0.25204 0.38223 0.18068 0.0
H116 H 0.34023 0.39212 0.31696 0.0
H117 H 0.28781 0.38578 0.28247 0.0
H118 H 0.34946 0.47768 0.39232 0.0
H119 H 0.29818 0.47264 0.3565 0.0
H120 H 0.10098 0.40843 0.34784 0.0
H121 H 0.13764 0.3936 0.30444 0.0
H122 H 0.19163 0.4993 0.39585 0.0
H123 H 0.22816 0.48443 0.35258 0.0
H124 H 0.1356 0.47284 0.20844 0.0
H125 H 0.18201 0.4737 0.25167 0.0
H126 H 0.11462 0.37623 0.15056 0.0
H127 H 0.16076 0.37685 0.19429 0.0
N128 N 0.22804 0.42304 0.2281 0.0
N129 N 0.23629 0.43224 0.31525 0.0
C130 C 0.9026 0.31418 0.78123 0.0
C131 C 0.89582 0.32766 0.81874 0.0
C132 C 0.87541 0.29002 0.75533 0.0
C133 C 0.84089 0.27907 0.76625 0.0
C134 C 0.8613 0.31638 0.82977 0.0
C135 C 0.8342 0.29231 0.80395 0.0
C136 C 0.81149 0.25291 0.73993 0.0
C137 C 0.8619 0.34181 0.64404 0.0
C138 C 0.87593 0.33441 0.6077 0.0
C139 C 0.84231 0.31591 0.67393 0.0
C140 C 0.8364 0.28224 0.66769 0.0
C141 C 0.87107 0.30108 0.60229 0.0
C142 C 0.85101 0.27504 0.6318 0.0
C143 C 0.81062 0.25359 0.69418 0.0
C144 C 0.66416 0.16338 0.64841 0.0
C145 C 0.66661 0.14599 0.61188 0.0
C146 C 0.6924 0.18099 0.67622 0.0
C147 C 0.72355 0.18155 0.66785 0.0
C148 C 0.69759 0.14614 0.60384 0.0
C149 C 0.726 0.1642 0.6313 0.0
C150 C 0.75464 0.20353 0.69405 0.0
C151 C 0.6847 0.11477 0.77894 0.0
C152 C 0.67135 0.12432 0.81407 0.0
C153 C 0.71211 0.14002 0.75469 0.0
C154 C 0.72673 0.17522 0.76537 0.0
C155 C 0.6865 0.15944 0.82528 0.0
C156 C 0.71407 0.18462 0.80132 0.0
C157 C 0.75546 0.20232 0.73969 0.0
H158 H 0.92887 0.32177 0.7724 0.0
H159 H 0.8814 0.27944 0.72728 0.0
H160 H 0.85522 0.32639 0.85835 0.0
H161 H 0.80791 0.28425 0.81331 0.0
H162 H 0.86571 0.36752 0.64893 0.0
H163 H 0.83058 0.3218 0.70084 0.0
H164 H 0.88184 0.29498 0.57451 0.0
H165 H 0.84623 0.24906 0.62612 0.0
H166 H 0.64035 0.16321 0.6555 0.0
H167 H 0.69019 0.19493 0.70363 0.0
H168 H 0.69994 0.13276 0.57592 0.0
H169 H 0.74998 0.16479 0.62392 0.0
H170 H 0.67362 0.08784 0.76992 0.0
H171 H 0.72197 0.13204 0.72771 0.0
H172 H 0.67707 0.1674 0.85275 0.0
H173 H 0.72513 0.21153 0.81045 0.0
N174 N 0.78376 0.2272 0.76091 0.0
N175 N 0.78233 0.2289 0.67317 0.0
C176 C 0.55947 0.68891 0.19767 0.0
C177 C 0.53533 0.67696 0.16345 0.0
C178 C 0.56133 0.71395 0.22667 0.0
C179 C 0.53907 0.72746 0.22198 0.0
C180 C 0.5132 0.69061 0.15886 0.0
C181 C 0.51514 0.71564 0.18769 0.0
C182 C 0.54246 0.75626 0.2494 0.0
C183 C 0.51304 0.67043 0.35013 0.0
C184 C 0.53847 0.6791 0.38221 0.0
C185 C 0.51577 0.69521 0.32008 0.0
C186 C 0.54384 0.72911 0.32197 0.0
C187 C 0.56676 0.71283 0.38353 0.0
C188 C 0.56924 0.73764 0.35396 0.0
C189 C 0.5448 0.75704 0.29512 0.0
C190 C 0.51209 0.86758 0.34032 0.0
C191 C 0.53004 0.87874 0.37977 0.0
C192 C 0.51788 0.84636 0.31251 0.0
C193 C 0.54238 0.83654 0.32312 0.0
C194 C 0.55435 0.8688 0.39065 0.0
C195 C 0.5604 0.8478 0.36258 0.0
C196 C 0.54623 0.8113 0.29597 0.0
C197 C 0.57861 0.90272 0.20731 0.0
C198 C 0.55865 0.89599 0.1695 0.0
C199 C 0.5744 0.87552 0.23405 0.0
C200 C 0.54974 0.84113 0.22385 0.0
C201 C 0.53379 0.86164 0.15968 0.0
C202 C 0.52959 0.83454 0.18633 0.0
C203 C 0.5462 0.81167 0.25019 0.0
H204 H 0.5774 0.67944 0.20146 0.0
H205 H 0.58085 0.72344 0.25185 0.0
H206 H 0.49422 0.68179 0.13303 0.0
H207 H 0.49792 0.72591 0.18308 0.0
H208 H 0.491 0.64453 0.34847 0.0
H209 H 0.49542 0.68824 0.29639 0.0
H210 H 0.58654 0.72023 0.40816 0.0
H211 H 0.59081 0.76378 0.35649 0.0
H212 H 0.49292 0.87462 0.33151 0.0
H213 H 0.50242 0.83686 0.28336 0.0
H214 H 0.5687 0.87735 0.42075 0.0
H215 H 0.579 0.84012 0.37185 0.0
H216 H 0.59798 0.92893 0.21564 0.0
H217 H 0.59093 0.88135 0.26218 0.0
H218 H 0.51741 0.85569 0.13136 0.0
H219 H 0.51042 0.80833 0.17764 0.0
N220 N 0.54367 0.78382 0.2289 0.0
N221 N 0.54625 0.78437 0.31643 0.0
C222 C 0.90831 0.56945 0.71467 0.0
C223 C 0.90095 0.54914 0.67712 0.0
C224 C 0.88145 0.56769 0.73994 0.0
C225 C 0.84676 0.54528 0.72834 0.0
C226 C 0.86629 0.52658 0.66587 0.0
C227 C 0.83955 0.52476 0.69108 0.0
C228 C 0.81784 0.54502 0.75236 0.0
C229 C 0.86304 0.50497 0.85222 0.0
C230 C 0.87768 0.52662 0.88835 0.0
C231 C 0.84412 0.5119 0.82179 0.0
C232 C 0.83944 0.54053 0.82714 0.0
C233 C 0.87319 0.55535 0.89359 0.0
C234 C 0.8539 0.56205 0.86343 0.0
C235 C 0.81616 0.54568 0.79798 0.0
C236 C 0.67452 0.52092 0.83671 0.0
C237 C 0.68277 0.54157 0.87411 0.0
C238 C 0.70062 0.52354 0.80929 0.0
C239 C 0.73541 0.54755 0.81819 0.0
C240 C 0.71743 0.56574 0.88278 0.0
C241 C 0.74345 0.56867 0.85513 0.0
C242 C 0.76391 0.54791 0.79319 0.0
C243 C 0.70254 0.56902 0.69316 0.0
C244 C 0.68816 0.54363 0.66052 0.0
C245 C 0.72738 0.56996 0.72173 0.0
C246 C 0.73831 0.54552 0.71815 0.0
C247 C 0.69987 0.51984 0.65635 0.0
C248 C 0.72479 0.5209 0.68472 0.0
C249 C 0.76493 0.54615 0.74745 0.0
H250 H 0.93477 0.5875 0.72369 0.0
H251 H 0.88788 0.58468 0.76768 0.0
H252 H 0.85985 0.51045 0.63724 0.0
H253 H 0.81311 0.50741 0.68122 0.0
H254 H 0.86631 0.48272 0.84752 0.0
H255 H 0.83237 0.49436 0.79475 0.0
H256 H 0.88412 0.57225 0.92138 0.0
H257 H 0.85005 0.5839 0.86854 0.0
H258 H 0.64793 0.50193 0.82952 0.0
H259 H 0.6936 0.50592 0.78216 0.0
H260 H 0.7244 0.58224 0.91111 0.0
H261 H 0.77006 0.58711 0.86306 0.0
H262 H 0.69468 0.58826 0.6965 0.0
H263 H 0.73822 0.5899 0.74636 0.0
H264 H 0.68924 0.49993 0.63165 0.0
H265 H 0.73311 0.50202 0.68098 0.0
N266 N 0.79192 0.5449 0.72901 0.0
N267 N 0.78958 0.54752 0.81639 0.0
C268 C 0.15656 0.66454 0.15173 0.0
C269 C 0.13981 0.6672 0.11465 0.0
C270 C 0.17483 0.69305 0.17898 0.0
C271 C 0.17685 0.72476 0.16936 0.0
C272 C 0.14165 0.69883 0.10514 0.0
C273 C 0.16041 0.72752 0.13203 0.0
C274 C 0.19903 0.75581 0.1956 0.0
C275 C 0.10791 0.68852 0.28085 0.0
C276 C 0.11673 0.67783 0.31928 0.0
C277 C 0.13364 0.71404 0.25485 0.0
C278 C 0.16861 0.72899 0.26668 0.0
C279 C 0.15175 0.69254 0.33061 0.0
C280 C 0.17734 0.71805 0.30483 0.0
C281 C 0.19634 0.75712 0.241 0.0
C282 C 0.3149 0.90154 0.28508 0.0
C283 C 0.32519 0.89277 0.32389 0.0
C284 C 0.2894 0.87575 0.25874 0.0
C285 C 0.27415 0.84067 0.27042 0.0
C286 C 0.30839 0.85792 0.33664 0.0
C287 C 0.28339 0.83225 0.31019 0.0
C288 C 0.2481 0.81227 0.24262 0.0
C289 C 0.34243 0.86554 0.15749 0.0
C290 C 0.33726 0.87815 0.11816 0.0
C291 C 0.31441 0.84425 0.18376 0.0
C292 C 0.28081 0.83585 0.17164 0.0
C293 C 0.30366 0.86961 0.10589 0.0
C294 C 0.27565 0.84849 0.13235 0.0
C295 C 0.25067 0.81082 0.19703 0.0
H296 H 0.15538 0.64034 0.15968 0.0
H297 H 0.18806 0.69057 0.20701 0.0
H298 H 0.12902 0.70144 0.07656 0.0
H299 H 0.16217 0.75192 0.12367 0.0
H300 H 0.08112 0.67758 0.27135 0.0
H301 H 0.12615 0.72254 0.22604 0.0
H302 H 0.15944 0.68413 0.35934 0.0
H303 H 0.2041 0.72907 0.31457 0.0
H304 H 0.32701 0.92822 0.2747 0.0
H305 H 0.28184 0.88329 0.22919 0.0
H306 H 0.31477 0.85038 0.3671 0.0
H307 H 0.27166 0.80559 0.32062 0.0
H308 H 0.3681 0.87155 0.1674 0.0
H309 H 0.31897 0.83374 0.21304 0.0
H310 H 0.2991 0.87935 0.07594 0.0
H311 H 0.24987 0.84185 0.12204 0.0
N312 N 0.22591 0.7828 0.17545 0.0
N313 N 0.221 0.78522 0.26261 0.0
C314 C 0.43894 0.13108 0.86187 0.0
C315 C 0.46503 0.14889 0.89303 0.0
C316 C 0.42849 0.14891 0.83404 0.0
C317 C 0.44501 0.18518 0.83527 0.0
C318 C 0.47952 0.1849 0.89642 0.0
C319 C 0.46999 0.2028 0.86758 0.0
C320 C 0.43653 0.20551 0.80434 0.0
C321 C 0.45784 0.13571 0.71648 0.0
C322 C 0.42957 0.11426 0.68979 0.0
C323 C 0.45822 0.16282 0.73982 0.0
C324 C 0.43008 0.16857 0.73737 0.0
C325 C 0.40151 0.12011 0.68746 0.0
C326 C 0.40181 0.14701 0.71094 0.0
C327 C 0.43065 0.19839 0.75923 0.0
C328 C 0.45955 0.32134 0.66827 0.0
C329 C 0.43545 0.33275 0.67189 0.0
C330 C 0.45541 0.29286 0.69182 0.0
C331 C 0.42723 0.27534 0.71964 0.0
C332 C 0.40638 0.31422 0.69838 0.0
C333 C 0.40228 0.28566 0.72204 0.0
C334 C 0.42677 0.24941 0.74979 0.0
C335 C 0.40855 0.31869 0.84493 0.0
C336 C 0.44034 0.3498 0.84358 0.0
C337 C 0.40594 0.28787 0.83019 0.0
C338 C 0.43493 0.28775 0.81333 0.0
C339 C 0.46941 0.34933 0.827 0.0
C340 C 0.46663 0.3186 0.81166 0.0
C341 C 0.43166 0.25596 0.79445 0.0
H342 H 0.42683 0.1033 0.85845 0.0
H343 H 0.4077 0.1342 0.81141 0.0
H344 H 0.49834 0.19943 0.92131 0.0
H345 H 0.4826 0.23067 0.87033 0.0
H346 H 0.4802 0.13234 0.718 0.0
H347 H 0.48074 0.1797 0.75904 0.0
H348 H 0.37951 0.10411 0.66696 0.0
H349 H 0.38001 0.15121 0.70815 0.0
H350 H 0.48228 0.33515 0.64823 0.0
H351 H 0.47511 0.28551 0.68984 0.0
H352 H 0.38698 0.3219 0.701 0.0
H353 H 0.38009 0.27215 0.743 0.0
H354 H 0.38572 0.31818 0.85758 0.0
H355 H 0.38118 0.26425 0.83118 0.0
H356 H 0.49453 0.37249 0.82686 0.0
H357 H 0.48922 0.31887 0.79851 0.0
N358 N 0.43668 0.23413 0.82002 0.0
N359 N 0.42638 0.22089 0.73374 0.0
C360 C 0.04667 0.43528 0.1369 0.0
C361 C 0.04955 0.43487 0.09151 0.0
C362 C 0.06956 0.43114 0.1642 0.0
C363 C 0.09572 0.42582 0.14709 0.0
H364 H 0.02766 0.44042 0.15147 0.0
H365 H 0.06717 0.4327 0.19893 0.0
S366 S 0.11276 0.42032 0.03067 0.0
N367 N 0.07961 0.427 0.03084 0.0
N368 N 0.12234 0.41909 0.08207 0.0
C369 C 0.09793 0.42393 0.10187 0.0
C370 C 0.07493 0.42848 0.07412 0.0
C371 C 0.59224 0.07098 0.55428 0.0
C372 C 0.57463 0.08623 0.53469 0.0
C373 C 0.62275 0.09079 0.57775 0.0
C374 C 0.63636 0.12647 0.58323 0.0
H375 H 0.58193 0.0433 0.55223 0.0
H376 H 0.63504 0.07788 0.59314 0.0
S377 S 0.60116 0.17919 0.53692 0.0
N378 N 0.57391 0.13941 0.52059 0.0
N379 N 0.6311 0.1767 0.56563 0.0
C380 C 0.61963 0.14228 0.56284 0.0
C381 C 0.58883 0.12215 0.53821 0.0
C382 C 0.5276 0.62906 0.05794 0.0
C383 C 0.52563 0.5982 0.07219 0.0
C384 C 0.53128 0.65462 0.08755 0.0
C385 C 0.53296 0.65025 0.13255 0.0
H386 H 0.52616 0.63348 0.0237 0.0
H387 H 0.53277 0.67801 0.0751 0.0
S388 S 0.52653 0.57324 0.18701 0.0
N389 N 0.52441 0.56433 0.13483 0.0
N390 N 0.53079 0.61208 0.18996 0.0
C391 C 0.53089 0.61951 0.14723 0.0
C392 C 0.52733 0.59358 0.11722 0.0
C393 C 0.9501 0.55531 0.57451 0.0
C394 C 0.97703 0.55006 0.58902 0.0
C395 C 0.92658 0.55632 0.60346 0.0
C396 C 0.9289 0.55211 0.64823 0.0
H397 H 0.94636 0.55748 0.54021 0.0
H398 H 0.90581 0.55955 0.59051 0.0
S399 S 0.99561 0.53959 0.70354 0.0
N400 N 0.00568 0.5424 0.65167 0.0
N401 N 0.96118 0.54416 0.70615 0.0
C402 C 0.95665 0.54859 0.66359 0.0
C403 C 0.98079 0.54762 0.63399 0.0
C404 C 0.42468 0.95077 0.0837 0.0
C405 C 0.42682 0.94337 0.03977 0.0
C406 C 0.39553 0.92969 0.10852 0.0
C407 C 0.36715 0.9005 0.09042 0.0
H408 H 0.44592 0.9728 0.09951 0.0
H409 H 0.39521 0.9363 0.14223 0.0
S410 S 0.35903 0.86953 0.97719 0.0
N411 N 0.3975 0.90464 0.9792 0.0
N412 N 0.34253 0.86499 0.02618 0.0
C413 C 0.36849 0.8929 0.04651 0.0
C414 C 0.39838 0.9143 0.02114 0.0
C415 C 0.46144 0.3985 0.58194 0.0
C416 C 0.462 0.42709 0.60216 0.0
C417 C 0.45135 0.36775 0.60427 0.0
C418 C 0.44137 0.36409 0.6479 0.0
H419 H 0.46963 0.40002 0.54861 0.0
H420 H 0.45212 0.34685 0.58742 0.0
S421 S 0.43532 0.42985 0.71507 0.0
N422 N 0.44927 0.44886 0.66766 0.0
N423 N 0.43061 0.39088 0.71008 0.0
C424 C 0.44009 0.39174 0.66812 0.0
C425 C 0.45033 0.42326 0.64516 0.0
C426 C 0.51727 0.95187 0.41854 0.0
C427 C 0.5062 0.94284 0.46173 0.0
C428 C 0.52545 0.93127 0.39271 0.0
C429 C 0.52331 0.90096 0.40902 0.0
H430 H 0.51892 0.97469 0.40392 0.0
H431 H 0.53327 0.939 0.35949 0.0
S432 S 0.49679 0.86585 0.51988 0.0
N433 N 0.49431 0.90154 0.51983 0.0
N434 N 0.51001 0.86288 0.47097 0.0
C435 C 0.51319 0.89189 0.45232 0.0
C436 C 0.50453 0.91278 0.47873 0.0
C437 C 0.60043 0.53607 0.91561 0.0
C438 C 0.60022 0.52831 0.95996 0.0
C439 C 0.62722 0.54037 0.88823 0.0
C440 C 0.65518 0.53763 0.90413 0.0
H441 H 0.57927 0.53804 0.90146 0.0
H442 H 0.62604 0.54591 0.85429 0.0
S443 S 0.66772 0.51831 0.0174 0.0
N444 N 0.63079 0.51836 0.01842 0.0
N445 N 0.68146 0.52695 0.96686 0.0
C446 C 0.65576 0.53048 0.94842 0.0
C447 C 0.6282 0.52565 0.97632 0.0
C448 C 0.04165 0.59182 0.35601 0.0
C449 C 0.04393 0.59488 0.40143 0.0
C450 C 0.0643 0.61934 0.32938 0.0
C451 C 0.08981 0.65084 0.34733 0.0
H452 H 0.02362 0.56743 0.34096 0.0
H453 H 0.06294 0.61531 0.29466 0.0
S454 S 0.10205 0.67387 0.46406 0.0
N455 N 0.07081 0.63313 0.46294 0.0
N456 N 0.11272 0.68498 0.41301 0.0
C457 C 0.09056 0.65496 0.39256 0.0
C458 C 0.06778 0.62695 0.41958 0.0
C459 C 0.46381 0.07708 0.96107 0.0
C460 C 0.4988 0.08987 0.9708 0.0
C461 C 0.45305 0.09688 0.93751 0.0
C462 C 0.47702 0.12985 0.92152 0.0
H463 H 0.44466 0.05126 0.97109 0.0
H464 H 0.42572 0.0859 0.93113 0.0
S465 S 0.57223 0.17408 0.93724 0.0
N466 N 0.55748 0.13718 0.96351 0.0
N467 N 0.53792 0.17384 0.91685 0.0
C468 C 0.51226 0.14298 0.93158 0.0
C469 C 0.52299 0.12309 0.9567 0.0
C470 C 0.40867 0.44107 0.44592 0.0
C471 C 0.44129 0.45806 0.42597 0.0
C472 C 0.37856 0.43204 0.42247 0.0
C473 C 0.38 0.43957 0.37821 0.0
H474 H 0.40655 0.43628 0.48051 0.0
H475 H 0.35412 0.42051 0.43946 0.0
S476 S 0.45854 0.48243 0.31033 0.0
N477 N 0.47309 0.4808 0.35904 0.0
N478 N 0.4161 0.46356 0.31463 0.0
C479 C 0.4121 0.45478 0.3572 0.0
C480 C 0.44292 0.46403 0.38118 0.0
C481 C 0.94626 0.37301 0.92037 0.0
C482 C 0.97392 0.40414 0.90469 0.0
C483 C 0.92202 0.348 0.89225 0.0
C484 C 0.92427 0.35298 0.84713 0.0
H485 H 0.94261 0.36828 0.9549 0.0
H486 H 0.90083 0.32484 0.90607 0.0
S487 S 0.99233 0.42925 0.789 0.0
N488 N 0.00289 0.43786 0.84066 0.0
N489 N 0.95704 0.39089 0.7878 0.0
C490 C 0.95256 0.38327 0.83073 0.0
C491 C 0.97744 0.40881 0.85948 0.0
C492 C 0.90369 0.47827 0.96696 0.0
C493 C 0.93909 0.50149 0.97284 0.0
C494 C 0.88359 0.48696 0.94049 0.0
C495 C 0.89816 0.51935 0.91992 0.0
H496 H 0.89198 0.45256 0.98072 0.0
H497 H 0.8567 0.46793 0.93511 0.0
S498 S 0.9889 0.59023 0.92854 0.0
N499 N 0.98738 0.55881 0.95839 0.0
N500 N 0.94941 0.57538 0.90946 0.0
C501 C 0.93302 0.54343 0.92764 0.0
C502 C 0.95355 0.53441 0.95392 0.0
C503 C 0.38008 0.97461 0.39066 0.0
C504 C 0.40498 0.96797 0.409 0.0
C505 C 0.35465 0.95058 0.36226 0.0
C506 C 0.35368 0.91944 0.35106 0.0
H507 H 0.37958 0.99787 0.39935 0.0
H508 H 0.33508 0.95594 0.35001 0.0
S509 S 0.41711 0.89328 0.38516 0.0
N510 N 0.42934 0.93005 0.41084 0.0
N511 N 0.38274 0.88577 0.35666 0.0
C512 C 0.3798 0.91372 0.36749 0.0
C513 C 0.40514 0.93777 0.39666 0.0
C514 C 0.43745 0.4096 0.92814 0.0
C515 C 0.45922 0.44258 0.91093 0.0
C516 C 0.42975 0.37975 0.90483 0.0
C517 C 0.44396 0.38175 0.86359 0.0
H518 H 0.42793 0.40688 0.961 0.0
H519 H 0.41445 0.355 0.92058 0.0
S520 S 0.50028 0.46235 0.80286 0.0
N521 N 0.49309 0.4759 0.84942 0.0
N522 N 0.47849 0.41969 0.80494 0.0
C523 C 0.46412 0.4147 0.84491 0.0
C524 C 0.47173 0.44517 0.86872 0.0
C525 C 0.10756 0.4872 0.46401 0.0
C526 C 0.0807 0.48932 0.44295 0.0
C527 C 0.12758 0.4759 0.4419 0.0
C528 C 0.12144 0.46621 0.39796 0.0
H529 H 0.1131 0.49414 0.49789 0.0
H530 H 0.14791 0.47454 0.4594 0.0
S531 S 0.05615 0.46945 0.32683 0.0
N532 N 0.05023 0.48215 0.37467 0.0
N533 N 0.088 0.46126 0.33354 0.0
C534 C 0.09502 0.46859 0.37637 0.0
C535 C 0.07466 0.48007 0.39873 0.0
C536 C 0.61688 0.04682 0.88623 0.0
C537 C 0.58799 0.05045 0.89456 0.0
C538 C 0.64335 0.07012 0.85875 0.0
C539 C 0.64176 0.09788 0.83936 0.0
H540 H 0.61956 0.02666 0.90213 0.0
H541 H 0.66579 0.06724 0.85399 0.0
S542 S 0.56969 0.11619 0.84829 0.0
N543 N 0.55808 0.08213 0.87953 0.0
N544 N 0.60758 0.1258 0.8279 0.0
C545 C 0.61226 0.10079 0.84635 0.0
C546 C 0.58543 0.0771 0.87403 0.0
C547 C 0.50265 0.61095 0.47105 0.0
C548 C 0.52811 0.60132 0.47486 0.0
C549 C 0.50616 0.6362 0.44106 0.0
C550 C 0.53552 0.65312 0.41449 0.0
H551 H 0.47915 0.59778 0.48988 0.0
H552 H 0.48565 0.64236 0.43836 0.0
S553 S 0.61036 0.63879 0.41372 0.0
N554 N 0.58421 0.61167 0.45064 0.0
N555 N 0.59096 0.65942 0.39505 0.0
C556 C 0.56167 0.64464 0.41916 0.0
C557 C 0.55791 0.61867 0.44914 0.0
C558 C 0.4286 0.0661 0.58809 0.0
C559 C 0.43799 0.04215 0.60315 0.0
C560 C 0.42475 0.08835 0.61659 0.0
C561 C 0.43058 0.08792 0.6613 0.0
H562 H 0.42513 0.06838 0.55374 0.0
H563 H 0.41851 0.10701 0.60324 0.0
S564 S 0.45351 0.02883 0.71786 0.0
N565 N 0.45126 0.01815 0.66621 0.0
N566 N 0.44423 0.06029 0.7198 0.0
C567 C 0.4388 0.06336 0.67711 0.0
C568 C 0.44232 0.04031 0.64807 0.0
C569 C 0.39784 0.45046 0.07324 0.0
C570 C 0.42852 0.45481 0.09212 0.0
C571 C 0.36822 0.44061 0.09807 0.0
C572 C 0.3683 0.4351 0.14276 0.0
H573 H 0.39703 0.45594 0.0392 0.0
H574 H 0.34574 0.4392 0.08264 0.0
S575 S 0.44012 0.43856 0.20698 0.0
N576 N 0.45586 0.44934 0.1575 0.0
N577 N 0.40009 0.43123 0.20438 0.0
C578 C 0.39797 0.43727 0.16166 0.0
C579 C 0.42809 0.44692 0.13625 0.0
C580 C 0.95083 0.40087 0.54191 0.0
C581 C 0.93641 0.41839 0.52012 0.0
C582 C 0.93069 0.37265 0.56879 0.0
C583 C 0.89565 0.36156 0.57549 0.0
H584 H 0.97817 0.40974 0.53923 0.0
H585 H 0.94291 0.3604 0.58594 0.0
S586 S 0.8451 0.39733 0.52438 0.0
N587 N 0.88456 0.42142 0.50524 0.0
N588 N 0.84677 0.36868 0.55663 0.0
C589 C 0.88059 0.37797 0.55276 0.0
C590 C 0.90095 0.4063 0.52472 0.0
C591 C 0.56235 0.97851 0.12961 0.0
C592 C 0.5624 0.97512 0.08424 0.0
C593 C 0.56269 0.95361 0.1572 0.0
C594 C 0.56317 0.92453 0.14038 0.0
H595 H 0.55997 0.99938 0.14392 0.0
H596 H 0.5608 0.95625 0.19182 0.0
S597 S 0.5699 0.90707 0.02435 0.0
N598 N 0.56735 0.94271 0.02407 0.0
N599 N 0.5685 0.8964 0.07581 0.0
C600 C 0.56581 0.92228 0.09525 0.0
C601 C 0.56532 0.94745 0.06724 0.0
C602 C 0.63424 0.53182 0.55928 0.0
C603 C 0.60474 0.53144 0.57584 0.0
C604 C 0.66145 0.53655 0.58664 0.0
C605 C 0.66021 0.54102 0.63166 0.0
H606 H 0.63622 0.52803 0.52497 0.0
H607 H 0.68355 0.53646 0.57247 0.0
S608 S 0.58832 0.54068 0.6919 0.0
N609 N 0.57593 0.53554 0.64074 0.0
N610 N 0.62668 0.54378 0.69172 0.0
C611 C 0.63104 0.54094 0.64863 0.0
C612 C 0.60343 0.53631 0.62087 0.0
C613 C 0.11748 0.59012 0.04182 0.0
C614 C 0.08149 0.5748 0.03747 0.0
C615 C 0.13639 0.62041 0.06641 0.0
C616 C 0.11997 0.6367 0.08642 0.0
H617 H 0.13084 0.57781 0.02782 0.0
H618 H 0.16395 0.63095 0.07029 0.0
S619 S 0.02669 0.60817 0.08196 0.0
N620 N 0.03042 0.57887 0.05349 0.0
N621 N 0.0661 0.63622 0.09858 0.0
C622 C 0.08428 0.6224 0.08071 0.0
C623 C 0.06499 0.59131 0.0565 0.0
loop_
_geom_bond_atom_site_label_1
_geom_bond_atom_site_label_2
_geom_bond_distance
_geom_bond_site_symmetry_2
_ccdc_geom_bond_type
C0 O2 1.247 . S
C0 O4 1.258 . S
C1 O8 1.247 . S
C1 O9 1.258 . S
O2 C0 1.247 . S
O2 Zn3 2.028 1_455 S
Zn3 O2 2.028 1_655 S
Zn3 O7 2.035 1_554 S
Zn3 O9 2.035 1_554 S
Zn3 O10 2.028 1_655 S
O4 C0 1.258 . S
O4 Zn5 2.035 1_554 S
Zn5 O4 2.035 1_556 S
Zn5 O6 2.028 1_455 S
Zn5 O8 2.028 1_455 S
Zn5 O11 2.035 1_556 S
O6 Zn5 2.028 1_655 S
O6 C12 1.247 . S
O7 Zn3 2.035 1_556 S
O7 C12 1.258 . S
O8 C1 1.247 . S
O8 Zn5 2.028 1_655 S
O9 C1 1.258 . S
O9 Zn3 2.035 1_556 S
O10 Zn3 2.028 1_455 S
O10 C13 1.247 . S
O11 Zn5 2.035 1_554 S
O11 C13 1.258 . S
C12 O6 1.247 . S
C12 O7 1.258 . S
C13 O10 1.247 . S
C13 O11 1.258 . S
C14 O16 1.247 . S
C14 O18 1.258 . S
C15 O22 1.247 . S
C15 O23 1.258 . S
O16 C14 1.247 . S
O16 Zn17 2.028 1_545 S
Zn17 O16 2.028 1_565 S
Zn17 O21 2.035 . S
Zn17 O23 2.035 . S
Zn17 O24 2.028 1_565 S
O18 C14 1.258 . S
O18 Zn19 2.035 . S
Zn19 O18 2.035 . S
Zn19 O20 2.028 1_545 S
Zn19 O22 2.028 1_545 S
Zn19 O25 2.035 . S
O20 Zn19 2.028 1_565 S
O20 C26 1.247 . S
O21 Zn17 2.035 . S
O21 C26 1.258 . S
O22 C15 1.247 . S
O22 Zn19 2.028 1_565 S
O23 C15 1.258 . S
O23 Zn17 2.035 . S
O24 Zn17 2.028 1_545 S
O24 C27 1.247 . S
O25 Zn19 2.035 . S
O25 C27 1.258 . S
C26 O20 1.247 . S
C26 O21 1.258 . S
C27 O24 1.247 . S
C27 O25 1.258 . S
C28 O30 1.247 . S
C28 O32 1.258 . S
C29 O36 1.247 . S
C29 O37 1.258 . S
O30 C28 1.247 . S
O30 Zn31 2.028 . S
Zn31 O30 2.028 . S
Zn31 O35 2.035 1_556 S
Zn31 O37 2.035 1_556 S
Zn31 O38 2.028 . S
O32 C28 1.258 . S
O32 Zn33 2.035 1_556 S
Zn33 O32 2.035 1_554 S
Zn33 O34 2.028 . S
Zn33 O36 2.028 . S
Zn33 O39 2.035 1_554 S
O34 Zn33 2.028 . S
O34 C40 1.247 . S
O35 Zn31 2.035 1_554 S
O35 C40 1.258 . S
O36 C29 1.247 . S
O36 Zn33 2.028 . S
O37 C29 1.258 . S
O37 Zn31 2.035 1_554 S
O38 Zn31 2.028 . S
O38 C41 1.247 . S
O39 Zn33 2.035 1_556 S
O39 C41 1.258 . S
C40 O34 1.247 . S
C40 O35 1.258 . S
C41 O38 1.247 . S
C41 O39 1.258 . S
C42 O44 1.247 . S
C42 O46 1.258 . S
C43 O50 1.247 . S
C43 O51 1.258 . S
O44 C42 1.247 . S
O44 Zn45 2.028 . S
Zn45 O44 2.028 . S
Zn45 O49 2.035 1_455 S
Zn45 O51 2.035 1_455 S
Zn45 O52 2.028 . S
O46 C42 1.258 . S
O46 Zn47 2.035 1_455 S
Zn47 O46 2.035 1_655 S
Zn47 O48 2.028 . S
Zn47 O50 2.028 . S
Zn47 O53 2.035 1_655 S
O48 Zn47 2.028 . S
O48 C54 1.247 . S
O49 Zn45 2.035 1_655 S
O49 C54 1.258 . S
O50 C43 1.247 . S
O50 Zn47 2.028 . S
O51 C43 1.258 . S
O51 Zn45 2.035 1_655 S
O52 Zn45 2.028 . S
O52 C55 1.247 . S
O53 Zn47 2.035 1_455 S
O53 C55 1.258 . S
C54 O48 1.247 . S
C54 O49 1.258 . S
C55 O52 1.247 . S
C55 O53 1.258 . S
C56 O58 1.247 . S
C56 O60 1.258 . S
C57 O64 1.247 . S
C57 O65 1.258 . S
O58 C56 1.247 . S
O58 Zn59 2.028 1_565 S
Zn59 O58 2.028 1_545 S
Zn59 O63 2.035 1_554 S
Zn59 O65 2.035 1_554 S
Zn59 O66 2.028 1_545 S
O60 C56 1.258 . S
O60 Zn61 2.035 1_554 S
Zn61 O60 2.035 1_556 S
Zn61 O62 2.028 1_565 S
Zn61 O64 2.028 1_565 S
Zn61 O67 2.035 1_556 S
O62 Zn61 2.028 1_545 S
O62 C68 1.247 . S
O63 Zn59 2.035 1_556 S
O63 C68 1.258 . S
O64 C57 1.247 . S
O64 Zn61 2.028 1_545 S
O65 C57 1.258 . S
O65 Zn59 2.035 1_556 S
O66 Zn59 2.028 1_565 S
O66 C69 1.247 . S
O67 Zn61 2.035 1_554 S
O67 C69 1.258 . S
C68 O62 1.247 . S
C68 O63 1.258 . S
C69 O66 1.247 . S
C69 O67 1.258 . S
C70 O72 1.247 . S
C70 O74 1.258 . S
C71 O78 1.247 . S
C71 O79 1.258 . S
O72 C70 1.247 . S
O72 Zn73 2.028 . S
Zn73 O72 2.028 . S
Zn73 O77 2.035 . S
Zn73 O79 2.035 . S
Zn73 O80 2.028 . S
O74 C70 1.258 . S
O74 Zn75 2.035 . S
Zn75 O74 2.035 . S
Zn75 O76 2.028 . S
Zn75 O78 2.028 . S
Zn75 O81 2.035 . S
O76 Zn75 2.028 . S
O76 C82 1.247 . S
O77 Zn73 2.035 . S
O77 C82 1.258 . S
O78 C71 1.247 . S
O78 Zn75 2.028 . S
O79 C71 1.258 . S
O79 Zn73 2.035 . S
O80 Zn73 2.028 . S
O80 C83 1.247 . S
O81 Zn75 2.035 . S
O81 C83 1.258 . S
C82 O76 1.247 . S
C82 O77 1.258 . S
C83 O80 1.247 . S
C83 O81 1.258 . S
C84 C85 1.384 . S
C84 C86 1.384 . S
C84 H112 0.931 . S
C85 C84 1.384 . S
C85 C88 1.382 . S
C86 C84 1.384 . S
C86 C87 1.381 . S
C86 H113 0.930 . S
C87 C86 1.381 . S
C87 C89 1.381 . S
C87 C90 1.487 . S
C88 C85 1.382 . S
C88 C89 1.387 . S
C88 H114 0.930 . S
C89 C87 1.381 . S
C89 C88 1.387 . S
C89 H115 0.931 . S
C90 C87 1.487 . S
C90 C97 1.399 . S
C90 N128 1.343 . S
C91 C92 1.384 . S
C91 C93 1.384 . S
C91 H116 0.931 . S
C92 C91 1.384 . S
C92 C95 1.382 . S
C93 C91 1.384 . S
C93 C94 1.381 . S
C93 H117 0.930 . S
C94 C93 1.381 . S
C94 C96 1.381 . S
C94 C97 1.487 . S
C95 C92 1.382 . S
C95 C96 1.387 . S
C95 H118 0.930 . S
C96 C94 1.381 . S
C96 C95 1.387 . S
C96 H119 0.931 . S
C97 C90 1.399 . S
C97 C94 1.487 . S
C97 N129 1.343 . S
C98 C99 1.384 . S
C98 C100 1.384 . S
C98 H120 0.931 . S
C99 C98 1.384 . S
C99 C102 1.382 . S
C100 C98 1.384 . S
C100 C101 1.381 . S
C100 H121 0.930 . S
C101 C100 1.381 . S
C101 C103 1.381 . S
C101 C104 1.487 . S
C102 C99 1.382 . S
C102 C103 1.387 . S
C102 H122 0.930 . S
C103 C101 1.381 . S
C103 C102 1.387 . S
C103 H123 0.931 . S
C104 C101 1.487 . S
C104 C111 1.399 . S
C104 N129 1.343 . S
C105 C106 1.384 . S
C105 C107 1.384 . S
C105 H124 0.931 . S
C106 C105 1.384 . S
C106 C109 1.382 . S
C107 C105 1.384 . S
C107 C108 1.381 . S
C107 H125 0.930 . S
C108 C107 1.381 . S
C108 C110 1.381 . S
C108 C111 1.487 . S
C109 C106 1.382 . S
C109 C110 1.387 . S
C109 H126 0.930 . S
C110 C108 1.381 . S
C110 C109 1.387 . S
C110 H127 0.931 . S
C111 C104 1.399 . S
C111 C108 1.487 . S
C111 N128 1.343 . S
H112 C84 0.931 . S
H113 C86 0.930 . S
H114 C88 0.930 . S
H115 C89 0.931 . S
H116 C91 0.931 . S
H117 C93 0.930 . S
H118 C95 0.930 . S
H119 C96 0.931 . S
H120 C98 0.931 . S
H121 C100 0.930 . S
H122 C102 0.930 . S
H123 C103 0.931 . S
H124 C105 0.931 . S
H125 C107 0.930 . S
H126 C109 0.930 . S
H127 C110 0.931 . S
N128 C90 1.343 . S
N128 C111 1.343 . S
N129 C97 1.343 . S
N129 C104 1.343 . S
C130 C131 1.384 . S
C130 C132 1.384 . S
C130 H158 0.931 . S
C131 C130 1.384 . S
C131 C134 1.382 . S
C132 C130 1.384 . S
C132 C133 1.381 . S
C132 H159 0.930 . S
C133 C132 1.381 . S
C133 C135 1.381 . S
C133 C136 1.487 . S
C134 C131 1.382 . S
C134 C135 1.387 . S
C134 H160 0.930 . S
C135 C133 1.381 . S
C135 C134 1.387 . S
C135 H161 0.931 . S
C136 C133 1.487 . S
C136 C143 1.399 . S
C136 N174 1.343 . S
C137 C138 1.384 . S
C137 C139 1.384 . S
C137 H162 0.931 . S
C138 C137 1.384 . S
C138 C141 1.382 . S
C139 C137 1.384 . S
C139 C140 1.381 . S
C139 H163 0.930 . S
C140 C139 1.381 . S
C140 C142 1.381 . S
C140 C143 1.487 . S
C141 C138 1.382 . S
C141 C142 1.387 . S
C141 H164 0.930 . S
C142 C140 1.381 . S
C142 C141 1.387 . S
C142 H165 0.931 . S
C143 C136 1.399 . S
C143 C140 1.487 . S
C143 N175 1.343 . S
C144 C145 1.384 . S
C144 C146 1.384 . S
C144 H166 0.931 . S
C145 C144 1.384 . S
C145 C148 1.382 . S
C146 C144 1.384 . S
C146 C147 1.381 . S
C146 H167 0.930 . S
C147 C146 1.381 . S
C147 C149 1.381 . S
C147 C150 1.487 . S
C148 C145 1.382 . S
C148 C149 1.387 . S
C148 H168 0.930 . S
C149 C147 1.381 . S
C149 C148 1.387 . S
C149 H169 0.931 . S
C150 C147 1.487 . S
C150 C157 1.399 . S
C150 N175 1.343 . S
C151 C152 1.384 . S
C151 C153 1.384 . S
C151 H170 0.931 . S
C152 C151 1.384 . S
C152 C155 1.382 . S
C153 C151 1.384 . S
C153 C154 1.381 . S
C153 H171 0.930 . S
C154 C153 1.381 . S
C154 C156 1.381 . S
C154 C157 1.487 . S
C155 C152 1.382 . S
C155 C156 1.387 . S
C155 H172 0.930 . S
C156 C154 1.381 . S
C156 C155 1.387 . S
C156 H173 0.931 . S
C157 C150 1.399 . S
C157 C154 1.487 . S
C157 N174 1.343 . S
H158 C130 0.931 . S
H159 C132 0.930 . S
H160 C134 0.930 . S
H161 C135 0.931 . S
H162 C137 0.931 . S
H163 C139 0.930 . S
H164 C141 0.930 . S
H165 C142 0.931 . S
H166 C144 0.931 . S
H167 C146 0.930 . S
H168 C148 0.930 . S
H169 C149 0.931 . S
H170 C151 0.931 . S
H171 C153 0.930 . S
H172 C155 0.930 . S
H173 C156 0.931 . S
N174 C136 1.343 . S
N174 C157 1.343 . S
N175 C143 1.343 . S
N175 C150 1.343 . S
C176 C177 1.384 . S
C176 C178 1.384 . S
C176 H204 0.931 . S
C177 C176 1.384 . S
C177 C180 1.382 . S
C178 C176 1.384 . S
C178 C179 1.381 . S
C178 H205 0.930 . S
C179 C178 1.381 . S
C179 C181 1.381 . S
C179 C182 1.487 . S
C180 C177 1.382 . S
C180 C181 1.387 . S
C180 H206 0.930 . S
C181 C179 1.381 . S
C181 C180 1.387 . S
C181 H207 0.931 . S
C182 C179 1.487 . S
C182 C189 1.399 . S
C182 N220 1.343 . S
C183 C184 1.384 . S
C183 C185 1.384 . S
C183 H208 0.931 . S
C184 C183 1.384 . S
C184 C187 1.382 . S
C185 C183 1.384 . S
C185 C186 1.381 . S
C185 H209 0.930 . S
C186 C185 1.381 . S
C186 C188 1.381 . S
C186 C189 1.487 . S
C187 C184 1.382 . S
C187 C188 1.387 . S
C187 H210 0.930 . S
C188 C186 1.381 . S
C188 C187 1.387 . S
C188 H211 0.931 . S
C189 C182 1.399 . S
C189 C186 1.487 . S
C189 N221 1.343 . S
C190 C191 1.384 . S
C190 C192 1.384 . S
C190 H212 0.931 . S
C191 C190 1.384 . S
C191 C194 1.382 . S
C192 C190 1.384 . S
C192 C193 1.381 . S
C192 H213 0.930 . S
C193 C192 1.381 . S
C193 C195 1.381 . S
C193 C196 1.487 . S
C194 C191 1.382 . S
C194 C195 1.387 . S
C194 H214 0.930 . S
C195 C193 1.381 . S
C195 C194 1.387 . S
C195 H215 0.931 . S
C196 C193 1.487 . S
C196 C203 1.399 . S
C196 N221 1.343 . S
C197 C198 1.384 . S
C197 C199 1.384 . S
C197 H216 0.931 . S
C198 C197 1.384 . S
C198 C201 1.382 . S
C199 C197 1.384 . S
C199 C200 1.381 . S
C199 H217 0.930 . S
C200 C199 1.381 . S
C200 C202 1.381 . S
C200 C203 1.487 . S
C201 C198 1.382 . S
C201 C202 1.387 . S
C201 H218 0.930 . S
C202 C200 1.381 . S
C202 C201 1.387 . S
C202 H219 0.931 . S
C203 C196 1.399 . S
C203 C200 1.487 . S
C203 N220 1.343 . S
H204 C176 0.931 . S
H205 C178 0.930 . S
H206 C180 0.930 . S
H207 C181 0.931 . S
H208 C183 0.931 . S
H209 C185 0.930 . S
H210 C187 0.930 . S
H211 C188 0.931 . S
H212 C190 0.931 . S
H213 C192 0.930 . S
H214 C194 0.930 . S
H215 C195 0.931 . S
H216 C197 0.931 . S
H217 C199 0.930 . S
H218 C201 0.930 . S
H219 C202 0.931 . S
N220 C182 1.343 . S
N220 C203 1.343 . S
N221 C189 1.343 . S
N221 C196 1.343 . S
C222 C223 1.384 . S
C222 C224 1.384 . S
C222 H250 0.931 . S
C223 C222 1.384 . S
C223 C226 1.382 . S
C224 C222 1.384 . S
C224 C225 1.381 . S
C224 H251 0.930 . S
C225 C224 1.381 . S
C225 C227 1.381 . S
C225 C228 1.487 . S
C226 C223 1.382 . S
C226 C227 1.387 . S
C226 H252 0.930 . S
C227 C225 1.381 . S
C227 C226 1.387 . S
C227 H253 0.931 . S
C228 C225 1.487 . S
C228 C235 1.399 . S
C228 N266 1.343 . S
C229 C230 1.384 . S
C229 C231 1.384 . S
C229 H254 0.931 . S
C230 C229 1.384 . S
C230 C233 1.382 . S
C231 C229 1.384 . S
C231 C232 1.381 . S
C231 H255 0.930 . S
C232 C231 1.381 . S
C232 C234 1.381 . S
C232 C235 1.487 . S
C233 C230 1.382 . S
C233 C234 1.387 . S
C233 H256 0.930 . S
C234 C232 1.381 . S
C234 C233 1.387 . S
C234 H257 0.931 . S
C235 C228 1.399 . S
C235 C232 1.487 . S
C235 N267 1.343 . S
C236 C237 1.384 . S
C236 C238 1.384 . S
C236 H258 0.931 . S
C237 C236 1.384 . S
C237 C240 1.382 . S
C238 C236 1.384 . S
C238 C239 1.381 . S
C238 H259 0.930 . S
C239 C238 1.381 . S
C239 C241 1.381 . S
C239 C242 1.487 . S
C240 C237 1.382 . S
C240 C241 1.387 . S
C240 H260 0.930 . S
C241 C239 1.381 . S
C241 C240 1.387 . S
C241 H261 0.931 . S
C242 C239 1.487 . S
C242 C249 1.399 . S
C242 N267 1.343 . S
C243 C244 1.384 . S
C243 C245 1.384 . S
C243 H262 0.931 . S
C244 C243 1.384 . S
C244 C247 1.382 . S
C245 C243 1.384 . S
C245 C246 1.381 . S
C245 H263 0.930 . S
C246 C245 1.381 . S
C246 C248 1.381 . S
C246 C249 1.487 . S
C247 C244 1.382 . S
C247 C248 1.387 . S
C247 H264 0.930 . S
C248 C246 1.381 . S
C248 C247 1.387 . S
C248 H265 0.931 . S
C249 C242 1.399 . S
C249 C246 1.487 . S
C249 N266 1.343 . S
H250 C222 0.931 . S
H251 C224 0.930 . S
H252 C226 0.930 . S
H253 C227 0.931 . S
H254 C229 0.931 . S
H255 C231 0.930 . S
H256 C233 0.930 . S
H257 C234 0.931 . S
H258 C236 0.931 . S
H259 C238 0.930 . S
H260 C240 0.930 . S
H261 C241 0.931 . S
H262 C243 0.931 . S
H263 C245 0.930 . S
H264 C247 0.930 . S
H265 C248 0.931 . S
N266 C228 1.343 . S
N266 C249 1.343 . S
N267 C235 1.343 . S
N267 C242 1.343 . S
C268 C269 1.384 . S
C268 C270 1.384 . S
C268 H296 0.931 . S
C269 C268 1.384 . S
C269 C272 1.382 . S
C270 C268 1.384 . S
C270 C271 1.381 . S
C270 H297 0.930 . S
C271 C270 1.381 . S
C271 C273 1.381 . S
C271 C274 1.487 . S
C272 C269 1.382 . S
C272 C273 1.387 . S
C272 H298 0.930 . S
C273 C271 1.381 . S
C273 C272 1.387 . S
C273 H299 0.931 . S
C274 C271 1.487 . S
C274 C281 1.399 . S
C274 N312 1.343 . S
C275 C276 1.384 . S
C275 C277 1.384 . S
C275 H300 0.931 . S
C276 C275 1.384 . S
C276 C279 1.382 . S
C277 C275 1.384 . S
C277 C278 1.381 . S
C277 H301 0.930 . S
C278 C277 1.381 . S
C278 C280 1.381 . S
C278 C281 1.487 . S
C279 C276 1.382 . S
C279 C280 1.387 . S
C279 H302 0.930 . S
C280 C278 1.381 . S
C280 C279 1.387 . S
C280 H303 0.931 . S
C281 C274 1.399 . S
C281 C278 1.487 . S
C281 N313 1.343 . S
C282 C283 1.384 . S
C282 C284 1.384 . S
C282 H304 0.931 . S
C283 C282 1.384 . S
C283 C286 1.382 . S
C284 C282 1.384 . S
C284 C285 1.381 . S
C284 H305 0.930 . S
C285 C284 1.381 . S
C285 C287 1.381 . S
C285 C288 1.487 . S
C286 C283 1.382 . S
C286 C287 1.387 . S
C286 H306 0.930 . S
C287 C285 1.381 . S
C287 C286 1.387 . S
C287 H307 0.931 . S
C288 C285 1.487 . S
C288 C295 1.399 . S
C288 N313 1.343 . S
C289 C290 1.384 . S
C289 C291 1.384 . S
C289 H308 0.931 . S
C290 C289 1.384 . S
C290 C293 1.382 . S
C291 C289 1.384 . S
C291 C292 1.381 . S
C291 H309 0.930 . S
C292 C291 1.381 . S
C292 C294 1.381 . S
C292 C295 1.487 . S
C293 C290 1.382 . S
C293 C294 1.387 . S
C293 H310 0.930 . S
C294 C292 1.381 . S
C294 C293 1.387 . S
C294 H311 0.931 . S
C295 C288 1.399 . S
C295 C292 1.487 . S
C295 N312 1.343 . S
H296 C268 0.931 . S
H297 C270 0.930 . S
H298 C272 0.930 . S
H299 C273 0.931 . S
H300 C275 0.931 . S
H301 C277 0.930 . S
H302 C279 0.930 . S
H303 C280 0.931 . S
H304 C282 0.931 . S
H305 C284 0.930 . S
H306 C286 0.930 . S
H307 C287 0.931 . S
H308 C289 0.931 . S
H309 C291 0.930 . S
H310 C293 0.930 . S
H311 C294 0.931 . S
N312 C274 1.343 . S
N312 C295 1.343 . S
N313 C281 1.343 . S
N313 C288 1.343 . S
C314 C315 1.384 . S
C314 C316 1.384 . S
C314 H342 0.931 . S
C315 C314 1.384 . S
C315 C318 1.382 . S
C316 C314 1.384 . S
C316 C317 1.381 . S
C316 H343 0.930 . S
C317 C316 1.381 . S
C317 C319 1.381 . S
C317 C320 1.487 . S
C318 C315 1.382 . S
C318 C319 1.387 . S
C318 H344 0.930 . S
C319 C317 1.381 . S
C319 C318 1.387 . S
C319 H345 0.931 . S
C320 C317 1.487 . S
C320 C327 1.399 . S
C320 N358 1.343 . S
C321 C322 1.384 . S
C321 C323 1.384 . S
C321 H346 0.931 . S
C322 C321 1.384 . S
C322 C325 1.382 . S
C323 C321 1.384 . S
C323 C324 1.381 . S
C323 H347 0.930 . S
C324 C323 1.381 . S
C324 C326 1.381 . S
C324 C327 1.487 . S
C325 C322 1.382 . S
C325 C326 1.387 . S
C325 H348 0.930 . S
C326 C324 1.381 . S
C326 C325 1.387 . S
C326 H349 0.931 . S
C327 C320 1.399 . S
C327 C324 1.487 . S
C327 N359 1.343 . S
C328 C329 1.384 . S
C328 C330 1.384 . S
C328 H350 0.931 . S
C329 C328 1.384 . S
C329 C332 1.382 . S
C330 C328 1.384 . S
C330 C331 1.381 . S
C330 H351 0.930 . S
C331 C330 1.381 . S
C331 C333 1.381 . S
C331 C334 1.487 . S
C332 C329 1.382 . S
C332 C333 1.387 . S
C332 H352 0.930 . S
C333 C331 1.381 . S
C333 C332 1.387 . S
C333 H353 0.931 . S
C334 C331 1.487 . S
C334 C341 1.399 . S
C334 N359 1.343 . S
C335 C336 1.384 . S
C335 C337 1.384 . S
C335 H354 0.931 . S
C336 C335 1.384 . S
C336 C339 1.382 . S
C337 C335 1.384 . S
C337 C338 1.381 . S
C337 H355 0.930 . S
C338 C337 1.381 . S
C338 C340 1.381 . S
C338 C341 1.487 . S
C339 C336 1.382 . S
C339 C340 1.387 . S
C339 H356 0.930 . S
C340 C338 1.381 . S
C340 C339 1.387 . S
C340 H357 0.931 . S
C341 C334 1.399 . S
C341 C338 1.487 . S
C341 N358 1.343 . S
H342 C314 0.931 . S
H343 C316 0.930 . S
H344 C318 0.930 . S
H345 C319 0.931 . S
H346 C321 0.931 . S
H347 C323 0.930 . S
H348 C325 0.930 . S
H349 C326 0.931 . S
H350 C328 0.931 . S
H351 C330 0.930 . S
H352 C332 0.930 . S
H353 C333 0.931 . S
H354 C335 0.931 . S
H355 C337 0.930 . S
H356 C339 0.930 . S
H357 C340 0.931 . S
N358 C320 1.343 . S
N358 C341 1.343 . S
N359 C327 1.343 . S
N359 C334 1.343 . S
C360 C361 1.369 . S
C360 C362 1.419 . S
C360 H364 0.930 . S
C361 C360 1.369 . S
C361 C370 1.429 . S
C362 C360 1.419 . S
C362 C363 1.363 . S
C362 H365 0.929 . S
C363 C362 1.363 . S
C363 C369 1.428 . S
H364 C360 0.930 . S
H365 C362 0.929 . S
S366 N367 1.613 . S
S366 N368 1.610 . S
N367 S366 1.613 . S
N367 C370 1.350 . S
N368 S366 1.610 . S
N368 C369 1.351 . S
C369 C363 1.428 . S
C369 N368 1.351 . S
C369 C370 1.434 . S
C370 C361 1.429 . S
C370 N367 1.350 . S
C370 C369 1.434 . S
C371 C372 1.369 . S
C371 C373 1.419 . S
C371 H375 0.930 . S
C372 C371 1.369 . S
C372 C381 1.429 . S
C373 C371 1.419 . S
C373 C374 1.363 . S
C373 H376 0.929 . S
C374 C373 1.363 . S
C374 C380 1.428 . S
H375 C371 0.930 . S
H376 C373 0.929 . S
S377 N378 1.613 . S
S377 N379 1.610 . S
N378 S377 1.613 . S
N378 C381 1.350 . S
N379 S377 1.610 . S
N379 C380 1.351 . S
C380 C374 1.428 . S
C380 N379 1.351 . S
C380 C381 1.434 . S
C381 C372 1.429 . S
C381 N378 1.350 . S
C381 C380 1.434 . S
C382 C383 1.369 . S
C382 C384 1.419 . S
C382 H386 0.930 . S
C383 C382 1.369 . S
C383 C392 1.429 . S
C384 C382 1.419 . S
C384 C385 1.363 . S
C384 H387 0.929 . S
C385 C384 1.363 . S
C385 C391 1.428 . S
H386 C382 0.930 . S
H387 C384 0.929 . S
S388 N389 1.613 . S
S388 N390 1.610 . S
N389 S388 1.613 . S
N389 C392 1.350 . S
N390 S388 1.610 . S
N390 C391 1.351 . S
C391 C385 1.428 . S
C391 N390 1.351 . S
C391 C392 1.434 . S
C392 C383 1.429 . S
C392 N389 1.350 . S
C392 C391 1.434 . S
C393 C394 1.369 . S
C393 C395 1.419 . S
C393 H397 0.930 . S
C394 C393 1.369 . S
C394 C403 1.429 . S
C395 C393 1.419 . S
C395 C396 1.363 . S
C395 H398 0.929 . S
C396 C395 1.363 . S
C396 C402 1.428 . S
H397 C393 0.930 . S
H398 C395 0.929 . S
S399 N400 1.613 . S
S399 N401 1.610 1_455 S
N400 S399 1.613 . S
N400 C403 1.350 1_455 S
N401 S399 1.610 1_655 S
N401 C402 1.351 . S
C402 C396 1.428 . S
C402 N401 1.351 . S
C402 C403 1.434 . S
C403 C394 1.429 . S
C403 N400 1.350 1_655 S
C403 C402 1.434 . S
C404 C405 1.369 . S
C404 C406 1.419 . S
C404 H408 0.930 . S
C405 C404 1.369 . S
C405 C414 1.429 . S
C406 C404 1.419 . S
C406 C407 1.363 . S
C406 H409 0.929 . S
C407 C406 1.363 . S
C407 C413 1.428 . S
H408 C404 0.930 . S
H409 C406 0.929 . S
S410 N411 1.613 1_556 S
S410 N412 1.610 1_556 S
N411 S410 1.613 1_554 S
N411 C414 1.350 . S
N412 S410 1.610 1_554 S
N412 C413 1.351 . S
C413 C407 1.428 . S
C413 N412 1.351 . S
C413 C414 1.434 . S
C414 C405 1.429 . S
C414 N411 1.350 . S
C414 C413 1.434 . S
C415 C416 1.369 . S
C415 C417 1.419 . S
C415 H419 0.930 . S
C416 C415 1.369 . S
C416 C425 1.429 . S
C417 C415 1.419 . S
C417 C418 1.363 . S
C417 H420 0.929 . S
C418 C417 1.363 . S
C418 C424 1.428 . S
H419 C415 0.930 . S
H420 C417 0.929 . S
S421 N422 1.613 . S
S421 N423 1.610 . S
N422 S421 1.613 . S
N422 C425 1.350 . S
N423 S421 1.610 . S
N423 C424 1.351 . S
C424 C418 1.428 . S
C424 N423 1.351 . S
C424 C425 1.434 . S
C425 C416 1.429 . S
C425 N422 1.350 . S
C425 C424 1.434 . S
C426 C427 1.369 . S
C426 C428 1.419 . S
C426 H430 0.930 . S
C427 C426 1.369 . S
C427 C436 1.429 . S
C428 C426 1.419 . S
C428 C429 1.363 . S
C428 H431 0.929 . S
C429 C428 1.363 . S
C429 C435 1.428 . S
H430 C426 0.930 . S
H431 C428 0.929 . S
S432 N433 1.613 . S
S432 N434 1.610 . S
N433 S432 1.613 . S
N433 C436 1.350 . S
N434 S432 1.610 . S
N434 C435 1.351 . S
C435 C429 1.428 . S
C435 N434 1.351 . S
C435 C436 1.434 . S
C436 C427 1.429 . S
C436 N433 1.350 . S
C436 C435 1.434 . S
C437 C438 1.369 . S
C437 C439 1.419 . S
C437 H441 0.930 . S
C438 C437 1.369 . S
C438 C447 1.429 . S
C439 C437 1.419 . S
C439 C440 1.363 . S
C439 H442 0.929 . S
C440 C439 1.363 . S
C440 C446 1.428 . S
H441 C437 0.930 . S
H442 C439 0.929 . S
S443 N444 1.613 . S
S443 N445 1.610 . S
N444 S443 1.613 . S
N444 C447 1.350 . S
N445 S443 1.610 . S
N445 C446 1.351 . S
C446 C440 1.428 . S
C446 N445 1.351 . S
C446 C447 1.434 . S
C447 C438 1.429 . S
C447 N444 1.350 . S
C447 C446 1.434 . S
C448 C449 1.369 . S
C448 C450 1.419 . S
C448 H452 0.930 . S
C449 C448 1.369 . S
C449 C458 1.429 . S
C450 C448 1.419 . S
C450 C451 1.363 . S
C450 H453 0.929 . S
C451 C450 1.363 . S
C451 C457 1.428 . S
H452 C448 0.930 . S
H453 C450 0.929 . S
S454 N455 1.613 . S
S454 N456 1.610 . S
N455 S454 1.613 . S
N455 C458 1.350 . S
N456 S454 1.610 . S
N456 C457 1.351 . S
C457 C451 1.428 . S
C457 N456 1.351 . S
C457 C458 1.434 . S
C458 C449 1.429 . S
C458 N455 1.350 . S
C458 C457 1.434 . S
C459 C460 1.369 . S
C459 C461 1.419 . S
C459 H463 0.930 . S
C460 C459 1.369 . S
C460 C469 1.429 . S
C461 C459 1.419 . S
C461 C462 1.363 . S
C461 H464 0.929 . S
C462 C461 1.363 . S
C462 C468 1.428 . S
H463 C459 0.930 . S
H464 C461 0.929 . S
S465 N466 1.613 . S
S465 N467 1.610 . S
N466 S465 1.613 . S
N466 C469 1.350 . S
N467 S465 1.610 . S
N467 C468 1.351 . S
C468 C462 1.428 . S
C468 N467 1.351 . S
C468 C469 1.434 . S
C469 C460 1.429 . S
C469 N466 1.350 . S
C469 C468 1.434 . S
C470 C471 1.369 . S
C470 C472 1.419 . S
C470 H474 0.930 . S
C471 C470 1.369 . S
C471 C480 1.429 . S
C472 C470 1.419 . S
C472 C473 1.363 . S
C472 H475 0.929 . S
C473 C472 1.363 . S
C473 C479 1.428 . S
H474 C470 0.930 . S
H475 C472 0.929 . S
S476 N477 1.613 . S
S476 N478 1.610 . S
N477 S476 1.613 . S
N477 C480 1.350 . S
N478 S476 1.610 . S
N478 C479 1.351 . S
C479 C473 1.428 . S
C479 N478 1.351 . S
C479 C480 1.434 . S
C480 C471 1.429 . S
C480 N477 1.350 . S
C480 C479 1.434 . S
C481 C482 1.369 . S
C481 C483 1.419 . S
C481 H485 0.930 . S
C482 C481 1.369 . S
C482 C491 1.429 . S
C483 C481 1.419 . S
C483 C484 1.363 . S
C483 H486 0.929 . S
C484 C483 1.363 . S
C484 C490 1.428 . S
H485 C481 0.930 . S
H486 C483 0.929 . S
S487 N488 1.613 . S
S487 N489 1.610 1_455 S
N488 S487 1.613 . S
N488 C491 1.350 1_455 S
N489 S487 1.610 1_655 S
N489 C490 1.351 . S
C490 C484 1.428 . S
C490 N489 1.351 . S
C490 C491 1.434 . S
C491 C482 1.429 . S
C491 N488 1.350 1_655 S
C491 C490 1.434 . S
C492 C493 1.369 . S
C492 C494 1.419 . S
C492 H496 0.930 . S
C493 C492 1.369 . S
C493 C502 1.429 . S
C494 C492 1.419 . S
C494 C495 1.363 . S
C494 H497 0.929 . S
C495 C494 1.363 . S
C495 C501 1.428 . S
H496 C492 0.930 . S
H497 C494 0.929 . S
S498 N499 1.613 . S
S498 N500 1.610 1_455 S
N499 S498 1.613 . S
N499 C502 1.350 1_455 S
N500 S498 1.610 1_655 S
N500 C501 1.351 . S
C501 C495 1.428 . S
C501 N500 1.351 . S
C501 C502 1.434 . S
C502 C493 1.429 . S
C502 N499 1.350 1_655 S
C502 C501 1.434 . S
C503 C504 1.369 . S
C503 C505 1.419 . S
C503 H507 0.930 . S
C504 C503 1.369 . S
C504 C513 1.429 . S
C505 C503 1.419 . S
C505 C506 1.363 . S
C505 H508 0.929 . S
C506 C505 1.363 . S
C506 C512 1.428 . S
H507 C503 0.930 . S
H508 C505 0.929 . S
S509 N510 1.613 . S
S509 N511 1.610 . S
N510 S509 1.613 . S
N510 C513 1.350 . S
N511 S509 1.610 . S
N511 C512 1.351 . S
C512 C506 1.428 . S
C512 N511 1.351 . S
C512 C513 1.434 . S
C513 C504 1.429 . S
C513 N510 1.350 . S
C513 C512 1.434 . S
C514 C515 1.369 . S
C514 C516 1.419 . S
C514 H518 0.930 . S
C515 C514 1.369 . S
C515 C524 1.429 . S
C516 C514 1.419 . S
C516 C517 1.363 . S
C516 H519 0.929 . S
C517 C516 1.363 . S
C517 C523 1.428 . S
H518 C514 0.930 . S
H519 C516 0.929 . S
S520 N521 1.613 . S
S520 N522 1.610 . S
N521 S520 1.613 . S
N521 C524 1.350 . S
N522 S520 1.610 . S
N522 C523 1.351 . S
C523 C517 1.428 . S
C523 N522 1.351 . S
C523 C524 1.434 . S
C524 C515 1.429 . S
C524 N521 1.350 . S
C524 C523 1.434 . S
C525 C526 1.369 . S
C525 C527 1.419 . S
C525 H529 0.930 . S
C526 C525 1.369 . S
C526 C535 1.429 . S
C527 C525 1.419 . S
C527 C528 1.363 . S
C527 H530 0.929 . S
C528 C527 1.363 . S
C528 C534 1.428 . S
H529 C525 0.930 . S
H530 C527 0.929 . S
S531 N532 1.611 . S
S531 N533 1.635 . S
N532 S531 1.611 . S
N532 C535 1.350 . S
N533 S531 1.635 . S
N533 C534 1.351 . S
C534 C528 1.428 . S
C534 N533 1.351 . S
C534 C535 1.434 . S
C535 C526 1.429 . S
C535 N532 1.350 . S
C535 C534 1.434 . S
C536 C537 1.369 . S
C536 C538 1.419 . S
C536 H540 0.930 . S
C537 C536 1.369 . S
C537 C546 1.429 . S
C538 C536 1.419 . S
C538 C539 1.363 . S
C538 H541 0.929 . S
C539 C538 1.363 . S
C539 C545 1.428 . S
H540 C536 0.930 . S
H541 C538 0.929 . S
S542 N543 1.613 . S
S542 N544 1.610 . S
N543 S542 1.613 . S
N543 C546 1.350 . S
N544 S542 1.610 . S
N544 C545 1.351 . S
C545 C539 1.428 . S
C545 N544 1.351 . S
C545 C546 1.434 . S
C546 C537 1.429 . S
C546 N543 1.350 . S
C546 C545 1.434 . S
C547 C548 1.369 . S
C547 C549 1.419 . S
C547 H551 0.930 . S
C548 C547 1.369 . S
C548 C557 1.429 . S
C549 C547 1.419 . S
C549 C550 1.363 . S
C549 H552 0.929 . S
C550 C549 1.363 . S
C550 C556 1.428 . S
H551 C547 0.930 . S
H552 C549 0.929 . S
S553 N554 1.613 . S
S553 N555 1.610 . S
N554 S553 1.613 . S
N554 C557 1.350 . S
N555 S553 1.610 . S
N555 C556 1.351 . S
C556 C550 1.428 . S
C556 N555 1.351 . S
C556 C557 1.434 . S
C557 C548 1.429 . S
C557 N554 1.350 . S
C557 C556 1.434 . S
C558 C559 1.369 . S
C558 C560 1.419 . S
C558 H562 0.930 . S
C559 C558 1.369 . S
C559 C568 1.429 . S
C560 C558 1.419 . S
C560 C561 1.363 . S
C560 H563 0.929 . S
C561 C560 1.363 . S
C561 C567 1.428 . S
H562 C558 0.930 . S
H563 C560 0.929 . S
S564 N565 1.613 1_565 S
S564 N566 1.610 1_565 S
N565 S564 1.613 1_545 S
N565 C568 1.347 . S
N566 S564 1.610 1_545 S
N566 C567 1.351 . S
C567 C561 1.428 . S
C567 N566 1.351 . S
C567 C568 1.434 . S
C568 C559 1.429 . S
C568 N565 1.347 . S
C568 C567 1.434 . S
C569 C570 1.369 . S
C569 C571 1.419 . S
C569 H573 0.930 . S
C570 C569 1.369 . S
C570 C579 1.429 . S
C571 C569 1.419 . S
C571 C572 1.363 . S
C571 H574 0.929 . S
C572 C571 1.363 . S
C572 C578 1.428 . S
H573 C569 0.930 . S
H574 C571 0.929 . S
S575 N576 1.613 . S
S575 N577 1.610 . S
N576 S575 1.613 . S
N576 C579 1.350 . S
N577 S575 1.610 . S
N577 C578 1.351 . S
C578 C572 1.428 . S
C578 N577 1.351 . S
C578 C579 1.434 . S
C579 C570 1.429 . S
C579 N576 1.350 . S
C579 C578 1.434 . S
C580 C581 1.369 . S
C580 C582 1.419 . S
C580 H584 0.930 . S
C581 C580 1.369 . S
C581 C590 1.429 . S
C582 C580 1.419 . S
C582 C583 1.363 . S
C582 H585 0.929 . S
C583 C582 1.363 . S
C583 C589 1.428 . S
H584 C580 0.930 . S
H585 C582 0.929 . S
S586 N587 1.613 . S
S586 N588 1.610 . S
N587 S586 1.613 . S
N587 C590 1.350 . S
N588 S586 1.610 . S
N588 C589 1.351 . S
C589 C583 1.428 . S
C589 N588 1.351 . S
C589 C590 1.434 . S
C590 C581 1.429 . S
C590 N587 1.350 . S
C590 C589 1.434 . S
C591 C592 1.369 . S
C591 C593 1.419 . S
C591 H595 0.930 . S
C592 C591 1.369 . S
C592 C601 1.429 . S
C593 C591 1.419 . S
C593 C594 1.363 . S
C593 H596 0.929 . S
C594 C593 1.363 . S
C594 C600 1.428 . S
H595 C591 0.930 . S
H596 C593 0.929 . S
S597 N598 1.613 1_556 S
S597 N599 1.610 1_556 S
N598 S597 1.613 1_554 S
N598 C601 1.350 . S
N599 S597 1.610 1_554 S
N599 C600 1.351 . S
C600 C594 1.428 . S
C600 N599 1.351 . S
C600 C601 1.434 . S
C601 C592 1.429 . S
C601 N598 1.350 . S
C601 C600 1.434 . S
C602 C603 1.369 . S
C602 C604 1.419 . S
C602 H606 0.930 . S
C603 C602 1.369 . S
C603 C612 1.429 . S
C604 C602 1.419 . S
C604 C605 1.363 . S
C604 H607 0.929 . S
C605 C604 1.363 . S
C605 C611 1.428 . S
H606 C602 0.930 . S
H607 C604 0.929 . S
S608 N609 1.613 . S
S608 N610 1.610 . S
N609 S608 1.613 . S
N609 C612 1.350 . S
N610 S608 1.610 . S
N610 C611 1.351 . S
C611 C605 1.428 . S
C611 N610 1.351 . S
C611 C612 1.434 . S
C612 C603 1.429 . S
C612 N609 1.350 . S
C612 C611 1.434 . S
C613 C614 1.369 . S
C613 C615 1.419 . S
C613 H617 0.930 . S
C614 C613 1.369 . S
C614 C623 1.429 . S
C615 C613 1.419 . S
C615 C616 1.363 . S
C615 H618 0.929 . S
C616 C615 1.363 . S
C616 C622 1.428 . S
H617 C613 0.930 . S
H618 C615 0.929 . S
S619 N620 1.613 . S
S619 N621 1.610 . S
N620 S619 1.613 . S
N620 C623 1.350 . S
N621 S619 1.610 . S
N621 C622 1.351 . S
C622 C616 1.428 . S
C622 N621 1.351 . S
C622 C623 1.434 . S
C623 C614 1.429 . S
C623 N620 1.350 . S
C623 C622 1.434 . S
C361 C13 1.783 . S
C363 C106 1.746 . S
C372 C27 1.786 . S
C374 C145 1.742 . S
C385 C177 1.716 . S
C383 C29 1.787 . S
C396 C223 1.720 . S
C394 C54 1.784 . S
C407 C290 1.748 . S
C405 C69 1.782 . S
C418 C329 1.748 . S
C416 C83 1.782 . S
C427 C15 1.784 . S
C429 C191 1.746 . S
C438 C41 1.785 . S
C440 C237 1.744 . S
C451 C276 1.718 . S
C449 C42 1.785 . S
C462 C315 1.717 . S
C460 C57 1.786 . S
C471 C71 1.784 . S
C473 C92 1.718 . S
C484 C131 1.720 . S
C482 C1 1.783 . S
C495 C230 1.748 . S
C493 C12 1.782 . S
C504 C26 1.786 . S
C506 C283 1.716 . S
C517 C336 1.716 . S
C515 C28 1.787 . S
C526 C55 1.783 . S
C528 C99 1.721 . S
C537 C68 1.787 . S
C539 C152 1.716 . S
C548 C82 1.781 . S
C550 C184 1.748 . S
C559 C14 1.781 . S
C561 C322 1.746 . S
C572 C85 1.744 . S
C570 C40 1.784 . S
C581 C43 1.787 . S
C583 C138 1.742 . S
C592 C56 1.783 . S
C594 C198 1.721 . S
C603 C70 1.783 . S
C605 C244 1.721 . S
C614 C0 1.782 . S
C616 C269 1.748 . S
