# Generated by pormake.
# Topology cml, (3,6)-cn, num edge types: 1
# Building blocks:
#     Node 0, Type 0, BuildingBlock: KAKCAD_clean_linker_0, # of connection points: 3
#     Node 1, Type 0, BuildingBlock: KAKCAD_clean_linker_0, # of connection points: 3
#     Node 2, Type 0, BuildingBlock: KAKCAD_clean_linker_0, # of connection points: 3
#     Node 3, Type 0, BuildingBlock: KAKCAD_clean_linker_0, # of connection points: 3
#     Node 4, Type 0, BuildingBlock: KAKCAD_clean_linker_0, # of connection points: 3
#     Node 5, Type 0, BuildingBlock: KAKCAD_clean_linker_0, # of connection points: 3
#     Node 6, Type 0, BuildingBlock: KAKCAD_clean_linker_0, # of connection points: 3
#     Node 7, Type 0, BuildingBlock: KAKCAD_clean_linker_0, # of connection points: 3
#     Node 8, Type 1, BuildingBlock: IZENUY_clean_sbu_0, # of connection points: 6
#     Node 9, Type 1, BuildingBlock: IZENUY_clean_sbu_0, # of connection points: 6
#     Node 10, Type 1, BuildingBlock: IZENUY_clean_sbu_0, # of connection points: 6
#     Node 11, Type 1, BuildingBlock: IZENUY_clean_sbu_0, # of connection points: 6
#     Edge 12, Type (0, 1), BuildingBlock: ZUJKAS_clean_linker_0, # of connection points: 2
#     Edge 13, Type (0, 1), BuildingBlock: ZUJKAS_clean_linker_0, # of connection points: 2
#     Edge 14, Type (0, 1), BuildingBlock: ZUJKAS_clean_linker_0, # of connection points: 2
#     Edge 15, Type (0, 1), BuildingBlock: ZUJKAS_clean_linker_0, # of connection points: 2
#     Edge 16, Type (0, 1), BuildingBlock: ZUJKAS_clean_linker_0, # of connection points: 2
#     Edge 17, Type (0, 1), BuildingBlock: ZUJKAS_clean_linker_0, # of connection points: 2
#     Edge 18, Type (0, 1), BuildingBlock: ZUJKAS_clean_linker_0, # of connection points: 2
#     Edge 19, Type (0, 1), BuildingBlock: ZUJKAS_clean_linker_0, # of connection points: 2
#     Edge 20, Type (0, 1), BuildingBlock: ZUJKAS_clean_linker_0, # of connection points: 2
#     Edge 21, Type (0, 1), BuildingBlock: ZUJKAS_clean_linker_0, # of connection points: 2
#     Edge 22, Type (0, 1), BuildingBlock: ZUJKAS_clean_linker_0, # of connection points: 2
#     Edge 23, Type (0, 1), BuildingBlock: ZUJKAS_clean_linker_0, # of connection points: 2
#     Edge 24, Type (0, 1), BuildingBlock: ZUJKAS_clean_linker_0, # of connection points: 2
#     Edge 25, Type (0, 1), BuildingBlock: ZUJKAS_clean_linker_0, # of connection points: 2
#     Edge 26, Type (0, 1), BuildingBlock: ZUJKAS_clean_linker_0, # of connection points: 2
#     Edge 27, Type (0, 1), BuildingBlock: ZUJKAS_clean_linker_0, # of connection points: 2
#     Edge 28, Type (0, 1), BuildingBlock: ZUJKAS_clean_linker_0, # of connection points: 2
#     Edge 29, Type (0, 1), BuildingBlock: ZUJKAS_clean_linker_0, # of connection points: 2
#     Edge 30, Type (0, 1), BuildingBlock: ZUJKAS_clean_linker_0, # of connection points: 2
#     Edge 31, Type (0, 1), BuildingBlock: ZUJKAS_clean_linker_0, # of connection points: 2
#     Edge 32, Type (0, 1), BuildingBlock: ZUJKAS_clean_linker_0, # of connection points: 2
#     Edge 33, Type (0, 1), BuildingBlock: ZUJKAS_clean_linker_0, # of connection points: 2
#     Edge 34, Type (0, 1), BuildingBlock: ZUJKAS_clean_linker_0, # of connection points: 2
#     Edge 35, Type (0, 1), BuildingBlock: ZUJKAS_clean_linker_0, # of connection points: 2
# Relax obj value: 0.055
# Max RMSD: 0.070
# Mean RMSD: 0.067
data_MOF--net-cml--node1-IZENUY_clean_sbu_0--node2-KAKCAD_clean_linker_0--edge1-ZUJKAS_clean_linker_0
_symmetry_space_group_name_H-M    P1
_symmetry_Int_Tables_number       1
_symmetry_cell_setting            triclinic
loop_
_symmetry_equiv_pos_as_xyz
'x, y, z'
_cell_length_a     53.901475
_cell_length_b     62.687794
_cell_length_c     58.162371
_cell_angle_alpha  89.951286
_cell_angle_beta   90.050694
_cell_angle_gamma 90.161156
loop_
_atom_site_label
_atom_site_type_symbol
_atom_site_fract_x
_atom_site_fract_y
_atom_site_fract_z
_atom_type_partial_charge
C0 C 0.30164 0.45056 0.95736 0.0
C1 C 0.32703 0.4552 0.95983 0.0
C2 C 0.29105 0.43323 0.96899 0.0
C3 C 0.30567 0.42014 0.98321 0.0
C4 C 0.33113 0.42465 0.98534 0.0
C5 C 0.34165 0.44199 0.97386 0.0
C6 C 0.29461 0.40179 0.99582 0.0
C7 C 0.27697 0.3885 0.98524 0.0
C8 C 0.26716 0.37069 0.99685 0.0
C9 C 0.2754 0.36615 0.01929 0.0
C10 C 0.29316 0.37918 0.03011 0.0
C11 C 0.30229 0.39714 0.01835 0.0
C12 C 0.30282 0.37386 0.0534 0.0
C13 C 0.28701 0.36615 0.07079 0.0
C14 C 0.32817 0.37658 0.05839 0.0
C15 C 0.33738 0.3722 0.0803 0.0
C16 C 0.32155 0.3648 0.09774 0.0
C17 C 0.24875 0.35659 0.98528 0.0
C18 C 0.22986 0.36533 0.97152 0.0
C19 C 0.25007 0.3343 0.98771 0.0
C20 C 0.23289 0.32108 0.97668 0.0
C21 C 0.2141 0.32983 0.96285 0.0
C22 C 0.21278 0.35209 0.96037 0.0
C23 C 0.29631 0.36158 0.09273 0.0
H24 H 0.2899 0.46056 0.94678 0.0
H25 H 0.27133 0.43031 0.96715 0.0
H26 H 0.34307 0.41463 0.9957 0.0
H27 H 0.36137 0.44491 0.97573 0.0
H28 H 0.2715 0.39161 0.96763 0.0
H29 H 0.31534 0.40768 0.02686 0.0
H30 H 0.26818 0.35232 0.02827 0.0
H31 H 0.26736 0.36405 0.0676 0.0
H32 H 0.34101 0.38197 0.04529 0.0
H33 H 0.35702 0.37443 0.08354 0.0
H34 H 0.22808 0.38244 0.96956 0.0
H35 H 0.26464 0.32701 0.99783 0.0
H36 H 0.28368 0.35601 0.10591 0.0
H37 H 0.19829 0.3593 0.95008 0.0
H38 H 0.23456 0.30396 0.97866 0.0
C39 C 0.70984 0.54075 0.46575 0.0
C40 C 0.68406 0.53959 0.4619 0.0
C41 C 0.72038 0.55865 0.47636 0.0
C42 C 0.70532 0.57557 0.48364 0.0
C43 C 0.6797 0.57462 0.47954 0.0
C44 C 0.66922 0.55695 0.46862 0.0
C45 C 0.716 0.59401 0.49606 0.0
C46 C 0.73564 0.60581 0.48658 0.0
C47 C 0.74477 0.62407 0.49786 0.0
C48 C 0.73463 0.62991 0.51922 0.0
C49 C 0.7151 0.61811 0.52894 0.0
C50 C 0.70581 0.60027 0.51717 0.0
C51 C 0.70393 0.62458 0.55113 0.0
C52 C 0.71893 0.62911 0.57029 0.0
C53 C 0.67803 0.62577 0.55337 0.0
C54 C 0.6673 0.63117 0.57439 0.0
C55 C 0.68224 0.63531 0.5937 0.0
C56 C 0.76382 0.63773 0.4867 0.0
C57 C 0.78451 0.62868 0.47578 0.0
C58 C 0.76095 0.65999 0.48632 0.0
C59 C 0.77828 0.67294 0.47515 0.0
C60 C 0.799 0.66395 0.46418 0.0
C61 C 0.80196 0.64165 0.4647 0.0
C62 C 0.70817 0.63428 0.59145 0.0
H63 H 0.72185 0.52764 0.46108 0.0
H64 H 0.7402 0.55903 0.47947 0.0
H65 H 0.66776 0.58763 0.48471 0.0
H66 H 0.64944 0.55699 0.46539 0.0
H67 H 0.74299 0.60135 0.46993 0.0
H68 H 0.69078 0.59103 0.5246 0.0
H69 H 0.74162 0.64388 0.52811 0.0
H70 H 0.73895 0.6282 0.56903 0.0
H71 H 0.66604 0.62251 0.53882 0.0
H72 H 0.64726 0.63164 0.57567 0.0
H73 H 0.78731 0.61158 0.47596 0.0
H74 H 0.74495 0.66741 0.4942 0.0
H75 H 0.72011 0.63751 0.60603 0.0
H76 H 0.81788 0.63422 0.45672 0.0
H77 H 0.77513 0.68998 0.47473 0.0
C78 C 0.69263 0.44784 0.95244 0.0
C79 C 0.68887 0.46677 0.9649 0.0
C80 C 0.7034 0.43006 0.96295 0.0
C81 C 0.71064 0.43081 0.98616 0.0
C82 C 0.70752 0.44993 0.99842 0.0
C83 C 0.69676 0.4677 0.98792 0.0
C84 C 0.72046 0.4115 0.99785 0.0
C85 C 0.73744 0.39802 0.98676 0.0
C86 C 0.7464 0.3796 0.99774 0.0
C87 C 0.7382 0.37472 0.02008 0.0
C88 C 0.72104 0.3879 0.03137 0.0
C89 C 0.71232 0.40623 0.02009 0.0
C90 C 0.71152 0.38227 0.05462 0.0
C91 C 0.70545 0.36106 0.06017 0.0
C92 C 0.7075 0.39825 0.07114 0.0
C93 C 0.697 0.39324 0.09243 0.0
C94 C 0.69039 0.3721 0.0978 0.0
C95 C 0.76404 0.36526 0.98576 0.0
C96 C 0.75996 0.35936 0.96275 0.0
C97 C 0.78487 0.35713 0.99733 0.0
C98 C 0.80124 0.34335 0.98615 0.0
C99 C 0.79704 0.33729 0.96321 0.0
C100 C 0.77623 0.34546 0.95162 0.0
C101 C 0.69504 0.35603 0.08152 0.0
H102 H 0.68648 0.44651 0.93476 0.0
H103 H 0.70529 0.41549 0.9531 0.0
H104 H 0.71332 0.45115 0.01621 0.0
H105 H 0.69451 0.48215 0.99788 0.0
H106 H 0.74405 0.40207 0.96971 0.0
H107 H 0.69845 0.41609 0.02833 0.0
H108 H 0.74503 0.36052 0.02859 0.0
H109 H 0.70809 0.34837 0.04778 0.0
H110 H 0.71227 0.41471 0.06756 0.0
H111 H 0.69345 0.40608 0.10441 0.0
H112 H 0.74395 0.36523 0.95345 0.0
H113 H 0.78859 0.36152 0.01501 0.0
H114 H 0.69048 0.33954 0.08519 0.0
H115 H 0.77263 0.34122 0.93388 0.0
H116 H 0.817 0.33718 0.99559 0.0
C117 C 0.29894 0.63483 0.58817 0.0
C118 C 0.32444 0.63195 0.59223 0.0
C119 C 0.28871 0.63011 0.56662 0.0
C120 C 0.3038 0.62246 0.54872 0.0
C121 C 0.32935 0.62003 0.55273 0.0
C122 C 0.33952 0.62468 0.5742 0.0
C123 C 0.29317 0.61697 0.52587 0.0
C124 C 0.27553 0.63022 0.51533 0.0
C125 C 0.26652 0.62563 0.49317 0.0
C126 C 0.27548 0.60754 0.48154 0.0
C127 C 0.29316 0.59411 0.49179 0.0
C128 C 0.30152 0.5988 0.51411 0.0
C129 C 0.30376 0.57571 0.47897 0.0
C130 C 0.28886 0.563 0.46454 0.0
C131 C 0.32913 0.57089 0.48091 0.0
C132 C 0.33934 0.55379 0.46889 0.0
C133 C 0.32456 0.54116 0.45431 0.0
C134 C 0.24841 0.64013 0.48188 0.0
C135 C 0.22885 0.64916 0.49453 0.0
C136 C 0.2507 0.64526 0.45843 0.0
C137 C 0.23385 0.65907 0.44789 0.0
C138 C 0.21441 0.66817 0.46057 0.0
C139 C 0.21208 0.66306 0.48401 0.0
C140 C 0.29915 0.54595 0.45232 0.0
H141 H 0.28684 0.6403 0.60179 0.0
H142 H 0.26893 0.63203 0.56411 0.0
H143 H 0.34161 0.61468 0.53917 0.0
H144 H 0.35932 0.62275 0.57662 0.0
H145 H 0.26954 0.64458 0.52404 0.0
H146 H 0.31458 0.5882 0.52245 0.0
H147 H 0.26891 0.60408 0.46433 0.0
H148 H 0.2692 0.5661 0.4628 0.0
H149 H 0.3413 0.58049 0.49155 0.0
H150 H 0.35887 0.5504 0.47121 0.0
H151 H 0.22633 0.64531 0.51254 0.0
H152 H 0.26581 0.63893 0.44827 0.0
H153 H 0.28724 0.53671 0.44109 0.0
H154 H 0.19708 0.66961 0.49415 0.0
H155 H 0.23634 0.66294 0.42988 0.0
C156 C 0.79526 0.95501 0.95575 0.0
C157 C 0.82073 0.95956 0.95757 0.0
C158 C 0.78501 0.93754 0.96742 0.0
C159 C 0.8001 0.92423 0.98098 0.0
C160 C 0.82565 0.92862 0.98233 0.0
C161 C 0.8358 0.9461 0.97085 0.0
C162 C 0.78949 0.90579 0.99377 0.0
C163 C 0.77142 0.89258 0.98371 0.0
C164 C 0.76252 0.87443 0.99534 0.0
C165 C 0.77184 0.86957 0.01732 0.0
C166 C 0.78987 0.88264 0.02764 0.0
C167 C 0.79826 0.90084 0.01587 0.0
C168 C 0.80077 0.87713 0.05034 0.0
C169 C 0.78576 0.87045 0.06876 0.0
C170 C 0.82648 0.87901 0.05377 0.0
C171 C 0.83691 0.8749 0.07526 0.0
C172 C 0.82191 0.86881 0.09389 0.0
C173 C 0.74424 0.86013 0.98404 0.0
C174 C 0.72364 0.86863 0.97244 0.0
C175 C 0.74762 0.83792 0.98427 0.0
C176 C 0.73088 0.8245 0.97294 0.0
C177 C 0.7103 0.83297 0.96122 0.0
C178 C 0.70682 0.8552 0.96122 0.0
C179 C 0.79624 0.86632 0.09036 0.0
H180 H 0.7832 0.96519 0.94569 0.0
H181 H 0.76523 0.93468 0.96615 0.0
H182 H 0.83794 0.91841 0.99211 0.0
H183 H 0.85559 0.94895 0.97217 0.0
H184 H 0.76499 0.89591 0.96642 0.0
H185 H 0.81168 0.91127 0.02405 0.0
H186 H 0.76532 0.85545 0.02626 0.0
H187 H 0.76586 0.86896 0.06665 0.0
H188 H 0.83862 0.88364 0.03979 0.0
H189 H 0.85682 0.87645 0.07725 0.0
H190 H 0.72043 0.88568 0.97219 0.0
H191 H 0.76353 0.83094 0.99278 0.0
H192 H 0.78419 0.86173 0.10442 0.0
H193 H 0.69094 0.86226 0.95273 0.0
H194 H 0.73437 0.80749 0.97299 0.0
C195 C 0.2073 0.04629 0.45488 0.0
C196 C 0.18166 0.04234 0.45632 0.0
C197 C 0.218 0.0633 0.467 0.0
C198 C 0.20321 0.07672 0.48066 0.0
C199 C 0.17749 0.07302 0.48152 0.0
C200 C 0.16688 0.05602 0.46959 0.0
C201 C 0.21433 0.09444 0.49423 0.0
C202 C 0.23296 0.10753 0.48488 0.0
C203 C 0.24235 0.12502 0.49733 0.0
C204 C 0.23299 0.12927 0.51943 0.0
C205 C 0.2144 0.11631 0.52903 0.0
C206 C 0.20549 0.0988 0.51644 0.0
C207 C 0.20342 0.12134 0.5518 0.0
C208 C 0.21843 0.12705 0.57062 0.0
C209 C 0.1776 0.12012 0.55486 0.0
C210 C 0.16704 0.12405 0.57631 0.0
C211 C 0.182 0.12928 0.59529 0.0
C212 C 0.26112 0.13938 0.48678 0.0
C213 C 0.28142 0.13098 0.4747 0.0
C214 C 0.25854 0.16163 0.48832 0.0
C215 C 0.27579 0.17519 0.47785 0.0
C216 C 0.29608 0.16682 0.46568 0.0
C217 C 0.29874 0.14453 0.46431 0.0
C218 C 0.20781 0.13097 0.59218 0.0
H219 H 0.21914 0.03594 0.44484 0.0
H220 H 0.23788 0.06564 0.46607 0.0
H221 H 0.16545 0.08336 0.49137 0.0
H222 H 0.14699 0.05367 0.47062 0.0
H223 H 0.23943 0.10465 0.46753 0.0
H224 H 0.1916 0.08845 0.52404 0.0
H225 H 0.2399 0.14286 0.52902 0.0
H226 H 0.2384 0.128 0.5688 0.0
H227 H 0.16549 0.11624 0.54059 0.0
H228 H 0.14705 0.12312 0.57797 0.0
H229 H 0.28403 0.11389 0.47344 0.0
H230 H 0.24287 0.16859 0.49718 0.0
H231 H 0.21985 0.13486 0.6065 0.0
H232 H 0.31435 0.13754 0.4554 0.0
H233 H 0.27291 0.19225 0.47893 0.0
C234 C 0.19356 0.94587 0.94962 0.0
C235 C 0.18767 0.96451 0.96189 0.0
C236 C 0.20443 0.92846 0.96073 0.0
C237 C 0.20982 0.92928 0.98438 0.0
C238 C 0.20468 0.94817 0.99648 0.0
C239 C 0.19368 0.96554 0.9854 0.0
C240 C 0.21966 0.91018 0.99656 0.0
C241 C 0.23723 0.89684 0.98602 0.0
C242 C 0.24555 0.87818 0.997 0.0
C243 C 0.23631 0.87308 0.01894 0.0
C244 C 0.21896 0.88631 0.02984 0.0
C245 C 0.21072 0.90477 0.0185 0.0
C246 C 0.20872 0.88059 0.05274 0.0
C247 C 0.20128 0.85955 0.05759 0.0
C248 C 0.20555 0.89632 0.06967 0.0
C249 C 0.19463 0.89125 0.09076 0.0
C250 C 0.18655 0.87034 0.09539 0.0
C251 C 0.2634 0.86371 0.98535 0.0
C252 C 0.26105 0.85926 0.96175 0.0
C253 C 0.28259 0.85387 0.99783 0.0
C254 C 0.29881 0.83971 0.98703 0.0
C255 C 0.29631 0.83514 0.96349 0.0
C256 C 0.27735 0.84518 0.95094 0.0
C257 C 0.1903 0.85448 0.07868 0.0
H258 H 0.18955 0.94462 0.93143 0.0
H259 H 0.20793 0.91412 0.95089 0.0
H260 H 0.20892 0.94948 0.01463 0.0
H261 H 0.18923 0.97954 0.99546 0.0
H262 H 0.24465 0.90112 0.96934 0.0
H263 H 0.19656 0.91452 0.02646 0.0
H264 H 0.24244 0.85866 0.02748 0.0
H265 H 0.20321 0.84712 0.04479 0.0
H266 H 0.21147 0.9126 0.06659 0.0
H267 H 0.19242 0.90377 0.10341 0.0
H268 H 0.24625 0.8663 0.9517 0.0
H269 H 0.28519 0.85721 0.01594 0.0
H270 H 0.18401 0.83828 0.08158 0.0
H271 H 0.27475 0.84177 0.93284 0.0
H272 H 0.31348 0.83248 0.99709 0.0
C273 C 0.79906 0.1385 0.58863 0.0
C274 C 0.82473 0.13628 0.59223 0.0
C275 C 0.78844 0.13292 0.56745 0.0
C276 C 0.80333 0.12503 0.54954 0.0
C277 C 0.82907 0.1235 0.55299 0.0
C278 C 0.83961 0.12903 0.57404 0.0
C279 C 0.79232 0.11794 0.52738 0.0
C280 C 0.77413 0.13012 0.51618 0.0
C281 C 0.76502 0.12396 0.49449 0.0
C282 C 0.77415 0.10528 0.48414 0.0
C283 C 0.79218 0.09282 0.49522 0.0
C284 C 0.80087 0.09917 0.51693 0.0
C285 C 0.8027 0.07353 0.48406 0.0
C286 C 0.78745 0.05897 0.4722 0.0
C287 C 0.82827 0.06941 0.48556 0.0
C288 C 0.83829 0.05097 0.47598 0.0
C289 C 0.82305 0.0362 0.46452 0.0
C290 C 0.74672 0.13753 0.48227 0.0
C291 C 0.72621 0.14599 0.49399 0.0
C292 C 0.74992 0.14247 0.45888 0.0
C293 C 0.73312 0.15576 0.44752 0.0
C294 C 0.71263 0.16434 0.45925 0.0
C295 C 0.70931 0.15917 0.4826 0.0
C296 C 0.79755 0.04049 0.46248 0.0
H297 H 0.78711 0.14399 0.60235 0.0
H298 H 0.76854 0.13421 0.56532 0.0
H299 H 0.84113 0.11799 0.53935 0.0
H300 H 0.85952 0.12763 0.57608 0.0
H301 H 0.76781 0.14487 0.5239 0.0
H302 H 0.81434 0.08938 0.52585 0.0
H303 H 0.76743 0.1006 0.46731 0.0
H304 H 0.76766 0.06161 0.47087 0.0
H305 H 0.84065 0.08053 0.49406 0.0
H306 H 0.8581 0.04837 0.47737 0.0
H307 H 0.72312 0.14225 0.51195 0.0
H308 H 0.76576 0.13645 0.44948 0.0
H309 H 0.78534 0.02935 0.45381 0.0
H310 H 0.69352 0.16518 0.49207 0.0
H311 H 0.73652 0.15967 0.42966 0.0
Fe312 Fe 0.00327 0.81767 0.32138 0.0
Fe313 Fe 0.00398 0.84207 0.36715 0.0
O314 O 0.00293 0.84208 0.33672 0.0
Fe315 Fe 0.00149 0.86657 0.32163 0.0
O316 O 0.97212 0.85937 0.30861 0.0
O317 O 0.98346 0.82727 0.29778 0.0
O318 O 0.97511 0.80859 0.33542 0.0
C319 C 0.97242 0.80708 0.3569 0.0
C320 C 0.0338 0.84169 0.2942 0.0
O321 O 0.98678 0.81695 0.37048 0.0
C322 C 0.03505 0.87689 0.35495 0.0
O323 O 0.02312 0.8037 0.34225 0.0
O324 O 0.03352 0.82841 0.3673 0.0
O325 O 0.01896 0.85714 0.29662 0.0
O326 O 0.03147 0.82504 0.30619 0.0
C327 C 0.97003 0.87358 0.3599 0.0
O328 O 0.02148 0.86719 0.36938 0.0
O329 O 0.03082 0.87536 0.33369 0.0
C330 C 0.03749 0.81067 0.3578 0.0
O331 O 0.97443 0.85576 0.36909 0.0
O332 O 0.98368 0.88056 0.34384 0.0
C333 C 0.96862 0.84289 0.2966 0.0
Fe334 Fe 0.00054 0.15788 0.86808 0.0
Fe335 Fe 0.00123 0.13365 0.82239 0.0
O336 O 0.0012 0.15806 0.83766 0.0
Fe337 Fe 0.00181 0.1826 0.82249 0.0
O338 O 0.03061 0.19052 0.83621 0.0
O339 O 0.01914 0.18225 0.87136 0.0
O340 O 0.02938 0.14308 0.86964 0.0
C341 C 0.03274 0.12515 0.86037 0.0
C342 C 0.96853 0.1906 0.85929 0.0
O343 O 0.01863 0.11881 0.84433 0.0
C344 C 0.96969 0.15991 0.79558 0.0
O345 O 0.9818 0.13345 0.87031 0.0
O346 O 0.97167 0.12581 0.83467 0.0
O347 O 0.98312 0.19717 0.84373 0.0
O348 O 0.97169 0.17263 0.86859 0.0
C349 C 0.03487 0.15638 0.79721 0.0
O350 O 0.98387 0.14395 0.79764 0.0
O351 O 0.97302 0.17636 0.80768 0.0
C352 C 0.96763 0.12431 0.85596 0.0
O353 O 0.03076 0.13992 0.80912 0.0
O354 O 0.02072 0.17245 0.79857 0.0
C355 C 0.03386 0.19157 0.85765 0.0
Fe356 Fe 0.50405 0.31741 0.32225 0.0
Fe357 Fe 0.50502 0.34197 0.36796 0.0
O358 O 0.50429 0.34184 0.33755 0.0
Fe359 Fe 0.5038 0.36631 0.32241 0.0
O360 O 0.48567 0.35614 0.29806 0.0
O361 O 0.47476 0.32382 0.30846 0.0
O362 O 0.48592 0.30283 0.34402 0.0
C363 C 0.47225 0.30938 0.36027 0.0
C364 C 0.53649 0.34384 0.29623 0.0
O365 O 0.47617 0.32723 0.36961 0.0
C366 C 0.53689 0.37472 0.35912 0.0
O367 O 0.53325 0.30921 0.33497 0.0
O368 O 0.52354 0.31756 0.37054 0.0
O369 O 0.53287 0.36019 0.30838 0.0
O370 O 0.52223 0.32774 0.29778 0.0
C371 C 0.47151 0.37529 0.35701 0.0
O372 O 0.53406 0.35668 0.36832 0.0
O373 O 0.52186 0.38119 0.34392 0.0
C374 C 0.5374 0.30808 0.35628 0.0
O375 O 0.48647 0.36646 0.3709 0.0
O376 O 0.47466 0.37378 0.3356 0.0
C377 C 0.47112 0.34033 0.29655 0.0
Fe378 Fe 0.50108 0.65729 0.86791 0.0
Fe379 Fe 0.50223 0.63267 0.82244 0.0
O380 O 0.50134 0.65719 0.83746 0.0
Fe381 Fe 0.50078 0.68157 0.82203 0.0
O382 O 0.52948 0.6904 0.83534 0.0
O383 O 0.51861 0.68229 0.87069 0.0
O384 O 0.53054 0.6434 0.86933 0.0
C385 C 0.53462 0.62556 0.86008 0.0
C386 C 0.46767 0.68894 0.85913 0.0
O387 O 0.52061 0.61865 0.84426 0.0
C388 C 0.46922 0.6577 0.79573 0.0
O389 O 0.48344 0.63231 0.87064 0.0
O390 O 0.47323 0.62397 0.8352 0.0
O391 O 0.48179 0.69576 0.84331 0.0
O392 O 0.47166 0.67117 0.86861 0.0
C393 C 0.53441 0.65615 0.79646 0.0
O394 O 0.48403 0.64218 0.79784 0.0
O395 O 0.47205 0.67437 0.8076 0.0
C396 C 0.46955 0.62253 0.85655 0.0
O397 O 0.53128 0.63974 0.80869 0.0
O398 O 0.51966 0.67179 0.79794 0.0
C399 C 0.53282 0.69188 0.85675 0.0
H400 H 0.19767 0.33238 0.91843 0.0
H401 H 0.16727 0.30926 0.89926 0.0
H402 H 0.15933 0.27237 0.96143 0.0
H403 H 0.18948 0.2955 0.98078 0.0
H404 H 0.16987 0.26192 0.89494 0.0
H405 H 0.08722 0.29133 0.94236 0.0
H406 H 0.11571 0.30648 0.94034 0.0
H407 H 0.11359 0.28423 0.95969 0.0
C408 C 0.1893 0.31943 0.92804 0.0
C409 C 0.19588 0.31578 0.95112 0.0
C410 C 0.17208 0.3062 0.91705 0.0
C411 C 0.16097 0.28928 0.92903 0.0
C412 C 0.16758 0.28549 0.95199 0.0
H413 H 0.04928 0.19422 0.90224 0.0
H414 H 0.08099 0.21774 0.9183 0.0
C415 C 0.18491 0.29861 0.96295 0.0
C416 C 0.14253 0.27544 0.91753 0.0
H417 H 0.08145 0.26114 0.91857 0.0
C418 C 0.15049 0.26178 0.89995 0.0
C419 C 0.11734 0.27537 0.92421 0.0
C420 C 0.10779 0.29023 0.94256 0.0
C421 C 0.13398 0.24752 0.88928 0.0
C422 C 0.10876 0.24735 0.89606 0.0
C423 C 0.10079 0.26127 0.91344 0.0
C424 C 0.09035 0.23254 0.88581 0.0
C425 C 0.14384 0.23232 0.8714 0.0
C426 C 0.08506 0.23305 0.86217 0.0
C427 C 0.06701 0.21949 0.85287 0.0
C428 C 0.05369 0.2054 0.86712 0.0
C429 C 0.0591 0.20494 0.89078 0.0
C430 C 0.07723 0.21837 0.9 0.0
H431 H 0.16431 0.23059 0.8726 0.0
H432 H 0.1352 0.2163 0.87318 0.0
H433 H 0.13938 0.23855 0.85403 0.0
H434 H 0.09458 0.24419 0.85097 0.0
H435 H 0.0632 0.22034 0.8346 0.0
H436 H 0.82262 0.65644 0.42318 0.0
H437 H 0.8521 0.67971 0.40316 0.0
H438 H 0.8456 0.72631 0.45724 0.0
H439 H 0.81666 0.703 0.47772 0.0
H440 H 0.84005 0.74192 0.40928 0.0
H441 H 0.92514 0.69383 0.42501 0.0
H442 H 0.89833 0.67993 0.4141 0.0
H443 H 0.89759 0.69112 0.44245 0.0
C444 C 0.82772 0.67149 0.43101 0.0
C445 C 0.81726 0.67783 0.4521 0.0
C446 C 0.84447 0.68479 0.41948 0.0
C447 C 0.85103 0.70464 0.42881 0.0
C448 C 0.84066 0.71105 0.44977 0.0
H449 H 0.96679 0.79502 0.40172 0.0
H450 H 0.93671 0.76986 0.41761 0.0
C451 C 0.82404 0.69774 0.46137 0.0
C452 C 0.86854 0.71891 0.41666 0.0
H453 H 0.92962 0.72495 0.40257 0.0
C454 C 0.85961 0.73819 0.40766 0.0
C455 C 0.89402 0.71398 0.41477 0.0
C456 C 0.90453 0.69367 0.42469 0.0
C457 C 0.87561 0.75278 0.39684 0.0
C458 C 0.90109 0.74787 0.395 0.0
C459 C 0.91 0.72854 0.40391 0.0
C460 C 0.91906 0.76312 0.38502 0.0
C461 C 0.86535 0.7736 0.388 0.0
C462 C 0.91908 0.76758 0.36138 0.0
C463 C 0.93635 0.78192 0.35215 0.0
C464 C 0.95382 0.79207 0.36647 0.0
C465 C 0.9536 0.78755 0.39018 0.0
C466 C 0.93647 0.77314 0.39932 0.0
H467 H 0.84595 0.7763 0.39372 0.0
H468 H 0.87704 0.78715 0.3939 0.0
H469 H 0.86565 0.77352 0.36892 0.0
H470 H 0.90586 0.75984 0.35007 0.0
H471 H 0.93601 0.78505 0.33384 0.0
H472 H 0.84776 0.33768 0.96389 0.0
H473 H 0.87601 0.31279 0.94492 0.0
H474 H 0.81343 0.27808 0.91752 0.0
H475 H 0.78509 0.30304 0.93625 0.0
H476 H 0.88083 0.27013 0.95086 0.0
H477 H 0.85507 0.28749 0.86045 0.0
H478 H 0.84572 0.30428 0.88407 0.0
H479 H 0.82914 0.27997 0.87805 0.0
C480 C 0.84003 0.32474 0.95382 0.0
C481 C 0.81421 0.32237 0.95147 0.0
C482 C 0.85618 0.31058 0.94293 0.0
C483 C 0.84685 0.29378 0.9295 0.0
C484 C 0.82107 0.29125 0.9273 0.0
H485 H 0.93214 0.18151 0.89071 0.0
H486 H 0.90199 0.20614 0.90733 0.0
C487 C 0.8049 0.30549 0.93806 0.0
C488 C 0.86412 0.27852 0.91846 0.0
H489 H 0.88098 0.25737 0.8667 0.0
C490 C 0.88091 0.26738 0.93245 0.0
C491 C 0.8644 0.27514 0.89441 0.0
C492 C 0.8478 0.2875 0.87832 0.0
C493 C 0.89784 0.25281 0.92309 0.0
C494 C 0.89756 0.2489 0.89913 0.0
C495 C 0.88095 0.2602 0.8851 0.0
C496 C 0.91491 0.23364 0.88821 0.0
C497 C 0.91624 0.24213 0.9389 0.0
C498 C 0.93153 0.24072 0.87127 0.0
C499 C 0.94859 0.22664 0.86153 0.0
C500 C 0.9494 0.20517 0.86858 0.0
C501 C 0.93223 0.19798 0.88508 0.0
C502 C 0.91506 0.21207 0.89471 0.0
H503 H 0.91845 0.25101 0.95531 0.0
H504 H 0.90954 0.22584 0.94311 0.0
H505 H 0.93471 0.24074 0.9306 0.0
H506 H 0.93162 0.25728 0.86591 0.0
H507 H 0.96147 0.23271 0.84881 0.0
H508 H 0.19188 0.66391 0.41867 0.0
H509 H 0.163 0.6887 0.40015 0.0
H510 H 0.16778 0.73054 0.45879 0.0
H511 H 0.19692 0.706 0.4773 0.0
H512 H 0.11597 0.70357 0.41902 0.0
H513 H 0.18301 0.76926 0.40193 0.0
H514 H 0.19272 0.74222 0.4077 0.0
H515 H 0.18268 0.75905 0.43083 0.0
C516 C 0.18695 0.67849 0.42752 0.0
C517 C 0.19673 0.68305 0.44941 0.0
C518 C 0.17039 0.69256 0.41698 0.0
C519 C 0.16354 0.71152 0.42801 0.0
C520 C 0.17313 0.7161 0.44989 0.0
H521 H 0.06688 0.81728 0.39561 0.0
H522 H 0.09754 0.79297 0.41201 0.0
C523 C 0.18957 0.70198 0.46051 0.0
C524 C 0.14586 0.72629 0.41688 0.0
H525 H 0.14067 0.7764 0.3944 0.0
C526 C 0.12134 0.71946 0.41351 0.0
C527 C 0.153 0.74701 0.40985 0.0
C528 C 0.17932 0.75486 0.41256 0.0
C529 C 0.10354 0.73299 0.40369 0.0
C530 C 0.11067 0.75371 0.39653 0.0
C531 C 0.13526 0.7605 0.39985 0.0
C532 C 0.09278 0.76871 0.38593 0.0
C533 C 0.07711 0.72518 0.40169 0.0
C534 C 0.08038 0.76336 0.3655 0.0
C535 C 0.06273 0.77715 0.35613 0.0
C536 C 0.05734 0.79669 0.3669 0.0
C537 C 0.07048 0.80234 0.38691 0.0
C538 C 0.08803 0.78847 0.39633 0.0
H539 H 0.07339 0.71156 0.41344 0.0
H540 H 0.06375 0.73813 0.40561 0.0
H541 H 0.07367 0.71968 0.38384 0.0
H542 H 0.08424 0.74844 0.35686 0.0
H543 H 0.05316 0.77241 0.34056 0.0
H544 H 0.68761 0.83965 0.9196 0.0
H545 H 0.65804 0.8163 0.89985 0.0
H546 H 0.66388 0.77043 0.95481 0.0
H547 H 0.69293 0.79386 0.97504 0.0
H548 H 0.66832 0.75406 0.90672 0.0
H549 H 0.58497 0.8041 0.92315 0.0
H550 H 0.61195 0.81735 0.91172 0.0
H551 H 0.61291 0.80632 0.94017 0.0
C552 C 0.68241 0.82472 0.92765 0.0
C553 C 0.69259 0.81869 0.94899 0.0
C554 C 0.66562 0.81137 0.91627 0.0
C555 C 0.65875 0.79175 0.92598 0.0
C556 C 0.66905 0.78552 0.94706 0.0
H557 H 0.53992 0.70387 0.90138 0.0
H558 H 0.57122 0.72827 0.9166 0.0
C559 C 0.68573 0.7989 0.95853 0.0
C560 C 0.64065 0.77773 0.91426 0.0
H561 H 0.57919 0.77301 0.90098 0.0
C562 C 0.64885 0.75821 0.90531 0.0
C563 C 0.6153 0.78323 0.91265 0.0
C564 C 0.60557 0.80381 0.92253 0.0
C565 C 0.63224 0.74394 0.8948 0.0
C566 C 0.60689 0.74943 0.89323 0.0
C567 C 0.59872 0.76898 0.9021 0.0
C568 C 0.58828 0.73454 0.88364 0.0
C569 C 0.64169 0.72286 0.88597 0.0
C570 C 0.58752 0.7301 0.86002 0.0
C571 C 0.56953 0.71619 0.85118 0.0
C572 C 0.55209 0.7065 0.86587 0.0
C573 C 0.55307 0.71101 0.88956 0.0
C574 C 0.5709 0.72498 0.89831 0.0
H575 H 0.66115 0.7198 0.89133 0.0
H576 H 0.62978 0.7096 0.89226 0.0
H577 H 0.64088 0.7228 0.8669 0.0
H578 H 0.6007 0.7375 0.84844 0.0
H579 H 0.56931 0.71305 0.83287 0.0
H580 H 0.31504 0.2045 0.48197 0.0
H581 H 0.34399 0.22872 0.46279 0.0
H582 H 0.34817 0.18576 0.40506 0.0
H583 H 0.31838 0.16188 0.42365 0.0
H584 H 0.39177 0.22149 0.44898 0.0
H585 H 0.33302 0.24217 0.37382 0.0
H586 H 0.32082 0.22886 0.39892 0.0
H587 H 0.33762 0.21403 0.37756 0.0
C588 C 0.32181 0.20033 0.46504 0.0
C589 C 0.31422 0.1813 0.45429 0.0
C590 C 0.3385 0.21413 0.45418 0.0
C591 C 0.34791 0.20922 0.43233 0.0
C592 C 0.34073 0.19009 0.4217 0.0
H593 H 0.45738 0.27029 0.34426 0.0
H594 H 0.42711 0.24594 0.36162 0.0
C595 C 0.32396 0.17631 0.43251 0.0
C596 C 0.36572 0.2239 0.421 0.0
H597 H 0.37486 0.25417 0.37284 0.0
C598 C 0.38803 0.22871 0.43238 0.0
C599 C 0.3608 0.23328 0.39932 0.0
C600 C 0.33667 0.22951 0.38676 0.0
C601 C 0.40567 0.24245 0.42255 0.0
C602 C 0.40074 0.25178 0.4009 0.0
C603 C 0.37854 0.24692 0.38943 0.0
C604 C 0.41837 0.26683 0.39003 0.0
C605 C 0.42962 0.24667 0.43523 0.0
C606 C 0.42304 0.28678 0.40005 0.0
C607 C 0.44022 0.30075 0.39017 0.0
C608 C 0.4531 0.29501 0.37007 0.0
C609 C 0.44792 0.27517 0.3598 0.0
C610 C 0.43063 0.26124 0.36966 0.0
H611 H 0.43287 0.23482 0.44912 0.0
H612 H 0.44562 0.24638 0.42323 0.0
H613 H 0.42886 0.26275 0.44317 0.0
H614 H 0.41346 0.29148 0.4156 0.0
H615 H 0.44363 0.31594 0.39848 0.0
H616 H 0.31891 0.83904 0.92157 0.0
H617 H 0.3466 0.81348 0.90281 0.0
H618 H 0.34004 0.77125 0.96106 0.0
H619 H 0.31202 0.79652 0.97976 0.0
H620 H 0.39276 0.79729 0.92104 0.0
H621 H 0.32364 0.73314 0.9045 0.0
H622 H 0.31479 0.76031 0.91067 0.0
H623 H 0.32466 0.74299 0.93351 0.0
C624 C 0.32316 0.82421 0.93028 0.0
C625 C 0.31323 0.81976 0.95212 0.0
C626 C 0.33906 0.8097 0.91959 0.0
C627 C 0.34508 0.7904 0.93044 0.0
C628 C 0.33531 0.78593 0.95227 0.0
H629 H 0.43892 0.68276 0.89745 0.0
H630 H 0.40903 0.70754 0.91423 0.0
C631 C 0.31952 0.80048 0.96302 0.0
C632 C 0.36219 0.77521 0.91923 0.0
H633 H 0.36574 0.72493 0.89699 0.0
C634 C 0.38687 0.7815 0.91565 0.0
C635 C 0.3544 0.75462 0.91237 0.0
C636 C 0.32789 0.74733 0.91525 0.0
C637 C 0.40417 0.76758 0.90576 0.0
C638 C 0.39638 0.74699 0.89877 0.0
C639 C 0.37165 0.74072 0.90233 0.0
C640 C 0.4137 0.73167 0.88795 0.0
C641 C 0.43078 0.77484 0.90347 0.0
C642 C 0.42576 0.73679 0.8673 0.0
C643 C 0.44296 0.72274 0.85772 0.0
C644 C 0.44824 0.70316 0.8685 0.0
C645 C 0.4354 0.69773 0.88875 0.0
C646 C 0.4183 0.71187 0.89837 0.0
H647 H 0.43503 0.78841 0.91511 0.0
H648 H 0.44382 0.76162 0.90733 0.0
H649 H 0.43414 0.78022 0.88556 0.0
H650 H 0.42201 0.75175 0.85866 0.0
H651 H 0.45227 0.72732 0.84198 0.0
H652 H 0.69044 0.2003 0.47625 0.0
H653 H 0.66144 0.22404 0.45667 0.0
H654 H 0.66708 0.18596 0.39519 0.0
H655 H 0.69517 0.16151 0.41498 0.0
H656 H 0.6686 0.24839 0.41835 0.0
H657 H 0.59266 0.19 0.40324 0.0
H658 H 0.61817 0.18466 0.42248 0.0
H659 H 0.62213 0.18192 0.39193 0.0
C660 C 0.68519 0.19672 0.4587 0.0
C661 C 0.69502 0.17886 0.44727 0.0
C662 C 0.66878 0.21043 0.44746 0.0
C663 C 0.66181 0.20661 0.42458 0.0
C664 C 0.6718 0.18899 0.413 0.0
H665 H 0.56444 0.27842 0.33235 0.0
H666 H 0.59602 0.25414 0.34765 0.0
C667 C 0.68812 0.17517 0.42426 0.0
C668 C 0.64452 0.22139 0.41279 0.0
H669 H 0.58809 0.22409 0.38614 0.0
C670 C 0.651 0.24307 0.41132 0.0
C671 C 0.62157 0.21441 0.40357 0.0
C672 C 0.61305 0.19153 0.40553 0.0
C673 C 0.63513 0.25795 0.40093 0.0
C674 C 0.61215 0.25099 0.39192 0.0
C675 C 0.60582 0.2293 0.39299 0.0
C676 C 0.59384 0.26616 0.38242 0.0
C677 C 0.64305 0.28102 0.3996 0.0
C678 C 0.58216 0.28084 0.39698 0.0
C679 C 0.56406 0.2946 0.38838 0.0
C680 C 0.55729 0.29396 0.36502 0.0
C681 C 0.56926 0.27937 0.35041 0.0
C682 C 0.58726 0.26547 0.3591 0.0
H683 H 0.66332 0.28295 0.40242 0.0
H684 H 0.63813 0.28799 0.38264 0.0
H685 H 0.6332 0.29023 0.41307 0.0
H686 H 0.58679 0.28142 0.4151 0.0
H687 H 0.55527 0.30565 0.40011 0.0
H688 H 0.32054 0.46786 0.9151 0.0
H689 H 0.34199 0.49698 0.89498 0.0
H690 H 0.38041 0.51341 0.95761 0.0
H691 H 0.35921 0.48439 0.97772 0.0
H692 H 0.34465 0.54134 0.90331 0.0
H693 H 0.43679 0.5031 0.91192 0.0
H694 H 0.40816 0.48892 0.91719 0.0
H695 H 0.42108 0.50611 0.93891 0.0
C696 C 0.33338 0.47783 0.9246 0.0
C697 C 0.33847 0.47368 0.9479 0.0
C698 C 0.34565 0.4944 0.91308 0.0
C699 C 0.36315 0.50702 0.92471 0.0
C700 C 0.36743 0.50348 0.94819 0.0
H701 H 0.46031 0.6123 0.90137 0.0
H702 H 0.43251 0.58472 0.91606 0.0
C703 C 0.35532 0.48692 0.95965 0.0
C704 C 0.37744 0.52366 0.91235 0.0
H705 H 0.43663 0.53966 0.90048 0.0
C706 C 0.36473 0.5409 0.90243 0.0
C707 C 0.40364 0.5229 0.91107 0.0
C708 C 0.41822 0.50416 0.92013 0.0
C709 C 0.37769 0.5579 0.89215 0.0
C710 C 0.40389 0.55747 0.89174 0.0
C711 C 0.41652 0.53996 0.90103 0.0
C712 C 0.41878 0.57539 0.8826 0.0
C713 C 0.36345 0.57654 0.88248 0.0
C714 C 0.42006 0.57934 0.85889 0.0
C715 C 0.43607 0.59507 0.85035 0.0
C716 C 0.45107 0.60704 0.86544 0.0
C717 C 0.44912 0.60337 0.88924 0.0
C718 C 0.43323 0.58762 0.8977 0.0
H719 H 0.34338 0.57568 0.88672 0.0
H720 H 0.37114 0.59176 0.88919 0.0
H721 H 0.36545 0.57678 0.86349 0.0
H722 H 0.40921 0.56986 0.84698 0.0
H723 H 0.43709 0.59751 0.83194 0.0
H724 H 0.7029 0.51366 0.42788 0.0
H725 H 0.68321 0.48252 0.41034 0.0
H726 H 0.61884 0.49151 0.45323 0.0
H727 H 0.63905 0.52149 0.47207 0.0
H728 H 0.62955 0.45091 0.45062 0.0
H729 H 0.63028 0.4848 0.3624 0.0
H730 H 0.66057 0.48198 0.3748 0.0
H731 H 0.63876 0.5003 0.38729 0.0
C732 C 0.68471 0.50885 0.43386 0.0
C733 C 0.67248 0.52037 0.45125 0.0
C734 C 0.67331 0.49119 0.42353 0.0
C735 C 0.64927 0.48497 0.43004 0.0
C736 C 0.6373 0.49611 0.44774 0.0
H737 H 0.53733 0.41803 0.35555 0.0
H738 H 0.56681 0.44297 0.37259 0.0
C739 C 0.6488 0.51348 0.45831 0.0
C740 C 0.63623 0.46702 0.4185 0.0
H741 H 0.61431 0.44998 0.36655 0.0
C742 C 0.62628 0.45065 0.43221 0.0
C743 C 0.63181 0.4668 0.3945 0.0
C744 C 0.6407 0.48449 0.37889 0.0
C745 C 0.61139 0.43447 0.42277 0.0
C746 C 0.60711 0.43416 0.39875 0.0
C747 C 0.61772 0.45015 0.38494 0.0
C748 C 0.58998 0.41857 0.38782 0.0
C749 C 0.59941 0.41856 0.43884 0.0
C750 C 0.59334 0.39647 0.39036 0.0
C751 C 0.57616 0.38212 0.38097 0.0
C752 C 0.55568 0.38964 0.36839 0.0
C753 C 0.55292 0.41172 0.36513 0.0
C754 C 0.5698 0.42601 0.37485 0.0
H755 H 0.59928 0.42435 0.45689 0.0
H756 H 0.58001 0.41509 0.43359 0.0
H757 H 0.61005 0.40344 0.43843 0.0
H758 H 0.60915 0.3903 0.3997 0.0
H759 H 0.57894 0.36517 0.3835 0.0
H760 H 0.65328 0.49191 0.98437 0.0
H761 H 0.62996 0.52083 0.96636 0.0
H762 H 0.67056 0.51173 0.90332 0.0
H763 H 0.69448 0.48302 0.92139 0.0
H764 H 0.66361 0.55601 0.9173 0.0
H765 H 0.57628 0.50862 0.9166 0.0
H766 H 0.59141 0.51055 0.94407 0.0
H767 H 0.60635 0.49664 0.92094 0.0
C768 C 0.65756 0.49626 0.96679 0.0
C769 C 0.67569 0.4851 0.95428 0.0
C770 C 0.64406 0.51267 0.95648 0.0
C771 C 0.64836 0.5182 0.93346 0.0
C772 C 0.66693 0.50759 0.92109 0.0
H773 H 0.54851 0.58651 0.84401 0.0
H774 H 0.57787 0.56163 0.8612 0.0
C775 C 0.68043 0.49111 0.93138 0.0
C776 C 0.63281 0.53453 0.92208 0.0
H777 H 0.57338 0.54475 0.90524 0.0
C778 C 0.64388 0.5536 0.91461 0.0
C779 C 0.60717 0.53116 0.9184 0.0
C780 C 0.59455 0.51058 0.92522 0.0
C781 C 0.62982 0.56958 0.90379 0.0
C782 C 0.60406 0.56639 0.9006 0.0
C783 C 0.59311 0.5472 0.90785 0.0
C784 C 0.58803 0.58246 0.88932 0.0
C785 C 0.64267 0.58957 0.89552 0.0
C786 C 0.58416 0.60254 0.89934 0.0
C787 C 0.56733 0.61688 0.88954 0.0
C788 C 0.55394 0.61129 0.86964 0.0
C789 C 0.55837 0.59133 0.85939 0.0
C790 C 0.57517 0.57707 0.86918 0.0
H791 H 0.66309 0.58745 0.89443 0.0
H792 H 0.63557 0.59442 0.87837 0.0
H793 H 0.63889 0.60274 0.90776 0.0
H794 H 0.5936 0.60687 0.91511 0.0
H795 H 0.56434 0.6321 0.89789 0.0
H796 H 0.3704 0.53959 0.43409 0.0
H797 H 0.38996 0.50937 0.41526 0.0
H798 H 0.32354 0.47191 0.42493 0.0
H799 H 0.30428 0.50174 0.44521 0.0
H800 H 0.36284 0.44949 0.43635 0.0
H801 H 0.38108 0.48642 0.3519 0.0
H802 H 0.39433 0.50227 0.37442 0.0
H803 H 0.36116 0.49869 0.37298 0.0
C804 C 0.35993 0.52491 0.43238 0.0
C805 C 0.33576 0.52313 0.44132 0.0
C806 C 0.37102 0.50772 0.42121 0.0
C807 C 0.35806 0.48848 0.41821 0.0
C808 C 0.33382 0.48667 0.42685 0.0
H809 H 0.43114 0.39105 0.33413 0.0
H810 H 0.40027 0.41628 0.34854 0.0
C811 C 0.32277 0.50382 0.43828 0.0
C812 C 0.37051 0.46993 0.40738 0.0
H813 H 0.40619 0.45577 0.36146 0.0
C814 C 0.37199 0.45076 0.41979 0.0
C815 C 0.382 0.47134 0.38555 0.0
C816 C 0.37931 0.49073 0.37036 0.0
C817 C 0.38571 0.43338 0.41154 0.0
C818 C 0.39898 0.43548 0.39066 0.0
C819 C 0.39641 0.45424 0.37767 0.0
C820 C 0.41654 0.41892 0.38247 0.0
C821 C 0.3858 0.41298 0.42534 0.0
C822 C 0.43598 0.412 0.39671 0.0
C823 C 0.45342 0.39739 0.38863 0.0
C824 C 0.45214 0.38976 0.36594 0.0
C825 C 0.43267 0.39668 0.35168 0.0
C826 C 0.41501 0.41108 0.35989 0.0
H827 H 0.36845 0.41124 0.43548 0.0
H828 H 0.38783 0.39877 0.41412 0.0
H829 H 0.40151 0.41335 0.43767 0.0
H830 H 0.43807 0.4183 0.41393 0.0
H831 H 0.46834 0.39257 0.39998 0.0
H832 H 0.81346 0.97273 0.91311 0.0
H833 H 0.83513 0.00175 0.89293 0.0
H834 H 0.87441 0.01748 0.95531 0.0
H835 H 0.85303 0.98858 0.97545 0.0
H836 H 0.8393 0.04639 0.90155 0.0
H837 H 0.92997 0.00543 0.90895 0.0
H838 H 0.90085 0.99202 0.91426 0.0
H839 H 0.9146 0.00861 0.93608 0.0
C840 C 0.82651 0.98257 0.92254 0.0
C841 C 0.83186 0.97823 0.94574 0.0
C842 C 0.83889 0.99907 0.911 0.0
C843 C 0.85673 0.01142 0.92253 0.0
C844 C 0.86115 0.00778 0.94597 0.0
H845 H 0.95709 0.11425 0.90057 0.0
H846 H 0.92801 0.0874 0.91466 0.0
C847 C 0.84893 0.99128 0.95744 0.0
C848 C 0.87147 0.02769 0.91009 0.0
H849 H 0.93114 0.04211 0.89797 0.0
C850 C 0.85935 0.04538 0.90048 0.0
C851 C 0.8976 0.02617 0.90857 0.0
C852 C 0.91153 0.00693 0.9173 0.0
C853 C 0.87287 0.06212 0.89032 0.0
C854 C 0.89903 0.06095 0.88974 0.0
C855 C 0.91105 0.04296 0.89866 0.0
C856 C 0.91456 0.0786 0.88095 0.0
C857 C 0.85933 0.08127 0.88098 0.0
C858 C 0.91639 0.08262 0.85729 0.0
C859 C 0.93315 0.09793 0.84909 0.0
C860 C 0.94834 0.10939 0.86447 0.0
C861 C 0.94579 0.1057 0.88821 0.0
C862 C 0.92915 0.09038 0.89634 0.0
H863 H 0.83917 0.08074 0.88491 0.0
H864 H 0.86733 0.09615 0.88827 0.0
H865 H 0.86168 0.08196 0.86204 0.0
H866 H 0.9054 0.0735 0.84516 0.0
H867 H 0.9346 0.10041 0.83071 0.0
H868 H 0.18919 0.02899 0.41195 0.0
H869 H 0.1672 1.00026 0.39159 0.0
H870 H 0.12645 0.9855 0.45339 0.0
H871 H 0.14814 0.01408 0.4737 0.0
H872 H 0.16228 0.95589 0.40046 0.0
H873 H 0.07183 0.99737 0.4061 0.0
H874 H 0.10095 0.01064 0.41182 0.0
H875 H 0.08665 0.99428 0.43354 0.0
C876 C 0.17571 0.01945 0.42121 0.0
C877 C 0.17009 0.02397 0.44431 0.0
C878 C 0.16315 0.00312 0.40957 0.0
C879 C 0.14482 0.99111 0.42087 0.0
C880 C 0.14006 0.99496 0.4442 0.0
H881 H 0.04495 0.88783 0.39946 0.0
H882 H 0.07357 0.91518 0.41331 0.0
C883 C 0.15247 0.01128 0.45577 0.0
C884 C 0.13013 0.97483 0.40837 0.0
H885 H 0.07051 0.96049 0.39579 0.0
C886 C 0.14225 0.95699 0.39914 0.0
C887 C 0.10402 0.97643 0.40651 0.0
C888 C 0.0901 0.99582 0.41481 0.0
C889 C 0.12875 0.9402 0.38906 0.0
C890 C 0.1026 0.94144 0.38819 0.0
C891 C 0.09058 0.95957 0.39671 0.0
C892 C 0.0871 0.9237 0.37955 0.0
C893 C 0.1423 0.92089 0.38016 0.0
C894 C 0.08542 0.91939 0.35594 0.0
C895 C 0.06893 0.90381 0.34788 0.0
C896 C 0.05386 0.89233 0.36334 0.0
C897 C 0.05619 0.89637 0.38704 0.0
C898 C 0.07254 0.91198 0.39503 0.0
H899 H 0.16244 0.92144 0.38419 0.0
H900 H 0.13422 0.90614 0.38769 0.0
H901 H 0.14002 0.91992 0.36123 0.0
H902 H 0.09638 0.92846 0.34374 0.0
H903 H 0.06765 0.90106 0.32953 0.0
H904 H 0.15017 0.96187 0.93026 0.0
H905 H 0.127 0.99098 0.91266 0.0
H906 H 0.1702 0.03668 0.95112 0.0
H907 H 0.19435 0.00765 0.96804 0.0
H908 H 0.09813 0.01991 0.93476 0.0
H909 H 0.17293 0.06174 0.88683 0.0
H910 H 0.17676 0.03523 0.89841 0.0
H911 H 0.1792 0.05811 0.9169 0.0
C912 C 0.1552 0.97811 0.9346 0.0
C913 C 0.17427 0.98238 0.9505 0.0
C914 C 0.14176 0.99474 0.92466 0.0
C915 C 0.14704 0.01602 0.93035 0.0
C916 C 0.16611 0.02041 0.94612 0.0
H917 H 0.06697 0.13282 0.89444 0.0
H918 H 0.09563 0.10714 0.91193 0.0
C919 C 0.17969 0.00376 0.95601 0.0
C920 C 0.13162 0.03341 0.92065 0.0
H921 H 0.13361 0.07867 0.88785 0.0
C922 C 0.10591 0.03273 0.92448 0.0
C923 C 0.14182 0.0502 0.90734 0.0
C924 C 0.16915 0.05134 0.90191 0.0
C925 C 0.09012 0.04829 0.91529 0.0
C926 C 0.10026 0.06489 0.90179 0.0
C927 C 0.12598 0.06589 0.89827 0.0
C928 C 0.08415 0.08078 0.89042 0.0
C929 C 0.06264 0.04691 0.92006 0.0
C930 C 0.06867 0.07448 0.87228 0.0
C931 C 0.0524 0.08904 0.86222 0.0
C932 C 0.05122 0.11021 0.87017 0.0
C933 C 0.06729 0.11662 0.888 0.0
C934 C 0.0837 0.10201 0.89798 0.0
H935 H 0.05843 0.03583 0.93447 0.0
H936 H 0.05505 0.06289 0.92424 0.0
H937 H 0.05296 0.041 0.90446 0.0
H938 H 0.06897 0.05818 0.86609 0.0
H939 H 0.04041 0.08355 0.84847 0.0
H940 H 0.81446 0.0183 0.42225 0.0
H941 H 0.83565 0.98762 0.40516 0.0
H942 H 0.87763 0.97908 0.46765 0.0
H943 H 0.85661 0.00966 0.48477 0.0
H944 H 0.90688 0.98145 0.42916 0.0
H945 H 0.83046 0.92315 0.41611 0.0
H946 H 0.82452 0.94918 0.4044 0.0
H947 H 0.82766 0.9459 0.43497 0.0
C948 C 0.82784 0.0096 0.43249 0.0
C949 C 0.83401 0.01647 0.45479 0.0
C950 C 0.83989 0.99205 0.42273 0.0
C951 C 0.85806 0.98096 0.43522 0.0
C952 C 0.86366 0.98741 0.45772 0.0
H953 H 0.94094 0.86675 0.39803 0.0
H954 H 0.91244 0.89209 0.41615 0.0
C955 C 0.85173 0.00494 0.46743 0.0
C956 C 0.87288 0.9639 0.42425 0.0
H957 H 0.8691 0.9152 0.39809 0.0
C958 C 0.89861 0.96692 0.42248 0.0
C959 C 0.86208 0.94489 0.41571 0.0
C960 C 0.83469 0.94042 0.41804 0.0
C961 C 0.91382 0.95164 0.41207 0.0
C962 C 0.90295 0.93296 0.40286 0.0
C963 C 0.87729 0.92966 0.405 0.0
C964 C 0.91815 0.91686 0.39079 0.0
C965 C 0.94145 0.95553 0.41115 0.0
C966 C 0.93018 0.92225 0.37023 0.0
C967 C 0.94646 0.90791 0.35989 0.0
C968 C 0.95099 0.88784 0.36988 0.0
C969 C 0.93801 0.88211 0.38996 0.0
C970 C 0.92168 0.89653 0.40032 0.0
H971 H 0.9474 0.96795 0.42362 0.0
H972 H 0.95184 0.94063 0.41478 0.0
H973 H 0.94659 0.96106 0.39365 0.0
H974 H 0.92739 0.93777 0.36245 0.0
H975 H 0.9559 0.91278 0.3443 0.0
H976 H 0.31354 0.33002 0.1254 0.0
H977 H 0.33232 0.32273 0.16312 0.0
H978 H 0.3711 0.38293 0.16006 0.0
H979 H 0.35233 0.39037 0.12267 0.0
H980 H 0.38493 0.32087 0.17172 0.0
H981 H 0.33903 0.38259 0.22472 0.0
H982 H 0.32664 0.37364 0.19749 0.0
H983 H 0.35157 0.39276 0.19828 0.0
C984 C 0.32577 0.34181 0.13299 0.0
C985 C 0.33154 0.36074 0.12111 0.0
C986 C 0.33652 0.3376 0.15444 0.0
C987 C 0.35283 0.35241 0.16446 0.0
C988 C 0.35825 0.37145 0.15279 0.0
H989 H 0.45985 0.37264 0.26698 0.0
H990 H 0.42849 0.37297 0.23684 0.0
C991 C 0.3477 0.37558 0.13134 0.0
C992 C 0.36566 0.34761 0.18636 0.0
H993 H 0.37698 0.36814 0.23965 0.0
C994 C 0.38289 0.33088 0.18679 0.0
C995 C 0.36287 0.36073 0.20593 0.0
C996 C 0.34385 0.37832 0.20673 0.0
C997 C 0.39861 0.3278 0.20578 0.0
C998 C 0.39665 0.34161 0.22492 0.0
C999 C 0.3785 0.35763 0.22492 0.0
C1000 C 0.41485 0.34116 0.24402 0.0
C1001 C 0.41817 0.31065 0.20461 0.0
C1002 C 0.41738 0.32324 0.25831 0.0
C1003 C 0.43549 0.32293 0.2756 0.0
C1004 C 0.45126 0.34061 0.27891 0.0
C1005 C 0.44817 0.35869 0.26488 0.0
C1006 C 0.43017 0.35895 0.24765 0.0
H1007 H 0.42008 0.30396 0.18702 0.0
H1008 H 0.43647 0.31702 0.21016 0.0
H1009 H 0.41305 0.29744 0.21641 0.0
H1010 H 0.40543 0.30948 0.25604 0.0
H1011 H 0.43723 0.30882 0.28624 0.0
H1012 H 0.64438 0.66294 0.60243 0.0
H1013 H 0.62287 0.66861 0.63892 0.0
H1014 H 0.67162 0.62353 0.67199 0.0
H1015 H 0.69348 0.61809 0.63559 0.0
H1016 H 0.5975 0.63894 0.66261 0.0
H1017 H 0.67226 0.67181 0.71791 0.0
H1018 H 0.67513 0.67005 0.68705 0.0
H1019 H 0.68019 0.64689 0.7047 0.0
C1020 C 0.65066 0.65441 0.61755 0.0
C1021 C 0.67059 0.64007 0.61619 0.0
C1022 C 0.63841 0.6577 0.63839 0.0
C1023 C 0.6458 0.64669 0.65827 0.0
C1024 C 0.66598 0.63261 0.65704 0.0
H1025 H 0.56967 0.62568 0.78799 0.0
H1026 H 0.59815 0.62395 0.75521 0.0
C1027 C 0.6784 0.62946 0.63622 0.0
C1028 C 0.63113 0.64874 0.67971 0.0
H1029 H 0.63484 0.66135 0.7368 0.0
C1030 C 0.60567 0.64397 0.67877 0.0
C1031 C 0.64182 0.65525 0.70084 0.0
C1032 C 0.6688 0.66149 0.70271 0.0
C1033 C 0.59068 0.64537 0.69838 0.0
C1034 C 0.60139 0.65171 0.71945 0.0
C1035 C 0.62681 0.65642 0.72054 0.0
C1036 C 0.58611 0.65381 0.74036 0.0
C1037 C 0.56346 0.63993 0.69658 0.0
C1038 C 0.57037 0.67138 0.74296 0.0
C1039 C 0.55414 0.67247 0.76161 0.0
C1040 C 0.55327 0.6559 0.77795 0.0
C1041 C 0.56975 0.63864 0.77566 0.0
C1042 C 0.58608 0.63764 0.75702 0.0
H1043 H 0.55862 0.63283 0.67966 0.0
H1044 H 0.55811 0.62856 0.71038 0.0
H1045 H 0.55233 0.65464 0.69894 0.0
H1046 H 0.57023 0.684 0.73022 0.0
H1047 H 0.5418 0.68602 0.76285 0.0
H1048 H 0.65203 0.34411 0.10512 0.0
H1049 H 0.62945 0.33763 0.14091 0.0
H1050 H 0.67662 0.38262 0.1761 0.0
H1051 H 0.69986 0.38881 0.14056 0.0
H1052 H 0.65005 0.32551 0.18833 0.0
H1053 H 0.60167 0.40377 0.18283 0.0
H1054 H 0.61538 0.39114 0.15802 0.0
H1055 H 0.63482 0.40374 0.17907 0.0
C1056 C 0.65798 0.35233 0.12054 0.0
C1057 C 0.67772 0.36707 0.11989 0.0
C1058 C 0.64495 0.34867 0.14094 0.0
C1059 C 0.65129 0.35979 0.161 0.0
C1060 C 0.67135 0.37406 0.16067 0.0
H1061 H 0.57365 0.37319 0.29096 0.0
H1062 H 0.60345 0.37589 0.25945 0.0
C1063 C 0.68449 0.37765 0.14032 0.0
C1064 C 0.6362 0.35713 0.18201 0.0
H1065 H 0.59298 0.3823 0.21499 0.0
C1066 C 0.63759 0.3379 0.19426 0.0
C1067 C 0.62009 0.37339 0.18963 0.0
C1068 C 0.61765 0.39417 0.17671 0.0
C1069 C 0.62333 0.33454 0.21416 0.0
C1070 C 0.60682 0.35066 0.22157 0.0
C1071 C 0.60565 0.36996 0.20934 0.0
C1072 C 0.59012 0.34781 0.24162 0.0
C1073 C 0.62644 0.31393 0.22725 0.0
C1074 C 0.57277 0.33107 0.24214 0.0
C1075 C 0.55581 0.32938 0.26024 0.0
C1076 C 0.55561 0.34463 0.27797 0.0
C1077 C 0.57323 0.36123 0.27753 0.0
C1078 C 0.59029 0.36279 0.25954 0.0
H1079 H 0.64475 0.30651 0.22375 0.0
H1080 H 0.62464 0.31648 0.24607 0.0
H1081 H 0.61186 0.30249 0.22175 0.0
H1082 H 0.57184 0.31964 0.22822 0.0
H1083 H 0.5424 0.31649 0.25996 0.0
H1084 H 0.35803 0.60767 0.61544 0.0
H1085 H 0.37865 0.6158 0.65178 0.0
H1086 H 0.3367 0.67404 0.65737 0.0
H1087 H 0.31594 0.66603 0.62078 0.0
H1088 H 0.40755 0.65283 0.65967 0.0
H1089 H 0.32914 0.64591 0.72157 0.0
H1090 H 0.32786 0.63452 0.69308 0.0
H1091 H 0.32443 0.66275 0.6969 0.0
C1092 C 0.35314 0.62221 0.62439 0.0
C1093 C 0.33549 0.63629 0.61516 0.0
C1094 C 0.36485 0.62677 0.6452 0.0
C1095 C 0.3591 0.64545 0.65731 0.0
C1096 C 0.34111 0.65937 0.64846 0.0
H1097 H 0.43647 0.68913 0.78264 0.0
H1098 H 0.40814 0.6885 0.74952 0.0
C1099 C 0.32929 0.65478 0.62758 0.0
C1100 C 0.3732 0.6507 0.67842 0.0
H1101 H 0.36844 0.65475 0.73685 0.0
C1102 C 0.39896 0.65344 0.67652 0.0
C1103 C 0.36189 0.65163 0.70034 0.0
C1104 C 0.33433 0.64843 0.70329 0.0
C1105 C 0.41384 0.65645 0.69601 0.0
C1106 C 0.40269 0.6565 0.71798 0.0
C1107 C 0.37684 0.65467 0.71991 0.0
C1108 C 0.41804 0.65656 0.73904 0.0
C1109 C 0.44149 0.65911 0.69303 0.0
C1110 C 0.43241 0.63862 0.74429 0.0
C1111 C 0.44848 0.63888 0.76306 0.0
C1112 C 0.45056 0.65713 0.77701 0.0
C1113 C 0.43543 0.67487 0.77218 0.0
C1114 C 0.41922 0.67454 0.75332 0.0
H1115 H 0.44641 0.66365 0.67514 0.0
H1116 H 0.44884 0.67142 0.70497 0.0
H1117 H 0.45079 0.64378 0.69708 0.0
H1118 H 0.43152 0.62452 0.73355 0.0
H1119 H 0.45965 0.62486 0.76634 0.0
H1120 H 0.81237 0.8367 0.12485 0.0
H1121 H 0.83335 0.83021 0.16166 0.0
H1122 H 0.878 0.88661 0.15145 0.0
H1123 H 0.85709 0.89329 0.11492 0.0
H1124 H 0.9052 0.84927 0.16158 0.0
H1125 H 0.82846 0.86274 0.22378 0.0
H1126 H 0.82203 0.84472 0.20045 0.0
H1127 H 0.82742 0.87245 0.19454 0.0
C1128 C 0.82637 0.84789 0.13066 0.0
C1129 C 0.83322 0.86541 0.1169 0.0
C1130 C 0.83832 0.84417 0.15167 0.0
C1131 C 0.85713 0.858 0.15929 0.0
C1132 C 0.86356 0.87573 0.14584 0.0
H1133 H 0.9369 0.87543 0.28554 0.0
H1134 H 0.90822 0.87705 0.25302 0.0
C1135 C 0.85169 0.87945 0.12491 0.0
C1136 C 0.8713 0.85349 0.18054 0.0
H1137 H 0.8669 0.85143 0.23908 0.0
C1138 C 0.89683 0.84962 0.17853 0.0
C1139 C 0.86029 0.85412 0.20258 0.0
C1140 C 0.83308 0.85888 0.20564 0.0
C1141 C 0.91176 0.84659 0.19799 0.0
C1142 C 0.90076 0.84712 0.22006 0.0
C1143 C 0.87519 0.85084 0.2221 0.0
C1144 C 0.91594 0.84505 0.24117 0.0
C1145 C 0.93933 0.84358 0.19479 0.0
C1146 C 0.92919 0.82628 0.24565 0.0
C1147 C 0.94572 0.82532 0.26415 0.0
C1148 C 0.94919 0.8431 0.27856 0.0
C1149 C 0.93485 0.86149 0.2747 0.0
C1150 C 0.91838 0.86244 0.25616 0.0
H1151 H 0.94547 0.84817 0.17724 0.0
H1152 H 0.94995 0.85316 0.20751 0.0
H1153 H 0.944 0.82653 0.19747 0.0
H1154 H 0.92722 0.81256 0.23449 0.0
H1155 H 0.95623 0.81081 0.26677 0.0
H1156 H 0.14495 0.10607 0.61534 0.0
H1157 H 0.12367 0.11325 0.65155 0.0
H1158 H 0.17175 0.16716 0.66365 0.0
H1159 H 0.19304 0.16028 0.62711 0.0
H1160 H 0.16263 0.13899 0.70337 0.0
H1161 H 0.07666 0.16565 0.65938 0.0
H1162 H 0.08815 0.14026 0.64989 0.0
H1163 H 0.10621 0.16395 0.64488 0.0
C1164 C 0.15095 0.11953 0.62561 0.0
C1165 C 0.17046 0.13279 0.61817 0.0
C1166 C 0.13883 0.12355 0.64633 0.0
C1167 C 0.14592 0.1409 0.66004 0.0
C1168 C 0.16598 0.15372 0.65321 0.0
H1169 H 0.04836 0.18836 0.76768 0.0
H1170 H 0.07797 0.18645 0.73597 0.0
C1171 C 0.17815 0.14973 0.63239 0.0
C1172 C 0.13174 0.1459 0.68111 0.0
H1173 H 0.07379 0.15924 0.69956 0.0
C1174 C 0.14327 0.14361 0.70261 0.0
C1175 C 0.10662 0.15221 0.67998 0.0
C1176 C 0.09367 0.15587 0.65731 0.0
C1177 C 0.12997 0.14672 0.72311 0.0
C1178 C 0.10449 0.15201 0.72196 0.0
C1179 C 0.09328 0.15504 0.70042 0.0
C1180 C 0.08873 0.15383 0.74274 0.0
C1181 C 0.14329 0.14433 0.74578 0.0
C1182 C 0.0851 0.13615 0.75718 0.0
C1183 C 0.06819 0.13717 0.77535 0.0
C1184 C 0.05439 0.15584 0.77927 0.0
C1185 C 0.05857 0.1737 0.76511 0.0
C1186 C 0.07552 0.17266 0.74698 0.0
H1187 H 0.16364 0.14652 0.7438 0.0
H1188 H 0.13636 0.15599 0.7586 0.0
H1189 H 0.13998 0.12803 0.7526 0.0
H1190 H 0.0947 0.1213 0.75393 0.0
H1191 H 0.06542 0.12311 0.78589 0.0
H1192 H 0.15131 0.89435 0.11684 0.0
H1193 H 0.12838 0.88589 0.15185 0.0
H1194 H 0.16755 0.82625 0.15766 0.0
H1195 H 0.19122 0.83488 0.12287 0.0
H1196 H 0.09757 0.84989 0.1582 0.0
H1197 H 0.17409 0.85266 0.22251 0.0
H1198 H 0.17694 0.86441 0.19427 0.0
H1199 H 0.17895 0.83602 0.19776 0.0
C1200 C 0.15543 0.8796 0.12576 0.0
C1201 C 0.17323 0.86535 0.11712 0.0
C1202 C 0.14217 0.87473 0.14568 0.0
C1203 C 0.14645 0.85556 0.15745 0.0
C1204 C 0.16424 0.84128 0.14901 0.0
H1205 H 0.06717 0.81082 0.28106 0.0
H1206 H 0.09543 0.81193 0.24796 0.0
C1207 C 0.17755 0.84614 0.12901 0.0
C1208 C 0.13136 0.85032 0.17797 0.0
H1209 H 0.13411 0.84413 0.2363 0.0
C1210 C 0.10558 0.84849 0.17526 0.0
C1211 C 0.14191 0.84833 0.20015 0.0
C1212 C 0.16947 0.85058 0.20403 0.0
C1213 C 0.08997 0.84523 0.1942 0.0
C1214 C 0.1004 0.84407 0.21646 0.0
C1215 C 0.12624 0.84507 0.21916 0.0
C1216 C 0.08448 0.84356 0.23716 0.0
C1217 C 0.06237 0.84333 0.19028 0.0
C1218 C 0.06953 0.86116 0.24226 0.0
C1219 C 0.0535 0.86063 0.26104 0.0
C1220 C 0.05208 0.84244 0.27518 0.0
C1221 C 0.06769 0.82502 0.27044 0.0
C1222 C 0.08385 0.82561 0.25158 0.0
H1223 H 0.058 0.83892 0.17222 0.0
H1224 H 0.05406 0.83123 0.20194 0.0
H1225 H 0.0535 0.85892 0.19392 0.0
H1226 H 0.07008 0.87529 0.23152 0.0
H1227 H 0.04196 0.87442 0.26425 0.0
H1228 H 0.8159 0.17029 0.62091 0.0
H1229 H 0.83729 0.17876 0.65714 0.0
H1230 H 0.88051 0.1213 0.65083 0.0
H1231 H 0.85927 0.11268 0.61496 0.0
H1232 H 0.84299 0.154 0.69924 0.0
H1233 H 0.93262 0.16979 0.65571 0.0
H1234 H 0.90344 0.16899 0.64043 0.0
H1235 H 0.91904 0.14462 0.64794 0.0
C1236 C 0.82979 0.15938 0.6274 0.0
C1237 C 0.83619 0.14099 0.6149 0.0
C1238 C 0.84202 0.16427 0.64802 0.0
C1239 C 0.86081 0.15087 0.65635 0.0
C1240 C 0.86646 0.1321 0.64439 0.0
H1241 H 0.96 0.12808 0.76493 0.0
H1242 H 0.93155 0.12875 0.73237 0.0
C1243 C 0.85434 0.12723 0.62388 0.0
C1244 C 0.87504 0.15639 0.6773 0.0
H1245 H 0.93435 0.16373 0.69634 0.0
C1246 C 0.86289 0.15654 0.69865 0.0
C1247 C 0.90096 0.15985 0.67639 0.0
C1248 C 0.91478 0.16103 0.65387 0.0
C1249 C 0.87633 0.15878 0.71925 0.0
C1250 C 0.90239 0.16101 0.71832 0.0
C1251 C 0.91434 0.16188 0.69694 0.0
C1252 C 0.91799 0.16053 0.73922 0.0
C1253 C 0.86287 0.15769 0.74194 0.0
C1254 C 0.9196 0.1782 0.75394 0.0
C1255 C 0.93602 0.17795 0.77264 0.0
C1256 C 0.95106 0.16002 0.7768 0.0
C1257 C 0.94883 0.1422 0.76224 0.0
C1258 C 0.93255 0.14252 0.74361 0.0
H1259 H 0.84271 0.15454 0.73976 0.0
H1260 H 0.87099 0.14493 0.75283 0.0
H1261 H 0.86525 0.17302 0.75123 0.0
H1262 H 0.9086 0.19231 0.75066 0.0
H1263 H 0.93724 0.19191 0.78353 0.0
loop_
_geom_bond_atom_site_label_1
_geom_bond_atom_site_label_2
_geom_bond_distance
_geom_bond_site_symmetry_2
_ccdc_geom_bond_type
C0 C1 1.386 . S
C0 C2 1.397 . S
C0 H24 0.931 . S
C1 C0 1.386 . S
C1 C5 1.397 . S
C2 C0 1.397 . S
C2 C3 1.384 . S
C2 H25 0.930 . S
C3 C2 1.384 . S
C3 C4 1.377 . S
C3 C6 1.481 . S
C4 C3 1.377 . S
C4 C5 1.389 . S
C4 H26 0.929 . S
C5 C1 1.397 . S
C5 C4 1.389 . S
C5 H27 0.931 . S
C6 C3 1.481 . S
C6 C7 1.387 . S
C6 C11 1.390 1_556 S
C7 C6 1.387 . S
C7 C8 1.401 1_556 S
C7 H28 0.930 . S
C8 C7 1.401 1_554 S
C8 C9 1.376 . S
C8 C17 1.511 1_554 S
C9 C8 1.376 . S
C9 C10 1.392 . S
C9 H30 0.931 . S
C10 C9 1.392 . S
C10 C11 1.361 . S
C10 C12 1.500 . S
C11 C6 1.390 1_554 S
C11 C10 1.361 . S
C11 H29 0.931 . S
C12 C10 1.500 . S
C12 C13 1.371 . S
C12 C14 1.365 . S
C13 C12 1.371 . S
C13 C23 1.386 . S
C13 H31 0.931 . S
C14 C12 1.365 . S
C14 C15 1.409 . S
C14 H32 0.929 . S
C15 C14 1.409 . S
C15 C16 1.380 . S
C15 H33 0.930 . S
C16 C15 1.380 . S
C16 C23 1.357 . S
C17 C8 1.511 1_556 S
C17 C18 1.341 . S
C17 C19 1.386 . S
C18 C17 1.341 . S
C18 C22 1.394 . S
C18 H34 0.930 . S
C19 C17 1.386 . S
C19 C20 1.411 . S
C19 H35 0.898 1_556 S
C20 C19 1.411 . S
C20 C21 1.331 . S
C20 H38 0.932 . S
C21 C20 1.331 . S
C21 C22 1.336 . S
C22 C18 1.394 . S
C22 C21 1.336 . S
C22 H37 0.929 . S
C23 C13 1.386 . S
C23 C16 1.357 . S
C23 H36 0.928 . S
H24 C0 0.931 . S
H25 C2 0.930 . S
H26 C4 0.929 . S
H27 C5 0.931 . S
H28 C7 0.930 . S
H29 C11 0.931 . S
H30 C9 0.931 . S
H31 C13 0.931 . S
H32 C14 0.929 . S
H33 C15 0.930 . S
H34 C18 0.930 . S
H35 C19 0.898 1_554 S
H36 C23 0.928 . S
H37 C22 0.929 . S
H38 C20 0.932 . S
C39 C40 1.386 . S
C39 C41 1.397 . S
C39 H63 0.931 . S
C40 C39 1.386 . S
C40 C44 1.397 . S
C41 C39 1.397 . S
C41 C42 1.384 . S
C41 H64 0.930 . S
C42 C41 1.384 . S
C42 C43 1.377 . S
C42 C45 1.481 . S
C43 C42 1.377 . S
C43 C44 1.389 . S
C43 H65 0.929 . S
C44 C40 1.397 . S
C44 C43 1.389 . S
C44 H66 0.931 . S
C45 C42 1.481 . S
C45 C46 1.387 . S
C45 C50 1.390 . S
C46 C45 1.387 . S
C46 C47 1.401 . S
C46 H67 0.930 . S
C47 C46 1.401 . S
C47 C48 1.376 . S
C47 C56 1.511 . S
C48 C47 1.376 . S
C48 C49 1.392 . S
C48 H69 0.931 . S
C49 C48 1.392 . S
C49 C50 1.361 . S
C49 C51 1.500 . S
C50 C45 1.390 . S
C50 C49 1.361 . S
C50 H68 0.931 . S
C51 C49 1.500 . S
C51 C52 1.371 . S
C51 C53 1.365 . S
C52 C51 1.371 . S
C52 C62 1.386 . S
C52 H70 0.931 . S
C53 C51 1.365 . S
C53 C54 1.409 . S
C53 H71 0.929 . S
C54 C53 1.409 . S
C54 C55 1.380 . S
C54 H72 0.930 . S
C55 C54 1.380 . S
C55 C62 1.357 . S
C56 C47 1.511 . S
C56 C57 1.341 . S
C56 C58 1.371 . S
C57 C56 1.341 . S
C57 C61 1.394 . S
C57 H73 0.930 . S
C58 C56 1.371 . S
C58 C59 1.392 . S
C58 H74 0.931 . S
C59 C58 1.392 . S
C59 C60 1.331 . S
C59 H77 0.932 . S
C60 C59 1.331 . S
C60 C61 1.336 . S
C61 C57 1.394 . S
C61 C60 1.336 . S
C61 H76 0.929 . S
C62 C52 1.386 . S
C62 C55 1.357 . S
C62 H75 0.928 . S
H63 C39 0.931 . S
H64 C41 0.930 . S
H65 C43 0.929 . S
H66 C44 0.931 . S
H67 C46 0.930 . S
H68 C50 0.931 . S
H69 C48 0.931 . S
H70 C52 0.931 . S
H71 C53 0.929 . S
H72 C54 0.930 . S
H73 C57 0.930 . S
H74 C58 0.931 . S
H75 C62 0.928 . S
H76 C61 0.929 . S
H77 C59 0.932 . S
C78 C79 1.386 . S
C78 C80 1.397 . S
C78 H102 0.931 . S
C79 C78 1.386 . S
C79 C83 1.397 . S
C80 C78 1.397 . S
C80 C81 1.384 . S
C80 H103 0.930 . S
C81 C80 1.384 . S
C81 C82 1.377 . S
C81 C84 1.481 . S
C82 C81 1.377 . S
C82 C83 1.389 . S
C82 H104 0.929 1_556 S
C83 C79 1.397 . S
C83 C82 1.389 . S
C83 H105 0.931 . S
C84 C81 1.481 . S
C84 C85 1.387 . S
C84 C89 1.390 1_556 S
C85 C84 1.387 . S
C85 C86 1.422 . S
C85 H106 0.930 . S
C86 C85 1.422 . S
C86 C87 1.341 1_556 S
C86 C95 1.527 . S
C87 C86 1.341 1_554 S
C87 C88 1.392 . S
C87 H108 0.931 . S
C88 C87 1.392 . S
C88 C89 1.361 . S
C88 C90 1.500 . S
C89 C84 1.390 1_554 S
C89 C88 1.361 . S
C89 H107 0.931 . S
C90 C88 1.500 . S
C90 C91 1.371 . S
C90 C92 1.365 . S
C91 C90 1.371 . S
C91 C101 1.386 . S
C91 H109 0.931 . S
C92 C90 1.365 . S
C92 C93 1.409 . S
C92 H110 0.929 . S
C93 C92 1.409 . S
C93 C94 1.380 . S
C93 H111 0.930 . S
C94 C93 1.380 . S
C94 C101 1.357 . S
C95 C86 1.527 . S
C95 C96 1.341 . S
C95 C97 1.371 1_556 S
C96 C95 1.341 . S
C96 C100 1.394 . S
C96 H112 0.930 . S
C97 C95 1.371 1_554 S
C97 C98 1.392 1_554 S
C97 H113 0.931 . S
C98 C97 1.392 1_556 S
C98 C99 1.331 . S
C98 H116 0.932 1_556 S
C99 C98 1.331 . S
C99 C100 1.336 . S
C100 C96 1.394 . S
C100 C99 1.336 . S
C100 H115 0.929 . S
C101 C91 1.386 . S
C101 C94 1.357 . S
C101 H114 0.928 . S
H102 C78 0.931 . S
H103 C80 0.930 . S
H104 C82 0.929 1_554 S
H105 C83 0.931 . S
H106 C85 0.930 . S
H107 C89 0.931 . S
H108 C87 0.931 . S
H109 C91 0.931 . S
H110 C92 0.929 . S
H111 C93 0.930 . S
H112 C96 0.930 . S
H113 C97 0.931 . S
H114 C101 0.928 . S
H115 C100 0.929 . S
H116 C98 0.932 1_554 S
C117 C118 1.386 . S
C117 C119 1.397 . S
C117 H141 0.931 . S
C118 C117 1.386 . S
C118 C122 1.397 . S
C119 C117 1.397 . S
C119 C120 1.384 . S
C119 H142 0.930 . S
C120 C119 1.384 . S
C120 C121 1.377 . S
C120 C123 1.481 . S
C121 C120 1.377 . S
C121 C122 1.389 . S
C121 H143 0.929 . S
C122 C118 1.397 . S
C122 C121 1.389 . S
C122 H144 0.931 . S
C123 C120 1.481 . S
C123 C124 1.387 . S
C123 C128 1.390 . S
C124 C123 1.387 . S
C124 C125 1.401 . S
C124 H145 0.930 . S
C125 C124 1.401 . S
C125 C126 1.376 . S
C125 C134 1.511 . S
C126 C125 1.376 . S
C126 C127 1.392 . S
C126 H147 0.931 . S
C127 C126 1.392 . S
C127 C128 1.361 . S
C127 C129 1.500 . S
C128 C123 1.390 . S
C128 C127 1.361 . S
C128 H146 0.931 . S
C129 C127 1.500 . S
C129 C130 1.371 . S
C129 C131 1.365 . S
C130 C129 1.371 . S
C130 C140 1.386 . S
C130 H148 0.931 . S
C131 C129 1.365 . S
C131 C132 1.409 . S
C131 H149 0.929 . S
C132 C131 1.409 . S
C132 C133 1.380 . S
C132 H150 0.930 . S
C133 C132 1.380 . S
C133 C140 1.357 . S
C134 C125 1.511 . S
C134 C135 1.341 . S
C134 C136 1.371 . S
C135 C134 1.341 . S
C135 C139 1.394 . S
C135 H151 0.930 . S
C136 C134 1.371 . S
C136 C137 1.392 . S
C136 H152 0.931 . S
C137 C136 1.392 . S
C137 C138 1.331 . S
C137 H155 0.932 . S
C138 C137 1.331 . S
C138 C139 1.336 . S
C139 C135 1.394 . S
C139 C138 1.336 . S
C139 H154 0.929 . S
C140 C130 1.386 . S
C140 C133 1.357 . S
C140 H153 0.928 . S
H141 C117 0.931 . S
H142 C119 0.930 . S
H143 C121 0.929 . S
H144 C122 0.931 . S
H145 C124 0.930 . S
H146 C128 0.931 . S
H147 C126 0.931 . S
H148 C130 0.931 . S
H149 C131 0.929 . S
H150 C132 0.930 . S
H151 C135 0.930 . S
H152 C136 0.931 . S
H153 C140 0.928 . S
H154 C139 0.929 . S
H155 C137 0.932 . S
C156 C157 1.386 . S
C156 C158 1.397 . S
C156 H180 0.931 . S
C157 C156 1.386 . S
C157 C161 1.397 . S
C158 C156 1.397 . S
C158 C159 1.384 . S
C158 H181 0.930 . S
C159 C158 1.384 . S
C159 C160 1.377 . S
C159 C162 1.481 . S
C160 C159 1.377 . S
C160 C161 1.389 . S
C160 H182 0.929 . S
C161 C157 1.397 . S
C161 C160 1.389 . S
C161 H183 0.931 . S
C162 C159 1.481 . S
C162 C163 1.387 . S
C162 C167 1.390 1_556 S
C163 C162 1.387 . S
C163 C164 1.401 1_556 S
C163 H184 0.930 . S
C164 C163 1.401 1_554 S
C164 C165 1.376 . S
C164 C173 1.511 1_554 S
C165 C164 1.376 . S
C165 C166 1.392 . S
C165 H186 0.931 . S
C166 C165 1.392 . S
C166 C167 1.361 . S
C166 C168 1.500 . S
C167 C162 1.390 1_554 S
C167 C166 1.361 . S
C167 H185 0.931 . S
C168 C166 1.500 . S
C168 C169 1.371 . S
C168 C170 1.365 . S
C169 C168 1.371 . S
C169 C179 1.386 . S
C169 H187 0.931 . S
C170 C168 1.365 . S
C170 C171 1.409 . S
C170 H188 0.929 . S
C171 C170 1.409 . S
C171 C172 1.380 . S
C171 H189 0.930 . S
C172 C171 1.380 . S
C172 C179 1.357 . S
C173 C164 1.511 1_556 S
C173 C174 1.341 . S
C173 C175 1.386 . S
C174 C173 1.341 . S
C174 C178 1.394 . S
C174 H190 0.930 . S
C175 C173 1.386 . S
C175 C176 1.411 . S
C175 H191 0.898 1_556 S
C176 C175 1.411 . S
C176 C177 1.331 . S
C176 H194 0.932 . S
C177 C176 1.331 . S
C177 C178 1.336 . S
C178 C174 1.394 . S
C178 C177 1.336 . S
C178 H193 0.929 . S
C179 C169 1.386 . S
C179 C172 1.357 . S
C179 H192 0.928 . S
H180 C156 0.931 . S
H181 C158 0.930 . S
H182 C160 0.929 . S
H183 C161 0.931 . S
H184 C163 0.930 . S
H185 C167 0.931 . S
H186 C165 0.931 . S
H187 C169 0.931 . S
H188 C170 0.929 . S
H189 C171 0.930 . S
H190 C174 0.930 . S
H191 C175 0.898 1_554 S
H192 C179 0.928 . S
H193 C178 0.929 . S
H194 C176 0.932 . S
C195 C196 1.386 . S
C195 C197 1.397 . S
C195 H219 0.931 . S
C196 C195 1.386 . S
C196 C200 1.397 . S
C197 C195 1.397 . S
C197 C198 1.384 . S
C197 H220 0.930 . S
C198 C197 1.384 . S
C198 C199 1.377 . S
C198 C201 1.481 . S
C199 C198 1.377 . S
C199 C200 1.389 . S
C199 H221 0.929 . S
C200 C196 1.397 . S
C200 C199 1.389 . S
C200 H222 0.931 . S
C201 C198 1.481 . S
C201 C202 1.387 . S
C201 C206 1.390 . S
C202 C201 1.387 . S
C202 C203 1.401 . S
C202 H223 0.930 . S
C203 C202 1.401 . S
C203 C204 1.376 . S
C203 C212 1.511 . S
C204 C203 1.376 . S
C204 C205 1.392 . S
C204 H225 0.931 . S
C205 C204 1.392 . S
C205 C206 1.361 . S
C205 C207 1.500 . S
C206 C201 1.390 . S
C206 C205 1.361 . S
C206 H224 0.931 . S
C207 C205 1.500 . S
C207 C208 1.371 . S
C207 C209 1.365 . S
C208 C207 1.371 . S
C208 C218 1.386 . S
C208 H226 0.931 . S
C209 C207 1.365 . S
C209 C210 1.409 . S
C209 H227 0.929 . S
C210 C209 1.409 . S
C210 C211 1.380 . S
C210 H228 0.930 . S
C211 C210 1.380 . S
C211 C218 1.357 . S
C212 C203 1.511 . S
C212 C213 1.341 . S
C212 C214 1.371 . S
C213 C212 1.341 . S
C213 C217 1.394 . S
C213 H229 0.930 . S
C214 C212 1.371 . S
C214 C215 1.392 . S
C214 H230 0.931 . S
C215 C214 1.392 . S
C215 C216 1.331 . S
C215 H233 0.932 . S
C216 C215 1.331 . S
C216 C217 1.336 . S
C217 C213 1.394 . S
C217 C216 1.336 . S
C217 H232 0.929 . S
C218 C208 1.386 . S
C218 C211 1.357 . S
C218 H231 0.928 . S
H219 C195 0.931 . S
H220 C197 0.930 . S
H221 C199 0.929 . S
H222 C200 0.931 . S
H223 C202 0.930 . S
H224 C206 0.931 . S
H225 C204 0.931 . S
H226 C208 0.931 . S
H227 C209 0.929 . S
H228 C210 0.930 . S
H229 C213 0.930 . S
H230 C214 0.931 . S
H231 C218 0.928 . S
H232 C217 0.929 . S
H233 C215 0.932 . S
C234 C235 1.386 . S
C234 C236 1.397 . S
C234 H258 0.931 . S
C235 C234 1.386 . S
C235 C239 1.397 . S
C236 C234 1.397 . S
C236 C237 1.384 . S
C236 H259 0.930 . S
C237 C236 1.384 . S
C237 C238 1.377 . S
C237 C240 1.481 . S
C238 C237 1.377 . S
C238 C239 1.389 . S
C238 H260 0.929 1_556 S
C239 C235 1.397 . S
C239 C238 1.389 . S
C239 H261 0.931 . S
C240 C237 1.481 . S
C240 C241 1.387 . S
C240 C245 1.390 1_556 S
C241 C240 1.387 . S
C241 C242 1.422 . S
C241 H262 0.930 . S
C242 C241 1.422 . S
C242 C243 1.341 1_556 S
C242 C251 1.527 . S
C243 C242 1.341 1_554 S
C243 C244 1.392 . S
C243 H264 0.931 . S
C244 C243 1.392 . S
C244 C245 1.361 . S
C244 C246 1.500 . S
C245 C240 1.390 1_554 S
C245 C244 1.361 . S
C245 H263 0.931 . S
C246 C244 1.500 . S
C246 C247 1.371 . S
C246 C248 1.365 . S
C247 C246 1.371 . S
C247 C257 1.386 . S
C247 H265 0.931 . S
C248 C246 1.365 . S
C248 C249 1.409 . S
C248 H266 0.929 . S
C249 C248 1.409 . S
C249 C250 1.380 . S
C249 H267 0.930 . S
C250 C249 1.380 . S
C250 C257 1.357 . S
C251 C242 1.527 . S
C251 C252 1.341 . S
C251 C253 1.371 1_556 S
C252 C251 1.341 . S
C252 C256 1.394 . S
C252 H268 0.930 . S
C253 C251 1.371 1_554 S
C253 C254 1.392 1_554 S
C253 H269 0.931 . S
C254 C253 1.392 1_556 S
C254 C255 1.331 . S
C254 H272 0.932 1_556 S
C255 C254 1.331 . S
C255 C256 1.336 . S
C256 C252 1.394 . S
C256 C255 1.336 . S
C256 H271 0.929 . S
C257 C247 1.386 . S
C257 C250 1.357 . S
C257 H270 0.928 . S
H258 C234 0.931 . S
H259 C236 0.930 . S
H260 C238 0.929 1_554 S
H261 C239 0.931 . S
H262 C241 0.930 . S
H263 C245 0.931 . S
H264 C243 0.931 . S
H265 C247 0.931 . S
H266 C248 0.929 . S
H267 C249 0.930 . S
H268 C252 0.930 . S
H269 C253 0.931 . S
H270 C257 0.928 . S
H271 C256 0.929 . S
H272 C254 0.932 1_554 S
C273 C274 1.386 . S
C273 C275 1.397 . S
C273 H297 0.931 . S
C274 C273 1.386 . S
C274 C278 1.397 . S
C275 C273 1.397 . S
C275 C276 1.384 . S
C275 H298 0.930 . S
C276 C275 1.384 . S
C276 C277 1.377 . S
C276 C279 1.481 . S
C277 C276 1.377 . S
C277 C278 1.389 . S
C277 H299 0.929 . S
C278 C274 1.397 . S
C278 C277 1.389 . S
C278 H300 0.931 . S
C279 C276 1.481 . S
C279 C280 1.387 . S
C279 C284 1.390 . S
C280 C279 1.387 . S
C280 C281 1.401 . S
C280 H301 0.930 . S
C281 C280 1.401 . S
C281 C282 1.376 . S
C281 C290 1.511 . S
C282 C281 1.376 . S
C282 C283 1.392 . S
C282 H303 0.931 . S
C283 C282 1.392 . S
C283 C284 1.361 . S
C283 C285 1.500 . S
C284 C279 1.390 . S
C284 C283 1.361 . S
C284 H302 0.931 . S
C285 C283 1.500 . S
C285 C286 1.371 . S
C285 C287 1.365 . S
C286 C285 1.371 . S
C286 C296 1.386 . S
C286 H304 0.931 . S
C287 C285 1.365 . S
C287 C288 1.409 . S
C287 H305 0.929 . S
C288 C287 1.409 . S
C288 C289 1.380 . S
C288 H306 0.930 . S
C289 C288 1.380 . S
C289 C296 1.357 . S
C290 C281 1.511 . S
C290 C291 1.341 . S
C290 C292 1.371 . S
C291 C290 1.341 . S
C291 C295 1.394 . S
C291 H307 0.930 . S
C292 C290 1.371 . S
C292 C293 1.392 . S
C292 H308 0.931 . S
C293 C292 1.392 . S
C293 C294 1.331 . S
C293 H311 0.932 . S
C294 C293 1.331 . S
C294 C295 1.336 . S
C295 C291 1.394 . S
C295 C294 1.336 . S
C295 H310 0.929 . S
C296 C286 1.386 . S
C296 C289 1.357 . S
C296 H309 0.928 . S
H297 C273 0.931 . S
H298 C275 0.930 . S
H299 C277 0.929 . S
H300 C278 0.931 . S
H301 C280 0.930 . S
H302 C284 0.931 . S
H303 C282 0.931 . S
H304 C286 0.931 . S
H305 C287 0.929 . S
H306 C288 0.930 . S
H307 C291 0.930 . S
H308 C292 0.931 . S
H309 C296 0.928 . S
H310 C295 0.929 . S
H311 C293 0.932 . S
Fe312 O314 1.918 . S
Fe312 O317 1.997 1_455 S
Fe312 O318 2.002 1_455 S
Fe312 O323 1.976 . S
Fe312 O326 1.996 . S
Fe313 O314 1.918 . S
Fe313 O321 1.997 1_455 S
Fe313 O324 1.996 . S
Fe313 O328 1.976 . S
Fe313 O331 2.002 1_455 S
O314 Fe312 1.918 . S
O314 Fe313 1.918 . S
O314 Fe315 1.918 . S
Fe315 O314 1.918 . S
Fe315 O316 2.002 1_455 S
Fe315 O325 1.976 . S
Fe315 O329 1.996 . S
Fe315 O332 1.997 1_455 S
O316 Fe315 2.002 1_655 S
O316 C333 1.295 . S
O317 Fe312 1.997 1_655 S
O317 C333 1.235 . S
O318 Fe312 2.002 1_655 S
O318 C319 1.295 . S
C319 O318 1.295 . S
C319 O321 1.235 . S
C320 O325 1.287 . S
C320 O326 1.255 . S
O321 Fe313 1.997 1_655 S
O321 C319 1.235 . S
C322 O328 1.287 . S
C322 O329 1.255 . S
O323 Fe312 1.976 . S
O323 C330 1.287 . S
O324 Fe313 1.996 . S
O324 C330 1.255 . S
O325 Fe315 1.976 . S
O325 C320 1.287 . S
O326 Fe312 1.996 . S
O326 C320 1.255 . S
C327 O331 1.295 . S
C327 O332 1.235 . S
O328 Fe313 1.976 . S
O328 C322 1.287 . S
O329 Fe315 1.996 . S
O329 C322 1.255 . S
C330 O323 1.287 . S
C330 O324 1.255 . S
O331 Fe313 2.002 1_655 S
O331 C327 1.295 . S
O332 Fe315 1.997 1_655 S
O332 C327 1.235 . S
C333 O316 1.295 . S
C333 O317 1.235 . S
Fe334 O336 1.918 1_455 S
Fe334 O339 1.997 . S
Fe334 O340 2.003 . S
Fe334 O345 1.976 1_455 S
Fe334 O348 1.995 1_455 S
Fe335 O336 1.918 1_455 S
Fe335 O343 1.996 . S
Fe335 O346 1.996 1_455 S
Fe335 O350 1.976 1_455 S
Fe335 O353 2.002 . S
O336 Fe334 1.918 1_655 S
O336 Fe335 1.918 1_655 S
O336 Fe337 1.918 1_655 S
Fe337 O336 1.918 1_455 S
Fe337 O338 2.003 . S
Fe337 O347 1.975 1_455 S
Fe337 O351 1.995 1_455 S
Fe337 O354 1.997 . S
O338 Fe337 2.003 . S
O338 C355 1.295 . S
O339 Fe334 1.997 . S
O339 C355 1.235 . S
O340 Fe334 2.003 . S
O340 C341 1.295 . S
C341 O340 1.295 . S
C341 O343 1.235 . S
C342 O347 1.287 . S
C342 O348 1.255 . S
O343 Fe335 1.996 . S
O343 C341 1.235 . S
C344 O350 1.287 . S
C344 O351 1.255 . S
O345 Fe334 1.976 1_655 S
O345 C352 1.287 . S
O346 Fe335 1.996 1_655 S
O346 C352 1.255 . S
O347 Fe337 1.975 1_655 S
O347 C342 1.287 . S
O348 Fe334 1.995 1_655 S
O348 C342 1.255 . S
C349 O353 1.295 . S
C349 O354 1.235 . S
O350 Fe335 1.976 1_655 S
O350 C344 1.287 . S
O351 Fe337 1.995 1_655 S
O351 C344 1.255 . S
C352 O345 1.287 . S
C352 O346 1.255 . S
O353 Fe335 2.002 . S
O353 C349 1.295 . S
O354 Fe337 1.997 . S
O354 C349 1.235 . S
C355 O338 1.295 . S
C355 O339 1.235 . S
Fe356 O358 1.918 . S
Fe356 O361 1.997 . S
Fe356 O362 2.002 . S
Fe356 O367 1.976 . S
Fe356 O370 1.996 . S
Fe357 O358 1.918 . S
Fe357 O365 1.997 . S
Fe357 O368 1.996 . S
Fe357 O372 1.976 . S
Fe357 O375 2.002 . S
O358 Fe356 1.918 . S
O358 Fe357 1.918 . S
O358 Fe359 1.918 . S
Fe359 O358 1.918 . S
Fe359 O360 2.002 . S
Fe359 O369 1.976 . S
Fe359 O373 1.996 . S
Fe359 O376 1.997 . S
O360 Fe359 2.002 . S
O360 C377 1.295 . S
O361 Fe356 1.997 . S
O361 C377 1.235 . S
O362 Fe356 2.002 . S
O362 C363 1.295 . S
C363 O362 1.295 . S
C363 O365 1.235 . S
C364 O369 1.287 . S
C364 O370 1.255 . S
O365 Fe357 1.997 . S
O365 C363 1.235 . S
C366 O372 1.287 . S
C366 O373 1.255 . S
O367 Fe356 1.976 . S
O367 C374 1.287 . S
O368 Fe357 1.996 . S
O368 C374 1.255 . S
O369 Fe359 1.976 . S
O369 C364 1.287 . S
O370 Fe356 1.996 . S
O370 C364 1.255 . S
C371 O375 1.295 . S
C371 O376 1.235 . S
O372 Fe357 1.976 . S
O372 C366 1.287 . S
O373 Fe359 1.996 . S
O373 C366 1.255 . S
C374 O367 1.287 . S
C374 O368 1.255 . S
O375 Fe357 2.002 . S
O375 C371 1.295 . S
O376 Fe359 1.997 . S
O376 C371 1.235 . S
C377 O360 1.295 . S
C377 O361 1.235 . S
Fe378 O380 1.918 . S
Fe378 O383 1.997 . S
Fe378 O384 2.002 . S
Fe378 O389 1.976 . S
Fe378 O392 1.996 . S
Fe379 O380 1.918 . S
Fe379 O387 1.997 . S
Fe379 O390 1.996 . S
Fe379 O394 1.976 . S
Fe379 O397 2.002 . S
O380 Fe378 1.918 . S
O380 Fe379 1.918 . S
O380 Fe381 1.918 . S
Fe381 O380 1.918 . S
Fe381 O382 2.002 . S
Fe381 O391 1.976 . S
Fe381 O395 1.996 . S
Fe381 O398 1.997 . S
O382 Fe381 2.002 . S
O382 C399 1.295 . S
O383 Fe378 1.997 . S
O383 C399 1.235 . S
O384 Fe378 2.002 . S
O384 C385 1.295 . S
C385 O384 1.295 . S
C385 O387 1.235 . S
C386 O391 1.287 . S
C386 O392 1.255 . S
O387 Fe379 1.997 . S
O387 C385 1.235 . S
C388 O394 1.287 . S
C388 O395 1.255 . S
O389 Fe378 1.976 . S
O389 C396 1.287 . S
O390 Fe379 1.996 . S
O390 C396 1.255 . S
O391 Fe381 1.976 . S
O391 C386 1.287 . S
O392 Fe378 1.996 . S
O392 C386 1.255 . S
C393 O397 1.295 . S
C393 O398 1.235 . S
O394 Fe379 1.976 . S
O394 C388 1.287 . S
O395 Fe381 1.996 . S
O395 C388 1.255 . S
C396 O389 1.287 . S
C396 O390 1.255 . S
O397 Fe379 2.002 . S
O397 C393 1.295 . S
O398 Fe381 1.997 . S
O398 C393 1.235 . S
C399 O382 1.295 . S
C399 O383 1.235 . S
H400 C408 0.929 . S
H401 C410 0.930 . S
H402 C412 0.930 . S
H403 C415 0.929 . S
H404 C418 0.930 . S
H405 C420 0.960 . S
H406 C420 0.960 . S
H407 C420 0.960 . S
C408 H400 0.929 . S
C408 C409 1.377 . S
C408 C410 1.384 . S
C409 C408 1.377 . S
C409 C415 1.390 . S
C410 H401 0.930 . S
C410 C408 1.384 . S
C410 C411 1.372 . S
C411 C410 1.372 . S
C411 C412 1.400 . S
C411 C416 1.490 . S
C412 H402 0.930 . S
C412 C411 1.400 . S
C412 C415 1.386 . S
H413 C429 0.930 . S
H414 C430 0.931 . S
C415 H403 0.929 . S
C415 C409 1.390 . S
C415 C412 1.386 . S
C416 C411 1.490 . S
C416 C418 1.395 . S
C416 C419 1.403 . S
H417 C423 0.930 . S
C418 H404 0.930 . S
C418 C416 1.395 . S
C418 C421 1.403 . S
C419 C416 1.403 . S
C419 C420 1.524 . S
C419 C423 1.400 . S
C420 H405 0.960 . S
C420 H406 0.960 . S
C420 H407 0.960 . S
C420 C419 1.524 . S
C421 C418 1.403 . S
C421 C422 1.392 . S
C421 C425 1.495 . S
C422 C421 1.392 . S
C422 C423 1.385 . S
C422 C424 1.478 . S
C423 H417 0.930 . S
C423 C419 1.400 . S
C423 C422 1.385 . S
C424 C422 1.478 . S
C424 C426 1.381 . S
C424 C430 1.383 . S
C425 C421 1.495 . S
C425 H431 0.959 . S
C425 H432 0.961 . S
C425 H433 0.960 . S
C426 C424 1.381 . S
C426 C427 1.394 . S
C426 H434 0.930 . S
C427 C426 1.394 . S
C427 C428 1.383 . S
C427 H435 0.929 . S
C428 C427 1.383 . S
C428 C429 1.377 . S
C429 H413 0.930 . S
C429 C428 1.377 . S
C429 C430 1.379 . S
C430 H414 0.931 . S
C430 C424 1.383 . S
C430 C429 1.379 . S
H431 C425 0.959 . S
H432 C425 0.961 . S
H433 C425 0.960 . S
H434 C426 0.930 . S
H435 C427 0.929 . S
H436 C444 0.929 . S
H437 C446 0.930 . S
H438 C448 0.930 . S
H439 C451 0.929 . S
H440 C454 0.930 . S
H441 C456 0.960 . S
H442 C456 0.960 . S
H443 C456 0.960 . S
C444 H436 0.929 . S
C444 C445 1.377 . S
C444 C446 1.384 . S
C445 C444 1.377 . S
C445 C451 1.390 . S
C446 H437 0.930 . S
C446 C444 1.384 . S
C446 C447 1.372 . S
C447 C446 1.372 . S
C447 C448 1.400 . S
C447 C452 1.490 . S
C448 H438 0.930 . S
C448 C447 1.400 . S
C448 C451 1.386 . S
H449 C465 0.930 . S
H450 C466 0.931 . S
C451 H439 0.929 . S
C451 C445 1.390 . S
C451 C448 1.386 . S
C452 C447 1.490 . S
C452 C454 1.395 . S
C452 C455 1.403 . S
H453 C459 0.930 . S
C454 H440 0.930 . S
C454 C452 1.395 . S
C454 C457 1.403 . S
C455 C452 1.403 . S
C455 C456 1.524 . S
C455 C459 1.400 . S
C456 H441 0.960 . S
C456 H442 0.960 . S
C456 H443 0.960 . S
C456 C455 1.524 . S
C457 C454 1.403 . S
C457 C458 1.392 . S
C457 C461 1.495 . S
C458 C457 1.392 . S
C458 C459 1.385 . S
C458 C460 1.478 . S
C459 H453 0.930 . S
C459 C455 1.400 . S
C459 C458 1.385 . S
C460 C458 1.478 . S
C460 C462 1.381 . S
C460 C466 1.383 . S
C461 C457 1.495 . S
C461 H467 0.959 . S
C461 H468 0.961 . S
C461 H469 0.960 . S
C462 C460 1.381 . S
C462 C463 1.394 . S
C462 H470 0.930 . S
C463 C462 1.394 . S
C463 C464 1.383 . S
C463 H471 0.929 . S
C464 C463 1.383 . S
C464 C465 1.377 . S
C465 H449 0.930 . S
C465 C464 1.377 . S
C465 C466 1.379 . S
C466 H450 0.931 . S
C466 C460 1.383 . S
C466 C465 1.379 . S
H467 C461 0.959 . S
H468 C461 0.961 . S
H469 C461 0.960 . S
H470 C462 0.930 . S
H471 C463 0.929 . S
H472 C480 0.929 . S
H473 C482 0.930 . S
H474 C484 0.930 . S
H475 C487 0.929 . S
H476 C490 0.930 . S
H477 C492 0.960 . S
H478 C492 0.960 . S
H479 C492 0.960 . S
C480 H472 0.929 . S
C480 C481 1.377 . S
C480 C482 1.384 . S
C481 C480 1.377 . S
C481 C487 1.390 . S
C482 H473 0.930 . S
C482 C480 1.384 . S
C482 C483 1.372 . S
C483 C482 1.372 . S
C483 C484 1.400 . S
C483 C488 1.490 . S
C484 H474 0.930 . S
C484 C483 1.400 . S
C484 C487 1.386 . S
H485 C501 0.930 . S
H486 C502 0.931 . S
C487 H475 0.929 . S
C487 C481 1.390 . S
C487 C484 1.386 . S
C488 C483 1.490 . S
C488 C490 1.395 . S
C488 C491 1.403 . S
H489 C495 0.930 . S
C490 H476 0.930 . S
C490 C488 1.395 . S
C490 C493 1.403 . S
C491 C488 1.403 . S
C491 C492 1.524 . S
C491 C495 1.400 . S
C492 H477 0.960 . S
C492 H478 0.960 . S
C492 H479 0.960 . S
C492 C491 1.524 . S
C493 C490 1.403 . S
C493 C494 1.392 . S
C493 C497 1.495 . S
C494 C493 1.392 . S
C494 C495 1.385 . S
C494 C496 1.478 . S
C495 H489 0.930 . S
C495 C491 1.400 . S
C495 C494 1.385 . S
C496 C494 1.478 . S
C496 C498 1.381 . S
C496 C502 1.383 . S
C497 C493 1.495 . S
C497 H503 0.959 . S
C497 H504 0.961 . S
C497 H505 0.960 . S
C498 C496 1.381 . S
C498 C499 1.394 . S
C498 H506 0.930 . S
C499 C498 1.394 . S
C499 C500 1.383 . S
C499 H507 0.929 . S
C500 C499 1.383 . S
C500 C501 1.377 . S
C501 H485 0.930 . S
C501 C500 1.377 . S
C501 C502 1.379 . S
C502 H486 0.931 . S
C502 C496 1.383 . S
C502 C501 1.379 . S
H503 C497 0.959 . S
H504 C497 0.961 . S
H505 C497 0.960 . S
H506 C498 0.930 . S
H507 C499 0.929 . S
H508 C516 0.929 . S
H509 C518 0.930 . S
H510 C520 0.930 . S
H511 C523 0.929 . S
H512 C526 0.930 . S
H513 C528 0.960 . S
H514 C528 0.960 . S
H515 C528 0.960 . S
C516 H508 0.929 . S
C516 C517 1.377 . S
C516 C518 1.384 . S
C517 C516 1.377 . S
C517 C523 1.390 . S
C518 H509 0.930 . S
C518 C516 1.384 . S
C518 C519 1.372 . S
C519 C518 1.372 . S
C519 C520 1.400 . S
C519 C524 1.490 . S
C520 H510 0.930 . S
C520 C519 1.400 . S
C520 C523 1.386 . S
H521 C537 0.930 . S
H522 C538 0.931 . S
C523 H511 0.929 . S
C523 C517 1.390 . S
C523 C520 1.386 . S
C524 C519 1.490 . S
C524 C526 1.395 . S
C524 C527 1.403 . S
H525 C531 0.930 . S
C526 H512 0.930 . S
C526 C524 1.395 . S
C526 C529 1.403 . S
C527 C524 1.403 . S
C527 C528 1.524 . S
C527 C531 1.400 . S
C528 H513 0.960 . S
C528 H514 0.960 . S
C528 H515 0.960 . S
C528 C527 1.524 . S
C529 C526 1.403 . S
C529 C530 1.392 . S
C529 C533 1.495 . S
C530 C529 1.392 . S
C530 C531 1.385 . S
C530 C532 1.478 . S
C531 H525 0.930 . S
C531 C527 1.400 . S
C531 C530 1.385 . S
C532 C530 1.478 . S
C532 C534 1.381 . S
C532 C538 1.383 . S
C533 C529 1.495 . S
C533 H539 0.959 . S
C533 H540 0.961 . S
C533 H541 0.960 . S
C534 C532 1.381 . S
C534 C535 1.394 . S
C534 H542 0.930 . S
C535 C534 1.394 . S
C535 C536 1.383 . S
C535 H543 0.929 . S
C536 C535 1.383 . S
C536 C537 1.377 . S
C537 H521 0.930 . S
C537 C536 1.377 . S
C537 C538 1.379 . S
C538 H522 0.931 . S
C538 C532 1.383 . S
C538 C537 1.379 . S
H539 C533 0.959 . S
H540 C533 0.961 . S
H541 C533 0.960 . S
H542 C534 0.930 . S
H543 C535 0.929 . S
H544 C552 0.929 . S
H545 C554 0.930 . S
H546 C556 0.930 . S
H547 C559 0.929 . S
H548 C562 0.930 . S
H549 C564 0.960 . S
H550 C564 0.960 . S
H551 C564 0.960 . S
C552 H544 0.929 . S
C552 C553 1.377 . S
C552 C554 1.384 . S
C553 C552 1.377 . S
C553 C559 1.390 . S
C554 H545 0.930 . S
C554 C552 1.384 . S
C554 C555 1.372 . S
C555 C554 1.372 . S
C555 C556 1.400 . S
C555 C560 1.490 . S
C556 H546 0.930 . S
C556 C555 1.400 . S
C556 C559 1.386 . S
H557 C573 0.930 . S
H558 C574 0.931 . S
C559 H547 0.929 . S
C559 C553 1.390 . S
C559 C556 1.386 . S
C560 C555 1.490 . S
C560 C562 1.395 . S
C560 C563 1.403 . S
H561 C567 0.930 . S
C562 H548 0.930 . S
C562 C560 1.395 . S
C562 C565 1.403 . S
C563 C560 1.403 . S
C563 C564 1.524 . S
C563 C567 1.400 . S
C564 H549 0.960 . S
C564 H550 0.960 . S
C564 H551 0.960 . S
C564 C563 1.524 . S
C565 C562 1.403 . S
C565 C566 1.392 . S
C565 C569 1.495 . S
C566 C565 1.392 . S
C566 C567 1.385 . S
C566 C568 1.478 . S
C567 H561 0.930 . S
C567 C563 1.400 . S
C567 C566 1.385 . S
C568 C566 1.478 . S
C568 C570 1.381 . S
C568 C574 1.383 . S
C569 C565 1.495 . S
C569 H575 0.959 . S
C569 H576 0.961 . S
C569 H577 0.960 . S
C570 C568 1.381 . S
C570 C571 1.394 . S
C570 H578 0.930 . S
C571 C570 1.394 . S
C571 C572 1.383 . S
C571 H579 0.929 . S
C572 C571 1.383 . S
C572 C573 1.377 . S
C573 H557 0.930 . S
C573 C572 1.377 . S
C573 C574 1.379 . S
C574 H558 0.931 . S
C574 C568 1.383 . S
C574 C573 1.379 . S
H575 C569 0.959 . S
H576 C569 0.961 . S
H577 C569 0.960 . S
H578 C570 0.930 . S
H579 C571 0.929 . S
H580 C588 0.929 . S
H581 C590 0.930 . S
H582 C592 0.930 . S
H583 C595 0.929 . S
H584 C598 0.930 . S
H585 C600 0.960 . S
H586 C600 0.960 . S
H587 C600 0.960 . S
C588 H580 0.929 . S
C588 C589 1.377 . S
C588 C590 1.384 . S
C589 C588 1.377 . S
C589 C595 1.390 . S
C590 H581 0.930 . S
C590 C588 1.384 . S
C590 C591 1.372 . S
C591 C590 1.372 . S
C591 C592 1.400 . S
C591 C596 1.490 . S
C592 H582 0.930 . S
C592 C591 1.400 . S
C592 C595 1.386 . S
H593 C609 0.930 . S
H594 C610 0.931 . S
C595 H583 0.929 . S
C595 C589 1.390 . S
C595 C592 1.386 . S
C596 C591 1.490 . S
C596 C598 1.395 . S
C596 C599 1.403 . S
H597 C603 0.930 . S
C598 H584 0.930 . S
C598 C596 1.395 . S
C598 C601 1.403 . S
C599 C596 1.403 . S
C599 C600 1.524 . S
C599 C603 1.400 . S
C600 H585 0.960 . S
C600 H586 0.960 . S
C600 H587 0.960 . S
C600 C599 1.524 . S
C601 C598 1.403 . S
C601 C602 1.392 . S
C601 C605 1.495 . S
C602 C601 1.392 . S
C602 C603 1.385 . S
C602 C604 1.478 . S
C603 H597 0.930 . S
C603 C599 1.400 . S
C603 C602 1.385 . S
C604 C602 1.478 . S
C604 C606 1.381 . S
C604 C610 1.383 . S
C605 C601 1.495 . S
C605 H611 0.959 . S
C605 H612 0.961 . S
C605 H613 0.960 . S
C606 C604 1.381 . S
C606 C607 1.394 . S
C606 H614 0.930 . S
C607 C606 1.394 . S
C607 C608 1.383 . S
C607 H615 0.929 . S
C608 C607 1.383 . S
C608 C609 1.377 . S
C609 H593 0.930 . S
C609 C608 1.377 . S
C609 C610 1.379 . S
C610 H594 0.931 . S
C610 C604 1.383 . S
C610 C609 1.379 . S
H611 C605 0.959 . S
H612 C605 0.961 . S
H613 C605 0.960 . S
H614 C606 0.930 . S
H615 C607 0.929 . S
H616 C624 0.929 . S
H617 C626 0.930 . S
H618 C628 0.930 . S
H619 C631 0.929 . S
H620 C634 0.930 . S
H621 C636 0.960 . S
H622 C636 0.960 . S
H623 C636 0.960 . S
C624 H616 0.929 . S
C624 C625 1.377 . S
C624 C626 1.384 . S
C625 C624 1.377 . S
C625 C631 1.390 . S
C626 H617 0.930 . S
C626 C624 1.384 . S
C626 C627 1.372 . S
C627 C626 1.372 . S
C627 C628 1.400 . S
C627 C632 1.490 . S
C628 H618 0.930 . S
C628 C627 1.400 . S
C628 C631 1.386 . S
H629 C645 0.930 . S
H630 C646 0.931 . S
C631 H619 0.929 . S
C631 C625 1.390 . S
C631 C628 1.386 . S
C632 C627 1.490 . S
C632 C634 1.395 . S
C632 C635 1.403 . S
H633 C639 0.930 . S
C634 H620 0.930 . S
C634 C632 1.395 . S
C634 C637 1.403 . S
C635 C632 1.403 . S
C635 C636 1.524 . S
C635 C639 1.400 . S
C636 H621 0.960 . S
C636 H622 0.960 . S
C636 H623 0.960 . S
C636 C635 1.524 . S
C637 C634 1.403 . S
C637 C638 1.392 . S
C637 C641 1.495 . S
C638 C637 1.392 . S
C638 C639 1.385 . S
C638 C640 1.478 . S
C639 H633 0.930 . S
C639 C635 1.400 . S
C639 C638 1.385 . S
C640 C638 1.478 . S
C640 C642 1.381 . S
C640 C646 1.383 . S
C641 C637 1.495 . S
C641 H647 0.959 . S
C641 H648 0.961 . S
C641 H649 0.960 . S
C642 C640 1.381 . S
C642 C643 1.394 . S
C642 H650 0.930 . S
C643 C642 1.394 . S
C643 C644 1.383 . S
C643 H651 0.929 . S
C644 C643 1.383 . S
C644 C645 1.377 . S
C645 H629 0.930 . S
C645 C644 1.377 . S
C645 C646 1.379 . S
C646 H630 0.931 . S
C646 C640 1.383 . S
C646 C645 1.379 . S
H647 C641 0.959 . S
H648 C641 0.961 . S
H649 C641 0.960 . S
H650 C642 0.930 . S
H651 C643 0.929 . S
H652 C660 0.929 . S
H653 C662 0.930 . S
H654 C664 0.930 . S
H655 C667 0.929 . S
H656 C670 0.930 . S
H657 C672 0.960 . S
H658 C672 0.960 . S
H659 C672 0.960 . S
C660 H652 0.929 . S
C660 C661 1.377 . S
C660 C662 1.384 . S
C661 C660 1.377 . S
C661 C667 1.390 . S
C662 H653 0.930 . S
C662 C660 1.384 . S
C662 C663 1.372 . S
C663 C662 1.372 . S
C663 C664 1.400 . S
C663 C668 1.490 . S
C664 H654 0.930 . S
C664 C663 1.400 . S
C664 C667 1.386 . S
H665 C681 0.930 . S
H666 C682 0.931 . S
C667 H655 0.929 . S
C667 C661 1.390 . S
C667 C664 1.386 . S
C668 C663 1.490 . S
C668 C670 1.395 . S
C668 C671 1.403 . S
H669 C675 0.930 . S
C670 H656 0.930 . S
C670 C668 1.395 . S
C670 C673 1.403 . S
C671 C668 1.403 . S
C671 C672 1.524 . S
C671 C675 1.400 . S
C672 H657 0.960 . S
C672 H658 0.960 . S
C672 H659 0.960 . S
C672 C671 1.524 . S
C673 C670 1.403 . S
C673 C674 1.392 . S
C673 C677 1.495 . S
C674 C673 1.392 . S
C674 C675 1.385 . S
C674 C676 1.478 . S
C675 H669 0.930 . S
C675 C671 1.400 . S
C675 C674 1.385 . S
C676 C674 1.478 . S
C676 C678 1.381 . S
C676 C682 1.383 . S
C677 C673 1.495 . S
C677 H683 0.959 . S
C677 H684 0.961 . S
C677 H685 0.960 . S
C678 C676 1.381 . S
C678 C679 1.394 . S
C678 H686 0.930 . S
C679 C678 1.394 . S
C679 C680 1.383 . S
C679 H687 0.929 . S
C680 C679 1.383 . S
C680 C681 1.377 . S
C681 H665 0.930 . S
C681 C680 1.377 . S
C681 C682 1.379 . S
C682 H666 0.931 . S
C682 C676 1.383 . S
C682 C681 1.379 . S
H683 C677 0.959 . S
H684 C677 0.961 . S
H685 C677 0.960 . S
H686 C678 0.930 . S
H687 C679 0.929 . S
H688 C696 0.929 . S
H689 C698 0.930 . S
H690 C700 0.930 . S
H691 C703 0.929 . S
H692 C706 0.930 . S
H693 C708 0.960 . S
H694 C708 0.960 . S
H695 C708 0.960 . S
C696 H688 0.929 . S
C696 C697 1.377 . S
C696 C698 1.384 . S
C697 C696 1.377 . S
C697 C703 1.390 . S
C698 H689 0.930 . S
C698 C696 1.384 . S
C698 C699 1.372 . S
C699 C698 1.372 . S
C699 C700 1.400 . S
C699 C704 1.490 . S
C700 H690 0.930 . S
C700 C699 1.400 . S
C700 C703 1.386 . S
H701 C717 0.930 . S
H702 C718 0.931 . S
C703 H691 0.929 . S
C703 C697 1.390 . S
C703 C700 1.386 . S
C704 C699 1.490 . S
C704 C706 1.395 . S
C704 C707 1.403 . S
H705 C711 0.930 . S
C706 H692 0.930 . S
C706 C704 1.395 . S
C706 C709 1.403 . S
C707 C704 1.403 . S
C707 C708 1.524 . S
C707 C711 1.400 . S
C708 H693 0.960 . S
C708 H694 0.960 . S
C708 H695 0.960 . S
C708 C707 1.524 . S
C709 C706 1.403 . S
C709 C710 1.392 . S
C709 C713 1.495 . S
C710 C709 1.392 . S
C710 C711 1.385 . S
C710 C712 1.478 . S
C711 H705 0.930 . S
C711 C707 1.400 . S
C711 C710 1.385 . S
C712 C710 1.478 . S
C712 C714 1.381 . S
C712 C718 1.383 . S
C713 C709 1.495 . S
C713 H719 0.959 . S
C713 H720 0.961 . S
C713 H721 0.960 . S
C714 C712 1.381 . S
C714 C715 1.394 . S
C714 H722 0.930 . S
C715 C714 1.394 . S
C715 C716 1.383 . S
C715 H723 0.929 . S
C716 C715 1.383 . S
C716 C717 1.377 . S
C717 H701 0.930 . S
C717 C716 1.377 . S
C717 C718 1.379 . S
C718 H702 0.931 . S
C718 C712 1.383 . S
C718 C717 1.379 . S
H719 C713 0.959 . S
H720 C713 0.961 . S
H721 C713 0.960 . S
H722 C714 0.930 . S
H723 C715 0.929 . S
H724 C732 0.929 . S
H725 C734 0.930 . S
H726 C736 0.930 . S
H727 C739 0.929 . S
H728 C742 0.930 . S
H729 C744 0.960 . S
H730 C744 0.960 . S
H731 C744 0.960 . S
C732 H724 0.929 . S
C732 C733 1.377 . S
C732 C734 1.384 . S
C733 C732 1.377 . S
C733 C739 1.390 . S
C734 H725 0.930 . S
C734 C732 1.384 . S
C734 C735 1.372 . S
C735 C734 1.372 . S
C735 C736 1.400 . S
C735 C740 1.490 . S
C736 H726 0.930 . S
C736 C735 1.400 . S
C736 C739 1.386 . S
H737 C753 0.930 . S
H738 C754 0.931 . S
C739 H727 0.929 . S
C739 C733 1.390 . S
C739 C736 1.386 . S
C740 C735 1.490 . S
C740 C742 1.395 . S
C740 C743 1.403 . S
H741 C747 0.930 . S
C742 H728 0.930 . S
C742 C740 1.395 . S
C742 C745 1.403 . S
C743 C740 1.403 . S
C743 C744 1.524 . S
C743 C747 1.400 . S
C744 H729 0.960 . S
C744 H730 0.960 . S
C744 H731 0.960 . S
C744 C743 1.524 . S
C745 C742 1.403 . S
C745 C746 1.392 . S
C745 C749 1.495 . S
C746 C745 1.392 . S
C746 C747 1.385 . S
C746 C748 1.478 . S
C747 H741 0.930 . S
C747 C743 1.400 . S
C747 C746 1.385 . S
C748 C746 1.478 . S
C748 C750 1.381 . S
C748 C754 1.383 . S
C749 C745 1.495 . S
C749 H755 0.959 . S
C749 H756 0.961 . S
C749 H757 0.960 . S
C750 C748 1.381 . S
C750 C751 1.394 . S
C750 H758 0.930 . S
C751 C750 1.394 . S
C751 C752 1.383 . S
C751 H759 0.929 . S
C752 C751 1.383 . S
C752 C753 1.377 . S
C753 H737 0.930 . S
C753 C752 1.377 . S
C753 C754 1.379 . S
C754 H738 0.931 . S
C754 C748 1.383 . S
C754 C753 1.379 . S
H755 C749 0.959 . S
H756 C749 0.961 . S
H757 C749 0.960 . S
H758 C750 0.930 . S
H759 C751 0.929 . S
H760 C768 0.929 . S
H761 C770 0.930 . S
H762 C772 0.930 . S
H763 C775 0.929 . S
H764 C778 0.930 . S
H765 C780 0.960 . S
H766 C780 0.960 . S
H767 C780 0.960 . S
C768 H760 0.929 . S
C768 C769 1.377 . S
C768 C770 1.384 . S
C769 C768 1.377 . S
C769 C775 1.390 . S
C770 H761 0.930 . S
C770 C768 1.384 . S
C770 C771 1.372 . S
C771 C770 1.372 . S
C771 C772 1.400 . S
C771 C776 1.490 . S
C772 H762 0.930 . S
C772 C771 1.400 . S
C772 C775 1.386 . S
H773 C789 0.930 . S
H774 C790 0.931 . S
C775 H763 0.929 . S
C775 C769 1.390 . S
C775 C772 1.386 . S
C776 C771 1.490 . S
C776 C778 1.395 . S
C776 C779 1.403 . S
H777 C783 0.930 . S
C778 H764 0.930 . S
C778 C776 1.395 . S
C778 C781 1.403 . S
C779 C776 1.403 . S
C779 C780 1.524 . S
C779 C783 1.400 . S
C780 H765 0.960 . S
C780 H766 0.960 . S
C780 H767 0.960 . S
C780 C779 1.524 . S
C781 C778 1.403 . S
C781 C782 1.392 . S
C781 C785 1.495 . S
C782 C781 1.392 . S
C782 C783 1.385 . S
C782 C784 1.478 . S
C783 H777 0.930 . S
C783 C779 1.400 . S
C783 C782 1.385 . S
C784 C782 1.478 . S
C784 C786 1.381 . S
C784 C790 1.383 . S
C785 C781 1.495 . S
C785 H791 0.959 . S
C785 H792 0.961 . S
C785 H793 0.960 . S
C786 C784 1.381 . S
C786 C787 1.394 . S
C786 H794 0.930 . S
C787 C786 1.394 . S
C787 C788 1.383 . S
C787 H795 0.929 . S
C788 C787 1.383 . S
C788 C789 1.377 . S
C789 H773 0.930 . S
C789 C788 1.377 . S
C789 C790 1.379 . S
C790 H774 0.931 . S
C790 C784 1.383 . S
C790 C789 1.379 . S
H791 C785 0.959 . S
H792 C785 0.961 . S
H793 C785 0.960 . S
H794 C786 0.930 . S
H795 C787 0.929 . S
H796 C804 0.929 . S
H797 C806 0.930 . S
H798 C808 0.930 . S
H799 C811 0.929 . S
H800 C814 0.930 . S
H801 C816 0.960 . S
H802 C816 0.960 . S
H803 C816 0.960 . S
C804 H796 0.929 . S
C804 C805 1.377 . S
C804 C806 1.384 . S
C805 C804 1.377 . S
C805 C811 1.390 . S
C806 H797 0.930 . S
C806 C804 1.384 . S
C806 C807 1.372 . S
C807 C806 1.372 . S
C807 C808 1.400 . S
C807 C812 1.490 . S
C808 H798 0.930 . S
C808 C807 1.400 . S
C808 C811 1.386 . S
H809 C825 0.930 . S
H810 C826 0.931 . S
C811 H799 0.929 . S
C811 C805 1.390 . S
C811 C808 1.386 . S
C812 C807 1.490 . S
C812 C814 1.395 . S
C812 C815 1.403 . S
H813 C819 0.930 . S
C814 H800 0.930 . S
C814 C812 1.395 . S
C814 C817 1.403 . S
C815 C812 1.403 . S
C815 C816 1.524 . S
C815 C819 1.400 . S
C816 H801 0.960 . S
C816 H802 0.960 . S
C816 H803 0.960 . S
C816 C815 1.524 . S
C817 C814 1.403 . S
C817 C818 1.392 . S
C817 C821 1.495 . S
C818 C817 1.392 . S
C818 C819 1.385 . S
C818 C820 1.478 . S
C819 H813 0.930 . S
C819 C815 1.400 . S
C819 C818 1.385 . S
C820 C818 1.478 . S
C820 C822 1.381 . S
C820 C826 1.383 . S
C821 C817 1.495 . S
C821 H827 0.959 . S
C821 H828 0.961 . S
C821 H829 0.960 . S
C822 C820 1.381 . S
C822 C823 1.394 . S
C822 H830 0.930 . S
C823 C822 1.394 . S
C823 C824 1.383 . S
C823 H831 0.929 . S
C824 C823 1.383 . S
C824 C825 1.377 . S
C825 H809 0.930 . S
C825 C824 1.377 . S
C825 C826 1.379 . S
C826 H810 0.931 . S
C826 C820 1.383 . S
C826 C825 1.379 . S
H827 C821 0.959 . S
H828 C821 0.961 . S
H829 C821 0.960 . S
H830 C822 0.930 . S
H831 C823 0.929 . S
H832 C840 0.929 . S
H833 C842 0.930 . S
H834 C844 0.930 . S
H835 C847 0.929 . S
H836 C850 0.930 . S
H837 C852 0.960 . S
H838 C852 0.960 1_565 S
H839 C852 0.960 . S
C840 H832 0.929 . S
C840 C841 1.377 . S
C840 C842 1.384 1_565 S
C841 C840 1.377 . S
C841 C847 1.390 . S
C842 H833 0.930 . S
C842 C840 1.384 1_545 S
C842 C843 1.372 . S
C843 C842 1.372 . S
C843 C844 1.400 . S
C843 C848 1.490 . S
C844 H834 0.930 . S
C844 C843 1.400 . S
C844 C847 1.386 1_545 S
H845 C861 0.930 . S
H846 C862 0.931 . S
C847 H835 0.929 . S
C847 C841 1.390 . S
C847 C844 1.386 1_565 S
C848 C843 1.490 . S
C848 C850 1.395 . S
C848 C851 1.403 . S
H849 C855 0.930 . S
C850 H836 0.930 . S
C850 C848 1.395 . S
C850 C853 1.403 . S
C851 C848 1.403 . S
C851 C852 1.524 . S
C851 C855 1.400 . S
C852 H837 0.960 . S
C852 H838 0.960 1_545 S
C852 H839 0.960 . S
C852 C851 1.524 . S
C853 C850 1.403 . S
C853 C854 1.392 . S
C853 C857 1.495 . S
C854 C853 1.392 . S
C854 C855 1.385 . S
C854 C856 1.478 . S
C855 H849 0.930 . S
C855 C851 1.400 . S
C855 C854 1.385 . S
C856 C854 1.478 . S
C856 C858 1.381 . S
C856 C862 1.383 . S
C857 C853 1.495 . S
C857 H863 0.959 . S
C857 H864 0.961 . S
C857 H865 0.960 . S
C858 C856 1.381 . S
C858 C859 1.394 . S
C858 H866 0.930 . S
C859 C858 1.394 . S
C859 C860 1.383 . S
C859 H867 0.929 . S
C860 C859 1.383 . S
C860 C861 1.377 . S
C861 H845 0.930 . S
C861 C860 1.377 . S
C861 C862 1.379 . S
C862 H846 0.931 . S
C862 C856 1.383 . S
C862 C861 1.379 . S
H863 C857 0.959 . S
H864 C857 0.961 . S
H865 C857 0.960 . S
H866 C858 0.930 . S
H867 C859 0.929 . S
H868 C876 0.929 . S
H869 C878 0.930 . S
H870 C880 0.930 . S
H871 C883 0.929 . S
H872 C886 0.930 . S
H873 C888 0.960 . S
H874 C888 0.960 1_545 S
H875 C888 0.960 . S
C876 H868 0.929 . S
C876 C877 1.377 . S
C876 C878 1.384 1_545 S
C877 C876 1.377 . S
C877 C883 1.390 . S
C878 H869 0.930 . S
C878 C876 1.384 1_565 S
C878 C879 1.372 . S
C879 C878 1.372 . S
C879 C880 1.400 . S
C879 C884 1.490 . S
C880 H870 0.930 . S
C880 C879 1.400 . S
C880 C883 1.386 1_565 S
H881 C897 0.930 . S
H882 C898 0.931 . S
C883 H871 0.929 . S
C883 C877 1.390 . S
C883 C880 1.386 1_545 S
C884 C879 1.490 . S
C884 C886 1.395 . S
C884 C887 1.403 . S
H885 C891 0.930 . S
C886 H872 0.930 . S
C886 C884 1.395 . S
C886 C889 1.403 . S
C887 C884 1.403 . S
C887 C888 1.524 . S
C887 C891 1.400 . S
C888 H873 0.960 . S
C888 H874 0.960 1_565 S
C888 H875 0.960 . S
C888 C887 1.524 . S
C889 C886 1.403 . S
C889 C890 1.392 . S
C889 C893 1.495 . S
C890 C889 1.392 . S
C890 C891 1.385 . S
C890 C892 1.478 . S
C891 H885 0.930 . S
C891 C887 1.400 . S
C891 C890 1.385 . S
C892 C890 1.478 . S
C892 C894 1.381 . S
C892 C898 1.383 . S
C893 C889 1.495 . S
C893 H899 0.959 . S
C893 H900 0.961 . S
C893 H901 0.960 . S
C894 C892 1.381 . S
C894 C895 1.394 . S
C894 H902 0.930 . S
C895 C894 1.394 . S
C895 C896 1.383 . S
C895 H903 0.929 . S
C896 C895 1.383 . S
C896 C897 1.377 . S
C897 H881 0.930 . S
C897 C896 1.377 . S
C897 C898 1.379 . S
C898 H882 0.931 . S
C898 C892 1.383 . S
C898 C897 1.379 . S
H899 C893 0.959 . S
H900 C893 0.961 . S
H901 C893 0.960 . S
H902 C894 0.930 . S
H903 C895 0.929 . S
H904 C912 0.929 . S
H905 C914 0.930 . S
H906 C916 0.930 . S
H907 C919 0.929 . S
H908 C922 0.930 . S
H909 C924 0.960 . S
H910 C924 0.960 . S
H911 C924 0.960 . S
C912 H904 0.929 . S
C912 C913 1.377 . S
C912 C914 1.384 . S
C913 C912 1.377 . S
C913 C919 1.390 1_565 S
C914 H905 0.930 . S
C914 C912 1.384 . S
C914 C915 1.372 1_565 S
C915 C914 1.372 1_545 S
C915 C916 1.400 . S
C915 C920 1.490 . S
C916 H906 0.930 . S
C916 C915 1.400 . S
C916 C919 1.386 . S
H917 C933 0.930 . S
H918 C934 0.931 . S
C919 H907 0.929 . S
C919 C913 1.390 1_545 S
C919 C916 1.386 . S
C920 C915 1.490 . S
C920 C922 1.395 . S
C920 C923 1.403 . S
H921 C927 0.930 . S
C922 H908 0.930 . S
C922 C920 1.395 . S
C922 C925 1.403 . S
C923 C920 1.403 . S
C923 C924 1.524 . S
C923 C927 1.400 . S
C924 H909 0.960 . S
C924 H910 0.960 . S
C924 H911 0.960 . S
C924 C923 1.524 . S
C925 C922 1.403 . S
C925 C926 1.392 . S
C925 C929 1.495 . S
C926 C925 1.392 . S
C926 C927 1.385 . S
C926 C928 1.478 . S
C927 H921 0.930 . S
C927 C923 1.400 . S
C927 C926 1.385 . S
C928 C926 1.478 . S
C928 C930 1.381 . S
C928 C934 1.383 . S
C929 C925 1.495 . S
C929 H935 0.959 . S
C929 H936 0.961 . S
C929 H937 0.960 . S
C930 C928 1.381 . S
C930 C931 1.394 . S
C930 H938 0.930 . S
C931 C930 1.394 . S
C931 C932 1.383 . S
C931 H939 0.929 . S
C932 C931 1.383 . S
C932 C933 1.377 . S
C933 H917 0.930 . S
C933 C932 1.377 . S
C933 C934 1.379 . S
C934 H918 0.931 . S
C934 C928 1.383 . S
C934 C933 1.379 . S
H935 C929 0.959 . S
H936 C929 0.961 . S
H937 C929 0.960 . S
H938 C930 0.930 . S
H939 C931 0.929 . S
H940 C948 0.929 . S
H941 C950 0.929 1_545 S
H942 C952 0.930 . S
H943 C955 0.929 . S
H944 C958 0.930 . S
H945 C960 0.960 . S
H946 C960 0.960 . S
H947 C960 0.960 . S
C948 H940 0.929 . S
C948 C949 1.377 . S
C948 C950 1.381 1_545 S
C949 C948 1.377 . S
C949 C955 1.390 1_545 S
C950 H941 0.929 1_565 S
C950 C948 1.381 1_565 S
C950 C951 1.376 . S
C951 C950 1.376 . S
C951 C952 1.400 . S
C951 C956 1.490 . S
C952 H942 0.930 . S
C952 C951 1.400 . S
C952 C955 1.386 . S
H953 C969 0.930 . S
H954 C970 0.931 . S
C955 H943 0.929 . S
C955 C949 1.390 1_565 S
C955 C952 1.386 . S
C956 C951 1.490 . S
C956 C958 1.395 . S
C956 C959 1.403 . S
H957 C963 0.930 . S
C958 H944 0.930 . S
C958 C956 1.395 . S
C958 C961 1.403 . S
C959 C956 1.403 . S
C959 C960 1.524 . S
C959 C963 1.400 . S
C960 H945 0.960 . S
C960 H946 0.960 . S
C960 H947 0.960 . S
C960 C959 1.524 . S
C961 C958 1.403 . S
C961 C962 1.392 . S
C961 C965 1.495 . S
C962 C961 1.392 . S
C962 C963 1.385 . S
C962 C964 1.478 . S
C963 H957 0.930 . S
C963 C959 1.400 . S
C963 C962 1.385 . S
C964 C962 1.478 . S
C964 C966 1.381 . S
C964 C970 1.383 . S
C965 C961 1.495 . S
C965 H971 0.959 . S
C965 H972 0.961 . S
C965 H973 0.960 . S
C966 C964 1.381 . S
C966 C967 1.394 . S
C966 H974 0.930 . S
C967 C966 1.394 . S
C967 C968 1.383 . S
C967 H975 0.929 . S
C968 C967 1.383 . S
C968 C969 1.377 . S
C969 H953 0.930 . S
C969 C968 1.377 . S
C969 C970 1.379 . S
C970 H954 0.931 . S
C970 C964 1.383 . S
C970 C969 1.379 . S
H971 C965 0.959 . S
H972 C965 0.961 . S
H973 C965 0.960 . S
H974 C966 0.930 . S
H975 C967 0.929 . S
H976 C984 0.929 . S
H977 C986 0.930 . S
H978 C988 0.930 . S
H979 C991 0.929 . S
H980 C994 0.930 . S
H981 C996 0.960 . S
H982 C996 0.960 . S
H983 C996 0.960 . S
C984 H976 0.929 . S
C984 C985 1.377 . S
C984 C986 1.384 . S
C985 C984 1.377 . S
C985 C991 1.390 . S
C986 H977 0.930 . S
C986 C984 1.384 . S
C986 C987 1.372 . S
C987 C986 1.372 . S
C987 C988 1.400 . S
C987 C992 1.490 . S
C988 H978 0.930 . S
C988 C987 1.400 . S
C988 C991 1.386 . S
H989 C1005 0.930 . S
H990 C1006 0.931 . S
C991 H979 0.929 . S
C991 C985 1.390 . S
C991 C988 1.386 . S
C992 C987 1.490 . S
C992 C994 1.395 . S
C992 C995 1.403 . S
H993 C999 0.930 . S
C994 H980 0.930 . S
C994 C992 1.395 . S
C994 C997 1.403 . S
C995 C992 1.403 . S
C995 C996 1.524 . S
C995 C999 1.400 . S
C996 H981 0.960 . S
C996 H982 0.960 . S
C996 H983 0.960 . S
C996 C995 1.524 . S
C997 C994 1.403 . S
C997 C998 1.392 . S
C997 C1001 1.495 . S
C998 C997 1.392 . S
C998 C999 1.385 . S
C998 C1000 1.478 . S
C999 H993 0.930 . S
C999 C995 1.400 . S
C999 C998 1.385 . S
C1000 C998 1.478 . S
C1000 C1002 1.381 . S
C1000 C1006 1.383 . S
C1001 C997 1.495 . S
C1001 H1007 0.959 . S
C1001 H1008 0.961 . S
C1001 H1009 0.960 . S
C1002 C1000 1.381 . S
C1002 C1003 1.394 . S
C1002 H1010 0.930 . S
C1003 C1002 1.394 . S
C1003 C1004 1.383 . S
C1003 H1011 0.929 . S
C1004 C1003 1.383 . S
C1004 C1005 1.377 . S
C1005 H989 0.930 . S
C1005 C1004 1.377 . S
C1005 C1006 1.379 . S
C1006 H990 0.931 . S
C1006 C1000 1.383 . S
C1006 C1005 1.379 . S
H1007 C1001 0.959 . S
H1008 C1001 0.961 . S
H1009 C1001 0.960 . S
H1010 C1002 0.930 . S
H1011 C1003 0.929 . S
H1012 C1020 0.929 . S
H1013 C1022 0.930 . S
H1014 C1024 0.930 . S
H1015 C1027 0.929 . S
H1016 C1030 0.930 . S
H1017 C1032 0.960 . S
H1018 C1032 0.960 . S
H1019 C1032 0.960 . S
C1020 H1012 0.929 . S
C1020 C1021 1.377 . S
C1020 C1022 1.384 . S
C1021 C1020 1.377 . S
C1021 C1027 1.390 . S
C1022 H1013 0.930 . S
C1022 C1020 1.384 . S
C1022 C1023 1.372 . S
C1023 C1022 1.372 . S
C1023 C1024 1.400 . S
C1023 C1028 1.490 . S
C1024 H1014 0.930 . S
C1024 C1023 1.400 . S
C1024 C1027 1.386 . S
H1025 C1041 0.930 . S
H1026 C1042 0.931 . S
C1027 H1015 0.929 . S
C1027 C1021 1.390 . S
C1027 C1024 1.386 . S
C1028 C1023 1.490 . S
C1028 C1030 1.395 . S
C1028 C1031 1.403 . S
H1029 C1035 0.930 . S
C1030 H1016 0.930 . S
C1030 C1028 1.395 . S
C1030 C1033 1.403 . S
C1031 C1028 1.403 . S
C1031 C1032 1.524 . S
C1031 C1035 1.400 . S
C1032 H1017 0.960 . S
C1032 H1018 0.960 . S
C1032 H1019 0.960 . S
C1032 C1031 1.524 . S
C1033 C1030 1.403 . S
C1033 C1034 1.392 . S
C1033 C1037 1.495 . S
C1034 C1033 1.392 . S
C1034 C1035 1.385 . S
C1034 C1036 1.478 . S
C1035 H1029 0.930 . S
C1035 C1031 1.400 . S
C1035 C1034 1.385 . S
C1036 C1034 1.478 . S
C1036 C1038 1.381 . S
C1036 C1042 1.383 . S
C1037 C1033 1.495 . S
C1037 H1043 0.959 . S
C1037 H1044 0.961 . S
C1037 H1045 0.960 . S
C1038 C1036 1.381 . S
C1038 C1039 1.394 . S
C1038 H1046 0.930 . S
C1039 C1038 1.394 . S
C1039 C1040 1.383 . S
C1039 H1047 0.929 . S
C1040 C1039 1.383 . S
C1040 C1041 1.377 . S
C1041 H1025 0.930 . S
C1041 C1040 1.377 . S
C1041 C1042 1.379 . S
C1042 H1026 0.931 . S
C1042 C1036 1.383 . S
C1042 C1041 1.379 . S
H1043 C1037 0.959 . S
H1044 C1037 0.961 . S
H1045 C1037 0.960 . S
H1046 C1038 0.930 . S
H1047 C1039 0.929 . S
H1048 C1056 0.929 . S
H1049 C1058 0.930 . S
H1050 C1060 0.930 . S
H1051 C1063 0.929 . S
H1052 C1066 0.930 . S
H1053 C1068 0.960 . S
H1054 C1068 0.960 . S
H1055 C1068 0.960 . S
C1056 H1048 0.929 . S
C1056 C1057 1.377 . S
C1056 C1058 1.384 . S
C1057 C1056 1.377 . S
C1057 C1063 1.390 . S
C1058 H1049 0.930 . S
C1058 C1056 1.384 . S
C1058 C1059 1.372 . S
C1059 C1058 1.372 . S
C1059 C1060 1.400 . S
C1059 C1064 1.490 . S
C1060 H1050 0.930 . S
C1060 C1059 1.400 . S
C1060 C1063 1.386 . S
H1061 C1077 0.930 . S
H1062 C1078 0.931 . S
C1063 H1051 0.929 . S
C1063 C1057 1.390 . S
C1063 C1060 1.386 . S
C1064 C1059 1.490 . S
C1064 C1066 1.395 . S
C1064 C1067 1.403 . S
H1065 C1071 0.930 . S
C1066 H1052 0.930 . S
C1066 C1064 1.395 . S
C1066 C1069 1.403 . S
C1067 C1064 1.403 . S
C1067 C1068 1.524 . S
C1067 C1071 1.400 . S
C1068 H1053 0.960 . S
C1068 H1054 0.960 . S
C1068 H1055 0.960 . S
C1068 C1067 1.524 . S
C1069 C1066 1.403 . S
C1069 C1070 1.392 . S
C1069 C1073 1.495 . S
C1070 C1069 1.392 . S
C1070 C1071 1.385 . S
C1070 C1072 1.478 . S
C1071 H1065 0.930 . S
C1071 C1067 1.400 . S
C1071 C1070 1.385 . S
C1072 C1070 1.478 . S
C1072 C1074 1.381 . S
C1072 C1078 1.383 . S
C1073 C1069 1.495 . S
C1073 H1079 0.959 . S
C1073 H1080 0.961 . S
C1073 H1081 0.960 . S
C1074 C1072 1.381 . S
C1074 C1075 1.394 . S
C1074 H1082 0.930 . S
C1075 C1074 1.394 . S
C1075 C1076 1.383 . S
C1075 H1083 0.929 . S
C1076 C1075 1.383 . S
C1076 C1077 1.377 . S
C1077 H1061 0.930 . S
C1077 C1076 1.377 . S
C1077 C1078 1.379 . S
C1078 H1062 0.931 . S
C1078 C1072 1.383 . S
C1078 C1077 1.379 . S
H1079 C1073 0.959 . S
H1080 C1073 0.961 . S
H1081 C1073 0.960 . S
H1082 C1074 0.930 . S
H1083 C1075 0.929 . S
H1084 C1092 0.929 . S
H1085 C1094 0.930 . S
H1086 C1096 0.930 . S
H1087 C1099 0.929 . S
H1088 C1102 0.930 . S
H1089 C1104 0.960 . S
H1090 C1104 0.960 . S
H1091 C1104 0.960 . S
C1092 H1084 0.929 . S
C1092 C1093 1.377 . S
C1092 C1094 1.384 . S
C1093 C1092 1.377 . S
C1093 C1099 1.390 . S
C1094 H1085 0.930 . S
C1094 C1092 1.384 . S
C1094 C1095 1.372 . S
C1095 C1094 1.372 . S
C1095 C1096 1.400 . S
C1095 C1100 1.490 . S
C1096 H1086 0.930 . S
C1096 C1095 1.400 . S
C1096 C1099 1.386 . S
H1097 C1113 0.930 . S
H1098 C1114 0.931 . S
C1099 H1087 0.929 . S
C1099 C1093 1.390 . S
C1099 C1096 1.386 . S
C1100 C1095 1.490 . S
C1100 C1102 1.395 . S
C1100 C1103 1.403 . S
H1101 C1107 0.930 . S
C1102 H1088 0.930 . S
C1102 C1100 1.395 . S
C1102 C1105 1.403 . S
C1103 C1100 1.403 . S
C1103 C1104 1.524 . S
C1103 C1107 1.400 . S
C1104 H1089 0.960 . S
C1104 H1090 0.960 . S
C1104 H1091 0.960 . S
C1104 C1103 1.524 . S
C1105 C1102 1.403 . S
C1105 C1106 1.392 . S
C1105 C1109 1.495 . S
C1106 C1105 1.392 . S
C1106 C1107 1.385 . S
C1106 C1108 1.478 . S
C1107 H1101 0.930 . S
C1107 C1103 1.400 . S
C1107 C1106 1.385 . S
C1108 C1106 1.478 . S
C1108 C1110 1.381 . S
C1108 C1114 1.383 . S
C1109 C1105 1.495 . S
C1109 H1115 0.959 . S
C1109 H1116 0.961 . S
C1109 H1117 0.960 . S
C1110 C1108 1.381 . S
C1110 C1111 1.394 . S
C1110 H1118 0.930 . S
C1111 C1110 1.394 . S
C1111 C1112 1.383 . S
C1111 H1119 0.929 . S
C1112 C1111 1.383 . S
C1112 C1113 1.377 . S
C1113 H1097 0.930 . S
C1113 C1112 1.377 . S
C1113 C1114 1.379 . S
C1114 H1098 0.931 . S
C1114 C1108 1.383 . S
C1114 C1113 1.379 . S
H1115 C1109 0.959 . S
H1116 C1109 0.961 . S
H1117 C1109 0.960 . S
H1118 C1110 0.930 . S
H1119 C1111 0.929 . S
H1120 C1128 0.929 . S
H1121 C1130 0.930 . S
H1122 C1132 0.930 . S
H1123 C1135 0.929 . S
H1124 C1138 0.930 . S
H1125 C1140 0.960 . S
H1126 C1140 0.960 . S
H1127 C1140 0.960 . S
C1128 H1120 0.929 . S
C1128 C1129 1.377 . S
C1128 C1130 1.384 . S
C1129 C1128 1.377 . S
C1129 C1135 1.390 . S
C1130 H1121 0.930 . S
C1130 C1128 1.384 . S
C1130 C1131 1.372 . S
C1131 C1130 1.372 . S
C1131 C1132 1.400 . S
C1131 C1136 1.490 . S
C1132 H1122 0.930 . S
C1132 C1131 1.400 . S
C1132 C1135 1.386 . S
H1133 C1149 0.930 . S
H1134 C1150 0.931 . S
C1135 H1123 0.929 . S
C1135 C1129 1.390 . S
C1135 C1132 1.386 . S
C1136 C1131 1.490 . S
C1136 C1138 1.395 . S
C1136 C1139 1.403 . S
H1137 C1143 0.930 . S
C1138 H1124 0.930 . S
C1138 C1136 1.395 . S
C1138 C1141 1.403 . S
C1139 C1136 1.403 . S
C1139 C1140 1.524 . S
C1139 C1143 1.400 . S
C1140 H1125 0.960 . S
C1140 H1126 0.960 . S
C1140 H1127 0.960 . S
C1140 C1139 1.524 . S
C1141 C1138 1.403 . S
C1141 C1142 1.392 . S
C1141 C1145 1.495 . S
C1142 C1141 1.392 . S
C1142 C1143 1.385 . S
C1142 C1144 1.478 . S
C1143 H1137 0.930 . S
C1143 C1139 1.400 . S
C1143 C1142 1.385 . S
C1144 C1142 1.478 . S
C1144 C1146 1.381 . S
C1144 C1150 1.383 . S
C1145 C1141 1.495 . S
C1145 H1151 0.959 . S
C1145 H1152 0.961 . S
C1145 H1153 0.960 . S
C1146 C1144 1.381 . S
C1146 C1147 1.394 . S
C1146 H1154 0.930 . S
C1147 C1146 1.394 . S
C1147 C1148 1.383 . S
C1147 H1155 0.929 . S
C1148 C1147 1.383 . S
C1148 C1149 1.377 . S
C1149 H1133 0.930 . S
C1149 C1148 1.377 . S
C1149 C1150 1.379 . S
C1150 H1134 0.931 . S
C1150 C1144 1.383 . S
C1150 C1149 1.379 . S
H1151 C1145 0.959 . S
H1152 C1145 0.961 . S
H1153 C1145 0.960 . S
H1154 C1146 0.930 . S
H1155 C1147 0.929 . S
H1156 C1164 0.929 . S
H1157 C1166 0.930 . S
H1158 C1168 0.930 . S
H1159 C1171 0.929 . S
H1160 C1174 0.930 . S
H1161 C1176 0.960 . S
H1162 C1176 0.960 . S
H1163 C1176 0.960 . S
C1164 H1156 0.929 . S
C1164 C1165 1.377 . S
C1164 C1166 1.384 . S
C1165 C1164 1.377 . S
C1165 C1171 1.390 . S
C1166 H1157 0.930 . S
C1166 C1164 1.384 . S
C1166 C1167 1.372 . S
C1167 C1166 1.372 . S
C1167 C1168 1.400 . S
C1167 C1172 1.490 . S
C1168 H1158 0.930 . S
C1168 C1167 1.400 . S
C1168 C1171 1.386 . S
H1169 C1185 0.930 . S
H1170 C1186 0.931 . S
C1171 H1159 0.929 . S
C1171 C1165 1.390 . S
C1171 C1168 1.386 . S
C1172 C1167 1.490 . S
C1172 C1174 1.395 . S
C1172 C1175 1.403 . S
H1173 C1179 0.930 . S
C1174 H1160 0.930 . S
C1174 C1172 1.395 . S
C1174 C1177 1.403 . S
C1175 C1172 1.403 . S
C1175 C1176 1.524 . S
C1175 C1179 1.400 . S
C1176 H1161 0.960 . S
C1176 H1162 0.960 . S
C1176 H1163 0.960 . S
C1176 C1175 1.524 . S
C1177 C1174 1.403 . S
C1177 C1178 1.392 . S
C1177 C1181 1.495 . S
C1178 C1177 1.392 . S
C1178 C1179 1.385 . S
C1178 C1180 1.478 . S
C1179 H1173 0.930 . S
C1179 C1175 1.400 . S
C1179 C1178 1.385 . S
C1180 C1178 1.478 . S
C1180 C1182 1.381 . S
C1180 C1186 1.383 . S
C1181 C1177 1.495 . S
C1181 H1187 0.959 . S
C1181 H1188 0.961 . S
C1181 H1189 0.960 . S
C1182 C1180 1.381 . S
C1182 C1183 1.394 . S
C1182 H1190 0.930 . S
C1183 C1182 1.394 . S
C1183 C1184 1.383 . S
C1183 H1191 0.929 . S
C1184 C1183 1.383 . S
C1184 C1185 1.377 . S
C1185 H1169 0.930 . S
C1185 C1184 1.377 . S
C1185 C1186 1.379 . S
C1186 H1170 0.931 . S
C1186 C1180 1.383 . S
C1186 C1185 1.379 . S
H1187 C1181 0.959 . S
H1188 C1181 0.961 . S
H1189 C1181 0.960 . S
H1190 C1182 0.930 . S
H1191 C1183 0.929 . S
H1192 C1200 0.929 . S
H1193 C1202 0.930 . S
H1194 C1204 0.930 . S
H1195 C1207 0.929 . S
H1196 C1210 0.930 . S
H1197 C1212 0.960 . S
H1198 C1212 0.960 . S
H1199 C1212 0.960 . S
C1200 H1192 0.929 . S
C1200 C1201 1.377 . S
C1200 C1202 1.384 . S
C1201 C1200 1.377 . S
C1201 C1207 1.390 . S
C1202 H1193 0.930 . S
C1202 C1200 1.384 . S
C1202 C1203 1.372 . S
C1203 C1202 1.372 . S
C1203 C1204 1.400 . S
C1203 C1208 1.490 . S
C1204 H1194 0.930 . S
C1204 C1203 1.400 . S
C1204 C1207 1.386 . S
H1205 C1221 0.930 . S
H1206 C1222 0.931 . S
C1207 H1195 0.929 . S
C1207 C1201 1.390 . S
C1207 C1204 1.386 . S
C1208 C1203 1.490 . S
C1208 C1210 1.395 . S
C1208 C1211 1.403 . S
H1209 C1215 0.930 . S
C1210 H1196 0.930 . S
C1210 C1208 1.395 . S
C1210 C1213 1.403 . S
C1211 C1208 1.403 . S
C1211 C1212 1.524 . S
C1211 C1215 1.400 . S
C1212 H1197 0.960 . S
C1212 H1198 0.960 . S
C1212 H1199 0.960 . S
C1212 C1211 1.524 . S
C1213 C1210 1.403 . S
C1213 C1214 1.392 . S
C1213 C1217 1.495 . S
C1214 C1213 1.392 . S
C1214 C1215 1.385 . S
C1214 C1216 1.478 . S
C1215 H1209 0.930 . S
C1215 C1211 1.400 . S
C1215 C1214 1.385 . S
C1216 C1214 1.478 . S
C1216 C1218 1.381 . S
C1216 C1222 1.383 . S
C1217 C1213 1.495 . S
C1217 H1223 0.959 . S
C1217 H1224 0.961 . S
C1217 H1225 0.960 . S
C1218 C1216 1.381 . S
C1218 C1219 1.394 . S
C1218 H1226 0.930 . S
C1219 C1218 1.394 . S
C1219 C1220 1.383 . S
C1219 H1227 0.929 . S
C1220 C1219 1.383 . S
C1220 C1221 1.377 . S
C1221 H1205 0.930 . S
C1221 C1220 1.377 . S
C1221 C1222 1.379 . S
C1222 H1206 0.931 . S
C1222 C1216 1.383 . S
C1222 C1221 1.379 . S
H1223 C1217 0.959 . S
H1224 C1217 0.961 . S
H1225 C1217 0.960 . S
H1226 C1218 0.930 . S
H1227 C1219 0.929 . S
H1228 C1236 0.929 . S
H1229 C1238 0.930 . S
H1230 C1240 0.930 . S
H1231 C1243 0.929 . S
H1232 C1246 0.930 . S
H1233 C1248 0.960 . S
H1234 C1248 0.960 . S
H1235 C1248 0.960 . S
C1236 H1228 0.929 . S
C1236 C1237 1.377 . S
C1236 C1238 1.384 . S
C1237 C1236 1.377 . S
C1237 C1243 1.390 . S
C1238 H1229 0.930 . S
C1238 C1236 1.384 . S
C1238 C1239 1.372 . S
C1239 C1238 1.372 . S
C1239 C1240 1.400 . S
C1239 C1244 1.490 . S
C1240 H1230 0.930 . S
C1240 C1239 1.400 . S
C1240 C1243 1.386 . S
H1241 C1257 0.930 . S
H1242 C1258 0.931 . S
C1243 H1231 0.929 . S
C1243 C1237 1.390 . S
C1243 C1240 1.386 . S
C1244 C1239 1.490 . S
C1244 C1246 1.395 . S
C1244 C1247 1.403 . S
H1245 C1251 0.930 . S
C1246 H1232 0.930 . S
C1246 C1244 1.395 . S
C1246 C1249 1.403 . S
C1247 C1244 1.403 . S
C1247 C1248 1.524 . S
C1247 C1251 1.400 . S
C1248 H1233 0.960 . S
C1248 H1234 0.960 . S
C1248 H1235 0.960 . S
C1248 C1247 1.524 . S
C1249 C1246 1.403 . S
C1249 C1250 1.392 . S
C1249 C1253 1.495 . S
C1250 C1249 1.392 . S
C1250 C1251 1.385 . S
C1250 C1252 1.478 . S
C1251 H1245 0.930 . S
C1251 C1247 1.400 . S
C1251 C1250 1.385 . S
C1252 C1250 1.478 . S
C1252 C1254 1.381 . S
C1252 C1258 1.383 . S
C1253 C1249 1.495 . S
C1253 H1259 0.959 . S
C1253 H1260 0.961 . S
C1253 H1261 0.960 . S
C1254 C1252 1.381 . S
C1254 C1255 1.394 . S
C1254 H1262 0.930 . S
C1255 C1254 1.394 . S
C1255 C1256 1.383 . S
C1255 H1263 0.929 . S
C1256 C1255 1.383 . S
C1256 C1257 1.377 . S
C1257 H1241 0.930 . S
C1257 C1256 1.377 . S
C1257 C1258 1.379 . S
C1258 H1242 0.931 . S
C1258 C1252 1.383 . S
C1258 C1257 1.379 . S
H1259 C1253 0.959 . S
H1260 C1253 0.961 . S
H1261 C1253 0.960 . S
H1262 C1254 0.930 . S
H1263 C1255 0.929 . S
C409 C21 1.547 . S
C428 C355 1.542 . S
C464 C319 1.539 . S
C445 C60 1.546 . S
C500 C342 1.510 . S
C481 C99 1.523 . S
C536 C330 1.503 . S
C517 C138 1.517 . S
C572 C399 1.540 . S
C553 C177 1.546 . S
C608 C363 1.512 . S
C589 C216 1.545 . S
C625 C255 1.519 . S
C644 C386 1.516 . S
C680 C374 1.521 . S
C661 C294 1.520 . S
C697 C1 1.489 . S
C716 C396 1.503 . S
C752 C366 1.502 . S
C733 C40 1.491 . S
C769 C79 1.526 . S
C788 C385 1.539 . S
C805 C133 1.515 . S
C824 C371 1.520 . S
C860 C352 1.503 . S
C841 C157 1.490 . S
C877 C196 1.488 . S
C896 C322 1.502 . S
C932 C341 1.522 . S
C913 C235 1.531 . S
C968 C327 1.512 . S
C949 C289 1.520 . S
C1004 C377 1.494 . S
C985 C16 1.500 . S
C1040 C393 1.485 . S
C1021 C55 1.497 . S
C1057 C94 1.451 . S
C1076 C364 1.470 . S
C1112 C388 1.460 . S
C1093 C118 1.457 . S
C1148 C333 1.500 . S
C1129 C172 1.500 . S
C1165 C211 1.493 . S
C1184 C349 1.490 . S
C1201 C250 1.454 . S
C1220 C320 1.463 . S
C1237 C274 1.454 . S
C1256 C344 1.468 . S
