# Generated by pormake.
# Topology pyr, (3,6)-cn, num edge types: 1
# Building blocks:
#     Node 0, Type 0, BuildingBlock: CUQRIR_clean_linker_1, # of connection points: 3
#     Node 1, Type 0, BuildingBlock: CUQRIR_clean_linker_1, # of connection points: 3
#     Node 2, Type 0, BuildingBlock: CUQRIR_clean_linker_1, # of connection points: 3
#     Node 3, Type 0, BuildingBlock: CUQRIR_clean_linker_1, # of connection points: 3
#     Node 4, Type 0, BuildingBlock: CUQRIR_clean_linker_1, # of connection points: 3
#     Node 5, Type 0, BuildingBlock: CUQRIR_clean_linker_1, # of connection points: 3
#     Node 6, Type 0, BuildingBlock: CUQRIR_clean_linker_1, # of connection points: 3
#     Node 7, Type 0, BuildingBlock: CUQRIR_clean_linker_1, # of connection points: 3
#     Node 8, Type 1, BuildingBlock: PAMTOO_clean_sbu_0, # of connection points: 6
#     Node 9, Type 1, BuildingBlock: PAMTOO_clean_sbu_0, # of connection points: 6
#     Node 10, Type 1, BuildingBlock: PAMTOO_clean_sbu_0, # of connection points: 6
#     Node 11, Type 1, BuildingBlock: PAMTOO_clean_sbu_0, # of connection points: 6
#     Edge 12, Type (0, 1), BuildingBlock: UVAHIK_clean_linker_0, # of connection points: 2
#     Edge 13, Type (0, 1), BuildingBlock: UVAHIK_clean_linker_0, # of connection points: 2
#     Edge 14, Type (0, 1), BuildingBlock: UVAHIK_clean_linker_0, # of connection points: 2
#     Edge 15, Type (0, 1), BuildingBlock: UVAHIK_clean_linker_0, # of connection points: 2
#     Edge 16, Type (0, 1), BuildingBlock: UVAHIK_clean_linker_0, # of connection points: 2
#     Edge 17, Type (0, 1), BuildingBlock: UVAHIK_clean_linker_0, # of connection points: 2
#     Edge 18, Type (0, 1), BuildingBlock: UVAHIK_clean_linker_0, # of connection points: 2
#     Edge 19, Type (0, 1), BuildingBlock: UVAHIK_clean_linker_0, # of connection points: 2
#     Edge 20, Type (0, 1), BuildingBlock: UVAHIK_clean_linker_0, # of connection points: 2
#     Edge 21, Type (0, 1), BuildingBlock: UVAHIK_clean_linker_0, # of connection points: 2
#     Edge 22, Type (0, 1), BuildingBlock: UVAHIK_clean_linker_0, # of connection points: 2
#     Edge 23, Type (0, 1), BuildingBlock: UVAHIK_clean_linker_0, # of connection points: 2
#     Edge 24, Type (0, 1), BuildingBlock: UVAHIK_clean_linker_0, # of connection points: 2
#     Edge 25, Type (0, 1), BuildingBlock: UVAHIK_clean_linker_0, # of connection points: 2
#     Edge 26, Type (0, 1), BuildingBlock: UVAHIK_clean_linker_0, # of connection points: 2
#     Edge 27, Type (0, 1), BuildingBlock: UVAHIK_clean_linker_0, # of connection points: 2
#     Edge 28, Type (0, 1), BuildingBlock: UVAHIK_clean_linker_0, # of connection points: 2
#     Edge 29, Type (0, 1), BuildingBlock: UVAHIK_clean_linker_0, # of connection points: 2
#     Edge 30, Type (0, 1), BuildingBlock: UVAHIK_clean_linker_0, # of connection points: 2
#     Edge 31, Type (0, 1), BuildingBlock: UVAHIK_clean_linker_0, # of connection points: 2
#     Edge 32, Type (0, 1), BuildingBlock: UVAHIK_clean_linker_0, # of connection points: 2
#     Edge 33, Type (0, 1), BuildingBlock: UVAHIK_clean_linker_0, # of connection points: 2
#     Edge 34, Type (0, 1), BuildingBlock: UVAHIK_clean_linker_0, # of connection points: 2
#     Edge 35, Type (0, 1), BuildingBlock: UVAHIK_clean_linker_0, # of connection points: 2
# Relax obj value: 0.147
# Max RMSD: 0.264
# Mean RMSD: 0.164
data_MOF--net-pyr--node1-PAMTOO_clean_sbu_0--node2-CUQRIR_clean_linker_1--edge1-UVAHIK_clean_linker_0
_symmetry_space_group_name_H-M    P1
_symmetry_Int_Tables_number       1
_symmetry_cell_setting            triclinic
loop_
_symmetry_equiv_pos_as_xyz
'x, y, z'
_cell_length_a     45.043349
_cell_length_b     47.551584
_cell_length_c     46.626692
_cell_angle_alpha  89.070218
_cell_angle_beta   90.655914
_cell_angle_gamma 106.0238
loop_
_atom_site_label
_atom_site_type_symbol
_atom_site_fract_x
_atom_site_fract_y
_atom_site_fract_z
_atom_type_partial_charge
C0 C 0.32936 0.32876 0.22471 0.0
N1 N 0.3453 0.30901 0.23072 0.0
N2 N 0.33196 0.33663 0.19657 0.0
C3 C 0.30771 0.33714 0.24526 0.0
C4 C 0.34961 0.32057 0.18563 0.0
N5 N 0.35767 0.30378 0.20635 0.0
C6 C 0.35872 0.32108 0.15468 0.0
H7 H 0.29853 0.31956 0.26137 0.0
H8 H 0.28787 0.34185 0.23381 0.0
H9 H 0.32053 0.35712 0.25676 0.0
H10 H 0.38193 0.31744 0.15283 0.0
H11 H 0.35874 0.34222 0.14424 0.0
H12 H 0.34188 0.3032 0.14328 0.0
C13 C 0.18225 0.78902 0.70896 0.0
N14 N 0.18244 0.81274 0.72473 0.0
N15 N 0.20243 0.77513 0.71997 0.0
C16 C 0.16452 0.78106 0.68136 0.0
C17 C 0.21497 0.79135 0.74293 0.0
N18 N 0.2029 0.81421 0.74576 0.0
C19 C 0.24151 0.78661 0.76049 0.0
H20 H 0.13997 0.78036 0.68444 0.0
H21 H 0.16567 0.75948 0.67355 0.0
H22 H 0.17414 0.79814 0.66487 0.0
H23 H 0.26106 0.78679 0.74615 0.0
H24 H 0.23427 0.76479 0.77113 0.0
H25 H 0.2495 0.80341 0.77719 0.0
C26 C 0.61585 0.36031 0.8503 0.0
N27 N 0.63304 0.35849 0.87398 0.0
N28 N 0.62748 0.38619 0.83625 0.0
C29 C 0.58726 0.33722 0.84134 0.0
C30 C 0.65233 0.39998 0.85235 0.0
N31 N 0.65559 0.38329 0.87537 0.0
C32 C 0.67471 0.42889 0.84452 0.0
H33 H 0.59385 0.32238 0.82605 0.0
H34 H 0.57061 0.34729 0.83045 0.0
H35 H 0.57592 0.32393 0.85997 0.0
H36 H 0.66721 0.44676 0.85456 0.0
H37 H 0.67543 0.43248 0.82093 0.0
H38 H 0.6983 0.42993 0.85248 0.0
C39 C 0.84522 0.67697 0.34175 0.0
N40 N 0.87155 0.69765 0.33428 0.0
N41 N 0.83124 0.68588 0.36413 0.0
C42 C 0.83237 0.64864 0.32625 0.0
C43 C 0.85007 0.71274 0.37006 0.0
N44 N 0.87441 0.72008 0.35191 0.0
C45 C 0.84539 0.73145 0.39445 0.0
H46 H 0.83853 0.6511 0.3032 0.0
H47 H 0.80688 0.64092 0.32825 0.0
H48 H 0.84246 0.63182 0.33585 0.0
H49 H 0.83199 0.71786 0.41201 0.0
H50 H 0.8325 0.74679 0.38637 0.0
H51 H 0.86782 0.7446 0.40324 0.0
C52 C 0.6716 0.79981 0.89529 0.0
N53 N 0.69336 0.7964 0.87695 0.0
N54 N 0.6588 0.82088 0.88557 0.0
C55 C 0.66554 0.78512 0.92426 0.0
C56 C 0.67375 0.8302 0.86067 0.0
N57 N 0.69488 0.81549 0.85556 0.0
C58 C 0.66993 0.85577 0.84302 0.0
H59 H 0.66389 0.7615 0.92254 0.0
H60 H 0.64389 0.78764 0.93361 0.0
H61 H 0.68517 0.795 0.93883 0.0
H62 H 0.68234 0.87638 0.85378 0.0
H63 H 0.64521 0.85519 0.84133 0.0
H64 H 0.67926 0.8558 0.82111 0.0
C65 C 0.84427 0.30459 0.42164 0.0
N66 N 0.85583 0.28987 0.40203 0.0
N67 N 0.82738 0.32073 0.40871 0.0
C68 C 0.84788 0.30202 0.45358 0.0
C69 C 0.829 0.31518 0.38045 0.0
N70 N 0.84646 0.29652 0.37632 0.0
C71 C 0.80927 0.32377 0.35742 0.0
H72 H 0.82898 0.28351 0.46185 0.0
H73 H 0.84632 0.3223 0.46417 0.0
H74 H 0.87029 0.29775 0.45907 0.0
H75 H 0.82437 0.33656 0.34041 0.0
H76 H 0.79466 0.33706 0.36575 0.0
H77 H 0.79418 0.30381 0.3474 0.0
C78 C 0.34018 0.67786 0.24822 0.0
N79 N 0.36565 0.69829 0.25764 0.0
N80 N 0.32576 0.68905 0.22708 0.0
C81 C 0.3286 0.64745 0.26066 0.0
C82 C 0.34335 0.71702 0.22401 0.0
N83 N 0.36736 0.72277 0.24278 0.0
C84 C 0.33827 0.73823 0.20136 0.0
H85 H 0.34004 0.63284 0.24957 0.0
H86 H 0.30325 0.63882 0.25771 0.0
H87 H 0.33431 0.64714 0.28386 0.0
H88 H 0.32397 0.75147 0.21049 0.0
H89 H 0.32611 0.72655 0.18237 0.0
H90 H 0.36049 0.75341 0.19434 0.0
C91 C 0.11533 0.35843 0.74604 0.0
N92 N 0.13277 0.35532 0.72322 0.0
N93 N 0.12558 0.38567 0.75729 0.0
C94 C 0.08658 0.33585 0.7557 0.0
C95 C 0.14988 0.39901 0.74034 0.0
N96 N 0.15406 0.38082 0.71956 0.0
C97 C 0.1711 0.42908 0.74546 0.0
H98 H 0.0751 0.32225 0.73747 0.0
H99 H 0.07004 0.34637 0.76541 0.0
H100 H 0.09295 0.32132 0.77209 0.0
H101 H 0.1715 0.43486 0.76844 0.0
H102 H 0.1628 0.44532 0.73267 0.0
H103 H 0.19499 0.43044 0.73865 0.0
Dy104 Dy 0.05978 0.04649 0.5083 0.0
Dy105 Dy 0.99544 0.02893 0.54493 0.0
C106 C 0.04713 0.08964 0.55654 0.0
O107 O 0.06069 1.00842 0.53676 0.0
O108 O 0.03059 1.01689 0.57279 0.0
O109 O 0.10925 0.0538 0.50795 0.0
O110 O 0.08409 0.05468 0.4681 0.0
O111 O 0.99629 0.98813 0.52149 0.0
O112 O 0.02709 1.01011 0.48422 0.0
O113 O 0.98554 0.05036 0.50451 0.0
O114 O 0.03429 0.07837 0.4934 0.0
O115 O 0.94655 1.00696 0.54722 0.0
O116 O 0.97034 0.03143 0.58343 0.0
C117 C 0.05157 1.00501 0.56351 0.0
O118 O 0.06781 0.07902 0.54415 0.0
O119 O 0.0174 0.07626 0.55464 0.0
C120 C 0.13634 0.08227 0.46971 0.0
C121 C 0.1847 0.12772 0.44688 0.0
C122 C 0.16033 0.13411 0.46174 0.0
C123 C 0.13628 0.1115 0.47312 0.0
C124 C 0.16074 0.07585 0.45539 0.0
C125 C 0.18469 0.09832 0.44405 0.0
C126 C 0.11105 0.05795 0.48023 0.0
C127 C 0.00685 0.98726 0.4954 0.0
C128 C 1.00411 0.07285 0.49123 0.0
C129 C 0.92903 0.98916 0.59366 0.0
C130 C 0.89592 0.94509 0.63177 0.0
C131 C 0.88527 0.94706 0.60353 0.0
C132 C 0.90158 0.96895 0.58474 0.0
C133 C 0.94013 0.98678 0.62165 0.0
C134 C 0.92375 0.965 0.64048 0.0
C135 C 0.94487 1.01334 0.57414 0.0
H136 H 0.15979 0.15654 0.46446 0.0
H137 H 0.11756 0.11676 0.48425 0.0
H138 H 0.16102 0.05335 0.45254 0.0
H139 H 0.20271 0.09255 0.43229 0.0
H140 H 0.86413 0.93187 0.596 0.0
H141 H 0.89246 0.97033 0.56332 0.0
H142 H 0.96115 1.00208 0.6293 0.0
H143 H 0.93239 0.96443 0.66219 0.0
Dy144 Dy 0.48249 0.04364 0.06571 0.0
Dy145 Dy 0.54805 0.05617 0.10181 0.0
C146 C 0.49223 0.99894 0.11431 0.0
O147 O 0.47552 0.06272 0.1076 0.0
O148 O 0.52526 0.08953 0.11672 0.0
O149 O 0.43316 0.02419 0.06159 0.0
O150 O 0.45808 0.05411 0.02884 0.0
O151 O 0.55776 0.08705 0.06415 0.0
O152 O 0.50851 0.09054 0.05776 0.0
O153 O 0.5453 0.01787 0.07402 0.0
O154 O 0.51385 0.02687 0.03812 0.0
O155 O 0.5969 0.05983 0.10232 0.0
O156 O 0.5732 0.06272 0.14195 0.0
C157 C 0.49534 0.08458 0.12031 0.0
O158 O 0.48064 1.00131 0.08863 0.0
O159 O 0.51371 0.02064 0.12548 0.0
C160 C 0.41323 0.01852 1.01356 0.0
C161 C 0.37646 0.9865 0.96923 0.0
C162 C 0.38224 0.97224 0.9945 0.0
C163 C 0.40056 0.9881 1.01649 0.0
C164 C 0.40731 0.0327 0.9884 0.0
C165 C 0.38924 1.01689 0.96644 0.0
C166 C 0.4317 0.03638 0.03651 0.0
C167 C 0.53835 0.10066 0.05346 0.0
C168 C 0.53453 1.01417 0.04768 0.0
C169 C 0.62659 0.08646 0.13998 0.0
C170 C 0.67851 0.12857 0.16168 0.0
C171 C 0.65507 0.13729 0.14677 0.0
C172 C 0.62925 0.11634 0.13596 0.0
C173 C 0.65003 0.07771 0.15437 0.0
C174 C 0.67574 0.09852 0.16515 0.0
C175 C 0.59951 0.06384 0.12992 0.0
H176 H 0.37285 0.94879 0.99713 0.0
H177 H 0.40469 0.9766 0.0357 0.0
H178 H 0.41654 0.05618 0.98579 0.0
H179 H 0.38484 0.02857 0.94744 0.0
H180 H 0.65663 0.16026 0.14357 0.0
H181 H 0.61129 0.12339 0.12475 0.0
H182 H 0.64823 0.05468 0.15768 0.0
H183 H 0.69299 0.091 0.17697 0.0
Dy184 Dy 0.4887 0.50128 0.52147 0.0
Dy185 Dy 0.49437 0.56043 0.55863 0.0
C186 C 0.52039 0.50948 0.58399 0.0
O187 O 0.44033 0.49617 0.53644 0.0
O188 O 0.45255 0.52672 0.57498 0.0
O189 O 0.47854 0.45424 0.51838 0.0
O190 O 0.49441 0.4817 0.48119 0.0
O191 O 0.4613 0.56209 0.523 0.0
O192 O 0.47914 0.53479 0.49106 0.0
O193 O 0.53348 0.57192 0.52739 0.0
O194 O 0.53883 0.52602 0.52111 0.0
O195 O 0.50186 0.60718 0.56066 0.0
O196 O 0.49365 0.58083 0.5996 0.0
C197 C 0.43299 0.50552 0.56108 0.0
O198 O 0.5023 0.49147 0.566 0.0
O199 O 0.52577 0.53795 0.58104 0.0
C200 C 0.51488 0.44216 0.48889 0.0
C201 C 0.56554 0.41976 0.47952 0.0
C202 C 0.56818 0.44302 0.49843 0.0
C203 C 0.54304 0.45402 0.50316 0.0
C204 C 0.51185 0.41861 0.47038 0.0
C205 C 0.53702 0.40733 0.46584 0.0
C206 C 0.48955 0.45562 0.49251 0.0
C207 C 0.46482 0.55469 0.49653 0.0
C208 C 0.54953 0.55455 0.51848 0.0
C209 C 0.4711 0.61968 0.59633 0.0
C210 C 0.42169 0.64038 0.61452 0.0
C211 C 0.42266 0.63112 0.58618 0.0
C212 C 0.44705 0.62065 0.57721 0.0
C213 C 0.47051 0.62948 0.62444 0.0
C214 C 0.44594 0.63968 0.63352 0.0
C215 C 0.49543 0.60632 0.58792 0.0
H216 H 0.58973 0.45274 0.50957 0.0
H217 H 0.5457 0.4721 0.51769 0.0
H218 H 0.49027 0.40929 0.45915 0.0
H219 H 0.53445 0.38947 0.45105 0.0
H220 H 0.4041 0.63114 0.57121 0.0
H221 H 0.44673 0.61277 0.55551 0.0
H222 H 0.48873 0.62868 0.63954 0.0
H223 H 0.44585 0.64694 0.65541 0.0
Dy224 Dy 0.99335 0.57065 0.02496 0.0
Dy225 Dy 0.99215 0.51281 0.06509 0.0
C226 C 0.96977 0.56735 0.08939 0.0
O227 O 0.03493 0.58266 0.05364 0.0
O228 O 0.04163 0.5371 0.05921 0.0
O229 O 1.0006 0.61734 1.02034 0.0
O230 O 0.99031 0.58971 0.98309 0.0
O231 O 1.00148 0.50016 1.02062 0.0
O232 O 0.02058 0.54581 1.00044 0.0
O233 O 0.94264 0.50553 0.05282 0.0
O234 O 0.94801 0.53858 1.01514 0.0
O235 O 0.98319 0.46623 0.07273 0.0
O236 O 1.00299 0.49675 0.10633 0.0
C237 C 0.05218 0.56556 0.0611 0.0
O238 O 0.96487 0.57506 0.06292 0.0
O239 O 0.98408 0.54708 0.09457 0.0
C240 C 0.97002 0.63002 0.98391 0.0
C241 C 0.9244 0.65641 0.96486 0.0
C242 C 0.91688 0.63237 0.98403 0.0
C243 C 0.93951 0.61927 0.99347 0.0
C244 C 0.97773 0.65401 0.96497 0.0
C245 C 0.95512 0.66715 0.95551 0.0
C246 C 0.99364 0.61583 0.9931 0.0
C247 C 0.01618 0.51726 0.99984 0.0
C248 C 0.93154 0.51623 0.03025 0.0
C249 C 0.02242 0.45625 0.10218 0.0
C250 C 0.07625 0.4383 0.11223 0.0
C251 C 0.06689 0.44267 0.08406 0.0
C252 C 0.04032 0.45182 0.07907 0.0
C253 C 0.03112 0.45083 0.13023 0.0
C254 C 0.05788 0.44203 0.13524 0.0
C255 C 0.99706 0.46986 0.09767 0.0
H256 H 0.89355 0.62381 0.99193 0.0
H257 H 0.93322 0.6007 1.00813 0.0
H258 H 1.00118 0.66243 0.9573 0.0
H259 H 0.96159 0.68538 0.94048 0.0
H260 H 0.08079 0.44019 0.06597 0.0
H261 H 0.03439 0.45636 0.05722 0.0
H262 H 0.01779 0.4544 0.14834 0.0
H263 H 0.06447 0.43855 0.15715 0.0
C264 C 0.32742 0.26144 0.25552 0.0
C265 C 0.34238 0.29146 0.25649 0.0
C266 C 0.31905 0.2453 0.28084 0.0
C267 C 0.29537 0.25617 0.35303 0.0
H268 H 0.29215 0.17425 0.36278 0.0
C269 C 0.2014 0.174 0.41753 0.0
C270 C 0.20912 0.15122 0.43274 0.0
C271 C 0.22353 0.19389 0.40107 0.0
C272 C 0.29329 0.19725 0.3607 0.0
H273 H 0.36176 0.32804 0.28416 0.0
H274 H 0.34704 0.29982 0.32886 0.0
H275 H 0.3229 0.20295 0.32419 0.0
H276 H 0.24672 0.13277 0.44423 0.0
H277 H 0.28529 0.16739 0.41522 0.0
H278 H 0.26498 0.25023 0.38899 0.0
C279 C 0.34176 0.28875 0.30854 0.0
C280 C 0.3107 0.2136 0.33845 0.0
C281 C 0.35034 0.30483 0.28313 0.0
C282 C 0.23988 0.14972 0.43229 0.0
C283 C 0.26198 0.16955 0.41574 0.0
C284 C 0.27784 0.23978 0.3752 0.0
C285 C 0.32523 0.259 0.30762 0.0
C286 C 0.31126 0.24302 0.33392 0.0
C287 C 0.25386 0.19142 0.39942 0.0
C288 C 0.27596 0.20995 0.37879 0.0
H289 H 0.32042 0.25092 0.23518 0.0
H290 H 0.30594 0.22255 0.27937 0.0
H291 H 0.29511 0.27872 0.34995 0.0
H292 H 0.17787 0.17559 0.41712 0.0
H293 H 0.21645 0.21028 0.38846 0.0
C294 C 0.24119 0.85977 0.75864 0.0
C295 C 0.21398 0.83804 0.76508 0.0
C296 C 0.25635 0.87911 0.77972 0.0
C297 C 0.25004 0.9047 0.85396 0.0
H298 H 0.33869 0.91594 0.85423 0.0
C299 C 0.32905 0.94895 0.95172 0.0
C300 C 0.3571 0.96999 0.94575 0.0
C301 C 0.3104 0.93423 0.92939 0.0
C302 C 0.31402 0.9133 0.85431 0.0
H303 H 0.18073 0.81938 0.7979 0.0
H304 H 0.20737 0.85292 0.83533 0.0
H305 H 0.30744 0.88945 0.8153 0.0
H306 H 0.38786 0.99171 0.91179 0.0
H307 H 0.35536 0.9661 0.87289 0.0
H308 H 0.25685 0.9281 0.89353 0.0
C309 C 0.21668 0.8557 0.81384 0.0
C310 C 0.29606 0.89822 0.8319 0.0
C311 C 0.20136 0.83655 0.79254 0.0
C312 C 0.36625 0.97579 0.91705 0.0
C313 C 0.34776 0.96096 0.89479 0.0
C314 C 0.26806 0.9197 0.87654 0.0
C315 C 0.24493 0.87659 0.80789 0.0
C316 C 0.26385 0.89376 0.83137 0.0
C317 C 0.3196 0.94007 0.90069 0.0
C318 C 0.30025 0.92416 0.8769 0.0
H319 H 0.25158 0.86064 0.7377 0.0
H320 H 0.27773 0.89525 0.77424 0.0
H321 H 0.22535 0.90184 0.85413 0.0
H322 H 0.32127 0.94422 0.97362 0.0
H323 H 0.28897 0.91803 0.9346 0.0
C324 C 0.60963 0.38099 0.78563 0.0
C325 C 0.61567 0.39738 0.81088 0.0
C326 C 0.59951 0.39259 0.76071 0.0
C327 C 0.6006 0.46282 0.72549 0.0
H328 H 0.53241 0.41673 0.68003 0.0
C329 C 0.54569 0.51433 0.63274 0.0
C330 C 0.53387 0.49712 0.60879 0.0
C331 C 0.55645 0.50205 0.65687 0.0
C332 C 0.55185 0.42984 0.69213 0.0
H333 H 0.615 0.43823 0.83018 0.0
H334 H 0.59798 0.45882 0.78662 0.0
H335 H 0.54935 0.39515 0.72281 0.0
H336 H 0.52512 0.45367 0.59109 0.0
H337 H 0.54474 0.43255 0.6326 0.0
H338 H 0.60362 0.49733 0.69472 0.0
C339 C 0.60127 0.43713 0.78593 0.0
C340 C 0.56145 0.41743 0.71677 0.0
C341 C 0.61101 0.42539 0.81085 0.0
C342 C 0.5338 0.46753 0.60927 0.0
C343 C 0.54487 0.45533 0.63324 0.0
C344 C 0.59124 0.47513 0.70069 0.0
C345 C 0.59557 0.42096 0.7605 0.0
C346 C 0.5858 0.43383 0.73386 0.0
C347 C 0.55601 0.47229 0.65758 0.0
C348 C 0.56658 0.45891 0.68371 0.0
H349 H 0.61339 0.35949 0.78503 0.0
H350 H 0.59552 0.37966 0.74142 0.0
H351 H 0.61974 0.47591 0.73797 0.0
H352 H 0.54588 0.53715 0.63319 0.0
H353 H 0.56438 0.5158 0.67525 0.0
C354 C 0.90853 0.67429 0.31346 0.0
C355 C 0.89161 0.69499 0.31108 0.0
C356 C 0.92025 0.66426 0.28904 0.0
C357 C 0.90482 0.65548 0.21049 0.0
H358 H 0.97943 0.62999 0.21153 0.0
C359 C 0.94683 0.6059 0.1097 0.0
C360 C 0.96058 0.5829 0.11413 0.0
C361 C 0.93963 0.62128 0.13299 0.0
C362 C 0.9583 0.63664 0.21086 0.0
H363 H 0.87422 0.7219 0.28129 0.0
H364 H 0.89541 0.70523 0.23847 0.0
H365 H 0.96685 0.65522 0.25279 0.0
H366 H 0.97709 0.55807 0.14706 0.0
H367 H 0.96427 0.5844 0.18734 0.0
H368 H 0.89612 0.63661 0.16868 0.0
C369 C 0.89954 0.69645 0.25923 0.0
C370 C 0.95109 0.65127 0.23465 0.0
C371 C 0.88792 0.70654 0.28379 0.0
C372 C 0.9666 0.57562 0.14261 0.0
C373 C 0.95945 0.59099 0.16584 0.0
C374 C 0.91204 0.64084 0.18668 0.0
C375 C 0.9151 0.67445 0.26136 0.0
C376 C 0.92406 0.66072 0.23503 0.0
C377 C 0.94601 0.61423 0.16149 0.0
C378 C 0.93876 0.63088 0.18655 0.0
H379 H 0.91082 0.66437 0.33414 0.0
H380 H 0.93167 0.64712 0.29181 0.0
H381 H 0.88353 0.66185 0.20995 0.0
H382 H 0.94193 0.61234 0.08816 0.0
H383 H 0.92961 0.63914 0.12854 0.0
C384 C 0.36063 0.25794 0.18459 0.0
C385 C 0.37342 0.28166 0.2025 0.0
C386 C 0.37542 0.23601 0.18128 0.0
C387 C 0.44984 0.22216 0.18098 0.0
H388 H 0.40377 0.14069 0.1904 0.0
C389 C 0.50299 0.12867 0.15164 0.0
C390 C 0.48315 0.10524 0.13687 0.0
C391 C 0.49123 0.14942 0.16509 0.0
C392 C 0.41695 0.1633 0.18744 0.0
H393 H 0.41116 0.30142 0.23112 0.0
H394 H 0.43802 0.26329 0.22454 0.0
H395 H 0.37987 0.17901 0.20278 0.0
H396 H 0.43529 0.08494 0.12518 0.0
H397 H 0.41514 0.12119 0.1476 0.0
H398 H 0.48626 0.2067 0.16398 0.0
C399 C 0.41642 0.2616 0.21333 0.0
C400 C 0.40328 0.18519 0.19471 0.0
C401 C 0.40121 0.28326 0.21709 0.0
C402 C 0.4513 0.10259 0.13648 0.0
C403 C 0.43964 0.12338 0.14961 0.0
C404 C 0.46339 0.20024 0.17321 0.0
C405 C 0.40352 0.23772 0.19549 0.0
C406 C 0.41937 0.21478 0.19099 0.0
C407 C 0.45942 0.14726 0.16386 0.0
C408 C 0.44681 0.17051 0.17569 0.0
H409 H 0.33895 0.25625 0.17353 0.0
H410 H 0.36513 0.21789 0.16728 0.0
H411 H 0.46263 0.24488 0.17781 0.0
H412 H 0.52764 0.13127 0.15244 0.0
H413 H 0.50711 0.1673 0.17619 0.0
C414 C 0.13545 0.82836 0.71602 0.0
C415 C 0.16775 0.83502 0.7169 0.0
C416 C 0.12096 0.84811 0.70364 0.0
C417 C 0.13171 0.92444 0.68029 0.0
H418 H 0.07482 0.89096 0.61875 0.0
C419 C 0.06151 0.98852 0.6131 0.0
C420 C 0.06413 0.98644 0.58323 0.0
C421 C 0.07315 0.97074 0.63172 0.0
C422 C 0.09057 0.90055 0.63594 0.0
H423 H 0.21035 0.86742 0.70627 0.0
H424 H 0.18518 0.90263 0.6856 0.0
H425 H 0.09641 0.8591 0.64927 0.0
H426 H 0.08075 0.96396 0.54946 0.0
H427 H 0.10048 0.93247 0.58205 0.0
H428 H 0.12596 0.96597 0.6667 0.0
C429 C 0.171 0.88224 0.69457 0.0
C430 C 0.10269 0.88234 0.65354 0.0
C431 C 0.18543 0.86227 0.70656 0.0
C432 C 0.07849 0.96615 0.57236 0.0
C433 C 0.08961 0.94803 0.59097 0.0
C434 C 0.11915 0.94263 0.66297 0.0
C435 C 0.13865 0.87499 0.69227 0.0
C436 C 0.1237 0.89415 0.67561 0.0
C437 C 0.08707 0.95018 0.6208 0.0
C438 C 0.09887 0.93086 0.64035 0.0
H439 H 0.12154 0.80734 0.72385 0.0
H440 H 0.09598 0.84207 0.70225 0.0
H441 H 0.14786 0.93405 0.69719 0.0
H442 H 0.05063 1.00402 0.6221 0.0
H443 H 0.07084 0.9727 0.65465 0.0
C444 C 0.68032 0.41835 0.91251 0.0
C445 C 0.67791 0.39204 0.89823 0.0
C446 C 0.7053 0.43009 0.93079 0.0
C447 C 0.76525 0.41747 0.97655 0.0
H448 H 0.81749 0.49056 0.94614 0.0
C449 C 0.88751 0.47135 1.02308 0.0
C450 C 0.89977 0.50178 1.02033 0.0
C451 C 0.85885 0.45731 1.01074 0.0
C452 C 0.80299 0.47057 0.9555 0.0
H453 H 0.69906 0.35689 0.89253 0.0
H454 H 0.74216 0.37668 0.92585 0.0
H455 H 0.7695 0.46653 0.92169 0.0
H456 H 0.89102 0.54165 1.00404 0.0
H457 H 0.84036 0.51768 0.98422 0.0
H458 H 0.79794 0.42182 1.01098 0.0
C459 C 0.72468 0.38819 0.92269 0.0
C460 C 0.77558 0.45668 0.94122 0.0
C461 C 0.69994 0.37673 0.90388 0.0
C462 C 0.88225 0.51809 1.0062 0.0
C463 C 0.85328 0.5042 0.99454 0.0
C464 C 0.7924 0.43172 0.99131 0.0
C465 C 0.72801 0.4154 0.93558 0.0
C466 C 0.75657 0.42999 0.95151 0.0
C467 C 0.84144 0.47349 0.99591 0.0
C468 C 0.81182 0.45848 0.98092 0.0
H469 H 0.66355 0.43046 0.90841 0.0
H470 H 0.7074 0.45109 0.94053 0.0
H471 H 0.75082 0.39689 0.98489 0.0
H472 H 0.90069 0.45821 0.03366 0.0
H473 H 0.85099 0.43367 1.01203 0.0
C474 C 0.79763 0.64236 0.38904 0.0
C475 C 0.80255 0.67096 0.37806 0.0
C476 C 0.77051 0.6287 0.40407 0.0
C477 C 0.70951 0.64608 0.44662 0.0
H478 H 0.66272 0.56586 0.4328 0.0
C479 C 0.58896 0.59721 0.49631 0.0
C480 C 0.57972 0.56738 0.5041 0.0
C481 C 0.61653 0.60912 0.48147 0.0
C482 C 0.67571 0.58814 0.43734 0.0
H483 H 0.7826 0.70724 0.3732 0.0
H484 H 0.73556 0.68377 0.39985 0.0
H485 H 0.70977 0.58749 0.40569 0.0
H486 H 0.59274 0.52679 0.50263 0.0
H487 H 0.64124 0.5477 0.47757 0.0
H488 H 0.67608 0.6468 0.47857 0.0
C489 C 0.7527 0.67193 0.39714 0.0
C490 C 0.70268 0.60057 0.42165 0.0
C491 C 0.77958 0.68538 0.38188 0.0
C492 C 0.59905 0.54985 0.49696 0.0
C493 C 0.62683 0.56184 0.48232 0.0
C494 C 0.6828 0.6336 0.46251 0.0
C495 C 0.74792 0.64352 0.40868 0.0
C496 C 0.71973 0.6298 0.42589 0.0
C497 C 0.63593 0.59166 0.47418 0.0
C498 C 0.66524 0.60452 0.45794 0.0
H499 H 0.81511 0.63089 0.38658 0.0
H500 H 0.76764 0.60688 0.4128 0.0
H501 H 0.7224 0.66849 0.45081 0.0
H502 H 0.57457 0.61136 0.50117 0.0
H503 H 0.62224 0.63199 0.47518 0.0
C504 C 0.31406 0.38075 0.19008 0.0
C505 C 0.31391 0.35267 0.18123 0.0
C506 C 0.29238 0.39417 0.17897 0.0
C507 C 0.23407 0.39121 0.12176 0.0
H508 H 0.18898 0.41682 0.18173 0.0
C509 C 0.11346 0.40893 0.10259 0.0
C510 C 0.10583 0.43122 0.11772 0.0
C511 C 0.14125 0.40211 0.10824 0.0
C512 C 0.20159 0.41035 0.16458 0.0
H513 H 0.2922 0.31706 0.15308 0.0
H514 H 0.2546 0.34068 0.1331 0.0
H515 H 0.23482 0.40161 0.19398 0.0
H516 H 0.12173 0.46473 0.14966 0.0
H517 H 0.17049 0.4534 0.1591 0.0
H518 H 0.20072 0.39985 0.09233 0.0
C519 C 0.27151 0.35244 0.14849 0.0
C520 C 0.22791 0.4016 0.17164 0.0
C521 C 0.29305 0.33895 0.1598 0.0
C522 C 0.1268 0.44704 0.1381 0.0
C523 C 0.15471 0.44049 0.1435 0.0
C524 C 0.20785 0.40026 0.11461 0.0
C525 C 0.27031 0.37976 0.15866 0.0
C526 C 0.24423 0.39163 0.15039 0.0
C527 C 0.16216 0.41771 0.12891 0.0
C528 C 0.19106 0.4096 0.13601 0.0
H529 H 0.33004 0.3916 0.2066 0.0
H530 H 0.29218 0.41538 0.18696 0.0
H531 H 0.24634 0.38377 0.10493 0.0
H532 H 0.0976 0.39634 0.08684 0.0
H533 H 0.14596 0.38415 0.09688 0.0
C534 C 0.64217 0.31281 0.89257 0.0
C535 C 0.62713 0.33482 0.89465 0.0
C536 C 0.6348 0.28859 0.91128 0.0
C537 C 0.5915 0.25999 0.97901 0.0
H538 H 0.59516 0.18521 0.94962 0.0
C539 C 0.5321 0.14793 0.03314 0.0
C540 C 0.55023 0.12831 0.0368 0.0
C541 C 0.543 0.17383 1.01711 0.0
C542 C 0.59426 0.20599 0.9582 0.0
H543 H 0.59228 0.34889 0.91708 0.0
H544 H 0.57815 0.30612 0.94915 0.0
H545 H 0.61089 0.22881 0.91922 0.0
H546 H 0.59405 0.12053 0.02635 0.0
H547 H 0.61274 0.16547 0.99767 0.0
H548 H 0.57348 0.23652 1.01759 0.0
C549 C 0.5966 0.3078 0.934 0.0
C550 C 0.60348 0.23115 0.94083 0.0
C551 C 0.60446 0.33227 0.91558 0.0
C552 C 0.57954 0.1352 1.02402 0.0
C553 C 0.59019 0.16085 1.0075 0.0
C554 C 0.58175 0.2347 0.99616 0.0
C555 C 0.61153 0.28543 0.93206 0.0
C556 C 0.60226 0.25861 0.95093 0.0
C557 C 0.57205 0.18045 1.00389 0.0
C558 C 0.58303 0.20744 0.98595 0.0
H559 H 0.65933 0.31422 0.87614 0.0
H560 H 0.64732 0.27231 0.90928 0.0
H561 H 0.59074 0.28065 0.98794 0.0
H562 H 0.50947 0.14336 0.04279 0.0
H563 H 0.52843 0.18842 1.01455 0.0
C564 C 0.8899 0.77315 0.34455 0.0
C565 C 0.89805 0.74766 0.35261 0.0
C566 C 0.90542 0.80033 0.35616 0.0
C567 C 0.97366 0.8417 0.39886 0.0
H568 H 0.91569 0.88055 0.42911 0.0
C569 C 0.01166 0.95631 0.45307 0.0
C570 C 0.99608 0.95994 0.47819 0.0
C571 C 1.00157 0.93081 0.43674 0.0
C572 C 0.93224 0.86999 0.42092 0.0
H573 H 0.93021 0.73104 0.37767 0.0
H574 H 0.95836 0.7787 0.39723 0.0
H575 H 0.89679 0.83669 0.40041 0.0
H576 H 0.95749 0.93919 0.50565 0.0
H577 H 0.93964 0.89499 0.47697 0.0
H578 H 0.00911 0.8751 0.41961 0.0
C579 C 0.93985 0.77774 0.38193 0.0
C580 C 0.92143 0.84497 0.40411 0.0
C581 C 0.92408 0.75046 0.37039 0.0
C582 C 0.9701 0.93727 0.48648 0.0
C583 C 0.95976 0.91193 0.46992 0.0
C584 C 0.98455 0.86705 0.41538 0.0
C585 C 0.92968 0.80278 0.37611 0.0
C586 C 0.94191 0.83035 0.39287 0.0
C587 C 0.97533 0.90831 0.44478 0.0
C588 C 0.96396 0.88146 0.42683 0.0
H589 H 0.86946 0.77147 0.33149 0.0
H590 H 0.89725 0.81915 0.35076 0.0
H591 H 0.99012 0.83108 0.39062 0.0
H592 H 0.03181 0.97319 0.44598 0.0
H593 H 0.01402 0.92897 0.41744 0.0
C594 C 0.22944 0.7613 0.67938 0.0
C595 C 0.21509 0.75435 0.70609 0.0
C596 C 0.2464 0.74367 0.66796 0.0
C597 C 0.29314 0.69696 0.69267 0.0
H598 H 0.29627 0.67922 0.61207 0.0
C599 C 0.38063 0.63948 0.6505 0.0
C600 C 0.39502 0.65004 0.6244 0.0
C601 C 0.35533 0.6484 0.65977 0.0
C602 C 0.29583 0.68421 0.63462 0.0
H603 H 0.20573 0.72316 0.7413 0.0
H604 H 0.23579 0.69218 0.72152 0.0
H605 H 0.25634 0.70065 0.629 0.0
H606 H 0.39442 0.67825 0.58757 0.0
H607 H 0.35075 0.69448 0.60405 0.0
H608 H 0.33327 0.68178 0.69827 0.0
C609 C 0.23395 0.71128 0.70942 0.0
C610 C 0.27287 0.69632 0.64429 0.0
C611 C 0.21677 0.72883 0.72068 0.0
C612 C 0.38357 0.66959 0.60767 0.0
C613 C 0.35844 0.67873 0.61705 0.0
C614 C 0.31623 0.68509 0.68298 0.0
C615 C 0.24957 0.71896 0.68328 0.0
C616 C 0.27156 0.70315 0.67336 0.0
C617 C 0.34405 0.66829 0.64325 0.0
C618 C 0.31813 0.67895 0.65377 0.0
H619 H 0.22886 0.78123 0.6681 0.0
H620 H 0.2585 0.75035 0.64796 0.0
H621 H 0.29303 0.70247 0.71512 0.0
H622 H 0.3887 0.624 0.66357 0.0
H623 H 0.34451 0.63955 0.67981 0.0
C624 C 0.73942 0.85049 0.83312 0.0
C625 C 0.71853 0.82254 0.83411 0.0
C626 C 0.76162 0.85788 0.81166 0.0
C627 C 0.77485 0.83972 0.7382 0.0
H628 H 0.85683 0.89097 0.75246 0.0
C629 C 0.84489 0.91828 0.65312 0.0
C630 C 0.87718 0.92362 0.65264 0.0
C631 C 0.82739 0.90021 0.67426 0.0
C632 C 0.83423 0.87627 0.7481 0.0
H633 H 0.70504 0.77986 0.81488 0.0
H634 H 0.74397 0.79277 0.77672 0.0
H635 H 0.82386 0.86957 0.79281 0.0
H636 H 0.91618 0.9129 0.67323 0.0
H637 H 0.88555 0.8816 0.71046 0.0
H638 H 0.78495 0.84701 0.69347 0.0
C639 C 0.74296 0.80906 0.79236 0.0
C640 C 0.81524 0.86425 0.77121 0.0
C641 C 0.72084 0.80164 0.81406 0.0
C642 C 0.89142 0.90965 0.67328 0.0
C643 C 0.8739 0.89167 0.69454 0.0
C644 C 0.79379 0.85184 0.71507 0.0
C645 C 0.76336 0.83741 0.79077 0.0
C646 C 0.78506 0.84649 0.7665 0.0
C647 C 0.84174 0.88714 0.69552 0.0
C648 C 0.82338 0.87086 0.71978 0.0
H649 H 0.73822 0.86666 0.84882 0.0
H650 H 0.77678 0.87996 0.81088 0.0
H651 H 0.75165 0.82622 0.73388 0.0
H652 H 0.83318 0.92903 0.63788 0.0
H653 H 0.80273 0.89757 0.67469 0.0
C654 C 0.82878 0.24968 0.35154 0.0
C655 C 0.84509 0.2794 0.35096 0.0
C656 C 0.82075 0.23442 0.32604 0.0
C657 C 0.79998 0.24931 0.25322 0.0
H658 H 0.78945 0.16618 0.24446 0.0
C659 C 0.69997 0.17424 0.18995 0.0
C660 C 0.70487 0.15038 0.17522 0.0
C661 C 0.7238 0.19254 0.20591 0.0
C662 C 0.79267 0.18952 0.24622 0.0
H663 H 0.86759 0.31615 0.32383 0.0
H664 H 0.85344 0.2895 0.27879 0.0
H665 H 0.82212 0.19227 0.28307 0.0
H666 H 0.73929 0.12831 0.16406 0.0
H667 H 0.78082 0.16015 0.19223 0.0
H668 H 0.76965 0.24635 0.217 0.0
C669 C 0.8468 0.27799 0.29897 0.0
C670 C 0.8112 0.20439 0.26848 0.0
C671 C 0.85504 0.29318 0.32459 0.0
C672 C 0.7346 0.14616 0.17563 0.0
C673 C 0.7584 0.16441 0.1917 0.0
C674 C 0.78135 0.23441 0.23104 0.0
C675 C 0.82863 0.24872 0.29943 0.0
C676 C 0.81427 0.23424 0.27275 0.0
C677 C 0.75305 0.18737 0.20756 0.0
C678 C 0.77673 0.20418 0.22785 0.0
H679 H 0.8202 0.23888 0.3716 0.0
H680 H 0.80636 0.21204 0.32716 0.0
H681 H 0.80164 0.27225 0.25607 0.0
H682 H 0.6773 0.17791 0.19038 0.0
H683 H 0.7188 0.20981 0.21819 0.0
C684 C 0.40339 0.67403 0.27631 0.0
C685 C 0.38594 0.6939 0.28028 0.0
C686 C 0.41554 0.66225 0.29987 0.0
C687 C 0.42997 0.66734 0.37885 0.0
H688 H 0.41513 0.5833 0.37321 0.0
C689 C 0.44128 0.59358 0.47705 0.0
C690 C 0.4547 0.57063 0.4722 0.0
C691 C 0.43378 0.60979 0.45401 0.0
C692 C 0.41986 0.6068 0.37512 0.0
H693 H 0.36861 0.71821 0.31155 0.0
H694 H 0.39002 0.69786 0.3531 0.0
H695 H 0.40345 0.61107 0.33253 0.0
H696 H 0.47059 0.54682 0.43909 0.0
H697 H 0.45783 0.57502 0.39923 0.0
H698 H 0.44626 0.66287 0.42165 0.0
C699 C 0.3947 0.69154 0.33178 0.0
C700 C 0.41321 0.6228 0.35167 0.0
C701 C 0.38262 0.70339 0.30807 0.0
C702 C 0.46009 0.56414 0.44373 0.0
C703 C 0.45264 0.58032 0.42076 0.0
C704 C 0.43673 0.65127 0.40238 0.0
C705 C 0.41022 0.66987 0.32802 0.0
C706 C 0.41828 0.65331 0.35311 0.0
C707 C 0.43949 0.60346 0.42552 0.0
C708 C 0.43184 0.62076 0.40079 0.0
H709 H 0.40577 0.66616 0.25503 0.0
H710 H 0.42793 0.64613 0.29607 0.0
H711 H 0.43429 0.6908 0.38071 0.0
H712 H 0.43684 0.59928 0.49866 0.0
H713 H 0.42332 0.62717 0.45853 0.0
C714 C 0.10787 0.42564 0.77898 0.0
C715 C 0.11344 0.398 0.78139 0.0
C716 C 0.09747 0.43825 0.80254 0.0
C717 C 0.05829 0.42064 0.87306 0.0
H718 H 0.09457 0.50302 0.88781 0.0
C719 C 0.02904 0.47446 0.97645 0.0
C720 C 0.02815 0.50383 0.97516 0.0
C721 C 0.03971 0.46162 0.95318 0.0
C722 C 0.08371 0.48009 0.88392 0.0
H723 H 0.11209 0.36187 0.81057 0.0
H724 H 0.09327 0.38348 0.85162 0.0
H725 H 0.11171 0.48059 0.84687 0.0
H726 H 0.03785 0.54256 0.94787 0.0
H727 H 0.05556 0.52015 0.90718 0.0
H728 H 0.02983 0.42011 0.90966 0.0
C729 C 0.09696 0.39549 0.83144 0.0
C730 C 0.09371 0.46715 0.86033 0.0
C731 C 0.1077 0.38302 0.80791 0.0
C732 C 0.03835 0.51997 0.94984 0.0
C733 C 0.04874 0.50705 0.92644 0.0
C734 C 0.04805 0.43363 0.8965 0.0
C735 C 0.09193 0.42344 0.82921 0.0
C736 C 0.08119 0.43721 0.85451 0.0
C737 C 0.0496 0.47759 0.92762 0.0
C738 C 0.06059 0.46362 0.90243 0.0
H739 H 0.11155 0.43752 0.75875 0.0
H740 H 0.09342 0.45954 0.79975 0.0
H741 H 0.04776 0.39763 0.86915 0.0
H742 H 0.02164 0.4613 0.9956 0.0
H743 H 0.04049 0.43915 0.95547 0.0
C744 C 0.61421 0.84049 0.89295 0.0
C745 C 0.64277 0.83713 0.90222 0.0
C746 C 0.60054 0.85922 0.90743 0.0
C747 C 0.62199 0.923 0.95527 0.0
H748 H 0.53407 0.90491 0.96978 0.0
C749 C 0.57186 0.98568 0.03682 0.0
C750 C 0.54557 0.99449 0.02887 0.0
C751 C 0.58248 0.96695 1.01951 0.0
C752 C 0.55861 0.91036 0.96553 0.0
H753 H 0.67921 0.84976 0.93389 0.0
H754 H 0.65504 0.88162 0.95992 0.0
H755 H 0.55453 0.87009 0.94374 0.0
H756 H 0.50963 0.99034 0.99655 0.0
H757 H 0.52822 0.95717 0.96626 0.0
H758 H 0.62621 0.96289 0.97753 0.0
C759 C 0.64336 0.87043 0.94119 0.0
C760 C 0.57033 0.89046 0.95066 0.0
C761 C 0.65702 0.85192 0.92663 0.0
C762 C 0.53003 0.98403 1.00319 0.0
C763 C 0.54052 0.96494 0.98596 0.0
C764 C 0.61034 0.94271 0.97023 0.0
C765 C 0.6153 0.87483 0.93141 0.0
C766 C 0.60225 0.89637 0.9458 0.0
C767 C 0.56696 0.95638 0.99393 0.0
C768 C 0.57863 0.93641 0.97591 0.0
H769 H 0.60298 0.82919 0.87411 0.0
H770 H 0.57899 0.8622 0.89927 0.0
H771 H 0.64657 0.92863 0.95121 0.0
H772 H 0.58441 0.99334 0.05643 0.0
H773 H 0.6027 0.96043 0.02636 0.0
C774 C 0.85733 0.24328 0.42479 0.0
C775 C 0.87146 0.26777 0.40782 0.0
C776 C 0.8727 0.22217 0.43116 0.0
C777 C 0.93913 0.19483 0.41002 0.0
H778 H 0.927 0.16009 0.48632 0.0
C779 C 0.00867 0.1192 0.46252 0.0
C780 C 0.9902 0.09379 0.47604 0.0
C781 C 0.99533 0.14047 0.45135 0.0
C782 C 0.93049 0.16951 0.46488 0.0
H783 H 0.91188 0.28929 0.38327 0.0
H784 H 0.93965 0.25281 0.39511 0.0
H785 H 0.90196 0.19758 0.47286 0.0
H786 H 0.94303 0.07027 0.48711 0.0
H787 H 0.92017 0.10737 0.46805 0.0
H788 H 0.96847 0.16689 0.40263 0.0
C789 C 0.91652 0.24958 0.40324 0.0
C790 C 0.91599 0.19089 0.45706 0.0
C791 C 0.90085 0.27054 0.39659 0.0
C792 C 0.95807 0.08959 0.47704 0.0
C793 C 0.94489 0.11089 0.46622 0.0
C794 C 0.95403 0.1736 0.41804 0.0
C795 C 0.90276 0.22529 0.42095 0.0
C796 C 0.91964 0.2035 0.42937 0.0
C797 C 0.96342 0.13679 0.45385 0.0
C798 C 0.94939 0.16044 0.4454 0.0
H799 H 0.83427 0.24045 0.43295 0.0
H800 H 0.86092 0.20336 0.44407 0.0
H801 H 0.94231 0.20389 0.38845 0.0
H802 H 0.03348 0.12309 0.46134 0.0
H803 H 0.01009 0.16032 0.4419 0.0
C804 C 0.29607 0.64815 0.19732 0.0
C805 C 0.29837 0.67471 0.21108 0.0
C806 C 0.27026 0.63527 0.18028 0.0
C807 C 0.21039 0.65418 0.13683 0.0
H808 H 0.16476 0.5725 0.14521 0.0
C809 C 0.09151 0.60754 0.08326 0.0
C810 C 0.08291 0.57832 0.07432 0.0
C811 C 0.11912 0.61886 0.09831 0.0
C812 C 0.17754 0.59522 0.14216 0.0
H813 H 0.27535 0.70816 0.21879 0.0
H814 H 0.23049 0.68612 0.18845 0.0
H815 H 0.21023 0.59253 0.1752 0.0
H816 H 0.09718 0.53834 0.07326 0.0
H817 H 0.14585 0.55837 0.09864 0.0
H818 H 0.17832 0.65699 0.10354 0.0
C819 C 0.24866 0.67531 0.19068 0.0
C820 C 0.2035 0.60669 0.15949 0.0
C821 C 0.27421 0.6879 0.208 0.0
C822 C 0.10305 0.56093 0.07995 0.0
C823 C 0.13087 0.57236 0.09475 0.0
C824 C 0.18473 0.64266 0.11925 0.0
C825 C 0.24655 0.64901 0.17644 0.0
C826 C 0.21989 0.63637 0.15726 0.0
C827 C 0.13906 0.60137 0.10452 0.0
C828 C 0.16766 0.61312 0.12194 0.0
H829 H 0.31461 0.63779 0.19918 0.0
H830 H 0.26926 0.61506 0.16943 0.0
H831 H 0.22295 0.67705 0.13435 0.0
H832 H 0.07643 0.62147 0.07951 0.0
H833 H 0.12428 0.64112 0.10586 0.0
C834 C 0.20121 0.37376 0.69738 0.0
C835 C 0.17781 0.38804 0.69792 0.0
C836 C 0.22709 0.38433 0.67966 0.0
C837 C 0.27085 0.45364 0.64392 0.0
H838 H 0.3155 0.40492 0.60782 0.0
C839 C 0.39408 0.50215 0.60016 0.0
C840 C 0.40238 0.49137 0.5744 0.0
C841 C 0.36596 0.48861 0.61349 0.0
C842 C 0.30318 0.41888 0.61754 0.0
H843 H 0.16197 0.42326 0.67941 0.0
H844 H 0.20645 0.44137 0.648 0.0
H845 H 0.26721 0.38213 0.63291 0.0
H846 H 0.38712 0.45763 0.54251 0.0
H847 H 0.3378 0.43413 0.56567 0.0
H848 H 0.30642 0.49035 0.62844 0.0
C849 C 0.20553 0.42252 0.66166 0.0
C850 C 0.27561 0.40577 0.63222 0.0
C851 C 0.17988 0.41203 0.67939 0.0
C852 C 0.38156 0.46663 0.56228 0.0
C853 C 0.35334 0.45299 0.57571 0.0
C854 C 0.29832 0.46669 0.62934 0.0
C855 C 0.23002 0.4094 0.66211 0.0
C856 C 0.25905 0.42298 0.6457 0.0
C857 C 0.34512 0.46382 0.60152 0.0
C858 C 0.31507 0.44956 0.61608 0.0
H859 H 0.20018 0.35538 0.71171 0.0
H860 H 0.24545 0.37369 0.68077 0.0
H861 H 0.25917 0.46773 0.65432 0.0
H862 H 0.40944 0.52106 0.6103 0.0
H863 H 0.3608 0.49739 0.63353 0.0
C864 C 0.70842 0.75079 0.88424 0.0
C865 C 0.71635 0.78141 0.88329 0.0
C866 C 0.73069 0.73634 0.89143 0.0
C867 C 0.81527 0.74738 0.89629 0.0
H868 H 0.79338 0.68144 0.94942 0.0
C869 C 0.90676 0.70072 0.9519 0.0
C870 C 0.90028 0.67013 0.95453 0.0
C871 C 0.88411 0.71361 0.94211 0.0
C872 C 0.79976 0.69959 0.93429 0.0
H873 H 0.75306 0.82116 0.88909 0.0
H874 H 0.79221 0.79614 0.90174 0.0
H875 H 0.75413 0.70498 0.93377 0.0
H876 H 0.86502 0.6291 0.94848 0.0
H877 H 0.82545 0.65163 0.93148 0.0
H878 H 0.86097 0.74216 0.89702 0.0
C879 C 0.76905 0.78312 0.89652 0.0
C880 C 0.77726 0.71306 0.92529 0.0
C881 C 0.74677 0.79747 0.88938 0.0
C882 C 0.87061 0.65274 0.94713 0.0
C883 C 0.84795 0.66565 0.93737 0.0
C884 C 0.83776 0.73393 0.9053 0.0
C885 C 0.76125 0.75237 0.89778 0.0
C886 C 0.78481 0.73724 0.90635 0.0
C887 C 0.85444 0.69623 0.93474 0.0
C888 C 0.83032 0.71 0.92455 0.0
H889 H 0.68499 0.73819 0.87948 0.0
H890 H 0.72403 0.71265 0.8919 0.0
H891 H 0.82172 0.76566 0.88132 0.0
H892 H 0.92924 0.71475 0.95784 0.0
H893 H 0.8897 0.73725 0.94078 0.0
C894 C 0.3837 0.77494 0.25324 0.0
C895 C 0.39128 0.74994 0.24384 0.0
C896 C 0.40044 0.80282 0.24379 0.0
C897 C 0.44357 0.83549 0.17956 0.0
H898 H 0.45386 0.90824 0.21986 0.0
C899 C 0.46074 0.94626 0.11931 0.0
C900 C 0.48205 0.97095 0.13089 0.0
C901 C 0.45231 0.9197 0.13471 0.0
C902 C 0.45142 0.88815 0.2083 0.0
H903 H 0.42354 0.73433 0.21916 0.0
H904 H 0.45375 0.78314 0.20321 0.0
H905 H 0.43847 0.86184 0.24632 0.0
H906 H 0.51102 0.98689 0.16801 0.0
H907 H 0.4965 0.94077 0.19458 0.0
H908 H 0.45646 0.86173 0.14155 0.0
C909 C 0.43455 0.7813 0.21755 0.0
C910 C 0.44239 0.86151 0.22347 0.0
C911 C 0.41776 0.7534 0.22714 0.0
C912 C 0.49445 0.96843 0.15836 0.0
C913 C 0.48601 0.94194 0.17374 0.0
C914 C 0.45253 0.86211 0.16439 0.0
C915 C 0.42509 0.80621 0.22456 0.0
C916 C 0.43804 0.83478 0.20926 0.0
C917 C 0.46494 0.91715 0.16211 0.0
C918 C 0.45625 0.8888 0.17847 0.0
H919 H 0.36287 0.7726 0.26553 0.0
H920 H 0.3923 0.82135 0.24955 0.0
H921 H 0.43998 0.81539 0.16774 0.0
H922 H 0.45069 0.94736 0.09825 0.0
H923 H 0.43568 0.90119 0.12522 0.0
C924 C 0.12546 0.30197 0.71842 0.0
C925 C 0.12842 0.32956 0.70561 0.0
C926 C 0.11846 0.27656 0.70188 0.0
C927 C 0.11749 0.24904 0.62722 0.0
H928 H 0.05762 0.18073 0.65835 0.0
C929 C 0.08853 0.13439 0.57311 0.0
C930 C 0.0574 0.1176 0.57289 0.0
C931 C 0.09798 0.16052 0.58866 0.0
C932 C 0.07425 0.1996 0.64918 0.0
H933 H 0.12716 0.35215 0.66521 0.0
H934 H 0.1153 0.30784 0.63608 0.0
H935 H 0.07291 0.2255 0.68606 0.0
H936 H 0.01187 0.11563 0.58901 0.0
H937 H 0.02826 0.16085 0.61594 0.0
H938 H 0.11849 0.22309 0.59015 0.0
C939 C 0.11845 0.30579 0.659 0.0
C940 C 0.08333 0.22529 0.66528 0.0
C941 C 0.12531 0.33124 0.67564 0.0
C942 C 0.03604 0.12779 0.58863 0.0
C943 C 0.04551 0.15376 0.60429 0.0
C944 C 0.10856 0.22321 0.61116 0.0
C945 C 0.11439 0.27797 0.67194 0.0
C946 C 0.10506 0.25047 0.65459 0.0
C947 C 0.07664 0.17053 0.60465 0.0
C948 C 0.08668 0.1981 0.62184 0.0
H949 H 0.12823 0.30008 0.7414 0.0
H950 H 0.1162 0.25573 0.71264 0.0
H951 H 0.13442 0.26783 0.61828 0.0
H952 H 0.1057 0.12737 0.56127 0.0
H953 H 0.12217 0.17261 0.58855 0.0
C954 C 0.80542 0.36113 0.42021 0.0
C955 C 0.80403 0.33136 0.42186 0.0
C956 C 0.78051 0.37077 0.42949 0.0
C957 C 0.69682 0.34419 0.43722 0.0
H958 H 0.70517 0.41425 0.48154 0.0
C959 C 0.5905 0.37907 0.47419 0.0
C960 C 0.59282 0.40912 0.47374 0.0
C961 C 0.61657 0.36928 0.46947 0.0
C962 C 0.70246 0.39482 0.46885 0.0
H963 H 0.77654 0.28833 0.4348 0.0
H964 H 0.73287 0.30502 0.45127 0.0
H965 H 0.75088 0.39814 0.47124 0.0
H966 H 0.6239 0.45247 0.46723 0.0
H967 H 0.66918 0.43546 0.45828 0.0
H968 H 0.64868 0.34115 0.43404 0.0
C969 C 0.75303 0.32095 0.44279 0.0
C970 C 0.72865 0.38557 0.46308 0.0
C971 C 0.77798 0.31143 0.4337 0.0
C972 C 0.62157 0.42918 0.46812 0.0
C973 C 0.64754 0.41941 0.46313 0.0
C974 C 0.6707 0.35356 0.44275 0.0
C975 C 0.75378 0.35063 0.44026 0.0
C976 C 0.72607 0.36017 0.44719 0.0
C977 C 0.64543 0.38935 0.46389 0.0
C978 C 0.67318 0.37903 0.45857 0.0
H979 H 0.82531 0.37664 0.4108 0.0
H980 H 0.78161 0.39373 0.42709 0.0
H981 H 0.69422 0.32478 0.4245 0.0
H982 H 0.56866 0.36318 0.47877 0.0
H983 H 0.61416 0.346 0.47063 0.0
loop_
_geom_bond_atom_site_label_1
_geom_bond_atom_site_label_2
_geom_bond_distance
_geom_bond_site_symmetry_2
_ccdc_geom_bond_type
C0 N1 1.317 . S
C0 N2 1.348 . S
C0 C3 1.485 . S
N1 C0 1.317 . S
N1 N5 1.370 . S
N2 C0 1.348 . S
N2 C4 1.346 . S
C3 C0 1.485 . S
C3 H7 0.960 . S
C3 H8 0.961 . S
C3 H9 0.960 . S
C4 N2 1.346 . S
C4 N5 1.307 . S
C4 C6 1.486 . S
N5 N1 1.370 . S
N5 C4 1.307 . S
C6 C4 1.486 . S
C6 H10 0.960 . S
C6 H11 0.960 . S
C6 H12 0.959 . S
H7 C3 0.960 . S
H8 C3 0.961 . S
H9 C3 0.960 . S
H10 C6 0.960 . S
H11 C6 0.960 . S
H12 C6 0.959 . S
C13 N14 1.317 . S
C13 N15 1.348 . S
C13 C16 1.485 . S
N14 C13 1.317 . S
N14 N18 1.370 . S
N15 C13 1.348 . S
N15 C17 1.346 . S
C16 C13 1.485 . S
C16 H20 0.960 . S
C16 H21 0.961 . S
C16 H22 0.960 . S
C17 N15 1.346 . S
C17 N18 1.307 . S
C17 C19 1.486 . S
N18 N14 1.370 . S
N18 C17 1.307 . S
C19 C17 1.486 . S
C19 H23 0.960 . S
C19 H24 0.960 . S
C19 H25 0.959 . S
H20 C16 0.960 . S
H21 C16 0.961 . S
H22 C16 0.960 . S
H23 C19 0.960 . S
H24 C19 0.960 . S
H25 C19 0.959 . S
C26 N27 1.317 . S
C26 N28 1.348 . S
C26 C29 1.485 . S
N27 C26 1.317 . S
N27 N31 1.370 . S
N28 C26 1.348 . S
N28 C30 1.346 . S
C29 C26 1.485 . S
C29 H33 0.960 . S
C29 H34 0.961 . S
C29 H35 0.960 . S
C30 N28 1.346 . S
C30 N31 1.307 . S
C30 C32 1.486 . S
N31 N27 1.370 . S
N31 C30 1.307 . S
C32 C30 1.486 . S
C32 H36 0.960 . S
C32 H37 0.960 . S
C32 H38 0.959 . S
H33 C29 0.960 . S
H34 C29 0.961 . S
H35 C29 0.960 . S
H36 C32 0.960 . S
H37 C32 0.960 . S
H38 C32 0.959 . S
C39 N40 1.317 . S
C39 N41 1.348 . S
C39 C42 1.485 . S
N40 C39 1.317 . S
N40 N44 1.370 . S
N41 C39 1.348 . S
N41 C43 1.346 . S
C42 C39 1.485 . S
C42 H46 0.960 . S
C42 H47 0.961 . S
C42 H48 0.960 . S
C43 N41 1.346 . S
C43 N44 1.307 . S
C43 C45 1.486 . S
N44 N40 1.370 . S
N44 C43 1.307 . S
C45 C43 1.486 . S
C45 H49 0.960 . S
C45 H50 0.960 . S
C45 H51 0.959 . S
H46 C42 0.960 . S
H47 C42 0.961 . S
H48 C42 0.960 . S
H49 C45 0.960 . S
H50 C45 0.960 . S
H51 C45 0.959 . S
C52 N53 1.317 . S
C52 N54 1.348 . S
C52 C55 1.485 . S
N53 C52 1.317 . S
N53 N57 1.370 . S
N54 C52 1.348 . S
N54 C56 1.346 . S
C55 C52 1.485 . S
C55 H59 0.960 . S
C55 H60 0.961 . S
C55 H61 0.960 . S
C56 N54 1.346 . S
C56 N57 1.307 . S
C56 C58 1.486 . S
N57 N53 1.370 . S
N57 C56 1.307 . S
C58 C56 1.486 . S
C58 H62 0.960 . S
C58 H63 0.960 . S
C58 H64 0.959 . S
H59 C55 0.960 . S
H60 C55 0.961 . S
H61 C55 0.960 . S
H62 C58 0.960 . S
H63 C58 0.960 . S
H64 C58 0.959 . S
C65 N66 1.317 . S
C65 N67 1.348 . S
C65 C68 1.485 . S
N66 C65 1.317 . S
N66 N70 1.370 . S
N67 C65 1.348 . S
N67 C69 1.346 . S
C68 C65 1.485 . S
C68 H72 0.960 . S
C68 H73 0.961 . S
C68 H74 0.960 . S
C69 N67 1.346 . S
C69 N70 1.307 . S
C69 C71 1.486 . S
N70 N66 1.370 . S
N70 C69 1.307 . S
C71 C69 1.486 . S
C71 H75 0.960 . S
C71 H76 0.960 . S
C71 H77 0.959 . S
H72 C68 0.960 . S
H73 C68 0.961 . S
H74 C68 0.960 . S
H75 C71 0.960 . S
H76 C71 0.960 . S
H77 C71 0.959 . S
C78 N79 1.317 . S
C78 N80 1.348 . S
C78 C81 1.485 . S
N79 C78 1.317 . S
N79 N83 1.370 . S
N80 C78 1.348 . S
N80 C82 1.346 . S
C81 C78 1.485 . S
C81 H85 0.960 . S
C81 H86 0.961 . S
C81 H87 0.960 . S
C82 N80 1.346 . S
C82 N83 1.307 . S
C82 C84 1.486 . S
N83 N79 1.370 . S
N83 C82 1.307 . S
C84 C82 1.486 . S
C84 H88 0.960 . S
C84 H89 0.960 . S
C84 H90 0.959 . S
H85 C81 0.960 . S
H86 C81 0.961 . S
H87 C81 0.960 . S
H88 C84 0.960 . S
H89 C84 0.960 . S
H90 C84 0.959 . S
C91 N92 1.317 . S
C91 N93 1.348 . S
C91 C94 1.485 . S
N92 C91 1.317 . S
N92 N96 1.370 . S
N93 C91 1.348 . S
N93 C95 1.346 . S
C94 C91 1.485 . S
C94 H98 0.960 . S
C94 H99 0.961 . S
C94 H100 0.960 . S
C95 N93 1.346 . S
C95 N96 1.307 . S
C95 C97 1.486 . S
N96 N92 1.370 . S
N96 C95 1.307 . S
C97 C95 1.486 . S
C97 H101 0.960 . S
C97 H102 0.960 . S
C97 H103 0.959 . S
H98 C94 0.960 . S
H99 C94 0.961 . S
H100 C94 0.960 . S
H101 C97 0.960 . S
H102 C97 0.960 . S
H103 C97 0.959 . S
Dy104 O107 2.307 1_545 S
Dy104 O109 2.395 . S
Dy104 O110 2.379 . S
Dy104 O112 2.339 1_545 S
Dy104 O114 2.298 . S
Dy104 O118 2.275 . S
Dy104 C126 2.738 . S
Dy105 O108 2.324 1_545 S
Dy105 O111 2.287 1_545 S
Dy105 O113 2.301 1_455 S
Dy105 O115 2.387 1_445 S
Dy105 O116 2.370 1_445 S
Dy105 O119 2.349 . S
Dy105 C135 2.729 1_445 S
C106 O118 1.254 . S
C106 O119 1.257 . S
O107 Dy104 2.307 1_565 S
O107 C117 1.266 . S
O108 Dy105 2.324 1_565 S
O108 C117 1.236 . S
O109 Dy104 2.395 . S
O109 C126 1.255 . S
O110 Dy104 2.379 . S
O110 C126 1.249 . S
O111 Dy105 2.287 1_565 S
O111 C127 1.254 . S
O112 Dy104 2.339 1_565 S
O112 C127 1.257 . S
O113 Dy105 2.301 1_655 S
O113 C128 1.266 1_655 S
O114 Dy104 2.298 . S
O114 C128 1.236 . S
O115 Dy105 2.387 1_665 S
O115 C135 1.255 . S
O116 Dy105 2.370 1_665 S
O116 C135 1.249 . S
C117 O107 1.266 . S
C117 O108 1.236 . S
O118 Dy104 2.275 . S
O118 C106 1.254 . S
O119 Dy105 2.349 . S
O119 C106 1.257 . S
C120 C123 1.344 . S
C120 C124 1.328 . S
C120 C126 1.516 . S
C121 C122 1.304 . S
C121 C125 1.323 . S
C122 C121 1.304 . S
C122 C123 1.371 . S
C122 H136 0.930 . S
C123 C120 1.344 . S
C123 C122 1.371 . S
C123 H137 0.931 . S
C124 C120 1.328 . S
C124 C125 1.433 . S
C124 H138 0.931 . S
C125 C121 1.323 . S
C125 C124 1.433 . S
C125 H139 0.933 . S
C126 Dy104 2.738 . S
C126 O109 1.255 . S
C126 O110 1.249 . S
C126 C120 1.516 . S
C127 O111 1.254 . S
C127 O112 1.257 . S
C128 O113 1.266 1_455 S
C128 O114 1.236 . S
C129 C132 1.344 . S
C129 C133 1.328 . S
C129 C135 1.516 . S
C130 C131 1.304 . S
C130 C134 1.323 . S
C131 C130 1.304 . S
C131 C132 1.371 . S
C131 H140 0.930 . S
C132 C129 1.344 . S
C132 C131 1.371 . S
C132 H141 0.931 . S
C133 C129 1.328 . S
C133 C134 1.433 . S
C133 H142 0.931 . S
C134 C130 1.323 . S
C134 C133 1.433 . S
C134 H143 0.933 . S
C135 Dy105 2.729 1_665 S
C135 O115 1.255 . S
C135 O116 1.249 . S
C135 C129 1.516 . S
H136 C122 0.930 . S
H137 C123 0.931 . S
H138 C124 0.931 . S
H139 C125 0.933 . S
H140 C131 0.930 . S
H141 C132 0.931 . S
H142 C133 0.931 . S
H143 C134 0.933 . S
Dy144 O147 2.307 . S
Dy144 O149 2.395 1_545 S
Dy144 O150 2.379 1_554 S
Dy144 O152 2.339 . S
Dy144 O154 2.311 . S
Dy144 O158 2.275 1_545 S
Dy144 C166 2.738 1_544 S
Dy145 O148 2.298 . S
Dy145 O151 2.275 . S
Dy145 O153 2.290 1_545 S
Dy145 O155 2.395 . S
Dy145 O156 2.379 . S
Dy145 O159 2.339 1_545 S
Dy145 C175 2.738 . S
C146 O158 1.254 . S
C146 O159 1.257 . S
O147 Dy144 2.307 . S
O147 C157 1.266 . S
O148 Dy145 2.298 . S
O148 C157 1.236 . S
O149 Dy144 2.395 1_565 S
O149 C166 1.255 1_554 S
O150 Dy144 2.379 1_556 S
O150 C166 1.249 1_545 S
O151 Dy145 2.275 . S
O151 C167 1.254 . S
O152 Dy144 2.339 . S
O152 C167 1.257 . S
O153 Dy145 2.290 1_565 S
O153 C168 1.271 . S
O154 Dy144 2.311 . S
O154 C168 1.224 1_545 S
O155 Dy145 2.395 . S
O155 C175 1.255 . S
O156 Dy145 2.379 . S
O156 C175 1.249 . S
C157 O147 1.266 . S
C157 O148 1.236 . S
O158 Dy144 2.275 1_565 S
O158 C146 1.254 . S
O159 Dy145 2.339 1_565 S
O159 C146 1.257 . S
C160 C163 1.344 . S
C160 C164 1.328 . S
C160 C166 1.516 . S
C161 C162 1.304 . S
C161 C165 1.323 . S
C162 C161 1.304 . S
C162 C163 1.371 . S
C162 H176 0.930 . S
C163 C160 1.344 . S
C163 C162 1.371 . S
C163 H177 0.931 . S
C164 C160 1.328 . S
C164 C165 1.433 . S
C164 H178 0.931 . S
C165 C161 1.323 . S
C165 C164 1.433 . S
C165 H179 0.933 . S
C166 Dy144 2.738 1_566 S
C166 O149 1.255 1_556 S
C166 O150 1.249 1_565 S
C166 C160 1.516 . S
C167 O151 1.254 . S
C167 O152 1.257 . S
C168 O153 1.271 . S
C168 O154 1.224 1_565 S
C169 C172 1.344 . S
C169 C173 1.328 . S
C169 C175 1.516 . S
C170 C171 1.304 . S
C170 C174 1.323 . S
C171 C170 1.304 . S
C171 C172 1.371 . S
C171 H180 0.930 . S
C172 C169 1.344 . S
C172 C171 1.371 . S
C172 H181 0.931 . S
C173 C169 1.328 . S
C173 C174 1.433 . S
C173 H182 0.931 . S
C174 C170 1.323 . S
C174 C173 1.433 . S
C174 H183 0.933 . S
C175 Dy145 2.738 . S
C175 O155 1.255 . S
C175 O156 1.249 . S
C175 C169 1.516 . S
H176 C162 0.930 . S
H177 C163 0.931 . S
H178 C164 0.931 . S
H179 C165 0.933 . S
H180 C171 0.930 . S
H181 C172 0.931 . S
H182 C173 0.931 . S
H183 C174 0.933 . S
Dy184 O187 2.307 . S
Dy184 O189 2.395 . S
Dy184 O190 2.379 . S
Dy184 O192 2.339 . S
Dy184 O194 2.298 . S
Dy184 O198 2.275 . S
Dy184 C206 2.738 . S
Dy185 O188 2.298 . S
Dy185 O191 2.275 . S
Dy185 O193 2.307 . S
Dy185 O195 2.395 . S
Dy185 O196 2.379 . S
Dy185 O199 2.339 . S
Dy185 C215 2.738 . S
C186 O198 1.254 . S
C186 O199 1.257 . S
O187 Dy184 2.307 . S
O187 C197 1.266 . S
O188 Dy185 2.298 . S
O188 C197 1.236 . S
O189 Dy184 2.395 . S
O189 C206 1.255 . S
O190 Dy184 2.379 . S
O190 C206 1.249 . S
O191 Dy185 2.275 . S
O191 C207 1.254 . S
O192 Dy184 2.339 . S
O192 C207 1.257 . S
O193 Dy185 2.307 . S
O193 C208 1.266 . S
O194 Dy184 2.298 . S
O194 C208 1.236 . S
O195 Dy185 2.395 . S
O195 C215 1.255 . S
O196 Dy185 2.379 . S
O196 C215 1.249 . S
C197 O187 1.266 . S
C197 O188 1.236 . S
O198 Dy184 2.275 . S
O198 C186 1.254 . S
O199 Dy185 2.339 . S
O199 C186 1.257 . S
C200 C203 1.344 . S
C200 C204 1.328 . S
C200 C206 1.516 . S
C201 C202 1.304 . S
C201 C205 1.323 . S
C202 C201 1.304 . S
C202 C203 1.371 . S
C202 H216 0.930 . S
C203 C200 1.344 . S
C203 C202 1.371 . S
C203 H217 0.931 . S
C204 C200 1.328 . S
C204 C205 1.433 . S
C204 H218 0.931 . S
C205 C201 1.323 . S
C205 C204 1.433 . S
C205 H219 0.933 . S
C206 Dy184 2.738 . S
C206 O189 1.255 . S
C206 O190 1.249 . S
C206 C200 1.516 . S
C207 O191 1.254 . S
C207 O192 1.257 . S
C208 O193 1.266 . S
C208 O194 1.236 . S
C209 C212 1.344 . S
C209 C213 1.328 . S
C209 C215 1.516 . S
C210 C211 1.304 . S
C210 C214 1.323 . S
C211 C210 1.304 . S
C211 C212 1.371 . S
C211 H220 0.930 . S
C212 C209 1.344 . S
C212 C211 1.371 . S
C212 H221 0.931 . S
C213 C209 1.328 . S
C213 C214 1.433 . S
C213 H222 0.931 . S
C214 C210 1.323 . S
C214 C213 1.433 . S
C214 H223 0.933 . S
C215 Dy185 2.738 . S
C215 O195 1.255 . S
C215 O196 1.249 . S
C215 C209 1.516 . S
H216 C202 0.930 . S
H217 C203 0.931 . S
H218 C204 0.931 . S
H219 C205 0.933 . S
H220 C211 0.930 . S
H221 C212 0.931 . S
H222 C213 0.931 . S
H223 C214 0.933 . S
Dy224 O227 2.307 1_556 S
Dy224 O229 2.395 1_455 S
Dy224 O230 2.379 1_455 S
Dy224 O232 2.339 . S
Dy224 O234 2.298 1_455 S
Dy224 O238 2.275 1_456 S
Dy224 C246 2.738 1_455 S
Dy225 O228 2.298 . S
Dy225 O231 2.275 1_554 S
Dy225 O233 2.307 1_455 S
Dy225 O235 2.395 . S
Dy225 O236 2.379 . S
Dy225 O239 2.339 1_455 S
Dy225 C255 2.738 . S
C226 O238 1.254 . S
C226 O239 1.257 . S
O227 Dy224 2.307 1_554 S
O227 C237 1.266 . S
O228 Dy225 2.298 . S
O228 C237 1.236 . S
O229 Dy224 2.395 1_655 S
O229 C246 1.255 . S
O230 Dy224 2.379 1_655 S
O230 C246 1.249 . S
O231 Dy225 2.275 1_556 S
O231 C247 1.254 . S
O232 Dy224 2.339 . S
O232 C247 1.257 . S
O233 Dy225 2.307 1_655 S
O233 C248 1.266 1_554 S
O234 Dy224 2.298 1_655 S
O234 C248 1.236 . S
O235 Dy225 2.395 . S
O235 C255 1.255 . S
O236 Dy225 2.379 . S
O236 C255 1.249 . S
C237 O227 1.266 . S
C237 O228 1.236 . S
O238 Dy224 2.275 1_654 S
O238 C226 1.254 . S
O239 Dy225 2.339 1_655 S
O239 C226 1.257 . S
C240 C243 1.344 . S
C240 C244 1.328 . S
C240 C246 1.516 . S
C241 C242 1.304 . S
C241 C245 1.323 . S
C242 C241 1.304 . S
C242 C243 1.371 . S
C242 H256 0.930 . S
C243 C240 1.344 . S
C243 C242 1.371 . S
C243 H257 0.931 . S
C244 C240 1.328 . S
C244 C245 1.433 . S
C244 H258 0.931 . S
C245 C241 1.323 . S
C245 C244 1.433 . S
C245 H259 0.933 . S
C246 Dy224 2.738 1_655 S
C246 O229 1.255 . S
C246 O230 1.249 . S
C246 C240 1.516 . S
C247 O231 1.254 . S
C247 O232 1.257 . S
C248 O233 1.266 1_556 S
C248 O234 1.236 . S
C249 C252 1.344 . S
C249 C253 1.328 . S
C249 C255 1.516 . S
C250 C251 1.304 . S
C250 C254 1.323 . S
C251 C250 1.304 . S
C251 C252 1.371 . S
C251 H260 0.930 . S
C252 C249 1.344 . S
C252 C251 1.371 . S
C252 H261 0.931 . S
C253 C249 1.328 . S
C253 C254 1.433 . S
C253 H262 0.931 . S
C254 C250 1.323 . S
C254 C253 1.433 . S
C254 H263 0.933 . S
C255 Dy225 2.738 . S
C255 O235 1.255 . S
C255 O236 1.249 . S
C255 C249 1.516 . S
H256 C242 0.930 . S
H257 C243 0.931 . S
H258 C244 0.931 . S
H259 C245 0.933 . S
H260 C251 0.930 . S
H261 C252 0.931 . S
H262 C253 0.931 . S
H263 C254 0.933 . S
C264 C265 1.349 . S
C264 C266 1.327 . S
C264 H289 0.950 . S
C265 C264 1.349 . S
C265 C281 1.349 . S
C266 C264 1.327 . S
C266 C285 1.429 . S
C266 H290 0.950 . S
C267 C284 1.574 . S
C267 C286 1.368 . S
C267 H291 0.949 . S
H268 C272 0.949 . S
C269 C270 1.349 . S
C269 C271 1.327 . S
C269 H292 0.950 . S
C270 C269 1.349 . S
C270 C282 1.349 . S
C271 C269 1.327 . S
C271 C287 1.429 . S
C271 H293 0.950 . S
C272 H268 0.949 . S
C272 C280 1.574 . S
C272 C288 1.368 . S
H273 C281 0.950 . S
H274 C279 0.950 . S
H275 C280 0.949 . S
H276 C282 0.950 . S
H277 C283 0.950 . S
H278 C284 0.949 . S
C279 H274 0.950 . S
C279 C281 1.327 . S
C279 C285 1.429 . S
C280 C272 1.574 . S
C280 H275 0.949 . S
C280 C286 1.368 . S
C281 C265 1.349 . S
C281 H273 0.950 . S
C281 C279 1.327 . S
C282 C270 1.349 . S
C282 H276 0.950 . S
C282 C283 1.327 . S
C283 H277 0.950 . S
C283 C282 1.327 . S
C283 C287 1.429 . S
C284 C267 1.574 . S
C284 H278 0.949 . S
C284 C288 1.368 . S
C285 C266 1.429 . S
C285 C279 1.429 . S
C285 C286 1.523 . S
C286 C267 1.368 . S
C286 C280 1.368 . S
C286 C285 1.523 . S
C287 C271 1.429 . S
C287 C283 1.429 . S
C287 C288 1.523 . S
C288 C272 1.368 . S
C288 C284 1.368 . S
C288 C287 1.523 . S
H289 C264 0.950 . S
H290 C266 0.950 . S
H291 C267 0.949 . S
H292 C269 0.950 . S
H293 C271 0.950 . S
C294 C295 1.349 . S
C294 C296 1.327 . S
C294 H319 0.950 . S
C295 C294 1.349 . S
C295 C311 1.349 . S
C296 C294 1.327 . S
C296 C315 1.429 . S
C296 H320 0.950 . S
C297 C314 1.574 . S
C297 C316 1.368 . S
C297 H321 0.949 . S
H298 C302 0.949 . S
C299 C300 1.349 . S
C299 C301 1.327 . S
C299 H322 0.950 . S
C300 C299 1.349 . S
C300 C312 1.349 . S
C301 C299 1.327 . S
C301 C317 1.429 . S
C301 H323 0.950 . S
C302 H298 0.949 . S
C302 C310 1.574 . S
C302 C318 1.368 . S
H303 C311 0.950 . S
H304 C309 0.950 . S
H305 C310 0.949 . S
H306 C312 0.950 . S
H307 C313 0.950 . S
H308 C314 0.949 . S
C309 H304 0.950 . S
C309 C311 1.327 . S
C309 C315 1.429 . S
C310 C302 1.574 . S
C310 H305 0.949 . S
C310 C316 1.368 . S
C311 C295 1.349 . S
C311 H303 0.950 . S
C311 C309 1.327 . S
C312 C300 1.349 . S
C312 H306 0.950 . S
C312 C313 1.327 . S
C313 H307 0.950 . S
C313 C312 1.327 . S
C313 C317 1.429 . S
C314 C297 1.574 . S
C314 H308 0.949 . S
C314 C318 1.368 . S
C315 C296 1.429 . S
C315 C309 1.429 . S
C315 C316 1.523 . S
C316 C297 1.368 . S
C316 C310 1.368 . S
C316 C315 1.523 . S
C317 C301 1.429 . S
C317 C313 1.429 . S
C317 C318 1.523 . S
C318 C302 1.368 . S
C318 C314 1.368 . S
C318 C317 1.523 . S
H319 C294 0.950 . S
H320 C296 0.950 . S
H321 C297 0.949 . S
H322 C299 0.950 . S
H323 C301 0.950 . S
C324 C325 1.349 . S
C324 C326 1.327 . S
C324 H349 0.950 . S
C325 C324 1.349 . S
C325 C341 1.349 . S
C326 C324 1.327 . S
C326 C345 1.429 . S
C326 H350 0.950 . S
C327 C344 1.574 . S
C327 C346 1.368 . S
C327 H351 0.949 . S
H328 C332 0.949 . S
C329 C330 1.349 . S
C329 C331 1.327 . S
C329 H352 0.950 . S
C330 C329 1.349 . S
C330 C342 1.349 . S
C331 C329 1.327 . S
C331 C347 1.429 . S
C331 H353 0.950 . S
C332 H328 0.949 . S
C332 C340 1.574 . S
C332 C348 1.368 . S
H333 C341 0.950 . S
H334 C339 0.950 . S
H335 C340 0.949 . S
H336 C342 0.950 . S
H337 C343 0.950 . S
H338 C344 0.949 . S
C339 H334 0.950 . S
C339 C341 1.327 . S
C339 C345 1.429 . S
C340 C332 1.574 . S
C340 H335 0.949 . S
C340 C346 1.368 . S
C341 C325 1.349 . S
C341 H333 0.950 . S
C341 C339 1.327 . S
C342 C330 1.349 . S
C342 H336 0.950 . S
C342 C343 1.327 . S
C343 H337 0.950 . S
C343 C342 1.327 . S
C343 C347 1.429 . S
C344 C327 1.574 . S
C344 H338 0.949 . S
C344 C348 1.368 . S
C345 C326 1.429 . S
C345 C339 1.429 . S
C345 C346 1.523 . S
C346 C327 1.368 . S
C346 C340 1.368 . S
C346 C345 1.523 . S
C347 C331 1.429 . S
C347 C343 1.429 . S
C347 C348 1.523 . S
C348 C332 1.368 . S
C348 C344 1.368 . S
C348 C347 1.523 . S
H349 C324 0.950 . S
H350 C326 0.950 . S
H351 C327 0.949 . S
H352 C329 0.950 . S
H353 C331 0.950 . S
C354 C355 1.349 . S
C354 C356 1.327 . S
C354 H379 0.950 . S
C355 C354 1.349 . S
C355 C371 1.349 . S
C356 C354 1.327 . S
C356 C375 1.429 . S
C356 H380 0.950 . S
C357 C374 1.574 . S
C357 C376 1.368 . S
C357 H381 0.949 . S
H358 C362 0.949 . S
C359 C360 1.349 . S
C359 C361 1.327 . S
C359 H382 0.950 . S
C360 C359 1.349 . S
C360 C372 1.349 . S
C361 C359 1.327 . S
C361 C377 1.429 . S
C361 H383 0.950 . S
C362 H358 0.949 . S
C362 C370 1.574 . S
C362 C378 1.368 . S
H363 C371 0.950 . S
H364 C369 0.950 . S
H365 C370 0.949 . S
H366 C372 0.950 . S
H367 C373 0.950 . S
H368 C374 0.949 . S
C369 H364 0.950 . S
C369 C371 1.327 . S
C369 C375 1.429 . S
C370 C362 1.574 . S
C370 H365 0.949 . S
C370 C376 1.368 . S
C371 C355 1.349 . S
C371 H363 0.950 . S
C371 C369 1.327 . S
C372 C360 1.349 . S
C372 H366 0.950 . S
C372 C373 1.327 . S
C373 H367 0.950 . S
C373 C372 1.327 . S
C373 C377 1.429 . S
C374 C357 1.574 . S
C374 H368 0.949 . S
C374 C378 1.368 . S
C375 C356 1.429 . S
C375 C369 1.429 . S
C375 C376 1.523 . S
C376 C357 1.368 . S
C376 C370 1.368 . S
C376 C375 1.523 . S
C377 C361 1.429 . S
C377 C373 1.429 . S
C377 C378 1.523 . S
C378 C362 1.368 . S
C378 C374 1.368 . S
C378 C377 1.523 . S
H379 C354 0.950 . S
H380 C356 0.950 . S
H381 C357 0.949 . S
H382 C359 0.950 . S
H383 C361 0.950 . S
C384 C385 1.349 . S
C384 C386 1.327 . S
C384 H409 0.950 . S
C385 C384 1.349 . S
C385 C401 1.349 . S
C386 C384 1.327 . S
C386 C405 1.429 . S
C386 H410 0.950 . S
C387 C404 1.574 . S
C387 C406 1.368 . S
C387 H411 0.949 . S
H388 C392 0.949 . S
C389 C390 1.349 . S
C389 C391 1.327 . S
C389 H412 0.950 . S
C390 C389 1.349 . S
C390 C402 1.349 . S
C391 C389 1.327 . S
C391 C407 1.429 . S
C391 H413 0.950 . S
C392 H388 0.949 . S
C392 C400 1.574 . S
C392 C408 1.368 . S
H393 C401 0.950 . S
H394 C399 0.950 . S
H395 C400 0.949 . S
H396 C402 0.950 . S
H397 C403 0.950 . S
H398 C404 0.949 . S
C399 H394 0.950 . S
C399 C401 1.327 . S
C399 C405 1.429 . S
C400 C392 1.574 . S
C400 H395 0.949 . S
C400 C406 1.368 . S
C401 C385 1.349 . S
C401 H393 0.950 . S
C401 C399 1.327 . S
C402 C390 1.349 . S
C402 H396 0.950 . S
C402 C403 1.327 . S
C403 H397 0.950 . S
C403 C402 1.327 . S
C403 C407 1.429 . S
C404 C387 1.574 . S
C404 H398 0.949 . S
C404 C408 1.368 . S
C405 C386 1.429 . S
C405 C399 1.429 . S
C405 C406 1.523 . S
C406 C387 1.368 . S
C406 C400 1.368 . S
C406 C405 1.523 . S
C407 C391 1.429 . S
C407 C403 1.429 . S
C407 C408 1.523 . S
C408 C392 1.368 . S
C408 C404 1.368 . S
C408 C407 1.523 . S
H409 C384 0.950 . S
H410 C386 0.950 . S
H411 C387 0.949 . S
H412 C389 0.950 . S
H413 C391 0.950 . S
C414 C415 1.349 . S
C414 C416 1.327 . S
C414 H439 0.950 . S
C415 C414 1.349 . S
C415 C431 1.349 . S
C416 C414 1.327 . S
C416 C435 1.429 . S
C416 H440 0.950 . S
C417 C434 1.574 . S
C417 C436 1.368 . S
C417 H441 0.949 . S
H418 C422 0.949 . S
C419 C420 1.349 . S
C419 C421 1.327 . S
C419 H442 0.950 . S
C420 C419 1.349 . S
C420 C432 1.349 . S
C421 C419 1.327 . S
C421 C437 1.429 . S
C421 H443 0.950 . S
C422 H418 0.949 . S
C422 C430 1.574 . S
C422 C438 1.368 . S
H423 C431 0.950 . S
H424 C429 0.950 . S
H425 C430 0.949 . S
H426 C432 0.950 . S
H427 C433 0.950 . S
H428 C434 0.949 . S
C429 H424 0.950 . S
C429 C431 1.327 . S
C429 C435 1.429 . S
C430 C422 1.574 . S
C430 H425 0.949 . S
C430 C436 1.368 . S
C431 C415 1.349 . S
C431 H423 0.950 . S
C431 C429 1.327 . S
C432 C420 1.349 . S
C432 H426 0.950 . S
C432 C433 1.327 . S
C433 H427 0.950 . S
C433 C432 1.327 . S
C433 C437 1.429 . S
C434 C417 1.574 . S
C434 H428 0.949 . S
C434 C438 1.368 . S
C435 C416 1.429 . S
C435 C429 1.429 . S
C435 C436 1.523 . S
C436 C417 1.368 . S
C436 C430 1.368 . S
C436 C435 1.523 . S
C437 C421 1.429 . S
C437 C433 1.429 . S
C437 C438 1.523 . S
C438 C422 1.368 . S
C438 C434 1.368 . S
C438 C437 1.523 . S
H439 C414 0.950 . S
H440 C416 0.950 . S
H441 C417 0.949 . S
H442 C419 0.950 . S
H443 C421 0.950 . S
C444 C445 1.349 . S
C444 C446 1.327 . S
C444 H469 0.950 . S
C445 C444 1.349 . S
C445 C461 1.349 . S
C446 C444 1.327 . S
C446 C465 1.429 . S
C446 H470 0.950 . S
C447 C464 1.574 . S
C447 C466 1.368 . S
C447 H471 0.949 . S
H448 C452 0.949 . S
C449 C450 1.349 . S
C449 C451 1.327 . S
C449 H472 0.950 . S
C450 C449 1.349 . S
C450 C462 1.349 . S
C451 C449 1.327 . S
C451 C467 1.429 . S
C451 H473 0.950 . S
C452 H448 0.949 . S
C452 C460 1.574 . S
C452 C468 1.368 . S
H453 C461 0.950 . S
H454 C459 0.950 . S
H455 C460 0.949 . S
H456 C462 0.950 . S
H457 C463 0.950 . S
H458 C464 0.949 . S
C459 H454 0.950 . S
C459 C461 1.327 . S
C459 C465 1.429 . S
C460 C452 1.574 . S
C460 H455 0.949 . S
C460 C466 1.368 . S
C461 C445 1.349 . S
C461 H453 0.950 . S
C461 C459 1.327 . S
C462 C450 1.349 . S
C462 H456 0.950 . S
C462 C463 1.327 . S
C463 H457 0.950 . S
C463 C462 1.327 . S
C463 C467 1.429 . S
C464 C447 1.574 . S
C464 H458 0.949 . S
C464 C468 1.368 . S
C465 C446 1.429 . S
C465 C459 1.429 . S
C465 C466 1.523 . S
C466 C447 1.368 . S
C466 C460 1.368 . S
C466 C465 1.523 . S
C467 C451 1.429 . S
C467 C463 1.429 . S
C467 C468 1.523 . S
C468 C452 1.368 . S
C468 C464 1.368 . S
C468 C467 1.523 . S
H469 C444 0.950 . S
H470 C446 0.950 . S
H471 C447 0.949 . S
H472 C449 0.950 . S
H473 C451 0.950 . S
C474 C475 1.349 . S
C474 C476 1.327 . S
C474 H499 0.950 . S
C475 C474 1.349 . S
C475 C491 1.349 . S
C476 C474 1.327 . S
C476 C495 1.429 . S
C476 H500 0.950 . S
C477 C494 1.574 . S
C477 C496 1.368 . S
C477 H501 0.949 . S
H478 C482 0.949 . S
C479 C480 1.349 . S
C479 C481 1.327 . S
C479 H502 0.950 . S
C480 C479 1.349 . S
C480 C492 1.349 . S
C481 C479 1.327 . S
C481 C497 1.429 . S
C481 H503 0.950 . S
C482 H478 0.949 . S
C482 C490 1.574 . S
C482 C498 1.368 . S
H483 C491 0.950 . S
H484 C489 0.950 . S
H485 C490 0.949 . S
H486 C492 0.950 . S
H487 C493 0.950 . S
H488 C494 0.949 . S
C489 H484 0.950 . S
C489 C491 1.327 . S
C489 C495 1.429 . S
C490 C482 1.574 . S
C490 H485 0.949 . S
C490 C496 1.368 . S
C491 C475 1.349 . S
C491 H483 0.950 . S
C491 C489 1.327 . S
C492 C480 1.349 . S
C492 H486 0.950 . S
C492 C493 1.327 . S
C493 H487 0.950 . S
C493 C492 1.327 . S
C493 C497 1.429 . S
C494 C477 1.574 . S
C494 H488 0.949 . S
C494 C498 1.368 . S
C495 C476 1.429 . S
C495 C489 1.429 . S
C495 C496 1.523 . S
C496 C477 1.368 . S
C496 C490 1.368 . S
C496 C495 1.523 . S
C497 C481 1.429 . S
C497 C493 1.429 . S
C497 C498 1.523 . S
C498 C482 1.368 . S
C498 C494 1.368 . S
C498 C497 1.523 . S
H499 C474 0.950 . S
H500 C476 0.950 . S
H501 C477 0.949 . S
H502 C479 0.950 . S
H503 C481 0.950 . S
C504 C505 1.349 . S
C504 C506 1.327 . S
C504 H529 0.950 . S
C505 C504 1.349 . S
C505 C521 1.349 . S
C506 C504 1.327 . S
C506 C525 1.429 . S
C506 H530 0.950 . S
C507 C524 1.574 . S
C507 C526 1.368 . S
C507 H531 0.949 . S
H508 C512 0.949 . S
C509 C510 1.349 . S
C509 C511 1.327 . S
C509 H532 0.950 . S
C510 C509 1.349 . S
C510 C522 1.349 . S
C511 C509 1.327 . S
C511 C527 1.429 . S
C511 H533 0.950 . S
C512 H508 0.949 . S
C512 C520 1.574 . S
C512 C528 1.368 . S
H513 C521 0.950 . S
H514 C519 0.950 . S
H515 C520 0.949 . S
H516 C522 0.950 . S
H517 C523 0.950 . S
H518 C524 0.949 . S
C519 H514 0.950 . S
C519 C521 1.327 . S
C519 C525 1.429 . S
C520 C512 1.574 . S
C520 H515 0.949 . S
C520 C526 1.368 . S
C521 C505 1.349 . S
C521 H513 0.950 . S
C521 C519 1.327 . S
C522 C510 1.349 . S
C522 H516 0.950 . S
C522 C523 1.327 . S
C523 H517 0.950 . S
C523 C522 1.327 . S
C523 C527 1.429 . S
C524 C507 1.574 . S
C524 H518 0.949 . S
C524 C528 1.368 . S
C525 C506 1.429 . S
C525 C519 1.429 . S
C525 C526 1.523 . S
C526 C507 1.368 . S
C526 C520 1.368 . S
C526 C525 1.523 . S
C527 C511 1.429 . S
C527 C523 1.429 . S
C527 C528 1.523 . S
C528 C512 1.368 . S
C528 C524 1.368 . S
C528 C527 1.523 . S
H529 C504 0.950 . S
H530 C506 0.950 . S
H531 C507 0.949 . S
H532 C509 0.950 . S
H533 C511 0.950 . S
C534 C535 1.349 . S
C534 C536 1.327 . S
C534 H559 0.950 . S
C535 C534 1.349 . S
C535 C551 1.349 . S
C536 C534 1.327 . S
C536 C555 1.429 . S
C536 H560 0.950 . S
C537 C554 1.574 . S
C537 C556 1.368 . S
C537 H561 0.949 . S
H538 C542 0.949 . S
C539 C540 1.349 1_554 S
C539 C541 1.327 1_554 S
C539 H562 0.950 . S
C540 C539 1.349 1_556 S
C540 C552 1.349 . S
C541 C539 1.327 1_556 S
C541 C557 1.429 . S
C541 H563 0.950 . S
C542 H538 0.949 . S
C542 C550 1.574 . S
C542 C558 1.368 . S
H543 C551 0.950 . S
H544 C549 0.950 . S
H545 C550 0.949 . S
H546 C552 0.950 . S
H547 C553 0.950 . S
H548 C554 0.949 . S
C549 H544 0.950 . S
C549 C551 1.327 . S
C549 C555 1.429 . S
C550 C542 1.574 . S
C550 H545 0.949 . S
C550 C556 1.368 . S
C551 C535 1.349 . S
C551 H543 0.950 . S
C551 C549 1.327 . S
C552 C540 1.349 . S
C552 H546 0.950 . S
C552 C553 1.327 . S
C553 H547 0.950 . S
C553 C552 1.327 . S
C553 C557 1.429 . S
C554 C537 1.574 . S
C554 H548 0.949 . S
C554 C558 1.368 . S
C555 C536 1.429 . S
C555 C549 1.429 . S
C555 C556 1.523 . S
C556 C537 1.368 . S
C556 C550 1.368 . S
C556 C555 1.523 . S
C557 C541 1.429 . S
C557 C553 1.429 . S
C557 C558 1.523 . S
C558 C542 1.368 . S
C558 C554 1.368 . S
C558 C557 1.523 . S
H559 C534 0.950 . S
H560 C536 0.950 . S
H561 C537 0.949 . S
H562 C539 0.950 . S
H563 C541 0.950 . S
C564 C565 1.349 . S
C564 C566 1.327 . S
C564 H589 0.950 . S
C565 C564 1.349 . S
C565 C581 1.349 . S
C566 C564 1.327 . S
C566 C585 1.429 . S
C566 H590 0.950 . S
C567 C584 1.574 . S
C567 C586 1.368 . S
C567 H591 0.949 . S
H568 C572 0.949 . S
C569 C570 1.349 1_455 S
C569 C571 1.327 1_455 S
C569 H592 0.950 . S
C570 C569 1.349 1_655 S
C570 C582 1.349 . S
C571 C569 1.327 1_655 S
C571 C587 1.429 . S
C571 H593 0.950 1_655 S
C572 H568 0.949 . S
C572 C580 1.574 . S
C572 C588 1.368 . S
H573 C581 0.950 . S
H574 C579 0.950 . S
H575 C580 0.949 . S
H576 C582 0.950 . S
H577 C583 0.950 . S
H578 C584 0.949 . S
C579 H574 0.950 . S
C579 C581 1.327 . S
C579 C585 1.429 . S
C580 C572 1.574 . S
C580 H575 0.949 . S
C580 C586 1.368 . S
C581 C565 1.349 . S
C581 H573 0.950 . S
C581 C579 1.327 . S
C582 C570 1.349 . S
C582 H576 0.950 . S
C582 C583 1.327 . S
C583 H577 0.950 . S
C583 C582 1.327 . S
C583 C587 1.429 . S
C584 C567 1.574 . S
C584 H578 0.949 . S
C584 C588 1.368 . S
C585 C566 1.429 . S
C585 C579 1.429 . S
C585 C586 1.523 . S
C586 C567 1.368 . S
C586 C580 1.368 . S
C586 C585 1.523 . S
C587 C571 1.429 . S
C587 C583 1.429 . S
C587 C588 1.523 . S
C588 C572 1.368 . S
C588 C584 1.368 . S
C588 C587 1.523 . S
H589 C564 0.950 . S
H590 C566 0.950 . S
H591 C567 0.949 . S
H592 C569 0.950 . S
H593 C571 0.950 1_455 S
C594 C595 1.349 . S
C594 C596 1.327 . S
C594 H619 0.950 . S
C595 C594 1.349 . S
C595 C611 1.349 . S
C596 C594 1.327 . S
C596 C615 1.429 . S
C596 H620 0.950 . S
C597 C614 1.574 . S
C597 C616 1.368 . S
C597 H621 0.949 . S
H598 C602 0.949 . S
C599 C600 1.349 . S
C599 C601 1.327 . S
C599 H622 0.950 . S
C600 C599 1.349 . S
C600 C612 1.349 . S
C601 C599 1.327 . S
C601 C617 1.429 . S
C601 H623 0.950 . S
C602 H598 0.949 . S
C602 C610 1.574 . S
C602 C618 1.368 . S
H603 C611 0.950 . S
H604 C609 0.950 . S
H605 C610 0.949 . S
H606 C612 0.950 . S
H607 C613 0.950 . S
H608 C614 0.949 . S
C609 H604 0.950 . S
C609 C611 1.327 . S
C609 C615 1.429 . S
C610 C602 1.574 . S
C610 H605 0.949 . S
C610 C616 1.368 . S
C611 C595 1.349 . S
C611 H603 0.950 . S
C611 C609 1.327 . S
C612 C600 1.349 . S
C612 H606 0.950 . S
C612 C613 1.327 . S
C613 H607 0.950 . S
C613 C612 1.327 . S
C613 C617 1.429 . S
C614 C597 1.574 . S
C614 H608 0.949 . S
C614 C618 1.368 . S
C615 C596 1.429 . S
C615 C609 1.429 . S
C615 C616 1.523 . S
C616 C597 1.368 . S
C616 C610 1.368 . S
C616 C615 1.523 . S
C617 C601 1.429 . S
C617 C613 1.429 . S
C617 C618 1.523 . S
C618 C602 1.368 . S
C618 C614 1.368 . S
C618 C617 1.523 . S
H619 C594 0.950 . S
H620 C596 0.950 . S
H621 C597 0.949 . S
H622 C599 0.950 . S
H623 C601 0.950 . S
C624 C625 1.349 . S
C624 C626 1.327 . S
C624 H649 0.950 . S
C625 C624 1.349 . S
C625 C641 1.349 . S
C626 C624 1.327 . S
C626 C645 1.429 . S
C626 H650 0.950 . S
C627 C644 1.574 . S
C627 C646 1.368 . S
C627 H651 0.949 . S
H628 C632 0.949 . S
C629 C630 1.349 . S
C629 C631 1.327 . S
C629 H652 0.950 . S
C630 C629 1.349 . S
C630 C642 1.349 . S
C631 C629 1.327 . S
C631 C647 1.429 . S
C631 H653 0.950 . S
C632 H628 0.949 . S
C632 C640 1.574 . S
C632 C648 1.368 . S
H633 C641 0.950 . S
H634 C639 0.950 . S
H635 C640 0.949 . S
H636 C642 0.950 . S
H637 C643 0.950 . S
H638 C644 0.949 . S
C639 H634 0.950 . S
C639 C641 1.327 . S
C639 C645 1.429 . S
C640 C632 1.574 . S
C640 H635 0.949 . S
C640 C646 1.368 . S
C641 C625 1.349 . S
C641 H633 0.950 . S
C641 C639 1.327 . S
C642 C630 1.349 . S
C642 H636 0.950 . S
C642 C643 1.327 . S
C643 H637 0.950 . S
C643 C642 1.327 . S
C643 C647 1.429 . S
C644 C627 1.574 . S
C644 H638 0.949 . S
C644 C648 1.368 . S
C645 C626 1.429 . S
C645 C639 1.429 . S
C645 C646 1.523 . S
C646 C627 1.368 . S
C646 C640 1.368 . S
C646 C645 1.523 . S
C647 C631 1.429 . S
C647 C643 1.429 . S
C647 C648 1.523 . S
C648 C632 1.368 . S
C648 C644 1.368 . S
C648 C647 1.523 . S
H649 C624 0.950 . S
H650 C626 0.950 . S
H651 C627 0.949 . S
H652 C629 0.950 . S
H653 C631 0.950 . S
C654 C655 1.349 . S
C654 C656 1.327 . S
C654 H679 0.950 . S
C655 C654 1.349 . S
C655 C671 1.349 . S
C656 C654 1.327 . S
C656 C675 1.429 . S
C656 H680 0.950 . S
C657 C674 1.574 . S
C657 C676 1.368 . S
C657 H681 0.949 . S
H658 C662 0.949 . S
C659 C660 1.349 . S
C659 C661 1.327 . S
C659 H682 0.950 . S
C660 C659 1.349 . S
C660 C672 1.349 . S
C661 C659 1.327 . S
C661 C677 1.429 . S
C661 H683 0.950 . S
C662 H658 0.949 . S
C662 C670 1.574 . S
C662 C678 1.368 . S
H663 C671 0.950 . S
H664 C669 0.950 . S
H665 C670 0.949 . S
H666 C672 0.950 . S
H667 C673 0.950 . S
H668 C674 0.949 . S
C669 H664 0.950 . S
C669 C671 1.327 . S
C669 C675 1.429 . S
C670 C662 1.574 . S
C670 H665 0.949 . S
C670 C676 1.368 . S
C671 C655 1.349 . S
C671 H663 0.950 . S
C671 C669 1.327 . S
C672 C660 1.349 . S
C672 H666 0.950 . S
C672 C673 1.327 . S
C673 H667 0.950 . S
C673 C672 1.327 . S
C673 C677 1.429 . S
C674 C657 1.574 . S
C674 H668 0.949 . S
C674 C678 1.368 . S
C675 C656 1.429 . S
C675 C669 1.429 . S
C675 C676 1.523 . S
C676 C657 1.368 . S
C676 C670 1.368 . S
C676 C675 1.523 . S
C677 C661 1.429 . S
C677 C673 1.429 . S
C677 C678 1.523 . S
C678 C662 1.368 . S
C678 C674 1.368 . S
C678 C677 1.523 . S
H679 C654 0.950 . S
H680 C656 0.950 . S
H681 C657 0.949 . S
H682 C659 0.950 . S
H683 C661 0.950 . S
C684 C685 1.349 . S
C684 C686 1.327 . S
C684 H709 0.950 . S
C685 C684 1.349 . S
C685 C701 1.349 . S
C686 C684 1.327 . S
C686 C705 1.429 . S
C686 H710 0.950 . S
C687 C704 1.574 . S
C687 C706 1.368 . S
C687 H711 0.949 . S
H688 C692 0.949 . S
C689 C690 1.349 . S
C689 C691 1.327 . S
C689 H712 0.950 . S
C690 C689 1.349 . S
C690 C702 1.349 . S
C691 C689 1.327 . S
C691 C707 1.429 . S
C691 H713 0.950 . S
C692 H688 0.949 . S
C692 C700 1.574 . S
C692 C708 1.368 . S
H693 C701 0.950 . S
H694 C699 0.950 . S
H695 C700 0.949 . S
H696 C702 0.950 . S
H697 C703 0.950 . S
H698 C704 0.949 . S
C699 H694 0.950 . S
C699 C701 1.327 . S
C699 C705 1.429 . S
C700 C692 1.574 . S
C700 H695 0.949 . S
C700 C706 1.368 . S
C701 C685 1.349 . S
C701 H693 0.950 . S
C701 C699 1.327 . S
C702 C690 1.349 . S
C702 H696 0.950 . S
C702 C703 1.327 . S
C703 H697 0.950 . S
C703 C702 1.327 . S
C703 C707 1.429 . S
C704 C687 1.574 . S
C704 H698 0.949 . S
C704 C708 1.368 . S
C705 C686 1.429 . S
C705 C699 1.429 . S
C705 C706 1.523 . S
C706 C687 1.368 . S
C706 C700 1.368 . S
C706 C705 1.523 . S
C707 C691 1.429 . S
C707 C703 1.429 . S
C707 C708 1.523 . S
C708 C692 1.368 . S
C708 C704 1.368 . S
C708 C707 1.523 . S
H709 C684 0.950 . S
H710 C686 0.950 . S
H711 C687 0.949 . S
H712 C689 0.950 . S
H713 C691 0.950 . S
C714 C715 1.349 . S
C714 C716 1.327 . S
C714 H739 0.950 . S
C715 C714 1.349 . S
C715 C731 1.349 . S
C716 C714 1.327 . S
C716 C735 1.429 . S
C716 H740 0.950 . S
C717 C734 1.574 . S
C717 C736 1.368 . S
C717 H741 0.949 . S
H718 C722 0.949 . S
C719 C720 1.349 . S
C719 C721 1.327 . S
C719 H742 0.950 . S
C720 C719 1.349 . S
C720 C732 1.349 . S
C721 C719 1.327 . S
C721 C737 1.429 . S
C721 H743 0.950 . S
C722 H718 0.949 . S
C722 C730 1.574 . S
C722 C738 1.368 . S
H723 C731 0.950 . S
H724 C729 0.950 . S
H725 C730 0.949 . S
H726 C732 0.950 . S
H727 C733 0.950 . S
H728 C734 0.949 . S
C729 H724 0.950 . S
C729 C731 1.327 . S
C729 C735 1.429 . S
C730 C722 1.574 . S
C730 H725 0.949 . S
C730 C736 1.368 . S
C731 C715 1.349 . S
C731 H723 0.950 . S
C731 C729 1.327 . S
C732 C720 1.349 . S
C732 H726 0.950 . S
C732 C733 1.327 . S
C733 H727 0.950 . S
C733 C732 1.327 . S
C733 C737 1.429 . S
C734 C717 1.574 . S
C734 H728 0.949 . S
C734 C738 1.368 . S
C735 C716 1.429 . S
C735 C729 1.429 . S
C735 C736 1.523 . S
C736 C717 1.368 . S
C736 C730 1.368 . S
C736 C735 1.523 . S
C737 C721 1.429 . S
C737 C733 1.429 . S
C737 C738 1.523 . S
C738 C722 1.368 . S
C738 C734 1.368 . S
C738 C737 1.523 . S
H739 C714 0.950 . S
H740 C716 0.950 . S
H741 C717 0.949 . S
H742 C719 0.950 . S
H743 C721 0.950 . S
C744 C745 1.349 . S
C744 C746 1.327 . S
C744 H769 0.950 . S
C745 C744 1.349 . S
C745 C761 1.349 . S
C746 C744 1.327 . S
C746 C765 1.429 . S
C746 H770 0.950 . S
C747 C764 1.574 . S
C747 C766 1.368 . S
C747 H771 0.949 . S
H748 C752 0.949 . S
C749 C750 1.349 . S
C749 C751 1.328 1_554 S
C749 H772 0.949 . S
C750 C749 1.349 . S
C750 C762 1.349 1_554 S
C751 C749 1.328 1_556 S
C751 C767 1.429 . S
C751 H773 0.950 . S
C752 H748 0.949 . S
C752 C760 1.574 . S
C752 C768 1.368 . S
H753 C761 0.950 . S
H754 C759 0.950 . S
H755 C760 0.949 . S
H756 C762 0.950 . S
H757 C763 0.950 . S
H758 C764 0.949 . S
C759 H754 0.950 . S
C759 C761 1.327 . S
C759 C765 1.429 . S
C760 C752 1.574 . S
C760 H755 0.949 . S
C760 C766 1.368 . S
C761 C745 1.349 . S
C761 H753 0.950 . S
C761 C759 1.327 . S
C762 C750 1.349 1_556 S
C762 H756 0.950 . S
C762 C763 1.327 . S
C763 H757 0.950 . S
C763 C762 1.327 . S
C763 C767 1.429 . S
C764 C747 1.574 . S
C764 H758 0.949 . S
C764 C768 1.368 . S
C765 C746 1.429 . S
C765 C759 1.429 . S
C765 C766 1.523 . S
C766 C747 1.368 . S
C766 C760 1.368 . S
C766 C765 1.523 . S
C767 C751 1.429 . S
C767 C763 1.429 . S
C767 C768 1.523 . S
C768 C752 1.368 . S
C768 C764 1.368 . S
C768 C767 1.523 . S
H769 C744 0.950 . S
H770 C746 0.950 . S
H771 C747 0.949 . S
H772 C749 0.949 . S
H773 C751 0.950 . S
C774 C775 1.349 . S
C774 C776 1.327 . S
C774 H799 0.950 . S
C775 C774 1.349 . S
C775 C791 1.349 . S
C776 C774 1.327 . S
C776 C795 1.429 . S
C776 H800 0.950 . S
C777 C794 1.574 . S
C777 C796 1.368 . S
C777 H801 0.949 . S
H778 C782 0.949 . S
C779 C780 1.349 . S
C779 C781 1.327 . S
C779 H802 0.950 1_655 S
C780 C779 1.349 . S
C780 C792 1.349 . S
C781 C779 1.327 . S
C781 C797 1.429 . S
C781 H803 0.950 . S
C782 H778 0.949 . S
C782 C790 1.574 . S
C782 C798 1.368 . S
H783 C791 0.950 . S
H784 C789 0.950 . S
H785 C790 0.949 . S
H786 C792 0.950 . S
H787 C793 0.950 . S
H788 C794 0.949 . S
C789 H784 0.950 . S
C789 C791 1.327 . S
C789 C795 1.429 . S
C790 C782 1.574 . S
C790 H785 0.949 . S
C790 C796 1.368 . S
C791 C775 1.349 . S
C791 H783 0.950 . S
C791 C789 1.327 . S
C792 C780 1.349 . S
C792 H786 0.950 . S
C792 C793 1.327 . S
C793 H787 0.950 . S
C793 C792 1.327 . S
C793 C797 1.429 . S
C794 C777 1.574 . S
C794 H788 0.949 . S
C794 C798 1.368 . S
C795 C776 1.429 . S
C795 C789 1.429 . S
C795 C796 1.523 . S
C796 C777 1.368 . S
C796 C790 1.368 . S
C796 C795 1.523 . S
C797 C781 1.429 . S
C797 C793 1.429 . S
C797 C798 1.523 . S
C798 C782 1.368 . S
C798 C794 1.368 . S
C798 C797 1.523 . S
H799 C774 0.950 . S
H800 C776 0.950 . S
H801 C777 0.949 . S
H802 C779 0.950 1_455 S
H803 C781 0.950 . S
C804 C805 1.349 . S
C804 C806 1.327 . S
C804 H829 0.950 . S
C805 C804 1.349 . S
C805 C821 1.349 . S
C806 C804 1.327 . S
C806 C825 1.429 . S
C806 H830 0.950 . S
C807 C824 1.574 . S
C807 C826 1.368 . S
C807 H831 0.949 . S
H808 C812 0.949 . S
C809 C810 1.349 . S
C809 C811 1.327 . S
C809 H832 0.950 . S
C810 C809 1.349 . S
C810 C822 1.349 . S
C811 C809 1.327 . S
C811 C827 1.429 . S
C811 H833 0.950 . S
C812 H808 0.949 . S
C812 C820 1.574 . S
C812 C828 1.368 . S
H813 C821 0.950 . S
H814 C819 0.950 . S
H815 C820 0.949 . S
H816 C822 0.950 . S
H817 C823 0.950 . S
H818 C824 0.949 . S
C819 H814 0.950 . S
C819 C821 1.327 . S
C819 C825 1.429 . S
C820 C812 1.574 . S
C820 H815 0.949 . S
C820 C826 1.368 . S
C821 C805 1.349 . S
C821 H813 0.950 . S
C821 C819 1.327 . S
C822 C810 1.349 . S
C822 H816 0.950 . S
C822 C823 1.327 . S
C823 H817 0.950 . S
C823 C822 1.327 . S
C823 C827 1.429 . S
C824 C807 1.574 . S
C824 H818 0.949 . S
C824 C828 1.368 . S
C825 C806 1.429 . S
C825 C819 1.429 . S
C825 C826 1.523 . S
C826 C807 1.368 . S
C826 C820 1.368 . S
C826 C825 1.523 . S
C827 C811 1.429 . S
C827 C823 1.429 . S
C827 C828 1.523 . S
C828 C812 1.368 . S
C828 C824 1.368 . S
C828 C827 1.523 . S
H829 C804 0.950 . S
H830 C806 0.950 . S
H831 C807 0.949 . S
H832 C809 0.950 . S
H833 C811 0.950 . S
C834 C835 1.349 . S
C834 C836 1.327 . S
C834 H859 0.950 . S
C835 C834 1.349 . S
C835 C851 1.349 . S
C836 C834 1.327 . S
C836 C855 1.429 . S
C836 H860 0.950 . S
C837 C854 1.574 . S
C837 C856 1.368 . S
C837 H861 0.949 . S
H838 C842 0.949 . S
C839 C840 1.349 . S
C839 C841 1.327 . S
C839 H862 0.950 . S
C840 C839 1.349 . S
C840 C852 1.349 . S
C841 C839 1.327 . S
C841 C857 1.429 . S
C841 H863 0.950 . S
C842 H838 0.949 . S
C842 C850 1.574 . S
C842 C858 1.368 . S
H843 C851 0.950 . S
H844 C849 0.950 . S
H845 C850 0.949 . S
H846 C852 0.950 . S
H847 C853 0.950 . S
H848 C854 0.949 . S
C849 H844 0.950 . S
C849 C851 1.327 . S
C849 C855 1.429 . S
C850 C842 1.574 . S
C850 H845 0.949 . S
C850 C856 1.368 . S
C851 C835 1.349 . S
C851 H843 0.950 . S
C851 C849 1.327 . S
C852 C840 1.349 . S
C852 H846 0.950 . S
C852 C853 1.327 . S
C853 H847 0.950 . S
C853 C852 1.327 . S
C853 C857 1.429 . S
C854 C837 1.574 . S
C854 H848 0.949 . S
C854 C858 1.368 . S
C855 C836 1.429 . S
C855 C849 1.429 . S
C855 C856 1.523 . S
C856 C837 1.368 . S
C856 C850 1.368 . S
C856 C855 1.523 . S
C857 C841 1.429 . S
C857 C853 1.429 . S
C857 C858 1.523 . S
C858 C842 1.368 . S
C858 C854 1.368 . S
C858 C857 1.523 . S
H859 C834 0.950 . S
H860 C836 0.950 . S
H861 C837 0.949 . S
H862 C839 0.950 . S
H863 C841 0.950 . S
C864 C865 1.349 . S
C864 C866 1.327 . S
C864 H889 0.950 . S
C865 C864 1.349 . S
C865 C881 1.349 . S
C866 C864 1.327 . S
C866 C885 1.429 . S
C866 H890 0.950 . S
C867 C884 1.574 . S
C867 C886 1.368 . S
C867 H891 0.949 . S
H868 C872 0.949 . S
C869 C870 1.349 . S
C869 C871 1.327 . S
C869 H892 0.950 . S
C870 C869 1.349 . S
C870 C882 1.349 . S
C871 C869 1.327 . S
C871 C887 1.429 . S
C871 H893 0.950 . S
C872 H868 0.949 . S
C872 C880 1.574 . S
C872 C888 1.368 . S
H873 C881 0.950 . S
H874 C879 0.950 . S
H875 C880 0.949 . S
H876 C882 0.950 . S
H877 C883 0.950 . S
H878 C884 0.949 . S
C879 H874 0.950 . S
C879 C881 1.327 . S
C879 C885 1.429 . S
C880 C872 1.574 . S
C880 H875 0.949 . S
C880 C886 1.368 . S
C881 C865 1.349 . S
C881 H873 0.950 . S
C881 C879 1.327 . S
C882 C870 1.349 . S
C882 H876 0.950 . S
C882 C883 1.327 . S
C883 H877 0.950 . S
C883 C882 1.327 . S
C883 C887 1.429 . S
C884 C867 1.574 . S
C884 H878 0.949 . S
C884 C888 1.368 . S
C885 C866 1.429 . S
C885 C879 1.429 . S
C885 C886 1.523 . S
C886 C867 1.368 . S
C886 C880 1.368 . S
C886 C885 1.523 . S
C887 C871 1.429 . S
C887 C883 1.429 . S
C887 C888 1.523 . S
C888 C872 1.368 . S
C888 C884 1.368 . S
C888 C887 1.523 . S
H889 C864 0.950 . S
H890 C866 0.950 . S
H891 C867 0.949 . S
H892 C869 0.950 . S
H893 C871 0.950 . S
C894 C895 1.349 . S
C894 C896 1.327 . S
C894 H919 0.950 . S
C895 C894 1.349 . S
C895 C911 1.349 . S
C896 C894 1.327 . S
C896 C915 1.429 . S
C896 H920 0.950 . S
C897 C914 1.574 . S
C897 C916 1.368 . S
C897 H921 0.949 . S
H898 C902 0.949 . S
C899 C900 1.349 . S
C899 C901 1.327 . S
C899 H922 0.950 . S
C900 C899 1.349 . S
C900 C912 1.349 . S
C901 C899 1.327 . S
C901 C917 1.429 . S
C901 H923 0.950 . S
C902 H898 0.949 . S
C902 C910 1.574 . S
C902 C918 1.368 . S
H903 C911 0.950 . S
H904 C909 0.950 . S
H905 C910 0.949 . S
H906 C912 0.950 . S
H907 C913 0.950 . S
H908 C914 0.949 . S
C909 H904 0.950 . S
C909 C911 1.327 . S
C909 C915 1.429 . S
C910 C902 1.574 . S
C910 H905 0.949 . S
C910 C916 1.368 . S
C911 C895 1.349 . S
C911 H903 0.950 . S
C911 C909 1.327 . S
C912 C900 1.349 . S
C912 H906 0.950 . S
C912 C913 1.327 . S
C913 H907 0.950 . S
C913 C912 1.327 . S
C913 C917 1.429 . S
C914 C897 1.574 . S
C914 H908 0.949 . S
C914 C918 1.368 . S
C915 C896 1.429 . S
C915 C909 1.429 . S
C915 C916 1.523 . S
C916 C897 1.368 . S
C916 C910 1.368 . S
C916 C915 1.523 . S
C917 C901 1.429 . S
C917 C913 1.429 . S
C917 C918 1.523 . S
C918 C902 1.368 . S
C918 C914 1.368 . S
C918 C917 1.523 . S
H919 C894 0.950 . S
H920 C896 0.950 . S
H921 C897 0.949 . S
H922 C899 0.950 . S
H923 C901 0.950 . S
C924 C925 1.349 . S
C924 C926 1.327 . S
C924 H949 0.950 . S
C925 C924 1.349 . S
C925 C941 1.349 . S
C926 C924 1.327 . S
C926 C945 1.429 . S
C926 H950 0.950 . S
C927 C944 1.574 . S
C927 C946 1.368 . S
C927 H951 0.949 . S
H928 C932 0.949 . S
C929 C930 1.349 . S
C929 C931 1.327 . S
C929 H952 0.950 . S
C930 C929 1.349 . S
C930 C942 1.349 . S
C931 C929 1.327 . S
C931 C947 1.429 . S
C931 H953 0.950 . S
C932 H928 0.949 . S
C932 C940 1.574 . S
C932 C948 1.368 . S
H933 C941 0.950 . S
H934 C939 0.950 . S
H935 C940 0.949 . S
H936 C942 0.950 . S
H937 C943 0.950 . S
H938 C944 0.949 . S
C939 H934 0.950 . S
C939 C941 1.327 . S
C939 C945 1.429 . S
C940 C932 1.574 . S
C940 H935 0.949 . S
C940 C946 1.368 . S
C941 C925 1.349 . S
C941 H933 0.950 . S
C941 C939 1.327 . S
C942 C930 1.349 . S
C942 H936 0.950 . S
C942 C943 1.327 . S
C943 H937 0.950 . S
C943 C942 1.327 . S
C943 C947 1.429 . S
C944 C927 1.574 . S
C944 H938 0.949 . S
C944 C948 1.368 . S
C945 C926 1.429 . S
C945 C939 1.429 . S
C945 C946 1.523 . S
C946 C927 1.368 . S
C946 C940 1.368 . S
C946 C945 1.523 . S
C947 C931 1.429 . S
C947 C943 1.429 . S
C947 C948 1.523 . S
C948 C932 1.368 . S
C948 C944 1.368 . S
C948 C947 1.523 . S
H949 C924 0.950 . S
H950 C926 0.950 . S
H951 C927 0.949 . S
H952 C929 0.950 . S
H953 C931 0.950 . S
C954 C955 1.349 . S
C954 C956 1.327 . S
C954 H979 0.950 . S
C955 C954 1.349 . S
C955 C971 1.349 . S
C956 C954 1.327 . S
C956 C975 1.429 . S
C956 H980 0.950 . S
C957 C974 1.574 . S
C957 C976 1.368 . S
C957 H981 0.949 . S
H958 C962 0.949 . S
C959 C960 1.349 . S
C959 C961 1.327 . S
C959 H982 0.950 . S
C960 C959 1.349 . S
C960 C972 1.349 . S
C961 C959 1.327 . S
C961 C977 1.429 . S
C961 H983 0.950 . S
C962 H958 0.949 . S
C962 C970 1.574 . S
C962 C978 1.368 . S
H963 C971 0.950 . S
H964 C969 0.950 . S
H965 C970 0.949 . S
H966 C972 0.950 . S
H967 C973 0.950 . S
H968 C974 0.949 . S
C969 H964 0.950 . S
C969 C971 1.327 . S
C969 C975 1.429 . S
C970 C962 1.574 . S
C970 H965 0.949 . S
C970 C976 1.368 . S
C971 C955 1.349 . S
C971 H963 0.950 . S
C971 C969 1.327 . S
C972 C960 1.349 . S
C972 H966 0.950 . S
C972 C973 1.327 . S
C973 H967 0.950 . S
C973 C972 1.327 . S
C973 C977 1.429 . S
C974 C957 1.574 . S
C974 H968 0.949 . S
C974 C978 1.368 . S
C975 C956 1.429 . S
C975 C969 1.429 . S
C975 C976 1.523 . S
C976 C957 1.368 . S
C976 C970 1.368 . S
C976 C975 1.523 . S
C977 C961 1.429 . S
C977 C973 1.429 . S
C977 C978 1.523 . S
C978 C962 1.368 . S
C978 C974 1.368 . S
C978 C977 1.523 . S
H979 C954 0.950 . S
H980 C956 0.950 . S
H981 C957 0.949 . S
H982 C959 0.950 . S
H983 C961 0.950 . S
C265 N1 0.907 . S
C270 C121 0.923 . S
C295 N18 1.174 . S
C300 C161 1.222 . S
C330 C186 1.844 . S
C325 N28 1.895 . S
C355 N40 2.632 . S
C360 C226 2.623 . S
C390 C157 2.049 . S
C385 N5 2.021 . S
C420 C117 1.578 . S
C415 N14 1.514 . S
C450 C248 1.707 . S
C445 N31 1.709 . S
C480 C208 1.325 . S
C475 N41 1.339 . S
C505 N2 1.036 . S
C510 C250 1.045 . S
C540 C167 2.330 1_556 S
C535 N27 2.365 . S
C565 N44 2.303 . S
C570 C127 2.340 1_655 S
C595 N15 0.909 . S
C600 C210 0.918 . S
C630 C130 1.540 . S
C625 N57 1.533 . S
C655 N70 0.869 . S
C660 C170 0.893 . S
C685 N79 2.154 . S
C690 C207 2.167 . S
C715 N93 2.319 . S
C720 C247 2.285 . S
C745 N54 1.511 . S
C750 C168 1.555 . S
C780 C128 2.280 1_655 S
C775 N66 2.266 . S
C810 C237 1.040 . S
C805 N80 1.057 . S
C840 C197 1.622 . S
C835 N96 1.643 . S
C865 N53 1.166 . S
C870 C241 1.175 . S
C900 C146 1.808 . S
C895 N83 1.764 . S
C930 C106 2.379 . S
C925 N92 2.428 . S
C955 N67 1.145 . S
C960 C201 1.149 . S
