# Generated by pormake.
# Topology bwt, (3,3)-cn, num edge types: 1
# Building blocks:
#     Node 0, Type 0, BuildingBlock: WUSLED_clean_sbu_0, # of connection points: 3
#     Node 1, Type 0, BuildingBlock: WUSLED_clean_sbu_0, # of connection points: 3
#     Node 2, Type 0, BuildingBlock: WUSLED_clean_sbu_0, # of connection points: 3
#     Node 3, Type 0, BuildingBlock: WUSLED_clean_sbu_0, # of connection points: 3
#     Node 4, Type 0, BuildingBlock: WUSLED_clean_sbu_0, # of connection points: 3
#     Node 5, Type 0, BuildingBlock: WUSLED_clean_sbu_0, # of connection points: 3
#     Node 6, Type 0, BuildingBlock: WUSLED_clean_sbu_0, # of connection points: 3
#     Node 7, Type 0, BuildingBlock: WUSLED_clean_sbu_0, # of connection points: 3
#     Node 8, Type 0, BuildingBlock: WUSLED_clean_sbu_0, # of connection points: 3
#     Node 9, Type 0, BuildingBlock: WUSLED_clean_sbu_0, # of connection points: 3
#     Node 10, Type 0, BuildingBlock: WUSLED_clean_sbu_0, # of connection points: 3
#     Node 11, Type 0, BuildingBlock: WUSLED_clean_sbu_0, # of connection points: 3
#     Node 12, Type 0, BuildingBlock: WUSLED_clean_sbu_0, # of connection points: 3
#     Node 13, Type 0, BuildingBlock: WUSLED_clean_sbu_0, # of connection points: 3
#     Node 14, Type 0, BuildingBlock: WUSLED_clean_sbu_0, # of connection points: 3
#     Node 15, Type 0, BuildingBlock: WUSLED_clean_sbu_0, # of connection points: 3
#     Node 16, Type 0, BuildingBlock: WUSLED_clean_sbu_0, # of connection points: 3
#     Node 17, Type 0, BuildingBlock: WUSLED_clean_sbu_0, # of connection points: 3
#     Node 18, Type 0, BuildingBlock: WUSLED_clean_sbu_0, # of connection points: 3
#     Node 19, Type 0, BuildingBlock: WUSLED_clean_sbu_0, # of connection points: 3
#     Node 20, Type 0, BuildingBlock: WUSLED_clean_sbu_0, # of connection points: 3
#     Node 21, Type 0, BuildingBlock: WUSLED_clean_sbu_0, # of connection points: 3
#     Node 22, Type 0, BuildingBlock: WUSLED_clean_sbu_0, # of connection points: 3
#     Node 23, Type 0, BuildingBlock: WUSLED_clean_sbu_0, # of connection points: 3
#     Node 24, Type 1, BuildingBlock: QEWDON_clean_linker_0, # of connection points: 3
#     Node 25, Type 1, BuildingBlock: QEWDON_clean_linker_0, # of connection points: 3
#     Node 26, Type 1, BuildingBlock: QEWDON_clean_linker_0, # of connection points: 3
#     Node 27, Type 1, BuildingBlock: QEWDON_clean_linker_0, # of connection points: 3
#     Node 28, Type 1, BuildingBlock: QEWDON_clean_linker_0, # of connection points: 3
#     Node 29, Type 1, BuildingBlock: QEWDON_clean_linker_0, # of connection points: 3
#     Node 30, Type 1, BuildingBlock: QEWDON_clean_linker_0, # of connection points: 3
#     Node 31, Type 1, BuildingBlock: QEWDON_clean_linker_0, # of connection points: 3
#     Node 32, Type 1, BuildingBlock: QEWDON_clean_linker_0, # of connection points: 3
#     Node 33, Type 1, BuildingBlock: QEWDON_clean_linker_0, # of connection points: 3
#     Node 34, Type 1, BuildingBlock: QEWDON_clean_linker_0, # of connection points: 3
#     Node 35, Type 1, BuildingBlock: QEWDON_clean_linker_0, # of connection points: 3
#     Node 36, Type 1, BuildingBlock: QEWDON_clean_linker_0, # of connection points: 3
#     Node 37, Type 1, BuildingBlock: QEWDON_clean_linker_0, # of connection points: 3
#     Node 38, Type 1, BuildingBlock: QEWDON_clean_linker_0, # of connection points: 3
#     Node 39, Type 1, BuildingBlock: QEWDON_clean_linker_0, # of connection points: 3
#     Node 40, Type 1, BuildingBlock: QEWDON_clean_linker_0, # of connection points: 3
#     Node 41, Type 1, BuildingBlock: QEWDON_clean_linker_0, # of connection points: 3
#     Node 42, Type 1, BuildingBlock: QEWDON_clean_linker_0, # of connection points: 3
#     Node 43, Type 1, BuildingBlock: QEWDON_clean_linker_0, # of connection points: 3
#     Node 44, Type 1, BuildingBlock: QEWDON_clean_linker_0, # of connection points: 3
#     Node 45, Type 1, BuildingBlock: QEWDON_clean_linker_0, # of connection points: 3
#     Node 46, Type 1, BuildingBlock: QEWDON_clean_linker_0, # of connection points: 3
#     Node 47, Type 1, BuildingBlock: QEWDON_clean_linker_0, # of connection points: 3
#     Edge 48, Type (0, 1), BuildingBlock: TEMPAE_clean_linker_10, # of connection points: 2
#     Edge 49, Type (0, 1), BuildingBlock: TEMPAE_clean_linker_10, # of connection points: 2
#     Edge 50, Type (0, 1), BuildingBlock: TEMPAE_clean_linker_10, # of connection points: 2
#     Edge 51, Type (0, 1), BuildingBlock: TEMPAE_clean_linker_10, # of connection points: 2
#     Edge 52, Type (0, 1), BuildingBlock: TEMPAE_clean_linker_10, # of connection points: 2
#     Edge 53, Type (0, 1), BuildingBlock: TEMPAE_clean_linker_10, # of connection points: 2
#     Edge 54, Type (0, 1), BuildingBlock: TEMPAE_clean_linker_10, # of connection points: 2
#     Edge 55, Type (0, 1), BuildingBlock: TEMPAE_clean_linker_10, # of connection points: 2
#     Edge 56, Type (0, 1), BuildingBlock: TEMPAE_clean_linker_10, # of connection points: 2
#     Edge 57, Type (0, 1), BuildingBlock: TEMPAE_clean_linker_10, # of connection points: 2
#     Edge 58, Type (0, 1), BuildingBlock: TEMPAE_clean_linker_10, # of connection points: 2
#     Edge 59, Type (0, 1), BuildingBlock: TEMPAE_clean_linker_10, # of connection points: 2
#     Edge 60, Type (0, 1), BuildingBlock: TEMPAE_clean_linker_10, # of connection points: 2
#     Edge 61, Type (0, 1), BuildingBlock: TEMPAE_clean_linker_10, # of connection points: 2
#     Edge 62, Type (0, 1), BuildingBlock: TEMPAE_clean_linker_10, # of connection points: 2
#     Edge 63, Type (0, 1), BuildingBlock: TEMPAE_clean_linker_10, # of connection points: 2
#     Edge 64, Type (0, 1), BuildingBlock: TEMPAE_clean_linker_10, # of connection points: 2
#     Edge 65, Type (0, 1), BuildingBlock: TEMPAE_clean_linker_10, # of connection points: 2
#     Edge 66, Type (0, 1), BuildingBlock: TEMPAE_clean_linker_10, # of connection points: 2
#     Edge 67, Type (0, 1), BuildingBlock: TEMPAE_clean_linker_10, # of connection points: 2
#     Edge 68, Type (0, 1), BuildingBlock: TEMPAE_clean_linker_10, # of connection points: 2
#     Edge 69, Type (0, 1), BuildingBlock: TEMPAE_clean_linker_10, # of connection points: 2
#     Edge 70, Type (0, 1), BuildingBlock: TEMPAE_clean_linker_10, # of connection points: 2
#     Edge 71, Type (0, 1), BuildingBlock: TEMPAE_clean_linker_10, # of connection points: 2
#     Edge 72, Type (0, 1), BuildingBlock: TEMPAE_clean_linker_10, # of connection points: 2
#     Edge 73, Type (0, 1), BuildingBlock: TEMPAE_clean_linker_10, # of connection points: 2
#     Edge 74, Type (0, 1), BuildingBlock: TEMPAE_clean_linker_10, # of connection points: 2
#     Edge 75, Type (0, 1), BuildingBlock: TEMPAE_clean_linker_10, # of connection points: 2
#     Edge 76, Type (0, 1), BuildingBlock: TEMPAE_clean_linker_10, # of connection points: 2
#     Edge 77, Type (0, 1), BuildingBlock: TEMPAE_clean_linker_10, # of connection points: 2
#     Edge 78, Type (0, 1), BuildingBlock: TEMPAE_clean_linker_10, # of connection points: 2
#     Edge 79, Type (0, 1), BuildingBlock: TEMPAE_clean_linker_10, # of connection points: 2
#     Edge 80, Type (0, 1), BuildingBlock: TEMPAE_clean_linker_10, # of connection points: 2
#     Edge 81, Type (0, 1), BuildingBlock: TEMPAE_clean_linker_10, # of connection points: 2
#     Edge 82, Type (0, 1), BuildingBlock: TEMPAE_clean_linker_10, # of connection points: 2
#     Edge 83, Type (0, 1), BuildingBlock: TEMPAE_clean_linker_10, # of connection points: 2
#     Edge 84, Type (0, 1), BuildingBlock: TEMPAE_clean_linker_10, # of connection points: 2
#     Edge 85, Type (0, 1), BuildingBlock: TEMPAE_clean_linker_10, # of connection points: 2
#     Edge 86, Type (0, 1), BuildingBlock: TEMPAE_clean_linker_10, # of connection points: 2
#     Edge 87, Type (0, 1), BuildingBlock: TEMPAE_clean_linker_10, # of connection points: 2
#     Edge 88, Type (0, 1), BuildingBlock: TEMPAE_clean_linker_10, # of connection points: 2
#     Edge 89, Type (0, 1), BuildingBlock: TEMPAE_clean_linker_10, # of connection points: 2
#     Edge 90, Type (0, 1), BuildingBlock: TEMPAE_clean_linker_10, # of connection points: 2
#     Edge 91, Type (0, 1), BuildingBlock: TEMPAE_clean_linker_10, # of connection points: 2
#     Edge 92, Type (0, 1), BuildingBlock: TEMPAE_clean_linker_10, # of connection points: 2
#     Edge 93, Type (0, 1), BuildingBlock: TEMPAE_clean_linker_10, # of connection points: 2
#     Edge 94, Type (0, 1), BuildingBlock: TEMPAE_clean_linker_10, # of connection points: 2
#     Edge 95, Type (0, 1), BuildingBlock: TEMPAE_clean_linker_10, # of connection points: 2
#     Edge 96, Type (0, 1), BuildingBlock: TEMPAE_clean_linker_10, # of connection points: 2
#     Edge 97, Type (0, 1), BuildingBlock: TEMPAE_clean_linker_10, # of connection points: 2
#     Edge 98, Type (0, 1), BuildingBlock: TEMPAE_clean_linker_10, # of connection points: 2
#     Edge 99, Type (0, 1), BuildingBlock: TEMPAE_clean_linker_10, # of connection points: 2
#     Edge 100, Type (0, 1), BuildingBlock: TEMPAE_clean_linker_10, # of connection points: 2
#     Edge 101, Type (0, 1), BuildingBlock: TEMPAE_clean_linker_10, # of connection points: 2
#     Edge 102, Type (0, 1), BuildingBlock: TEMPAE_clean_linker_10, # of connection points: 2
#     Edge 103, Type (0, 1), BuildingBlock: TEMPAE_clean_linker_10, # of connection points: 2
#     Edge 104, Type (0, 1), BuildingBlock: TEMPAE_clean_linker_10, # of connection points: 2
#     Edge 105, Type (0, 1), BuildingBlock: TEMPAE_clean_linker_10, # of connection points: 2
#     Edge 106, Type (0, 1), BuildingBlock: TEMPAE_clean_linker_10, # of connection points: 2
#     Edge 107, Type (0, 1), BuildingBlock: TEMPAE_clean_linker_10, # of connection points: 2
#     Edge 108, Type (0, 1), BuildingBlock: TEMPAE_clean_linker_10, # of connection points: 2
#     Edge 109, Type (0, 1), BuildingBlock: TEMPAE_clean_linker_10, # of connection points: 2
#     Edge 110, Type (0, 1), BuildingBlock: TEMPAE_clean_linker_10, # of connection points: 2
#     Edge 111, Type (0, 1), BuildingBlock: TEMPAE_clean_linker_10, # of connection points: 2
#     Edge 112, Type (0, 1), BuildingBlock: TEMPAE_clean_linker_10, # of connection points: 2
#     Edge 113, Type (0, 1), BuildingBlock: TEMPAE_clean_linker_10, # of connection points: 2
#     Edge 114, Type (0, 1), BuildingBlock: TEMPAE_clean_linker_10, # of connection points: 2
#     Edge 115, Type (0, 1), BuildingBlock: TEMPAE_clean_linker_10, # of connection points: 2
#     Edge 116, Type (0, 1), BuildingBlock: TEMPAE_clean_linker_10, # of connection points: 2
#     Edge 117, Type (0, 1), BuildingBlock: TEMPAE_clean_linker_10, # of connection points: 2
#     Edge 118, Type (0, 1), BuildingBlock: TEMPAE_clean_linker_10, # of connection points: 2
#     Edge 119, Type (0, 1), BuildingBlock: TEMPAE_clean_linker_10, # of connection points: 2
# Relax obj value: 0.072
# Max RMSD: 0.184
# Mean RMSD: 0.075
data_MOF--net-bwt--node1-WUSLED_clean_sbu_0--node2-QEWDON_clean_linker_0--edge1-TEMPAE_clean_linker_10
_symmetry_space_group_name_H-M    P1
_symmetry_Int_Tables_number       1
_symmetry_cell_setting            triclinic
loop_
_symmetry_equiv_pos_as_xyz
'x, y, z'
_cell_length_a     70.468573
_cell_length_b     70.491989
_cell_length_c     70.521021
_cell_angle_alpha  95.486815
_cell_angle_beta   95.518416
_cell_angle_gamma 95.501358
loop_
_atom_site_label
_atom_site_type_symbol
_atom_site_fract_x
_atom_site_fract_y
_atom_site_fract_z
_atom_type_partial_charge
C0 C 0.25904 0.60077 0.3304 0.0
C1 C 0.27383 0.59153 0.33909 0.0
C2 C 0.29494 0.60158 0.31565 0.0
C3 C 0.29163 0.59194 0.33179 0.0
C4 C 0.28005 0.61093 0.3071 0.0
C5 C 0.26227 0.61051 0.31442 0.0
U6 U 0.2266 0.58419 0.36657 0.0
O7 O 0.2055 0.59877 0.38202 0.0
O8 O 0.19637 0.57204 0.36339 0.0
C9 C 0.19108 0.58629 0.37438 0.0
C10 C 0.24021 0.6001 0.33784 0.0
C11 C 0.17344 0.59413 0.36725 0.0
C12 C 0.15612 0.61474 0.34753 0.0
C13 C 0.17336 0.60778 0.35398 0.0
C14 C 0.13906 0.59449 0.36758 0.0
C15 C 0.13873 0.60802 0.35415 0.0
C16 C 0.15621 0.58763 0.37402 0.0
C17 C 0.2485 0.55439 0.40463 0.0
C18 C 0.23409 0.52877 0.42115 0.0
C19 C 0.26305 0.54802 0.43575 0.0
C20 C 0.26301 0.55856 0.41994 0.0
C21 C 0.24863 0.53296 0.43651 0.0
C22 C 0.23397 0.53943 0.40539 0.0
C23 C 0.24932 0.56539 0.38786 0.0
O24 O 0.23047 0.58304 0.33591 0.0
O25 O 0.24003 0.60942 0.35487 0.0
O26 O 0.24838 0.58393 0.39115 0.0
O27 O 0.23929 0.55765 0.37184 0.0
H28 H 0.27155 0.5839 0.35144 0.0
H29 H 0.30268 0.58443 0.33859 0.0
H30 H 0.2822 0.61872 0.29483 0.0
H31 H 0.25102 0.61777 0.30758 0.0
H32 H 0.15633 0.6251 0.33714 0.0
H33 H 0.18657 0.61296 0.34859 0.0
H34 H 0.12603 0.58927 0.37327 0.0
H35 H 0.15599 0.57718 0.38434 0.0
H36 H 0.22266 0.5174 0.42146 0.0
H37 H 0.27453 0.55149 0.44729 0.0
H38 H 0.27443 0.56993 0.41961 0.0
H39 H 0.22254 0.53591 0.3938 0.0
C40 C 0.26434 0.39145 0.79662 0.0
C41 C 0.24842 0.39027 0.80718 0.0
C42 C 0.22711 0.38019 0.77789 0.0
C43 C 0.23002 0.38459 0.79792 0.0
C44 C 0.24313 0.3814 0.76741 0.0
C45 C 0.26154 0.3869 0.7767 0.0
U46 U 0.2985 0.42622 0.83165 0.0
O47 O 0.32339 0.42142 0.85131 0.0
O48 O 0.32704 0.44045 0.82871 0.0
C49 C 0.33546 0.43195 0.84249 0.0
C50 C 0.28382 0.39797 0.80597 0.0
C51 C 0.35321 0.42387 0.8381 0.0
C52 C 0.3706 0.39777 0.82622 0.0
C53 C 0.35343 0.40458 0.83106 0.0
C54 C 0.38731 0.42945 0.83552 0.0
C55 C 0.38774 0.41019 0.82828 0.0
C56 C 0.37027 0.43615 0.84043 0.0
C57 C 0.28002 0.46807 0.85968 0.0
C58 C 0.29547 0.48539 0.88949 0.0
C59 C 0.27797 0.50229 0.86638 0.0
C60 C 0.27333 0.48514 0.8544 0.0
C61 C 0.28935 0.50268 0.88396 0.0
C62 C 0.29098 0.46831 0.87744 0.0
C63 C 0.27639 0.45052 0.84607 0.0
O64 O 0.29135 0.41451 0.80145 0.0
O65 O 0.28688 0.39605 0.82437 0.0
O66 O 0.27915 0.43423 0.85308 0.0
O67 O 0.28335 0.45195 0.82958 0.0
H68 H 0.25015 0.39381 0.82258 0.0
H69 H 0.21809 0.38358 0.8065 0.0
H70 H 0.24143 0.37844 0.75195 0.0
H71 H 0.2736 0.38785 0.76827 0.0
H72 H 0.37041 0.38286 0.82077 0.0
H73 H 0.34034 0.39489 0.82908 0.0
H74 H 0.40003 0.4396 0.83684 0.0
H75 H 0.37034 0.45112 0.8457 0.0
H76 H 0.30392 0.48506 0.90309 0.0
H77 H 0.27315 0.51534 0.86158 0.0
H78 H 0.2649 0.4853 0.84074 0.0
H79 H 0.29638 0.45539 0.88193 0.0
C80 C 0.66458 0.99874 0.65078 0.0
C81 C 0.68117 1.00078 0.64131 0.0
C82 C 0.70106 0.99696 0.67065 0.0
C83 C 0.69919 0.9998 0.6511 0.0
C84 C 0.68437 0.9953 0.68017 0.0
C85 C 0.66629 0.99615 0.67029 0.0
U86 U 0.63562 0.01158 0.60718 0.0
O87 O 0.61163 0.9955 0.58812 0.0
O88 O 0.6082 0.02377 0.60264 0.0
C89 C 0.59996 0.0086 0.5915 0.0
C90 C 0.6456 0.99918 0.64018 0.0
C91 C 0.5805 1.00156 0.59522 0.0
C92 C 0.55697 0.99361 0.61698 0.0
C93 C 0.576 0.99872 0.61375 0.0
C94 C 0.54697 0.99346 0.58311 0.0
C95 C 0.54219 0.99125 0.60173 0.0
C96 C 0.56595 0.99858 0.57991 0.0
C97 C 0.6626 0.03515 0.57008 0.0
C98 C 0.64587 0.04704 0.54261 0.0
C99 C 0.67957 0.04251 0.54294 0.0
C100 C 0.67952 0.03631 0.56115 0.0
C101 C 0.6627 0.04768 0.53337 0.0
C102 C 0.6458 0.0407 0.5608 0.0
C103 C 0.66248 0.02719 0.58855 0.0
O104 O 0.64017 0.01636 0.63872 0.0
O105 O 0.64245 0.98796 0.62395 0.0
O106 O 0.65769 0.00861 0.58738 0.0
O107 O 0.6542 0.03691 0.6017 0.0
H108 H 0.68015 1.00287 0.62623 0.0
H109 H 0.71161 1.00083 0.64319 0.0
H110 H 0.68527 0.99337 0.69527 0.0
H111 H 0.65365 0.99468 0.67786 0.0
H112 H 0.55378 0.99179 0.63146 0.0
H113 H 0.58709 1.00086 0.62573 0.0
H114 H 0.53595 0.992 0.5711 0.0
H115 H 0.5692 1.00074 0.56551 0.0
H116 H 0.63264 0.05075 0.53547 0.0
H117 H 0.69277 0.04301 0.5362 0.0
H118 H 0.69259 0.03205 0.56812 0.0
H119 H 0.63255 0.03974 0.56746 0.0
C120 C 0.85056 0.01426 0.26879 0.0
C121 C 0.83227 0.01536 0.25933 0.0
C122 C 0.81824 0.01467 0.28947 0.0
C123 C 0.81629 0.0157 0.26959 0.0
C124 C 0.83661 0.01388 0.29896 0.0
C125 C 0.85264 0.01372 0.28869 0.0
U126 U 0.8691 0.99365 0.22409 0.0
O127 O 0.89008 1.00518 0.20582 0.0
O128 O 0.89444 0.97874 0.21904 0.0
C129 C 0.90156 0.9919 0.20892 0.0
C130 C 0.86709 0.01194 0.2578 0.0
C131 C 0.92193 0.99862 0.21416 0.0
C132 C 0.94782 0.01675 0.23568 0.0
C133 C 0.92818 0.01145 0.23054 0.0
C134 C 0.95498 0.99665 0.20799 0.0
C135 C 0.96143 0.00915 0.2246 0.0
C136 C 0.93543 0.99146 0.20283 0.0
C137 C 0.83108 0.9642 0.18747 0.0
C138 C 0.83813 0.94418 0.15955 0.0
C139 C 0.80538 0.95039 0.16334 0.0
C140 C 0.8116 0.96154 0.18064 0.0
C141 C 0.81857 0.94167 0.15254 0.0
C142 C 0.84436 0.95544 0.17688 0.0
C143 C 0.83714 0.97608 0.20568 0.0
O144 O 0.8718 0.99433 0.25552 0.0
O145 O 0.86701 0.0205 0.24201 0.0
O146 O 0.84303 0.99411 0.20433 0.0
O147 O 0.84796 0.96825 0.21834 0.0
H148 H 0.83024 0.01545 0.24391 0.0
H149 H 0.8023 0.01608 0.26187 0.0
H150 H 0.83853 0.0132 0.3143 0.0
H151 H 0.86659 0.0127 0.29623 0.0
H152 H 0.95238 0.02631 0.24861 0.0
H153 H 0.9179 0.01707 0.23947 0.0
H154 H 0.96511 0.99077 0.19902 0.0
H155 H 0.93084 0.98158 0.19012 0.0
H156 H 0.84862 0.93779 0.15144 0.0
H157 H 0.79021 0.94855 0.1584 0.0
H158 H 0.80117 0.96814 0.1887 0.0
H159 H 0.85949 0.9574 0.18197 0.0
C160 C 0.33988 0.26356 0.60154 0.0
C161 C 0.34753 0.27814 0.59137 0.0
C162 C 0.32373 0.29869 0.60164 0.0
C163 C 0.33952 0.29554 0.59141 0.0
C164 C 0.31621 0.28402 0.6119 0.0
C165 C 0.32422 0.26661 0.61183 0.0
U166 U 0.37623 0.23199 0.58398 0.0
O167 O 0.39381 0.2125 0.59869 0.0
O168 O 0.37384 0.20142 0.57337 0.0
C169 C 0.38591 0.19731 0.5874 0.0
C170 C 0.3481 0.24515 0.60125 0.0
C171 C 0.37966 0.18044 0.59689 0.0
C172 C 0.35739 0.16323 0.61519 0.0
C173 C 0.36365 0.17998 0.60732 0.0
C174 C 0.38332 0.14751 0.60257 0.0
C175 C 0.367 0.1467 0.61261 0.0
C176 C 0.38956 0.1642 0.59479 0.0
C177 C 0.41054 0.25346 0.5506 0.0
C178 C 0.43529 0.23645 0.53701 0.0
C179 C 0.43194 0.26919 0.53056 0.0
C180 C 0.41657 0.26955 0.54166 0.0
C181 C 0.44158 0.25269 0.52818 0.0
C182 C 0.41988 0.23684 0.54814 0.0
C183 C 0.39465 0.25442 0.56257 0.0
O184 O 0.34544 0.2346 0.58462 0.0
O185 O 0.36572 0.24604 0.60956 0.0
O186 O 0.39934 0.25448 0.58107 0.0
O187 O 0.37893 0.24317 0.55618 0.0
H188 H 0.35967 0.27602 0.58337 0.0
H189 H 0.34579 0.30659 0.58355 0.0
H190 H 0.30389 0.28586 0.61971 0.0
H191 H 0.31811 0.25547 0.61971 0.0
H192 H 0.34472 0.16303 0.62275 0.0
H193 H 0.35583 0.19243 0.60906 0.0
H194 H 0.39122 0.13514 0.6006 0.0
H195 H 0.40199 0.16433 0.58685 0.0
H196 H 0.44228 0.22346 0.53532 0.0
H197 H 0.43658 0.28203 0.52424 0.0
H198 H 0.40951 0.28251 0.54346 0.0
H199 H 0.41534 0.22425 0.55492 0.0
C200 C 0.2645 0.8397 0.01435 0.0
C201 C 0.254 0.82208 0.00733 0.0
C202 C 0.28279 0.80582 0.01141 0.0
C203 C 0.26303 0.80531 0.00593 0.0
C204 C 0.29322 0.82348 0.0188 0.0
C205 C 0.28413 0.8403 0.02022 0.0
U206 U 0.22207 0.86253 0.9961 0.0
O207 O 0.2043 0.88301 0.00937 0.0
O208 O 0.21838 0.88967 0.98396 0.0
C209 C 0.20801 0.89573 0.99738 0.0
C210 C 0.25504 0.85739 0.0142 0.0
C211 C 0.21325 0.91563 0.00581 0.0
C212 C 0.23448 0.94026 0.02609 0.0
C213 C 0.22941 0.92093 0.01918 0.0
C214 C 0.20714 0.94893 0.00648 0.0
C215 C 0.22347 0.95452 0.01968 0.0
C216 C 0.20209 0.9297 0.99968 0.0
C217 C 0.18488 0.82793 0.96303 0.0
C218 C 0.15838 0.83723 0.94253 0.0
C219 C 0.15925 0.80402 0.94858 0.0
C220 C 0.1766 0.80889 0.96008 0.0
C221 C 0.14989 0.81815 0.93979 0.0
C222 C 0.17574 0.84211 0.95416 0.0
C223 C 0.20298 0.83255 0.97545 0.0
O224 O 0.25353 0.86423 0.99749 0.0
O225 O 0.23907 0.85703 0.02246 0.0
O226 O 0.20137 0.83675 0.99374 0.0
O227 O 0.21619 0.8439 0.96895 0.0
H228 H 0.23883 0.82135 1.00262 0.0
H229 H 0.25455 0.79194 1.00043 0.0
H230 H 0.30851 0.82438 0.02294 0.0
H231 H 0.29248 0.85381 0.0255 0.0
H232 H 0.24707 0.94404 0.0363 0.0
H233 H 0.23821 0.91018 0.02403 0.0
H234 H 0.19856 0.95948 1.00085 0.0
H235 H 0.18964 0.92586 0.98927 0.0
H236 H 0.15136 0.84842 0.93609 0.0
H237 H 0.15313 0.78919 0.94658 0.0
H238 H 0.18352 0.79777 0.96677 0.0
H239 H 0.18193 0.85693 0.95636 0.0
C240 C 0.79979 0.26417 0.38926 0.0
C241 C 0.79967 0.2505 0.40248 0.0
C242 C 0.78139 0.22681 0.37849 0.0
C243 C 0.79048 0.23203 0.39717 0.0
C244 C 0.78187 0.24052 0.36521 0.0
C245 C 0.79096 0.25904 0.37059 0.0
U246 U 0.83554 0.29925 0.422 0.0
O247 O 0.85403 0.32444 0.41557 0.0
O248 O 0.83285 0.32775 0.43622 0.0
C249 C 0.84531 0.3364 0.42631 0.0
C250 C 0.80898 0.28378 0.39486 0.0
C251 C 0.83901 0.35317 0.41747 0.0
C252 C 0.81348 0.37081 0.40487 0.0
C253 C 0.81968 0.35386 0.4108 0.0
C254 C 0.84604 0.3862 0.41091 0.0
C255 C 0.82652 0.38728 0.40532 0.0
C256 C 0.85221 0.36929 0.41703 0.0
C257 C 0.86565 0.28099 0.46273 0.0
C258 C 0.88346 0.3028 0.48846 0.0
C259 C 0.88669 0.26878 0.48697 0.0
C260 C 0.87378 0.26561 0.47034 0.0
C261 C 0.89163 0.28742 0.49628 0.0
C262 C 0.87065 0.29962 0.47181 0.0
C263 C 0.85159 0.27744 0.44567 0.0
O264 O 0.80514 0.29173 0.41149 0.0
O265 O 0.82721 0.28659 0.39222 0.0
O266 O 0.85819 0.28089 0.42939 0.0
O267 O 0.83506 0.28414 0.44778 0.0
H268 H 0.80651 0.25418 0.41697 0.0
H269 H 0.79021 0.22195 0.40784 0.0
H270 H 0.77531 0.23692 0.35062 0.0
H271 H 0.79104 0.26938 0.36016 0.0
H272 H 0.79838 0.37122 0.40047 0.0
H273 H 0.80926 0.34152 0.41083 0.0
H274 H 0.85637 0.39872 0.41153 0.0
H275 H 0.86719 0.36902 0.4221 0.0
H276 H 0.88673 0.31729 0.49538 0.0
H277 H 0.8929 0.25666 0.49244 0.0
H278 H 0.87008 0.25114 0.46346 0.0
H279 H 0.86445 0.31166 0.46613 0.0
C280 C 0.64572 0.66186 1.00286 0.0
C281 C 0.63532 0.67788 1.00302 0.0
C282 C 0.6644 0.6987 1.00016 0.0
C283 C 0.64455 0.6961 1.00161 0.0
C284 C 0.67479 0.68259 1.00035 0.0
C285 C 0.66552 0.66436 1.00166 0.0
U286 U 0.60252 0.63016 0.01397 0.0
O287 O 0.58694 0.60388 0.99823 0.0
O288 O 0.59976 0.60354 0.02781 0.0
C289 C 0.59078 0.59343 0.01233 0.0
C290 C 0.63597 0.64257 1.00378 0.0
C291 C 0.59686 0.57419 0.00719 0.0
C292 C 0.59313 0.54452 0.9857 0.0
C293 C 0.58948 0.56359 0.98967 0.0
C294 C 0.61177 0.54628 0.0166 0.0
C295 C 0.60414 0.53555 0.99922 0.0
C296 C 0.60815 0.56532 0.02055 0.0
C297 C 0.56067 0.65379 0.03266 0.0
C298 C 0.53441 0.63604 0.04556 0.0
C299 C 0.53125 0.66815 0.03692 0.0
C300 C 0.54977 0.66929 0.03134 0.0
C301 C 0.52332 0.65148 0.04397 0.0
C302 C 0.55293 0.63715 0.03983 0.0
C303 C 0.57986 0.65509 0.02604 0.0
O304 O 0.63361 0.63797 0.02109 0.0
O305 O 0.62059 0.63776 0.99153 0.0
O306 O 0.58035 0.64935 0.00783 0.0
O307 O 0.59338 0.64893 0.03732 0.0
H308 H 0.62001 0.67626 1.004 0.0
H309 H 0.63602 0.70807 1.00125 0.0
H310 H 0.69012 0.68407 0.99955 0.0
H311 H 0.6738 0.65217 1.00165 0.0
H312 H 0.58719 0.53674 0.97211 0.0
H313 H 0.58046 0.56989 0.9792 0.0
H314 H 0.62002 0.53976 0.0275 0.0
H315 H 0.61376 0.57288 0.03434 0.0
H316 H 0.52859 0.62298 0.05079 0.0
H317 H 0.52312 0.68034 0.03575 0.0
H318 H 0.55553 0.68223 0.02584 0.0
H319 H 0.56112 0.62497 0.04082 0.0
C320 C 0.60191 0.33477 0.25774 0.0
C321 C 0.59262 0.34279 0.27283 0.0
C322 C 0.60322 0.31883 0.29305 0.0
C323 C 0.59328 0.33492 0.29033 0.0
C324 C 0.61253 0.31088 0.27784 0.0
C325 C 0.61187 0.3188 0.26035 0.0
U326 U 0.58401 0.37171 0.22713 0.0
O327 O 0.59813 0.38926 0.20726 0.0
O328 O 0.57218 0.36985 0.1969 0.0
C329 C 0.58598 0.38198 0.19244 0.0
C330 C 0.60113 0.34303 0.23932 0.0
C331 C 0.5942 0.37655 0.17453 0.0
C332 C 0.6151 0.35846 0.15592 0.0
C333 C 0.60806 0.36355 0.17347 0.0
C334 C 0.59459 0.37944 0.14054 0.0
C335 C 0.60824 0.3662 0.1392 0.0
C336 C 0.58766 0.38453 0.158 0.0
C337 C 0.55227 0.40665 0.2502 0.0
C338 C 0.53829 0.4314 0.23352 0.0
C339 C 0.53345 0.42873 0.26676 0.0
C340 C 0.54429 0.41314 0.26675 0.0
C341 C 0.5304 0.43814 0.25019 0.0
C342 C 0.54915 0.41578 0.23353 0.0
C343 C 0.56391 0.39046 0.25068 0.0
O344 O 0.58417 0.3408 0.22936 0.0
O345 O 0.60978 0.36049 0.23999 0.0
O346 O 0.5824 0.39475 0.25009 0.0
O347 O 0.55688 0.37488 0.23954 0.0
H348 H 0.5848 0.35512 0.27104 0.0
H349 H 0.58578 0.34126 0.30163 0.0
H350 H 0.62052 0.29866 0.27953 0.0
H351 H 0.61916 0.31246 0.24887 0.0
H352 H 0.62552 0.34815 0.15533 0.0
H353 H 0.61326 0.35722 0.18612 0.0
H354 H 0.58923 0.3859 0.12803 0.0
H355 H 0.57703 0.39466 0.15856 0.0
H356 H 0.53605 0.4382 0.22046 0.0
H357 H 0.52786 0.43371 0.27991 0.0
H358 H 0.54661 0.40625 0.27975 0.0
H359 H 0.55518 0.41089 0.2206 0.0
C360 C 0.01257 0.26839 0.84557 0.0
C361 C 0.01369 0.25846 0.82752 0.0
C362 C 0.01257 0.28808 0.81256 0.0
C363 C 0.01383 0.26824 0.81119 0.0
C364 C 0.01171 0.29803 0.83068 0.0
C365 C 0.01176 0.28826 0.84705 0.0
U366 U 0.99314 0.22418 0.86602 0.0
O367 O 1.00535 0.20708 0.88776 0.0
O368 O 0.97862 0.21992 0.89176 0.0
C369 C 0.99207 0.21033 0.89921 0.0
C370 C 0.01065 0.25794 0.86253 0.0
C371 C 0.9988 0.2162 0.91949 0.0
C372 C 0.01842 0.23729 0.94474 0.0
C373 C 0.01288 0.23171 0.92521 0.0
C374 C 0.99597 0.21184 0.95284 0.0
C375 C 0.00982 0.22753 0.95876 0.0
C376 C 0.99053 0.20625 0.9334 0.0
C377 C 0.96406 0.18571 0.82961 0.0
C378 C 0.94423 0.15822 0.83791 0.0
C379 C 0.95096 0.16015 0.80503 0.0
C380 C 0.96181 0.17779 0.81045 0.0
C381 C 0.94212 0.15012 0.8187 0.0
C382 C 0.95521 0.17587 0.84334 0.0
C383 C 0.97561 0.20427 0.83483 0.0
O384 O 0.99312 0.25552 0.86743 0.0
O385 O 0.01958 0.2424 0.86296 0.0
O386 O 0.99377 0.2035 0.84068 0.0
O387 O 0.96761 0.21715 0.84519 0.0
H388 H 0.01401 0.24305 0.82595 0.0
H389 H 0.01428 0.26017 0.7974 0.0
H390 H 0.01087 0.31336 0.83217 0.0
H391 H 0.01074 0.29615 0.86081 0.0
H392 H 0.02905 0.2495 0.94889 0.0
H393 H 0.01937 0.2396 0.91462 0.0
H394 H 0.98928 0.20387 0.96327 0.0
H395 H 0.97969 0.19421 0.92923 0.0
H396 H 0.93776 0.15072 0.84877 0.0
H397 H 0.94942 0.15437 0.7901 0.0
H398 H 0.9685 0.18525 0.79967 0.0
H399 H 0.95685 0.1818 0.85823 0.0
C400 C 0.39059 0.80438 0.2689 0.0
C401 C 0.39714 0.81424 0.25402 0.0
C402 C 0.38289 0.78794 0.23055 0.0
C403 C 0.39324 0.80615 0.23503 0.0
C404 C 0.37617 0.7782 0.24553 0.0
C405 C 0.38001 0.78637 0.26456 0.0
U406 U 0.42415 0.83779 0.30415 0.0
O407 O 0.41965 0.85671 0.32965 0.0
O408 O 0.43892 0.83416 0.33224 0.0
C409 C 0.43037 0.84757 0.34123 0.0
C410 C 0.39599 0.81233 0.28892 0.0
C411 C 0.42223 0.84222 0.35861 0.0
C412 C 0.39724 0.82597 0.37454 0.0
C413 C 0.4039 0.83221 0.35784 0.0
C414 C 0.42703 0.83998 0.39277 0.0
C415 C 0.40895 0.82946 0.39207 0.0
C416 C 0.43358 0.84631 0.37619 0.0
C417 C 0.46513 0.86619 0.28462 0.0
C418 C 0.49137 0.88372 0.30598 0.0
C419 C 0.49034 0.88532 0.27171 0.0
C420 C 0.47322 0.87313 0.26893 0.0
C421 C 0.49965 0.89072 0.29028 0.0
C422 C 0.47424 0.87161 0.30317 0.0
C423 C 0.44758 0.85282 0.28153 0.0
O424 O 0.41248 0.80768 0.29643 0.0
O425 O 0.39389 0.83061 0.29272 0.0
O426 O 0.43179 0.86015 0.28558 0.0
O427 O 0.44925 0.83619 0.28813 0.0
H428 H 0.4055 0.82811 0.25711 0.0
H429 H 0.39837 0.81418 0.22385 0.0
H430 H 0.36835 0.76406 0.24259 0.0
H431 H 0.37505 0.77847 0.27591 0.0
H432 H 0.3833 0.81778 0.37362 0.0
H433 H 0.39498 0.82884 0.34432 0.0
H434 H 0.43626 0.84302 0.40614 0.0
H435 H 0.44775 0.85402 0.37702 0.0
H436 H 0.49829 0.88737 0.32043 0.0
H437 H 0.4962 0.89065 0.25936 0.0
H438 H 0.46633 0.86906 0.25451 0.0
H439 H 0.4682 0.86628 0.31545 0.0
C440 C 0.99709 0.6524 0.66281 0.0
C441 C 0.99759 0.64227 0.67903 0.0
C442 C 0.99413 0.67139 0.69934 0.0
C443 C 0.99601 0.65165 0.69709 0.0
C444 C 0.99417 0.68161 0.68314 0.0
C445 C 0.99556 0.67216 0.665 0.0
U446 U 0.01124 0.61009 0.63252 0.0
O447 O 0.99538 0.59144 0.60808 0.0
O448 O 0.02329 0.60694 0.60496 0.0
C449 C 0.00836 0.59559 0.59651 0.0
C450 C 0.99791 0.64232 0.64366 0.0
C451 C 1.00123 0.5996 0.57718 0.0
C452 C 0.99408 0.62184 0.55389 0.0
C453 C 0.99863 0.61826 0.5729 0.0
C454 C 0.99383 0.58804 0.54347 0.0
C455 C 0.9921 0.60682 0.5389 0.0
C456 C 0.99837 0.58449 0.56243 0.0
C457 C 0.03626 0.57254 0.65682 0.0
C458 C 0.03945 0.54199 0.63905 0.0
C459 C 0.05435 0.54929 0.67172 0.0
C460 C 0.04742 0.56726 0.6726 0.0
C461 C 0.05008 0.53633 0.65506 0.0
C462 C 0.03266 0.55999 0.6399 0.0
C463 C 0.02795 0.59086 0.65819 0.0
O464 O 0.01518 0.64162 0.6382 0.0
O465 O 0.98714 0.62583 0.64006 0.0
O466 O 0.00926 0.58952 0.65393 0.0
O467 O 0.03716 0.60466 0.65034 0.0
H468 H 0.99899 0.62704 0.67769 0.0
H469 H 0.99627 0.64345 0.70933 0.0
H470 H 0.99262 0.69681 0.68444 0.0
H471 H 0.99522 0.68022 0.65267 0.0
H472 H 0.99259 0.63643 0.55087 0.0
H473 H 1.00069 0.63009 0.58415 0.0
H474 H 0.99263 0.57619 0.5323 0.0
H475 H 1.00037 0.57 0.5655 0.0
H476 H 0.03609 0.53234 0.626 0.0
H477 H 0.06233 0.54522 0.68433 0.0
H478 H 0.05038 0.57684 0.68573 0.0
H479 H 0.02421 0.56394 0.62751 0.0
C480 C 0.74345 0.40771 0.6712 0.0
C481 C 0.72828 0.41618 0.66219 0.0
C482 C 0.70724 0.40513 0.68523 0.0
C483 C 0.71033 0.41489 0.66912 0.0
C484 C 0.72262 0.39699 0.69445 0.0
C485 C 0.74059 0.39824 0.68744 0.0
U486 U 0.77463 0.42509 0.6346 0.0
O487 O 0.80511 0.43586 0.63637 0.0
O488 O 0.79393 0.41015 0.61694 0.0
C489 C 0.80915 0.42157 0.62456 0.0
C490 C 0.76202 0.40835 0.66329 0.0
C491 C 0.82613 0.41213 0.63072 0.0
C492 C 0.84771 0.40145 0.65558 0.0
C493 C 0.8307 0.40912 0.64994 0.0
C494 C 0.85537 0.39906 0.62274 0.0
C495 C 0.86042 0.39662 0.64208 0.0
C496 C 0.83842 0.40677 0.61715 0.0
C497 C 0.75288 0.4568 0.59906 0.0
C498 C 0.7683 0.46567 0.57139 0.0
C499 C 0.73937 0.47939 0.57905 0.0
C500 C 0.73879 0.46897 0.59493 0.0
C501 C 0.75403 0.47773 0.567 0.0
C502 C 0.76775 0.45532 0.58731 0.0
C503 C 0.75177 0.4456 0.61552 0.0
O504 O 0.76144 0.39958 0.64591 0.0
O505 O 0.77208 0.42526 0.66549 0.0
O506 O 0.76304 0.45259 0.63103 0.0
O507 O 0.7517 0.42698 0.61163 0.0
H508 H 0.73028 0.42362 0.64966 0.0
H509 H 0.69886 0.42153 0.66186 0.0
H510 H 0.72064 0.38925 0.70678 0.0
H511 H 0.75215 0.3916 0.69454 0.0
H512 H 0.85122 0.39992 0.67061 0.0
H513 H 0.82134 0.41309 0.66065 0.0
H514 H 0.86463 0.39518 0.61192 0.0
H515 H 0.83508 0.40888 0.60222 0.0
H516 H 0.77992 0.46428 0.56252 0.0
H517 H 0.72809 0.48841 0.57596 0.0
H518 H 0.72723 0.47028 0.60389 0.0
H519 H 0.77883 0.44607 0.59039 0.0
C520 C 0.75082 0.60714 0.22156 0.0
C521 C 0.76194 0.59285 0.22757 0.0
C522 C 0.78958 0.61658 0.23638 0.0
C523 C 0.78111 0.59756 0.23503 0.0
C524 C 0.77844 0.63084 0.23035 0.0
C525 C 0.75921 0.62616 0.22308 0.0
U526 U 0.71329 0.57558 0.18728 0.0
O527 O 0.68402 0.56363 0.19047 0.0
O528 O 0.68887 0.58311 0.16849 0.0
C529 C 0.67621 0.57334 0.17733 0.0
C530 C 0.73075 0.6024 0.21308 0.0
C531 C 0.6597 0.58312 0.18271 0.0
C532 C 0.64381 0.60161 0.20618 0.0
C533 C 0.6605 0.59473 0.20016 0.0
C534 C 0.62569 0.58615 0.17692 0.0
C535 C 0.62612 0.59688 0.19486 0.0
C536 C 0.64233 0.57932 0.17093 0.0
C537 C 0.72893 0.53299 0.15712 0.0
C538 C 0.71307 0.51719 0.1268 0.0
C539 C 0.73268 0.4996 0.1475 0.0
C540 C 0.73675 0.51595 0.1607 0.0
C541 C 0.72077 0.49999 0.13038 0.0
C542 C 0.717 0.53346 0.14007 0.0
C543 C 0.73321 0.54995 0.1714 0.0
O544 O 0.72756 0.60488 0.19486 0.0
O545 O 0.72183 0.5864 0.21746 0.0
O546 O 0.72614 0.54832 0.18781 0.0
O547 O 0.73143 0.56671 0.16505 0.0
H548 H 0.75591 0.578 0.22634 0.0
H549 H 0.78942 0.58626 0.23938 0.0
H550 H 0.78458 0.64564 0.23137 0.0
H551 H 0.75092 0.63739 0.21849 0.0
H552 H 0.64457 0.60974 0.22011 0.0
H553 H 0.67383 0.59781 0.20944 0.0
H554 H 0.61232 0.5825 0.16778 0.0
H555 H 0.64147 0.57043 0.1574 0.0
H556 H 0.70412 0.51816 0.11364 0.0
H557 H 0.73866 0.48658 0.15086 0.0
H558 H 0.74592 0.51526 0.17381 0.0
H559 H 0.71072 0.5464 0.13696 0.0
C560 C 0.35534 0.01516 0.36117 0.0
C561 C 0.3403 0.01583 0.37282 0.0
C562 C 0.31724 0.01531 0.34474 0.0
C563 C 0.32147 0.016 0.3647 0.0
C564 C 0.33225 0.01412 0.33303 0.0
C565 C 0.3512 0.01415 0.34122 0.0
U566 U 0.3891 0.00807 0.4039 0.0
O567 O 0.417 0.99672 0.40744 0.0
O568 O 0.41425 0.02634 0.41888 0.0
C569 C 0.42581 0.01303 0.41601 0.0
C570 C 0.37524 0.01578 0.36998 0.0
C571 C 0.44452 0.01927 0.4098 0.0
C572 C 0.46693 0.01977 0.38573 0.0
C573 C 0.44831 0.0158 0.39068 0.0
C574 C 0.4779 0.03156 0.41876 0.0
C575 C 0.48201 0.02729 0.39981 0.0
C576 C 0.45932 0.02754 0.42369 0.0
C577 C 0.36813 0.99036 0.44724 0.0
C578 C 0.38436 0.99622 0.47956 0.0
C579 C 0.35727 0.97184 0.47219 0.0
C580 C 0.35561 0.97593 0.45312 0.0
C581 C 0.37139 0.98226 0.48566 0.0
C582 C 0.38284 1.00014 0.46046 0.0
C583 C 0.3655 0.99535 0.42745 0.0
O584 O 0.37998 0.02893 0.38463 0.0
O585 O 0.3811 0.99908 0.37309 0.0
O586 O 0.37253 0.98399 0.41465 0.0
O587 O 0.3692 0.01363 0.42538 0.0
H588 H 0.34315 0.01638 0.38825 0.0
H589 H 0.31016 0.01659 0.37405 0.0
H590 H 0.32938 0.01358 0.31761 0.0
H591 H 0.36262 0.01355 0.33201 0.0
H592 H 0.46963 0.01657 0.37096 0.0
H593 H 0.43705 0.00953 0.37971 0.0
H594 H 0.48921 0.03718 0.42995 0.0
H595 H 0.45664 0.03026 0.43853 0.0
H596 H 0.39541 1.00437 0.48967 0.0
H597 H 0.34697 0.96115 0.47659 0.0
H598 H 0.34427 0.96815 0.44308 0.0
H599 H 0.39286 0.01113 0.45614 0.0
C600 C 0.17774 0.01475 0.73486 0.0
C601 C 0.19425 0.0213 0.74742 0.0
C602 C 0.21449 0.01222 0.72275 0.0
C603 C 0.21244 0.02001 0.74145 0.0
C604 C 0.1979 1.0059 0.7101 0.0
C605 C 0.17964 0.00713 0.71614 0.0
U606 U 0.14976 0.03241 0.77385 0.0
O607 O 0.12278 0.04574 0.77433 0.0
O608 O 0.12588 0.01901 0.78751 0.0
C609 C 0.11448 0.03196 0.78295 0.0
C610 C 0.15873 0.01592 0.74155 0.0
C611 C 0.09458 0.02495 0.77545 0.0
C612 C 0.07052 1.00172 0.75669 0.0
C613 C 0.08982 0.00821 0.76271 0.0
C614 C 0.06078 0.02874 0.77591 0.0
C615 C 0.05578 0.01195 0.76325 0.0
C616 C 0.07994 0.03515 0.7819 0.0
C617 C 0.1804 0.0611 0.8172 0.0
C618 C 0.17562 0.06381 0.85097 0.0
C619 C 0.19715 0.0876 0.83889 0.0
C620 C 0.19302 0.078 0.82046 0.0
C621 C 0.18883 0.08034 0.85439 0.0
C622 C 0.17136 0.05431 0.83251 0.0
C623 C 0.17785 0.05031 0.79803 0.0
O624 O 0.1558 0.00656 0.75644 0.0
O625 O 0.15324 0.03326 0.74323 0.0
O626 O 0.16905 0.05857 0.78428 0.0
O627 O 0.17254 0.03182 0.79723 0.0
H628 H 0.19304 0.02736 0.76191 0.0
H629 H 0.22492 0.02521 0.75144 0.0
H630 H 0.19903 0.99967 0.69566 0.0
H631 H 0.16705 1.00202 0.70627 0.0
H632 H 0.06713 0.98879 0.74688 0.0
H633 H 0.10096 1.00014 0.75757 0.0
H634 H 0.04984 0.03675 0.78158 0.0
H635 H 0.08333 0.048 0.79184 0.0
H636 H 0.16888 0.05803 0.86266 0.0
H637 H 0.2075 0.1002 0.84115 0.0
H638 H 0.20013 0.08346 0.80883 0.0
H639 H 0.16142 0.0414 0.83033 0.0
C640 C 0.6733 0.74583 0.4141 0.0
C641 C 0.66381 0.73052 0.42199 0.0
C642 C 0.68728 0.70958 0.41173 0.0
C643 C 0.67071 0.71255 0.42078 0.0
C644 C 0.69696 0.7251 0.4042 0.0
C645 C 0.68999 0.74307 0.40534 0.0
U646 U 0.63696 0.77785 0.43099 0.0
O647 O 0.63918 0.80852 0.44105 0.0
O648 O 0.61964 0.79706 0.4155 0.0
C649 C 0.62754 0.81242 0.42654 0.0
C650 C 0.6655 0.76445 0.41455 0.0
C651 C 0.6341 0.82893 0.41662 0.0
C652 C 0.6595 0.85002 0.40611 0.0
C653 C 0.65354 0.83343 0.41433 0.0
C654 C 0.6266 0.85738 0.40171 0.0
C655 C 0.64613 0.86236 0.39997 0.0
C656 C 0.62068 0.84086 0.41 0.0
C657 C 0.60102 0.75706 0.46308 0.0
C658 C 0.57191 0.77096 0.47003 0.0
C659 C 0.58184 0.74455 0.48683 0.0
C660 C 0.59794 0.74419 0.4767 0.0
C661 C 0.56849 0.75779 0.48346 0.0
C662 C 0.58806 0.77063 0.45996 0.0
C663 C 0.61753 0.75578 0.45194 0.0
O664 O 0.64812 0.76394 0.40576 0.0
O665 O 0.6678 0.77473 0.43134 0.0
O666 O 0.63311 0.76703 0.45881 0.0
O667 O 0.61372 0.75534 0.43328 0.0
H668 H 0.65093 0.73243 0.42889 0.0
H669 H 0.66307 0.70097 0.42694 0.0
H670 H 0.70965 0.72322 0.39698 0.0
H671 H 0.69747 0.75474 0.39915 0.0
H672 H 0.67467 0.85348 0.40516 0.0
H673 H 0.66415 0.82436 0.41927 0.0
H674 H 0.61587 0.86634 0.39683 0.0
H675 H 0.60559 0.83757 0.41152 0.0
H676 H 0.56181 0.78117 0.46687 0.0
H677 H 0.57981 0.73439 0.49723 0.0
H678 H 0.60788 0.73369 0.47936 0.0
H679 H 0.59025 0.78072 0.44951 0.0
C680 C 0.7396 0.17031 0.01255 0.0
C681 C 0.74475 0.18547 0.02712 0.0
C682 C 0.72552 0.20619 0.00942 0.0
C683 C 0.73769 0.20319 0.02563 0.0
C684 C 0.7202 0.19083 0.99498 0.0
C685 C 0.72717 0.17306 0.99656 0.0
U686 U 0.78264 0.14635 0.02821 0.0
O687 O 0.78676 0.11913 0.04001 0.0
O688 O 0.79819 0.12497 0.01298 0.0
C689 C 0.79507 0.11238 0.02523 0.0
C690 C 0.74867 0.15238 0.01307 0.0
C691 C 0.78805 0.09271 0.01685 0.0
C692 C 0.76289 0.06609 0.00995 0.0
C693 C 0.76874 0.08537 0.01641 0.0
C694 C 0.79538 0.06154 1.00347 0.0
C695 C 0.77625 0.05385 1.00378 0.0
C696 C 0.8012 0.08076 0.00998 0.0
C697 C 0.82391 0.18139 0.05587 0.0
C698 C 0.85109 0.17502 0.07743 0.0
C699 C 0.85188 0.20477 0.06277 0.0
C700 C 0.8336 0.19912 0.05341 0.0
C701 C 0.86086 0.1928 0.07485 0.0
C702 C 0.83275 0.1693 0.06792 0.0
C703 C 0.80453 0.17626 0.04591 0.0
O704 O 0.7635 0.15163 1.00318 0.0
O705 O 0.75165 0.14631 0.03008 0.0
O706 O 0.79242 0.16553 0.05449 0.0
O707 O 0.80362 0.17138 0.02737 0.0
H708 H 0.75456 0.18376 0.03949 0.0
H709 H 0.74189 0.21459 0.03711 0.0
H710 H 0.71113 0.1927 0.98215 0.0
H711 H 0.72329 0.16164 0.98504 0.0
H712 H 0.74809 0.06061 0.01051 0.0
H713 H 0.7583 0.09439 0.02155 0.0
H714 H 0.80596 0.05261 0.9985 0.0
H715 H 0.81614 0.08619 0.01007 0.0
H716 H 0.85774 0.16547 0.08656 0.0
H717 H 0.85894 0.21866 0.0607 0.0
H718 H 0.82696 0.20868 0.04426 0.0
H719 H 0.82551 0.1555 0.06998 0.0
C720 C 0.23099 0.76109 0.62169 0.0
C721 C 0.22951 0.7726 0.60655 0.0
C722 C 0.24158 0.80094 0.62838 0.0
C723 C 0.23484 0.79232 0.60984 0.0
C724 C 0.24291 0.78939 0.64356 0.0
C725 C 0.2377 0.76959 0.64021 0.0
U726 U 0.20176 0.71971 0.59113 0.0
O727 O 0.2086 0.6912 0.58045 0.0
O728 O 0.18528 0.69383 0.59881 0.0
C729 C 0.19596 0.68228 0.58997 0.0
C730 C 0.225 0.74038 0.61825 0.0
C731 C 0.20256 0.66655 0.6004 0.0
C732 C 0.22823 0.64891 0.61276 0.0
C733 C 0.2221 0.66555 0.60595 0.0
C734 C 0.19528 0.63464 0.60989 0.0
C735 C 0.21493 0.63304 0.61422 0.0
C736 C 0.18918 0.65122 0.60299 0.0
C737 C 0.17091 0.73078 0.54653 0.0
C738 C 0.16384 0.71477 0.51409 0.0
C739 C 0.13934 0.73069 0.52914 0.0
C740 C 0.15218 0.73614 0.54557 0.0
C741 C 0.14503 0.71992 0.51324 0.0
C742 C 0.17664 0.7201 0.53057 0.0
C743 C 0.18427 0.7368 0.56405 0.0
O744 O 0.20686 0.73536 0.62003 0.0
O745 O 0.23092 0.73162 0.60294 0.0
O746 O 0.20186 0.7321 0.56372 0.0
O747 O 0.17732 0.73443 0.58042 0.0
H748 H 0.2241 0.76634 0.59219 0.0
H749 H 0.23335 0.80088 0.59793 0.0
H750 H 0.2481 0.79566 0.65797 0.0
H751 H 0.23882 0.76093 0.65208 0.0
H752 H 0.24344 0.64815 0.61616 0.0
H753 H 0.23271 0.67726 0.60424 0.0
H754 H 0.18469 0.62261 0.61065 0.0
H755 H 0.17405 0.65169 0.59877 0.0
H756 H 0.16856 0.70631 0.50213 0.0
H757 H 0.12499 0.73504 0.52882 0.0
H758 H 0.14745 0.74455 0.55756 0.0
H759 H 0.19099 0.71576 0.53077 0.0
C760 C 0.35526 0.3484 0.01341 0.0
C761 C 0.35929 0.33407 0.9996 0.0
C762 C 0.3395 0.31005 0.01373 0.0
C763 C 0.35139 0.31512 0.99967 0.0
C764 C 0.33509 0.32458 0.02722 0.0
C765 C 0.34291 0.34358 0.02705 0.0
U766 U 0.39915 0.38068 0.00611 0.0
O767 O 0.40369 0.40889 0.99573 0.0
O768 O 0.41545 0.40483 0.02491 0.0
C769 C 0.41274 0.41698 0.01212 0.0
C770 C 0.36527 0.36789 0.01481 0.0
C771 C 0.40775 0.43614 0.01902 0.0
C772 C 0.39119 0.46409 0.0134 0.0
C773 C 0.39326 0.44472 0.00898 0.0
C774 C 0.41726 0.46644 0.03879 0.0
C775 C 0.40346 0.47534 0.02805 0.0
C776 C 0.41943 0.44706 0.03424 0.0
C777 C 0.44064 0.35982 0.98521 0.0
C778 C 0.47287 0.37631 0.99043 0.0
C779 C 0.46456 0.35095 0.96438 0.0
C780 C 0.44585 0.34852 0.96948 0.0
C781 C 0.4783 0.36461 0.97507 0.0
C782 C 0.45414 0.37406 0.99536 0.0
C783 C 0.42114 0.35685 0.99093 0.0
O784 O 0.38056 0.37093 0.02736 0.0
O785 O 0.36797 0.37477 0.99846 0.0
O786 O 0.40803 0.36465 0.98066 0.0
O787 O 0.41989 0.3596 0.00946 0.0
H788 H 0.36893 0.33743 0.98902 0.0
H789 H 0.35486 0.30438 0.98889 0.0
H790 H 0.32621 0.32118 0.0384 0.0
H791 H 0.33981 0.3544 0.03796 0.0
H792 H 0.3806 0.47043 1.00457 0.0
H793 H 0.38407 0.43677 0.99708 0.0
H794 H 0.42677 0.47458 0.05033 0.0
H795 H 0.43081 0.44081 0.04212 0.0
H796 H 0.48322 0.38697 0.99882 0.0
H797 H 0.46851 0.34165 0.95258 0.0
H798 H 0.43555 0.33761 0.96137 0.0
H799 H 0.45033 0.3832 0.00733 0.0
C800 C 0.41559 0.67399 0.74412 0.0
C801 C 0.42598 0.66597 0.72994 0.0
C802 C 0.41242 0.68609 0.70708 0.0
C803 C 0.42442 0.67196 0.7116 0.0
C804 C 0.40232 0.69436 0.72147 0.0
C805 C 0.40387 0.68831 0.73985 0.0
U806 U 0.434 0.6389 0.77634 0.0
O807 O 0.44516 0.64171 0.80679 0.0
O808 O 0.41979 0.62155 0.79628 0.0
C809 C 0.43129 0.62964 0.81124 0.0
C810 C 0.41648 0.6668 0.76302 0.0
C811 C 0.42199 0.63602 0.82815 0.0
C812 C 0.40281 0.65769 0.84489 0.0
C813 C 0.4109 0.65152 0.82827 0.0
C814 C 0.41666 0.63273 0.8612 0.0
C815 C 0.40569 0.64841 0.8616 0.0
C816 C 0.42469 0.62661 0.84464 0.0
C817 C 0.46606 0.60344 0.7551 0.0
C818 C 0.47438 0.57539 0.77018 0.0
C819 C 0.48917 0.58378 0.74205 0.0
C820 C 0.47879 0.59969 0.74146 0.0
C821 C 0.48688 0.57131 0.75627 0.0
C822 C 0.46409 0.59136 0.76963 0.0
C823 C 0.45462 0.6197 0.75372 0.0
O824 O 0.40803 0.64935 0.76303 0.0
O825 O 0.43344 0.66958 0.773 0.0
O826 O 0.46149 0.6355 0.76461 0.0
O827 O 0.43604 0.61559 0.75385 0.0
H828 H 0.43511 0.65488 0.73301 0.0
H829 H 0.43258 0.66549 0.70092 0.0
H830 H 0.39281 0.70513 0.71839 0.0
H831 H 0.39569 0.69459 0.75063 0.0
H832 H 0.39434 0.66971 0.84466 0.0
H833 H 0.40866 0.65893 0.8156 0.0
H834 H 0.41949 0.62547 0.87387 0.0
H835 H 0.43328 0.61466 0.84481 0.0
H836 H 0.4725 0.56617 0.78145 0.0
H837 H 0.49856 0.58092 0.73106 0.0
H838 H 0.48048 0.60892 0.73016 0.0
H839 H 0.45441 0.59414 0.78038 0.0
C840 C 0.02286 0.73019 0.17299 0.0
C841 C 0.04051 0.73055 0.18426 0.0
C842 C 0.02426 0.71806 0.21018 0.0
C843 C 0.0412 0.72445 0.2026 0.0
C844 C 1.00669 0.71719 0.19861 0.0
C845 C 1.00603 0.7231 0.18021 0.0
U846 U 0.03286 0.77318 0.14634 0.0
O847 O 0.0426 0.77718 0.11819 0.0
O848 O 0.01481 0.78626 0.12497 0.0
C849 C 0.02661 0.78381 0.11181 0.0
C850 C 0.02153 0.73877 0.15461 0.0
C851 C 0.01782 0.7759 0.09245 0.0
C852 C 0.01621 0.7531 0.06401 0.0
C853 C 0.02299 0.75888 0.08322 0.0
C854 C 0.99825 0.78067 0.0633 0.0
C855 C 1.00409 0.76416 0.05373 0.0
C856 C 1.0051 0.7865 0.08244 0.0
C857 C 0.05876 0.81763 0.17809 0.0
C858 C 0.07835 0.84521 0.16953 0.0
C859 C 0.06433 0.84703 0.19963 0.0
C860 C 0.05601 0.82817 0.19529 0.0
C861 C 0.07564 0.85576 0.18685 0.0
C862 C 0.06989 0.82628 0.16513 0.0
C863 C 0.05031 0.79754 0.17453 0.0
O864 O 0.01012 0.75244 0.15378 0.0
O865 O 0.03776 0.7429 0.14736 0.0
O866 O 0.05933 0.78575 0.16392 0.0
O867 O 0.03157 0.79487 0.17067 0.0
H868 H 0.05377 0.736 0.17916 0.0
H869 H 0.05501 0.72503 0.21093 0.0
H870 H 0.9933 0.71264 0.20401 0.0
H871 H 0.99224 0.72279 0.17187 0.0
H872 H 0.02082 0.7402 0.05707 0.0
H873 H 0.03269 0.75034 0.09062 0.0
H874 H 0.98912 0.78964 0.05574 0.0
H875 H 1.00098 0.79971 0.08924 0.0
H876 H 0.08689 0.85162 0.15937 0.0
H877 H 0.0622 0.85468 0.2132 0.0
H878 H 0.04756 0.82171 0.20551 0.0
H879 H 0.07215 0.81842 0.15172 0.0
C880 C 0.6169 0.21945 0.75375 0.0
C881 C 0.61522 0.20638 0.76748 0.0
C882 C 0.62486 0.23208 0.79327 0.0
C883 C 0.61928 0.2126 0.787 0.0
C884 C 0.6267 0.2451 0.77943 0.0
C885 C 0.62278 0.23882 0.75987 0.0
U886 U 0.5847 0.18865 0.71411 0.0
O887 O 0.57197 0.19498 0.68608 0.0
O888 O 0.59123 0.17232 0.68768 0.0
C889 C 0.58101 0.18234 0.67656 0.0
C890 C 0.61179 0.21321 0.73316 0.0
C891 C 0.58972 0.18871 0.6598 0.0
C892 C 0.60659 0.21314 0.64365 0.0
C893 C 0.60057 0.2066 0.66049 0.0
C894 C 0.59168 0.18365 0.62555 0.0
C895 C 0.60173 0.20192 0.62593 0.0
C896 C 0.58574 0.17713 0.64233 0.0
C897 C 0.54301 0.15598 0.72734 0.0
C898 C 0.52387 0.13288 0.70359 0.0
C899 C 0.51298 0.13993 0.73481 0.0
C900 C 0.52934 0.15292 0.74021 0.0
C901 C 0.51009 0.12973 0.71645 0.0
C902 C 0.54014 0.14595 0.70896 0.0
C903 C 0.55987 0.17006 0.73298 0.0
O904 O 0.61437 0.19539 0.72751 0.0
O905 O 0.59541 0.21827 0.7258 0.0
O906 O 0.55799 0.18729 0.72795 0.0
O907 O 0.5765 0.1641 0.72974 0.0
H908 H 0.61059 0.19135 0.76316 0.0
H909 H 0.61802 0.2021 0.79718 0.0
H910 H 0.6307 0.26023 0.7837 0.0
H911 H 0.62404 0.24916 0.74952 0.0
H912 H 0.61424 0.22731 0.64435 0.0
H913 H 0.60379 0.21574 0.67389 0.0
H914 H 0.58796 0.17458 0.61217 0.0
H915 H 0.57744 0.16326 0.64154 0.0
H916 H 0.52192 0.12545 0.68926 0.0
H917 H 0.5027 0.1377 0.74507 0.0
H918 H 0.5313 0.16062 0.75443 0.0
H919 H 0.55045 0.1483 0.69874 0.0
C920 C 0.01238 0.36031 0.35254 0.0
C921 C 0.99839 0.3626 0.33757 0.0
C922 C 0.01439 0.34289 0.31511 0.0
C923 C 0.99932 0.35387 0.31907 0.0
C924 C 0.02818 0.34035 0.3302 0.0
C925 C 0.02714 0.34895 0.34876 0.0
U926 U 1.00269 0.40482 0.38274 0.0
O927 O 0.99062 0.40962 0.41013 0.0
O928 O 0.01995 0.42192 0.40737 0.0
C929 C 1.00653 0.41915 0.41883 0.0
C930 C 0.01257 0.37092 0.37164 0.0
C931 C 0.01281 0.41384 0.43792 0.0
C932 C 0.016 0.39013 0.46052 0.0
C933 C 0.01183 0.39463 0.44177 0.0
C934 C 0.023 0.42393 0.47156 0.0
C935 C 0.02128 0.40477 0.47568 0.0
C936 C 0.01876 0.42841 0.45284 0.0
C937 C 0.98279 0.44494 0.35737 0.0
C938 C 0.974 0.4735 0.37514 0.0
C939 C 0.97746 0.47311 0.34124 0.0
C940 C 0.98195 0.45422 0.34068 0.0
C941 C 0.97371 0.48304 0.35852 0.0
C942 C 0.97862 0.45459 0.37459 0.0
C943 C 0.98908 0.42566 0.35679 0.0
O944 O 0.02486 0.3864 0.37494 0.0
O945 O 0.9957 0.37353 0.3774 0.0
O946 O 0.97827 0.41293 0.36455 0.0
O947 O 0.00751 0.42522 0.36154 0.0
H948 H 0.98702 0.37155 0.34006 0.0
H949 H 0.98866 0.35634 0.30771 0.0
H950 H 0.03989 0.33189 0.3276 0.0
H951 H 0.03814 0.34712 0.36008 0.0
H952 H 0.01479 0.37522 0.46322 0.0
H953 H 0.00737 0.38317 0.4304 0.0
H954 H 0.02685 0.43552 0.48292 0.0
H955 H 0.01957 0.44332 0.45011 0.0
H956 H 0.97132 0.48086 0.38866 0.0
H957 H 0.97714 0.48006 0.32817 0.0
H958 H 0.98515 0.44698 0.32729 0.0
H959 H 0.97935 0.44765 0.38767 0.0
H960 H 0.24592 0.44937 0.56235 0.0
C961 C 0.24469 0.46296 0.57047 0.0
C962 C 0.24394 0.4795 0.56093 0.0
C963 C 0.24255 0.46385 0.59024 0.0
H964 H 0.24063 0.50957 0.5636 0.0
C965 C 0.24138 0.49689 0.57112 0.0
C966 C 0.23924 0.4981 0.59069 0.0
C967 C 0.24023 0.48167 0.60031 0.0
C968 C 0.24066 0.44601 0.59997 0.0
H969 H 0.23844 0.48263 0.61546 0.0
C970 C 0.25251 0.43124 0.59661 0.0
C971 C 0.24984 0.41415 0.60537 0.0
C972 C 0.22626 0.44344 0.61229 0.0
H973 H 0.21665 0.45428 0.61488 0.0
C974 C 0.22374 0.42664 0.6211 0.0
H975 H 0.26363 0.43295 0.58713 0.0
C976 C 0.23539 0.41208 0.61767 0.0
H977 H 0.23319 0.3992 0.62477 0.0
H978 H 0.21261 0.42485 0.63054 0.0
H979 H 0.34717 0.6372 0.97284 0.0
C980 C 0.35595 0.62775 0.98012 0.0
C981 C 0.35117 0.60786 0.97649 0.0
C982 C 0.37219 0.63527 0.99285 0.0
H983 H 0.35922 0.58019 0.98246 0.0
C984 C 0.36279 0.59559 0.98538 0.0
C985 C 0.37919 0.60276 0.99762 0.0
C986 C 0.38395 0.62259 1.00133 0.0
C987 C 0.37694 0.65626 0.99698 0.0
H988 H 0.39676 0.62789 0.01076 0.0
C989 C 0.35829 0.67174 0.99552 0.0
C990 C 0.36425 0.69745 0.99802 0.0
C991 C 0.40162 0.66641 1.0027 0.0
H992 H 0.41304 0.65723 1.00368 0.0
C993 C 0.40728 0.69203 0.00657 0.0
H994 H 0.34347 0.66578 0.99245 0.0
C995 C 0.38892 0.70731 1.00345 0.0
H996 H 0.39265 0.72266 0.00546 0.0
H997 H 0.42201 0.69813 0.01028 0.0
H998 H 0.67827 0.07769 0.38584 0.0
C999 C 0.67923 0.06237 0.38384 0.0
C1000 C 0.67364 0.05106 0.3975 0.0
C1001 C 0.68564 0.05397 0.36751 0.0
H1002 H 0.66999 0.02531 0.40763 0.0
C1003 C 0.67478 0.03121 0.39508 0.0
C1004 C 0.68139 0.01931 0.37854 0.0
C1005 C 0.68671 0.03397 0.36512 0.0
C1006 C 0.69123 0.06627 0.35247 0.0
H1007 H 0.69251 0.03047 0.35174 0.0
C1008 C 0.70285 0.08377 0.35748 0.0
C1009 C 0.70766 0.09577 0.34341 0.0
C1010 C 0.68465 0.06074 0.3331 0.0
H1011 H 0.67547 0.04749 0.32883 0.0
C1012 C 0.68954 0.07244 0.31906 0.0
H1013 H 0.70832 0.08791 0.37234 0.0
C1014 C 0.70089 0.08985 0.32413 0.0
H1015 H 0.70404 0.09885 0.31297 0.0
H1016 H 0.6843 0.0681 0.30419 0.0
H1017 H 0.75925 0.86169 0.01346 0.0
C1018 C 0.75665 0.87577 0.00953 0.0
C1019 C 0.76428 0.89204 0.02191 0.0
C1020 C 0.74641 0.87781 0.99175 0.0
H1021 H 0.76701 0.9228 0.02657 0.0
C1022 C 0.76115 0.91027 0.01687 0.0
C1023 C 0.75077 0.91265 0.99951 0.0
C1024 C 0.7436 0.89642 0.98685 0.0
C1025 C 0.73919 0.86066 0.97804 0.0
H1026 H 0.73558 0.89831 0.97338 0.0
C1027 C 0.73082 0.8437 0.98439 0.0
C1028 C 0.7238 0.82767 0.97121 0.0
C1029 C 0.74071 0.86119 0.95835 0.0
H1030 H 0.74741 0.87381 0.95301 0.0
C1031 C 0.7339 0.84533 0.94529 0.0
H1032 H 0.72929 0.84314 0.99948 0.0
C1033 C 0.72547 0.82871 0.95162 0.0
H1034 H 0.72046 0.81653 0.94119 0.0
H1035 H 0.73523 0.84589 0.93019 0.0
H1036 H 0.57022 0.25563 0.4502 0.0
C1037 C 0.57835 0.25512 0.46395 0.0
C1038 C 0.56941 0.25807 0.48079 0.0
C1039 C 0.59753 0.25078 0.46489 0.0
H1040 H 0.57232 0.25795 0.51136 0.0
C1041 C 0.57965 0.25666 0.49852 0.0
C1042 C 0.59854 0.25192 0.4998 0.0
C1043 C 0.60748 0.24915 0.48295 0.0
C1044 C 0.60682 0.24674 0.44704 0.0
H1045 H 0.62212 0.24554 0.48392 0.0
C1046 C 0.60466 0.25811 0.43169 0.0
C1047 C 0.61384 0.25427 0.41502 0.0
C1048 C 0.61798 0.23127 0.4453 0.0
H1049 H 0.61961 0.22201 0.45662 0.0
C1050 C 0.62693 0.22734 0.4288 0.0
H1051 H 0.59629 0.2702 0.43291 0.0
C1052 C 0.62493 0.23873 0.41379 0.0
H1053 H 0.63188 0.23519 0.40105 0.0
H1054 H 0.6354 0.21534 0.42761 0.0
H1055 H 0.00852 0.76776 0.8605 0.0
C1056 C 1.0045 0.76596 0.87471 0.0
C1057 C 0.01697 0.77421 0.89067 0.0
C1058 C 0.98666 0.75606 0.87719 0.0
H1059 H 0.0217 0.77853 0.92139 0.0
C1060 C 0.01175 0.7725 0.9091 0.0
C1061 C 0.99427 0.76262 0.91199 0.0
C1062 C 0.98187 0.75415 0.89601 0.0
C1063 C 0.97271 0.74845 0.86025 0.0
H1064 H 0.96845 0.74628 0.89829 0.0
C1065 C 0.97891 0.74076 0.84293 0.0
C1066 C 0.96561 0.73419 0.82684 0.0
C1067 C 0.95294 0.74936 0.86119 0.0
H1068 H 0.94762 0.7556 0.874 0.0
C1069 C 0.93974 0.74258 0.84545 0.0
H1070 H 0.99406 0.74001 0.8419 0.0
C1071 C 0.94596 0.73503 0.82843 0.0
H1072 H 0.93532 0.72971 0.81652 0.0
H1073 H 0.92458 0.74329 0.84642 0.0
H1074 H 0.97719 0.33314 0.63365 0.0
C1075 C 0.98657 0.34105 0.62526 0.0
C1076 C 0.98667 0.33465 0.6058 0.0
C1077 C 0.99748 0.35822 0.63323 0.0
H1078 H 0.99851 0.34015 0.57962 0.0
C1079 C 0.99891 0.34466 0.59482 0.0
C1080 C 0.00989 0.36173 0.60251 0.0
C1081 C 0.00888 0.36869 0.62165 0.0
C1082 C 0.99636 0.3661 0.6532 0.0
H1083 H 0.01695 0.38221 0.62746 0.0
C1084 C 0.99891 0.35123 0.67256 0.0
C1085 C 1.00092 0.36179 0.69714 0.0
C1086 C 0.99479 0.39118 0.65798 0.0
H1087 H 0.99567 0.39966 0.67008 0.0
C1088 C 0.99767 0.40228 0.68344 0.0
H1089 H 0.99986 0.33603 0.66941 0.0
C1090 C 1.00129 0.38704 0.70239 0.0
H1091 H 1.00303 0.39337 0.71712 0.0
H1092 H 0.9976 0.41826 0.68998 0.0
H1093 H 0.38469 0.68624 0.07976 0.0
C1094 C 0.38286 0.68484 0.06424 0.0
C1095 C 0.39151 0.67104 0.05415 0.0
C1096 C 0.37195 0.69662 0.05423 0.0
H1097 H 0.39057 0.65372 0.0294 0.0
C1098 C 0.38695 0.66767 0.03424 0.0
C1099 C 0.38085 0.68193 0.02096 0.0
C1100 C 0.37277 0.69649 0.03423 0.0
C1101 C 0.35998 0.70971 0.06455 0.0
H1102 H 0.3675 0.70949 0.02998 0.0
C1103 C 0.3663 0.71911 0.08294 0.0
C1104 C 0.35426 0.7304 0.0929 0.0
C1105 C 0.34145 0.7119 0.05627 0.0
H1106 H 0.33591 0.70438 0.04248 0.0
C1107 C 0.3296 0.72329 0.06597 0.0
H1108 H 0.38058 0.71777 0.08951 0.0
C1109 C 0.33594 0.73254 0.08413 0.0
H1110 H 0.32628 0.74093 0.09156 0.0
H1111 H 0.31532 0.72472 0.0595 0.0
H1112 H 0.4529 0.56701 0.25363 0.0
C1113 C 0.46654 0.57518 0.25267 0.0
C1114 C 0.48352 0.56639 0.25536 0.0
C1115 C 0.46717 0.59422 0.24798 0.0
H1116 H 0.51401 0.56944 0.25438 0.0
C1117 C 0.50109 0.57667 0.25334 0.0
C1118 C 0.50205 0.59544 0.24827 0.0
C1119 C 0.48506 0.60422 0.2458 0.0
C1120 C 0.44917 0.60332 0.24407 0.0
H1121 H 0.48578 0.61877 0.24195 0.0
C1122 C 0.43411 0.60138 0.25582 0.0
C1123 C 0.41734 0.61046 0.25212 0.0
C1124 C 0.44702 0.6141 0.22835 0.0
H1125 H 0.4581 0.61552 0.2188 0.0
C1126 C 0.43041 0.62294 0.22456 0.0
H1127 H 0.43564 0.59328 0.26809 0.0
C1128 C 0.4157 0.6212 0.23634 0.0
H1129 H 0.40287 0.62805 0.23291 0.0
H1130 H 0.4289 0.63112 0.21237 0.0
H1131 H 0.86387 0.00931 0.76418 0.0
C1132 C 0.87802 1.00499 0.76254 0.0
C1133 C 0.89416 0.01698 0.77125 0.0
C1134 C 0.8802 0.98723 0.75234 0.0
H1135 H 0.92492 0.02089 0.77597 0.0
C1136 C 0.91247 0.01132 0.76964 0.0
C1137 C 0.91505 0.99396 0.75936 0.0
C1138 C 0.8989 0.98204 0.75051 0.0
C1139 C 0.86308 0.97377 0.7442 0.0
H1140 H 0.90096 0.96871 0.74236 0.0
C1141 C 0.84624 0.98051 0.73601 0.0
C1142 C 0.83021 0.96758 0.7284 0.0
C1143 C 0.86345 0.9539 0.74487 0.0
H1144 H 0.87589 0.94821 0.75149 0.0
C1145 C 0.84762 0.9411 0.73733 0.0
H1146 H 0.84571 0.99571 0.73514 0.0
C1147 C 0.83113 0.94784 0.72911 0.0
H1148 H 0.81895 0.9376 0.72358 0.0
H1149 H 0.84809 0.92587 0.73799 0.0
H1150 H 0.63832 0.97418 0.33348 0.0
C1151 C 0.63015 0.98465 0.34016 0.0
C1152 C 0.61086 0.98494 0.33322 0.0
C1153 C 0.63823 0.99688 0.35643 0.0
H1154 H 0.58503 0.9982 0.33701 0.0
C1155 C 0.60016 0.99847 0.34183 0.0
C1156 C 0.608 0.01076 0.35805 0.0
C1157 C 0.62699 0.00971 0.3655 0.0
C1158 C 0.65797 0.99579 0.36485 0.0
H1159 H 0.63294 0.01883 0.37837 0.0
C1160 C 0.67786 0.99863 0.35068 0.0
C1161 C 0.70216 1.00145 0.36222 0.0
C1162 C 0.66237 0.99486 0.39004 0.0
H1163 H 0.65046 0.99306 0.39855 0.0
C1164 C 0.6866 0.99857 0.40166 0.0
H1165 H 0.67519 0.99934 0.33539 0.0
C1166 C 0.70634 1.00239 0.38761 0.0
H1167 H 0.72083 1.00463 0.39468 0.0
H1168 H 0.68923 0.99861 0.41704 0.0
H1169 H 0.07788 0.38976 0.67924 0.0
C1170 C 0.06244 0.38681 0.67872 0.0
C1171 C 0.05099 0.40068 0.67419 0.0
C1172 C 0.05405 0.36936 0.68278 0.0
H1173 H 0.0251 0.40934 0.66734 0.0
C1174 C 0.03098 0.39696 0.67264 0.0
C1175 C 0.019 0.3796 0.6776 0.0
C1176 C 0.03387 0.36621 0.68256 0.0
C1177 C 0.06655 0.35428 0.6881 0.0
H1178 H 0.0304 0.35231 0.68733 0.0
C1179 C 0.08392 0.35921 0.7 0.0
C1180 C 0.09583 0.34511 0.70488 0.0
C1181 C 0.06124 0.33491 0.68123 0.0
H1182 H 0.04821 0.33063 0.67172 0.0
C1183 C 0.07282 0.32083 0.68635 0.0
H1184 H 0.08812 0.37399 0.70572 0.0
C1185 C 0.09001 0.32585 0.6981 0.0
H1186 H 0.09896 0.31472 0.70154 0.0
H1187 H 0.06857 0.30597 0.68098 0.0
H1188 H 0.74145 0.54814 0.4348 0.0
C1189 C 0.75147 0.53896 0.42904 0.0
C1190 C 0.76217 0.52855 0.4414 0.0
C1191 C 0.75316 0.53693 0.4092 0.0
H1192 H 0.7818 0.50719 0.44336 0.0
C1193 C 0.77447 0.51602 0.43387 0.0
C1194 C 0.77613 0.51345 0.41416 0.0
C1195 C 0.76559 0.52414 0.40192 0.0
C1196 C 0.74105 0.54714 0.39593 0.0
H1197 H 0.76692 0.52231 0.38669 0.0
C1198 C 0.73803 0.56646 0.4006 0.0
C1199 C 0.72643 0.57597 0.38797 0.0
C1200 C 0.73219 0.53743 0.3785 0.0
H1201 H 0.73389 0.52249 0.37464 0.0
C1202 C 0.72068 0.54675 0.366 0.0
H1203 H 0.74502 0.57418 0.41385 0.0
C1204 C 0.71778 0.56584 0.37066 0.0
H1205 H 0.70849 0.57259 0.36081 0.0
H1206 H 0.71383 0.53907 0.35269 0.0
H1207 H 0.68879 0.37896 0.01451 0.0
C1208 C 0.67611 0.38612 0.01135 0.0
C1209 C 0.67349 0.40264 0.02309 0.0
C1210 C 0.66293 0.3796 0.99508 0.0
H1211 H 0.65636 0.42588 0.02756 0.0
C1212 C 0.65779 0.41269 0.01876 0.0
C1213 C 0.64477 0.40684 1.00258 0.0
C1214 C 0.64722 0.3902 0.99091 0.0
C1215 C 0.66594 0.36237 0.982 0.0
H1216 H 0.6369 0.38573 0.97855 0.0
C1217 C 0.67496 0.34697 0.989 0.0
C1218 C 0.67761 0.33068 0.97661 0.0
C1219 C 0.65984 0.36125 0.96228 0.0
H1220 H 0.65349 0.37292 0.95607 0.0
C1221 C 0.66206 0.3451 0.95005 0.0
H1222 H 0.6798 0.3476 1.00408 0.0
C1223 C 0.67075 0.32993 0.9571 0.0
H1224 H 0.67179 0.31747 0.94718 0.0
H1225 H 0.65701 0.34434 0.93498 0.0
H1226 H 0.31022 0.96161 0.61298 0.0
C1227 C 0.31502 0.97575 0.62024 0.0
C1228 C 0.3317 0.98568 0.61523 0.0
C1229 C 0.30355 0.98464 0.63293 0.0
H1230 H 0.34976 0.01241 0.61905 0.0
C1231 C 0.33748 1.00436 0.62376 0.0
C1232 C 0.32607 0.0137 0.63615 0.0
C1233 C 0.30926 1.00369 0.64088 0.0
C1234 C 0.28453 0.97477 0.63574 0.0
H1235 H 0.30037 0.01099 0.65024 0.0
C1236 C 0.28213 0.95484 0.63695 0.0
C1237 C 0.26386 0.9452 0.63798 0.0
C1238 C 0.26833 0.98495 0.63571 0.0
H1239 H 0.2695 1.00012 0.63405 0.0
C1240 C 0.25026 0.97557 0.63714 0.0
H1241 H 0.29446 0.94678 0.6367 0.0
C1242 C 0.24799 0.95586 0.63827 0.0
H1243 H 0.2338 0.94898 0.63944 0.0
H1244 H 0.2379 0.98358 0.63713 0.0
H1245 H 0.26734 0.14167 0.98944 0.0
C1246 C 0.26318 0.12888 0.99606 0.0
C1247 C 0.24755 0.11629 0.98722 0.0
C1248 C 0.27382 0.1246 0.01283 0.0
H1249 H 0.2309 0.08925 0.98773 0.0
C1250 C 0.24271 0.09913 0.99493 0.0
C1251 C 0.25383 0.09384 0.01076 0.0
C1252 C 0.26889 0.10697 0.0201 0.0
C1253 C 0.29079 0.13789 0.02185 0.0
H1254 H 0.27717 0.10308 0.0326 0.0
C1255 C 0.29124 0.15791 0.02125 0.0
C1256 C 0.30755 0.17034 0.02905 0.0
C1257 C 0.307 0.13062 0.03061 0.0
H1258 H 0.30763 0.11537 0.03086 0.0
C1259 C 0.32299 0.14293 0.03875 0.0
H1260 H 0.2789 0.16395 0.01486 0.0
C1261 C 0.32332 0.16263 0.03798 0.0
H1262 H 0.33615 0.1718 0.0439 0.0
H1263 H 0.33536 0.13712 0.04538 0.0
H1264 H 0.43219 0.73575 0.53977 0.0
C1265 C 0.42472 0.74587 0.53204 0.0
C1266 C 0.43489 0.75821 0.52111 0.0
C1267 C 0.40463 0.74543 0.53158 0.0
H1268 H 0.43272 0.78049 0.50237 0.0
C1269 C 0.42497 0.77096 0.51088 0.0
C1270 C 0.40502 0.77045 0.51 0.0
C1271 C 0.39485 0.75759 0.52026 0.0
C1272 C 0.39361 0.73102 0.54138 0.0
H1273 H 0.37934 0.75684 0.51916 0.0
C1274 C 0.39848 0.72891 0.56085 0.0
C1275 C 0.38763 0.71542 0.5701 0.0
C1276 C 0.37799 0.71931 0.53113 0.0
H1277 H 0.3741 0.7205 0.51609 0.0
C1278 C 0.36743 0.70572 0.54011 0.0
H1279 H 0.41033 0.73814 0.56887 0.0
C1280 C 0.37216 0.70377 0.55942 0.0
H1281 H 0.3638 0.69297 0.56597 0.0
H1282 H 0.35552 0.69665 0.53205 0.0
H1283 H 0.99216 0.27123 0.14456 0.0
C1284 C 0.99993 0.26734 0.1325 0.0
C1285 C 0.99238 0.25152 0.11941 0.0
C1286 C 0.01681 0.27864 0.12948 0.0
H1287 H 0.99516 0.2357 0.09237 0.0
C1288 C 1.00169 0.24708 0.10313 0.0
C1289 C 0.01814 0.25835 0.0995 0.0
C1290 C 0.02589 0.2738 0.11291 0.0
C1291 C 0.02405 0.29629 0.14269 0.0
H1292 H 0.03878 0.28224 0.11011 0.0
C1293 C 0.02189 0.2974 0.16249 0.0
C1294 C 0.02798 0.31444 0.17461 0.0
C1295 C 0.03261 0.31255 0.13535 0.0
H1296 H 0.03397 0.31266 0.12021 0.0
C1297 C 0.03918 0.32919 0.14737 0.0
H1298 H 0.01524 0.28515 0.16847 0.0
C1299 C 0.03693 0.33017 0.16682 0.0
H1300 H 0.04221 0.34331 0.17579 0.0
H1301 H 0.04584 0.34151 0.14152 0.0
H1302 H 0.03811 0.68767 0.38926 0.0
C1303 C 0.03133 0.67552 0.39529 0.0
C1304 C 0.04128 0.66808 0.41063 0.0
C1305 C 0.0124 0.66794 0.38844 0.0
H1306 H 0.03939 0.64819 0.4318 0.0
C1307 C 0.0322 0.65301 0.41912 0.0
C1308 C 0.01323 0.64562 0.41292 0.0
C1309 C 1.00356 0.65279 0.39728 0.0
C1310 C 1.00137 0.67674 0.37308 0.0
H1311 H 0.98895 0.64686 0.39245 0.0
C1312 C 0.01033 0.68378 0.35771 0.0
C1313 C 0.99982 0.69217 0.34325 0.0
C1314 C 0.98174 0.67845 0.37394 0.0
H1315 H 0.97446 0.67375 0.38577 0.0
C1316 C 0.97123 0.68658 0.35971 0.0
H1317 H 0.02545 0.68259 0.35699 0.0
C1318 C 0.98009 0.69332 0.3445 0.0
H1319 H 0.97122 0.69903 0.33349 0.0
H1320 H 0.95609 0.68763 0.36044 0.0
H1321 H 0.61137 0.31561 0.94963 0.0
C1322 C 0.61722 0.3205 0.96425 0.0
C1323 C 0.61051 0.33658 0.97361 0.0
C1324 C 0.62954 0.30946 0.97422 0.0
H1325 H 0.61149 0.35438 1.00022 0.0
C1326 C 0.61747 0.34256 0.99276 0.0
C1327 C 0.62986 0.33187 1.00313 0.0
C1328 C 0.6357 0.31522 0.99371 0.0
C1329 C 0.63353 0.29058 0.96493 0.0
H1330 H 0.64458 0.30641 1.00169 0.0
C1331 C 0.63641 0.28819 0.94535 0.0
C1332 C 0.63767 0.26986 0.93593 0.0
C1333 C 0.63236 0.27436 0.97508 0.0
H1334 H 0.62962 0.27553 0.98997 0.0
C1335 C 0.63365 0.25622 0.96586 0.0
H1336 H 0.6374 0.30058 0.93738 0.0
C1337 C 0.63635 0.25393 0.94649 0.0
H1338 H 0.63673 0.23957 0.93966 0.0
H1339 H 0.63221 0.24379 0.97371 0.0
H1340 H 0.54944 0.43454 0.73859 0.0
C1341 C 0.53858 0.42925 0.74723 0.0
C1342 C 0.52907 0.44242 0.75794 0.0
C1343 C 0.5336 0.40936 0.74714 0.0
H1344 H 0.50681 0.44603 0.77628 0.0
C1345 C 0.51436 0.43573 0.76834 0.0
C1346 C 0.50828 0.41613 0.76753 0.0
C1347 C 0.51837 0.40295 0.75742 0.0
C1348 C 0.54342 0.3954 0.73533 0.0
H1349 H 0.51393 0.38777 0.75706 0.0
C1350 C 0.56323 0.39865 0.73362 0.0
C1351 C 0.57237 0.38569 0.72204 0.0
C1352 C 0.5329 0.37888 0.72529 0.0
H1353 H 0.5176 0.37611 0.72582 0.0
C1354 C 0.54192 0.36592 0.71399 0.0
H1355 H 0.57161 0.41112 0.74148 0.0
C1356 C 0.56147 0.36927 0.71232 0.0
H1357 H 0.56797 0.35918 0.70304 0.0
H1358 H 0.53364 0.35333 0.70625 0.0
H1359 H 0.1462 0.98545 0.26462 0.0
C1360 C 0.13435 0.99374 0.26136 0.0
C1361 C 0.12105 0.98743 0.24531 0.0
C1362 C 0.13162 0.00981 0.2739 0.0
H1363 H 0.09424 0.99207 0.23003 0.0
C1364 C 0.10517 0.99759 0.24165 0.0
C1365 C 0.10199 0.01342 0.25408 0.0
C1366 C 0.1154 0.01965 0.27 0.0
C1367 C 0.14439 0.01486 0.29217 0.0
H1368 H 0.11283 0.03182 0.27966 0.0
C1369 C 0.16432 0.01351 0.29301 0.0
C1370 C 0.17591 0.01686 0.31066 0.0
C1371 C 0.13641 0.02003 0.30925 0.0
H1372 H 0.12114 0.02076 0.30929 0.0
C1373 C 0.14794 0.02371 0.32666 0.0
H1374 H 0.17077 0.00954 0.28005 0.0
C1375 C 0.16752 0.02205 0.32742 0.0
H1376 H 0.17617 0.02488 0.34114 0.0
H1377 H 0.14161 0.02761 0.33968 0.0
H1378 H 0.38548 0.02178 0.67979 0.0
C1379 C 0.39257 0.01609 0.66785 0.0
C1380 C 0.40795 0.0273 0.66173 0.0
C1381 C 0.38712 0.99719 0.65929 0.0
H1382 H 0.43017 0.02785 0.6429 0.0
C1383 C 0.41759 0.01963 0.64683 0.0
C1384 C 0.41285 1.00071 0.63859 0.0
C1385 C 0.39749 0.9896 0.64471 0.0
C1386 C 0.37205 0.98469 0.66692 0.0
H1387 H 0.39399 0.97488 0.63845 0.0
C1388 C 0.35476 0.99156 0.67163 0.0
C1389 C 0.34078 0.97969 0.67932 0.0
C1390 C 0.37522 0.96578 0.67001 0.0
H1391 H 0.3885 0.96017 0.66692 0.0
C1392 C 0.36156 0.95403 0.67767 0.0
H1393 H 0.35212 1.006 0.66903 0.0
C1394 C 0.34454 0.9609 0.68238 0.0
H1395 H 0.3345 0.9515 0.68879 0.0
H1396 H 0.36428 0.93958 0.6802 0.0
H1397 H 0.94762 0.62531 0.32693 0.0
C1398 C 0.96304 0.62799 0.32739 0.0
C1399 C 0.97435 0.61769 0.3393 0.0
C1400 C 0.97151 0.64136 0.31615 0.0
H1401 H 1.00312 0.61338 0.34977 0.0
C1402 C 0.9943 0.62169 0.34101 0.0
C1403 C 1.00321 0.63498 0.33029 0.0
C1404 C 0.9918 0.64432 0.31743 0.0
C1405 C 0.9592 0.65235 0.3035 0.0
H1406 H 0.99883 0.65372 0.30843 0.0
C1407 C 0.94017 0.6451 0.2963 0.0
C1408 C 0.92808 0.65645 0.28635 0.0
C1409 C 0.96603 0.67074 0.29926 0.0
H1410 H 0.98044 0.67686 0.30403 0.0
C1411 C 0.95415 0.68192 0.28923 0.0
H1412 H 0.9345 0.63078 0.29858 0.0
C1413 C 0.93523 0.67494 0.28295 0.0
H1414 H 0.92621 0.68391 0.27528 0.0
H1415 H 0.9596 0.69618 0.28649 0.0
C1416 C 0.10369 0.60168 0.34297 0.0
C1417 C 0.12015 0.61482 0.34724 0.0
C1418 C 0.08561 0.60779 0.33844 0.0
C1419 C 0.08384 0.6276 0.33797 0.0
C1420 C 0.10051 0.6409 0.34125 0.0
C1421 C 0.11849 0.63435 0.34589 0.0
C1422 C 0.06824 0.59307 0.33506 0.0
C1423 C 0.09928 0.66209 0.34071 0.0
C1424 C 0.03448 0.63608 0.31573 0.0
C1425 C 0.02453 0.63762 0.332 0.0
C1426 C 0.05431 0.63444 0.31747 0.0
C1427 C 0.06429 0.63415 0.33587 0.0
C1428 C 0.05457 0.63731 0.35235 0.0
C1429 C 0.03487 0.63911 0.3502 0.0
C1430 C 0.06428 0.63164 0.29957 0.0
C1431 C 0.06462 0.63734 0.37227 0.0
H1432 H 0.1049 0.58652 0.34356 0.0
H1433 H 0.13112 0.64462 0.3492 0.0
H1434 H 0.05873 0.59556 0.34651 0.0
H1435 H 0.05989 0.59447 0.32121 0.0
H1436 H 0.07216 0.57817 0.33493 0.0
H1437 H 0.11352 0.67 0.3398 0.0
H1438 H 0.08927 0.6648 0.32837 0.0
H1439 H 0.09364 0.66799 0.35395 0.0
H1440 H 0.0266 0.63499 0.30163 0.0
H1441 H 0.02728 0.64058 0.36281 0.0
H1442 H 0.06715 0.61645 0.29706 0.0
H1443 H 0.07829 0.64059 0.30122 0.0
H1444 H 0.05547 0.63527 0.28675 0.0
H1445 H 0.07035 0.62338 0.37381 0.0
H1446 H 0.05493 0.63986 0.38356 0.0
H1447 H 0.07694 0.64862 0.37475 0.0
C1448 C 0.40554 0.39198 0.80448 0.0
C1449 C 0.40584 0.40382 0.82172 0.0
C1450 C 0.42257 0.38918 0.79621 0.0
C1451 C 0.44019 0.39879 0.80516 0.0
C1452 C 0.44076 0.4092 0.82343 0.0
C1453 C 0.42362 0.41137 0.83158 0.0
C1454 C 0.42147 0.3773 0.7771 0.0
C1455 C 0.45922 0.41965 0.83354 0.0
C1456 C 0.48879 0.39421 0.78649 0.0
C1457 C 0.49032 0.41003 0.77585 0.0
C1458 C 0.47214 0.38965 0.79544 0.0
C1459 C 0.45694 0.40141 0.79397 0.0
C1460 C 0.45817 0.41687 0.78258 0.0
C1461 C 0.47465 0.42075 0.77346 0.0
C1462 C 0.47116 0.3727 0.80698 0.0
C1463 C 0.44238 0.42987 0.78058 0.0
H1464 H 0.39195 0.38593 0.79674 0.0
H1465 H 0.42407 0.41995 0.84525 0.0
H1466 H 0.42207 0.38692 0.76555 0.0
H1467 H 0.43379 0.36864 0.77651 0.0
H1468 H 0.40793 0.36755 0.77414 0.0
H1469 H 0.45769 0.42511 0.84857 0.0
H1470 H 0.47086 0.41014 0.8336 0.0
H1471 H 0.46367 0.43201 0.82574 0.0
H1472 H 0.50078 0.38576 0.78829 0.0
H1473 H 0.4754 0.43256 0.76468 0.0
H1474 H 0.45656 0.36486 0.80496 0.0
H1475 H 0.47449 0.37779 0.82242 0.0
H1476 H 0.48164 0.36259 0.80302 0.0
H1477 H 0.4287 0.4214 0.77456 0.0
H1478 H 0.44563 0.44127 0.77117 0.0
H1479 H 0.44017 0.43682 0.79489 0.0
C1480 C 0.50853 0.97536 0.59279 0.0
C1481 C 0.52173 0.98801 0.60534 0.0
C1482 C 0.48889 0.97354 0.59526 0.0
C1483 C 0.48232 0.98473 0.61055 0.0
C1484 C 0.49565 0.99715 0.62352 0.0
C1485 C 0.51515 0.99862 0.62076 0.0
C1486 C 0.47513 0.96007 0.58126 0.0
C1487 C 0.48926 0.0094 0.64002 0.0
C1488 C 0.43352 1.00211 0.6119 0.0
C1489 C 0.42652 0.99213 0.62647 0.0
C1490 C 0.45092 0.99839 0.60495 0.0
C1491 C 0.4615 0.98439 0.61282 0.0
C1492 C 0.45327 0.97265 0.62575 0.0
C1493 C 0.43579 0.97667 0.63244 0.0
C1494 C 0.45896 0.01101 0.59088 0.0
C1495 C 0.46389 0.95733 0.63423 0.0
H1496 H 0.51354 0.96699 0.58094 0.0
H1497 H 0.52517 0.00864 0.63032 0.0
H1498 H 0.46576 0.95064 0.58901 0.0
H1499 H 0.46568 0.96844 0.57261 0.0
H1500 H 0.48271 0.95097 0.57136 0.0
H1501 H 0.50151 0.01786 0.64914 0.0
H1502 H 0.47947 0.01949 0.63445 0.0
H1503 H 0.48119 1.00026 0.64914 0.0
H1504 H 0.42621 0.01394 0.60714 0.0
H1505 H 0.43043 0.96894 0.64373 0.0
H1506 H 0.46582 1.00253 0.5799 0.0
H1507 H 0.47013 0.02194 0.59863 0.0
H1508 H 0.4477 0.01857 0.58355 0.0
H1509 H 0.47115 0.94933 0.62322 0.0
H1510 H 0.45414 0.94703 0.64069 0.0
H1511 H 0.4751 0.96416 0.64562 0.0
C1512 C 0.99403 0.99841 0.23023 0.0
C1513 C 0.98232 0.0134 0.23062 0.0
C1514 C 0.01386 1.00194 0.23525 0.0
C1515 C 0.02229 0.02097 0.24077 0.0
C1516 C 0.01054 0.03618 0.24149 0.0
C1517 C 0.99063 0.0322 0.23647 0.0
C1518 C 0.02582 0.98524 0.23446 0.0
C1519 C 0.01903 0.05663 0.2472 0.0
C1520 C 0.07163 0.02113 0.26717 0.0
C1521 C 0.08301 0.02094 0.25191 0.0
C1522 C 0.05192 0.02289 0.26411 0.0
C1523 C 0.04348 0.02458 0.24537 0.0
C1524 C 0.0553 0.02638 0.23036 0.0
C1525 C 0.07494 0.02445 0.23379 0.0
C1526 C 0.03987 0.02097 0.28053 0.0
C1527 C 0.04697 0.02852 0.21024 0.0
H1528 H 0.98763 0.98383 0.22606 0.0
H1529 H 0.98162 0.04383 0.2367 0.0
H1530 H 0.03643 0.98711 0.22396 0.0
H1531 H 0.03394 0.98469 0.24864 0.0
H1532 H 0.01697 0.97128 0.23031 0.0
H1533 H 0.00786 0.06669 0.24802 0.0
H1534 H 0.02774 0.05783 0.26131 0.0
H1535 H 0.02878 0.06114 0.23663 0.0
H1536 H 0.07778 0.01828 0.28118 0.0
H1537 H 0.08376 0.02447 0.22202 0.0
H1538 H 0.03205 0.00638 0.27896 0.0
H1539 H 0.02903 0.03138 0.28047 0.0
H1540 H 0.04877 0.02318 0.29461 0.0
H1541 H 0.03939 0.01458 0.20363 0.0
H1542 H 0.05823 0.033 0.20111 0.0
H1543 H 0.03634 0.03915 0.21035 0.0
C1544 C 0.35372 0.12784 0.63792 0.0
C1545 C 0.35967 0.12835 0.61952 0.0
C1546 C 0.34726 0.11035 0.64451 0.0
C1547 C 0.34659 0.09306 0.63234 0.0
C1548 C 0.35238 0.09357 0.6137 0.0
C1549 C 0.35882 0.11116 0.60754 0.0
C1550 C 0.34157 0.11031 0.66459 0.0
C1551 C 0.35194 0.07548 0.60023 0.0
C1552 C 0.34878 0.04308 0.64693 0.0
C1553 C 0.33007 0.03478 0.6408 0.0
C1554 C 0.35394 0.06272 0.64629 0.0
C1555 C 0.34017 0.0742 0.63884 0.0
C1556 C 0.32083 0.06625 0.63442 0.0
C1557 C 0.31598 0.04662 0.63556 0.0
C1558 C 0.37459 0.07055 0.65184 0.0
C1559 C 0.30562 0.07795 0.62658 0.0
H1560 H 0.3545 0.14106 0.64731 0.0
H1561 H 0.36308 0.11147 0.5932 0.0
H1562 H 0.32681 0.10312 0.66428 0.0
H1563 H 0.35126 0.10201 0.67307 0.0
H1564 H 0.3422 0.12501 0.67202 0.0
H1565 H 0.35648 0.0784 0.58604 0.0
H1566 H 0.3616 0.0657 0.60662 0.0
H1567 H 0.33725 0.06785 0.59803 0.0
H1568 H 0.3597 0.03401 0.65108 0.0
H1569 H 0.30149 0.04026 0.63071 0.0
H1570 H 0.37617 0.08608 0.65684 0.0
H1571 H 0.38268 0.06841 0.63919 0.0
H1572 H 0.38112 0.06282 0.66338 0.0
H1573 H 0.3069 0.09238 0.63469 0.0
H1574 H 0.29094 0.07083 0.62708 0.0
H1575 H 0.30758 0.07996 0.61145 0.0
C1576 C 0.24881 0.98267 0.02623 0.0
C1577 C 0.22948 0.9753 0.02543 0.0
C1578 C 0.25416 1.00253 0.02794 0.0
C1579 C 0.23983 0.01529 0.02854 0.0
C1580 C 0.22054 0.00799 0.02942 0.0
C1581 C 0.21564 0.98811 0.02803 0.0
C1582 C 0.27495 0.00974 0.02743 0.0
C1583 C 0.20478 0.02104 0.03001 0.0
C1584 C 0.25206 0.06964 0.03502 0.0
C1585 C 0.25082 0.07381 0.0159 0.0
C1586 C 0.24897 0.0506 0.03951 0.0
C1587 C 0.24429 0.0355 0.02452 0.0
C1588 C 0.24333 0.03965 0.00524 0.0
C1589 C 0.24686 0.05863 1.00121 0.0
C1590 C 0.25051 0.04665 0.06023 0.0
C1591 C 0.23832 0.02406 0.98876 0.0
H1592 H 0.25965 0.97296 0.02427 0.0
H1593 H 0.20075 0.98257 0.028 0.0
H1594 H 0.27715 0.01372 0.01289 0.0
H1595 H 0.27914 0.02274 0.03769 0.0
H1596 H 0.2846 0.99868 0.03084 0.0
H1597 H 0.19115 0.01354 0.03348 0.0
H1598 H 0.20903 0.03367 0.04071 0.0
H1599 H 0.20213 0.02642 0.0158 0.0
H1600 H 0.25516 0.08124 0.04647 0.0
H1601 H 0.24655 0.06156 0.98638 0.0
H1602 H 0.26026 0.03544 0.06256 0.0
H1603 H 0.23624 0.0411 0.06399 0.0
H1604 H 0.25587 0.0597 0.0701 0.0
H1605 H 0.24901 0.0135 0.98923 0.0
H1606 H 0.23784 0.02977 0.97459 0.0
H1607 H 0.22412 0.01625 0.98999 0.0
C1608 C 0.80447 0.41211 0.41186 0.0
C1609 C 0.81951 0.406 0.40202 0.0
C1610 C 0.79867 0.43044 0.41059 0.0
C1611 C 0.80791 0.44292 0.39891 0.0
C1612 C 0.8226 0.43656 0.38829 0.0
C1613 C 0.82841 0.41822 0.39018 0.0
C1614 C 0.78312 0.43671 0.42239 0.0
C1615 C 0.83246 0.44926 0.37536 0.0
C1616 C 0.77888 0.48453 0.39133 0.0
C1617 C 0.7871 0.49787 0.40666 0.0
C1618 C 0.78669 0.46715 0.38731 0.0
C1619 C 0.80286 0.46296 0.3991 0.0
C1620 C 0.81226 0.47717 0.41335 0.0
C1621 C 0.80437 0.49452 0.41681 0.0
C1622 C 0.77659 0.45263 0.37159 0.0
C1623 C 0.82953 0.47335 0.42628 0.0
H1624 H 0.79775 0.4028 0.42123 0.0
H1625 H 0.83999 0.41346 0.38248 0.0
H1626 H 0.78896 0.44921 0.43278 0.0
H1627 H 0.77124 0.4413 0.413 0.0
H1628 H 0.77715 0.42514 0.43045 0.0
H1629 H 0.84166 0.44133 0.36617 0.0
H1630 H 0.82173 0.45564 0.36604 0.0
H1631 H 0.84156 0.46126 0.38414 0.0
H1632 H 0.76556 0.48698 0.38337 0.0
H1633 H 0.81104 0.50499 0.42839 0.0
H1634 H 0.76781 0.44149 0.37799 0.0
H1635 H 0.7871 0.44535 0.36354 0.0
H1636 H 0.76695 0.45933 0.36139 0.0
H1637 H 0.82498 0.46294 0.43625 0.0
H1638 H 0.83658 0.4866 0.4349 0.0
H1639 H 0.8402 0.4669 0.41781 0.0
C1640 C 0.59215 0.50122 0.98733 0.0
C1641 C 0.60719 0.51493 0.99565 0.0
C1642 C 0.59455 0.48157 0.98528 0.0
C1643 C 0.61234 0.47547 0.99189 0.0
C1644 C 0.62773 0.48928 0.99974 0.0
C1645 C 0.62499 0.50879 1.00142 0.0
C1646 C 0.57787 0.46732 0.9767 0.0
C1647 C 0.647 0.48344 0.00692 0.0
C1648 C 0.61995 0.42824 0.0108 0.0
C1649 C 0.63061 0.42008 0.99695 0.0
C1650 C 0.61209 0.4455 0.00845 0.0
C1651 C 0.61491 0.45472 0.9918 0.0
C1652 C 0.62349 0.44524 0.97672 0.0
C1653 C 0.63128 0.42796 0.97949 0.0
C1654 C 0.60279 0.45492 0.02477 0.0
C1655 C 0.62635 0.45432 0.95855 0.0
H1656 H 0.57828 0.50578 0.98298 0.0
H1657 H 0.6368 0.51927 0.00749 0.0
H1658 H 0.58254 0.45658 0.96606 0.0
H1659 H 0.57211 0.45943 0.98814 0.0
H1660 H 0.56609 0.47441 0.96963 0.0
H1661 H 0.64536 0.4744 0.01883 0.0
H1662 H 0.65282 0.47473 0.99532 0.0
H1663 H 0.65762 0.49597 0.01213 0.0
H1664 H 0.61926 0.42201 0.02423 0.0
H1665 H 0.63951 0.42168 0.96875 0.0
H1666 H 0.58974 0.46118 0.01936 0.0
H1667 H 0.61294 0.46677 0.03254 0.0
H1668 H 0.59884 0.44465 0.03512 0.0
H1669 H 0.61352 0.4612 0.95359 0.0
H1670 H 0.62943 0.44366 0.94689 0.0
H1671 H 0.63865 0.46563 0.96136 0.0
C1672 C 0.60116 0.35617 0.10405 0.0
C1673 C 0.61468 0.36023 0.12022 0.0
C1674 C 0.60676 0.35134 0.08581 0.0
C1675 C 0.62643 0.35049 0.08358 0.0
C1676 C 0.64019 0.35431 0.09986 0.0
C1677 C 0.63414 0.35905 0.11803 0.0
C1678 C 0.59157 0.34734 0.06887 0.0
C1679 C 0.66127 0.35353 0.09803 0.0
C1680 C 0.63253 0.32208 0.03657 0.0
C1681 C 0.63387 0.33662 0.02432 0.0
C1682 C 0.63183 0.32647 0.05634 0.0
C1683 C 0.63226 0.34583 0.06403 0.0
C1684 C 0.63531 0.3606 0.05204 0.0
C1685 C 0.63624 0.35581 0.0324 0.0
C1686 C 0.62891 0.31027 0.06864 0.0
C1687 C 0.63587 0.38145 0.05961 0.0
H1688 H 0.58607 0.35672 0.10567 0.0
H1689 H 0.64467 0.36227 0.13046 0.0
H1690 H 0.59439 0.35754 0.05817 0.0
H1691 H 0.59202 0.33268 0.06175 0.0
H1692 H 0.5769 0.34857 0.07305 0.0
H1693 H 0.67023 0.35756 0.11194 0.0
H1694 H 0.6638 0.33883 0.09244 0.0
H1695 H 0.66606 0.36329 0.08759 0.0
H1696 H 0.6306 0.30719 0.03061 0.0
H1697 H 0.63764 0.36717 0.02315 0.0
H1698 H 0.61371 0.30852 0.07166 0.0
H1699 H 0.6379 0.31346 0.08259 0.0
H1700 H 0.63235 0.29647 0.06148 0.0
H1701 H 0.62133 0.38455 0.06292 0.0
H1702 H 0.64062 0.39119 0.0491 0.0
H1703 H 0.6456 0.38471 0.0731 0.0
C1704 C 0.99992 0.23523 0.99143 0.0
C1705 C 0.01466 0.2339 0.97952 0.0
C1706 C 1.00397 0.24028 0.01121 0.0
C1707 C 0.02329 0.24411 0.01938 0.0
C1708 C 0.03827 0.24322 0.00741 0.0
C1709 C 0.03377 0.23817 0.98757 0.0
C1710 C 0.98751 0.24124 0.0234 0.0
C1711 C 0.05902 0.24714 0.01561 0.0
C1712 C 0.02642 0.27075 0.06899 0.0
C1713 C 0.02502 0.25545 0.08028 0.0
C1714 C 0.02759 0.26747 0.04919 0.0
C1715 C 0.02742 0.24845 0.04056 0.0
C1716 C 0.02796 0.23321 0.05224 0.0
C1717 C 0.0267 0.23689 0.07196 0.0
C1718 C 0.02712 0.28415 0.0373 0.0
C1719 C 0.02805 0.21275 0.0437 0.0
H1720 H 0.98512 0.23228 0.98524 0.0
H1721 H 0.04522 0.23707 0.97842 0.0
H1722 H 0.98838 0.23057 0.03396 0.0
H1723 H 0.9884 0.2556 0.03158 0.0
H1724 H 0.97332 0.23838 0.01474 0.0
H1725 H 0.06891 0.24718 1.00426 0.0
H1726 H 0.0615 0.26117 0.02452 0.0
H1727 H 0.06262 0.23603 0.02509 0.0
H1728 H 0.02501 0.28512 0.07531 0.0
H1729 H 0.0258 0.22505 0.08071 0.0
H1730 H 0.01252 0.28393 0.02976 0.0
H1731 H 0.03725 0.28308 0.02624 0.0
H1732 H 0.03071 0.29811 0.04626 0.0
H1733 H 0.01366 0.20748 0.03624 0.0
H1734 H 0.0316 0.20312 0.05481 0.0
H1735 H 0.03851 0.21182 0.03294 0.0
C1736 C 0.41599 0.81083 0.41961 0.0
C1737 C 0.40316 0.82108 0.40939 0.0
C1738 C 0.41144 0.80328 0.43644 0.0
C1739 C 0.39361 0.80618 0.44338 0.0
C1740 C 0.38036 0.8162 0.43293 0.0
C1741 C 0.38528 0.82348 0.41594 0.0
C1742 C 0.42593 0.79243 0.44695 0.0
C1743 C 0.36133 0.81973 0.43997 0.0
C1744 C 0.38504 0.77094 0.4792 0.0
C1745 C 0.39526 0.78115 0.49563 0.0
C1746 C 0.38215 0.77968 0.46223 0.0
C1747 C 0.38957 0.79904 0.46192 0.0
C1748 C 0.39741 0.81003 0.47925 0.0
C1749 C 0.40035 0.80087 0.49592 0.0
C1750 C 0.37352 0.76748 0.44415 0.0
C1751 C 0.40501 0.83084 0.47968 0.0
H1752 H 0.42969 0.80869 0.41438 0.0
H1753 H 0.37537 0.83147 0.40804 0.0
H1754 H 0.4307 0.80004 0.46137 0.0
H1755 H 0.4193 0.77794 0.44897 0.0
H1756 H 0.43878 0.79082 0.4392 0.0
H1757 H 0.35158 0.82517 0.42889 0.0
H1758 H 0.35414 0.80642 0.44442 0.0
H1759 H 0.36373 0.83049 0.45274 0.0
H1760 H 0.38118 0.75565 0.47898 0.0
H1761 H 0.40822 0.80874 0.5087 0.0
H1762 H 0.38522 0.76294 0.43585 0.0
H1763 H 0.36438 0.77566 0.43496 0.0
H1764 H 0.36482 0.75441 0.44736 0.0
H1765 H 0.4192 0.8318 0.47404 0.0
H1766 H 0.40681 0.83823 0.49448 0.0
H1767 H 0.3953 0.83848 0.4705 0.0
C1768 C 0.97814 0.59861 0.50449 0.0
C1769 C 0.99013 0.61086 0.51852 0.0
C1770 C 0.97781 0.60133 0.48496 0.0
C1771 C 0.98989 0.61656 0.47936 0.0
C1772 C 1.00156 0.6293 0.49352 0.0
C1773 C 1.00152 0.6263 0.51286 0.0
C1774 C 0.96504 0.58757 0.47033 0.0
C1775 C 0.01469 0.64575 0.48819 0.0
C1776 C 0.01181 0.61824 0.43288 0.0
C1777 C 1.00295 0.63325 0.42533 0.0
C1778 C 1.00619 0.61097 0.44955 0.0
C1779 C 0.99136 0.61894 0.45879 0.0
C1780 C 0.98071 0.63224 0.44975 0.0
C1781 C 0.98665 0.63927 0.43307 0.0
C1782 C 0.01768 0.59648 0.45845 0.0
C1783 C 0.96451 0.64077 0.45886 0.0
H1784 H 0.96917 0.58673 0.50877 0.0
H1785 H 0.01106 0.63564 0.52353 0.0
H1786 H 0.95715 0.59546 0.45978 0.0
H1787 H 0.97396 0.57819 0.46229 0.0
H1788 H 0.95452 0.57835 0.47709 0.0
H1789 H 0.02236 0.65471 0.50097 0.0
H1790 H 0.02549 0.64013 0.47931 0.0
H1791 H 1.00634 0.65505 0.47953 0.0
H1792 H 0.02425 0.61338 0.42672 0.0
H1793 H 0.97972 0.65086 0.42727 0.0
H1794 H 0.0082 0.58548 0.46424 0.0
H1795 H 0.02776 0.60386 0.47056 0.0
H1796 H 0.02616 0.58921 0.44799 0.0
H1797 H 0.95559 0.62973 0.46525 0.0
H1798 H 0.9552 0.64744 0.44835 0.0
H1799 H 0.97055 0.65201 0.47056 0.0
C1800 C 0.88103 0.37729 0.66229 0.0
C1801 C 0.87932 0.39006 0.64826 0.0
C1802 C 0.899 0.37197 0.66898 0.0
C1803 C 0.91567 0.37944 0.66128 0.0
C1804 C 0.91394 0.3919 0.64675 0.0
C1805 C 0.89586 0.39711 0.64049 0.0
C1806 C 0.89988 0.35826 0.68416 0.0
C1807 C 0.93135 0.40016 0.63817 0.0
C1808 C 0.96492 0.38555 0.68908 0.0
C1809 C 0.97765 0.37373 0.67792 0.0
C1810 C 0.94539 0.38735 0.68417 0.0
C1811 C 0.93517 0.37543 0.66901 0.0
C1812 C 0.94386 0.36013 0.66106 0.0
C1813 C 0.9634 0.35865 0.66655 0.0
C1814 C 0.93576 0.40276 0.69495 0.0
C1815 C 0.93256 0.3454 0.64608 0.0
H1816 H 0.86829 0.37145 0.6681 0.0
H1817 H 0.89476 0.40717 0.62985 0.0
H1818 H 0.89827 0.34337 0.67706 0.0
H1819 H 0.91366 0.36051 0.69351 0.0
H1820 H 0.88798 0.35956 0.69331 0.0
H1821 H 0.92752 0.40898 0.62641 0.0
H1822 H 0.94115 0.40924 0.64945 0.0
H1823 H 0.93935 0.38843 0.63247 0.0
H1824 H 0.9702 0.39552 0.70148 0.0
H1825 H 0.96721 0.34537 0.65999 0.0
H1826 H 0.92259 0.39633 0.70034 0.0
H1827 H 0.93135 0.41329 0.68508 0.0
H1828 H 0.94516 0.41066 0.70731 0.0
H1829 H 0.91915 0.33959 0.65147 0.0
H1830 H 0.94071 0.33323 0.64186 0.0
H1831 H 0.92839 0.35236 0.63305 0.0
C1832 C 0.60599 0.61936 0.21189 0.0
C1833 C 0.60791 0.60128 0.20249 0.0
C1834 C 0.589 0.62302 0.21994 0.0
C1835 C 0.57381 0.60813 0.21885 0.0
C1836 C 0.57564 0.58996 0.20914 0.0
C1837 C 0.59259 0.58681 0.20105 0.0
C1838 C 0.58746 0.64264 0.22992 0.0
C1839 C 0.55989 0.57358 0.20778 0.0
C1840 C 0.53768 0.60239 0.25454 0.0
C1841 C 0.52063 0.60441 0.24327 0.0
C1842 C 0.55551 0.6054 0.24743 0.0
C1843 C 0.5563 0.61078 0.22866 0.0
C1844 C 0.53937 0.61507 0.21815 0.0
C1845 C 0.52166 0.61175 0.22555 0.0
C1846 C 0.57318 0.60075 0.25921 0.0
C1847 C 0.53964 0.6213 0.19829 0.0
H1848 H 0.61777 0.63062 0.21295 0.0
H1849 H 0.5941 0.57272 0.1941 0.0
H1850 H 0.57374 0.64792 0.22481 0.0
H1851 H 0.58749 0.6418 0.24554 0.0
H1852 H 0.5995 0.65322 0.22756 0.0
H1853 H 0.56344 0.56048 0.1994 0.0
H1854 H 0.55728 0.57001 0.22236 0.0
H1855 H 0.54632 0.57783 0.20093 0.0
H1856 H 0.53695 0.59706 0.26841 0.0
H1857 H 0.50855 0.61337 0.21676 0.0
H1858 H 0.58543 0.61171 0.25864 0.0
H1859 H 0.57729 0.58676 0.25323 0.0
H1860 H 0.57074 0.59977 0.27444 0.0
H1861 H 0.55231 0.63172 0.19752 0.0
H1862 H 0.52645 0.62788 0.19379 0.0
H1863 H 0.54061 0.60864 0.18794 0.0
C1864 C 0.50887 0.01423 0.38396 0.0
C1865 C 0.50216 0.02919 0.39511 0.0
C1866 C 0.52804 0.01511 0.3801 0.0
C1867 C 0.54088 0.03143 0.38751 0.0
C1868 C 0.53422 0.04667 0.39869 0.0
C1869 C 0.51491 0.04534 0.40243 0.0
C1870 C 0.53457 0.99845 0.36817 0.0
C1871 C 0.54745 0.06433 0.40665 0.0
C1872 C 0.59151 0.01849 0.38702 0.0
C1873 C 0.59491 0.02215 0.3684 0.0
C1874 C 0.57468 0.02342 0.39451 0.0
C1875 C 0.56114 0.03225 0.38308 0.0
C1876 C 0.56584 0.03824 0.36536 0.0
C1877 C 0.58269 0.03304 0.35818 0.0
C1878 C 0.5704 0.01704 0.41361 0.0
C1879 C 0.55205 0.04805 0.35288 0.0
H1880 H 0.49919 1.00156 0.37859 0.0
H1881 H 0.50975 0.05698 0.41099 0.0
H1882 H 0.54016 1.00339 0.3551 0.0
H1883 H 0.54642 0.99251 0.37641 0.0
H1884 H 0.52282 0.98674 0.36371 0.0
H1885 H 0.54013 0.07475 0.4154 0.0
H1886 H 0.55991 0.06027 0.41564 0.0
H1887 H 0.55317 0.07151 0.39474 0.0
H1888 H 0.60097 0.01008 0.39494 0.0
H1889 H 0.58546 0.03601 0.34384 0.0
H1890 H 0.56067 1.00349 0.41119 0.0
H1891 H 0.56307 0.02783 0.42183 0.0
H1892 H 0.58366 0.01441 0.42239 0.0
H1893 H 0.54053 0.03724 0.34557 0.0
H1894 H 0.5593 0.0552 0.34175 0.0
H1895 H 0.54518 0.05886 0.36159 0.0
C1896 C 0.02206 0.0184 0.75379 0.0
C1897 C 0.03516 1.00513 0.75763 0.0
C1898 C 1.00226 0.01299 0.75165 0.0
C1899 C 0.9953 0.99371 0.75308 0.0
C1900 C 0.00844 0.97989 0.7554 0.0
C1901 C 0.02826 0.98579 0.75776 0.0
C1902 C 0.9888 0.02822 0.74915 0.0
C1903 C 1.0016 0.95913 0.75657 0.0
C1904 C 0.94807 0.99146 0.77429 0.0
C1905 C 0.93491 0.98906 0.75781 0.0
C1906 C 0.96778 0.99152 0.77299 0.0
C1907 C 0.9745 0.98891 0.75474 0.0
C1908 C 0.96115 0.9846 0.73816 0.0
C1909 C 0.94142 0.98481 0.73989 0.0
C1910 C 0.98144 0.99608 0.79107 0.0
C1911 C 0.96772 0.98124 0.7185 0.0
H1912 H 0.02731 0.03327 0.75317 0.0
H1913 H 0.03826 0.97542 0.7607 0.0
H1914 H 0.97785 0.02368 0.73677 0.0
H1915 H 0.98112 0.03029 0.7621 0.0
H1916 H 0.99646 0.04222 0.7469 0.0
H1917 H 0.01316 0.94972 0.75449 0.0
H1918 H 0.99671 0.9575 0.77087 0.0
H1919 H 0.98924 0.95419 0.74568 0.0
H1920 H 0.943 0.99444 0.7882 0.0
H1921 H 0.93127 0.98291 0.72711 0.0
H1922 H 0.98917 0.01057 0.79116 0.0
H1923 H 0.99232 0.98573 0.79164 0.0
H1924 H 0.97391 0.9958 0.8042 0.0
H1925 H 0.97292 0.99518 0.71373 0.0
H1926 H 0.9559 0.97424 0.70781 0.0
H1927 H 0.97979 0.97222 0.71876 0.0
C1928 C 0.66733 0.88202 0.3807 0.0
C1929 C 0.65259 0.88084 0.39272 0.0
C1930 C 0.67416 0.89962 0.37467 0.0
C1931 C 0.66617 0.91652 0.38098 0.0
C1932 C 0.65094 0.91532 0.39267 0.0
C1933 C 0.64438 0.89756 0.39842 0.0
C1934 C 0.69038 0.89992 0.36215 0.0
C1935 C 0.64195 0.93298 0.39961 0.0
C1936 C 0.69386 0.96579 0.38649 0.0
C1937 C 0.683 0.97794 0.37376 0.0
C1938 C 0.68893 0.94637 0.38877 0.0
C1939 C 0.67424 0.93575 0.37655 0.0
C1940 C 0.66695 0.94383 0.36053 0.0
C1941 C 0.67249 0.96324 0.35856 0.0
C1942 C 0.69907 0.93739 0.40507 0.0
C1943 C 0.65262 0.93201 0.34552 0.0
H1944 H 0.67362 0.86917 0.37601 0.0
H1945 H 0.63318 0.89691 0.40792 0.0
H1946 H 0.6912 0.9125 0.35384 0.0
H1947 H 0.70414 0.90028 0.37133 0.0
H1948 H 0.68892 0.88667 0.352 0.0
H1949 H 0.6297 0.92954 0.40794 0.0
H1950 H 0.65286 0.94311 0.4088 0.0
H1951 H 0.63682 0.94043 0.38722 0.0
H1952 H 0.70584 0.97154 0.39683 0.0
H1953 H 0.66653 0.96663 0.34484 0.0
H1954 H 0.70502 0.92424 0.39942 0.0
H1955 H 0.68863 0.93308 0.41511 0.0
H1956 H 0.71094 0.94716 0.41333 0.0
H1957 H 0.65822 0.91837 0.34071 0.0
H1958 H 0.6491 0.9396 0.33276 0.0
H1959 H 0.63912 0.92826 0.35189 0.0
C1960 C 0.75305 0.02582 0.98858 0.0
C1961 C 0.77066 0.03288 0.99911 0.0
C1962 C 0.74728 1.006 0.9853 0.0
C1963 C 0.75934 0.99298 0.99287 0.0
C1964 C 0.77735 1.00002 1.00304 0.0
C1965 C 0.78275 0.01982 0.00603 0.0
C1966 C 0.72807 0.99903 0.97426 0.0
C1967 C 0.79064 0.98667 0.01146 0.0
C1968 C 0.74159 0.94525 0.00847 0.0
C1969 C 0.74836 0.93242 0.99493 0.0
C1970 C 0.74366 0.96502 0.00708 0.0
C1971 C 0.75276 0.97213 0.99176 0.0
C1972 C 0.75807 0.95909 0.97711 0.0
C1973 C 0.7558 0.9393 0.97887 0.0
C1974 C 0.73766 0.97835 0.02296 0.0
C1975 C 0.76762 0.96607 0.96045 0.0
H1976 H 0.74372 0.0358 0.983 0.0
H1977 H 0.79623 0.02511 0.01444 0.0
H1978 H 0.72963 0.98748 0.96286 0.0
H1979 H 0.71828 0.99286 0.98403 0.0
H1980 H 0.72131 0.01074 0.96762 0.0
H1981 H 0.80457 0.99434 0.01804 0.0
H1982 H 0.78375 0.97926 0.02262 0.0
H1983 H 0.79347 0.97549 1.00022 0.0
H1984 H 0.73572 0.93988 0.02082 0.0
H1985 H 0.76111 0.92938 0.96844 0.0
H1986 H 0.72963 0.98959 0.01698 0.0
H1987 H 0.75062 0.98566 0.03187 0.0
H1988 H 0.72858 0.97058 0.03238 0.0
H1989 H 0.76036 0.97792 0.9547 0.0
H1990 H 0.76765 0.95439 0.94871 0.0
H1991 H 0.78271 0.97174 0.9654 0.0
C1992 C 0.21198 0.60205 0.6292 0.0
C1993 C 0.22146 0.6141 0.61757 0.0
C1994 C 0.21571 0.58284 0.62948 0.0
C1995 C 0.22895 0.57547 0.61759 0.0
C1996 C 0.23956 0.58796 0.60693 0.0
C1997 C 0.23573 0.60712 0.60712 0.0
C1998 C 0.20448 0.57012 0.64143 0.0
C1999 C 0.25374 0.58071 0.59395 0.0
C2000 C 0.24605 0.52583 0.61642 0.0
C2001 C 0.23461 0.51646 0.60025 0.0
C2002 C 0.24358 0.54479 0.62322 0.0
C2003 C 0.22943 0.55442 0.61353 0.0
C2004 C 0.21696 0.54441 0.59809 0.0
C2005 C 0.21968 0.52556 0.59171 0.0
C2006 C 0.25687 0.55484 0.63998 0.0
C2007 C 0.20159 0.55401 0.58738 0.0
H2008 H 0.20111 0.60746 0.63752 0.0
H2009 H 0.243 0.61627 0.59796 0.0
H2010 H 0.1928 0.56112 0.63207 0.0
H2011 H 0.21377 0.56035 0.64835 0.0
H2012 H 0.19793 0.57862 0.65269 0.0
H2013 H 0.26228 0.59257 0.58829 0.0
H2014 H 0.26371 0.57211 0.60168 0.0
H2015 H 0.24592 0.57121 0.58163 0.0
H2016 H 0.25755 0.51875 0.62306 0.0
H2017 H 0.21063 0.51815 0.5794 0.0
H2018 H 0.24888 0.56352 0.6498 0.0
H2019 H 0.26784 0.56478 0.63466 0.0
H2020 H 0.26435 0.54454 0.64816 0.0
H2021 H 0.19248 0.56076 0.5975 0.0
H2022 H 0.19223 0.5438 0.57664 0.0
H2023 H 0.20838 0.56555 0.57981 0.0
C2024 C 0.41994 0.50898 0.03379 0.0
C2025 C 0.40288 0.4965 0.03067 0.0
C2026 C 0.41973 0.52876 0.03268 0.0
C2027 C 0.40212 0.53611 0.02786 0.0
C2028 C 0.38476 0.52384 0.02619 0.0
C2029 C 0.38536 0.50426 0.0279 0.0
C2030 C 0.4385 0.54144 0.0352 0.0
C2031 C 0.36561 0.53103 0.02099 0.0
C2032 C 0.39185 0.5877 0.02619 0.0
C2033 C 0.39075 0.58887 0.00642 0.0
C2034 C 0.39747 0.57116 0.03389 0.0
C2035 C 0.40174 0.55555 0.02139 0.0
C2036 C 0.40249 0.55759 1.00168 0.0
C2037 C 0.39707 0.5743 0.99447 0.0
C2038 C 0.39733 0.56976 0.05508 0.0
C2039 C 0.407 0.54137 0.9878 0.0
H2040 H 0.43362 0.50323 0.03595 0.0
H2041 H 0.37208 0.49485 0.02609 0.0
H2042 H 0.44352 0.54309 0.02096 0.0
H2043 H 0.43686 0.55594 0.04207 0.0
H2044 H 0.44974 0.53512 0.04397 0.0
H2045 H 0.36381 0.54391 0.0307 0.0
H2046 H 0.36497 0.53526 0.0062 0.0
H2047 H 0.3534 0.52002 0.0217 0.0
H2048 H 0.38694 0.59902 0.0354 0.0
H2049 H 0.39626 0.57535 0.97917 0.0
H2050 H 0.41071 0.56432 0.06093 0.0
H2051 H 0.38518 0.55941 0.05759 0.0
H2052 H 0.39588 0.5838 0.06311 0.0
H2053 H 0.42035 0.53561 0.99318 0.0
H2054 H 0.40868 0.5459 0.97334 0.0
H2055 H 0.39521 0.52951 0.9864 0.0
C2056 C 0.39095 0.6424 0.89178 0.0
C2057 C 0.39822 0.65545 0.87975 0.0
C2058 C 0.38636 0.64867 0.91011 0.0
C2059 C 0.38905 0.66846 0.91658 0.0
C2060 C 0.39499 0.68182 0.904 0.0
C2061 C 0.39961 0.67516 0.88576 0.0
C2062 C 0.37962 0.63401 0.92295 0.0
C2063 C 0.39735 0.7031 0.91013 0.0
C2064 C 0.36949 0.68262 0.96377 0.0
C2065 C 0.38479 0.68167 0.98008 0.0
C2066 C 0.3707 0.6792 0.9439 0.0
C2067 C 0.38785 0.67484 0.93719 0.0
C2068 C 0.40401 0.67581 0.95031 0.0
C2069 C 0.40259 0.67985 0.97001 0.0
C2070 C 0.35281 0.67921 0.93008 0.0
C2071 C 0.42323 0.67183 0.94351 0.0
H2072 H 0.38933 0.62719 0.88706 0.0
H2073 H 0.40519 0.68537 0.87659 0.0
H2074 H 0.39108 0.63321 0.93471 0.0
H2075 H 0.36687 0.63838 0.9296 0.0
H2076 H 0.37594 0.61951 0.91507 0.0
H2077 H 0.39953 0.71164 0.89792 0.0
H2078 H 0.38457 0.70741 0.91682 0.0
H2079 H 0.40991 0.70673 0.92106 0.0
H2080 H 0.3549 0.68513 0.96582 0.0
H2081 H 0.4168 0.68048 0.97747 0.0
H2082 H 0.34509 0.66456 0.92788 0.0
H2083 H 0.35613 0.68339 0.9159 0.0
H2084 H 0.34289 0.68912 0.93584 0.0
H2085 H 0.42219 0.65695 0.93646 0.0
H2086 H 0.43514 0.67354 0.95525 0.0
H2087 H 0.42713 0.68158 0.93273 0.0
C2088 C 0.01335 0.75538 0.02093 0.0
C2089 C 0.99905 0.75966 0.03269 0.0
C2090 C 0.00968 0.75378 1.00091 0.0
C2091 C 0.99121 0.75639 0.99238 0.0
C2092 C 0.97638 0.75956 1.00414 0.0
C2093 C 0.98051 0.76129 0.02418 0.0
C2094 C 0.02596 0.75052 0.98892 0.0
C2095 C 0.95643 0.7621 0.9956 0.0
C2096 C 0.99292 0.77762 0.94523 0.0
C2097 C 0.98963 0.76122 0.93195 0.0
C2098 C 0.99242 0.77633 0.96487 0.0
C2099 C 0.98829 0.75818 0.97144 0.0
C2100 C 0.98347 0.74175 0.95799 0.0
C2101 C 0.98425 0.74345 0.93833 0.0
C2102 C 0.9976 0.79425 0.97865 0.0
C2103 C 0.97866 0.72221 0.96441 0.0
H2104 H 0.02775 0.75431 0.02738 0.0
H2105 H 0.96934 0.76437 0.0332 0.0
H2106 H 0.02156 0.73857 0.97747 0.0
H2107 H 0.02972 0.76357 0.98184 0.0
H2108 H 0.03898 0.74719 0.99761 0.0
H2109 H 0.94593 0.76151 0.00637 0.0
H2110 H 0.95652 0.77619 0.9898 0.0
H2111 H 0.95155 0.75089 0.98352 0.0
H2112 H 0.99676 0.79144 0.94028 0.0
H2113 H 0.98171 0.73074 0.92812 0.0
H2114 H 0.01144 0.79324 0.98724 0.0
H2115 H 0.9866 0.79573 0.98878 0.0
H2116 H 0.999 0.8074 0.97117 0.0
H2117 H 0.99191 0.71702 0.97089 0.0
H2118 H 0.97223 0.71159 0.95229 0.0
H2119 H 0.96855 0.72295 0.97552 0.0
C2120 C 0.62343 0.21929 0.6053 0.0
C2121 C 0.60552 0.20976 0.60766 0.0
C2122 C 0.62668 0.22701 0.58805 0.0
C2123 C 0.61157 0.22542 0.57302 0.0
C2124 C 0.59351 0.21575 0.57537 0.0
C2125 C 0.59076 0.20801 0.59259 0.0
C2126 C 0.64616 0.237 0.58597 0.0
C2127 C 0.5769 0.2139 0.55983 0.0
C2128 C 0.60542 0.25949 0.5353 0.0
C2129 C 0.60751 0.24763 0.51865 0.0
C2130 C 0.60849 0.25311 0.55347 0.0
C2131 C 0.61395 0.23446 0.55502 0.0
C2132 C 0.61821 0.22332 0.53846 0.0
C2133 C 0.61487 0.23002 0.52041 0.0
C2134 C 0.60386 0.26554 0.57071 0.0
C2135 C 0.62443 0.20352 0.53952 0.0
H2136 H 0.6349 0.22058 0.61689 0.0
H2137 H 0.57681 0.20094 0.59444 0.0
H2138 H 0.65168 0.23073 0.57281 0.0
H2139 H 0.64502 0.25237 0.5844 0.0
H2140 H 0.65673 0.23595 0.59847 0.0
H2141 H 0.56387 0.20574 0.56386 0.0
H2142 H 0.57327 0.22834 0.55672 0.0
H2143 H 0.58092 0.20655 0.54641 0.0
H2144 H 0.60002 0.27326 0.534 0.0
H2145 H 0.61651 0.22077 0.50761 0.0
H2146 H 0.61482 0.26537 0.58306 0.0
H2147 H 0.58986 0.25981 0.57499 0.0
H2148 H 0.60292 0.28061 0.56766 0.0
H2149 H 0.63499 0.20325 0.55219 0.0
H2150 H 0.63085 0.19843 0.52642 0.0
H2151 H 0.6118 0.19333 0.54104 0.0
C2152 C 0.03864 0.40949 0.50896 0.0
C2153 C 0.0236 0.40017 0.49585 0.0
C2154 C 0.04028 0.40578 0.52827 0.0
C2155 C 0.02646 0.39256 0.53458 0.0
C2156 C 0.01131 0.38307 0.52137 0.0
C2157 C 0.0101 0.38696 0.5022 0.0
C2158 C 0.05672 0.416 0.5419 0.0
C2159 C 0.99618 0.36892 0.52751 0.0
C2160 C 0.03203 0.36458 0.57731 0.0
C2161 C 0.01972 0.3732 0.58915 0.0
C2162 C 0.03615 0.37204 0.56026 0.0
C2163 C 0.02755 0.38834 0.55491 0.0
C2164 C 0.0169 0.39831 0.56793 0.0
C2165 C 0.01315 0.39062 0.585 0.0
C2166 C 0.04791 0.36117 0.54702 0.0
C2167 C 0.00757 0.41582 0.56287 0.0
H2168 H 0.04918 0.41963 0.50409 0.0
H2169 H 0.99825 0.37998 0.49224 0.0
H2170 H 0.05112 0.42453 0.55376 0.0
H2171 H 0.06524 0.40539 0.54843 0.0
H2172 H 0.06638 0.42571 0.53469 0.0
H2173 H 0.98527 0.36287 0.51548 0.0
H2174 H 1.00298 0.35691 0.53349 0.0
H2175 H 0.98875 0.376 0.53898 0.0
H2176 H 0.03711 0.3511 0.58059 0.0
H2177 H 1.00351 0.3972 0.5941 0.0
H2178 H 0.05763 0.37115 0.54021 0.0
H2179 H 0.03817 0.35248 0.53542 0.0
H2180 H 0.05659 0.35136 0.55469 0.0
H2181 H 0.01743 0.42556 0.55594 0.0
H2182 H 1.00304 0.42388 0.57569 0.0
H2183 H 0.99468 0.41131 0.55251 0.0
C2184 C 0.24529 0.50186 0.45122 0.0
C2185 C 0.24862 0.52195 0.45346 0.0
C2186 C 0.24503 0.49141 0.46723 0.0
C2187 C 0.24793 0.5013 0.48588 0.0
C2188 C 0.25146 0.52157 0.48819 0.0
C2189 C 0.25183 0.53161 0.47198 0.0
C2190 C 0.24143 0.46983 0.4642 0.0
C2191 C 0.25441 0.53272 0.50783 0.0
C2192 C 0.22755 0.48265 0.52899 0.0
C2193 C 0.24421 0.47916 0.54001 0.0
C2194 C 0.22832 0.48845 0.51059 0.0
C2195 C 0.24624 0.49081 0.5031 0.0
C2196 C 0.26284 0.48565 0.51356 0.0
C2197 C 0.26164 0.47995 0.53202 0.0
C2198 C 0.21027 0.4938 0.50002 0.0
C2199 C 0.28215 0.48775 0.50598 0.0
H2200 H 0.24302 0.49432 0.43692 0.0
H2201 H 0.2542 0.54713 0.47379 0.0
H2202 H 0.25306 0.46339 0.47225 0.0
H2203 H 0.22783 0.46502 0.46986 0.0
H2204 H 0.24052 0.46423 0.44884 0.0
H2205 H 0.25745 0.54838 0.50717 0.0
H2206 H 0.2414 0.53015 0.51533 0.0
H2207 H 0.26651 0.52774 0.51661 0.0
H2208 H 0.21413 0.48224 0.53536 0.0
H2209 H 0.27455 0.47752 0.54072 0.0
H2210 H 0.2088 0.48774 0.48478 0.0
H2211 H 0.21105 0.50963 0.50031 0.0
H2212 H 0.19722 0.48873 0.50654 0.0
H2213 H 0.28097 0.48221 0.4906 0.0
H2214 H 0.29279 0.48009 0.51408 0.0
H2215 H 0.28763 0.50316 0.50721 0.0
C2216 C 0.31418 0.5245 0.90553 0.0
C2217 C 0.29549 0.52106 0.89621 0.0
C2218 C 0.32019 0.54135 0.91764 0.0
C2219 C 0.30732 0.55538 0.92035 0.0
C2220 C 0.28862 0.55236 0.91054 0.0
C2221 C 0.28287 0.53517 0.89866 0.0
C2222 C 0.34028 0.54394 0.92787 0.0
C2223 C 0.27457 0.56705 0.91294 0.0
C2224 C 0.32222 0.58456 0.96785 0.0
C2225 C 0.33501 0.59906 0.96249 0.0
C2226 C 0.31142 0.57119 0.95403 0.0
C2227 C 0.31341 0.57251 0.9344 0.0
C2228 C 0.32445 0.58857 0.9289 0.0
C2229 C 0.33521 0.6017 0.94309 0.0
C2230 C 0.2998 0.55439 0.9606 0.0
C2231 C 0.32663 0.59075 0.90813 0.0
H2232 H 0.3242 0.51395 0.90335 0.0
H2233 H 0.26837 0.53263 0.89161 0.0
H2234 H 0.33967 0.54527 0.94361 0.0
H2235 H 0.34859 0.53179 0.92398 0.0
H2236 H 0.34815 0.55734 0.92438 0.0
H2237 H 0.26142 0.56357 0.9027 0.0
H2238 H 0.27033 0.56782 0.92772 0.0
H2239 H 0.28133 0.58148 0.91087 0.0
H2240 H 0.32202 0.58263 0.98291 0.0
H2241 H 0.34511 0.6129 0.93896 0.0
H2242 H 0.30776 0.54157 0.95915 0.0
H2243 H 0.28587 0.55096 0.95161 0.0
H2244 H 0.29704 0.55715 0.97582 0.0
H2245 H 0.33694 0.58099 0.90299 0.0
H2246 H 0.33214 0.60564 0.90608 0.0
H2247 H 0.31276 0.5868 0.89913 0.0
C2248 C 0.65396 0.0684 0.50744 0.0
C2249 C 0.66241 0.0524 0.51332 0.0
C2250 C 0.65363 0.07269 0.48834 0.0
C2251 C 0.66173 0.06053 0.47488 0.0
C2252 C 0.67012 0.04428 0.48078 0.0
C2253 C 0.67042 0.04048 0.49991 0.0
C2254 C 0.64474 0.0902 0.48258 0.0
C2255 C 0.67871 0.03075 0.46684 0.0
C2256 C 0.65 0.05266 0.42148 0.0
C2257 C 0.66754 0.0597 0.41562 0.0
C2258 C 0.64684 0.05482 0.44084 0.0
C2259 C 0.66157 0.06433 0.4545 0.0
C2260 C 0.67816 0.07373 0.44822 0.0
C2261 C 0.68099 0.07123 0.42875 0.0
C2262 C 0.62884 0.04472 0.4468 0.0
C2263 C 0.69402 0.08435 0.46226 0.0
H2264 H 0.64782 0.07767 0.51784 0.0
H2265 H 0.67666 0.02793 0.50435 0.0
H2266 H 0.65565 0.10011 0.47715 0.0
H2267 H 0.6331 0.08604 0.47074 0.0
H2268 H 0.63875 0.098 0.49469 0.0
H2269 H 0.68445 0.01865 0.47372 0.0
H2270 H 0.66772 0.02477 0.45489 0.0
H2271 H 0.69055 0.03862 0.46053 0.0
H2272 H 0.63957 0.04383 0.41119 0.0
H2273 H 0.69454 0.07668 0.42416 0.0
H2274 H 0.6173 0.04174 0.43467 0.0
H2275 H 0.62345 0.05329 0.45876 0.0
H2276 H 0.63211 0.03084 0.45186 0.0
H2277 H 0.68811 0.09277 0.474 0.0
H2278 H 0.70367 0.09416 0.45514 0.0
H2279 H 0.70271 0.07386 0.46879 0.0
C2280 C 0.81834 0.9128 0.12859 0.0
C2281 C 0.81192 0.93064 0.1337 0.0
C2282 C 0.81198 0.90241 0.11071 0.0
C2283 C 0.79909 0.91017 0.09765 0.0
C2284 C 0.79258 0.92817 0.10279 0.0
C2285 C 0.79904 0.93814 0.12074 0.0
C2286 C 0.81913 0.88323 0.10573 0.0
C2287 C 0.77899 0.93711 0.08921 0.0
C2288 C 0.7941 0.9004 0.04391 0.0
C2289 C 0.77556 0.8908 0.04041 0.0
C2290 C 0.8029 0.90514 0.06265 0.0
C2291 C 0.79283 0.90018 0.0782 0.0
C2292 C 0.77498 0.88863 0.0746 0.0
C2293 C 0.7665 0.88409 0.05564 0.0
C2294 C 0.82198 0.91733 0.06578 0.0
C2295 C 0.76391 0.88284 0.09077 0.0
H2296 H 0.82818 0.9069 0.13865 0.0
H2297 H 0.79427 0.95204 0.12451 0.0
H2298 H 0.80682 0.87205 0.10184 0.0
H2299 H 0.82727 0.88381 0.09306 0.0
H2300 H 0.82854 0.87886 0.11775 0.0
H2301 H 0.77505 0.95104 0.09556 0.0
H2302 H 0.78568 0.9395 0.0759 0.0
H2303 H 0.76567 0.92728 0.08508 0.0
H2304 H 0.80105 0.90558 0.03204 0.0
H2305 H 0.7521 0.87677 0.05288 0.0
H2306 H 0.83151 0.9125 0.07738 0.0
H2307 H 0.81964 0.9324 0.07019 0.0
H2308 H 0.82938 0.91703 0.05255 0.0
H2309 H 0.77358 0.87834 0.10248 0.0
H2310 H 0.75245 0.87097 0.08582 0.0
H2311 H 0.75711 0.89531 0.0968 0.0
C2312 C 0.47507 0.24492 0.52448 0.0
C2313 C 0.45867 0.25281 0.5173 0.0
C2314 C 0.49184 0.24619 0.51525 0.0
C2315 C 0.49228 0.25563 0.4984 0.0
C2316 C 0.47561 0.2631 0.49072 0.0
C2317 C 0.459 0.26162 0.50027 0.0
C2318 C 0.50932 0.23802 0.52394 0.0
C2319 C 0.4755 0.27315 0.47275 0.0
C2320 C 0.54285 0.2753 0.49229 0.0
C2321 C 0.54873 0.26033 0.48047 0.0
C2322 C 0.52394 0.27471 0.497 0.0
C2323 C 0.51067 0.25869 0.48979 0.0
C2324 C 0.5161 0.2444 0.47645 0.0
C2325 C 0.53514 0.24541 0.47191 0.0
C2326 C 0.51873 0.29037 0.5111 0.0
C2327 C 0.50236 0.22716 0.46834 0.0
H2328 H 0.47503 0.23831 0.53773 0.0
H2329 H 0.44629 0.26751 0.49448 0.0
H2330 H 0.51473 0.22803 0.5131 0.0
H2331 H 0.52095 0.24976 0.52864 0.0
H2332 H 0.50631 0.23023 0.53647 0.0
H2333 H 0.46096 0.2767 0.46772 0.0
H2334 H 0.48531 0.28663 0.47551 0.0
H2335 H 0.48085 0.26407 0.46111 0.0
H2336 H 0.55342 0.28681 0.49892 0.0
H2337 H 0.53975 0.23372 0.46293 0.0
H2338 H 0.51739 0.28476 0.52514 0.0
H2339 H 0.50469 0.29511 0.50618 0.0
H2340 H 0.52971 0.30301 0.51324 0.0
H2341 H 0.50073 0.21725 0.47953 0.0
H2342 H 0.50755 0.21927 0.45579 0.0
H2343 H 0.48797 0.23145 0.464 0.0
C2344 C 0.12678 0.81957 0.91063 0.0
C2345 C 0.13089 0.813 0.92858 0.0
C2346 C 0.1087 0.81465 0.90008 0.0
C2347 C 0.09445 0.80312 0.90784 0.0
C2348 C 0.09859 0.79647 0.92597 0.0
C2349 C 0.11675 0.80145 0.93606 0.0
C2350 C 0.10482 0.82185 0.88076 0.0
C2351 C 0.08373 0.78431 0.9349 0.0
C2352 C 0.04103 0.80265 0.89802 0.0
C2353 C 0.03607 0.78407 0.88889 0.0
C2354 C 0.06028 0.81003 0.90247 0.0
C2355 C 0.07482 0.79844 0.89771 0.0
C2356 C 0.0698 0.78056 0.88648 0.0
C2357 C 0.05037 0.77354 0.88219 0.0
C2358 C 0.06494 0.82922 0.91428 0.0
C2359 C 0.08487 0.76789 0.8809 0.0
H2360 H 0.13776 0.82839 0.90476 0.0
H2361 H 0.11979 0.79658 0.95005 0.0
H2362 H 0.10008 0.80962 0.86969 0.0
H2363 H 0.09301 0.83118 0.88103 0.0
H2364 H 0.11765 0.83011 0.87645 0.0
H2365 H 0.08938 0.78009 0.94897 0.0
H2366 H 0.07114 0.79229 0.93701 0.0
H2367 H 0.07861 0.7711 0.92521 0.0
H2368 H 0.02987 0.81076 0.90314 0.0
H2369 H 0.04648 0.75912 0.8752 0.0
H2370 H 0.07737 0.83755 0.90938 0.0
H2371 H 0.06884 0.82693 0.92946 0.0
H2372 H 0.05255 0.83785 0.91366 0.0
H2373 H 0.09739 0.77644 0.87641 0.0
H2374 H 0.0791 0.75664 0.86909 0.0
H2375 H 0.09003 0.76072 0.89346 0.0
C2376 C 0.90437 0.27839 0.52841 0.0
C2377 C 0.90522 0.29089 0.51407 0.0
C2378 C 0.91685 0.28189 0.54545 0.0
C2379 C 0.93038 0.29835 0.54826 0.0
C2380 C 0.93145 0.31089 0.53376 0.0
C2381 C 0.91893 0.30696 0.51685 0.0
C2382 C 0.91544 0.26814 0.56051 0.0
C2383 C 0.94574 0.3286 0.53614 0.0
C2384 C 0.95228 0.32399 0.59591 0.0
C2385 C 0.97146 0.32038 0.59552 0.0
C2386 C 0.93817 0.31543 0.58143 0.0
C2387 C 0.94342 0.30289 0.56636 0.0
C2388 C 0.96229 0.29746 0.56722 0.0
C2389 C 0.97614 0.30635 0.58179 0.0
C2390 C 0.91822 0.32157 0.58114 0.0
C2391 C 0.9684 0.28386 0.55166 0.0
H2392 H 0.8937 0.26604 0.52647 0.0
H2393 H 0.91996 0.31648 0.50571 0.0
H2394 H 0.92961 0.26305 0.56421 0.0
H2395 H 0.91123 0.27558 0.5738 0.0
H2396 H 0.9048 0.2555 0.55574 0.0
H2397 H 0.94464 0.33692 0.52355 0.0
H2398 H 0.94343 0.33806 0.54904 0.0
H2399 H 0.96054 0.32451 0.53832 0.0
H2400 H 0.94866 0.335 0.60636 0.0
H2401 H 0.99098 0.30354 0.58153 0.0
H2402 H 0.90723 0.30918 0.57683 0.0
H2403 H 0.91639 0.33202 0.57046 0.0
H2404 H 0.91555 0.3285 0.59533 0.0
H2405 H 0.95726 0.27159 0.54736 0.0
H2406 H 0.98213 0.27826 0.55627 0.0
H2407 H 0.9704 0.2915 0.53883 0.0
C2408 C 0.4987 0.64349 0.06637 0.0
C2409 C 0.50332 0.65018 0.04909 0.0
C2410 C 0.47996 0.6435 0.07171 0.0
C2411 C 0.46563 0.65031 0.05944 0.0
C2412 C 0.47009 0.65623 0.04159 0.0
C2413 C 0.48886 0.65614 0.03668 0.0
C2414 C 0.47557 0.63662 0.09058 0.0
C2415 C 0.45508 0.66302 0.02777 0.0
C2416 C 0.4119 0.6439 0.05797 0.0
C2417 C 0.40853 0.66293 0.06314 0.0
C2418 C 0.43067 0.63864 0.05889 0.0
C2419 C 0.44624 0.6527 0.06541 0.0
C2420 C 0.44258 0.67091 0.07368 0.0
C2421 C 0.42373 0.67581 0.07247 0.0
C2422 C 0.43364 0.61875 0.0506 0.0
C2423 C 0.45871 0.68622 0.08125 0.0
H2424 H 0.50985 0.6388 0.07596 0.0
H2425 H 0.49228 0.66086 0.02311 0.0
H2426 H 0.47195 0.64877 0.10029 0.0
H2427 H 0.46289 0.62572 0.08835 0.0
H2428 H 0.48785 0.63032 0.09776 0.0
H2429 H 0.46078 0.6667 0.01429 0.0
H2430 H 0.44287 0.65169 0.02412 0.0
H2431 H 0.44941 0.67587 0.03455 0.0
H2432 H 0.40013 0.63361 0.05139 0.0
H2433 H 0.42129 0.69049 0.07673 0.0
H2434 H 0.42277 0.60809 0.05503 0.0
H2435 H 0.44811 0.61474 0.05509 0.0
H2436 H 0.43165 0.61794 0.03472 0.0
H2437 H 0.47038 0.68013 0.08958 0.0
H2438 H 0.45364 0.69796 0.09049 0.0
H2439 H 0.46482 0.69247 0.06901 0.0
C2440 C 0.50323 0.45615 0.26022 0.0
C2441 C 0.51974 0.45539 0.2506 0.0
C2442 C 0.49387 0.47288 0.26183 0.0
C2443 C 0.50123 0.48925 0.25365 0.0
C2444 C 0.51755 0.48838 0.24345 0.0
C2445 C 0.52659 0.4715 0.24207 0.0
C2446 C 0.47646 0.47322 0.27271 0.0
C2447 C 0.52588 0.50554 0.23452 0.0
C2448 C 0.47435 0.53194 0.2436 0.0
C2449 C 0.48348 0.5458 0.25797 0.0
C2450 C 0.47888 0.5129 0.24277 0.0
C2451 C 0.49281 0.50775 0.25668 0.0
C2452 C 0.50067 0.52134 0.27221 0.0
C2453 C 0.49593 0.54023 0.27263 0.0
C2454 C 0.47008 0.49882 0.22606 0.0
C2455 C 0.51542 0.51644 0.28746 0.0
H2456 H 0.49768 0.44367 0.26662 0.0
H2457 H 0.53946 0.47115 0.23483 0.0
H2458 H 0.4798 0.48341 0.28587 0.0
H2459 H 0.46445 0.47835 0.26393 0.0
H2460 H 0.47164 0.45889 0.27689 0.0
H2461 H 0.53802 0.50222 0.22625 0.0
H2462 H 0.51467 0.51078 0.22481 0.0
H2463 H 0.53108 0.51739 0.24589 0.0
H2464 H 0.46487 0.5363 0.23214 0.0
H2465 H 0.503 0.55101 0.28373 0.0
H2466 H 0.4659 0.48462 0.23086 0.0
H2467 H 0.4808 0.49681 0.2157 0.0
H2468 H 0.45726 0.50391 0.2185 0.0
H2469 H 0.51074 0.50261 0.29274 0.0
H2470 H 0.51813 0.52771 0.29983 0.0
H2471 H 0.52913 0.51485 0.28124 0.0
C2472 C 0.91342 0.12613 0.8193 0.0
C2473 C 0.93134 0.13097 0.81293 0.0
C2474 C 0.90327 0.10795 0.81382 0.0
C2475 C 0.91137 0.09432 0.80186 0.0
C2476 C 0.92945 0.09918 0.79539 0.0
C2477 C 0.93917 0.11743 0.80097 0.0
C2478 C 0.88399 0.1033 0.82088 0.0
C2479 C 0.93873 0.08499 0.78278 0.0
C2480 C 0.90211 0.04064 0.79998 0.0
C2481 C 0.89274 0.03602 0.78145 0.0
C2482 C 0.90661 0.05978 0.80773 0.0
C2483 C 0.90163 0.07458 0.79659 0.0
C2484 C 0.89028 0.0699 0.77873 0.0
C2485 C 0.88595 0.05057 0.77133 0.0
C2486 C 0.91857 0.06407 0.82688 0.0
C2487 C 0.88448 0.08526 0.76652 0.0
H2488 H 0.90725 0.13664 0.82842 0.0
H2489 H 0.95314 0.121 0.79624 0.0
H2490 H 0.87299 0.09865 0.80856 0.0
H2491 H 0.88458 0.0912 0.82981 0.0
H2492 H 0.87936 0.11572 0.8295 0.0
H2493 H 0.95268 0.09118 0.77872 0.0
H2494 H 0.94118 0.0722 0.79034 0.0
H2495 H 0.92909 0.08006 0.76949 0.0
H2496 H 0.9073 0.02931 0.80779 0.0
H2497 H 0.87879 0.04697 0.75695 0.0
H2498 H 0.91347 0.07609 0.83563 0.0
H2499 H 0.93366 0.06843 0.82456 0.0
H2500 H 0.91833 0.05137 0.83509 0.0
H2501 H 0.87976 0.09743 0.7754 0.0
H2502 H 0.87275 0.07962 0.75513 0.0
H2503 H 0.89701 0.09089 0.75956 0.0
C2504 C 0.52091 0.91814 0.30871 0.0
C2505 C 0.51788 0.90364 0.29335 0.0
C2506 C 0.53814 0.93021 0.31218 0.0
C2507 C 0.55271 0.92784 0.29989 0.0
C2508 C 0.54969 0.91342 0.28421 0.0
C2509 C 0.53231 0.90144 0.28114 0.0
C2510 C 0.54075 0.94548 0.32907 0.0
C2511 C 0.56485 0.91058 0.27077 0.0
C2512 C 0.58692 0.97297 0.30524 0.0
C2513 C 0.60038 0.96903 0.31991 0.0
C2514 C 0.57223 0.95893 0.29703 0.0
C2515 C 0.571 0.94062 0.30379 0.0
C2516 C 0.58585 0.93596 0.31699 0.0
C2517 C 0.60045 0.95026 0.32487 0.0
C2518 C 0.55691 0.96438 0.28271 0.0
C2519 C 0.58517 0.9166 0.32452 0.0
H2520 H 0.50971 0.92017 0.31799 0.0
H2521 H 0.53015 0.89013 0.26936 0.0
H2522 H 0.5433 0.95986 0.32405 0.0
H2523 H 0.5281 0.94529 0.33733 0.0
H2524 H 0.55352 0.94344 0.33886 0.0
H2525 H 0.56005 0.89909 0.2589 0.0
H2526 H 0.56875 0.92411 0.26455 0.0
H2527 H 0.57805 0.90681 0.2788 0.0
H2528 H 0.58695 0.98749 0.30133 0.0
H2529 H 0.61075 0.9472 0.33632 0.0
H2530 H 0.54403 0.96713 0.29002 0.0
H2531 H 0.55256 0.95257 0.27109 0.0
H2532 H 0.56177 0.97753 0.27625 0.0
H2533 H 0.57446 0.91579 0.33505 0.0
H2534 H 0.59929 0.91408 0.33176 0.0
H2535 H 0.58067 0.90493 0.3128 0.0
C2536 C 0.04084 0.50113 0.64898 0.0
C2537 C 0.05504 0.51637 0.65509 0.0
C2538 C 0.04427 0.48218 0.65113 0.0
C2539 C 0.06245 0.47834 0.65939 0.0
C2540 C 0.07724 0.49354 0.66448 0.0
C2541 C 0.07329 0.51246 0.66247 0.0
C2542 C 0.028 0.46642 0.6457 0.0
C2543 C 0.09692 0.48993 0.67287 0.0
C2544 C 0.05691 0.43492 0.68636 0.0
C2545 C 0.05948 0.42031 0.67228 0.0
C2546 C 0.05947 0.45416 0.68291 0.0
C2547 C 0.06482 0.45882 0.66493 0.0
C2548 C 0.06922 0.44415 0.65135 0.0
C2549 C 0.0663 0.42492 0.65513 0.0
C2550 C 0.05448 0.46926 0.69776 0.0
C2551 C 0.07539 0.44859 0.63222 0.0
H2552 H 0.02667 0.50412 0.64344 0.0
H2553 H 0.08435 0.52422 0.667 0.0
H2554 H 0.02386 0.46019 0.65877 0.0
H2555 H 0.01515 0.47166 0.63838 0.0
H2556 H 0.0326 0.45472 0.6361 0.0
H2557 H 0.10761 0.50259 0.6729 0.0
H2558 H 0.09632 0.48654 0.68785 0.0
H2559 H 0.10189 0.47742 0.66472 0.0
H2560 H 0.05146 0.43117 0.69954 0.0
H2561 H 0.06808 0.4135 0.64422 0.0
H2562 H 0.04087 0.47472 0.69256 0.0
H2563 H 0.06575 0.48159 0.70014 0.0
H2564 H 0.05267 0.46356 0.7117 0.0
H2565 H 0.06265 0.45097 0.62257 0.0
H2566 H 0.08231 0.43661 0.62529 0.0
H2567 H 0.08551 0.46185 0.63379 0.0
C2568 C 0.7505 0.50734 0.55029 0.0
C2569 C 0.75417 0.48807 0.54961 0.0
C2570 C 0.75069 0.51718 0.53386 0.0
C2571 C 0.75454 0.50746 0.51637 0.0
C2572 C 0.75805 0.48796 0.51558 0.0
C2573 C 0.75785 0.47854 0.53219 0.0
C2574 C 0.74702 0.53798 0.53526 0.0
C2575 C 0.76211 0.47702 0.49717 0.0
C2576 C 0.74108 0.52222 0.467 0.0
C2577 C 0.75917 0.52848 0.46187 0.0
C2578 C 0.73903 0.51667 0.48537 0.0
C2579 C 0.75546 0.51757 0.49883 0.0
C2580 C 0.77341 0.52564 0.49425 0.0
C2581 C 0.77506 0.53091 0.47576 0.0
C2582 C 0.71963 0.50821 0.4897 0.0
C2583 C 0.79123 0.52709 0.50824 0.0
H2584 H 0.74779 0.51482 0.56375 0.0
H2585 H 0.76038 0.46357 0.5315 0.0
H2586 H 0.75983 0.54689 0.53184 0.0
H2587 H 0.73494 0.54005 0.52462 0.0
H2588 H 0.74361 0.54329 0.54976 0.0
H2589 H 0.76413 0.46182 0.49889 0.0
H2590 H 0.75011 0.47737 0.48584 0.0
H2591 H 0.77524 0.4839 0.49209 0.0
H2592 H 0.72883 0.52016 0.45619 0.0
H2593 H 0.78905 0.53578 0.47175 0.0
H2594 H 0.71666 0.51374 0.50425 0.0
H2595 H 0.71948 0.49242 0.48934 0.0
H2596 H 0.70793 0.51136 0.47912 0.0
H2597 H 0.78832 0.53288 0.52273 0.0
H2598 H 0.80326 0.53636 0.50368 0.0
H2599 H 0.79584 0.51258 0.50934 0.0
C2600 C 0.6979 0.4784 0.10638 0.0
C2601 C 0.7163 0.48262 0.11626 0.0
C2602 C 0.69369 0.46286 0.09216 0.0
C2603 C 0.70814 0.45097 0.08785 0.0
C2604 C 0.72652 0.4546 0.09829 0.0
C2605 C 0.73043 0.47046 0.11229 0.0
C2606 C 0.67389 0.45956 0.0813 0.0
C2607 C 0.7422 0.4421 0.09427 0.0
C2608 C 0.68669 0.40543 0.05733 0.0
C2609 C 0.68773 0.41122 0.039 0.0
C2610 C 0.69494 0.41756 0.07362 0.0
C2611 C 0.7042 0.43584 0.07133 0.0
C2612 C 0.70686 0.44081 0.0527 0.0
C2613 C 0.69858 0.42838 0.03674 0.0
C2614 C 0.69206 0.41156 0.09319 0.0
C2615 C 0.71655 0.46013 0.04953 0.0
H2616 H 0.68674 0.48738 0.10966 0.0
H2617 H 0.74474 0.47364 0.11972 0.0
H2618 H 0.67488 0.46116 0.06591 0.0
H2619 H 0.66743 0.44474 0.08225 0.0
H2620 H 0.66411 0.46974 0.08681 0.0
H2621 H 0.75492 0.44544 0.10508 0.0
H2622 H 0.73681 0.42675 0.09403 0.0
H2623 H 0.74679 0.44417 0.07993 0.0
H2624 H 0.67817 0.39218 0.05899 0.0
H2625 H 0.69911 0.43287 0.02249 0.0
H2626 H 0.6799 0.41847 0.09871 0.0
H2627 H 0.70498 0.41619 0.10347 0.0
H2628 H 0.68871 0.39579 0.09272 0.0
H2629 H 0.70697 0.47132 0.05287 0.0
H2630 H 0.71987 0.46066 0.03449 0.0
H2631 H 0.73005 0.46374 0.05919 0.0
C2632 C 0.37033 0.99631 0.51918 0.0
C2633 C 0.37112 0.98008 0.5063 0.0
C2634 C 0.3669 0.99453 0.53819 0.0
C2635 C 0.36453 0.97607 0.54454 0.0
C2636 C 0.36694 0.95974 0.53203 0.0
C2637 C 0.36989 0.9619 0.51289 0.0
C2638 C 0.36439 0.01233 0.55105 0.0
C2639 C 0.36543 0.93996 0.53859 0.0
C2640 C 0.36032 0.97952 0.59788 0.0
C2641 C 0.34038 0.97865 0.59796 0.0
C2642 C 0.36857 0.97682 0.58059 0.0
C2643 C 0.35654 0.97391 0.56305 0.0
C2644 C 0.33636 0.97179 0.56322 0.0
C2645 C 0.32856 0.97399 0.58069 0.0
C2646 C 0.39013 0.97845 0.58121 0.0
C2647 C 0.32295 0.96903 0.54488 0.0
H2648 H 0.3712 0.01036 0.51407 0.0
H2649 H 0.37079 0.94937 0.50297 0.0
H2650 H 0.34939 0.01173 0.55471 0.0
H2651 H 0.37388 0.01312 0.56465 0.0
H2652 H 0.36766 0.02566 0.54422 0.0
H2653 H 0.37098 0.92937 0.5284 0.0
H2654 H 0.37351 0.94016 0.55294 0.0
H2655 H 0.35021 0.9351 0.53989 0.0
H2656 H 0.36946 0.9831 0.61125 0.0
H2657 H 0.31313 0.9736 0.58069 0.0
H2658 H 0.39568 0.9937 0.58107 0.0
H2659 H 0.39487 0.97005 0.56874 0.0
H2660 H 0.39664 0.97346 0.59458 0.0
H2661 H 0.32462 0.98207 0.53726 0.0
H2662 H 0.30769 0.96632 0.54753 0.0
H2663 H 0.32652 0.95685 0.53521 0.0
C2664 C 0.19683 0.10889 0.87901 0.0
C2665 C 0.19524 0.08898 0.87424 0.0
C2666 C 0.20417 0.11712 0.89753 0.0
C2667 C 0.21036 0.10514 0.91138 0.0
C2668 C 0.20849 0.08501 0.90666 0.0
C2669 C 0.20085 0.07719 0.8882 0.0
C2670 C 0.2056 0.13859 0.90217 0.0
C2671 C 0.21509 0.07171 0.92096 0.0
C2672 C 0.24871 0.12017 0.95269 0.0
C2673 C 0.23791 0.1191 0.96828 0.0
C2674 C 0.23974 0.11722 0.93385 0.0
C2675 C 0.21952 0.11336 0.93066 0.0
C2676 C 0.20849 0.11429 0.9464 0.0
C2677 C 0.21785 0.11697 0.96508 0.0
C2678 C 0.25205 0.11626 0.91748 0.0
C2679 C 0.18689 0.1107 0.94361 0.0
H2680 H 0.19238 0.11801 0.86824 0.0
H2681 H 0.19989 0.06182 0.88446 0.0
H2682 H 0.19869 0.14225 0.91534 0.0
H2683 H 0.22088 0.14448 0.90506 0.0
H2684 H 0.19877 0.14573 0.89031 0.0
H2685 H 0.21248 0.0564 0.91504 0.0
H2686 H 0.23066 0.07522 0.92545 0.0
H2687 H 0.20752 0.07365 0.93398 0.0
H2688 H 0.26423 0.12164 0.95517 0.0
H2689 H 0.20952 0.11622 0.9772 0.0
H2690 H 0.24621 0.12409 0.9057 0.0
H2691 H 0.25207 0.10108 0.91162 0.0
H2692 H 0.26712 0.12231 0.92208 0.0
H2693 H 0.18095 0.11812 0.93155 0.0
H2694 H 0.1804 0.11555 0.95674 0.0
H2695 H 0.18256 0.09512 0.94002 0.0
C2696 C 0.54318 0.7743 0.4993 0.0
C2697 C 0.55058 0.75726 0.49311 0.0
C2698 C 0.52527 0.77395 0.5065 0.0
C2699 C 0.5145 0.75614 0.5076 0.0
C2700 C 0.52237 0.73889 0.50242 0.0
C2701 C 0.54027 0.73965 0.49518 0.0
C2702 C 0.51738 0.79268 0.51186 0.0
C2703 C 0.51137 0.7196 0.5034 0.0
C2704 C 0.46933 0.75596 0.53347 0.0
C2705 C 0.45525 0.75645 0.51812 0.0
C2706 C 0.48875 0.75556 0.53034 0.0
C2707 C 0.49406 0.75561 0.51145 0.0
C2708 C 0.47977 0.75553 0.49591 0.0
C2709 C 0.46061 0.75581 0.49942 0.0
C2710 C 0.5036 0.75548 0.54722 0.0
C2711 C 0.48473 0.75549 0.47552 0.0
H2712 H 0.55122 0.78796 0.49812 0.0
H2713 H 0.54575 0.72639 0.4903 0.0
H2714 H 0.50516 0.79446 0.50126 0.0
H2715 H 0.51188 0.79269 0.52608 0.0
H2716 H 0.52833 0.80519 0.51225 0.0
H2717 H 0.52048 0.70769 0.5015 0.0
H2718 H 0.50532 0.71913 0.51732 0.0
H2719 H 0.49917 0.7172 0.49196 0.0
H2720 H 0.46523 0.7564 0.54792 0.0
H2721 H 0.44971 0.75568 0.48744 0.0
H2722 H 0.51353 0.76887 0.54875 0.0
H2723 H 0.51233 0.74335 0.54482 0.0
H2724 H 0.49705 0.75433 0.56083 0.0
H2725 H 0.47185 0.75525 0.46505 0.0
H2726 H 0.49229 0.74282 0.4716 0.0
H2727 H 0.49457 0.76844 0.47418 0.0
C2728 C 0.89449 0.20713 0.07408 0.0
C2729 C 0.88042 0.199 0.08449 0.0
C2730 C 0.91267 0.21439 0.08304 0.0
C2731 C 0.91693 0.21352 0.10296 0.0
C2732 C 0.90299 0.20484 0.1135 0.0
C2733 C 0.88485 0.19763 0.10411 0.0
C2734 C 0.92721 0.22333 0.0712 0.0
C2735 C 0.90705 0.20362 0.13472 0.0
C2736 C 0.97043 0.22113 0.11659 0.0
C2737 C 0.9733 0.24113 0.12073 0.0
C2738 C 0.95189 0.21155 0.11248 0.0
C2739 C 0.93591 0.22227 0.11251 0.0
C2740 C 0.93869 0.24217 0.11862 0.0
C2741 C 0.9574 0.25139 0.12266 0.0
C2742 C 0.94957 0.19029 0.10629 0.0
C2743 C 0.92201 0.25409 0.11902 0.0
H2744 H 0.89122 0.20791 0.05885 0.0
H2745 H 0.87395 0.19145 0.11222 0.0
H2746 H 0.93114 0.23864 0.07662 0.0
H2747 H 0.9405 0.21608 0.07247 0.0
H2748 H 0.92175 0.22245 0.05579 0.0
H2749 H 0.89531 0.19503 0.14051 0.0
H2750 H 0.92062 0.19717 0.13781 0.0
H2751 H 0.90892 0.21825 0.14245 0.0
H2752 H 0.98273 0.21315 0.11532 0.0
H2753 H 0.95953 0.26685 0.12576 0.0
H2754 H 0.94637 0.18785 0.09048 0.0
H2755 H 0.93742 0.183 0.11263 0.0
H2756 H 0.96278 0.18356 0.11041 0.0
H2757 H 0.91652 0.25603 0.10412 0.0
H2758 H 0.92621 0.26847 0.12701 0.0
H2759 H 0.9101 0.24676 0.12565 0.0
C2760 C 0.11261 0.70578 0.49803 0.0
C2761 C 0.13123 0.71369 0.496 0.0
C2762 C 0.09949 0.69935 0.48196 0.0
C2763 C 0.10507 0.70099 0.46336 0.0
C2764 C 0.12377 0.70917 0.46119 0.0
C2765 C 0.13668 0.71535 0.47755 0.0
C2766 C 0.07972 0.69054 0.4849 0.0
C2767 C 0.13013 0.71131 0.4416 0.0
C2768 C 0.07443 0.66627 0.42585 0.0
C2769 C 0.06002 0.67749 0.41996 0.0
C2770 C 0.09005 0.67411 0.439 0.0
C2771 C 0.09128 0.69365 0.44634 0.0
C2772 C 0.0777 0.70543 0.43907 0.0
C2773 C 0.06218 0.69718 0.42595 0.0
C2774 C 0.10427 0.66106 0.44625 0.0
C2775 C 0.07863 0.72637 0.44637 0.0
H2776 H 0.10842 0.70425 0.51225 0.0
H2777 H 0.15101 0.72164 0.47594 0.0
H2778 H 0.07732 0.67556 0.47802 0.0
H2779 H 0.0776 0.69048 0.5003 0.0
H2780 H 0.06865 0.69858 0.47799 0.0
H2781 H 0.145 0.71841 0.44237 0.0
H2782 H 0.1294 0.69702 0.43331 0.0
H2783 H 0.12034 0.71983 0.43352 0.0
H2784 H 0.07285 0.65106 0.42106 0.0
H2785 H 0.051 0.70587 0.42153 0.0
H2786 H 0.10183 0.65831 0.4611 0.0
H2787 H 0.11916 0.66791 0.44666 0.0
H2788 H 0.10289 0.64708 0.43724 0.0
H2789 H 0.07422 0.72771 0.46108 0.0
H2790 H 0.06902 0.73414 0.43717 0.0
H2791 H 0.09349 0.73341 0.44713 0.0
C2792 C 0.51238 0.36291 0.98665 0.0
C2793 C 0.49868 0.36523 0.97157 0.0
C2794 C 0.53145 0.36114 0.98347 0.0
C2795 C 0.53703 0.36213 0.96478 0.0
C2796 C 0.5235 0.36574 0.94972 0.0
C2797 C 0.50432 0.36691 0.95322 0.0
C2798 C 0.54531 0.35698 0.99991 0.0
C2799 C 0.52905 0.36756 0.92979 0.0
C2800 C 0.59086 0.36375 0.96783 0.0
C2801 C 0.59292 0.3441 0.96541 0.0
C2802 C 0.57266 0.37029 0.9654 0.0
C2803 C 0.55626 0.35677 0.9609 0.0
C2804 C 0.55851 0.33715 0.95646 0.0
C2805 C 0.57685 0.33109 0.95866 0.0
C2806 C 0.57093 0.39142 0.96946 0.0
C2807 C 0.54144 0.32219 0.95174 0.0
H2808 H 0.50795 0.36149 1.0008 0.0
H2809 H 0.49369 0.36888 0.94161 0.0
H2810 H 0.55822 0.36756 1.00174 0.0
H2811 H 0.53882 0.35735 0.01368 0.0
H2812 H 0.55013 0.34258 0.99677 0.0
H2813 H 0.51842 0.37475 0.92113 0.0
H2814 H 0.54339 0.37575 0.9303 0.0
H2815 H 0.52983 0.3531 0.92239 0.0
H2816 H 0.60328 0.37388 0.97286 0.0
H2817 H 0.57828 0.31586 0.95692 0.0
H2818 H 0.5673 0.39448 0.98433 0.0
H2819 H 0.55931 0.39591 0.95964 0.0
H2820 H 0.58458 0.40021 0.96804 0.0
H2821 H 0.53413 0.32045 0.96482 0.0
H2822 H 0.54567 0.30803 0.94637 0.0
H2823 H 0.53093 0.32668 0.94079 0.0
C2824 C 0.48658 0.53616 0.75861 0.0
C2825 C 0.49679 0.55363 0.7561 0.0
C2826 C 0.49545 0.51919 0.75817 0.0
C2827 C 0.5151 0.51968 0.75524 0.0
C2828 C 0.52554 0.53727 0.75272 0.0
C2829 C 0.51623 0.55406 0.7531 0.0
C2830 C 0.48372 0.5007 0.76078 0.0
C2831 C 0.54653 0.53835 0.74975 0.0
C2832 C 0.53499 0.47609 0.7731 0.0
C2833 C 0.53196 0.46325 0.7564 0.0
C2834 C 0.53142 0.49528 0.77263 0.0
C2835 C 0.52444 0.50161 0.75508 0.0
C2836 C 0.52329 0.48918 0.73789 0.0
C2837 C 0.52715 0.47008 0.73876 0.0
C2838 C 0.53317 0.50813 0.79124 0.0
C2839 C 0.51595 0.49535 0.71887 0.0
H2840 H 0.47148 0.5357 0.76061 0.0
H2841 H 0.52421 0.56757 0.75128 0.0
H2842 H 0.48399 0.49005 0.74818 0.0
H2843 H 0.49001 0.49451 0.77354 0.0
H2844 H 0.46855 0.50275 0.76263 0.0
H2845 H 0.55254 0.55309 0.74774 0.0
H2846 H 0.5548 0.53354 0.76228 0.0
H2847 H 0.54862 0.52856 0.73702 0.0
H2848 H 0.53871 0.47074 0.78674 0.0
H2849 H 0.52463 0.46009 0.72587 0.0
H2850 H 0.51868 0.50937 0.79585 0.0
H2851 H 0.53957 0.52276 0.78942 0.0
H2852 H 0.54205 0.50238 0.80281 0.0
H2853 H 0.50017 0.49554 0.71818 0.0
H2854 H 0.51917 0.48544 0.70665 0.0
H2855 H 0.52228 0.51004 0.71722 0.0
C2856 C 0.07416 0.88968 0.20003 0.0
C2857 C 0.08473 0.87571 0.19196 0.0
C2858 C 0.08286 0.90809 0.2068 0.0
C2859 C 0.10266 0.9127 0.20545 0.0
C2860 C 0.11326 0.89895 0.19654 0.0
C2861 C 0.10415 0.88057 0.18989 0.0
C2862 C 0.07097 0.9224 0.21602 0.0
C2863 C 0.13434 0.9034 0.19473 0.0
C2864 C 0.11661 0.9662 0.21429 0.0
C2865 C 0.12147 0.96851 0.23421 0.0
C2866 C 0.11198 0.94789 0.2043 0.0
C2867 C 0.11222 0.93156 0.2145 0.0
C2868 C 0.11888 0.93376 0.23427 0.0
C2869 C 0.12343 0.95223 0.24389 0.0
C2870 C 0.10524 0.94617 0.18317 0.0
C2871 C 0.11946 0.91671 0.24566 0.0
H2872 H 0.05906 0.88609 0.20132 0.0
H2873 H 0.1124 0.86978 0.18374 0.0
H2874 H 0.0765 0.92613 0.23133 0.0
H2875 H 0.07208 0.93582 0.20898 0.0
H2876 H 0.05559 0.91681 0.21519 0.0
H2877 H 0.13996 0.89204 0.18546 0.0
H2878 H 0.13705 0.91728 0.18874 0.0
H2879 H 0.14253 0.90477 0.20912 0.0
H2880 H 0.1153 0.97877 0.20671 0.0
H2881 H 0.12703 0.95388 0.2593 0.0
H2882 H 0.0894 0.94307 0.18109 0.0
H2883 H 0.11132 0.93416 0.17535 0.0
H2884 H 0.10923 0.95958 0.17673 0.0
H2885 H 0.1046 0.91097 0.24751 0.0
H2886 H 0.12749 0.92053 0.26008 0.0
H2887 H 0.12618 0.90509 0.23796 0.0
C2888 C 0.49457 0.09791 0.70086 0.0
C2889 C 0.49281 0.11581 0.71065 0.0
C2890 C 0.47841 0.08482 0.69465 0.0
C2891 C 0.45996 0.08976 0.69824 0.0
C2892 C 0.45808 0.10767 0.70841 0.0
C2893 C 0.47455 0.12048 0.71455 0.0
C2894 C 0.48107 0.06579 0.68398 0.0
C2895 C 0.43865 0.11347 0.71237 0.0
C2896 C 0.42195 0.06124 0.66252 0.0
C2897 C 0.41652 0.04569 0.67252 0.0
C2898 C 0.43482 0.07667 0.67132 0.0
C2899 C 0.44275 0.07633 0.69049 0.0
C2900 C 0.43607 0.06146 0.70115 0.0
C2901 C 0.42291 0.04633 0.69204 0.0
C2902 C 0.44123 0.09239 0.65952 0.0
C2903 C 0.44414 0.06056 0.72161 0.0
H2904 H 0.50867 0.09411 0.69808 0.0
H2905 H 0.47309 0.13437 0.72198 0.0
H2906 H 0.47451 0.05386 0.69118 0.0
H2907 H 0.47369 0.06466 0.66922 0.0
H2908 H 0.49643 0.06385 0.68303 0.0
H2909 H 0.43971 0.12739 0.72144 0.0
H2910 H 0.42996 0.11469 0.69864 0.0
H2911 H 0.43081 0.10234 0.71962 0.0
H2912 H 0.41705 0.06073 0.64741 0.0
H2913 H 0.41893 0.03421 0.69974 0.0
H2914 H 0.45583 0.09042 0.65554 0.0
H2915 H 0.44197 0.10665 0.66787 0.0
H2916 H 0.43148 0.0923 0.64615 0.0
H2917 H 0.45885 0.05613 0.72181 0.0
H2918 H 0.43529 0.0501 0.72881 0.0
H2919 H 0.44519 0.07484 0.72997 0.0
C2920 C 0.95548 0.51076 0.36824 0.0
C2921 C 0.97065 0.50361 0.35927 0.0
C2922 C 0.9523 0.53017 0.36827 0.0
C2923 C 0.96467 0.54262 0.35921 0.0
C2924 C 0.98034 0.53552 0.35066 0.0
C2925 C 0.98308 0.51613 0.35077 0.0
C2926 C 0.93545 0.53719 0.37747 0.0
C2927 C 0.99408 0.54833 0.34107 0.0
C2928 C 0.95386 0.58649 0.33571 0.0
C2929 C 0.96602 0.60059 0.3476 0.0
C2930 C 0.95126 0.56765 0.34055 0.0
C2931 C 0.96113 0.5629 0.35762 0.0
C2932 C 0.97119 0.57765 0.37089 0.0
C2933 C 0.97346 0.59641 0.36573 0.0
C2934 C 0.94 0.55245 0.3262 0.0
C2935 C 0.98157 0.57335 0.38946 0.0
H2936 H 0.94583 0.50107 0.3748 0.0
H2937 H 0.99505 0.51073 0.34418 0.0
H2938 H 0.93979 0.55091 0.38661 0.0
H2939 H 0.92429 0.53994 0.36616 0.0
H2940 H 0.92899 0.52658 0.38632 0.0
H2941 H 1.00591 0.54069 0.33573 0.0
H2942 H 0.98626 0.55399 0.32877 0.0
H2943 H 1.00044 0.5608 0.35127 0.0
H2944 H 0.94797 0.58963 0.32171 0.0
H2945 H 0.9825 0.60742 0.37518 0.0
H2946 H 0.93143 0.54189 0.3335 0.0
H2947 H 0.95009 0.5446 0.3181 0.0
H2948 H 0.93021 0.55875 0.3158 0.0
H2949 H 0.99539 0.56792 0.38655 0.0
H2950 H 0.97311 0.56212 0.39604 0.0
H2951 H 0.98472 0.58638 0.39991 0.0
C2952 C 0.33103 0.60456 0.31979 0.0
C2953 C 0.31378 0.6018 0.30764 0.0
C2954 C 0.34886 0.60528 0.31233 0.0
C2955 C 0.34947 0.60322 0.29223 0.0
C2956 C 0.33212 0.6001 0.27992 0.0
C2957 C 0.31452 0.59942 0.28775 0.0
C2958 C 0.36703 0.60867 0.32594 0.0
C2959 C 0.33213 0.59777 0.2584 0.0
C2960 C 0.3922 0.62498 0.26982 0.0
C2961 C 0.40133 0.60878 0.26437 0.0
C2962 C 0.37575 0.62345 0.27953 0.0
C2963 C 0.36816 0.60526 0.28394 0.0
C2964 C 0.37778 0.58895 0.27925 0.0
C2965 C 0.39429 0.59091 0.26954 0.0
C2966 C 0.36606 0.64123 0.28441 0.0
C2967 C 0.37019 0.56932 0.28377 0.0
H2968 H 0.33061 0.6066 0.33517 0.0
H2969 H 0.30129 0.59693 0.27826 0.0
H2970 H 0.37654 0.59737 0.32275 0.0
H2971 H 0.37498 0.62259 0.32399 0.0
H2972 H 0.36413 0.60884 0.34116 0.0
H2973 H 0.31742 0.59477 0.25082 0.0
H2974 H 0.3391 0.61103 0.25364 0.0
H2975 H 0.34056 0.58589 0.25403 0.0
H2976 H 0.39778 0.63888 0.26616 0.0
H2977 H 0.40122 0.57833 0.2653 0.0
H2978 H 0.36386 0.64272 0.29982 0.0
H2979 H 0.35171 0.63998 0.27612 0.0
H2980 H 0.37447 0.65445 0.28116 0.0
H2981 H 0.36758 0.56974 0.29906 0.0
H2982 H 0.38019 0.55843 0.28071 0.0
H2983 H 0.35624 0.56472 0.27509 0.0
C2984 C 0.19182 0.38377 0.77389 0.0
C2985 C 0.20745 0.37467 0.76793 0.0
C2986 C 0.17329 0.37896 0.7644 0.0
C2987 C 0.17031 0.36489 0.74839 0.0
C2988 C 0.18596 0.35558 0.74234 0.0
C2989 C 0.20429 0.36049 0.75224 0.0
C2990 C 0.15694 0.38911 0.77136 0.0
C2991 C 0.18338 0.34057 0.72526 0.0
C2992 C 0.12022 0.34036 0.73186 0.0
C2993 C 0.11459 0.35057 0.71652 0.0
C2994 C 0.13819 0.34507 0.74258 0.0
C2995 C 0.15091 0.36019 0.73767 0.0
C2996 C 0.14524 0.37061 0.72227 0.0
C2997 C 0.12711 0.36574 0.71194 0.0
C2998 C 0.14361 0.3338 0.75907 0.0
C2999 C 0.15847 0.38669 0.71646 0.0
H3000 H 0.19412 0.39494 0.78579 0.0
H3001 H 0.21616 0.35313 0.74771 0.0
H3002 H 0.15091 0.3974 0.76004 0.0
H3003 H 0.14525 0.37849 0.77437 0.0
H3004 H 0.16148 0.39908 0.78454 0.0
H3005 H 0.197 0.33465 0.72241 0.0
H3006 H 0.17273 0.32861 0.72762 0.0
H3007 H 0.17769 0.34683 0.7123 0.0
H3008 H 0.11048 0.32875 0.73554 0.0
H3009 H 0.12289 0.37352 0.69995 0.0
H3010 H 0.14738 0.34364 0.77244 0.0
H3011 H 0.15647 0.32646 0.75634 0.0
H3012 H 0.13186 0.32287 0.76141 0.0
H3013 H 0.16266 0.3978 0.72877 0.0
H3014 H 0.15179 0.39356 0.70432 0.0
H3015 H 0.17182 0.3811 0.71222 0.0
C3016 C 0.72242 0.9814 0.69383 0.0
C3017 C 0.72028 0.99507 0.68077 0.0
C3018 C 0.7406 0.97848 0.70238 0.0
C3019 C 0.75712 0.98934 0.69764 0.0
C3020 C 0.75505 1.00355 0.68492 0.0
C3021 C 0.73668 0.00631 0.67673 0.0
C3022 C 0.74218 0.96328 0.71599 0.0
C3023 C 0.7723 0.0154 0.67946 0.0
C3024 C 0.80383 0.98908 0.72966 0.0
C3025 C 0.81234 0.97443 0.71985 0.0
C3026 C 0.78599 0.99437 0.72248 0.0
C3027 C 0.77658 0.98489 0.70498 0.0
C3028 C 0.78546 0.97056 0.69472 0.0
C3029 C 0.80317 0.96546 0.70231 0.0
C3030 C 0.77693 0.00962 0.7339 0.0
C3031 C 0.77605 0.96029 0.67589 0.0
H3032 H 0.70993 0.97248 0.69691 0.0
H3033 H 0.73518 0.01717 0.66697 0.0
H3034 H 0.74964 0.95149 0.70956 0.0
H3035 H 0.75086 0.96933 0.72956 0.0
H3036 H 0.72793 0.95716 0.71938 0.0
H3037 H 0.76821 0.02662 0.67027 0.0
H3038 H 0.78127 0.02241 0.6925 0.0
H3039 H 0.7813 1.00595 0.6716 0.0
H3040 H 0.81081 0.99594 0.74331 0.0
H3041 H 0.80982 0.95429 0.69457 0.0
H3042 H 0.76348 1.00321 0.73879 0.0
H3043 H 0.77304 0.02095 0.7248 0.0
H3044 H 0.78656 0.01637 0.74665 0.0
H3045 H 0.76232 0.95215 0.67814 0.0
H3046 H 0.78527 0.95015 0.66926 0.0
H3047 H 0.77265 0.97082 0.66567 0.0
C3048 C 0.78683 0.02586 0.29708 0.0
C3049 C 0.80103 0.01349 0.30006 0.0
C3050 C 0.77026 0.02449 0.30668 0.0
C3051 C 0.76777 0.01027 0.31938 0.0
C3052 C 0.78203 0.9977 0.32236 0.0
C3053 C 0.79853 0.99953 0.31274 0.0
C3054 C 0.75548 0.03831 0.30333 0.0
C3055 C 0.77983 0.98226 0.33568 0.0
C3056 C 0.73497 0.01623 0.35866 0.0
C3057 C 0.71859 1.00412 0.35091 0.0
C3058 C 0.7509 0.01872 0.34834 0.0
C3059 C 0.75047 0.00872 0.3299 0.0
C3060 C 0.73378 0.99672 0.32186 0.0
C3061 C 0.71794 0.99468 0.33246 0.0
C3062 C 0.76827 0.03192 0.35726 0.0
C3063 C 0.73282 0.98573 0.30229 0.0
H3064 H 0.78878 0.03675 0.28737 0.0
H3065 H 0.80934 0.98976 0.31485 0.0
H3066 H 0.74141 0.03029 0.2978 0.0
H3067 H 0.75355 0.0466 0.31707 0.0
H3068 H 0.75955 0.04852 0.29298 0.0
H3069 H 0.79205 0.9734 0.33612 0.0
H3070 H 0.77872 0.98884 0.35041 0.0
H3071 H 0.7664 0.97272 0.33106 0.0
H3072 H 0.73528 0.02398 0.37273 0.0
H3073 H 0.70526 0.98528 0.32649 0.0
H3074 H 0.77196 0.04292 0.3476 0.0
H3075 H 0.78079 0.02362 0.35926 0.0
H3076 H 0.76598 0.03928 0.37137 0.0
H3077 H 0.73589 0.9957 0.29145 0.0
H3078 H 0.71859 0.97748 0.29785 0.0
H3079 H 0.74395 0.9756 0.30228 0.0
C3080 C 0.30899 0.32588 0.61818 0.0
C3081 C 0.31488 0.31703 0.60138 0.0
C3082 C 0.2997 0.34262 0.61796 0.0
C3083 C 0.29618 0.35075 0.60052 0.0
C3084 C 0.3026 0.34223 0.58362 0.0
C3085 C 0.31186 0.32548 0.58425 0.0
C3086 C 0.29318 0.35132 0.63633 0.0
C3087 C 0.2991 0.35043 0.56474 0.0
C3088 C 0.25327 0.37939 0.59776 0.0
C3089 C 0.26192 0.39827 0.60195 0.0
C3090 C 0.26431 0.36388 0.59659 0.0
C3091 C 0.28454 0.36729 0.59978 0.0
C3092 C 0.29342 0.38639 0.60329 0.0
C3093 C 0.28198 0.40169 0.60425 0.0
C3094 C 0.25426 0.34378 0.59259 0.0
C3095 C 0.31494 0.39061 0.60679 0.0
H3096 H 0.31157 0.31965 0.63153 0.0
H3097 H 0.31622 0.31865 0.57117 0.0
H3098 H 0.29871 0.36671 0.6391 0.0
H3099 H 0.27729 0.35046 0.63496 0.0
H3100 H 0.29803 0.34396 0.64888 0.0
H3101 H 0.30636 0.34307 0.55328 0.0
H3102 H 0.28348 0.34901 0.56013 0.0
H3103 H 0.30421 0.36593 0.56632 0.0
H3104 H 0.23776 0.37673 0.59573 0.0
H3105 H 0.28871 0.41627 0.6076 0.0
H3106 H 0.25702 0.33583 0.60525 0.0
H3107 H 0.25997 0.33592 0.58037 0.0
H3108 H 0.23851 0.34363 0.58927 0.0
H3109 H 0.32018 0.38515 0.62037 0.0
H3110 H 0.31967 0.40619 0.60775 0.0
H3111 H 0.32182 0.38311 0.59514 0.0
C3112 C 0.28823 0.77558 0.99184 0.0
C3113 C 0.29257 0.78813 0.00874 0.0
C3114 C 0.29793 0.75927 0.98869 0.0
C3115 C 0.31233 0.7554 1.00276 0.0
C3116 C 0.31644 0.76773 0.02007 0.0
C3117 C 0.30656 0.78397 0.02281 0.0
C3118 C 0.29331 0.74662 0.96997 0.0
C3119 C 0.33181 0.76427 0.03542 0.0
C3120 C 0.33145 0.70672 1.00261 0.0
C3121 C 0.34937 0.71079 0.99608 0.0
C3122 C 0.31886 0.72096 1.00438 0.0
C3123 C 0.32419 0.73939 0.99888 0.0
C3124 C 0.34166 0.74298 0.99087 0.0
C3125 C 0.35406 0.72864 0.98964 0.0
C3126 C 0.3004 0.71665 0.01309 0.0
C3127 C 0.34772 0.76228 0.98445 0.0
H3128 H 0.27763 0.77883 0.98078 0.0
H3129 H 0.30984 0.79347 0.03599 0.0
H3130 H 0.30583 0.74763 0.96156 0.0
H3131 H 0.29042 0.73142 0.97264 0.0
H3132 H 0.2807 0.75071 0.96118 0.0
H3133 H 0.33018 0.77219 0.04947 0.0
H3134 H 0.3316 0.7488 0.03718 0.0
H3135 H 0.34607 0.76916 0.03116 0.0
H3136 H 0.32781 0.69287 0.00755 0.0
H3137 H 0.36768 0.73161 0.98399 0.0
H3138 H 0.28802 0.71854 1.00273 0.0
H3139 H 0.29992 0.72689 0.02595 0.0
H3140 H 0.29868 0.70183 0.01727 0.0
H3141 H 0.33602 0.76687 0.97482 0.0
H3142 H 0.36081 0.76214 0.97684 0.0
H3143 H 0.35067 0.77317 0.9971 0.0
C3144 C 0.75361 0.20475 0.36139 0.0
C3145 C 0.77119 0.20727 0.37299 0.0
C3146 C 0.74364 0.18648 0.35639 0.0
C3147 C 0.7513 0.1703 0.36331 0.0
C3148 C 0.76905 0.17269 0.37497 0.0
C3149 C 0.77882 0.19112 0.37959 0.0
C3150 C 0.72479 0.1845 0.34385 0.0
C3151 C 0.77765 0.1558 0.38268 0.0
C3152 C 0.71632 0.12623 0.36537 0.0
C3153 C 0.71934 0.1146 0.34886 0.0
C3154 C 0.72684 0.14424 0.3704 0.0
C3155 C 0.74059 0.15092 0.35854 0.0
C3156 C 0.74383 0.13923 0.34194 0.0
C3157 C 0.73325 0.12119 0.33736 0.0
C3158 C 0.72305 0.15623 0.38828 0.0
C3159 C 0.75833 0.14589 0.3289 0.0
H3160 H 0.74744 0.21714 0.35646 0.0
H3161 H 0.79252 0.19286 0.38831 0.0
H3162 H 0.72538 0.17435 0.33094 0.0
H3163 H 0.71311 0.1785 0.35172 0.0
H3164 H 0.72107 0.19842 0.33918 0.0
H3165 H 0.79159 0.16007 0.39153 0.0
H3166 H 0.76761 0.14854 0.39156 0.0
H3167 H 0.77988 0.14516 0.37068 0.0
H3168 H 0.70543 0.12142 0.3742 0.0
H3169 H 0.73592 0.11221 0.32475 0.0
H3170 H 0.71762 0.16977 0.38443 0.0
H3171 H 0.73659 0.16017 0.39785 0.0
H3172 H 0.71242 0.14866 0.39636 0.0
H3173 H 0.75443 0.1593 0.32321 0.0
H3174 H 0.75928 0.13501 0.31664 0.0
H3175 H 0.77272 0.14919 0.33708 0.0
C3176 C 0.66887 0.73459 0.00796 0.0
C3177 C 0.67407 0.71803 0.9979 0.0
C3178 C 0.67712 0.75294 1.00513 0.0
C3179 C 0.69102 0.75482 0.99202 0.0
C3180 C 0.69672 0.73817 0.98221 0.0
C3181 C 0.68815 0.72002 0.98521 0.0
C3182 C 0.67064 0.77033 0.01585 0.0
C3183 C 0.71152 0.73954 0.96813 0.0
C3184 C 0.69773 0.8004 0.96758 0.0
C3185 C 0.71473 0.80977 0.97763 0.0
C3186 C 0.68965 0.78277 0.97244 0.0
C3187 C 0.69882 0.77418 0.98768 0.0
C3188 C 0.71573 0.78379 0.99821 0.0
C3189 C 0.72345 0.80152 0.9931 0.0
C3190 C 0.67149 0.77314 0.96097 0.0
C3191 C 0.72598 0.77507 0.01449 0.0
H3192 H 0.65827 0.73323 0.01804 0.0
H3193 H 0.69211 0.70739 0.97716 0.0
H3194 H 0.68317 0.77942 0.02377 0.0
H3195 H 0.66367 0.77913 0.00555 0.0
H3196 H 0.66035 0.76642 0.02619 0.0
H3197 H 0.71527 0.72524 0.96259 0.0
H3198 H 0.70599 0.74686 0.95582 0.0
H3199 H 0.72478 0.74825 0.97499 0.0
H3200 H 0.69078 0.80685 0.95578 0.0
H3201 H 0.73666 0.80863 1.00082 0.0
H3202 H 0.66036 0.76995 0.97065 0.0
H3203 H 0.67434 0.75928 0.95351 0.0
H3204 H 0.66569 0.78209 0.95011 0.0
H3205 H 0.71594 0.77147 0.02511 0.0
H3206 H 0.73836 0.7848 0.0219 0.0
H3207 H 0.73126 0.76151 0.00892 0.0
C3208 C 0.6067 0.32219 0.3291 0.0
C3209 C 0.60387 0.31037 0.31166 0.0
C3210 C 0.60771 0.31434 0.34673 0.0
C3211 C 0.60585 0.29419 0.34695 0.0
C3212 C 0.60273 0.28219 0.3294 0.0
C3213 C 0.60178 0.29041 0.31201 0.0
C3214 C 0.61112 0.32763 0.36511 0.0
C3215 C 0.60063 0.26063 0.329 0.0
C3216 C 0.62801 0.27165 0.38946 0.0
C3217 C 0.6119 0.26616 0.39872 0.0
C3218 C 0.6263 0.28127 0.37295 0.0
C3219 C 0.60802 0.28555 0.36545 0.0
C3220 C 0.59179 0.28069 0.37511 0.0
C3221 C 0.59393 0.27108 0.39166 0.0
C3222 C 0.644 0.28633 0.36321 0.0
C3223 C 0.57207 0.28504 0.36759 0.0
H3224 H 0.60853 0.33761 0.32899 0.0
H3225 H 0.59928 0.28117 0.29862 0.0
H3226 H 0.59981 0.32423 0.37454 0.0
H3227 H 0.62504 0.32552 0.37298 0.0
H3228 H 0.61132 0.34294 0.36252 0.0
H3229 H 0.59764 0.25331 0.31419 0.0
H3230 H 0.61397 0.25587 0.33581 0.0
H3231 H 0.58881 0.25593 0.33737 0.0
H3232 H 0.642 0.26819 0.39503 0.0
H3233 H 0.58141 0.26678 0.39867 0.0
H3234 H 0.64548 0.30182 0.36128 0.0
H3235 H 0.64265 0.27829 0.34875 0.0
H3236 H 0.65728 0.28295 0.37144 0.0
H3237 H 0.57227 0.30041 0.36534 0.0
H3238 H 0.56116 0.28154 0.37744 0.0
H3239 H 0.56762 0.27663 0.35347 0.0
C3240 C 0.99733 0.31079 0.79216 0.0
C3241 C 0.01134 0.29821 0.79504 0.0
C3242 C 0.99572 0.32027 0.77557 0.0
C3243 C 0.00855 0.31726 0.76157 0.0
C3244 C 0.02272 0.30455 0.76436 0.0
C3245 C 0.02387 0.29508 0.78102 0.0
C3246 C 0.98032 0.33359 0.77305 0.0
C3247 C 0.03681 0.30117 0.74987 0.0
C3248 C 0.99406 0.33136 0.71187 0.0
C3249 C 1.00352 0.34988 0.71309 0.0
C3250 C 0.99581 0.32036 0.72744 0.0
C3251 C 0.00753 0.32804 0.74442 0.0
C3252 C 0.01766 0.3465 0.74536 0.0
C3253 C 0.01545 0.35722 0.72971 0.0
C3254 C 0.9847 0.30078 0.72593 0.0
C3255 C 0.03059 0.35506 0.76305 0.0
H3256 H 0.98743 0.31301 0.80282 0.0
H3257 H 0.0348 0.28545 0.78326 0.0
H3258 H 0.987 0.34838 0.77236 0.0
H3259 H 0.97117 0.32918 0.75934 0.0
H3260 H 0.97104 0.33382 0.78493 0.0
H3261 H 0.04668 0.29051 0.75396 0.0
H3262 H 0.02903 0.29604 0.7356 0.0
H3263 H 0.04548 0.31484 0.74839 0.0
H3264 H 0.98482 0.3257 0.69899 0.0
H3265 H 0.02324 0.37133 0.73045 0.0
H3266 H 0.97414 0.30066 0.73663 0.0
H3267 H 0.99452 0.28986 0.72923 0.0
H3268 H 0.97692 0.29654 0.71146 0.0
H3269 H 0.022 0.35704 0.77534 0.0
H3270 H 0.03824 0.36915 0.76108 0.0
H3271 H 0.04136 0.34519 0.76687 0.0
C3272 C 0.39394 0.7808 0.19811 0.0
C3273 C 0.37942 0.77911 0.21035 0.0
C3274 C 0.39079 0.77295 0.17889 0.0
C3275 C 0.37274 0.76302 0.17175 0.0
C3276 C 0.3581 0.761 0.18406 0.0
C3277 C 0.3616 0.76912 0.2032 0.0
C3278 C 0.40675 0.77539 0.1662 0.0
C3279 C 0.33867 0.75045 0.17696 0.0
C3280 C 0.35692 0.75812 0.11835 0.0
C3281 C 0.36031 0.73922 0.11278 0.0
C3282 C 0.36123 0.76616 0.13744 0.0
C3283 C 0.36902 0.75499 0.1513 0.0
C3284 C 0.37285 0.73602 0.14569 0.0
C3285 C 0.36849 0.72838 0.12647 0.0
C3286 C 0.35716 0.78651 0.14284 0.0
C3287 C 0.38107 0.72364 0.16008 0.0
H3288 H 0.40787 0.78819 0.2036 0.0
H3289 H 0.35025 0.76792 0.21249 0.0
H3290 H 0.41024 0.76116 0.16023 0.0
H3291 H 0.40204 0.78315 0.1539 0.0
H3292 H 0.41999 0.78343 0.17399 0.0
H3293 H 0.32903 0.74968 0.1885 0.0
H3294 H 0.33172 0.75773 0.16529 0.0
H3295 H 0.34029 0.73566 0.1709 0.0
H3296 H 0.35078 0.7666 0.10776 0.0
H3297 H 0.37092 0.71368 0.12226 0.0
H3298 H 0.37038 0.79517 0.14989 0.0
H3299 H 0.34635 0.78668 0.15329 0.0
H3300 H 0.35171 0.79349 0.13023 0.0
H3301 H 0.39468 0.73096 0.16775 0.0
H3302 H 0.38387 0.70945 0.15327 0.0
H3303 H 0.37095 0.72133 0.17097 0.0
C3304 C 1.00201 0.69867 0.72542 0.0
C3305 C 0.9915 0.68108 0.71842 0.0
C3306 C 0.9994 0.70797 0.74339 0.0
C3307 C 0.98575 0.6996 0.75446 0.0
C3308 C 0.97515 0.6818 0.74746 0.0
C3309 C 0.97823 0.67273 0.72959 0.0
C3310 C 0.01114 0.72679 0.75047 0.0
C3311 C 0.96026 0.67252 0.75868 0.0
C3312 C 0.98651 0.71414 0.80797 0.0
C3313 C 0.97199 0.72644 0.80834 0.0
C3314 C 0.99163 0.7058 0.79051 0.0
C3315 C 0.98189 0.70972 0.77302 0.0
C3316 C 0.96763 0.72254 0.7733 0.0
C3317 C 0.96295 0.73082 0.79091 0.0
C3318 C 0.00705 0.69234 0.79081 0.0
C3319 C 0.95687 0.72709 0.75499 0.0
H3320 H 0.01241 0.70507 0.7169 0.0
H3321 H 0.9699 0.65924 0.72414 0.0
H3322 H 1.00156 0.7383 0.7522 0.0
H3323 H 0.0189 0.72587 0.76475 0.0
H3324 H 0.02175 0.73098 0.74053 0.0
H3325 H 0.95352 0.65848 0.7514 0.0
H3326 H 0.96686 0.6703 0.77311 0.0
H3327 H 0.94885 0.68211 0.76073 0.0
H3328 H 0.99349 0.71055 0.82133 0.0
H3329 H 0.95202 0.74063 0.79102 0.0
H3330 H 0.01794 0.69662 0.78122 0.0
H3331 H 1.00065 0.67761 0.78534 0.0
H3332 H 0.01435 0.69204 0.80544 0.0
H3333 H 0.96708 0.73254 0.74524 0.0
H3334 H 0.9467 0.73792 0.75763 0.0
H3335 H 0.94869 0.71383 0.74744 0.0
C3336 C 0.67157 0.39814 0.67872 0.0
C3337 C 0.68786 0.40301 0.69198 0.0
C3338 C 0.65316 0.39587 0.68474 0.0
C3339 C 0.65093 0.39858 0.70452 0.0
C3340 C 0.6673 0.4036 0.718 0.0
C3341 C 0.68559 0.40569 0.71157 0.0
C3342 C 0.63609 0.39037 0.66991 0.0
C3343 C 0.66549 0.40672 0.7392 0.0
C3344 C 0.60091 0.40785 0.71642 0.0
C3345 C 0.59307 0.38947 0.71946 0.0
C3346 C 0.61997 0.41119 0.71223 0.0
C3347 C 0.63144 0.39578 0.71099 0.0
C3348 C 0.62383 0.37735 0.71473 0.0
C3349 C 0.60477 0.37443 0.71896 0.0
C3350 C 0.62758 0.43106 0.70838 0.0
C3351 C 0.63561 0.36055 0.71363 0.0
H3352 H 0.67324 0.39577 0.66358 0.0
H3353 H 0.69812 0.40964 0.72187 0.0
H3354 H 0.62854 0.37648 0.67256 0.0
H3355 H 0.62575 0.40124 0.67103 0.0
H3356 H 0.64024 0.38905 0.65507 0.0
H3357 H 0.67959 0.41084 0.7478 0.0
H3358 H 0.65604 0.41814 0.74211 0.0
H3359 H 0.65872 0.39345 0.74411 0.0
H3360 H 0.59194 0.41951 0.71661 0.0
H3361 H 0.59892 0.36026 0.72162 0.0
H3362 H 0.63029 0.43095 0.69314 0.0
H3363 H 0.64144 0.43567 0.7172 0.0
H3364 H 0.61742 0.4418 0.71148 0.0
H3365 H 0.63912 0.35737 0.69873 0.0
H3366 H 0.62797 0.34743 0.71805 0.0
H3367 H 0.64937 0.36409 0.7229 0.0
C3368 C 0.82226 0.63294 0.23399 0.0
C3369 C 0.81005 0.6215 0.24386 0.0
C3370 C 0.84163 0.63779 0.24091 0.0
C3371 C 0.84891 0.63123 0.25825 0.0
C3372 C 0.83667 0.61961 0.26826 0.0
C3373 C 0.8174 0.61478 0.26087 0.0
C3374 C 0.85429 0.65001 0.2297 0.0
C3375 C 0.84382 0.6126 0.28694 0.0
C3376 C 0.903 0.63184 0.26856 0.0
C3377 C 0.90778 0.64938 0.27991 0.0
C3378 C 0.88385 0.62563 0.2615 0.0
C3379 C 0.86919 0.63712 0.26622 0.0
C3380 C 0.87395 0.65458 0.27815 0.0
C3381 C 0.89321 0.66057 0.28472 0.0
C3382 C 0.87936 0.60706 0.24861 0.0
C3383 C 0.85872 0.66708 0.28379 0.0
H3384 H 0.81667 0.63795 0.22071 0.0
H3385 H 0.80794 0.60605 0.2686 0.0
H3386 H 0.85969 0.66372 0.23845 0.0
H3387 H 0.86696 0.64261 0.22635 0.0
H3388 H 0.84662 0.65326 0.21608 0.0
H3389 H 0.83257 0.60337 0.29274 0.0
H3390 H 0.85624 0.60434 0.28494 0.0
H3391 H 0.84886 0.62501 0.29772 0.0
H3392 H 0.91431 0.62325 0.26476 0.0
H3393 H 0.89691 0.67405 0.29367 0.0
H3394 H 0.8729 0.60993 0.23433 0.0
H3395 H 0.86868 0.59734 0.25459 0.0
H3396 H 0.89233 0.59957 0.24671 0.0
H3397 H 0.85151 0.67219 0.27084 0.0
H3398 H 0.86471 0.67974 0.29393 0.0
H3399 H 0.84759 0.65866 0.29054 0.0
C3400 C 0.28876 1.00261 0.32121 0.0
C3401 C 0.29716 0.01598 0.33642 0.0
C3402 C 0.26924 1.00214 0.31449 0.0
C3403 C 0.25798 0.01548 0.32309 0.0
C3404 C 0.26666 0.02954 0.33786 0.0
C3405 C 0.2861 0.02955 0.34439 0.0
C3406 C 0.26049 0.98687 0.2988 0.0
C3407 C 0.25525 0.04417 0.34728 0.0
C3408 C 0.20877 0.02456 0.30064 0.0
C3409 C 0.19673 0.01472 0.31199 0.0
C3410 C 0.22879 0.02436 0.30353 0.0
C3411 C 0.23683 0.01389 0.31793 0.0
C3412 C 0.22459 1.00312 0.32868 0.0
C3413 C 0.20472 1.00376 0.32565 0.0
C3414 C 0.24135 0.0361 0.29185 0.0
C3415 C 0.23252 0.99155 0.34398 0.0
H3416 H 0.29726 0.99204 0.31506 0.0
H3417 H 0.29263 0.0401 0.35595 0.0
H3418 H 0.25028 0.9766 0.30472 0.0
H3419 H 0.25225 0.99334 0.28733 0.0
H3420 H 0.27149 0.97879 0.29236 0.0
H3421 H 0.26445 0.05503 0.35749 0.0
H3422 H 0.24751 0.05166 0.33627 0.0
H3423 H 0.24433 0.03686 0.35519 0.0
H3424 H 0.2026 0.03309 0.29012 0.0
H3425 H 0.19538 0.99594 0.33425 0.0
H3426 H 0.25208 0.0274 0.28581 0.0
H3427 H 0.24937 0.04838 0.30124 0.0
H3428 H 0.2329 0.04177 0.27993 0.0
H3429 H 0.24268 0.982 0.33814 0.0
H3430 H 0.22106 0.98266 0.34985 0.0
H3431 H 0.24061 1.00134 0.35592 0.0
C3432 C 0.23826 0.01528 0.69864 0.0
C3433 C 0.23389 0.01032 0.71662 0.0
C3434 C 0.25622 0.01272 0.69232 0.0
C3435 C 0.27013 1.0048 0.70421 0.0
C3436 C 0.26612 1.00071 0.72278 0.0
C3437 C 0.24803 1.00342 0.72872 0.0
C3438 C 0.25989 0.01876 0.67295 0.0
C3439 C 0.28081 0.99306 0.73626 0.0
C3440 C 0.30547 0.97415 0.68231 0.0
C3441 C 0.32242 0.98675 0.68452 0.0
C3442 C 0.2884 0.97997 0.68845 0.0
C3443 C 0.28804 0.99899 0.69676 0.0
C3444 C 0.30482 0.01204 0.69838 0.0
C3445 C 0.32184 1.00576 0.69233 0.0
C3446 C 0.27077 0.96564 0.68638 0.0
C3447 C 0.30483 0.03254 0.70677 0.0
H3448 H 0.22761 0.0212 0.68945 0.0
H3449 H 0.24478 0.99962 0.74268 0.0
H3450 H 0.2735 0.01456 0.66811 0.0
H3451 H 0.24784 0.01265 0.66212 0.0
H3452 H 0.26033 0.03459 0.67356 0.0
H3453 H 0.27625 0.9926 0.75088 0.0
H3454 H 0.28322 0.97834 0.73063 0.0
H3455 H 0.29474 1.00209 0.73729 0.0
H3456 H 0.3055 0.95961 0.67578 0.0
H3457 H 0.33479 0.01565 0.69424 0.0
H3458 H 0.25863 0.97143 0.67845 0.0
H3459 H 0.26646 0.96313 0.70072 0.0
H3460 H 0.27315 0.95163 0.67889 0.0
H3461 H 0.29421 0.03964 0.69804 0.0
H3462 H 0.31911 0.04087 0.70733 0.0
H3463 H 0.30043 0.03292 0.72149 0.0
C3464 C 0.71361 0.68792 0.41296 0.0
C3465 C 0.69405 0.69022 0.40962 0.0
C3466 C 0.72013 0.6697 0.41054 0.0
C3467 C 0.70678 0.65341 0.40451 0.0
C3468 C 0.68701 0.65564 0.40129 0.0
C3469 C 0.68089 0.67398 0.40391 0.0
C3470 C 0.7413 0.66789 0.41426 0.0
C3471 C 0.67233 0.63867 0.39469 0.0
C3472 C 0.72272 0.60894 0.37854 0.0
C3473 C 0.72301 0.59631 0.39277 0.0
C3474 C 0.71795 0.6277 0.38232 0.0
C3475 C 0.71345 0.6341 0.40084 0.0
C3476 C 0.71438 0.62168 0.41547 0.0
C3477 C 0.71912 0.60292 0.41126 0.0
C3478 C 0.71718 0.6405 0.36632 0.0
C3479 C 0.70976 0.62801 0.43542 0.0
H3480 H 0.72382 0.70039 0.41757 0.0
H3481 H 0.66579 0.67568 0.40106 0.0
H3482 H 0.7438 0.65761 0.42497 0.0
H3483 H 0.74678 0.66212 0.40088 0.0
H3484 H 0.74973 0.68184 0.41955 0.0
H3485 H 0.65745 0.64275 0.39336 0.0
H3486 H 0.67531 0.63193 0.38056 0.0
H3487 H 0.67328 0.62768 0.4049 0.0
H3488 H 0.72607 0.60407 0.36432 0.0
H3489 H 0.71915 0.59323 0.4223 0.0
H3490 H 0.72639 0.65416 0.37075 0.0
H3491 H 0.7023 0.64412 0.36313 0.0
H3492 H 0.72189 0.63365 0.35297 0.0
H3493 H 0.71839 0.64173 0.44105 0.0
H3494 H 0.71253 0.61718 0.44553 0.0
H3495 H 0.69444 0.63056 0.43499 0.0
C3496 C 0.70026 0.22693 0.99906 0.0
C3497 C 0.71892 0.22539 0.00721 0.0
C3498 C 0.69423 0.24481 0.99567 0.0
C3499 C 0.70703 0.26165 1.00075 0.0
C3500 C 0.72567 0.26031 0.00962 0.0
C3501 C 0.73144 0.2422 0.01264 0.0
C3502 C 0.67429 0.24562 0.98616 0.0
C3503 C 0.73971 0.27794 0.01536 0.0
C3504 C 0.69748 0.3031 0.97187 0.0
C3505 C 0.68692 0.31414 0.98383 0.0
C3506 C 0.70449 0.28629 0.97742 0.0
C3507 C 0.70123 0.28043 0.99557 0.0
C3508 C 0.69155 0.29197 0.00818 0.0
C3509 C 0.68462 0.30872 1.00222 0.0
C3510 C 0.7148 0.27443 0.96354 0.0
C3511 C 0.6879 0.28629 0.02772 0.0
H3512 H 0.69036 0.21411 0.99517 0.0
H3513 H 0.74596 0.24118 0.01876 0.0
H3514 H 0.67511 0.25169 0.97227 0.0
H3515 H 0.6659 0.23128 0.98347 0.0
H3516 H 0.66648 0.25523 0.99525 0.0
H3517 H 0.75303 0.27465 0.0236 0.0
H3518 H 0.74365 0.28443 1.00236 0.0
H3519 H 0.73305 0.28884 0.02417 0.0
H3520 H 0.70015 0.30746 0.95797 0.0
H3521 H 0.67678 0.31712 0.01181 0.0
H3522 H 0.70636 0.26029 0.95931 0.0
H3523 H 0.72896 0.27173 0.97045 0.0
H3524 H 0.71702 0.28146 0.95036 0.0
H3525 H 0.67784 0.27299 0.02611 0.0
H3526 H 0.68165 0.29761 0.03644 0.0
H3527 H 0.70144 0.28316 0.03564 0.0
C3528 C 0.25776 0.83142 0.61924 0.0
C3529 C 0.24676 0.822 0.63177 0.0
C3530 C 0.26161 0.85145 0.62138 0.0
C3531 C 0.25417 0.86235 0.63632 0.0
C3532 C 0.24353 0.85289 0.64936 0.0
C3533 C 0.24 0.83281 0.64696 0.0
C3534 C 0.27319 0.86097 0.6073 0.0
C3535 C 0.23524 0.86402 0.66538 0.0
C3536 C 0.27458 0.91452 0.64873 0.0
C3537 C 0.26121 0.92401 0.63816 0.0
C3538 C 0.27241 0.89447 0.64845 0.0
C3539 C 0.25643 0.88366 0.63745 0.0
C3540 C 0.24276 0.89316 0.62699 0.0
C3541 C 0.24536 0.91317 0.62739 0.0
C3542 C 0.28732 0.88483 0.65974 0.0
C3543 C 0.22548 0.88216 0.61512 0.0
H3544 H 0.26323 0.82309 0.60764 0.0
H3545 H 0.23136 0.8256 0.65658 0.0
H3546 H 0.26406 0.86972 0.59874 0.0
H3547 H 0.28528 0.87082 0.61504 0.0
H3548 H 0.27904 0.85041 0.59731 0.0
H3549 H 0.22848 0.85451 0.67509 0.0
H3550 H 0.24658 0.87417 0.67395 0.0
H3551 H 0.22425 0.87265 0.65927 0.0
H3552 H 0.28672 0.92279 0.6573 0.0
H3553 H 0.23513 0.9203 0.61891 0.0
H3554 H 0.29406 0.87488 0.64991 0.0
H3555 H 0.28046 0.87613 0.67001 0.0
H3556 H 0.29875 0.8953 0.66781 0.0
H3557 H 0.23021 0.87244 0.60359 0.0
H3558 H 0.21578 0.89176 0.60845 0.0
H3559 H 0.21723 0.8731 0.62417 0.0
C3560 C 0.3451 0.27537 0.01209 0.0
C3561 C 0.33271 0.28957 0.01499 0.0
C3562 C 0.33935 0.2561 0.01399 0.0
C3563 C 0.32078 0.25083 0.0191 0.0
C3564 C 0.30807 0.26501 0.02183 0.0
C3565 C 0.31418 0.2842 0.01971 0.0
C3566 C 0.35334 0.24142 0.01092 0.0
C3567 C 0.28816 0.25993 0.02727 0.0
C3568 C 0.30346 0.19772 0.00932 0.0
C3569 C 0.30869 0.19122 0.02709 0.0
C3570 C 0.30659 0.21723 0.00668 0.0
C3571 C 0.31506 0.23055 0.0222 0.0
C3572 C 0.31951 0.22418 0.04039 0.0
C3573 C 0.31633 0.20459 0.04259 0.0
C3574 C 0.30171 0.22344 0.98705 0.0
C3575 C 0.32838 0.23794 0.05735 0.0
H3576 H 0.35956 0.27937 0.00878 0.0
H3577 H 0.30442 0.29503 0.02176 0.0
H3578 H 0.35675 0.23498 0.02443 0.0
H3579 H 0.34683 0.22965 0.99999 0.0
H3580 H 0.36695 0.24772 0.00621 0.0
H3581 H 0.27981 0.27252 0.02828 0.0
H3582 H 0.28023 0.24867 0.01658 0.0
H3583 H 0.28907 0.25399 0.0413 0.0
H3584 H 0.2977 0.18742 0.99725 0.0
H3585 H 0.32015 0.19966 0.05641 0.0
H3586 H 0.31511 0.22815 0.98097 0.0
H3587 H 0.29314 0.23583 0.98801 0.0
H3588 H 0.29355 0.21171 0.97701 0.0
H3589 H 0.34296 0.24379 0.05471 0.0
H3590 H 0.3295 0.23098 0.07084 0.0
H3591 H 0.31978 0.25024 0.0593 0.0
C3592 C 0.40762 0.67749 0.67154 0.0
C3593 C 0.40997 0.69163 0.68724 0.0
C3594 C 0.40482 0.68232 0.65271 0.0
C3595 C 0.40437 0.70179 0.64944 0.0
C3596 C 0.40698 0.71617 0.66519 0.0
C3597 C 0.4097 0.71092 0.68392 0.0
C3598 C 0.40193 0.66653 0.63632 0.0
C3599 C 0.4067 0.73708 0.66227 0.0
C3600 C 0.41122 0.71351 0.59882 0.0
C3601 C 0.39218 0.7134 0.59081 0.0
C3602 C 0.41547 0.71033 0.61807 0.0
C3603 C 0.40033 0.70689 0.62955 0.0
C3604 C 0.38114 0.70731 0.62171 0.0
C3605 C 0.37732 0.71064 0.60249 0.0
C3606 C 0.43612 0.71007 0.62597 0.0
C3607 C 0.36458 0.70373 0.63346 0.0
H3608 H 0.40753 0.66254 0.674 0.0
H3609 H 0.41172 0.72193 0.69598 0.0
H3610 H 0.38747 0.66636 0.62848 0.0
H3611 H 0.41256 0.66919 0.626 0.0
H3612 H 0.40332 0.65217 0.64125 0.0
H3613 H 0.40968 0.74657 0.67596 0.0
H3614 H 0.41751 0.74131 0.65258 0.0
H3615 H 0.39248 0.73951 0.65528 0.0
H3616 H 0.42277 0.7155 0.58987 0.0
H3617 H 0.3626 0.71093 0.59654 0.0
H3618 H 0.43855 0.69544 0.6295 0.0
H3619 H 0.43943 0.71984 0.63943 0.0
H3620 H 0.44626 0.71441 0.61565 0.0
H3621 H 0.36414 0.68901 0.63786 0.0
H3622 H 0.35056 0.70534 0.62546 0.0
H3623 H 0.36654 0.71382 0.64674 0.0
C3624 C 0.03704 0.72439 0.24504 0.0
C3625 C 0.0247 0.71332 0.23038 0.0
C3626 C 0.0363 0.72123 0.26434 0.0
C3627 C 0.02267 0.70691 0.26917 0.0
C3628 C 0.01082 0.69509 0.25443 0.0
C3629 C 0.01203 0.6984 0.23525 0.0
C3630 C 0.04966 0.73365 0.27961 0.0
C3631 C 0.99602 0.67967 0.25886 0.0
C3632 C 0.02292 0.6886 0.31818 0.0
C3633 C 0.00876 0.69858 0.3262 0.0
C3634 C 0.02852 0.69195 0.30009 0.0
C3635 C 0.01951 0.70536 0.28958 0.0
C3636 C 1.00629 0.71645 0.29814 0.0
C3637 C 1.00147 0.71327 0.31648 0.0
C3638 C 0.04308 0.68012 0.29179 0.0
C3639 C 0.99626 0.73086 0.28744 0.0
H3640 H 0.04682 0.73604 0.24154 0.0
H3641 H 1.00273 0.68948 0.22406 0.0
H3642 H 0.04135 0.74331 0.2881 0.0
H3643 H 0.05672 0.72463 0.28964 0.0
H3644 H 0.06089 0.74257 0.27343 0.0
H3645 H 0.99061 0.66952 0.24603 0.0
H3646 H 1.00185 0.67144 0.27032 0.0
H3647 H 0.98371 0.68655 0.26403 0.0
H3648 H 0.02889 0.67732 0.3254 0.0
H3649 H 0.99119 0.72173 0.3228 0.0
H3650 H 0.05227 0.6885 0.28295 0.0
H3651 H 0.03547 0.66759 0.28245 0.0
H3652 H 0.05241 0.6747 0.30322 0.0
H3653 H 0.0069 0.74126 0.28229 0.0
H3654 H 0.98696 0.73891 0.29641 0.0
H3655 H 0.98723 0.72334 0.27465 0.0
C3656 C 0.64308 0.2531 0.82139 0.0
C3657 C 0.6282 0.23879 0.81415 0.0
C3658 C 0.64615 0.25957 0.84104 0.0
C3659 C 0.63417 0.25144 0.85381 0.0
C3660 C 0.61918 0.23697 0.84662 0.0
C3661 C 0.61631 0.23093 0.82692 0.0
C3662 C 0.66221 0.27511 0.84815 0.0
C3663 C 0.60611 0.22786 0.85975 0.0
C3664 C 0.64982 0.25319 0.90708 0.0
C3665 C 0.63879 0.26697 0.91485 0.0
C3666 C 0.64904 0.24851 0.88719 0.0
C3667 C 0.63711 0.25798 0.87471 0.0
C3668 C 0.62677 0.27263 0.8824 0.0
C3669 C 0.62765 0.27689 0.90236 0.0
C3670 C 0.6603 0.2328 0.87959 0.0
C3671 C 0.61403 0.28321 0.86958 0.0
H3672 H 0.65249 0.25912 0.81171 0.0
H3673 H 0.60453 0.22016 0.82149 0.0
H3674 H 0.65638 0.28752 0.85558 0.0
H3675 H 0.67252 0.26976 0.85874 0.0
H3676 H 0.67008 0.28015 0.83635 0.0
H3677 H 0.59536 0.21653 0.85194 0.0
H3678 H 0.61469 0.22142 0.87101 0.0
H3679 H 0.5984 0.23894 0.86708 0.0
H3680 H 0.65875 0.24572 0.9166 0.0
H3681 H 0.61891 0.2874 0.90816 0.0
H3682 H 0.66893 0.23778 0.86832 0.0
H3683 H 0.65025 0.22035 0.8729 0.0
H3684 H 0.67004 0.2279 0.89103 0.0
H3685 H 0.62195 0.28858 0.85797 0.0
H3686 H 0.60856 0.29552 0.8776 0.0
H3687 H 0.6016 0.27326 0.86269 0.0
C3688 C 1.00029 0.32639 0.28299 0.0
C3689 C 0.01632 0.33523 0.29507 0.0
C3690 C 1.00163 0.32076 0.26354 0.0
C3691 C 0.01936 0.32427 0.25594 0.0
C3692 C 0.03574 0.33257 0.26823 0.0
C3693 C 0.03404 0.33787 0.28765 0.0
C3694 C 0.98389 0.31171 0.25099 0.0
C3695 C 0.05488 0.33674 0.26067 0.0
C3696 C 0.02783 0.30134 0.20668 0.0
C3697 C 0.02472 0.31624 0.19526 0.0
C3698 C 0.02569 0.30351 0.22639 0.0
C3699 C 0.02044 0.32102 0.23488 0.0
C3700 C 0.01686 0.33591 0.22333 0.0
C3701 C 0.01891 0.33328 0.20371 0.0
C3702 C 0.02943 0.28724 0.23821 0.0
C3703 C 0.01123 0.35482 0.23177 0.0
H3704 H 0.98662 0.32412 0.28872 0.0
H3705 H 0.04644 0.34487 0.29685 0.0
H3706 H 0.97935 0.32172 0.24063 0.0
H3707 H 0.98699 0.29846 0.24256 0.0
H3708 H 0.97177 0.30811 0.25943 0.0
H3709 H 0.06651 0.34187 0.27231 0.0
H3710 H 0.05886 0.32371 0.25255 0.0
H3711 H 0.05386 0.34787 0.25062 0.0
H3712 H 0.03241 0.28816 0.20033 0.0
H3713 H 0.01603 0.34471 0.19494 0.0
H3714 H 0.01708 0.28378 0.24637 0.0
H3715 H 0.04215 0.29161 0.24881 0.0
H3716 H 0.03204 0.2741 0.22925 0.0
H3717 H 0.99802 0.35241 0.23898 0.0
H3718 H 0.00866 0.36482 0.22077 0.0
H3719 H 0.02272 0.36179 0.2428 0.0
loop_
_geom_bond_atom_site_label_1
_geom_bond_atom_site_label_2
_geom_bond_distance
_geom_bond_site_symmetry_2
_ccdc_geom_bond_type
C0 C1 1.264 . S
C0 C5 1.479 . S
C0 C10 1.465 . S
C1 C0 1.264 . S
C1 C3 1.339 . S
C1 H28 0.931 . S
C2 C3 1.395 . S
C2 C4 1.320 . S
C3 C1 1.339 . S
C3 C2 1.395 . S
C3 H29 0.929 . S
C4 C2 1.320 . S
C4 C5 1.405 . S
C4 H30 0.930 . S
C5 C0 1.479 . S
C5 C4 1.405 . S
C5 H31 0.931 . S
U6 O7 2.454 . S
U6 O8 2.458 . S
U6 C9 2.984 . S
U6 C10 2.847 . S
U6 C23 2.882 . S
U6 O24 2.441 . S
U6 O25 2.420 . S
U6 O26 2.455 . S
U6 O27 2.449 . S
O7 U6 2.454 . S
O7 C9 1.353 . S
O8 U6 2.458 . S
O8 C9 1.286 . S
C9 U6 2.984 . S
C9 O7 1.353 . S
C9 O8 1.286 . S
C9 C11 1.363 . S
C10 C0 1.465 . S
C10 U6 2.847 . S
C10 O24 1.249 . S
C10 O25 1.202 . S
C11 C9 1.363 . S
C11 C13 1.408 . S
C11 C16 1.342 . S
C12 C13 1.310 . S
C12 C15 1.461 . S
C12 H32 0.932 . S
C13 C11 1.408 . S
C13 C12 1.310 . S
C13 H33 0.930 . S
C14 C15 1.474 . S
C14 C16 1.285 . S
C14 H34 0.929 . S
C15 C12 1.461 . S
C15 C14 1.474 . S
C16 C11 1.342 . S
C16 C14 1.285 . S
C16 H35 0.930 . S
C17 C20 1.424 . S
C17 C22 1.245 . S
C17 C23 1.428 . S
C18 C21 1.260 . S
C18 C22 1.477 . S
C18 H36 0.932 . S
C19 C20 1.384 . S
C19 C21 1.479 . S
C19 H37 0.929 . S
C20 C17 1.424 . S
C20 C19 1.384 . S
C20 H38 0.928 . S
C21 C18 1.260 . S
C21 C19 1.479 . S
C22 C17 1.245 . S
C22 C18 1.477 . S
C22 H39 0.932 . S
C23 U6 2.882 . S
C23 C17 1.428 . S
C23 O26 1.301 . S
C23 O27 1.282 . S
O24 U6 2.441 . S
O24 C10 1.249 . S
O25 U6 2.420 . S
O25 C10 1.202 . S
O26 U6 2.455 . S
O26 C23 1.301 . S
O27 U6 2.449 . S
O27 C23 1.282 . S
H28 C1 0.931 . S
H29 C3 0.929 . S
H30 C4 0.930 . S
H31 C5 0.931 . S
H32 C12 0.932 . S
H33 C13 0.930 . S
H34 C14 0.929 . S
H35 C16 0.930 . S
H36 C18 0.932 . S
H37 C19 0.929 . S
H38 C20 0.928 . S
H39 C22 0.932 . S
C40 C41 1.264 . S
C40 C45 1.479 . S
C40 C50 1.465 . S
C41 C40 1.264 . S
C41 C43 1.339 . S
C41 H68 0.931 . S
C42 C43 1.395 . S
C42 C44 1.320 . S
C43 C41 1.339 . S
C43 C42 1.395 . S
C43 H69 0.929 . S
C44 C42 1.320 . S
C44 C45 1.405 . S
C44 H70 0.930 . S
C45 C40 1.479 . S
C45 C44 1.405 . S
C45 H71 0.931 . S
U46 O47 2.454 . S
U46 O48 2.458 . S
U46 C49 2.984 . S
U46 C50 2.847 . S
U46 C63 2.882 . S
U46 O64 2.441 . S
U46 O65 2.420 . S
U46 O66 2.455 . S
U46 O67 2.449 . S
O47 U46 2.454 . S
O47 C49 1.353 . S
O48 U46 2.458 . S
O48 C49 1.286 . S
C49 U46 2.984 . S
C49 O47 1.353 . S
C49 O48 1.286 . S
C49 C51 1.363 . S
C50 C40 1.465 . S
C50 U46 2.847 . S
C50 O64 1.249 . S
C50 O65 1.202 . S
C51 C49 1.363 . S
C51 C53 1.408 . S
C51 C56 1.342 . S
C52 C53 1.310 . S
C52 C55 1.461 . S
C52 H72 0.932 . S
C53 C51 1.408 . S
C53 C52 1.310 . S
C53 H73 0.930 . S
C54 C55 1.474 . S
C54 C56 1.285 . S
C54 H74 0.929 . S
C55 C52 1.461 . S
C55 C54 1.474 . S
C56 C51 1.342 . S
C56 C54 1.285 . S
C56 H75 0.930 . S
C57 C60 1.424 . S
C57 C62 1.245 . S
C57 C63 1.428 . S
C58 C61 1.260 . S
C58 C62 1.477 . S
C58 H76 0.932 . S
C59 C60 1.384 . S
C59 C61 1.479 . S
C59 H77 0.929 . S
C60 C57 1.424 . S
C60 C59 1.384 . S
C60 H78 0.928 . S
C61 C58 1.260 . S
C61 C59 1.479 . S
C62 C57 1.245 . S
C62 C58 1.477 . S
C62 H79 0.932 . S
C63 U46 2.882 . S
C63 C57 1.428 . S
C63 O66 1.301 . S
C63 O67 1.282 . S
O64 U46 2.441 . S
O64 C50 1.249 . S
O65 U46 2.420 . S
O65 C50 1.202 . S
O66 U46 2.455 . S
O66 C63 1.301 . S
O67 U46 2.449 . S
O67 C63 1.282 . S
H68 C41 0.931 . S
H69 C43 0.929 . S
H70 C44 0.930 . S
H71 C45 0.931 . S
H72 C52 0.932 . S
H73 C53 0.930 . S
H74 C54 0.929 . S
H75 C56 0.930 . S
H76 C58 0.932 . S
H77 C59 0.929 . S
H78 C60 0.928 . S
H79 C62 0.932 . S
C80 C81 1.264 . S
C80 C85 1.479 . S
C80 C90 1.465 . S
C81 C80 1.264 . S
C81 C83 1.339 . S
C81 H108 0.931 . S
C82 C83 1.395 . S
C82 C84 1.320 . S
C83 C81 1.339 . S
C83 C82 1.395 . S
C83 H109 0.929 . S
C84 C82 1.320 . S
C84 C85 1.405 . S
C84 H110 0.930 . S
C85 C80 1.479 . S
C85 C84 1.405 . S
C85 H111 0.931 . S
U86 O87 2.454 . S
U86 O88 2.458 . S
U86 C89 2.984 . S
U86 C90 2.847 . S
U86 C103 2.882 . S
U86 O104 2.441 . S
U86 O105 2.420 . S
U86 O106 2.455 . S
U86 O107 2.449 . S
O87 U86 2.454 . S
O87 C89 1.353 . S
O88 U86 2.458 . S
O88 C89 1.286 . S
C89 U86 2.984 . S
C89 O87 1.353 . S
C89 O88 1.286 . S
C89 C91 1.363 . S
C90 C80 1.465 . S
C90 U86 2.847 . S
C90 O104 1.249 . S
C90 O105 1.202 . S
C91 C89 1.363 . S
C91 C93 1.408 . S
C91 C96 1.342 . S
C92 C93 1.310 . S
C92 C95 1.461 . S
C92 H112 0.932 . S
C93 C91 1.408 . S
C93 C92 1.310 . S
C93 H113 0.930 . S
C94 C95 1.474 . S
C94 C96 1.285 . S
C94 H114 0.929 . S
C95 C92 1.461 . S
C95 C94 1.474 . S
C96 C91 1.342 . S
C96 C94 1.285 . S
C96 H115 0.930 . S
C97 C100 1.424 1_565 S
C97 C102 1.245 1_565 S
C97 C103 1.428 . S
C98 C101 1.260 . S
C98 C102 1.477 . S
C98 H116 0.932 . S
C99 C100 1.384 . S
C99 C101 1.479 . S
C99 H117 0.929 . S
C100 C97 1.424 1_545 S
C100 C99 1.384 . S
C100 H118 0.928 . S
C101 C98 1.260 . S
C101 C99 1.479 . S
C102 C97 1.245 1_545 S
C102 C98 1.477 . S
C102 H119 0.932 . S
C103 U86 2.882 . S
C103 C97 1.428 . S
C103 O106 1.301 . S
C103 O107 1.282 . S
O104 U86 2.441 . S
O104 C90 1.249 . S
O105 U86 2.420 . S
O105 C90 1.202 . S
O106 U86 2.455 . S
O106 C103 1.301 . S
O107 U86 2.449 . S
O107 C103 1.282 . S
H108 C81 0.931 . S
H109 C83 0.929 . S
H110 C84 0.930 . S
H111 C85 0.931 . S
H112 C92 0.932 . S
H113 C93 0.930 . S
H114 C94 0.929 . S
H115 C96 0.930 . S
H116 C98 0.932 . S
H117 C99 0.929 . S
H118 C100 0.928 . S
H119 C102 0.932 . S
C120 C121 1.264 . S
C120 C125 1.479 . S
C120 C130 1.465 . S
C121 C120 1.264 . S
C121 C123 1.339 . S
C121 H148 0.931 . S
C122 C123 1.395 . S
C122 C124 1.320 . S
C123 C121 1.339 . S
C123 C122 1.395 . S
C123 H149 0.929 . S
C124 C122 1.320 . S
C124 C125 1.405 . S
C124 H150 0.930 . S
C125 C120 1.479 . S
C125 C124 1.405 . S
C125 H151 0.931 . S
U126 O127 2.454 . S
U126 O128 2.458 . S
U126 C129 2.984 . S
U126 C130 2.847 . S
U126 C143 2.882 1_545 S
U126 O144 2.441 . S
U126 O145 2.420 . S
U126 O146 2.450 1_545 S
U126 O147 2.449 . S
O127 U126 2.454 . S
O127 C129 1.353 . S
O128 U126 2.458 . S
O128 C129 1.286 . S
C129 U126 2.984 . S
C129 O127 1.353 . S
C129 O128 1.286 . S
C129 C131 1.363 . S
C130 C120 1.465 . S
C130 U126 2.847 . S
C130 O144 1.249 . S
C130 O145 1.202 . S
C131 C129 1.363 . S
C131 C133 1.408 . S
C131 C136 1.342 . S
C132 C133 1.310 . S
C132 C135 1.461 . S
C132 H152 0.932 . S
C133 C131 1.408 . S
C133 C132 1.310 . S
C133 H153 0.930 . S
C134 C135 1.474 . S
C134 C136 1.285 . S
C134 H154 0.929 . S
C135 C132 1.461 . S
C135 C134 1.474 . S
C136 C131 1.342 . S
C136 C134 1.285 . S
C136 H155 0.930 . S
C137 C140 1.424 . S
C137 C142 1.245 . S
C137 C143 1.428 . S
C138 C141 1.260 . S
C138 C142 1.477 . S
C138 H156 0.932 . S
C139 C140 1.384 . S
C139 C141 1.479 . S
C139 H157 0.929 . S
C140 C137 1.424 . S
C140 C139 1.384 . S
C140 H158 0.928 . S
C141 C138 1.260 . S
C141 C139 1.479 . S
C142 C137 1.245 . S
C142 C138 1.477 . S
C142 H159 0.932 . S
C143 U126 2.882 1_565 S
C143 C137 1.428 . S
C143 O146 1.303 . S
C143 O147 1.282 1_565 S
O144 U126 2.441 . S
O144 C130 1.249 . S
O145 U126 2.420 . S
O145 C130 1.202 . S
O146 U126 2.450 1_565 S
O146 C143 1.303 . S
O147 U126 2.449 . S
O147 C143 1.282 1_545 S
H148 C121 0.931 . S
H149 C123 0.929 . S
H150 C124 0.930 . S
H151 C125 0.931 . S
H152 C132 0.932 . S
H153 C133 0.930 . S
H154 C134 0.929 . S
H155 C136 0.930 . S
H156 C138 0.932 . S
H157 C139 0.929 . S
H158 C140 0.928 . S
H159 C142 0.932 . S
C160 C161 1.264 . S
C160 C165 1.479 . S
C160 C170 1.465 . S
C161 C160 1.264 . S
C161 C163 1.339 . S
C161 H188 0.931 . S
C162 C163 1.395 . S
C162 C164 1.320 . S
C163 C161 1.339 . S
C163 C162 1.395 . S
C163 H189 0.929 . S
C164 C162 1.320 . S
C164 C165 1.405 . S
C164 H190 0.930 . S
C165 C160 1.479 . S
C165 C164 1.405 . S
C165 H191 0.931 . S
U166 O167 2.454 . S
U166 O168 2.458 . S
U166 C169 2.984 . S
U166 C170 2.847 . S
U166 C183 2.882 . S
U166 O184 2.441 . S
U166 O185 2.420 . S
U166 O186 2.455 . S
U166 O187 2.449 . S
O167 U166 2.454 . S
O167 C169 1.353 . S
O168 U166 2.458 . S
O168 C169 1.286 . S
C169 U166 2.984 . S
C169 O167 1.353 . S
C169 O168 1.286 . S
C169 C171 1.363 . S
C170 C160 1.465 . S
C170 U166 2.847 . S
C170 O184 1.249 . S
C170 O185 1.202 . S
C171 C169 1.363 . S
C171 C173 1.408 . S
C171 C176 1.342 . S
C172 C173 1.310 . S
C172 C175 1.461 . S
C172 H192 0.932 . S
C173 C171 1.408 . S
C173 C172 1.310 . S
C173 H193 0.930 . S
C174 C175 1.474 . S
C174 C176 1.285 . S
C174 H194 0.929 . S
C175 C172 1.461 . S
C175 C174 1.474 . S
C176 C171 1.342 . S
C176 C174 1.285 . S
C176 H195 0.930 . S
C177 C180 1.424 . S
C177 C182 1.245 . S
C177 C183 1.428 . S
C178 C181 1.260 . S
C178 C182 1.477 . S
C178 H196 0.932 . S
C179 C180 1.384 . S
C179 C181 1.479 . S
C179 H197 0.929 . S
C180 C177 1.424 . S
C180 C179 1.384 . S
C180 H198 0.928 . S
C181 C178 1.260 . S
C181 C179 1.479 . S
C182 C177 1.245 . S
C182 C178 1.477 . S
C182 H199 0.932 . S
C183 U166 2.882 . S
C183 C177 1.428 . S
C183 O186 1.301 . S
C183 O187 1.282 . S
O184 U166 2.441 . S
O184 C170 1.249 . S
O185 U166 2.420 . S
O185 C170 1.202 . S
O186 U166 2.455 . S
O186 C183 1.301 . S
O187 U166 2.449 . S
O187 C183 1.282 . S
H188 C161 0.931 . S
H189 C163 0.929 . S
H190 C164 0.930 . S
H191 C165 0.931 . S
H192 C172 0.932 . S
H193 C173 0.930 . S
H194 C174 0.929 . S
H195 C176 0.930 . S
H196 C178 0.932 . S
H197 C179 0.929 . S
H198 C180 0.928 . S
H199 C182 0.932 . S
C200 C201 1.264 . S
C200 C205 1.479 . S
C200 C210 1.465 . S
C201 C200 1.264 . S
C201 C203 1.339 . S
C201 H228 0.931 . S
C202 C203 1.395 . S
C202 C204 1.320 . S
C203 C201 1.339 . S
C203 C202 1.395 . S
C203 H229 0.929 . S
C204 C202 1.320 . S
C204 C205 1.405 . S
C204 H230 0.930 . S
C205 C200 1.479 . S
C205 C204 1.405 . S
C205 H231 0.931 . S
U206 O207 2.454 . S
U206 O208 2.458 . S
U206 C209 2.984 . S
U206 C210 2.847 . S
U206 C223 2.882 1_554 S
U206 O224 2.441 . S
U206 O225 2.420 . S
U206 O226 2.450 1_554 S
U206 O227 2.449 . S
O207 U206 2.454 . S
O207 C209 1.353 . S
O208 U206 2.458 . S
O208 C209 1.286 . S
C209 U206 2.984 . S
C209 O207 1.353 . S
C209 O208 1.286 . S
C209 C211 1.363 . S
C210 C200 1.465 . S
C210 U206 2.847 . S
C210 O224 1.249 . S
C210 O225 1.202 . S
C211 C209 1.363 . S
C211 C213 1.408 . S
C211 C216 1.342 . S
C212 C213 1.310 . S
C212 C215 1.461 . S
C212 H232 0.932 . S
C213 C211 1.408 . S
C213 C212 1.310 . S
C213 H233 0.930 . S
C214 C215 1.474 . S
C214 C216 1.285 . S
C214 H234 0.929 . S
C215 C212 1.461 . S
C215 C214 1.474 . S
C216 C211 1.342 . S
C216 C214 1.285 . S
C216 H235 0.930 . S
C217 C220 1.424 . S
C217 C222 1.245 . S
C217 C223 1.428 . S
C218 C221 1.260 . S
C218 C222 1.477 . S
C218 H236 0.932 . S
C219 C220 1.384 . S
C219 C221 1.479 . S
C219 H237 0.929 . S
C220 C217 1.424 . S
C220 C219 1.384 . S
C220 H238 0.928 . S
C221 C218 1.260 . S
C221 C219 1.479 . S
C222 C217 1.245 . S
C222 C218 1.477 . S
C222 H239 0.932 . S
C223 U206 2.882 1_556 S
C223 C217 1.428 . S
C223 O226 1.303 . S
C223 O227 1.282 1_556 S
O224 U206 2.441 . S
O224 C210 1.249 . S
O225 U206 2.420 . S
O225 C210 1.202 . S
O226 U206 2.450 1_556 S
O226 C223 1.303 . S
O227 U206 2.449 . S
O227 C223 1.282 1_554 S
H228 C201 0.931 . S
H229 C203 0.929 . S
H230 C204 0.930 . S
H231 C205 0.931 . S
H232 C212 0.932 . S
H233 C213 0.930 . S
H234 C214 0.929 . S
H235 C216 0.930 . S
H236 C218 0.932 . S
H237 C219 0.929 . S
H238 C220 0.928 . S
H239 C222 0.932 . S
C240 C241 1.264 . S
C240 C245 1.479 . S
C240 C250 1.465 . S
C241 C240 1.264 . S
C241 C243 1.339 . S
C241 H268 0.931 . S
C242 C243 1.395 . S
C242 C244 1.320 . S
C243 C241 1.339 . S
C243 C242 1.395 . S
C243 H269 0.929 . S
C244 C242 1.320 . S
C244 C245 1.405 . S
C244 H270 0.930 . S
C245 C240 1.479 . S
C245 C244 1.405 . S
C245 H271 0.931 . S
U246 O247 2.454 . S
U246 O248 2.458 . S
U246 C249 2.984 . S
U246 C250 2.847 . S
U246 C263 2.882 . S
U246 O264 2.441 . S
U246 O265 2.420 . S
U246 O266 2.455 . S
U246 O267 2.449 . S
O247 U246 2.454 . S
O247 C249 1.353 . S
O248 U246 2.458 . S
O248 C249 1.286 . S
C249 U246 2.984 . S
C249 O247 1.353 . S
C249 O248 1.286 . S
C249 C251 1.363 . S
C250 C240 1.465 . S
C250 U246 2.847 . S
C250 O264 1.249 . S
C250 O265 1.202 . S
C251 C249 1.363 . S
C251 C253 1.408 . S
C251 C256 1.342 . S
C252 C253 1.310 . S
C252 C255 1.461 . S
C252 H272 0.932 . S
C253 C251 1.408 . S
C253 C252 1.310 . S
C253 H273 0.930 . S
C254 C255 1.474 . S
C254 C256 1.285 . S
C254 H274 0.929 . S
C255 C252 1.461 . S
C255 C254 1.474 . S
C256 C251 1.342 . S
C256 C254 1.285 . S
C256 H275 0.930 . S
C257 C260 1.424 . S
C257 C262 1.245 . S
C257 C263 1.428 . S
C258 C261 1.260 . S
C258 C262 1.477 . S
C258 H276 0.932 . S
C259 C260 1.384 . S
C259 C261 1.479 . S
C259 H277 0.929 . S
C260 C257 1.424 . S
C260 C259 1.384 . S
C260 H278 0.928 . S
C261 C258 1.260 . S
C261 C259 1.479 . S
C262 C257 1.245 . S
C262 C258 1.477 . S
C262 H279 0.932 . S
C263 U246 2.882 . S
C263 C257 1.428 . S
C263 O266 1.301 . S
C263 O267 1.282 . S
O264 U246 2.441 . S
O264 C250 1.249 . S
O265 U246 2.420 . S
O265 C250 1.202 . S
O266 U246 2.455 . S
O266 C263 1.301 . S
O267 U246 2.449 . S
O267 C263 1.282 . S
H268 C241 0.931 . S
H269 C243 0.929 . S
H270 C244 0.930 . S
H271 C245 0.931 . S
H272 C252 0.932 . S
H273 C253 0.930 . S
H274 C254 0.929 . S
H275 C256 0.930 . S
H276 C258 0.932 . S
H277 C259 0.929 . S
H278 C260 0.928 . S
H279 C262 0.932 . S
C280 C281 1.264 . S
C280 C285 1.479 . S
C280 C290 1.465 . S
C281 C280 1.264 . S
C281 C283 1.339 . S
C281 H308 0.931 . S
C282 C283 1.395 . S
C282 C284 1.320 . S
C283 C281 1.339 . S
C283 C282 1.395 . S
C283 H309 0.929 . S
C284 C282 1.320 . S
C284 C285 1.405 . S
C284 H310 0.930 . S
C285 C280 1.479 . S
C285 C284 1.405 . S
C285 H311 0.931 . S
U286 O287 2.454 . S
U286 O288 2.458 . S
U286 C289 2.984 . S
U286 C290 2.847 . S
U286 C303 2.882 . S
U286 O304 2.441 . S
U286 O305 2.420 . S
U286 O306 2.455 . S
U286 O307 2.449 . S
O287 U286 2.454 . S
O287 C289 1.353 . S
O288 U286 2.458 . S
O288 C289 1.286 . S
C289 U286 2.984 . S
C289 O287 1.353 . S
C289 O288 1.286 . S
C289 C291 1.363 . S
C290 C280 1.465 . S
C290 U286 2.847 . S
C290 O304 1.249 . S
C290 O305 1.202 . S
C291 C289 1.363 . S
C291 C293 1.408 . S
C291 C296 1.342 . S
C292 C293 1.310 . S
C292 C295 1.461 . S
C292 H312 0.932 . S
C293 C291 1.408 . S
C293 C292 1.310 . S
C293 H313 0.930 . S
C294 C295 1.474 . S
C294 C296 1.285 . S
C294 H314 0.929 . S
C295 C292 1.461 . S
C295 C294 1.474 . S
C296 C291 1.342 . S
C296 C294 1.285 . S
C296 H315 0.930 . S
C297 C300 1.424 1_556 S
C297 C302 1.245 1_556 S
C297 C303 1.428 . S
C298 C301 1.260 . S
C298 C302 1.477 . S
C298 H316 0.932 . S
C299 C300 1.384 . S
C299 C301 1.479 . S
C299 H317 0.929 . S
C300 C297 1.424 1_554 S
C300 C299 1.384 . S
C300 H318 0.928 . S
C301 C298 1.260 . S
C301 C299 1.479 . S
C302 C297 1.245 1_554 S
C302 C298 1.477 . S
C302 H319 0.932 . S
C303 U286 2.882 . S
C303 C297 1.428 . S
C303 O306 1.301 . S
C303 O307 1.282 . S
O304 U286 2.441 . S
O304 C290 1.249 . S
O305 U286 2.420 . S
O305 C290 1.202 . S
O306 U286 2.455 . S
O306 C303 1.301 . S
O307 U286 2.449 . S
O307 C303 1.282 . S
H308 C281 0.931 . S
H309 C283 0.929 . S
H310 C284 0.930 . S
H311 C285 0.931 . S
H312 C292 0.932 . S
H313 C293 0.930 . S
H314 C294 0.929 . S
H315 C296 0.930 . S
H316 C298 0.932 . S
H317 C299 0.929 . S
H318 C300 0.928 . S
H319 C302 0.932 . S
C320 C321 1.264 . S
C320 C325 1.479 . S
C320 C330 1.465 . S
C321 C320 1.264 . S
C321 C323 1.339 . S
C321 H348 0.931 . S
C322 C323 1.395 . S
C322 C324 1.320 . S
C323 C321 1.339 . S
C323 C322 1.395 . S
C323 H349 0.929 . S
C324 C322 1.320 . S
C324 C325 1.405 . S
C324 H350 0.930 . S
C325 C320 1.479 . S
C325 C324 1.405 . S
C325 H351 0.931 . S
U326 O327 2.454 . S
U326 O328 2.458 . S
U326 C329 2.984 . S
U326 C330 2.847 . S
U326 C343 2.882 . S
U326 O344 2.441 . S
U326 O345 2.420 . S
U326 O346 2.455 . S
U326 O347 2.449 . S
O327 U326 2.454 . S
O327 C329 1.353 . S
O328 U326 2.458 . S
O328 C329 1.286 . S
C329 U326 2.984 . S
C329 O327 1.353 . S
C329 O328 1.286 . S
C329 C331 1.363 . S
C330 C320 1.465 . S
C330 U326 2.847 . S
C330 O344 1.249 . S
C330 O345 1.202 . S
C331 C329 1.363 . S
C331 C333 1.408 . S
C331 C336 1.342 . S
C332 C333 1.310 . S
C332 C335 1.461 . S
C332 H352 0.932 . S
C333 C331 1.408 . S
C333 C332 1.310 . S
C333 H353 0.930 . S
C334 C335 1.474 . S
C334 C336 1.285 . S
C334 H354 0.929 . S
C335 C332 1.461 . S
C335 C334 1.474 . S
C336 C331 1.342 . S
C336 C334 1.285 . S
C336 H355 0.930 . S
C337 C340 1.424 . S
C337 C342 1.245 . S
C337 C343 1.428 . S
C338 C341 1.260 . S
C338 C342 1.477 . S
C338 H356 0.932 . S
C339 C340 1.384 . S
C339 C341 1.479 . S
C339 H357 0.929 . S
C340 C337 1.424 . S
C340 C339 1.384 . S
C340 H358 0.928 . S
C341 C338 1.260 . S
C341 C339 1.479 . S
C342 C337 1.245 . S
C342 C338 1.477 . S
C342 H359 0.932 . S
C343 U326 2.882 . S
C343 C337 1.428 . S
C343 O346 1.301 . S
C343 O347 1.282 . S
O344 U326 2.441 . S
O344 C330 1.249 . S
O345 U326 2.420 . S
O345 C330 1.202 . S
O346 U326 2.455 . S
O346 C343 1.301 . S
O347 U326 2.449 . S
O347 C343 1.282 . S
H348 C321 0.931 . S
H349 C323 0.929 . S
H350 C324 0.930 . S
H351 C325 0.931 . S
H352 C332 0.932 . S
H353 C333 0.930 . S
H354 C334 0.929 . S
H355 C336 0.930 . S
H356 C338 0.932 . S
H357 C339 0.929 . S
H358 C340 0.928 . S
H359 C342 0.932 . S
C360 C361 1.264 . S
C360 C365 1.479 . S
C360 C370 1.465 . S
C361 C360 1.264 . S
C361 C363 1.339 . S
C361 H388 0.931 . S
C362 C363 1.395 . S
C362 C364 1.320 . S
C363 C361 1.339 . S
C363 C362 1.395 . S
C363 H389 0.929 . S
C364 C362 1.320 . S
C364 C365 1.405 . S
C364 H390 0.930 . S
C365 C360 1.479 . S
C365 C364 1.405 . S
C365 H391 0.931 . S
U366 O367 2.454 . S
U366 O368 2.458 . S
U366 C369 2.984 . S
U366 C370 2.847 . S
U366 C383 2.882 1_455 S
U366 O384 2.441 . S
U366 O385 2.420 . S
U366 O386 2.450 1_455 S
U366 O387 2.449 . S
O367 U366 2.454 . S
O367 C369 1.353 . S
O368 U366 2.458 . S
O368 C369 1.286 . S
C369 U366 2.984 . S
C369 O367 1.353 . S
C369 O368 1.286 . S
C369 C371 1.363 . S
C370 C360 1.465 . S
C370 U366 2.847 . S
C370 O384 1.249 . S
C370 O385 1.202 . S
C371 C369 1.363 . S
C371 C373 1.408 . S
C371 C376 1.342 . S
C372 C373 1.310 . S
C372 C375 1.461 . S
C372 H392 0.932 . S
C373 C371 1.408 . S
C373 C372 1.310 . S
C373 H393 0.930 . S
C374 C375 1.474 . S
C374 C376 1.285 . S
C374 H394 0.929 . S
C375 C372 1.461 . S
C375 C374 1.474 . S
C376 C371 1.342 . S
C376 C374 1.285 . S
C376 H395 0.930 . S
C377 C380 1.424 . S
C377 C382 1.245 . S
C377 C383 1.428 . S
C378 C381 1.260 . S
C378 C382 1.477 . S
C378 H396 0.932 . S
C379 C380 1.384 . S
C379 C381 1.479 . S
C379 H397 0.929 . S
C380 C377 1.424 . S
C380 C379 1.384 . S
C380 H398 0.928 . S
C381 C378 1.260 . S
C381 C379 1.479 . S
C382 C377 1.245 . S
C382 C378 1.477 . S
C382 H399 0.932 . S
C383 U366 2.882 1_655 S
C383 C377 1.428 . S
C383 O386 1.303 . S
C383 O387 1.282 1_655 S
O384 U366 2.441 . S
O384 C370 1.249 . S
O385 U366 2.420 . S
O385 C370 1.202 . S
O386 U366 2.450 1_655 S
O386 C383 1.303 . S
O387 U366 2.449 . S
O387 C383 1.282 1_455 S
H388 C361 0.931 . S
H389 C363 0.929 . S
H390 C364 0.930 . S
H391 C365 0.931 . S
H392 C372 0.932 . S
H393 C373 0.930 . S
H394 C374 0.929 . S
H395 C376 0.930 . S
H396 C378 0.932 . S
H397 C379 0.929 . S
H398 C380 0.928 . S
H399 C382 0.932 . S
C400 C401 1.264 . S
C400 C405 1.479 . S
C400 C410 1.465 . S
C401 C400 1.264 . S
C401 C403 1.339 . S
C401 H428 0.931 . S
C402 C403 1.395 . S
C402 C404 1.320 . S
C403 C401 1.339 . S
C403 C402 1.395 . S
C403 H429 0.929 . S
C404 C402 1.320 . S
C404 C405 1.405 . S
C404 H430 0.930 . S
C405 C400 1.479 . S
C405 C404 1.405 . S
C405 H431 0.931 . S
U406 O407 2.454 . S
U406 O408 2.458 . S
U406 C409 2.984 . S
U406 C410 2.847 . S
U406 C423 2.882 . S
U406 O424 2.441 . S
U406 O425 2.420 . S
U406 O426 2.455 . S
U406 O427 2.449 . S
O407 U406 2.454 . S
O407 C409 1.353 . S
O408 U406 2.458 . S
O408 C409 1.286 . S
C409 U406 2.984 . S
C409 O407 1.353 . S
C409 O408 1.286 . S
C409 C411 1.363 . S
C410 C400 1.465 . S
C410 U406 2.847 . S
C410 O424 1.249 . S
C410 O425 1.202 . S
C411 C409 1.363 . S
C411 C413 1.408 . S
C411 C416 1.342 . S
C412 C413 1.310 . S
C412 C415 1.461 . S
C412 H432 0.932 . S
C413 C411 1.408 . S
C413 C412 1.310 . S
C413 H433 0.930 . S
C414 C415 1.474 . S
C414 C416 1.285 . S
C414 H434 0.929 . S
C415 C412 1.461 . S
C415 C414 1.474 . S
C416 C411 1.342 . S
C416 C414 1.285 . S
C416 H435 0.930 . S
C417 C420 1.424 . S
C417 C422 1.245 . S
C417 C423 1.428 . S
C418 C421 1.260 . S
C418 C422 1.477 . S
C418 H436 0.932 . S
C419 C420 1.384 . S
C419 C421 1.479 . S
C419 H437 0.929 . S
C420 C417 1.424 . S
C420 C419 1.384 . S
C420 H438 0.928 . S
C421 C418 1.260 . S
C421 C419 1.479 . S
C422 C417 1.245 . S
C422 C418 1.477 . S
C422 H439 0.932 . S
C423 U406 2.882 . S
C423 C417 1.428 . S
C423 O426 1.301 . S
C423 O427 1.282 . S
O424 U406 2.441 . S
O424 C410 1.249 . S
O425 U406 2.420 . S
O425 C410 1.202 . S
O426 U406 2.455 . S
O426 C423 1.301 . S
O427 U406 2.449 . S
O427 C423 1.282 . S
H428 C401 0.931 . S
H429 C403 0.929 . S
H430 C404 0.930 . S
H431 C405 0.931 . S
H432 C412 0.932 . S
H433 C413 0.930 . S
H434 C414 0.929 . S
H435 C416 0.930 . S
H436 C418 0.932 . S
H437 C419 0.929 . S
H438 C420 0.928 . S
H439 C422 0.932 . S
C440 C441 1.264 . S
C440 C445 1.479 . S
C440 C450 1.465 . S
C441 C440 1.264 . S
C441 C443 1.339 . S
C441 H468 0.931 . S
C442 C443 1.395 . S
C442 C444 1.320 . S
C443 C441 1.339 . S
C443 C442 1.395 . S
C443 H469 0.929 . S
C444 C442 1.320 . S
C444 C445 1.405 . S
C444 H470 0.930 . S
C445 C440 1.479 . S
C445 C444 1.405 . S
C445 H471 0.931 . S
U446 O447 2.454 . S
U446 O448 2.458 . S
U446 C449 2.984 . S
U446 C450 2.847 . S
U446 C463 2.882 . S
U446 O464 2.441 . S
U446 O465 2.420 . S
U446 O466 2.455 . S
U446 O467 2.449 . S
O447 U446 2.454 . S
O447 C449 1.353 . S
O448 U446 2.458 . S
O448 C449 1.286 . S
C449 U446 2.984 . S
C449 O447 1.353 . S
C449 O448 1.286 . S
C449 C451 1.363 . S
C450 C440 1.465 . S
C450 U446 2.847 . S
C450 O464 1.249 . S
C450 O465 1.202 . S
C451 C449 1.363 . S
C451 C453 1.408 . S
C451 C456 1.342 . S
C452 C453 1.310 . S
C452 C455 1.461 . S
C452 H472 0.932 . S
C453 C451 1.408 . S
C453 C452 1.310 . S
C453 H473 0.930 . S
C454 C455 1.474 . S
C454 C456 1.285 . S
C454 H474 0.929 . S
C455 C452 1.461 . S
C455 C454 1.474 . S
C456 C451 1.342 . S
C456 C454 1.285 . S
C456 H475 0.930 . S
C457 C460 1.424 1_655 S
C457 C462 1.245 1_655 S
C457 C463 1.428 . S
C458 C461 1.260 . S
C458 C462 1.477 . S
C458 H476 0.932 . S
C459 C460 1.384 . S
C459 C461 1.479 . S
C459 H477 0.929 . S
C460 C457 1.424 1_455 S
C460 C459 1.384 . S
C460 H478 0.928 . S
C461 C458 1.260 . S
C461 C459 1.479 . S
C462 C457 1.245 1_455 S
C462 C458 1.477 . S
C462 H479 0.932 . S
C463 U446 2.882 . S
C463 C457 1.428 . S
C463 O466 1.301 . S
C463 O467 1.282 . S
O464 U446 2.441 . S
O464 C450 1.249 . S
O465 U446 2.420 . S
O465 C450 1.202 . S
O466 U446 2.455 . S
O466 C463 1.301 . S
O467 U446 2.449 . S
O467 C463 1.282 . S
H468 C441 0.931 . S
H469 C443 0.929 . S
H470 C444 0.930 . S
H471 C445 0.931 . S
H472 C452 0.932 . S
H473 C453 0.930 . S
H474 C454 0.929 . S
H475 C456 0.930 . S
H476 C458 0.932 . S
H477 C459 0.929 . S
H478 C460 0.928 . S
H479 C462 0.932 . S
C480 C481 1.264 . S
C480 C485 1.479 . S
C480 C490 1.465 . S
C481 C480 1.264 . S
C481 C483 1.339 . S
C481 H508 0.931 . S
C482 C483 1.395 . S
C482 C484 1.320 . S
C483 C481 1.339 . S
C483 C482 1.395 . S
C483 H509 0.929 . S
C484 C482 1.320 . S
C484 C485 1.405 . S
C484 H510 0.930 . S
C485 C480 1.479 . S
C485 C484 1.405 . S
C485 H511 0.931 . S
U486 O487 2.454 . S
U486 O488 2.458 . S
U486 C489 2.984 . S
U486 C490 2.847 . S
U486 C503 2.882 . S
U486 O504 2.441 . S
U486 O505 2.420 . S
U486 O506 2.455 . S
U486 O507 2.449 . S
O487 U486 2.454 . S
O487 C489 1.353 . S
O488 U486 2.458 . S
O488 C489 1.286 . S
C489 U486 2.984 . S
C489 O487 1.353 . S
C489 O488 1.286 . S
C489 C491 1.363 . S
C490 C480 1.465 . S
C490 U486 2.847 . S
C490 O504 1.249 . S
C490 O505 1.202 . S
C491 C489 1.363 . S
C491 C493 1.408 . S
C491 C496 1.342 . S
C492 C493 1.310 . S
C492 C495 1.461 . S
C492 H512 0.932 . S
C493 C491 1.408 . S
C493 C492 1.310 . S
C493 H513 0.930 . S
C494 C495 1.474 . S
C494 C496 1.285 . S
C494 H514 0.929 . S
C495 C492 1.461 . S
C495 C494 1.474 . S
C496 C491 1.342 . S
C496 C494 1.285 . S
C496 H515 0.930 . S
C497 C500 1.424 . S
C497 C502 1.245 . S
C497 C503 1.428 . S
C498 C501 1.260 . S
C498 C502 1.477 . S
C498 H516 0.932 . S
C499 C500 1.384 . S
C499 C501 1.479 . S
C499 H517 0.929 . S
C500 C497 1.424 . S
C500 C499 1.384 . S
C500 H518 0.928 . S
C501 C498 1.260 . S
C501 C499 1.479 . S
C502 C497 1.245 . S
C502 C498 1.477 . S
C502 H519 0.932 . S
C503 U486 2.882 . S
C503 C497 1.428 . S
C503 O506 1.301 . S
C503 O507 1.282 . S
O504 U486 2.441 . S
O504 C490 1.249 . S
O505 U486 2.420 . S
O505 C490 1.202 . S
O506 U486 2.455 . S
O506 C503 1.301 . S
O507 U486 2.449 . S
O507 C503 1.282 . S
H508 C481 0.931 . S
H509 C483 0.929 . S
H510 C484 0.930 . S
H511 C485 0.931 . S
H512 C492 0.932 . S
H513 C493 0.930 . S
H514 C494 0.929 . S
H515 C496 0.930 . S
H516 C498 0.932 . S
H517 C499 0.929 . S
H518 C500 0.928 . S
H519 C502 0.932 . S
C520 C521 1.264 . S
C520 C525 1.479 . S
C520 C530 1.465 . S
C521 C520 1.264 . S
C521 C523 1.339 . S
C521 H548 0.931 . S
C522 C523 1.395 . S
C522 C524 1.320 . S
C523 C521 1.339 . S
C523 C522 1.395 . S
C523 H549 0.929 . S
C524 C522 1.320 . S
C524 C525 1.405 . S
C524 H550 0.930 . S
C525 C520 1.479 . S
C525 C524 1.405 . S
C525 H551 0.931 . S
U526 O527 2.454 . S
U526 O528 2.458 . S
U526 C529 2.984 . S
U526 C530 2.847 . S
U526 C543 2.882 . S
U526 O544 2.441 . S
U526 O545 2.420 . S
U526 O546 2.455 . S
U526 O547 2.449 . S
O527 U526 2.454 . S
O527 C529 1.353 . S
O528 U526 2.458 . S
O528 C529 1.286 . S
C529 U526 2.984 . S
C529 O527 1.353 . S
C529 O528 1.286 . S
C529 C531 1.363 . S
C530 C520 1.465 . S
C530 U526 2.847 . S
C530 O544 1.249 . S
C530 O545 1.202 . S
C531 C529 1.363 . S
C531 C533 1.408 . S
C531 C536 1.342 . S
C532 C533 1.310 . S
C532 C535 1.461 . S
C532 H552 0.932 . S
C533 C531 1.408 . S
C533 C532 1.310 . S
C533 H553 0.930 . S
C534 C535 1.474 . S
C534 C536 1.285 . S
C534 H554 0.929 . S
C535 C532 1.461 . S
C535 C534 1.474 . S
C536 C531 1.342 . S
C536 C534 1.285 . S
C536 H555 0.930 . S
C537 C540 1.424 . S
C537 C542 1.245 . S
C537 C543 1.428 . S
C538 C541 1.260 . S
C538 C542 1.477 . S
C538 H556 0.932 . S
C539 C540 1.384 . S
C539 C541 1.479 . S
C539 H557 0.929 . S
C540 C537 1.424 . S
C540 C539 1.384 . S
C540 H558 0.928 . S
C541 C538 1.260 . S
C541 C539 1.479 . S
C542 C537 1.245 . S
C542 C538 1.477 . S
C542 H559 0.932 . S
C543 U526 2.882 . S
C543 C537 1.428 . S
C543 O546 1.301 . S
C543 O547 1.282 . S
O544 U526 2.441 . S
O544 C530 1.249 . S
O545 U526 2.420 . S
O545 C530 1.202 . S
O546 U526 2.455 . S
O546 C543 1.301 . S
O547 U526 2.449 . S
O547 C543 1.282 . S
H548 C521 0.931 . S
H549 C523 0.929 . S
H550 C524 0.930 . S
H551 C525 0.931 . S
H552 C532 0.932 . S
H553 C533 0.930 . S
H554 C534 0.929 . S
H555 C536 0.930 . S
H556 C538 0.932 . S
H557 C539 0.929 . S
H558 C540 0.928 . S
H559 C542 0.932 . S
C560 C561 1.264 . S
C560 C565 1.479 1_565 S
C560 C570 1.465 . S
C561 C560 1.264 . S
C561 C563 1.339 . S
C561 H588 0.931 . S
C562 C563 1.395 1_545 S
C562 C564 1.320 . S
C563 C561 1.339 . S
C563 C562 1.395 1_565 S
C563 H589 0.929 . S
C564 C562 1.320 . S
C564 C565 1.405 . S
C564 H590 0.930 . S
C565 C560 1.479 1_545 S
C565 C564 1.405 . S
C565 H591 0.931 . S
U566 O567 2.454 . S
U566 O568 2.458 . S
U566 C569 2.984 . S
U566 C570 2.847 . S
U566 C583 2.882 . S
U566 O584 2.441 . S
U566 O585 2.420 . S
U566 O586 2.455 . S
U566 O587 2.449 . S
O567 U566 2.454 . S
O567 C569 1.353 . S
O568 U566 2.458 . S
O568 C569 1.286 . S
C569 U566 2.984 . S
C569 O567 1.353 . S
C569 O568 1.286 . S
C569 C571 1.359 1_565 S
C570 C560 1.465 . S
C570 U566 2.847 . S
C570 O584 1.249 . S
C570 O585 1.202 . S
C571 C569 1.359 1_545 S
C571 C573 1.423 . S
C571 C576 1.337 . S
C572 C573 1.310 . S
C572 C575 1.461 . S
C572 H592 0.932 . S
C573 C571 1.423 . S
C573 C572 1.310 . S
C573 H593 0.930 . S
C574 C575 1.474 . S
C574 C576 1.285 . S
C574 H594 0.929 . S
C575 C572 1.461 . S
C575 C574 1.474 . S
C576 C571 1.337 . S
C576 C574 1.285 . S
C576 H595 0.931 . S
C577 C580 1.424 . S
C577 C582 1.245 . S
C577 C583 1.428 . S
C578 C581 1.260 . S
C578 C582 1.477 . S
C578 H596 0.932 . S
C579 C580 1.384 . S
C579 C581 1.479 . S
C579 H597 0.929 . S
C580 C577 1.424 . S
C580 C579 1.384 . S
C580 H598 0.928 . S
C581 C578 1.260 . S
C581 C579 1.479 . S
C582 C577 1.245 . S
C582 C578 1.477 . S
C582 H599 0.932 . S
C583 U566 2.882 . S
C583 C577 1.428 . S
C583 O586 1.301 . S
C583 O587 1.282 . S
O584 U566 2.441 . S
O584 C570 1.249 . S
O585 U566 2.420 . S
O585 C570 1.202 . S
O586 U566 2.455 . S
O586 C583 1.301 . S
O587 U566 2.449 . S
O587 C583 1.282 . S
H588 C561 0.931 . S
H589 C563 0.929 . S
H590 C564 0.930 . S
H591 C565 0.931 . S
H592 C572 0.932 . S
H593 C573 0.930 . S
H594 C574 0.929 . S
H595 C576 0.931 . S
H596 C578 0.932 . S
H597 C579 0.929 . S
H598 C580 0.928 . S
H599 C582 0.932 . S
C600 C601 1.264 . S
C600 C605 1.479 . S
C600 C610 1.453 1_565 S
C601 C600 1.264 . S
C601 C603 1.339 . S
C601 H628 0.931 1_565 S
C602 C603 1.395 . S
C602 C604 1.320 . S
C603 C601 1.339 . S
C603 C602 1.395 . S
C603 H629 0.929 . S
C604 C602 1.320 . S
C604 C605 1.405 . S
C604 H630 0.930 . S
C605 C600 1.479 . S
C605 C604 1.405 . S
C605 H631 0.931 . S
U606 O607 2.454 1_545 S
U606 O608 2.458 . S
U606 C609 2.984 1_545 S
U606 C610 2.855 . S
U606 C623 2.882 . S
U606 O624 2.441 1_545 S
U606 O625 2.420 . S
U606 O626 2.455 . S
U606 O627 2.449 . S
O607 U606 2.454 1_565 S
O607 C609 1.353 . S
O608 U606 2.458 . S
O608 C609 1.286 1_545 S
C609 U606 2.984 1_565 S
C609 O607 1.353 . S
C609 O608 1.286 1_565 S
C609 C611 1.363 . S
C610 C600 1.453 1_545 S
C610 U606 2.855 . S
C610 O624 1.243 1_545 S
C610 O625 1.221 . S
C611 C609 1.363 . S
C611 C613 1.408 . S
C611 C616 1.342 . S
C612 C613 1.310 . S
C612 C615 1.461 . S
C612 H632 0.932 . S
C613 C611 1.408 . S
C613 C612 1.310 . S
C613 H633 0.930 . S
C614 C615 1.474 . S
C614 C616 1.285 . S
C614 H634 0.929 . S
C615 C612 1.461 . S
C615 C614 1.474 . S
C616 C611 1.342 . S
C616 C614 1.285 . S
C616 H635 0.930 . S
C617 C620 1.424 . S
C617 C622 1.245 . S
C617 C623 1.428 . S
C618 C621 1.260 . S
C618 C622 1.477 . S
C618 H636 0.932 . S
C619 C620 1.384 . S
C619 C621 1.479 . S
C619 H637 0.929 . S
C620 C617 1.424 . S
C620 C619 1.384 . S
C620 H638 0.928 . S
C621 C618 1.260 . S
C621 C619 1.479 . S
C622 C617 1.245 . S
C622 C618 1.477 . S
C622 H639 0.932 . S
C623 U606 2.882 . S
C623 C617 1.428 . S
C623 O626 1.301 . S
C623 O627 1.282 . S
O624 U606 2.441 1_565 S
O624 C610 1.243 1_565 S
O625 U606 2.420 . S
O625 C610 1.221 . S
O626 U606 2.455 . S
O626 C623 1.301 . S
O627 U606 2.449 . S
O627 C623 1.282 . S
H628 C601 0.931 1_545 S
H629 C603 0.929 . S
H630 C604 0.930 . S
H631 C605 0.931 . S
H632 C612 0.932 . S
H633 C613 0.930 . S
H634 C614 0.929 . S
H635 C616 0.930 . S
H636 C618 0.932 . S
H637 C619 0.929 . S
H638 C620 0.928 . S
H639 C622 0.932 . S
C640 C641 1.264 . S
C640 C645 1.479 . S
C640 C650 1.465 . S
C641 C640 1.264 . S
C641 C643 1.339 . S
C641 H668 0.931 . S
C642 C643 1.395 . S
C642 C644 1.320 . S
C643 C641 1.339 . S
C643 C642 1.395 . S
C643 H669 0.929 . S
C644 C642 1.320 . S
C644 C645 1.405 . S
C644 H670 0.930 . S
C645 C640 1.479 . S
C645 C644 1.405 . S
C645 H671 0.931 . S
U646 O647 2.454 . S
U646 O648 2.458 . S
U646 C649 2.984 . S
U646 C650 2.847 . S
U646 C663 2.882 . S
U646 O664 2.441 . S
U646 O665 2.420 . S
U646 O666 2.455 . S
U646 O667 2.449 . S
O647 U646 2.454 . S
O647 C649 1.353 . S
O648 U646 2.458 . S
O648 C649 1.286 . S
C649 U646 2.984 . S
C649 O647 1.353 . S
C649 O648 1.286 . S
C649 C651 1.363 . S
C650 C640 1.465 . S
C650 U646 2.847 . S
C650 O664 1.249 . S
C650 O665 1.202 . S
C651 C649 1.363 . S
C651 C653 1.408 . S
C651 C656 1.342 . S
C652 C653 1.310 . S
C652 C655 1.461 . S
C652 H672 0.932 . S
C653 C651 1.408 . S
C653 C652 1.310 . S
C653 H673 0.930 . S
C654 C655 1.474 . S
C654 C656 1.285 . S
C654 H674 0.929 . S
C655 C652 1.461 . S
C655 C654 1.474 . S
C656 C651 1.342 . S
C656 C654 1.285 . S
C656 H675 0.930 . S
C657 C660 1.424 . S
C657 C662 1.245 . S
C657 C663 1.428 . S
C658 C661 1.260 . S
C658 C662 1.477 . S
C658 H676 0.932 . S
C659 C660 1.384 . S
C659 C661 1.479 . S
C659 H677 0.929 . S
C660 C657 1.424 . S
C660 C659 1.384 . S
C660 H678 0.928 . S
C661 C658 1.260 . S
C661 C659 1.479 . S
C662 C657 1.245 . S
C662 C658 1.477 . S
C662 H679 0.932 . S
C663 U646 2.882 . S
C663 C657 1.428 . S
C663 O666 1.301 . S
C663 O667 1.282 . S
O664 U646 2.441 . S
O664 C650 1.249 . S
O665 U646 2.420 . S
O665 C650 1.202 . S
O666 U646 2.455 . S
O666 C663 1.301 . S
O667 U646 2.449 . S
O667 C663 1.282 . S
H668 C641 0.931 . S
H669 C643 0.929 . S
H670 C644 0.930 . S
H671 C645 0.931 . S
H672 C652 0.932 . S
H673 C653 0.930 . S
H674 C654 0.929 . S
H675 C656 0.930 . S
H676 C658 0.932 . S
H677 C659 0.929 . S
H678 C660 0.928 . S
H679 C662 0.932 . S
C680 C681 1.264 . S
C680 C685 1.479 . S
C680 C690 1.453 1_556 S
C681 C680 1.264 . S
C681 C683 1.339 . S
C681 H708 0.931 1_556 S
C682 C683 1.395 . S
C682 C684 1.320 . S
C683 C681 1.339 . S
C683 C682 1.395 . S
C683 H709 0.929 . S
C684 C682 1.320 . S
C684 C685 1.405 . S
C684 H710 0.930 . S
C685 C680 1.479 . S
C685 C684 1.405 . S
C685 H711 0.931 . S
U686 O687 2.454 1_554 S
U686 O688 2.458 . S
U686 C689 2.984 1_554 S
U686 C690 2.855 . S
U686 C703 2.882 . S
U686 O704 2.441 1_554 S
U686 O705 2.420 . S
U686 O706 2.455 . S
U686 O707 2.449 . S
O687 U686 2.454 1_556 S
O687 C689 1.353 . S
O688 U686 2.458 . S
O688 C689 1.286 1_554 S
C689 U686 2.984 1_556 S
C689 O687 1.353 . S
C689 O688 1.286 1_556 S
C689 C691 1.363 . S
C690 C680 1.453 1_554 S
C690 U686 2.855 . S
C690 O704 1.243 1_554 S
C690 O705 1.221 . S
C691 C689 1.363 . S
C691 C693 1.408 . S
C691 C696 1.342 . S
C692 C693 1.310 . S
C692 C695 1.461 . S
C692 H712 0.932 . S
C693 C691 1.408 . S
C693 C692 1.310 . S
C693 H713 0.930 . S
C694 C695 1.474 . S
C694 C696 1.285 . S
C694 H714 0.929 . S
C695 C692 1.461 . S
C695 C694 1.474 . S
C696 C691 1.342 . S
C696 C694 1.285 . S
C696 H715 0.930 . S
C697 C700 1.424 . S
C697 C702 1.245 . S
C697 C703 1.428 . S
C698 C701 1.260 . S
C698 C702 1.477 . S
C698 H716 0.932 . S
C699 C700 1.384 . S
C699 C701 1.479 . S
C699 H717 0.929 . S
C700 C697 1.424 . S
C700 C699 1.384 . S
C700 H718 0.928 . S
C701 C698 1.260 . S
C701 C699 1.479 . S
C702 C697 1.245 . S
C702 C698 1.477 . S
C702 H719 0.932 . S
C703 U686 2.882 . S
C703 C697 1.428 . S
C703 O706 1.301 . S
C703 O707 1.282 . S
O704 U686 2.441 1_556 S
O704 C690 1.243 1_556 S
O705 U686 2.420 . S
O705 C690 1.221 . S
O706 U686 2.455 . S
O706 C703 1.301 . S
O707 U686 2.449 . S
O707 C703 1.282 . S
H708 C681 0.931 1_554 S
H709 C683 0.929 . S
H710 C684 0.930 . S
H711 C685 0.931 . S
H712 C692 0.932 . S
H713 C693 0.930 . S
H714 C694 0.929 . S
H715 C696 0.930 . S
H716 C698 0.932 . S
H717 C699 0.929 . S
H718 C700 0.928 . S
H719 C702 0.932 . S
C720 C721 1.264 . S
C720 C725 1.479 . S
C720 C730 1.465 . S
C721 C720 1.264 . S
C721 C723 1.339 . S
C721 H748 0.931 . S
C722 C723 1.395 . S
C722 C724 1.320 . S
C723 C721 1.339 . S
C723 C722 1.395 . S
C723 H749 0.929 . S
C724 C722 1.320 . S
C724 C725 1.405 . S
C724 H750 0.930 . S
C725 C720 1.479 . S
C725 C724 1.405 . S
C725 H751 0.931 . S
U726 O727 2.454 . S
U726 O728 2.458 . S
U726 C729 2.984 . S
U726 C730 2.847 . S
U726 C743 2.882 . S
U726 O744 2.441 . S
U726 O745 2.420 . S
U726 O746 2.455 . S
U726 O747 2.449 . S
O727 U726 2.454 . S
O727 C729 1.353 . S
O728 U726 2.458 . S
O728 C729 1.286 . S
C729 U726 2.984 . S
C729 O727 1.353 . S
C729 O728 1.286 . S
C729 C731 1.363 . S
C730 C720 1.465 . S
C730 U726 2.847 . S
C730 O744 1.249 . S
C730 O745 1.202 . S
C731 C729 1.363 . S
C731 C733 1.408 . S
C731 C736 1.342 . S
C732 C733 1.310 . S
C732 C735 1.461 . S
C732 H752 0.932 . S
C733 C731 1.408 . S
C733 C732 1.310 . S
C733 H753 0.930 . S
C734 C735 1.474 . S
C734 C736 1.285 . S
C734 H754 0.929 . S
C735 C732 1.461 . S
C735 C734 1.474 . S
C736 C731 1.342 . S
C736 C734 1.285 . S
C736 H755 0.930 . S
C737 C740 1.424 . S
C737 C742 1.245 . S
C737 C743 1.428 . S
C738 C741 1.260 . S
C738 C742 1.477 . S
C738 H756 0.932 . S
C739 C740 1.384 . S
C739 C741 1.479 . S
C739 H757 0.929 . S
C740 C737 1.424 . S
C740 C739 1.384 . S
C740 H758 0.928 . S
C741 C738 1.260 . S
C741 C739 1.479 . S
C742 C737 1.245 . S
C742 C738 1.477 . S
C742 H759 0.932 . S
C743 U726 2.882 . S
C743 C737 1.428 . S
C743 O746 1.301 . S
C743 O747 1.282 . S
O744 U726 2.441 . S
O744 C730 1.249 . S
O745 U726 2.420 . S
O745 C730 1.202 . S
O746 U726 2.455 . S
O746 C743 1.301 . S
O747 U726 2.449 . S
O747 C743 1.282 . S
H748 C721 0.931 . S
H749 C723 0.929 . S
H750 C724 0.930 . S
H751 C725 0.931 . S
H752 C732 0.932 . S
H753 C733 0.930 . S
H754 C734 0.929 . S
H755 C736 0.930 . S
H756 C738 0.932 . S
H757 C739 0.929 . S
H758 C740 0.928 . S
H759 C742 0.932 . S
C760 C761 1.264 . S
C760 C765 1.479 1_556 S
C760 C770 1.465 . S
C761 C760 1.264 . S
C761 C763 1.339 . S
C761 H788 0.931 . S
C762 C763 1.395 1_554 S
C762 C764 1.320 . S
C763 C761 1.339 . S
C763 C762 1.395 1_556 S
C763 H789 0.929 . S
C764 C762 1.320 . S
C764 C765 1.405 . S
C764 H790 0.930 . S
C765 C760 1.479 1_554 S
C765 C764 1.405 . S
C765 H791 0.931 . S
U766 O767 2.454 . S
U766 O768 2.458 . S
U766 C769 2.984 . S
U766 C770 2.847 . S
U766 C783 2.882 . S
U766 O784 2.441 . S
U766 O785 2.420 . S
U766 O786 2.455 . S
U766 O787 2.449 . S
O767 U766 2.454 . S
O767 C769 1.353 . S
O768 U766 2.458 . S
O768 C769 1.286 . S
C769 U766 2.984 . S
C769 O767 1.353 . S
C769 O768 1.286 . S
C769 C771 1.359 1_556 S
C770 C760 1.465 . S
C770 U766 2.847 . S
C770 O784 1.249 . S
C770 O785 1.202 . S
C771 C769 1.359 1_554 S
C771 C773 1.423 . S
C771 C776 1.337 . S
C772 C773 1.310 . S
C772 C775 1.461 . S
C772 H792 0.932 . S
C773 C771 1.423 . S
C773 C772 1.310 . S
C773 H793 0.930 . S
C774 C775 1.474 . S
C774 C776 1.285 . S
C774 H794 0.929 . S
C775 C772 1.461 . S
C775 C774 1.474 . S
C776 C771 1.337 . S
C776 C774 1.285 . S
C776 H795 0.931 . S
C777 C780 1.424 . S
C777 C782 1.245 . S
C777 C783 1.428 . S
C778 C781 1.260 . S
C778 C782 1.477 . S
C778 H796 0.932 . S
C779 C780 1.384 . S
C779 C781 1.479 . S
C779 H797 0.929 . S
C780 C777 1.424 . S
C780 C779 1.384 . S
C780 H798 0.928 . S
C781 C778 1.260 . S
C781 C779 1.479 . S
C782 C777 1.245 . S
C782 C778 1.477 . S
C782 H799 0.932 . S
C783 U766 2.882 . S
C783 C777 1.428 . S
C783 O786 1.301 . S
C783 O787 1.282 . S
O784 U766 2.441 . S
O784 C770 1.249 . S
O785 U766 2.420 . S
O785 C770 1.202 . S
O786 U766 2.455 . S
O786 C783 1.301 . S
O787 U766 2.449 . S
O787 C783 1.282 . S
H788 C761 0.931 . S
H789 C763 0.929 . S
H790 C764 0.930 . S
H791 C765 0.931 . S
H792 C772 0.932 . S
H793 C773 0.930 . S
H794 C774 0.929 . S
H795 C776 0.931 . S
H796 C778 0.932 . S
H797 C779 0.929 . S
H798 C780 0.928 . S
H799 C782 0.932 . S
C800 C801 1.264 . S
C800 C805 1.479 . S
C800 C810 1.465 . S
C801 C800 1.264 . S
C801 C803 1.339 . S
C801 H828 0.931 . S
C802 C803 1.395 . S
C802 C804 1.320 . S
C803 C801 1.339 . S
C803 C802 1.395 . S
C803 H829 0.929 . S
C804 C802 1.320 . S
C804 C805 1.405 . S
C804 H830 0.930 . S
C805 C800 1.479 . S
C805 C804 1.405 . S
C805 H831 0.931 . S
U806 O807 2.454 . S
U806 O808 2.458 . S
U806 C809 2.984 . S
U806 C810 2.847 . S
U806 C823 2.882 . S
U806 O824 2.441 . S
U806 O825 2.420 . S
U806 O826 2.455 . S
U806 O827 2.449 . S
O807 U806 2.454 . S
O807 C809 1.353 . S
O808 U806 2.458 . S
O808 C809 1.286 . S
C809 U806 2.984 . S
C809 O807 1.353 . S
C809 O808 1.286 . S
C809 C811 1.363 . S
C810 C800 1.465 . S
C810 U806 2.847 . S
C810 O824 1.249 . S
C810 O825 1.202 . S
C811 C809 1.363 . S
C811 C813 1.408 . S
C811 C816 1.342 . S
C812 C813 1.310 . S
C812 C815 1.461 . S
C812 H832 0.932 . S
C813 C811 1.408 . S
C813 C812 1.310 . S
C813 H833 0.930 . S
C814 C815 1.474 . S
C814 C816 1.285 . S
C814 H834 0.929 . S
C815 C812 1.461 . S
C815 C814 1.474 . S
C816 C811 1.342 . S
C816 C814 1.285 . S
C816 H835 0.930 . S
C817 C820 1.424 . S
C817 C822 1.245 . S
C817 C823 1.428 . S
C818 C821 1.260 . S
C818 C822 1.477 . S
C818 H836 0.932 . S
C819 C820 1.384 . S
C819 C821 1.479 . S
C819 H837 0.929 . S
C820 C817 1.424 . S
C820 C819 1.384 . S
C820 H838 0.928 . S
C821 C818 1.260 . S
C821 C819 1.479 . S
C822 C817 1.245 . S
C822 C818 1.477 . S
C822 H839 0.932 . S
C823 U806 2.882 . S
C823 C817 1.428 . S
C823 O826 1.301 . S
C823 O827 1.282 . S
O824 U806 2.441 . S
O824 C810 1.249 . S
O825 U806 2.420 . S
O825 C810 1.202 . S
O826 U806 2.455 . S
O826 C823 1.301 . S
O827 U806 2.449 . S
O827 C823 1.282 . S
H828 C801 0.931 . S
H829 C803 0.929 . S
H830 C804 0.930 . S
H831 C805 0.931 . S
H832 C812 0.932 . S
H833 C813 0.930 . S
H834 C814 0.929 . S
H835 C816 0.930 . S
H836 C818 0.932 . S
H837 C819 0.929 . S
H838 C820 0.928 . S
H839 C822 0.932 . S
C840 C841 1.264 . S
C840 C845 1.479 . S
C840 C850 1.453 1_655 S
C841 C840 1.264 . S
C841 C843 1.339 . S
C841 H868 0.931 1_655 S
C842 C843 1.395 . S
C842 C844 1.320 . S
C843 C841 1.339 . S
C843 C842 1.395 . S
C843 H869 0.929 . S
C844 C842 1.320 . S
C844 C845 1.405 . S
C844 H870 0.930 . S
C845 C840 1.479 . S
C845 C844 1.405 . S
C845 H871 0.931 . S
U846 O847 2.454 1_455 S
U846 O848 2.458 . S
U846 C849 2.984 1_455 S
U846 C850 2.855 . S
U846 C863 2.882 . S
U846 O864 2.441 1_455 S
U846 O865 2.420 . S
U846 O866 2.455 . S
U846 O867 2.449 . S
O847 U846 2.454 1_655 S
O847 C849 1.353 . S
O848 U846 2.458 . S
O848 C849 1.286 1_455 S
C849 U846 2.984 1_655 S
C849 O847 1.353 . S
C849 O848 1.286 1_655 S
C849 C851 1.363 . S
C850 C840 1.453 1_455 S
C850 U846 2.855 . S
C850 O864 1.243 1_455 S
C850 O865 1.221 . S
C851 C849 1.363 . S
C851 C853 1.408 . S
C851 C856 1.342 . S
C852 C853 1.310 . S
C852 C855 1.461 . S
C852 H872 0.932 . S
C853 C851 1.408 . S
C853 C852 1.310 . S
C853 H873 0.930 . S
C854 C855 1.474 . S
C854 C856 1.285 . S
C854 H874 0.929 . S
C855 C852 1.461 . S
C855 C854 1.474 . S
C856 C851 1.342 . S
C856 C854 1.285 . S
C856 H875 0.930 . S
C857 C860 1.424 . S
C857 C862 1.245 . S
C857 C863 1.428 . S
C858 C861 1.260 . S
C858 C862 1.477 . S
C858 H876 0.932 . S
C859 C860 1.384 . S
C859 C861 1.479 . S
C859 H877 0.929 . S
C860 C857 1.424 . S
C860 C859 1.384 . S
C860 H878 0.928 . S
C861 C858 1.260 . S
C861 C859 1.479 . S
C862 C857 1.245 . S
C862 C858 1.477 . S
C862 H879 0.932 . S
C863 U846 2.882 . S
C863 C857 1.428 . S
C863 O866 1.301 . S
C863 O867 1.282 . S
O864 U846 2.441 1_655 S
O864 C850 1.243 1_655 S
O865 U846 2.420 . S
O865 C850 1.221 . S
O866 U846 2.455 . S
O866 C863 1.301 . S
O867 U846 2.449 . S
O867 C863 1.282 . S
H868 C841 0.931 1_455 S
H869 C843 0.929 . S
H870 C844 0.930 . S
H871 C845 0.931 . S
H872 C852 0.932 . S
H873 C853 0.930 . S
H874 C854 0.929 . S
H875 C856 0.930 . S
H876 C858 0.932 . S
H877 C859 0.929 . S
H878 C860 0.928 . S
H879 C862 0.932 . S
C880 C881 1.264 . S
C880 C885 1.479 . S
C880 C890 1.465 . S
C881 C880 1.264 . S
C881 C883 1.339 . S
C881 H908 0.931 . S
C882 C883 1.395 . S
C882 C884 1.320 . S
C883 C881 1.339 . S
C883 C882 1.395 . S
C883 H909 0.929 . S
C884 C882 1.320 . S
C884 C885 1.405 . S
C884 H910 0.930 . S
C885 C880 1.479 . S
C885 C884 1.405 . S
C885 H911 0.931 . S
U886 O887 2.454 . S
U886 O888 2.458 . S
U886 C889 2.984 . S
U886 C890 2.847 . S
U886 C903 2.882 . S
U886 O904 2.441 . S
U886 O905 2.420 . S
U886 O906 2.455 . S
U886 O907 2.449 . S
O887 U886 2.454 . S
O887 C889 1.353 . S
O888 U886 2.458 . S
O888 C889 1.286 . S
C889 U886 2.984 . S
C889 O887 1.353 . S
C889 O888 1.286 . S
C889 C891 1.363 . S
C890 C880 1.465 . S
C890 U886 2.847 . S
C890 O904 1.249 . S
C890 O905 1.202 . S
C891 C889 1.363 . S
C891 C893 1.408 . S
C891 C896 1.342 . S
C892 C893 1.310 . S
C892 C895 1.461 . S
C892 H912 0.932 . S
C893 C891 1.408 . S
C893 C892 1.310 . S
C893 H913 0.930 . S
C894 C895 1.474 . S
C894 C896 1.285 . S
C894 H914 0.929 . S
C895 C892 1.461 . S
C895 C894 1.474 . S
C896 C891 1.342 . S
C896 C894 1.285 . S
C896 H915 0.930 . S
C897 C900 1.424 . S
C897 C902 1.245 . S
C897 C903 1.428 . S
C898 C901 1.260 . S
C898 C902 1.477 . S
C898 H916 0.932 . S
C899 C900 1.384 . S
C899 C901 1.479 . S
C899 H917 0.929 . S
C900 C897 1.424 . S
C900 C899 1.384 . S
C900 H918 0.928 . S
C901 C898 1.260 . S
C901 C899 1.479 . S
C902 C897 1.245 . S
C902 C898 1.477 . S
C902 H919 0.932 . S
C903 U886 2.882 . S
C903 C897 1.428 . S
C903 O906 1.301 . S
C903 O907 1.282 . S
O904 U886 2.441 . S
O904 C890 1.249 . S
O905 U886 2.420 . S
O905 C890 1.202 . S
O906 U886 2.455 . S
O906 C903 1.301 . S
O907 U886 2.449 . S
O907 C903 1.282 . S
H908 C881 0.931 . S
H909 C883 0.929 . S
H910 C884 0.930 . S
H911 C885 0.931 . S
H912 C892 0.932 . S
H913 C893 0.930 . S
H914 C894 0.929 . S
H915 C896 0.930 . S
H916 C898 0.932 . S
H917 C899 0.929 . S
H918 C900 0.928 . S
H919 C902 0.932 . S
C920 C921 1.264 . S
C920 C925 1.479 1_655 S
C920 C930 1.465 . S
C921 C920 1.264 . S
C921 C923 1.339 . S
C921 H948 0.931 . S
C922 C923 1.395 1_455 S
C922 C924 1.320 . S
C923 C921 1.339 . S
C923 C922 1.395 1_655 S
C923 H949 0.929 . S
C924 C922 1.320 . S
C924 C925 1.405 . S
C924 H950 0.930 . S
C925 C920 1.479 1_455 S
C925 C924 1.405 . S
C925 H951 0.931 . S
U926 O927 2.454 . S
U926 O928 2.458 . S
U926 C929 2.984 . S
U926 C930 2.847 . S
U926 C943 2.882 . S
U926 O944 2.441 . S
U926 O945 2.420 . S
U926 O946 2.455 . S
U926 O947 2.449 . S
O927 U926 2.454 . S
O927 C929 1.353 . S
O928 U926 2.458 . S
O928 C929 1.286 . S
C929 U926 2.984 . S
C929 O927 1.353 . S
C929 O928 1.286 . S
C929 C931 1.359 1_655 S
C930 C920 1.465 . S
C930 U926 2.847 . S
C930 O944 1.249 . S
C930 O945 1.202 . S
C931 C929 1.359 1_455 S
C931 C933 1.423 . S
C931 C936 1.337 . S
C932 C933 1.310 . S
C932 C935 1.461 . S
C932 H952 0.932 . S
C933 C931 1.423 . S
C933 C932 1.310 . S
C933 H953 0.930 . S
C934 C935 1.474 . S
C934 C936 1.285 . S
C934 H954 0.929 . S
C935 C932 1.461 . S
C935 C934 1.474 . S
C936 C931 1.337 . S
C936 C934 1.285 . S
C936 H955 0.931 . S
C937 C940 1.424 . S
C937 C942 1.245 . S
C937 C943 1.428 . S
C938 C941 1.260 . S
C938 C942 1.477 . S
C938 H956 0.932 . S
C939 C940 1.384 . S
C939 C941 1.479 . S
C939 H957 0.929 . S
C940 C937 1.424 . S
C940 C939 1.384 . S
C940 H958 0.928 . S
C941 C938 1.260 . S
C941 C939 1.479 . S
C942 C937 1.245 . S
C942 C938 1.477 . S
C942 H959 0.932 . S
C943 U926 2.882 . S
C943 C937 1.428 . S
C943 O946 1.301 . S
C943 O947 1.282 . S
O944 U926 2.441 . S
O944 C930 1.249 . S
O945 U926 2.420 . S
O945 C930 1.202 . S
O946 U926 2.455 . S
O946 C943 1.301 . S
O947 U926 2.449 . S
O947 C943 1.282 . S
H948 C921 0.931 . S
H949 C923 0.929 . S
H950 C924 0.930 . S
H951 C925 0.931 . S
H952 C932 0.932 . S
H953 C933 0.930 . S
H954 C934 0.929 . S
H955 C936 0.931 . S
H956 C938 0.932 . S
H957 C939 0.929 . S
H958 C940 0.928 . S
H959 C942 0.932 . S
H960 C961 0.949 . S
C961 H960 0.949 . S
C961 C962 1.395 . S
C961 C963 1.391 . S
C962 C961 1.395 . S
C962 C965 1.390 . S
C963 C961 1.391 . S
C963 C967 1.387 . S
C963 C968 1.491 . S
H964 C965 0.950 . S
C965 C962 1.390 . S
C965 H964 0.950 . S
C965 C966 1.378 . S
C966 C965 1.378 . S
C966 C967 1.409 . S
C967 C963 1.387 . S
C967 C966 1.409 . S
C967 H969 0.951 . S
C968 C963 1.491 . S
C968 C970 1.382 . S
C968 C972 1.404 . S
H969 C967 0.951 . S
C970 C968 1.382 . S
C970 C971 1.390 . S
C970 H975 0.949 . S
C971 C970 1.390 . S
C971 C976 1.399 . S
C972 C968 1.404 . S
C972 H973 0.950 . S
C972 C974 1.375 . S
H973 C972 0.950 . S
C974 C972 1.375 . S
C974 C976 1.382 . S
C974 H978 0.950 . S
H975 C970 0.949 . S
C976 C971 1.399 . S
C976 C974 1.382 . S
C976 H977 0.952 . S
H977 C976 0.952 . S
H978 C974 0.950 . S
H979 C980 0.949 . S
C980 H979 0.949 . S
C980 C981 1.395 . S
C980 C982 1.391 1_556 S
C981 C980 1.395 . S
C981 C984 1.390 . S
C982 C980 1.391 1_554 S
C982 C986 1.387 . S
C982 C987 1.491 . S
H983 C984 0.950 . S
C984 C981 1.390 . S
C984 H983 0.950 . S
C984 C985 1.378 1_556 S
C985 C984 1.378 1_554 S
C985 C986 1.409 . S
C986 C982 1.387 . S
C986 C985 1.409 . S
C986 H988 0.951 . S
C987 C982 1.491 . S
C987 C989 1.382 . S
C987 C991 1.404 . S
H988 C986 0.951 . S
C989 C987 1.382 . S
C989 C990 1.390 . S
C989 H994 0.943 1_554 S
C990 C989 1.390 . S
C990 C995 1.399 . S
C991 C987 1.404 . S
C991 H992 0.950 . S
C991 C993 1.375 . S
H992 C991 0.950 . S
C993 C991 1.375 . S
C993 C995 1.382 . S
C993 H997 0.950 . S
H994 C989 0.943 1_556 S
C995 C990 1.399 . S
C995 C993 1.382 . S
C995 H996 0.952 . S
H996 C995 0.952 . S
H997 C993 0.950 . S
H998 C999 0.949 . S
C999 H998 0.949 . S
C999 C1000 1.395 . S
C999 C1001 1.391 . S
C1000 C999 1.395 . S
C1000 C1003 1.390 . S
C1001 C999 1.391 . S
C1001 C1005 1.387 . S
C1001 C1006 1.491 . S
H1002 C1003 0.950 . S
C1003 C1000 1.390 . S
C1003 H1002 0.950 . S
C1003 C1004 1.378 . S
C1004 C1003 1.378 . S
C1004 C1005 1.409 . S
C1005 C1001 1.387 . S
C1005 C1004 1.409 . S
C1005 H1007 0.951 . S
C1006 C1001 1.491 . S
C1006 C1008 1.382 . S
C1006 C1010 1.404 . S
H1007 C1005 0.951 . S
C1008 C1006 1.382 . S
C1008 C1009 1.390 . S
C1008 H1013 0.949 . S
C1009 C1008 1.390 . S
C1009 C1014 1.399 . S
C1010 C1006 1.404 . S
C1010 H1011 0.950 . S
C1010 C1012 1.375 . S
H1011 C1010 0.950 . S
C1012 C1010 1.375 . S
C1012 C1014 1.382 . S
C1012 H1016 0.950 . S
H1013 C1008 0.949 . S
C1014 C1009 1.399 . S
C1014 C1012 1.382 . S
C1014 H1015 0.952 . S
H1015 C1014 0.952 . S
H1016 C1012 0.950 . S
H1017 C1018 0.949 . S
C1018 H1017 0.949 . S
C1018 C1019 1.395 . S
C1018 C1020 1.391 1_554 S
C1019 C1018 1.395 . S
C1019 C1022 1.390 . S
C1020 C1018 1.391 1_556 S
C1020 C1024 1.387 . S
C1020 C1025 1.491 . S
H1021 C1022 0.950 . S
C1022 C1019 1.390 . S
C1022 H1021 0.950 . S
C1022 C1023 1.378 1_554 S
C1023 C1022 1.378 1_556 S
C1023 C1024 1.409 . S
C1024 C1020 1.387 . S
C1024 C1023 1.409 . S
C1024 H1026 0.951 . S
C1025 C1020 1.491 . S
C1025 C1027 1.382 . S
C1025 C1029 1.404 . S
H1026 C1024 0.951 . S
C1027 C1025 1.382 . S
C1027 C1028 1.390 . S
C1027 H1032 0.949 1_556 S
C1028 C1027 1.390 . S
C1028 C1033 1.399 . S
C1029 C1025 1.404 . S
C1029 H1030 0.950 . S
C1029 C1031 1.375 . S
H1030 C1029 0.950 . S
C1031 C1029 1.375 . S
C1031 C1033 1.382 . S
C1031 H1035 0.950 . S
H1032 C1027 0.949 1_554 S
C1033 C1028 1.399 . S
C1033 C1031 1.382 . S
C1033 H1034 0.952 . S
H1034 C1033 0.952 . S
H1035 C1031 0.950 . S
H1036 C1037 0.949 . S
C1037 H1036 0.949 . S
C1037 C1038 1.395 . S
C1037 C1039 1.391 . S
C1038 C1037 1.395 . S
C1038 C1041 1.390 . S
C1039 C1037 1.391 . S
C1039 C1043 1.387 . S
C1039 C1044 1.491 . S
H1040 C1041 0.950 . S
C1041 C1038 1.390 . S
C1041 H1040 0.950 . S
C1041 C1042 1.378 . S
C1042 C1041 1.378 . S
C1042 C1043 1.409 . S
C1043 C1039 1.387 . S
C1043 C1042 1.409 . S
C1043 H1045 0.951 . S
C1044 C1039 1.491 . S
C1044 C1046 1.382 . S
C1044 C1048 1.404 . S
H1045 C1043 0.951 . S
C1046 C1044 1.382 . S
C1046 C1047 1.390 . S
C1046 H1051 0.949 . S
C1047 C1046 1.390 . S
C1047 C1052 1.399 . S
C1048 C1044 1.404 . S
C1048 H1049 0.950 . S
C1048 C1050 1.375 . S
H1049 C1048 0.950 . S
C1050 C1048 1.375 . S
C1050 C1052 1.382 . S
C1050 H1054 0.950 . S
H1051 C1046 0.949 . S
C1052 C1047 1.399 . S
C1052 C1050 1.382 . S
C1052 H1053 0.952 . S
H1053 C1052 0.952 . S
H1054 C1050 0.950 . S
H1055 C1056 0.949 . S
C1056 H1055 0.949 . S
C1056 C1057 1.395 . S
C1056 C1058 1.391 1_455 S
C1057 C1056 1.395 . S
C1057 C1060 1.390 . S
C1058 C1056 1.391 1_655 S
C1058 C1062 1.387 . S
C1058 C1063 1.491 . S
H1059 C1060 0.950 . S
C1060 C1057 1.390 . S
C1060 H1059 0.950 . S
C1060 C1061 1.378 1_455 S
C1061 C1060 1.378 1_655 S
C1061 C1062 1.409 . S
C1062 C1058 1.387 . S
C1062 C1061 1.409 . S
C1062 H1064 0.951 . S
C1063 C1058 1.491 . S
C1063 C1065 1.382 . S
C1063 C1067 1.404 . S
H1064 C1062 0.951 . S
C1065 C1063 1.382 . S
C1065 C1066 1.390 . S
C1065 H1070 0.949 1_655 S
C1066 C1065 1.390 . S
C1066 C1071 1.399 . S
C1067 C1063 1.404 . S
C1067 H1068 0.950 . S
C1067 C1069 1.375 . S
H1068 C1067 0.950 . S
C1069 C1067 1.375 . S
C1069 C1071 1.382 . S
C1069 H1073 0.950 . S
H1070 C1065 0.949 1_455 S
C1071 C1066 1.399 . S
C1071 C1069 1.382 . S
C1071 H1072 0.952 . S
H1072 C1071 0.952 . S
H1073 C1069 0.950 . S
H1074 C1075 0.949 . S
C1075 H1074 0.949 . S
C1075 C1076 1.395 . S
C1075 C1077 1.391 1_655 S
C1076 C1075 1.395 . S
C1076 C1079 1.390 . S
C1077 C1075 1.391 1_455 S
C1077 C1081 1.387 . S
C1077 C1082 1.491 . S
H1078 C1079 0.950 . S
C1079 C1076 1.390 . S
C1079 H1078 0.950 . S
C1079 C1080 1.378 1_655 S
C1080 C1079 1.378 1_455 S
C1080 C1081 1.409 . S
C1081 C1077 1.387 . S
C1081 C1080 1.409 . S
C1081 H1083 0.951 . S
C1082 C1077 1.491 . S
C1082 C1084 1.382 . S
C1082 C1086 1.404 . S
H1083 C1081 0.951 . S
C1084 C1082 1.382 . S
C1084 C1085 1.390 . S
C1084 H1089 0.943 1_455 S
C1085 C1084 1.390 . S
C1085 C1090 1.399 . S
C1086 C1082 1.404 . S
C1086 H1087 0.950 . S
C1086 C1088 1.375 . S
H1087 C1086 0.950 . S
C1088 C1086 1.375 . S
C1088 C1090 1.382 . S
C1088 H1092 0.950 . S
H1089 C1084 0.943 1_655 S
C1090 C1085 1.399 . S
C1090 C1088 1.382 . S
C1090 H1091 0.952 . S
H1091 C1090 0.952 . S
H1092 C1088 0.950 . S
H1093 C1094 0.949 . S
C1094 H1093 0.949 . S
C1094 C1095 1.395 . S
C1094 C1096 1.391 . S
C1095 C1094 1.395 . S
C1095 C1098 1.390 . S
C1096 C1094 1.391 . S
C1096 C1100 1.387 . S
C1096 C1101 1.491 . S
H1097 C1098 0.950 . S
C1098 C1095 1.390 . S
C1098 H1097 0.950 . S
C1098 C1099 1.378 . S
C1099 C1098 1.378 . S
C1099 C1100 1.409 . S
C1100 C1096 1.387 . S
C1100 C1099 1.409 . S
C1100 H1102 0.951 . S
C1101 C1096 1.491 . S
C1101 C1103 1.382 . S
C1101 C1105 1.404 . S
H1102 C1100 0.951 . S
C1103 C1101 1.382 . S
C1103 C1104 1.390 . S
C1103 H1108 0.949 . S
C1104 C1103 1.390 . S
C1104 C1109 1.399 . S
C1105 C1101 1.404 . S
C1105 H1106 0.950 . S
C1105 C1107 1.375 . S
H1106 C1105 0.950 . S
C1107 C1105 1.375 . S
C1107 C1109 1.382 . S
C1107 H1111 0.950 . S
H1108 C1103 0.949 . S
C1109 C1104 1.399 . S
C1109 C1107 1.382 . S
C1109 H1110 0.952 . S
H1110 C1109 0.952 . S
H1111 C1107 0.950 . S
H1112 C1113 0.949 . S
C1113 H1112 0.949 . S
C1113 C1114 1.395 . S
C1113 C1115 1.391 . S
C1114 C1113 1.395 . S
C1114 C1117 1.390 . S
C1115 C1113 1.391 . S
C1115 C1119 1.387 . S
C1115 C1120 1.491 . S
H1116 C1117 0.950 . S
C1117 C1114 1.390 . S
C1117 H1116 0.950 . S
C1117 C1118 1.378 . S
C1118 C1117 1.378 . S
C1118 C1119 1.409 . S
C1119 C1115 1.387 . S
C1119 C1118 1.409 . S
C1119 H1121 0.951 . S
C1120 C1115 1.491 . S
C1120 C1122 1.382 . S
C1120 C1124 1.404 . S
H1121 C1119 0.951 . S
C1122 C1120 1.382 . S
C1122 C1123 1.390 . S
C1122 H1127 0.949 . S
C1123 C1122 1.390 . S
C1123 C1128 1.399 . S
C1124 C1120 1.404 . S
C1124 H1125 0.950 . S
C1124 C1126 1.375 . S
H1125 C1124 0.950 . S
C1126 C1124 1.375 . S
C1126 C1128 1.382 . S
C1126 H1130 0.950 . S
H1127 C1122 0.949 . S
C1128 C1123 1.399 . S
C1128 C1126 1.382 . S
C1128 H1129 0.952 . S
H1129 C1128 0.952 . S
H1130 C1126 0.950 . S
H1131 C1132 0.949 . S
C1132 H1131 0.949 . S
C1132 C1133 1.395 . S
C1132 C1134 1.391 1_545 S
C1133 C1132 1.395 . S
C1133 C1136 1.390 . S
C1134 C1132 1.391 1_565 S
C1134 C1138 1.387 . S
C1134 C1139 1.491 . S
H1135 C1136 0.950 . S
C1136 C1133 1.390 . S
C1136 H1135 0.950 . S
C1136 C1137 1.378 1_545 S
C1137 C1136 1.378 1_565 S
C1137 C1138 1.409 . S
C1138 C1134 1.387 . S
C1138 C1137 1.409 . S
C1138 H1140 0.951 . S
C1139 C1134 1.491 . S
C1139 C1141 1.382 . S
C1139 C1143 1.404 . S
H1140 C1138 0.951 . S
C1141 C1139 1.382 . S
C1141 C1142 1.390 . S
C1141 H1146 0.949 1_565 S
C1142 C1141 1.390 . S
C1142 C1147 1.399 . S
C1143 C1139 1.404 . S
C1143 H1144 0.950 . S
C1143 C1145 1.375 . S
H1144 C1143 0.950 . S
C1145 C1143 1.375 . S
C1145 C1147 1.382 . S
C1145 H1149 0.950 . S
H1146 C1141 0.949 1_545 S
C1147 C1142 1.399 . S
C1147 C1145 1.382 . S
C1147 H1148 0.952 . S
H1148 C1147 0.952 . S
H1149 C1145 0.950 . S
H1150 C1151 0.949 . S
C1151 H1150 0.949 . S
C1151 C1152 1.395 . S
C1151 C1153 1.391 1_565 S
C1152 C1151 1.395 . S
C1152 C1155 1.390 . S
C1153 C1151 1.391 1_545 S
C1153 C1157 1.387 . S
C1153 C1158 1.491 . S
H1154 C1155 0.950 . S
C1155 C1152 1.390 . S
C1155 H1154 0.950 . S
C1155 C1156 1.378 1_565 S
C1156 C1155 1.378 1_545 S
C1156 C1157 1.409 . S
C1157 C1153 1.387 . S
C1157 C1156 1.409 . S
C1157 H1159 0.951 . S
C1158 C1153 1.491 . S
C1158 C1160 1.382 . S
C1158 C1162 1.404 . S
H1159 C1157 0.951 . S
C1160 C1158 1.382 . S
C1160 C1161 1.390 . S
C1160 H1165 0.943 1_545 S
C1161 C1160 1.390 . S
C1161 C1166 1.399 . S
C1162 C1158 1.404 . S
C1162 H1163 0.950 . S
C1162 C1164 1.375 . S
H1163 C1162 0.950 . S
C1164 C1162 1.375 . S
C1164 C1166 1.382 . S
C1164 H1168 0.950 . S
H1165 C1160 0.943 1_565 S
C1166 C1161 1.399 . S
C1166 C1164 1.382 . S
C1166 H1167 0.952 . S
H1167 C1166 0.952 . S
H1168 C1164 0.950 . S
H1169 C1170 0.949 . S
C1170 H1169 0.949 . S
C1170 C1171 1.395 . S
C1170 C1172 1.391 . S
C1171 C1170 1.395 . S
C1171 C1174 1.390 . S
C1172 C1170 1.391 . S
C1172 C1176 1.387 . S
C1172 C1177 1.491 . S
H1173 C1174 0.950 . S
C1174 C1171 1.390 . S
C1174 H1173 0.950 . S
C1174 C1175 1.378 . S
C1175 C1174 1.378 . S
C1175 C1176 1.409 . S
C1176 C1172 1.387 . S
C1176 C1175 1.409 . S
C1176 H1178 0.951 . S
C1177 C1172 1.491 . S
C1177 C1179 1.382 . S
C1177 C1181 1.404 . S
H1178 C1176 0.951 . S
C1179 C1177 1.382 . S
C1179 C1180 1.390 . S
C1179 H1184 0.949 . S
C1180 C1179 1.390 . S
C1180 C1185 1.399 . S
C1181 C1177 1.404 . S
C1181 H1182 0.950 . S
C1181 C1183 1.375 . S
H1182 C1181 0.950 . S
C1183 C1181 1.375 . S
C1183 C1185 1.382 . S
C1183 H1187 0.950 . S
H1184 C1179 0.949 . S
C1185 C1180 1.399 . S
C1185 C1183 1.382 . S
C1185 H1186 0.952 . S
H1186 C1185 0.952 . S
H1187 C1183 0.950 . S
H1188 C1189 0.949 . S
C1189 H1188 0.949 . S
C1189 C1190 1.395 . S
C1189 C1191 1.391 . S
C1190 C1189 1.395 . S
C1190 C1193 1.390 . S
C1191 C1189 1.391 . S
C1191 C1195 1.387 . S
C1191 C1196 1.491 . S
H1192 C1193 0.950 . S
C1193 C1190 1.390 . S
C1193 H1192 0.950 . S
C1193 C1194 1.378 . S
C1194 C1193 1.378 . S
C1194 C1195 1.409 . S
C1195 C1191 1.387 . S
C1195 C1194 1.409 . S
C1195 H1197 0.951 . S
C1196 C1191 1.491 . S
C1196 C1198 1.382 . S
C1196 C1200 1.404 . S
H1197 C1195 0.951 . S
C1198 C1196 1.382 . S
C1198 C1199 1.390 . S
C1198 H1203 0.949 . S
C1199 C1198 1.390 . S
C1199 C1204 1.399 . S
C1200 C1196 1.404 . S
C1200 H1201 0.950 . S
C1200 C1202 1.375 . S
H1201 C1200 0.950 . S
C1202 C1200 1.375 . S
C1202 C1204 1.382 . S
C1202 H1206 0.950 . S
H1203 C1198 0.949 . S
C1204 C1199 1.399 . S
C1204 C1202 1.382 . S
C1204 H1205 0.952 . S
H1205 C1204 0.952 . S
H1206 C1202 0.950 . S
H1207 C1208 0.949 . S
C1208 H1207 0.949 . S
C1208 C1209 1.395 . S
C1208 C1210 1.391 1_554 S
C1209 C1208 1.395 . S
C1209 C1212 1.390 . S
C1210 C1208 1.391 1_556 S
C1210 C1214 1.387 . S
C1210 C1215 1.491 . S
H1211 C1212 0.950 . S
C1212 C1209 1.390 . S
C1212 H1211 0.950 . S
C1212 C1213 1.378 1_554 S
C1213 C1212 1.378 1_556 S
C1213 C1214 1.409 . S
C1214 C1210 1.387 . S
C1214 C1213 1.409 . S
C1214 H1216 0.951 . S
C1215 C1210 1.491 . S
C1215 C1217 1.382 . S
C1215 C1219 1.404 . S
H1216 C1214 0.951 . S
C1217 C1215 1.382 . S
C1217 C1218 1.390 . S
C1217 H1222 0.949 1_556 S
C1218 C1217 1.390 . S
C1218 C1223 1.399 . S
C1219 C1215 1.404 . S
C1219 H1220 0.950 . S
C1219 C1221 1.375 . S
H1220 C1219 0.950 . S
C1221 C1219 1.375 . S
C1221 C1223 1.382 . S
C1221 H1225 0.950 . S
H1222 C1217 0.949 1_554 S
C1223 C1218 1.399 . S
C1223 C1221 1.382 . S
C1223 H1224 0.952 . S
H1224 C1223 0.952 . S
H1225 C1221 0.950 . S
H1226 C1227 0.949 . S
C1227 H1226 0.949 . S
C1227 C1228 1.395 . S
C1227 C1229 1.391 . S
C1228 C1227 1.395 . S
C1228 C1231 1.390 . S
C1229 C1227 1.391 . S
C1229 C1233 1.387 . S
C1229 C1234 1.491 . S
H1230 C1231 0.950 . S
C1231 C1228 1.390 . S
C1231 H1230 0.950 . S
C1231 C1232 1.378 . S
C1232 C1231 1.378 . S
C1232 C1233 1.409 . S
C1233 C1229 1.387 . S
C1233 C1232 1.409 . S
C1233 H1235 0.951 . S
C1234 C1229 1.491 . S
C1234 C1236 1.382 . S
C1234 C1238 1.404 . S
H1235 C1233 0.951 . S
C1236 C1234 1.382 . S
C1236 C1237 1.390 . S
C1236 H1241 0.949 . S
C1237 C1236 1.390 . S
C1237 C1242 1.399 . S
C1238 C1234 1.404 . S
C1238 H1239 0.950 . S
C1238 C1240 1.375 . S
H1239 C1238 0.950 . S
C1240 C1238 1.375 . S
C1240 C1242 1.382 . S
C1240 H1244 0.950 . S
H1241 C1236 0.949 . S
C1242 C1237 1.399 . S
C1242 C1240 1.382 . S
C1242 H1243 0.952 . S
H1243 C1242 0.952 . S
H1244 C1240 0.950 . S
H1245 C1246 0.949 . S
C1246 H1245 0.949 . S
C1246 C1247 1.395 . S
C1246 C1248 1.391 1_556 S
C1247 C1246 1.395 . S
C1247 C1250 1.390 . S
C1248 C1246 1.391 1_554 S
C1248 C1252 1.387 . S
C1248 C1253 1.491 . S
H1249 C1250 0.950 . S
C1250 C1247 1.390 . S
C1250 H1249 0.950 . S
C1250 C1251 1.378 1_556 S
C1251 C1250 1.378 1_554 S
C1251 C1252 1.409 . S
C1252 C1248 1.387 . S
C1252 C1251 1.409 . S
C1252 H1254 0.951 . S
C1253 C1248 1.491 . S
C1253 C1255 1.382 . S
C1253 C1257 1.404 . S
H1254 C1252 0.951 . S
C1255 C1253 1.382 . S
C1255 C1256 1.390 . S
C1255 H1260 0.949 . S
C1256 C1255 1.390 . S
C1256 C1261 1.399 . S
C1257 C1253 1.404 . S
C1257 H1258 0.950 . S
C1257 C1259 1.375 . S
H1258 C1257 0.950 . S
C1259 C1257 1.375 . S
C1259 C1261 1.382 . S
C1259 H1263 0.950 . S
H1260 C1255 0.949 . S
C1261 C1256 1.399 . S
C1261 C1259 1.382 . S
C1261 H1262 0.952 . S
H1262 C1261 0.952 . S
H1263 C1259 0.950 . S
H1264 C1265 0.949 . S
C1265 H1264 0.949 . S
C1265 C1266 1.395 . S
C1265 C1267 1.391 . S
C1266 C1265 1.395 . S
C1266 C1269 1.390 . S
C1267 C1265 1.391 . S
C1267 C1271 1.387 . S
C1267 C1272 1.491 . S
H1268 C1269 0.950 . S
C1269 C1266 1.390 . S
C1269 H1268 0.950 . S
C1269 C1270 1.378 . S
C1270 C1269 1.378 . S
C1270 C1271 1.409 . S
C1271 C1267 1.387 . S
C1271 C1270 1.409 . S
C1271 H1273 0.951 . S
C1272 C1267 1.491 . S
C1272 C1274 1.382 . S
C1272 C1276 1.404 . S
H1273 C1271 0.951 . S
C1274 C1272 1.382 . S
C1274 C1275 1.390 . S
C1274 H1279 0.949 . S
C1275 C1274 1.390 . S
C1275 C1280 1.399 . S
C1276 C1272 1.404 . S
C1276 H1277 0.950 . S
C1276 C1278 1.375 . S
H1277 C1276 0.950 . S
C1278 C1276 1.375 . S
C1278 C1280 1.382 . S
C1278 H1282 0.950 . S
H1279 C1274 0.949 . S
C1280 C1275 1.399 . S
C1280 C1278 1.382 . S
C1280 H1281 0.952 . S
H1281 C1280 0.952 . S
H1282 C1278 0.950 . S
H1283 C1284 0.949 . S
C1284 H1283 0.949 . S
C1284 C1285 1.395 . S
C1284 C1286 1.391 1_655 S
C1285 C1284 1.395 . S
C1285 C1288 1.390 . S
C1286 C1284 1.391 1_455 S
C1286 C1290 1.387 . S
C1286 C1291 1.491 . S
H1287 C1288 0.950 . S
C1288 C1285 1.390 . S
C1288 H1287 0.950 . S
C1288 C1289 1.378 1_655 S
C1289 C1288 1.378 1_455 S
C1289 C1290 1.409 . S
C1290 C1286 1.387 . S
C1290 C1289 1.409 . S
C1290 H1292 0.951 . S
C1291 C1286 1.491 . S
C1291 C1293 1.382 . S
C1291 C1295 1.404 . S
H1292 C1290 0.951 . S
C1293 C1291 1.382 . S
C1293 C1294 1.390 . S
C1293 H1298 0.949 . S
C1294 C1293 1.390 . S
C1294 C1299 1.399 . S
C1295 C1291 1.404 . S
C1295 H1296 0.950 . S
C1295 C1297 1.375 . S
H1296 C1295 0.950 . S
C1297 C1295 1.375 . S
C1297 C1299 1.382 . S
C1297 H1301 0.950 . S
H1298 C1293 0.949 . S
C1299 C1294 1.399 . S
C1299 C1297 1.382 . S
C1299 H1300 0.952 . S
H1300 C1299 0.952 . S
H1301 C1297 0.950 . S
H1302 C1303 0.949 . S
C1303 H1302 0.949 . S
C1303 C1304 1.395 . S
C1303 C1305 1.391 1_455 S
C1304 C1303 1.395 . S
C1304 C1307 1.390 . S
C1305 C1303 1.391 1_655 S
C1305 C1309 1.387 . S
C1305 C1310 1.491 . S
H1306 C1307 0.950 . S
C1307 C1304 1.390 . S
C1307 H1306 0.950 . S
C1307 C1308 1.378 1_455 S
C1308 C1307 1.378 1_655 S
C1308 C1309 1.409 . S
C1309 C1305 1.387 . S
C1309 C1308 1.409 . S
C1309 H1311 0.951 . S
C1310 C1305 1.491 . S
C1310 C1312 1.382 . S
C1310 C1314 1.404 . S
H1311 C1309 0.951 . S
C1312 C1310 1.382 . S
C1312 C1313 1.390 . S
C1312 H1317 0.949 1_655 S
C1313 C1312 1.390 . S
C1313 C1318 1.399 . S
C1314 C1310 1.404 . S
C1314 H1315 0.950 . S
C1314 C1316 1.375 . S
H1315 C1314 0.950 . S
C1316 C1314 1.375 . S
C1316 C1318 1.382 . S
C1316 H1320 0.950 . S
H1317 C1312 0.949 1_455 S
C1318 C1313 1.399 . S
C1318 C1316 1.382 . S
C1318 H1319 0.952 . S
H1319 C1318 0.952 . S
H1320 C1316 0.950 . S
H1321 C1322 0.949 . S
C1322 H1321 0.949 . S
C1322 C1323 1.395 . S
C1322 C1324 1.391 . S
C1323 C1322 1.395 . S
C1323 C1326 1.390 . S
C1324 C1322 1.391 . S
C1324 C1328 1.387 . S
C1324 C1329 1.491 . S
H1325 C1326 0.950 . S
C1326 C1323 1.390 . S
C1326 H1325 0.950 . S
C1326 C1327 1.378 . S
C1327 C1326 1.378 . S
C1327 C1328 1.409 . S
C1328 C1324 1.387 . S
C1328 C1327 1.409 . S
C1328 H1330 0.951 . S
C1329 C1324 1.491 . S
C1329 C1331 1.382 . S
C1329 C1333 1.404 . S
H1330 C1328 0.951 . S
C1331 C1329 1.382 . S
C1331 C1332 1.390 . S
C1331 H1336 0.949 . S
C1332 C1331 1.390 . S
C1332 C1337 1.399 . S
C1333 C1329 1.404 . S
C1333 H1334 0.950 . S
C1333 C1335 1.375 . S
H1334 C1333 0.950 . S
C1335 C1333 1.375 . S
C1335 C1337 1.382 . S
C1335 H1339 0.950 . S
H1336 C1331 0.949 . S
C1337 C1332 1.399 . S
C1337 C1335 1.382 . S
C1337 H1338 0.952 . S
H1338 C1337 0.952 . S
H1339 C1335 0.950 . S
H1340 C1341 0.949 . S
C1341 H1340 0.949 . S
C1341 C1342 1.395 . S
C1341 C1343 1.391 . S
C1342 C1341 1.395 . S
C1342 C1345 1.390 . S
C1343 C1341 1.391 . S
C1343 C1347 1.387 . S
C1343 C1348 1.491 . S
H1344 C1345 0.950 . S
C1345 C1342 1.390 . S
C1345 H1344 0.950 . S
C1345 C1346 1.378 . S
C1346 C1345 1.378 . S
C1346 C1347 1.409 . S
C1347 C1343 1.387 . S
C1347 C1346 1.409 . S
C1347 H1349 0.951 . S
C1348 C1343 1.491 . S
C1348 C1350 1.382 . S
C1348 C1352 1.404 . S
H1349 C1347 0.951 . S
C1350 C1348 1.382 . S
C1350 C1351 1.390 . S
C1350 H1355 0.949 . S
C1351 C1350 1.390 . S
C1351 C1356 1.399 . S
C1352 C1348 1.404 . S
C1352 H1353 0.950 . S
C1352 C1354 1.375 . S
H1353 C1352 0.950 . S
C1354 C1352 1.375 . S
C1354 C1356 1.382 . S
C1354 H1358 0.950 . S
H1355 C1350 0.949 . S
C1356 C1351 1.399 . S
C1356 C1354 1.382 . S
C1356 H1357 0.952 . S
H1357 C1356 0.952 . S
H1358 C1354 0.950 . S
H1359 C1360 0.949 . S
C1360 H1359 0.949 . S
C1360 C1361 1.395 . S
C1360 C1362 1.391 1_565 S
C1361 C1360 1.395 . S
C1361 C1364 1.390 . S
C1362 C1360 1.391 1_545 S
C1362 C1366 1.387 . S
C1362 C1367 1.491 . S
H1363 C1364 0.950 . S
C1364 C1361 1.390 . S
C1364 H1363 0.950 . S
C1364 C1365 1.378 1_565 S
C1365 C1364 1.378 1_545 S
C1365 C1366 1.409 . S
C1366 C1362 1.387 . S
C1366 C1365 1.409 . S
C1366 H1368 0.951 . S
C1367 C1362 1.491 . S
C1367 C1369 1.382 . S
C1367 C1371 1.404 . S
H1368 C1366 0.951 . S
C1369 C1367 1.382 . S
C1369 C1370 1.390 . S
C1369 H1374 0.949 . S
C1370 C1369 1.390 . S
C1370 C1375 1.399 . S
C1371 C1367 1.404 . S
C1371 H1372 0.950 . S
C1371 C1373 1.375 . S
H1372 C1371 0.950 . S
C1373 C1371 1.375 . S
C1373 C1375 1.382 . S
C1373 H1377 0.950 . S
H1374 C1369 0.949 . S
C1375 C1370 1.399 . S
C1375 C1373 1.382 . S
C1375 H1376 0.952 . S
H1376 C1375 0.952 . S
H1377 C1373 0.950 . S
H1378 C1379 0.949 . S
C1379 H1378 0.949 . S
C1379 C1380 1.395 . S
C1379 C1381 1.391 1_545 S
C1380 C1379 1.395 . S
C1380 C1383 1.390 . S
C1381 C1379 1.391 1_565 S
C1381 C1385 1.387 . S
C1381 C1386 1.491 . S
H1382 C1383 0.950 . S
C1383 C1380 1.390 . S
C1383 H1382 0.950 . S
C1383 C1384 1.378 1_545 S
C1384 C1383 1.378 1_565 S
C1384 C1385 1.409 . S
C1385 C1381 1.387 . S
C1385 C1384 1.409 . S
C1385 H1387 0.951 . S
C1386 C1381 1.491 . S
C1386 C1388 1.382 . S
C1386 C1390 1.404 . S
H1387 C1385 0.951 . S
C1388 C1386 1.382 . S
C1388 C1389 1.390 . S
C1388 H1393 0.949 1_565 S
C1389 C1388 1.390 . S
C1389 C1394 1.399 . S
C1390 C1386 1.404 . S
C1390 H1391 0.950 . S
C1390 C1392 1.375 . S
H1391 C1390 0.950 . S
C1392 C1390 1.375 . S
C1392 C1394 1.382 . S
C1392 H1396 0.950 . S
H1393 C1388 0.949 1_545 S
C1394 C1389 1.399 . S
C1394 C1392 1.382 . S
C1394 H1395 0.952 . S
H1395 C1394 0.952 . S
H1396 C1392 0.950 . S
H1397 C1398 0.949 . S
C1398 H1397 0.949 . S
C1398 C1399 1.395 . S
C1398 C1400 1.391 . S
C1399 C1398 1.395 . S
C1399 C1402 1.390 . S
C1400 C1398 1.391 . S
C1400 C1404 1.387 . S
C1400 C1405 1.491 . S
H1401 C1402 0.950 . S
C1402 C1399 1.390 . S
C1402 H1401 0.950 . S
C1402 C1403 1.378 . S
C1403 C1402 1.378 . S
C1403 C1404 1.409 . S
C1404 C1400 1.387 . S
C1404 C1403 1.409 . S
C1404 H1406 0.951 . S
C1405 C1400 1.491 . S
C1405 C1407 1.382 . S
C1405 C1409 1.404 . S
H1406 C1404 0.951 . S
C1407 C1405 1.382 . S
C1407 C1408 1.390 . S
C1407 H1412 0.949 . S
C1408 C1407 1.390 . S
C1408 C1413 1.399 . S
C1409 C1405 1.404 . S
C1409 H1410 0.950 . S
C1409 C1411 1.375 . S
H1410 C1409 0.950 . S
C1411 C1409 1.375 . S
C1411 C1413 1.382 . S
C1411 H1415 0.950 . S
H1412 C1407 0.949 . S
C1413 C1408 1.399 . S
C1413 C1411 1.382 . S
C1413 H1414 0.952 . S
H1414 C1413 0.952 . S
H1415 C1411 0.950 . S
C1416 C1417 1.391 . S
C1416 C1418 1.394 . S
C1416 H1432 0.931 . S
C1417 C1416 1.391 . S
C1417 C1421 1.376 . S
C1418 C1416 1.394 . S
C1418 C1419 1.369 . S
C1418 C1422 1.531 . S
C1419 C1418 1.369 . S
C1419 C1420 1.410 . S
C1419 C1427 1.503 . S
C1420 C1419 1.410 . S
C1420 C1421 1.392 . S
C1420 C1423 1.511 . S
C1421 C1417 1.376 . S
C1421 C1420 1.392 . S
C1421 H1433 0.929 . S
C1422 C1418 1.531 . S
C1422 H1434 0.960 . S
C1422 H1435 0.962 . S
C1422 H1436 0.960 . S
C1423 C1420 1.511 . S
C1423 H1437 0.961 . S
C1423 H1438 0.961 . S
C1423 H1439 0.961 . S
C1424 C1425 1.370 . S
C1424 C1426 1.363 . S
C1424 H1440 0.931 . S
C1425 C1424 1.370 . S
C1425 C1429 1.408 . S
C1426 C1424 1.363 . S
C1426 C1427 1.370 . S
C1426 C1430 1.524 . S
C1427 C1419 1.503 . S
C1427 C1426 1.370 . S
C1427 C1428 1.403 . S
C1428 C1427 1.403 . S
C1428 C1429 1.404 . S
C1428 C1431 1.539 . S
C1429 C1425 1.408 . S
C1429 C1428 1.404 . S
C1429 H1441 0.930 . S
C1430 C1426 1.524 . S
C1430 H1442 0.956 . S
C1430 H1443 0.961 . S
C1430 H1444 0.961 . S
C1431 C1428 1.539 . S
C1431 H1445 0.958 . S
C1431 H1446 0.961 . S
C1431 H1447 0.960 . S
H1432 C1416 0.931 . S
H1433 C1421 0.929 . S
H1434 C1422 0.960 . S
H1435 C1422 0.962 . S
H1436 C1422 0.960 . S
H1437 C1423 0.961 . S
H1438 C1423 0.961 . S
H1439 C1423 0.961 . S
H1440 C1424 0.931 . S
H1441 C1429 0.930 . S
H1442 C1430 0.956 . S
H1443 C1430 0.961 . S
H1444 C1430 0.961 . S
H1445 C1431 0.958 . S
H1446 C1431 0.961 . S
H1447 C1431 0.960 . S
C1448 C1449 1.391 . S
C1448 C1450 1.394 . S
C1448 H1464 0.931 . S
C1449 C1448 1.391 . S
C1449 C1453 1.376 . S
C1450 C1448 1.394 . S
C1450 C1451 1.369 . S
C1450 C1454 1.531 . S
C1451 C1450 1.369 . S
C1451 C1452 1.410 . S
C1451 C1459 1.503 . S
C1452 C1451 1.410 . S
C1452 C1453 1.392 . S
C1452 C1455 1.511 . S
C1453 C1449 1.376 . S
C1453 C1452 1.392 . S
C1453 H1465 0.929 . S
C1454 C1450 1.531 . S
C1454 H1466 0.960 . S
C1454 H1467 0.962 . S
C1454 H1468 0.960 . S
C1455 C1452 1.511 . S
C1455 H1469 0.961 . S
C1455 H1470 0.961 . S
C1455 H1471 0.961 . S
C1456 C1457 1.370 . S
C1456 C1458 1.363 . S
C1456 H1472 0.931 . S
C1457 C1456 1.370 . S
C1457 C1461 1.408 . S
C1458 C1456 1.363 . S
C1458 C1459 1.370 . S
C1458 C1462 1.524 . S
C1459 C1451 1.503 . S
C1459 C1458 1.370 . S
C1459 C1460 1.403 . S
C1460 C1459 1.403 . S
C1460 C1461 1.404 . S
C1460 C1463 1.539 . S
C1461 C1457 1.408 . S
C1461 C1460 1.404 . S
C1461 H1473 0.930 . S
C1462 C1458 1.524 . S
C1462 H1474 0.956 . S
C1462 H1475 0.961 . S
C1462 H1476 0.961 . S
C1463 C1460 1.539 . S
C1463 H1477 0.958 . S
C1463 H1478 0.961 . S
C1463 H1479 0.960 . S
H1464 C1448 0.931 . S
H1465 C1453 0.929 . S
H1466 C1454 0.960 . S
H1467 C1454 0.962 . S
H1468 C1454 0.960 . S
H1469 C1455 0.961 . S
H1470 C1455 0.961 . S
H1471 C1455 0.961 . S
H1472 C1456 0.931 . S
H1473 C1461 0.930 . S
H1474 C1462 0.956 . S
H1475 C1462 0.961 . S
H1476 C1462 0.961 . S
H1477 C1463 0.958 . S
H1478 C1463 0.961 . S
H1479 C1463 0.960 . S
C1480 C1481 1.391 . S
C1480 C1482 1.394 . S
C1480 H1496 0.931 . S
C1481 C1480 1.391 . S
C1481 C1485 1.376 . S
C1482 C1480 1.394 . S
C1482 C1483 1.369 . S
C1482 C1486 1.531 . S
C1483 C1482 1.369 . S
C1483 C1484 1.410 . S
C1483 C1491 1.503 . S
C1484 C1483 1.410 . S
C1484 C1485 1.392 . S
C1484 C1487 1.511 . S
C1485 C1481 1.376 . S
C1485 C1484 1.392 . S
C1485 H1497 0.929 . S
C1486 C1482 1.531 . S
C1486 H1498 0.960 . S
C1486 H1499 0.962 . S
C1486 H1500 0.960 . S
C1487 C1484 1.511 . S
C1487 H1501 0.961 . S
C1487 H1502 0.961 . S
C1487 H1503 0.961 . S
C1488 C1489 1.370 . S
C1488 C1490 1.363 . S
C1488 H1504 0.931 1_565 S
C1489 C1488 1.370 . S
C1489 C1493 1.408 . S
C1490 C1488 1.363 . S
C1490 C1491 1.370 . S
C1490 C1494 1.524 1_565 S
C1491 C1483 1.503 . S
C1491 C1490 1.370 . S
C1491 C1492 1.403 . S
C1492 C1491 1.403 . S
C1492 C1493 1.404 . S
C1492 C1495 1.539 . S
C1493 C1489 1.408 . S
C1493 C1492 1.404 . S
C1493 H1505 0.930 . S
C1494 C1490 1.524 1_545 S
C1494 H1506 0.956 . S
C1494 H1507 0.961 . S
C1494 H1508 0.961 . S
C1495 C1492 1.539 . S
C1495 H1509 0.958 . S
C1495 H1510 0.961 . S
C1495 H1511 0.960 . S
H1496 C1480 0.931 . S
H1497 C1485 0.929 . S
H1498 C1486 0.960 . S
H1499 C1486 0.962 . S
H1500 C1486 0.960 . S
H1501 C1487 0.961 . S
H1502 C1487 0.961 . S
H1503 C1487 0.961 . S
H1504 C1488 0.931 1_545 S
H1505 C1493 0.930 . S
H1506 C1494 0.956 . S
H1507 C1494 0.961 . S
H1508 C1494 0.961 . S
H1509 C1495 0.958 . S
H1510 C1495 0.961 . S
H1511 C1495 0.960 . S
C1512 C1513 1.391 . S
C1512 C1514 1.394 1_655 S
C1512 H1528 0.931 . S
C1513 C1512 1.391 . S
C1513 C1517 1.352 1_655 S
C1514 C1512 1.394 1_455 S
C1514 C1515 1.369 . S
C1514 C1518 1.531 1_545 S
C1515 C1514 1.369 . S
C1515 C1516 1.410 . S
C1515 C1523 1.503 . S
C1516 C1515 1.410 . S
C1516 C1517 1.434 . S
C1516 C1519 1.511 . S
C1517 C1513 1.352 1_455 S
C1517 C1516 1.434 . S
C1517 H1529 0.911 1_455 S
C1518 C1514 1.531 1_565 S
C1518 H1530 0.969 . S
C1518 H1531 0.962 . S
C1518 H1532 0.960 . S
C1519 C1516 1.511 . S
C1519 H1533 0.961 . S
C1519 H1534 0.961 . S
C1519 H1535 0.961 . S
C1520 C1521 1.370 . S
C1520 C1522 1.363 . S
C1520 H1536 0.931 1_545 S
C1521 C1520 1.370 . S
C1521 C1525 1.408 . S
C1522 C1520 1.363 . S
C1522 C1523 1.370 . S
C1522 C1526 1.524 1_545 S
C1523 C1515 1.503 . S
C1523 C1522 1.370 . S
C1523 C1524 1.403 . S
C1524 C1523 1.403 . S
C1524 C1525 1.404 . S
C1524 C1527 1.539 . S
C1525 C1521 1.408 . S
C1525 C1524 1.404 . S
C1525 H1537 0.930 . S
C1526 C1522 1.524 1_565 S
C1526 H1538 0.956 . S
C1526 H1539 0.961 1_565 S
C1526 H1540 0.961 . S
C1527 C1524 1.539 . S
C1527 H1541 0.958 . S
C1527 H1542 0.961 . S
C1527 H1543 0.960 . S
H1528 C1512 0.931 . S
H1529 C1517 0.911 1_655 S
H1530 C1518 0.969 . S
H1531 C1518 0.962 . S
H1532 C1518 0.960 . S
H1533 C1519 0.961 . S
H1534 C1519 0.961 . S
H1535 C1519 0.961 . S
H1536 C1520 0.931 1_565 S
H1537 C1525 0.930 . S
H1538 C1526 0.956 . S
H1539 C1526 0.961 1_545 S
H1540 C1526 0.961 . S
H1541 C1527 0.958 . S
H1542 C1527 0.961 . S
H1543 C1527 0.960 . S
C1544 C1545 1.391 . S
C1544 C1546 1.394 . S
C1544 H1560 0.931 . S
C1545 C1544 1.391 . S
C1545 C1549 1.376 . S
C1546 C1544 1.394 . S
C1546 C1547 1.369 . S
C1546 C1550 1.531 . S
C1547 C1546 1.369 . S
C1547 C1548 1.410 . S
C1547 C1555 1.503 . S
C1548 C1547 1.410 . S
C1548 C1549 1.392 . S
C1548 C1551 1.511 . S
C1549 C1545 1.376 . S
C1549 C1548 1.392 . S
C1549 H1561 0.929 . S
C1550 C1546 1.531 . S
C1550 H1562 0.960 . S
C1550 H1563 0.962 . S
C1550 H1564 0.960 . S
C1551 C1548 1.511 . S
C1551 H1565 0.961 . S
C1551 H1566 0.961 . S
C1551 H1567 0.961 . S
C1552 C1553 1.370 . S
C1552 C1554 1.363 . S
C1552 H1568 0.931 . S
C1553 C1552 1.370 . S
C1553 C1557 1.408 . S
C1554 C1552 1.363 . S
C1554 C1555 1.370 . S
C1554 C1558 1.524 . S
C1555 C1547 1.503 . S
C1555 C1554 1.370 . S
C1555 C1556 1.403 . S
C1556 C1555 1.403 . S
C1556 C1557 1.404 . S
C1556 C1559 1.539 . S
C1557 C1553 1.408 . S
C1557 C1556 1.404 . S
C1557 H1569 0.930 . S
C1558 C1554 1.524 . S
C1558 H1570 0.956 . S
C1558 H1571 0.961 . S
C1558 H1572 0.961 . S
C1559 C1556 1.539 . S
C1559 H1573 0.958 . S
C1559 H1574 0.961 . S
C1559 H1575 0.960 . S
H1560 C1544 0.931 . S
H1561 C1549 0.929 . S
H1562 C1550 0.960 . S
H1563 C1550 0.962 . S
H1564 C1550 0.960 . S
H1565 C1551 0.961 . S
H1566 C1551 0.961 . S
H1567 C1551 0.961 . S
H1568 C1552 0.931 . S
H1569 C1557 0.930 . S
H1570 C1558 0.956 . S
H1571 C1558 0.961 . S
H1572 C1558 0.961 . S
H1573 C1559 0.958 . S
H1574 C1559 0.961 . S
H1575 C1559 0.960 . S
C1576 C1577 1.391 . S
C1576 C1578 1.394 1_565 S
C1576 H1592 0.931 1_554 S
C1577 C1576 1.391 . S
C1577 C1581 1.376 . S
C1578 C1576 1.394 1_545 S
C1578 C1579 1.369 . S
C1578 C1582 1.531 1_554 S
C1579 C1578 1.369 . S
C1579 C1580 1.410 . S
C1579 C1587 1.503 . S
C1580 C1579 1.410 . S
C1580 C1581 1.392 1_545 S
C1580 C1583 1.511 . S
C1581 C1577 1.376 . S
C1581 C1580 1.392 1_565 S
C1581 H1593 0.929 . S
C1582 C1578 1.531 1_556 S
C1582 H1594 0.960 . S
C1582 H1595 0.962 . S
C1582 H1596 0.960 . S
C1583 C1580 1.511 . S
C1583 H1597 0.961 . S
C1583 H1598 0.961 . S
C1583 H1599 0.961 . S
C1584 C1585 1.370 . S
C1584 C1586 1.363 . S
C1584 H1600 0.931 . S
C1585 C1584 1.370 . S
C1585 C1589 1.408 . S
C1586 C1584 1.363 . S
C1586 C1587 1.370 . S
C1586 C1590 1.524 . S
C1587 C1579 1.503 . S
C1587 C1586 1.370 . S
C1587 C1588 1.403 . S
C1588 C1587 1.403 . S
C1588 C1589 1.404 . S
C1588 C1591 1.539 1_554 S
C1589 C1585 1.408 . S
C1589 C1588 1.404 . S
C1589 H1601 0.930 1_554 S
C1590 C1586 1.524 . S
C1590 H1602 0.956 . S
C1590 H1603 0.961 . S
C1590 H1604 0.961 . S
C1591 C1588 1.539 1_556 S
C1591 H1605 0.958 . S
C1591 H1606 0.961 . S
C1591 H1607 0.960 . S
H1592 C1576 0.931 1_556 S
H1593 C1581 0.929 . S
H1594 C1582 0.960 . S
H1595 C1582 0.962 . S
H1596 C1582 0.960 . S
H1597 C1583 0.961 . S
H1598 C1583 0.961 . S
H1599 C1583 0.961 . S
H1600 C1584 0.931 . S
H1601 C1589 0.930 1_556 S
H1602 C1590 0.956 . S
H1603 C1590 0.961 . S
H1604 C1590 0.961 . S
H1605 C1591 0.958 . S
H1606 C1591 0.961 . S
H1607 C1591 0.960 . S
C1608 C1609 1.391 . S
C1608 C1610 1.394 . S
C1608 H1624 0.931 . S
C1609 C1608 1.391 . S
C1609 C1613 1.376 . S
C1610 C1608 1.394 . S
C1610 C1611 1.369 . S
C1610 C1614 1.531 . S
C1611 C1610 1.369 . S
C1611 C1612 1.410 . S
C1611 C1619 1.503 . S
C1612 C1611 1.410 . S
C1612 C1613 1.392 . S
C1612 C1615 1.511 . S
C1613 C1609 1.376 . S
C1613 C1612 1.392 . S
C1613 H1625 0.929 . S
C1614 C1610 1.531 . S
C1614 H1626 0.960 . S
C1614 H1627 0.962 . S
C1614 H1628 0.960 . S
C1615 C1612 1.511 . S
C1615 H1629 0.961 . S
C1615 H1630 0.961 . S
C1615 H1631 0.961 . S
C1616 C1617 1.370 . S
C1616 C1618 1.363 . S
C1616 H1632 0.931 . S
C1617 C1616 1.370 . S
C1617 C1621 1.408 . S
C1618 C1616 1.363 . S
C1618 C1619 1.370 . S
C1618 C1622 1.524 . S
C1619 C1611 1.503 . S
C1619 C1618 1.370 . S
C1619 C1620 1.403 . S
C1620 C1619 1.403 . S
C1620 C1621 1.404 . S
C1620 C1623 1.539 . S
C1621 C1617 1.408 . S
C1621 C1620 1.404 . S
C1621 H1633 0.930 . S
C1622 C1618 1.524 . S
C1622 H1634 0.956 . S
C1622 H1635 0.961 . S
C1622 H1636 0.961 . S
C1623 C1620 1.539 . S
C1623 H1637 0.958 . S
C1623 H1638 0.961 . S
C1623 H1639 0.960 . S
H1624 C1608 0.931 . S
H1625 C1613 0.929 . S
H1626 C1614 0.960 . S
H1627 C1614 0.962 . S
H1628 C1614 0.960 . S
H1629 C1615 0.961 . S
H1630 C1615 0.961 . S
H1631 C1615 0.961 . S
H1632 C1616 0.931 . S
H1633 C1621 0.930 . S
H1634 C1622 0.956 . S
H1635 C1622 0.961 . S
H1636 C1622 0.961 . S
H1637 C1623 0.958 . S
H1638 C1623 0.961 . S
H1639 C1623 0.960 . S
C1640 C1641 1.391 . S
C1640 C1642 1.394 . S
C1640 H1656 0.931 . S
C1641 C1640 1.391 . S
C1641 C1645 1.376 1_556 S
C1642 C1640 1.394 . S
C1642 C1643 1.369 . S
C1642 C1646 1.531 . S
C1643 C1642 1.369 . S
C1643 C1644 1.410 1_556 S
C1643 C1651 1.503 . S
C1644 C1643 1.410 1_554 S
C1644 C1645 1.392 . S
C1644 C1647 1.511 . S
C1645 C1641 1.376 1_554 S
C1645 C1644 1.392 . S
C1645 H1657 0.929 . S
C1646 C1642 1.531 . S
C1646 H1658 0.960 . S
C1646 H1659 0.962 . S
C1646 H1660 0.960 . S
C1647 C1644 1.511 . S
C1647 H1661 0.961 . S
C1647 H1662 0.961 . S
C1647 H1663 0.961 . S
C1648 C1649 1.370 . S
C1648 C1650 1.363 . S
C1648 H1664 0.931 . S
C1649 C1648 1.370 . S
C1649 C1653 1.408 . S
C1650 C1648 1.363 . S
C1650 C1651 1.370 . S
C1650 C1654 1.524 . S
C1651 C1643 1.503 . S
C1651 C1650 1.370 . S
C1651 C1652 1.403 . S
C1652 C1651 1.403 . S
C1652 C1653 1.404 . S
C1652 C1655 1.539 . S
C1653 C1649 1.408 . S
C1653 C1652 1.404 . S
C1653 H1665 0.930 . S
C1654 C1650 1.524 . S
C1654 H1666 0.956 . S
C1654 H1667 0.961 . S
C1654 H1668 0.961 . S
C1655 C1652 1.539 . S
C1655 H1669 0.958 . S
C1655 H1670 0.961 1_556 S
C1655 H1671 0.960 1_556 S
H1656 C1640 0.931 . S
H1657 C1645 0.929 . S
H1658 C1646 0.960 . S
H1659 C1646 0.962 . S
H1660 C1646 0.960 . S
H1661 C1647 0.961 . S
H1662 C1647 0.961 . S
H1663 C1647 0.961 . S
H1664 C1648 0.931 . S
H1665 C1653 0.930 . S
H1666 C1654 0.956 . S
H1667 C1654 0.961 . S
H1668 C1654 0.961 . S
H1669 C1655 0.958 . S
H1670 C1655 0.961 1_554 S
H1671 C1655 0.960 1_554 S
C1672 C1673 1.391 . S
C1672 C1674 1.394 . S
C1672 H1688 0.931 . S
C1673 C1672 1.391 . S
C1673 C1677 1.376 . S
C1674 C1672 1.394 . S
C1674 C1675 1.369 . S
C1674 C1678 1.531 . S
C1675 C1674 1.369 . S
C1675 C1676 1.410 . S
C1675 C1683 1.503 . S
C1676 C1675 1.410 . S
C1676 C1677 1.392 . S
C1676 C1679 1.511 . S
C1677 C1673 1.376 . S
C1677 C1676 1.392 . S
C1677 H1689 0.929 . S
C1678 C1674 1.531 . S
C1678 H1690 0.960 . S
C1678 H1691 0.962 . S
C1678 H1692 0.960 . S
C1679 C1676 1.511 . S
C1679 H1693 0.961 . S
C1679 H1694 0.961 . S
C1679 H1695 0.961 . S
C1680 C1681 1.370 . S
C1680 C1682 1.363 . S
C1680 H1696 0.931 . S
C1681 C1680 1.370 . S
C1681 C1685 1.408 . S
C1682 C1680 1.363 . S
C1682 C1683 1.370 . S
C1682 C1686 1.524 . S
C1683 C1675 1.503 . S
C1683 C1682 1.370 . S
C1683 C1684 1.403 . S
C1684 C1683 1.403 . S
C1684 C1685 1.404 . S
C1684 C1687 1.539 . S
C1685 C1681 1.408 . S
C1685 C1684 1.404 . S
C1685 H1697 0.930 . S
C1686 C1682 1.524 . S
C1686 H1698 0.956 . S
C1686 H1699 0.961 . S
C1686 H1700 0.961 . S
C1687 C1684 1.539 . S
C1687 H1701 0.958 . S
C1687 H1702 0.961 . S
C1687 H1703 0.960 . S
H1688 C1672 0.931 . S
H1689 C1677 0.929 . S
H1690 C1678 0.960 . S
H1691 C1678 0.962 . S
H1692 C1678 0.960 . S
H1693 C1679 0.961 . S
H1694 C1679 0.961 . S
H1695 C1679 0.961 . S
H1696 C1680 0.931 . S
H1697 C1685 0.930 . S
H1698 C1686 0.956 . S
H1699 C1686 0.961 . S
H1700 C1686 0.961 . S
H1701 C1687 0.958 . S
H1702 C1687 0.961 . S
H1703 C1687 0.960 . S
C1704 C1705 1.391 . S
C1704 C1706 1.394 1_556 S
C1704 H1720 0.931 1_455 S
C1705 C1704 1.391 . S
C1705 C1709 1.363 1_556 S
C1706 C1704 1.394 1_554 S
C1706 C1707 1.369 . S
C1706 C1710 1.531 1_455 S
C1707 C1706 1.369 . S
C1707 C1708 1.410 . S
C1707 C1715 1.503 . S
C1708 C1707 1.410 . S
C1708 C1709 1.414 . S
C1708 C1711 1.511 . S
C1709 C1705 1.363 1_554 S
C1709 C1708 1.414 . S
C1709 H1721 0.919 1_554 S
C1710 C1706 1.531 1_655 S
C1710 H1722 0.960 . S
C1710 H1723 0.962 . S
C1710 H1724 0.960 . S
C1711 C1708 1.511 . S
C1711 H1725 0.961 . S
C1711 H1726 0.961 . S
C1711 H1727 0.961 . S
C1712 C1713 1.370 . S
C1712 C1714 1.363 . S
C1712 H1728 0.931 . S
C1713 C1712 1.370 . S
C1713 C1717 1.408 . S
C1714 C1712 1.363 . S
C1714 C1715 1.370 . S
C1714 C1718 1.524 . S
C1715 C1707 1.503 . S
C1715 C1714 1.370 . S
C1715 C1716 1.403 . S
C1716 C1715 1.403 . S
C1716 C1717 1.404 . S
C1716 C1719 1.539 . S
C1717 C1713 1.408 . S
C1717 C1716 1.404 . S
C1717 H1729 0.930 . S
C1718 C1714 1.524 . S
C1718 H1730 0.956 1_455 S
C1718 H1731 0.961 . S
C1718 H1732 0.961 . S
C1719 C1716 1.539 . S
C1719 H1733 0.958 . S
C1719 H1734 0.961 . S
C1719 H1735 0.960 . S
H1720 C1704 0.931 1_655 S
H1721 C1709 0.919 1_556 S
H1722 C1710 0.960 . S
H1723 C1710 0.962 . S
H1724 C1710 0.960 . S
H1725 C1711 0.961 . S
H1726 C1711 0.961 . S
H1727 C1711 0.961 . S
H1728 C1712 0.931 . S
H1729 C1717 0.930 . S
H1730 C1718 0.956 1_655 S
H1731 C1718 0.961 . S
H1732 C1718 0.961 . S
H1733 C1719 0.958 . S
H1734 C1719 0.961 . S
H1735 C1719 0.960 . S
C1736 C1737 1.391 . S
C1736 C1738 1.394 . S
C1736 H1752 0.931 . S
C1737 C1736 1.391 . S
C1737 C1741 1.376 . S
C1738 C1736 1.394 . S
C1738 C1739 1.369 . S
C1738 C1742 1.531 . S
C1739 C1738 1.369 . S
C1739 C1740 1.410 . S
C1739 C1747 1.503 . S
C1740 C1739 1.410 . S
C1740 C1741 1.392 . S
C1740 C1743 1.511 . S
C1741 C1737 1.376 . S
C1741 C1740 1.392 . S
C1741 H1753 0.929 . S
C1742 C1738 1.531 . S
C1742 H1754 0.960 . S
C1742 H1755 0.962 . S
C1742 H1756 0.960 . S
C1743 C1740 1.511 . S
C1743 H1757 0.961 . S
C1743 H1758 0.961 . S
C1743 H1759 0.961 . S
C1744 C1745 1.370 . S
C1744 C1746 1.363 . S
C1744 H1760 0.931 . S
C1745 C1744 1.370 . S
C1745 C1749 1.408 . S
C1746 C1744 1.363 . S
C1746 C1747 1.370 . S
C1746 C1750 1.524 . S
C1747 C1739 1.503 . S
C1747 C1746 1.370 . S
C1747 C1748 1.403 . S
C1748 C1747 1.403 . S
C1748 C1749 1.404 . S
C1748 C1751 1.539 . S
C1749 C1745 1.408 . S
C1749 C1748 1.404 . S
C1749 H1761 0.930 . S
C1750 C1746 1.524 . S
C1750 H1762 0.956 . S
C1750 H1763 0.961 . S
C1750 H1764 0.961 . S
C1751 C1748 1.539 . S
C1751 H1765 0.958 . S
C1751 H1766 0.961 . S
C1751 H1767 0.960 . S
H1752 C1736 0.931 . S
H1753 C1741 0.929 . S
H1754 C1742 0.960 . S
H1755 C1742 0.962 . S
H1756 C1742 0.960 . S
H1757 C1743 0.961 . S
H1758 C1743 0.961 . S
H1759 C1743 0.961 . S
H1760 C1744 0.931 . S
H1761 C1749 0.930 . S
H1762 C1750 0.956 . S
H1763 C1750 0.961 . S
H1764 C1750 0.961 . S
H1765 C1751 0.958 . S
H1766 C1751 0.961 . S
H1767 C1751 0.960 . S
C1768 C1769 1.391 . S
C1768 C1770 1.394 . S
C1768 H1784 0.931 . S
C1769 C1768 1.391 . S
C1769 C1773 1.376 . S
C1770 C1768 1.394 . S
C1770 C1771 1.369 . S
C1770 C1774 1.531 . S
C1771 C1770 1.369 . S
C1771 C1772 1.410 . S
C1771 C1779 1.503 . S
C1772 C1771 1.410 . S
C1772 C1773 1.392 . S
C1772 C1775 1.510 . S
C1773 C1769 1.376 . S
C1773 C1772 1.392 . S
C1773 H1785 0.929 1_655 S
C1774 C1770 1.531 . S
C1774 H1786 0.960 . S
C1774 H1787 0.962 . S
C1774 H1788 0.960 . S
C1775 C1772 1.510 . S
C1775 H1789 0.963 1_655 S
C1775 H1790 0.963 1_655 S
C1775 H1791 0.958 . S
C1776 C1777 1.370 . S
C1776 C1778 1.363 . S
C1776 H1792 0.931 1_655 S
C1777 C1776 1.370 . S
C1777 C1781 1.408 . S
C1778 C1776 1.363 . S
C1778 C1779 1.370 . S
C1778 C1782 1.524 1_655 S
C1779 C1771 1.503 . S
C1779 C1778 1.370 . S
C1779 C1780 1.403 . S
C1780 C1779 1.403 . S
C1780 C1781 1.404 . S
C1780 C1783 1.539 . S
C1781 C1777 1.408 . S
C1781 C1780 1.404 . S
C1781 H1793 0.930 . S
C1782 C1778 1.524 1_455 S
C1782 H1794 0.956 . S
C1782 H1795 0.961 . S
C1782 H1796 0.961 . S
C1783 C1780 1.539 . S
C1783 H1797 0.958 . S
C1783 H1798 0.961 . S
C1783 H1799 0.960 . S
H1784 C1768 0.931 . S
H1785 C1773 0.929 1_455 S
H1786 C1774 0.960 . S
H1787 C1774 0.962 . S
H1788 C1774 0.960 . S
H1789 C1775 0.963 1_455 S
H1790 C1775 0.963 1_455 S
H1791 C1775 0.958 . S
H1792 C1776 0.931 1_455 S
H1793 C1781 0.930 . S
H1794 C1782 0.956 . S
H1795 C1782 0.961 . S
H1796 C1782 0.961 . S
H1797 C1783 0.958 . S
H1798 C1783 0.961 . S
H1799 C1783 0.960 . S
C1800 C1801 1.391 . S
C1800 C1802 1.394 . S
C1800 H1816 0.931 . S
C1801 C1800 1.391 . S
C1801 C1805 1.376 . S
C1802 C1800 1.394 . S
C1802 C1803 1.369 . S
C1802 C1806 1.531 . S
C1803 C1802 1.369 . S
C1803 C1804 1.410 . S
C1803 C1811 1.503 . S
C1804 C1803 1.410 . S
C1804 C1805 1.392 . S
C1804 C1807 1.511 . S
C1805 C1801 1.376 . S
C1805 C1804 1.392 . S
C1805 H1817 0.929 . S
C1806 C1802 1.531 . S
C1806 H1818 0.960 . S
C1806 H1819 0.962 . S
C1806 H1820 0.960 . S
C1807 C1804 1.511 . S
C1807 H1821 0.961 . S
C1807 H1822 0.961 . S
C1807 H1823 0.961 . S
C1808 C1809 1.370 . S
C1808 C1810 1.363 . S
C1808 H1824 0.931 . S
C1809 C1808 1.370 . S
C1809 C1813 1.408 . S
C1810 C1808 1.363 . S
C1810 C1811 1.370 . S
C1810 C1814 1.524 . S
C1811 C1803 1.503 . S
C1811 C1810 1.370 . S
C1811 C1812 1.403 . S
C1812 C1811 1.403 . S
C1812 C1813 1.404 . S
C1812 C1815 1.539 . S
C1813 C1809 1.408 . S
C1813 C1812 1.404 . S
C1813 H1825 0.930 1_655 S
C1814 C1810 1.524 . S
C1814 H1826 0.956 . S
C1814 H1827 0.961 . S
C1814 H1828 0.961 . S
C1815 C1812 1.539 . S
C1815 H1829 0.958 . S
C1815 H1830 0.961 . S
C1815 H1831 0.960 . S
H1816 C1800 0.931 . S
H1817 C1805 0.929 . S
H1818 C1806 0.960 . S
H1819 C1806 0.962 . S
H1820 C1806 0.960 . S
H1821 C1807 0.961 . S
H1822 C1807 0.961 . S
H1823 C1807 0.961 . S
H1824 C1808 0.931 . S
H1825 C1813 0.930 1_455 S
H1826 C1814 0.956 . S
H1827 C1814 0.961 . S
H1828 C1814 0.961 . S
H1829 C1815 0.958 . S
H1830 C1815 0.961 . S
H1831 C1815 0.960 . S
C1832 C1833 1.391 . S
C1832 C1834 1.394 . S
C1832 H1848 0.931 . S
C1833 C1832 1.391 . S
C1833 C1837 1.376 . S
C1834 C1832 1.394 . S
C1834 C1835 1.369 . S
C1834 C1838 1.531 . S
C1835 C1834 1.369 . S
C1835 C1836 1.410 . S
C1835 C1843 1.503 . S
C1836 C1835 1.410 . S
C1836 C1837 1.392 . S
C1836 C1839 1.511 . S
C1837 C1833 1.376 . S
C1837 C1836 1.392 . S
C1837 H1849 0.929 . S
C1838 C1834 1.531 . S
C1838 H1850 0.960 . S
C1838 H1851 0.962 . S
C1838 H1852 0.960 . S
C1839 C1836 1.511 . S
C1839 H1853 0.961 . S
C1839 H1854 0.961 . S
C1839 H1855 0.961 . S
C1840 C1841 1.370 . S
C1840 C1842 1.363 . S
C1840 H1856 0.931 . S
C1841 C1840 1.370 . S
C1841 C1845 1.408 . S
C1842 C1840 1.363 . S
C1842 C1843 1.370 . S
C1842 C1846 1.524 . S
C1843 C1835 1.503 . S
C1843 C1842 1.370 . S
C1843 C1844 1.403 . S
C1844 C1843 1.403 . S
C1844 C1845 1.404 . S
C1844 C1847 1.539 . S
C1845 C1841 1.408 . S
C1845 C1844 1.404 . S
C1845 H1857 0.930 . S
C1846 C1842 1.524 . S
C1846 H1858 0.956 . S
C1846 H1859 0.961 . S
C1846 H1860 0.961 . S
C1847 C1844 1.539 . S
C1847 H1861 0.958 . S
C1847 H1862 0.961 . S
C1847 H1863 0.960 . S
H1848 C1832 0.931 . S
H1849 C1837 0.929 . S
H1850 C1838 0.960 . S
H1851 C1838 0.962 . S
H1852 C1838 0.960 . S
H1853 C1839 0.961 . S
H1854 C1839 0.961 . S
H1855 C1839 0.961 . S
H1856 C1840 0.931 . S
H1857 C1845 0.930 . S
H1858 C1846 0.956 . S
H1859 C1846 0.961 . S
H1860 C1846 0.961 . S
H1861 C1847 0.958 . S
H1862 C1847 0.961 . S
H1863 C1847 0.960 . S
C1864 C1865 1.391 . S
C1864 C1866 1.394 . S
C1864 H1880 0.931 1_545 S
C1865 C1864 1.391 . S
C1865 C1869 1.376 . S
C1866 C1864 1.394 . S
C1866 C1867 1.369 . S
C1866 C1870 1.531 1_545 S
C1867 C1866 1.369 . S
C1867 C1868 1.410 . S
C1867 C1875 1.503 . S
C1868 C1867 1.410 . S
C1868 C1869 1.392 . S
C1868 C1871 1.511 . S
C1869 C1865 1.376 . S
C1869 C1868 1.392 . S
C1869 H1881 0.929 . S
C1870 C1866 1.531 1_565 S
C1870 H1882 0.960 1_565 S
C1870 H1883 0.962 . S
C1870 H1884 0.960 . S
C1871 C1868 1.511 . S
C1871 H1885 0.961 . S
C1871 H1886 0.961 . S
C1871 H1887 0.961 . S
C1872 C1873 1.370 . S
C1872 C1874 1.363 . S
C1872 H1888 0.931 1_545 S
C1873 C1872 1.370 . S
C1873 C1877 1.408 . S
C1874 C1872 1.363 . S
C1874 C1875 1.370 . S
C1874 C1878 1.524 1_545 S
C1875 C1867 1.503 . S
C1875 C1874 1.370 . S
C1875 C1876 1.403 . S
C1876 C1875 1.403 . S
C1876 C1877 1.404 . S
C1876 C1879 1.539 . S
C1877 C1873 1.408 . S
C1877 C1876 1.404 . S
C1877 H1889 0.930 . S
C1878 C1874 1.524 1_565 S
C1878 H1890 0.956 . S
C1878 H1891 0.961 . S
C1878 H1892 0.961 . S
C1879 C1876 1.539 . S
C1879 H1893 0.958 . S
C1879 H1894 0.961 . S
C1879 H1895 0.960 . S
H1880 C1864 0.931 1_565 S
H1881 C1869 0.929 . S
H1882 C1870 0.960 1_545 S
H1883 C1870 0.962 . S
H1884 C1870 0.960 . S
H1885 C1871 0.961 . S
H1886 C1871 0.961 . S
H1887 C1871 0.961 . S
H1888 C1872 0.931 1_565 S
H1889 C1877 0.930 . S
H1890 C1878 0.956 . S
H1891 C1878 0.961 . S
H1892 C1878 0.961 . S
H1893 C1879 0.958 . S
H1894 C1879 0.961 . S
H1895 C1879 0.960 . S
C1896 C1897 1.391 . S
C1896 C1898 1.394 1_455 S
C1896 H1912 0.931 1_565 S
C1897 C1896 1.391 . S
C1897 C1901 1.370 1_455 S
C1898 C1896 1.394 1_655 S
C1898 C1899 1.369 . S
C1898 C1902 1.531 1_565 S
C1899 C1898 1.369 . S
C1899 C1900 1.410 . S
C1899 C1907 1.503 . S
C1900 C1899 1.410 . S
C1900 C1901 1.403 . S
C1900 C1903 1.511 . S
C1901 C1897 1.370 1_655 S
C1901 C1900 1.403 . S
C1901 H1913 0.924 1_655 S
C1902 C1898 1.531 1_545 S
C1902 H1914 0.960 . S
C1902 H1915 0.962 . S
C1902 H1916 0.960 . S
C1903 C1900 1.511 . S
C1903 H1917 0.961 . S
C1903 H1918 0.961 . S
C1903 H1919 0.961 . S
C1904 C1905 1.370 . S
C1904 C1906 1.363 . S
C1904 H1920 0.931 . S
C1905 C1904 1.370 . S
C1905 C1909 1.408 . S
C1906 C1904 1.363 . S
C1906 C1907 1.370 . S
C1906 C1910 1.524 . S
C1907 C1899 1.503 . S
C1907 C1906 1.370 . S
C1907 C1908 1.403 . S
C1908 C1907 1.403 . S
C1908 C1909 1.404 . S
C1908 C1911 1.539 . S
C1909 C1905 1.408 . S
C1909 C1908 1.404 . S
C1909 H1921 0.930 . S
C1910 C1906 1.524 . S
C1910 H1922 0.956 . S
C1910 H1923 0.961 . S
C1910 H1924 0.961 . S
C1911 C1908 1.539 . S
C1911 H1925 0.958 . S
C1911 H1926 0.961 . S
C1911 H1927 0.960 . S
H1912 C1896 0.931 1_545 S
H1913 C1901 0.924 1_455 S
H1914 C1902 0.960 . S
H1915 C1902 0.962 . S
H1916 C1902 0.960 . S
H1917 C1903 0.961 . S
H1918 C1903 0.961 . S
H1919 C1903 0.961 . S
H1920 C1904 0.931 . S
H1921 C1909 0.930 . S
H1922 C1910 0.956 . S
H1923 C1910 0.961 . S
H1924 C1910 0.961 . S
H1925 C1911 0.958 . S
H1926 C1911 0.961 . S
H1927 C1911 0.960 . S
C1928 C1929 1.391 . S
C1928 C1930 1.394 . S
C1928 H1944 0.931 . S
C1929 C1928 1.391 . S
C1929 C1933 1.376 . S
C1930 C1928 1.394 . S
C1930 C1931 1.369 . S
C1930 C1934 1.531 . S
C1931 C1930 1.369 . S
C1931 C1932 1.410 . S
C1931 C1939 1.503 . S
C1932 C1931 1.410 . S
C1932 C1933 1.392 . S
C1932 C1935 1.511 . S
C1933 C1929 1.376 . S
C1933 C1932 1.392 . S
C1933 H1945 0.929 . S
C1934 C1930 1.531 . S
C1934 H1946 0.960 . S
C1934 H1947 0.962 . S
C1934 H1948 0.960 . S
C1935 C1932 1.511 . S
C1935 H1949 0.961 . S
C1935 H1950 0.961 . S
C1935 H1951 0.961 . S
C1936 C1937 1.370 . S
C1936 C1938 1.363 . S
C1936 H1952 0.931 . S
C1937 C1936 1.370 . S
C1937 C1941 1.408 . S
C1938 C1936 1.363 . S
C1938 C1939 1.370 . S
C1938 C1942 1.524 . S
C1939 C1931 1.503 . S
C1939 C1938 1.370 . S
C1939 C1940 1.403 . S
C1940 C1939 1.403 . S
C1940 C1941 1.404 . S
C1940 C1943 1.539 . S
C1941 C1937 1.408 . S
C1941 C1940 1.404 . S
C1941 H1953 0.930 . S
C1942 C1938 1.524 . S
C1942 H1954 0.956 . S
C1942 H1955 0.961 . S
C1942 H1956 0.961 . S
C1943 C1940 1.539 . S
C1943 H1957 0.958 . S
C1943 H1958 0.961 . S
C1943 H1959 0.960 . S
H1944 C1928 0.931 . S
H1945 C1933 0.929 . S
H1946 C1934 0.960 . S
H1947 C1934 0.962 . S
H1948 C1934 0.960 . S
H1949 C1935 0.961 . S
H1950 C1935 0.961 . S
H1951 C1935 0.961 . S
H1952 C1936 0.931 . S
H1953 C1941 0.930 . S
H1954 C1942 0.956 . S
H1955 C1942 0.961 . S
H1956 C1942 0.961 . S
H1957 C1943 0.958 . S
H1958 C1943 0.961 . S
H1959 C1943 0.960 . S
C1960 C1961 1.380 1_565 S
C1960 C1962 1.414 . S
C1960 H1976 0.922 1_565 S
C1961 C1960 1.380 1_545 S
C1961 C1965 1.376 . S
C1962 C1960 1.414 . S
C1962 C1963 1.369 . S
C1962 C1966 1.531 . S
C1963 C1962 1.369 . S
C1963 C1964 1.410 . S
C1963 C1971 1.503 . S
C1964 C1963 1.410 . S
C1964 C1965 1.392 1_565 S
C1964 C1967 1.511 1_556 S
C1965 C1961 1.376 . S
C1965 C1964 1.392 1_545 S
C1965 H1977 0.929 1_556 S
C1966 C1962 1.531 . S
C1966 H1978 0.960 . S
C1966 H1979 0.962 . S
C1966 H1980 0.960 . S
C1967 C1964 1.511 1_554 S
C1967 H1981 0.961 . S
C1967 H1982 0.961 . S
C1967 H1983 0.961 . S
C1968 C1969 1.370 . S
C1968 C1970 1.363 . S
C1968 H1984 0.931 . S
C1969 C1968 1.370 . S
C1969 C1973 1.408 . S
C1970 C1968 1.363 . S
C1970 C1971 1.370 . S
C1970 C1974 1.524 . S
C1971 C1963 1.503 . S
C1971 C1970 1.370 . S
C1971 C1972 1.403 . S
C1972 C1971 1.403 . S
C1972 C1973 1.404 . S
C1972 C1975 1.539 . S
C1973 C1969 1.408 . S
C1973 C1972 1.404 . S
C1973 H1985 0.930 . S
C1974 C1970 1.524 . S
C1974 H1986 0.956 . S
C1974 H1987 0.961 1_556 S
C1974 H1988 0.961 1_556 S
C1975 C1972 1.539 . S
C1975 H1989 0.958 . S
C1975 H1990 0.961 . S
C1975 H1991 0.960 . S
H1976 C1960 0.922 1_545 S
H1977 C1965 0.929 1_554 S
H1978 C1966 0.960 . S
H1979 C1966 0.962 . S
H1980 C1966 0.960 . S
H1981 C1967 0.961 . S
H1982 C1967 0.961 . S
H1983 C1967 0.961 . S
H1984 C1968 0.931 . S
H1985 C1973 0.930 . S
H1986 C1974 0.956 . S
H1987 C1974 0.961 1_554 S
H1988 C1974 0.961 1_554 S
H1989 C1975 0.958 . S
H1990 C1975 0.961 . S
H1991 C1975 0.960 . S
C1992 C1993 1.391 . S
C1992 C1994 1.394 . S
C1992 H2008 0.931 . S
C1993 C1992 1.391 . S
C1993 C1997 1.376 . S
C1994 C1992 1.394 . S
C1994 C1995 1.369 . S
C1994 C1998 1.531 . S
C1995 C1994 1.369 . S
C1995 C1996 1.410 . S
C1995 C2003 1.503 . S
C1996 C1995 1.410 . S
C1996 C1997 1.392 . S
C1996 C1999 1.511 . S
C1997 C1993 1.376 . S
C1997 C1996 1.392 . S
C1997 H2009 0.929 . S
C1998 C1994 1.531 . S
C1998 H2010 0.960 . S
C1998 H2011 0.962 . S
C1998 H2012 0.960 . S
C1999 C1996 1.511 . S
C1999 H2013 0.961 . S
C1999 H2014 0.961 . S
C1999 H2015 0.961 . S
C2000 C2001 1.370 . S
C2000 C2002 1.363 . S
C2000 H2016 0.931 . S
C2001 C2000 1.370 . S
C2001 C2005 1.408 . S
C2002 C2000 1.363 . S
C2002 C2003 1.370 . S
C2002 C2006 1.524 . S
C2003 C1995 1.503 . S
C2003 C2002 1.370 . S
C2003 C2004 1.403 . S
C2004 C2003 1.403 . S
C2004 C2005 1.404 . S
C2004 C2007 1.539 . S
C2005 C2001 1.408 . S
C2005 C2004 1.404 . S
C2005 H2017 0.930 . S
C2006 C2002 1.524 . S
C2006 H2018 0.956 . S
C2006 H2019 0.961 . S
C2006 H2020 0.961 . S
C2007 C2004 1.539 . S
C2007 H2021 0.958 . S
C2007 H2022 0.961 . S
C2007 H2023 0.960 . S
H2008 C1992 0.931 . S
H2009 C1997 0.929 . S
H2010 C1998 0.960 . S
H2011 C1998 0.962 . S
H2012 C1998 0.960 . S
H2013 C1999 0.961 . S
H2014 C1999 0.961 . S
H2015 C1999 0.961 . S
H2016 C2000 0.931 . S
H2017 C2005 0.930 . S
H2018 C2006 0.956 . S
H2019 C2006 0.961 . S
H2020 C2006 0.961 . S
H2021 C2007 0.958 . S
H2022 C2007 0.961 . S
H2023 C2007 0.960 . S
C2024 C2025 1.391 . S
C2024 C2026 1.394 . S
C2024 H2040 0.931 1_554 S
C2025 C2024 1.391 . S
C2025 C2029 1.376 . S
C2026 C2024 1.394 . S
C2026 C2027 1.369 . S
C2026 C2030 1.531 1_554 S
C2027 C2026 1.369 . S
C2027 C2028 1.410 . S
C2027 C2035 1.503 . S
C2028 C2027 1.410 . S
C2028 C2029 1.392 . S
C2028 C2031 1.511 . S
C2029 C2025 1.376 . S
C2029 C2028 1.392 . S
C2029 H2041 0.929 . S
C2030 C2026 1.531 1_556 S
C2030 H2042 0.960 . S
C2030 H2043 0.962 1_556 S
C2030 H2044 0.960 . S
C2031 C2028 1.511 . S
C2031 H2045 0.961 . S
C2031 H2046 0.961 . S
C2031 H2047 0.961 . S
C2032 C2033 1.370 . S
C2032 C2034 1.363 . S
C2032 H2048 0.931 . S
C2033 C2032 1.370 . S
C2033 C2037 1.386 1_554 S
C2034 C2032 1.363 . S
C2034 C2035 1.370 . S
C2034 C2038 1.524 . S
C2035 C2027 1.503 . S
C2035 C2034 1.370 . S
C2035 C2036 1.403 1_554 S
C2036 C2035 1.403 1_556 S
C2036 C2037 1.406 . S
C2036 C2039 1.539 . S
C2037 C2033 1.386 1_556 S
C2037 C2036 1.406 . S
C2037 H2049 0.950 . S
C2038 C2034 1.524 . S
C2038 H2050 0.956 . S
C2038 H2051 0.961 . S
C2038 H2052 0.961 . S
C2039 C2036 1.539 . S
C2039 H2053 0.958 . S
C2039 H2054 0.961 . S
C2039 H2055 0.960 . S
H2040 C2024 0.931 1_556 S
H2041 C2029 0.929 . S
H2042 C2030 0.960 . S
H2043 C2030 0.962 1_554 S
H2044 C2030 0.960 . S
H2045 C2031 0.961 . S
H2046 C2031 0.961 . S
H2047 C2031 0.961 . S
H2048 C2032 0.931 . S
H2049 C2037 0.950 . S
H2050 C2038 0.956 . S
H2051 C2038 0.961 . S
H2052 C2038 0.961 . S
H2053 C2039 0.958 . S
H2054 C2039 0.961 . S
H2055 C2039 0.960 . S
C2056 C2057 1.391 . S
C2056 C2058 1.394 . S
C2056 H2072 0.931 . S
C2057 C2056 1.391 . S
C2057 C2061 1.376 . S
C2058 C2056 1.394 . S
C2058 C2059 1.369 . S
C2058 C2062 1.531 . S
C2059 C2058 1.369 . S
C2059 C2060 1.410 . S
C2059 C2067 1.503 . S
C2060 C2059 1.410 . S
C2060 C2061 1.392 . S
C2060 C2063 1.511 . S
C2061 C2057 1.376 . S
C2061 C2060 1.392 . S
C2061 H2073 0.929 . S
C2062 C2058 1.531 . S
C2062 H2074 0.960 . S
C2062 H2075 0.962 . S
C2062 H2076 0.960 . S
C2063 C2060 1.511 . S
C2063 H2077 0.961 . S
C2063 H2078 0.961 . S
C2063 H2079 0.961 . S
C2064 C2065 1.370 . S
C2064 C2066 1.363 . S
C2064 H2080 0.931 . S
C2065 C2064 1.370 . S
C2065 C2069 1.408 . S
C2066 C2064 1.363 . S
C2066 C2067 1.370 . S
C2066 C2070 1.524 . S
C2067 C2059 1.503 . S
C2067 C2066 1.370 . S
C2067 C2068 1.403 . S
C2068 C2067 1.403 . S
C2068 C2069 1.404 . S
C2068 C2071 1.539 . S
C2069 C2065 1.408 . S
C2069 C2068 1.404 . S
C2069 H2081 0.930 1_556 S
C2070 C2066 1.524 . S
C2070 H2082 0.956 . S
C2070 H2083 0.961 . S
C2070 H2084 0.961 . S
C2071 C2068 1.539 . S
C2071 H2085 0.958 . S
C2071 H2086 0.961 . S
C2071 H2087 0.960 . S
H2072 C2056 0.931 . S
H2073 C2061 0.929 . S
H2074 C2062 0.960 . S
H2075 C2062 0.962 . S
H2076 C2062 0.960 . S
H2077 C2063 0.961 . S
H2078 C2063 0.961 . S
H2079 C2063 0.961 . S
H2080 C2064 0.931 . S
H2081 C2069 0.930 1_554 S
H2082 C2070 0.956 . S
H2083 C2070 0.961 . S
H2084 C2070 0.961 . S
H2085 C2071 0.958 . S
H2086 C2071 0.961 . S
H2087 C2071 0.960 . S
C2088 C2089 1.391 . S
C2088 C2090 1.394 1_554 S
C2088 H2104 0.931 1_655 S
C2089 C2088 1.391 . S
C2089 C2093 1.407 . S
C2090 C2088 1.394 1_556 S
C2090 C2091 1.369 . S
C2090 C2094 1.531 1_655 S
C2091 C2090 1.369 . S
C2091 C2092 1.410 . S
C2091 C2099 1.503 . S
C2092 C2091 1.410 . S
C2092 C2093 1.337 1_556 S
C2092 C2095 1.511 . S
C2093 C2089 1.407 . S
C2093 C2092 1.337 1_554 S
C2093 H2105 0.956 . S
C2094 C2090 1.531 1_455 S
C2094 H2106 0.960 . S
C2094 H2107 0.962 . S
C2094 H2108 0.960 . S
C2095 C2092 1.511 . S
C2095 H2109 0.961 . S
C2095 H2110 0.961 . S
C2095 H2111 0.961 . S
C2096 C2097 1.370 . S
C2096 C2098 1.363 . S
C2096 H2112 0.931 . S
C2097 C2096 1.370 . S
C2097 C2101 1.408 . S
C2098 C2096 1.363 . S
C2098 C2099 1.370 . S
C2098 C2102 1.524 . S
C2099 C2091 1.503 . S
C2099 C2098 1.370 . S
C2099 C2100 1.403 . S
C2100 C2099 1.403 . S
C2100 C2101 1.404 . S
C2100 C2103 1.539 . S
C2101 C2097 1.408 . S
C2101 C2100 1.404 . S
C2101 H2113 0.930 . S
C2102 C2098 1.524 . S
C2102 H2114 0.956 1_655 S
C2102 H2115 0.961 . S
C2102 H2116 0.946 1_655 S
C2103 C2100 1.539 . S
C2103 H2117 0.958 . S
C2103 H2118 0.961 . S
C2103 H2119 0.960 . S
H2104 C2088 0.931 1_455 S
H2105 C2093 0.956 . S
H2106 C2094 0.960 . S
H2107 C2094 0.962 . S
H2108 C2094 0.960 . S
H2109 C2095 0.961 . S
H2110 C2095 0.961 . S
H2111 C2095 0.961 . S
H2112 C2096 0.931 . S
H2113 C2101 0.930 . S
H2114 C2102 0.956 1_455 S
H2115 C2102 0.961 . S
H2116 C2102 0.946 1_455 S
H2117 C2103 0.958 . S
H2118 C2103 0.961 . S
H2119 C2103 0.960 . S
C2120 C2121 1.391 . S
C2120 C2122 1.394 . S
C2120 H2136 0.931 . S
C2121 C2120 1.391 . S
C2121 C2125 1.376 . S
C2122 C2120 1.394 . S
C2122 C2123 1.369 . S
C2122 C2126 1.531 . S
C2123 C2122 1.369 . S
C2123 C2124 1.410 . S
C2123 C2131 1.503 . S
C2124 C2123 1.410 . S
C2124 C2125 1.392 . S
C2124 C2127 1.511 . S
C2125 C2121 1.376 . S
C2125 C2124 1.392 . S
C2125 H2137 0.929 . S
C2126 C2122 1.531 . S
C2126 H2138 0.960 . S
C2126 H2139 0.962 . S
C2126 H2140 0.960 . S
C2127 C2124 1.511 . S
C2127 H2141 0.961 . S
C2127 H2142 0.961 . S
C2127 H2143 0.961 . S
C2128 C2129 1.370 . S
C2128 C2130 1.363 . S
C2128 H2144 0.931 . S
C2129 C2128 1.370 . S
C2129 C2133 1.408 . S
C2130 C2128 1.363 . S
C2130 C2131 1.370 . S
C2130 C2134 1.524 . S
C2131 C2123 1.503 . S
C2131 C2130 1.370 . S
C2131 C2132 1.403 . S
C2132 C2131 1.403 . S
C2132 C2133 1.404 . S
C2132 C2135 1.539 . S
C2133 C2129 1.408 . S
C2133 C2132 1.404 . S
C2133 H2145 0.930 . S
C2134 C2130 1.524 . S
C2134 H2146 0.956 . S
C2134 H2147 0.961 . S
C2134 H2148 0.961 . S
C2135 C2132 1.539 . S
C2135 H2149 0.958 . S
C2135 H2150 0.961 . S
C2135 H2151 0.960 . S
H2136 C2120 0.931 . S
H2137 C2125 0.929 . S
H2138 C2126 0.960 . S
H2139 C2126 0.962 . S
H2140 C2126 0.960 . S
H2141 C2127 0.961 . S
H2142 C2127 0.961 . S
H2143 C2127 0.961 . S
H2144 C2128 0.931 . S
H2145 C2133 0.930 . S
H2146 C2134 0.956 . S
H2147 C2134 0.961 . S
H2148 C2134 0.961 . S
H2149 C2135 0.958 . S
H2150 C2135 0.961 . S
H2151 C2135 0.960 . S
C2152 C2153 1.391 . S
C2152 C2154 1.394 . S
C2152 H2168 0.931 . S
C2153 C2152 1.391 . S
C2153 C2157 1.376 1_455 S
C2154 C2152 1.394 . S
C2154 C2155 1.369 . S
C2154 C2158 1.531 . S
C2155 C2154 1.369 . S
C2155 C2156 1.410 1_455 S
C2155 C2163 1.503 . S
C2156 C2155 1.410 1_655 S
C2156 C2157 1.392 . S
C2156 C2159 1.511 . S
C2157 C2153 1.376 1_655 S
C2157 C2156 1.392 . S
C2157 H2169 0.929 . S
C2158 C2154 1.531 . S
C2158 H2170 0.960 . S
C2158 H2171 0.962 . S
C2158 H2172 0.960 . S
C2159 C2156 1.511 . S
C2159 H2173 0.961 . S
C2159 H2174 0.961 . S
C2159 H2175 0.961 . S
C2160 C2161 1.370 . S
C2160 C2162 1.363 . S
C2160 H2176 0.931 . S
C2161 C2160 1.370 . S
C2161 C2165 1.408 . S
C2162 C2160 1.363 . S
C2162 C2163 1.370 . S
C2162 C2166 1.524 . S
C2163 C2155 1.503 . S
C2163 C2162 1.370 . S
C2163 C2164 1.403 . S
C2164 C2163 1.403 . S
C2164 C2165 1.404 . S
C2164 C2167 1.562 . S
C2165 C2161 1.408 . S
C2165 C2164 1.404 . S
C2165 H2177 0.930 . S
C2166 C2162 1.524 . S
C2166 H2178 0.956 . S
C2166 H2179 0.961 . S
C2166 H2180 0.961 . S
C2167 C2164 1.562 . S
C2167 H2181 0.992 . S
C2167 H2182 0.926 1_455 S
C2167 H2183 0.941 1_455 S
H2168 C2152 0.931 . S
H2169 C2157 0.929 . S
H2170 C2158 0.960 . S
H2171 C2158 0.962 . S
H2172 C2158 0.960 . S
H2173 C2159 0.961 . S
H2174 C2159 0.961 . S
H2175 C2159 0.961 . S
H2176 C2160 0.931 . S
H2177 C2165 0.930 . S
H2178 C2166 0.956 . S
H2179 C2166 0.961 . S
H2180 C2166 0.961 . S
H2181 C2167 0.992 . S
H2182 C2167 0.926 1_655 S
H2183 C2167 0.941 1_655 S
C2184 C2185 1.391 . S
C2184 C2186 1.394 . S
C2184 H2200 0.931 . S
C2185 C2184 1.391 . S
C2185 C2189 1.376 . S
C2186 C2184 1.394 . S
C2186 C2187 1.369 . S
C2186 C2190 1.531 . S
C2187 C2186 1.369 . S
C2187 C2188 1.410 . S
C2187 C2195 1.503 . S
C2188 C2187 1.410 . S
C2188 C2189 1.392 . S
C2188 C2191 1.511 . S
C2189 C2185 1.376 . S
C2189 C2188 1.392 . S
C2189 H2201 0.929 . S
C2190 C2186 1.531 . S
C2190 H2202 0.960 . S
C2190 H2203 0.962 . S
C2190 H2204 0.960 . S
C2191 C2188 1.511 . S
C2191 H2205 0.961 . S
C2191 H2206 0.961 . S
C2191 H2207 0.961 . S
C2192 C2193 1.370 . S
C2192 C2194 1.363 . S
C2192 H2208 0.931 . S
C2193 C2192 1.370 . S
C2193 C2197 1.408 . S
C2194 C2192 1.363 . S
C2194 C2195 1.370 . S
C2194 C2198 1.524 . S
C2195 C2187 1.503 . S
C2195 C2194 1.370 . S
C2195 C2196 1.403 . S
C2196 C2195 1.403 . S
C2196 C2197 1.404 . S
C2196 C2199 1.539 . S
C2197 C2193 1.408 . S
C2197 C2196 1.404 . S
C2197 H2209 0.930 . S
C2198 C2194 1.524 . S
C2198 H2210 0.956 . S
C2198 H2211 0.961 . S
C2198 H2212 0.961 . S
C2199 C2196 1.539 . S
C2199 H2213 0.958 . S
C2199 H2214 0.961 . S
C2199 H2215 0.960 . S
H2200 C2184 0.931 . S
H2201 C2189 0.929 . S
H2202 C2190 0.960 . S
H2203 C2190 0.962 . S
H2204 C2190 0.960 . S
H2205 C2191 0.961 . S
H2206 C2191 0.961 . S
H2207 C2191 0.961 . S
H2208 C2192 0.931 . S
H2209 C2197 0.930 . S
H2210 C2198 0.956 . S
H2211 C2198 0.961 . S
H2212 C2198 0.961 . S
H2213 C2199 0.958 . S
H2214 C2199 0.961 . S
H2215 C2199 0.960 . S
C2216 C2217 1.391 . S
C2216 C2218 1.394 . S
C2216 H2232 0.931 . S
C2217 C2216 1.391 . S
C2217 C2221 1.376 . S
C2218 C2216 1.394 . S
C2218 C2219 1.369 . S
C2218 C2222 1.531 . S
C2219 C2218 1.369 . S
C2219 C2220 1.410 . S
C2219 C2227 1.503 . S
C2220 C2219 1.410 . S
C2220 C2221 1.392 . S
C2220 C2223 1.511 . S
C2221 C2217 1.376 . S
C2221 C2220 1.392 . S
C2221 H2233 0.929 . S
C2222 C2218 1.531 . S
C2222 H2234 0.960 . S
C2222 H2235 0.962 . S
C2222 H2236 0.960 . S
C2223 C2220 1.511 . S
C2223 H2237 0.961 . S
C2223 H2238 0.961 . S
C2223 H2239 0.961 . S
C2224 C2225 1.370 . S
C2224 C2226 1.363 . S
C2224 H2240 0.931 . S
C2225 C2224 1.370 . S
C2225 C2229 1.408 . S
C2226 C2224 1.363 . S
C2226 C2227 1.370 . S
C2226 C2230 1.524 . S
C2227 C2219 1.503 . S
C2227 C2226 1.370 . S
C2227 C2228 1.403 . S
C2228 C2227 1.403 . S
C2228 C2229 1.404 . S
C2228 C2231 1.539 . S
C2229 C2225 1.408 . S
C2229 C2228 1.404 . S
C2229 H2241 0.930 . S
C2230 C2226 1.524 . S
C2230 H2242 0.956 . S
C2230 H2243 0.961 . S
C2230 H2244 0.961 . S
C2231 C2228 1.539 . S
C2231 H2245 0.958 . S
C2231 H2246 0.961 . S
C2231 H2247 0.960 . S
H2232 C2216 0.931 . S
H2233 C2221 0.929 . S
H2234 C2222 0.960 . S
H2235 C2222 0.962 . S
H2236 C2222 0.960 . S
H2237 C2223 0.961 . S
H2238 C2223 0.961 . S
H2239 C2223 0.961 . S
H2240 C2224 0.931 . S
H2241 C2229 0.930 . S
H2242 C2230 0.956 . S
H2243 C2230 0.961 . S
H2244 C2230 0.961 . S
H2245 C2231 0.958 . S
H2246 C2231 0.961 . S
H2247 C2231 0.960 . S
C2248 C2249 1.391 . S
C2248 C2250 1.394 . S
C2248 H2264 0.931 . S
C2249 C2248 1.391 . S
C2249 C2253 1.376 . S
C2250 C2248 1.394 . S
C2250 C2251 1.369 . S
C2250 C2254 1.531 . S
C2251 C2250 1.369 . S
C2251 C2252 1.410 . S
C2251 C2259 1.503 . S
C2252 C2251 1.410 . S
C2252 C2253 1.392 . S
C2252 C2255 1.511 . S
C2253 C2249 1.376 . S
C2253 C2252 1.392 . S
C2253 H2265 0.929 . S
C2254 C2250 1.531 . S
C2254 H2266 0.960 . S
C2254 H2267 0.962 . S
C2254 H2268 0.960 . S
C2255 C2252 1.511 . S
C2255 H2269 0.961 . S
C2255 H2270 0.961 . S
C2255 H2271 0.961 . S
C2256 C2257 1.370 . S
C2256 C2258 1.363 . S
C2256 H2272 0.931 . S
C2257 C2256 1.370 . S
C2257 C2261 1.408 . S
C2258 C2256 1.363 . S
C2258 C2259 1.370 . S
C2258 C2262 1.524 . S
C2259 C2251 1.503 . S
C2259 C2258 1.370 . S
C2259 C2260 1.403 . S
C2260 C2259 1.403 . S
C2260 C2261 1.404 . S
C2260 C2263 1.539 . S
C2261 C2257 1.408 . S
C2261 C2260 1.404 . S
C2261 H2273 0.930 . S
C2262 C2258 1.524 . S
C2262 H2274 0.956 . S
C2262 H2275 0.961 1_545 S
C2262 H2276 0.961 1_545 S
C2263 C2260 1.539 . S
C2263 H2277 0.958 . S
C2263 H2278 0.961 . S
C2263 H2279 0.960 . S
H2264 C2248 0.931 . S
H2265 C2253 0.929 . S
H2266 C2254 0.960 . S
H2267 C2254 0.962 . S
H2268 C2254 0.960 . S
H2269 C2255 0.961 . S
H2270 C2255 0.961 . S
H2271 C2255 0.961 . S
H2272 C2256 0.931 . S
H2273 C2261 0.930 . S
H2274 C2262 0.956 . S
H2275 C2262 0.961 1_565 S
H2276 C2262 0.961 1_565 S
H2277 C2263 0.958 . S
H2278 C2263 0.961 . S
H2279 C2263 0.960 . S
C2280 C2281 1.391 . S
C2280 C2282 1.394 . S
C2280 H2296 0.931 . S
C2281 C2280 1.391 . S
C2281 C2285 1.376 . S
C2282 C2280 1.394 . S
C2282 C2283 1.369 . S
C2282 C2286 1.531 . S
C2283 C2282 1.369 . S
C2283 C2284 1.410 . S
C2283 C2291 1.503 . S
C2284 C2283 1.410 . S
C2284 C2285 1.392 . S
C2284 C2287 1.511 . S
C2285 C2281 1.376 . S
C2285 C2284 1.392 . S
C2285 H2297 0.929 . S
C2286 C2282 1.531 . S
C2286 H2298 0.960 . S
C2286 H2299 0.962 . S
C2286 H2300 0.960 . S
C2287 C2284 1.511 . S
C2287 H2301 0.961 . S
C2287 H2302 0.961 . S
C2287 H2303 0.961 . S
C2288 C2289 1.370 . S
C2288 C2290 1.363 . S
C2288 H2304 0.931 . S
C2289 C2288 1.370 . S
C2289 C2293 1.408 . S
C2290 C2288 1.363 . S
C2290 C2291 1.370 . S
C2290 C2294 1.524 . S
C2291 C2283 1.503 . S
C2291 C2290 1.370 . S
C2291 C2292 1.403 . S
C2292 C2291 1.403 . S
C2292 C2293 1.404 . S
C2292 C2295 1.539 . S
C2293 C2289 1.408 . S
C2293 C2292 1.404 . S
C2293 H2305 0.930 . S
C2294 C2290 1.524 . S
C2294 H2306 0.956 . S
C2294 H2307 0.961 . S
C2294 H2308 0.961 . S
C2295 C2292 1.539 . S
C2295 H2309 0.958 . S
C2295 H2310 0.961 . S
C2295 H2311 0.960 . S
H2296 C2280 0.931 . S
H2297 C2285 0.929 . S
H2298 C2286 0.960 . S
H2299 C2286 0.962 . S
H2300 C2286 0.960 . S
H2301 C2287 0.961 . S
H2302 C2287 0.961 . S
H2303 C2287 0.961 . S
H2304 C2288 0.931 . S
H2305 C2293 0.930 . S
H2306 C2294 0.956 . S
H2307 C2294 0.961 . S
H2308 C2294 0.961 . S
H2309 C2295 0.958 . S
H2310 C2295 0.961 . S
H2311 C2295 0.960 . S
C2312 C2313 1.391 . S
C2312 C2314 1.394 . S
C2312 H2328 0.931 . S
C2313 C2312 1.391 . S
C2313 C2317 1.376 . S
C2314 C2312 1.394 . S
C2314 C2315 1.369 . S
C2314 C2318 1.531 . S
C2315 C2314 1.369 . S
C2315 C2316 1.410 . S
C2315 C2323 1.503 . S
C2316 C2315 1.410 . S
C2316 C2317 1.392 . S
C2316 C2319 1.511 . S
C2317 C2313 1.376 . S
C2317 C2316 1.392 . S
C2317 H2329 0.929 . S
C2318 C2314 1.531 . S
C2318 H2330 0.960 . S
C2318 H2331 0.962 . S
C2318 H2332 0.960 . S
C2319 C2316 1.511 . S
C2319 H2333 0.961 . S
C2319 H2334 0.961 . S
C2319 H2335 0.961 . S
C2320 C2321 1.370 . S
C2320 C2322 1.363 . S
C2320 H2336 0.931 . S
C2321 C2320 1.370 . S
C2321 C2325 1.408 . S
C2322 C2320 1.363 . S
C2322 C2323 1.370 . S
C2322 C2326 1.524 . S
C2323 C2315 1.503 . S
C2323 C2322 1.370 . S
C2323 C2324 1.403 . S
C2324 C2323 1.403 . S
C2324 C2325 1.404 . S
C2324 C2327 1.539 . S
C2325 C2321 1.408 . S
C2325 C2324 1.404 . S
C2325 H2337 0.930 . S
C2326 C2322 1.524 . S
C2326 H2338 0.956 . S
C2326 H2339 0.961 . S
C2326 H2340 0.961 . S
C2327 C2324 1.539 . S
C2327 H2341 0.958 . S
C2327 H2342 0.961 . S
C2327 H2343 0.960 . S
H2328 C2312 0.931 . S
H2329 C2317 0.929 . S
H2330 C2318 0.960 . S
H2331 C2318 0.962 . S
H2332 C2318 0.960 . S
H2333 C2319 0.961 . S
H2334 C2319 0.961 . S
H2335 C2319 0.961 . S
H2336 C2320 0.931 . S
H2337 C2325 0.930 . S
H2338 C2326 0.956 . S
H2339 C2326 0.961 . S
H2340 C2326 0.961 . S
H2341 C2327 0.958 . S
H2342 C2327 0.961 . S
H2343 C2327 0.960 . S
C2344 C2345 1.391 . S
C2344 C2346 1.394 . S
C2344 H2360 0.931 . S
C2345 C2344 1.391 . S
C2345 C2349 1.376 . S
C2346 C2344 1.394 . S
C2346 C2347 1.369 . S
C2346 C2350 1.531 . S
C2347 C2346 1.369 . S
C2347 C2348 1.410 . S
C2347 C2355 1.503 . S
C2348 C2347 1.410 . S
C2348 C2349 1.392 . S
C2348 C2351 1.511 . S
C2349 C2345 1.376 . S
C2349 C2348 1.392 . S
C2349 H2361 0.929 . S
C2350 C2346 1.531 . S
C2350 H2362 0.960 . S
C2350 H2363 0.962 . S
C2350 H2364 0.960 . S
C2351 C2348 1.511 . S
C2351 H2365 0.961 . S
C2351 H2366 0.961 . S
C2351 H2367 0.961 . S
C2352 C2353 1.370 . S
C2352 C2354 1.363 . S
C2352 H2368 0.931 . S
C2353 C2352 1.370 . S
C2353 C2357 1.408 . S
C2354 C2352 1.363 . S
C2354 C2355 1.370 . S
C2354 C2358 1.524 . S
C2355 C2347 1.503 . S
C2355 C2354 1.370 . S
C2355 C2356 1.403 . S
C2356 C2355 1.403 . S
C2356 C2357 1.404 . S
C2356 C2359 1.539 . S
C2357 C2353 1.408 . S
C2357 C2356 1.404 . S
C2357 H2369 0.930 . S
C2358 C2354 1.524 . S
C2358 H2370 0.956 . S
C2358 H2371 0.961 . S
C2358 H2372 0.961 . S
C2359 C2356 1.539 . S
C2359 H2373 0.958 . S
C2359 H2374 0.961 . S
C2359 H2375 0.960 . S
H2360 C2344 0.931 . S
H2361 C2349 0.929 . S
H2362 C2350 0.960 . S
H2363 C2350 0.962 . S
H2364 C2350 0.960 . S
H2365 C2351 0.961 . S
H2366 C2351 0.961 . S
H2367 C2351 0.961 . S
H2368 C2352 0.931 . S
H2369 C2357 0.930 . S
H2370 C2358 0.956 . S
H2371 C2358 0.961 . S
H2372 C2358 0.961 . S
H2373 C2359 0.958 . S
H2374 C2359 0.961 . S
H2375 C2359 0.960 . S
C2376 C2377 1.391 . S
C2376 C2378 1.394 . S
C2376 H2392 0.931 . S
C2377 C2376 1.391 . S
C2377 C2381 1.376 . S
C2378 C2376 1.394 . S
C2378 C2379 1.369 . S
C2378 C2382 1.531 . S
C2379 C2378 1.369 . S
C2379 C2380 1.410 . S
C2379 C2387 1.503 . S
C2380 C2379 1.410 . S
C2380 C2381 1.392 . S
C2380 C2383 1.511 . S
C2381 C2377 1.376 . S
C2381 C2380 1.392 . S
C2381 H2393 0.929 . S
C2382 C2378 1.531 . S
C2382 H2394 0.960 . S
C2382 H2395 0.962 . S
C2382 H2396 0.960 . S
C2383 C2380 1.511 . S
C2383 H2397 0.961 . S
C2383 H2398 0.961 . S
C2383 H2399 0.961 . S
C2384 C2385 1.370 . S
C2384 C2386 1.363 . S
C2384 H2400 0.931 . S
C2385 C2384 1.370 . S
C2385 C2389 1.408 . S
C2386 C2384 1.363 . S
C2386 C2387 1.370 . S
C2386 C2390 1.524 . S
C2387 C2379 1.503 . S
C2387 C2386 1.370 . S
C2387 C2388 1.403 . S
C2388 C2387 1.403 . S
C2388 C2389 1.404 . S
C2388 C2391 1.539 . S
C2389 C2385 1.408 . S
C2389 C2388 1.404 . S
C2389 H2401 0.930 . S
C2390 C2386 1.524 . S
C2390 H2402 0.956 . S
C2390 H2403 0.961 . S
C2390 H2404 0.961 . S
C2391 C2388 1.539 . S
C2391 H2405 0.958 . S
C2391 H2406 0.961 1_655 S
C2391 H2407 0.960 . S
H2392 C2376 0.931 . S
H2393 C2381 0.929 . S
H2394 C2382 0.960 . S
H2395 C2382 0.962 . S
H2396 C2382 0.960 . S
H2397 C2383 0.961 . S
H2398 C2383 0.961 . S
H2399 C2383 0.961 . S
H2400 C2384 0.931 . S
H2401 C2389 0.930 . S
H2402 C2390 0.956 . S
H2403 C2390 0.961 . S
H2404 C2390 0.961 . S
H2405 C2391 0.958 . S
H2406 C2391 0.961 1_455 S
H2407 C2391 0.960 . S
C2408 C2409 1.391 . S
C2408 C2410 1.394 . S
C2408 H2424 0.931 . S
C2409 C2408 1.391 . S
C2409 C2413 1.376 . S
C2410 C2408 1.394 . S
C2410 C2411 1.369 . S
C2410 C2414 1.531 . S
C2411 C2410 1.369 . S
C2411 C2412 1.410 . S
C2411 C2419 1.503 . S
C2412 C2411 1.410 . S
C2412 C2413 1.392 . S
C2412 C2415 1.511 . S
C2413 C2409 1.376 . S
C2413 C2412 1.392 . S
C2413 H2425 0.929 . S
C2414 C2410 1.531 . S
C2414 H2426 0.960 . S
C2414 H2427 0.962 . S
C2414 H2428 0.960 . S
C2415 C2412 1.511 . S
C2415 H2429 0.961 . S
C2415 H2430 0.961 . S
C2415 H2431 0.961 . S
C2416 C2417 1.370 . S
C2416 C2418 1.363 . S
C2416 H2432 0.931 . S
C2417 C2416 1.370 . S
C2417 C2421 1.408 . S
C2418 C2416 1.363 . S
C2418 C2419 1.370 . S
C2418 C2422 1.524 . S
C2419 C2411 1.503 . S
C2419 C2418 1.370 . S
C2419 C2420 1.403 . S
C2420 C2419 1.403 . S
C2420 C2421 1.404 . S
C2420 C2423 1.539 . S
C2421 C2417 1.408 . S
C2421 C2420 1.404 . S
C2421 H2433 0.930 . S
C2422 C2418 1.524 . S
C2422 H2434 0.956 . S
C2422 H2435 0.961 1_554 S
C2422 H2436 0.961 1_554 S
C2423 C2420 1.539 . S
C2423 H2437 0.958 . S
C2423 H2438 0.961 . S
C2423 H2439 0.960 . S
H2424 C2408 0.931 . S
H2425 C2413 0.929 . S
H2426 C2414 0.960 . S
H2427 C2414 0.962 . S
H2428 C2414 0.960 . S
H2429 C2415 0.961 . S
H2430 C2415 0.961 . S
H2431 C2415 0.961 . S
H2432 C2416 0.931 . S
H2433 C2421 0.930 . S
H2434 C2422 0.956 . S
H2435 C2422 0.961 1_556 S
H2436 C2422 0.961 1_556 S
H2437 C2423 0.958 . S
H2438 C2423 0.961 . S
H2439 C2423 0.960 . S
C2440 C2441 1.391 . S
C2440 C2442 1.394 . S
C2440 H2456 0.931 . S
C2441 C2440 1.391 . S
C2441 C2445 1.376 . S
C2442 C2440 1.394 . S
C2442 C2443 1.369 . S
C2442 C2446 1.531 . S
C2443 C2442 1.369 . S
C2443 C2444 1.410 . S
C2443 C2451 1.503 . S
C2444 C2443 1.410 . S
C2444 C2445 1.392 . S
C2444 C2447 1.511 . S
C2445 C2441 1.376 . S
C2445 C2444 1.392 . S
C2445 H2457 0.929 . S
C2446 C2442 1.531 . S
C2446 H2458 0.960 . S
C2446 H2459 0.962 . S
C2446 H2460 0.960 . S
C2447 C2444 1.511 . S
C2447 H2461 0.961 . S
C2447 H2462 0.961 . S
C2447 H2463 0.961 . S
C2448 C2449 1.370 . S
C2448 C2450 1.363 . S
C2448 H2464 0.931 . S
C2449 C2448 1.370 . S
C2449 C2453 1.408 . S
C2450 C2448 1.363 . S
C2450 C2451 1.370 . S
C2450 C2454 1.524 . S
C2451 C2443 1.503 . S
C2451 C2450 1.370 . S
C2451 C2452 1.403 . S
C2452 C2451 1.403 . S
C2452 C2453 1.404 . S
C2452 C2455 1.539 . S
C2453 C2449 1.408 . S
C2453 C2452 1.404 . S
C2453 H2465 0.930 . S
C2454 C2450 1.524 . S
C2454 H2466 0.956 . S
C2454 H2467 0.961 . S
C2454 H2468 0.961 . S
C2455 C2452 1.539 . S
C2455 H2469 0.958 . S
C2455 H2470 0.961 . S
C2455 H2471 0.960 . S
H2456 C2440 0.931 . S
H2457 C2445 0.929 . S
H2458 C2446 0.960 . S
H2459 C2446 0.962 . S
H2460 C2446 0.960 . S
H2461 C2447 0.961 . S
H2462 C2447 0.961 . S
H2463 C2447 0.961 . S
H2464 C2448 0.931 . S
H2465 C2453 0.930 . S
H2466 C2454 0.956 . S
H2467 C2454 0.961 . S
H2468 C2454 0.961 . S
H2469 C2455 0.958 . S
H2470 C2455 0.961 . S
H2471 C2455 0.960 . S
C2472 C2473 1.391 . S
C2472 C2474 1.394 . S
C2472 H2488 0.931 . S
C2473 C2472 1.391 . S
C2473 C2477 1.376 . S
C2474 C2472 1.394 . S
C2474 C2475 1.369 . S
C2474 C2478 1.531 . S
C2475 C2474 1.369 . S
C2475 C2476 1.410 . S
C2475 C2483 1.503 . S
C2476 C2475 1.410 . S
C2476 C2477 1.392 . S
C2476 C2479 1.511 . S
C2477 C2473 1.376 . S
C2477 C2476 1.392 . S
C2477 H2489 0.929 . S
C2478 C2474 1.531 . S
C2478 H2490 0.960 . S
C2478 H2491 0.962 . S
C2478 H2492 0.960 . S
C2479 C2476 1.511 . S
C2479 H2493 0.961 . S
C2479 H2494 0.961 . S
C2479 H2495 0.961 . S
C2480 C2481 1.370 . S
C2480 C2482 1.363 . S
C2480 H2496 0.931 . S
C2481 C2480 1.370 . S
C2481 C2485 1.408 . S
C2482 C2480 1.363 . S
C2482 C2483 1.370 . S
C2482 C2486 1.524 . S
C2483 C2475 1.503 . S
C2483 C2482 1.370 . S
C2483 C2484 1.403 . S
C2484 C2483 1.403 . S
C2484 C2485 1.404 . S
C2484 C2487 1.539 . S
C2485 C2481 1.408 . S
C2485 C2484 1.404 . S
C2485 H2497 0.930 . S
C2486 C2482 1.524 . S
C2486 H2498 0.956 . S
C2486 H2499 0.961 . S
C2486 H2500 0.961 . S
C2487 C2484 1.539 . S
C2487 H2501 0.958 . S
C2487 H2502 0.961 . S
C2487 H2503 0.960 . S
H2488 C2472 0.931 . S
H2489 C2477 0.929 . S
H2490 C2478 0.960 . S
H2491 C2478 0.962 . S
H2492 C2478 0.960 . S
H2493 C2479 0.961 . S
H2494 C2479 0.961 . S
H2495 C2479 0.961 . S
H2496 C2480 0.931 . S
H2497 C2485 0.930 . S
H2498 C2486 0.956 . S
H2499 C2486 0.961 . S
H2500 C2486 0.961 . S
H2501 C2487 0.958 . S
H2502 C2487 0.961 . S
H2503 C2487 0.960 . S
C2504 C2505 1.391 . S
C2504 C2506 1.394 . S
C2504 H2520 0.931 . S
C2505 C2504 1.391 . S
C2505 C2509 1.376 . S
C2506 C2504 1.394 . S
C2506 C2507 1.369 . S
C2506 C2510 1.531 . S
C2507 C2506 1.369 . S
C2507 C2508 1.410 . S
C2507 C2515 1.503 . S
C2508 C2507 1.410 . S
C2508 C2509 1.392 . S
C2508 C2511 1.511 . S
C2509 C2505 1.376 . S
C2509 C2508 1.392 . S
C2509 H2521 0.929 . S
C2510 C2506 1.531 . S
C2510 H2522 0.960 . S
C2510 H2523 0.962 . S
C2510 H2524 0.960 . S
C2511 C2508 1.511 . S
C2511 H2525 0.961 . S
C2511 H2526 0.961 . S
C2511 H2527 0.961 . S
C2512 C2513 1.370 . S
C2512 C2514 1.363 . S
C2512 H2528 0.931 . S
C2513 C2512 1.370 . S
C2513 C2517 1.408 . S
C2514 C2512 1.363 . S
C2514 C2515 1.370 . S
C2514 C2518 1.524 . S
C2515 C2507 1.503 . S
C2515 C2514 1.370 . S
C2515 C2516 1.403 . S
C2516 C2515 1.403 . S
C2516 C2517 1.404 . S
C2516 C2519 1.539 . S
C2517 C2513 1.408 . S
C2517 C2516 1.404 . S
C2517 H2529 0.930 . S
C2518 C2514 1.524 . S
C2518 H2530 0.956 . S
C2518 H2531 0.961 . S
C2518 H2532 0.961 . S
C2519 C2516 1.539 . S
C2519 H2533 0.958 . S
C2519 H2534 0.961 . S
C2519 H2535 0.960 . S
H2520 C2504 0.931 . S
H2521 C2509 0.929 . S
H2522 C2510 0.960 . S
H2523 C2510 0.962 . S
H2524 C2510 0.960 . S
H2525 C2511 0.961 . S
H2526 C2511 0.961 . S
H2527 C2511 0.961 . S
H2528 C2512 0.931 . S
H2529 C2517 0.930 . S
H2530 C2518 0.956 . S
H2531 C2518 0.961 . S
H2532 C2518 0.961 . S
H2533 C2519 0.958 . S
H2534 C2519 0.961 . S
H2535 C2519 0.960 . S
C2536 C2537 1.391 . S
C2536 C2538 1.394 . S
C2536 H2552 0.931 . S
C2537 C2536 1.391 . S
C2537 C2541 1.376 . S
C2538 C2536 1.394 . S
C2538 C2539 1.369 . S
C2538 C2542 1.531 . S
C2539 C2538 1.369 . S
C2539 C2540 1.410 . S
C2539 C2547 1.503 . S
C2540 C2539 1.410 . S
C2540 C2541 1.392 . S
C2540 C2543 1.511 . S
C2541 C2537 1.376 . S
C2541 C2540 1.392 . S
C2541 H2553 0.929 . S
C2542 C2538 1.531 . S
C2542 H2554 0.960 . S
C2542 H2555 0.962 . S
C2542 H2556 0.960 . S
C2543 C2540 1.511 . S
C2543 H2557 0.961 . S
C2543 H2558 0.961 . S
C2543 H2559 0.961 . S
C2544 C2545 1.370 . S
C2544 C2546 1.363 . S
C2544 H2560 0.931 . S
C2545 C2544 1.370 . S
C2545 C2549 1.408 . S
C2546 C2544 1.363 . S
C2546 C2547 1.370 . S
C2546 C2550 1.524 . S
C2547 C2539 1.503 . S
C2547 C2546 1.370 . S
C2547 C2548 1.403 . S
C2548 C2547 1.403 . S
C2548 C2549 1.404 . S
C2548 C2551 1.539 . S
C2549 C2545 1.408 . S
C2549 C2548 1.404 . S
C2549 H2561 0.930 . S
C2550 C2546 1.524 . S
C2550 H2562 0.956 1_455 S
C2550 H2563 0.968 . S
C2550 H2564 0.961 1_455 S
C2551 C2548 1.539 . S
C2551 H2565 0.958 . S
C2551 H2566 0.961 . S
C2551 H2567 0.960 . S
H2552 C2536 0.931 . S
H2553 C2541 0.929 . S
H2554 C2542 0.960 . S
H2555 C2542 0.962 . S
H2556 C2542 0.960 . S
H2557 C2543 0.961 . S
H2558 C2543 0.961 . S
H2559 C2543 0.961 . S
H2560 C2544 0.931 . S
H2561 C2549 0.930 . S
H2562 C2550 0.956 1_655 S
H2563 C2550 0.968 . S
H2564 C2550 0.961 1_655 S
H2565 C2551 0.958 . S
H2566 C2551 0.961 . S
H2567 C2551 0.960 . S
C2568 C2569 1.391 . S
C2568 C2570 1.394 . S
C2568 H2584 0.931 . S
C2569 C2568 1.391 . S
C2569 C2573 1.376 . S
C2570 C2568 1.394 . S
C2570 C2571 1.369 . S
C2570 C2574 1.531 . S
C2571 C2570 1.369 . S
C2571 C2572 1.410 . S
C2571 C2579 1.503 . S
C2572 C2571 1.410 . S
C2572 C2573 1.392 . S
C2572 C2575 1.511 . S
C2573 C2569 1.376 . S
C2573 C2572 1.392 . S
C2573 H2585 0.929 . S
C2574 C2570 1.531 . S
C2574 H2586 0.960 . S
C2574 H2587 0.962 . S
C2574 H2588 0.960 . S
C2575 C2572 1.511 . S
C2575 H2589 0.961 . S
C2575 H2590 0.961 . S
C2575 H2591 0.961 . S
C2576 C2577 1.370 . S
C2576 C2578 1.363 . S
C2576 H2592 0.931 . S
C2577 C2576 1.370 . S
C2577 C2581 1.408 . S
C2578 C2576 1.363 . S
C2578 C2579 1.370 . S
C2578 C2582 1.524 . S
C2579 C2571 1.503 . S
C2579 C2578 1.370 . S
C2579 C2580 1.403 . S
C2580 C2579 1.403 . S
C2580 C2581 1.404 . S
C2580 C2583 1.539 . S
C2581 C2577 1.408 . S
C2581 C2580 1.404 . S
C2581 H2593 0.930 . S
C2582 C2578 1.524 . S
C2582 H2594 0.956 . S
C2582 H2595 0.961 . S
C2582 H2596 0.961 . S
C2583 C2580 1.539 . S
C2583 H2597 0.958 . S
C2583 H2598 0.961 . S
C2583 H2599 0.960 . S
H2584 C2568 0.931 . S
H2585 C2573 0.929 . S
H2586 C2574 0.960 . S
H2587 C2574 0.962 . S
H2588 C2574 0.960 . S
H2589 C2575 0.961 . S
H2590 C2575 0.961 . S
H2591 C2575 0.961 . S
H2592 C2576 0.931 . S
H2593 C2581 0.930 . S
H2594 C2582 0.956 . S
H2595 C2582 0.961 . S
H2596 C2582 0.961 . S
H2597 C2583 0.958 . S
H2598 C2583 0.961 . S
H2599 C2583 0.960 . S
C2600 C2601 1.391 . S
C2600 C2602 1.394 . S
C2600 H2616 0.931 . S
C2601 C2600 1.391 . S
C2601 C2605 1.376 . S
C2602 C2600 1.394 . S
C2602 C2603 1.369 . S
C2602 C2606 1.531 . S
C2603 C2602 1.369 . S
C2603 C2604 1.410 . S
C2603 C2611 1.503 . S
C2604 C2603 1.410 . S
C2604 C2605 1.392 . S
C2604 C2607 1.511 . S
C2605 C2601 1.376 . S
C2605 C2604 1.392 . S
C2605 H2617 0.929 . S
C2606 C2602 1.531 . S
C2606 H2618 0.960 . S
C2606 H2619 0.962 . S
C2606 H2620 0.960 . S
C2607 C2604 1.511 . S
C2607 H2621 0.961 . S
C2607 H2622 0.961 . S
C2607 H2623 0.961 . S
C2608 C2609 1.370 . S
C2608 C2610 1.363 . S
C2608 H2624 0.931 . S
C2609 C2608 1.370 . S
C2609 C2613 1.408 . S
C2610 C2608 1.363 . S
C2610 C2611 1.370 . S
C2610 C2614 1.524 . S
C2611 C2603 1.503 . S
C2611 C2610 1.370 . S
C2611 C2612 1.403 . S
C2612 C2611 1.403 . S
C2612 C2613 1.404 . S
C2612 C2615 1.539 . S
C2613 C2609 1.408 . S
C2613 C2612 1.404 . S
C2613 H2625 0.930 . S
C2614 C2610 1.524 . S
C2614 H2626 0.956 . S
C2614 H2627 0.961 . S
C2614 H2628 0.961 . S
C2615 C2612 1.539 . S
C2615 H2629 0.958 . S
C2615 H2630 0.961 1_554 S
C2615 H2631 0.960 . S
H2616 C2600 0.931 . S
H2617 C2605 0.929 . S
H2618 C2606 0.960 . S
H2619 C2606 0.962 . S
H2620 C2606 0.960 . S
H2621 C2607 0.961 . S
H2622 C2607 0.961 . S
H2623 C2607 0.961 . S
H2624 C2608 0.931 . S
H2625 C2613 0.930 . S
H2626 C2614 0.956 . S
H2627 C2614 0.961 . S
H2628 C2614 0.961 . S
H2629 C2615 0.958 . S
H2630 C2615 0.961 1_556 S
H2631 C2615 0.960 . S
C2632 C2633 1.391 . S
C2632 C2634 1.394 . S
C2632 H2648 0.931 . S
C2633 C2632 1.391 . S
C2633 C2637 1.376 . S
C2634 C2632 1.394 . S
C2634 C2635 1.369 . S
C2634 C2638 1.531 . S
C2635 C2634 1.369 . S
C2635 C2636 1.410 . S
C2635 C2643 1.503 . S
C2636 C2635 1.410 . S
C2636 C2637 1.392 . S
C2636 C2639 1.511 . S
C2637 C2633 1.376 . S
C2637 C2636 1.392 . S
C2637 H2649 0.929 . S
C2638 C2634 1.531 . S
C2638 H2650 0.960 . S
C2638 H2651 0.962 . S
C2638 H2652 0.960 . S
C2639 C2636 1.511 . S
C2639 H2653 0.961 . S
C2639 H2654 0.961 . S
C2639 H2655 0.961 . S
C2640 C2641 1.370 . S
C2640 C2642 1.363 . S
C2640 H2656 0.931 . S
C2641 C2640 1.370 . S
C2641 C2645 1.408 . S
C2642 C2640 1.363 . S
C2642 C2643 1.370 . S
C2642 C2646 1.524 . S
C2643 C2635 1.503 . S
C2643 C2642 1.370 . S
C2643 C2644 1.403 . S
C2644 C2643 1.403 . S
C2644 C2645 1.404 . S
C2644 C2647 1.539 1_565 S
C2645 C2641 1.408 . S
C2645 C2644 1.404 . S
C2645 H2657 0.930 . S
C2646 C2642 1.524 . S
C2646 H2658 0.956 . S
C2646 H2659 0.961 . S
C2646 H2660 0.961 . S
C2647 C2644 1.539 1_545 S
C2647 H2661 0.958 . S
C2647 H2662 0.961 . S
C2647 H2663 0.960 . S
H2648 C2632 0.931 . S
H2649 C2637 0.929 . S
H2650 C2638 0.960 . S
H2651 C2638 0.962 . S
H2652 C2638 0.960 . S
H2653 C2639 0.961 . S
H2654 C2639 0.961 . S
H2655 C2639 0.961 . S
H2656 C2640 0.931 . S
H2657 C2645 0.930 . S
H2658 C2646 0.956 . S
H2659 C2646 0.961 . S
H2660 C2646 0.961 . S
H2661 C2647 0.958 . S
H2662 C2647 0.961 . S
H2663 C2647 0.960 . S
C2664 C2665 1.391 . S
C2664 C2666 1.394 . S
C2664 H2680 0.931 . S
C2665 C2664 1.391 . S
C2665 C2669 1.376 . S
C2666 C2664 1.394 . S
C2666 C2667 1.369 . S
C2666 C2670 1.531 . S
C2667 C2666 1.369 . S
C2667 C2668 1.410 . S
C2667 C2675 1.503 . S
C2668 C2667 1.410 . S
C2668 C2669 1.392 . S
C2668 C2671 1.511 . S
C2669 C2665 1.376 . S
C2669 C2668 1.392 . S
C2669 H2681 0.929 . S
C2670 C2666 1.531 . S
C2670 H2682 0.960 . S
C2670 H2683 0.962 . S
C2670 H2684 0.960 . S
C2671 C2668 1.511 . S
C2671 H2685 0.961 . S
C2671 H2686 0.961 . S
C2671 H2687 0.961 . S
C2672 C2673 1.370 . S
C2672 C2674 1.363 . S
C2672 H2688 0.931 . S
C2673 C2672 1.370 . S
C2673 C2677 1.408 . S
C2674 C2672 1.363 . S
C2674 C2675 1.370 . S
C2674 C2678 1.524 . S
C2675 C2667 1.503 . S
C2675 C2674 1.370 . S
C2675 C2676 1.403 . S
C2676 C2675 1.403 . S
C2676 C2677 1.404 . S
C2676 C2679 1.539 . S
C2677 C2673 1.408 . S
C2677 C2676 1.404 . S
C2677 H2689 0.930 . S
C2678 C2674 1.524 . S
C2678 H2690 0.956 . S
C2678 H2691 0.961 . S
C2678 H2692 0.961 . S
C2679 C2676 1.539 . S
C2679 H2693 0.958 . S
C2679 H2694 0.961 . S
C2679 H2695 0.960 . S
H2680 C2664 0.931 . S
H2681 C2669 0.929 . S
H2682 C2670 0.960 . S
H2683 C2670 0.962 . S
H2684 C2670 0.960 . S
H2685 C2671 0.961 . S
H2686 C2671 0.961 . S
H2687 C2671 0.961 . S
H2688 C2672 0.931 . S
H2689 C2677 0.930 . S
H2690 C2678 0.956 . S
H2691 C2678 0.961 . S
H2692 C2678 0.961 . S
H2693 C2679 0.958 . S
H2694 C2679 0.961 . S
H2695 C2679 0.960 . S
C2696 C2697 1.391 . S
C2696 C2698 1.394 . S
C2696 H2712 0.931 . S
C2697 C2696 1.391 . S
C2697 C2701 1.376 . S
C2698 C2696 1.394 . S
C2698 C2699 1.369 . S
C2698 C2702 1.531 . S
C2699 C2698 1.369 . S
C2699 C2700 1.410 . S
C2699 C2707 1.503 . S
C2700 C2699 1.410 . S
C2700 C2701 1.392 . S
C2700 C2703 1.511 . S
C2701 C2697 1.376 . S
C2701 C2700 1.392 . S
C2701 H2713 0.929 . S
C2702 C2698 1.531 . S
C2702 H2714 0.960 . S
C2702 H2715 0.962 . S
C2702 H2716 0.960 . S
C2703 C2700 1.511 . S
C2703 H2717 0.961 . S
C2703 H2718 0.961 . S
C2703 H2719 0.961 . S
C2704 C2705 1.370 . S
C2704 C2706 1.363 . S
C2704 H2720 0.931 . S
C2705 C2704 1.370 . S
C2705 C2709 1.408 . S
C2706 C2704 1.363 . S
C2706 C2707 1.370 . S
C2706 C2710 1.524 . S
C2707 C2699 1.503 . S
C2707 C2706 1.370 . S
C2707 C2708 1.403 . S
C2708 C2707 1.403 . S
C2708 C2709 1.404 . S
C2708 C2711 1.539 . S
C2709 C2705 1.408 . S
C2709 C2708 1.404 . S
C2709 H2721 0.930 . S
C2710 C2706 1.524 . S
C2710 H2722 0.956 . S
C2710 H2723 0.961 . S
C2710 H2724 0.961 . S
C2711 C2708 1.539 . S
C2711 H2725 0.958 . S
C2711 H2726 0.961 . S
C2711 H2727 0.960 . S
H2712 C2696 0.931 . S
H2713 C2701 0.929 . S
H2714 C2702 0.960 . S
H2715 C2702 0.962 . S
H2716 C2702 0.960 . S
H2717 C2703 0.961 . S
H2718 C2703 0.961 . S
H2719 C2703 0.961 . S
H2720 C2704 0.931 . S
H2721 C2709 0.930 . S
H2722 C2710 0.956 . S
H2723 C2710 0.961 . S
H2724 C2710 0.961 . S
H2725 C2711 0.958 . S
H2726 C2711 0.961 . S
H2727 C2711 0.960 . S
C2728 C2729 1.391 . S
C2728 C2730 1.394 . S
C2728 H2744 0.931 . S
C2729 C2728 1.391 . S
C2729 C2733 1.376 . S
C2730 C2728 1.394 . S
C2730 C2731 1.369 . S
C2730 C2734 1.531 . S
C2731 C2730 1.369 . S
C2731 C2732 1.410 . S
C2731 C2739 1.503 . S
C2732 C2731 1.410 . S
C2732 C2733 1.392 . S
C2732 C2735 1.511 . S
C2733 C2729 1.376 . S
C2733 C2732 1.392 . S
C2733 H2745 0.929 . S
C2734 C2730 1.531 . S
C2734 H2746 0.960 . S
C2734 H2747 0.962 . S
C2734 H2748 0.960 . S
C2735 C2732 1.511 . S
C2735 H2749 0.961 . S
C2735 H2750 0.961 . S
C2735 H2751 0.961 . S
C2736 C2737 1.370 . S
C2736 C2738 1.363 . S
C2736 H2752 0.931 . S
C2737 C2736 1.370 . S
C2737 C2741 1.408 . S
C2738 C2736 1.363 . S
C2738 C2739 1.370 . S
C2738 C2742 1.524 . S
C2739 C2731 1.503 . S
C2739 C2738 1.370 . S
C2739 C2740 1.403 . S
C2740 C2739 1.403 . S
C2740 C2741 1.404 . S
C2740 C2743 1.539 . S
C2741 C2737 1.408 . S
C2741 C2740 1.404 . S
C2741 H2753 0.930 . S
C2742 C2738 1.524 . S
C2742 H2754 0.956 . S
C2742 H2755 0.961 . S
C2742 H2756 0.961 . S
C2743 C2740 1.539 . S
C2743 H2757 0.958 . S
C2743 H2758 0.961 . S
C2743 H2759 0.960 . S
H2744 C2728 0.931 . S
H2745 C2733 0.929 . S
H2746 C2734 0.960 . S
H2747 C2734 0.962 . S
H2748 C2734 0.960 . S
H2749 C2735 0.961 . S
H2750 C2735 0.961 . S
H2751 C2735 0.961 . S
H2752 C2736 0.931 . S
H2753 C2741 0.930 . S
H2754 C2742 0.956 . S
H2755 C2742 0.961 . S
H2756 C2742 0.961 . S
H2757 C2743 0.958 . S
H2758 C2743 0.961 . S
H2759 C2743 0.960 . S
C2760 C2761 1.391 . S
C2760 C2762 1.394 . S
C2760 H2776 0.931 . S
C2761 C2760 1.391 . S
C2761 C2765 1.376 . S
C2762 C2760 1.394 . S
C2762 C2763 1.369 . S
C2762 C2766 1.531 . S
C2763 C2762 1.369 . S
C2763 C2764 1.410 . S
C2763 C2771 1.503 . S
C2764 C2763 1.410 . S
C2764 C2765 1.392 . S
C2764 C2767 1.511 . S
C2765 C2761 1.376 . S
C2765 C2764 1.392 . S
C2765 H2777 0.929 . S
C2766 C2762 1.531 . S
C2766 H2778 0.960 . S
C2766 H2779 0.962 . S
C2766 H2780 0.960 . S
C2767 C2764 1.511 . S
C2767 H2781 0.961 . S
C2767 H2782 0.961 . S
C2767 H2783 0.961 . S
C2768 C2769 1.370 . S
C2768 C2770 1.363 . S
C2768 H2784 0.931 . S
C2769 C2768 1.370 . S
C2769 C2773 1.408 . S
C2770 C2768 1.363 . S
C2770 C2771 1.370 . S
C2770 C2774 1.524 . S
C2771 C2763 1.503 . S
C2771 C2770 1.370 . S
C2771 C2772 1.403 . S
C2772 C2771 1.403 . S
C2772 C2773 1.404 . S
C2772 C2775 1.539 . S
C2773 C2769 1.408 . S
C2773 C2772 1.404 . S
C2773 H2785 0.930 . S
C2774 C2770 1.524 . S
C2774 H2786 0.956 . S
C2774 H2787 0.961 . S
C2774 H2788 0.961 . S
C2775 C2772 1.539 . S
C2775 H2789 0.958 . S
C2775 H2790 0.961 . S
C2775 H2791 0.960 . S
H2776 C2760 0.931 . S
H2777 C2765 0.929 . S
H2778 C2766 0.960 . S
H2779 C2766 0.962 . S
H2780 C2766 0.960 . S
H2781 C2767 0.961 . S
H2782 C2767 0.961 . S
H2783 C2767 0.961 . S
H2784 C2768 0.931 . S
H2785 C2773 0.930 . S
H2786 C2774 0.956 . S
H2787 C2774 0.961 . S
H2788 C2774 0.961 . S
H2789 C2775 0.958 . S
H2790 C2775 0.961 . S
H2791 C2775 0.960 . S
C2792 C2793 1.391 . S
C2792 C2794 1.394 . S
C2792 H2808 0.931 1_556 S
C2793 C2792 1.391 . S
C2793 C2797 1.376 . S
C2794 C2792 1.394 . S
C2794 C2795 1.369 . S
C2794 C2798 1.531 . S
C2795 C2794 1.369 . S
C2795 C2796 1.410 . S
C2795 C2803 1.503 . S
C2796 C2795 1.410 . S
C2796 C2797 1.392 . S
C2796 C2799 1.511 . S
C2797 C2793 1.376 . S
C2797 C2796 1.392 . S
C2797 H2809 0.929 . S
C2798 C2794 1.531 . S
C2798 H2810 0.960 . S
C2798 H2811 0.962 . S
C2798 H2812 0.960 1_556 S
C2799 C2796 1.511 . S
C2799 H2813 0.961 . S
C2799 H2814 0.961 . S
C2799 H2815 0.961 . S
C2800 C2801 1.370 . S
C2800 C2802 1.363 . S
C2800 H2816 0.931 . S
C2801 C2800 1.370 . S
C2801 C2805 1.408 . S
C2802 C2800 1.363 . S
C2802 C2803 1.370 . S
C2802 C2806 1.524 . S
C2803 C2795 1.503 . S
C2803 C2802 1.370 . S
C2803 C2804 1.403 . S
C2804 C2803 1.403 . S
C2804 C2805 1.404 . S
C2804 C2807 1.539 . S
C2805 C2801 1.408 . S
C2805 C2804 1.404 . S
C2805 H2817 0.930 . S
C2806 C2802 1.524 . S
C2806 H2818 0.956 . S
C2806 H2819 0.961 . S
C2806 H2820 0.961 . S
C2807 C2804 1.539 . S
C2807 H2821 0.958 1_556 S
C2807 H2822 0.961 . S
C2807 H2823 0.960 . S
H2808 C2792 0.931 1_554 S
H2809 C2797 0.929 . S
H2810 C2798 0.960 . S
H2811 C2798 0.962 . S
H2812 C2798 0.960 1_554 S
H2813 C2799 0.961 . S
H2814 C2799 0.961 . S
H2815 C2799 0.961 . S
H2816 C2800 0.931 . S
H2817 C2805 0.930 . S
H2818 C2806 0.956 . S
H2819 C2806 0.961 . S
H2820 C2806 0.961 . S
H2821 C2807 0.958 1_554 S
H2822 C2807 0.961 . S
H2823 C2807 0.960 . S
C2824 C2825 1.391 . S
C2824 C2826 1.394 . S
C2824 H2840 0.931 . S
C2825 C2824 1.391 . S
C2825 C2829 1.376 . S
C2826 C2824 1.394 . S
C2826 C2827 1.369 . S
C2826 C2830 1.531 . S
C2827 C2826 1.369 . S
C2827 C2828 1.410 . S
C2827 C2835 1.503 . S
C2828 C2827 1.410 . S
C2828 C2829 1.392 . S
C2828 C2831 1.511 . S
C2829 C2825 1.376 . S
C2829 C2828 1.392 . S
C2829 H2841 0.929 . S
C2830 C2826 1.531 . S
C2830 H2842 0.960 . S
C2830 H2843 0.962 . S
C2830 H2844 0.960 . S
C2831 C2828 1.511 . S
C2831 H2845 0.961 . S
C2831 H2846 0.961 . S
C2831 H2847 0.961 . S
C2832 C2833 1.370 . S
C2832 C2834 1.363 . S
C2832 H2848 0.931 . S
C2833 C2832 1.370 . S
C2833 C2837 1.408 . S
C2834 C2832 1.363 . S
C2834 C2835 1.370 . S
C2834 C2838 1.524 . S
C2835 C2827 1.503 . S
C2835 C2834 1.370 . S
C2835 C2836 1.403 . S
C2836 C2835 1.403 . S
C2836 C2837 1.404 . S
C2836 C2839 1.539 . S
C2837 C2833 1.408 . S
C2837 C2836 1.404 . S
C2837 H2849 0.930 . S
C2838 C2834 1.524 . S
C2838 H2850 0.956 . S
C2838 H2851 0.961 . S
C2838 H2852 0.961 . S
C2839 C2836 1.539 . S
C2839 H2853 0.958 . S
C2839 H2854 0.961 . S
C2839 H2855 0.960 . S
H2840 C2824 0.931 . S
H2841 C2829 0.929 . S
H2842 C2830 0.960 . S
H2843 C2830 0.962 . S
H2844 C2830 0.960 . S
H2845 C2831 0.961 . S
H2846 C2831 0.961 . S
H2847 C2831 0.961 . S
H2848 C2832 0.931 . S
H2849 C2837 0.930 . S
H2850 C2838 0.956 . S
H2851 C2838 0.961 . S
H2852 C2838 0.961 . S
H2853 C2839 0.958 . S
H2854 C2839 0.961 . S
H2855 C2839 0.960 . S
C2856 C2857 1.391 . S
C2856 C2858 1.394 . S
C2856 H2872 0.931 . S
C2857 C2856 1.391 . S
C2857 C2861 1.376 . S
C2858 C2856 1.394 . S
C2858 C2859 1.369 . S
C2858 C2862 1.531 . S
C2859 C2858 1.369 . S
C2859 C2860 1.410 . S
C2859 C2867 1.503 . S
C2860 C2859 1.410 . S
C2860 C2861 1.392 . S
C2860 C2863 1.511 . S
C2861 C2857 1.376 . S
C2861 C2860 1.392 . S
C2861 H2873 0.929 . S
C2862 C2858 1.531 . S
C2862 H2874 0.960 . S
C2862 H2875 0.962 . S
C2862 H2876 0.960 . S
C2863 C2860 1.511 . S
C2863 H2877 0.961 . S
C2863 H2878 0.961 . S
C2863 H2879 0.961 . S
C2864 C2865 1.370 . S
C2864 C2866 1.363 . S
C2864 H2880 0.931 . S
C2865 C2864 1.370 . S
C2865 C2869 1.408 . S
C2866 C2864 1.363 . S
C2866 C2867 1.370 . S
C2866 C2870 1.524 . S
C2867 C2859 1.503 . S
C2867 C2866 1.370 . S
C2867 C2868 1.403 . S
C2868 C2867 1.403 . S
C2868 C2869 1.404 . S
C2868 C2871 1.539 . S
C2869 C2865 1.408 . S
C2869 C2868 1.404 . S
C2869 H2881 0.930 . S
C2870 C2866 1.524 . S
C2870 H2882 0.956 . S
C2870 H2883 0.961 . S
C2870 H2884 0.961 . S
C2871 C2868 1.539 . S
C2871 H2885 0.958 . S
C2871 H2886 0.961 . S
C2871 H2887 0.960 . S
H2872 C2856 0.931 . S
H2873 C2861 0.929 . S
H2874 C2862 0.960 . S
H2875 C2862 0.962 . S
H2876 C2862 0.960 . S
H2877 C2863 0.961 . S
H2878 C2863 0.961 . S
H2879 C2863 0.961 . S
H2880 C2864 0.931 . S
H2881 C2869 0.930 . S
H2882 C2870 0.956 . S
H2883 C2870 0.961 . S
H2884 C2870 0.961 . S
H2885 C2871 0.958 . S
H2886 C2871 0.961 . S
H2887 C2871 0.960 . S
C2888 C2889 1.391 . S
C2888 C2890 1.394 . S
C2888 H2904 0.931 . S
C2889 C2888 1.391 . S
C2889 C2893 1.376 . S
C2890 C2888 1.394 . S
C2890 C2891 1.369 . S
C2890 C2894 1.531 . S
C2891 C2890 1.369 . S
C2891 C2892 1.410 . S
C2891 C2899 1.503 . S
C2892 C2891 1.410 . S
C2892 C2893 1.392 . S
C2892 C2895 1.511 . S
C2893 C2889 1.376 . S
C2893 C2892 1.392 . S
C2893 H2905 0.929 . S
C2894 C2890 1.531 . S
C2894 H2906 0.960 . S
C2894 H2907 0.962 . S
C2894 H2908 0.960 . S
C2895 C2892 1.511 . S
C2895 H2909 0.961 . S
C2895 H2910 0.961 . S
C2895 H2911 0.961 . S
C2896 C2897 1.370 . S
C2896 C2898 1.363 . S
C2896 H2912 0.931 . S
C2897 C2896 1.370 . S
C2897 C2901 1.408 . S
C2898 C2896 1.363 . S
C2898 C2899 1.370 . S
C2898 C2902 1.524 . S
C2899 C2891 1.503 . S
C2899 C2898 1.370 . S
C2899 C2900 1.403 . S
C2900 C2899 1.403 . S
C2900 C2901 1.404 . S
C2900 C2903 1.539 . S
C2901 C2897 1.408 . S
C2901 C2900 1.404 . S
C2901 H2913 0.930 . S
C2902 C2898 1.524 . S
C2902 H2914 0.956 . S
C2902 H2915 0.961 . S
C2902 H2916 0.961 . S
C2903 C2900 1.539 . S
C2903 H2917 0.958 . S
C2903 H2918 0.961 . S
C2903 H2919 0.960 . S
H2904 C2888 0.931 . S
H2905 C2893 0.929 . S
H2906 C2894 0.960 . S
H2907 C2894 0.962 . S
H2908 C2894 0.960 . S
H2909 C2895 0.961 . S
H2910 C2895 0.961 . S
H2911 C2895 0.961 . S
H2912 C2896 0.931 . S
H2913 C2901 0.930 . S
H2914 C2902 0.956 . S
H2915 C2902 0.961 . S
H2916 C2902 0.961 . S
H2917 C2903 0.958 . S
H2918 C2903 0.961 . S
H2919 C2903 0.960 . S
C2920 C2921 1.391 . S
C2920 C2922 1.394 . S
C2920 H2936 0.931 . S
C2921 C2920 1.391 . S
C2921 C2925 1.376 . S
C2922 C2920 1.394 . S
C2922 C2923 1.369 . S
C2922 C2926 1.531 . S
C2923 C2922 1.369 . S
C2923 C2924 1.410 . S
C2923 C2931 1.503 . S
C2924 C2923 1.410 . S
C2924 C2925 1.392 . S
C2924 C2927 1.511 . S
C2925 C2921 1.376 . S
C2925 C2924 1.392 . S
C2925 H2937 0.929 . S
C2926 C2922 1.531 . S
C2926 H2938 0.960 . S
C2926 H2939 0.962 . S
C2926 H2940 0.960 . S
C2927 C2924 1.511 . S
C2927 H2941 0.961 . S
C2927 H2942 0.961 . S
C2927 H2943 0.939 1_655 S
C2928 C2929 1.370 . S
C2928 C2930 1.363 . S
C2928 H2944 0.931 . S
C2929 C2928 1.370 . S
C2929 C2933 1.408 . S
C2930 C2928 1.363 . S
C2930 C2931 1.370 . S
C2930 C2934 1.524 . S
C2931 C2923 1.503 . S
C2931 C2930 1.370 . S
C2931 C2932 1.403 . S
C2932 C2931 1.403 . S
C2932 C2933 1.404 . S
C2932 C2935 1.539 1_655 S
C2933 C2929 1.408 . S
C2933 C2932 1.404 . S
C2933 H2945 0.930 . S
C2934 C2930 1.524 . S
C2934 H2946 0.956 . S
C2934 H2947 0.961 . S
C2934 H2948 0.961 . S
C2935 C2932 1.539 1_455 S
C2935 H2949 0.958 . S
C2935 H2950 0.961 . S
C2935 H2951 0.960 . S
H2936 C2920 0.931 . S
H2937 C2925 0.929 . S
H2938 C2926 0.960 . S
H2939 C2926 0.962 . S
H2940 C2926 0.960 . S
H2941 C2927 0.961 . S
H2942 C2927 0.961 . S
H2943 C2927 0.939 1_455 S
H2944 C2928 0.931 . S
H2945 C2933 0.930 . S
H2946 C2934 0.956 . S
H2947 C2934 0.961 . S
H2948 C2934 0.961 . S
H2949 C2935 0.958 . S
H2950 C2935 0.961 . S
H2951 C2935 0.960 . S
C2952 C2953 1.391 . S
C2952 C2954 1.394 . S
C2952 H2968 0.931 . S
C2953 C2952 1.391 . S
C2953 C2957 1.376 . S
C2954 C2952 1.394 . S
C2954 C2955 1.369 . S
C2954 C2958 1.531 . S
C2955 C2954 1.369 . S
C2955 C2956 1.410 . S
C2955 C2963 1.503 . S
C2956 C2955 1.410 . S
C2956 C2957 1.392 . S
C2956 C2959 1.511 . S
C2957 C2953 1.376 . S
C2957 C2956 1.392 . S
C2957 H2969 0.929 . S
C2958 C2954 1.531 . S
C2958 H2970 0.960 . S
C2958 H2971 0.962 . S
C2958 H2972 0.960 . S
C2959 C2956 1.511 . S
C2959 H2973 0.961 . S
C2959 H2974 0.961 . S
C2959 H2975 0.961 . S
C2960 C2961 1.370 . S
C2960 C2962 1.363 . S
C2960 H2976 0.931 . S
C2961 C2960 1.370 . S
C2961 C2965 1.408 . S
C2962 C2960 1.363 . S
C2962 C2963 1.370 . S
C2962 C2966 1.524 . S
C2963 C2955 1.503 . S
C2963 C2962 1.370 . S
C2963 C2964 1.403 . S
C2964 C2963 1.403 . S
C2964 C2965 1.404 . S
C2964 C2967 1.539 . S
C2965 C2961 1.408 . S
C2965 C2964 1.404 . S
C2965 H2977 0.930 . S
C2966 C2962 1.524 . S
C2966 H2978 0.956 . S
C2966 H2979 0.961 . S
C2966 H2980 0.961 . S
C2967 C2964 1.539 . S
C2967 H2981 0.958 . S
C2967 H2982 0.961 . S
C2967 H2983 0.960 . S
H2968 C2952 0.931 . S
H2969 C2957 0.929 . S
H2970 C2958 0.960 . S
H2971 C2958 0.962 . S
H2972 C2958 0.960 . S
H2973 C2959 0.961 . S
H2974 C2959 0.961 . S
H2975 C2959 0.961 . S
H2976 C2960 0.931 . S
H2977 C2965 0.930 . S
H2978 C2966 0.956 . S
H2979 C2966 0.961 . S
H2980 C2966 0.961 . S
H2981 C2967 0.958 . S
H2982 C2967 0.961 . S
H2983 C2967 0.960 . S
C2984 C2985 1.391 . S
C2984 C2986 1.394 . S
C2984 H3000 0.931 . S
C2985 C2984 1.391 . S
C2985 C2989 1.376 . S
C2986 C2984 1.394 . S
C2986 C2987 1.369 . S
C2986 C2990 1.531 . S
C2987 C2986 1.369 . S
C2987 C2988 1.410 . S
C2987 C2995 1.503 . S
C2988 C2987 1.410 . S
C2988 C2989 1.392 . S
C2988 C2991 1.511 . S
C2989 C2985 1.376 . S
C2989 C2988 1.392 . S
C2989 H3001 0.929 . S
C2990 C2986 1.531 . S
C2990 H3002 0.960 . S
C2990 H3003 0.962 . S
C2990 H3004 0.960 . S
C2991 C2988 1.511 . S
C2991 H3005 0.961 . S
C2991 H3006 0.961 . S
C2991 H3007 0.961 . S
C2992 C2993 1.370 . S
C2992 C2994 1.363 . S
C2992 H3008 0.931 . S
C2993 C2992 1.370 . S
C2993 C2997 1.408 . S
C2994 C2992 1.363 . S
C2994 C2995 1.370 . S
C2994 C2998 1.524 . S
C2995 C2987 1.503 . S
C2995 C2994 1.370 . S
C2995 C2996 1.403 . S
C2996 C2995 1.403 . S
C2996 C2997 1.404 . S
C2996 C2999 1.539 . S
C2997 C2993 1.408 . S
C2997 C2996 1.404 . S
C2997 H3009 0.930 . S
C2998 C2994 1.524 . S
C2998 H3010 0.956 . S
C2998 H3011 0.961 . S
C2998 H3012 0.961 . S
C2999 C2996 1.539 . S
C2999 H3013 0.958 . S
C2999 H3014 0.961 . S
C2999 H3015 0.960 . S
H3000 C2984 0.931 . S
H3001 C2989 0.929 . S
H3002 C2990 0.960 . S
H3003 C2990 0.962 . S
H3004 C2990 0.960 . S
H3005 C2991 0.961 . S
H3006 C2991 0.961 . S
H3007 C2991 0.961 . S
H3008 C2992 0.931 . S
H3009 C2997 0.930 . S
H3010 C2998 0.956 . S
H3011 C2998 0.961 . S
H3012 C2998 0.961 . S
H3013 C2999 0.958 . S
H3014 C2999 0.961 . S
H3015 C2999 0.960 . S
C3016 C3017 1.391 . S
C3016 C3018 1.394 . S
C3016 H3032 0.931 . S
C3017 C3016 1.391 . S
C3017 C3021 1.376 . S
C3018 C3016 1.394 . S
C3018 C3019 1.369 . S
C3018 C3022 1.531 . S
C3019 C3018 1.369 . S
C3019 C3020 1.410 . S
C3019 C3027 1.503 . S
C3020 C3019 1.410 . S
C3020 C3021 1.392 . S
C3020 C3023 1.511 . S
C3021 C3017 1.376 . S
C3021 C3020 1.392 . S
C3021 H3033 0.929 . S
C3022 C3018 1.531 . S
C3022 H3034 0.960 . S
C3022 H3035 0.962 . S
C3022 H3036 0.960 . S
C3023 C3020 1.511 . S
C3023 H3037 0.974 . S
C3023 H3038 0.961 . S
C3023 H3039 0.961 . S
C3024 C3025 1.370 1_545 S
C3024 C3026 1.363 . S
C3024 H3040 0.931 . S
C3025 C3024 1.370 1_565 S
C3025 C3029 1.408 . S
C3026 C3024 1.363 . S
C3026 C3027 1.370 1_545 S
C3026 C3030 1.524 . S
C3027 C3019 1.503 . S
C3027 C3026 1.370 1_565 S
C3027 C3028 1.403 . S
C3028 C3027 1.403 . S
C3028 C3029 1.404 . S
C3028 C3031 1.539 . S
C3029 C3025 1.408 . S
C3029 C3028 1.404 . S
C3029 H3041 0.930 . S
C3030 C3026 1.524 . S
C3030 H3042 0.956 . S
C3030 H3043 0.961 . S
C3030 H3044 0.961 . S
C3031 C3028 1.539 . S
C3031 H3045 0.958 . S
C3031 H3046 0.961 . S
C3031 H3047 0.960 . S
H3032 C3016 0.931 . S
H3033 C3021 0.929 . S
H3034 C3022 0.960 . S
H3035 C3022 0.962 . S
H3036 C3022 0.960 . S
H3037 C3023 0.974 . S
H3038 C3023 0.961 . S
H3039 C3023 0.961 . S
H3040 C3024 0.931 . S
H3041 C3029 0.930 . S
H3042 C3030 0.956 . S
H3043 C3030 0.961 . S
H3044 C3030 0.961 . S
H3045 C3031 0.958 . S
H3046 C3031 0.961 . S
H3047 C3031 0.960 . S
C3048 C3049 1.391 . S
C3048 C3050 1.394 . S
C3048 H3064 0.931 . S
C3049 C3048 1.391 . S
C3049 C3053 1.376 . S
C3050 C3048 1.394 . S
C3050 C3051 1.369 . S
C3050 C3054 1.531 . S
C3051 C3050 1.369 . S
C3051 C3052 1.410 . S
C3051 C3059 1.503 . S
C3052 C3051 1.410 . S
C3052 C3053 1.392 . S
C3052 C3055 1.511 . S
C3053 C3049 1.376 . S
C3053 C3052 1.392 . S
C3053 H3065 0.929 . S
C3054 C3050 1.531 . S
C3054 H3066 0.960 . S
C3054 H3067 0.962 . S
C3054 H3068 0.960 . S
C3055 C3052 1.511 . S
C3055 H3069 0.961 . S
C3055 H3070 0.961 . S
C3055 H3071 0.961 1_545 S
C3056 C3057 1.370 . S
C3056 C3058 1.363 . S
C3056 H3072 0.931 . S
C3057 C3056 1.370 . S
C3057 C3061 1.408 1_545 S
C3058 C3056 1.363 . S
C3058 C3059 1.370 . S
C3058 C3062 1.524 . S
C3059 C3051 1.503 . S
C3059 C3058 1.370 . S
C3059 C3060 1.403 1_545 S
C3060 C3059 1.403 1_565 S
C3060 C3061 1.404 . S
C3060 C3063 1.539 . S
C3061 C3057 1.408 1_565 S
C3061 C3060 1.404 . S
C3061 H3073 0.930 . S
C3062 C3058 1.524 . S
C3062 H3074 0.956 . S
C3062 H3075 0.961 . S
C3062 H3076 0.961 . S
C3063 C3060 1.539 . S
C3063 H3077 0.958 . S
C3063 H3078 0.961 . S
C3063 H3079 0.960 . S
H3064 C3048 0.931 . S
H3065 C3053 0.929 . S
H3066 C3054 0.960 . S
H3067 C3054 0.962 . S
H3068 C3054 0.960 . S
H3069 C3055 0.961 . S
H3070 C3055 0.961 . S
H3071 C3055 0.961 1_565 S
H3072 C3056 0.931 . S
H3073 C3061 0.930 . S
H3074 C3062 0.956 . S
H3075 C3062 0.961 . S
H3076 C3062 0.961 . S
H3077 C3063 0.958 . S
H3078 C3063 0.961 . S
H3079 C3063 0.960 . S
C3080 C3081 1.391 . S
C3080 C3082 1.394 . S
C3080 H3096 0.931 . S
C3081 C3080 1.391 . S
C3081 C3085 1.376 . S
C3082 C3080 1.394 . S
C3082 C3083 1.369 . S
C3082 C3086 1.531 . S
C3083 C3082 1.369 . S
C3083 C3084 1.410 . S
C3083 C3091 1.503 . S
C3084 C3083 1.410 . S
C3084 C3085 1.392 . S
C3084 C3087 1.511 . S
C3085 C3081 1.376 . S
C3085 C3084 1.392 . S
C3085 H3097 0.929 . S
C3086 C3082 1.531 . S
C3086 H3098 0.960 . S
C3086 H3099 0.962 . S
C3086 H3100 0.960 . S
C3087 C3084 1.511 . S
C3087 H3101 0.961 . S
C3087 H3102 0.961 . S
C3087 H3103 0.961 . S
C3088 C3089 1.370 . S
C3088 C3090 1.363 . S
C3088 H3104 0.931 . S
C3089 C3088 1.370 . S
C3089 C3093 1.408 . S
C3090 C3088 1.363 . S
C3090 C3091 1.370 . S
C3090 C3094 1.524 . S
C3091 C3083 1.503 . S
C3091 C3090 1.370 . S
C3091 C3092 1.403 . S
C3092 C3091 1.403 . S
C3092 C3093 1.404 . S
C3092 C3095 1.539 . S
C3093 C3089 1.408 . S
C3093 C3092 1.404 . S
C3093 H3105 0.930 . S
C3094 C3090 1.524 . S
C3094 H3106 0.956 . S
C3094 H3107 0.961 . S
C3094 H3108 0.961 . S
C3095 C3092 1.539 . S
C3095 H3109 0.958 . S
C3095 H3110 0.961 . S
C3095 H3111 0.960 . S
H3096 C3080 0.931 . S
H3097 C3085 0.929 . S
H3098 C3086 0.960 . S
H3099 C3086 0.962 . S
H3100 C3086 0.960 . S
H3101 C3087 0.961 . S
H3102 C3087 0.961 . S
H3103 C3087 0.961 . S
H3104 C3088 0.931 . S
H3105 C3093 0.930 . S
H3106 C3094 0.956 . S
H3107 C3094 0.961 . S
H3108 C3094 0.961 . S
H3109 C3095 0.958 . S
H3110 C3095 0.961 . S
H3111 C3095 0.960 . S
C3112 C3113 1.391 . S
C3112 C3114 1.394 . S
C3112 H3128 0.931 1_554 S
C3113 C3112 1.391 . S
C3113 C3117 1.376 . S
C3114 C3112 1.394 . S
C3114 C3115 1.369 . S
C3114 C3118 1.531 1_554 S
C3115 C3114 1.369 . S
C3115 C3116 1.410 . S
C3115 C3123 1.503 . S
C3116 C3115 1.410 . S
C3116 C3117 1.392 . S
C3116 C3119 1.511 . S
C3117 C3113 1.376 . S
C3117 C3116 1.392 . S
C3117 H3129 0.929 . S
C3118 C3114 1.531 1_556 S
C3118 H3130 0.960 . S
C3118 H3131 0.962 . S
C3118 H3132 0.960 . S
C3119 C3116 1.511 . S
C3119 H3133 0.961 . S
C3119 H3134 0.961 . S
C3119 H3135 0.961 . S
C3120 C3121 1.370 . S
C3120 C3122 1.363 . S
C3120 H3136 0.931 . S
C3121 C3120 1.370 . S
C3121 C3125 1.408 1_554 S
C3122 C3120 1.363 . S
C3122 C3123 1.370 . S
C3122 C3126 1.524 . S
C3123 C3115 1.503 . S
C3123 C3122 1.370 . S
C3123 C3124 1.389 1_554 S
C3124 C3123 1.389 1_556 S
C3124 C3125 1.405 . S
C3124 C3127 1.552 . S
C3125 C3121 1.408 1_556 S
C3125 C3124 1.405 . S
C3125 H3137 0.930 . S
C3126 C3122 1.524 . S
C3126 H3138 0.956 . S
C3126 H3139 0.961 . S
C3126 H3140 0.961 . S
C3127 C3124 1.552 . S
C3127 H3141 0.958 . S
C3127 H3142 0.961 . S
C3127 H3143 0.960 . S
H3128 C3112 0.931 1_556 S
H3129 C3117 0.929 . S
H3130 C3118 0.960 . S
H3131 C3118 0.962 . S
H3132 C3118 0.960 . S
H3133 C3119 0.961 . S
H3134 C3119 0.961 . S
H3135 C3119 0.961 . S
H3136 C3120 0.931 . S
H3137 C3125 0.930 . S
H3138 C3126 0.956 . S
H3139 C3126 0.961 . S
H3140 C3126 0.961 . S
H3141 C3127 0.958 . S
H3142 C3127 0.961 . S
H3143 C3127 0.960 . S
C3144 C3145 1.391 . S
C3144 C3146 1.394 . S
C3144 H3160 0.931 . S
C3145 C3144 1.391 . S
C3145 C3149 1.376 . S
C3146 C3144 1.394 . S
C3146 C3147 1.369 . S
C3146 C3150 1.531 . S
C3147 C3146 1.369 . S
C3147 C3148 1.410 . S
C3147 C3155 1.503 . S
C3148 C3147 1.410 . S
C3148 C3149 1.392 . S
C3148 C3151 1.511 . S
C3149 C3145 1.376 . S
C3149 C3148 1.392 . S
C3149 H3161 0.929 . S
C3150 C3146 1.531 . S
C3150 H3162 0.960 . S
C3150 H3163 0.962 . S
C3150 H3164 0.960 . S
C3151 C3148 1.511 . S
C3151 H3165 0.961 . S
C3151 H3166 0.961 . S
C3151 H3167 0.961 . S
C3152 C3153 1.370 . S
C3152 C3154 1.363 . S
C3152 H3168 0.931 . S
C3153 C3152 1.370 . S
C3153 C3157 1.408 . S
C3154 C3152 1.363 . S
C3154 C3155 1.370 . S
C3154 C3158 1.524 . S
C3155 C3147 1.503 . S
C3155 C3154 1.370 . S
C3155 C3156 1.403 . S
C3156 C3155 1.403 . S
C3156 C3157 1.404 . S
C3156 C3159 1.539 . S
C3157 C3153 1.408 . S
C3157 C3156 1.404 . S
C3157 H3169 0.930 . S
C3158 C3154 1.524 . S
C3158 H3170 0.956 . S
C3158 H3171 0.961 . S
C3158 H3172 0.961 . S
C3159 C3156 1.539 . S
C3159 H3173 0.958 . S
C3159 H3174 0.961 . S
C3159 H3175 0.960 . S
H3160 C3144 0.931 . S
H3161 C3149 0.929 . S
H3162 C3150 0.960 . S
H3163 C3150 0.962 . S
H3164 C3150 0.960 . S
H3165 C3151 0.961 . S
H3166 C3151 0.961 . S
H3167 C3151 0.961 . S
H3168 C3152 0.931 . S
H3169 C3157 0.930 . S
H3170 C3158 0.956 . S
H3171 C3158 0.961 . S
H3172 C3158 0.961 . S
H3173 C3159 0.958 . S
H3174 C3159 0.961 . S
H3175 C3159 0.960 . S
C3176 C3177 1.391 1_554 S
C3176 C3178 1.394 . S
C3176 H3192 0.931 . S
C3177 C3176 1.391 1_556 S
C3177 C3181 1.376 . S
C3178 C3176 1.394 . S
C3178 C3179 1.369 1_554 S
C3178 C3182 1.531 . S
C3179 C3178 1.369 1_556 S
C3179 C3180 1.410 . S
C3179 C3187 1.503 . S
C3180 C3179 1.410 . S
C3180 C3181 1.392 . S
C3180 C3183 1.511 . S
C3181 C3177 1.376 . S
C3181 C3180 1.392 . S
C3181 H3193 0.929 . S
C3182 C3178 1.531 . S
C3182 H3194 0.960 . S
C3182 H3195 0.962 . S
C3182 H3196 0.960 . S
C3183 C3180 1.511 . S
C3183 H3197 0.961 . S
C3183 H3198 0.961 . S
C3183 H3199 0.961 . S
C3184 C3185 1.370 . S
C3184 C3186 1.363 . S
C3184 H3200 0.931 . S
C3185 C3184 1.370 . S
C3185 C3189 1.408 . S
C3186 C3184 1.363 . S
C3186 C3187 1.370 . S
C3186 C3190 1.524 . S
C3187 C3179 1.503 . S
C3187 C3186 1.370 . S
C3187 C3188 1.399 1_556 S
C3188 C3187 1.399 1_554 S
C3188 C3189 1.402 1_554 S
C3188 C3191 1.545 . S
C3189 C3185 1.408 . S
C3189 C3188 1.402 1_556 S
C3189 H3201 0.930 1_556 S
C3190 C3186 1.524 . S
C3190 H3202 0.956 . S
C3190 H3203 0.961 . S
C3190 H3204 0.961 . S
C3191 C3188 1.545 . S
C3191 H3205 0.958 . S
C3191 H3206 0.961 . S
C3191 H3207 0.960 . S
H3192 C3176 0.931 . S
H3193 C3181 0.929 . S
H3194 C3182 0.960 . S
H3195 C3182 0.962 . S
H3196 C3182 0.960 . S
H3197 C3183 0.961 . S
H3198 C3183 0.961 . S
H3199 C3183 0.961 . S
H3200 C3184 0.931 . S
H3201 C3189 0.930 1_554 S
H3202 C3190 0.956 . S
H3203 C3190 0.961 . S
H3204 C3190 0.961 . S
H3205 C3191 0.958 . S
H3206 C3191 0.961 . S
H3207 C3191 0.960 . S
C3208 C3209 1.391 . S
C3208 C3210 1.394 . S
C3208 H3224 0.931 . S
C3209 C3208 1.391 . S
C3209 C3213 1.376 . S
C3210 C3208 1.394 . S
C3210 C3211 1.369 . S
C3210 C3214 1.531 . S
C3211 C3210 1.369 . S
C3211 C3212 1.410 . S
C3211 C3219 1.503 . S
C3212 C3211 1.410 . S
C3212 C3213 1.392 . S
C3212 C3215 1.511 . S
C3213 C3209 1.376 . S
C3213 C3212 1.392 . S
C3213 H3225 0.929 . S
C3214 C3210 1.531 . S
C3214 H3226 0.960 . S
C3214 H3227 0.962 . S
C3214 H3228 0.960 . S
C3215 C3212 1.511 . S
C3215 H3229 0.961 . S
C3215 H3230 0.961 . S
C3215 H3231 0.961 . S
C3216 C3217 1.370 . S
C3216 C3218 1.363 . S
C3216 H3232 0.931 . S
C3217 C3216 1.370 . S
C3217 C3221 1.408 . S
C3218 C3216 1.363 . S
C3218 C3219 1.370 . S
C3218 C3222 1.524 . S
C3219 C3211 1.503 . S
C3219 C3218 1.370 . S
C3219 C3220 1.403 . S
C3220 C3219 1.403 . S
C3220 C3221 1.404 . S
C3220 C3223 1.539 . S
C3221 C3217 1.408 . S
C3221 C3220 1.404 . S
C3221 H3233 0.930 . S
C3222 C3218 1.524 . S
C3222 H3234 0.956 . S
C3222 H3235 0.961 . S
C3222 H3236 0.961 . S
C3223 C3220 1.539 . S
C3223 H3237 0.958 . S
C3223 H3238 0.961 . S
C3223 H3239 0.960 . S
H3224 C3208 0.931 . S
H3225 C3213 0.929 . S
H3226 C3214 0.960 . S
H3227 C3214 0.962 . S
H3228 C3214 0.960 . S
H3229 C3215 0.961 . S
H3230 C3215 0.961 . S
H3231 C3215 0.961 . S
H3232 C3216 0.931 . S
H3233 C3221 0.930 . S
H3234 C3222 0.956 . S
H3235 C3222 0.961 . S
H3236 C3222 0.961 . S
H3237 C3223 0.958 . S
H3238 C3223 0.961 . S
H3239 C3223 0.960 . S
C3240 C3241 1.391 . S
C3240 C3242 1.394 . S
C3240 H3256 0.931 1_455 S
C3241 C3240 1.391 . S
C3241 C3245 1.376 . S
C3242 C3240 1.394 . S
C3242 C3243 1.369 . S
C3242 C3246 1.531 1_455 S
C3243 C3242 1.369 . S
C3243 C3244 1.410 . S
C3243 C3251 1.503 . S
C3244 C3243 1.410 . S
C3244 C3245 1.392 . S
C3244 C3247 1.511 . S
C3245 C3241 1.376 . S
C3245 C3244 1.392 . S
C3245 H3257 0.929 . S
C3246 C3242 1.531 1_655 S
C3246 H3258 0.960 . S
C3246 H3259 0.962 . S
C3246 H3260 0.960 . S
C3247 C3244 1.511 . S
C3247 H3261 0.961 . S
C3247 H3262 0.961 . S
C3247 H3263 0.961 . S
C3248 C3249 1.370 . S
C3248 C3250 1.363 . S
C3248 H3264 0.931 1_455 S
C3249 C3248 1.370 . S
C3249 C3253 1.408 . S
C3250 C3248 1.363 . S
C3250 C3251 1.370 . S
C3250 C3254 1.524 1_455 S
C3251 C3243 1.503 . S
C3251 C3250 1.370 . S
C3251 C3252 1.403 . S
C3252 C3251 1.403 . S
C3252 C3253 1.404 . S
C3252 C3255 1.539 . S
C3253 C3249 1.408 . S
C3253 C3252 1.404 . S
C3253 H3265 0.930 . S
C3254 C3250 1.524 1_655 S
C3254 H3266 0.956 . S
C3254 H3267 0.961 1_655 S
C3254 H3268 0.961 . S
C3255 C3252 1.539 . S
C3255 H3269 0.958 . S
C3255 H3270 0.961 . S
C3255 H3271 0.960 . S
H3256 C3240 0.931 1_655 S
H3257 C3245 0.929 . S
H3258 C3246 0.960 . S
H3259 C3246 0.962 . S
H3260 C3246 0.960 . S
H3261 C3247 0.961 . S
H3262 C3247 0.961 . S
H3263 C3247 0.961 . S
H3264 C3248 0.931 1_655 S
H3265 C3253 0.930 . S
H3266 C3254 0.956 . S
H3267 C3254 0.961 1_455 S
H3268 C3254 0.961 . S
H3269 C3255 0.958 . S
H3270 C3255 0.961 . S
H3271 C3255 0.960 . S
C3272 C3273 1.391 . S
C3272 C3274 1.394 . S
C3272 H3288 0.931 . S
C3273 C3272 1.391 . S
C3273 C3277 1.376 . S
C3274 C3272 1.394 . S
C3274 C3275 1.369 . S
C3274 C3278 1.531 . S
C3275 C3274 1.369 . S
C3275 C3276 1.410 . S
C3275 C3283 1.503 . S
C3276 C3275 1.410 . S
C3276 C3277 1.392 . S
C3276 C3279 1.511 . S
C3277 C3273 1.376 . S
C3277 C3276 1.392 . S
C3277 H3289 0.929 . S
C3278 C3274 1.531 . S
C3278 H3290 0.960 . S
C3278 H3291 0.962 . S
C3278 H3292 0.960 . S
C3279 C3276 1.511 . S
C3279 H3293 0.961 . S
C3279 H3294 0.961 . S
C3279 H3295 0.961 . S
C3280 C3281 1.370 . S
C3280 C3282 1.363 . S
C3280 H3296 0.931 . S
C3281 C3280 1.370 . S
C3281 C3285 1.408 . S
C3282 C3280 1.363 . S
C3282 C3283 1.370 . S
C3282 C3286 1.524 . S
C3283 C3275 1.503 . S
C3283 C3282 1.370 . S
C3283 C3284 1.403 . S
C3284 C3283 1.403 . S
C3284 C3285 1.404 . S
C3284 C3287 1.539 . S
C3285 C3281 1.408 . S
C3285 C3284 1.404 . S
C3285 H3297 0.930 . S
C3286 C3282 1.524 . S
C3286 H3298 0.956 . S
C3286 H3299 0.961 . S
C3286 H3300 0.961 . S
C3287 C3284 1.539 . S
C3287 H3301 0.958 . S
C3287 H3302 0.961 . S
C3287 H3303 0.960 . S
H3288 C3272 0.931 . S
H3289 C3277 0.929 . S
H3290 C3278 0.960 . S
H3291 C3278 0.962 . S
H3292 C3278 0.960 . S
H3293 C3279 0.961 . S
H3294 C3279 0.961 . S
H3295 C3279 0.961 . S
H3296 C3280 0.931 . S
H3297 C3285 0.930 . S
H3298 C3286 0.956 . S
H3299 C3286 0.961 . S
H3300 C3286 0.961 . S
H3301 C3287 0.958 . S
H3302 C3287 0.961 . S
H3303 C3287 0.960 . S
C3304 C3305 1.391 1_455 S
C3304 C3306 1.394 . S
C3304 H3320 0.931 . S
C3305 C3304 1.391 1_655 S
C3305 C3309 1.376 . S
C3306 C3304 1.394 . S
C3306 C3307 1.369 1_455 S
C3306 C3310 1.531 . S
C3307 C3306 1.369 1_655 S
C3307 C3308 1.410 . S
C3307 C3315 1.503 . S
C3308 C3307 1.410 . S
C3308 C3309 1.392 . S
C3308 C3311 1.511 . S
C3309 C3305 1.376 . S
C3309 C3308 1.392 . S
C3309 H3321 0.929 . S
C3310 C3306 1.531 . S
C3310 H3322 0.960 . S
C3310 H3323 0.962 . S
C3310 H3324 0.960 . S
C3311 C3308 1.511 . S
C3311 H3325 0.961 . S
C3311 H3326 0.961 . S
C3311 H3327 0.961 . S
C3312 C3313 1.370 . S
C3312 C3314 1.363 . S
C3312 H3328 0.931 . S
C3313 C3312 1.370 . S
C3313 C3317 1.408 . S
C3314 C3312 1.363 . S
C3314 C3315 1.370 . S
C3314 C3318 1.524 . S
C3315 C3307 1.503 . S
C3315 C3314 1.370 . S
C3315 C3316 1.403 . S
C3316 C3315 1.403 . S
C3316 C3317 1.404 . S
C3316 C3319 1.539 . S
C3317 C3313 1.408 . S
C3317 C3316 1.404 . S
C3317 H3329 0.930 . S
C3318 C3314 1.524 . S
C3318 H3330 0.956 1_655 S
C3318 H3331 0.961 . S
C3318 H3332 0.961 . S
C3319 C3316 1.539 . S
C3319 H3333 0.958 . S
C3319 H3334 0.961 . S
C3319 H3335 0.960 . S
H3320 C3304 0.931 . S
H3321 C3309 0.929 . S
H3322 C3310 0.960 . S
H3323 C3310 0.962 . S
H3324 C3310 0.960 . S
H3325 C3311 0.961 . S
H3326 C3311 0.961 . S
H3327 C3311 0.961 . S
H3328 C3312 0.931 . S
H3329 C3317 0.930 . S
H3330 C3318 0.956 1_455 S
H3331 C3318 0.961 . S
H3332 C3318 0.961 . S
H3333 C3319 0.958 . S
H3334 C3319 0.961 . S
H3335 C3319 0.960 . S
C3336 C3337 1.391 . S
C3336 C3338 1.394 . S
C3336 H3352 0.931 . S
C3337 C3336 1.391 . S
C3337 C3341 1.376 . S
C3338 C3336 1.394 . S
C3338 C3339 1.369 . S
C3338 C3342 1.531 . S
C3339 C3338 1.369 . S
C3339 C3340 1.410 . S
C3339 C3347 1.503 . S
C3340 C3339 1.410 . S
C3340 C3341 1.392 . S
C3340 C3343 1.511 . S
C3341 C3337 1.376 . S
C3341 C3340 1.392 . S
C3341 H3353 0.929 . S
C3342 C3338 1.531 . S
C3342 H3354 0.960 . S
C3342 H3355 0.962 . S
C3342 H3356 0.960 . S
C3343 C3340 1.511 . S
C3343 H3357 0.961 . S
C3343 H3358 0.961 . S
C3343 H3359 0.961 . S
C3344 C3345 1.370 . S
C3344 C3346 1.363 . S
C3344 H3360 0.931 . S
C3345 C3344 1.370 . S
C3345 C3349 1.408 . S
C3346 C3344 1.363 . S
C3346 C3347 1.370 . S
C3346 C3350 1.524 . S
C3347 C3339 1.503 . S
C3347 C3346 1.370 . S
C3347 C3348 1.403 . S
C3348 C3347 1.403 . S
C3348 C3349 1.404 . S
C3348 C3351 1.539 . S
C3349 C3345 1.408 . S
C3349 C3348 1.404 . S
C3349 H3361 0.930 . S
C3350 C3346 1.524 . S
C3350 H3362 0.956 . S
C3350 H3363 0.961 . S
C3350 H3364 0.961 . S
C3351 C3348 1.539 . S
C3351 H3365 0.958 . S
C3351 H3366 0.961 . S
C3351 H3367 0.960 . S
H3352 C3336 0.931 . S
H3353 C3341 0.929 . S
H3354 C3342 0.960 . S
H3355 C3342 0.962 . S
H3356 C3342 0.960 . S
H3357 C3343 0.961 . S
H3358 C3343 0.961 . S
H3359 C3343 0.961 . S
H3360 C3344 0.931 . S
H3361 C3349 0.930 . S
H3362 C3350 0.956 . S
H3363 C3350 0.961 . S
H3364 C3350 0.961 . S
H3365 C3351 0.958 . S
H3366 C3351 0.961 . S
H3367 C3351 0.960 . S
C3368 C3369 1.391 . S
C3368 C3370 1.394 . S
C3368 H3384 0.931 . S
C3369 C3368 1.391 . S
C3369 C3373 1.376 . S
C3370 C3368 1.394 . S
C3370 C3371 1.369 . S
C3370 C3374 1.531 . S
C3371 C3370 1.369 . S
C3371 C3372 1.410 . S
C3371 C3379 1.503 . S
C3372 C3371 1.410 . S
C3372 C3373 1.392 . S
C3372 C3375 1.511 . S
C3373 C3369 1.376 . S
C3373 C3372 1.392 . S
C3373 H3385 0.929 . S
C3374 C3370 1.531 . S
C3374 H3386 0.960 . S
C3374 H3387 0.962 . S
C3374 H3388 0.960 . S
C3375 C3372 1.511 . S
C3375 H3389 0.961 . S
C3375 H3390 0.961 . S
C3375 H3391 0.961 . S
C3376 C3377 1.370 . S
C3376 C3378 1.363 . S
C3376 H3392 0.931 . S
C3377 C3376 1.370 . S
C3377 C3381 1.408 . S
C3378 C3376 1.363 . S
C3378 C3379 1.370 . S
C3378 C3382 1.524 . S
C3379 C3371 1.503 . S
C3379 C3378 1.370 . S
C3379 C3380 1.403 . S
C3380 C3379 1.403 . S
C3380 C3381 1.404 . S
C3380 C3383 1.539 . S
C3381 C3377 1.408 . S
C3381 C3380 1.404 . S
C3381 H3393 0.930 . S
C3382 C3378 1.524 . S
C3382 H3394 0.956 . S
C3382 H3395 0.961 . S
C3382 H3396 0.961 . S
C3383 C3380 1.539 . S
C3383 H3397 0.958 . S
C3383 H3398 0.961 . S
C3383 H3399 0.960 . S
H3384 C3368 0.931 . S
H3385 C3373 0.929 . S
H3386 C3374 0.960 . S
H3387 C3374 0.962 . S
H3388 C3374 0.960 . S
H3389 C3375 0.961 . S
H3390 C3375 0.961 . S
H3391 C3375 0.961 . S
H3392 C3376 0.931 . S
H3393 C3381 0.930 . S
H3394 C3382 0.956 . S
H3395 C3382 0.961 . S
H3396 C3382 0.961 . S
H3397 C3383 0.958 . S
H3398 C3383 0.961 . S
H3399 C3383 0.960 . S
C3400 C3401 1.391 1_565 S
C3400 C3402 1.394 . S
C3400 H3416 0.931 . S
C3401 C3400 1.391 1_545 S
C3401 C3405 1.376 . S
C3402 C3400 1.394 . S
C3402 C3403 1.369 1_565 S
C3402 C3406 1.531 . S
C3403 C3402 1.369 1_545 S
C3403 C3404 1.410 . S
C3403 C3411 1.503 . S
C3404 C3403 1.410 . S
C3404 C3405 1.392 . S
C3404 C3407 1.511 . S
C3405 C3401 1.376 . S
C3405 C3404 1.392 . S
C3405 H3417 0.929 . S
C3406 C3402 1.531 . S
C3406 H3418 0.960 . S
C3406 H3419 0.962 . S
C3406 H3420 0.960 . S
C3407 C3404 1.511 . S
C3407 H3421 0.961 . S
C3407 H3422 0.961 . S
C3407 H3423 0.961 . S
C3408 C3409 1.370 . S
C3408 C3410 1.363 . S
C3408 H3424 0.931 . S
C3409 C3408 1.370 . S
C3409 C3413 1.408 . S
C3410 C3408 1.363 . S
C3410 C3411 1.370 . S
C3410 C3414 1.524 . S
C3411 C3403 1.503 . S
C3411 C3410 1.370 . S
C3411 C3412 1.403 . S
C3412 C3411 1.403 . S
C3412 C3413 1.404 . S
C3412 C3415 1.536 1_545 S
C3413 C3409 1.408 . S
C3413 C3412 1.404 . S
C3413 H3425 0.930 . S
C3414 C3410 1.524 . S
C3414 H3426 0.956 . S
C3414 H3427 0.961 . S
C3414 H3428 0.961 . S
C3415 C3412 1.536 1_565 S
C3415 H3429 0.969 . S
C3415 H3430 0.957 1_565 S
C3415 H3431 0.957 1_565 S
H3416 C3400 0.931 . S
H3417 C3405 0.929 . S
H3418 C3406 0.960 . S
H3419 C3406 0.962 . S
H3420 C3406 0.960 . S
H3421 C3407 0.961 . S
H3422 C3407 0.961 . S
H3423 C3407 0.961 . S
H3424 C3408 0.931 . S
H3425 C3413 0.930 . S
H3426 C3414 0.956 . S
H3427 C3414 0.961 . S
H3428 C3414 0.961 . S
H3429 C3415 0.969 . S
H3430 C3415 0.957 1_545 S
H3431 C3415 0.957 1_545 S
C3432 C3433 1.391 . S
C3432 C3434 1.394 . S
C3432 H3448 0.931 . S
C3433 C3432 1.391 . S
C3433 C3437 1.376 . S
C3434 C3432 1.394 . S
C3434 C3435 1.369 . S
C3434 C3438 1.531 . S
C3435 C3434 1.369 . S
C3435 C3436 1.410 . S
C3435 C3443 1.503 . S
C3436 C3435 1.410 . S
C3436 C3437 1.392 . S
C3436 C3439 1.511 . S
C3437 C3433 1.376 . S
C3437 C3436 1.392 . S
C3437 H3449 0.929 . S
C3438 C3434 1.531 . S
C3438 H3450 0.960 . S
C3438 H3451 0.962 . S
C3438 H3452 0.960 . S
C3439 C3436 1.511 . S
C3439 H3453 0.961 . S
C3439 H3454 0.961 . S
C3439 H3455 0.961 1_565 S
C3440 C3441 1.370 . S
C3440 C3442 1.363 . S
C3440 H3456 0.931 . S
C3441 C3440 1.370 . S
C3441 C3445 1.408 1_565 S
C3442 C3440 1.363 . S
C3442 C3443 1.370 . S
C3442 C3446 1.524 . S
C3443 C3435 1.503 . S
C3443 C3442 1.370 . S
C3443 C3444 1.403 1_565 S
C3444 C3443 1.403 1_545 S
C3444 C3445 1.404 . S
C3444 C3447 1.539 . S
C3445 C3441 1.408 1_545 S
C3445 C3444 1.404 . S
C3445 H3457 0.930 . S
C3446 C3442 1.524 . S
C3446 H3458 0.956 . S
C3446 H3459 0.961 . S
C3446 H3460 0.961 . S
C3447 C3444 1.539 . S
C3447 H3461 0.958 . S
C3447 H3462 0.961 . S
C3447 H3463 0.960 . S
H3448 C3432 0.931 . S
H3449 C3437 0.929 . S
H3450 C3438 0.960 . S
H3451 C3438 0.962 . S
H3452 C3438 0.960 . S
H3453 C3439 0.961 . S
H3454 C3439 0.961 . S
H3455 C3439 0.961 1_545 S
H3456 C3440 0.931 . S
H3457 C3445 0.930 . S
H3458 C3446 0.956 . S
H3459 C3446 0.961 . S
H3460 C3446 0.961 . S
H3461 C3447 0.958 . S
H3462 C3447 0.961 . S
H3463 C3447 0.960 . S
C3464 C3465 1.391 . S
C3464 C3466 1.394 . S
C3464 H3480 0.931 . S
C3465 C3464 1.391 . S
C3465 C3469 1.376 . S
C3466 C3464 1.394 . S
C3466 C3467 1.369 . S
C3466 C3470 1.531 . S
C3467 C3466 1.369 . S
C3467 C3468 1.410 . S
C3467 C3475 1.503 . S
C3468 C3467 1.410 . S
C3468 C3469 1.392 . S
C3468 C3471 1.511 . S
C3469 C3465 1.376 . S
C3469 C3468 1.392 . S
C3469 H3481 0.929 . S
C3470 C3466 1.531 . S
C3470 H3482 0.960 . S
C3470 H3483 0.962 . S
C3470 H3484 0.960 . S
C3471 C3468 1.511 . S
C3471 H3485 0.961 . S
C3471 H3486 0.961 . S
C3471 H3487 0.961 . S
C3472 C3473 1.370 . S
C3472 C3474 1.363 . S
C3472 H3488 0.931 . S
C3473 C3472 1.370 . S
C3473 C3477 1.408 . S
C3474 C3472 1.363 . S
C3474 C3475 1.370 . S
C3474 C3478 1.524 . S
C3475 C3467 1.503 . S
C3475 C3474 1.370 . S
C3475 C3476 1.403 . S
C3476 C3475 1.403 . S
C3476 C3477 1.404 . S
C3476 C3479 1.539 . S
C3477 C3473 1.408 . S
C3477 C3476 1.404 . S
C3477 H3489 0.930 . S
C3478 C3474 1.524 . S
C3478 H3490 0.956 . S
C3478 H3491 0.961 . S
C3478 H3492 0.961 . S
C3479 C3476 1.539 . S
C3479 H3493 0.958 . S
C3479 H3494 0.961 . S
C3479 H3495 0.960 . S
H3480 C3464 0.931 . S
H3481 C3469 0.929 . S
H3482 C3470 0.960 . S
H3483 C3470 0.962 . S
H3484 C3470 0.960 . S
H3485 C3471 0.961 . S
H3486 C3471 0.961 . S
H3487 C3471 0.961 . S
H3488 C3472 0.931 . S
H3489 C3477 0.930 . S
H3490 C3478 0.956 . S
H3491 C3478 0.961 . S
H3492 C3478 0.961 . S
H3493 C3479 0.958 . S
H3494 C3479 0.961 . S
H3495 C3479 0.960 . S
C3496 C3497 1.391 . S
C3496 C3498 1.394 . S
C3496 H3512 0.931 . S
C3497 C3496 1.391 . S
C3497 C3501 1.376 . S
C3498 C3496 1.394 . S
C3498 C3499 1.369 . S
C3498 C3502 1.531 . S
C3499 C3498 1.369 . S
C3499 C3500 1.410 . S
C3499 C3507 1.503 . S
C3500 C3499 1.410 . S
C3500 C3501 1.392 . S
C3500 C3503 1.511 1_556 S
C3501 C3497 1.376 . S
C3501 C3500 1.392 . S
C3501 H3513 0.929 . S
C3502 C3498 1.531 . S
C3502 H3514 0.960 . S
C3502 H3515 0.962 . S
C3502 H3516 0.960 . S
C3503 C3500 1.511 1_554 S
C3503 H3517 0.961 1_554 S
C3503 H3518 0.961 1_554 S
C3503 H3519 0.961 . S
C3504 C3505 1.370 . S
C3504 C3506 1.363 . S
C3504 H3520 0.931 . S
C3505 C3504 1.370 . S
C3505 C3509 1.408 1_556 S
C3506 C3504 1.363 . S
C3506 C3507 1.370 . S
C3506 C3510 1.524 . S
C3507 C3499 1.503 . S
C3507 C3506 1.370 . S
C3507 C3508 1.403 1_556 S
C3508 C3507 1.403 1_554 S
C3508 C3509 1.404 . S
C3508 C3511 1.539 . S
C3509 C3505 1.408 1_554 S
C3509 C3508 1.404 . S
C3509 H3521 0.930 . S
C3510 C3506 1.524 . S
C3510 H3522 0.956 . S
C3510 H3523 0.961 . S
C3510 H3524 0.961 . S
C3511 C3508 1.539 . S
C3511 H3525 0.958 . S
C3511 H3526 0.961 . S
C3511 H3527 0.960 . S
H3512 C3496 0.931 . S
H3513 C3501 0.929 . S
H3514 C3502 0.960 . S
H3515 C3502 0.962 . S
H3516 C3502 0.960 . S
H3517 C3503 0.961 1_556 S
H3518 C3503 0.961 1_556 S
H3519 C3503 0.961 . S
H3520 C3504 0.931 . S
H3521 C3509 0.930 . S
H3522 C3510 0.956 . S
H3523 C3510 0.961 . S
H3524 C3510 0.961 . S
H3525 C3511 0.958 . S
H3526 C3511 0.961 . S
H3527 C3511 0.960 . S
C3528 C3529 1.391 . S
C3528 C3530 1.394 . S
C3528 H3544 0.931 . S
C3529 C3528 1.391 . S
C3529 C3533 1.376 . S
C3530 C3528 1.394 . S
C3530 C3531 1.369 . S
C3530 C3534 1.531 . S
C3531 C3530 1.369 . S
C3531 C3532 1.410 . S
C3531 C3539 1.503 . S
C3532 C3531 1.410 . S
C3532 C3533 1.392 . S
C3532 C3535 1.511 . S
C3533 C3529 1.376 . S
C3533 C3532 1.392 . S
C3533 H3545 0.929 . S
C3534 C3530 1.531 . S
C3534 H3546 0.960 . S
C3534 H3547 0.962 . S
C3534 H3548 0.960 . S
C3535 C3532 1.511 . S
C3535 H3549 0.961 . S
C3535 H3550 0.961 . S
C3535 H3551 0.961 . S
C3536 C3537 1.370 . S
C3536 C3538 1.363 . S
C3536 H3552 0.931 . S
C3537 C3536 1.370 . S
C3537 C3541 1.408 . S
C3538 C3536 1.363 . S
C3538 C3539 1.370 . S
C3538 C3542 1.524 . S
C3539 C3531 1.503 . S
C3539 C3538 1.370 . S
C3539 C3540 1.403 . S
C3540 C3539 1.403 . S
C3540 C3541 1.404 . S
C3540 C3543 1.539 . S
C3541 C3537 1.408 . S
C3541 C3540 1.404 . S
C3541 H3553 0.930 . S
C3542 C3538 1.524 . S
C3542 H3554 0.956 . S
C3542 H3555 0.961 . S
C3542 H3556 0.961 . S
C3543 C3540 1.539 . S
C3543 H3557 0.958 . S
C3543 H3558 0.961 . S
C3543 H3559 0.960 . S
H3544 C3528 0.931 . S
H3545 C3533 0.929 . S
H3546 C3534 0.960 . S
H3547 C3534 0.962 . S
H3548 C3534 0.960 . S
H3549 C3535 0.961 . S
H3550 C3535 0.961 . S
H3551 C3535 0.961 . S
H3552 C3536 0.931 . S
H3553 C3541 0.930 . S
H3554 C3542 0.956 . S
H3555 C3542 0.961 . S
H3556 C3542 0.961 . S
H3557 C3543 0.958 . S
H3558 C3543 0.961 . S
H3559 C3543 0.960 . S
C3560 C3561 1.391 . S
C3560 C3562 1.394 . S
C3560 H3576 0.931 . S
C3561 C3560 1.391 . S
C3561 C3565 1.376 . S
C3562 C3560 1.394 . S
C3562 C3563 1.369 . S
C3562 C3566 1.531 . S
C3563 C3562 1.369 . S
C3563 C3564 1.410 . S
C3563 C3571 1.503 . S
C3564 C3563 1.410 . S
C3564 C3565 1.392 . S
C3564 C3567 1.511 . S
C3565 C3561 1.376 . S
C3565 C3564 1.392 . S
C3565 H3577 0.929 . S
C3566 C3562 1.531 . S
C3566 H3578 0.960 . S
C3566 H3579 0.962 . S
C3566 H3580 0.960 . S
C3567 C3564 1.511 . S
C3567 H3581 0.961 1_554 S
C3567 H3582 0.961 1_554 S
C3567 H3583 0.961 . S
C3568 C3569 1.370 1_556 S
C3568 C3570 1.363 . S
C3568 H3584 0.931 . S
C3569 C3568 1.370 1_554 S
C3569 C3573 1.408 . S
C3570 C3568 1.363 . S
C3570 C3571 1.370 1_556 S
C3570 C3574 1.524 . S
C3571 C3563 1.503 . S
C3571 C3570 1.370 1_554 S
C3571 C3572 1.403 . S
C3572 C3571 1.403 . S
C3572 C3573 1.404 . S
C3572 C3575 1.539 . S
C3573 C3569 1.408 . S
C3573 C3572 1.404 . S
C3573 H3585 0.930 . S
C3574 C3570 1.524 . S
C3574 H3586 0.956 . S
C3574 H3587 0.961 . S
C3574 H3588 0.961 . S
C3575 C3572 1.539 . S
C3575 H3589 0.958 . S
C3575 H3590 0.961 . S
C3575 H3591 0.960 . S
H3576 C3560 0.931 . S
H3577 C3565 0.929 . S
H3578 C3566 0.960 . S
H3579 C3566 0.962 . S
H3580 C3566 0.960 . S
H3581 C3567 0.961 1_556 S
H3582 C3567 0.961 1_556 S
H3583 C3567 0.961 . S
H3584 C3568 0.931 . S
H3585 C3573 0.930 . S
H3586 C3574 0.956 . S
H3587 C3574 0.961 . S
H3588 C3574 0.961 . S
H3589 C3575 0.958 . S
H3590 C3575 0.961 . S
H3591 C3575 0.960 . S
C3592 C3593 1.391 . S
C3592 C3594 1.394 . S
C3592 H3608 0.931 . S
C3593 C3592 1.391 . S
C3593 C3597 1.376 . S
C3594 C3592 1.394 . S
C3594 C3595 1.369 . S
C3594 C3598 1.531 . S
C3595 C3594 1.369 . S
C3595 C3596 1.410 . S
C3595 C3603 1.503 . S
C3596 C3595 1.410 . S
C3596 C3597 1.392 . S
C3596 C3599 1.511 . S
C3597 C3593 1.376 . S
C3597 C3596 1.392 . S
C3597 H3609 0.929 . S
C3598 C3594 1.531 . S
C3598 H3610 0.960 . S
C3598 H3611 0.962 . S
C3598 H3612 0.960 . S
C3599 C3596 1.511 . S
C3599 H3613 0.961 . S
C3599 H3614 0.961 . S
C3599 H3615 0.961 . S
C3600 C3601 1.370 . S
C3600 C3602 1.363 . S
C3600 H3616 0.931 . S
C3601 C3600 1.370 . S
C3601 C3605 1.408 . S
C3602 C3600 1.363 . S
C3602 C3603 1.370 . S
C3602 C3606 1.524 . S
C3603 C3595 1.503 . S
C3603 C3602 1.370 . S
C3603 C3604 1.403 . S
C3604 C3603 1.403 . S
C3604 C3605 1.404 . S
C3604 C3607 1.539 . S
C3605 C3601 1.408 . S
C3605 C3604 1.404 . S
C3605 H3617 0.930 . S
C3606 C3602 1.524 . S
C3606 H3618 0.956 . S
C3606 H3619 0.961 . S
C3606 H3620 0.961 . S
C3607 C3604 1.539 . S
C3607 H3621 0.958 . S
C3607 H3622 0.961 . S
C3607 H3623 0.960 . S
H3608 C3592 0.931 . S
H3609 C3597 0.929 . S
H3610 C3598 0.960 . S
H3611 C3598 0.962 . S
H3612 C3598 0.960 . S
H3613 C3599 0.961 . S
H3614 C3599 0.961 . S
H3615 C3599 0.961 . S
H3616 C3600 0.931 . S
H3617 C3605 0.930 . S
H3618 C3606 0.956 . S
H3619 C3606 0.961 . S
H3620 C3606 0.961 . S
H3621 C3607 0.958 . S
H3622 C3607 0.961 . S
H3623 C3607 0.960 . S
C3624 C3625 1.391 . S
C3624 C3626 1.394 . S
C3624 H3640 0.931 . S
C3625 C3624 1.391 . S
C3625 C3629 1.376 . S
C3626 C3624 1.394 . S
C3626 C3627 1.369 . S
C3626 C3630 1.531 . S
C3627 C3626 1.369 . S
C3627 C3628 1.410 . S
C3627 C3635 1.503 . S
C3628 C3627 1.410 . S
C3628 C3629 1.392 . S
C3628 C3631 1.511 . S
C3629 C3625 1.376 . S
C3629 C3628 1.392 . S
C3629 H3641 0.929 . S
C3630 C3626 1.531 . S
C3630 H3642 0.960 . S
C3630 H3643 0.962 1_655 S
C3630 H3644 0.960 . S
C3631 C3628 1.511 . S
C3631 H3645 0.961 . S
C3631 H3646 0.961 . S
C3631 H3647 0.961 . S
C3632 C3633 1.370 1_455 S
C3632 C3634 1.359 1_455 S
C3632 H3648 0.931 . S
C3633 C3632 1.370 1_655 S
C3633 C3637 1.408 . S
C3634 C3632 1.359 1_655 S
C3634 C3635 1.397 . S
C3634 C3638 1.502 1_655 S
C3635 C3627 1.503 . S
C3635 C3634 1.397 . S
C3635 C3636 1.403 . S
C3636 C3635 1.403 . S
C3636 C3637 1.404 . S
C3636 C3639 1.539 . S
C3637 C3633 1.408 . S
C3637 C3636 1.404 . S
C3637 H3649 0.930 . S
C3638 C3634 1.502 1_455 S
C3638 H3650 0.956 . S
C3638 H3651 0.961 . S
C3638 H3652 0.961 . S
C3639 C3636 1.539 . S
C3639 H3653 0.958 . S
C3639 H3654 0.961 . S
C3639 H3655 0.960 . S
H3640 C3624 0.931 . S
H3641 C3629 0.929 . S
H3642 C3630 0.960 . S
H3643 C3630 0.962 1_455 S
H3644 C3630 0.960 . S
H3645 C3631 0.961 . S
H3646 C3631 0.961 . S
H3647 C3631 0.961 . S
H3648 C3632 0.931 . S
H3649 C3637 0.930 . S
H3650 C3638 0.956 . S
H3651 C3638 0.961 . S
H3652 C3638 0.961 . S
H3653 C3639 0.958 . S
H3654 C3639 0.961 . S
H3655 C3639 0.960 . S
C3656 C3657 1.391 . S
C3656 C3658 1.394 . S
C3656 H3672 0.931 . S
C3657 C3656 1.391 . S
C3657 C3661 1.376 . S
C3658 C3656 1.394 . S
C3658 C3659 1.369 . S
C3658 C3662 1.531 . S
C3659 C3658 1.369 . S
C3659 C3660 1.410 . S
C3659 C3667 1.503 . S
C3660 C3659 1.410 . S
C3660 C3661 1.392 . S
C3660 C3663 1.511 . S
C3661 C3657 1.376 . S
C3661 C3660 1.392 . S
C3661 H3673 0.929 . S
C3662 C3658 1.531 . S
C3662 H3674 0.960 . S
C3662 H3675 0.962 . S
C3662 H3676 0.960 . S
C3663 C3660 1.511 . S
C3663 H3677 0.961 . S
C3663 H3678 0.961 . S
C3663 H3679 0.961 . S
C3664 C3665 1.370 . S
C3664 C3666 1.363 . S
C3664 H3680 0.931 . S
C3665 C3664 1.370 . S
C3665 C3669 1.408 . S
C3666 C3664 1.363 . S
C3666 C3667 1.370 . S
C3666 C3670 1.524 . S
C3667 C3659 1.503 . S
C3667 C3666 1.370 . S
C3667 C3668 1.403 . S
C3668 C3667 1.403 . S
C3668 C3669 1.404 . S
C3668 C3671 1.539 . S
C3669 C3665 1.408 . S
C3669 C3668 1.404 . S
C3669 H3681 0.930 . S
C3670 C3666 1.524 . S
C3670 H3682 0.956 . S
C3670 H3683 0.961 . S
C3670 H3684 0.961 . S
C3671 C3668 1.539 . S
C3671 H3685 0.958 . S
C3671 H3686 0.961 . S
C3671 H3687 0.960 . S
H3672 C3656 0.931 . S
H3673 C3661 0.929 . S
H3674 C3662 0.960 . S
H3675 C3662 0.962 . S
H3676 C3662 0.960 . S
H3677 C3663 0.961 . S
H3678 C3663 0.961 . S
H3679 C3663 0.961 . S
H3680 C3664 0.931 . S
H3681 C3669 0.930 . S
H3682 C3670 0.956 . S
H3683 C3670 0.961 . S
H3684 C3670 0.961 . S
H3685 C3671 0.958 . S
H3686 C3671 0.961 . S
H3687 C3671 0.960 . S
C3688 C3689 1.391 1_655 S
C3688 C3690 1.394 . S
C3688 H3704 0.931 . S
C3689 C3688 1.391 1_455 S
C3689 C3693 1.376 . S
C3690 C3688 1.394 . S
C3690 C3691 1.369 1_655 S
C3690 C3694 1.531 . S
C3691 C3690 1.369 1_455 S
C3691 C3692 1.410 . S
C3691 C3699 1.503 . S
C3692 C3691 1.410 . S
C3692 C3693 1.392 . S
C3692 C3695 1.511 . S
C3693 C3689 1.376 . S
C3693 C3692 1.392 . S
C3693 H3705 0.929 . S
C3694 C3690 1.531 . S
C3694 H3706 0.960 . S
C3694 H3707 0.962 . S
C3694 H3708 0.960 . S
C3695 C3692 1.511 . S
C3695 H3709 0.961 . S
C3695 H3710 0.961 . S
C3695 H3711 0.961 . S
C3696 C3697 1.370 . S
C3696 C3698 1.363 . S
C3696 H3712 0.931 . S
C3697 C3696 1.370 . S
C3697 C3701 1.408 . S
C3698 C3696 1.363 . S
C3698 C3699 1.370 . S
C3698 C3702 1.524 . S
C3699 C3691 1.503 . S
C3699 C3698 1.370 . S
C3699 C3700 1.403 . S
C3700 C3699 1.403 . S
C3700 C3701 1.404 . S
C3700 C3703 1.539 . S
C3701 C3697 1.408 . S
C3701 C3700 1.404 . S
C3701 H3713 0.930 . S
C3702 C3698 1.524 . S
C3702 H3714 0.956 1_455 S
C3702 H3715 0.961 . S
C3702 H3716 0.961 . S
C3703 C3700 1.539 . S
C3703 H3717 0.958 . S
C3703 H3718 0.961 . S
C3703 H3719 0.960 . S
H3704 C3688 0.931 . S
H3705 C3693 0.929 . S
H3706 C3694 0.960 . S
H3707 C3694 0.962 . S
H3708 C3694 0.960 . S
H3709 C3695 0.961 . S
H3710 C3695 0.961 . S
H3711 C3695 0.961 . S
H3712 C3696 0.931 . S
H3713 C3701 0.930 . S
H3714 C3702 0.956 1_655 S
H3715 C3702 0.961 . S
H3716 C3702 0.961 . S
H3717 C3703 0.958 . S
H3718 C3703 0.961 . S
H3719 C3703 0.960 . S
C1425 C1403 1.661 1_455 S
C1417 C15 1.744 . S
C1457 C1346 1.379 . S
C1449 C55 1.374 . S
C1489 C1384 1.023 . S
C1481 C95 1.102 . S
C1521 C1365 1.559 . S
C1513 C135 1.561 . S
C1553 C1232 1.649 1_545 S
C1545 C175 1.747 . S
C1577 C215 1.542 . S
C1585 C1251 1.546 . S
C1617 C1194 1.380 . S
C1609 C255 1.374 . S
C1641 C295 1.119 . S
C1649 C1213 0.978 . S
C1681 C1327 1.662 1_554 S
C1673 C335 1.745 . S
C1705 C375 1.555 . S
C1713 C1289 1.558 . S
C1737 C415 1.417 . S
C1745 C1270 1.403 . S
C1777 C1308 1.012 . S
C1769 C455 1.108 . S
C1809 C1175 1.656 1_655 S
C1801 C495 1.742 . S
C1833 C535 1.413 . S
C1841 C1118 1.400 . S
C1873 C1156 1.023 . S
C1865 C575 1.113 . S
C1897 C615 1.575 . S
C1905 C1137 1.556 . S
C1937 C1004 1.672 1_565 S
C1929 C655 1.750 . S
C1969 C1023 1.561 . S
C1961 C695 1.555 . S
C1993 C735 1.376 . S
C2001 C966 1.384 . S
C2025 C775 1.111 . S
C2033 C985 0.978 . S
C2057 C815 1.741 . S
C2065 C1099 1.655 1_556 S
C2089 C855 1.580 . S
C2097 C1061 1.560 . S
C2129 C1042 1.392 . S
C2121 C895 1.395 . S
C2153 C935 1.094 . S
C2161 C1080 1.010 . S
C2193 C962 1.557 . S
C2185 C21 1.616 . S
C2225 C981 1.629 . S
C2217 C61 1.737 . S
C2249 C101 0.986 . S
C2257 C1000 0.979 . S
C2281 C141 1.109 . S
C2289 C1019 1.062 . S
C2321 C1038 1.542 . S
C2313 C181 1.622 . S
C2345 C221 1.109 . S
C2353 C1057 1.040 . S
C2385 C1076 1.598 . S
C2377 C261 1.769 . S
C2417 C1095 0.977 . S
C2409 C301 0.981 . S
C2449 C1114 1.541 . S
C2441 C341 1.614 . S
C2473 C381 1.108 . S
C2481 C1133 1.054 . S
C2505 C421 1.735 . S
C2513 C1152 1.620 . S
C2537 C461 0.995 . S
C2545 C1171 0.983 . S
C2569 C501 1.553 . S
C2577 C1190 1.549 . S
C2601 C541 1.662 . S
C2609 C1209 1.588 . S
C2633 C581 0.998 . S
C2641 C1228 0.945 . S
C2665 C621 1.056 . S
C2673 C1247 1.064 . S
C2697 C661 1.592 . S
C2705 C1266 1.530 . S
C2737 C1285 1.047 . S
C2729 C701 1.071 . S
C2769 C1304 1.623 . S
C2761 C741 1.611 . S
C2801 C1323 0.949 . S
C2793 C781 0.987 . S
C2833 C1342 1.537 . S
C2825 C821 1.594 . S
C2857 C861 1.047 . S
C2865 C1361 1.058 . S
C2889 C901 1.658 . S
C2897 C1380 1.599 . S
C2921 C941 1.007 . S
C2929 C1399 0.946 . S
C2953 C2 1.670 . S
C2961 C1123 1.611 . S
C2993 C1180 1.912 . S
C2985 C42 1.926 . S
C3017 C82 1.606 . S
C3025 C1142 1.576 . S
C3057 C1161 1.540 . S
C3049 C122 1.599 . S
C3081 C162 1.659 . S
C3089 C971 1.612 . S
C3113 C202 1.609 . S
C3121 C990 1.526 . S
C3145 C242 1.937 . S
C3153 C1009 1.904 . S
C3177 C282 1.625 . S
C3185 C1028 1.589 . S
C3217 C1047 1.616 . S
C3209 C322 1.670 . S
C3249 C1085 1.519 . S
C3241 C362 1.615 . S
C3273 C402 1.924 . S
C3281 C1104 1.906 . S
C3305 C442 1.617 . S
C3313 C1066 1.582 . S
C3345 C1351 1.583 . S
C3337 C482 1.643 . S
C3377 C1408 1.804 . S
C3369 C522 1.857 . S
C3401 C562 1.614 . S
C3409 C1370 1.476 . S
C3441 C1389 1.497 . S
C3433 C602 1.536 . S
C3465 C642 1.635 . S
C3473 C1199 1.578 . S
C3497 C682 1.538 . S
C3505 C1218 1.500 . S
C3529 C722 1.886 . S
C3537 C1237 1.779 . S
C3569 C1256 1.503 . S
C3561 C762 1.627 . S
C3601 C1275 1.566 . S
C3593 C802 1.660 . S
C3633 C1313 1.464 . S
C3625 C842 1.587 . S
C3657 C882 1.833 . S
C3665 C1332 1.802 . S
C3697 C1294 1.477 . S
C3689 C922 1.619 . S
