# Generated by pormake.
# Topology nom, (4,4)-cn, num edge types: 1
# Building blocks:
#     Node 0, Type 0, BuildingBlock: NAWXER_clean_linker_0, # of connection points: 4
#     Node 1, Type 0, BuildingBlock: NAWXER_clean_linker_0, # of connection points: 4
#     Node 2, Type 0, BuildingBlock: NAWXER_clean_linker_0, # of connection points: 4
#     Node 3, Type 0, BuildingBlock: NAWXER_clean_linker_0, # of connection points: 4
#     Node 4, Type 0, BuildingBlock: NAWXER_clean_linker_0, # of connection points: 4
#     Node 5, Type 0, BuildingBlock: NAWXER_clean_linker_0, # of connection points: 4
#     Node 6, Type 1, BuildingBlock: TATPOV_clean_sbu_0, # of connection points: 4
#     Node 7, Type 1, BuildingBlock: TATPOV_clean_sbu_0, # of connection points: 4
#     Node 8, Type 1, BuildingBlock: TATPOV_clean_sbu_0, # of connection points: 4
#     Node 9, Type 1, BuildingBlock: TATPOV_clean_sbu_0, # of connection points: 4
#     Node 10, Type 1, BuildingBlock: TATPOV_clean_sbu_0, # of connection points: 4
#     Node 11, Type 1, BuildingBlock: TATPOV_clean_sbu_0, # of connection points: 4
#     Edge 12, Type (0, 1), BuildingBlock: ZUJKAS_clean_linker_0, # of connection points: 2
#     Edge 13, Type (0, 1), BuildingBlock: ZUJKAS_clean_linker_0, # of connection points: 2
#     Edge 14, Type (0, 1), BuildingBlock: ZUJKAS_clean_linker_0, # of connection points: 2
#     Edge 15, Type (0, 1), BuildingBlock: ZUJKAS_clean_linker_0, # of connection points: 2
#     Edge 16, Type (0, 1), BuildingBlock: ZUJKAS_clean_linker_0, # of connection points: 2
#     Edge 17, Type (0, 1), BuildingBlock: ZUJKAS_clean_linker_0, # of connection points: 2
#     Edge 18, Type (0, 1), BuildingBlock: ZUJKAS_clean_linker_0, # of connection points: 2
#     Edge 19, Type (0, 1), BuildingBlock: ZUJKAS_clean_linker_0, # of connection points: 2
#     Edge 20, Type (0, 1), BuildingBlock: ZUJKAS_clean_linker_0, # of connection points: 2
#     Edge 21, Type (0, 1), BuildingBlock: ZUJKAS_clean_linker_0, # of connection points: 2
#     Edge 22, Type (0, 1), BuildingBlock: ZUJKAS_clean_linker_0, # of connection points: 2
#     Edge 23, Type (0, 1), BuildingBlock: ZUJKAS_clean_linker_0, # of connection points: 2
#     Edge 24, Type (0, 1), BuildingBlock: ZUJKAS_clean_linker_0, # of connection points: 2
#     Edge 25, Type (0, 1), BuildingBlock: ZUJKAS_clean_linker_0, # of connection points: 2
#     Edge 26, Type (0, 1), BuildingBlock: ZUJKAS_clean_linker_0, # of connection points: 2
#     Edge 27, Type (0, 1), BuildingBlock: ZUJKAS_clean_linker_0, # of connection points: 2
#     Edge 28, Type (0, 1), BuildingBlock: ZUJKAS_clean_linker_0, # of connection points: 2
#     Edge 29, Type (0, 1), BuildingBlock: ZUJKAS_clean_linker_0, # of connection points: 2
#     Edge 30, Type (0, 1), BuildingBlock: ZUJKAS_clean_linker_0, # of connection points: 2
#     Edge 31, Type (0, 1), BuildingBlock: ZUJKAS_clean_linker_0, # of connection points: 2
#     Edge 32, Type (0, 1), BuildingBlock: ZUJKAS_clean_linker_0, # of connection points: 2
#     Edge 33, Type (0, 1), BuildingBlock: ZUJKAS_clean_linker_0, # of connection points: 2
#     Edge 34, Type (0, 1), BuildingBlock: ZUJKAS_clean_linker_0, # of connection points: 2
#     Edge 35, Type (0, 1), BuildingBlock: ZUJKAS_clean_linker_0, # of connection points: 2
# Relax obj value: 0.024
# Max RMSD: 0.116
# Mean RMSD: 0.109
data_MOF--net-nom--node1-TATPOV_clean_sbu_0--node2-NAWXER_clean_linker_0--edge1-ZUJKAS_clean_linker_0
_symmetry_space_group_name_H-M    P1
_symmetry_Int_Tables_number       1
_symmetry_cell_setting            triclinic
loop_
_symmetry_equiv_pos_as_xyz
'x, y, z'
_cell_length_a     64.655817
_cell_length_b     65.538794
_cell_length_c     71.673565
_cell_angle_alpha  90.551959
_cell_angle_beta   90.63062
_cell_angle_gamma 120.00378
loop_
_atom_site_label
_atom_site_type_symbol
_atom_site_fract_x
_atom_site_fract_y
_atom_site_fract_z
_atom_type_partial_charge
C0 C 0.92093 0.46946 0.33562 0.0
C1 C 0.91165 0.45279 0.34986 0.0
C2 C 0.94362 0.47683 0.32872 0.0
C3 C 0.95743 0.46743 0.33568 0.0
C4 C 0.92536 0.44319 0.35672 0.0
C5 C 0.94815 0.45061 0.34979 0.0
C6 C 0.98232 0.47693 0.32956 0.0
C7 C 0.93595 0.44038 0.27914 0.0
C8 C 0.93888 0.45531 0.2642 0.0
C9 C 0.95209 0.44849 0.29427 0.0
C10 C 0.9713 0.47177 0.29486 0.0
C11 C 0.95825 0.47853 0.26479 0.0
C12 C 0.97433 0.48661 0.27989 0.0
C13 C 0.98884 0.4807 0.3106 0.0
C14 C 0.09663 0.52856 0.31382 0.0
C15 C 0.10193 0.54801 0.30261 0.0
C16 C 0.07319 0.51355 0.31948 0.0
C17 C 0.05476 0.51771 0.31385 0.0
C18 C 0.08337 0.55185 0.29679 0.0
C19 C 0.05998 0.53672 0.30223 0.0
C20 C 0.02992 0.50254 0.31986 0.0
C21 C 0.07197 0.54303 0.37102 0.0
C22 C 0.07252 0.52874 0.3853 0.0
C23 C 0.05629 0.53306 0.35577 0.0
C24 C 0.041 0.50856 0.35438 0.0
C25 C 0.05717 0.50421 0.38389 0.0
C26 C 0.04142 0.49425 0.36862 0.0
C27 C 0.02349 0.49803 0.33876 0.0
H28 H 0.91074 0.47704 0.32992 0.0
H29 H 0.95061 0.49039 0.31827 0.0
H30 H 0.91877 0.43051 0.36784 0.0
H31 H 0.95867 0.44342 0.35558 0.0
H32 H 0.92142 0.42229 0.27897 0.0
H33 H 0.9497 0.43647 0.3054 0.0
H34 H 0.96084 0.4906 0.25366 0.0
H35 H 0.98902 0.50462 0.27999 0.0
H36 H 0.11067 0.52525 0.31847 0.0
H37 H 0.06945 0.49875 0.32823 0.0
H38 H 0.08694 0.56653 0.28795 0.0
H39 H 0.04599 0.54015 0.29765 0.0
H40 H 0.08364 0.56197 0.37166 0.0
H41 H 0.05584 0.54455 0.34521 0.0
H42 H 0.05693 0.49277 0.39479 0.0
H43 H 0.02951 0.47534 0.36795 0.0
N44 N -9e-05 0.48543 0.34289 0.0
N45 N 0.01238 0.49363 0.30654 0.0
C46 C 0.46388 0.93107 0.50014 0.0
C47 C 0.47379 0.9231 0.51381 0.0
C48 C 0.4775 0.95326 0.49242 0.0
C49 C 0.50145 0.96791 0.49801 0.0
C50 C 0.49787 0.93759 0.51923 0.0
C51 C 0.51152 0.95993 0.51151 0.0
C52 C 0.515 0.99232 0.49114 0.0
C53 C 0.50422 0.9459 0.44135 0.0
C54 C 0.48869 0.94616 0.4276 0.0
C55 C 0.51277 0.9626 0.45592 0.0
C56 C 0.50595 0.97984 0.45697 0.0
C57 C 0.48203 0.96353 0.42863 0.0
C58 C 0.49074 0.98032 0.44309 0.0
C59 C 0.51514 0.99786 0.47213 0.0
C60 C 0.5708 0.10445 0.47252 0.0
C61 C 0.55497 0.10854 0.46173 0.0
C62 C 0.56399 0.08173 0.47854 0.0
C63 C 0.54125 0.06276 0.47385 0.0
C64 C 0.53242 0.08943 0.45679 0.0
C65 C 0.52572 0.06675 0.46268 0.0
C66 C 0.53333 0.03864 0.48034 0.0
C67 C 0.53909 0.08121 0.53195 0.0
C68 C 0.55573 0.08242 0.54536 0.0
C69 C 0.53241 0.06557 0.51675 0.0
C70 C 0.54242 0.05102 0.51455 0.0
C71 C 0.56587 0.06795 0.54304 0.0
C72 C 0.55912 0.05226 0.52783 0.0
C73 C 0.53418 0.03322 0.49927 0.0
H74 H 0.44543 0.92024 0.49558 0.0
H75 H 0.46903 0.95924 0.48247 0.0
H76 H 0.50589 0.93199 0.52987 0.0
H77 H 0.52985 0.97109 0.51624 0.0
H78 H 0.50961 0.9327 0.4409 0.0
H79 H 0.52487 0.96217 0.46627 0.0
H80 H 0.47037 0.96436 0.41807 0.0
H81 H 0.4854 0.99357 0.44354 0.0
H82 H 0.58827 0.11886 0.47656 0.0
H83 H 0.57644 0.07898 0.48687 0.0
H84 H 0.52 0.09199 0.44826 0.0
H85 H 0.50816 0.05233 0.45877 0.0
H86 H 0.53106 0.09221 0.53331 0.0
H87 H 0.51901 0.06449 0.50695 0.0
H88 H 0.57846 0.06823 0.55327 0.0
H89 H 0.5668 0.04094 0.52652 0.0
N90 N 0.52489 0.01025 0.50395 0.0
N91 N 0.52396 0.02076 0.4675 0.0
C92 C 0.53947 0.48049 0.6165 0.0
C93 C 0.52185 0.46323 0.60456 0.0
C94 C 0.53346 0.49216 0.62986 0.0
C95 C 0.50971 0.48689 0.63159 0.0
C96 C 0.498 0.45787 0.60644 0.0
C97 C 0.49204 0.46976 0.61973 0.0
C98 C 0.50357 0.5 0.64523 0.0
C99 C 0.51881 0.45208 0.67885 0.0
C100 C 0.53956 0.46336 0.69015 0.0
C101 C 0.50975 0.46505 0.6703 0.0
C102 C 0.52136 0.48963 0.6727 0.0
C103 C 0.55117 0.48797 0.69261 0.0
C104 C 0.54198 0.50098 0.68408 0.0
C105 C 0.51114 0.50315 0.66409 0.0
C106 C 0.46257 0.55036 0.69975 0.0
C107 C 0.48126 0.56654 0.71153 0.0
C108 C 0.46697 0.53828 0.6856 0.0
C109 C 0.49024 0.5425 0.68275 0.0
C110 C 0.50456 0.57092 0.70851 0.0
C111 C 0.50898 0.55896 0.69429 0.0
C112 C 0.49496 0.5284 0.66902 0.0
C113 C 0.46686 0.56801 0.63625 0.0
C114 C 0.44564 0.5533 0.62613 0.0
C115 C 0.48037 0.55885 0.64405 0.0
C116 C 0.4727 0.53473 0.64211 0.0
C117 C 0.43832 0.52928 0.6239 0.0
C118 C 0.45177 0.52014 0.63174 0.0
C119 C 0.48652 0.52448 0.65028 0.0
H120 H 0.5581 0.48558 0.61517 0.0
H121 H 0.5475 0.50574 0.63857 0.0
H122 H 0.48392 0.44454 0.59763 0.0
H123 H 0.4736 0.46549 0.62082 0.0
H124 H 0.50959 0.43317 0.67655 0.0
H125 H 0.49346 0.45579 0.66198 0.0
H126 H 0.56707 0.49709 0.70138 0.0
H127 H 0.55104 0.5199 0.6863 0.0
H128 H 0.44435 0.54626 0.70198 0.0
H129 H 0.45207 0.52511 0.6773 0.0
H130 H 0.51933 0.58337 0.71731 0.0
H131 H 0.52703 0.56234 0.69245 0.0
H132 H 0.47317 0.58667 0.63794 0.0
H133 H 0.49685 0.57062 0.6515 0.0
H134 H 0.42195 0.51743 0.61636 0.0
H135 H 0.44558 0.50151 0.62996 0.0
N136 N 0.49127 0.5105 0.6391 0.0
N137 N 0.50686 0.51748 0.6752 0.0
C138 C 0.91219 0.42659 0.80356 0.0
C139 C 0.90319 0.43565 0.79001 0.0
C140 C 0.93542 0.44025 0.81067 0.0
C141 C 0.9501 0.46334 0.80451 0.0
C142 C 0.91814 0.4586 0.78355 0.0
C143 C 0.94143 0.47226 0.79066 0.0
C144 C 0.97474 0.47786 0.81201 0.0
C145 C 0.9271 0.47057 0.85965 0.0
C146 C 0.92858 0.45791 0.87483 0.0
C147 C 0.94365 0.47756 0.84533 0.0
C148 C 0.96193 0.47191 0.84586 0.0
C149 C 0.94683 0.45217 0.87528 0.0
C150 C 0.96346 0.45929 0.861 0.0
C151 C 0.98031 0.48038 0.83129 0.0
C152 C 0.08658 0.54872 0.83419 0.0
C153 C 0.0938 0.53666 0.84637 0.0
C154 C 0.06305 0.53788 0.8273 0.0
C155 C 0.04648 0.51471 0.83231 0.0
C156 C 0.07682 0.51389 0.852 0.0
C157 C 0.05341 0.50308 0.84508 0.0
C158 C 0.02184 0.50231 0.82457 0.0
C159 C 0.07183 0.51802 0.7767 0.0
C160 C 0.06855 0.53043 0.7622 0.0
C161 C 0.05471 0.50774 0.79056 0.0
C162 C 0.03447 0.5105 0.79052 0.0
C163 C 0.04788 0.53236 0.76175 0.0
C164 C 0.03105 0.52253 0.7758 0.0
C165 C 0.01626 0.50033 0.80524 0.0
H166 H 0.90138 0.4088 0.80851 0.0
H167 H 0.94198 0.43269 0.8209 0.0
H168 H 0.91171 0.46616 0.77322 0.0
H169 H 0.95255 0.48995 0.78558 0.0
H170 H 0.91318 0.47517 0.85888 0.0
H171 H 0.94241 0.48778 0.83403 0.0
H172 H 0.94862 0.44272 0.88692 0.0
H173 H 0.97759 0.45498 0.86179 0.0
H174 H 0.09924 0.56627 0.8296 0.0
H175 H 0.05791 0.54743 0.81785 0.0
H176 H 0.08168 0.50434 0.86169 0.0
H177 H 0.04081 0.48536 0.84939 0.0
H178 H 0.08747 0.51601 0.77716 0.0
H179 H 0.05732 0.49767 0.80127 0.0
H180 H 0.04499 0.54189 0.75072 0.0
H181 H 0.01546 0.52463 0.77529 0.0
N182 N 0.99288 0.48818 0.79976 0.0
N183 N 0.00364 0.49223 0.83681 0.0
C184 C 0.49976 0.92496 0.97193 0.0
C185 C 0.48201 0.91719 0.95784 0.0
C186 C 0.50929 0.94748 0.97986 0.0
C187 C 0.5011 0.96264 0.97402 0.0
C188 C 0.47405 0.9325 0.95183 0.0
C189 C 0.48364 0.95509 0.95976 0.0
C190 C 0.51148 0.98668 0.9822 0.0
C191 C 0.47 0.93801 0.02795 0.0
C192 C 0.48375 0.93803 0.04328 0.0
C193 C 0.4802 0.95519 0.01433 0.0
C194 C 0.50444 0.97261 0.01565 0.0
C195 C 0.508 0.95551 0.0446 0.0
C196 C 0.5182 0.97275 0.03098 0.0
C197 C 0.51504 0.99137 0.00161 0.0
C198 C 0.55505 0.09649 0.00717 0.0
C199 C 0.57474 0.1029 0.01924 0.0
C200 C 0.54204 0.0736 -0.00024 0.0
C201 C 0.54868 0.05677 0.00405 0.0
C202 C 0.58087 0.08578 0.02394 0.0
C203 C 0.56789 0.06293 0.01648 0.0
C204 C 0.53561 0.03264 0.99593 0.0
C205 C 0.56947 0.08171 0.94775 0.0
C206 C 0.5524 0.08153 0.93531 0.0
C207 C 0.56262 0.06436 0.96127 0.0
C208 C 0.53861 0.04658 0.96256 0.0
C209 C 0.52844 0.06357 0.93657 0.0
C210 C 0.52166 0.04617 0.94998 0.0
C211 C 0.53096 0.02792 0.97659 0.0
H212 H 0.50616 0.91355 0.97698 0.0
H213 H 0.52321 0.9531 0.99047 0.0
H214 H 0.46062 0.92713 0.94083 0.0
H215 H 0.47728 0.96661 0.95487 0.0
H216 H 0.4513 0.92472 0.02648 0.0
H217 H 0.46902 0.95505 0.00291 0.0
H218 H 0.51896 0.95619 0.0564 0.0
H219 H 0.53685 0.9862 0.03239 0.0
H220 H 0.54958 0.10913 0.00357 0.0
H221 H 0.5268 0.06906 0.99066 0.0
H222 H 0.59605 0.09018 0.03307 0.0
H223 H 0.5732 0.05017 0.02011 0.0
H224 H 0.58805 0.09535 0.94709 0.0
H225 H 0.57608 0.06474 0.97064 0.0
H226 H 0.51497 0.06273 0.92696 0.0
H227 H 0.50308 0.03246 0.95064 0.0
N228 N 0.51919 0.00513 0.97046 0.0
N229 N 0.52735 0.01417 0.00772 0.0
C230 C 0.49414 0.58207 0.18368 0.0
C231 C 0.47393 0.57355 0.19497 0.0
C232 C 0.50151 0.56685 0.17668 0.0
C233 C 0.48874 0.54274 0.1807 0.0
C234 C 0.46162 0.54951 0.19949 0.0
C235 C 0.46907 0.53427 0.1925 0.0
C236 C 0.49627 0.52657 0.17286 0.0
C237 C 0.46716 0.54829 0.12481 0.0
C238 C 0.48363 0.56074 0.11081 0.0
C239 C 0.47284 0.53716 0.13882 0.0
C240 C 0.49527 0.5386 0.13933 0.0
C241 C 0.50601 0.56205 0.11127 0.0
C242 C 0.51174 0.55103 0.12537 0.0
C243 C 0.50117 0.52615 0.15374 0.0
C244 C 0.53043 0.45206 0.14839 0.0
C245 C 0.55219 0.46503 0.13916 0.0
C246 C 0.51834 0.46327 0.15514 0.0
C247 C 0.52783 0.48756 0.15262 0.0
C248 C 0.56127 0.48918 0.1363 0.0
C249 C 0.54909 0.50029 0.14283 0.0
C250 C 0.51599 0.50012 0.16012 0.0
C251 C 0.54376 0.47844 0.20944 0.0
C252 C 0.5262 0.4643 0.22223 0.0
C253 C 0.53861 0.48987 0.19534 0.0
C254 C 0.51563 0.48696 0.19348 0.0
C255 C 0.50327 0.46157 0.22046 0.0
C256 C 0.49807 0.47285 0.20624 0.0
C257 C 0.5102 0.49976 0.17912 0.0
H258 H 0.50437 0.60056 0.1803 0.0
H259 H 0.51721 0.57393 0.16809 0.0
H260 H 0.44592 0.54237 0.20808 0.0
H261 H 0.45914 0.51577 0.19593 0.0
H262 H 0.44958 0.54652 0.12459 0.0
H263 H 0.45947 0.527 0.14902 0.0
H264 H 0.51909 0.57159 0.10071 0.0
H265 H 0.52908 0.55225 0.12539 0.0
H266 H 0.52306 0.4334 0.15075 0.0
H267 H 0.50173 0.45306 0.1624 0.0
H268 H 0.57783 0.49951 0.12898 0.0
H269 H 0.5566 0.519 0.14061 0.0
H270 H 0.56175 0.48132 0.21072 0.0
H271 H 0.55277 0.50139 0.18616 0.0
H272 H 0.48938 0.45076 0.23011 0.0
H273 H 0.4803 0.47058 0.20521 0.0
N274 N 0.5006 0.51307 0.18477 0.0
N275 N 0.51118 0.51323 0.14817 0.0
Zn276 Zn 0.6568 0.43833 0.41644 0.0
Zn277 Zn 0.63307 0.39086 0.4151 0.0
O278 O 0.66859 0.40071 0.4126 0.0
O279 O 0.68822 0.43945 0.41304 0.0
O280 O 0.61701 0.35542 0.41599 0.0
O281 O 0.64452 0.43781 0.44223 0.0
O282 O 0.62303 0.39913 0.43997 0.0
C283 C 0.68819 0.42016 0.41176 0.0
C284 C 0.62226 0.41749 0.38563 0.0
O285 O 0.61884 0.39795 0.39198 0.0
O286 O 0.63701 0.43672 0.39374 0.0
C287 C 0.62463 0.344 0.40665 0.0
O288 O 0.64246 0.35541 0.39525 0.0
C289 C 0.62935 0.41827 0.44899 0.0
Zn290 Zn 0.23373 0.6784 0.57848 0.0
Zn291 Zn 0.25525 0.65207 0.57826 0.0
O292 O 0.28279 0.68627 0.57598 0.0
O293 O 0.26573 0.70808 0.57609 0.0
O294 O 0.27288 0.63408 0.57976 0.0
O295 O 0.22073 0.66613 0.6041 0.0
O296 O 0.23669 0.64333 0.60272 0.0
C297 C 0.28439 0.70642 0.57522 0.0
C298 C 0.21864 0.64396 0.54775 0.0
O299 O 0.2336 0.63894 0.555 0.0
O300 O 0.21549 0.65985 0.55513 0.0
C301 C 0.28943 0.63784 0.56851 0.0
O302 O 0.29423 0.6529 0.555 0.0
C303 C 0.22421 0.65046 0.61122 0.0
Zn304 Zn 0.56113 0.2291 0.74166 0.0
Zn305 Zn 0.60945 0.25284 0.74324 0.0
O306 O 0.60091 0.27895 0.74122 0.0
O307 O 0.56162 0.26025 0.74087 0.0
O308 O 0.64517 0.27129 0.74597 0.0
O309 O 0.56045 0.21405 0.76638 0.0
O310 O 0.59974 0.23393 0.76737 0.0
C311 C 0.58143 0.27935 0.74055 0.0
C312 C 0.58339 0.21817 0.71103 0.0
O313 O 0.60282 0.23278 0.71941 0.0
O314 O 0.5635 0.21384 0.71761 0.0
C315 C 0.65859 0.28495 0.73346 0.0
O316 O 0.64898 0.28655 0.71769 0.0
C317 C 0.57996 0.21933 0.77463 0.0
Zn318 Zn 0.36206 0.58152 0.91154 0.0
Zn319 Zn 0.38234 0.62869 0.91307 0.0
O320 O 0.34667 0.61737 0.90902 0.0
O321 O 0.32976 0.57873 0.90762 0.0
O322 O 0.39686 0.66383 0.91568 0.0
O323 O 0.37448 0.58148 0.93741 0.0
O324 O 0.39186 0.62016 0.93814 0.0
C325 C 0.32806 0.59715 0.90697 0.0
C326 C 0.39613 0.60533 0.88234 0.0
O327 O 0.39797 0.62389 0.88987 0.0
O328 O 0.38243 0.58534 0.88921 0.0
C329 C 0.39194 0.67563 0.90432 0.0
O330 O 0.37754 0.66474 0.89003 0.0
C331 C 0.38739 0.60097 0.94586 0.0
Zn332 Zn 0.78037 0.44066 0.0717 0.0
Zn333 Zn 0.75796 0.39298 0.07033 0.0
O334 O 0.73076 0.40027 0.07346 0.0
O335 O 0.74835 0.43897 0.07386 0.0
O336 O 0.74023 0.35763 0.06758 0.0
O337 O 0.79427 0.44201 0.04628 0.0
O338 O 0.77647 0.40329 0.04583 0.0
C339 C 0.72952 0.41903 0.07459 0.0
C340 C 0.79386 0.41969 0.10182 0.0
O341 O 0.77905 0.40025 0.09379 0.0
O342 O 0.79754 0.43905 0.09512 0.0
C343 C 0.72296 0.34458 0.07804 0.0
O344 O 0.7172 0.35432 0.09161 0.0
C345 C 0.78986 0.42297 0.03815 0.0
Zn346 Zn 0.34865 0.78657 0.23499 0.0
Zn347 Zn 0.37522 0.76503 0.2349 0.0
O348 O 0.341 0.73824 0.23865 0.0
O349 O 0.31869 0.75486 0.2382 0.0
O350 O 0.39324 0.7475 0.23315 0.0
O351 O 0.36038 0.79896 0.20918 0.0
O352 O 0.38255 0.78219 0.20994 0.0
C353 C 0.32059 0.73662 0.23967 0.0
C354 C 0.38476 0.80195 0.2649 0.0
O355 O 0.38946 0.78692 0.25768 0.0
O356 O 0.36851 0.80507 0.2578 0.0
C357 C 0.39131 0.73281 0.24543 0.0
O358 O 0.37819 0.72995 0.26011 0.0
C359 C 0.37546 0.79472 0.20159 0.0
H360 H 0.13397 0.53745 0.28703 0.0
H361 H 0.1741 0.56541 0.27581 0.0
H362 H 0.16553 0.62349 0.29433 0.0
H363 H 0.12554 0.59579 0.30543 0.0
H364 H 0.18282 0.60486 0.24836 0.0
H365 H 0.23266 0.63462 0.31606 0.0
H366 H 0.20584 0.60627 0.3129 0.0
H367 H 0.2038 0.63249 0.31527 0.0
C368 C 0.14084 0.55619 0.2889 0.0
C369 C 0.12672 0.56453 0.29702 0.0
C370 C 0.16363 0.57207 0.28244 0.0
C371 C 0.17269 0.59641 0.28437 0.0
C372 C 0.15884 0.60473 0.29287 0.0
H373 H 0.27377 0.72513 0.23742 0.0
H374 H 0.23883 0.6883 0.24663 0.0
C375 C 0.13602 0.58893 0.29909 0.0
C376 C 0.19608 0.61342 0.2767 0.0
H377 H 0.25134 0.65823 0.28964 0.0
C378 C 0.19798 0.61629 0.25732 0.0
C379 C 0.21574 0.62815 0.28848 0.0
C380 C 0.21462 0.62522 0.30935 0.0
C381 C 0.21876 0.63443 0.24944 0.0
C382 C 0.23795 0.64997 0.26131 0.0
C383 C 0.23651 0.6463 0.28061 0.0
C384 C 0.25892 0.67123 0.25415 0.0
C385 C 0.21989 0.63723 0.22856 0.0
C386 C 0.28173 0.67373 0.25533 0.0
C387 C 0.30175 0.69471 0.24998 0.0
C388 C 0.29927 0.71367 0.24367 0.0
C389 C 0.27629 0.71089 0.24223 0.0
C390 C 0.2563 0.68983 0.24739 0.0
H391 H 0.20637 0.62086 0.2212 0.0
H392 H 0.21634 0.65162 0.22487 0.0
H393 H 0.23791 0.64204 0.22348 0.0
H394 H 0.28406 0.65957 0.26065 0.0
H395 H 0.31921 0.69633 0.25134 0.0
H396 H 0.59713 0.14152 0.44664 0.0
H397 H 0.6079 0.1812 0.43635 0.0
H398 H 0.53895 0.16953 0.45283 0.0
H399 H 0.52806 0.12994 0.4632 0.0
H400 H 0.57678 0.19191 0.40869 0.0
H401 H 0.59381 0.23358 0.47951 0.0
H402 H 0.59631 0.20777 0.47477 0.0
H403 H 0.56741 0.20519 0.47594 0.0
C404 C 0.58435 0.1475 0.44818 0.0
C405 C 0.56176 0.13266 0.45572 0.0
C406 C 0.59047 0.17005 0.44221 0.0
C407 C 0.57421 0.17819 0.44391 0.0
C408 C 0.55171 0.1635 0.45147 0.0
H409 H 0.58554 0.31426 0.42682 0.0
H410 H 0.57198 0.27322 0.43446 0.0
C411 C 0.54551 0.1409 0.4573 0.0
C412 C 0.58069 0.20205 0.43772 0.0
H413 H 0.59631 0.25704 0.45401 0.0
C414 C 0.58111 0.20622 0.41854 0.0
C415 C 0.58607 0.22048 0.45067 0.0
C416 C 0.58605 0.21675 0.47141 0.0
C417 C 0.58659 0.22845 0.41193 0.0
C418 C 0.59238 0.24707 0.42489 0.0
C419 C 0.59185 0.24277 0.44409 0.0
C420 C 0.59949 0.2713 0.41893 0.0
C421 C 0.58557 0.23158 0.39117 0.0
C422 C 0.61938 0.28382 0.40756 0.0
C423 C 0.62702 0.3072 0.40302 0.0
C424 C 0.61516 0.31863 0.41002 0.0
C425 C 0.59507 0.30596 0.42121 0.0
C426 C 0.58732 0.28252 0.42561 0.0
H427 H 0.57392 0.21449 0.38383 0.0
H428 H 0.57884 0.24381 0.38799 0.0
H429 H 0.60379 0.23904 0.3855 0.0
H430 H 0.62943 0.27575 0.40262 0.0
H431 H 0.64269 0.31651 0.39451 0.0
H432 H 0.42364 0.54367 0.59174 0.0
H433 H 0.39796 0.55796 0.57913 0.0
H434 H 0.40849 0.59834 0.62977 0.0
H435 H 0.43414 0.58411 0.64249 0.0
H436 H 0.35584 0.55175 0.59338 0.0
H437 H 0.4227 0.64682 0.58938 0.0
H438 H 0.43101 0.62454 0.59249 0.0
H439 H 0.42143 0.63492 0.61206 0.0
C440 C 0.4205 0.55561 0.60018 0.0
C441 C 0.43096 0.5628 0.61811 0.0
C442 C 0.40591 0.56382 0.59293 0.0
C443 C 0.40159 0.57946 0.60341 0.0
C444 C 0.41204 0.58672 0.62127 0.0
H445 H 0.28577 0.60794 0.59626 0.0
H446 H 0.31259 0.5927 0.60295 0.0
C447 C 0.42668 0.57857 0.62853 0.0
C448 C 0.38528 0.58733 0.59602 0.0
H449 H 0.38171 0.63638 0.58638 0.0
C450 C 0.36154 0.57024 0.59169 0.0
C451 C 0.39284 0.61143 0.59355 0.0
C452 C 0.41844 0.63048 0.59693 0.0
C453 C 0.34492 0.57666 0.58555 0.0
C454 C 0.35218 0.60082 0.58401 0.0
C455 C 0.37612 0.61786 0.58773 0.0
C456 C 0.33509 0.60887 0.5792 0.0
C457 C 0.31978 0.55751 0.58071 0.0
C458 C 0.339 0.62327 0.56375 0.0
C459 C 0.32377 0.63218 0.55995 0.0
C460 C 0.30445 0.62696 0.57162 0.0
C461 C 0.3004 0.61222 0.58693 0.0
C462 C 0.31564 0.60336 0.59072 0.0
H463 H 0.31902 0.54059 0.57721 0.0
H464 H 0.30825 0.55452 0.59292 0.0
H465 H 0.31232 0.56254 0.56874 0.0
H466 H 0.35399 0.62783 0.55474 0.0
H467 H 0.32743 0.64351 0.54807 0.0
H468 H 0.88669 0.43149 0.75394 0.0
H469 H 0.84548 0.40761 0.74228 0.0
H470 H 0.82246 0.3825 0.79786 0.0
H471 H 0.86328 0.40695 0.80973 0.0
H472 H 0.81569 0.35929 0.74334 0.0
H473 H 0.77654 0.40482 0.78236 0.0
H474 H 0.80836 0.41726 0.78001 0.0
H475 H 0.79244 0.39527 0.79724 0.0
C476 C 0.87278 0.42116 0.76372 0.0
C477 C 0.87827 0.4212 0.78279 0.0
C478 C 0.8493 0.40741 0.75702 0.0
C479 C 0.83088 0.39358 0.76926 0.0
C480 C 0.83632 0.39341 0.78823 0.0
H481 H 0.68299 0.28867 0.76582 0.0
H482 H 0.72531 0.31529 0.77282 0.0
C483 C 0.85974 0.40717 0.79495 0.0
C484 C 0.80601 0.37879 0.76221 0.0
H485 H 0.74894 0.36706 0.76899 0.0
C486 C 0.80111 0.36115 0.74875 0.0
C487 C 0.78706 0.38136 0.76925 0.0
C488 C 0.79135 0.40086 0.78287 0.0
C489 C 0.77759 0.34537 0.74272 0.0
C490 C 0.75863 0.34746 0.75028 0.0
C491 C 0.76358 0.36546 0.76335 0.0
C492 C 0.73339 0.33059 0.74541 0.0
C493 C 0.77302 0.32608 0.72881 0.0
C494 C 0.72401 0.33037 0.72763 0.0
C495 C 0.69975 0.31521 0.72356 0.0
C496 C 0.68454 0.30004 0.73724 0.0
C497 C 0.69418 0.30008 0.75495 0.0
C498 C 0.71835 0.3153 0.759 0.0
H499 H 0.78926 0.32477 0.72637 0.0
H500 H 0.75858 0.30883 0.73372 0.0
H501 H 0.76703 0.3297 0.7153 0.0
H502 H 0.73535 0.34226 0.71703 0.0
H503 H 0.69288 0.31563 0.70981 0.0
H504 H 0.50593 0.89435 0.94768 0.0
H505 H 0.48898 0.8539 0.93594 0.0
H506 H 0.41835 0.84522 0.9372 0.0
H507 H 0.43512 0.88554 0.94948 0.0
H508 H 0.42145 0.80911 0.95427 0.0
H509 H 0.46171 0.82574 0.88423 0.0
H510 H 0.48322 0.84048 0.90277 0.0
H511 H 0.4608 0.84843 0.8981 0.0
C512 C 0.48679 0.88385 0.94545 0.0
C513 C 0.47186 0.89313 0.94956 0.0
C514 C 0.47716 0.86083 0.93852 0.0
C515 C 0.45246 0.84669 0.93544 0.0
C516 C 0.4375 0.85594 0.93933 0.0
H517 H 0.38391 0.70597 0.88356 0.0
H518 H 0.39763 0.74753 0.89052 0.0
C519 C 0.44712 0.879 0.94625 0.0
C520 C 0.44215 0.82176 0.92936 0.0
H521 H 0.44477 0.78633 0.89532 0.0
C522 C 0.42636 0.80412 0.94129 0.0
C523 C 0.44838 0.8153 0.91233 0.0
C524 C 0.46427 0.83347 0.89852 0.0
C525 C 0.41726 0.78018 0.93697 0.0
C526 C 0.42445 0.77376 0.92041 0.0
C527 C 0.43954 0.79134 0.90813 0.0
C528 C 0.41682 0.74888 0.91584 0.0
C529 C 0.40003 0.76196 0.95018 0.0
C530 C 0.42353 0.73609 0.92756 0.0
C531 C 0.41577 0.7124 0.92364 0.0
C532 C 0.40121 0.70107 0.90786 0.0
C533 C 0.39503 0.71413 0.89586 0.0
C534 C 0.40285 0.73787 0.8998 0.0
H535 H 0.3915 0.76928 0.95937 0.0
H536 H 0.38582 0.74643 0.9424 0.0
H537 H 0.40987 0.75588 0.9592 0.0
H538 H 0.4347 0.74441 0.93981 0.0
H539 H 0.42099 0.70293 0.93312 0.0
H540 H 0.53582 0.42412 0.11872 0.0
H541 H 0.55954 0.40723 0.10648 0.0
H542 H 0.62285 0.46383 0.13285 0.0
H543 H 0.59938 0.4807 0.14505 0.0
H544 H 0.60145 0.43315 0.08273 0.0
H545 H 0.62222 0.40201 0.14815 0.0
H546 H 0.59716 0.40689 0.14578 0.0
H547 H 0.62677 0.43136 0.14987 0.0
C548 C 0.55474 0.43271 0.12209 0.0
C549 C 0.56583 0.45373 0.13276 0.0
C550 C 0.56823 0.42312 0.11507 0.0
C551 C 0.59285 0.43419 0.11895 0.0
C552 C 0.6038 0.45488 0.12992 0.0
H553 H 0.71935 0.45464 0.07237 0.0
H554 H 0.68239 0.45356 0.08089 0.0
C555 C 0.59044 0.46458 0.13675 0.0
C556 C 0.60773 0.42532 0.11063 0.0
H557 H 0.64815 0.40844 0.12242 0.0
C558 C 0.61131 0.42725 0.09132 0.0
C559 C 0.62033 0.41741 0.12186 0.0
C560 C 0.61631 0.41406 0.14256 0.0
C561 C 0.62845 0.42302 0.08311 0.0
C562 C 0.64236 0.41688 0.09457 0.0
C563 C 0.63758 0.41334 0.11368 0.0
C564 C 0.66356 0.4165 0.08747 0.0
C565 C 0.63208 0.42588 0.06235 0.0
C566 C 0.66522 0.39599 0.08838 0.0
C567 C 0.68638 0.39652 0.08347 0.0
C568 C 0.70632 0.4177 0.07789 0.0
C569 C 0.70435 0.43805 0.07662 0.0
C570 C 0.68317 0.43744 0.08136 0.0
H571 H 0.61585 0.42364 0.05496 0.0
H572 H 0.64698 0.44388 0.05956 0.0
H573 H 0.63675 0.41298 0.05649 0.0
H574 H 0.65032 0.37971 0.09323 0.0
H575 H 0.68735 0.38056 0.08467 0.0
H576 H 0.48434 0.88831 0.5216 0.0
H577 H 0.45802 0.84992 0.53569 0.0
H578 H 0.40271 0.86807 0.54049 0.0
H579 H 0.42884 0.90634 0.52677 0.0
H580 H 0.41175 0.84741 0.57355 0.0
H581 H 0.39776 0.79569 0.50771 0.0
H582 H 0.42794 0.81603 0.51531 0.0
H583 H 0.40891 0.82704 0.50765 0.0
C584 C 0.46663 0.88413 0.52582 0.0
C585 C 0.45854 0.9002 0.5229 0.0
C586 C 0.45161 0.8622 0.53374 0.0
C587 C 0.42838 0.85615 0.53893 0.0
C588 C 0.42055 0.8724 0.53649 0.0
H589 H 0.29421 0.75204 0.57518 0.0
H590 H 0.33209 0.78723 0.56867 0.0
C591 C 0.43543 0.89418 0.52852 0.0
C592 C 0.4117 0.83274 0.54653 0.0
H593 H 0.37445 0.77542 0.53327 0.0
C594 C 0.40384 0.83156 0.56486 0.0
C595 C 0.40159 0.81212 0.53519 0.0
C596 C 0.40929 0.81259 0.51533 0.0
C597 C 0.38539 0.81046 0.57192 0.0
C598 C 0.37421 0.79019 0.56018 0.0
C599 C 0.38301 0.79103 0.54221 0.0
C600 C 0.35184 0.76881 0.56549 0.0
C601 C 0.37771 0.81021 0.59175 0.0
C602 C 0.35024 0.74664 0.56557 0.0
C603 C 0.32846 0.72635 0.5692 0.0
C604 C 0.30788 0.72789 0.5726 0.0
C605 C 0.30969 0.75018 0.57268 0.0
C606 C 0.33141 0.77039 0.56911 0.0
H607 H 0.39258 0.82386 0.60052 0.0
H608 H 0.3629 0.81414 0.59186 0.0
H609 H 0.37135 0.79273 0.59813 0.0
H610 H 0.36576 0.74503 0.56262 0.0
H611 H 0.32766 0.70944 0.56896 0.0
H612 H 0.51398 0.42201 0.70838 0.0
H613 H 0.52824 0.3967 0.72092 0.0
H614 H 0.60016 0.44734 0.70551 0.0
H615 H 0.58583 0.47263 0.69245 0.0
H616 H 0.58572 0.40208 0.69309 0.0
H617 H 0.5661 0.40137 0.768 0.0
H618 H 0.54068 0.3949 0.7535 0.0
H619 H 0.56728 0.42337 0.75236 0.0
C620 C 0.53286 0.42784 0.70776 0.0
C621 C 0.54877 0.44923 0.69934 0.0
C622 C 0.54104 0.41351 0.71515 0.0
C623 C 0.56532 0.42032 0.71442 0.0
C624 C 0.58139 0.4419 0.70638 0.0
H625 H 0.62028 0.3234 0.73608 0.0
H626 H 0.62024 0.36036 0.7313 0.0
C627 C 0.57321 0.45634 0.699 0.0
C628 C 0.57322 0.40372 0.72048 0.0
H629 H 0.56914 0.36819 0.75643 0.0
C630 C 0.58264 0.39502 0.70705 0.0
C631 C 0.56922 0.39461 0.73872 0.0
C632 C 0.56049 0.40424 0.75402 0.0
C633 C 0.58661 0.37632 0.71103 0.0
C634 C 0.58128 0.36632 0.72895 0.0
C635 C 0.57307 0.37583 0.74267 0.0
C636 C 0.58189 0.34457 0.73313 0.0
C637 C 0.59513 0.36648 0.69572 0.0
C638 C 0.56041 0.32365 0.7362 0.0
C639 C 0.56034 0.30257 0.73894 0.0
C640 C 0.5818 0.30202 0.73875 0.0
C641 C 0.60342 0.32319 0.73623 0.0
C642 C 0.60345 0.34431 0.73344 0.0
H643 H 0.59504 0.37397 0.6819 0.0
H644 H 0.61366 0.37064 0.69901 0.0
H645 H 0.58373 0.347 0.69474 0.0
H646 H 0.54359 0.32354 0.73604 0.0
H647 H 0.54339 0.28664 0.74093 0.0
H648 H 0.1203 0.515 0.84888 0.0
H649 H 0.16155 0.53178 0.85984 0.0
H650 H 0.16634 0.59924 0.86843 0.0
H651 H 0.12458 0.58232 0.85795 0.0
H652 H 0.2025 0.57004 0.84471 0.0
H653 H 0.18949 0.58675 0.91886 0.0
H654 H 0.16482 0.56757 0.90355 0.0
H655 H 0.17902 0.59893 0.90122 0.0
C656 C 0.12998 0.53333 0.85333 0.0
C657 C 0.11908 0.54726 0.85274 0.0
C658 C 0.15361 0.54293 0.85945 0.0
C659 C 0.16688 0.56665 0.86513 0.0
C660 C 0.15626 0.58079 0.86436 0.0
H661 H 0.31744 0.63265 0.90346 0.0
H662 H 0.27911 0.62872 0.89352 0.0
C663 C 0.13251 0.57116 0.85821 0.0
C664 C 0.19192 0.57629 0.87158 0.0
H665 H 0.22794 0.59472 0.91058 0.0
C666 C 0.20816 0.57575 0.85905 0.0
C667 C 0.19922 0.58377 0.89028 0.0
C668 C 0.18227 0.58422 0.90436 0.0
C669 C 0.23127 0.58166 0.8649 0.0
C670 C 0.23819 0.58808 0.88376 0.0
C671 C 0.22243 0.58976 0.89612 0.0
C672 C 0.2608 0.59071 0.89113 0.0
C673 C 0.24793 0.58026 0.85104 0.0
C674 C 0.26284 0.57059 0.89343 0.0
C675 C 0.28451 0.57271 0.89914 0.0
C676 C 0.30463 0.59505 0.90262 0.0
C677 C 0.3023 0.6152 0.90086 0.0
C678 C 0.28048 0.61302 0.8952 0.0
H679 H 0.24179 0.5797 0.83641 0.0
H680 H 0.26626 0.59557 0.85288 0.0
H681 H 0.24882 0.56401 0.85348 0.0
H682 H 0.24772 0.55323 0.89045 0.0
H683 H 0.2856 0.55682 0.9004 0.0
H684 H 0.58917 0.14386 0.00045 0.0
H685 H 0.61401 0.18425 0.01229 0.0
H686 H 0.61791 0.15796 0.06636 0.0
H687 H 0.59293 0.11747 0.05468 0.0
H688 H 0.60639 0.20768 0.04211 0.0
H689 H 0.68836 0.20169 0.05338 0.0
H690 H 0.66311 0.18018 0.03964 0.0
H691 H 0.66222 0.17944 0.06469 0.0
C692 C 0.59511 0.14666 0.01492 0.0
C693 C 0.58916 0.12744 0.0266 0.0
C694 C 0.60939 0.16974 0.02163 0.0
C695 C 0.61808 0.17406 0.04011 0.0
C696 C 0.6118 0.15498 0.05194 0.0
H697 H 0.68332 0.31193 0.09628 0.0
H698 H 0.6578 0.27014 0.08814 0.0
C699 C 0.59754 0.13187 0.04524 0.0
C700 C 0.6337 0.19859 0.04695 0.0
H701 H 0.68996 0.23693 0.06351 0.0
C702 C 0.62465 0.21409 0.04684 0.0
C703 C 0.65757 0.20691 0.05291 0.0
C704 C 0.66854 0.19129 0.05255 0.0
C705 C 0.63884 0.23774 0.05258 0.0
C706 C 0.6626 0.24597 0.05882 0.0
C707 C 0.67166 0.23048 0.05889 0.0
C708 C 0.67867 0.27089 0.0645 0.0
C709 C 0.62851 0.25387 0.05142 0.0
C710 C 0.69928 0.28493 0.05428 0.0
C711 C 0.71397 0.30875 0.05894 0.0
C712 C 0.70836 0.31897 0.07398 0.0
C713 C 0.68808 0.30466 0.08455 0.0
C714 C 0.67339 0.28081 0.07987 0.0
H715 H 0.61212 0.24624 0.04246 0.0
H716 H 0.62373 0.25682 0.06562 0.0
H717 H 0.64176 0.27126 0.04582 0.0
H718 H 0.70372 0.27756 0.04242 0.0
H719 H 0.72948 0.31924 0.05054 0.0
H720 H 0.47185 0.60811 0.17549 0.0
H721 H 0.4587 0.63508 0.18644 0.0
H722 H 0.4428 0.60191 0.24012 0.0
H723 H 0.45682 0.57536 0.2295 0.0
H724 H 0.41415 0.6239 0.19893 0.0
H725 H 0.48344 0.67178 0.25417 0.0
H726 H 0.48626 0.65342 0.23662 0.0
H727 H 0.4672 0.64027 0.25619 0.0
C728 C 0.46593 0.60677 0.18973 0.0
C729 C 0.46559 0.5897 0.20168 0.0
C730 C 0.45826 0.6221 0.19592 0.0
C731 C 0.45011 0.62073 0.21417 0.0
C732 C 0.44946 0.60357 0.2261 0.0
H733 H 0.38977 0.69881 0.26828 0.0
H734 H 0.40419 0.67137 0.26155 0.0
C735 C 0.4572 0.58822 0.21993 0.0
C736 C 0.4416 0.63686 0.22036 0.0
H737 H 0.45258 0.68112 0.25148 0.0
C738 C 0.42255 0.6364 0.21042 0.0
C739 C 0.45256 0.65309 0.2354 0.0
C740 C 0.47363 0.6549 0.24615 0.0
C741 C 0.4142 0.65181 0.21506 0.0
C742 C 0.42539 0.66827 0.22989 0.0
C743 C 0.44411 0.66846 0.2401 0.0
C744 C 0.4182 0.68584 0.23457 0.0
C745 C 0.3934 0.65032 0.20411 0.0
C746 C 0.42192 0.70339 0.22181 0.0
C747 C 0.4138 0.71911 0.2256 0.0
C748 C 0.4018 0.71754 0.24225 0.0
C749 C 0.39885 0.70043 0.2553 0.0
C750 C 0.40708 0.68475 0.25151 0.0
H751 H 0.38339 0.6334 0.19617 0.0
H752 H 0.38088 0.65219 0.21351 0.0
H753 H 0.40016 0.66489 0.194 0.0
H754 H 0.43079 0.70469 0.20878 0.0
H755 H 0.41648 0.73214 0.21529 0.0
H756 H 0.89493 0.48224 0.35919 0.0
H757 H 0.85569 0.47179 0.37108 0.0
H758 H 0.83592 0.39843 0.37088 0.0
H759 H 0.87533 0.40878 0.35883 0.0
H760 H 0.81175 0.44125 0.35275 0.0
H761 H 0.81741 0.40989 0.42355 0.0
H762 H 0.84356 0.4276 0.40987 0.0
H763 H 0.82448 0.39695 0.40416 0.0
C764 C 0.88224 0.46386 0.36162 0.0
C765 C 0.88814 0.4463 0.35793 0.0
C766 C 0.85989 0.45794 0.36852 0.0
C767 C 0.843 0.43438 0.37197 0.0
C768 C 0.84887 0.41677 0.36858 0.0
H769 H 0.69494 0.38233 0.40644 0.0
H770 H 0.73184 0.38333 0.39713 0.0
C771 C 0.87134 0.4227 0.36169 0.0
C772 C 0.81892 0.42848 0.37818 0.0
H773 H 0.78155 0.40909 0.41533 0.0
C774 C 0.80507 0.43406 0.36638 0.0
C775 C 0.81024 0.41896 0.39592 0.0
C776 C 0.82468 0.4131 0.40923 0.0
C777 C 0.78301 0.43093 0.37201 0.0
C778 C 0.77474 0.42226 0.38999 0.0
C779 C 0.78808 0.4158 0.40157 0.0
C780 C 0.75304 0.42137 0.39729 0.0
C781 C 0.76884 0.43725 0.35879 0.0
C782 C 0.75306 0.44242 0.40092 0.0
C783 C 0.73215 0.44196 0.40623 0.0
C784 C 0.71078 0.42038 0.40803 0.0
C785 C 0.71107 0.39924 0.40511 0.0
C786 C 0.7321 0.39975 0.39982 0.0
H787 H 0.77479 0.43838 0.34416 0.0
H788 H 0.74948 0.4241 0.35934 0.0
H789 H 0.77126 0.45468 0.36296 0.0
H790 H 0.76918 0.45926 0.39921 0.0
H791 H 0.73265 0.45856 0.40847 0.0
H792 H 0.08075 0.56794 0.40517 0.0
H793 H 0.10674 0.58558 0.43265 0.0
H794 H 0.12583 0.53128 0.43087 0.0
H795 H 0.10014 0.5137 0.4031 0.0
H796 H 0.10309 0.56211 0.4675 0.0
H797 H 0.19095 0.59446 0.43368 0.0
H798 H 0.16403 0.58708 0.42054 0.0
H799 H 0.16871 0.56412 0.42931 0.0
C800 C 0.09072 0.55992 0.41046 0.0
C801 C 0.0885 0.5395 0.40189 0.0
C802 C 0.10543 0.56993 0.42622 0.0
C803 C 0.11836 0.55986 0.43364 0.0
C804 C 0.11621 0.53947 0.42519 0.0
H805 H 0.21807 0.60676 0.52927 0.0
H806 H 0.19351 0.5849 0.50196 0.0
C807 C 0.10139 0.52936 0.40944 0.0
C808 C 0.13351 0.57043 0.45057 0.0
H809 H 0.19146 0.60051 0.46622 0.0
C810 C 0.12241 0.57045 0.46726 0.0
C811 C 0.15866 0.5811 0.45019 0.0
C812 C 0.17143 0.58192 0.43248 0.0
C813 C 0.13582 0.58104 0.48361 0.0
C814 C 0.16104 0.59239 0.48312 0.0
C815 C 0.17213 0.59186 0.46653 0.0
C816 C 0.1762 0.60574 0.49947 0.0
C817 C 0.12282 0.57985 0.50129 0.0
C818 C 0.17495 0.62498 0.50686 0.0
C819 C 0.18884 0.63743 0.52244 0.0
C820 C 0.20449 0.63105 0.53088 0.0
C821 C 0.20615 0.61209 0.52317 0.0
C822 C 0.19214 0.59958 0.50756 0.0
H823 H 0.10414 0.56491 0.50079 0.0
H824 H 0.1321 0.57794 0.51371 0.0
H825 H 0.12217 0.59636 0.50303 0.0
H826 H 0.1632 0.6304 0.50055 0.0
H827 H 0.18725 0.65205 0.52788 0.0
H828 H 0.59969 0.11088 0.56181 0.0
H829 H 0.60865 0.13505 0.59038 0.0
H830 H 0.53399 0.11304 0.59525 0.0
H831 H 0.52483 0.08862 0.56703 0.0
H832 H 0.59756 0.17247 0.59834 0.0
H833 H 0.55362 0.09701 0.64621 0.0
H834 H 0.56233 0.0941 0.62291 0.0
H835 H 0.53546 0.09528 0.62643 0.0
C836 C 0.58519 0.11113 0.56904 0.0
C837 C 0.56155 0.09782 0.56219 0.0
C838 C 0.59036 0.12501 0.58526 0.0
C839 C 0.57193 0.12555 0.59499 0.0
C840 C 0.54841 0.1126 0.58804 0.0
H841 H 0.54523 0.18712 0.68954 0.0
H842 H 0.54537 0.16595 0.66145 0.0
C843 C 0.54324 0.09884 0.57182 0.0
C844 C 0.57704 0.13961 0.61243 0.0
H845 H 0.56298 0.13463 0.65851 0.0
C846 C 0.59032 0.16428 0.61159 0.0
C847 C 0.56762 0.12877 0.62964 0.0
C848 C 0.55414 0.10233 0.63147 0.0
C849 C 0.59338 0.17846 0.62738 0.0
C850 C 0.58317 0.16758 0.64443 0.0
C851 C 0.57068 0.14291 0.64539 0.0
C852 C 0.58376 0.18129 0.66116 0.0
C853 C 0.60652 0.20489 0.62552 0.0
C854 C 0.60536 0.19697 0.67033 0.0
C855 C 0.60538 0.20922 0.68646 0.0
C856 C 0.58377 0.20585 0.69371 0.0
C857 C 0.56221 0.19016 0.68439 0.0
C858 C 0.56223 0.178 0.66832 0.0
H859 H 0.60929 0.21028 0.61069 0.0
H860 H 0.5966 0.21258 0.63238 0.0
H861 H 0.6243 0.21246 0.63252 0.0
H862 H 0.62215 0.19946 0.66519 0.0
H863 H 0.62228 0.2211 0.69334 0.0
H864 H 0.49819 0.57098 0.74721 0.0
H865 H 0.48644 0.58467 0.77476 0.0
H866 H 0.44101 0.60017 0.74038 0.0
H867 H 0.45253 0.5862 0.71267 0.0
H868 H 0.48814 0.62642 0.78541 0.0
H869 H 0.3946 0.55252 0.77696 0.0
H870 H 0.41878 0.55401 0.76362 0.0
H871 H 0.40593 0.57188 0.75748 0.0
C872 C 0.48604 0.57771 0.74545 0.0
C873 C 0.47611 0.57733 0.72781 0.0
C874 C 0.47932 0.5855 0.76121 0.0
C875 C 0.46258 0.59308 0.75964 0.0
C876 C 0.45359 0.59393 0.74192 0.0
H877 H 0.41895 0.64269 0.85871 0.0
H878 H 0.43638 0.64272 0.82845 0.0
C879 C 0.46017 0.58596 0.72614 0.0
C880 C 0.45336 0.59833 0.77677 0.0
H881 H 0.40321 0.57781 0.80286 0.0
C882 C 0.46953 0.61598 0.78919 0.0
C883 C 0.42911 0.58448 0.7817 0.0
C884 C 0.41109 0.56452 0.76936 0.0
C885 C 0.46218 0.61977 0.80664 0.0
C886 C 0.438 0.60572 0.8116 0.0
C887 C 0.42173 0.58858 0.79895 0.0
C888 C 0.42938 0.60688 0.83042 0.0
C889 C 0.48049 0.638 0.81993 0.0
C890 C 0.41974 0.58679 0.84151 0.0
C891 C 0.40964 0.58663 0.85861 0.0
C892 C 0.40896 0.60662 0.86503 0.0
C893 C 0.41931 0.62706 0.85419 0.0
C894 C 0.42934 0.62713 0.83693 0.0
H895 H 0.49905 0.64423 0.81536 0.0
H896 H 0.47779 0.65343 0.82071 0.0
H897 H 0.47841 0.63079 0.83418 0.0
H898 H 0.41966 0.571 0.83675 0.0
H899 H 0.40197 0.57065 0.86664 0.0
H900 H 0.91406 0.48567 0.89227 0.0
H901 H 0.8875 0.47579 0.91882 0.0
H902 H 0.8783 0.40592 0.91928 0.0
H903 H 0.90513 0.4158 0.89279 0.0
H904 H 0.84069 0.44155 0.9229 0.0
H905 H 0.89921 0.42829 0.97276 0.0
H906 H 0.90943 0.44168 0.95037 0.0
H907 H 0.89112 0.41023 0.95198 0.0
C908 C 0.90624 0.46814 0.89793 0.0
C909 C 0.91175 0.45153 0.8905 0.0
C910 C 0.89113 0.46255 0.91314 0.0
C911 C 0.88123 0.44025 0.92122 0.0
C912 C 0.88621 0.42341 0.91355 0.0
H913 H 0.79077 0.3868 0.01934 0.0
H914 H 0.81087 0.38896 0.99001 0.0
C915 C 0.90148 0.42906 0.8984 0.0
C916 C 0.86581 0.43485 0.93771 0.0
H917 H 0.86182 0.4208 0.98381 0.0
C918 C 0.84527 0.43694 0.9362 0.0
C919 C 0.87181 0.42881 0.95505 0.0
C920 C 0.89419 0.4273 0.95777 0.0
C921 C 0.8307 0.43337 0.9516 0.0
C922 C 0.83694 0.42774 0.96897 0.0
C923 C 0.85709 0.42504 0.97041 0.0
C924 C 0.82368 0.42604 0.98611 0.0
C925 C 0.80878 0.43573 0.94924 0.0
C926 C 0.82436 0.44621 0.99359 0.0
C927 C 0.81308 0.44511 0.01035 0.0
C928 C 0.80086 0.42377 0.01995 0.0
C929 C 0.79994 0.40349 0.01227 0.0
C930 C 0.81142 0.40467 0.99554 0.0
H931 H 0.80328 0.43441 0.93434 0.0
H932 H 0.79361 0.42197 0.95714 0.0
H933 H 0.81271 0.4532 0.95479 0.0
H934 H 0.83404 0.46295 0.98664 0.0
H935 H 0.81415 0.46106 0.01587 0.0
H936 H 0.50189 0.91332 0.06095 0.0
H937 H 0.48354 0.8847 0.08591 0.0
H938 H 0.42239 0.89454 0.08422 0.0
H939 H 0.44052 0.923 0.05934 0.0
H940 H 0.47083 0.89195 0.12053 0.0
H941 H 0.391 0.82331 0.08223 0.0
H942 H 0.4162 0.84664 0.07052 0.0
H943 H 0.39391 0.85193 0.08065 0.0
C944 C 0.48451 0.90932 0.06589 0.0
C945 C 0.47258 0.9203 0.0581 0.0
C946 C 0.47401 0.8929 0.08007 0.0
C947 C 0.45139 0.88714 0.08665 0.0
C948 C 0.43953 0.89819 0.07897 0.0
H949 H 0.36219 0.81971 0.17898 0.0
H950 H 0.38121 0.84006 0.15035 0.0
C951 C 0.44995 0.9145 0.06478 0.0
C952 C 0.44072 0.87067 0.1023 0.0
H953 H 0.38985 0.82144 0.11569 0.0
C954 C 0.45329 0.87632 0.11941 0.0
C955 C 0.41784 0.85027 0.10077 0.0
C956 C 0.40406 0.84252 0.0825 0.0
C957 C 0.44314 0.86272 0.13527 0.0
C958 C 0.41993 0.84284 0.13388 0.0
C959 C 0.40762 0.83676 0.11667 0.0
C960 C 0.40761 0.82901 0.15045 0.0
C961 C 0.45687 0.87024 0.15358 0.0
C962 C 0.41589 0.81564 0.15971 0.0
C963 C 0.40503 0.80391 0.17608 0.0
C964 C 0.38574 0.80543 0.18345 0.0
C965 C 0.37707 0.81826 0.17376 0.0
C966 C 0.38787 0.82987 0.15737 0.0
H967 H 0.47283 0.88815 0.15296 0.0
H968 H 0.44527 0.87007 0.16495 0.0
H969 H 0.46296 0.85764 0.1572 0.0
H970 H 0.43094 0.81456 0.15442 0.0
H971 H 0.41209 0.79412 0.18317 0.0
H972 H 0.51501 0.46372 0.25889 0.0
H973 H 0.52853 0.44972 0.28527 0.0
H974 H 0.56452 0.42661 0.24755 0.0
H975 H 0.55127 0.44085 0.22107 0.0
H976 H 0.52358 0.40649 0.2949 0.0
H977 H 0.61841 0.4731 0.28207 0.0
H978 H 0.59386 0.47372 0.27045 0.0
H979 H 0.60305 0.45331 0.2628 0.0
C980 C 0.52549 0.45532 0.25619 0.0
C981 C 0.5323 0.45359 0.23795 0.0
C982 C 0.53322 0.44736 0.27127 0.0
C983 C 0.54786 0.4375 0.26839 0.0
C984 C 0.55367 0.43463 0.25011 0.0
H985 H 0.59409 0.38108 0.36123 0.0
H986 H 0.57489 0.38337 0.33221 0.0
C987 C 0.54609 0.44276 0.23501 0.0
C988 C 0.55817 0.43167 0.28464 0.0
H989 H 0.61101 0.44775 0.30723 0.0
C990 C 0.5427 0.41535 0.29757 0.0
C991 C 0.58312 0.44347 0.28814 0.0
C992 C 0.60062 0.46203 0.27525 0.0
C993 C 0.5515 0.41082 0.31409 0.0
C994 C 0.57644 0.4227 0.31758 0.0
C995 C 0.5919 0.43859 0.30444 0.0
C996 C 0.58695 0.42056 0.33541 0.0
C997 C 0.53406 0.39414 0.32802 0.0
C998 C 0.60024 0.44071 0.34668 0.0
C999 C 0.61136 0.43953 0.36307 0.0
C1000 C 0.60944 0.41812 0.36858 0.0
C1001 C 0.59582 0.39781 0.35741 0.0
C1002 C 0.58474 0.39905 0.34088 0.0
H1003 H 0.5155 0.39013 0.32495 0.0
H1004 H 0.5343 0.37733 0.32756 0.0
H1005 H 0.53917 0.40163 0.3424 0.0
H1006 H 0.60214 0.45747 0.34272 0.0
H1007 H 0.62161 0.4555 0.37135 0.0
H1008 H 0.44299 0.92083 0.41396 0.0
H1009 H 0.42853 0.89368 0.38705 0.0
H1010 H 0.49944 0.90481 0.37911 0.0
H1011 H 0.51412 0.93221 0.40598 0.0
H1012 H 0.47636 0.91086 0.34651 0.0
H1013 H 0.41923 0.82611 0.38172 0.0
H1014 H 0.41437 0.84974 0.38879 0.0
H1015 H 0.44261 0.85175 0.39384 0.0
C1016 C 0.45547 0.91741 0.40653 0.0
C1017 C 0.47968 0.92864 0.41203 0.0
C1018 C 0.44715 0.90175 0.39129 0.0
C1019 C 0.46288 0.89707 0.38128 0.0
C1020 C 0.48702 0.90807 0.3868 0.0
H1021 H 0.41525 0.79524 0.28756 0.0
H1022 H 0.43659 0.81805 0.31569 0.0
C1023 C 0.49533 0.92361 0.40216 0.0
C1024 C 0.45432 0.88192 0.3643 0.0
H1025 H 0.41357 0.82656 0.34873 0.0
C1026 C 0.46287 0.89235 0.34698 0.0
C1027 C 0.43689 0.85777 0.36503 0.0
C1028 C 0.42784 0.84556 0.38334 0.0
C1029 C 0.4536 0.87946 0.33027 0.0
C1030 C 0.4353 0.85564 0.33097 0.0
C1031 C 0.42753 0.8449 0.34829 0.0
C1032 C 0.42292 0.84209 0.31385 0.0
C1033 C 0.46307 0.89149 0.31195 0.0
C1034 C 0.40808 0.84802 0.30371 0.0
C1035 C 0.39577 0.835 0.28779 0.0
C1036 C 0.39814 0.81583 0.28167 0.0
C1037 C 0.41313 0.80997 0.29186 0.0
C1038 C 0.42529 0.82292 0.30793 0.0
H1039 H 0.48059 0.90793 0.31378 0.0
H1040 H 0.46506 0.87955 0.30196 0.0
H1041 H 0.45022 0.89617 0.30573 0.0
H1042 H 0.40584 0.86261 0.30823 0.0
H1043 H 0.38439 0.84 0.28028 0.0
H1044 H 0.55575 0.44971 0.60617 0.0
H1045 H 0.57109 0.43705 0.58024 0.0
H1046 H 0.51803 0.43715 0.54332 0.0
H1047 H 0.50355 0.45127 0.56883 0.0
H1048 H 0.55308 0.39998 0.55533 0.0
H1049 H 0.57962 0.48375 0.51896 0.0
H1050 H 0.56951 0.47897 0.54269 0.0
H1051 H 0.54828 0.4669 0.52358 0.0
C1052 C 0.54738 0.44716 0.59252 0.0
C1053 C 0.52874 0.45204 0.58955 0.0
C1054 C 0.55601 0.43965 0.57776 0.0
C1055 C 0.54606 0.4367 0.55977 0.0
C1056 C 0.52633 0.43986 0.55702 0.0
H1057 H 0.58667 0.38368 0.46231 0.0
H1058 H 0.56593 0.38611 0.48991 0.0
C1059 C 0.51787 0.44767 0.57171 0.0
C1060 C 0.55749 0.43208 0.54373 0.0
H1061 H 0.58538 0.45553 0.50285 0.0
C1062 C 0.56014 0.41207 0.54382 0.0
C1063 C 0.56703 0.44812 0.5289 0.0
C1064 C 0.56621 0.47075 0.52855 0.0
C1065 C 0.5721 0.40768 0.52944 0.0
C1066 C 0.58118 0.4235 0.51444 0.0
C1067 C 0.57834 0.44337 0.51433 0.0
C1068 C 0.59446 0.42052 0.49891 0.0
C1069 C 0.57552 0.38659 0.53074 0.0
C1070 C 0.61735 0.43902 0.49478 0.0
C1071 C 0.62899 0.43787 0.47888 0.0
C1072 C 0.61807 0.41809 0.46685 0.0
C1073 C 0.5956 0.39908 0.47141 0.0
C1074 C 0.58377 0.40039 0.48723 0.0
H1075 H 0.57342 0.38011 0.54526 0.0
H1076 H 0.56186 0.37208 0.52181 0.0
H1077 H 0.59344 0.39084 0.52582 0.0
H1078 H 0.62596 0.4547 0.50361 0.0
H1079 H 0.64635 0.45273 0.47582 0.0
H1080 H 0.11632 0.5608 0.76704 0.0
H1081 H 0.14557 0.58216 0.74281 0.0
H1082 H 0.09088 0.54584 0.70037 0.0
H1083 H 0.0615 0.52527 0.72457 0.0
H1084 H 0.16305 0.57001 0.71423 0.0
H1085 H 0.11396 0.61273 0.68698 0.0
H1086 H 0.10588 0.59637 0.70831 0.0
H1087 H 0.09585 0.58125 0.68606 0.0
C1088 C 0.11066 0.55736 0.75251 0.0
C1089 C 0.08667 0.54166 0.74761 0.0
C1090 C 0.12733 0.56955 0.7387 0.0
C1091 C 0.12028 0.56607 0.71978 0.0
C1092 C 0.09656 0.54943 0.71488 0.0
H1093 H 0.21202 0.60667 0.62366 0.0
H1094 H 0.18868 0.58712 0.65111 0.0
C1095 C 0.07983 0.53758 0.72868 0.0
C1096 C 0.13757 0.58008 0.70518 0.0
H1097 H 0.14504 0.61501 0.66796 0.0
C1098 C 0.15923 0.58002 0.70419 0.0
C1099 C 0.13287 0.59361 0.69236 0.0
C1100 C 0.111 0.59624 0.69359 0.0
C1101 C 0.17599 0.5926 0.6904 0.0
C1102 C 0.17058 0.60493 0.67687 0.0
C1103 C 0.14916 0.6054 0.67818 0.0
C1104 C 0.18655 0.61732 0.66108 0.0
C1105 C 0.19946 0.59284 0.69076 0.0
C1106 C 0.19282 0.64069 0.65726 0.0
C1107 C 0.20555 0.65165 0.64128 0.0
C1108 C 0.21259 0.63958 0.62892 0.0
C1109 C 0.20707 0.6165 0.63305 0.0
C1110 C 0.19387 0.60535 0.64885 0.0
H1111 H 0.20415 0.58992 0.70506 0.0
H1112 H 0.19792 0.57836 0.68164 0.0
H1113 H 0.21424 0.60979 0.6857 0.0
H1114 H 0.18738 0.65031 0.66645 0.0
H1115 H 0.20963 0.66949 0.63848 0.0
H1116 H 0.59057 0.09769 0.91216 0.0
H1117 H 0.60032 0.12522 0.8864 0.0
H1118 H 0.53964 0.133 0.8994 0.0
H1119 H 0.52998 0.1058 0.92529 0.0
H1120 H 0.56853 0.1173 0.85587 0.0
H1121 H 0.59481 0.20162 0.89319 0.0
H1122 H 0.59453 0.17691 0.90441 0.0
H1123 H 0.56712 0.17712 0.90064 0.0
C1124 C 0.57961 0.10565 0.90975 0.0
C1125 C 0.55949 0.09958 0.9207 0.0
C1126 C 0.58514 0.12127 0.89501 0.0
C1127 C 0.57085 0.1313 0.89116 0.0
C1128 C 0.55111 0.12573 0.90234 0.0
H1129 H 0.54146 0.18349 0.79159 0.0
H1130 H 0.54129 0.1632 0.82006 0.0
C1131 C 0.54548 0.11002 0.91699 0.0
C1132 C 0.57528 0.14602 0.87452 0.0
H1133 H 0.58629 0.20016 0.86049 0.0
C1134 C 0.57269 0.1355 0.85687 0.0
C1135 C 0.58083 0.16978 0.87591 0.0
C1136 C 0.58471 0.18215 0.89455 0.0
C1137 C 0.57462 0.14786 0.84052 0.0
C1138 C 0.57913 0.17126 0.84192 0.0
C1139 C 0.58263 0.18212 0.85953 0.0
C1140 C 0.57937 0.18432 0.82518 0.0
C1141 C 0.57152 0.13577 0.82184 0.0
C1142 C 0.60082 0.20318 0.8189 0.0
C1143 C 0.60104 0.21479 0.80256 0.0
C1144 C 0.57973 0.20784 0.79238 0.0
C1145 C 0.55819 0.18928 0.79905 0.0
C1146 C 0.55804 0.17762 0.81528 0.0
H1147 H 0.5729 0.1196 0.82302 0.0
H1148 H 0.55364 0.13068 0.81587 0.0
H1149 H 0.58514 0.14787 0.81194 0.0
H1150 H 0.61743 0.2086 0.82644 0.0
H1151 H 0.61791 0.22906 0.79784 0.0
H1152 H 0.49103 0.55853 0.07363 0.0
H1153 H 0.47712 0.57288 0.04784 0.0
H1154 H 0.44685 0.60072 0.08695 0.0
H1155 H 0.4606 0.58617 0.11291 0.0
H1156 H 0.41524 0.57451 0.06021 0.0
H1157 H 0.49989 0.63747 0.02708 0.0
H1158 H 0.4978 0.60937 0.02999 0.0
H1159 H 0.49894 0.62644 0.05023 0.0
C1160 C 0.48189 0.56817 0.07677 0.0
C1161 C 0.47694 0.57126 0.0953 0.0
C1162 C 0.47401 0.57645 0.06201 0.0
C1163 C 0.46131 0.58826 0.06547 0.0
C1164 C 0.45675 0.59178 0.08397 0.0
H1165 H 0.41691 0.63929 0.96811 0.0
H1166 H 0.43434 0.63911 -0.00135 0.0
C1167 C 0.46451 0.58338 0.09876 0.0
C1168 C 0.45091 0.59483 0.04969 0.0
H1169 H 0.46432 0.62163 0.00742 0.0
C1170 C 0.42604 0.58518 0.04883 0.0
C1171 C 0.46499 0.60909 0.03498 0.0
C1172 C 0.49191 0.62139 0.0357 0.0
C1173 C 0.41474 0.58819 0.03315 0.0
C1174 C 0.42866 0.60077 0.01778 0.0
C1175 C 0.45364 0.61168 0.01911 0.0
C1176 C 0.41752 0.60113 -0.00028 0.0
C1177 C 0.38796 0.57751 0.03307 0.0
C1178 C 0.40254 0.57988 0.99015 0.0
C1179 C 0.39257 0.5799 0.97281 0.0
C1180 C 0.39755 0.60122 0.96454 0.0
C1181 C 0.41265 0.62256 0.97412 0.0
C1182 C 0.42263 0.6225 0.99155 0.0
H1183 H 0.38114 0.57559 0.04748 0.0
H1184 H 0.38232 0.58837 0.02503 0.0
H1185 H 0.37952 0.55968 0.0265 0.0
H1186 H 0.39883 0.56322 0.99599 0.0
H1187 H 0.38116 0.56315 0.96581 0.0
H1188 H 0.89006 0.42797 0.2646 0.0
H1189 H 0.86213 0.41568 0.23794 0.0
H1190 H 0.92121 0.45215 0.20082 0.0
H1191 H 0.94921 0.46375 0.22721 0.0
H1192 H 0.85577 0.44448 0.21435 0.0
H1193 H 0.88226 0.389 0.17413 0.0
H1194 H 0.89123 0.39749 0.19821 0.0
H1195 H 0.90727 0.41749 0.17979 0.0
C1196 C 0.89712 0.43295 0.25071 0.0
C1197 C 0.92187 0.44686 0.24803 0.0
C1198 C 0.88113 0.42602 0.23552 0.0
C1199 C 0.8896 0.4327 0.21737 0.0
C1200 C 0.91429 0.44635 0.21464 0.0
H1201 H 0.82695 0.45807 0.12188 0.0
H1202 H 0.84789 0.45872 0.15055 0.0
C1203 C 0.93026 0.45326 0.22979 0.0
C1204 C 0.8727 0.42694 0.2014 0.0
H1205 H 0.86 0.40349 0.15719 0.0
C1206 C 0.85646 0.43522 0.20195 0.0
C1207 C 0.87334 0.41454 0.18534 0.0
C1208 C 0.88929 0.4039 0.18438 0.0
C1209 C 0.84168 0.43247 0.18653 0.0
C1210 C 0.84352 0.42153 0.17002 0.0
C1211 C 0.85886 0.41217 0.16978 0.0
C1212 C 0.83064 0.4208 0.15258 0.0
C1213 C 0.82439 0.44152 0.18801 0.0
C1214 C 0.81449 0.39923 0.14388 0.0
C1215 C 0.80253 0.39876 0.12733 0.0
C1216 C 0.80668 0.4199 0.11916 0.0
C1217 C 0.82317 0.44145 0.12782 0.0
C1218 C 0.83507 0.44187 0.1443 0.0
H1219 H 0.81993 0.44266 0.20277 0.0
H1220 H 0.83268 0.4595 0.18219 0.0
H1221 H 0.8076 0.43004 0.18003 0.0
H1222 H 0.81099 0.38276 0.14998 0.0
H1223 H 0.79 0.38187 0.121 0.0
loop_
_geom_bond_atom_site_label_1
_geom_bond_atom_site_label_2
_geom_bond_distance
_geom_bond_site_symmetry_2
_ccdc_geom_bond_type
C0 C1 1.384 . S
C0 C2 1.384 . S
C0 H28 0.931 . S
C1 C0 1.384 . S
C1 C4 1.382 . S
C2 C0 1.384 . S
C2 C3 1.381 . S
C2 H29 0.930 . S
C3 C2 1.381 . S
C3 C5 1.381 . S
C3 C6 1.487 . S
C4 C1 1.382 . S
C4 C5 1.387 . S
C4 H30 0.930 . S
C5 C3 1.381 . S
C5 C4 1.387 . S
C5 H31 0.931 . S
C6 C3 1.487 . S
C6 C13 1.399 . S
C6 N44 1.343 1_655 S
C7 C8 1.384 . S
C7 C9 1.384 . S
C7 H32 0.931 . S
C8 C7 1.384 . S
C8 C11 1.382 . S
C9 C7 1.384 . S
C9 C10 1.381 . S
C9 H33 0.930 . S
C10 C9 1.381 . S
C10 C12 1.381 . S
C10 C13 1.487 . S
C11 C8 1.382 . S
C11 C12 1.387 . S
C11 H34 0.930 . S
C12 C10 1.381 . S
C12 C11 1.387 . S
C12 H35 0.931 . S
C13 C6 1.399 . S
C13 C10 1.487 . S
C13 N45 1.343 1_655 S
C14 C15 1.384 . S
C14 C16 1.384 . S
C14 H36 0.931 . S
C15 C14 1.384 . S
C15 C18 1.382 . S
C16 C14 1.384 . S
C16 C17 1.381 . S
C16 H37 0.930 . S
C17 C16 1.381 . S
C17 C19 1.381 . S
C17 C20 1.487 . S
C18 C15 1.382 . S
C18 C19 1.387 . S
C18 H38 0.930 . S
C19 C17 1.381 . S
C19 C18 1.387 . S
C19 H39 0.931 . S
C20 C17 1.487 . S
C20 C27 1.399 . S
C20 N45 1.343 . S
C21 C22 1.384 . S
C21 C23 1.384 . S
C21 H40 0.931 . S
C22 C21 1.384 . S
C22 C25 1.382 . S
C23 C21 1.384 . S
C23 C24 1.381 . S
C23 H41 0.930 . S
C24 C23 1.381 . S
C24 C26 1.381 . S
C24 C27 1.487 . S
C25 C22 1.382 . S
C25 C26 1.387 . S
C25 H42 0.930 . S
C26 C24 1.381 . S
C26 C25 1.387 . S
C26 H43 0.931 . S
C27 C20 1.399 . S
C27 C24 1.487 . S
C27 N44 1.343 . S
H28 C0 0.931 . S
H29 C2 0.930 . S
H30 C4 0.930 . S
H31 C5 0.931 . S
H32 C7 0.931 . S
H33 C9 0.930 . S
H34 C11 0.930 . S
H35 C12 0.931 . S
H36 C14 0.931 . S
H37 C16 0.930 . S
H38 C18 0.930 . S
H39 C19 0.931 . S
H40 C21 0.931 . S
H41 C23 0.930 . S
H42 C25 0.930 . S
H43 C26 0.931 . S
N44 C6 1.343 1_455 S
N44 C27 1.343 . S
N45 C13 1.343 1_455 S
N45 C20 1.343 . S
C46 C47 1.384 . S
C46 C48 1.384 . S
C46 H74 0.931 . S
C47 C46 1.384 . S
C47 C50 1.382 . S
C48 C46 1.384 . S
C48 C49 1.381 . S
C48 H75 0.930 . S
C49 C48 1.381 . S
C49 C51 1.381 . S
C49 C52 1.487 . S
C50 C47 1.382 . S
C50 C51 1.387 . S
C50 H76 0.930 . S
C51 C49 1.381 . S
C51 C50 1.387 . S
C51 H77 0.931 . S
C52 C49 1.487 . S
C52 C59 1.399 . S
C52 N90 1.348 . S
C53 C54 1.384 . S
C53 C55 1.384 . S
C53 H78 0.931 . S
C54 C53 1.384 . S
C54 C57 1.382 . S
C55 C53 1.384 . S
C55 C56 1.381 . S
C55 H79 0.930 . S
C56 C55 1.381 . S
C56 C58 1.381 . S
C56 C59 1.487 . S
C57 C54 1.382 . S
C57 C58 1.387 . S
C57 H80 0.930 . S
C58 C56 1.381 . S
C58 C57 1.387 . S
C58 H81 0.931 . S
C59 C52 1.399 . S
C59 C56 1.487 . S
C59 N91 1.343 1_565 S
C60 C61 1.384 . S
C60 C62 1.384 . S
C60 H82 0.931 . S
C61 C60 1.384 . S
C61 C64 1.382 . S
C62 C60 1.384 . S
C62 C63 1.381 . S
C62 H83 0.930 . S
C63 C62 1.381 . S
C63 C65 1.381 . S
C63 C66 1.487 . S
C64 C61 1.382 . S
C64 C65 1.387 . S
C64 H84 0.930 . S
C65 C63 1.381 . S
C65 C64 1.387 . S
C65 H85 0.931 . S
C66 C63 1.487 . S
C66 C73 1.399 . S
C66 N91 1.343 . S
C67 C68 1.384 . S
C67 C69 1.384 . S
C67 H86 0.931 . S
C68 C67 1.384 . S
C68 C71 1.382 . S
C69 C67 1.384 . S
C69 C70 1.381 . S
C69 H87 0.930 . S
C70 C69 1.381 . S
C70 C72 1.381 . S
C70 C73 1.487 . S
C71 C68 1.382 . S
C71 C72 1.387 . S
C71 H88 0.930 . S
C72 C70 1.381 . S
C72 C71 1.387 . S
C72 H89 0.931 . S
C73 C66 1.399 . S
C73 C70 1.487 . S
C73 N90 1.335 1_545 S
H74 C46 0.931 . S
H75 C48 0.930 . S
H76 C50 0.930 . S
H77 C51 0.931 . S
H78 C53 0.931 . S
H79 C55 0.930 . S
H80 C57 0.930 . S
H81 C58 0.931 . S
H82 C60 0.931 . S
H83 C62 0.930 . S
H84 C64 0.930 . S
H85 C65 0.931 . S
H86 C67 0.931 . S
H87 C69 0.930 . S
H88 C71 0.930 . S
H89 C72 0.931 . S
N90 C52 1.348 . S
N90 C73 1.335 1_565 S
N91 C59 1.343 1_545 S
N91 C66 1.343 . S
C92 C93 1.384 . S
C92 C94 1.384 . S
C92 H120 0.931 . S
C93 C92 1.384 . S
C93 C96 1.382 . S
C94 C92 1.384 . S
C94 C95 1.381 . S
C94 H121 0.930 . S
C95 C94 1.381 . S
C95 C97 1.381 . S
C95 C98 1.487 . S
C96 C93 1.382 . S
C96 C97 1.387 . S
C96 H122 0.930 . S
C97 C95 1.381 . S
C97 C96 1.387 . S
C97 H123 0.931 . S
C98 C95 1.487 . S
C98 C105 1.399 . S
C98 N136 1.343 . S
C99 C100 1.384 . S
C99 C101 1.384 . S
C99 H124 0.931 . S
C100 C99 1.384 . S
C100 C103 1.382 . S
C101 C99 1.384 . S
C101 C102 1.381 . S
C101 H125 0.930 . S
C102 C101 1.381 . S
C102 C104 1.381 . S
C102 C105 1.487 . S
C103 C100 1.382 . S
C103 C104 1.387 . S
C103 H126 0.930 . S
C104 C102 1.381 . S
C104 C103 1.387 . S
C104 H127 0.931 . S
C105 C98 1.399 . S
C105 C102 1.487 . S
C105 N137 1.343 . S
C106 C107 1.384 . S
C106 C108 1.384 . S
C106 H128 0.931 . S
C107 C106 1.384 . S
C107 C110 1.382 . S
C108 C106 1.384 . S
C108 C109 1.381 . S
C108 H129 0.930 . S
C109 C108 1.381 . S
C109 C111 1.381 . S
C109 C112 1.487 . S
C110 C107 1.382 . S
C110 C111 1.387 . S
C110 H130 0.930 . S
C111 C109 1.381 . S
C111 C110 1.387 . S
C111 H131 0.931 . S
C112 C109 1.487 . S
C112 C119 1.399 . S
C112 N137 1.343 . S
C113 C114 1.384 . S
C113 C115 1.384 . S
C113 H132 0.931 . S
C114 C113 1.384 . S
C114 C117 1.382 . S
C115 C113 1.384 . S
C115 C116 1.381 . S
C115 H133 0.930 . S
C116 C115 1.381 . S
C116 C118 1.381 . S
C116 C119 1.487 . S
C117 C114 1.382 . S
C117 C118 1.387 . S
C117 H134 0.930 . S
C118 C116 1.381 . S
C118 C117 1.387 . S
C118 H135 0.931 . S
C119 C112 1.399 . S
C119 C116 1.487 . S
C119 N136 1.343 . S
H120 C92 0.931 . S
H121 C94 0.930 . S
H122 C96 0.930 . S
H123 C97 0.931 . S
H124 C99 0.931 . S
H125 C101 0.930 . S
H126 C103 0.930 . S
H127 C104 0.931 . S
H128 C106 0.931 . S
H129 C108 0.930 . S
H130 C110 0.930 . S
H131 C111 0.931 . S
H132 C113 0.931 . S
H133 C115 0.930 . S
H134 C117 0.930 . S
H135 C118 0.931 . S
N136 C98 1.343 . S
N136 C119 1.343 . S
N137 C105 1.343 . S
N137 C112 1.343 . S
C138 C139 1.384 . S
C138 C140 1.384 . S
C138 H166 0.931 . S
C139 C138 1.384 . S
C139 C142 1.382 . S
C140 C138 1.384 . S
C140 C141 1.381 . S
C140 H167 0.930 . S
C141 C140 1.381 . S
C141 C143 1.381 . S
C141 C144 1.487 . S
C142 C139 1.382 . S
C142 C143 1.387 . S
C142 H168 0.930 . S
C143 C141 1.381 . S
C143 C142 1.387 . S
C143 H169 0.931 . S
C144 C141 1.487 . S
C144 C151 1.399 . S
C144 N182 1.343 1_655 S
C145 C146 1.384 . S
C145 C147 1.384 . S
C145 H170 0.931 . S
C146 C145 1.384 . S
C146 C149 1.382 . S
C147 C145 1.384 . S
C147 C148 1.381 . S
C147 H171 0.930 . S
C148 C147 1.381 . S
C148 C150 1.381 . S
C148 C151 1.487 . S
C149 C146 1.382 . S
C149 C150 1.387 . S
C149 H172 0.930 . S
C150 C148 1.381 . S
C150 C149 1.387 . S
C150 H173 0.931 . S
C151 C144 1.399 . S
C151 C148 1.487 . S
C151 N183 1.343 1_655 S
C152 C153 1.384 . S
C152 C154 1.384 . S
C152 H174 0.931 . S
C153 C152 1.384 . S
C153 C156 1.382 . S
C154 C152 1.384 . S
C154 C155 1.381 . S
C154 H175 0.930 . S
C155 C154 1.381 . S
C155 C157 1.381 . S
C155 C158 1.487 . S
C156 C153 1.382 . S
C156 C157 1.387 . S
C156 H176 0.930 . S
C157 C155 1.381 . S
C157 C156 1.387 . S
C157 H177 0.931 . S
C158 C155 1.487 . S
C158 C165 1.399 . S
C158 N183 1.343 . S
C159 C160 1.384 . S
C159 C161 1.384 . S
C159 H178 0.931 . S
C160 C159 1.384 . S
C160 C163 1.382 . S
C161 C159 1.384 . S
C161 C162 1.381 . S
C161 H179 0.930 . S
C162 C161 1.381 . S
C162 C164 1.381 . S
C162 C165 1.487 . S
C163 C160 1.382 . S
C163 C164 1.387 . S
C163 H180 0.930 . S
C164 C162 1.381 . S
C164 C163 1.387 . S
C164 H181 0.931 . S
C165 C158 1.399 . S
C165 C162 1.487 . S
C165 N182 1.343 . S
H166 C138 0.931 . S
H167 C140 0.930 . S
H168 C142 0.930 . S
H169 C143 0.931 . S
H170 C145 0.931 . S
H171 C147 0.930 . S
H172 C149 0.930 . S
H173 C150 0.931 . S
H174 C152 0.931 . S
H175 C154 0.930 . S
H176 C156 0.930 . S
H177 C157 0.931 . S
H178 C159 0.931 . S
H179 C161 0.930 . S
H180 C163 0.930 . S
H181 C164 0.931 . S
N182 C144 1.343 1_455 S
N182 C165 1.343 . S
N183 C151 1.343 1_455 S
N183 C158 1.343 . S
C184 C185 1.384 . S
C184 C186 1.384 . S
C184 H212 0.931 . S
C185 C184 1.384 . S
C185 C188 1.382 . S
C186 C184 1.384 . S
C186 C187 1.381 . S
C186 H213 0.950 . S
C187 C186 1.381 . S
C187 C189 1.381 . S
C187 C190 1.487 . S
C188 C185 1.382 . S
C188 C189 1.387 . S
C188 H214 0.930 . S
C189 C187 1.381 . S
C189 C188 1.387 . S
C189 H215 0.931 . S
C190 C187 1.487 . S
C190 C197 1.399 1_556 S
C190 N228 1.343 1_565 S
C191 C192 1.384 . S
C191 C193 1.384 . S
C191 H216 0.931 . S
C192 C191 1.384 . S
C192 C195 1.382 . S
C193 C191 1.384 . S
C193 C194 1.381 . S
C193 H217 0.930 . S
C194 C193 1.381 . S
C194 C196 1.381 . S
C194 C197 1.487 . S
C195 C192 1.382 . S
C195 C196 1.387 . S
C195 H218 0.930 . S
C196 C194 1.381 . S
C196 C195 1.387 . S
C196 H219 0.931 . S
C197 C190 1.399 1_554 S
C197 C194 1.487 . S
C197 N229 1.343 1_565 S
C198 C199 1.384 . S
C198 C200 1.384 1_554 S
C198 H220 0.931 1_554 S
C199 C198 1.384 . S
C199 C202 1.382 . S
C200 C198 1.384 1_556 S
C200 C201 1.381 1_556 S
C200 H221 0.930 . S
C201 C200 1.381 1_554 S
C201 C203 1.381 . S
C201 C204 1.487 1_554 S
C202 C199 1.382 . S
C202 C203 1.387 . S
C202 H222 0.930 . S
C203 C201 1.381 . S
C203 C202 1.387 . S
C203 H223 0.931 . S
C204 C201 1.487 1_556 S
C204 C211 1.399 . S
C204 N229 1.343 1_556 S
C205 C206 1.384 . S
C205 C207 1.384 . S
C205 H224 0.931 . S
C206 C205 1.384 . S
C206 C209 1.382 . S
C207 C205 1.384 . S
C207 C208 1.381 . S
C207 H225 0.930 . S
C208 C207 1.381 . S
C208 C210 1.381 . S
C208 C211 1.487 . S
C209 C206 1.382 . S
C209 C210 1.387 . S
C209 H226 0.930 . S
C210 C208 1.381 . S
C210 C209 1.387 . S
C210 H227 0.931 . S
C211 C204 1.399 . S
C211 C208 1.487 . S
C211 N228 1.343 . S
H212 C184 0.931 . S
H213 C186 0.950 . S
H214 C188 0.930 . S
H215 C189 0.931 . S
H216 C191 0.931 . S
H217 C193 0.930 . S
H218 C195 0.930 . S
H219 C196 0.931 . S
H220 C198 0.931 1_556 S
H221 C200 0.930 . S
H222 C202 0.930 . S
H223 C203 0.931 . S
H224 C205 0.931 . S
H225 C207 0.930 . S
H226 C209 0.930 . S
H227 C210 0.931 . S
N228 C190 1.343 1_545 S
N228 C211 1.343 . S
N229 C197 1.343 1_545 S
N229 C204 1.343 1_554 S
C230 C231 1.384 . S
C230 C232 1.384 . S
C230 H258 0.931 . S
C231 C230 1.384 . S
C231 C234 1.382 . S
C232 C230 1.384 . S
C232 C233 1.381 . S
C232 H259 0.930 . S
C233 C232 1.381 . S
C233 C235 1.381 . S
C233 C236 1.487 . S
C234 C231 1.382 . S
C234 C235 1.387 . S
C234 H260 0.930 . S
C235 C233 1.381 . S
C235 C234 1.387 . S
C235 H261 0.931 . S
C236 C233 1.487 . S
C236 C243 1.399 . S
C236 N274 1.343 . S
C237 C238 1.384 . S
C237 C239 1.384 . S
C237 H262 0.931 . S
C238 C237 1.384 . S
C238 C241 1.382 . S
C239 C237 1.384 . S
C239 C240 1.381 . S
C239 H263 0.930 . S
C240 C239 1.381 . S
C240 C242 1.381 . S
C240 C243 1.487 . S
C241 C238 1.382 . S
C241 C242 1.387 . S
C241 H264 0.930 . S
C242 C240 1.381 . S
C242 C241 1.387 . S
C242 H265 0.931 . S
C243 C236 1.399 . S
C243 C240 1.487 . S
C243 N275 1.343 . S
C244 C245 1.384 . S
C244 C246 1.384 . S
C244 H266 0.931 . S
C245 C244 1.384 . S
C245 C248 1.382 . S
C246 C244 1.384 . S
C246 C247 1.381 . S
C246 H267 0.930 . S
C247 C246 1.381 . S
C247 C249 1.381 . S
C247 C250 1.487 . S
C248 C245 1.382 . S
C248 C249 1.387 . S
C248 H268 0.930 . S
C249 C247 1.381 . S
C249 C248 1.387 . S
C249 H269 0.931 . S
C250 C247 1.487 . S
C250 C257 1.399 . S
C250 N275 1.343 . S
C251 C252 1.384 . S
C251 C253 1.384 . S
C251 H270 0.931 . S
C252 C251 1.384 . S
C252 C255 1.382 . S
C253 C251 1.384 . S
C253 C254 1.381 . S
C253 H271 0.930 . S
C254 C253 1.381 . S
C254 C256 1.381 . S
C254 C257 1.487 . S
C255 C252 1.382 . S
C255 C256 1.387 . S
C255 H272 0.930 . S
C256 C254 1.381 . S
C256 C255 1.387 . S
C256 H273 0.931 . S
C257 C250 1.399 . S
C257 C254 1.487 . S
C257 N274 1.343 . S
H258 C230 0.931 . S
H259 C232 0.930 . S
H260 C234 0.930 . S
H261 C235 0.931 . S
H262 C237 0.931 . S
H263 C239 0.930 . S
H264 C241 0.930 . S
H265 C242 0.931 . S
H266 C244 0.931 . S
H267 C246 0.930 . S
H268 C248 0.930 . S
H269 C249 0.931 . S
H270 C251 0.931 . S
H271 C253 0.930 . S
H272 C255 0.930 . S
H273 C256 0.931 . S
N274 C236 1.343 . S
N274 C257 1.343 . S
N275 C243 1.343 . S
N275 C250 1.343 . S
Zn276 O279 2.031 . S
Zn276 O281 2.049 . S
Zn276 O286 2.067 . S
Zn277 O278 1.962 . S
Zn277 O280 1.986 . S
Zn277 O282 1.996 . S
Zn277 O285 1.943 . S
O278 Zn277 1.962 . S
O278 C283 1.254 . S
O279 Zn276 2.031 . S
O279 C283 1.269 . S
O280 Zn277 1.986 . S
O280 C287 1.262 . S
O281 Zn276 2.049 . S
O281 C289 1.260 . S
O282 Zn277 1.996 . S
O282 C289 1.257 . S
C283 O278 1.254 . S
C283 O279 1.269 . S
C284 O285 1.249 . S
C284 O286 1.270 . S
O285 Zn277 1.943 . S
O285 C284 1.249 . S
O286 Zn276 2.067 . S
O286 C284 1.270 . S
C287 O280 1.262 . S
C287 O288 1.232 . S
O288 C287 1.232 . S
C289 O281 1.260 . S
C289 O282 1.257 . S
Zn290 O293 2.031 . S
Zn290 O295 2.049 . S
Zn290 O300 2.067 . S
Zn291 O292 1.962 . S
Zn291 O294 1.986 . S
Zn291 O296 1.996 . S
Zn291 O299 1.943 . S
O292 Zn291 1.962 . S
O292 C297 1.254 . S
O293 Zn290 2.031 . S
O293 C297 1.269 . S
O294 Zn291 1.986 . S
O294 C301 1.262 . S
O295 Zn290 2.049 . S
O295 C303 1.260 . S
O296 Zn291 1.996 . S
O296 C303 1.257 . S
C297 O292 1.254 . S
C297 O293 1.269 . S
C298 O299 1.249 . S
C298 O300 1.270 . S
O299 Zn291 1.943 . S
O299 C298 1.249 . S
O300 Zn290 2.067 . S
O300 C298 1.270 . S
C301 O294 1.262 . S
C301 O302 1.232 . S
O302 C301 1.232 . S
C303 O295 1.260 . S
C303 O296 1.257 . S
Zn304 O307 2.031 . S
Zn304 O309 2.049 . S
Zn304 O314 2.067 . S
Zn305 O306 1.962 . S
Zn305 O308 1.986 . S
Zn305 O310 1.996 . S
Zn305 O313 1.943 . S
O306 Zn305 1.962 . S
O306 C311 1.254 . S
O307 Zn304 2.031 . S
O307 C311 1.269 . S
O308 Zn305 1.986 . S
O308 C315 1.262 . S
O309 Zn304 2.049 . S
O309 C317 1.260 . S
O310 Zn305 1.996 . S
O310 C317 1.257 . S
C311 O306 1.254 . S
C311 O307 1.269 . S
C312 O313 1.249 . S
C312 O314 1.270 . S
O313 Zn305 1.943 . S
O313 C312 1.249 . S
O314 Zn304 2.067 . S
O314 C312 1.270 . S
C315 O308 1.262 . S
C315 O316 1.232 . S
O316 C315 1.232 . S
C317 O309 1.260 . S
C317 O310 1.257 . S
Zn318 O321 2.031 . S
Zn318 O323 2.049 . S
Zn318 O328 2.067 . S
Zn319 O320 1.962 . S
Zn319 O322 1.986 . S
Zn319 O324 1.996 . S
Zn319 O327 1.943 . S
O320 Zn319 1.962 . S
O320 C325 1.254 . S
O321 Zn318 2.031 . S
O321 C325 1.269 . S
O322 Zn319 1.986 . S
O322 C329 1.262 . S
O323 Zn318 2.049 . S
O323 C331 1.260 . S
O324 Zn319 1.996 . S
O324 C331 1.257 . S
C325 O320 1.254 . S
C325 O321 1.269 . S
C326 O327 1.249 . S
C326 O328 1.270 . S
O327 Zn319 1.943 . S
O327 C326 1.249 . S
O328 Zn318 2.067 . S
O328 C326 1.270 . S
C329 O322 1.262 . S
C329 O330 1.232 . S
O330 C329 1.232 . S
C331 O323 1.260 . S
C331 O324 1.257 . S
Zn332 O335 2.031 . S
Zn332 O337 2.049 . S
Zn332 O342 2.067 . S
Zn333 O334 1.962 . S
Zn333 O336 1.986 . S
Zn333 O338 1.996 . S
Zn333 O341 1.943 . S
O334 Zn333 1.962 . S
O334 C339 1.254 . S
O335 Zn332 2.031 . S
O335 C339 1.269 . S
O336 Zn333 1.986 . S
O336 C343 1.262 . S
O337 Zn332 2.049 . S
O337 C345 1.260 . S
O338 Zn333 1.996 . S
O338 C345 1.257 . S
C339 O334 1.254 . S
C339 O335 1.269 . S
C340 O341 1.249 . S
C340 O342 1.270 . S
O341 Zn333 1.943 . S
O341 C340 1.249 . S
O342 Zn332 2.067 . S
O342 C340 1.270 . S
C343 O336 1.262 . S
C343 O344 1.232 . S
O344 C343 1.232 . S
C345 O337 1.260 . S
C345 O338 1.257 . S
Zn346 O349 2.031 . S
Zn346 O351 2.049 . S
Zn346 O356 2.067 . S
Zn347 O348 1.962 . S
Zn347 O350 1.986 . S
Zn347 O352 1.996 . S
Zn347 O355 1.943 . S
O348 Zn347 1.962 . S
O348 C353 1.254 . S
O349 Zn346 2.031 . S
O349 C353 1.269 . S
O350 Zn347 1.986 . S
O350 C357 1.262 . S
O351 Zn346 2.049 . S
O351 C359 1.260 . S
O352 Zn347 1.996 . S
O352 C359 1.257 . S
C353 O348 1.254 . S
C353 O349 1.269 . S
C354 O355 1.249 . S
C354 O356 1.270 . S
O355 Zn347 1.943 . S
O355 C354 1.249 . S
O356 Zn346 2.067 . S
O356 C354 1.270 . S
C357 O350 1.262 . S
C357 O358 1.232 . S
O358 C357 1.232 . S
C359 O351 1.260 . S
C359 O352 1.257 . S
H360 C368 0.929 . S
H361 C370 0.930 . S
H362 C372 0.930 . S
H363 C375 0.929 . S
H364 C378 0.930 . S
H365 C380 0.960 . S
H366 C380 0.960 . S
H367 C380 0.960 . S
C368 H360 0.929 . S
C368 C369 1.377 . S
C368 C370 1.384 . S
C369 C368 1.377 . S
C369 C375 1.390 . S
C370 H361 0.930 . S
C370 C368 1.384 . S
C370 C371 1.372 . S
C371 C370 1.372 . S
C371 C372 1.400 . S
C371 C376 1.490 . S
C372 H362 0.930 . S
C372 C371 1.400 . S
C372 C375 1.386 . S
H373 C389 0.930 . S
H374 C390 0.931 . S
C375 H363 0.929 . S
C375 C369 1.390 . S
C375 C372 1.386 . S
C376 C371 1.490 . S
C376 C378 1.395 . S
C376 C379 1.403 . S
H377 C383 0.930 . S
C378 H364 0.930 . S
C378 C376 1.395 . S
C378 C381 1.403 . S
C379 C376 1.403 . S
C379 C380 1.524 . S
C379 C383 1.400 . S
C380 H365 0.960 . S
C380 H366 0.960 . S
C380 H367 0.960 . S
C380 C379 1.524 . S
C381 C378 1.403 . S
C381 C382 1.392 . S
C381 C385 1.495 . S
C382 C381 1.392 . S
C382 C383 1.385 . S
C382 C384 1.478 . S
C383 H377 0.930 . S
C383 C379 1.400 . S
C383 C382 1.385 . S
C384 C382 1.478 . S
C384 C386 1.381 . S
C384 C390 1.383 . S
C385 C381 1.495 . S
C385 H391 0.959 . S
C385 H392 0.961 . S
C385 H393 0.960 . S
C386 C384 1.381 . S
C386 C387 1.394 . S
C386 H394 0.930 . S
C387 C386 1.394 . S
C387 C388 1.383 . S
C387 H395 0.929 . S
C388 C387 1.383 . S
C388 C389 1.377 . S
C389 H373 0.930 . S
C389 C388 1.377 . S
C389 C390 1.379 . S
C390 H374 0.931 . S
C390 C384 1.383 . S
C390 C389 1.379 . S
H391 C385 0.959 . S
H392 C385 0.961 . S
H393 C385 0.960 . S
H394 C386 0.930 . S
H395 C387 0.929 . S
H396 C404 0.929 . S
H397 C406 0.930 . S
H398 C408 0.930 . S
H399 C411 0.929 . S
H400 C414 0.930 . S
H401 C416 0.960 . S
H402 C416 0.960 . S
H403 C416 0.960 . S
C404 H396 0.929 . S
C404 C405 1.377 . S
C404 C406 1.384 . S
C405 C404 1.377 . S
C405 C411 1.390 . S
C406 H397 0.930 . S
C406 C404 1.384 . S
C406 C407 1.372 . S
C407 C406 1.372 . S
C407 C408 1.400 . S
C407 C412 1.490 . S
C408 H398 0.930 . S
C408 C407 1.400 . S
C408 C411 1.386 . S
H409 C425 0.930 . S
H410 C426 0.931 . S
C411 H399 0.929 . S
C411 C405 1.390 . S
C411 C408 1.386 . S
C412 C407 1.490 . S
C412 C414 1.395 . S
C412 C415 1.403 . S
H413 C419 0.930 . S
C414 H400 0.930 . S
C414 C412 1.395 . S
C414 C417 1.403 . S
C415 C412 1.403 . S
C415 C416 1.524 . S
C415 C419 1.400 . S
C416 H401 0.960 . S
C416 H402 0.960 . S
C416 H403 0.960 . S
C416 C415 1.524 . S
C417 C414 1.403 . S
C417 C418 1.392 . S
C417 C421 1.495 . S
C418 C417 1.392 . S
C418 C419 1.385 . S
C418 C420 1.478 . S
C419 H413 0.930 . S
C419 C415 1.400 . S
C419 C418 1.385 . S
C420 C418 1.478 . S
C420 C422 1.381 . S
C420 C426 1.383 . S
C421 C417 1.495 . S
C421 H427 0.959 . S
C421 H428 0.961 . S
C421 H429 0.960 . S
C422 C420 1.381 . S
C422 C423 1.394 . S
C422 H430 0.930 . S
C423 C422 1.394 . S
C423 C424 1.383 . S
C423 H431 0.929 . S
C424 C423 1.383 . S
C424 C425 1.377 . S
C425 H409 0.930 . S
C425 C424 1.377 . S
C425 C426 1.379 . S
C426 H410 0.931 . S
C426 C420 1.383 . S
C426 C425 1.379 . S
H427 C421 0.959 . S
H428 C421 0.961 . S
H429 C421 0.960 . S
H430 C422 0.930 . S
H431 C423 0.929 . S
H432 C440 0.929 . S
H433 C442 0.930 . S
H434 C444 0.930 . S
H435 C447 0.929 . S
H436 C450 0.930 . S
H437 C452 0.960 . S
H438 C452 0.960 . S
H439 C452 0.960 . S
C440 H432 0.929 . S
C440 C441 1.377 . S
C440 C442 1.384 . S
C441 C440 1.377 . S
C441 C447 1.390 . S
C442 H433 0.930 . S
C442 C440 1.384 . S
C442 C443 1.372 . S
C443 C442 1.372 . S
C443 C444 1.400 . S
C443 C448 1.490 . S
C444 H434 0.930 . S
C444 C443 1.400 . S
C444 C447 1.386 . S
H445 C461 0.930 . S
H446 C462 0.931 . S
C447 H435 0.929 . S
C447 C441 1.390 . S
C447 C444 1.386 . S
C448 C443 1.490 . S
C448 C450 1.395 . S
C448 C451 1.403 . S
H449 C455 0.930 . S
C450 H436 0.930 . S
C450 C448 1.395 . S
C450 C453 1.403 . S
C451 C448 1.403 . S
C451 C452 1.524 . S
C451 C455 1.400 . S
C452 H437 0.960 . S
C452 H438 0.960 . S
C452 H439 0.960 . S
C452 C451 1.524 . S
C453 C450 1.403 . S
C453 C454 1.392 . S
C453 C457 1.495 . S
C454 C453 1.392 . S
C454 C455 1.385 . S
C454 C456 1.478 . S
C455 H449 0.930 . S
C455 C451 1.400 . S
C455 C454 1.385 . S
C456 C454 1.478 . S
C456 C458 1.381 . S
C456 C462 1.383 . S
C457 C453 1.495 . S
C457 H463 0.959 . S
C457 H464 0.961 . S
C457 H465 0.960 . S
C458 C456 1.381 . S
C458 C459 1.394 . S
C458 H466 0.930 . S
C459 C458 1.394 . S
C459 C460 1.383 . S
C459 H467 0.929 . S
C460 C459 1.383 . S
C460 C461 1.377 . S
C461 H445 0.930 . S
C461 C460 1.377 . S
C461 C462 1.379 . S
C462 H446 0.931 . S
C462 C456 1.383 . S
C462 C461 1.379 . S
H463 C457 0.959 . S
H464 C457 0.961 . S
H465 C457 0.960 . S
H466 C458 0.930 . S
H467 C459 0.929 . S
H468 C476 0.929 . S
H469 C478 0.930 . S
H470 C480 0.930 . S
H471 C483 0.929 . S
H472 C486 0.930 . S
H473 C488 0.960 . S
H474 C488 0.960 . S
H475 C488 0.960 . S
C476 H468 0.929 . S
C476 C477 1.377 . S
C476 C478 1.384 . S
C477 C476 1.377 . S
C477 C483 1.390 . S
C478 H469 0.930 . S
C478 C476 1.384 . S
C478 C479 1.372 . S
C479 C478 1.372 . S
C479 C480 1.400 . S
C479 C484 1.490 . S
C480 H470 0.930 . S
C480 C479 1.400 . S
C480 C483 1.386 . S
H481 C497 0.930 . S
H482 C498 0.931 . S
C483 H471 0.929 . S
C483 C477 1.390 . S
C483 C480 1.386 . S
C484 C479 1.490 . S
C484 C486 1.395 . S
C484 C487 1.403 . S
H485 C491 0.930 . S
C486 H472 0.930 . S
C486 C484 1.395 . S
C486 C489 1.403 . S
C487 C484 1.403 . S
C487 C488 1.524 . S
C487 C491 1.400 . S
C488 H473 0.960 . S
C488 H474 0.960 . S
C488 H475 0.960 . S
C488 C487 1.524 . S
C489 C486 1.403 . S
C489 C490 1.392 . S
C489 C493 1.495 . S
C490 C489 1.392 . S
C490 C491 1.385 . S
C490 C492 1.478 . S
C491 H485 0.930 . S
C491 C487 1.400 . S
C491 C490 1.385 . S
C492 C490 1.478 . S
C492 C494 1.381 . S
C492 C498 1.383 . S
C493 C489 1.495 . S
C493 H499 0.959 . S
C493 H500 0.961 . S
C493 H501 0.960 . S
C494 C492 1.381 . S
C494 C495 1.394 . S
C494 H502 0.930 . S
C495 C494 1.394 . S
C495 C496 1.383 . S
C495 H503 0.929 . S
C496 C495 1.383 . S
C496 C497 1.377 . S
C497 H481 0.930 . S
C497 C496 1.377 . S
C497 C498 1.379 . S
C498 H482 0.931 . S
C498 C492 1.383 . S
C498 C497 1.379 . S
H499 C493 0.959 . S
H500 C493 0.961 . S
H501 C493 0.960 . S
H502 C494 0.930 . S
H503 C495 0.929 . S
H504 C512 0.929 . S
H505 C514 0.930 . S
H506 C516 0.930 . S
H507 C519 0.929 . S
H508 C522 0.930 . S
H509 C524 0.960 . S
H510 C524 0.960 . S
H511 C524 0.960 . S
C512 H504 0.929 . S
C512 C513 1.377 . S
C512 C514 1.384 . S
C513 C512 1.377 . S
C513 C519 1.390 . S
C514 H505 0.930 . S
C514 C512 1.384 . S
C514 C515 1.372 . S
C515 C514 1.372 . S
C515 C516 1.400 . S
C515 C520 1.490 . S
C516 H506 0.930 . S
C516 C515 1.400 . S
C516 C519 1.386 . S
H517 C533 0.930 . S
H518 C534 0.931 . S
C519 H507 0.929 . S
C519 C513 1.390 . S
C519 C516 1.386 . S
C520 C515 1.490 . S
C520 C522 1.395 . S
C520 C523 1.403 . S
H521 C527 0.930 . S
C522 H508 0.930 . S
C522 C520 1.395 . S
C522 C525 1.403 . S
C523 C520 1.403 . S
C523 C524 1.524 . S
C523 C527 1.400 . S
C524 H509 0.960 . S
C524 H510 0.960 . S
C524 H511 0.960 . S
C524 C523 1.524 . S
C525 C522 1.403 . S
C525 C526 1.392 . S
C525 C529 1.495 . S
C526 C525 1.392 . S
C526 C527 1.385 . S
C526 C528 1.478 . S
C527 H521 0.930 . S
C527 C523 1.400 . S
C527 C526 1.385 . S
C528 C526 1.478 . S
C528 C530 1.381 . S
C528 C534 1.383 . S
C529 C525 1.495 . S
C529 H535 0.959 . S
C529 H536 0.961 . S
C529 H537 0.960 . S
C530 C528 1.381 . S
C530 C531 1.394 . S
C530 H538 0.930 . S
C531 C530 1.394 . S
C531 C532 1.383 . S
C531 H539 0.929 . S
C532 C531 1.383 . S
C532 C533 1.377 . S
C533 H517 0.930 . S
C533 C532 1.377 . S
C533 C534 1.379 . S
C534 H518 0.931 . S
C534 C528 1.383 . S
C534 C533 1.379 . S
H535 C529 0.959 . S
H536 C529 0.961 . S
H537 C529 0.960 . S
H538 C530 0.930 . S
H539 C531 0.929 . S
H540 C548 0.929 . S
H541 C550 0.930 . S
H542 C552 0.930 . S
H543 C555 0.929 . S
H544 C558 0.930 . S
H545 C560 0.960 . S
H546 C560 0.960 . S
H547 C560 0.960 . S
C548 H540 0.929 . S
C548 C549 1.377 . S
C548 C550 1.384 . S
C549 C548 1.377 . S
C549 C555 1.390 . S
C550 H541 0.930 . S
C550 C548 1.384 . S
C550 C551 1.372 . S
C551 C550 1.372 . S
C551 C552 1.400 . S
C551 C556 1.490 . S
C552 H542 0.930 . S
C552 C551 1.400 . S
C552 C555 1.386 . S
H553 C569 0.930 . S
H554 C570 0.931 . S
C555 H543 0.929 . S
C555 C549 1.390 . S
C555 C552 1.386 . S
C556 C551 1.490 . S
C556 C558 1.395 . S
C556 C559 1.403 . S
H557 C563 0.930 . S
C558 H544 0.930 . S
C558 C556 1.395 . S
C558 C561 1.403 . S
C559 C556 1.403 . S
C559 C560 1.524 . S
C559 C563 1.400 . S
C560 H545 0.960 . S
C560 H546 0.960 . S
C560 H547 0.960 . S
C560 C559 1.524 . S
C561 C558 1.403 . S
C561 C562 1.392 . S
C561 C565 1.495 . S
C562 C561 1.392 . S
C562 C563 1.385 . S
C562 C564 1.478 . S
C563 H557 0.930 . S
C563 C559 1.400 . S
C563 C562 1.385 . S
C564 C562 1.478 . S
C564 C566 1.381 . S
C564 C570 1.383 . S
C565 C561 1.495 . S
C565 H571 0.959 . S
C565 H572 0.961 . S
C565 H573 0.960 . S
C566 C564 1.381 . S
C566 C567 1.394 . S
C566 H574 0.930 . S
C567 C566 1.394 . S
C567 C568 1.383 . S
C567 H575 0.929 . S
C568 C567 1.383 . S
C568 C569 1.377 . S
C569 H553 0.930 . S
C569 C568 1.377 . S
C569 C570 1.379 . S
C570 H554 0.931 . S
C570 C564 1.383 . S
C570 C569 1.379 . S
H571 C565 0.959 . S
H572 C565 0.961 . S
H573 C565 0.960 . S
H574 C566 0.930 . S
H575 C567 0.929 . S
H576 C584 0.929 . S
H577 C586 0.930 . S
H578 C588 0.930 . S
H579 C591 0.929 . S
H580 C594 0.930 . S
H581 C596 0.960 . S
H582 C596 0.960 . S
H583 C596 0.960 . S
C584 H576 0.929 . S
C584 C585 1.377 . S
C584 C586 1.384 . S
C585 C584 1.377 . S
C585 C591 1.390 . S
C586 H577 0.930 . S
C586 C584 1.384 . S
C586 C587 1.372 . S
C587 C586 1.372 . S
C587 C588 1.400 . S
C587 C592 1.490 . S
C588 H578 0.930 . S
C588 C587 1.400 . S
C588 C591 1.386 . S
H589 C605 0.930 . S
H590 C606 0.931 . S
C591 H579 0.929 . S
C591 C585 1.390 . S
C591 C588 1.386 . S
C592 C587 1.490 . S
C592 C594 1.395 . S
C592 C595 1.403 . S
H593 C599 0.930 . S
C594 H580 0.930 . S
C594 C592 1.395 . S
C594 C597 1.403 . S
C595 C592 1.403 . S
C595 C596 1.524 . S
C595 C599 1.400 . S
C596 H581 0.960 . S
C596 H582 0.960 . S
C596 H583 0.960 . S
C596 C595 1.524 . S
C597 C594 1.403 . S
C597 C598 1.392 . S
C597 C601 1.495 . S
C598 C597 1.392 . S
C598 C599 1.385 . S
C598 C600 1.478 . S
C599 H593 0.930 . S
C599 C595 1.400 . S
C599 C598 1.385 . S
C600 C598 1.478 . S
C600 C602 1.381 . S
C600 C606 1.383 . S
C601 C597 1.495 . S
C601 H607 0.959 . S
C601 H608 0.961 . S
C601 H609 0.960 . S
C602 C600 1.381 . S
C602 C603 1.394 . S
C602 H610 0.930 . S
C603 C602 1.394 . S
C603 C604 1.383 . S
C603 H611 0.929 . S
C604 C603 1.383 . S
C604 C605 1.377 . S
C605 H589 0.930 . S
C605 C604 1.377 . S
C605 C606 1.379 . S
C606 H590 0.931 . S
C606 C600 1.383 . S
C606 C605 1.379 . S
H607 C601 0.959 . S
H608 C601 0.961 . S
H609 C601 0.960 . S
H610 C602 0.930 . S
H611 C603 0.929 . S
H612 C620 0.929 . S
H613 C622 0.930 . S
H614 C624 0.930 . S
H615 C627 0.929 . S
H616 C630 0.930 . S
H617 C632 0.960 . S
H618 C632 0.960 . S
H619 C632 0.960 . S
C620 H612 0.929 . S
C620 C621 1.377 . S
C620 C622 1.384 . S
C621 C620 1.377 . S
C621 C627 1.390 . S
C622 H613 0.930 . S
C622 C620 1.384 . S
C622 C623 1.372 . S
C623 C622 1.372 . S
C623 C624 1.400 . S
C623 C628 1.490 . S
C624 H614 0.930 . S
C624 C623 1.400 . S
C624 C627 1.386 . S
H625 C641 0.930 . S
H626 C642 0.931 . S
C627 H615 0.929 . S
C627 C621 1.390 . S
C627 C624 1.386 . S
C628 C623 1.490 . S
C628 C630 1.395 . S
C628 C631 1.403 . S
H629 C635 0.930 . S
C630 H616 0.930 . S
C630 C628 1.395 . S
C630 C633 1.403 . S
C631 C628 1.403 . S
C631 C632 1.524 . S
C631 C635 1.400 . S
C632 H617 0.960 . S
C632 H618 0.960 . S
C632 H619 0.960 . S
C632 C631 1.524 . S
C633 C630 1.403 . S
C633 C634 1.392 . S
C633 C637 1.495 . S
C634 C633 1.392 . S
C634 C635 1.385 . S
C634 C636 1.478 . S
C635 H629 0.930 . S
C635 C631 1.400 . S
C635 C634 1.385 . S
C636 C634 1.478 . S
C636 C638 1.381 . S
C636 C642 1.383 . S
C637 C633 1.495 . S
C637 H643 0.959 . S
C637 H644 0.961 . S
C637 H645 0.960 . S
C638 C636 1.381 . S
C638 C639 1.394 . S
C638 H646 0.930 . S
C639 C638 1.394 . S
C639 C640 1.383 . S
C639 H647 0.929 . S
C640 C639 1.383 . S
C640 C641 1.377 . S
C641 H625 0.930 . S
C641 C640 1.377 . S
C641 C642 1.379 . S
C642 H626 0.931 . S
C642 C636 1.383 . S
C642 C641 1.379 . S
H643 C637 0.959 . S
H644 C637 0.961 . S
H645 C637 0.960 . S
H646 C638 0.930 . S
H647 C639 0.929 . S
H648 C656 0.929 . S
H649 C658 0.930 . S
H650 C660 0.930 . S
H651 C663 0.929 . S
H652 C666 0.930 . S
H653 C668 0.960 . S
H654 C668 0.960 . S
H655 C668 0.960 . S
C656 H648 0.929 . S
C656 C657 1.377 . S
C656 C658 1.384 . S
C657 C656 1.377 . S
C657 C663 1.390 . S
C658 H649 0.930 . S
C658 C656 1.384 . S
C658 C659 1.372 . S
C659 C658 1.372 . S
C659 C660 1.400 . S
C659 C664 1.490 . S
C660 H650 0.930 . S
C660 C659 1.400 . S
C660 C663 1.386 . S
H661 C677 0.930 . S
H662 C678 0.931 . S
C663 H651 0.929 . S
C663 C657 1.390 . S
C663 C660 1.386 . S
C664 C659 1.490 . S
C664 C666 1.395 . S
C664 C667 1.403 . S
H665 C671 0.930 . S
C666 H652 0.930 . S
C666 C664 1.395 . S
C666 C669 1.403 . S
C667 C664 1.403 . S
C667 C668 1.524 . S
C667 C671 1.400 . S
C668 H653 0.960 . S
C668 H654 0.960 . S
C668 H655 0.960 . S
C668 C667 1.524 . S
C669 C666 1.403 . S
C669 C670 1.392 . S
C669 C673 1.495 . S
C670 C669 1.392 . S
C670 C671 1.385 . S
C670 C672 1.478 . S
C671 H665 0.930 . S
C671 C667 1.400 . S
C671 C670 1.385 . S
C672 C670 1.478 . S
C672 C674 1.381 . S
C672 C678 1.383 . S
C673 C669 1.495 . S
C673 H679 0.959 . S
C673 H680 0.961 . S
C673 H681 0.960 . S
C674 C672 1.381 . S
C674 C675 1.394 . S
C674 H682 0.930 . S
C675 C674 1.394 . S
C675 C676 1.383 . S
C675 H683 0.929 . S
C676 C675 1.383 . S
C676 C677 1.377 . S
C677 H661 0.930 . S
C677 C676 1.377 . S
C677 C678 1.379 . S
C678 H662 0.931 . S
C678 C672 1.383 . S
C678 C677 1.379 . S
H679 C673 0.959 . S
H680 C673 0.961 . S
H681 C673 0.960 . S
H682 C674 0.930 . S
H683 C675 0.929 . S
H684 C692 0.929 . S
H685 C694 0.930 . S
H686 C696 0.930 . S
H687 C699 0.929 . S
H688 C702 0.930 . S
H689 C704 0.960 . S
H690 C704 0.960 . S
H691 C704 0.960 . S
C692 H684 0.929 . S
C692 C693 1.377 . S
C692 C694 1.384 . S
C693 C692 1.377 . S
C693 C699 1.390 . S
C694 H685 0.930 . S
C694 C692 1.384 . S
C694 C695 1.372 . S
C695 C694 1.372 . S
C695 C696 1.400 . S
C695 C700 1.490 . S
C696 H686 0.930 . S
C696 C695 1.400 . S
C696 C699 1.386 . S
H697 C713 0.930 . S
H698 C714 0.931 . S
C699 H687 0.929 . S
C699 C693 1.390 . S
C699 C696 1.386 . S
C700 C695 1.490 . S
C700 C702 1.395 . S
C700 C703 1.403 . S
H701 C707 0.930 . S
C702 H688 0.930 . S
C702 C700 1.395 . S
C702 C705 1.403 . S
C703 C700 1.403 . S
C703 C704 1.524 . S
C703 C707 1.400 . S
C704 H689 0.960 . S
C704 H690 0.960 . S
C704 H691 0.960 . S
C704 C703 1.524 . S
C705 C702 1.403 . S
C705 C706 1.392 . S
C705 C709 1.495 . S
C706 C705 1.392 . S
C706 C707 1.385 . S
C706 C708 1.478 . S
C707 H701 0.930 . S
C707 C703 1.400 . S
C707 C706 1.385 . S
C708 C706 1.478 . S
C708 C710 1.381 . S
C708 C714 1.383 . S
C709 C705 1.495 . S
C709 H715 0.959 . S
C709 H716 0.961 . S
C709 H717 0.960 . S
C710 C708 1.381 . S
C710 C711 1.394 . S
C710 H718 0.930 . S
C711 C710 1.394 . S
C711 C712 1.383 . S
C711 H719 0.929 . S
C712 C711 1.383 . S
C712 C713 1.377 . S
C713 H697 0.930 . S
C713 C712 1.377 . S
C713 C714 1.379 . S
C714 H698 0.931 . S
C714 C708 1.383 . S
C714 C713 1.379 . S
H715 C709 0.959 . S
H716 C709 0.961 . S
H717 C709 0.960 . S
H718 C710 0.930 . S
H719 C711 0.929 . S
H720 C728 0.929 . S
H721 C730 0.930 . S
H722 C732 0.930 . S
H723 C735 0.929 . S
H724 C738 0.930 . S
H725 C740 0.960 . S
H726 C740 0.960 . S
H727 C740 0.960 . S
C728 H720 0.929 . S
C728 C729 1.377 . S
C728 C730 1.384 . S
C729 C728 1.377 . S
C729 C735 1.390 . S
C730 H721 0.930 . S
C730 C728 1.384 . S
C730 C731 1.372 . S
C731 C730 1.372 . S
C731 C732 1.400 . S
C731 C736 1.490 . S
C732 H722 0.930 . S
C732 C731 1.400 . S
C732 C735 1.386 . S
H733 C749 0.930 . S
H734 C750 0.931 . S
C735 H723 0.929 . S
C735 C729 1.390 . S
C735 C732 1.386 . S
C736 C731 1.490 . S
C736 C738 1.395 . S
C736 C739 1.403 . S
H737 C743 0.930 . S
C738 H724 0.930 . S
C738 C736 1.395 . S
C738 C741 1.403 . S
C739 C736 1.403 . S
C739 C740 1.524 . S
C739 C743 1.400 . S
C740 H725 0.960 . S
C740 H726 0.960 . S
C740 H727 0.960 . S
C740 C739 1.524 . S
C741 C738 1.403 . S
C741 C742 1.392 . S
C741 C745 1.495 . S
C742 C741 1.392 . S
C742 C743 1.385 . S
C742 C744 1.478 . S
C743 H737 0.930 . S
C743 C739 1.400 . S
C743 C742 1.385 . S
C744 C742 1.478 . S
C744 C746 1.381 . S
C744 C750 1.383 . S
C745 C741 1.495 . S
C745 H751 0.959 . S
C745 H752 0.961 . S
C745 H753 0.960 . S
C746 C744 1.381 . S
C746 C747 1.394 . S
C746 H754 0.930 . S
C747 C746 1.394 . S
C747 C748 1.383 . S
C747 H755 0.929 . S
C748 C747 1.383 . S
C748 C749 1.377 . S
C749 H733 0.930 . S
C749 C748 1.377 . S
C749 C750 1.379 . S
C750 H734 0.931 . S
C750 C744 1.383 . S
C750 C749 1.379 . S
H751 C745 0.959 . S
H752 C745 0.961 . S
H753 C745 0.960 . S
H754 C746 0.930 . S
H755 C747 0.929 . S
H756 C764 0.929 . S
H757 C766 0.930 . S
H758 C768 0.930 . S
H759 C771 0.929 . S
H760 C774 0.930 . S
H761 C776 0.960 . S
H762 C776 0.960 . S
H763 C776 0.960 . S
C764 H756 0.929 . S
C764 C765 1.377 . S
C764 C766 1.384 . S
C765 C764 1.377 . S
C765 C771 1.390 . S
C766 H757 0.930 . S
C766 C764 1.384 . S
C766 C767 1.372 . S
C767 C766 1.372 . S
C767 C768 1.400 . S
C767 C772 1.490 . S
C768 H758 0.930 . S
C768 C767 1.400 . S
C768 C771 1.386 . S
H769 C785 0.930 . S
H770 C786 0.931 . S
C771 H759 0.929 . S
C771 C765 1.390 . S
C771 C768 1.386 . S
C772 C767 1.490 . S
C772 C774 1.395 . S
C772 C775 1.403 . S
H773 C779 0.930 . S
C774 H760 0.930 . S
C774 C772 1.395 . S
C774 C777 1.403 . S
C775 C772 1.403 . S
C775 C776 1.524 . S
C775 C779 1.400 . S
C776 H761 0.960 . S
C776 H762 0.960 . S
C776 H763 0.960 . S
C776 C775 1.524 . S
C777 C774 1.403 . S
C777 C778 1.392 . S
C777 C781 1.495 . S
C778 C777 1.392 . S
C778 C779 1.385 . S
C778 C780 1.478 . S
C779 H773 0.930 . S
C779 C775 1.400 . S
C779 C778 1.385 . S
C780 C778 1.478 . S
C780 C782 1.381 . S
C780 C786 1.383 . S
C781 C777 1.495 . S
C781 H787 0.959 . S
C781 H788 0.961 . S
C781 H789 0.960 . S
C782 C780 1.381 . S
C782 C783 1.394 . S
C782 H790 0.930 . S
C783 C782 1.394 . S
C783 C784 1.383 . S
C783 H791 0.929 . S
C784 C783 1.383 . S
C784 C785 1.377 . S
C785 H769 0.930 . S
C785 C784 1.377 . S
C785 C786 1.379 . S
C786 H770 0.931 . S
C786 C780 1.383 . S
C786 C785 1.379 . S
H787 C781 0.959 . S
H788 C781 0.961 . S
H789 C781 0.960 . S
H790 C782 0.930 . S
H791 C783 0.929 . S
H792 C800 0.929 . S
H793 C802 0.930 . S
H794 C804 0.930 . S
H795 C807 0.929 . S
H796 C810 0.930 . S
H797 C812 0.960 . S
H798 C812 0.960 . S
H799 C812 0.960 . S
C800 H792 0.929 . S
C800 C801 1.377 . S
C800 C802 1.384 . S
C801 C800 1.377 . S
C801 C807 1.390 . S
C802 H793 0.930 . S
C802 C800 1.384 . S
C802 C803 1.372 . S
C803 C802 1.372 . S
C803 C804 1.400 . S
C803 C808 1.490 . S
C804 H794 0.930 . S
C804 C803 1.400 . S
C804 C807 1.386 . S
H805 C821 0.930 . S
H806 C822 0.931 . S
C807 H795 0.929 . S
C807 C801 1.390 . S
C807 C804 1.386 . S
C808 C803 1.490 . S
C808 C810 1.395 . S
C808 C811 1.403 . S
H809 C815 0.930 . S
C810 H796 0.930 . S
C810 C808 1.395 . S
C810 C813 1.403 . S
C811 C808 1.403 . S
C811 C812 1.524 . S
C811 C815 1.400 . S
C812 H797 0.960 . S
C812 H798 0.960 . S
C812 H799 0.960 . S
C812 C811 1.524 . S
C813 C810 1.403 . S
C813 C814 1.392 . S
C813 C817 1.495 . S
C814 C813 1.392 . S
C814 C815 1.385 . S
C814 C816 1.478 . S
C815 H809 0.930 . S
C815 C811 1.400 . S
C815 C814 1.385 . S
C816 C814 1.478 . S
C816 C818 1.381 . S
C816 C822 1.383 . S
C817 C813 1.495 . S
C817 H823 0.959 . S
C817 H824 0.961 . S
C817 H825 0.960 . S
C818 C816 1.381 . S
C818 C819 1.394 . S
C818 H826 0.930 . S
C819 C818 1.394 . S
C819 C820 1.383 . S
C819 H827 0.929 . S
C820 C819 1.383 . S
C820 C821 1.377 . S
C821 H805 0.930 . S
C821 C820 1.377 . S
C821 C822 1.379 . S
C822 H806 0.931 . S
C822 C816 1.383 . S
C822 C821 1.379 . S
H823 C817 0.959 . S
H824 C817 0.961 . S
H825 C817 0.960 . S
H826 C818 0.930 . S
H827 C819 0.929 . S
H828 C836 0.929 . S
H829 C838 0.930 . S
H830 C840 0.930 . S
H831 C843 0.929 . S
H832 C846 0.930 . S
H833 C848 0.960 . S
H834 C848 0.960 . S
H835 C848 0.960 . S
C836 H828 0.929 . S
C836 C837 1.377 . S
C836 C838 1.384 . S
C837 C836 1.377 . S
C837 C843 1.390 . S
C838 H829 0.930 . S
C838 C836 1.384 . S
C838 C839 1.372 . S
C839 C838 1.372 . S
C839 C840 1.400 . S
C839 C844 1.490 . S
C840 H830 0.930 . S
C840 C839 1.400 . S
C840 C843 1.386 . S
H841 C857 0.930 . S
H842 C858 0.931 . S
C843 H831 0.929 . S
C843 C837 1.390 . S
C843 C840 1.386 . S
C844 C839 1.490 . S
C844 C846 1.395 . S
C844 C847 1.403 . S
H845 C851 0.930 . S
C846 H832 0.930 . S
C846 C844 1.395 . S
C846 C849 1.403 . S
C847 C844 1.403 . S
C847 C848 1.524 . S
C847 C851 1.400 . S
C848 H833 0.960 . S
C848 H834 0.960 . S
C848 H835 0.960 . S
C848 C847 1.524 . S
C849 C846 1.403 . S
C849 C850 1.392 . S
C849 C853 1.495 . S
C850 C849 1.392 . S
C850 C851 1.385 . S
C850 C852 1.478 . S
C851 H845 0.930 . S
C851 C847 1.400 . S
C851 C850 1.385 . S
C852 C850 1.478 . S
C852 C854 1.381 . S
C852 C858 1.383 . S
C853 C849 1.495 . S
C853 H859 0.959 . S
C853 H860 0.961 . S
C853 H861 0.960 . S
C854 C852 1.381 . S
C854 C855 1.394 . S
C854 H862 0.930 . S
C855 C854 1.394 . S
C855 C856 1.383 . S
C855 H863 0.929 . S
C856 C855 1.383 . S
C856 C857 1.377 . S
C857 H841 0.930 . S
C857 C856 1.377 . S
C857 C858 1.379 . S
C858 H842 0.931 . S
C858 C852 1.383 . S
C858 C857 1.379 . S
H859 C853 0.959 . S
H860 C853 0.961 . S
H861 C853 0.960 . S
H862 C854 0.930 . S
H863 C855 0.929 . S
H864 C872 0.929 . S
H865 C874 0.930 . S
H866 C876 0.930 . S
H867 C879 0.929 . S
H868 C882 0.930 . S
H869 C884 0.960 . S
H870 C884 0.960 . S
H871 C884 0.960 . S
C872 H864 0.929 . S
C872 C873 1.377 . S
C872 C874 1.384 . S
C873 C872 1.377 . S
C873 C879 1.390 . S
C874 H865 0.930 . S
C874 C872 1.384 . S
C874 C875 1.372 . S
C875 C874 1.372 . S
C875 C876 1.400 . S
C875 C880 1.490 . S
C876 H866 0.930 . S
C876 C875 1.400 . S
C876 C879 1.386 . S
H877 C893 0.930 . S
H878 C894 0.931 . S
C879 H867 0.929 . S
C879 C873 1.390 . S
C879 C876 1.386 . S
C880 C875 1.490 . S
C880 C882 1.395 . S
C880 C883 1.403 . S
H881 C887 0.930 . S
C882 H868 0.930 . S
C882 C880 1.395 . S
C882 C885 1.403 . S
C883 C880 1.403 . S
C883 C884 1.524 . S
C883 C887 1.400 . S
C884 H869 0.960 . S
C884 H870 0.960 . S
C884 H871 0.960 . S
C884 C883 1.524 . S
C885 C882 1.403 . S
C885 C886 1.392 . S
C885 C889 1.495 . S
C886 C885 1.392 . S
C886 C887 1.385 . S
C886 C888 1.478 . S
C887 H881 0.930 . S
C887 C883 1.400 . S
C887 C886 1.385 . S
C888 C886 1.478 . S
C888 C890 1.381 . S
C888 C894 1.383 . S
C889 C885 1.495 . S
C889 H895 0.959 . S
C889 H896 0.961 . S
C889 H897 0.960 . S
C890 C888 1.381 . S
C890 C891 1.394 . S
C890 H898 0.930 . S
C891 C890 1.394 . S
C891 C892 1.383 . S
C891 H899 0.929 . S
C892 C891 1.383 . S
C892 C893 1.377 . S
C893 H877 0.930 . S
C893 C892 1.377 . S
C893 C894 1.379 . S
C894 H878 0.931 . S
C894 C888 1.383 . S
C894 C893 1.379 . S
H895 C889 0.959 . S
H896 C889 0.961 . S
H897 C889 0.960 . S
H898 C890 0.930 . S
H899 C891 0.929 . S
H900 C908 0.929 . S
H901 C910 0.930 . S
H902 C912 0.930 . S
H903 C915 0.929 . S
H904 C918 0.930 . S
H905 C920 0.960 . S
H906 C920 0.960 . S
H907 C920 0.960 . S
C908 H900 0.929 . S
C908 C909 1.377 . S
C908 C910 1.384 . S
C909 C908 1.377 . S
C909 C915 1.390 . S
C910 H901 0.930 . S
C910 C908 1.384 . S
C910 C911 1.372 . S
C911 C910 1.372 . S
C911 C912 1.400 . S
C911 C916 1.490 . S
C912 H902 0.930 . S
C912 C911 1.400 . S
C912 C915 1.386 . S
H913 C929 0.930 . S
H914 C930 0.931 1_556 S
C915 H903 0.929 . S
C915 C909 1.390 . S
C915 C912 1.386 . S
C916 C911 1.490 . S
C916 C918 1.395 . S
C916 C919 1.403 . S
H917 C923 0.930 . S
C918 H904 0.930 . S
C918 C916 1.395 . S
C918 C921 1.403 . S
C919 C916 1.403 . S
C919 C920 1.524 . S
C919 C923 1.400 . S
C920 H905 0.960 . S
C920 H906 0.960 . S
C920 H907 0.960 . S
C920 C919 1.524 . S
C921 C918 1.403 . S
C921 C922 1.392 . S
C921 C925 1.495 . S
C922 C921 1.392 . S
C922 C923 1.385 . S
C922 C924 1.478 . S
C923 H917 0.930 . S
C923 C919 1.400 . S
C923 C922 1.385 . S
C924 C922 1.478 . S
C924 C926 1.381 1_556 S
C924 C930 1.383 1_556 S
C925 C921 1.495 . S
C925 H931 0.959 . S
C925 H932 0.961 . S
C925 H933 0.960 . S
C926 C924 1.381 1_554 S
C926 C927 1.394 . S
C926 H934 0.930 . S
C927 C926 1.394 . S
C927 C928 1.383 . S
C927 H935 0.929 . S
C928 C927 1.383 . S
C928 C929 1.377 . S
C929 H913 0.930 . S
C929 C928 1.377 . S
C929 C930 1.379 . S
C930 H914 0.931 1_554 S
C930 C924 1.383 1_554 S
C930 C929 1.379 . S
H931 C925 0.959 . S
H932 C925 0.961 . S
H933 C925 0.960 . S
H934 C926 0.930 . S
H935 C927 0.929 . S
H936 C944 0.929 . S
H937 C946 0.930 . S
H938 C948 0.930 . S
H939 C951 0.929 . S
H940 C954 0.930 . S
H941 C956 0.960 . S
H942 C956 0.960 . S
H943 C956 0.960 . S
C944 H936 0.929 . S
C944 C945 1.377 . S
C944 C946 1.384 . S
C945 C944 1.377 . S
C945 C951 1.390 . S
C946 H937 0.930 . S
C946 C944 1.384 . S
C946 C947 1.372 . S
C947 C946 1.372 . S
C947 C948 1.400 . S
C947 C952 1.490 . S
C948 H938 0.930 . S
C948 C947 1.400 . S
C948 C951 1.386 . S
H949 C965 0.930 . S
H950 C966 0.931 . S
C951 H939 0.929 . S
C951 C945 1.390 . S
C951 C948 1.386 . S
C952 C947 1.490 . S
C952 C954 1.395 . S
C952 C955 1.403 . S
H953 C959 0.930 . S
C954 H940 0.930 . S
C954 C952 1.395 . S
C954 C957 1.403 . S
C955 C952 1.403 . S
C955 C956 1.524 . S
C955 C959 1.400 . S
C956 H941 0.960 . S
C956 H942 0.960 . S
C956 H943 0.960 . S
C956 C955 1.524 . S
C957 C954 1.403 . S
C957 C958 1.392 . S
C957 C961 1.495 . S
C958 C957 1.392 . S
C958 C959 1.385 . S
C958 C960 1.478 . S
C959 H953 0.930 . S
C959 C955 1.400 . S
C959 C958 1.385 . S
C960 C958 1.478 . S
C960 C962 1.381 . S
C960 C966 1.383 . S
C961 C957 1.495 . S
C961 H967 0.959 . S
C961 H968 0.961 . S
C961 H969 0.960 . S
C962 C960 1.381 . S
C962 C963 1.394 . S
C962 H970 0.930 . S
C963 C962 1.394 . S
C963 C964 1.383 . S
C963 H971 0.929 . S
C964 C963 1.383 . S
C964 C965 1.377 . S
C965 H949 0.930 . S
C965 C964 1.377 . S
C965 C966 1.379 . S
C966 H950 0.931 . S
C966 C960 1.383 . S
C966 C965 1.379 . S
H967 C961 0.959 . S
H968 C961 0.961 . S
H969 C961 0.960 . S
H970 C962 0.930 . S
H971 C963 0.929 . S
H972 C980 0.929 . S
H973 C982 0.930 . S
H974 C984 0.930 . S
H975 C987 0.929 . S
H976 C990 0.930 . S
H977 C992 0.960 . S
H978 C992 0.960 . S
H979 C992 0.960 . S
C980 H972 0.929 . S
C980 C981 1.377 . S
C980 C982 1.384 . S
C981 C980 1.377 . S
C981 C987 1.390 . S
C982 H973 0.930 . S
C982 C980 1.384 . S
C982 C983 1.372 . S
C983 C982 1.372 . S
C983 C984 1.400 . S
C983 C988 1.490 . S
C984 H974 0.930 . S
C984 C983 1.400 . S
C984 C987 1.386 . S
H985 C1001 0.930 . S
H986 C1002 0.931 . S
C987 H975 0.929 . S
C987 C981 1.390 . S
C987 C984 1.386 . S
C988 C983 1.490 . S
C988 C990 1.395 . S
C988 C991 1.403 . S
H989 C995 0.930 . S
C990 H976 0.930 . S
C990 C988 1.395 . S
C990 C993 1.403 . S
C991 C988 1.403 . S
C991 C992 1.524 . S
C991 C995 1.400 . S
C992 H977 0.960 . S
C992 H978 0.960 . S
C992 H979 0.960 . S
C992 C991 1.524 . S
C993 C990 1.403 . S
C993 C994 1.392 . S
C993 C997 1.495 . S
C994 C993 1.392 . S
C994 C995 1.385 . S
C994 C996 1.478 . S
C995 H989 0.930 . S
C995 C991 1.400 . S
C995 C994 1.385 . S
C996 C994 1.478 . S
C996 C998 1.381 . S
C996 C1002 1.383 . S
C997 C993 1.495 . S
C997 H1003 0.959 . S
C997 H1004 0.961 . S
C997 H1005 0.960 . S
C998 C996 1.381 . S
C998 C999 1.394 . S
C998 H1006 0.930 . S
C999 C998 1.394 . S
C999 C1000 1.383 . S
C999 H1007 0.929 . S
C1000 C999 1.383 . S
C1000 C1001 1.377 . S
C1001 H985 0.930 . S
C1001 C1000 1.377 . S
C1001 C1002 1.379 . S
C1002 H986 0.931 . S
C1002 C996 1.383 . S
C1002 C1001 1.379 . S
H1003 C997 0.959 . S
H1004 C997 0.961 . S
H1005 C997 0.960 . S
H1006 C998 0.930 . S
H1007 C999 0.929 . S
H1008 C1016 0.929 . S
H1009 C1018 0.930 . S
H1010 C1020 0.930 . S
H1011 C1023 0.929 . S
H1012 C1026 0.930 . S
H1013 C1028 0.960 . S
H1014 C1028 0.960 . S
H1015 C1028 0.960 . S
C1016 H1008 0.929 . S
C1016 C1017 1.377 . S
C1016 C1018 1.384 . S
C1017 C1016 1.377 . S
C1017 C1023 1.390 . S
C1018 H1009 0.930 . S
C1018 C1016 1.384 . S
C1018 C1019 1.372 . S
C1019 C1018 1.372 . S
C1019 C1020 1.400 . S
C1019 C1024 1.490 . S
C1020 H1010 0.930 . S
C1020 C1019 1.400 . S
C1020 C1023 1.386 . S
H1021 C1037 0.930 . S
H1022 C1038 0.931 . S
C1023 H1011 0.929 . S
C1023 C1017 1.390 . S
C1023 C1020 1.386 . S
C1024 C1019 1.490 . S
C1024 C1026 1.395 . S
C1024 C1027 1.403 . S
H1025 C1031 0.930 . S
C1026 H1012 0.930 . S
C1026 C1024 1.395 . S
C1026 C1029 1.403 . S
C1027 C1024 1.403 . S
C1027 C1028 1.524 . S
C1027 C1031 1.400 . S
C1028 H1013 0.960 . S
C1028 H1014 0.960 . S
C1028 H1015 0.960 . S
C1028 C1027 1.524 . S
C1029 C1026 1.403 . S
C1029 C1030 1.392 . S
C1029 C1033 1.495 . S
C1030 C1029 1.392 . S
C1030 C1031 1.385 . S
C1030 C1032 1.478 . S
C1031 H1025 0.930 . S
C1031 C1027 1.400 . S
C1031 C1030 1.385 . S
C1032 C1030 1.478 . S
C1032 C1034 1.381 . S
C1032 C1038 1.383 . S
C1033 C1029 1.495 . S
C1033 H1039 0.959 . S
C1033 H1040 0.961 . S
C1033 H1041 0.960 . S
C1034 C1032 1.381 . S
C1034 C1035 1.394 . S
C1034 H1042 0.930 . S
C1035 C1034 1.394 . S
C1035 C1036 1.383 . S
C1035 H1043 0.929 . S
C1036 C1035 1.383 . S
C1036 C1037 1.377 . S
C1037 H1021 0.930 . S
C1037 C1036 1.377 . S
C1037 C1038 1.379 . S
C1038 H1022 0.931 . S
C1038 C1032 1.383 . S
C1038 C1037 1.379 . S
H1039 C1033 0.959 . S
H1040 C1033 0.961 . S
H1041 C1033 0.960 . S
H1042 C1034 0.930 . S
H1043 C1035 0.929 . S
H1044 C1052 0.929 . S
H1045 C1054 0.930 . S
H1046 C1056 0.930 . S
H1047 C1059 0.929 . S
H1048 C1062 0.930 . S
H1049 C1064 0.960 . S
H1050 C1064 0.960 . S
H1051 C1064 0.960 . S
C1052 H1044 0.929 . S
C1052 C1053 1.377 . S
C1052 C1054 1.384 . S
C1053 C1052 1.377 . S
C1053 C1059 1.390 . S
C1054 H1045 0.930 . S
C1054 C1052 1.384 . S
C1054 C1055 1.372 . S
C1055 C1054 1.372 . S
C1055 C1056 1.400 . S
C1055 C1060 1.490 . S
C1056 H1046 0.930 . S
C1056 C1055 1.400 . S
C1056 C1059 1.386 . S
H1057 C1073 0.930 . S
H1058 C1074 0.931 . S
C1059 H1047 0.929 . S
C1059 C1053 1.390 . S
C1059 C1056 1.386 . S
C1060 C1055 1.490 . S
C1060 C1062 1.395 . S
C1060 C1063 1.403 . S
H1061 C1067 0.930 . S
C1062 H1048 0.930 . S
C1062 C1060 1.395 . S
C1062 C1065 1.403 . S
C1063 C1060 1.403 . S
C1063 C1064 1.524 . S
C1063 C1067 1.400 . S
C1064 H1049 0.960 . S
C1064 H1050 0.960 . S
C1064 H1051 0.960 . S
C1064 C1063 1.524 . S
C1065 C1062 1.403 . S
C1065 C1066 1.392 . S
C1065 C1069 1.495 . S
C1066 C1065 1.392 . S
C1066 C1067 1.385 . S
C1066 C1068 1.478 . S
C1067 H1061 0.930 . S
C1067 C1063 1.400 . S
C1067 C1066 1.385 . S
C1068 C1066 1.478 . S
C1068 C1070 1.381 . S
C1068 C1074 1.383 . S
C1069 C1065 1.495 . S
C1069 H1075 0.959 . S
C1069 H1076 0.961 . S
C1069 H1077 0.960 . S
C1070 C1068 1.381 . S
C1070 C1071 1.394 . S
C1070 H1078 0.930 . S
C1071 C1070 1.394 . S
C1071 C1072 1.383 . S
C1071 H1079 0.929 . S
C1072 C1071 1.383 . S
C1072 C1073 1.377 . S
C1073 H1057 0.930 . S
C1073 C1072 1.377 . S
C1073 C1074 1.379 . S
C1074 H1058 0.931 . S
C1074 C1068 1.383 . S
C1074 C1073 1.379 . S
H1075 C1069 0.959 . S
H1076 C1069 0.961 . S
H1077 C1069 0.960 . S
H1078 C1070 0.930 . S
H1079 C1071 0.929 . S
H1080 C1088 0.929 . S
H1081 C1090 0.930 . S
H1082 C1092 0.930 . S
H1083 C1095 0.929 . S
H1084 C1098 0.930 . S
H1085 C1100 0.960 . S
H1086 C1100 0.960 . S
H1087 C1100 0.960 . S
C1088 H1080 0.929 . S
C1088 C1089 1.377 . S
C1088 C1090 1.384 . S
C1089 C1088 1.377 . S
C1089 C1095 1.390 . S
C1090 H1081 0.930 . S
C1090 C1088 1.384 . S
C1090 C1091 1.372 . S
C1091 C1090 1.372 . S
C1091 C1092 1.400 . S
C1091 C1096 1.490 . S
C1092 H1082 0.930 . S
C1092 C1091 1.400 . S
C1092 C1095 1.386 . S
H1093 C1109 0.930 . S
H1094 C1110 0.931 . S
C1095 H1083 0.929 . S
C1095 C1089 1.390 . S
C1095 C1092 1.386 . S
C1096 C1091 1.490 . S
C1096 C1098 1.395 . S
C1096 C1099 1.403 . S
H1097 C1103 0.930 . S
C1098 H1084 0.930 . S
C1098 C1096 1.395 . S
C1098 C1101 1.403 . S
C1099 C1096 1.403 . S
C1099 C1100 1.524 . S
C1099 C1103 1.400 . S
C1100 H1085 0.960 . S
C1100 H1086 0.960 . S
C1100 H1087 0.960 . S
C1100 C1099 1.524 . S
C1101 C1098 1.403 . S
C1101 C1102 1.392 . S
C1101 C1105 1.495 . S
C1102 C1101 1.392 . S
C1102 C1103 1.385 . S
C1102 C1104 1.478 . S
C1103 H1097 0.930 . S
C1103 C1099 1.400 . S
C1103 C1102 1.385 . S
C1104 C1102 1.478 . S
C1104 C1106 1.381 . S
C1104 C1110 1.383 . S
C1105 C1101 1.495 . S
C1105 H1111 0.959 . S
C1105 H1112 0.961 . S
C1105 H1113 0.960 . S
C1106 C1104 1.381 . S
C1106 C1107 1.394 . S
C1106 H1114 0.930 . S
C1107 C1106 1.394 . S
C1107 C1108 1.383 . S
C1107 H1115 0.929 . S
C1108 C1107 1.383 . S
C1108 C1109 1.377 . S
C1109 H1093 0.930 . S
C1109 C1108 1.377 . S
C1109 C1110 1.379 . S
C1110 H1094 0.931 . S
C1110 C1104 1.383 . S
C1110 C1109 1.379 . S
H1111 C1105 0.959 . S
H1112 C1105 0.961 . S
H1113 C1105 0.960 . S
H1114 C1106 0.930 . S
H1115 C1107 0.929 . S
H1116 C1124 0.929 . S
H1117 C1126 0.930 . S
H1118 C1128 0.930 . S
H1119 C1131 0.929 . S
H1120 C1134 0.930 . S
H1121 C1136 0.960 . S
H1122 C1136 0.960 . S
H1123 C1136 0.960 . S
C1124 H1116 0.929 . S
C1124 C1125 1.377 . S
C1124 C1126 1.384 . S
C1125 C1124 1.377 . S
C1125 C1131 1.390 . S
C1126 H1117 0.930 . S
C1126 C1124 1.384 . S
C1126 C1127 1.372 . S
C1127 C1126 1.372 . S
C1127 C1128 1.400 . S
C1127 C1132 1.490 . S
C1128 H1118 0.930 . S
C1128 C1127 1.400 . S
C1128 C1131 1.386 . S
H1129 C1145 0.930 . S
H1130 C1146 0.931 . S
C1131 H1119 0.929 . S
C1131 C1125 1.390 . S
C1131 C1128 1.386 . S
C1132 C1127 1.490 . S
C1132 C1134 1.395 . S
C1132 C1135 1.403 . S
H1133 C1139 0.930 . S
C1134 H1120 0.930 . S
C1134 C1132 1.395 . S
C1134 C1137 1.403 . S
C1135 C1132 1.403 . S
C1135 C1136 1.524 . S
C1135 C1139 1.400 . S
C1136 H1121 0.960 . S
C1136 H1122 0.960 . S
C1136 H1123 0.960 . S
C1136 C1135 1.524 . S
C1137 C1134 1.403 . S
C1137 C1138 1.392 . S
C1137 C1141 1.495 . S
C1138 C1137 1.392 . S
C1138 C1139 1.385 . S
C1138 C1140 1.478 . S
C1139 H1133 0.930 . S
C1139 C1135 1.400 . S
C1139 C1138 1.385 . S
C1140 C1138 1.478 . S
C1140 C1142 1.381 . S
C1140 C1146 1.383 . S
C1141 C1137 1.495 . S
C1141 H1147 0.959 . S
C1141 H1148 0.961 . S
C1141 H1149 0.960 . S
C1142 C1140 1.381 . S
C1142 C1143 1.394 . S
C1142 H1150 0.930 . S
C1143 C1142 1.394 . S
C1143 C1144 1.383 . S
C1143 H1151 0.929 . S
C1144 C1143 1.383 . S
C1144 C1145 1.377 . S
C1145 H1129 0.930 . S
C1145 C1144 1.377 . S
C1145 C1146 1.379 . S
C1146 H1130 0.931 . S
C1146 C1140 1.383 . S
C1146 C1145 1.379 . S
H1147 C1141 0.959 . S
H1148 C1141 0.961 . S
H1149 C1141 0.960 . S
H1150 C1142 0.930 . S
H1151 C1143 0.929 . S
H1152 C1160 0.929 . S
H1153 C1162 0.930 . S
H1154 C1164 0.930 . S
H1155 C1167 0.929 . S
H1156 C1170 0.930 . S
H1157 C1172 0.960 . S
H1158 C1172 0.960 . S
H1159 C1172 0.960 . S
C1160 H1152 0.929 . S
C1160 C1161 1.377 . S
C1160 C1162 1.384 . S
C1161 C1160 1.377 . S
C1161 C1167 1.390 . S
C1162 H1153 0.930 . S
C1162 C1160 1.384 . S
C1162 C1163 1.372 . S
C1163 C1162 1.372 . S
C1163 C1164 1.400 . S
C1163 C1168 1.490 . S
C1164 H1154 0.930 . S
C1164 C1163 1.400 . S
C1164 C1167 1.386 . S
H1165 C1181 0.930 . S
H1166 C1182 0.931 1_554 S
C1167 H1155 0.929 . S
C1167 C1161 1.390 . S
C1167 C1164 1.386 . S
C1168 C1163 1.490 . S
C1168 C1170 1.395 . S
C1168 C1171 1.403 . S
H1169 C1175 0.930 . S
C1170 H1156 0.930 . S
C1170 C1168 1.395 . S
C1170 C1173 1.403 . S
C1171 C1168 1.403 . S
C1171 C1172 1.524 . S
C1171 C1175 1.400 . S
C1172 H1157 0.960 . S
C1172 H1158 0.960 . S
C1172 H1159 0.960 . S
C1172 C1171 1.524 . S
C1173 C1170 1.403 . S
C1173 C1174 1.392 . S
C1173 C1177 1.495 . S
C1174 C1173 1.392 . S
C1174 C1175 1.385 . S
C1174 C1176 1.478 1_554 S
C1175 H1169 0.930 . S
C1175 C1171 1.400 . S
C1175 C1174 1.385 . S
C1176 C1174 1.478 1_556 S
C1176 C1178 1.381 . S
C1176 C1182 1.383 . S
C1177 C1173 1.495 . S
C1177 H1183 0.959 . S
C1177 H1184 0.961 . S
C1177 H1185 0.960 1_554 S
C1178 C1176 1.381 . S
C1178 C1179 1.394 . S
C1178 H1186 0.930 . S
C1179 C1178 1.394 . S
C1179 C1180 1.383 . S
C1179 H1187 0.929 . S
C1180 C1179 1.383 . S
C1180 C1181 1.377 . S
C1181 H1165 0.930 . S
C1181 C1180 1.377 . S
C1181 C1182 1.379 . S
C1182 H1166 0.931 1_556 S
C1182 C1176 1.383 . S
C1182 C1181 1.379 . S
H1183 C1177 0.959 . S
H1184 C1177 0.961 . S
H1185 C1177 0.960 1_556 S
H1186 C1178 0.930 . S
H1187 C1179 0.929 . S
H1188 C1196 0.929 . S
H1189 C1198 0.930 . S
H1190 C1200 0.930 . S
H1191 C1203 0.929 . S
H1192 C1206 0.930 . S
H1193 C1208 0.960 . S
H1194 C1208 0.960 . S
H1195 C1208 0.960 . S
C1196 H1188 0.929 . S
C1196 C1197 1.377 . S
C1196 C1198 1.384 . S
C1197 C1196 1.377 . S
C1197 C1203 1.390 . S
C1198 H1189 0.930 . S
C1198 C1196 1.384 . S
C1198 C1199 1.372 . S
C1199 C1198 1.372 . S
C1199 C1200 1.400 . S
C1199 C1204 1.490 . S
C1200 H1190 0.930 . S
C1200 C1199 1.400 . S
C1200 C1203 1.386 . S
H1201 C1217 0.930 . S
H1202 C1218 0.931 . S
C1203 H1191 0.929 . S
C1203 C1197 1.390 . S
C1203 C1200 1.386 . S
C1204 C1199 1.490 . S
C1204 C1206 1.395 . S
C1204 C1207 1.403 . S
H1205 C1211 0.930 . S
C1206 H1192 0.930 . S
C1206 C1204 1.395 . S
C1206 C1209 1.403 . S
C1207 C1204 1.403 . S
C1207 C1208 1.524 . S
C1207 C1211 1.400 . S
C1208 H1193 0.960 . S
C1208 H1194 0.960 . S
C1208 H1195 0.960 . S
C1208 C1207 1.524 . S
C1209 C1206 1.403 . S
C1209 C1210 1.392 . S
C1209 C1213 1.495 . S
C1210 C1209 1.392 . S
C1210 C1211 1.385 . S
C1210 C1212 1.478 . S
C1211 H1205 0.930 . S
C1211 C1207 1.400 . S
C1211 C1210 1.385 . S
C1212 C1210 1.478 . S
C1212 C1214 1.381 . S
C1212 C1218 1.383 . S
C1213 C1209 1.495 . S
C1213 H1219 0.959 . S
C1213 H1220 0.961 . S
C1213 H1221 0.960 . S
C1214 C1212 1.381 . S
C1214 C1215 1.394 . S
C1214 H1222 0.930 . S
C1215 C1214 1.394 . S
C1215 C1216 1.383 . S
C1215 H1223 0.929 . S
C1216 C1215 1.383 . S
C1216 C1217 1.377 . S
C1217 H1201 0.930 . S
C1217 C1216 1.377 . S
C1217 C1218 1.379 . S
C1218 H1202 0.931 . S
C1218 C1212 1.383 . S
C1218 C1217 1.379 . S
H1219 C1213 0.959 . S
H1220 C1213 0.961 . S
H1221 C1213 0.960 . S
H1222 C1214 0.930 . S
H1223 C1215 0.929 . S
C388 C353 1.536 . S
C369 C15 1.529 . S
C405 C61 1.421 . S
C424 C287 1.424 . S
C441 C114 1.343 . S
C460 C301 1.355 . S
C477 C139 1.437 . S
C496 C315 1.438 . S
C532 C329 1.465 . S
C513 C185 1.483 . S
C549 C245 1.474 . S
C568 C339 1.491 . S
C585 C47 1.541 . S
C604 C297 1.548 . S
C621 C100 1.628 . S
C640 C311 1.641 . S
C657 C153 1.534 . S
C676 C325 1.559 . S
C712 C343 1.433 . S
C693 C199 1.446 . S
C748 C357 1.458 . S
C729 C231 1.487 . S
C784 C283 1.513 . S
C765 C1 1.509 . S
C801 C22 1.468 . S
C820 C298 1.391 . S
C837 C68 1.564 . S
C856 C312 1.533 . S
C892 C326 1.517 . S
C873 C107 1.570 . S
C909 C146 1.449 . S
C928 C345 1.373 . S
C964 C359 1.355 . S
C945 C192 1.422 . S
C1000 C284 1.383 . S
C981 C252 1.440 . S
C1036 C354 1.369 . S
C1017 C54 1.446 . S
C1053 C93 1.324 . S
C1072 C289 1.295 . S
C1108 C303 1.304 . S
C1089 C160 1.324 . S
C1125 C206 1.429 . S
C1144 C317 1.356 . S
C1161 C238 1.453 . S
C1180 C331 1.361 . S
C1197 C8 1.479 . S
C1216 C340 1.409 . S
