# Generated by pormake.
# Topology pyr, (3,6)-cn, num edge types: 1
# Building blocks:
#     Node 0, Type 0, BuildingBlock: MIDCAF_clean_linker_0, # of connection points: 3
#     Node 1, Type 0, BuildingBlock: MIDCAF_clean_linker_0, # of connection points: 3
#     Node 2, Type 0, BuildingBlock: MIDCAF_clean_linker_0, # of connection points: 3
#     Node 3, Type 0, BuildingBlock: MIDCAF_clean_linker_0, # of connection points: 3
#     Node 4, Type 0, BuildingBlock: MIDCAF_clean_linker_0, # of connection points: 3
#     Node 5, Type 0, BuildingBlock: MIDCAF_clean_linker_0, # of connection points: 3
#     Node 6, Type 0, BuildingBlock: MIDCAF_clean_linker_0, # of connection points: 3
#     Node 7, Type 0, BuildingBlock: MIDCAF_clean_linker_0, # of connection points: 3
#     Node 8, Type 1, BuildingBlock: BETDEL_clean_sbu_0, # of connection points: 6
#     Node 9, Type 1, BuildingBlock: BETDEL_clean_sbu_0, # of connection points: 6
#     Node 10, Type 1, BuildingBlock: BETDEL_clean_sbu_0, # of connection points: 6
#     Node 11, Type 1, BuildingBlock: BETDEL_clean_sbu_0, # of connection points: 6
#     Edge 12, Type (0, 1), BuildingBlock: UVAHIK_clean_linker_0, # of connection points: 2
#     Edge 13, Type (0, 1), BuildingBlock: UVAHIK_clean_linker_0, # of connection points: 2
#     Edge 14, Type (0, 1), BuildingBlock: UVAHIK_clean_linker_0, # of connection points: 2
#     Edge 15, Type (0, 1), BuildingBlock: UVAHIK_clean_linker_0, # of connection points: 2
#     Edge 16, Type (0, 1), BuildingBlock: UVAHIK_clean_linker_0, # of connection points: 2
#     Edge 17, Type (0, 1), BuildingBlock: UVAHIK_clean_linker_0, # of connection points: 2
#     Edge 18, Type (0, 1), BuildingBlock: UVAHIK_clean_linker_0, # of connection points: 2
#     Edge 19, Type (0, 1), BuildingBlock: UVAHIK_clean_linker_0, # of connection points: 2
#     Edge 20, Type (0, 1), BuildingBlock: UVAHIK_clean_linker_0, # of connection points: 2
#     Edge 21, Type (0, 1), BuildingBlock: UVAHIK_clean_linker_0, # of connection points: 2
#     Edge 22, Type (0, 1), BuildingBlock: UVAHIK_clean_linker_0, # of connection points: 2
#     Edge 23, Type (0, 1), BuildingBlock: UVAHIK_clean_linker_0, # of connection points: 2
#     Edge 24, Type (0, 1), BuildingBlock: UVAHIK_clean_linker_0, # of connection points: 2
#     Edge 25, Type (0, 1), BuildingBlock: UVAHIK_clean_linker_0, # of connection points: 2
#     Edge 26, Type (0, 1), BuildingBlock: UVAHIK_clean_linker_0, # of connection points: 2
#     Edge 27, Type (0, 1), BuildingBlock: UVAHIK_clean_linker_0, # of connection points: 2
#     Edge 28, Type (0, 1), BuildingBlock: UVAHIK_clean_linker_0, # of connection points: 2
#     Edge 29, Type (0, 1), BuildingBlock: UVAHIK_clean_linker_0, # of connection points: 2
#     Edge 30, Type (0, 1), BuildingBlock: UVAHIK_clean_linker_0, # of connection points: 2
#     Edge 31, Type (0, 1), BuildingBlock: UVAHIK_clean_linker_0, # of connection points: 2
#     Edge 32, Type (0, 1), BuildingBlock: UVAHIK_clean_linker_0, # of connection points: 2
#     Edge 33, Type (0, 1), BuildingBlock: UVAHIK_clean_linker_0, # of connection points: 2
#     Edge 34, Type (0, 1), BuildingBlock: UVAHIK_clean_linker_0, # of connection points: 2
#     Edge 35, Type (0, 1), BuildingBlock: UVAHIK_clean_linker_0, # of connection points: 2
# Relax obj value: 0.025
# Max RMSD: 0.089
# Mean RMSD: 0.038
data_MOF--net-pyr--node1-BETDEL_clean_sbu_0--node2-MIDCAF_clean_linker_0--edge1-UVAHIK_clean_linker_0
_symmetry_space_group_name_H-M    P1
_symmetry_Int_Tables_number       1
_symmetry_cell_setting            triclinic
loop_
_symmetry_equiv_pos_as_xyz
'x, y, z'
_cell_length_a     56.127411
_cell_length_b     58.143192
_cell_length_c     53.519283
_cell_angle_alpha  91.734445
_cell_angle_beta   89.417764
_cell_angle_gamma 94.37895
loop_
_atom_site_label
_atom_site_type_symbol
_atom_site_fract_x
_atom_site_fract_y
_atom_site_fract_z
_atom_type_partial_charge
C0 C 0.15695 0.18478 0.25258 0.0
C1 C 0.15747 0.16085 0.25549 0.0
C2 C 0.1745 0.14899 0.24181 0.0
C3 C 0.19031 0.16065 0.22538 0.0
H4 H 0.26277 0.16463 0.19642 0.0
H5 H 0.29555 0.14448 0.17793 0.0
H6 H 0.29152 0.18345 0.11093 0.0
H7 H 0.25882 0.20376 0.12933 0.0
H8 H 0.22974 0.24962 0.13381 0.0
H9 H 0.2135 0.28145 0.11261 0.0
H10 H 0.1539 0.27932 0.16444 0.0
H11 H 0.17026 0.2481 0.18596 0.0
H12 H 0.17136 0.21472 0.23372 0.0
H13 H 0.14446 0.1946 0.26317 0.0
H14 H 0.17522 0.13052 0.24317 0.0
H15 H 0.2028 0.15085 0.21475 0.0
N16 N 0.22419 0.18679 0.19368 0.0
N17 N 0.22988 0.21619 0.16466 0.0
N18 N 0.19741 0.21571 0.19256 0.0
C19 C 0.23715 0.19676 0.17477 0.0
C20 C 0.21007 0.22583 0.17355 0.0
C21 C 0.20432 0.19621 0.2027 0.0
C22 C 0.25809 0.18572 0.1643 0.0
C23 C 0.26896 0.16904 0.17781 0.0
C24 C 0.28781 0.15759 0.16732 0.0
C25 C 0.29594 0.16237 0.14299 0.0
C26 C 0.28542 0.17934 0.12965 0.0
C27 C 0.2668 0.19103 0.14027 0.0
C28 C 0.20129 0.24619 0.16157 0.0
C29 C 0.2133 0.25609 0.14085 0.0
C30 C 0.20393 0.27425 0.12858 0.0
C31 C 0.18239 0.28289 0.1368 0.0
C32 C 0.17071 0.27332 0.15783 0.0
C33 C 0.18006 0.25525 0.1701 0.0
C34 C 0.1892 0.18438 0.22189 0.0
C35 C 0.17251 0.19637 0.23583 0.0
C36 C 0.2378 0.8756 0.61959 0.0
C37 C 0.23283 0.87408 0.59388 0.0
C38 C 0.24931 0.86435 0.5775 0.0
C39 C 0.27025 0.85628 0.58665 0.0
H40 H 0.3169 0.80324 0.57385 0.0
H41 H 0.3365 0.77152 0.55349 0.0
H42 H 0.39244 0.77929 0.60866 0.0
H43 H 0.37333 0.81107 0.62861 0.0
H44 H 0.36208 0.83236 0.68053 0.0
H45 H 0.37437 0.84227 0.7231 0.0
H46 H 0.31652 0.88689 0.73154 0.0
H47 H 0.30378 0.87665 0.68897 0.0
H48 H 0.26197 0.86915 0.64863 0.0
H49 H 0.2253 0.88259 0.6328 0.0
H50 H 0.24622 0.86324 0.55755 0.0
H51 H 0.28262 0.84895 0.57354 0.0
N52 N 0.31019 0.83489 0.60814 0.0
N53 N 0.33712 0.83305 0.64104 0.0
N54 N 0.30454 0.85562 0.64578 0.0
C55 C 0.33017 0.82665 0.61748 0.0
C56 C 0.32446 0.84752 0.65531 0.0
C57 C 0.29734 0.84946 0.6222 0.0
C58 C 0.34336 0.80951 0.60308 0.0
C59 C 0.3336 0.79845 0.58137 0.0
C60 C 0.34475 0.7802 0.56977 0.0
C61 C 0.36591 0.77281 0.57957 0.0
C62 C 0.37629 0.7847 0.60046 0.0
C63 C 0.36516 0.80283 0.61206 0.0
C64 C 0.33196 0.85376 0.68122 0.0
C65 C 0.35191 0.84429 0.69138 0.0
C66 C 0.35904 0.85002 0.71579 0.0
C67 C 0.34646 0.86542 0.73063 0.0
C68 C 0.3264 0.87478 0.72063 0.0
C69 C 0.31923 0.86902 0.69616 0.0
C70 C 0.27525 0.85798 0.61234 0.0
C71 C 0.25881 0.86778 0.62869 0.0
C72 C 0.63356 0.25916 0.88936 0.0
C73 C 0.61328 0.24725 0.87861 0.0
C74 C 0.60326 0.25628 0.85735 0.0
C75 C 0.6133 0.27672 0.84711 0.0
H76 H 0.60749 0.32194 0.78844 0.0
H77 H 0.58845 0.34028 0.75426 0.0
H78 H 0.63421 0.40245 0.76757 0.0
H79 H 0.65329 0.38425 0.80175 0.0
H80 H 0.70112 0.38005 0.8335 0.0
H81 H 0.7388 0.39685 0.85071 0.0
H82 H 0.73898 0.34131 0.90248 0.0
H83 H 0.70168 0.32426 0.88511 0.0
H84 H 0.65919 0.28817 0.88805 0.0
H85 H 0.64152 0.25295 0.90598 0.0
H86 H 0.58781 0.24741 0.8484 0.0
H87 H 0.60516 0.28312 0.83069 0.0
N88 N 0.63384 0.32041 0.82809 0.0
N89 N 0.66451 0.35025 0.82838 0.0
N90 N 0.66524 0.32032 0.85661 0.0
C91 C 0.64372 0.34046 0.81862 0.0
C92 C 0.67543 0.34024 0.84735 0.0
C93 C 0.64448 0.31028 0.84718 0.0
C94 C 0.63197 0.35158 0.79789 0.0
C95 C 0.61349 0.33953 0.78415 0.0
C96 C 0.60264 0.34999 0.76446 0.0
C97 C 0.60982 0.37281 0.75824 0.0
C98 C 0.62814 0.38492 0.77208 0.0
C99 C 0.63917 0.3744 0.79157 0.0
C100 C 0.69827 0.35075 0.85785 0.0
C101 C 0.70917 0.37138 0.84853 0.0
C102 C 0.73074 0.3811 0.85848 0.0
C103 C 0.74194 0.3704 0.87794 0.0
C104 C 0.73104 0.34981 0.88725 0.0
C105 C 0.7095 0.34012 0.87735 0.0
C106 C 0.63364 0.28857 0.85786 0.0
C107 C 0.64363 0.2795 0.87911 0.0
C108 C 0.77279 0.62828 0.40277 0.0
C109 C 0.76367 0.6064 0.39385 0.0
C110 C 0.7742 0.59659 0.37253 0.0
C111 C 0.79326 0.60848 0.36027 0.0
H112 H 0.82993 0.60954 0.29364 0.0
H113 H 0.84584 0.59253 0.25562 0.0
H114 H 0.90734 0.64197 0.25933 0.0
H115 H 0.891 0.65955 0.29705 0.0
H116 H 0.886 0.70462 0.33336 0.0
H117 H 0.90172 0.74218 0.34995 0.0
H118 H 0.85088 0.73691 0.41102 0.0
H119 H 0.83542 0.69927 0.39482 0.0
H120 H 0.79826 0.65706 0.39784 0.0
H121 H 0.76488 0.63648 0.41893 0.0
H122 H 0.7678 0.57965 0.36537 0.0
H123 H 0.80087 0.60038 0.34387 0.0
N124 N 0.83132 0.63436 0.33429 0.0
N125 N 0.85868 0.66674 0.33126 0.0
N126 N 0.83147 0.66409 0.3648 0.0
C127 C 0.84953 0.64595 0.32192 0.0
C128 C 0.84969 0.67596 0.3527 0.0
C129 C 0.82221 0.64326 0.35576 0.0
C130 C 0.85922 0.63588 0.29851 0.0
C131 C 0.84684 0.61685 0.28639 0.0
C132 C 0.85604 0.60699 0.2646 0.0
C133 C 0.87798 0.61574 0.25446 0.0
C134 C 0.89026 0.63494 0.26643 0.0
C135 C 0.88094 0.64495 0.28816 0.0
C136 C 0.85943 0.69882 0.36272 0.0
C137 C 0.87817 0.71142 0.35035 0.0
C138 C 0.88711 0.73303 0.35977 0.0
C139 C 0.87756 0.74254 0.38181 0.0
C140 C 0.85886 0.72995 0.39419 0.0
C141 C 0.84991 0.70837 0.38478 0.0
C142 C 0.80226 0.63046 0.36905 0.0
C143 C 0.79187 0.64016 0.39054 0.0
C144 C 0.71585 0.83772 0.83344 0.0
C145 C 0.70817 0.83315 0.85796 0.0
C146 C 0.71903 0.81642 0.8713 0.0
C147 C 0.73766 0.80486 0.86057 0.0
H148 H 0.77648 0.74791 0.86834 0.0
H149 H 0.79355 0.71693 0.89023 0.0
H150 H 0.85456 0.72139 0.84025 0.0
H151 H 0.83742 0.75179 0.81806 0.0
H152 H 0.84463 0.79075 0.78142 0.0
H153 H 0.87005 0.81189 0.75171 0.0
H154 H 0.81418 0.85739 0.73946 0.0
H155 H 0.78884 0.83662 0.76984 0.0
H156 H 0.74064 0.83069 0.80407 0.0
H157 H 0.70781 0.85064 0.82282 0.0
H158 H 0.71326 0.81245 0.89017 0.0
H159 H 0.74596 0.79238 0.87158 0.0
N160 N 0.77558 0.78089 0.83705 0.0
N161 N 0.80812 0.78188 0.80929 0.0
N162 N 0.77969 0.80913 0.80657 0.0
C163 C 0.79592 0.77193 0.82868 0.0
C164 C 0.80015 0.80043 0.79809 0.0
C165 C 0.76728 0.79942 0.82602 0.0
C166 C 0.80556 0.75241 0.84142 0.0
C167 C 0.79345 0.74217 0.8619 0.0
C168 C 0.80328 0.7245 0.87455 0.0
C169 C 0.82539 0.7167 0.86698 0.0
C170 C 0.83731 0.72674 0.84633 0.0
C171 C 0.82751 0.74432 0.83368 0.0
C172 C 0.81469 0.81206 0.77823 0.0
C173 C 0.8376 0.80514 0.7723 0.0
C174 C 0.8522 0.8172 0.75511 0.0
C175 C 0.84422 0.83641 0.74328 0.0
C176 C 0.82103 0.84291 0.74858 0.0
C177 C 0.80644 0.8309 0.7659 0.0
C178 C 0.74604 0.81005 0.83638 0.0
C179 C 0.73471 0.82638 0.82279 0.0
C180 C 0.66949 0.11464 0.28839 0.0
C181 C 0.6481 0.11976 0.27709 0.0
C182 C 0.63136 0.13144 0.29136 0.0
C183 C 0.63613 0.13828 0.31615 0.0
H184 H 0.61935 0.18717 0.36834 0.0
H185 H 0.6045 0.22407 0.38029 0.0
H186 H 0.6569 0.23333 0.43895 0.0
H187 H 0.67193 0.19611 0.42711 0.0
H188 H 0.70192 0.14855 0.43753 0.0
H189 H 0.73589 0.13302 0.4577 0.0
H190 H 0.75389 0.09864 0.38806 0.0
H191 H 0.71988 0.11331 0.36833 0.0
H192 H 0.69097 0.11729 0.32121 0.0
H193 H 0.68296 0.10599 0.27789 0.0
H194 H 0.61447 0.13525 0.28343 0.0
H195 H 0.62297 0.14744 0.32655 0.0
N196 N 0.65193 0.15918 0.36368 0.0
N197 N 0.67627 0.15914 0.39907 0.0
N198 N 0.68128 0.13291 0.36561 0.0
C199 C 0.65824 0.16807 0.38663 0.0
C200 C 0.68776 0.1414 0.38865 0.0
C201 C 0.66335 0.14162 0.35306 0.0
C202 C 0.64712 0.18881 0.39649 0.0
C203 C 0.62765 0.19688 0.38395 0.0
C204 C 0.61916 0.21808 0.39071 0.0
C205 C 0.62987 0.23172 0.41021 0.0
C206 C 0.64837 0.22314 0.4238 0.0
C207 C 0.65696 0.20184 0.41698 0.0
C208 C 0.70808 0.13209 0.40135 0.0
C209 C 0.7131 0.13757 0.42662 0.0
C210 C 0.7326 0.12876 0.43814 0.0
C211 C 0.74751 0.11443 0.42455 0.0
C212 C 0.74248 0.10913 0.39929 0.0
C213 C 0.72298 0.11772 0.38789 0.0
C214 C 0.65762 0.13332 0.32731 0.0
C215 C 0.67412 0.1212 0.31325 0.0
C216 C 0.27708 0.62028 0.13943 0.0
C217 C 0.26612 0.63044 0.11946 0.0
C218 C 0.27707 0.65085 0.10976 0.0
C219 C 0.29834 0.66097 0.1199 0.0
H220 H 0.35431 0.7106 0.10701 0.0
H221 H 0.37143 0.74673 0.0905 0.0
H222 H 0.40811 0.76233 0.16035 0.0
H223 H 0.39182 0.72563 0.17639 0.0
H224 H 0.39648 0.68243 0.21325 0.0
H225 H 0.4148 0.66462 0.24825 0.0
H226 H 0.37119 0.60139 0.23328 0.0
H227 H 0.35288 0.61904 0.19827 0.0
H228 H 0.30614 0.62217 0.16513 0.0
H229 H 0.26898 0.60469 0.14754 0.0
H230 H 0.26929 0.65895 0.09415 0.0
H231 H 0.30618 0.67673 0.11194 0.0
N232 N 0.34134 0.68233 0.14241 0.0
N233 N 0.37138 0.68336 0.17266 0.0
N234 N 0.3419 0.6525 0.17082 0.0
C235 C 0.36126 0.69308 0.15296 0.0
C236 C 0.36188 0.66298 0.18161 0.0
C237 C 0.33145 0.6621 0.15127 0.0
C238 C 0.37171 0.71519 0.14303 0.0
C239 C 0.36605 0.72173 0.11885 0.0
C240 C 0.37578 0.74259 0.10942 0.0
C241 C 0.39117 0.75763 0.12404 0.0
C242 C 0.39671 0.75107 0.14831 0.0
C243 C 0.38725 0.73004 0.1576 0.0
C244 C 0.37315 0.65221 0.20289 0.0
C245 C 0.3908 0.66472 0.21735 0.0
C246 C 0.40123 0.65456 0.2375 0.0
C247 C 0.39445 0.6316 0.2435 0.0
C248 C 0.37696 0.61904 0.22896 0.0
C249 C 0.36635 0.62925 0.20898 0.0
C250 C 0.30922 0.65094 0.14005 0.0
C251 C 0.29836 0.63039 0.14961 0.0
C252 C 0.1429 0.27539 0.60659 0.0
C253 C 0.1245 0.26269 0.61932 0.0
C254 C 0.11546 0.27202 0.64169 0.0
C255 C 0.12464 0.29353 0.65115 0.0
H256 H 0.11305 0.34423 0.7055 0.0
H257 H 0.09781 0.36051 0.74441 0.0
H258 H 0.15928 0.40999 0.74801 0.0
H259 H 0.17409 0.39428 0.70878 0.0
H260 H 0.20198 0.40441 0.6578 0.0
H261 H 0.23509 0.42522 0.63646 0.0
H262 H 0.23799 0.36867 0.58253 0.0
H263 H 0.20454 0.34802 0.60346 0.0
H264 H 0.16636 0.30607 0.60575 0.0
H265 H 0.15046 0.26856 0.58947 0.0
H266 H 0.10108 0.26281 0.65179 0.0
H267 H 0.1172 0.30016 0.66842 0.0
N268 N 0.14456 0.33783 0.67042 0.0
N269 N 0.17199 0.37015 0.66756 0.0
N270 N 0.1712 0.34091 0.63643 0.0
C271 C 0.15393 0.35843 0.68002 0.0
C272 C 0.1807 0.36156 0.64573 0.0
C273 C 0.15312 0.32892 0.64864 0.0
C274 C 0.14476 0.36799 0.70392 0.0
C275 C 0.12333 0.35858 0.71459 0.0
C276 C 0.11464 0.36784 0.73701 0.0
C277 C 0.12728 0.38661 0.74938 0.0
C278 C 0.14884 0.39582 0.7388 0.0
C279 C 0.15741 0.38671 0.71631 0.0
C280 C 0.20057 0.37446 0.63243 0.0
C281 C 0.20959 0.39639 0.64135 0.0
C282 C 0.22867 0.40832 0.62917 0.0
C283 C 0.23924 0.3986 0.60782 0.0
C284 C 0.23006 0.3768 0.59874 0.0
C285 C 0.21095 0.36488 0.61087 0.0
C286 C 0.14312 0.30622 0.63846 0.0
C287 C 0.1521 0.29688 0.61604 0.0
Dy288 Dy 0.00581 0.00936 0.47507 0.0
C289 C 0.98325 0.97476 0.57146 0.0
C290 C 0.0171 0.02928 0.43055 0.0
Dy291 Dy 0.99198 0.99693 0.52774 0.0
O292 O 0.02776 0.01265 0.44006 0.0
O293 O -0.00018 0.03502 0.44526 0.0
O294 O 0.02818 0.97908 0.47293 0.0
O295 O 0.02526 0.99772 0.50695 0.0
C296 C 0.0336 0.98039 0.49643 0.0
C297 C 0.9634 0.02546 0.50662 0.0
O298 O 0.01936 0.02569 0.5368 0.0
O299 O 0.01889 0.04121 0.49749 0.0
O300 O 0.97511 0.99423 0.56589 0.0
O301 O 0.99653 0.96756 0.5533 0.0
O302 O 0.96845 0.02626 0.53024 0.0
O303 O 0.97227 0.00846 0.49595 0.0
O304 O 0.97896 0.98038 0.46535 0.0
O305 O 0.9776 0.96556 0.50511 0.0
C306 C 0.02463 0.04286 0.52151 0.0
C307 C 0.97275 0.9636 0.48086 0.0
Dy308 Dy 0.52474 0.01125 0.01865 0.0
C309 C 0.45606 0.96678 0.94723 0.0
C310 C 0.55982 0.03768 0.04276 0.0
Dy311 Dy 0.48464 0.99196 0.98014 0.0
O312 O 0.56033 0.0158 0.03729 0.0
O313 O 0.54014 0.04528 0.03476 0.0
O314 O 0.51835 0.98355 0.04753 0.0
O315 O 0.49805 0.98297 0.0156 0.0
C316 C 0.5011 0.97234 0.03519 0.0
C317 C 0.50469 0.03458 0.97261 0.0
O318 O 0.46217 0.0074 0.00975 0.0
O319 O 0.49274 0.03016 0.03005 0.0
O320 O 0.47597 0.97838 0.94162 0.0
O321 O 0.45142 0.96906 0.97102 0.0
O322 O 0.48288 0.02789 0.96638 0.0
O323 O 0.51513 0.01774 0.98026 0.0
O324 O 0.54627 0.99253 0.99053 0.0
O325 O 0.51487 0.96972 0.97215 0.0
C326 C 0.46975 0.02407 0.02593 0.0
C327 C 0.53799 0.9749 0.97599 0.0
Dy328 Dy 0.50804 0.48262 0.48582 0.0
C329 C 0.47289 0.5594 0.53896 0.0
C330 C 0.53102 0.44767 0.46375 0.0
Dy331 Dy 0.49546 0.52373 0.5178 0.0
O332 O 0.508 0.44838 0.46532 0.0
O333 O 0.54154 0.46623 0.47393 0.0
O334 O 0.46927 0.47334 0.4785 0.0
O335 O 0.47985 0.48855 0.51317 0.0
C336 C 0.46217 0.48182 0.49978 0.0
C337 C 0.5413 0.5243 0.50367 0.0
O338 O 0.50237 0.50065 0.54903 0.0
O339 O 0.52081 0.47381 0.52402 0.0
O340 O 0.49586 0.55879 0.53656 0.0
O341 O 0.46223 0.54025 0.53033 0.0
O342 O 0.53435 0.53262 0.52509 0.0
O343 O 0.52351 0.5178 0.49037 0.0
O344 O 0.50112 0.50585 0.45469 0.0
O345 O 0.48212 0.53218 0.47976 0.0
C346 C 0.51509 0.48243 0.54638 0.0
C347 C 0.48803 0.5238 0.45738 0.0
Dy348 Dy 0.00995 0.47683 0.01306 0.0
C349 C 0.97198 0.55868 0.97886 0.0
C350 C 0.03376 0.44002 0.02651 0.0
Dy351 Dy 0.99559 0.52176 0.99231 0.0
O352 O 0.02058 0.45188 0.04127 0.0
O353 O 0.03362 0.44797 0.00411 0.0
O354 O 0.98029 0.47765 0.04122 0.0
O355 O 0.99805 0.50878 0.02973 0.0
C356 C 0.98102 0.50004 0.04275 0.0
C357 C 0.02455 0.49842 0.96275 0.0
O358 O 0.02748 0.53642 0.0135 0.0
O359 O 0.04302 0.50098 0.01836 0.0
O360 O 0.98541 0.54699 0.9642 0.0
O361 O 0.97173 0.55049 0.00118 0.0
O362 O 0.02533 0.52082 0.96414 0.0
O363 O 0.00743 0.48985 0.97572 0.0
O364 O 0.97804 0.46217 0.99184 0.0
O365 O 0.96255 0.49762 0.98682 0.0
C366 C 0.04511 0.52389 0.01981 0.0
C367 C 0.96046 0.47472 0.9854 0.0
C368 C 0.14658 0.12917 0.28543 0.0
C369 C 0.13994 0.14814 0.27212 0.0
C370 C 0.12984 0.11645 0.29993 0.0
C371 C 0.07554 0.11937 0.33606 0.0
H372 H 0.06944 0.05285 0.32605 0.0
C373 C 0.01521 0.06109 0.4002 0.0
C374 C 0.02573 0.04145 0.40811 0.0
C375 C 0.02544 0.07385 0.38048 0.0
C376 C 0.071 0.07138 0.32922 0.0
H377 H 0.1103 0.16866 0.26401 0.0
H378 H 0.08139 0.14689 0.29031 0.0
H379 H 0.0955 0.07634 0.29857 0.0
H380 H 0.05456 0.01924 0.40129 0.0
H381 H 0.07261 0.04153 0.36761 0.0
H382 H 0.05214 0.11445 0.36756 0.0
C383 C 0.09958 0.14188 0.28916 0.0
C384 C 0.08586 0.08479 0.31341 0.0
C385 C 0.11622 0.15441 0.27427 0.0
C386 C 0.04603 0.03429 0.39552 0.0
C387 C 0.05628 0.04702 0.37602 0.0
C388 C 0.06093 0.10592 0.35217 0.0
C389 C 0.1062 0.12262 0.30182 0.0
C390 C 0.08863 0.10883 0.31703 0.0
C391 C 0.04636 0.06715 0.36845 0.0
C392 C 0.05896 0.0817 0.3493 0.0
H393 H 0.16475 0.12413 0.28476 0.0
H394 H 0.13544 0.10185 0.30989 0.0
H395 H 0.07748 0.13791 0.33919 0.0
H396 H -0.00049 0.06693 0.40964 0.0
H397 H 0.01717 0.08911 0.37492 0.0
C398 C 0.37924 0.87677 0.76079 0.0
C399 C 0.35474 0.87209 0.75621 0.0
C400 C 0.38728 0.88308 0.78473 0.0
C401 C 0.3687 0.90931 0.84401 0.0
H402 H 0.42864 0.88814 0.86623 0.0
C403 C 0.41829 0.94379 0.93453 0.0
C404 C 0.44176 0.9524 0.92904 0.0
C405 C 0.40496 0.9305 0.91656 0.0
C406 C 0.41176 0.89402 0.86036 0.0
H407 H 0.31941 0.87025 0.77319 0.0
H408 H 0.33356 0.88148 0.81526 0.0
H409 H 0.40983 0.87085 0.82857 0.0
H410 H 0.46993 0.95367 0.90098 0.0
H411 H 0.44692 0.9303 0.86994 0.0
H412 H 0.37116 0.93299 0.87557 0.0
C413 C 0.34647 0.88031 0.80019 0.0
C414 C 0.40107 0.88424 0.83878 0.0
C415 C 0.3384 0.87396 0.77614 0.0
C416 C 0.45184 0.94727 0.90565 0.0
C417 C 0.43876 0.93376 0.88797 0.0
C418 C 0.37937 0.91902 0.86576 0.0
C419 C 0.37102 0.88487 0.80471 0.0
C420 C 0.37993 0.89241 0.82983 0.0
C421 C 0.4152 0.92532 0.89319 0.0
C422 C 0.40144 0.91203 0.87353 0.0
H423 H 0.39223 0.87596 0.74574 0.0
H424 H 0.40626 0.88706 0.78746 0.0
H425 H 0.35245 0.91601 0.83752 0.0
H426 H 0.41019 0.94758 0.9525 0.0
H427 H 0.38678 0.92419 0.92092 0.0
C428 C 0.59458 0.372 0.71425 0.0
C429 C 0.59842 0.38391 0.73725 0.0
C430 C 0.58443 0.38265 0.69428 0.0
C431 C 0.57278 0.44053 0.67142 0.0
H432 H 0.53077 0.4047 0.62534 0.0
C433 C 0.52175 0.48186 0.59272 0.0
C434 C 0.52297 0.471 0.56894 0.0
C435 C 0.52993 0.4713 0.61383 0.0
C436 C 0.54258 0.4149 0.63799 0.0
H437 H 0.59404 0.41612 0.75758 0.0
H438 H 0.57582 0.43456 0.723 0.0
H439 H 0.54662 0.3862 0.66124 0.0
H440 H 0.5334 0.44032 0.54884 0.0
H441 H 0.5474 0.42189 0.58568 0.0
H442 H 0.56841 0.46929 0.6482 0.0
C443 C 0.58122 0.4172 0.72008 0.0
C444 C 0.55176 0.40429 0.65854 0.0
C445 C 0.59159 0.40661 0.73996 0.0
C446 C 0.53222 0.44921 0.56684 0.0
C447 C 0.54013 0.43856 0.58797 0.0
C448 C 0.5634 0.45119 0.651 0.0
C449 C 0.57762 0.40542 0.69689 0.0
C450 C 0.56716 0.41691 0.67544 0.0
C451 C 0.53922 0.44954 0.61168 0.0
C452 C 0.54836 0.43844 0.63395 0.0
H453 H 0.59994 0.35459 0.71149 0.0
H454 H 0.58238 0.37314 0.67663 0.0
H455 H 0.58488 0.45076 0.68372 0.0
H456 H 0.51477 0.49866 0.595 0.0
H457 H 0.52884 0.4801 0.63189 0.0
C458 C 0.88588 0.58041 0.22846 0.0
C459 C 0.88812 0.60456 0.23177 0.0
C460 C 0.89532 0.56979 0.20724 0.0
C461 C 0.91698 0.58109 0.14271 0.0
H462 H 0.94613 0.52337 0.15027 0.0
C463 C 0.97234 0.53698 0.06503 0.0
C464 C 0.96819 0.51292 0.06211 0.0
C465 C 0.9616 0.54882 0.08474 0.0
C466 C 0.93784 0.53936 0.14782 0.0
H467 H 0.90197 0.63646 0.21509 0.0
H468 H 0.91918 0.61785 0.17843 0.0
H469 H 0.93006 0.5429 0.18683 0.0
H470 H 0.94897 0.48246 0.07686 0.0
H471 H 0.93032 0.5031 0.11132 0.0
H472 H 0.92529 0.57759 0.10363 0.0
C473 C 0.90973 0.60715 0.1921 0.0
C474 C 0.92857 0.55056 0.16877 0.0
C475 C 0.90014 0.61781 0.2133 0.0
C476 C 0.95259 0.501 0.07876 0.0
C477 C 0.94202 0.51279 0.09855 0.0
C478 C 0.92646 0.56994 0.12174 0.0
C479 C 0.90747 0.58299 0.18883 0.0
C480 C 0.91785 0.57147 0.16648 0.0
C481 C 0.94669 0.53676 0.10198 0.0
C482 C 0.93681 0.54887 0.12408 0.0
H483 H 0.87705 0.56961 0.24243 0.0
H484 H 0.89292 0.55117 0.20522 0.0
H485 H 0.9086 0.59702 0.14021 0.0
H486 H 0.98434 0.54657 0.05246 0.0
H487 H 0.96561 0.56728 0.08701 0.0
C488 C 0.31106 0.13895 0.10718 0.0
C489 C 0.3146 0.14897 0.13117 0.0
C490 C 0.32815 0.12552 0.09627 0.0
C491 C 0.3802 0.09303 0.11198 0.0
H492 H 0.39119 0.09424 0.04035 0.0
C493 C 0.45809 0.05079 0.06073 0.0
C494 C 0.45178 0.03721 0.03929 0.0
C495 C 0.44137 0.06406 0.07266 0.0
C496 C 0.38817 0.09364 0.06035 0.0
H497 H 0.33891 0.15327 0.16241 0.0
H498 H 0.36925 0.13042 0.14307 0.0
H499 H 0.36268 0.11906 0.05961 0.0
H500 H 0.42297 0.02676 0.01365 0.0
H501 H 0.39392 0.05025 0.03433 0.0
H502 H 0.40629 0.06797 0.11258 0.0
C503 C 0.35298 0.13236 0.13291 0.0
C504 C 0.37178 0.10778 0.07141 0.0
C505 C 0.3357 0.14555 0.14395 0.0
C506 C 0.42837 0.03698 0.03018 0.0
C507 C 0.41178 0.05051 0.04189 0.0
C508 C 0.39685 0.07912 0.10092 0.0
C509 C 0.34936 0.12205 0.10897 0.0
C510 C 0.36742 0.10753 0.09735 0.0
C511 C 0.41818 0.06426 0.06315 0.0
C512 C 0.40082 0.07918 0.07499 0.0
H513 H 0.29476 0.14104 0.09709 0.0
H514 H 0.32448 0.11749 0.07806 0.0
H515 H 0.37706 0.09207 0.13192 0.0
H516 H 0.47597 0.05127 0.06825 0.0
H517 H 0.44675 0.07461 0.08897 0.0
C518 C 0.19787 0.87088 0.56468 0.0
C519 C 0.21056 0.88273 0.58428 0.0
C520 C 0.17695 0.87912 0.55569 0.0
C521 C 0.12855 0.91542 0.57298 0.0
H522 H 0.12291 0.92336 0.50168 0.0
C523 C 0.06025 0.97233 0.53154 0.0
C524 C 0.05063 0.96607 0.50801 0.0
C525 C 0.0779 0.95977 0.54157 0.0
C526 C 0.12391 0.92084 0.52159 0.0
H527 H 0.21134 0.91274 0.60951 0.0
H528 H 0.17457 0.92675 0.59415 0.0
H529 H 0.15737 0.90566 0.51771 0.0
H530 H 0.05075 0.94121 0.47704 0.0
H531 H 0.08109 0.91882 0.49484 0.0
H532 H 0.0951 0.9305 0.57696 0.0
C533 C 0.18075 0.911 0.58594 0.0
C534 C 0.14372 0.91078 0.53075 0.0
C535 C 0.20178 0.90293 0.59474 0.0
C536 C 0.05814 0.94652 0.49512 0.0
C537 C 0.0756 0.9338 0.50525 0.0
C538 C 0.10859 0.92526 0.56382 0.0
C539 C 0.1682 0.89921 0.56631 0.0
C540 C 0.14638 0.90831 0.55654 0.0
C541 C 0.08605 0.94056 0.52836 0.0
C542 C 0.10622 0.92841 0.53804 0.0
H543 H 0.20391 0.85508 0.55646 0.0
H544 H 0.16747 0.86966 0.54062 0.0
H545 H 0.13008 0.91342 0.59295 0.0
H546 H 0.05469 0.98736 0.54185 0.0
H547 H 0.08574 0.96565 0.55926 0.0
C548 C 0.76842 0.40466 0.89326 0.0
C549 C 0.7648 0.38072 0.8887 0.0
C550 C 0.78963 0.41426 0.90403 0.0
C551 C 0.85246 0.4026 0.91529 0.0
H552 H 0.84912 0.45127 0.96607 0.0
C553 C 0.93517 0.43898 0.97193 0.0
C554 C 0.93789 0.46309 0.97556 0.0
C555 C 0.91401 0.42828 0.96196 0.0
C556 C 0.85039 0.43784 0.95176 0.0
H557 H 0.78093 0.34816 0.8914 0.0
H558 H 0.81777 0.36486 0.91055 0.0
H559 H 0.81247 0.43407 0.94703 0.0
H560 H 0.92036 0.49481 0.97166 0.0
H561 H 0.88377 0.47622 0.95421 0.0
H562 H 0.89042 0.40646 0.92 0.0
C563 C 0.80426 0.37624 0.90565 0.0
C564 C 0.82938 0.428 0.94081 0.0
C565 C 0.78303 0.36664 0.89492 0.0
C566 C 0.91892 0.4762 0.9692 0.0
C567 C 0.89782 0.46552 0.95931 0.0
C568 C 0.87349 0.41245 0.92625 0.0
C569 C 0.80777 0.40016 0.91047 0.0
C570 C 0.83015 0.41036 0.92234 0.0
C571 C 0.89511 0.44145 0.95549 0.0
C572 C 0.87272 0.43029 0.94451 0.0
H573 H 0.75467 0.41598 0.8889 0.0
H574 H 0.79188 0.43278 0.90719 0.0
H575 H 0.85372 0.38923 0.9009 0.0
H576 H 0.9494 0.42834 0.97664 0.0
H577 H 0.9124 0.40967 0.95949 0.0
C578 C 0.74084 0.59463 0.43263 0.0
C579 C 0.74285 0.59417 0.40641 0.0
C580 C 0.72064 0.58418 0.44437 0.0
C581 C 0.66849 0.54206 0.43442 0.0
H582 H 0.63959 0.57821 0.48697 0.0
C583 C 0.5711 0.52336 0.46871 0.0
C584 C 0.56597 0.52772 0.49406 0.0
C585 C 0.59406 0.52879 0.45918 0.0
C586 C 0.64761 0.56766 0.47266 0.0
H587 H 0.72529 0.58209 0.37201 0.0
H588 H 0.69011 0.56381 0.39251 0.0
H589 H 0.67727 0.59259 0.46829 0.0
H590 H 0.58093 0.53991 0.52963 0.0
H591 H 0.62111 0.54901 0.51316 0.0
H592 H 0.63861 0.51725 0.43863 0.0
C593 C 0.70429 0.57202 0.40399 0.0
C594 C 0.66923 0.57594 0.46191 0.0
C595 C 0.72446 0.58251 0.39224 0.0
C596 C 0.58438 0.53662 0.50995 0.0
C597 C 0.60734 0.54194 0.50047 0.0
C598 C 0.64687 0.53372 0.44524 0.0
C599 C 0.70202 0.57299 0.43017 0.0
C600 C 0.6798 0.56336 0.44251 0.0
C601 C 0.61234 0.53858 0.47487 0.0
C602 C 0.63606 0.54654 0.46434 0.0
H603 H 0.75488 0.60309 0.4441 0.0
H604 H 0.71958 0.58491 0.46459 0.0
H605 H 0.67636 0.53184 0.41971 0.0
H606 H 0.5572 0.51645 0.45607 0.0
H607 H 0.59722 0.52615 0.43934 0.0
C608 C 0.16009 0.31859 0.13619 0.0
C609 C 0.17149 0.30119 0.12306 0.0
C610 C 0.14781 0.3345 0.12342 0.0
C611 C 0.11779 0.34135 0.06346 0.0
H612 H 0.11434 0.40405 0.08928 0.0
C613 C 0.0636 0.41083 0.01804 0.0
C614 C 0.04919 0.42252 0.035 0.0
C615 C 0.0799 0.39591 0.02673 0.0
C616 C 0.11514 0.38657 0.0819 0.0
H617 H 0.17956 0.28732 0.08611 0.0
H618 H 0.15869 0.31561 0.06373 0.0
H619 H 0.14204 0.3793 0.10784 0.0
H620 H 0.03995 0.42747 0.07413 0.0
H621 H 0.06846 0.40163 0.08926 0.0
H622 H 0.09079 0.34886 0.03747 0.0
C623 C 0.15889 0.31664 0.08396 0.0
C624 C 0.13094 0.37237 0.09255 0.0
C625 C 0.17111 0.30062 0.09678 0.0
C626 C 0.05087 0.41868 0.06065 0.0
C627 C 0.06729 0.40404 0.06933 0.0
C628 C 0.10214 0.35569 0.05262 0.0
C629 C 0.14676 0.33353 0.09716 0.0
C630 C 0.13204 0.3494 0.08388 0.0
C631 C 0.08218 0.39279 0.05251 0.0
C632 C 0.10029 0.37823 0.06216 0.0
H633 H 0.16033 0.31971 0.15643 0.0
H634 H 0.13846 0.34708 0.13424 0.0
H635 H 0.11799 0.32369 0.05649 0.0
H636 H 0.06263 0.41358 0.99816 0.0
H637 H 0.09121 0.38739 0.01342 0.0
C638 C 0.61741 0.20934 0.89901 0.0
C639 C 0.60266 0.22555 0.88965 0.0
C640 C 0.60749 0.18918 0.90982 0.0
C641 C 0.55137 0.16341 0.93803 0.0
H642 H 0.57986 0.10561 0.92428 0.0
C643 C 0.50303 0.07462 0.9578 0.0
C644 C 0.5165 0.0574 0.96701 0.0
C645 C 0.5142 0.09573 0.95071 0.0
C646 C 0.57189 0.12166 0.92861 0.0
H647 H 0.56584 0.23318 0.88447 0.0
H648 H 0.54855 0.19772 0.90265 0.0
H649 H 0.5979 0.14104 0.90664 0.0
H650 H 0.55208 0.04891 0.97682 0.0
H651 H 0.57172 0.08593 0.96435 0.0
H652 H 0.52508 0.14387 0.9596 0.0
C653 C 0.56782 0.20079 0.902 0.0
C654 C 0.58223 0.142 0.91848 0.0
C655 C 0.57774 0.22099 0.89124 0.0
C656 C 0.5413 0.06188 0.96966 0.0
C657 C 0.55253 0.08299 0.9624 0.0
C658 C 0.54098 0.14306 0.94807 0.0
C659 C 0.58257 0.18464 0.91149 0.0
C660 C 0.57198 0.1631 0.9229 0.0
C661 C 0.53911 0.10006 0.95258 0.0
C662 C 0.55101 0.12192 0.9433 0.0
H663 H 0.63668 0.21214 0.89784 0.0
H664 H 0.6194 0.17726 0.91713 0.0
H665 H 0.54326 0.17941 0.94224 0.0
H666 H 0.48387 0.07162 0.95562 0.0
H667 H 0.50338 0.1084 0.94299 0.0
C668 C 0.89254 0.78389 0.37582 0.0
C669 C 0.88699 0.76552 0.39189 0.0
C670 C 0.90113 0.80556 0.38539 0.0
C671 C 0.93057 0.83408 0.44075 0.0
H672 H 0.90736 0.8896 0.41451 0.0
C673 C 0.95417 0.92356 0.48687 0.0
C674 C 0.96062 0.94177 0.47086 0.0
C675 C 0.94423 0.90239 0.47728 0.0
C676 C 0.91418 0.87427 0.42188 0.0
H677 H 0.88647 0.75545 0.4306 0.0
H678 H 0.90107 0.79331 0.44732 0.0
H679 H 0.89227 0.8519 0.39753 0.0
H680 H 0.96114 0.95213 0.43222 0.0
H681 H 0.94395 0.91514 0.41552 0.0
H682 H 0.95252 0.85638 0.46502 0.0
C683 C 0.89895 0.79093 0.42729 0.0
C684 C 0.90556 0.85267 0.41213 0.0
C685 C 0.89033 0.76929 0.41773 0.0
C686 C 0.95635 0.9385 0.4451 0.0
C687 C 0.9464 0.91731 0.43552 0.0
C688 C 0.93918 0.85565 0.45048 0.0
C689 C 0.90444 0.80933 0.41124 0.0
C690 C 0.91364 0.83232 0.42148 0.0
C691 C 0.94049 0.89892 0.45147 0.0
C692 C 0.93108 0.87601 0.44119 0.0
H693 H 0.88995 0.78161 0.35585 0.0
H694 H 0.90542 0.8193 0.3725 0.0
H695 H 0.93747 0.81877 0.44808 0.0
H696 H 0.9571 0.92548 0.50682 0.0
H697 H 0.93951 0.88871 0.49013 0.0
C698 C 0.40098 0.75031 0.56808 0.0
C699 C 0.37611 0.75154 0.56971 0.0
C700 C 0.41063 0.7293 0.56259 0.0
C701 C 0.39533 0.66711 0.56802 0.0
H702 H 0.45351 0.66178 0.5293 0.0
C703 C 0.43589 0.58021 0.54454 0.0
C704 C 0.46085 0.58027 0.54589 0.0
C705 C 0.42477 0.60083 0.54759 0.0
C706 C 0.43736 0.66307 0.54036 0.0
H707 H 0.34184 0.73192 0.56566 0.0
H708 H 0.35869 0.69538 0.55537 0.0
H709 H 0.43522 0.69851 0.53161 0.0
H710 H 0.49374 0.6015 0.55254 0.0
H711 H 0.47432 0.63747 0.55811 0.0
H712 H 0.39755 0.63164 0.57677 0.0
C713 C 0.37073 0.71058 0.55883 0.0
C714 C 0.42687 0.68408 0.54163 0.0
C715 C 0.36108 0.73159 0.56437 0.0
C716 C 0.47445 0.60103 0.55137 0.0
C717 C 0.46337 0.62162 0.55432 0.0
C718 C 0.40578 0.64607 0.56666 0.0
C719 C 0.3956 0.7091 0.55855 0.0
C720 C 0.40586 0.68639 0.55567 0.0
C721 C 0.43848 0.6218 0.55192 0.0
C722 C 0.42704 0.64392 0.55304 0.0
H723 H 0.41302 0.76546 0.5718 0.0
H724 H 0.42987 0.72875 0.56264 0.0
H725 H 0.37937 0.66843 0.57935 0.0
H726 H 0.42503 0.5644 0.54024 0.0
H727 H 0.40556 0.60047 0.54557 0.0
C728 C 0.87587 0.83913 0.70971 0.0
C729 C 0.86041 0.8501 0.72625 0.0
C730 C 0.8918 0.85209 0.69449 0.0
C731 C 0.92104 0.91103 0.68813 0.0
H732 H 0.93058 0.89083 0.61929 0.0
C733 C 0.96007 0.97041 0.61114 0.0
C734 C 0.97511 0.96108 0.59303 0.0
C735 C 0.94936 0.9565 0.62955 0.0
C736 C 0.92842 0.8965 0.63859 0.0
H737 H 0.84967 0.88335 0.73974 0.0
H738 H 0.8768 0.9059 0.71258 0.0
H739 H 0.90457 0.86716 0.64658 0.0
H740 H 0.99177 0.9303 0.58053 0.0
H741 H 0.97299 0.90588 0.61277 0.0
H742 H 0.94438 0.94075 0.67979 0.0
C743 C 0.87694 0.88728 0.71171 0.0
C744 C 0.9135 0.88295 0.65424 0.0
C745 C 0.8611 0.87433 0.727 0.0
C746 C 0.98021 0.93789 0.5943 0.0
C747 C 0.96936 0.9239 0.61261 0.0
C748 C 0.93586 0.92465 0.67242 0.0
C749 C 0.89258 0.87633 0.69537 0.0
C750 C 0.9094 0.89018 0.67911 0.0
C751 C 0.95339 0.93295 0.63005 0.0
C752 C 0.9395 0.91763 0.64742 0.0
H753 H 0.87564 0.82049 0.70847 0.0
H754 H 0.90372 0.84311 0.68226 0.0
H755 H 0.91865 0.91688 0.70733 0.0
H756 H 0.95584 0.98826 0.61052 0.0
H757 H 0.937 0.96391 0.64261 0.0
C758 C 0.65052 0.09202 0.24045 0.0
C759 C 0.64335 0.11304 0.25051 0.0
C760 C 0.64592 0.08561 0.21555 0.0
C761 C 0.62751 0.10809 0.15482 0.0
H762 H 0.60645 0.04385 0.14162 0.0
C763 C 0.57177 0.07228 0.06976 0.0
C764 C 0.57657 0.0504 0.06007 0.0
C765 C 0.58468 0.08205 0.09015 0.0
C766 C 0.61271 0.06177 0.14489 0.0
H767 H 0.62621 0.14406 0.24194 0.0
H768 H 0.61708 0.13232 0.1989 0.0
H769 H 0.61899 0.05636 0.1834 0.0
H770 H 0.5999 0.0225 0.06232 0.0
H771 H 0.62247 0.03959 0.09785 0.0
H772 H 0.61999 0.11346 0.11627 0.0
C773 C 0.62676 0.12102 0.21011 0.0
C774 C 0.61994 0.06897 0.16887 0.0
C775 C 0.63163 0.12757 0.23496 0.0
C776 C 0.59571 0.03932 0.06963 0.0
C777 C 0.60855 0.04903 0.08999 0.0
C778 C 0.61999 0.10089 0.1308 0.0
C779 C 0.63371 0.09988 0.20015 0.0
C780 C 0.62728 0.09223 0.1742 0.0
C781 C 0.60249 0.07001 0.10108 0.0
C782 C 0.61242 0.07768 0.12569 0.0
H783 H 0.65937 0.08028 0.25192 0.0
H784 H 0.65184 0.06936 0.20842 0.0
H785 H 0.63338 0.12607 0.1582 0.0
H786 H 0.5571 0.08117 0.06264 0.0
H787 H 0.5796 0.09823 0.09839 0.0
C788 C 0.40805 0.63287 0.28812 0.0
C789 C 0.40535 0.62083 0.26502 0.0
C790 C 0.41765 0.62249 0.30859 0.0
C791 C 0.45523 0.5764 0.32593 0.0
H792 H 0.42288 0.58087 0.39004 0.0
C793 C 0.4813 0.52454 0.41105 0.0
C794 C 0.47986 0.53516 0.4349 0.0
C795 C 0.47274 0.53502 0.39006 0.0
C796 C 0.4324 0.57972 0.3724 0.0
H797 H 0.41112 0.58867 0.24514 0.0
H798 H 0.42799 0.57056 0.28091 0.0
H799 H 0.40736 0.59938 0.35406 0.0
H800 H 0.46888 0.56547 0.45527 0.0
H801 H 0.45465 0.58396 0.41876 0.0
H802 H 0.4805 0.55704 0.34428 0.0
C803 C 0.42263 0.58801 0.28316 0.0
C804 C 0.42342 0.59029 0.35175 0.0
C805 C 0.4128 0.59831 0.26276 0.0
C806 C 0.47007 0.55667 0.43722 0.0
C807 C 0.46174 0.56724 0.41624 0.0
C808 C 0.46436 0.56598 0.34666 0.0
C809 C 0.42499 0.59993 0.30636 0.0
C810 C 0.43472 0.58875 0.32828 0.0
C811 C 0.46272 0.55647 0.39239 0.0
C812 C 0.45307 0.5675 0.3702 0.0
H813 H 0.40232 0.65018 0.29049 0.0
H814 H 0.41943 0.63218 0.32617 0.0
H815 H 0.46446 0.57511 0.30813 0.0
H816 H 0.48862 0.50791 0.40862 0.0
H817 H 0.47354 0.52605 0.37208 0.0
C818 C 0.12035 0.42071 0.77776 0.0
C819 C 0.11796 0.39671 0.77307 0.0
C820 C 0.11172 0.43027 0.8 0.0
C821 C 0.0676 0.41958 0.84982 0.0
H822 H 0.10587 0.46779 0.88591 0.0
C823 C 0.03363 0.46122 0.94139 0.0
C824 C 0.03777 0.48529 0.94394 0.0
C825 C 0.04501 0.44904 0.92239 0.0
C826 C 0.09486 0.45449 0.87596 0.0
H827 H 0.10476 0.36396 0.78838 0.0
H828 H 0.08923 0.38079 0.82701 0.0
H829 H 0.12238 0.44923 0.84883 0.0
H830 H 0.05733 0.51548 0.92908 0.0
H831 H 0.07673 0.49443 0.8956 0.0
H832 H 0.0398 0.42525 0.87639 0.0
C833 C 0.09777 0.39214 0.81334 0.0
C834 C 0.10435 0.44384 0.85475 0.0
C835 C 0.10659 0.38253 0.79117 0.0
C836 C 0.05386 0.49691 0.92756 0.0
C837 C 0.0651 0.48479 0.90847 0.0
C838 C 0.05801 0.43036 0.87092 0.0
C839 C 0.10031 0.4161 0.818 0.0
C840 C 0.09073 0.42645 0.84131 0.0
C841 C 0.06063 0.46073 0.90546 0.0
C842 C 0.07143 0.44814 0.88409 0.0
H843 H 0.12855 0.43222 0.76407 0.0
H844 H 0.11357 0.44884 0.80289 0.0
H845 H 0.0566 0.40638 0.83968 0.0
H846 H 0.0213 0.45183 0.9538 0.0
H847 H 0.04143 0.43049 0.92087 0.0
C848 C 0.69385 0.8569 0.89388 0.0
C849 C 0.68974 0.84663 0.87009 0.0
C850 C 0.67695 0.87032 0.90514 0.0
C851 C 0.62437 0.90242 0.89058 0.0
H852 H 0.61529 0.90203 0.96252 0.0
C853 C 0.54819 0.94601 0.94279 0.0
C854 C 0.5552 0.96029 0.9635 0.0
C855 C 0.56437 0.93203 0.93107 0.0
C856 C 0.61777 0.90238 0.94243 0.0
H857 H 0.66467 0.84191 0.83956 0.0
H858 H 0.63465 0.86477 0.85954 0.0
H859 H 0.64331 0.87698 0.94272 0.0
H860 H 0.58461 0.97103 0.98826 0.0
H861 H 0.61277 0.94624 0.96797 0.0
H862 H 0.59828 0.92748 0.89044 0.0
C863 C 0.65121 0.863 0.86927 0.0
C864 C 0.63388 0.88812 0.93106 0.0
C865 C 0.6683 0.84982 0.85785 0.0
C866 C 0.57871 0.96027 0.9723 0.0
C867 C 0.59477 0.94602 0.9608 0.0
C868 C 0.60801 0.91644 0.90195 0.0
C869 C 0.65538 0.87354 0.89301 0.0
C870 C 0.63755 0.88809 0.905 0.0
C871 C 0.58774 0.9318 0.94008 0.0
C872 C 0.60473 0.91667 0.92798 0.0
H873 H 0.71042 0.85499 0.90354 0.0
H874 H 0.68105 0.87854 0.92317 0.0
H875 H 0.62701 0.90318 0.87054 0.0
H876 H 0.53022 0.94571 0.93552 0.0
H877 H 0.5585 0.92112 0.9152 0.0
C878 C 0.78331 0.11917 0.45263 0.0
C879 C 0.7686 0.1053 0.43621 0.0
C880 C 0.80432 0.11113 0.4617 0.0
C881 C 0.83633 0.05762 0.46716 0.0
H882 H 0.89246 0.10077 0.47165 0.0
C883 C 0.93125 0.02814 0.4753 0.0
C884 C 0.94359 0.03729 0.49646 0.0
C885 C 0.91044 0.03758 0.46778 0.0
C886 C 0.87687 0.08861 0.47051 0.0
H887 H 0.76379 0.07162 0.41755 0.0
H888 H 0.80075 0.0581 0.43225 0.0
H889 H 0.8541 0.11457 0.4603 0.0
H890 H 0.94495 0.06416 0.52548 0.0
H891 H 0.9088 0.0811 0.51185 0.0
H892 H 0.85943 0.03157 0.47652 0.0
C893 C 0.79602 0.07504 0.43855 0.0
C894 C 0.85486 0.09649 0.46425 0.0
C895 C 0.77494 0.08295 0.42977 0.0
C896 C 0.93562 0.05678 0.50915 0.0
C897 C 0.91506 0.06648 0.50135 0.0
C898 C 0.85838 0.04972 0.47297 0.0
C899 C 0.81116 0.08911 0.45438 0.0
C900 C 0.83432 0.08105 0.46237 0.0
C901 C 0.90198 0.05657 0.48102 0.0
C902 C 0.87882 0.06512 0.47458 0.0
H903 H 0.77902 0.13652 0.45788 0.0
H904 H 0.81532 0.12228 0.47424 0.0
H905 H 0.82085 0.04532 0.46646 0.0
H906 H 0.93708 0.01311 0.4652 0.0
H907 H 0.90069 0.02981 0.4519 0.0
C908 C 0.22502 0.63382 0.10234 0.0
C909 C 0.24326 0.6199 0.10891 0.0
C910 C 0.20346 0.62391 0.0926 0.0
C911 C 0.16584 0.56894 0.08916 0.0
H912 H 0.13591 0.59691 0.03385 0.0
C913 C 0.08667 0.52246 0.03597 0.0
C914 C 0.06776 0.53555 0.02936 0.0
C915 C 0.10787 0.53321 0.04555 0.0
C916 C 0.14389 0.58904 0.04949 0.0
H917 H 0.25328 0.58465 0.10993 0.0
H918 H 0.21571 0.56737 0.09295 0.0
H919 H 0.17333 0.61474 0.0508 0.0
H920 H 0.05649 0.57033 0.02747 0.0
H921 H 0.09353 0.5891 0.04439 0.0
H922 H 0.13647 0.54324 0.08787 0.0
C923 C 0.21792 0.58594 0.09571 0.0
C924 C 0.16535 0.59925 0.0592 0.0
C925 C 0.23946 0.59585 0.10544 0.0
C926 C 0.07069 0.55971 0.03233 0.0
C927 C 0.09197 0.57049 0.04192 0.0
C928 C 0.14442 0.55874 0.07947 0.0
C929 C 0.19963 0.59985 0.08922 0.0
C930 C 0.17664 0.58925 0.07907 0.0
C931 C 0.11075 0.55733 0.04878 0.0
C932 C 0.13325 0.56859 0.05942 0.0
H933 H 0.22721 0.65239 0.10513 0.0
H934 H 0.18963 0.6351 0.08813 0.0
H935 H 0.17382 0.56102 0.10478 0.0
H936 H 0.08514 0.50382 0.03383 0.0
H937 H 0.12212 0.52258 0.05023 0.0
C938 C 0.26236 0.41049 0.56924 0.0
C939 C 0.26017 0.41085 0.59544 0.0
C940 C 0.28264 0.42099 0.55769 0.0
C941 C 0.33462 0.46318 0.56819 0.0
H942 H 0.36402 0.42734 0.51572 0.0
C943 C 0.43216 0.48252 0.53459 0.0
C944 C 0.43747 0.47824 0.50926 0.0
C945 C 0.40917 0.47692 0.54396 0.0
C946 C 0.35586 0.43781 0.53002 0.0
H947 H 0.27752 0.42276 0.63002 0.0
H948 H 0.31282 0.44115 0.60985 0.0
H949 H 0.32625 0.41277 0.53406 0.0
H950 H 0.42277 0.46603 0.47358 0.0
H951 H 0.38254 0.45665 0.48978 0.0
H952 H 0.36444 0.48812 0.5643 0.0
C953 C 0.29872 0.43299 0.59823 0.0
C954 C 0.33419 0.42942 0.54056 0.0
C955 C 0.27847 0.42243 0.60979 0.0
C956 C 0.41919 0.46926 0.49325 0.0
C957 C 0.3962 0.46377 0.50257 0.0
C958 C 0.35629 0.47164 0.55757 0.0
C959 C 0.30116 0.43214 0.57207 0.0
C960 C 0.32344 0.44188 0.55993 0.0
C961 C 0.39103 0.46705 0.52815 0.0
C962 C 0.36728 0.45894 0.5385 0.0
H963 H 0.24839 0.40208 0.55763 0.0
H964 H 0.28384 0.42035 0.53747 0.0
H965 H 0.3266 0.47332 0.58289 0.0
H966 H 0.44595 0.48949 0.54733 0.0
H967 H 0.40588 0.4795 0.56379 0.0
C968 C 0.84852 0.68158 0.8678 0.0
C969 C 0.83647 0.69858 0.88082 0.0
C970 C 0.86064 0.66565 0.88071 0.0
C971 C 0.88888 0.65793 0.9414 0.0
H972 H 0.89304 0.59559 0.91475 0.0
C973 C 0.94196 0.58775 0.9871 0.0
C974 C 0.95676 0.57632 0.9703 0.0
C975 C 0.9259 0.60282 0.97826 0.0
C976 C 0.89204 0.61297 0.92237 0.0
H977 H 0.82713 0.7118 0.91769 0.0
H978 H 0.84778 0.68348 0.9403 0.0
H979 H 0.86585 0.62061 0.8958 0.0
H980 H 0.96696 0.57202 0.93135 0.0
H981 H 0.93886 0.59813 0.91596 0.0
H982 H 0.91519 0.65006 0.96801 0.0
C983 C 0.84819 0.68277 0.92006 0.0
C984 C 0.87653 0.62732 0.9115 0.0
C985 C 0.83612 0.6988 0.9071 0.0
C986 C 0.95572 0.5806 0.9447 0.0
C987 C 0.93954 0.59539 0.93587 0.0
C988 C 0.90425 0.64344 0.95245 0.0
C989 C 0.86086 0.6662 0.90699 0.0
C990 C 0.8752 0.65016 0.92047 0.0
C991 C 0.92424 0.60636 0.9525 0.0
C992 C 0.90636 0.62104 0.94262 0.0
H993 H 0.84886 0.68074 0.84755 0.0
H994 H 0.87044 0.65333 0.87001 0.0
H995 H 0.88847 0.6755 0.94862 0.0
H996 H 0.94245 0.58467 0.00694 0.0
H997 H 0.91427 0.61112 0.99142 0.0
C998 C 0.38796 0.79279 0.09807 0.0
C999 C 0.40137 0.78001 0.11405 0.0
C1000 C 0.39757 0.81377 0.08874 0.0
C1001 C 0.44153 0.86174 0.10293 0.0
H1002 H 0.44059 0.8738 0.03208 0.0
C1003 C 0.49742 0.93878 0.06284 0.0
C1004 C 0.48841 0.95055 0.04296 0.0
C1005 C 0.48573 0.91826 0.07085 0.0
C1006 C 0.44066 0.87091 0.05197 0.0
H1007 H 0.43575 0.77934 0.13218 0.0
H1008 H 0.45206 0.81626 0.11661 0.0
H1009 H 0.42191 0.83748 0.04741 0.0
H1010 H 0.46011 0.95026 0.01579 0.0
H1011 H 0.43906 0.91455 0.03023 0.0
H1012 H 0.4597 0.89514 0.10782 0.0
C1013 C 0.43408 0.80996 0.11139 0.0
C1014 C 0.43004 0.85005 0.0607 0.0
C1015 C 0.42464 0.78884 0.12042 0.0
C1016 C 0.46745 0.94141 0.0311 0.0
C1017 C 0.4555 0.92091 0.03934 0.0
C1018 C 0.45181 0.88267 0.0943 0.0
C1019 C 0.42065 0.82263 0.09548 0.0
C1020 C 0.43073 0.84514 0.08622 0.0
C1021 C 0.46446 0.90912 0.05944 0.0
C1022 C 0.45193 0.8874 0.06864 0.0
H1023 H 0.36985 0.78683 0.09306 0.0
H1024 H 0.38676 0.82331 0.07669 0.0
H1025 H 0.44193 0.85856 0.12276 0.0
H1026 H 0.5137 0.94534 0.07217 0.0
H1027 H 0.49359 0.90945 0.08591 0.0
C1028 C 0.10965 0.22134 0.62536 0.0
C1029 C 0.11481 0.23979 0.6093 0.0
C1030 C 0.10059 0.19979 0.61589 0.0
C1031 C 0.06892 0.17198 0.56154 0.0
H1032 H 0.09228 0.11592 0.58627 0.0
C1033 C 0.0428 0.08302 0.51545 0.0
C1034 C 0.03686 0.06466 0.53143 0.0
C1035 C 0.05313 0.10406 0.52493 0.0
C1036 C 0.0854 0.13141 0.57935 0.0
H1037 H 0.11427 0.2501 0.57071 0.0
H1038 H 0.09883 0.21243 0.55415 0.0
H1039 H 0.1085 0.15336 0.60294 0.0
H1040 H 0.03755 0.05394 0.56989 0.0
H1041 H 0.05542 0.09075 0.58643 0.0
H1042 H 0.04577 0.1501 0.53804 0.0
C1043 C 0.1016 0.21467 0.5741 0.0
C1044 C 0.09469 0.15286 0.58891 0.0
C1045 C 0.1107 0.23619 0.58356 0.0
C1046 C 0.04193 0.0677 0.55704 0.0
C1047 C 0.05228 0.08878 0.56652 0.0
C1048 C 0.05964 0.15057 0.55201 0.0
C1049 C 0.09642 0.19622 0.59016 0.0
C1050 C 0.08657 0.17339 0.58008 0.0
C1051 C 0.05777 0.10728 0.55061 0.0
C1052 C 0.06779 0.13002 0.56076 0.0
H1053 H 0.11284 0.22347 0.64525 0.0
H1054 H 0.09657 0.186 0.62879 0.0
H1055 H 0.06199 0.18745 0.55465 0.0
H1056 H 0.03926 0.08128 0.4956 0.0
H1057 H 0.05751 0.11784 0.51209 0.0
C1058 C 0.61821 0.26344 0.43969 0.0
C1059 C 0.62248 0.25532 0.41521 0.0
C1060 C 0.61031 0.28547 0.44395 0.0
C1061 C 0.57958 0.3298 0.41184 0.0
H1062 H 0.60075 0.369 0.46846 0.0
C1063 C 0.52968 0.40765 0.44586 0.0
C1064 C 0.54317 0.4275 0.45464 0.0
C1065 C 0.54084 0.38766 0.43948 0.0
C1066 C 0.59488 0.35837 0.45239 0.0
H1067 H 0.62313 0.2642 0.37613 0.0
H1068 H 0.60962 0.3026 0.38354 0.0
H1069 H 0.6182 0.33222 0.46083 0.0
H1070 H 0.57886 0.44243 0.46297 0.0
H1071 H 0.59852 0.40745 0.45146 0.0
H1072 H 0.55647 0.35597 0.40321 0.0
C1073 C 0.6117 0.29182 0.39941 0.0
C1074 C 0.60465 0.33718 0.44821 0.0
C1075 C 0.61944 0.26984 0.39517 0.0
C1076 C 0.56809 0.42729 0.45625 0.0
C1077 C 0.57929 0.40725 0.44986 0.0
C1078 C 0.56987 0.35095 0.41598 0.0
C1079 C 0.60671 0.29978 0.4238 0.0
C1080 C 0.59698 0.3226 0.42798 0.0
C1081 C 0.56573 0.38713 0.44172 0.0
C1082 C 0.57723 0.36538 0.43642 0.0
H1083 H 0.62035 0.25254 0.45545 0.0
H1084 H 0.60639 0.29103 0.46295 0.0
H1085 H 0.57308 0.31886 0.39624 0.0
H1086 H 0.51041 0.40736 0.44456 0.0
H1087 H 0.52985 0.37237 0.43357 0.0
loop_
_geom_bond_atom_site_label_1
_geom_bond_atom_site_label_2
_geom_bond_distance
_geom_bond_site_symmetry_2
_ccdc_geom_bond_type
C0 C1 1.384 . S
C0 H13 0.947 . S
C0 C35 1.382 . S
C1 C0 1.384 . S
C1 C2 1.378 . S
C2 C1 1.378 . S
C2 C3 1.378 . S
C2 H14 0.952 . S
C3 C2 1.378 . S
C3 H15 0.950 . S
C3 C34 1.383 . S
H4 C23 0.947 . S
H5 C24 0.946 . S
H6 C26 0.953 . S
H7 C27 0.945 . S
H8 C29 0.952 . S
H9 C30 0.949 . S
H10 C32 0.950 . S
H11 C33 0.948 . S
H12 C35 0.951 . S
H13 C0 0.947 . S
H14 C2 0.952 . S
H15 C3 0.950 . S
N16 C19 1.382 . S
N16 C21 1.363 . S
N17 C19 1.371 . S
N17 C20 1.372 . S
N18 C20 1.361 . S
N18 C21 1.377 . S
C19 N16 1.382 . S
C19 N17 1.371 . S
C19 C22 1.480 . S
C20 N17 1.372 . S
C20 N18 1.361 . S
C20 C28 1.457 . S
C21 N16 1.363 . S
C21 N18 1.377 . S
C21 C34 1.479 . S
C22 C19 1.480 . S
C22 C23 1.383 . S
C22 C27 1.385 . S
C23 H4 0.947 . S
C23 C22 1.383 . S
C23 C24 1.388 . S
C24 H5 0.946 . S
C24 C23 1.388 . S
C24 C25 1.384 . S
C25 C24 1.384 . S
C25 C26 1.377 . S
C26 H6 0.953 . S
C26 C25 1.377 . S
C26 C27 1.369 . S
C27 H7 0.945 . S
C27 C22 1.385 . S
C27 C26 1.369 . S
C28 C20 1.457 . S
C28 C29 1.372 . S
C28 C33 1.364 . S
C29 H8 0.952 . S
C29 C28 1.372 . S
C29 C30 1.389 . S
C30 H9 0.949 . S
C30 C29 1.389 . S
C30 C31 1.387 . S
C31 C30 1.387 . S
C31 C32 1.372 . S
C32 H10 0.950 . S
C32 C31 1.372 . S
C32 C33 1.379 . S
C33 H11 0.948 . S
C33 C28 1.364 . S
C33 C32 1.379 . S
C34 C3 1.383 . S
C34 C21 1.479 . S
C34 C35 1.398 . S
C35 C0 1.382 . S
C35 H12 0.951 . S
C35 C34 1.398 . S
C36 C37 1.384 . S
C36 H49 0.947 . S
C36 C71 1.382 . S
C37 C36 1.384 . S
C37 C38 1.378 . S
C38 C37 1.378 . S
C38 C39 1.378 . S
C38 H50 0.952 . S
C39 C38 1.378 . S
C39 H51 0.950 . S
C39 C70 1.383 . S
H40 C59 0.947 . S
H41 C60 0.946 . S
H42 C62 0.953 . S
H43 C63 0.945 . S
H44 C65 0.952 . S
H45 C66 0.949 . S
H46 C68 0.950 . S
H47 C69 0.948 . S
H48 C71 0.951 . S
H49 C36 0.947 . S
H50 C38 0.952 . S
H51 C39 0.950 . S
N52 C55 1.382 . S
N52 C57 1.363 . S
N53 C55 1.371 . S
N53 C56 1.372 . S
N54 C56 1.361 . S
N54 C57 1.377 . S
C55 N52 1.382 . S
C55 N53 1.371 . S
C55 C58 1.480 . S
C56 N53 1.372 . S
C56 N54 1.361 . S
C56 C64 1.457 . S
C57 N52 1.363 . S
C57 N54 1.377 . S
C57 C70 1.479 . S
C58 C55 1.480 . S
C58 C59 1.383 . S
C58 C63 1.385 . S
C59 H40 0.947 . S
C59 C58 1.383 . S
C59 C60 1.388 . S
C60 H41 0.946 . S
C60 C59 1.388 . S
C60 C61 1.384 . S
C61 C60 1.384 . S
C61 C62 1.377 . S
C62 H42 0.953 . S
C62 C61 1.377 . S
C62 C63 1.369 . S
C63 H43 0.945 . S
C63 C58 1.385 . S
C63 C62 1.369 . S
C64 C56 1.457 . S
C64 C65 1.372 . S
C64 C69 1.364 . S
C65 H44 0.952 . S
C65 C64 1.372 . S
C65 C66 1.389 . S
C66 H45 0.949 . S
C66 C65 1.389 . S
C66 C67 1.387 . S
C67 C66 1.387 . S
C67 C68 1.372 . S
C68 H46 0.950 . S
C68 C67 1.372 . S
C68 C69 1.379 . S
C69 H47 0.948 . S
C69 C64 1.364 . S
C69 C68 1.379 . S
C70 C39 1.383 . S
C70 C57 1.479 . S
C70 C71 1.398 . S
C71 C36 1.382 . S
C71 H48 0.951 . S
C71 C70 1.398 . S
C72 C73 1.384 . S
C72 H85 0.947 . S
C72 C107 1.382 . S
C73 C72 1.384 . S
C73 C74 1.378 . S
C74 C73 1.378 . S
C74 C75 1.378 . S
C74 H86 0.952 . S
C75 C74 1.378 . S
C75 H87 0.950 . S
C75 C106 1.383 . S
H76 C95 0.947 . S
H77 C96 0.946 . S
H78 C98 0.953 . S
H79 C99 0.945 . S
H80 C101 0.952 . S
H81 C102 0.949 . S
H82 C104 0.950 . S
H83 C105 0.948 . S
H84 C107 0.951 . S
H85 C72 0.947 . S
H86 C74 0.952 . S
H87 C75 0.950 . S
N88 C91 1.382 . S
N88 C93 1.363 . S
N89 C91 1.371 . S
N89 C92 1.372 . S
N90 C92 1.361 . S
N90 C93 1.377 . S
C91 N88 1.382 . S
C91 N89 1.371 . S
C91 C94 1.480 . S
C92 N89 1.372 . S
C92 N90 1.361 . S
C92 C100 1.457 . S
C93 N88 1.363 . S
C93 N90 1.377 . S
C93 C106 1.479 . S
C94 C91 1.480 . S
C94 C95 1.383 . S
C94 C99 1.385 . S
C95 H76 0.947 . S
C95 C94 1.383 . S
C95 C96 1.388 . S
C96 H77 0.946 . S
C96 C95 1.388 . S
C96 C97 1.384 . S
C97 C96 1.384 . S
C97 C98 1.377 . S
C98 H78 0.953 . S
C98 C97 1.377 . S
C98 C99 1.369 . S
C99 H79 0.945 . S
C99 C94 1.385 . S
C99 C98 1.369 . S
C100 C92 1.457 . S
C100 C101 1.372 . S
C100 C105 1.364 . S
C101 H80 0.952 . S
C101 C100 1.372 . S
C101 C102 1.389 . S
C102 H81 0.949 . S
C102 C101 1.389 . S
C102 C103 1.387 . S
C103 C102 1.387 . S
C103 C104 1.372 . S
C104 H82 0.950 . S
C104 C103 1.372 . S
C104 C105 1.379 . S
C105 H83 0.948 . S
C105 C100 1.364 . S
C105 C104 1.379 . S
C106 C75 1.383 . S
C106 C93 1.479 . S
C106 C107 1.398 . S
C107 C72 1.382 . S
C107 H84 0.951 . S
C107 C106 1.398 . S
C108 C109 1.384 . S
C108 H121 0.947 . S
C108 C143 1.382 . S
C109 C108 1.384 . S
C109 C110 1.378 . S
C110 C109 1.378 . S
C110 C111 1.378 . S
C110 H122 0.952 . S
C111 C110 1.378 . S
C111 H123 0.950 . S
C111 C142 1.383 . S
H112 C131 0.947 . S
H113 C132 0.946 . S
H114 C134 0.953 . S
H115 C135 0.945 . S
H116 C137 0.952 . S
H117 C138 0.949 . S
H118 C140 0.950 . S
H119 C141 0.948 . S
H120 C143 0.951 . S
H121 C108 0.947 . S
H122 C110 0.952 . S
H123 C111 0.950 . S
N124 C127 1.382 . S
N124 C129 1.363 . S
N125 C127 1.371 . S
N125 C128 1.372 . S
N126 C128 1.361 . S
N126 C129 1.377 . S
C127 N124 1.382 . S
C127 N125 1.371 . S
C127 C130 1.480 . S
C128 N125 1.372 . S
C128 N126 1.361 . S
C128 C136 1.457 . S
C129 N124 1.363 . S
C129 N126 1.377 . S
C129 C142 1.479 . S
C130 C127 1.480 . S
C130 C131 1.383 . S
C130 C135 1.385 . S
C131 H112 0.947 . S
C131 C130 1.383 . S
C131 C132 1.388 . S
C132 H113 0.946 . S
C132 C131 1.388 . S
C132 C133 1.384 . S
C133 C132 1.384 . S
C133 C134 1.377 . S
C134 H114 0.953 . S
C134 C133 1.377 . S
C134 C135 1.369 . S
C135 H115 0.945 . S
C135 C130 1.385 . S
C135 C134 1.369 . S
C136 C128 1.457 . S
C136 C137 1.372 . S
C136 C141 1.364 . S
C137 H116 0.952 . S
C137 C136 1.372 . S
C137 C138 1.389 . S
C138 H117 0.949 . S
C138 C137 1.389 . S
C138 C139 1.387 . S
C139 C138 1.387 . S
C139 C140 1.372 . S
C140 H118 0.950 . S
C140 C139 1.372 . S
C140 C141 1.379 . S
C141 H119 0.948 . S
C141 C136 1.364 . S
C141 C140 1.379 . S
C142 C111 1.383 . S
C142 C129 1.479 . S
C142 C143 1.398 . S
C143 C108 1.382 . S
C143 H120 0.951 . S
C143 C142 1.398 . S
C144 C145 1.384 . S
C144 H157 0.947 . S
C144 C179 1.382 . S
C145 C144 1.384 . S
C145 C146 1.378 . S
C146 C145 1.378 . S
C146 C147 1.378 . S
C146 H158 0.952 . S
C147 C146 1.378 . S
C147 H159 0.950 . S
C147 C178 1.383 . S
H148 C167 0.947 . S
H149 C168 0.946 . S
H150 C170 0.953 . S
H151 C171 0.945 . S
H152 C173 0.952 . S
H153 C174 0.949 . S
H154 C176 0.950 . S
H155 C177 0.948 . S
H156 C179 0.951 . S
H157 C144 0.947 . S
H158 C146 0.952 . S
H159 C147 0.950 . S
N160 C163 1.382 . S
N160 C165 1.363 . S
N161 C163 1.371 . S
N161 C164 1.372 . S
N162 C164 1.361 . S
N162 C165 1.377 . S
C163 N160 1.382 . S
C163 N161 1.371 . S
C163 C166 1.480 . S
C164 N161 1.372 . S
C164 N162 1.361 . S
C164 C172 1.457 . S
C165 N160 1.363 . S
C165 N162 1.377 . S
C165 C178 1.479 . S
C166 C163 1.480 . S
C166 C167 1.383 . S
C166 C171 1.385 . S
C167 H148 0.947 . S
C167 C166 1.383 . S
C167 C168 1.388 . S
C168 H149 0.946 . S
C168 C167 1.388 . S
C168 C169 1.384 . S
C169 C168 1.384 . S
C169 C170 1.377 . S
C170 H150 0.953 . S
C170 C169 1.377 . S
C170 C171 1.369 . S
C171 H151 0.945 . S
C171 C166 1.385 . S
C171 C170 1.369 . S
C172 C164 1.457 . S
C172 C173 1.372 . S
C172 C177 1.364 . S
C173 H152 0.952 . S
C173 C172 1.372 . S
C173 C174 1.389 . S
C174 H153 0.949 . S
C174 C173 1.389 . S
C174 C175 1.387 . S
C175 C174 1.387 . S
C175 C176 1.372 . S
C176 H154 0.950 . S
C176 C175 1.372 . S
C176 C177 1.379 . S
C177 H155 0.948 . S
C177 C172 1.364 . S
C177 C176 1.379 . S
C178 C147 1.383 . S
C178 C165 1.479 . S
C178 C179 1.398 . S
C179 C144 1.382 . S
C179 H156 0.951 . S
C179 C178 1.398 . S
C180 C181 1.384 . S
C180 H193 0.947 . S
C180 C215 1.382 . S
C181 C180 1.384 . S
C181 C182 1.378 . S
C182 C181 1.378 . S
C182 C183 1.378 . S
C182 H194 0.952 . S
C183 C182 1.378 . S
C183 H195 0.950 . S
C183 C214 1.383 . S
H184 C203 0.947 . S
H185 C204 0.946 . S
H186 C206 0.953 . S
H187 C207 0.945 . S
H188 C209 0.952 . S
H189 C210 0.949 . S
H190 C212 0.950 . S
H191 C213 0.948 . S
H192 C215 0.951 . S
H193 C180 0.947 . S
H194 C182 0.952 . S
H195 C183 0.950 . S
N196 C199 1.382 . S
N196 C201 1.363 . S
N197 C199 1.371 . S
N197 C200 1.372 . S
N198 C200 1.361 . S
N198 C201 1.377 . S
C199 N196 1.382 . S
C199 N197 1.371 . S
C199 C202 1.480 . S
C200 N197 1.372 . S
C200 N198 1.361 . S
C200 C208 1.457 . S
C201 N196 1.363 . S
C201 N198 1.377 . S
C201 C214 1.479 . S
C202 C199 1.480 . S
C202 C203 1.383 . S
C202 C207 1.385 . S
C203 H184 0.947 . S
C203 C202 1.383 . S
C203 C204 1.388 . S
C204 H185 0.946 . S
C204 C203 1.388 . S
C204 C205 1.384 . S
C205 C204 1.384 . S
C205 C206 1.377 . S
C206 H186 0.953 . S
C206 C205 1.377 . S
C206 C207 1.369 . S
C207 H187 0.945 . S
C207 C202 1.385 . S
C207 C206 1.369 . S
C208 C200 1.457 . S
C208 C209 1.372 . S
C208 C213 1.364 . S
C209 H188 0.952 . S
C209 C208 1.372 . S
C209 C210 1.389 . S
C210 H189 0.949 . S
C210 C209 1.389 . S
C210 C211 1.387 . S
C211 C210 1.387 . S
C211 C212 1.372 . S
C212 H190 0.950 . S
C212 C211 1.372 . S
C212 C213 1.379 . S
C213 H191 0.948 . S
C213 C208 1.364 . S
C213 C212 1.379 . S
C214 C183 1.383 . S
C214 C201 1.479 . S
C214 C215 1.398 . S
C215 C180 1.382 . S
C215 H192 0.951 . S
C215 C214 1.398 . S
C216 C217 1.384 . S
C216 H229 0.947 . S
C216 C251 1.382 . S
C217 C216 1.384 . S
C217 C218 1.378 . S
C218 C217 1.378 . S
C218 C219 1.378 . S
C218 H230 0.952 . S
C219 C218 1.378 . S
C219 H231 0.950 . S
C219 C250 1.383 . S
H220 C239 0.947 . S
H221 C240 0.946 . S
H222 C242 0.953 . S
H223 C243 0.945 . S
H224 C245 0.952 . S
H225 C246 0.949 . S
H226 C248 0.950 . S
H227 C249 0.948 . S
H228 C251 0.951 . S
H229 C216 0.947 . S
H230 C218 0.952 . S
H231 C219 0.950 . S
N232 C235 1.382 . S
N232 C237 1.363 . S
N233 C235 1.371 . S
N233 C236 1.372 . S
N234 C236 1.361 . S
N234 C237 1.377 . S
C235 N232 1.382 . S
C235 N233 1.371 . S
C235 C238 1.480 . S
C236 N233 1.372 . S
C236 N234 1.361 . S
C236 C244 1.457 . S
C237 N232 1.363 . S
C237 N234 1.377 . S
C237 C250 1.479 . S
C238 C235 1.480 . S
C238 C239 1.383 . S
C238 C243 1.385 . S
C239 H220 0.947 . S
C239 C238 1.383 . S
C239 C240 1.388 . S
C240 H221 0.946 . S
C240 C239 1.388 . S
C240 C241 1.384 . S
C241 C240 1.384 . S
C241 C242 1.377 . S
C242 H222 0.953 . S
C242 C241 1.377 . S
C242 C243 1.369 . S
C243 H223 0.945 . S
C243 C238 1.385 . S
C243 C242 1.369 . S
C244 C236 1.457 . S
C244 C245 1.372 . S
C244 C249 1.364 . S
C245 H224 0.952 . S
C245 C244 1.372 . S
C245 C246 1.389 . S
C246 H225 0.949 . S
C246 C245 1.389 . S
C246 C247 1.387 . S
C247 C246 1.387 . S
C247 C248 1.372 . S
C248 H226 0.950 . S
C248 C247 1.372 . S
C248 C249 1.379 . S
C249 H227 0.948 . S
C249 C244 1.364 . S
C249 C248 1.379 . S
C250 C219 1.383 . S
C250 C237 1.479 . S
C250 C251 1.398 . S
C251 C216 1.382 . S
C251 H228 0.951 . S
C251 C250 1.398 . S
C252 C253 1.384 . S
C252 H265 0.947 . S
C252 C287 1.382 . S
C253 C252 1.384 . S
C253 C254 1.378 . S
C254 C253 1.378 . S
C254 C255 1.378 . S
C254 H266 0.952 . S
C255 C254 1.378 . S
C255 H267 0.950 . S
C255 C286 1.383 . S
H256 C275 0.947 . S
H257 C276 0.946 . S
H258 C278 0.953 . S
H259 C279 0.945 . S
H260 C281 0.952 . S
H261 C282 0.949 . S
H262 C284 0.950 . S
H263 C285 0.948 . S
H264 C287 0.951 . S
H265 C252 0.947 . S
H266 C254 0.952 . S
H267 C255 0.950 . S
N268 C271 1.382 . S
N268 C273 1.363 . S
N269 C271 1.371 . S
N269 C272 1.372 . S
N270 C272 1.361 . S
N270 C273 1.377 . S
C271 N268 1.382 . S
C271 N269 1.371 . S
C271 C274 1.480 . S
C272 N269 1.372 . S
C272 N270 1.361 . S
C272 C280 1.457 . S
C273 N268 1.363 . S
C273 N270 1.377 . S
C273 C286 1.479 . S
C274 C271 1.480 . S
C274 C275 1.383 . S
C274 C279 1.385 . S
C275 H256 0.947 . S
C275 C274 1.383 . S
C275 C276 1.388 . S
C276 H257 0.946 . S
C276 C275 1.388 . S
C276 C277 1.384 . S
C277 C276 1.384 . S
C277 C278 1.377 . S
C278 H258 0.953 . S
C278 C277 1.377 . S
C278 C279 1.369 . S
C279 H259 0.945 . S
C279 C274 1.385 . S
C279 C278 1.369 . S
C280 C272 1.457 . S
C280 C281 1.372 . S
C280 C285 1.364 . S
C281 H260 0.952 . S
C281 C280 1.372 . S
C281 C282 1.389 . S
C282 H261 0.949 . S
C282 C281 1.389 . S
C282 C283 1.387 . S
C283 C282 1.387 . S
C283 C284 1.372 . S
C284 H262 0.950 . S
C284 C283 1.372 . S
C284 C285 1.379 . S
C285 H263 0.948 . S
C285 C280 1.364 . S
C285 C284 1.379 . S
C286 C255 1.383 . S
C286 C273 1.479 . S
C286 C287 1.398 . S
C287 C252 1.382 . S
C287 H264 0.951 . S
C287 C286 1.398 . S
Dy288 O292 2.398 . S
Dy288 O293 2.491 . S
Dy288 O294 2.403 1_545 S
Dy288 O295 2.664 1_545 S
Dy288 O299 2.326 . S
Dy288 O303 2.310 1_455 S
Dy288 O304 2.351 1_445 S
C289 O300 1.185 . S
C289 O301 1.355 . S
C290 O292 1.185 . S
C290 O293 1.355 . S
Dy291 O295 2.310 1_655 S
Dy291 O298 2.351 1_665 S
Dy291 O300 2.398 . S
Dy291 O301 2.491 . S
Dy291 O302 2.403 1_565 S
Dy291 O303 2.664 1_565 S
Dy291 O305 2.326 . S
O292 Dy288 2.398 . S
O292 C290 1.185 . S
O293 Dy288 2.491 . S
O293 C290 1.355 . S
O294 Dy288 2.403 1_565 S
O294 C296 1.254 . S
O295 Dy288 2.664 1_565 S
O295 Dy291 2.310 1_455 S
O295 C296 1.268 . S
C296 O294 1.254 . S
C296 O295 1.268 . S
C297 O302 1.254 . S
C297 O303 1.268 . S
O298 Dy291 2.351 1_445 S
O298 C306 1.249 . S
O299 Dy288 2.326 . S
O299 C306 1.267 . S
O300 C289 1.185 . S
O300 Dy291 2.398 . S
O301 C289 1.355 . S
O301 Dy291 2.491 . S
O302 Dy291 2.403 1_545 S
O302 C297 1.254 . S
O303 Dy288 2.310 1_655 S
O303 Dy291 2.664 1_545 S
O303 C297 1.268 . S
O304 Dy288 2.351 1_665 S
O304 C307 1.249 . S
O305 Dy291 2.326 . S
O305 C307 1.267 . S
C306 O298 1.249 . S
C306 O299 1.267 . S
C307 O304 1.249 . S
C307 O305 1.267 . S
Dy308 O312 2.398 . S
Dy308 O313 2.491 . S
Dy308 O314 2.403 1_545 S
Dy308 O315 2.664 1_545 S
Dy308 O319 2.326 . S
Dy308 O323 2.310 1_554 S
Dy308 O324 2.351 1_544 S
C309 O320 1.185 . S
C309 O321 1.355 . S
C310 O312 1.185 . S
C310 O313 1.355 . S
Dy311 O315 2.298 1_546 S
Dy311 O318 2.361 1_556 S
Dy311 O320 2.396 1_545 S
Dy311 O321 2.475 1_545 S
Dy311 O322 2.418 . S
Dy311 O323 2.673 . S
Dy311 O325 2.319 1_545 S
O312 Dy308 2.398 . S
O312 C310 1.185 . S
O313 Dy308 2.491 . S
O313 C310 1.355 . S
O314 Dy308 2.403 1_565 S
O314 C316 1.254 . S
O315 Dy308 2.664 1_565 S
O315 Dy311 2.298 1_564 S
O315 C316 1.268 . S
C316 O314 1.254 . S
C316 O315 1.268 . S
C317 O322 1.254 . S
C317 O323 1.268 . S
O318 Dy311 2.361 1_554 S
O318 C326 1.249 . S
O319 Dy308 2.326 . S
O319 C326 1.267 . S
O320 C309 1.185 . S
O320 Dy311 2.396 1_565 S
O321 C309 1.355 . S
O321 Dy311 2.475 1_565 S
O322 Dy311 2.418 . S
O322 C317 1.254 . S
O323 Dy308 2.310 1_556 S
O323 Dy311 2.673 . S
O323 C317 1.268 . S
O324 Dy308 2.351 1_566 S
O324 C327 1.249 . S
O325 Dy311 2.319 1_565 S
O325 C327 1.267 . S
C326 O318 1.249 . S
C326 O319 1.267 . S
C327 O324 1.249 . S
C327 O325 1.267 . S
Dy328 O332 2.398 . S
Dy328 O333 2.491 . S
Dy328 O334 2.403 . S
Dy328 O335 2.664 . S
Dy328 O339 2.326 . S
Dy328 O343 2.310 . S
Dy328 O344 2.351 . S
C329 O340 1.185 . S
C329 O341 1.355 . S
C330 O332 1.185 . S
C330 O333 1.355 . S
Dy331 O335 2.310 . S
Dy331 O338 2.351 . S
Dy331 O340 2.398 . S
Dy331 O341 2.491 . S
Dy331 O342 2.403 . S
Dy331 O343 2.664 . S
Dy331 O345 2.326 . S
O332 Dy328 2.398 . S
O332 C330 1.185 . S
O333 Dy328 2.491 . S
O333 C330 1.355 . S
O334 Dy328 2.403 . S
O334 C336 1.254 . S
O335 Dy328 2.664 . S
O335 Dy331 2.310 . S
O335 C336 1.268 . S
C336 O334 1.254 . S
C336 O335 1.268 . S
C337 O342 1.254 . S
C337 O343 1.268 . S
O338 Dy331 2.351 . S
O338 C346 1.249 . S
O339 Dy328 2.326 . S
O339 C346 1.267 . S
O340 C329 1.185 . S
O340 Dy331 2.398 . S
O341 C329 1.355 . S
O341 Dy331 2.491 . S
O342 Dy331 2.403 . S
O342 C337 1.254 . S
O343 Dy328 2.310 . S
O343 Dy331 2.664 . S
O343 C337 1.268 . S
O344 Dy328 2.351 . S
O344 C347 1.249 . S
O345 Dy331 2.326 . S
O345 C347 1.267 . S
C346 O338 1.249 . S
C346 O339 1.267 . S
C347 O344 1.249 . S
C347 O345 1.267 . S
Dy348 O352 2.398 . S
Dy348 O353 2.491 . S
Dy348 O354 2.403 1_455 S
Dy348 O355 2.664 1_455 S
Dy348 O359 2.326 . S
Dy348 O363 2.310 1_554 S
Dy348 O364 2.340 1_454 S
C349 O360 1.185 . S
C349 O361 1.355 . S
C350 O352 1.185 . S
C350 O353 1.355 . S
Dy351 O355 2.310 1_556 S
Dy351 O358 2.351 1_656 S
Dy351 O360 2.398 . S
Dy351 O361 2.491 . S
Dy351 O362 2.403 1_655 S
Dy351 O363 2.664 1_655 S
Dy351 O365 2.326 . S
O352 Dy348 2.398 . S
O352 C350 1.185 . S
O353 Dy348 2.491 . S
O353 C350 1.355 . S
O354 Dy348 2.403 1_655 S
O354 C356 1.254 . S
O355 Dy348 2.664 1_655 S
O355 Dy351 2.310 1_554 S
O355 C356 1.268 . S
C356 O354 1.254 . S
C356 O355 1.268 . S
C357 O362 1.254 . S
C357 O363 1.268 . S
O358 Dy351 2.351 1_454 S
O358 C366 1.249 . S
O359 Dy348 2.326 . S
O359 C366 1.267 . S
O360 C349 1.185 . S
O360 Dy351 2.398 . S
O361 C349 1.355 . S
O361 Dy351 2.491 . S
O362 Dy351 2.403 1_455 S
O362 C357 1.254 . S
O363 Dy348 2.310 1_556 S
O363 Dy351 2.664 1_455 S
O363 C357 1.268 . S
O364 Dy348 2.340 1_656 S
O364 C367 1.265 . S
O365 Dy351 2.326 . S
O365 C367 1.267 . S
C366 O358 1.249 . S
C366 O359 1.267 . S
C367 O364 1.265 . S
C367 O365 1.267 . S
C368 C369 1.349 . S
C368 C370 1.327 . S
C368 H393 0.950 . S
C369 C368 1.349 . S
C369 C385 1.349 . S
C370 C368 1.327 . S
C370 C389 1.429 . S
C370 H394 0.950 . S
C371 C388 1.574 . S
C371 C390 1.368 . S
C371 H395 0.949 . S
H372 C376 0.949 . S
C373 C374 1.349 . S
C373 C375 1.327 . S
C373 H396 0.950 . S
C374 C373 1.349 . S
C374 C386 1.349 . S
C375 C373 1.327 . S
C375 C391 1.429 . S
C375 H397 0.950 . S
C376 H372 0.949 . S
C376 C384 1.574 . S
C376 C392 1.368 . S
H377 C385 0.950 . S
H378 C383 0.950 . S
H379 C384 0.949 . S
H380 C386 0.950 . S
H381 C387 0.950 . S
H382 C388 0.949 . S
C383 H378 0.950 . S
C383 C385 1.327 . S
C383 C389 1.429 . S
C384 C376 1.574 . S
C384 H379 0.949 . S
C384 C390 1.368 . S
C385 C369 1.349 . S
C385 H377 0.950 . S
C385 C383 1.327 . S
C386 C374 1.349 . S
C386 H380 0.950 . S
C386 C387 1.327 . S
C387 H381 0.950 . S
C387 C386 1.327 . S
C387 C391 1.429 . S
C388 C371 1.574 . S
C388 H382 0.949 . S
C388 C392 1.368 . S
C389 C370 1.429 . S
C389 C383 1.429 . S
C389 C390 1.523 . S
C390 C371 1.368 . S
C390 C384 1.368 . S
C390 C389 1.523 . S
C391 C375 1.429 . S
C391 C387 1.429 . S
C391 C392 1.523 . S
C392 C376 1.368 . S
C392 C388 1.368 . S
C392 C391 1.523 . S
H393 C368 0.950 . S
H394 C370 0.950 . S
H395 C371 0.949 . S
H396 C373 0.950 . S
H397 C375 0.950 . S
C398 C399 1.349 . S
C398 C400 1.327 . S
C398 H423 0.950 . S
C399 C398 1.349 . S
C399 C415 1.349 . S
C400 C398 1.327 . S
C400 C419 1.429 . S
C400 H424 0.950 . S
C401 C418 1.574 . S
C401 C420 1.368 . S
C401 H425 0.949 . S
H402 C406 0.949 . S
C403 C404 1.349 . S
C403 C405 1.327 . S
C403 H426 0.950 . S
C404 C403 1.349 . S
C404 C416 1.349 . S
C405 C403 1.327 . S
C405 C421 1.429 . S
C405 H427 0.950 . S
C406 H402 0.949 . S
C406 C414 1.574 . S
C406 C422 1.368 . S
H407 C415 0.950 . S
H408 C413 0.950 . S
H409 C414 0.949 . S
H410 C416 0.950 . S
H411 C417 0.950 . S
H412 C418 0.949 . S
C413 H408 0.950 . S
C413 C415 1.327 . S
C413 C419 1.429 . S
C414 C406 1.574 . S
C414 H409 0.949 . S
C414 C420 1.368 . S
C415 C399 1.349 . S
C415 H407 0.950 . S
C415 C413 1.327 . S
C416 C404 1.349 . S
C416 H410 0.950 . S
C416 C417 1.327 . S
C417 H411 0.950 . S
C417 C416 1.327 . S
C417 C421 1.429 . S
C418 C401 1.574 . S
C418 H412 0.949 . S
C418 C422 1.368 . S
C419 C400 1.429 . S
C419 C413 1.429 . S
C419 C420 1.523 . S
C420 C401 1.368 . S
C420 C414 1.368 . S
C420 C419 1.523 . S
C421 C405 1.429 . S
C421 C417 1.429 . S
C421 C422 1.523 . S
C422 C406 1.368 . S
C422 C418 1.368 . S
C422 C421 1.523 . S
H423 C398 0.950 . S
H424 C400 0.950 . S
H425 C401 0.949 . S
H426 C403 0.950 . S
H427 C405 0.950 . S
C428 C429 1.349 . S
C428 C430 1.327 . S
C428 H453 0.950 . S
C429 C428 1.349 . S
C429 C445 1.349 . S
C430 C428 1.327 . S
C430 C449 1.429 . S
C430 H454 0.950 . S
C431 C448 1.574 . S
C431 C450 1.368 . S
C431 H455 0.949 . S
H432 C436 0.949 . S
C433 C434 1.349 . S
C433 C435 1.327 . S
C433 H456 0.950 . S
C434 C433 1.349 . S
C434 C446 1.349 . S
C435 C433 1.327 . S
C435 C451 1.429 . S
C435 H457 0.950 . S
C436 H432 0.949 . S
C436 C444 1.574 . S
C436 C452 1.368 . S
H437 C445 0.950 . S
H438 C443 0.950 . S
H439 C444 0.949 . S
H440 C446 0.950 . S
H441 C447 0.950 . S
H442 C448 0.949 . S
C443 H438 0.950 . S
C443 C445 1.327 . S
C443 C449 1.429 . S
C444 C436 1.574 . S
C444 H439 0.949 . S
C444 C450 1.368 . S
C445 C429 1.349 . S
C445 H437 0.950 . S
C445 C443 1.327 . S
C446 C434 1.349 . S
C446 H440 0.950 . S
C446 C447 1.327 . S
C447 H441 0.950 . S
C447 C446 1.327 . S
C447 C451 1.429 . S
C448 C431 1.574 . S
C448 H442 0.949 . S
C448 C452 1.368 . S
C449 C430 1.429 . S
C449 C443 1.429 . S
C449 C450 1.523 . S
C450 C431 1.368 . S
C450 C444 1.368 . S
C450 C449 1.523 . S
C451 C435 1.429 . S
C451 C447 1.429 . S
C451 C452 1.523 . S
C452 C436 1.368 . S
C452 C448 1.368 . S
C452 C451 1.523 . S
H453 C428 0.950 . S
H454 C430 0.950 . S
H455 C431 0.949 . S
H456 C433 0.950 . S
H457 C435 0.950 . S
C458 C459 1.349 . S
C458 C460 1.327 . S
C458 H483 0.950 . S
C459 C458 1.349 . S
C459 C475 1.349 . S
C460 C458 1.327 . S
C460 C479 1.429 . S
C460 H484 0.950 . S
C461 C478 1.574 . S
C461 C480 1.368 . S
C461 H485 0.949 . S
H462 C466 0.949 . S
C463 C464 1.349 . S
C463 C465 1.327 . S
C463 H486 0.950 . S
C464 C463 1.349 . S
C464 C476 1.349 . S
C465 C463 1.327 . S
C465 C481 1.429 . S
C465 H487 0.950 . S
C466 H462 0.949 . S
C466 C474 1.574 . S
C466 C482 1.368 . S
H467 C475 0.950 . S
H468 C473 0.950 . S
H469 C474 0.949 . S
H470 C476 0.950 . S
H471 C477 0.950 . S
H472 C478 0.949 . S
C473 H468 0.950 . S
C473 C475 1.327 . S
C473 C479 1.429 . S
C474 C466 1.574 . S
C474 H469 0.949 . S
C474 C480 1.368 . S
C475 C459 1.349 . S
C475 H467 0.950 . S
C475 C473 1.327 . S
C476 C464 1.349 . S
C476 H470 0.950 . S
C476 C477 1.327 . S
C477 H471 0.950 . S
C477 C476 1.327 . S
C477 C481 1.429 . S
C478 C461 1.574 . S
C478 H472 0.949 . S
C478 C482 1.368 . S
C479 C460 1.429 . S
C479 C473 1.429 . S
C479 C480 1.523 . S
C480 C461 1.368 . S
C480 C474 1.368 . S
C480 C479 1.523 . S
C481 C465 1.429 . S
C481 C477 1.429 . S
C481 C482 1.523 . S
C482 C466 1.368 . S
C482 C478 1.368 . S
C482 C481 1.523 . S
H483 C458 0.950 . S
H484 C460 0.950 . S
H485 C461 0.949 . S
H486 C463 0.950 . S
H487 C465 0.950 . S
C488 C489 1.349 . S
C488 C490 1.327 . S
C488 H513 0.950 . S
C489 C488 1.349 . S
C489 C505 1.349 . S
C490 C488 1.327 . S
C490 C509 1.429 . S
C490 H514 0.950 . S
C491 C508 1.574 . S
C491 C510 1.368 . S
C491 H515 0.949 . S
H492 C496 0.949 . S
C493 C494 1.349 . S
C493 C495 1.327 . S
C493 H516 0.950 . S
C494 C493 1.349 . S
C494 C506 1.349 . S
C495 C493 1.327 . S
C495 C511 1.429 . S
C495 H517 0.950 . S
C496 H492 0.949 . S
C496 C504 1.574 . S
C496 C512 1.368 . S
H497 C505 0.950 . S
H498 C503 0.950 . S
H499 C504 0.949 . S
H500 C506 0.950 . S
H501 C507 0.950 . S
H502 C508 0.949 . S
C503 H498 0.950 . S
C503 C505 1.327 . S
C503 C509 1.429 . S
C504 C496 1.574 . S
C504 H499 0.949 . S
C504 C510 1.368 . S
C505 C489 1.349 . S
C505 H497 0.950 . S
C505 C503 1.327 . S
C506 C494 1.349 . S
C506 H500 0.950 . S
C506 C507 1.327 . S
C507 H501 0.950 . S
C507 C506 1.327 . S
C507 C511 1.429 . S
C508 C491 1.574 . S
C508 H502 0.949 . S
C508 C512 1.368 . S
C509 C490 1.429 . S
C509 C503 1.429 . S
C509 C510 1.523 . S
C510 C491 1.368 . S
C510 C504 1.368 . S
C510 C509 1.523 . S
C511 C495 1.429 . S
C511 C507 1.429 . S
C511 C512 1.523 . S
C512 C496 1.368 . S
C512 C508 1.368 . S
C512 C511 1.523 . S
H513 C488 0.950 . S
H514 C490 0.950 . S
H515 C491 0.949 . S
H516 C493 0.950 . S
H517 C495 0.950 . S
C518 C519 1.349 . S
C518 C520 1.327 . S
C518 H543 0.950 . S
C519 C518 1.349 . S
C519 C535 1.349 . S
C520 C518 1.327 . S
C520 C539 1.429 . S
C520 H544 0.950 . S
C521 C538 1.574 . S
C521 C540 1.368 . S
C521 H545 0.949 . S
H522 C526 0.949 . S
C523 C524 1.349 . S
C523 C525 1.327 . S
C523 H546 0.950 . S
C524 C523 1.349 . S
C524 C536 1.349 . S
C525 C523 1.327 . S
C525 C541 1.429 . S
C525 H547 0.950 . S
C526 H522 0.949 . S
C526 C534 1.574 . S
C526 C542 1.368 . S
H527 C535 0.950 . S
H528 C533 0.950 . S
H529 C534 0.949 . S
H530 C536 0.950 . S
H531 C537 0.950 . S
H532 C538 0.949 . S
C533 H528 0.950 . S
C533 C535 1.327 . S
C533 C539 1.429 . S
C534 C526 1.574 . S
C534 H529 0.949 . S
C534 C540 1.368 . S
C535 C519 1.349 . S
C535 H527 0.950 . S
C535 C533 1.327 . S
C536 C524 1.349 . S
C536 H530 0.950 . S
C536 C537 1.327 . S
C537 H531 0.950 . S
C537 C536 1.327 . S
C537 C541 1.429 . S
C538 C521 1.574 . S
C538 H532 0.949 . S
C538 C542 1.368 . S
C539 C520 1.429 . S
C539 C533 1.429 . S
C539 C540 1.523 . S
C540 C521 1.368 . S
C540 C534 1.368 . S
C540 C539 1.523 . S
C541 C525 1.429 . S
C541 C537 1.429 . S
C541 C542 1.523 . S
C542 C526 1.368 . S
C542 C538 1.368 . S
C542 C541 1.523 . S
H543 C518 0.950 . S
H544 C520 0.950 . S
H545 C521 0.949 . S
H546 C523 0.950 . S
H547 C525 0.950 . S
C548 C549 1.349 . S
C548 C550 1.327 . S
C548 H573 0.950 . S
C549 C548 1.349 . S
C549 C565 1.349 . S
C550 C548 1.327 . S
C550 C569 1.429 . S
C550 H574 0.950 . S
C551 C568 1.574 . S
C551 C570 1.368 . S
C551 H575 0.949 . S
H552 C556 0.949 . S
C553 C554 1.349 . S
C553 C555 1.327 . S
C553 H576 0.950 . S
C554 C553 1.349 . S
C554 C566 1.349 . S
C555 C553 1.327 . S
C555 C571 1.429 . S
C555 H577 0.950 . S
C556 H552 0.949 . S
C556 C564 1.574 . S
C556 C572 1.368 . S
H557 C565 0.950 . S
H558 C563 0.950 . S
H559 C564 0.949 . S
H560 C566 0.950 1_554 S
H561 C567 0.950 . S
H562 C568 0.949 . S
C563 H558 0.950 . S
C563 C565 1.327 . S
C563 C569 1.429 . S
C564 C556 1.574 . S
C564 H559 0.949 . S
C564 C570 1.368 . S
C565 C549 1.349 . S
C565 H557 0.950 . S
C565 C563 1.327 . S
C566 C554 1.349 . S
C566 H560 0.950 1_556 S
C566 C567 1.327 . S
C567 H561 0.950 . S
C567 C566 1.327 . S
C567 C571 1.429 . S
C568 C551 1.574 . S
C568 H562 0.949 . S
C568 C572 1.368 . S
C569 C550 1.429 . S
C569 C563 1.429 . S
C569 C570 1.523 . S
C570 C551 1.368 . S
C570 C564 1.368 . S
C570 C569 1.523 . S
C571 C555 1.429 . S
C571 C567 1.429 . S
C571 C572 1.523 . S
C572 C556 1.368 . S
C572 C568 1.368 . S
C572 C571 1.523 . S
H573 C548 0.950 . S
H574 C550 0.950 . S
H575 C551 0.949 . S
H576 C553 0.950 . S
H577 C555 0.950 . S
C578 C579 1.349 . S
C578 C580 1.327 . S
C578 H603 0.950 . S
C579 C578 1.349 . S
C579 C595 1.349 . S
C580 C578 1.327 . S
C580 C599 1.429 . S
C580 H604 0.950 . S
C581 C598 1.574 . S
C581 C600 1.368 . S
C581 H605 0.949 . S
H582 C586 0.949 . S
C583 C584 1.349 . S
C583 C585 1.327 . S
C583 H606 0.950 . S
C584 C583 1.349 . S
C584 C596 1.349 . S
C585 C583 1.327 . S
C585 C601 1.429 . S
C585 H607 0.950 . S
C586 H582 0.949 . S
C586 C594 1.574 . S
C586 C602 1.368 . S
H587 C595 0.950 . S
H588 C593 0.950 . S
H589 C594 0.949 . S
H590 C596 0.950 . S
H591 C597 0.950 . S
H592 C598 0.949 . S
C593 H588 0.950 . S
C593 C595 1.327 . S
C593 C599 1.429 . S
C594 C586 1.574 . S
C594 H589 0.949 . S
C594 C600 1.368 . S
C595 C579 1.349 . S
C595 H587 0.950 . S
C595 C593 1.327 . S
C596 C584 1.349 . S
C596 H590 0.950 . S
C596 C597 1.327 . S
C597 H591 0.950 . S
C597 C596 1.327 . S
C597 C601 1.429 . S
C598 C581 1.574 . S
C598 H592 0.949 . S
C598 C602 1.368 . S
C599 C580 1.429 . S
C599 C593 1.429 . S
C599 C600 1.523 . S
C600 C581 1.368 . S
C600 C594 1.368 . S
C600 C599 1.523 . S
C601 C585 1.429 . S
C601 C597 1.429 . S
C601 C602 1.523 . S
C602 C586 1.368 . S
C602 C598 1.368 . S
C602 C601 1.523 . S
H603 C578 0.950 . S
H604 C580 0.950 . S
H605 C581 0.949 . S
H606 C583 0.950 . S
H607 C585 0.950 . S
C608 C609 1.349 . S
C608 C610 1.327 . S
C608 H633 0.950 . S
C609 C608 1.349 . S
C609 C625 1.349 . S
C610 C608 1.327 . S
C610 C629 1.429 . S
C610 H634 0.950 . S
C611 C628 1.574 . S
C611 C630 1.368 . S
C611 H635 0.949 . S
H612 C616 0.949 . S
C613 C614 1.349 . S
C613 C615 1.327 . S
C613 H636 0.950 . S
C614 C613 1.349 . S
C614 C626 1.349 . S
C615 C613 1.327 . S
C615 C631 1.429 . S
C615 H637 0.950 . S
C616 H612 0.949 . S
C616 C624 1.574 . S
C616 C632 1.368 . S
H617 C625 0.950 . S
H618 C623 0.950 . S
H619 C624 0.949 . S
H620 C626 0.950 . S
H621 C627 0.950 . S
H622 C628 0.949 . S
C623 H618 0.950 . S
C623 C625 1.327 . S
C623 C629 1.429 . S
C624 C616 1.574 . S
C624 H619 0.949 . S
C624 C630 1.368 . S
C625 C609 1.349 . S
C625 H617 0.950 . S
C625 C623 1.327 . S
C626 C614 1.349 . S
C626 H620 0.950 . S
C626 C627 1.327 . S
C627 H621 0.950 . S
C627 C626 1.327 . S
C627 C631 1.429 . S
C628 C611 1.574 . S
C628 H622 0.949 . S
C628 C632 1.368 . S
C629 C610 1.429 . S
C629 C623 1.429 . S
C629 C630 1.523 . S
C630 C611 1.368 . S
C630 C624 1.368 . S
C630 C629 1.523 . S
C631 C615 1.429 . S
C631 C627 1.429 . S
C631 C632 1.523 . S
C632 C616 1.368 . S
C632 C628 1.368 . S
C632 C631 1.523 . S
H633 C608 0.950 . S
H634 C610 0.950 . S
H635 C611 0.949 . S
H636 C613 0.950 . S
H637 C615 0.950 . S
C638 C639 1.349 . S
C638 C640 1.327 . S
C638 H663 0.950 . S
C639 C638 1.349 . S
C639 C655 1.349 . S
C640 C638 1.327 . S
C640 C659 1.429 . S
C640 H664 0.950 . S
C641 C658 1.574 . S
C641 C660 1.368 . S
C641 H665 0.949 . S
H642 C646 0.949 . S
C643 C644 1.349 . S
C643 C645 1.327 . S
C643 H666 0.950 . S
C644 C643 1.349 . S
C644 C656 1.349 . S
C645 C643 1.327 . S
C645 C661 1.429 . S
C645 H667 0.950 . S
C646 H642 0.949 . S
C646 C654 1.574 . S
C646 C662 1.368 . S
H647 C655 0.950 . S
H648 C653 0.950 . S
H649 C654 0.949 . S
H650 C656 0.950 . S
H651 C657 0.950 . S
H652 C658 0.949 . S
C653 H648 0.950 . S
C653 C655 1.327 . S
C653 C659 1.429 . S
C654 C646 1.574 . S
C654 H649 0.949 . S
C654 C660 1.368 . S
C655 C639 1.349 . S
C655 H647 0.950 . S
C655 C653 1.327 . S
C656 C644 1.349 . S
C656 H650 0.950 . S
C656 C657 1.327 . S
C657 H651 0.950 . S
C657 C656 1.327 . S
C657 C661 1.429 . S
C658 C641 1.574 . S
C658 H652 0.949 . S
C658 C662 1.368 . S
C659 C640 1.429 . S
C659 C653 1.429 . S
C659 C660 1.523 . S
C660 C641 1.368 . S
C660 C654 1.368 . S
C660 C659 1.523 . S
C661 C645 1.429 . S
C661 C657 1.429 . S
C661 C662 1.523 . S
C662 C646 1.368 . S
C662 C658 1.368 . S
C662 C661 1.523 . S
H663 C638 0.950 . S
H664 C640 0.950 . S
H665 C641 0.949 . S
H666 C643 0.950 . S
H667 C645 0.950 . S
C668 C669 1.349 . S
C668 C670 1.327 . S
C668 H693 0.950 . S
C669 C668 1.349 . S
C669 C685 1.349 . S
C670 C668 1.327 . S
C670 C689 1.429 . S
C670 H694 0.950 . S
C671 C688 1.574 . S
C671 C690 1.368 . S
C671 H695 0.949 . S
H672 C676 0.949 . S
C673 C674 1.349 . S
C673 C675 1.327 . S
C673 H696 0.950 . S
C674 C673 1.349 . S
C674 C686 1.349 . S
C675 C673 1.327 . S
C675 C691 1.429 . S
C675 H697 0.950 . S
C676 H672 0.949 . S
C676 C684 1.574 . S
C676 C692 1.368 . S
H677 C685 0.950 . S
H678 C683 0.950 . S
H679 C684 0.949 . S
H680 C686 0.950 . S
H681 C687 0.950 . S
H682 C688 0.949 . S
C683 H678 0.950 . S
C683 C685 1.327 . S
C683 C689 1.429 . S
C684 C676 1.574 . S
C684 H679 0.949 . S
C684 C690 1.368 . S
C685 C669 1.349 . S
C685 H677 0.950 . S
C685 C683 1.327 . S
C686 C674 1.349 . S
C686 H680 0.950 . S
C686 C687 1.327 . S
C687 H681 0.950 . S
C687 C686 1.327 . S
C687 C691 1.429 . S
C688 C671 1.574 . S
C688 H682 0.949 . S
C688 C692 1.368 . S
C689 C670 1.429 . S
C689 C683 1.429 . S
C689 C690 1.523 . S
C690 C671 1.368 . S
C690 C684 1.368 . S
C690 C689 1.523 . S
C691 C675 1.429 . S
C691 C687 1.429 . S
C691 C692 1.523 . S
C692 C676 1.368 . S
C692 C688 1.368 . S
C692 C691 1.523 . S
H693 C668 0.950 . S
H694 C670 0.950 . S
H695 C671 0.949 . S
H696 C673 0.950 . S
H697 C675 0.950 . S
C698 C699 1.349 . S
C698 C700 1.327 . S
C698 H723 0.950 . S
C699 C698 1.349 . S
C699 C715 1.349 . S
C700 C698 1.327 . S
C700 C719 1.429 . S
C700 H724 0.950 . S
C701 C718 1.574 . S
C701 C720 1.368 . S
C701 H725 0.949 . S
H702 C706 0.949 . S
C703 C704 1.349 . S
C703 C705 1.327 . S
C703 H726 0.950 . S
C704 C703 1.349 . S
C704 C716 1.349 . S
C705 C703 1.327 . S
C705 C721 1.429 . S
C705 H727 0.950 . S
C706 H702 0.949 . S
C706 C714 1.574 . S
C706 C722 1.368 . S
H707 C715 0.950 . S
H708 C713 0.950 . S
H709 C714 0.949 . S
H710 C716 0.950 . S
H711 C717 0.950 . S
H712 C718 0.949 . S
C713 H708 0.950 . S
C713 C715 1.327 . S
C713 C719 1.429 . S
C714 C706 1.574 . S
C714 H709 0.949 . S
C714 C720 1.368 . S
C715 C699 1.349 . S
C715 H707 0.950 . S
C715 C713 1.327 . S
C716 C704 1.349 . S
C716 H710 0.950 . S
C716 C717 1.327 . S
C717 H711 0.950 . S
C717 C716 1.327 . S
C717 C721 1.429 . S
C718 C701 1.574 . S
C718 H712 0.949 . S
C718 C722 1.368 . S
C719 C700 1.429 . S
C719 C713 1.429 . S
C719 C720 1.523 . S
C720 C701 1.368 . S
C720 C714 1.368 . S
C720 C719 1.523 . S
C721 C705 1.429 . S
C721 C717 1.429 . S
C721 C722 1.523 . S
C722 C706 1.368 . S
C722 C718 1.368 . S
C722 C721 1.523 . S
H723 C698 0.950 . S
H724 C700 0.950 . S
H725 C701 0.949 . S
H726 C703 0.950 . S
H727 C705 0.950 . S
C728 C729 1.349 . S
C728 C730 1.327 . S
C728 H753 0.950 . S
C729 C728 1.349 . S
C729 C745 1.349 . S
C730 C728 1.327 . S
C730 C749 1.429 . S
C730 H754 0.950 . S
C731 C748 1.574 . S
C731 C750 1.368 . S
C731 H755 0.949 . S
H732 C736 0.949 . S
C733 C734 1.349 . S
C733 C735 1.327 . S
C733 H756 0.950 . S
C734 C733 1.349 . S
C734 C746 1.349 . S
C735 C733 1.327 . S
C735 C751 1.429 . S
C735 H757 0.950 . S
C736 H732 0.949 . S
C736 C744 1.574 . S
C736 C752 1.368 . S
H737 C745 0.950 . S
H738 C743 0.950 . S
H739 C744 0.949 . S
H740 C746 0.950 . S
H741 C747 0.950 . S
H742 C748 0.949 . S
C743 H738 0.950 . S
C743 C745 1.327 . S
C743 C749 1.429 . S
C744 C736 1.574 . S
C744 H739 0.949 . S
C744 C750 1.368 . S
C745 C729 1.349 . S
C745 H737 0.950 . S
C745 C743 1.327 . S
C746 C734 1.349 . S
C746 H740 0.950 . S
C746 C747 1.327 . S
C747 H741 0.950 . S
C747 C746 1.327 . S
C747 C751 1.429 . S
C748 C731 1.574 . S
C748 H742 0.949 . S
C748 C752 1.368 . S
C749 C730 1.429 . S
C749 C743 1.429 . S
C749 C750 1.523 . S
C750 C731 1.368 . S
C750 C744 1.368 . S
C750 C749 1.523 . S
C751 C735 1.429 . S
C751 C747 1.429 . S
C751 C752 1.523 . S
C752 C736 1.368 . S
C752 C748 1.368 . S
C752 C751 1.523 . S
H753 C728 0.950 . S
H754 C730 0.950 . S
H755 C731 0.949 . S
H756 C733 0.950 . S
H757 C735 0.950 . S
C758 C759 1.349 . S
C758 C760 1.327 . S
C758 H783 0.950 . S
C759 C758 1.349 . S
C759 C775 1.349 . S
C760 C758 1.327 . S
C760 C779 1.429 . S
C760 H784 0.950 . S
C761 C778 1.574 . S
C761 C780 1.368 . S
C761 H785 0.949 . S
H762 C766 0.949 . S
C763 C764 1.349 . S
C763 C765 1.327 . S
C763 H786 0.950 . S
C764 C763 1.349 . S
C764 C776 1.349 . S
C765 C763 1.327 . S
C765 C781 1.429 . S
C765 H787 0.950 . S
C766 H762 0.949 . S
C766 C774 1.574 . S
C766 C782 1.368 . S
H767 C775 0.950 . S
H768 C773 0.950 . S
H769 C774 0.949 . S
H770 C776 0.950 . S
H771 C777 0.950 . S
H772 C778 0.949 . S
C773 H768 0.950 . S
C773 C775 1.327 . S
C773 C779 1.429 . S
C774 C766 1.574 . S
C774 H769 0.949 . S
C774 C780 1.368 . S
C775 C759 1.349 . S
C775 H767 0.950 . S
C775 C773 1.327 . S
C776 C764 1.349 . S
C776 H770 0.950 . S
C776 C777 1.327 . S
C777 H771 0.950 . S
C777 C776 1.327 . S
C777 C781 1.429 . S
C778 C761 1.574 . S
C778 H772 0.949 . S
C778 C782 1.368 . S
C779 C760 1.429 . S
C779 C773 1.429 . S
C779 C780 1.523 . S
C780 C761 1.368 . S
C780 C774 1.368 . S
C780 C779 1.523 . S
C781 C765 1.429 . S
C781 C777 1.429 . S
C781 C782 1.523 . S
C782 C766 1.368 . S
C782 C778 1.368 . S
C782 C781 1.523 . S
H783 C758 0.950 . S
H784 C760 0.950 . S
H785 C761 0.949 . S
H786 C763 0.950 . S
H787 C765 0.950 . S
C788 C789 1.349 . S
C788 C790 1.327 . S
C788 H813 0.950 . S
C789 C788 1.349 . S
C789 C805 1.349 . S
C790 C788 1.327 . S
C790 C809 1.429 . S
C790 H814 0.950 . S
C791 C808 1.574 . S
C791 C810 1.368 . S
C791 H815 0.949 . S
H792 C796 0.949 . S
C793 C794 1.349 . S
C793 C795 1.327 . S
C793 H816 0.950 . S
C794 C793 1.349 . S
C794 C806 1.349 . S
C795 C793 1.327 . S
C795 C811 1.429 . S
C795 H817 0.950 . S
C796 H792 0.949 . S
C796 C804 1.574 . S
C796 C812 1.368 . S
H797 C805 0.950 . S
H798 C803 0.950 . S
H799 C804 0.949 . S
H800 C806 0.950 . S
H801 C807 0.950 . S
H802 C808 0.949 . S
C803 H798 0.950 . S
C803 C805 1.327 . S
C803 C809 1.429 . S
C804 C796 1.574 . S
C804 H799 0.949 . S
C804 C810 1.368 . S
C805 C789 1.349 . S
C805 H797 0.950 . S
C805 C803 1.327 . S
C806 C794 1.349 . S
C806 H800 0.950 . S
C806 C807 1.327 . S
C807 H801 0.950 . S
C807 C806 1.327 . S
C807 C811 1.429 . S
C808 C791 1.574 . S
C808 H802 0.949 . S
C808 C812 1.368 . S
C809 C790 1.429 . S
C809 C803 1.429 . S
C809 C810 1.523 . S
C810 C791 1.368 . S
C810 C804 1.368 . S
C810 C809 1.523 . S
C811 C795 1.429 . S
C811 C807 1.429 . S
C811 C812 1.523 . S
C812 C796 1.368 . S
C812 C808 1.368 . S
C812 C811 1.523 . S
H813 C788 0.950 . S
H814 C790 0.950 . S
H815 C791 0.949 . S
H816 C793 0.950 . S
H817 C795 0.950 . S
C818 C819 1.349 . S
C818 C820 1.327 . S
C818 H843 0.950 . S
C819 C818 1.349 . S
C819 C835 1.349 . S
C820 C818 1.327 . S
C820 C839 1.429 . S
C820 H844 0.950 . S
C821 C838 1.574 . S
C821 C840 1.368 . S
C821 H845 0.949 . S
H822 C826 0.949 . S
C823 C824 1.349 . S
C823 C825 1.327 . S
C823 H846 0.950 . S
C824 C823 1.349 . S
C824 C836 1.349 . S
C825 C823 1.327 . S
C825 C841 1.429 . S
C825 H847 0.950 . S
C826 H822 0.949 . S
C826 C834 1.574 . S
C826 C842 1.368 . S
H827 C835 0.950 . S
H828 C833 0.950 . S
H829 C834 0.949 . S
H830 C836 0.950 . S
H831 C837 0.950 . S
H832 C838 0.949 . S
C833 H828 0.950 . S
C833 C835 1.327 . S
C833 C839 1.429 . S
C834 C826 1.574 . S
C834 H829 0.949 . S
C834 C840 1.368 . S
C835 C819 1.349 . S
C835 H827 0.950 . S
C835 C833 1.327 . S
C836 C824 1.349 . S
C836 H830 0.950 . S
C836 C837 1.327 . S
C837 H831 0.950 . S
C837 C836 1.327 . S
C837 C841 1.429 . S
C838 C821 1.574 . S
C838 H832 0.949 . S
C838 C842 1.368 . S
C839 C820 1.429 . S
C839 C833 1.429 . S
C839 C840 1.523 . S
C840 C821 1.368 . S
C840 C834 1.368 . S
C840 C839 1.523 . S
C841 C825 1.429 . S
C841 C837 1.429 . S
C841 C842 1.523 . S
C842 C826 1.368 . S
C842 C838 1.368 . S
C842 C841 1.523 . S
H843 C818 0.950 . S
H844 C820 0.950 . S
H845 C821 0.949 . S
H846 C823 0.950 . S
H847 C825 0.950 . S
C848 C849 1.349 . S
C848 C850 1.327 . S
C848 H873 0.950 . S
C849 C848 1.349 . S
C849 C865 1.349 . S
C850 C848 1.327 . S
C850 C869 1.429 . S
C850 H874 0.950 . S
C851 C868 1.574 . S
C851 C870 1.368 . S
C851 H875 0.949 . S
H852 C856 0.949 . S
C853 C854 1.349 . S
C853 C855 1.327 . S
C853 H876 0.950 . S
C854 C853 1.349 . S
C854 C866 1.349 . S
C855 C853 1.327 . S
C855 C871 1.429 . S
C855 H877 0.950 . S
C856 H852 0.949 . S
C856 C864 1.574 . S
C856 C872 1.368 . S
H857 C865 0.950 . S
H858 C863 0.950 . S
H859 C864 0.949 . S
H860 C866 0.950 . S
H861 C867 0.950 . S
H862 C868 0.949 . S
C863 H858 0.950 . S
C863 C865 1.327 . S
C863 C869 1.429 . S
C864 C856 1.574 . S
C864 H859 0.949 . S
C864 C870 1.368 . S
C865 C849 1.349 . S
C865 H857 0.950 . S
C865 C863 1.327 . S
C866 C854 1.349 . S
C866 H860 0.950 . S
C866 C867 1.327 . S
C867 H861 0.950 . S
C867 C866 1.327 . S
C867 C871 1.429 . S
C868 C851 1.574 . S
C868 H862 0.949 . S
C868 C872 1.368 . S
C869 C850 1.429 . S
C869 C863 1.429 . S
C869 C870 1.523 . S
C870 C851 1.368 . S
C870 C864 1.368 . S
C870 C869 1.523 . S
C871 C855 1.429 . S
C871 C867 1.429 . S
C871 C872 1.523 . S
C872 C856 1.368 . S
C872 C868 1.368 . S
C872 C871 1.523 . S
H873 C848 0.950 . S
H874 C850 0.950 . S
H875 C851 0.949 . S
H876 C853 0.950 . S
H877 C855 0.950 . S
C878 C879 1.349 . S
C878 C880 1.327 . S
C878 H903 0.950 . S
C879 C878 1.349 . S
C879 C895 1.349 . S
C880 C878 1.327 . S
C880 C899 1.429 . S
C880 H904 0.950 . S
C881 C898 1.574 . S
C881 C900 1.368 . S
C881 H905 0.949 . S
H882 C886 0.949 . S
C883 C884 1.349 . S
C883 C885 1.327 . S
C883 H906 0.950 . S
C884 C883 1.349 . S
C884 C896 1.349 . S
C885 C883 1.327 . S
C885 C901 1.429 . S
C885 H907 0.950 . S
C886 H882 0.949 . S
C886 C894 1.574 . S
C886 C902 1.368 . S
H887 C895 0.950 . S
H888 C893 0.950 . S
H889 C894 0.949 . S
H890 C896 0.950 . S
H891 C897 0.950 . S
H892 C898 0.949 . S
C893 H888 0.950 . S
C893 C895 1.327 . S
C893 C899 1.429 . S
C894 C886 1.574 . S
C894 H889 0.949 . S
C894 C900 1.368 . S
C895 C879 1.349 . S
C895 H887 0.950 . S
C895 C893 1.327 . S
C896 C884 1.349 . S
C896 H890 0.950 . S
C896 C897 1.327 . S
C897 H891 0.950 . S
C897 C896 1.327 . S
C897 C901 1.429 . S
C898 C881 1.574 . S
C898 H892 0.949 . S
C898 C902 1.368 . S
C899 C880 1.429 . S
C899 C893 1.429 . S
C899 C900 1.523 . S
C900 C881 1.368 . S
C900 C894 1.368 . S
C900 C899 1.523 . S
C901 C885 1.429 . S
C901 C897 1.429 . S
C901 C902 1.523 . S
C902 C886 1.368 . S
C902 C898 1.368 . S
C902 C901 1.523 . S
H903 C878 0.950 . S
H904 C880 0.950 . S
H905 C881 0.949 . S
H906 C883 0.950 . S
H907 C885 0.950 . S
C908 C909 1.349 . S
C908 C910 1.327 . S
C908 H933 0.950 . S
C909 C908 1.349 . S
C909 C925 1.349 . S
C910 C908 1.327 . S
C910 C929 1.429 . S
C910 H934 0.950 . S
C911 C928 1.574 . S
C911 C930 1.368 . S
C911 H935 0.949 . S
H912 C916 0.949 . S
C913 C914 1.349 . S
C913 C915 1.327 . S
C913 H936 0.950 . S
C914 C913 1.349 . S
C914 C926 1.349 . S
C915 C913 1.327 . S
C915 C931 1.429 . S
C915 H937 0.950 . S
C916 H912 0.949 . S
C916 C924 1.574 . S
C916 C932 1.368 . S
H917 C925 0.950 . S
H918 C923 0.950 . S
H919 C924 0.949 . S
H920 C926 0.950 . S
H921 C927 0.950 . S
H922 C928 0.949 . S
C923 H918 0.950 . S
C923 C925 1.327 . S
C923 C929 1.429 . S
C924 C916 1.574 . S
C924 H919 0.949 . S
C924 C930 1.368 . S
C925 C909 1.349 . S
C925 H917 0.950 . S
C925 C923 1.327 . S
C926 C914 1.349 . S
C926 H920 0.950 . S
C926 C927 1.327 . S
C927 H921 0.950 . S
C927 C926 1.327 . S
C927 C931 1.429 . S
C928 C911 1.574 . S
C928 H922 0.949 . S
C928 C932 1.368 . S
C929 C910 1.429 . S
C929 C923 1.429 . S
C929 C930 1.523 . S
C930 C911 1.368 . S
C930 C924 1.368 . S
C930 C929 1.523 . S
C931 C915 1.429 . S
C931 C927 1.429 . S
C931 C932 1.523 . S
C932 C916 1.368 . S
C932 C928 1.368 . S
C932 C931 1.523 . S
H933 C908 0.950 . S
H934 C910 0.950 . S
H935 C911 0.949 . S
H936 C913 0.950 . S
H937 C915 0.950 . S
C938 C939 1.349 . S
C938 C940 1.327 . S
C938 H963 0.950 . S
C939 C938 1.349 . S
C939 C955 1.349 . S
C940 C938 1.327 . S
C940 C959 1.429 . S
C940 H964 0.950 . S
C941 C958 1.574 . S
C941 C960 1.368 . S
C941 H965 0.949 . S
H942 C946 0.949 . S
C943 C944 1.349 . S
C943 C945 1.327 . S
C943 H966 0.950 . S
C944 C943 1.349 . S
C944 C956 1.349 . S
C945 C943 1.327 . S
C945 C961 1.429 . S
C945 H967 0.950 . S
C946 H942 0.949 . S
C946 C954 1.574 . S
C946 C962 1.368 . S
H947 C955 0.950 . S
H948 C953 0.950 . S
H949 C954 0.949 . S
H950 C956 0.950 . S
H951 C957 0.950 . S
H952 C958 0.949 . S
C953 H948 0.950 . S
C953 C955 1.327 . S
C953 C959 1.429 . S
C954 C946 1.574 . S
C954 H949 0.949 . S
C954 C960 1.368 . S
C955 C939 1.349 . S
C955 H947 0.950 . S
C955 C953 1.327 . S
C956 C944 1.349 . S
C956 H950 0.950 . S
C956 C957 1.327 . S
C957 H951 0.950 . S
C957 C956 1.327 . S
C957 C961 1.429 . S
C958 C941 1.574 . S
C958 H952 0.949 . S
C958 C962 1.368 . S
C959 C940 1.429 . S
C959 C953 1.429 . S
C959 C960 1.523 . S
C960 C941 1.368 . S
C960 C954 1.368 . S
C960 C959 1.523 . S
C961 C945 1.429 . S
C961 C957 1.429 . S
C961 C962 1.523 . S
C962 C946 1.368 . S
C962 C958 1.368 . S
C962 C961 1.523 . S
H963 C938 0.950 . S
H964 C940 0.950 . S
H965 C941 0.949 . S
H966 C943 0.950 . S
H967 C945 0.950 . S
C968 C969 1.349 . S
C968 C970 1.327 . S
C968 H993 0.950 . S
C969 C968 1.349 . S
C969 C985 1.349 . S
C970 C968 1.327 . S
C970 C989 1.429 . S
C970 H994 0.950 . S
C971 C988 1.574 . S
C971 C990 1.368 . S
C971 H995 0.949 . S
H972 C976 0.949 . S
C973 C974 1.349 . S
C973 C975 1.327 . S
C973 H996 0.950 . S
C974 C973 1.349 . S
C974 C986 1.349 . S
C975 C973 1.327 . S
C975 C991 1.429 . S
C975 H997 0.950 . S
C976 H972 0.949 . S
C976 C984 1.574 . S
C976 C992 1.368 . S
H977 C985 0.950 . S
H978 C983 0.950 . S
H979 C984 0.949 . S
H980 C986 0.950 . S
H981 C987 0.950 . S
H982 C988 0.949 . S
C983 H978 0.950 . S
C983 C985 1.327 . S
C983 C989 1.429 . S
C984 C976 1.574 . S
C984 H979 0.949 . S
C984 C990 1.368 . S
C985 C969 1.349 . S
C985 H977 0.950 . S
C985 C983 1.327 . S
C986 C974 1.349 . S
C986 H980 0.950 . S
C986 C987 1.327 . S
C987 H981 0.950 . S
C987 C986 1.327 . S
C987 C991 1.429 . S
C988 C971 1.574 . S
C988 H982 0.949 . S
C988 C992 1.368 . S
C989 C970 1.429 . S
C989 C983 1.429 . S
C989 C990 1.523 . S
C990 C971 1.368 . S
C990 C984 1.368 . S
C990 C989 1.523 . S
C991 C975 1.429 . S
C991 C987 1.429 . S
C991 C992 1.523 . S
C992 C976 1.368 . S
C992 C988 1.368 . S
C992 C991 1.523 . S
H993 C968 0.950 . S
H994 C970 0.950 . S
H995 C971 0.949 . S
H996 C973 0.950 . S
H997 C975 0.950 . S
C998 C999 1.349 . S
C998 C1000 1.327 . S
C998 H1023 0.950 . S
C999 C998 1.349 . S
C999 C1015 1.349 . S
C1000 C998 1.327 . S
C1000 C1019 1.429 . S
C1000 H1024 0.950 . S
C1001 C1018 1.574 . S
C1001 C1020 1.368 . S
C1001 H1025 0.949 . S
H1002 C1006 0.949 . S
C1003 C1004 1.349 . S
C1003 C1005 1.327 . S
C1003 H1026 0.950 . S
C1004 C1003 1.349 . S
C1004 C1016 1.349 . S
C1005 C1003 1.327 . S
C1005 C1021 1.429 . S
C1005 H1027 0.950 . S
C1006 H1002 0.949 . S
C1006 C1014 1.574 . S
C1006 C1022 1.368 . S
H1007 C1015 0.950 . S
H1008 C1013 0.950 . S
H1009 C1014 0.949 . S
H1010 C1016 0.950 . S
H1011 C1017 0.950 . S
H1012 C1018 0.949 . S
C1013 H1008 0.950 . S
C1013 C1015 1.327 . S
C1013 C1019 1.429 . S
C1014 C1006 1.574 . S
C1014 H1009 0.949 . S
C1014 C1020 1.368 . S
C1015 C999 1.349 . S
C1015 H1007 0.950 . S
C1015 C1013 1.327 . S
C1016 C1004 1.349 . S
C1016 H1010 0.950 . S
C1016 C1017 1.327 . S
C1017 H1011 0.950 . S
C1017 C1016 1.327 . S
C1017 C1021 1.429 . S
C1018 C1001 1.574 . S
C1018 H1012 0.949 . S
C1018 C1022 1.368 . S
C1019 C1000 1.429 . S
C1019 C1013 1.429 . S
C1019 C1020 1.523 . S
C1020 C1001 1.368 . S
C1020 C1014 1.368 . S
C1020 C1019 1.523 . S
C1021 C1005 1.429 . S
C1021 C1017 1.429 . S
C1021 C1022 1.523 . S
C1022 C1006 1.368 . S
C1022 C1018 1.368 . S
C1022 C1021 1.523 . S
H1023 C998 0.950 . S
H1024 C1000 0.950 . S
H1025 C1001 0.949 . S
H1026 C1003 0.950 . S
H1027 C1005 0.950 . S
C1028 C1029 1.349 . S
C1028 C1030 1.327 . S
C1028 H1053 0.950 . S
C1029 C1028 1.349 . S
C1029 C1045 1.349 . S
C1030 C1028 1.327 . S
C1030 C1049 1.429 . S
C1030 H1054 0.950 . S
C1031 C1048 1.574 . S
C1031 C1050 1.368 . S
C1031 H1055 0.949 . S
H1032 C1036 0.949 . S
C1033 C1034 1.349 . S
C1033 C1035 1.327 . S
C1033 H1056 0.950 . S
C1034 C1033 1.349 . S
C1034 C1046 1.349 . S
C1035 C1033 1.327 . S
C1035 C1051 1.429 . S
C1035 H1057 0.950 . S
C1036 H1032 0.949 . S
C1036 C1044 1.574 . S
C1036 C1052 1.368 . S
H1037 C1045 0.950 . S
H1038 C1043 0.950 . S
H1039 C1044 0.949 . S
H1040 C1046 0.950 . S
H1041 C1047 0.950 . S
H1042 C1048 0.949 . S
C1043 H1038 0.950 . S
C1043 C1045 1.327 . S
C1043 C1049 1.429 . S
C1044 C1036 1.574 . S
C1044 H1039 0.949 . S
C1044 C1050 1.368 . S
C1045 C1029 1.349 . S
C1045 H1037 0.950 . S
C1045 C1043 1.327 . S
C1046 C1034 1.349 . S
C1046 H1040 0.950 . S
C1046 C1047 1.327 . S
C1047 H1041 0.950 . S
C1047 C1046 1.327 . S
C1047 C1051 1.429 . S
C1048 C1031 1.574 . S
C1048 H1042 0.949 . S
C1048 C1052 1.368 . S
C1049 C1030 1.429 . S
C1049 C1043 1.429 . S
C1049 C1050 1.523 . S
C1050 C1031 1.368 . S
C1050 C1044 1.368 . S
C1050 C1049 1.523 . S
C1051 C1035 1.429 . S
C1051 C1047 1.429 . S
C1051 C1052 1.523 . S
C1052 C1036 1.368 . S
C1052 C1048 1.368 . S
C1052 C1051 1.523 . S
H1053 C1028 0.950 . S
H1054 C1030 0.950 . S
H1055 C1031 0.949 . S
H1056 C1033 0.950 . S
H1057 C1035 0.950 . S
C1058 C1059 1.349 . S
C1058 C1060 1.327 . S
C1058 H1083 0.950 . S
C1059 C1058 1.349 . S
C1059 C1075 1.349 . S
C1060 C1058 1.327 . S
C1060 C1079 1.429 . S
C1060 H1084 0.950 . S
C1061 C1078 1.574 . S
C1061 C1080 1.368 . S
C1061 H1085 0.949 . S
H1062 C1066 0.949 . S
C1063 C1064 1.349 . S
C1063 C1065 1.327 . S
C1063 H1086 0.950 . S
C1064 C1063 1.349 . S
C1064 C1076 1.349 . S
C1065 C1063 1.327 . S
C1065 C1081 1.429 . S
C1065 H1087 0.950 . S
C1066 H1062 0.949 . S
C1066 C1074 1.574 . S
C1066 C1082 1.368 . S
H1067 C1075 0.950 . S
H1068 C1073 0.950 . S
H1069 C1074 0.949 . S
H1070 C1076 0.950 . S
H1071 C1077 0.950 . S
H1072 C1078 0.949 . S
C1073 H1068 0.950 . S
C1073 C1075 1.327 . S
C1073 C1079 1.429 . S
C1074 C1066 1.574 . S
C1074 H1069 0.949 . S
C1074 C1080 1.368 . S
C1075 C1059 1.349 . S
C1075 H1067 0.950 . S
C1075 C1073 1.327 . S
C1076 C1064 1.349 . S
C1076 H1070 0.950 . S
C1076 C1077 1.327 . S
C1077 H1071 0.950 . S
C1077 C1076 1.327 . S
C1077 C1081 1.429 . S
C1078 C1061 1.574 . S
C1078 H1072 0.949 . S
C1078 C1082 1.368 . S
C1079 C1060 1.429 . S
C1079 C1073 1.429 . S
C1079 C1080 1.523 . S
C1080 C1061 1.368 . S
C1080 C1074 1.368 . S
C1080 C1079 1.523 . S
C1081 C1065 1.429 . S
C1081 C1077 1.429 . S
C1081 C1082 1.523 . S
C1082 C1066 1.368 . S
C1082 C1078 1.368 . S
C1082 C1081 1.523 . S
H1083 C1058 0.950 . S
H1084 C1060 0.950 . S
H1085 C1061 0.949 . S
H1086 C1063 0.950 . S
H1087 C1065 0.950 . S
C369 C1 1.555 . S
C374 C290 1.553 . S
C399 C67 1.385 . S
C404 C309 1.368 . S
C434 C346 1.711 . S
C429 C97 1.726 . S
C459 C133 1.687 . S
C464 C356 1.633 . S
C494 C326 2.052 . S
C489 C25 2.043 . S
C524 C296 1.443 . S
C519 C37 1.498 . S
C554 C367 1.481 . S
C549 C103 1.501 . S
C584 C337 1.345 . S
C579 C109 1.374 . S
C609 C31 1.819 . S
C614 C350 1.818 . S
C644 C317 1.684 . S
C639 C73 1.731 . S
C669 C139 1.752 . S
C674 C307 1.744 . S
C699 C61 1.201 . S
C704 C329 1.207 . S
C734 C289 1.560 . S
C729 C175 1.525 . S
C759 C181 1.366 . S
C764 C310 1.351 . S
C789 C247 1.755 . S
C794 C347 1.732 . S
C819 C277 1.677 . S
C824 C357 1.622 . S
C849 C145 1.994 . S
C854 C327 2.044 . S
C884 C297 1.450 . S
C879 C211 1.495 . S
C914 C366 1.467 . S
C909 C217 1.487 . S
C944 C336 1.364 . S
C939 C283 1.393 . S
C969 C169 1.769 . S
C974 C349 1.812 . S
C1004 C316 1.690 . S
C999 C241 1.740 . S
C1034 C306 1.731 . S
C1029 C253 1.736 . S
C1059 C205 1.220 . S
C1064 C330 1.219 . S
