# Generated by pormake.
# Topology tsx, (6,3)-cn, num edge types: 1
# Building blocks:
#     Node 0, Type 0, BuildingBlock: CIFDUS_clean_sbu_1, # of connection points: 6
#     Node 1, Type 0, BuildingBlock: CIFDUS_clean_sbu_1, # of connection points: 6
#     Node 2, Type 1, BuildingBlock: PAMTOO_clean_linker_0, # of connection points: 3
#     Node 3, Type 1, BuildingBlock: PAMTOO_clean_linker_0, # of connection points: 3
#     Node 4, Type 1, BuildingBlock: PAMTOO_clean_linker_0, # of connection points: 3
#     Node 5, Type 1, BuildingBlock: PAMTOO_clean_linker_0, # of connection points: 3
#     Edge 6, Type (0, 1), BuildingBlock: UVAHIK_clean_linker_0, # of connection points: 2
#     Edge 7, Type (0, 1), BuildingBlock: UVAHIK_clean_linker_0, # of connection points: 2
#     Edge 8, Type (0, 1), BuildingBlock: UVAHIK_clean_linker_0, # of connection points: 2
#     Edge 9, Type (0, 1), BuildingBlock: UVAHIK_clean_linker_0, # of connection points: 2
#     Edge 10, Type (0, 1), BuildingBlock: UVAHIK_clean_linker_0, # of connection points: 2
#     Edge 11, Type (0, 1), BuildingBlock: UVAHIK_clean_linker_0, # of connection points: 2
#     Edge 12, Type (0, 1), BuildingBlock: UVAHIK_clean_linker_0, # of connection points: 2
#     Edge 13, Type (0, 1), BuildingBlock: UVAHIK_clean_linker_0, # of connection points: 2
#     Edge 14, Type (0, 1), BuildingBlock: UVAHIK_clean_linker_0, # of connection points: 2
#     Edge 15, Type (0, 1), BuildingBlock: UVAHIK_clean_linker_0, # of connection points: 2
#     Edge 16, Type (0, 1), BuildingBlock: UVAHIK_clean_linker_0, # of connection points: 2
#     Edge 17, Type (0, 1), BuildingBlock: UVAHIK_clean_linker_0, # of connection points: 2
# Relax obj value: 0.124
# Max RMSD: 0.146
# Mean RMSD: 0.138
data_MOF--net-tsx--node1-CIFDUS_clean_sbu_1--node2-PAMTOO_clean_linker_0--edge1-UVAHIK_clean_linker_0
_symmetry_space_group_name_H-M    P1
_symmetry_Int_Tables_number       1
_symmetry_cell_setting            triclinic
loop_
_symmetry_equiv_pos_as_xyz
'x, y, z'
_cell_length_a     24.25401
_cell_length_b     29.169248
_cell_length_c     43.946784
_cell_angle_alpha  88.988455
_cell_angle_beta   90.645479
_cell_angle_gamma 90.996119
loop_
_atom_site_label
_atom_site_type_symbol
_atom_site_fract_x
_atom_site_fract_y
_atom_site_fract_z
_atom_type_partial_charge
O0 O 0.01078 0.10176 0.0044 0.0
Mn1 Mn 0.05727 0.04112 0.00451 0.0
O2 O 0.93191 0.087 0.97881 0.0
Mn3 Mn 0.95688 0.03416 0.96146 0.0
O4 O 0.1049 0.98086 0.00433 0.0
O5 O 0.12295 0.07972 0.01836 0.0
Mn6 Mn 0.15613 0.04988 0.04847 0.0
O7 O 0.03253 0.02843 0.04951 0.0
O8 O 0.18026 0.99558 0.03292 0.0
O9 O 0.08173 0.0533 0.95951 0.0
O10 O 0.0063 0.04178 0.93002 0.0
O11 O 0.19672 0.10292 0.04299 0.0
O12 O 0.10564 0.04536 0.07954 0.0
C13 C 0.9533 0.97144 0.98675 0.0
C14 C 0.96214 0.11293 0.99522 0.0
C15 C 0.15259 0.96967 0.01517 0.0
C16 C 0.16024 0.11165 0.02206 0.0
C17 C 0.05513 0.03407 0.07579 0.0
C18 C 0.05753 0.05069 0.93344 0.0
O19 O 0.99122 0.00284 0.99059 0.0
O20 O 0.91717 0.98052 0.96571 0.0
O21 O 0.50776 0.60722 0.50422 0.0
Mn22 Mn 0.55058 0.54489 0.50104 0.0
O23 O 0.42472 0.59631 0.48211 0.0
Mn24 Mn 0.44557 0.54528 0.46124 0.0
O25 O 0.59404 0.48289 0.49727 0.0
O26 O 0.61937 0.58005 0.51445 0.0
Mn27 Mn 0.65572 0.54528 0.54088 0.0
O28 O 0.53008 0.52984 0.54622 0.0
O29 O 0.67645 0.49419 0.52008 0.0
O30 O 0.57127 0.55933 0.45586 0.0
O31 O 0.49199 0.55616 0.42868 0.0
O32 O 0.69676 0.59849 0.53733 0.0
O33 O 0.60904 0.53589 0.57356 0.0
C34 C 0.44234 0.47991 0.48358 0.0
C35 C 0.45849 0.62031 0.49772 0.0
C36 C 0.64363 0.47048 0.5037 0.0
C37 C 0.65807 0.6107 0.51853 0.0
C38 C 0.5571 0.52905 0.57151 0.0
C39 C 0.54411 0.5617 0.43065 0.0
O40 O 0.48158 0.51009 0.48764 0.0
O41 O 0.40462 0.49197 0.46413 0.0
H42 H 0.11431 0.9599 0.38753 0.0
H43 H 0.99586 0.06582 0.39922 0.0
H44 H 0.08935 0.01764 0.47614 0.0
H45 H 0.97427 0.05225 0.49411 0.0
C46 C 0.96533 0.06529 0.47081 0.0
O47 O 0.01474 0.07588 0.45683 0.0
H48 H 0.9426 0.03739 0.45869 0.0
C49 C 0.0931 0.98283 0.40238 0.0
C50 C 0.10716 0.98417 0.43362 0.0
C51 C 0.05283 0.01179 0.38972 0.0
C52 C 0.02733 0.04338 0.40841 0.0
C53 C 0.0408 0.04554 0.43932 0.0
C54 C 0.08041 0.01602 0.45198 0.0
H55 H 0.13972 0.10992 0.61497 0.0
H56 H 0.01663 0.00274 0.60766 0.0
H57 H 0.05336 0.0894 0.53002 0.0
H58 H 0.92499 0.05986 0.53952 0.0
C59 C 0.9354 0.02915 0.55356 0.0
O60 O 0.99106 0.02024 0.551 0.0
H61 H 0.92524 0.03709 0.57753 0.0
C62 C 0.10979 0.09092 0.60143 0.0
C63 C 0.10082 0.10402 0.57092 0.0
C64 C 0.07972 0.05474 0.61503 0.0
C65 C 0.0404 0.03075 0.59754 0.0
C66 C 0.0304 0.04334 0.56705 0.0
C67 C 0.06107 0.07974 0.55357 0.0
H68 H 0.61853 0.45621 0.88626 0.0
H69 H 0.5007 0.5628 0.89709 0.0
H70 H 0.58994 0.51234 0.97494 0.0
H71 H 0.47361 0.54851 0.99134 0.0
C72 C 0.46643 0.56163 0.9679 0.0
O73 O 0.51696 0.57173 0.95497 0.0
H74 H 0.44439 0.53397 0.95518 0.0
C75 C 0.59683 0.479 0.90098 0.0
C76 C 0.60931 0.47952 0.93242 0.0
C77 C 0.55746 0.50847 0.88799 0.0
C78 C 0.5315 0.53996 0.90653 0.0
C79 C 0.54351 0.54144 0.93764 0.0
C80 C 0.58211 0.51128 0.95065 0.0
H81 H 0.62468 0.62489 0.11205 0.0
H82 H 0.50464 0.51516 0.10831 0.0
H83 H 0.5492 0.58928 0.02628 0.0
H84 H 0.42061 0.56268 0.03423 0.0
C85 C 0.42879 0.53313 0.04984 0.0
O86 O 0.48456 0.52367 0.04997 0.0
H87 H 0.41562 0.54321 0.07295 0.0
C88 C 0.59596 0.60398 0.09893 0.0
C89 C 0.59104 0.61144 0.06744 0.0
C90 C 0.56523 0.56954 0.11381 0.0
C91 C 0.52906 0.54166 0.09694 0.0
C92 C 0.52212 0.54938 0.06552 0.0
C93 C 0.55388 0.58383 0.0506 0.0
C94 C 0.12954 0.19191 0.01738 0.0
C95 C 0.16214 0.15664 0.00643 0.0
C96 C 0.14769 0.23777 0.01489 0.0
C97 C 0.22514 0.31499 0.03484 0.0
H98 H 0.31492 0.37044 0.97121 0.0
C99 C 0.39125 0.45322 0.0606 0.0
C100 C 0.39522 0.49129 0.04072 0.0
C101 C 0.35762 0.41541 0.05326 0.0
C102 C 0.2896 0.35567 0.98913 0.0
H103 H 0.23634 0.14163 0.98202 0.0
H104 H 0.26721 0.2212 0.97679 0.0
H105 H 0.2593 0.30162 0.96057 0.0
H106 H 0.36765 0.51939 -0.00265 0.0
H107 H 0.30954 0.45303 0.98419 0.0
H108 H 0.25621 0.36827 0.0636 0.0
C109 C 0.22772 0.21402 0.98727 0.0
C110 C 0.25786 0.31612 0.98306 0.0
C111 C 0.20979 0.1683 0.99 0.0
C112 C 0.36577 0.49036 0.01298 0.0
C113 C 0.33245 0.45235 0.00548 0.0
C114 C 0.25713 0.35422 0.04096 0.0
C115 C 0.19868 0.24904 0.00134 0.0
C116 C 0.22585 0.29483 0.00599 0.0
C117 C 0.3274 0.4146 0.0257 0.0
C118 C 0.29058 0.37461 0.01838 0.0
H119 H 0.0933 0.18375 0.03075 0.0
H120 H 0.12381 0.26398 0.02554 0.0
H121 H 0.20174 0.29929 0.05323 0.0
H122 H 0.41364 0.45309 0.08208 0.0
H123 H 0.35544 0.38664 0.06914 0.0
C124 C 0.23313 0.91738 0.0169 0.0
C125 C 0.17885 0.9258 0.00677 0.0
C126 C 0.26013 0.87764 0.00906 0.0
C127 C 0.24062 0.7588 0.98507 0.0
H128 H 0.39553 0.77208 0.96495 0.0
C129 C 0.37821 0.60402 0.95565 0.0
C130 C 0.43141 0.60397 0.96873 0.0
C131 C 0.34492 0.64264 0.95752 0.0
C132 C 0.35245 0.76765 0.97074 0.0
H133 H 0.11027 0.89778 0.98057 0.0
H134 H 0.15804 0.82729 0.96687 0.0
H135 H 0.34064 0.84005 0.97202 0.0
H136 H 0.49107 0.64389 0.99441 0.0
H137 H 0.43328 0.71149 -0.00236 0.0
H138 H 0.25295 0.68613 0.98419 0.0
C139 C 0.17932 0.85218 0.98097 0.0
C140 C 0.32087 0.80667 0.9747 0.0
C141 C 0.15204 0.89257 0.98873 0.0
C142 C 0.45055 0.64326 0.98381 0.0
C143 C 0.41743 0.68196 0.98554 0.0
C144 C 0.27234 0.71957 0.98103 0.0
C145 C 0.23404 0.84464 0.9908 0.0
C146 C 0.26489 0.80282 0.98265 0.0
C147 C 0.36414 0.68219 0.97241 0.0
C148 C 0.329 0.72355 0.97448 0.0
H149 H 0.2555 0.94173 0.03091 0.0
H150 H 0.30169 0.87263 0.01763 0.0
H151 H 0.19775 0.75462 0.99134 0.0
H152 H 0.36219 0.57403 0.9441 0.0
H153 H 0.30432 0.64168 0.947 0.0
C154 C 0.91384 0.92878 0.03048 0.0
C155 C 0.94709 0.92863 0.00459 0.0
C156 C 0.88406 0.88923 0.03933 0.0
C157 C 0.82251 0.78737 0.00201 0.0
H158 H 0.76875 0.75952 0.08301 0.0
C159 C 0.66556 0.63836 0.03158 0.0
C160 C 0.62597 0.64835 0.05349 0.0
C161 C 0.70761 0.67045 0.02449 0.0
C162 C 0.7831 0.76707 0.06019 0.0
H163 H 0.97927 0.88641 0.96923 0.0
H164 H 0.93 0.81668 0.98554 0.0
H165 H 0.84356 0.81553 0.07626 0.0
H166 H 0.59667 0.70072 0.08333 0.0
H167 H 0.66899 0.75667 0.0707 0.0
H168 H 0.76165 0.7389 0.98604 0.0
C169 C 0.92538 0.84747 -0.00139 0.0
C170 C 0.82615 0.79918 0.05632 0.0
C171 C 0.95472 0.88713 0.98967 0.0
C172 C 0.62686 0.69205 0.06647 0.0
C173 C 0.66869 0.72387 0.05951 0.0
C174 C 0.77967 0.75498 0.00592 0.0
C175 C 0.88708 0.84872 0.02241 0.0
C176 C 0.84591 0.81045 0.02712 0.0
C177 C 0.71077 0.71292 0.0393 0.0
C178 C 0.75867 0.74512 0.035 0.0
H179 H 0.90605 0.96068 0.04182 0.0
H180 H 0.855 0.89183 0.05771 0.0
H181 H 0.83569 0.79559 0.97907 0.0
H182 H 0.66615 0.60476 0.02149 0.0
H183 H 0.73928 0.66103 0.00871 0.0
C184 C 0.96816 0.19873 0.99305 0.0
C185 C 0.93985 0.15839 0.00196 0.0
C186 C 0.94069 0.24073 0.99192 0.0
C187 C 0.81543 0.30169 0.01529 0.0
H188 H 0.81426 0.35176 0.93295 0.0
C189 C 0.68593 0.45908 0.96993 0.0
C190 C 0.65048 0.44673 0.94563 0.0
C191 C 0.72633 0.4288 0.98083 0.0
C192 C 0.81476 0.33855 0.95615 0.0
H193 H 0.86245 0.13051 0.0187 0.0
H194 H 0.8153 0.2038 0.0179 0.0
H195 H 0.87957 0.29187 0.94711 0.0
H196 H 0.62839 0.3911 0.91526 0.0
H197 H 0.70025 0.33997 0.93322 0.0
H198 H 0.74948 0.34791 0.02394 0.0
C199 C 0.85831 0.20322 0.01154 0.0
C200 C 0.85236 0.30453 0.96433 0.0
C201 C 0.88526 0.16126 0.01199 0.0
C202 C 0.65584 0.40283 0.9332 0.0
C203 C 0.69681 0.37319 0.94362 0.0
C204 C 0.77851 0.33649 0.00725 0.0
C205 C 0.88494 0.24308 0.00034 0.0
C206 C 0.85212 0.28481 0.99374 0.0
C207 C 0.73274 0.38597 0.96732 0.0
C208 C 0.77684 0.35425 0.97735 0.0
H209 H 0.01001 0.19726 0.98481 0.0
H210 H 0.96221 0.27097 0.98322 0.0
H211 H 0.81427 0.28703 0.0381 0.0
H212 H 0.68356 0.49255 0.98003 0.0
H213 H 0.75356 0.43933 -0.00078 0.0
C214 C 0.6295 0.69185 0.51908 0.0
C215 C 0.65982 0.65744 0.50536 0.0
C216 C 0.64842 0.73762 0.51798 0.0
C217 C 0.72893 0.81283 0.53792 0.0
H218 H 0.81255 0.87239 0.47329 0.0
C219 C 0.89828 0.94874 0.563 0.0
C220 C 0.9009 0.98799 0.5441 0.0
C221 C 0.86372 0.91156 0.55549 0.0
C222 C 0.78899 0.85648 0.49153 0.0
H223 H 0.73071 0.6441 0.47772 0.0
H224 H 0.76283 0.72355 0.47496 0.0
H225 H 0.75501 0.80487 0.4622 0.0
H226 H 0.87025 0.01877 0.50216 0.0
H227 H 0.81036 0.95358 0.48874 0.0
H228 H 0.76354 0.86377 0.56737 0.0
C229 C 0.72451 0.71581 0.48654 0.0
C230 C 0.75615 0.81763 0.4852 0.0
C231 C 0.70584 0.67018 0.48786 0.0
C232 C 0.86931 0.98883 0.51707 0.0
C233 C 0.83499 0.95148 0.50941 0.0
C234 C 0.76198 0.85139 0.54428 0.0
C235 C 0.69793 0.74969 0.50308 0.0
C236 C 0.72632 0.79483 0.50842 0.0
C237 C 0.83118 0.91257 0.52873 0.0
C238 C 0.79326 0.87327 0.52132 0.0
H239 H 0.59461 0.68278 0.53329 0.0
H240 H 0.62638 0.76297 0.53056 0.0
H241 H 0.70729 0.79595 0.55653 0.0
H242 H 0.92241 0.94719 0.58388 0.0
H243 H 0.86262 0.88187 0.57063 0.0
C244 C 0.71895 0.42959 0.47887 0.0
C245 C 0.6661 0.42781 0.49155 0.0
C246 C 0.74715 0.38947 0.47312 0.0
C247 C 0.73596 0.26235 0.46867 0.0
H248 H 0.89011 0.27103 0.49279 0.0
C249 C 0.89056 0.11589 0.44877 0.0
C250 C 0.92972 0.10716 0.47185 0.0
C251 C 0.85647 0.15408 0.45014 0.0
C252 C 0.8471 0.26771 0.48618 0.0
H253 H 0.59987 0.38269 0.50676 0.0
H254 H 0.64977 0.31174 0.49717 0.0
H255 H 0.83242 0.33774 0.49618 0.0
H256 H 0.96545 0.1322 0.51382 0.0
H257 H 0.90564 0.19848 0.51662 0.0
H258 H 0.75078 0.19163 0.45949 0.0
C259 C 0.66914 0.34437 0.49128 0.0
C260 C 0.81402 0.30632 0.48769 0.0
C261 C 0.64043 0.3849 0.4967 0.0
C262 C 0.93521 0.13796 0.4959 0.0
C263 C 0.9011 0.17606 0.49734 0.0
C264 C 0.76921 0.22352 0.46718 0.0
C265 C 0.72373 0.34631 0.48045 0.0
C266 C 0.75808 0.30437 0.47879 0.0
C267 C 0.86112 0.18464 0.47451 0.0
C268 C 0.82528 0.22572 0.47593 0.0
H269 H 0.7395 0.46231 0.47451 0.0
H270 H 0.7883 0.3924 0.46388 0.0
H271 H 0.69316 0.25956 0.46157 0.0
H272 H 0.88613 0.09294 0.42975 0.0
H273 H 0.82698 0.15998 0.43186 0.0
C274 C 0.41464 0.4332 0.52866 0.0
C275 C 0.43689 0.43517 0.49934 0.0
C276 C 0.38539 0.39393 0.53866 0.0
C277 C 0.34664 0.27277 0.52077 0.0
H278 H 0.2029 0.30805 0.54903 0.0
C279 C 0.16531 0.14044 0.53238 0.0
C280 C 0.13304 0.14397 0.55855 0.0
C281 C 0.20337 0.17548 0.52449 0.0
C282 C 0.24297 0.2973 0.54157 0.0
H283 H 0.45006 0.39683 0.45848 0.0
H284 H 0.40102 0.32788 0.4762 0.0
H285 H 0.27426 0.36633 0.541 0.0
H286 H 0.11289 0.18801 0.59586 0.0
H287 H 0.17895 0.24821 0.58259 0.0
H288 H 0.31529 0.20357 0.5215 0.0
C289 C 0.40577 0.35634 0.49156 0.0
C290 C 0.28411 0.33086 0.53708 0.0
C291 C 0.43439 0.39572 0.48149 0.0
C292 C 0.1374 0.1842 0.57562 0.0
C293 C 0.17523 0.21894 0.56786 0.0
C294 C 0.30553 0.239 0.52555 0.0
C295 C 0.37821 0.35594 0.51953 0.0
C296 C 0.3365 0.31913 0.52663 0.0
C297 C 0.2097 0.21481 0.54256 0.0
C298 C 0.25304 0.25079 0.53605 0.0
H299 H 0.41489 0.46353 0.54256 0.0
H300 H 0.36535 0.39445 0.56055 0.0
H301 H 0.38652 0.26256 0.51265 0.0
H302 H 0.163 0.10973 0.51888 0.0
H303 H 0.22844 0.17139 0.50452 0.0
C304 C 0.38738 0.67133 0.518 0.0
C305 C 0.44003 0.66653 0.50558 0.0
C306 C 0.36152 0.71379 0.51725 0.0
C307 C 0.35191 0.81021 0.46574 0.0
H308 H 0.25471 0.86011 0.5259 0.0
C309 C 0.15518 0.90808 0.43455 0.0
C310 C 0.14952 0.95221 0.44658 0.0
C311 C 0.19681 0.87907 0.44498 0.0
C312 C 0.28213 0.84686 0.509 0.0
H313 H 0.50834 0.70265 0.48418 0.0
H314 H 0.46255 0.77716 0.48224 0.0
H315 H 0.32041 0.80042 0.54099 0.0
H316 H 0.18309 0.99924 0.48013 0.0
H317 H 0.25426 0.94722 0.49929 0.0
H318 H 0.31143 0.85448 0.4334 0.0
C319 C 0.44165 0.7481 0.49294 0.0
C320 C 0.3196 0.81273 0.51759 0.0
C321 C 0.46807 0.70565 0.49432 0.0
C322 C 0.18558 0.96554 0.47037 0.0
C323 C 0.22668 0.93592 0.48127 0.0
C324 C 0.31381 0.84357 0.45707 0.0
C325 C 0.38728 0.75215 0.50339 0.0
C326 C 0.35424 0.79348 0.49591 0.0
C327 C 0.23323 0.89275 0.46824 0.0
C328 C 0.27783 0.86158 0.47847 0.0
H329 H 0.3647 0.6415 0.52648 0.0
H330 H 0.31955 0.71564 0.52526 0.0
H331 H 0.37744 0.79567 0.44842 0.0
H332 H 0.12736 0.89564 0.417 0.0
H333 H 0.20029 0.84558 0.43496 0.0
C334 C 0.01867 0.06495 0.12321 0.0
C335 C 0.02255 0.02794 0.1035 0.0
C336 C 1.00175 0.05781 0.15314 0.0
C337 C 0.01646 0.97095 0.21179 0.0
H338 H 0.93853 0.05798 0.26042 0.0
C339 C 0.02906 0.96613 0.34327 0.0
C340 C 0.03714 0.00892 0.35702 0.0
C341 C 0.0143 0.96351 0.31248 0.0
C342 C 0.96055 0.03339 0.24718 0.0
H343 H 0.00929 0.95492 0.09861 0.0
H344 H 0.98006 0.94201 0.15151 0.0
H345 H 0.93026 0.06171 0.20502 0.0
H346 H 0.03634 0.08248 0.34921 0.0
H347 H 0.01151 0.07803 0.29552 0.0
H348 H 0.04923 0.94418 0.25369 0.0
C349 C 0.98962 0.97663 0.14369 0.0
C350 C 0.95546 0.03535 0.21548 0.0
C351 C 1.0058 0.98398 0.11345 0.0
C352 C 0.02974 0.04901 0.33938 0.0
C353 C 0.0152 0.04641 0.30861 0.0
C354 C 0.02178 0.96912 0.24349 0.0
C355 C 0.9894 0.0133 0.1641 0.0
C356 C 0.98476 0.00508 0.19741 0.0
C357 C 0.00745 0.00365 0.29473 0.0
C358 C 0.99531 0.00129 0.26151 0.0
H359 H 0.03213 0.09902 0.11598 0.0
H360 H 1.00266 0.08669 0.16832 0.0
H361 H 0.04017 0.94753 0.19851 0.0
H362 H 0.03362 0.93462 0.35641 0.0
H363 H 0.00809 0.93004 0.30261 0.0
C364 C 0.08828 0.09749 0.88918 0.0
C365 C 0.08938 0.05584 0.90549 0.0
C366 C 0.10137 0.09893 0.85829 0.0
C367 C 0.07364 0.08066 0.79271 0.0
H368 H 0.17572 0.00376 0.75058 0.0
C369 C 0.04046 0.04044 0.66687 0.0
C370 C 0.08679 0.04529 0.64814 0.0
C371 C 0.04667 0.03947 0.69851 0.0
C372 C 0.14719 0.02561 0.76203 0.0
H373 H 0.10765 0.98371 0.90343 0.0
H374 H 0.13029 0.98586 0.84945 0.0
H375 H 0.18388 0.01178 0.80579 0.0
H376 H 0.17615 0.04946 0.6478 0.0
H377 H 0.18693 0.04836 0.70307 0.0
H378 H 0.03702 0.09472 0.7492 0.0
C379 C 0.12052 0.01767 0.86035 0.0
C380 C 0.15173 0.03007 0.79364 0.0
C381 C 0.10773 0.01637 0.89128 0.0
C382 C 0.13962 0.04631 0.66169 0.0
C383 C 0.14584 0.04534 0.69334 0.0
C384 C 0.06909 0.07617 0.76125 0.0
C385 C 0.11477 0.0585 0.84318 0.0
C386 C 0.11465 0.05737 0.80937 0.0
C387 C 0.09932 0.04332 0.7121 0.0
C388 C 0.10527 0.04814 0.74557 0.0
H389 H 0.07333 0.12813 0.89972 0.0
H390 H 0.09758 0.1311 0.84582 0.0
H391 H 0.04371 0.10131 0.80406 0.0
H392 H 0.99922 0.0398 0.65715 0.0
H393 H 0.01006 0.03694 0.71237 0.0
C394 C 0.51623 0.47801 0.61143 0.0
C395 C 0.52762 0.52235 0.60015 0.0
C396 C 0.50197 0.47126 0.64198 0.0
C397 C 0.46506 0.53164 0.71285 0.0
H398 H 0.56181 0.44341 0.75189 0.0
C399 C 0.53602 0.54621 0.83756 0.0
C400 C 0.54302 0.50597 0.85511 0.0
C401 C 0.52274 0.54385 0.80661 0.0
C402 C 0.53364 0.46757 0.74142 0.0
H403 H 0.53064 0.59444 0.61071 0.0
H404 H 0.50529 0.58304 0.66385 0.0
H405 H 0.55364 0.44607 0.6967 0.0
H406 H 0.53995 0.43166 0.85415 0.0
H407 H 0.51693 0.42752 0.80004 0.0
H408 H 0.44663 0.55419 0.75764 0.0
C409 C 0.50653 0.5534 0.64939 0.0
C410 C 0.52881 0.469 0.70972 0.0
C411 C 0.52111 0.56003 0.619 0.0
C412 C 0.53577 0.46329 0.8411 0.0
C413 C 0.52243 0.46092 0.81014 0.0
C414 C 0.46983 0.53017 0.74457 0.0
C415 C 0.49898 0.50884 0.66155 0.0
C416 C 0.49567 0.5019 0.69504 0.0
C417 C 0.51605 0.50118 0.79249 0.0
C418 C 0.50539 0.49897 0.75917 0.0
H419 H 0.52183 0.44852 0.5972 0.0
H420 H 0.49592 0.43657 0.65065 0.0
H421 H 0.43866 0.55699 0.7022 0.0
H422 H 0.54195 0.57961 0.84759 0.0
H423 H 0.51922 0.57554 0.79357 0.0
C424 C 0.60884 0.534 0.39195 0.0
C425 C 0.5736 0.56813 0.40196 0.0
C426 C 0.62455 0.53328 0.36141 0.0
C427 C 0.63051 0.59988 0.28972 0.0
H428 H 0.57087 0.49055 0.25153 0.0
C429 C 0.56264 0.60337 0.16521 0.0
C430 C 0.57029 0.56482 0.14722 0.0
C431 C 0.57281 0.60122 0.19644 0.0
C432 C 0.58891 0.5209 0.26173 0.0
H433 H 0.53006 0.62972 0.38914 0.0
H434 H 0.55941 0.62975 0.33615 0.0
H435 H 0.57907 0.49317 0.30686 0.0
H436 H 0.59357 0.49356 0.14751 0.0
H437 H 0.61243 0.4897 0.20246 0.0
H438 H 0.63985 0.62803 0.24485 0.0
C439 C 0.57461 0.60341 0.35162 0.0
C440 C 0.59367 0.52234 0.29343 0.0
C441 C 0.55785 0.60347 0.38186 0.0
C442 C 0.587 0.52359 0.16108 0.0
C443 C 0.59786 0.52151 0.19246 0.0
C444 C 0.62653 0.59824 0.25805 0.0
C445 C 0.60615 0.5673 0.34085 0.0
C446 C 0.61274 0.56241 0.30768 0.0
C447 C 0.59166 0.56059 0.21043 0.0
C448 C 0.60363 0.55942 0.24371 0.0
H449 H 0.62061 0.50604 0.40709 0.0
H450 H 0.64884 0.50511 0.35355 0.0
H451 H 0.64569 0.63103 0.30023 0.0
H452 H 0.54928 0.63544 0.15498 0.0
H453 H 0.5658 0.63155 0.20961 0.0
loop_
_geom_bond_atom_site_label_1
_geom_bond_atom_site_label_2
_geom_bond_distance
_geom_bond_site_symmetry_2
_ccdc_geom_bond_type
O0 Mn1 2.163 . S
O0 C14 1.244 1_454 S
Mn1 O0 2.163 . S
Mn1 O4 2.159 1_544 S
Mn1 O5 2.221 . S
Mn1 O7 2.163 . S
Mn1 O9 2.160 1_554 S
Mn1 O19 2.221 1_444 S
O2 Mn3 2.087 . S
O2 C14 1.256 . S
Mn3 O2 2.087 . S
Mn3 O10 2.089 . S
Mn3 O19 2.290 1_545 S
Mn3 O20 2.227 1_546 S
O4 Mn1 2.159 1_566 S
O4 C15 1.231 1_556 S
O5 Mn1 2.221 . S
O5 Mn6 2.290 . S
O5 C16 1.278 . S
Mn6 O5 2.290 . S
Mn6 O8 2.089 1_545 S
Mn6 O11 2.251 . S
Mn6 O12 2.087 . S
O7 Mn1 2.163 . S
O7 C17 1.244 . S
O8 Mn6 2.089 1_565 S
O8 C15 1.256 . S
O9 Mn1 2.160 1_556 S
O9 C18 1.239 . S
O10 Mn3 2.089 . S
O10 C18 1.256 1_655 S
O11 Mn6 2.251 . S
O11 C16 1.241 . S
O12 Mn6 2.087 . S
O12 C17 1.256 . S
C13 O19 1.278 1_554 S
C13 O20 1.248 . S
C14 O0 1.244 1_656 S
C14 O2 1.256 . S
C15 O4 1.231 1_554 S
C15 O8 1.256 . S
C16 O5 1.278 . S
C16 O11 1.241 . S
C17 O7 1.244 . S
C17 O12 1.256 . S
C18 O9 1.239 . S
C18 O10 1.256 1_455 S
O19 Mn1 2.221 1_666 S
O19 Mn3 2.290 1_565 S
O19 C13 1.278 1_556 S
O20 Mn3 2.227 1_564 S
O20 C13 1.248 . S
O21 Mn22 2.163 . S
O21 C35 1.244 . S
Mn22 O21 2.163 . S
Mn22 O25 2.160 . S
Mn22 O26 2.221 . S
Mn22 O28 2.163 . S
Mn22 O30 2.160 . S
Mn22 O40 2.221 . S
O23 Mn24 2.087 . S
O23 C35 1.256 . S
Mn24 O23 2.087 . S
Mn24 O31 2.089 . S
Mn24 O40 2.290 . S
Mn24 O41 2.251 . S
O25 Mn22 2.160 . S
O25 C36 1.239 . S
O26 Mn22 2.221 . S
O26 Mn27 2.290 . S
O26 C37 1.278 . S
Mn27 O26 2.290 . S
Mn27 O29 2.089 . S
Mn27 O32 2.251 . S
Mn27 O33 2.087 . S
O28 Mn22 2.163 . S
O28 C38 1.244 . S
O29 Mn27 2.089 . S
O29 C36 1.256 . S
O30 Mn22 2.160 . S
O30 C39 1.239 . S
O31 Mn24 2.089 . S
O31 C39 1.256 . S
O32 Mn27 2.251 . S
O32 C37 1.241 . S
O33 Mn27 2.087 . S
O33 C38 1.256 . S
C34 O40 1.278 . S
C34 O41 1.241 . S
C35 O21 1.244 . S
C35 O23 1.256 . S
C36 O25 1.239 . S
C36 O29 1.256 . S
C37 O26 1.278 . S
C37 O32 1.241 . S
C38 O28 1.244 . S
C38 O33 1.256 . S
C39 O30 1.239 . S
C39 O31 1.256 . S
O40 Mn22 2.221 . S
O40 Mn24 2.290 . S
O40 C34 1.278 . S
O41 Mn24 2.251 . S
O41 C34 1.241 . S
H42 C49 0.929 . S
H43 C52 0.930 . S
H44 C54 0.929 . S
H45 C46 0.969 . S
C46 H45 0.969 . S
C46 O47 1.550 1_655 S
C46 H48 0.973 . S
O47 C46 1.550 1_455 S
O47 C53 1.412 . S
H48 C46 0.973 . S
C49 H42 0.929 . S
C49 C50 1.400 . S
C49 C51 1.364 . S
C50 C49 1.400 . S
C50 C54 1.377 . S
C51 C49 1.364 . S
C51 C52 1.374 1_565 S
C52 H43 0.930 . S
C52 C51 1.374 1_545 S
C52 C53 1.383 . S
C53 O47 1.412 . S
C53 C52 1.383 . S
C53 C54 1.394 1_545 S
C54 H44 0.929 . S
C54 C50 1.377 . S
C54 C53 1.394 1_565 S
H55 C62 0.929 . S
H56 C65 0.930 . S
H57 C67 0.929 . S
H58 C59 0.969 . S
C59 H58 0.969 . S
C59 O60 1.550 . S
C59 H61 0.961 1_545 S
O60 C59 1.550 . S
O60 C66 1.412 . S
H61 C59 0.961 1_565 S
C62 H55 0.929 . S
C62 C63 1.400 . S
C62 C64 1.364 . S
C63 C62 1.400 . S
C63 C67 1.377 . S
C64 C62 1.364 . S
C64 C65 1.374 1_455 S
C65 H56 0.930 . S
C65 C64 1.374 1_655 S
C65 C66 1.383 . S
C66 O60 1.412 . S
C66 C65 1.383 . S
C66 C67 1.394 1_655 S
C67 H57 0.929 . S
C67 C63 1.377 . S
C67 C66 1.394 1_455 S
H68 C75 0.929 . S
H69 C78 0.930 . S
H70 C80 0.929 . S
H71 C72 0.969 . S
C72 H71 0.969 . S
C72 O73 1.550 . S
C72 H74 0.973 . S
O73 C72 1.550 . S
O73 C79 1.412 . S
H74 C72 0.973 . S
C75 H68 0.929 . S
C75 C76 1.400 . S
C75 C77 1.364 . S
C76 C75 1.400 . S
C76 C80 1.377 . S
C77 C75 1.364 . S
C77 C78 1.374 . S
C78 H69 0.930 . S
C78 C77 1.374 . S
C78 C79 1.383 . S
C79 O73 1.412 . S
C79 C78 1.383 . S
C79 C80 1.394 . S
C80 H70 0.929 . S
C80 C76 1.377 . S
C80 C79 1.394 . S
H81 C88 0.929 . S
H82 C91 0.930 . S
H83 C93 0.929 . S
H84 C85 0.969 . S
C85 H84 0.969 . S
C85 O86 1.550 . S
C85 H87 0.973 . S
O86 C85 1.550 . S
O86 C92 1.412 . S
H87 C85 0.973 . S
C88 H81 0.929 . S
C88 C89 1.400 . S
C88 C90 1.364 . S
C89 C88 1.400 . S
C89 C93 1.377 . S
C90 C88 1.364 . S
C90 C91 1.374 . S
C91 H82 0.930 . S
C91 C90 1.374 . S
C91 C92 1.383 . S
C92 O86 1.412 . S
C92 C91 1.383 . S
C92 C93 1.394 . S
C93 H83 0.929 . S
C93 C89 1.377 . S
C93 C92 1.394 . S
C94 C95 1.349 1_556 S
C94 C96 1.327 . S
C94 H119 0.950 . S
C95 C94 1.349 1_554 S
C95 C111 1.349 . S
C96 C94 1.327 . S
C96 C115 1.429 1_556 S
C96 H120 0.950 . S
C97 C114 1.574 . S
C97 C116 1.368 . S
C97 H121 0.949 . S
H98 C102 0.949 1_556 S
C99 C100 1.349 . S
C99 C101 1.327 . S
C99 H122 0.950 . S
C100 C99 1.349 . S
C100 C112 1.349 . S
C101 C99 1.327 . S
C101 C117 1.429 . S
C101 H123 0.950 . S
C102 H98 0.949 1_554 S
C102 C110 1.574 1_554 S
C102 C118 1.368 . S
H103 C111 0.950 . S
H104 C109 0.950 . S
H105 C110 0.949 . S
H106 C112 0.950 . S
H107 C113 0.950 1_556 S
H108 C114 0.949 . S
C109 H104 0.950 . S
C109 C111 1.327 . S
C109 C115 1.429 . S
C110 C102 1.574 1_556 S
C110 H105 0.949 . S
C110 C116 1.368 1_556 S
C111 C95 1.349 . S
C111 H103 0.950 . S
C111 C109 1.327 . S
C112 C100 1.349 . S
C112 H106 0.950 . S
C112 C113 1.327 . S
C113 H107 0.950 1_554 S
C113 C112 1.327 . S
C113 C117 1.429 . S
C114 C97 1.574 . S
C114 H108 0.949 . S
C114 C118 1.368 . S
C115 C96 1.429 1_554 S
C115 C109 1.429 . S
C115 C116 1.523 . S
C116 C97 1.368 . S
C116 C110 1.368 1_554 S
C116 C115 1.523 . S
C117 C101 1.429 . S
C117 C113 1.429 . S
C117 C118 1.523 . S
C118 C102 1.368 . S
C118 C114 1.368 . S
C118 C117 1.523 . S
H119 C94 0.950 . S
H120 C96 0.950 . S
H121 C97 0.949 . S
H122 C99 0.950 . S
H123 C101 0.950 . S
C124 C125 1.349 1_556 S
C124 C126 1.327 . S
C124 H149 0.950 . S
C125 C124 1.349 1_554 S
C125 C141 1.349 . S
C126 C124 1.327 . S
C126 C145 1.429 1_556 S
C126 H150 0.950 . S
C127 C144 1.574 . S
C127 C146 1.368 1_554 S
C127 H151 0.949 . S
H128 C132 0.949 . S
C129 C130 1.349 1_554 S
C129 C131 1.327 . S
C129 H152 0.950 . S
C130 C129 1.349 1_556 S
C130 C142 1.349 . S
C131 C129 1.327 . S
C131 C147 1.429 1_554 S
C131 H153 0.950 . S
C132 H128 0.949 . S
C132 C140 1.574 . S
C132 C148 1.368 . S
H133 C141 0.950 . S
H134 C139 0.950 . S
H135 C140 0.949 . S
H136 C142 0.950 . S
H137 C143 0.950 . S
H138 C144 0.949 . S
C139 H134 0.950 . S
C139 C141 1.327 . S
C139 C145 1.429 . S
C140 C132 1.574 . S
C140 H135 0.949 . S
C140 C146 1.368 . S
C141 C125 1.349 . S
C141 H133 0.950 . S
C141 C139 1.327 . S
C142 C130 1.349 . S
C142 H136 0.950 . S
C142 C143 1.327 . S
C143 H137 0.950 . S
C143 C142 1.327 . S
C143 C147 1.429 . S
C144 C127 1.574 . S
C144 H138 0.949 . S
C144 C148 1.368 1_554 S
C145 C126 1.429 1_554 S
C145 C139 1.429 . S
C145 C146 1.523 1_554 S
C146 C127 1.368 1_556 S
C146 C140 1.368 . S
C146 C145 1.523 1_556 S
C147 C131 1.429 1_556 S
C147 C143 1.429 . S
C147 C148 1.523 . S
C148 C132 1.368 . S
C148 C144 1.368 1_556 S
C148 C147 1.523 . S
H149 C124 0.950 . S
H150 C126 0.950 . S
H151 C127 0.949 . S
H152 C129 0.950 . S
H153 C131 0.950 . S
C154 C155 1.349 . S
C154 C156 1.327 . S
C154 H179 0.950 . S
C155 C154 1.349 . S
C155 C171 1.349 1_554 S
C156 C154 1.327 . S
C156 C175 1.429 . S
C156 H180 0.950 . S
C157 C174 1.574 . S
C157 C176 1.368 . S
C157 H181 0.949 1_554 S
H158 C162 0.949 . S
C159 C160 1.349 . S
C159 C161 1.327 . S
C159 H182 0.950 . S
C160 C159 1.349 . S
C160 C172 1.349 . S
C161 C159 1.327 . S
C161 C177 1.429 . S
C161 H183 0.950 . S
C162 H158 0.949 . S
C162 C170 1.574 . S
C162 C178 1.368 . S
H163 C171 0.950 . S
H164 C169 0.951 . S
H165 C170 0.949 . S
H166 C172 0.950 . S
H167 C173 0.950 . S
H168 C174 0.949 1_556 S
C169 H164 0.951 . S
C169 C171 1.327 . S
C169 C175 1.427 1_556 S
C170 C162 1.574 . S
C170 H165 0.949 . S
C170 C176 1.368 . S
C171 C155 1.349 1_556 S
C171 H163 0.950 . S
C171 C169 1.327 . S
C172 C160 1.349 . S
C172 H166 0.950 . S
C172 C173 1.327 . S
C173 H167 0.950 . S
C173 C172 1.327 . S
C173 C177 1.429 . S
C174 C157 1.574 . S
C174 H168 0.949 1_554 S
C174 C178 1.368 . S
C175 C156 1.429 . S
C175 C169 1.427 1_554 S
C175 C176 1.523 . S
C176 C157 1.368 . S
C176 C170 1.368 . S
C176 C175 1.523 . S
C177 C161 1.429 . S
C177 C173 1.429 . S
C177 C178 1.523 . S
C178 C162 1.368 . S
C178 C174 1.368 . S
C178 C177 1.523 . S
H179 C154 0.950 . S
H180 C156 0.950 . S
H181 C157 0.949 1_556 S
H182 C159 0.950 . S
H183 C161 0.950 . S
C184 C185 1.349 . S
C184 C186 1.327 . S
C184 H209 0.950 . S
C185 C184 1.349 . S
C185 C201 1.349 1_556 S
C186 C184 1.327 . S
C186 C205 1.429 . S
C186 H210 0.950 . S
C187 C204 1.569 1_554 S
C187 C206 1.346 1_554 S
C187 H211 0.974 . S
H188 C192 0.949 . S
C189 C190 1.349 . S
C189 C191 1.327 . S
C189 H212 0.950 . S
C190 C189 1.349 . S
C190 C202 1.349 . S
C191 C189 1.327 . S
C191 C207 1.429 . S
C191 H213 0.928 1_556 S
C192 H188 0.949 . S
C192 C200 1.574 . S
C192 C208 1.368 . S
H193 C201 0.950 . S
H194 C199 0.950 . S
H195 C200 0.949 . S
H196 C202 0.950 . S
H197 C203 0.950 . S
H198 C204 0.949 1_554 S
C199 H194 0.950 . S
C199 C201 1.327 . S
C199 C205 1.429 1_554 S
C200 C192 1.574 . S
C200 H195 0.949 . S
C200 C206 1.368 . S
C201 C185 1.349 1_554 S
C201 H193 0.950 . S
C201 C199 1.327 . S
C202 C190 1.349 . S
C202 H196 0.950 . S
C202 C203 1.327 . S
C203 H197 0.950 . S
C203 C202 1.327 . S
C203 C207 1.429 . S
C204 C187 1.569 1_556 S
C204 H198 0.949 1_556 S
C204 C208 1.368 . S
C205 C186 1.429 . S
C205 C199 1.429 1_556 S
C205 C206 1.523 . S
C206 C187 1.346 1_556 S
C206 C200 1.368 . S
C206 C205 1.523 . S
C207 C191 1.429 . S
C207 C203 1.429 . S
C207 C208 1.523 . S
C208 C192 1.368 . S
C208 C204 1.368 . S
C208 C207 1.523 . S
H209 C184 0.950 . S
H210 C186 0.950 . S
H211 C187 0.974 . S
H212 C189 0.950 . S
H213 C191 0.928 1_554 S
C214 C215 1.349 . S
C214 C216 1.327 . S
C214 H239 0.950 . S
C215 C214 1.349 . S
C215 C231 1.349 . S
C216 C214 1.327 . S
C216 C235 1.429 . S
C216 H240 0.950 . S
C217 C234 1.574 . S
C217 C236 1.368 . S
C217 H241 0.949 . S
H218 C222 0.949 . S
C219 C220 1.349 . S
C219 C221 1.327 . S
C219 H242 0.950 . S
C220 C219 1.349 . S
C220 C232 1.349 . S
C221 C219 1.327 . S
C221 C237 1.429 . S
C221 H243 0.950 . S
C222 H218 0.949 . S
C222 C230 1.574 . S
C222 C238 1.368 . S
H223 C231 0.950 . S
H224 C229 0.950 . S
H225 C230 0.949 . S
H226 C232 0.950 1_545 S
H227 C233 0.950 . S
H228 C234 0.949 . S
C229 H224 0.950 . S
C229 C231 1.327 . S
C229 C235 1.429 . S
C230 C222 1.574 . S
C230 H225 0.949 . S
C230 C236 1.368 . S
C231 C215 1.349 . S
C231 H223 0.950 . S
C231 C229 1.327 . S
C232 C220 1.349 . S
C232 H226 0.950 1_565 S
C232 C233 1.327 . S
C233 H227 0.950 . S
C233 C232 1.327 . S
C233 C237 1.429 . S
C234 C217 1.574 . S
C234 H228 0.949 . S
C234 C238 1.368 . S
C235 C216 1.429 . S
C235 C229 1.429 . S
C235 C236 1.523 . S
C236 C217 1.368 . S
C236 C230 1.368 . S
C236 C235 1.523 . S
C237 C221 1.429 . S
C237 C233 1.429 . S
C237 C238 1.523 . S
C238 C222 1.368 . S
C238 C234 1.368 . S
C238 C237 1.523 . S
H239 C214 0.950 . S
H240 C216 0.950 . S
H241 C217 0.949 . S
H242 C219 0.950 . S
H243 C221 0.950 . S
C244 C245 1.349 . S
C244 C246 1.327 . S
C244 H269 0.950 . S
C245 C244 1.349 . S
C245 C261 1.349 . S
C246 C244 1.327 . S
C246 C265 1.429 . S
C246 H270 0.950 . S
C247 C264 1.574 . S
C247 C266 1.368 . S
C247 H271 0.949 . S
H248 C252 0.949 . S
C249 C250 1.349 . S
C249 C251 1.327 . S
C249 H272 0.950 . S
C250 C249 1.349 . S
C250 C262 1.349 . S
C251 C249 1.327 . S
C251 C267 1.429 . S
C251 H273 0.950 . S
C252 H248 0.949 . S
C252 C260 1.574 . S
C252 C268 1.368 . S
H253 C261 0.950 . S
H254 C259 0.950 . S
H255 C260 0.949 . S
H256 C262 0.950 1_455 S
H257 C263 0.950 . S
H258 C264 0.949 . S
C259 H254 0.950 . S
C259 C261 1.327 . S
C259 C265 1.429 . S
C260 C252 1.574 . S
C260 H255 0.949 . S
C260 C266 1.368 . S
C261 C245 1.349 . S
C261 H253 0.950 . S
C261 C259 1.327 . S
C262 C250 1.349 . S
C262 H256 0.950 1_655 S
C262 C263 1.327 . S
C263 H257 0.950 . S
C263 C262 1.327 . S
C263 C267 1.429 . S
C264 C247 1.574 . S
C264 H258 0.949 . S
C264 C268 1.368 . S
C265 C246 1.429 . S
C265 C259 1.429 . S
C265 C266 1.523 . S
C266 C247 1.368 . S
C266 C260 1.368 . S
C266 C265 1.523 . S
C267 C251 1.429 . S
C267 C263 1.429 . S
C267 C268 1.523 . S
C268 C252 1.368 . S
C268 C264 1.368 . S
C268 C267 1.523 . S
H269 C244 0.950 . S
H270 C246 0.950 . S
H271 C247 0.949 . S
H272 C249 0.950 . S
H273 C251 0.950 . S
C274 C275 1.349 . S
C274 C276 1.327 . S
C274 H299 0.950 . S
C275 C274 1.349 . S
C275 C291 1.349 . S
C276 C274 1.327 . S
C276 C295 1.429 . S
C276 H300 0.950 . S
C277 C294 1.574 . S
C277 C296 1.368 . S
C277 H301 0.949 . S
H278 C282 0.949 . S
C279 C280 1.349 . S
C279 C281 1.327 . S
C279 H302 0.950 . S
C280 C279 1.349 . S
C280 C292 1.349 . S
C281 C279 1.327 . S
C281 C297 1.429 . S
C281 H303 0.950 . S
C282 H278 0.949 . S
C282 C290 1.574 . S
C282 C298 1.368 . S
H283 C291 0.950 . S
H284 C289 0.950 . S
H285 C290 0.949 . S
H286 C292 0.950 . S
H287 C293 0.950 . S
H288 C294 0.949 . S
C289 H284 0.950 . S
C289 C291 1.327 . S
C289 C295 1.429 . S
C290 C282 1.574 . S
C290 H285 0.949 . S
C290 C296 1.368 . S
C291 C275 1.349 . S
C291 H283 0.950 . S
C291 C289 1.327 . S
C292 C280 1.349 . S
C292 H286 0.950 . S
C292 C293 1.327 . S
C293 H287 0.950 . S
C293 C292 1.327 . S
C293 C297 1.429 . S
C294 C277 1.574 . S
C294 H288 0.949 . S
C294 C298 1.368 . S
C295 C276 1.429 . S
C295 C289 1.429 . S
C295 C296 1.523 . S
C296 C277 1.368 . S
C296 C290 1.368 . S
C296 C295 1.523 . S
C297 C281 1.429 . S
C297 C293 1.429 . S
C297 C298 1.523 . S
C298 C282 1.368 . S
C298 C294 1.368 . S
C298 C297 1.523 . S
H299 C274 0.950 . S
H300 C276 0.950 . S
H301 C277 0.949 . S
H302 C279 0.950 . S
H303 C281 0.950 . S
C304 C305 1.349 . S
C304 C306 1.327 . S
C304 H329 0.950 . S
C305 C304 1.349 . S
C305 C321 1.349 . S
C306 C304 1.327 . S
C306 C325 1.429 . S
C306 H330 0.950 . S
C307 C324 1.574 . S
C307 C326 1.368 . S
C307 H331 0.949 . S
H308 C312 0.949 . S
C309 C310 1.349 . S
C309 C311 1.327 . S
C309 H332 0.950 . S
C310 C309 1.349 . S
C310 C322 1.349 . S
C311 C309 1.327 . S
C311 C327 1.429 . S
C311 H333 0.950 . S
C312 H308 0.949 . S
C312 C320 1.574 . S
C312 C328 1.368 . S
H313 C321 0.950 . S
H314 C319 0.950 . S
H315 C320 0.949 . S
H316 C322 0.950 . S
H317 C323 0.950 . S
H318 C324 0.949 . S
C319 H314 0.950 . S
C319 C321 1.327 . S
C319 C325 1.429 . S
C320 C312 1.574 . S
C320 H315 0.949 . S
C320 C326 1.368 . S
C321 C305 1.349 . S
C321 H313 0.950 . S
C321 C319 1.327 . S
C322 C310 1.349 . S
C322 H316 0.950 . S
C322 C323 1.327 . S
C323 H317 0.950 . S
C323 C322 1.327 . S
C323 C327 1.429 . S
C324 C307 1.574 . S
C324 H318 0.949 . S
C324 C328 1.368 . S
C325 C306 1.429 . S
C325 C319 1.429 . S
C325 C326 1.523 . S
C326 C307 1.368 . S
C326 C320 1.368 . S
C326 C325 1.523 . S
C327 C311 1.429 . S
C327 C323 1.429 . S
C327 C328 1.523 . S
C328 C312 1.368 . S
C328 C324 1.368 . S
C328 C327 1.523 . S
H329 C304 0.950 . S
H330 C306 0.950 . S
H331 C307 0.949 . S
H332 C309 0.950 . S
H333 C311 0.950 . S
C334 C335 1.349 . S
C334 C336 1.327 . S
C334 H359 0.950 . S
C335 C334 1.349 . S
C335 C351 1.349 1_545 S
C336 C334 1.327 . S
C336 C355 1.429 . S
C336 H360 0.950 . S
C337 C354 1.574 . S
C337 C356 1.368 1_565 S
C337 H361 0.949 . S
H338 C342 0.949 . S
C339 C340 1.349 . S
C339 C341 1.327 . S
C339 H362 0.950 . S
C340 C339 1.349 . S
C340 C352 1.349 1_565 S
C341 C339 1.327 . S
C341 C357 1.429 1_565 S
C341 H363 0.950 . S
C342 H338 0.949 . S
C342 C350 1.574 . S
C342 C358 1.368 . S
H343 C351 0.950 . S
H344 C349 0.950 . S
H345 C350 0.949 . S
H346 C352 0.950 . S
H347 C353 0.950 . S
H348 C354 0.949 . S
C349 H344 0.950 . S
C349 C351 1.327 . S
C349 C355 1.429 1_565 S
C350 C342 1.574 . S
C350 H345 0.949 . S
C350 C356 1.368 . S
C351 C335 1.349 1_565 S
C351 H343 0.950 . S
C351 C349 1.327 . S
C352 C340 1.349 1_545 S
C352 H346 0.950 . S
C352 C353 1.327 . S
C353 H347 0.950 . S
C353 C352 1.327 . S
C353 C357 1.429 . S
C354 C337 1.574 . S
C354 H348 0.949 . S
C354 C358 1.368 1_565 S
C355 C336 1.429 . S
C355 C349 1.429 1_545 S
C355 C356 1.523 . S
C356 C337 1.368 1_545 S
C356 C350 1.368 . S
C356 C355 1.523 . S
C357 C341 1.429 1_545 S
C357 C353 1.429 . S
C357 C358 1.523 . S
C358 C342 1.368 . S
C358 C354 1.368 1_545 S
C358 C357 1.523 . S
H359 C334 0.950 . S
H360 C336 0.950 . S
H361 C337 0.949 . S
H362 C339 0.950 . S
H363 C341 0.950 . S
C364 C365 1.349 . S
C364 C366 1.327 . S
C364 H389 0.950 . S
C365 C364 1.349 . S
C365 C381 1.349 . S
C366 C364 1.327 . S
C366 C385 1.429 . S
C366 H390 0.950 . S
C367 C384 1.574 . S
C367 C386 1.368 . S
C367 H391 0.949 1_455 S
H368 C372 0.949 . S
C369 C370 1.349 1_655 S
C369 C371 1.327 . S
C369 H392 0.950 . S
C370 C369 1.349 1_455 S
C370 C382 1.349 . S
C371 C369 1.327 . S
C371 C387 1.429 1_655 S
C371 H393 0.950 . S
C372 H368 0.949 . S
C372 C380 1.574 . S
C372 C388 1.368 . S
H373 C381 0.950 . S
H374 C379 0.950 1_655 S
H375 C380 0.949 . S
H376 C382 0.950 . S
H377 C383 0.950 . S
H378 C384 0.949 1_655 S
C379 H374 0.950 1_455 S
C379 C381 1.327 . S
C379 C385 1.429 . S
C380 C372 1.574 . S
C380 H375 0.949 . S
C380 C386 1.368 . S
C381 C365 1.349 . S
C381 H373 0.950 . S
C381 C379 1.327 . S
C382 C370 1.349 . S
C382 H376 0.950 . S
C382 C383 1.327 . S
C383 H377 0.950 . S
C383 C382 1.327 . S
C383 C387 1.429 . S
C384 C367 1.574 . S
C384 H378 0.949 1_455 S
C384 C388 1.368 . S
C385 C366 1.429 . S
C385 C379 1.429 . S
C385 C386 1.523 . S
C386 C367 1.368 . S
C386 C380 1.368 . S
C386 C385 1.523 . S
C387 C371 1.429 1_455 S
C387 C383 1.429 . S
C387 C388 1.523 . S
C388 C372 1.368 . S
C388 C384 1.368 . S
C388 C387 1.523 . S
H389 C364 0.950 . S
H390 C366 0.950 . S
H391 C367 0.949 1_655 S
H392 C369 0.950 . S
H393 C371 0.950 . S
C394 C395 1.349 . S
C394 C396 1.327 . S
C394 H419 0.950 . S
C395 C394 1.349 . S
C395 C411 1.349 . S
C396 C394 1.327 . S
C396 C415 1.429 . S
C396 H420 0.950 . S
C397 C414 1.574 . S
C397 C416 1.368 . S
C397 H421 0.949 . S
H398 C402 0.949 . S
C399 C400 1.349 . S
C399 C401 1.327 . S
C399 H422 0.950 . S
C400 C399 1.349 . S
C400 C412 1.349 . S
C401 C399 1.327 . S
C401 C417 1.429 . S
C401 H423 0.950 . S
C402 H398 0.949 . S
C402 C410 1.574 . S
C402 C418 1.368 . S
H403 C411 0.950 . S
H404 C409 0.950 . S
H405 C410 0.949 . S
H406 C412 0.950 . S
H407 C413 0.950 . S
H408 C414 0.949 . S
C409 H404 0.950 . S
C409 C411 1.327 . S
C409 C415 1.429 . S
C410 C402 1.574 . S
C410 H405 0.949 . S
C410 C416 1.368 . S
C411 C395 1.349 . S
C411 H403 0.950 . S
C411 C409 1.327 . S
C412 C400 1.349 . S
C412 H406 0.950 . S
C412 C413 1.327 . S
C413 H407 0.950 . S
C413 C412 1.327 . S
C413 C417 1.429 . S
C414 C397 1.574 . S
C414 H408 0.949 . S
C414 C418 1.368 . S
C415 C396 1.429 . S
C415 C409 1.429 . S
C415 C416 1.523 . S
C416 C397 1.368 . S
C416 C410 1.368 . S
C416 C415 1.523 . S
C417 C401 1.429 . S
C417 C413 1.429 . S
C417 C418 1.523 . S
C418 C402 1.368 . S
C418 C414 1.368 . S
C418 C417 1.523 . S
H419 C394 0.950 . S
H420 C396 0.950 . S
H421 C397 0.949 . S
H422 C399 0.950 . S
H423 C401 0.950 . S
C424 C425 1.349 . S
C424 C426 1.327 . S
C424 H449 0.950 . S
C425 C424 1.349 . S
C425 C441 1.349 . S
C426 C424 1.327 . S
C426 C445 1.429 . S
C426 H450 0.950 . S
C427 C444 1.574 . S
C427 C446 1.368 . S
C427 H451 0.949 . S
H428 C432 0.949 . S
C429 C430 1.349 . S
C429 C431 1.327 . S
C429 H452 0.950 . S
C430 C429 1.349 . S
C430 C442 1.349 . S
C431 C429 1.327 . S
C431 C447 1.429 . S
C431 H453 0.950 . S
C432 H428 0.949 . S
C432 C440 1.574 . S
C432 C448 1.368 . S
H433 C441 0.950 . S
H434 C439 0.950 . S
H435 C440 0.949 . S
H436 C442 0.950 . S
H437 C443 0.950 . S
H438 C444 0.949 . S
C439 H434 0.950 . S
C439 C441 1.327 . S
C439 C445 1.429 . S
C440 C432 1.574 . S
C440 H435 0.949 . S
C440 C446 1.368 . S
C441 C425 1.349 . S
C441 H433 0.950 . S
C441 C439 1.327 . S
C442 C430 1.349 . S
C442 H436 0.950 . S
C442 C443 1.327 . S
C443 H437 0.950 . S
C443 C442 1.327 . S
C443 C447 1.429 . S
C444 C427 1.574 . S
C444 H438 0.949 . S
C444 C448 1.368 . S
C445 C426 1.429 . S
C445 C439 1.429 . S
C445 C446 1.523 . S
C446 C427 1.368 . S
C446 C440 1.368 . S
C446 C445 1.523 . S
C447 C431 1.429 . S
C447 C443 1.429 . S
C447 C448 1.523 . S
C448 C432 1.368 . S
C448 C444 1.368 . S
C448 C447 1.523 . S
H449 C424 0.950 . S
H450 C426 0.950 . S
H451 C427 0.949 . S
H452 C429 0.950 . S
H453 C431 0.950 . S
C100 C85 1.264 . S
C95 C16 1.190 . S
C125 C15 1.418 . S
C130 C72 1.314 . S
C155 C13 1.342 . S
C160 C89 1.545 . S
C185 C14 1.405 . S
C190 C76 1.455 . S
C215 C37 1.190 . S
C220 C59 1.264 1_565 S
C245 C36 1.418 . S
C250 C46 1.314 . S
C280 C63 1.545 . S
C275 C34 1.342 . S
C310 C50 1.455 . S
C305 C35 1.405 . S
C335 C17 1.568 . S
C340 C51 1.622 . S
C365 C18 1.404 . S
C370 C64 1.461 . S
C400 C77 1.622 . S
C395 C38 1.568 . S
C425 C39 1.404 . S
C430 C90 1.461 . S
