# Generated by pormake.
# Topology pth, (4,4)-cn, num edge types: 1
# Building blocks:
#     Node 0, Type 0, BuildingBlock: NAHDIM_clean_sbu_0, # of connection points: 4
#     Node 1, Type 0, BuildingBlock: NAHDIM_clean_sbu_0, # of connection points: 4
#     Node 2, Type 0, BuildingBlock: NAHDIM_clean_sbu_0, # of connection points: 4
#     Node 3, Type 1, BuildingBlock: MUDLON_clean_linker_0, # of connection points: 4
#     Node 4, Type 1, BuildingBlock: MUDLON_clean_linker_0, # of connection points: 4
#     Node 5, Type 1, BuildingBlock: MUDLON_clean_linker_0, # of connection points: 4
#     Edge 6, Type (0, 1), BuildingBlock: FUNLAD_clean_linker_1, # of connection points: 2
#     Edge 7, Type (0, 1), BuildingBlock: FUNLAD_clean_linker_1, # of connection points: 2
#     Edge 8, Type (0, 1), BuildingBlock: FUNLAD_clean_linker_1, # of connection points: 2
#     Edge 9, Type (0, 1), BuildingBlock: FUNLAD_clean_linker_1, # of connection points: 2
#     Edge 10, Type (0, 1), BuildingBlock: FUNLAD_clean_linker_1, # of connection points: 2
#     Edge 11, Type (0, 1), BuildingBlock: FUNLAD_clean_linker_1, # of connection points: 2
#     Edge 12, Type (0, 1), BuildingBlock: FUNLAD_clean_linker_1, # of connection points: 2
#     Edge 13, Type (0, 1), BuildingBlock: FUNLAD_clean_linker_1, # of connection points: 2
#     Edge 14, Type (0, 1), BuildingBlock: FUNLAD_clean_linker_1, # of connection points: 2
#     Edge 15, Type (0, 1), BuildingBlock: FUNLAD_clean_linker_1, # of connection points: 2
#     Edge 16, Type (0, 1), BuildingBlock: FUNLAD_clean_linker_1, # of connection points: 2
#     Edge 17, Type (0, 1), BuildingBlock: FUNLAD_clean_linker_1, # of connection points: 2
# Relax obj value: 0.056
# Max RMSD: 0.170
# Mean RMSD: 0.116
data_MOF--net-pth--node1-NAHDIM_clean_sbu_0--node2-MUDLON_clean_linker_0--edge1-FUNLAD_clean_linker_1
_symmetry_space_group_name_H-M    P1
_symmetry_Int_Tables_number       1
_symmetry_cell_setting            triclinic
loop_
_symmetry_equiv_pos_as_xyz
'x, y, z'
_cell_length_a     34.623854
_cell_length_b     34.82822
_cell_length_c     68.697961
_cell_angle_alpha  91.642135
_cell_angle_beta   90.046063
_cell_angle_gamma 120.4951
loop_
_atom_site_label
_atom_site_type_symbol
_atom_site_fract_x
_atom_site_fract_y
_atom_site_fract_z
_atom_type_partial_charge
C0 C 0.01071 0.94899 0.07402 0.0
O1 O 0.97731 0.95524 0.07826 0.0
O2 O 0.99748 0.03739 0.05781 0.0
Zn3 Zn 0.0132 0.99838 0.04142 0.0
O4 O 0.95985 0.95325 0.0254 0.0
C5 C 0.09304 0.07636 0.0293 0.0
O6 O 0.0948 0.08845 0.04773 0.0
O7 O 0.03287 0.96539 0.05868 0.0
C8 C 0.94544 0.9652 0.01118 0.0
O9 O 0.96528 0.00759 0.00705 0.0
C10 C 0.95779 0.0295 0.06042 0.0
O11 O 0.92372 0.99344 0.0525 0.0
O12 O 0.06195 0.03817 0.02331 0.0
C13 C 0.03879 0.07255 0.33235 0.0
O14 O 0.04458 0.04098 0.32461 0.0
O15 O 0.01163 0.96966 0.35118 0.0
Zn16 Zn 0.02241 0.02302 0.36773 0.0
O17 O 0.96886 0.00838 0.38428 0.0
C18 C 0.07886 0.01687 0.39658 0.0
O19 O 0.04265 0.97791 0.3989 0.0
O20 O 0.03051 0.07225 0.35039 0.0
C21 C 0.97378 0.02769 0.40082 0.0
O22 O 0.01436 0.05579 0.4076 0.0
C23 C 0.98883 0.92947 0.35636 0.0
O24 O 0.96913 0.92052 0.37329 0.0
O25 O 0.07829 0.04302 0.38422 0.0
C26 C 0.04062 0.9653 0.67632 0.0
O27 O 0.00261 0.95742 0.66846 0.0
O28 O 0.9773 0.01274 0.69167 0.0
Zn29 Zn 0.00803 0.99147 0.70971 0.0
O30 O 0.0454 0.04052 0.7294 0.0
C31 C 0.92051 0.92734 0.72294 0.0
O32 O 0.90914 0.95094 0.71237 0.0
O33 O 0.04947 0.97841 0.69407 0.0
C34 C 0.02713 0.05257 0.74233 0.0
O35 O 0.98325 0.03239 0.74299 0.0
C36 C 0.99279 0.05337 0.68776 0.0
O37 O 0.03146 0.08412 0.69534 0.0
O38 O 0.96135 0.93746 0.72382 0.0
H39 H 0.99417 0.66996 0.20987 0.0
N40 N 0.07703 0.67822 0.20683 0.0
H41 H 0.97181 0.70705 0.23431 0.0
H42 H 0.12362 0.72584 0.23819 0.0
H43 H 0.10131 0.76244 0.26289 0.0
H44 H 0.14838 0.752 0.19479 0.0
H45 H 0.15278 0.796 0.16675 0.0
H46 H 0.01241 0.65365 0.17837 0.0
H47 H 0.0165 0.69693 0.15036 0.0
H48 H 0.01646 0.61327 0.23129 0.0
H49 H 0.09568 0.63274 0.17984 0.0
H50 H 0.99018 0.53458 0.22922 0.0
H51 H 0.06769 0.55306 0.17747 0.0
H52 H 0.91065 0.27721 0.22079 0.0
H53 H 0.92467 0.2439 0.24881 0.0
H54 H 0.06058 0.35496 0.25321 0.0
H55 H 0.04645 0.388 0.22527 0.0
H56 H 0.04361 0.34702 0.19282 0.0
H57 H 0.05036 0.30603 0.16495 0.0
H58 H 0.91632 0.26828 0.1458 0.0
H59 H 0.90969 0.30885 0.17397 0.0
H60 H 0.91997 0.38757 0.21131 0.0
H61 H 0.94319 0.46669 0.21111 0.0
H62 H 0.07579 0.49809 0.19368 0.0
N63 N 0.96874 0.35043 0.20293 0.0
H64 H 0.05185 0.41929 0.19324 0.0
C65 C 0.06088 0.69546 0.22217 0.0
C66 C 0.01767 0.68991 0.22142 0.0
C67 C 0.00481 0.71088 0.23545 0.0
C68 C 0.0344 0.73703 0.25066 0.0
C69 C 0.07714 0.74154 0.25169 0.0
C70 C 0.09015 0.72094 0.23753 0.0
C71 C 0.0801 0.69995 0.18881 0.0
C72 C 0.11974 0.73969 0.18498 0.0
C73 C 0.12213 0.76471 0.16901 0.0
C74 C 0.08466 0.75072 0.1567 0.0
C75 C 0.04553 0.70964 0.15994 0.0
C76 C 0.04323 0.68455 0.17589 0.0
C77 C 0.05712 0.62998 0.20516 0.0
C78 C 0.02744 0.60105 0.21913 0.0
C79 C 0.01216 0.55542 0.218 0.0
C80 C 0.02638 0.53723 0.20308 0.0
C81 C 0.05616 0.56587 0.18924 0.0
C82 C 0.07172 0.61155 0.19043 0.0
C83 C 0.97718 0.335 0.22085 0.0
C84 C 0.94328 0.29454 0.22796 0.0
C85 C 0.95158 0.27534 0.2438 0.0
C86 C 0.99423 0.29639 0.25286 0.0
C87 C 0.02756 0.33795 0.24638 0.0
C88 C 0.01937 0.35694 0.2304 0.0
C89 C 0.97576 0.3306 0.18558 0.0
C90 C 0.01579 0.3303 0.18257 0.0
C91 C 0.01962 0.30676 0.16662 0.0
C92 C 0.98356 0.28279 0.15345 0.0
C93 C 0.94434 0.28498 0.15596 0.0
C94 C 0.94057 0.3086 0.17193 0.0
C95 C 0.98393 0.39735 0.20235 0.0
C96 C 0.95394 0.41165 0.20736 0.0
C97 C 0.96739 0.45687 0.20734 0.0
C98 C 0.01143 0.48888 0.20241 0.0
C99 C 0.04143 0.4744 0.19725 0.0
C100 C 0.02781 0.42914 0.19714 0.0
H101 H 0.77988 0.14241 0.56021 0.0
N102 N 0.70013 0.08431 0.54499 0.0
H103 H 0.81821 0.13215 0.58742 0.0
H104 H 0.6627 0.01455 0.56959 0.0
H105 H 0.7006 0.00381 0.59728 0.0
H106 H 0.68795 0.00114 0.53747 0.0
H107 H 0.72408 0.98121 0.51179 0.0
H108 H 0.74316 0.1324 0.51458 0.0
H109 H 0.77848 0.11238 0.48853 0.0
H110 H 0.67322 0.13213 0.56525 0.0
H111 H 0.62365 0.01644 0.52652 0.0
H112 H 0.59857 0.12251 0.56635 0.0
H113 H 0.5499 0.00865 0.5263 0.0
H114 H 0.37697 0.10798 0.56596 0.0
H115 H 0.3273 0.08767 0.59388 0.0
H116 H 0.30874 0.95527 0.59103 0.0
H117 H 0.35824 0.97579 0.56307 0.0
H118 H 0.34025 0.97393 0.52819 0.0
H119 H 0.29 0.95866 0.5002 0.0
H120 H 0.34644 0.10049 0.49412 0.0
H121 H 0.39635 0.11495 0.52183 0.0
H122 H 0.47723 0.12843 0.5478 0.0
H123 H 0.5501 0.13358 0.54771 0.0
H124 H 0.48398 0.98967 0.54247 0.0
N125 N 0.39713 0.05581 0.54493 0.0
H126 H 0.41157 0.98556 0.54098 0.0
C127 C 0.7186 0.07953 0.56296 0.0
C128 C 0.76209 0.11262 0.56859 0.0
C129 C 0.78383 0.10664 0.58431 0.0
C130 C 0.7622 0.0672 0.59485 0.0
C131 C 0.71798 0.03461 0.58953 0.0
C132 C 0.69625 0.0407 0.57377 0.0
C133 C 0.71336 0.06863 0.52804 0.0
C134 C 0.70704 0.02539 0.52669 0.0
C135 C 0.72755 0.01394 0.51197 0.0
C136 C 0.75373 0.04497 0.49807 0.0
C137 C 0.75772 0.08728 0.49874 0.0
C138 C 0.73775 0.09892 0.51365 0.0
C139 C 0.65462 0.07556 0.54574 0.0
C140 C 0.64625 0.10478 0.5569 0.0
C141 C 0.60354 0.09947 0.5573 0.0
C142 C 0.56801 0.06526 0.54611 0.0
C143 C 0.57612 0.03521 0.53525 0.0
C144 C 0.61878 0.03995 0.53521 0.0
C145 C 0.37146 0.04366 0.56246 0.0
C146 C 0.36244 0.07473 0.5715 0.0
C147 C 0.33366 0.06286 0.58728 0.0
C148 C 0.31328 0.01941 0.5943 0.0
C149 C 0.32381 0.98883 0.58578 0.0
C150 C 0.35227 0.00063 0.56983 0.0
C151 C 0.3721 0.0457 0.52696 0.0
C152 C 0.34247 0.00161 0.52049 0.0
C153 C 0.31372 0.99297 0.50453 0.0
C154 C 0.31439 0.02815 0.49469 0.0
C155 C 0.34543 0.07232 0.50085 0.0
C156 C 0.37398 0.08083 0.51681 0.0
C157 C 0.43912 0.05679 0.54477 0.0
C158 C 0.4787 0.09812 0.54658 0.0
C159 C 0.5203 0.10083 0.54675 0.0
C160 C 0.52329 0.06197 0.54545 0.0
C161 C 0.48328 0.02039 0.5434 0.0
C162 C 0.4416 0.01785 0.54284 0.0
H163 H 0.6169 0.7772 0.87696 0.0
N164 N 0.59646 0.6949 0.86648 0.0
H165 H 0.66751 0.82478 0.90348 0.0
H166 H 0.6351 0.66933 0.89415 0.0
H167 H 0.68533 0.71621 0.92066 0.0
H168 H 0.65173 0.66049 0.86131 0.0
H169 H 0.70798 0.68058 0.83597 0.0
H170 H 0.60699 0.74283 0.8355 0.0
H171 H 0.66215 0.7622 0.80988 0.0
H172 H 0.53904 0.67033 0.89627 0.0
H173 H 0.56618 0.61753 0.84358 0.0
H174 H 0.47321 0.59796 0.90141 0.0
H175 H 0.50002 0.54592 0.84863 0.0
H176 H 0.24114 0.37535 0.90279 0.0
H177 H 0.21928 0.33347 0.93267 0.0
H178 H 0.34501 0.33534 0.93365 0.0
H179 H 0.36678 0.37766 0.90382 0.0
H180 H 0.33291 0.33517 0.87225 0.0
H181 H 0.29883 0.28131 0.84499 0.0
H182 H 0.22772 0.34723 0.8273 0.0
H183 H 0.26119 0.40015 0.85487 0.0
H184 H 0.32974 0.48257 0.88958 0.0
H185 H 0.40001 0.55329 0.88649 0.0
H186 H 0.46663 0.4813 0.8694 0.0
N187 N 0.31497 0.40106 0.88263 0.0
H188 H 0.39598 0.41091 0.87214 0.0
C189 C 0.62265 0.72009 0.88346 0.0
C190 C 0.63156 0.76376 0.88659 0.0
C191 C 0.66045 0.79079 0.90168 0.0
C192 C 0.68145 0.7748 0.91381 0.0
C193 C 0.67108 0.73027 0.91118 0.0
C194 C 0.64203 0.7032 0.8961 0.0
C195 C 0.62547 0.70068 0.85035 0.0
C196 C 0.65381 0.68263 0.85011 0.0
C197 C 0.6858 0.694 0.83561 0.0
C198 C 0.69051 0.72404 0.82132 0.0
C199 C 0.66062 0.74023 0.82106 0.0
C200 C 0.6286 0.72875 0.83551 0.0
C201 C 0.55985 0.65 0.87006 0.0
C202 C 0.5318 0.64319 0.88603 0.0
C203 C 0.49359 0.60178 0.88885 0.0
C204 C 0.48147 0.56604 0.87549 0.0
C205 C 0.50901 0.57248 0.85945 0.0
C206 C 0.54735 0.61393 0.85663 0.0
C207 C 0.30533 0.37955 0.90104 0.0
C208 C 0.26401 0.36689 0.90955 0.0
C209 C 0.25142 0.34248 0.92648 0.0
C210 C 0.28003 0.33 0.9352 0.0
C211 C 0.32222 0.34418 0.92711 0.0
C212 C 0.3347 0.36845 0.91007 0.0
C213 C 0.29903 0.3714 0.8657 0.0
C214 C 0.31015 0.33815 0.86247 0.0
C215 C 0.29062 0.30734 0.84687 0.0
C216 C 0.2595 0.30897 0.8343 0.0
C217 C 0.25016 0.34367 0.83705 0.0
C218 C 0.26968 0.3744 0.85266 0.0
C219 C 0.35749 0.44162 0.88107 0.0
C220 C 0.35961 0.48221 0.88523 0.0
C221 C 0.39985 0.52248 0.88358 0.0
C222 C 0.43903 0.52295 0.87776 0.0
C223 C 0.43697 0.4821 0.87373 0.0
C224 C 0.39657 0.44176 0.87538 0.0
H225 H 0.91512 0.05166 0.0748 0.0
C226 C 0.94961 0.06016 0.07255 0.0
H227 H 0.01795 0.10732 0.0783 0.0
H228 H 0.98518 0.26658 0.09851 0.0
H229 H 0.02102 0.28843 0.0672 0.0
H230 H 0.036 0.23736 0.04738 0.0
H231 H 0.0151 0.16408 0.05871 0.0
C232 C 0.98326 0.09763 0.08093 0.0
C233 C 0.97451 0.12834 0.09309 0.0
C234 C 0.98758 0.17132 0.08638 0.0
C235 C 0.97946 0.20099 0.09791 0.0
C236 C 0.99157 0.24317 0.09057 0.0
C237 C 0.01191 0.25602 0.07256 0.0
C238 C 0.02031 0.22726 0.06139 0.0
C239 C 0.00822 0.18531 0.0681 0.0
H240 H 0.02124 0.2611 0.1346 0.0
C241 C 0.98779 0.2548 0.13783 0.0
H242 H 0.91845 0.20972 0.13287 0.0
H243 H 0.94895 0.04983 0.11114 0.0
H244 H 0.91317 0.02808 0.14238 0.0
H245 H 0.89763 0.07892 0.16206 0.0
H246 H 0.9181 0.15192 0.15064 0.0
C247 C 0.95249 0.21936 0.129 0.0
C248 C 0.95894 0.18784 0.11627 0.0
C249 C 0.94562 0.14475 0.12294 0.0
C250 C 0.95387 0.11514 0.11145 0.0
C251 C 0.94222 0.07316 0.11892 0.0
C252 C 0.92195 0.06035 0.13694 0.0
C253 C 0.91326 0.08899 0.14803 0.0
C254 C 0.92509 0.1308 0.14125 0.0
H255 H 0.90207 0.00602 0.40326 0.0
C256 C 0.9341 0.02248 0.41106 0.0
H257 H 0.96932 0.05701 0.43676 0.0
H258 H 0.85027 0.13435 0.46402 0.0
H259 H 0.91962 0.20087 0.45623 0.0
H260 H 0.97994 0.19576 0.43952 0.0
H261 H 0.97145 0.12403 0.43079 0.0
C262 C 0.9371 0.0397 0.42912 0.0
C263 C 0.89899 0.04183 0.43805 0.0
C264 C 0.90399 0.08415 0.44257 0.0
C265 C 0.86868 0.08711 0.45168 0.0
C266 C 0.87542 0.1299 0.45671 0.0
C267 C 0.91521 0.16851 0.45236 0.0
C268 C 0.94919 0.16564 0.44299 0.0
C269 C 0.94387 0.12412 0.43812 0.0
H270 H 0.793 0.01327 0.49002 0.0
C271 C 0.78088 0.03445 0.48469 0.0
H272 H 0.78056 0.07211 0.46125 0.0
H273 H 0.87955 0.95523 0.43323 0.0
H274 H 0.80801 0.88868 0.43868 0.0
H275 H 0.74387 0.89408 0.45086 0.0
H276 H 0.75139 0.96617 0.45821 0.0
C277 C 0.79286 0.05142 0.46692 0.0
C278 C 0.82793 0.04772 0.45585 0.0
C279 C 0.82207 0.00543 0.4504 0.0
C280 C 0.85817 0.00241 0.44216 0.0
C281 C 0.85259 0.95963 0.4385 0.0
C282 C 0.81177 0.92109 0.44171 0.0
C283 C 0.77572 0.92412 0.44866 0.0
C284 C 0.78061 0.96569 0.45298 0.0
H285 H 0.85259 0.88767 0.73422 0.0
C286 C 0.88611 0.89233 0.7349 0.0
H287 H 0.92842 0.87382 0.74878 0.0
H288 H 0.80944 0.82641 0.82465 0.0
H289 H 0.88221 0.88526 0.83676 0.0
H290 H 0.94552 0.92379 0.81447 0.0
H291 H 0.9366 0.9036 0.78001 0.0
C292 C 0.89479 0.86853 0.74736 0.0
C293 C 0.85981 0.83939 0.76127 0.0
C294 C 0.86595 0.85126 0.78142 0.0
C295 C 0.82933 0.82947 0.79422 0.0
C296 C 0.83605 0.84232 0.81425 0.0
C297 C 0.87764 0.87593 0.8214 0.0
C298 C 0.9133 0.89759 0.80885 0.0
C299 C 0.9077 0.88565 0.78908 0.0
H300 H 0.74096 0.71718 0.80398 0.0
C301 C 0.72752 0.73885 0.80723 0.0
H302 H 0.73711 0.80328 0.80397 0.0
H303 H 0.84022 0.80167 0.72451 0.0
H304 H 0.76783 0.74174 0.71247 0.0
H305 H 0.70312 0.7066 0.73428 0.0
H306 H 0.71049 0.73058 0.76826 0.0
C307 C 0.74718 0.77947 0.79958 0.0
C308 C 0.78679 0.79597 0.78686 0.0
C309 C 0.78158 0.78168 0.76701 0.0
C310 C 0.81842 0.80296 0.75428 0.0
C311 C 0.8128 0.78755 0.73461 0.0
C312 C 0.77157 0.75304 0.72757 0.0
C313 C 0.73517 0.73318 0.73986 0.0
C314 C 0.73989 0.74723 0.75936 0.0
H315 H 0.00144 0.91016 0.10006 0.0
C316 C 0.02057 0.9217 0.0868 0.0
H317 H 0.06841 0.91854 0.06876 0.0
H318 H 0.08824 0.85245 0.15721 0.0
H319 H 0.12031 0.93008 0.16728 0.0
H320 H 0.12473 0.98519 0.14425 0.0
H321 H 0.09636 0.96268 0.11105 0.0
C322 C 0.05037 0.90909 0.08235 0.0
C323 C 0.05556 0.87801 0.09504 0.0
C324 C 0.07405 0.89204 0.11411 0.0
C325 C 0.07308 0.86058 0.12714 0.0
C326 C 0.08941 0.87507 0.14647 0.0
C327 C 0.10774 0.91958 0.15249 0.0
C328 C 0.11011 0.95057 0.13954 0.0
C329 C 0.09348 0.93716 0.12057 0.0
H330 H 0.12004 0.80554 0.13619 0.0
C331 C 0.0871 0.78064 0.14117 0.0
H332 H 0.01765 0.75833 0.13967 0.0
H333 H 0.02075 0.84103 0.05894 0.0
H334 H 0.99177 0.76401 0.04832 0.0
H335 H 0.99191 0.70983 0.07064 0.0
H336 H 0.02088 0.73231 0.10377 0.0
C337 C 0.05101 0.78166 0.13466 0.0
C338 C 0.05512 0.81547 0.12078 0.0
C339 C 0.03871 0.80197 0.10141 0.0
C340 C 0.03899 0.8333 0.0885 0.0
C341 C 0.02159 0.81869 0.06933 0.0
C342 C 0.00485 0.77457 0.06304 0.0
C343 C 0.0049 0.74406 0.07561 0.0
C344 C 0.02156 0.75738 0.09459 0.0
H345 H 0.1495 0.06257 0.40557 0.0
C346 C 0.12011 0.03019 0.40801 0.0
H347 H 0.09348 0.97034 0.4232 0.0
H348 H 0.27839 0.98528 0.44252 0.0
H349 H 0.24763 0.92515 0.41802 0.0
H350 H 0.17855 0.90592 0.39963 0.0
H351 H 0.13995 0.94681 0.40556 0.0
C352 C 0.1222 0.00336 0.42112 0.0
C353 C 0.16434 0.01592 0.43206 0.0
C354 C 0.18621 0.99131 0.42858 0.0
C355 C 0.22572 0.00199 0.43935 0.0
C356 C 0.24762 0.97777 0.43514 0.0
C357 C 0.2305 0.94338 0.42101 0.0
C358 C 0.19163 0.93258 0.41064 0.0
C359 C 0.16971 0.95625 0.41425 0.0
H360 H 0.24911 0.98493 0.47967 0.0
C361 C 0.27944 0.01756 0.47949 0.0
H362 H 0.31214 0.07918 0.46529 0.0
H363 H 0.12912 0.06794 0.44339 0.0
H364 H 0.16043 0.12848 0.46758 0.0
H365 H 0.22991 0.14811 0.48571 0.0
H366 H 0.26827 0.10705 0.47983 0.0
C367 C 0.28237 0.04648 0.46617 0.0
C368 C 0.2429 0.03683 0.45381 0.0
C369 C 0.22156 0.06204 0.45703 0.0
C370 C 0.18193 0.05125 0.44631 0.0
C371 C 0.16008 0.07552 0.45059 0.0
C372 C 0.1775 0.1102 0.46458 0.0
C373 C 0.21658 0.12121 0.47481 0.0
C374 C 0.23834 0.09739 0.47123 0.0
H375 H 0.03741 0.09747 0.76759 0.0
C376 C 0.05458 0.08917 0.75648 0.0
H377 H 0.11722 0.10585 0.74448 0.0
H378 H 0.21268 0.30412 0.77936 0.0
H379 H 0.20913 0.31641 0.74495 0.0
H380 H 0.16756 0.253 0.72161 0.0
H381 H 0.12936 0.17691 0.7325 0.0
C382 C 0.09957 0.11258 0.75591 0.0
C383 C 0.12622 0.15051 0.76992 0.0
C384 C 0.1485 0.19471 0.76327 0.0
C385 C 0.17219 0.23129 0.77674 0.0
C386 C 0.19399 0.27514 0.76975 0.0
C387 C 0.19226 0.28266 0.75005 0.0
C388 C 0.16888 0.24696 0.7369 0.0
C389 C 0.14714 0.20344 0.74335 0.0
H390 H 0.25196 0.25351 0.81493 0.0
C391 C 0.23684 0.27337 0.81889 0.0
H392 H 0.1796 0.27978 0.81473 0.0
H393 H 0.09204 0.06978 0.78708 0.0
H394 H 0.09495 0.05756 0.8215 0.0
H395 H 0.1329 0.12107 0.84509 0.0
H396 H 0.16866 0.19713 0.83437 0.0
C397 C 0.1968 0.26195 0.81089 0.0
C398 C 0.1737 0.22355 0.79678 0.0
C399 C 0.152 0.17931 0.8034 0.0
C400 C 0.12882 0.1427 0.7899 0.0
C401 C 0.10887 0.09883 0.79679 0.0
C402 C 0.11051 0.09133 0.8165 0.0
C403 C 0.13198 0.12708 0.82977 0.0
C404 C 0.15252 0.17061 0.82339 0.0
H405 H 0.98153 0.10142 0.6721 0.0
C406 C 0.96732 0.0663 0.675 0.0
H407 H 0.9121 0.00106 0.67038 0.0
H408 H 0.77409 0.06195 0.64963 0.0
H409 H 0.7476 0.02964 0.68113 0.0
H410 H 0.79097 0.00617 0.70097 0.0
H411 H 0.86116 0.01502 0.68947 0.0
C412 C 0.92734 0.0361 0.66708 0.0
C413 C 0.90108 0.04964 0.65483 0.0
C414 C 0.85979 0.04367 0.66167 0.0
C415 C 0.83454 0.05679 0.65016 0.0
C416 C 0.79411 0.05167 0.65759 0.0
C417 C 0.77864 0.0334 0.6757 0.0
C418 C 0.80308 0.02023 0.68688 0.0
C419 C 0.84328 0.02538 0.68006 0.0
H420 H 0.77243 0.0224 0.61363 0.0
C421 C 0.78595 0.05717 0.61014 0.0
H422 H 0.83856 0.12337 0.61647 0.0
H423 H 0.97633 0.06111 0.63636 0.0
H424 H 0.00262 0.09328 0.60489 0.0
H425 H 0.95988 0.11796 0.58536 0.0
H426 H 0.8904 0.11024 0.59713 0.0
C427 C 0.82395 0.08826 0.61927 0.0
C428 C 0.85039 0.07533 0.63173 0.0
C429 C 0.89163 0.08125 0.62487 0.0
C430 C 0.91673 0.06785 0.63631 0.0
C431 C 0.95665 0.07209 0.62863 0.0
C432 C 0.97197 0.09018 0.61048 0.0
C433 C 0.94788 0.10401 0.59947 0.0
C434 C 0.90807 0.09949 0.60645 0.0
H435 H 0.89233 0.8965 0.00327 0.0
C436 C 0.90699 0.93119 -0.00056 0.0
H437 H 0.90535 0.97588 0.97976 0.0
H438 H 0.81247 0.83033 0.91179 0.0
H439 H 0.88743 0.87548 0.89936 0.0
H440 H 0.94777 0.93487 0.91995 0.0
H441 H 0.93343 0.94964 0.95306 0.0
C442 C 0.89017 0.94156 0.98419 0.0
C443 C 0.85332 0.90612 0.97184 0.0
C444 C 0.86236 0.89777 0.95255 0.0
C445 C 0.82775 0.86313 0.94078 0.0
C446 C 0.83761 0.85584 0.92148 0.0
C447 C 0.8805 0.88158 0.91413 0.0
C448 C 0.91446 0.91504 0.92571 0.0
C449 C 0.90572 0.92319 0.9447 0.0
H450 H 0.71347 0.83563 0.93295 0.0
C451 C 0.71454 0.80586 0.92869 0.0
H452 H 0.75261 0.77397 0.93065 0.0
H453 H 0.82345 0.91642 0.00745 0.0
H454 H 0.74899 0.87004 0.0202 0.0
H455 H 0.69017 0.80703 0.00049 0.0
H456 H 0.70529 0.79048 0.9678 0.0
C457 C 0.74813 0.80122 0.93574 0.0
C458 C 0.78417 0.83687 0.94834 0.0
C459 C 0.77512 0.8451 0.96765 0.0
C460 C 0.80953 0.88031 0.9793 0.0
C461 C 0.79905 0.88913 0.99822 0.0
C462 C 0.75634 0.86292 0.00568 0.0
C463 C 0.72319 0.82754 0.99456 0.0
C464 C 0.73226 0.81856 0.97577 0.0
H465 H 0.97644 0.86132 0.35091 0.0
C466 C 0.9885 0.89347 0.34441 0.0
H467 H 0.01771 0.93265 0.31994 0.0
H468 H 0.11717 0.83842 0.28691 0.0
H469 H 0.1788 0.9111 0.29704 0.0
H470 H 0.16534 0.96405 0.31619 0.0
H471 H 0.09015 0.94482 0.3251 0.0
C472 C 0.00487 0.90024 0.3263 0.0
C473 C 0.01228 0.86684 0.31557 0.0
C474 C 0.05669 0.87826 0.31087 0.0
C475 C 0.06457 0.84732 0.30026 0.0
C476 C 0.10918 0.8602 0.29526 0.0
C477 C 0.14496 0.90192 0.30095 0.0
C478 C 0.13738 0.93175 0.3117 0.0
C479 C 0.09391 0.92027 0.31665 0.0
H480 H 0.99809 0.77194 0.25876 0.0
C481 C 0.02121 0.76211 0.26422 0.0
H482 H 0.05944 0.76374 0.28857 0.0
H483 H 0.92256 0.83572 0.32029 0.0
H484 H 0.86133 0.76138 0.31188 0.0
H485 H 0.87583 0.70518 0.29643 0.0
H486 H 0.9516 0.72344 0.28888 0.0
C487 C 0.03685 0.77367 0.28265 0.0
C488 C 0.02813 0.80467 0.29466 0.0
C489 C 0.98387 0.79264 0.29995 0.0
C490 C 0.97577 0.82423 0.30989 0.0
C491 C 0.93092 0.81241 0.31365 0.0
C492 C 0.89537 0.76991 0.30875 0.0
C493 C 0.90351 0.73834 0.29998 0.0
C494 C 0.94716 0.74937 0.2956 0.0
H495 H 0.06786 0.95934 0.64819 0.0
C496 C 0.07496 0.96497 0.66376 0.0
H497 H 0.12349 0.9823 0.68609 0.0
H498 H 0.19913 0.93524 0.60349 0.0
H499 H 0.13779 0.85939 0.60639 0.0
H500 H 0.08377 0.83951 0.63301 0.0
H501 H 0.09033 0.89578 0.65665 0.0
C502 C 0.11562 0.97533 0.67061 0.0
C503 C 0.15272 0.98483 0.65702 0.0
C504 C 0.14983 0.95114 0.64396 0.0
C505 C 0.18233 0.96221 0.62921 0.0
C506 C 0.17666 0.9285 0.61549 0.0
C507 C 0.14137 0.88479 0.61691 0.0
C508 C 0.11085 0.87362 0.63185 0.0
C509 C 0.11483 0.90628 0.64525 0.0
H510 H 0.27839 0.98026 0.62008 0.0
C511 C 0.28048 0.00515 0.61026 0.0
H512 H 0.25233 0.04388 0.60208 0.0
H513 H 0.16996 0.05706 0.68057 0.0
H514 H 0.23397 0.13179 0.67904 0.0
H515 H 0.29238 0.15004 0.65456 0.0
H516 H 0.28685 0.09364 0.63135 0.0
C517 C 0.25141 0.01982 0.61206 0.0
C518 C 0.21893 0.00655 0.62821 0.0
C519 C 0.22322 0.03959 0.64202 0.0
C520 C 0.18999 0.02883 0.65637 0.0
C521 C 0.19447 0.06301 0.66954 0.0
C522 C 0.23107 0.10618 0.66881 0.0
C523 C 0.26391 0.11648 0.65502 0.0
C524 C 0.26022 0.08376 0.64174 0.0
H525 H 0.11726 0.09787 -0.00029 0.0
C526 C 0.12285 0.10842 0.01502 0.0
H527 H 0.15824 0.16222 0.03522 0.0
H528 H 0.25974 0.22229 0.94853 0.0
H529 H 0.28015 0.1661 0.95312 0.0
H530 H 0.25487 0.11898 0.98185 0.0
H531 H 0.20822 0.12731 0.00599 0.0
C532 C 0.15348 0.15082 0.02005 0.0
C533 C 0.17601 0.18452 0.00486 0.0
C534 C 0.20508 0.18075 0.99141 0.0
C535 C 0.22134 0.20933 0.97533 0.0
C536 C 0.24783 0.20277 0.96143 0.0
C537 C 0.25961 0.17041 0.96382 0.0
C538 C 0.24525 0.14378 0.97996 0.0
C539 C 0.21827 0.14871 0.99364 0.0
H540 H 0.29264 0.30523 0.9625 0.0
C541 C 0.26655 0.30197 0.95259 0.0
H542 H 0.19708 0.26609 0.94584 0.0
H543 H 0.12341 0.20275 0.02877 0.0
H544 H 0.10668 0.26183 0.02528 0.0
H545 H 0.13756 0.31344 0.99818 0.0
H546 H 0.1852 0.30605 0.97433 0.0
C547 C 0.22367 0.2708 0.95576 0.0
C548 C 0.21008 0.24293 0.97325 0.0
C549 C 0.18311 0.2483 0.98732 0.0
C550 C 0.16593 0.21899 0.00311 0.0
C551 C 0.13795 0.22437 0.01662 0.0
C552 C 0.12797 0.25814 0.01478 0.0
C553 C 0.14531 0.28716 -0.00049 0.0
C554 C 0.17253 0.28246 0.98589 0.0
H555 H 0.0403 0.10136 0.30403 0.0
C556 C 0.03733 0.10518 0.31963 0.0
H557 H 0.02515 0.14039 0.34198 0.0
H558 H 0.07004 0.258 0.26048 0.0
H559 H 0.1448 0.26911 0.2632 0.0
H560 H 0.16435 0.23434 0.28927 0.0
H561 H 0.10878 0.18739 0.31252 0.0
C562 C 0.02957 0.13715 0.32648 0.0
C563 C 0.02057 0.16451 0.31296 0.0
C564 C 0.05407 0.19374 0.30013 0.0
C565 C 0.04341 0.21565 0.28574 0.0
C566 C 0.07667 0.24208 0.27225 0.0
C567 C 0.11973 0.24852 0.27355 0.0
C568 C 0.13069 0.22881 0.28818 0.0
C569 C 0.09839 0.20169 0.30135 0.0
H570 H 0.03114 0.29686 0.27934 0.0
C571 C 0.00524 0.27534 0.26873 0.0
H572 H 0.9623 0.20874 0.25867 0.0
H573 H 0.94904 0.11264 0.336 0.0
H574 H 0.8756 0.10512 0.33457 0.0
H575 H 0.85826 0.14598 0.31066 0.0
H576 H 0.91426 0.19441 0.28792 0.0
C577 C 0.98739 0.23095 0.26938 0.0
C578 C 0.99987 0.21009 0.28489 0.0
C579 C 0.96707 0.18259 0.29834 0.0
C580 C 0.97734 0.15964 0.31234 0.0
C581 C 0.94343 0.13142 0.32523 0.0
C582 C 0.90101 0.1267 0.32456 0.0
C583 C 0.89123 0.14966 0.31108 0.0
C584 C 0.92369 0.17728 0.29808 0.0
loop_
_geom_bond_atom_site_label_1
_geom_bond_atom_site_label_2
_geom_bond_distance
_geom_bond_site_symmetry_2
_ccdc_geom_bond_type
C0 O1 1.160 . S
C0 O7 1.185 . S
O1 C0 1.160 . S
O2 Zn3 1.899 . S
O2 C10 1.284 1_455 S
Zn3 O2 1.899 . S
Zn3 O4 2.032 1_445 S
Zn3 O7 2.086 1_545 S
Zn3 O12 1.977 . S
O4 Zn3 2.032 1_665 S
O4 C8 1.278 . S
C5 O6 1.203 . S
C5 O12 1.267 . S
O6 C5 1.203 . S
O7 C0 1.185 . S
O7 Zn3 2.086 1_565 S
C8 O4 1.278 . S
C8 O9 1.211 1_565 S
O9 C8 1.211 1_545 S
C10 O2 1.284 1_655 S
C10 O11 1.273 . S
O11 C10 1.273 . S
O12 Zn3 1.977 . S
O12 C5 1.267 . S
C13 O14 1.160 . S
C13 O20 1.185 . S
O14 C13 1.160 . S
O15 Zn16 1.899 . S
O15 C23 1.284 1_545 S
Zn16 O15 1.899 . S
Zn16 O17 2.032 1_455 S
Zn16 O20 2.086 . S
Zn16 O25 1.977 . S
O17 Zn16 2.032 1_655 S
O17 C21 1.278 . S
C18 O19 1.188 1_545 S
C18 O25 1.267 . S
O19 C18 1.188 1_565 S
O20 C13 1.185 . S
O20 Zn16 2.086 . S
C21 O17 1.278 . S
C21 O22 1.211 . S
O22 C21 1.211 . S
C23 O15 1.284 1_565 S
C23 O24 1.273 1_455 S
O24 C23 1.273 1_655 S
O25 Zn16 1.977 . S
O25 C18 1.267 . S
C26 O27 1.160 1_565 S
C26 O33 1.185 . S
O27 C26 1.160 1_545 S
O28 Zn29 1.899 1_655 S
O28 C36 1.284 1_565 S
Zn29 O28 1.899 1_455 S
Zn29 O30 2.032 1_565 S
Zn29 O33 2.086 . S
Zn29 O38 1.977 1_455 S
O30 Zn29 2.032 1_545 S
O30 C34 1.278 . S
C31 O32 1.203 . S
C31 O38 1.267 . S
O32 C31 1.203 . S
O33 C26 1.185 . S
O33 Zn29 2.086 . S
C34 O30 1.278 . S
C34 O35 1.211 . S
O35 C34 1.211 . S
C36 O28 1.284 1_545 S
C36 O37 1.273 . S
O37 C36 1.273 . S
O38 Zn29 1.977 1_655 S
O38 C31 1.267 . S
H39 C66 0.929 . S
N40 C65 1.433 . S
N40 C71 1.435 . S
N40 C77 1.423 . S
H41 C67 0.930 . S
H42 C70 0.931 . S
H43 C69 0.929 . S
H44 C72 0.930 . S
H45 C73 0.932 . S
H46 C76 0.929 . S
H47 C75 0.931 . S
H48 C78 0.929 . S
H49 C82 0.932 . S
H50 C79 0.931 . S
H51 C81 0.929 1_455 S
H52 C84 0.929 . S
H53 C85 0.930 . S
H54 C87 0.929 . S
H55 C88 0.931 . S
H56 C90 0.930 . S
H57 C91 0.932 . S
H58 C93 0.931 . S
H59 C94 0.929 . S
H60 C96 0.929 . S
H61 C97 0.931 . S
H62 C99 0.929 1_455 S
N63 C83 1.433 . S
N63 C89 1.435 . S
N63 C95 1.423 . S
H64 C100 0.932 . S
C65 N40 1.433 . S
C65 C66 1.363 . S
C65 C70 1.370 1_655 S
C66 H39 0.929 . S
C66 C65 1.363 . S
C66 C67 1.385 . S
C67 H41 0.930 . S
C67 C66 1.385 . S
C67 C68 1.357 1_655 S
C68 C67 1.357 1_455 S
C68 C69 1.406 . S
C69 H43 0.929 . S
C69 C68 1.406 . S
C69 C70 1.391 . S
C70 H42 0.931 . S
C70 C65 1.370 1_455 S
C70 C69 1.391 . S
C71 N40 1.435 . S
C71 C72 1.358 1_655 S
C71 C76 1.371 . S
C72 H44 0.930 . S
C72 C71 1.358 1_455 S
C72 C73 1.405 . S
C73 H45 0.932 . S
C73 C72 1.405 . S
C73 C74 1.392 . S
C74 C73 1.392 . S
C74 C75 1.388 1_455 S
C75 H47 0.931 . S
C75 C74 1.388 1_655 S
C75 C76 1.382 . S
C76 H46 0.929 . S
C76 C71 1.371 . S
C76 C75 1.382 . S
C77 N40 1.423 . S
C77 C78 1.362 . S
C77 C82 1.388 1_655 S
C78 H48 0.929 . S
C78 C77 1.362 . S
C78 C79 1.376 . S
C79 H50 0.931 . S
C79 C78 1.376 . S
C79 C80 1.396 . S
C80 C79 1.396 . S
C80 C81 1.348 . S
C80 C98 1.472 . S
C81 H51 0.929 1_655 S
C81 C80 1.348 . S
C81 C82 1.443 1_655 S
C82 H49 0.932 . S
C82 C77 1.388 1_455 S
C82 C81 1.443 1_455 S
C83 N63 1.433 . S
C83 C84 1.363 . S
C83 C88 1.370 1_655 S
C84 H52 0.929 . S
C84 C83 1.363 . S
C84 C85 1.385 . S
C85 H53 0.930 . S
C85 C84 1.385 . S
C85 C86 1.357 1_655 S
C86 C85 1.357 1_455 S
C86 C87 1.406 . S
C87 H54 0.929 . S
C87 C86 1.406 . S
C87 C88 1.391 . S
C88 H55 0.931 . S
C88 C83 1.370 1_455 S
C88 C87 1.391 . S
C89 N63 1.435 . S
C89 C90 1.358 1_655 S
C89 C94 1.371 . S
C90 H56 0.930 . S
C90 C89 1.358 1_455 S
C90 C91 1.405 . S
C91 H57 0.932 . S
C91 C90 1.405 . S
C91 C92 1.393 . S
C92 C91 1.393 . S
C92 C93 1.375 1_455 S
C93 H58 0.931 . S
C93 C92 1.375 1_655 S
C93 C94 1.382 . S
C94 H59 0.929 . S
C94 C89 1.371 . S
C94 C93 1.382 . S
C95 N63 1.423 . S
C95 C96 1.362 . S
C95 C100 1.388 1_655 S
C96 H60 0.929 . S
C96 C95 1.362 . S
C96 C97 1.376 . S
C97 H61 0.931 . S
C97 C96 1.376 . S
C97 C98 1.396 . S
C98 C80 1.472 . S
C98 C97 1.396 . S
C98 C99 1.348 . S
C99 H62 0.929 1_655 S
C99 C98 1.348 . S
C99 C100 1.443 1_655 S
C100 H64 0.932 . S
C100 C95 1.388 1_455 S
C100 C99 1.443 1_455 S
H101 C128 0.929 . S
N102 C127 1.433 . S
N102 C133 1.435 . S
N102 C139 1.423 . S
H103 C129 0.930 . S
H104 C132 0.930 . S
H105 C131 0.929 . S
H106 C134 0.930 . S
H107 C135 0.932 . S
H108 C138 0.929 . S
H109 C137 0.931 . S
H110 C140 0.929 . S
H111 C144 0.932 1_565 S
H112 C141 0.931 . S
H113 C143 0.929 . S
H114 C146 0.929 . S
H115 C147 0.930 . S
H116 C149 0.929 . S
H117 C150 0.941 . S
H118 C152 0.930 . S
H119 C153 0.932 . S
H120 C155 0.931 . S
H121 C156 0.929 . S
H122 C158 0.929 . S
H123 C159 0.931 . S
H124 C161 0.929 . S
N125 C145 1.433 . S
N125 C151 1.435 . S
N125 C157 1.423 . S
H126 C162 0.932 1_565 S
C127 N102 1.433 . S
C127 C128 1.363 . S
C127 C132 1.367 1_545 S
C128 H101 0.929 . S
C128 C127 1.363 . S
C128 C129 1.385 . S
C129 H103 0.930 . S
C129 C128 1.385 . S
C129 C130 1.357 . S
C130 C129 1.357 . S
C130 C131 1.406 1_545 S
C131 H105 0.929 . S
C131 C130 1.406 1_565 S
C131 C132 1.396 . S
C132 H104 0.930 . S
C132 C127 1.367 1_565 S
C132 C131 1.396 . S
C133 N102 1.435 . S
C133 C134 1.358 1_545 S
C133 C138 1.371 . S
C134 H106 0.930 . S
C134 C133 1.358 1_565 S
C134 C135 1.405 . S
C135 H107 0.932 . S
C135 C134 1.405 . S
C135 C136 1.383 1_565 S
C136 C135 1.383 1_545 S
C136 C137 1.393 . S
C137 H109 0.931 . S
C137 C136 1.393 . S
C137 C138 1.382 . S
C138 H108 0.929 . S
C138 C133 1.371 . S
C138 C137 1.382 . S
C139 N102 1.423 . S
C139 C140 1.362 . S
C139 C144 1.388 . S
C140 H110 0.929 . S
C140 C139 1.362 . S
C140 C141 1.376 . S
C141 H112 0.931 . S
C141 C140 1.376 . S
C141 C142 1.396 . S
C142 C141 1.396 . S
C142 C143 1.348 . S
C142 C160 1.472 . S
C143 H113 0.929 . S
C143 C142 1.348 . S
C143 C144 1.443 . S
C144 H111 0.932 1_545 S
C144 C139 1.388 . S
C144 C143 1.443 . S
C145 N125 1.433 . S
C145 C146 1.363 . S
C145 C150 1.360 1_545 S
C146 H114 0.929 . S
C146 C145 1.363 . S
C146 C147 1.385 . S
C147 H115 0.930 . S
C147 C146 1.385 . S
C147 C148 1.357 . S
C148 C147 1.357 . S
C148 C149 1.406 1_545 S
C149 H116 0.929 . S
C149 C148 1.406 1_565 S
C149 C150 1.391 . S
C150 H117 0.941 . S
C150 C145 1.360 1_565 S
C150 C149 1.391 . S
C151 N125 1.435 . S
C151 C152 1.358 1_545 S
C151 C156 1.371 . S
C152 H118 0.930 . S
C152 C151 1.358 1_565 S
C152 C153 1.405 . S
C153 H119 0.932 . S
C153 C152 1.405 . S
C153 C154 1.383 1_565 S
C154 C153 1.383 1_545 S
C154 C155 1.393 . S
C155 H120 0.931 . S
C155 C154 1.393 . S
C155 C156 1.382 . S
C156 H121 0.929 . S
C156 C151 1.371 . S
C156 C155 1.382 . S
C157 N125 1.423 . S
C157 C158 1.362 . S
C157 C162 1.388 . S
C158 H122 0.929 . S
C158 C157 1.362 . S
C158 C159 1.376 . S
C159 H123 0.931 . S
C159 C158 1.376 . S
C159 C160 1.396 . S
C160 C142 1.472 . S
C160 C159 1.396 . S
C160 C161 1.348 . S
C161 H124 0.929 . S
C161 C160 1.348 . S
C161 C162 1.443 . S
C162 H126 0.932 1_545 S
C162 C157 1.388 . S
C162 C161 1.443 . S
H163 C190 0.929 . S
N164 C189 1.433 . S
N164 C195 1.435 . S
N164 C201 1.423 . S
H165 C191 0.930 . S
H166 C194 0.931 . S
H167 C193 0.929 . S
H168 C196 0.930 . S
H169 C197 0.932 . S
H170 C200 0.929 . S
H171 C199 0.931 . S
H172 C202 0.929 . S
H173 C206 0.932 . S
H174 C203 0.931 . S
H175 C205 0.929 . S
H176 C208 0.929 . S
H177 C209 0.930 . S
H178 C211 0.929 . S
H179 C212 0.931 . S
H180 C214 0.930 . S
H181 C215 0.932 . S
H182 C217 0.931 . S
H183 C218 0.929 . S
H184 C220 0.929 . S
H185 C221 0.931 . S
H186 C223 0.929 . S
N187 C207 1.433 . S
N187 C213 1.435 . S
N187 C219 1.423 . S
H188 C224 0.932 . S
C189 N164 1.433 . S
C189 C190 1.363 . S
C189 C194 1.370 . S
C190 H163 0.929 . S
C190 C189 1.363 . S
C190 C191 1.385 . S
C191 H165 0.930 . S
C191 C190 1.385 . S
C191 C192 1.357 . S
C192 C191 1.357 . S
C192 C193 1.406 . S
C193 H167 0.929 . S
C193 C192 1.406 . S
C193 C194 1.391 . S
C194 H166 0.931 . S
C194 C189 1.370 . S
C194 C193 1.391 . S
C195 N164 1.435 . S
C195 C196 1.358 . S
C195 C200 1.371 . S
C196 H168 0.930 . S
C196 C195 1.358 . S
C196 C197 1.405 . S
C197 H169 0.932 . S
C197 C196 1.405 . S
C197 C198 1.383 . S
C198 C197 1.383 . S
C198 C199 1.393 . S
C199 H171 0.931 . S
C199 C198 1.393 . S
C199 C200 1.382 . S
C200 H170 0.929 . S
C200 C195 1.371 . S
C200 C199 1.382 . S
C201 N164 1.423 . S
C201 C202 1.362 . S
C201 C206 1.388 . S
C202 H172 0.929 . S
C202 C201 1.362 . S
C202 C203 1.376 . S
C203 H174 0.931 . S
C203 C202 1.376 . S
C203 C204 1.396 . S
C204 C203 1.396 . S
C204 C205 1.348 . S
C204 C222 1.472 . S
C205 H175 0.929 . S
C205 C204 1.348 . S
C205 C206 1.443 . S
C206 H173 0.932 . S
C206 C201 1.388 . S
C206 C205 1.443 . S
C207 N187 1.433 . S
C207 C208 1.363 . S
C207 C212 1.370 . S
C208 H176 0.929 . S
C208 C207 1.363 . S
C208 C209 1.385 . S
C209 H177 0.930 . S
C209 C208 1.385 . S
C209 C210 1.357 . S
C210 C209 1.357 . S
C210 C211 1.406 . S
C211 H178 0.929 . S
C211 C210 1.406 . S
C211 C212 1.391 . S
C212 H179 0.931 . S
C212 C207 1.370 . S
C212 C211 1.391 . S
C213 N187 1.435 . S
C213 C214 1.358 . S
C213 C218 1.371 . S
C214 H180 0.930 . S
C214 C213 1.358 . S
C214 C215 1.405 . S
C215 H181 0.932 . S
C215 C214 1.405 . S
C215 C216 1.383 . S
C216 C215 1.383 . S
C216 C217 1.393 . S
C217 H182 0.931 . S
C217 C216 1.393 . S
C217 C218 1.382 . S
C218 H183 0.929 . S
C218 C213 1.371 . S
C218 C217 1.382 . S
C219 N187 1.423 . S
C219 C220 1.362 . S
C219 C224 1.388 . S
C220 H184 0.929 . S
C220 C219 1.362 . S
C220 C221 1.376 . S
C221 H185 0.931 . S
C221 C220 1.376 . S
C221 C222 1.396 . S
C222 C204 1.472 . S
C222 C221 1.396 . S
C222 C223 1.348 . S
C223 H186 0.929 . S
C223 C222 1.348 . S
C223 C224 1.443 . S
C224 H188 0.932 . S
C224 C219 1.388 . S
C224 C223 1.443 . S
H225 C226 0.951 . S
C226 H225 0.951 . S
C226 C232 1.265 1_655 S
H227 C232 0.950 . S
H228 C236 0.949 . S
H229 C237 0.950 . S
H230 C238 0.951 . S
H231 C239 0.951 . S
C232 C226 1.265 1_455 S
C232 H227 0.950 . S
C232 C233 1.478 . S
C233 C232 1.478 . S
C233 C234 1.397 . S
C233 C250 1.394 1_455 S
C234 C233 1.397 . S
C234 C235 1.438 . S
C234 C239 1.429 . S
C235 C234 1.438 . S
C235 C236 1.428 . S
C235 C248 1.394 1_455 S
C236 H228 0.949 . S
C236 C235 1.428 . S
C236 C237 1.345 . S
C237 H229 0.950 . S
C237 C236 1.345 . S
C237 C238 1.424 . S
C238 H230 0.951 . S
C238 C237 1.424 . S
C238 C239 1.347 . S
C239 H231 0.951 . S
C239 C234 1.429 . S
C239 C238 1.347 . S
H240 C241 0.951 . S
C241 H240 0.951 . S
C241 C247 1.265 1_455 S
H242 C247 0.950 . S
H243 C251 0.949 . S
H244 C252 0.950 . S
H245 C253 0.951 . S
H246 C254 0.951 . S
C247 C241 1.265 1_655 S
C247 H242 0.950 . S
C247 C248 1.478 . S
C248 C235 1.394 1_655 S
C248 C247 1.478 . S
C248 C249 1.397 . S
C249 C248 1.397 . S
C249 C250 1.438 . S
C249 C254 1.429 . S
C250 C233 1.394 1_655 S
C250 C249 1.438 . S
C250 C251 1.428 . S
C251 H243 0.949 . S
C251 C250 1.428 . S
C251 C252 1.345 . S
C252 H244 0.950 . S
C252 C251 1.345 . S
C252 C253 1.424 . S
C253 H245 0.951 . S
C253 C252 1.424 . S
C253 C254 1.347 . S
C254 H246 0.951 . S
C254 C249 1.429 . S
C254 C253 1.347 . S
H255 C256 0.951 . S
C256 H255 0.951 . S
C256 C262 1.265 . S
H257 C262 0.950 . S
H258 C266 0.949 . S
H259 C267 0.950 . S
H260 C268 0.951 . S
H261 C269 0.951 . S
C262 C256 1.265 . S
C262 H257 0.950 . S
C262 C263 1.478 . S
C263 C262 1.478 . S
C263 C264 1.397 . S
C263 C280 1.394 1_545 S
C264 C263 1.397 . S
C264 C265 1.438 . S
C264 C269 1.429 . S
C265 C264 1.438 . S
C265 C266 1.428 . S
C265 C278 1.394 . S
C266 H258 0.949 . S
C266 C265 1.428 . S
C266 C267 1.345 . S
C267 H259 0.950 . S
C267 C266 1.345 . S
C267 C268 1.424 . S
C268 H260 0.951 . S
C268 C267 1.424 . S
C268 C269 1.347 . S
C269 H261 0.951 . S
C269 C264 1.429 . S
C269 C268 1.347 . S
H270 C271 0.951 . S
C271 H270 0.951 . S
C271 C277 1.265 . S
H272 C277 0.950 . S
H273 C281 0.949 . S
H274 C282 0.950 . S
H275 C283 0.951 . S
H276 C284 0.951 . S
C277 C271 1.265 . S
C277 H272 0.950 . S
C277 C278 1.478 . S
C278 C265 1.394 . S
C278 C277 1.478 . S
C278 C279 1.397 1_545 S
C279 C278 1.397 1_565 S
C279 C280 1.438 . S
C279 C284 1.429 . S
C280 C263 1.394 1_565 S
C280 C279 1.438 . S
C280 C281 1.428 . S
C281 H273 0.949 . S
C281 C280 1.428 . S
C281 C282 1.345 . S
C282 H274 0.950 . S
C282 C281 1.345 . S
C282 C283 1.424 . S
C283 H275 0.951 . S
C283 C282 1.424 . S
C283 C284 1.347 . S
C284 H276 0.951 . S
C284 C279 1.429 . S
C284 C283 1.347 . S
H285 C286 0.951 . S
C286 H285 0.951 . S
C286 C292 1.265 . S
H287 C292 0.950 . S
H288 C296 0.949 . S
H289 C297 0.950 . S
H290 C298 0.951 . S
H291 C299 0.951 . S
C292 C286 1.265 . S
C292 H287 0.950 . S
C292 C293 1.478 . S
C293 C292 1.478 . S
C293 C294 1.397 . S
C293 C310 1.394 . S
C294 C293 1.397 . S
C294 C295 1.438 . S
C294 C299 1.429 . S
C295 C294 1.438 . S
C295 C296 1.428 . S
C295 C308 1.394 . S
C296 H288 0.949 . S
C296 C295 1.428 . S
C296 C297 1.345 . S
C297 H289 0.950 . S
C297 C296 1.345 . S
C297 C298 1.424 . S
C298 H290 0.951 . S
C298 C297 1.424 . S
C298 C299 1.347 . S
C299 H291 0.951 . S
C299 C294 1.429 . S
C299 C298 1.347 . S
H300 C301 0.951 . S
C301 H300 0.951 . S
C301 C307 1.265 . S
H302 C307 0.950 . S
H303 C311 0.949 . S
H304 C312 0.950 . S
H305 C313 0.951 . S
H306 C314 0.951 . S
C307 C301 1.265 . S
C307 H302 0.950 . S
C307 C308 1.478 . S
C308 C295 1.394 . S
C308 C307 1.478 . S
C308 C309 1.397 . S
C309 C308 1.397 . S
C309 C310 1.438 . S
C309 C314 1.429 . S
C310 C293 1.394 . S
C310 C309 1.438 . S
C310 C311 1.428 . S
C311 H303 0.949 . S
C311 C310 1.428 . S
C311 C312 1.345 . S
C312 H304 0.950 . S
C312 C311 1.345 . S
C312 C313 1.424 . S
C313 H305 0.951 . S
C313 C312 1.424 . S
C313 C314 1.347 . S
C314 H306 0.951 . S
C314 C309 1.429 . S
C314 C313 1.347 . S
H315 C316 0.951 1_655 S
C316 H315 0.951 1_455 S
C316 C322 1.265 . S
H317 C322 0.950 . S
H318 C326 0.949 . S
H319 C327 0.950 . S
H320 C328 0.951 . S
H321 C329 0.951 . S
C322 C316 1.265 . S
C322 H317 0.950 . S
C322 C323 1.478 . S
C323 C322 1.478 . S
C323 C324 1.397 . S
C323 C340 1.394 . S
C324 C323 1.397 . S
C324 C325 1.438 . S
C324 C329 1.429 . S
C325 C324 1.438 . S
C325 C326 1.428 . S
C325 C338 1.394 . S
C326 H318 0.949 . S
C326 C325 1.428 . S
C326 C327 1.345 . S
C327 H319 0.950 . S
C327 C326 1.345 . S
C327 C328 1.424 . S
C328 H320 0.951 . S
C328 C327 1.424 . S
C328 C329 1.347 . S
C329 H321 0.951 . S
C329 C324 1.429 . S
C329 C328 1.347 . S
H330 C331 0.951 . S
C331 H330 0.951 . S
C331 C337 1.265 1_455 S
H332 C337 0.950 . S
H333 C341 0.949 . S
H334 C342 0.950 . S
H335 C343 0.951 . S
H336 C344 0.951 . S
C337 C331 1.265 1_655 S
C337 H332 0.950 . S
C337 C338 1.478 1_655 S
C338 C325 1.394 . S
C338 C337 1.478 1_455 S
C338 C339 1.397 1_455 S
C339 C338 1.397 1_655 S
C339 C340 1.438 1_655 S
C339 C344 1.429 . S
C340 C323 1.394 . S
C340 C339 1.438 1_455 S
C340 C341 1.428 1_455 S
C341 H333 0.949 . S
C341 C340 1.428 1_655 S
C341 C342 1.345 . S
C342 H334 0.950 . S
C342 C341 1.345 . S
C342 C343 1.424 . S
C343 H335 0.951 . S
C343 C342 1.424 . S
C343 C344 1.347 . S
C344 H336 0.951 . S
C344 C339 1.429 . S
C344 C343 1.347 . S
H345 C346 0.951 . S
C346 H345 0.951 . S
C346 C352 1.265 . S
H347 C352 0.950 . S
H348 C356 0.949 . S
H349 C357 0.950 . S
H350 C358 0.951 . S
H351 C359 0.951 . S
C352 C346 1.265 . S
C352 H347 0.950 . S
C352 C353 1.478 . S
C353 C352 1.478 . S
C353 C354 1.399 1_545 S
C353 C370 1.394 . S
C354 C353 1.399 1_565 S
C354 C355 1.436 . S
C354 C359 1.428 . S
C355 C354 1.436 . S
C355 C356 1.428 . S
C355 C368 1.394 1_565 S
C356 H348 0.949 . S
C356 C355 1.428 . S
C356 C357 1.345 . S
C357 H349 0.950 . S
C357 C356 1.345 . S
C357 C358 1.424 . S
C358 H350 0.951 . S
C358 C357 1.424 . S
C358 C359 1.347 . S
C359 H351 0.951 . S
C359 C354 1.428 . S
C359 C358 1.347 . S
H360 C361 0.951 . S
C361 H360 0.951 . S
C361 C367 1.265 . S
H362 C367 0.950 . S
H363 C371 0.949 . S
H364 C372 0.950 . S
H365 C373 0.951 . S
H366 C374 0.951 . S
C367 C361 1.265 . S
C367 H362 0.950 . S
C367 C368 1.478 . S
C368 C355 1.394 1_545 S
C368 C367 1.478 . S
C368 C369 1.397 . S
C369 C368 1.397 . S
C369 C370 1.438 . S
C369 C374 1.429 . S
C370 C353 1.394 . S
C370 C369 1.438 . S
C370 C371 1.428 . S
C371 H363 0.949 . S
C371 C370 1.428 . S
C371 C372 1.345 . S
C372 H364 0.950 . S
C372 C371 1.345 . S
C372 C373 1.424 . S
C373 H365 0.951 . S
C373 C372 1.424 . S
C373 C374 1.347 . S
C374 H366 0.951 . S
C374 C369 1.429 . S
C374 C373 1.347 . S
H375 C376 0.951 . S
C376 H375 0.951 . S
C376 C382 1.265 . S
H377 C382 0.950 . S
H378 C386 0.949 . S
H379 C387 0.950 . S
H380 C388 0.951 . S
H381 C389 0.951 . S
C382 C376 1.265 . S
C382 H377 0.950 . S
C382 C383 1.478 . S
C383 C382 1.478 . S
C383 C384 1.397 . S
C383 C400 1.394 . S
C384 C383 1.397 . S
C384 C385 1.438 . S
C384 C389 1.429 . S
C385 C384 1.438 . S
C385 C386 1.428 . S
C385 C398 1.394 . S
C386 H378 0.949 . S
C386 C385 1.428 . S
C386 C387 1.345 . S
C387 H379 0.950 . S
C387 C386 1.345 . S
C387 C388 1.424 . S
C388 H380 0.951 . S
C388 C387 1.424 . S
C388 C389 1.347 . S
C389 H381 0.951 . S
C389 C384 1.429 . S
C389 C388 1.347 . S
H390 C391 0.951 . S
C391 H390 0.951 . S
C391 C397 1.265 . S
H392 C397 0.950 . S
H393 C401 0.949 . S
H394 C402 0.950 . S
H395 C403 0.951 . S
H396 C404 0.951 . S
C397 C391 1.265 . S
C397 H392 0.950 . S
C397 C398 1.478 . S
C398 C385 1.394 . S
C398 C397 1.478 . S
C398 C399 1.397 . S
C399 C398 1.397 . S
C399 C400 1.438 . S
C399 C404 1.429 . S
C400 C383 1.394 . S
C400 C399 1.438 . S
C400 C401 1.428 . S
C401 H393 0.949 . S
C401 C400 1.428 . S
C401 C402 1.345 . S
C402 H394 0.950 . S
C402 C401 1.345 . S
C402 C403 1.424 . S
C403 H395 0.951 . S
C403 C402 1.424 . S
C403 C404 1.347 . S
C404 H396 0.951 . S
C404 C399 1.429 . S
C404 C403 1.347 . S
H405 C406 0.951 . S
C406 H405 0.951 . S
C406 C412 1.265 . S
H407 C412 0.949 1_565 S
H408 C416 0.949 . S
H409 C417 0.950 . S
H410 C418 0.951 . S
H411 C419 0.951 . S
C412 C406 1.265 . S
C412 H407 0.949 1_545 S
C412 C413 1.478 . S
C413 C412 1.478 . S
C413 C414 1.397 1_545 S
C413 C430 1.394 . S
C414 C413 1.397 1_565 S
C414 C415 1.438 . S
C414 C419 1.429 . S
C415 C414 1.438 . S
C415 C416 1.428 . S
C415 C428 1.394 1_565 S
C416 H408 0.949 . S
C416 C415 1.428 . S
C416 C417 1.345 . S
C417 H409 0.950 . S
C417 C416 1.345 . S
C417 C418 1.424 . S
C418 H410 0.951 . S
C418 C417 1.424 . S
C418 C419 1.347 . S
C419 H411 0.951 . S
C419 C414 1.429 . S
C419 C418 1.347 . S
H420 C421 0.951 1_565 S
C421 H420 0.951 1_545 S
C421 C427 1.265 . S
H422 C427 0.950 . S
H423 C431 0.949 . S
H424 C432 0.950 . S
H425 C433 0.951 . S
H426 C434 0.951 . S
C427 C421 1.265 . S
C427 H422 0.950 . S
C427 C428 1.478 . S
C428 C415 1.394 1_545 S
C428 C427 1.478 . S
C428 C429 1.397 . S
C429 C428 1.397 . S
C429 C430 1.438 . S
C429 C434 1.429 . S
C430 C413 1.394 . S
C430 C429 1.438 . S
C430 C431 1.428 . S
C431 H423 0.949 . S
C431 C430 1.428 . S
C431 C432 1.345 . S
C432 H424 0.950 . S
C432 C431 1.345 . S
C432 C433 1.424 . S
C433 H425 0.951 . S
C433 C432 1.424 . S
C433 C434 1.347 . S
C434 H426 0.951 . S
C434 C429 1.429 . S
C434 C433 1.347 . S
H435 C436 0.951 . S
C436 H435 0.951 . S
C436 C442 1.265 1_554 S
H437 C442 0.950 . S
H438 C446 0.949 . S
H439 C447 0.950 . S
H440 C448 0.951 . S
H441 C449 0.951 . S
C442 C436 1.265 1_556 S
C442 H437 0.950 . S
C442 C443 1.478 . S
C443 C442 1.478 . S
C443 C444 1.397 . S
C443 C460 1.394 . S
C444 C443 1.397 . S
C444 C445 1.438 . S
C444 C449 1.429 . S
C445 C444 1.438 . S
C445 C446 1.428 . S
C445 C458 1.394 . S
C446 H438 0.949 . S
C446 C445 1.428 . S
C446 C447 1.345 . S
C447 H439 0.950 . S
C447 C446 1.345 . S
C447 C448 1.424 . S
C448 H440 0.951 . S
C448 C447 1.424 . S
C448 C449 1.347 . S
C449 H441 0.951 . S
C449 C444 1.429 . S
C449 C448 1.347 . S
H450 C451 0.951 . S
C451 H450 0.951 . S
C451 C457 1.265 . S
H452 C457 0.950 . S
H453 C461 0.949 . S
H454 C462 0.950 . S
H455 C463 0.951 . S
H456 C464 0.951 1_556 S
C457 C451 1.265 . S
C457 H452 0.950 . S
C457 C458 1.478 . S
C458 C445 1.394 . S
C458 C457 1.478 . S
C458 C459 1.397 . S
C459 C458 1.397 . S
C459 C460 1.438 . S
C459 C464 1.429 1_556 S
C460 C443 1.394 . S
C460 C459 1.438 . S
C460 C461 1.428 1_556 S
C461 H453 0.949 . S
C461 C460 1.428 1_554 S
C461 C462 1.345 . S
C462 H454 0.950 . S
C462 C461 1.345 . S
C462 C463 1.424 . S
C463 H455 0.951 . S
C463 C462 1.424 . S
C463 C464 1.347 . S
C464 H456 0.951 1_554 S
C464 C459 1.429 1_554 S
C464 C463 1.347 . S
H465 C466 0.951 . S
C466 H465 0.951 . S
C466 C472 1.265 . S
H467 C472 0.950 1_655 S
H468 C476 0.949 . S
H469 C477 0.950 . S
H470 C478 0.951 . S
H471 C479 0.951 . S
C472 C466 1.265 . S
C472 H467 0.950 1_455 S
C472 C473 1.478 . S
C473 C472 1.478 . S
C473 C474 1.397 . S
C473 C490 1.394 1_455 S
C474 C473 1.397 . S
C474 C475 1.438 . S
C474 C479 1.429 . S
C475 C474 1.438 . S
C475 C476 1.428 . S
C475 C488 1.394 . S
C476 H468 0.949 . S
C476 C475 1.428 . S
C476 C477 1.345 . S
C477 H469 0.950 . S
C477 C476 1.345 . S
C477 C478 1.424 . S
C478 H470 0.951 . S
C478 C477 1.424 . S
C478 C479 1.347 . S
C479 H471 0.951 . S
C479 C474 1.429 . S
C479 C478 1.347 . S
H480 C481 0.951 1_655 S
C481 H480 0.951 1_455 S
C481 C487 1.265 . S
H482 C487 0.950 . S
H483 C491 0.949 . S
H484 C492 0.950 . S
H485 C493 0.951 . S
H486 C494 0.951 . S
C487 C481 1.265 . S
C487 H482 0.950 . S
C487 C488 1.478 . S
C488 C475 1.394 . S
C488 C487 1.478 . S
C488 C489 1.397 1_455 S
C489 C488 1.397 1_655 S
C489 C490 1.438 . S
C489 C494 1.429 . S
C490 C473 1.394 1_655 S
C490 C489 1.438 . S
C490 C491 1.428 . S
C491 H483 0.949 . S
C491 C490 1.428 . S
C491 C492 1.345 . S
C492 H484 0.950 . S
C492 C491 1.345 . S
C492 C493 1.424 . S
C493 H485 0.951 . S
C493 C492 1.424 . S
C493 C494 1.347 . S
C494 H486 0.951 . S
C494 C489 1.429 . S
C494 C493 1.347 . S
H495 C496 0.951 . S
C496 H495 0.951 . S
C496 C502 1.265 . S
H497 C502 0.950 . S
H498 C506 0.949 . S
H499 C507 0.950 . S
H500 C508 0.951 . S
H501 C509 0.951 . S
C502 C496 1.265 . S
C502 H497 0.950 . S
C502 C503 1.478 . S
C503 C502 1.478 . S
C503 C504 1.397 . S
C503 C520 1.394 1_565 S
C504 C503 1.397 . S
C504 C505 1.438 . S
C504 C509 1.429 . S
C505 C504 1.438 . S
C505 C506 1.428 . S
C505 C518 1.394 1_565 S
C506 H498 0.949 . S
C506 C505 1.428 . S
C506 C507 1.345 . S
C507 H499 0.950 . S
C507 C506 1.345 . S
C507 C508 1.424 . S
C508 H500 0.951 . S
C508 C507 1.424 . S
C508 C509 1.347 . S
C509 H501 0.951 . S
C509 C504 1.429 . S
C509 C508 1.347 . S
H510 C511 0.951 . S
C511 H510 0.951 . S
C511 C517 1.265 . S
H512 C517 0.950 . S
H513 C521 0.949 . S
H514 C522 0.950 . S
H515 C523 0.951 . S
H516 C524 0.951 . S
C517 C511 1.265 . S
C517 H512 0.950 . S
C517 C518 1.478 . S
C518 C505 1.394 1_545 S
C518 C517 1.478 . S
C518 C519 1.397 . S
C519 C518 1.397 . S
C519 C520 1.438 . S
C519 C524 1.429 . S
C520 C503 1.394 1_545 S
C520 C519 1.438 . S
C520 C521 1.428 . S
C521 H513 0.949 . S
C521 C520 1.428 . S
C521 C522 1.345 . S
C522 H514 0.950 . S
C522 C521 1.345 . S
C522 C523 1.424 . S
C523 H515 0.951 . S
C523 C522 1.424 . S
C523 C524 1.347 . S
C524 H516 0.951 . S
C524 C519 1.429 . S
C524 C523 1.347 . S
H525 C526 0.951 1_556 S
C526 H525 0.951 1_554 S
C526 C532 1.265 . S
H527 C532 0.950 . S
H528 C536 0.949 . S
H529 C537 0.950 . S
H530 C538 0.951 . S
H531 C539 0.951 1_554 S
C532 C526 1.265 . S
C532 H527 0.950 . S
C532 C533 1.478 1_554 S
C533 C532 1.478 1_556 S
C533 C534 1.397 . S
C533 C550 1.394 . S
C534 C533 1.397 . S
C534 C535 1.438 . S
C534 C539 1.429 . S
C535 C534 1.438 . S
C535 C536 1.428 . S
C535 C548 1.394 . S
C536 H528 0.949 . S
C536 C535 1.428 . S
C536 C537 1.345 . S
C537 H529 0.950 . S
C537 C536 1.345 . S
C537 C538 1.424 . S
C538 H530 0.951 . S
C538 C537 1.424 . S
C538 C539 1.347 . S
C539 H531 0.951 1_556 S
C539 C534 1.429 . S
C539 C538 1.347 . S
H540 C541 0.951 . S
C541 H540 0.951 . S
C541 C547 1.265 . S
H542 C547 0.950 . S
H543 C551 0.949 . S
H544 C552 0.950 . S
H545 C553 0.951 . S
H546 C554 0.951 . S
C547 C541 1.265 . S
C547 H542 0.950 . S
C547 C548 1.478 . S
C548 C535 1.394 . S
C548 C547 1.478 . S
C548 C549 1.397 . S
C549 C548 1.397 . S
C549 C550 1.438 . S
C549 C554 1.429 . S
C550 C533 1.394 . S
C550 C549 1.438 . S
C550 C551 1.428 . S
C551 H543 0.949 . S
C551 C550 1.428 . S
C551 C552 1.345 . S
C552 H544 0.950 . S
C552 C551 1.345 . S
C552 C553 1.424 . S
C553 H545 0.951 . S
C553 C552 1.424 . S
C553 C554 1.347 . S
C554 H546 0.951 . S
C554 C549 1.429 . S
C554 C553 1.347 . S
H555 C556 0.951 . S
C556 H555 0.951 . S
C556 C562 1.265 . S
H557 C562 0.950 . S
H558 C566 0.949 . S
H559 C567 0.950 . S
H560 C568 0.951 . S
H561 C569 0.951 . S
C562 C556 1.265 . S
C562 H557 0.950 . S
C562 C563 1.478 . S
C563 C562 1.478 . S
C563 C564 1.397 . S
C563 C580 1.394 1_455 S
C564 C563 1.397 . S
C564 C565 1.438 . S
C564 C569 1.429 . S
C565 C564 1.438 . S
C565 C566 1.428 . S
C565 C578 1.394 . S
C566 H558 0.949 . S
C566 C565 1.428 . S
C566 C567 1.345 . S
C567 H559 0.950 . S
C567 C566 1.345 . S
C567 C568 1.424 . S
C568 H560 0.951 . S
C568 C567 1.424 . S
C568 C569 1.347 . S
C569 H561 0.951 . S
C569 C564 1.429 . S
C569 C568 1.347 . S
H570 C571 0.951 . S
C571 H570 0.951 . S
C571 C577 1.265 . S
H572 C577 0.950 1_655 S
H573 C581 0.949 . S
H574 C582 0.950 . S
H575 C583 0.951 . S
H576 C584 0.951 . S
C577 C571 1.265 . S
C577 H572 0.950 1_455 S
C577 C578 1.478 . S
C578 C565 1.394 . S
C578 C577 1.478 . S
C578 C579 1.397 1_455 S
C579 C578 1.397 1_655 S
C579 C580 1.438 . S
C579 C584 1.429 . S
C580 C563 1.394 1_655 S
C580 C579 1.438 . S
C580 C581 1.428 . S
C581 H573 0.949 . S
C581 C580 1.428 . S
C581 C582 1.345 . S
C582 H574 0.950 . S
C582 C581 1.345 . S
C582 C583 1.424 . S
C583 H575 0.951 . S
C583 C582 1.424 . S
C583 C584 1.347 . S
C584 H576 0.951 . S
C584 C579 1.429 . S
C584 C583 1.347 . S
C241 C92 1.261 . S
C226 C10 1.253 . S
C256 C21 1.334 . S
C271 C136 1.290 . S
C286 C31 1.202 . S
C301 C198 1.320 . S
C316 C0 1.207 . S
C331 C74 1.287 . S
C361 C154 1.282 . S
C346 C18 1.262 . S
C376 C34 1.237 . S
C391 C216 1.310 . S
C421 C130 1.483 . S
C406 C36 1.565 . S
C436 C8 1.619 . S
C451 C192 1.484 . S
C481 C68 1.438 . S
C466 C23 1.585 . S
C511 C148 1.531 . S
C496 C26 1.513 . S
C541 C210 1.617 . S
C526 C5 1.578 . S
C556 C13 1.560 . S
C571 C86 1.586 . S
