# Generated by pormake.
# Topology apo, (3,6)-cn, num edge types: 1
# Building blocks:
#     Node 0, Type 0, BuildingBlock: KAKCAD_clean_linker_0, # of connection points: 3
#     Node 1, Type 0, BuildingBlock: KAKCAD_clean_linker_0, # of connection points: 3
#     Node 2, Type 0, BuildingBlock: KAKCAD_clean_linker_0, # of connection points: 3
#     Node 3, Type 0, BuildingBlock: KAKCAD_clean_linker_0, # of connection points: 3
#     Node 4, Type 0, BuildingBlock: KAKCAD_clean_linker_0, # of connection points: 3
#     Node 5, Type 0, BuildingBlock: KAKCAD_clean_linker_0, # of connection points: 3
#     Node 6, Type 0, BuildingBlock: KAKCAD_clean_linker_0, # of connection points: 3
#     Node 7, Type 0, BuildingBlock: KAKCAD_clean_linker_0, # of connection points: 3
#     Node 8, Type 1, BuildingBlock: MIDCAF_clean_sbu_0, # of connection points: 6
#     Node 9, Type 1, BuildingBlock: MIDCAF_clean_sbu_0, # of connection points: 6
#     Node 10, Type 1, BuildingBlock: MIDCAF_clean_sbu_0, # of connection points: 6
#     Node 11, Type 1, BuildingBlock: MIDCAF_clean_sbu_0, # of connection points: 6
#     Edge 12, Type (0, 1), BuildingBlock: XUDNAN_clean_linker_2, # of connection points: 2
#     Edge 13, Type (0, 1), BuildingBlock: XUDNAN_clean_linker_2, # of connection points: 2
#     Edge 14, Type (0, 1), BuildingBlock: XUDNAN_clean_linker_2, # of connection points: 2
#     Edge 15, Type (0, 1), BuildingBlock: XUDNAN_clean_linker_2, # of connection points: 2
#     Edge 16, Type (0, 1), BuildingBlock: XUDNAN_clean_linker_2, # of connection points: 2
#     Edge 17, Type (0, 1), BuildingBlock: XUDNAN_clean_linker_2, # of connection points: 2
#     Edge 18, Type (0, 1), BuildingBlock: XUDNAN_clean_linker_2, # of connection points: 2
#     Edge 19, Type (0, 1), BuildingBlock: XUDNAN_clean_linker_2, # of connection points: 2
#     Edge 20, Type (0, 1), BuildingBlock: XUDNAN_clean_linker_2, # of connection points: 2
#     Edge 21, Type (0, 1), BuildingBlock: XUDNAN_clean_linker_2, # of connection points: 2
#     Edge 22, Type (0, 1), BuildingBlock: XUDNAN_clean_linker_2, # of connection points: 2
#     Edge 23, Type (0, 1), BuildingBlock: XUDNAN_clean_linker_2, # of connection points: 2
#     Edge 24, Type (0, 1), BuildingBlock: XUDNAN_clean_linker_2, # of connection points: 2
#     Edge 25, Type (0, 1), BuildingBlock: XUDNAN_clean_linker_2, # of connection points: 2
#     Edge 26, Type (0, 1), BuildingBlock: XUDNAN_clean_linker_2, # of connection points: 2
#     Edge 27, Type (0, 1), BuildingBlock: XUDNAN_clean_linker_2, # of connection points: 2
#     Edge 28, Type (0, 1), BuildingBlock: XUDNAN_clean_linker_2, # of connection points: 2
#     Edge 29, Type (0, 1), BuildingBlock: XUDNAN_clean_linker_2, # of connection points: 2
#     Edge 30, Type (0, 1), BuildingBlock: XUDNAN_clean_linker_2, # of connection points: 2
#     Edge 31, Type (0, 1), BuildingBlock: XUDNAN_clean_linker_2, # of connection points: 2
#     Edge 32, Type (0, 1), BuildingBlock: XUDNAN_clean_linker_2, # of connection points: 2
#     Edge 33, Type (0, 1), BuildingBlock: XUDNAN_clean_linker_2, # of connection points: 2
#     Edge 34, Type (0, 1), BuildingBlock: XUDNAN_clean_linker_2, # of connection points: 2
#     Edge 35, Type (0, 1), BuildingBlock: XUDNAN_clean_linker_2, # of connection points: 2
# Relax obj value: 0.085
# Max RMSD: 0.099
# Mean RMSD: 0.090
data_MOF--net-apo--node1-MIDCAF_clean_sbu_0--node2-KAKCAD_clean_linker_0--edge1-XUDNAN_clean_linker_2
_symmetry_space_group_name_H-M    P1
_symmetry_Int_Tables_number       1
_symmetry_cell_setting            triclinic
loop_
_symmetry_equiv_pos_as_xyz
'x, y, z'
_cell_length_a     42.558129
_cell_length_b     50.726864
_cell_length_c     45.231562
_cell_angle_alpha  90.000943
_cell_angle_beta   90.003415
_cell_angle_gamma 90.130203
loop_
_atom_site_label
_atom_site_type_symbol
_atom_site_fract_x
_atom_site_fract_y
_atom_site_fract_z
_atom_type_partial_charge
C0 C 0.39299 0.41625 0.36235 0.0
C1 C 0.40906 0.4127 0.33551 0.0
C2 C 0.37803 0.39503 0.37611 0.0
C3 C 0.37851 0.36991 0.36311 0.0
C4 C 0.39465 0.3663 0.3363 0.0
C5 C 0.41006 0.38749 0.32274 0.0
C6 C 0.3618 0.34765 0.37739 0.0
C7 C 0.34078 0.33213 0.36106 0.0
C8 C 0.32423 0.31143 0.37457 0.0
C9 C 0.32926 0.30598 0.40471 0.0
C10 C 0.35024 0.32144 0.42147 0.0
C11 C 0.36621 0.34236 0.40755 0.0
C12 C 0.35538 0.31628 0.45355 0.0
C13 C 0.33011 0.31043 0.47252 0.0
C14 C 0.38568 0.31841 0.46567 0.0
C15 C 0.39051 0.31565 0.49602 0.0
C16 C 0.36522 0.31041 0.5152 0.0
C17 C 0.30109 0.29606 0.35717 0.0
C18 C 0.27777 0.30909 0.34083 0.0
C19 C 0.30227 0.26844 0.35654 0.0
C20 C 0.28048 0.25409 0.33986 0.0
C21 C 0.25662 0.26703 0.32388 0.0
C22 C 0.25565 0.29476 0.32456 0.0
C23 C 0.33497 0.30756 0.50302 0.0
H24 H 0.39209 0.43547 0.37277 0.0
H25 H 0.3656 0.39836 0.39667 0.0
H26 H 0.39548 0.34706 0.32595 0.0
H27 H 0.42221 0.3843 0.30201 0.0
H28 H 0.33696 0.33638 0.33784 0.0
H29 H 0.38207 0.35472 0.42021 0.0
H30 H 0.31665 0.28988 0.4151 0.0
H31 H 0.30642 0.30883 0.46396 0.0
H32 H 0.40577 0.32254 0.45169 0.0
H33 H 0.41408 0.31844 0.5045 0.0
H34 H 0.27623 0.3304 0.34116 0.0
H35 H 0.3203 0.25797 0.36868 0.0
H36 H 0.31499 0.30331 0.51707 0.0
H37 H 0.23733 0.30549 0.31316 0.0
H38 H 0.28242 0.23281 0.33949 0.0
C39 C 0.1265 0.09425 0.84017 0.0
C40 C 0.09453 0.08995 0.84641 0.0
C41 C 0.14245 0.11575 0.85237 0.0
C42 C 0.12684 0.13354 0.87112 0.0
C43 C 0.09473 0.12951 0.87699 0.0
C44 C 0.07873 0.10798 0.86472 0.0
C45 C 0.14432 0.15584 0.88489 0.0
C46 C 0.16653 0.17018 0.86839 0.0
C47 C 0.18413 0.19059 0.88141 0.0
C48 C 0.17949 0.19652 0.91149 0.0
C49 C 0.1572 0.18252 0.9282 0.0
C50 C 0.13955 0.16241 0.91475 0.0
C51 C 0.1525 0.18843 0.95993 0.0
C52 C 0.17662 0.18379 0.98046 0.0
C53 C 0.12324 0.19739 0.97001 0.0
C54 C 0.11807 0.2015 1.0002 0.0
C55 C 0.14185 0.19613 0.02089 0.0
C56 C 0.20708 0.20574 0.86332 0.0
C57 C 0.22774 0.19264 0.84403 0.0
C58 C 0.20792 0.23341 0.86459 0.0
C59 C 0.22876 0.24768 0.84675 0.0
C60 C 0.24943 0.23458 0.82748 0.0
C61 C 0.24879 0.20689 0.82643 0.0
C62 C 0.17121 0.1873 0.01076 0.0
H63 H 0.1393 0.0809 0.82591 0.0
H64 H 0.16724 0.1181 0.8476 0.0
H65 H 0.08194 0.14299 0.8911 0.0
H66 H 0.05418 0.10512 0.87016 0.0
H67 H 0.1697 0.16579 0.84513 0.0
H68 H 0.12286 0.15129 0.92792 0.0
H69 H 0.1932 0.21196 0.92193 0.0
H70 H 0.1993 0.17669 0.97311 0.0
H71 H 0.1043 0.20099 0.95453 0.0
H72 H 0.09512 0.20803 0.00748 0.0
H73 H 0.22778 0.17132 0.84272 0.0
H74 H 0.19212 0.24405 0.87905 0.0
H75 H 0.18986 0.18296 0.02631 0.0
H76 H 0.26437 0.19625 0.81176 0.0
H77 H 0.22899 0.26898 0.84836 0.0
C78 C 0.87187 0.08267 0.66203 0.0
C79 C 0.90393 0.08754 0.66786 0.0
C80 C 0.85304 0.10195 0.64897 0.0
C81 C 0.8659 0.12631 0.6408 0.0
C82 C 0.89773 0.13142 0.64642 0.0
C83 C 0.91649 0.11234 0.66011 0.0
C84 C 0.84605 0.14604 0.62582 0.0
C85 C 0.82187 0.1586 0.64131 0.0
C86 C 0.80146 0.17633 0.62696 0.0
C87 C 0.80594 0.18116 0.59646 0.0
C88 C 0.83066 0.16908 0.58078 0.0
C89 C 0.85055 0.15148 0.59579 0.0
C90 C 0.83594 0.17463 0.54876 0.0
C91 C 0.81068 0.17629 0.52876 0.0
C92 C 0.86666 0.17753 0.53782 0.0
C93 C 0.8721 0.18131 0.50768 0.0
C94 C 0.84696 0.18253 0.48751 0.0
C95 C 0.776 0.18993 0.64402 0.0
C96 C 0.76175 0.1777 0.66859 0.0
C97 C 0.76618 0.21553 0.63643 0.0
C98 C 0.74296 0.22842 0.65283 0.0
C99 C 0.72938 0.21649 0.67793 0.0
C100 C 0.73923 0.1909 0.68551 0.0
C101 C 0.81613 0.18016 0.49847 0.0
H102 H 0.86132 0.06372 0.66682 0.0
H103 H 0.82855 0.0976 0.64455 0.0
H104 H 0.90799 0.15021 0.64034 0.0
H105 H 0.94082 0.11712 0.66461 0.0
H106 H 0.81954 0.15474 0.66475 0.0
H107 H 0.8691 0.14135 0.58397 0.0
H108 H 0.79036 0.19441 0.58482 0.0
H109 H 0.78671 0.17395 0.53637 0.0
H110 H 0.88667 0.17671 0.55259 0.0
H111 H 0.89621 0.18257 0.50014 0.0
H112 H 0.76787 0.1578 0.67494 0.0
H113 H 0.77668 0.22596 0.61804 0.0
H114 H 0.7962 0.18116 0.48364 0.0
H115 H 0.72989 0.18096 0.70477 0.0
H116 H 0.73566 0.24777 0.64553 0.0
C117 C 0.66133 0.41789 0.17514 0.0
C118 C 0.63368 0.43042 0.1656 0.0
C119 C 0.67151 0.39459 0.16201 0.0
C120 C 0.65377 0.38229 0.13964 0.0
C121 C 0.62548 0.39428 0.13073 0.0
C122 C 0.61572 0.41816 0.14332 0.0
C123 C 0.66531 0.3574 0.12558 0.0
C124 C 0.6838 0.33964 0.14188 0.0
C125 C 0.69744 0.31751 0.1285 0.0
C126 C 0.69096 0.31209 0.09867 0.0
C127 C 0.67168 0.32903 0.08208 0.0
C128 C 0.6593 0.35178 0.09562 0.0
C129 C 0.66472 0.32335 0.05048 0.0
C130 C 0.6886 0.31546 0.03088 0.0
C131 C 0.634 0.3262 0.03963 0.0
C132 C 0.62728 0.32145 0.00988 0.0
C133 C 0.65114 0.3138 0.99016 0.0
C134 C 0.71974 0.30105 0.14564 0.0
C135 C 0.74352 0.31321 0.16236 0.0
C136 C 0.71753 0.27344 0.14562 0.0
C137 C 0.73859 0.2583 0.16223 0.0
C138 C 0.76253 0.27047 0.17893 0.0
C139 C 0.76471 0.29813 0.17869 0.0
C140 C 0.6819 0.31088 1.00097 0.0
H141 H 0.6755 0.42611 0.19276 0.0
H142 H 0.69377 0.38659 0.16925 0.0
H143 H 0.61078 0.38533 0.11397 0.0
H144 H 0.59443 0.42718 0.1351 0.0
H145 H 0.68787 0.34293 0.16522 0.0
H146 H 0.64587 0.3655 0.08237 0.0
H147 H 0.70119 0.29486 0.08832 0.0
H148 H 0.71256 0.31331 0.03854 0.0
H149 H 0.61506 0.33207 0.05419 0.0
H150 H 0.60342 0.32429 1.00221 0.0
H151 H 0.7461 0.33446 0.16242 0.0
H152 H 0.69924 0.26359 0.1331 0.0
H153 H 0.70075 0.30497 0.98633 0.0
H154 H 0.78324 0.30822 0.19059 0.0
H155 H 0.73597 0.23706 0.16213 0.0
C156 C 0.59332 0.61754 0.69797 0.0
C157 C 0.5883 0.5929 0.68444 0.0
C158 C 0.61012 0.63741 0.68328 0.0
C159 C 0.62219 0.63307 0.65473 0.0
C160 C 0.61696 0.60851 0.64122 0.0
C161 C 0.60033 0.58871 0.65586 0.0
C162 C 0.64134 0.65342 0.63925 0.0
C163 C 0.66472 0.66751 0.6544 0.0
C164 C 0.68517 0.68442 0.63912 0.0
C165 C 0.68221 0.68729 0.60829 0.0
C166 C 0.65821 0.67401 0.59273 0.0
C167 C 0.63767 0.65745 0.60871 0.0
C168 C 0.65443 0.67692 0.55993 0.0
C169 C 0.66109 0.70087 0.54544 0.0
C170 C 0.64302 0.65577 0.54285 0.0
C171 C 0.63693 0.65879 0.51272 0.0
C172 C 0.64303 0.68282 0.49818 0.0
C173 C 0.71024 0.69834 0.65558 0.0
C174 C 0.70244 0.71656 0.67776 0.0
C175 C 0.74198 0.6926 0.65021 0.0
C176 C 0.76557 0.70465 0.66709 0.0
C177 C 0.75779 0.72303 0.68914 0.0
C178 C 0.72605 0.72907 0.69414 0.0
C179 C 0.65575 0.7037 0.51497 0.0
H180 H 0.5842 0.62149 0.71987 0.0
H181 H 0.61359 0.65619 0.69421 0.0
H182 H 0.62653 0.60426 0.61955 0.0
H183 H 0.59771 0.5698 0.64501 0.0
H184 H 0.66798 0.66452 0.67793 0.0
H185 H 0.61852 0.64757 0.59747 0.0
H186 H 0.69874 0.69978 0.59661 0.0
H187 H 0.66975 0.71772 0.55767 0.0
H188 H 0.6384 0.63672 0.55273 0.0
H189 H 0.62658 0.64224 0.50117 0.0
H190 H 0.67807 0.72116 0.6823 0.0
H191 H 0.74846 0.67845 0.63335 0.0
H192 H 0.6614 0.72239 0.50475 0.0
H193 H 0.71952 0.7432 0.711 0.0
H194 H 0.78992 0.69987 0.66268 0.0
C195 C 0.82841 0.81248 0.00903 0.0
C196 C 0.85889 0.81362 0.99706 0.0
C197 C 0.82357 0.81558 0.03948 0.0
C198 C 0.84911 0.81994 0.05869 0.0
C199 C 0.87957 0.82067 0.04673 0.0
C200 C 0.88438 0.81767 0.01639 0.0
C201 C 0.84409 0.8245 0.09091 0.0
C202 C 0.8215 0.80987 0.10674 0.0
C203 C 0.81629 0.81456 0.13704 0.0
C204 C 0.83415 0.83405 0.15138 0.0
C205 C 0.85697 0.84868 0.13614 0.0
C206 C 0.86177 0.84382 0.10592 0.0
C207 C 0.87532 0.86929 0.15194 0.0
C208 C 0.86037 0.88615 0.17216 0.0
C209 C 0.90788 0.87193 0.14747 0.0
C210 C 0.92509 0.89093 0.16306 0.0
C211 C 0.9101 0.90762 0.18346 0.0
C212 C 0.79169 0.79985 0.15381 0.0
C213 C 0.76282 0.79341 0.14054 0.0
C214 C 0.79624 0.79336 0.18378 0.0
C215 C 0.77216 0.78181 0.20033 0.0
C216 C 0.74302 0.77592 0.18725 0.0
C217 C 0.73893 0.78141 0.15695 0.0
C218 C 0.87754 0.90504 0.18775 0.0
H219 H 0.80826 0.80923 0.99486 0.0
H220 H 0.79975 0.81515 0.04788 0.0
H221 H 0.89983 0.82365 0.06084 0.0
H222 H 0.90817 0.81917 0.00803 0.0
H223 H 0.80839 0.7945 0.09555 0.0
H224 H 0.87864 0.85571 0.09389 0.0
H225 H 0.83015 0.83809 0.17458 0.0
H226 H 0.83523 0.885 0.17569 0.0
H227 H 0.92012 0.85905 0.13228 0.0
H228 H 0.95017 0.89241 0.15934 0.0
H229 H 0.75828 0.79822 0.11761 0.0
H230 H 0.81838 0.79743 0.19466 0.0
H231 H 0.86513 0.91803 0.20272 0.0
H232 H 0.71717 0.77654 0.14579 0.0
H233 H 0.77628 0.77806 0.22356 0.0
C234 C 0.09926 0.89333 0.33406 0.0
C235 C 0.09436 0.91542 0.35215 0.0
C236 C 0.11797 0.8724 0.34404 0.0
C237 C 0.13226 0.87347 0.37212 0.0
C238 C 0.12867 0.89638 0.38927 0.0
C239 C 0.10977 0.91699 0.3795 0.0
C240 C 0.14938 0.85041 0.38449 0.0
C241 C 0.16976 0.83525 0.36695 0.0
C242 C 0.18625 0.81373 0.3791 0.0
C243 C 0.18166 0.80734 0.40917 0.0
C244 C 0.16195 0.82269 0.42701 0.0
C245 C 0.14568 0.84387 0.41446 0.0
C246 C 0.15907 0.81769 0.45916 0.0
C247 C 0.14882 0.79318 0.46993 0.0
C248 C 0.16484 0.83827 0.4792 0.0
C249 C 0.1596 0.83472 0.50939 0.0
C250 C 0.14808 0.81059 0.52018 0.0
C251 C 0.2096 0.79897 0.36094 0.0
C252 C 0.20433 0.794 0.33071 0.0
C253 C 0.23792 0.79034 0.37364 0.0
C254 C 0.26033 0.77721 0.35668 0.0
C255 C 0.2554 0.77266 0.32634 0.0
C256 C 0.22699 0.78107 0.3136 0.0
C257 C 0.14305 0.78973 0.50021 0.0
H258 H 0.08761 0.8918 0.31283 0.0
H259 H 0.12024 0.85503 0.33031 0.0
H260 H 0.14007 0.89824 0.41058 0.0
H261 H 0.1068 0.93409 0.39357 0.0
H262 H 0.17371 0.84092 0.34416 0.0
H263 H 0.12981 0.85518 0.42824 0.0
H264 H 0.19393 0.79082 0.41898 0.0
H265 H 0.14413 0.77707 0.45484 0.0
H266 H 0.17286 0.85733 0.47139 0.0
H267 H 0.1633 0.85126 0.52415 0.0
H268 H 0.18265 0.80006 0.32021 0.0
H269 H 0.24316 0.79412 0.39668 0.0
H270 H 0.13419 0.77093 0.50797 0.0
H271 H 0.22241 0.77804 0.2903 0.0
H272 H 0.28156 0.77053 0.36752 0.0
C273 C 0.32065 0.68461 1.0014 0.0
C274 C 0.35126 0.68357 0.01294 0.0
C275 C 0.31571 0.68299 0.97074 0.0
C276 C 0.34136 0.68048 0.95125 0.0
C277 C 0.37196 0.68127 0.96297 0.0
C278 C 0.37682 0.68259 0.99341 0.0
C279 C 0.33667 0.67479 0.9192 0.0
C280 C 0.31357 0.68777 0.90238 0.0
C281 C 0.30966 0.68202 0.87205 0.0
C282 C 0.32888 0.66274 0.85884 0.0
C283 C 0.3521 0.64981 0.8753 0.0
C284 C 0.35566 0.65584 0.90535 0.0
C285 C 0.37268 0.62964 0.86166 0.0
C286 C 0.35986 0.60827 0.84598 0.0
C287 C 0.40527 0.6306 0.86639 0.0
C288 C 0.42446 0.60991 0.85714 0.0
C289 C 0.41146 0.58761 0.84325 0.0
C290 C 0.28608 0.69647 0.85392 0.0
C291 C 0.25611 0.7022 0.86526 0.0
C292 C 0.29349 0.70477 0.82505 0.0
C293 C 0.27157 0.71855 0.80803 0.0
C294 C 0.24167 0.72444 0.81942 0.0
C295 C 0.23417 0.716 0.84822 0.0
C296 C 0.37906 0.58738 0.83694 0.0
H297 H 0.30059 0.68534 0.01612 0.0
H298 H 0.29185 0.68238 0.96245 0.0
H299 H 0.39228 0.68009 0.9486 0.0
H300 H 0.40067 0.68211 1.0018 0.0
H301 H 0.29932 0.70286 0.91269 0.0
H302 H 0.37293 0.64512 0.91821 0.0
H303 H 0.32593 0.65784 0.83568 0.0
H304 H 0.33477 0.60704 0.84215 0.0
H305 H 0.41581 0.64708 0.87799 0.0
H306 H 0.4494 0.61101 0.86174 0.0
H307 H 0.24952 0.6959 0.88729 0.0
H308 H 0.31647 0.70098 0.81571 0.0
H309 H 0.36822 0.57044 0.82651 0.0
H310 H 0.21153 0.7205 0.85788 0.0
H311 H 0.27806 0.72456 0.78588 0.0
Zn312 Zn 0.02356 0.14088 0.31416 0.0
Zn313 Zn 0.98676 0.12857 0.20602 0.0
Zn314 Zn 0.00479 0.13719 0.26051 0.0
C315 C 0.04259 0.15666 0.20197 0.0
C316 C 0.99021 0.07956 0.22902 0.0
O317 O 0.96756 0.15796 0.28674 0.0
O318 O 0.99089 0.16428 0.32982 0.0
C319 C 0.07109 0.16295 0.2806 0.0
O320 O 0.03984 0.15657 0.23041 0.0
O321 O 0.02269 0.14501 0.18598 0.0
O322 O 0.98381 0.08998 0.20447 0.0
O323 O 0.99841 0.09409 0.25118 0.0
O324 O 0.06522 0.15579 0.30672 0.0
O325 O 0.05083 0.15869 0.25989 0.0
O326 O 0.01144 0.09707 0.27937 0.0
O327 O 0.02172 0.10365 0.32674 0.0
C328 C 0.01722 0.08805 0.30547 0.0
O329 O 0.9594 0.15802 0.25614 0.0
O330 O 0.94741 0.14921 0.20961 0.0
C331 C 0.96717 0.16707 0.31341 0.0
C332 C 0.94083 0.16039 0.23378 0.0
Zn333 Zn 0.52598 0.36751 0.70937 0.0
Zn334 Zn 0.4734 0.35509 0.8137 0.0
Zn335 Zn 0.49849 0.36041 0.76075 0.0
C336 C 0.48107 0.40879 0.80487 0.0
C337 C 0.43117 0.33268 0.77404 0.0
O338 O 0.54297 0.33734 0.75974 0.0
O339 O 0.56596 0.34913 0.71789 0.0
C340 C 0.517 0.41743 0.73116 0.0
O341 O 0.49166 0.4001 0.78003 0.0
O342 O 0.47166 0.393 0.82454 0.0
O343 O 0.43488 0.33676 0.80131 0.0
O344 O 0.45206 0.34032 0.75521 0.0
O345 O 0.52576 0.4065 0.70751 0.0
O346 O 0.50695 0.40333 0.75296 0.0
O347 O 0.46585 0.34385 0.72717 0.0
O348 O 0.49408 0.3478 0.68629 0.0
C349 C 0.46931 0.34022 0.69914 0.0
O350 O 0.53179 0.33773 0.78926 0.0
O351 O 0.50664 0.3337 0.83177 0.0
C352 C 0.56619 0.3358 0.74145 0.0
C353 C 0.53068 0.32942 0.81621 0.0
Zn354 Zn 0.02699 0.85872 0.80806 0.0
Zn355 Zn 0.96918 0.86501 0.70547 0.0
Zn356 Zn 0.99871 0.86128 0.75686 0.0
C357 C 0.9803 0.91616 0.72328 0.0
C358 C 0.92959 0.83623 0.7417 0.0
O359 O 0.0439 0.83893 0.7514 0.0
O360 O 0.06175 0.83549 0.79726 0.0
C361 C 0.02321 0.9119 0.79463 0.0
O362 O 0.99244 0.90365 0.74531 0.0
O363 O 0.9681 0.90381 0.70198 0.0
O364 O 0.93006 0.84675 0.71643 0.0
O365 O 0.95303 0.83928 0.75952 0.0
O366 O 0.03601 0.89682 0.81325 0.0
O367 O 0.00746 0.90217 0.77281 0.0
O368 O 0.96591 0.84127 0.78809 0.0
O369 O 0.99218 0.8425 0.83027 0.0
C370 C 0.96777 0.83631 0.816 0.0
O371 O 0.02968 0.84283 0.72338 0.0
O372 O 1.0012 0.84523 0.68248 0.0
C373 C 0.06433 0.83029 0.77014 0.0
C374 C 0.02613 0.83835 0.69549 0.0
Zn375 Zn 0.52506 0.64932 0.20686 0.0
Zn376 Zn 0.47732 0.63862 0.30165 0.0
Zn377 Zn 0.50102 0.6431 0.25371 0.0
C378 C 0.53511 0.65721 0.31446 0.0
C379 C 0.47597 0.58903 0.27943 0.0
O380 O 0.46425 0.65813 0.22216 0.0
O381 O 0.48806 0.64625 0.18105 0.0
C382 C 0.55317 0.68625 0.23918 0.0
O383 O 0.53193 0.66314 0.28691 0.0
O384 O 0.51537 0.64222 0.32671 0.0
O385 O 0.4594 0.60281 0.2966 0.0
O386 O 0.4968 0.60027 0.26301 0.0
O387 O 0.5442 0.68465 0.21266 0.0
O388 O 0.54185 0.67013 0.25848 0.0
O389 O 0.51848 0.60363 0.24039 0.0
O390 O 0.55368 0.61856 0.20875 0.0
C391 C 0.54253 0.59974 0.22367 0.0
O392 O 0.45423 0.66222 0.25101 0.0
O393 O 0.44843 0.66921 0.29883 0.0
C394 C 0.46367 0.65432 0.19395 0.0
C395 C 0.43957 0.67328 0.27261 0.0
H396 H 0.09546 0.94695 0.3027 0.0
H397 H 0.04428 0.93189 0.3838 0.0
H398 H 0.01206 0.97145 0.37522 0.0
H399 H 0.10356 0.01248 0.3114 0.0
H400 H 0.09792 0.02236 0.27348 0.0
H401 H 0.11199 0.98982 0.28173 0.0
H402 H 0.06617 0.96975 0.25171 0.0
H403 H 0.0512 0.0022 0.24358 0.0
H404 H 0.02625 0.97805 0.26103 0.0
H405 H 0.99343 0.01587 0.36415 0.0
H406 H 0.98785 0.06257 0.34995 0.0
H407 H 0.0495 0.05005 0.27505 0.0
C408 C 0.07659 0.95154 0.3179 0.0
C409 C 0.07208 0.93645 0.34381 0.0
C410 C 0.04792 0.94328 0.36382 0.0
C411 C 0.0294 0.96558 0.35902 0.0
C412 C 0.03515 0.98075 0.33394 0.0
C413 C 0.05785 0.97394 0.31342 0.0
C414 C 0.06171 0.99547 0.29036 0.0
C415 C 0.09581 0.00563 0.2892 0.0
C416 C 0.05068 0.98579 0.25986 0.0
C417 C 0.03952 0.01616 0.30252 0.0
C418 C 0.02387 0.0069 0.32724 0.0
C419 C 0.00479 0.02314 0.34435 0.0
C420 C 0.00195 0.04963 0.33629 0.0
C421 C 0.01794 0.05958 0.31129 0.0
C422 C 0.03648 0.04258 0.29386 0.0
H423 H 0.41059 0.55315 0.79574 0.0
H424 H 0.45544 0.56718 0.88057 0.0
H425 H 0.48401 0.5254 0.87591 0.0
H426 H 0.3965 0.48681 0.80576 0.0
H427 H 0.40465 0.47672 0.76832 0.0
H428 H 0.3915 0.50974 0.77566 0.0
H429 H 0.44026 0.52791 0.74866 0.0
H430 H 0.45488 0.4951 0.74195 0.0
H431 H 0.47895 0.51889 0.76108 0.0
H432 H 0.50075 0.47973 0.86681 0.0
H433 H 0.50642 0.43303 0.8523 0.0
H434 H 0.45278 0.44776 0.77261 0.0
C435 C 0.42688 0.54764 0.81305 0.0
C436 C 0.43099 0.56369 0.83837 0.0
C437 C 0.45238 0.55565 0.86062 0.0
C438 C 0.46869 0.53184 0.85825 0.0
C439 C 0.46367 0.51628 0.83336 0.0
C440 C 0.44356 0.52389 0.81095 0.0
C441 C 0.44064 0.50241 0.78773 0.0
C442 C 0.40629 0.49339 0.78418 0.0
C443 C 0.45451 0.51161 0.75809 0.0
C444 C 0.46074 0.48105 0.80154 0.0
C445 C 0.47416 0.4897 0.82766 0.0
C446 C 0.49109 0.47289 0.84604 0.0
C447 C 0.49406 0.44644 0.83775 0.0
C448 C 0.48044 0.43716 0.81124 0.0
C449 C 0.46403 0.45472 0.79264 0.0
H450 H 0.5469 0.55698 0.66119 0.0
H451 H 0.59336 0.57878 0.74302 0.0
H452 H 0.57188 0.53885 0.76697 0.0
H453 H 0.47689 0.52392 0.69485 0.0
H454 H 0.47673 0.4985 0.667 0.0
H455 H 0.49018 0.53125 0.65793 0.0
H456 H 0.54316 0.51248 0.63949 0.0
H457 H 0.53001 0.4797 0.64808 0.0
H458 H 0.56613 0.49196 0.66379 0.0
H459 H 0.5523 0.49305 0.77957 0.0
H460 H 0.5381 0.44569 0.77877 0.0
H461 H 0.50584 0.45367 0.68842 0.0
C462 C 0.55214 0.55365 0.68431 0.0
C463 C 0.57185 0.57108 0.70019 0.0
C464 C 0.57795 0.56599 0.73047 0.0
C465 C 0.56588 0.54329 0.74426 0.0
C466 C 0.54754 0.52599 0.72758 0.0
C467 C 0.54052 0.53108 0.69828 0.0
C468 C 0.52347 0.50813 0.68411 0.0
C469 C 0.48981 0.51592 0.67547 0.0
C470 C 0.5418 0.49744 0.65731 0.0
C471 C 0.52344 0.48875 0.7095 0.0
C472 C 0.53672 0.49956 0.73465 0.0
C473 C 0.54133 0.48459 0.76018 0.0
C474 C 0.533 0.45777 0.75964 0.0
C475 C 0.52033 0.44628 0.73374 0.0
C476 C 0.515 0.46214 0.70866 0.0
H477 H 0.95439 0.941 0.16055 0.0
H478 H 0.90476 0.9223 0.24163 0.0
H479 H 0.92813 0.96145 0.26555 0.0
H480 H 0.02678 0.9703 0.19724 0.0
H481 H 0.03022 0.99512 0.16891 0.0
H482 H 0.01483 0.96294 0.15992 0.0
H483 H 0.96446 0.98425 0.13862 0.0
H484 H 0.97951 0.01641 0.14731 0.0
H485 H 0.9418 0.00626 0.16149 0.0
H486 H 0.94854 0.00644 0.27738 0.0
H487 H 0.96427 0.05334 0.27575 0.0
H488 H 0.0028 0.04198 0.18811 0.0
C489 C 0.94943 0.94455 0.18368 0.0
C490 C 0.92781 0.9286 0.19923 0.0
C491 C 0.92111 0.93438 0.22922 0.0
C492 C 0.93451 0.95643 0.24309 0.0
C493 C 0.95489 0.97231 0.2268 0.0
C494 C 0.96264 0.96645 0.19783 0.0
C495 C 0.98207 0.98824 0.18406 0.0
C496 C 0.01546 0.97857 0.17713 0.0
C497 C 0.96598 0.99945 0.15626 0.0
C498 C 0.98229 0.00799 0.20911 0.0
C499 C 0.96714 0.99823 0.23385 0.0
C500 C 0.96136 0.014 0.25852 0.0
C501 C 0.97061 0.04055 0.25756 0.0
C502 C 0.98573 0.05091 0.23226 0.0
C503 C 0.99207 0.03427 0.20804 0.0
H504 H 0.88715 0.04863 0.70761 0.0
H505 H 0.96661 0.07766 0.65673 0.0
H506 H 0.99834 0.04033 0.67425 0.0
H507 H 0.93233 0.01735 0.76912 0.0
H508 H 0.90582 0.98963 0.77052 0.0
H509 H 0.89146 0.02167 0.75986 0.0
H510 H 0.86982 0.00209 0.71092 0.0
H511 H 0.88384 0.97009 0.72153 0.0
H512 H 0.896 0.98428 0.68681 0.0
H513 H 0.01946 0.99675 0.69167 0.0
H514 H 0.02592 0.94933 0.70361 0.0
H515 H 0.93146 0.94708 0.73884 0.0
C516 C 0.9113 0.04743 0.70028 0.0
C517 C 0.92421 0.06643 0.68081 0.0
C518 C 0.95613 0.06392 0.67217 0.0
C519 C 0.97444 0.04265 0.68197 0.0
C520 C 0.96061 0.02392 0.7004 0.0
C521 C 0.92968 0.02609 0.70937 0.0
C522 C 0.91895 0.00162 0.72572 0.0
C523 C 0.91171 0.00796 0.75824 0.0
C524 C 0.89049 0.98877 0.71031 0.0
C525 C 0.94809 0.98476 0.72311 0.0
C526 C 0.97229 0.99829 0.7094 0.0
C527 C 1.00088 0.98614 0.70289 0.0
C528 C 0.00441 0.95931 0.70976 0.0
C529 C 0.97936 0.94503 0.72256 0.0
C530 C 0.95113 0.95796 0.72971 0.0
H531 H 0.57377 0.45115 0.17414 0.0
H532 H 0.67296 0.46996 0.18464 0.0
H533 H 0.65896 0.51237 0.20665 0.0
H534 H 0.55297 0.51624 0.1503 0.0
H535 H 0.51502 0.51591 0.168 0.0
H536 H 0.5325 0.48548 0.1559 0.0
H537 H 0.52704 0.46672 0.20879 0.0
H538 H 0.50997 0.49724 0.22122 0.0
H539 H 0.54439 0.48421 0.23938 0.0
H540 H 0.63568 0.55337 0.22486 0.0
H541 H 0.60391 0.59307 0.23408 0.0
H542 H 0.51945 0.55036 0.20972 0.0
C543 C 0.59263 0.46411 0.18101 0.0
C544 C 0.62458 0.45654 0.17827 0.0
C545 C 0.64831 0.47446 0.18749 0.0
C546 C 0.64063 0.49884 0.19989 0.0
C547 C 0.60909 0.50544 0.20256 0.0
C548 C 0.58541 0.4889 0.19296 0.0
C549 C 0.55351 0.50201 0.1961 0.0
C550 C 0.53757 0.5051 0.16577 0.0
C551 C 0.53248 0.48664 0.21768 0.0
C552 C 0.56314 0.52857 0.20879 0.0
C553 C 0.59536 0.52983 0.21259 0.0
C554 C 0.61041 0.55259 0.22231 0.0
C555 C 0.59222 0.57499 0.22752 0.0
C556 C 0.55935 0.57448 0.22309 0.0
C557 C 0.54447 0.5509 0.21405 0.0
H558 H 0.38286 0.46048 0.32416 0.0
H559 H 0.46929 0.41636 0.31422 0.0
H560 H 0.4954 0.45607 0.29353 0.0
H561 H 0.39185 0.5008 0.25671 0.0
H562 H 0.37489 0.5294 0.27411 0.0
H563 H 0.36267 0.49684 0.28527 0.0
H564 H 0.3771 0.50778 0.33963 0.0
H565 H 0.38928 0.54029 0.32866 0.0
H566 H 0.41623 0.51916 0.34818 0.0
H567 H 0.51342 0.50256 0.28041 0.0
H568 H 0.52066 0.55057 0.27258 0.0
H569 H 0.42162 0.56286 0.28957 0.0
C570 C 0.40719 0.45913 0.31732 0.0
C571 C 0.42418 0.43552 0.32084 0.0
C572 C 0.4559 0.43433 0.3115 0.0
C573 C 0.47087 0.45675 0.29979 0.0
C574 C 0.45356 0.47996 0.29717 0.0
C575 C 0.42228 0.48112 0.30534 0.0
C576 C 0.40911 0.50854 0.3016 0.0
C577 C 0.3831 0.50891 0.27801 0.0
C578 C 0.39726 0.51958 0.33128 0.0
C579 C 0.43812 0.52292 0.29104 0.0
C580 C 0.46354 0.50619 0.28837 0.0
C581 C 0.49343 0.51566 0.28127 0.0
C582 C 0.49734 0.54289 0.27671 0.0
C583 C 0.47155 0.56021 0.2797 0.0
C584 C 0.44162 0.54996 0.28661 0.0
H585 H 0.11731 0.03966 0.84388 0.0
H586 H 0.03475 0.0862 0.82332 0.0
H587 H 0.00763 0.04595 0.80553 0.0
H588 H 0.11192 0.99521 0.78091 0.0
H589 H 0.12531 0.96724 0.80198 0.0
H590 H 0.13829 -5e-05 0.81166 0.0
H591 H 0.11778 0.99311 0.86511 0.0
H592 H 0.10469 0.96044 0.85558 0.0
H593 H 0.07731 0.98383 0.87086 0.0
H594 H 0.98898 0.99953 0.79172 0.0
H595 H 0.98061 0.95148 0.78477 0.0
H596 H 0.07607 0.93668 0.81323 0.0
C597 C 0.09372 0.04154 0.83517 0.0
C598 C 0.07823 0.06612 0.83483 0.0
C599 C 0.04703 0.06753 0.82395 0.0
C600 C 0.03152 0.04482 0.81363 0.0
C601 C 0.04754 0.02087 0.81436 0.0
C602 C 0.07797 0.01916 0.82488 0.0
C603 C 0.08975 0.99108 0.82447 0.0
C604 C 0.11798 0.98821 0.8035 0.0
C605 C 0.09784 0.98157 0.85587 0.0
C606 C 0.06109 0.97711 0.81245 0.0
C607 C 0.03698 0.99454 0.80646 0.0
C608 C 0.00789 0.98582 0.79596 0.0
C609 C 0.00342 0.95859 0.79168 0.0
C610 C 0.02792 0.94059 0.79769 0.0
C611 C 0.057 0.95007 0.80822 0.0
H612 H 0.14787 0.15763 0.06249 0.0
H613 H 0.11863 0.23865 0.05084 0.0
H614 H 0.10065 0.24003 0.10286 0.0
H615 H 0.08289 0.13825 0.09978 0.0
H616 H 0.10209 0.1154 0.12434 0.0
H617 H 0.11938 0.12293 0.08916 0.0
H618 H 0.17093 0.13701 0.11542 0.0
H619 H 0.15351 0.1297 0.15084 0.0
H620 H 0.16974 0.16194 0.1438 0.0
H621 H 0.07782 0.23036 0.15257 0.0
H622 H 0.0479 0.20935 0.19314 0.0
H623 H 0.09073 0.1344 0.17252 0.0
C624 C 0.13882 0.17594 0.07135 0.0
C625 C 0.13511 0.19819 0.05297 0.0
C626 C 0.12194 0.22151 0.06478 0.0
C627 C 0.11189 0.2225 0.09433 0.0
C628 C 0.11512 0.19997 0.11178 0.0
C629 C 0.12824 0.17708 0.10066 0.0
C630 C 0.12446 0.15441 0.12219 0.0
C631 C 0.1061 0.13142 0.10803 0.0
C632 C 0.15658 0.14523 0.13375 0.0
C633 C 0.10569 0.1677 0.14642 0.0
C634 C 0.10141 0.19421 0.14049 0.0
C635 C 0.08181 0.20985 0.15793 0.0
C636 C 0.0651 0.19786 0.18111 0.0
C637 C 0.06809 0.17056 0.18656 0.0
C638 C 0.08933 0.15556 0.16959 0.0
H639 H 0.41553 0.28912 0.54463 0.0
H640 H 0.32769 0.33024 0.55954 0.0
H641 H 0.34061 0.33416 0.61257 0.0
H642 H 0.42157 0.25609 0.61878 0.0
H643 H 0.46343 0.26149 0.61991 0.0
H644 H 0.44396 0.2564 0.58495 0.0
H645 H 0.46696 0.3005 0.56548 0.0
H646 H 0.48651 0.30559 0.60017 0.0
H647 H 0.46017 0.33038 0.58609 0.0
H648 H 0.36734 0.34045 0.66213 0.0
H649 H 0.40623 0.3505 0.70136 0.0
H650 H 0.4768 0.30663 0.65339 0.0
C651 C 0.39867 0.29852 0.55909 0.0
C652 C 0.37055 0.30932 0.54778 0.0
C653 C 0.34914 0.32137 0.56763 0.0
C654 C 0.35632 0.32373 0.59786 0.0
C655 C 0.38487 0.31376 0.60803 0.0
C656 C 0.40562 0.30127 0.58914 0.0
C657 C 0.43651 0.29545 0.6043 0.0
C658 C 0.44165 0.26558 0.60715 0.0
C659 C 0.46413 0.30879 0.58806 0.0
C660 C 0.43062 0.30788 0.63418 0.0
C661 C 0.40042 0.3177 0.63634 0.0
C662 C 0.39075 0.33224 0.66096 0.0
C663 C 0.41284 0.33766 0.68332 0.0
C664 C 0.44419 0.32885 0.68061 0.0
C665 C 0.45275 0.31311 0.65621 0.0
H666 H 0.60046 0.28818 0.9666 0.0
H667 H 0.68435 0.33144 0.94192 0.0
H668 H 0.66737 0.33074 0.88963 0.0
H669 H 0.59194 0.24895 0.89554 0.0
H670 H 0.54978 0.252 0.89697 0.0
H671 H 0.57218 0.2503 0.93076 0.0
H672 H 0.54737 0.29425 0.94837 0.0
H673 H 0.52486 0.2959 0.91493 0.0
H674 H 0.5502 0.32297 0.92502 0.0
H675 H 0.63607 0.33322 0.84223 0.0
H676 H 0.59306 0.34052 0.80639 0.0
H677 H 0.53014 0.29511 0.86187 0.0
C678 C 0.61566 0.29691 0.95007 0.0
C679 C 0.64372 0.30983 0.95832 0.0
C680 C 0.66295 0.3211 0.93606 0.0
C681 C 0.65349 0.32076 0.90628 0.0
C682 C 0.625 0.30869 0.89902 0.0
C683 C 0.60655 0.29672 0.92037 0.0
C684 C 0.57512 0.28828 0.90794 0.0
C685 C 0.5721 0.25809 0.90779 0.0
C686 C 0.54781 0.30113 0.92506 0.0
C687 C 0.5778 0.29897 0.87682 0.0
C688 C 0.60704 0.31002 0.87168 0.0
C689 C 0.61342 0.32399 0.84571 0.0
C690 C 0.58891 0.32789 0.82529 0.0
C691 C 0.5584 0.31813 0.83125 0.0
C692 C 0.55341 0.3024 0.85656 0.0
H693 H 0.89246 0.21236 0.46036 0.0
H694 H 0.81693 0.15736 0.44147 0.0
H695 H 0.83305 0.15627 0.38907 0.0
H696 H 0.89451 0.2462 0.38576 0.0
H697 H 0.9368 0.24797 0.38683 0.0
H698 H 0.91451 0.24981 0.42067 0.0
H699 H 0.94612 0.21054 0.44209 0.0
H700 H 0.96854 0.20883 0.4086 0.0
H701 H 0.94777 0.18007 0.42162 0.0
H702 H 0.8635 0.15442 0.3412 0.0
H703 H 0.9069 0.1494 0.30521 0.0
H704 H 0.9631 0.20456 0.35571 0.0
C705 C 0.87883 0.20051 0.44511 0.0
C706 C 0.85337 0.18499 0.45516 0.0
C707 C 0.83618 0.16982 0.43435 0.0
C708 C 0.8452 0.16907 0.40445 0.0
C709 C 0.87126 0.18381 0.39553 0.0
C710 C 0.8877 0.19938 0.41534 0.0
C711 C 0.91748 0.21022 0.40165 0.0
C712 C 0.9157 0.24034 0.39854 0.0
C713 C 0.94667 0.20189 0.41953 0.0
C714 C 0.91638 0.19694 0.3717 0.0
C715 C 0.88906 0.18247 0.36808 0.0
C716 C 0.8846 0.16619 0.34349 0.0
C717 C 0.90929 0.16356 0.323 0.0
C718 C 0.93815 0.17682 0.32759 0.0
C719 C 0.941 0.19464 0.35142 0.0
H720 H 0.90742 0.78884 0.96863 0.0
H721 H 0.8235 0.83484 0.95193 0.0
H722 H 0.83708 0.83678 0.89888 0.0
H723 H 0.95571 0.82634 0.92693 0.0
H724 H 0.98005 0.79979 0.91371 0.0
H725 H 0.95963 0.79646 0.94819 0.0
H726 H 0.93324 0.75354 0.92916 0.0
H727 H 0.95351 0.75695 0.89435 0.0
H728 H 0.9113 0.75407 0.89507 0.0
H729 H 0.86469 0.84037 0.84933 0.0
H730 H 0.9051 0.84822 0.8108 0.0
H731 H 0.9714 0.80151 0.86085 0.0
C732 C 0.89151 0.7989 0.95377 0.0
C733 C 0.86437 0.81165 0.96456 0.0
C734 C 0.84418 0.82451 0.94423 0.0
C735 C 0.85172 0.82572 0.91398 0.0
C736 C 0.87937 0.81377 0.90429 0.0
C737 C 0.89886 0.8005 0.9237 0.0
C738 C 0.92935 0.79264 0.90904 0.0
C739 C 0.95783 0.80454 0.92543 0.0
C740 C 0.93199 0.7625 0.90677 0.0
C741 C 0.92489 0.80495 0.87889 0.0
C742 C 0.89554 0.81631 0.87607 0.0
C743 C 0.88746 0.83106 0.85108 0.0
C744 C 0.91045 0.83531 0.82919 0.0
C745 C 0.94117 0.82529 0.8329 0.0
C746 C 0.94789 0.80903 0.85737 0.0
H747 H 0.64207 0.64492 0.45412 0.0
H748 H 0.62379 0.72812 0.46909 0.0
H749 H 0.60449 0.73215 0.41804 0.0
H750 H 0.65936 0.64766 0.37362 0.0
H751 H 0.6379 0.61758 0.36686 0.0
H752 H 0.65765 0.62248 0.40171 0.0
H753 H 0.60537 0.61403 0.42967 0.0
H754 H 0.5857 0.60887 0.39503 0.0
H755 H 0.57127 0.63339 0.42045 0.0
H756 H 0.58042 0.72598 0.36713 0.0
H757 H 0.54845 0.70902 0.3253 0.0
H758 H 0.57683 0.62945 0.34673 0.0
C759 C 0.63429 0.66414 0.44687 0.0
C760 C 0.63474 0.68617 0.46612 0.0
C761 C 0.6246 0.71092 0.45497 0.0
C762 C 0.61342 0.71344 0.42584 0.0
C763 C 0.61226 0.69106 0.40797 0.0
C764 C 0.62225 0.66683 0.41825 0.0
C765 C 0.61414 0.645 0.39673 0.0
C766 C 0.64405 0.63244 0.38398 0.0
C767 C 0.59285 0.62412 0.41134 0.0
C768 C 0.59674 0.66051 0.37333 0.0
C769 C 0.59688 0.6872 0.37954 0.0
C770 C 0.58056 0.70517 0.36187 0.0
C771 C 0.56262 0.69545 0.33808 0.0
C772 C 0.56062 0.66805 0.33281 0.0
C773 C 0.57859 0.65055 0.35009 0.0
H774 H 0.38111 0.64361 0.04034 0.0
H775 H 0.33563 0.71828 0.05744 0.0
H776 H 0.35273 0.71597 0.10999 0.0
H777 H 0.36531 0.61315 0.11425 0.0
H778 H 0.40297 0.59696 0.11415 0.0
H779 H 0.38272 0.60289 0.07979 0.0
H780 H 0.43159 0.62769 0.05961 0.0
H781 H 0.45191 0.62181 0.09375 0.0
H782 H 0.44746 0.65504 0.08029 0.0
H783 H 0.38268 0.70809 0.15885 0.0
H784 H 0.42164 0.69566 0.19734 0.0
H785 H 0.44474 0.62552 0.14745 0.0
C786 C 0.37411 0.65914 0.05539 0.0
C787 C 0.35711 0.68108 0.04509 0.0
C788 C 0.34847 0.7012 0.06516 0.0
C789 C 0.35807 0.7 0.09496 0.0
C790 C 0.37569 0.6783 0.1043 0.0
C791 C 0.38317 0.65807 0.08501 0.0
C792 C 0.40446 0.638 0.09927 0.0
C793 C 0.38786 0.61116 0.10203 0.0
C794 C 0.43569 0.63552 0.08223 0.0
C795 C 0.40916 0.65059 0.12919 0.0
C796 C 0.39211 0.67361 0.13211 0.0
C797 C 0.39546 0.68974 0.15703 0.0
C798 C 0.41741 0.68248 0.17893 0.0
C799 C 0.43567 0.65941 0.17554 0.0
C800 C 0.43067 0.64304 0.1508 0.0
H801 H 0.09271 0.79192 0.54231 0.0
H802 H 0.1819 0.82578 0.56888 0.0
H803 H 0.16273 0.82923 0.62032 0.0
H804 H 0.04704 0.83355 0.58143 0.0
H805 H 0.01714 0.81006 0.59175 0.0
H806 H 0.03998 0.8048 0.55891 0.0
H807 H 0.05693 0.75891 0.57828 0.0
H808 H 0.03393 0.76398 0.61126 0.0
H809 H 0.07511 0.75616 0.61415 0.0
H810 H 0.13087 0.83653 0.66611 0.0
H811 H 0.08876 0.84754 0.70163 0.0
H812 H 0.02075 0.80787 0.64621 0.0
C813 C 0.10863 0.799 0.55923 0.0
C814 C 0.13889 0.8083 0.55174 0.0
C815 C 0.15867 0.81845 0.57423 0.0
C816 C 0.14803 0.82033 0.60352 0.0
C817 C 0.11762 0.81184 0.61002 0.0
C818 C 0.09827 0.80117 0.58851 0.0
C819 C 0.06534 0.79674 0.60021 0.0
C820 C 0.04097 0.81222 0.582 0.0
C821 C 0.05737 0.76719 0.60103 0.0
C822 C 0.06873 0.80782 0.63113 0.0
C823 C 0.09922 0.8159 0.63665 0.0
C824 C 0.1072 0.82938 0.66249 0.0
C825 C 0.08329 0.83523 0.68284 0.0
C826 C 0.05192 0.82757 0.67732 0.0
C827 C 0.04477 0.81327 0.65138 0.0
H828 H 0.22999 0.21997 0.34034 0.0
H829 H 0.22638 0.27961 0.27158 0.0
H830 H 0.18154 0.25636 0.24865 0.0
H831 H 0.20878 0.16335 0.29178 0.0
H832 H 0.18647 0.14793 0.32094 0.0
H833 H 0.22028 0.16788 0.32981 0.0
H834 H 0.18594 0.19671 0.36436 0.0
H835 H 0.15214 0.17694 0.35559 0.0
H836 H 0.15106 0.21208 0.34979 0.0
H837 H 0.13219 0.22938 0.23735 0.0
H838 H 0.08447 0.20127 0.23923 0.0
H839 H 0.1244 0.15775 0.31241 0.0
C840 C 0.22064 0.22779 0.3199 0.0
C841 C 0.23189 0.25173 0.30791 0.0
C842 C 0.21799 0.26154 0.28158 0.0
C843 C 0.19268 0.2483 0.26816 0.0
C844 C 0.18187 0.22499 0.28096 0.0
C845 C 0.19577 0.21469 0.30606 0.0
C846 C 0.17868 0.1904 0.3168 0.0
C847 C 0.19982 0.16594 0.31469 0.0
C848 C 0.16622 0.19429 0.34849 0.0
C849 C 0.15224 0.18917 0.29456 0.0
C850 C 0.15447 0.20906 0.2738 0.0
C851 C 0.13074 0.21325 0.25294 0.0
C852 C 0.10385 0.19703 0.25386 0.0
C853 C 0.10108 0.17695 0.27538 0.0
C854 C 0.12604 0.17269 0.29536 0.0
H855 H 0.312 0.22457 0.81968 0.0
H856 H 0.23851 0.27936 0.79503 0.0
H857 H 0.27756 0.30667 0.76846 0.0
H858 H 0.36703 0.27096 0.83681 0.0
H859 H 0.40046 0.25284 0.82327 0.0
H860 H 0.36595 0.23545 0.8352 0.0
H861 H 0.36264 0.21237 0.78412 0.0
H862 H 0.39709 0.23004 0.77194 0.0
H863 H 0.36118 0.23201 0.75094 0.0
H864 H 0.32546 0.33132 0.75141 0.0
H865 H 0.37793 0.35239 0.7492 0.0
H866 H 0.42002 0.28137 0.78392 0.0
C867 C 0.30397 0.24185 0.80785 0.0
C868 C 0.2722 0.24974 0.80921 0.0
C869 C 0.26277 0.27298 0.79432 0.0
C870 C 0.28473 0.28846 0.7789 0.0
C871 C 0.31602 0.28036 0.77841 0.0
C872 C 0.3256 0.25755 0.79252 0.0
C873 C 0.36102 0.25491 0.79207 0.0
C874 C 0.37438 0.25348 0.8237 0.0
C875 C 0.37106 0.2309 0.77366 0.0
C876 C 0.37 0.28041 0.77681 0.0
C877 C 0.34373 0.29455 0.76837 0.0
C878 C 0.3462 0.32009 0.75703 0.0
C879 C 0.37609 0.33185 0.75551 0.0
C880 C 0.40293 0.31801 0.76522 0.0
C881 C 0.3999 0.29178 0.77509 0.0
H882 H 0.72253 0.27024 0.68655 0.0
H883 H 0.67976 0.19508 0.70963 0.0
H884 H 0.63888 0.21844 0.73754 0.0
H885 H 0.70109 0.30753 0.75346 0.0
H886 H 0.69211 0.33681 0.73256 0.0
H887 H 0.72178 0.31431 0.71952 0.0
H888 H 0.69257 0.30977 0.66942 0.0
H889 H 0.66322 0.33249 0.68218 0.0
H890 H 0.65172 0.30026 0.66927 0.0
H891 H 0.59943 0.25014 0.75934 0.0
H892 H 0.56148 0.28661 0.7658 0.0
H893 H 0.62706 0.34034 0.72391 0.0
C894 C 0.70475 0.25846 0.69742 0.0
C895 C 0.705 0.23057 0.69589 0.0
C896 C 0.68106 0.21634 0.71095 0.0
C897 C 0.6575 0.22948 0.72691 0.0
C898 C 0.65784 0.25693 0.72752 0.0
C899 C 0.68066 0.27123 0.7128 0.0
C900 C 0.67347 0.30044 0.71328 0.0
C901 C 0.69861 0.31566 0.73075 0.0
C902 C 0.67002 0.31136 0.68167 0.0
C903 C 0.6424 0.30026 0.72956 0.0
C904 C 0.63425 0.27511 0.73853 0.0
C905 C 0.60572 0.26995 0.75265 0.0
C906 C 0.58438 0.29079 0.75642 0.0
C907 C 0.59146 0.31622 0.74539 0.0
C908 C 0.62124 0.3211 0.73278 0.0
H909 H 0.78927 0.22352 0.16235 0.0
H910 H 0.7896 0.28154 0.23292 0.0
H911 H 0.83265 0.25751 0.25753 0.0
H912 H 0.80658 0.16585 0.21019 0.0
H913 H 0.83058 0.15076 0.18208 0.0
H914 H 0.7979 0.17131 0.17166 0.0
H915 H 0.83527 0.20037 0.14016 0.0
H916 H 0.86801 0.18007 0.15058 0.0
H917 H 0.86931 0.21507 0.15732 0.0
H918 H 0.88021 0.22988 0.27112 0.0
H919 H 0.9263 0.20031 0.27293 0.0
H920 H 0.89137 0.15875 0.19581 0.0
C921 C 0.79765 0.23083 0.18342 0.0
C922 C 0.78601 0.25454 0.19555 0.0
C923 C 0.7984 0.26366 0.22285 0.0
C924 C 0.82269 0.25002 0.23718 0.0
C925 C 0.83404 0.22702 0.22422 0.0
C926 C 0.8216 0.21734 0.19813 0.0
C927 C 0.83895 0.19304 0.18786 0.0
C928 C 0.8172 0.1688 0.18796 0.0
C929 C 0.85376 0.19742 0.15718 0.0
C930 C 0.86374 0.19105 0.2117 0.0
C931 C 0.86052 0.21067 0.23263 0.0
C932 C 0.88244 0.21398 0.25532 0.0
C933 C 0.90842 0.19692 0.25639 0.0
C934 C 0.91206 0.17673 0.23508 0.0
C935 C 0.88908 0.1737 0.21277 0.0
H936 H 0.76822 0.77582 0.69352 0.0
H937 H 0.80436 0.70029 0.72209 0.0
H938 H 0.84811 0.72286 0.74809 0.0
H939 H 0.84028 0.80193 0.67501 0.0
H940 H 0.83138 0.83522 0.68608 0.0
H941 H 0.80022 0.81343 0.67504 0.0
H942 H 0.77218 0.82166 0.72512 0.0
H943 H 0.80363 0.8433 0.73643 0.0
H944 H 0.79289 0.81554 0.75919 0.0
H945 H 0.89068 0.75369 0.76695 0.0
H946 H 0.93157 0.78848 0.76993 0.0
H947 H 0.86867 0.84315 0.72649 0.0
C948 C 0.7849 0.76416 0.70598 0.0
C949 C 0.7828 0.73643 0.7063 0.0
C950 C 0.80557 0.72162 0.72187 0.0
C951 C 0.83028 0.73429 0.73687 0.0
C952 C 0.83195 0.76176 0.7359 0.0
C953 C 0.80996 0.77647 0.72056 0.0
C954 C 0.81929 0.80523 0.7192 0.0
C955 C 0.82303 0.81447 0.68693 0.0
C956 C 0.79558 0.82245 0.73599 0.0
C957 C 0.85055 0.80431 0.73513 0.0
C958 C 0.85705 0.77928 0.74551 0.0
C959 C 0.88563 0.77343 0.75924 0.0
C960 C 0.90866 0.79332 0.76105 0.0
C961 C 0.90311 0.81842 0.74854 0.0
C962 C 0.87328 0.82417 0.73654 0.0
H963 H 0.67958 0.78473 0.1814 0.0
H964 H 0.74707 0.74014 0.2331 0.0
H965 H 0.70359 0.71936 0.26053 0.0
H966 H 0.61751 0.79135 0.23889 0.0
H967 H 0.58665 0.78621 0.21219 0.0
H968 H 0.62285 0.80193 0.20117 0.0
H969 H 0.63052 0.767 0.15989 0.0
H970 H 0.59426 0.75156 0.17051 0.0
H971 H 0.62995 0.7325 0.16948 0.0
H972 H 0.65286 0.69902 0.27787 0.0
H973 H 0.60087 0.67719 0.27836 0.0
H974 H 0.56713 0.73295 0.21321 0.0
C975 C 0.6854 0.77076 0.19862 0.0
C976 C 0.71695 0.76429 0.20507 0.0
C977 C 0.72323 0.74599 0.22804 0.0
C978 C 0.69862 0.73404 0.24383 0.0
C979 C 0.6678 0.74055 0.23646 0.0
C980 C 0.66119 0.75838 0.21421 0.0
C981 C 0.6264 0.75925 0.20751 0.0
C982 C 0.61254 0.78629 0.21542 0.0
C983 C 0.61992 0.75213 0.17494 0.0
C984 C 0.61462 0.73812 0.22836 0.0
C985 C 0.63863 0.72818 0.24567 0.0
C986 C 0.63378 0.70696 0.26482 0.0
C987 C 0.60411 0.69479 0.26515 0.0
C988 C 0.58006 0.70357 0.24597 0.0
C989 C 0.58507 0.72614 0.22837 0.0
H990 H 0.31936 0.77771 0.33112 0.0
H991 H 0.24723 0.73647 0.28136 0.0
H992 H 0.28836 0.71137 0.25509 0.0
H993 H 0.3811 0.77842 0.27343 0.0
H994 H 0.41164 0.77235 0.30017 0.0
H995 H 0.37702 0.79048 0.31073 0.0
H996 H 0.3668 0.75741 0.35342 0.0
H997 H 0.40138 0.73938 0.34314 0.0
H998 H 0.364 0.7227 0.34522 0.0
H999 H 0.3375 0.68677 0.23874 0.0
H1000 H 0.38867 0.6634 0.23711 0.0
H1001 H 0.42716 0.7194 0.29967 0.0
C1002 C 0.31207 0.76359 0.31453 0.0
C1003 C 0.27994 0.75913 0.30839 0.0
C1004 C 0.27165 0.74061 0.2862 0.0
C1005 C 0.29489 0.7262 0.27117 0.0
C1006 C 0.32632 0.73061 0.27844 0.0
C1007 C 0.33483 0.7489 0.29967 0.0
C1008 C 0.36965 0.74794 0.30612 0.0
C1009 C 0.3858 0.77384 0.29706 0.0
C1010 C 0.3758 0.74145 0.3389 0.0
C1011 C 0.3793 0.72553 0.28611 0.0
C1012 C 0.35426 0.71615 0.26967 0.0
C1013 C 0.35735 0.69426 0.25113 0.0
C1014 C 0.38647 0.68119 0.25017 0.0
C1015 C 0.41174 0.68993 0.26796 0.0
C1016 C 0.40823 0.71267 0.28551 0.0
H1017 H 0.17771 0.71739 0.81507 0.0
H1018 H 0.25379 0.76763 0.78471 0.0
H1019 H 0.21554 0.79601 0.75906 0.0
H1020 H 0.12558 0.72565 0.74883 0.0
H1021 H 0.0907 0.72617 0.77142 0.0
H1022 H 0.1243 0.70711 0.78281 0.0
H1023 H 0.12543 0.73183 0.833 0.0
H1024 H 0.09173 0.75061 0.82188 0.0
H1025 H 0.12715 0.76735 0.83322 0.0
H1026 H 0.16912 0.82326 0.74498 0.0
H1027 H 0.11858 0.84705 0.74469 0.0
H1028 H 0.07222 0.77875 0.78173 0.0
C1029 C 0.18639 0.73412 0.80262 0.0
C1030 C 0.21882 0.74015 0.80181 0.0
C1031 C 0.22915 0.76227 0.78526 0.0
C1032 C 0.20757 0.77854 0.77059 0.0
C1033 C 0.1757 0.77231 0.77232 0.0
C1034 C 0.16516 0.75051 0.78779 0.0
C1035 C 0.12961 0.7497 0.78895 0.0
C1036 C 0.1168 0.72573 0.77199 0.0
C1037 C 0.11781 0.7499 0.82116 0.0
C1038 C 0.12181 0.77517 0.77309 0.0
C1039 C 0.1487 0.7877 0.76313 0.0
C1040 C 0.14778 0.81317 0.75147 0.0
C1041 C 0.11888 0.82644 0.7509 0.0
C1042 C 0.09128 0.81406 0.76136 0.0
C1043 C 0.09274 0.78796 0.77198 0.0
loop_
_geom_bond_atom_site_label_1
_geom_bond_atom_site_label_2
_geom_bond_distance
_geom_bond_site_symmetry_2
_ccdc_geom_bond_type
C0 C1 1.386 . S
C0 C2 1.397 . S
C0 H24 0.931 . S
C1 C0 1.386 . S
C1 C5 1.397 . S
C2 C0 1.397 . S
C2 C3 1.384 . S
C2 H25 0.930 . S
C3 C2 1.384 . S
C3 C4 1.377 . S
C3 C6 1.481 . S
C4 C3 1.377 . S
C4 C5 1.389 . S
C4 H26 0.929 . S
C5 C1 1.397 . S
C5 C4 1.389 . S
C5 H27 0.931 . S
C6 C3 1.481 . S
C6 C7 1.387 . S
C6 C11 1.390 . S
C7 C6 1.387 . S
C7 C8 1.401 . S
C7 H28 0.930 . S
C8 C7 1.401 . S
C8 C9 1.376 . S
C8 C17 1.511 . S
C9 C8 1.376 . S
C9 C10 1.392 . S
C9 H30 0.931 . S
C10 C9 1.392 . S
C10 C11 1.361 . S
C10 C12 1.500 . S
C11 C6 1.390 . S
C11 C10 1.361 . S
C11 H29 0.931 . S
C12 C10 1.500 . S
C12 C13 1.371 . S
C12 C14 1.365 . S
C13 C12 1.371 . S
C13 C23 1.386 . S
C13 H31 0.931 . S
C14 C12 1.365 . S
C14 C15 1.409 . S
C14 H32 0.929 . S
C15 C14 1.409 . S
C15 C16 1.380 . S
C15 H33 0.930 . S
C16 C15 1.380 . S
C16 C23 1.357 . S
C17 C8 1.511 . S
C17 C18 1.341 . S
C17 C19 1.371 . S
C18 C17 1.341 . S
C18 C22 1.394 . S
C18 H34 0.930 . S
C19 C17 1.371 . S
C19 C20 1.392 . S
C19 H35 0.931 . S
C20 C19 1.392 . S
C20 C21 1.331 . S
C20 H38 0.932 . S
C21 C20 1.331 . S
C21 C22 1.336 . S
C22 C18 1.394 . S
C22 C21 1.336 . S
C22 H37 0.929 . S
C23 C13 1.386 . S
C23 C16 1.357 . S
C23 H36 0.928 . S
H24 C0 0.931 . S
H25 C2 0.930 . S
H26 C4 0.929 . S
H27 C5 0.931 . S
H28 C7 0.930 . S
H29 C11 0.931 . S
H30 C9 0.931 . S
H31 C13 0.931 . S
H32 C14 0.929 . S
H33 C15 0.930 . S
H34 C18 0.930 . S
H35 C19 0.931 . S
H36 C23 0.928 . S
H37 C22 0.929 . S
H38 C20 0.932 . S
C39 C40 1.386 . S
C39 C41 1.397 . S
C39 H63 0.931 . S
C40 C39 1.386 . S
C40 C44 1.397 . S
C41 C39 1.397 . S
C41 C42 1.384 . S
C41 H64 0.930 . S
C42 C41 1.384 . S
C42 C43 1.377 . S
C42 C45 1.481 . S
C43 C42 1.377 . S
C43 C44 1.389 . S
C43 H65 0.929 . S
C44 C40 1.397 . S
C44 C43 1.389 . S
C44 H66 0.931 . S
C45 C42 1.481 . S
C45 C46 1.387 . S
C45 C50 1.390 . S
C46 C45 1.387 . S
C46 C47 1.401 . S
C46 H67 0.930 . S
C47 C46 1.401 . S
C47 C48 1.376 . S
C47 C56 1.511 . S
C48 C47 1.376 . S
C48 C49 1.392 . S
C48 H69 0.931 . S
C49 C48 1.392 . S
C49 C50 1.361 . S
C49 C51 1.500 . S
C50 C45 1.390 . S
C50 C49 1.361 . S
C50 H68 0.931 . S
C51 C49 1.500 . S
C51 C52 1.371 . S
C51 C53 1.365 . S
C52 C51 1.371 . S
C52 C62 1.386 . S
C52 H70 0.931 . S
C53 C51 1.365 . S
C53 C54 1.409 . S
C53 H71 0.929 . S
C54 C53 1.409 . S
C54 C55 1.380 1_556 S
C54 H72 0.930 . S
C55 C54 1.380 1_554 S
C55 C62 1.357 1_554 S
C56 C47 1.511 . S
C56 C57 1.341 . S
C56 C58 1.371 . S
C57 C56 1.341 . S
C57 C61 1.394 . S
C57 H73 0.930 . S
C58 C56 1.371 . S
C58 C59 1.392 . S
C58 H74 0.931 . S
C59 C58 1.392 . S
C59 C60 1.331 . S
C59 H77 0.932 . S
C60 C59 1.331 . S
C60 C61 1.336 . S
C61 C57 1.394 . S
C61 C60 1.336 . S
C61 H76 0.929 . S
C62 C52 1.386 . S
C62 C55 1.357 1_556 S
C62 H75 0.928 1_556 S
H63 C39 0.931 . S
H64 C41 0.930 . S
H65 C43 0.929 . S
H66 C44 0.931 . S
H67 C46 0.930 . S
H68 C50 0.931 . S
H69 C48 0.931 . S
H70 C52 0.931 . S
H71 C53 0.929 . S
H72 C54 0.930 . S
H73 C57 0.930 . S
H74 C58 0.931 . S
H75 C62 0.928 1_554 S
H76 C61 0.929 . S
H77 C59 0.932 . S
C78 C79 1.386 . S
C78 C80 1.397 . S
C78 H102 0.931 . S
C79 C78 1.386 . S
C79 C83 1.397 . S
C80 C78 1.397 . S
C80 C81 1.384 . S
C80 H103 0.930 . S
C81 C80 1.384 . S
C81 C82 1.377 . S
C81 C84 1.481 . S
C82 C81 1.377 . S
C82 C83 1.389 . S
C82 H104 0.929 . S
C83 C79 1.397 . S
C83 C82 1.389 . S
C83 H105 0.931 . S
C84 C81 1.481 . S
C84 C85 1.387 . S
C84 C89 1.390 . S
C85 C84 1.387 . S
C85 C86 1.401 . S
C85 H106 0.930 . S
C86 C85 1.401 . S
C86 C87 1.376 . S
C86 C95 1.511 . S
C87 C86 1.376 . S
C87 C88 1.392 . S
C87 H108 0.931 . S
C88 C87 1.392 . S
C88 C89 1.361 . S
C88 C90 1.500 . S
C89 C84 1.390 . S
C89 C88 1.361 . S
C89 H107 0.931 . S
C90 C88 1.500 . S
C90 C91 1.371 . S
C90 C92 1.365 . S
C91 C90 1.371 . S
C91 C101 1.386 . S
C91 H109 0.931 . S
C92 C90 1.365 . S
C92 C93 1.409 . S
C92 H110 0.929 . S
C93 C92 1.409 . S
C93 C94 1.380 . S
C93 H111 0.930 . S
C94 C93 1.380 . S
C94 C101 1.357 . S
C95 C86 1.511 . S
C95 C96 1.341 . S
C95 C97 1.371 . S
C96 C95 1.341 . S
C96 C100 1.394 . S
C96 H112 0.930 . S
C97 C95 1.371 . S
C97 C98 1.392 . S
C97 H113 0.931 . S
C98 C97 1.392 . S
C98 C99 1.331 . S
C98 H116 0.932 . S
C99 C98 1.331 . S
C99 C100 1.336 . S
C100 C96 1.394 . S
C100 C99 1.336 . S
C100 H115 0.929 . S
C101 C91 1.386 . S
C101 C94 1.357 . S
C101 H114 0.928 . S
H102 C78 0.931 . S
H103 C80 0.930 . S
H104 C82 0.929 . S
H105 C83 0.931 . S
H106 C85 0.930 . S
H107 C89 0.931 . S
H108 C87 0.931 . S
H109 C91 0.931 . S
H110 C92 0.929 . S
H111 C93 0.930 . S
H112 C96 0.930 . S
H113 C97 0.931 . S
H114 C101 0.928 . S
H115 C100 0.929 . S
H116 C98 0.932 . S
C117 C118 1.386 . S
C117 C119 1.397 . S
C117 H141 0.931 . S
C118 C117 1.386 . S
C118 C122 1.397 . S
C119 C117 1.397 . S
C119 C120 1.384 . S
C119 H142 0.930 . S
C120 C119 1.384 . S
C120 C121 1.377 . S
C120 C123 1.481 . S
C121 C120 1.377 . S
C121 C122 1.389 . S
C121 H143 0.929 . S
C122 C118 1.397 . S
C122 C121 1.389 . S
C122 H144 0.931 . S
C123 C120 1.481 . S
C123 C124 1.387 . S
C123 C128 1.390 . S
C124 C123 1.387 . S
C124 C125 1.401 . S
C124 H145 0.930 . S
C125 C124 1.401 . S
C125 C126 1.376 . S
C125 C134 1.511 . S
C126 C125 1.376 . S
C126 C127 1.392 . S
C126 H147 0.931 . S
C127 C126 1.392 . S
C127 C128 1.361 . S
C127 C129 1.500 . S
C128 C123 1.390 . S
C128 C127 1.361 . S
C128 H146 0.931 . S
C129 C127 1.500 . S
C129 C130 1.371 . S
C129 C131 1.365 . S
C130 C129 1.371 . S
C130 C140 1.386 . S
C130 H148 0.931 . S
C131 C129 1.365 . S
C131 C132 1.409 . S
C131 H149 0.929 . S
C132 C131 1.409 . S
C132 C133 1.380 1_554 S
C132 H150 0.930 . S
C133 C132 1.380 1_556 S
C133 C140 1.357 1_556 S
C134 C125 1.511 . S
C134 C135 1.341 . S
C134 C136 1.371 . S
C135 C134 1.341 . S
C135 C139 1.394 . S
C135 H151 0.930 . S
C136 C134 1.371 . S
C136 C137 1.392 . S
C136 H152 0.931 . S
C137 C136 1.392 . S
C137 C138 1.331 . S
C137 H155 0.932 . S
C138 C137 1.331 . S
C138 C139 1.336 . S
C139 C135 1.394 . S
C139 C138 1.336 . S
C139 H154 0.929 . S
C140 C130 1.386 . S
C140 C133 1.357 1_554 S
C140 H153 0.928 1_554 S
H141 C117 0.931 . S
H142 C119 0.930 . S
H143 C121 0.929 . S
H144 C122 0.931 . S
H145 C124 0.930 . S
H146 C128 0.931 . S
H147 C126 0.931 . S
H148 C130 0.931 . S
H149 C131 0.929 . S
H150 C132 0.930 . S
H151 C135 0.930 . S
H152 C136 0.931 . S
H153 C140 0.928 1_556 S
H154 C139 0.929 . S
H155 C137 0.932 . S
C156 C157 1.386 . S
C156 C158 1.397 . S
C156 H180 0.931 . S
C157 C156 1.386 . S
C157 C161 1.397 . S
C158 C156 1.397 . S
C158 C159 1.384 . S
C158 H181 0.930 . S
C159 C158 1.384 . S
C159 C160 1.377 . S
C159 C162 1.481 . S
C160 C159 1.377 . S
C160 C161 1.389 . S
C160 H182 0.929 . S
C161 C157 1.397 . S
C161 C160 1.389 . S
C161 H183 0.931 . S
C162 C159 1.481 . S
C162 C163 1.387 . S
C162 C167 1.390 . S
C163 C162 1.387 . S
C163 C164 1.401 . S
C163 H184 0.930 . S
C164 C163 1.401 . S
C164 C165 1.376 . S
C164 C173 1.511 . S
C165 C164 1.376 . S
C165 C166 1.392 . S
C165 H186 0.931 . S
C166 C165 1.392 . S
C166 C167 1.361 . S
C166 C168 1.500 . S
C167 C162 1.390 . S
C167 C166 1.361 . S
C167 H185 0.931 . S
C168 C166 1.500 . S
C168 C169 1.371 . S
C168 C170 1.365 . S
C169 C168 1.371 . S
C169 C179 1.386 . S
C169 H187 0.931 . S
C170 C168 1.365 . S
C170 C171 1.409 . S
C170 H188 0.929 . S
C171 C170 1.409 . S
C171 C172 1.380 . S
C171 H189 0.930 . S
C172 C171 1.380 . S
C172 C179 1.357 . S
C173 C164 1.511 . S
C173 C174 1.341 . S
C173 C175 1.371 . S
C174 C173 1.341 . S
C174 C178 1.394 . S
C174 H190 0.930 . S
C175 C173 1.371 . S
C175 C176 1.392 . S
C175 H191 0.931 . S
C176 C175 1.392 . S
C176 C177 1.331 . S
C176 H194 0.932 . S
C177 C176 1.331 . S
C177 C178 1.336 . S
C178 C174 1.394 . S
C178 C177 1.336 . S
C178 H193 0.929 . S
C179 C169 1.386 . S
C179 C172 1.357 . S
C179 H192 0.928 . S
H180 C156 0.931 . S
H181 C158 0.930 . S
H182 C160 0.929 . S
H183 C161 0.931 . S
H184 C163 0.930 . S
H185 C167 0.931 . S
H186 C165 0.931 . S
H187 C169 0.931 . S
H188 C170 0.929 . S
H189 C171 0.930 . S
H190 C174 0.930 . S
H191 C175 0.931 . S
H192 C179 0.928 . S
H193 C178 0.929 . S
H194 C176 0.932 . S
C195 C196 1.385 1_554 S
C195 C197 1.403 . S
C195 H219 0.926 1_554 S
C196 C195 1.385 1_556 S
C196 C200 1.397 1_556 S
C197 C195 1.403 . S
C197 C198 1.384 . S
C197 H220 0.930 . S
C198 C197 1.384 . S
C198 C199 1.377 . S
C198 C201 1.481 . S
C199 C198 1.377 . S
C199 C200 1.389 . S
C199 H221 0.929 . S
C200 C196 1.397 1_554 S
C200 C199 1.389 . S
C200 H222 0.931 . S
C201 C198 1.481 . S
C201 C202 1.387 . S
C201 C206 1.390 . S
C202 C201 1.387 . S
C202 C203 1.401 . S
C202 H223 0.930 . S
C203 C202 1.401 . S
C203 C204 1.376 . S
C203 C212 1.511 . S
C204 C203 1.376 . S
C204 C205 1.392 . S
C204 H225 0.931 . S
C205 C204 1.392 . S
C205 C206 1.361 . S
C205 C207 1.500 . S
C206 C201 1.390 . S
C206 C205 1.361 . S
C206 H224 0.931 . S
C207 C205 1.500 . S
C207 C208 1.371 . S
C207 C209 1.365 . S
C208 C207 1.371 . S
C208 C218 1.386 . S
C208 H226 0.931 . S
C209 C207 1.365 . S
C209 C210 1.409 . S
C209 H227 0.929 . S
C210 C209 1.409 . S
C210 C211 1.380 . S
C210 H228 0.930 . S
C211 C210 1.380 . S
C211 C218 1.357 . S
C212 C203 1.511 . S
C212 C213 1.341 . S
C212 C214 1.371 . S
C213 C212 1.341 . S
C213 C217 1.394 . S
C213 H229 0.930 . S
C214 C212 1.371 . S
C214 C215 1.392 . S
C214 H230 0.931 . S
C215 C214 1.392 . S
C215 C216 1.331 . S
C215 H233 0.932 . S
C216 C215 1.331 . S
C216 C217 1.336 . S
C217 C213 1.394 . S
C217 C216 1.336 . S
C217 H232 0.929 . S
C218 C208 1.386 . S
C218 C211 1.357 . S
C218 H231 0.928 . S
H219 C195 0.926 1_556 S
H220 C197 0.930 . S
H221 C199 0.929 . S
H222 C200 0.931 . S
H223 C202 0.930 . S
H224 C206 0.931 . S
H225 C204 0.931 . S
H226 C208 0.931 . S
H227 C209 0.929 . S
H228 C210 0.930 . S
H229 C213 0.930 . S
H230 C214 0.931 . S
H231 C218 0.928 . S
H232 C217 0.929 . S
H233 C215 0.932 . S
C234 C235 1.386 . S
C234 C236 1.397 . S
C234 H258 0.931 . S
C235 C234 1.386 . S
C235 C239 1.397 . S
C236 C234 1.397 . S
C236 C237 1.384 . S
C236 H259 0.930 . S
C237 C236 1.384 . S
C237 C238 1.377 . S
C237 C240 1.481 . S
C238 C237 1.377 . S
C238 C239 1.389 . S
C238 H260 0.929 . S
C239 C235 1.397 . S
C239 C238 1.389 . S
C239 H261 0.931 . S
C240 C237 1.481 . S
C240 C241 1.387 . S
C240 C245 1.390 . S
C241 C240 1.387 . S
C241 C242 1.401 . S
C241 H262 0.930 . S
C242 C241 1.401 . S
C242 C243 1.376 . S
C242 C251 1.511 . S
C243 C242 1.376 . S
C243 C244 1.392 . S
C243 H264 0.931 . S
C244 C243 1.392 . S
C244 C245 1.361 . S
C244 C246 1.500 . S
C245 C240 1.390 . S
C245 C244 1.361 . S
C245 H263 0.931 . S
C246 C244 1.500 . S
C246 C247 1.371 . S
C246 C248 1.365 . S
C247 C246 1.371 . S
C247 C257 1.386 . S
C247 H265 0.931 . S
C248 C246 1.365 . S
C248 C249 1.409 . S
C248 H266 0.929 . S
C249 C248 1.409 . S
C249 C250 1.380 . S
C249 H267 0.930 . S
C250 C249 1.380 . S
C250 C257 1.357 . S
C251 C242 1.511 . S
C251 C252 1.341 . S
C251 C253 1.371 . S
C252 C251 1.341 . S
C252 C256 1.394 . S
C252 H268 0.930 . S
C253 C251 1.371 . S
C253 C254 1.392 . S
C253 H269 0.931 . S
C254 C253 1.392 . S
C254 C255 1.331 . S
C254 H272 0.932 . S
C255 C254 1.331 . S
C255 C256 1.336 . S
C256 C252 1.394 . S
C256 C255 1.336 . S
C256 H271 0.929 . S
C257 C247 1.386 . S
C257 C250 1.357 . S
C257 H270 0.928 . S
H258 C234 0.931 . S
H259 C236 0.930 . S
H260 C238 0.929 . S
H261 C239 0.931 . S
H262 C241 0.930 . S
H263 C245 0.931 . S
H264 C243 0.931 . S
H265 C247 0.931 . S
H266 C248 0.929 . S
H267 C249 0.930 . S
H268 C252 0.930 . S
H269 C253 0.931 . S
H270 C257 0.928 . S
H271 C256 0.929 . S
H272 C254 0.932 . S
C273 C274 1.386 1_556 S
C273 C275 1.397 . S
C273 H297 0.931 1_556 S
C274 C273 1.386 1_554 S
C274 C278 1.397 1_554 S
C275 C273 1.397 . S
C275 C276 1.384 . S
C275 H298 0.930 . S
C276 C275 1.384 . S
C276 C277 1.377 . S
C276 C279 1.481 . S
C277 C276 1.377 . S
C277 C278 1.389 . S
C277 H299 0.929 . S
C278 C274 1.397 1_556 S
C278 C277 1.389 . S
C278 H300 0.931 . S
C279 C276 1.481 . S
C279 C280 1.387 . S
C279 C284 1.390 . S
C280 C279 1.387 . S
C280 C281 1.401 . S
C280 H301 0.930 . S
C281 C280 1.401 . S
C281 C282 1.376 . S
C281 C290 1.511 . S
C282 C281 1.376 . S
C282 C283 1.392 . S
C282 H303 0.931 . S
C283 C282 1.392 . S
C283 C284 1.361 . S
C283 C285 1.500 . S
C284 C279 1.390 . S
C284 C283 1.361 . S
C284 H302 0.931 . S
C285 C283 1.500 . S
C285 C286 1.371 . S
C285 C287 1.365 . S
C286 C285 1.371 . S
C286 C296 1.386 . S
C286 H304 0.931 . S
C287 C285 1.365 . S
C287 C288 1.409 . S
C287 H305 0.929 . S
C288 C287 1.409 . S
C288 C289 1.380 . S
C288 H306 0.930 . S
C289 C288 1.380 . S
C289 C296 1.357 . S
C290 C281 1.511 . S
C290 C291 1.341 . S
C290 C292 1.371 . S
C291 C290 1.341 . S
C291 C295 1.394 . S
C291 H307 0.930 . S
C292 C290 1.371 . S
C292 C293 1.392 . S
C292 H308 0.931 . S
C293 C292 1.392 . S
C293 C294 1.331 . S
C293 H311 0.932 . S
C294 C293 1.331 . S
C294 C295 1.336 . S
C295 C291 1.394 . S
C295 C294 1.336 . S
C295 H310 0.929 . S
C296 C286 1.386 . S
C296 C289 1.357 . S
C296 H309 0.928 . S
H297 C273 0.931 1_554 S
H298 C275 0.930 . S
H299 C277 0.929 . S
H300 C278 0.931 . S
H301 C280 0.930 . S
H302 C284 0.931 . S
H303 C282 0.931 . S
H304 C286 0.931 . S
H305 C287 0.929 . S
H306 C288 0.930 . S
H307 C291 0.930 . S
H308 C292 0.931 . S
H309 C296 0.928 . S
H310 C295 0.929 . S
H311 C293 0.932 . S
Zn312 O318 1.920 1_455 S
Zn312 O324 1.898 . S
Zn312 O327 1.905 . S
Zn313 O321 1.905 1_655 S
Zn313 O322 1.898 . S
Zn313 O330 1.920 . S
Zn314 O317 2.068 1_455 S
Zn314 O320 2.126 . S
Zn314 O323 2.103 1_455 S
Zn314 O325 2.135 . S
Zn314 O326 2.131 . S
Zn314 O329 2.066 1_455 S
C315 O320 1.166 . S
C315 O321 1.182 . S
C316 O322 1.167 . S
C316 O323 1.299 . S
O317 Zn314 2.068 1_655 S
O317 C331 1.305 . S
O318 Zn312 1.920 1_655 S
O318 C331 1.234 . S
C319 O324 1.167 . S
C319 O325 1.299 . S
O320 Zn314 2.126 . S
O320 C315 1.166 . S
O321 Zn313 1.905 1_455 S
O321 C315 1.182 . S
O322 Zn313 1.898 . S
O322 C316 1.167 . S
O323 Zn314 2.103 1_655 S
O323 C316 1.299 . S
O324 Zn312 1.898 . S
O324 C319 1.167 . S
O325 Zn314 2.135 . S
O325 C319 1.299 . S
O326 Zn314 2.131 . S
O326 C328 1.166 . S
O327 Zn312 1.905 . S
O327 C328 1.182 . S
C328 O326 1.166 . S
C328 O327 1.182 . S
O329 Zn314 2.066 1_655 S
O329 C332 1.305 . S
O330 Zn313 1.920 . S
O330 C332 1.234 . S
C331 O317 1.305 . S
C331 O318 1.234 . S
C332 O329 1.305 . S
C332 O330 1.234 . S
Zn333 O339 1.920 . S
Zn333 O345 1.898 . S
Zn333 O348 1.905 . S
Zn334 O342 1.905 . S
Zn334 O343 1.898 . S
Zn334 O351 1.920 . S
Zn335 O338 2.080 . S
Zn335 O341 2.114 . S
Zn335 O344 2.120 . S
Zn335 O346 2.120 . S
Zn335 O347 2.114 . S
Zn335 O350 2.080 . S
C336 O341 1.166 . S
C336 O342 1.182 . S
C337 O343 1.167 . S
C337 O344 1.299 . S
O338 Zn335 2.080 . S
O338 C352 1.305 . S
O339 Zn333 1.920 . S
O339 C352 1.234 . S
C340 O345 1.167 . S
C340 O346 1.299 . S
O341 Zn335 2.114 . S
O341 C336 1.166 . S
O342 Zn334 1.905 . S
O342 C336 1.182 . S
O343 Zn334 1.898 . S
O343 C337 1.167 . S
O344 Zn335 2.120 . S
O344 C337 1.299 . S
O345 Zn333 1.898 . S
O345 C340 1.167 . S
O346 Zn335 2.120 . S
O346 C340 1.299 . S
O347 Zn335 2.114 . S
O347 C349 1.166 . S
O348 Zn333 1.905 . S
O348 C349 1.182 . S
C349 O347 1.166 . S
C349 O348 1.182 . S
O350 Zn335 2.080 . S
O350 C353 1.305 . S
O351 Zn334 1.920 . S
O351 C353 1.234 . S
C352 O338 1.305 . S
C352 O339 1.234 . S
C353 O350 1.305 . S
C353 O351 1.234 . S
Zn354 O360 1.920 . S
Zn354 O366 1.898 . S
Zn354 O369 1.905 1_455 S
Zn355 O363 1.905 . S
Zn355 O364 1.898 . S
Zn355 O372 1.920 1_655 S
Zn356 O359 2.081 . S
Zn356 O362 2.113 1_455 S
Zn356 O365 2.119 1_455 S
Zn356 O367 2.121 . S
Zn356 O368 2.113 1_455 S
Zn356 O371 2.081 . S
C357 O362 1.166 . S
C357 O363 1.182 . S
C358 O364 1.167 . S
C358 O365 1.299 . S
O359 Zn356 2.081 . S
O359 C373 1.305 . S
O360 Zn354 1.920 . S
O360 C373 1.234 . S
C361 O366 1.167 . S
C361 O367 1.299 . S
O362 Zn356 2.113 1_655 S
O362 C357 1.166 . S
O363 Zn355 1.905 . S
O363 C357 1.182 . S
O364 Zn355 1.898 . S
O364 C358 1.167 . S
O365 Zn356 2.119 1_655 S
O365 C358 1.299 . S
O366 Zn354 1.898 . S
O366 C361 1.167 . S
O367 Zn356 2.121 . S
O367 C361 1.299 . S
O368 Zn356 2.113 1_655 S
O368 C370 1.166 . S
O369 Zn354 1.905 1_655 S
O369 C370 1.182 . S
C370 O368 1.166 . S
C370 O369 1.182 . S
O371 Zn356 2.081 . S
O371 C374 1.305 . S
O372 Zn355 1.920 1_455 S
O372 C374 1.234 . S
C373 O359 1.305 . S
C373 O360 1.234 . S
C374 O371 1.305 . S
C374 O372 1.234 . S
Zn375 O381 1.920 . S
Zn375 O387 1.898 . S
Zn375 O390 1.905 . S
Zn376 O384 1.905 . S
Zn376 O385 1.898 . S
Zn376 O393 1.920 . S
Zn377 O380 2.080 . S
Zn377 O383 2.114 . S
Zn377 O386 2.120 . S
Zn377 O388 2.120 . S
Zn377 O389 2.114 . S
Zn377 O392 2.080 . S
C378 O383 1.166 . S
C378 O384 1.182 . S
C379 O385 1.167 . S
C379 O386 1.299 . S
O380 Zn377 2.080 . S
O380 C394 1.305 . S
O381 Zn375 1.920 . S
O381 C394 1.234 . S
C382 O387 1.167 . S
C382 O388 1.299 . S
O383 Zn377 2.114 . S
O383 C378 1.166 . S
O384 Zn376 1.905 . S
O384 C378 1.182 . S
O385 Zn376 1.898 . S
O385 C379 1.167 . S
O386 Zn377 2.120 . S
O386 C379 1.299 . S
O387 Zn375 1.898 . S
O387 C382 1.167 . S
O388 Zn377 2.120 . S
O388 C382 1.299 . S
O389 Zn377 2.114 . S
O389 C391 1.166 . S
O390 Zn375 1.905 . S
O390 C391 1.182 . S
C391 O389 1.166 . S
C391 O390 1.182 . S
O392 Zn377 2.080 . S
O392 C395 1.305 . S
O393 Zn376 1.920 . S
O393 C395 1.234 . S
C394 O380 1.305 . S
C394 O381 1.234 . S
C395 O392 1.305 . S
C395 O393 1.234 . S
H396 C408 0.930 . S
H397 C410 0.930 . S
H398 C411 0.930 . S
H399 C415 0.959 . S
H400 C415 0.959 . S
H401 C415 0.961 . S
H402 C416 0.988 . S
H403 C416 0.941 1_545 S
H404 C416 0.966 . S
H405 C419 0.929 . S
H406 C420 0.931 . S
H407 C422 0.930 . S
C408 H396 0.930 . S
C408 C409 1.399 . S
C408 C413 1.399 . S
C409 C408 1.399 . S
C409 C410 1.376 . S
C410 H397 0.930 . S
C410 C409 1.376 . S
C410 C411 1.388 . S
C411 H398 0.930 . S
C411 C410 1.388 . S
C411 C412 1.390 1_565 S
C412 C411 1.390 1_545 S
C412 C413 1.394 1_545 S
C412 C418 1.465 . S
C413 C408 1.399 . S
C413 C412 1.394 1_565 S
C413 C414 1.516 1_565 S
C414 C413 1.516 1_545 S
C414 C415 1.502 . S
C414 C416 1.546 1_545 S
C414 C417 1.526 . S
C415 H399 0.959 . S
C415 H400 0.959 . S
C415 H401 0.961 . S
C415 C414 1.502 . S
C416 H402 0.988 . S
C416 H403 0.941 1_565 S
C416 H404 0.966 . S
C416 C414 1.546 1_565 S
C417 C414 1.526 . S
C417 C418 1.396 . S
C417 C422 1.390 . S
C418 C412 1.465 . S
C418 C417 1.396 . S
C418 C419 1.399 . S
C419 H405 0.929 . S
C419 C418 1.399 . S
C419 C420 1.385 . S
C420 H406 0.931 . S
C420 C419 1.385 . S
C420 C421 1.389 . S
C421 C420 1.389 . S
C421 C422 1.387 . S
C422 H407 0.930 . S
C422 C417 1.390 . S
C422 C421 1.387 . S
H423 C435 0.930 . S
H424 C437 0.930 . S
H425 C438 0.930 . S
H426 C442 0.959 . S
H427 C442 0.959 . S
H428 C442 0.961 . S
H429 C443 0.960 . S
H430 C443 0.961 . S
H431 C443 0.959 . S
H432 C446 0.929 . S
H433 C447 0.931 . S
H434 C449 0.930 . S
C435 H423 0.930 . S
C435 C436 1.399 . S
C435 C440 1.399 . S
C436 C435 1.399 . S
C436 C437 1.376 . S
C437 H424 0.930 . S
C437 C436 1.376 . S
C437 C438 1.388 . S
C438 H425 0.930 . S
C438 C437 1.388 . S
C438 C439 1.390 . S
C439 C438 1.390 . S
C439 C440 1.394 . S
C439 C445 1.465 . S
C440 C435 1.399 . S
C440 C439 1.394 . S
C440 C441 1.516 . S
C441 C440 1.516 . S
C441 C442 1.502 . S
C441 C443 1.561 . S
C441 C444 1.526 . S
C442 H426 0.959 . S
C442 H427 0.959 . S
C442 H428 0.961 . S
C442 C441 1.502 . S
C443 H429 0.960 . S
C443 H430 0.961 . S
C443 H431 0.959 . S
C443 C441 1.561 . S
C444 C441 1.526 . S
C444 C445 1.396 . S
C444 C449 1.390 . S
C445 C439 1.465 . S
C445 C444 1.396 . S
C445 C446 1.399 . S
C446 H432 0.929 . S
C446 C445 1.399 . S
C446 C447 1.385 . S
C447 H433 0.931 . S
C447 C446 1.385 . S
C447 C448 1.389 . S
C448 C447 1.389 . S
C448 C449 1.387 . S
C449 H434 0.930 . S
C449 C444 1.390 . S
C449 C448 1.387 . S
H450 C462 0.930 . S
H451 C464 0.930 . S
H452 C465 0.930 . S
H453 C469 0.959 . S
H454 C469 0.959 . S
H455 C469 0.961 . S
H456 C470 0.960 . S
H457 C470 0.961 . S
H458 C470 0.959 . S
H459 C473 0.929 . S
H460 C474 0.931 . S
H461 C476 0.930 . S
C462 H450 0.930 . S
C462 C463 1.399 . S
C462 C467 1.399 . S
C463 C462 1.399 . S
C463 C464 1.376 . S
C464 H451 0.930 . S
C464 C463 1.376 . S
C464 C465 1.388 . S
C465 H452 0.930 . S
C465 C464 1.388 . S
C465 C466 1.390 . S
C466 C465 1.390 . S
C466 C467 1.394 . S
C466 C472 1.465 . S
C467 C462 1.399 . S
C467 C466 1.394 . S
C467 C468 1.516 . S
C468 C467 1.516 . S
C468 C469 1.502 . S
C468 C470 1.561 . S
C468 C471 1.526 . S
C469 H453 0.959 . S
C469 H454 0.959 . S
C469 H455 0.961 . S
C469 C468 1.502 . S
C470 H456 0.960 . S
C470 H457 0.961 . S
C470 H458 0.959 . S
C470 C468 1.561 . S
C471 C468 1.526 . S
C471 C472 1.396 . S
C471 C476 1.390 . S
C472 C466 1.465 . S
C472 C471 1.396 . S
C472 C473 1.399 . S
C473 H459 0.929 . S
C473 C472 1.399 . S
C473 C474 1.385 . S
C474 H460 0.931 . S
C474 C473 1.385 . S
C474 C475 1.389 . S
C475 C474 1.389 . S
C475 C476 1.387 . S
C476 H461 0.930 . S
C476 C471 1.390 . S
C476 C475 1.387 . S
H477 C489 0.930 . S
H478 C491 0.930 . S
H479 C492 0.930 . S
H480 C496 0.959 . S
H481 C496 0.959 . S
H482 C496 0.961 1_565 S
H483 C497 0.960 . S
H484 C497 0.961 . S
H485 C497 0.959 . S
H486 C500 0.929 . S
H487 C501 0.931 . S
H488 C503 0.930 . S
C489 H477 0.930 . S
C489 C490 1.399 . S
C489 C494 1.399 . S
C490 C489 1.399 . S
C490 C491 1.376 . S
C491 H478 0.930 . S
C491 C490 1.376 . S
C491 C492 1.388 . S
C492 H479 0.930 . S
C492 C491 1.388 . S
C492 C493 1.390 1_565 S
C493 C492 1.390 1_545 S
C493 C494 1.394 1_545 S
C493 C499 1.465 . S
C494 C489 1.399 . S
C494 C493 1.394 1_565 S
C494 C495 1.516 1_565 S
C495 C494 1.516 1_545 S
C495 C496 1.502 . S
C495 C497 1.561 . S
C495 C498 1.526 . S
C496 H480 0.959 . S
C496 H481 0.959 . S
C496 H482 0.961 1_545 S
C496 C495 1.502 . S
C497 H483 0.960 . S
C497 H484 0.961 . S
C497 H485 0.959 . S
C497 C495 1.561 . S
C498 C495 1.526 . S
C498 C499 1.396 . S
C498 C503 1.390 . S
C499 C493 1.465 . S
C499 C498 1.396 . S
C499 C500 1.399 . S
C500 H486 0.929 . S
C500 C499 1.399 . S
C500 C501 1.385 . S
C501 H487 0.931 . S
C501 C500 1.385 . S
C501 C502 1.389 . S
C502 C501 1.389 . S
C502 C503 1.387 . S
C503 H488 0.930 . S
C503 C498 1.390 . S
C503 C502 1.387 . S
H504 C516 0.930 . S
H505 C518 0.930 . S
H506 C519 0.930 . S
H507 C523 0.959 . S
H508 C523 0.959 1_565 S
H509 C523 0.961 . S
H510 C524 0.960 1_545 S
H511 C524 0.961 . S
H512 C524 0.959 . S
H513 C527 0.929 . S
H514 C528 0.931 . S
H515 C530 0.930 . S
C516 H504 0.930 . S
C516 C517 1.399 . S
C516 C521 1.399 . S
C517 C516 1.399 . S
C517 C518 1.376 . S
C518 H505 0.930 . S
C518 C517 1.376 . S
C518 C519 1.388 1_545 S
C519 H506 0.930 . S
C519 C518 1.388 1_565 S
C519 C520 1.390 . S
C520 C519 1.390 . S
C520 C521 1.394 1_565 S
C520 C526 1.465 . S
C521 C516 1.399 . S
C521 C520 1.394 1_545 S
C521 C522 1.516 1_545 S
C522 C521 1.516 1_565 S
C522 C523 1.502 1_565 S
C522 C524 1.561 . S
C522 C525 1.526 . S
C523 H507 0.959 . S
C523 H508 0.959 1_545 S
C523 H509 0.961 . S
C523 C522 1.502 1_545 S
C524 H510 0.960 1_565 S
C524 H511 0.961 . S
C524 H512 0.959 . S
C524 C522 1.561 . S
C525 C522 1.526 . S
C525 C526 1.396 . S
C525 C530 1.390 . S
C526 C520 1.465 . S
C526 C525 1.396 . S
C526 C527 1.399 . S
C527 H513 0.929 . S
C527 C526 1.399 . S
C527 C528 1.385 . S
C528 H514 0.931 . S
C528 C527 1.385 . S
C528 C529 1.389 . S
C529 C528 1.389 . S
C529 C530 1.387 . S
C530 H515 0.930 . S
C530 C525 1.390 . S
C530 C529 1.387 . S
H531 C543 0.930 . S
H532 C545 0.930 . S
H533 C546 0.930 . S
H534 C550 0.959 . S
H535 C550 0.959 . S
H536 C550 0.961 . S
H537 C551 0.960 . S
H538 C551 0.961 . S
H539 C551 0.959 . S
H540 C554 0.929 . S
H541 C555 0.931 . S
H542 C557 0.930 . S
C543 H531 0.930 . S
C543 C544 1.399 . S
C543 C548 1.399 . S
C544 C543 1.399 . S
C544 C545 1.376 . S
C545 H532 0.930 . S
C545 C544 1.376 . S
C545 C546 1.388 . S
C546 H533 0.930 . S
C546 C545 1.388 . S
C546 C547 1.390 . S
C547 C546 1.390 . S
C547 C548 1.394 . S
C547 C553 1.465 . S
C548 C543 1.399 . S
C548 C547 1.394 . S
C548 C549 1.516 . S
C549 C548 1.516 . S
C549 C550 1.502 . S
C549 C551 1.561 . S
C549 C552 1.526 . S
C550 H534 0.959 . S
C550 H535 0.959 . S
C550 H536 0.961 . S
C550 C549 1.502 . S
C551 H537 0.960 . S
C551 H538 0.961 . S
C551 H539 0.959 . S
C551 C549 1.561 . S
C552 C549 1.526 . S
C552 C553 1.396 . S
C552 C557 1.390 . S
C553 C547 1.465 . S
C553 C552 1.396 . S
C553 C554 1.399 . S
C554 H540 0.929 . S
C554 C553 1.399 . S
C554 C555 1.385 . S
C555 H541 0.931 . S
C555 C554 1.385 . S
C555 C556 1.389 . S
C556 C555 1.389 . S
C556 C557 1.387 . S
C557 H542 0.930 . S
C557 C552 1.390 . S
C557 C556 1.387 . S
H558 C570 0.930 . S
H559 C572 0.930 . S
H560 C573 0.930 . S
H561 C577 0.959 . S
H562 C577 0.959 . S
H563 C577 0.961 . S
H564 C578 0.960 . S
H565 C578 0.961 . S
H566 C578 0.959 . S
H567 C581 0.929 . S
H568 C582 0.931 . S
H569 C584 0.930 . S
C570 H558 0.930 . S
C570 C571 1.399 . S
C570 C575 1.399 . S
C571 C570 1.399 . S
C571 C572 1.376 . S
C572 H559 0.930 . S
C572 C571 1.376 . S
C572 C573 1.388 . S
C573 H560 0.930 . S
C573 C572 1.388 . S
C573 C574 1.390 . S
C574 C573 1.390 . S
C574 C575 1.394 . S
C574 C580 1.465 . S
C575 C570 1.399 . S
C575 C574 1.394 . S
C575 C576 1.516 . S
C576 C575 1.516 . S
C576 C577 1.502 . S
C576 C578 1.561 . S
C576 C579 1.526 . S
C577 H561 0.959 . S
C577 H562 0.959 . S
C577 H563 0.961 . S
C577 C576 1.502 . S
C578 H564 0.960 . S
C578 H565 0.961 . S
C578 H566 0.959 . S
C578 C576 1.561 . S
C579 C576 1.526 . S
C579 C580 1.396 . S
C579 C584 1.390 . S
C580 C574 1.465 . S
C580 C579 1.396 . S
C580 C581 1.399 . S
C581 H567 0.929 . S
C581 C580 1.399 . S
C581 C582 1.385 . S
C582 H568 0.931 . S
C582 C581 1.385 . S
C582 C583 1.389 . S
C583 C582 1.389 . S
C583 C584 1.387 . S
C584 H569 0.930 . S
C584 C579 1.390 . S
C584 C583 1.387 . S
H585 C597 0.930 . S
H586 C599 0.930 . S
H587 C600 0.930 . S
H588 C604 0.959 . S
H589 C604 0.959 . S
H590 C604 0.961 . S
H591 C605 0.960 . S
H592 C605 0.961 . S
H593 C605 0.959 . S
H594 C608 0.929 . S
H595 C609 0.931 . S
H596 C611 0.930 . S
C597 H585 0.930 . S
C597 C598 1.399 . S
C597 C602 1.399 1_545 S
C598 C597 1.399 . S
C598 C599 1.376 . S
C599 H586 0.930 . S
C599 C598 1.376 . S
C599 C600 1.388 . S
C600 H587 0.930 . S
C600 C599 1.388 . S
C600 C601 1.390 . S
C601 C600 1.390 . S
C601 C602 1.394 1_545 S
C601 C607 1.465 1_545 S
C602 C597 1.399 1_565 S
C602 C601 1.394 1_565 S
C602 C603 1.516 . S
C603 C602 1.516 . S
C603 C604 1.502 . S
C603 C605 1.561 . S
C603 C606 1.526 . S
C604 H588 0.959 . S
C604 H589 0.959 . S
C604 H590 0.961 . S
C604 C603 1.502 . S
C605 H591 0.960 . S
C605 H592 0.961 . S
C605 H593 0.959 . S
C605 C603 1.561 . S
C606 C603 1.526 . S
C606 C607 1.396 . S
C606 C611 1.390 . S
C607 C601 1.465 1_565 S
C607 C606 1.396 . S
C607 C608 1.399 . S
C608 H594 0.929 . S
C608 C607 1.399 . S
C608 C609 1.385 . S
C609 H595 0.931 . S
C609 C608 1.385 . S
C609 C610 1.389 . S
C610 C609 1.389 . S
C610 C611 1.387 . S
C611 H596 0.930 . S
C611 C606 1.390 . S
C611 C610 1.387 . S
H612 C624 0.930 . S
H613 C626 0.930 . S
H614 C627 0.930 . S
H615 C631 0.959 . S
H616 C631 0.959 . S
H617 C631 0.961 . S
H618 C632 0.960 . S
H619 C632 0.961 . S
H620 C632 0.959 . S
H621 C635 0.929 . S
H622 C636 0.931 . S
H623 C638 0.930 . S
C624 H612 0.930 . S
C624 C625 1.399 . S
C624 C629 1.399 . S
C625 C624 1.399 . S
C625 C626 1.376 . S
C626 H613 0.930 . S
C626 C625 1.376 . S
C626 C627 1.388 . S
C627 H614 0.930 . S
C627 C626 1.388 . S
C627 C628 1.390 . S
C628 C627 1.390 . S
C628 C629 1.394 . S
C628 C634 1.465 . S
C629 C624 1.399 . S
C629 C628 1.394 . S
C629 C630 1.516 . S
C630 C629 1.516 . S
C630 C631 1.502 . S
C630 C632 1.561 . S
C630 C633 1.526 . S
C631 H615 0.959 . S
C631 H616 0.959 . S
C631 H617 0.961 . S
C631 C630 1.502 . S
C632 H618 0.960 . S
C632 H619 0.961 . S
C632 H620 0.959 . S
C632 C630 1.561 . S
C633 C630 1.526 . S
C633 C634 1.396 . S
C633 C638 1.390 . S
C634 C628 1.465 . S
C634 C633 1.396 . S
C634 C635 1.399 . S
C635 H621 0.929 . S
C635 C634 1.399 . S
C635 C636 1.385 . S
C636 H622 0.931 . S
C636 C635 1.385 . S
C636 C637 1.389 . S
C637 C636 1.389 . S
C637 C638 1.387 . S
C638 H623 0.930 . S
C638 C633 1.390 . S
C638 C637 1.387 . S
H639 C651 0.930 . S
H640 C653 0.930 . S
H641 C654 0.930 . S
H642 C658 0.959 . S
H643 C658 0.959 . S
H644 C658 0.961 . S
H645 C659 0.960 . S
H646 C659 0.961 . S
H647 C659 0.959 . S
H648 C662 0.929 . S
H649 C663 0.931 . S
H650 C665 0.930 . S
C651 H639 0.930 . S
C651 C652 1.399 . S
C651 C656 1.399 . S
C652 C651 1.399 . S
C652 C653 1.376 . S
C653 H640 0.930 . S
C653 C652 1.376 . S
C653 C654 1.388 . S
C654 H641 0.930 . S
C654 C653 1.388 . S
C654 C655 1.390 . S
C655 C654 1.390 . S
C655 C656 1.394 . S
C655 C661 1.465 . S
C656 C651 1.399 . S
C656 C655 1.394 . S
C656 C657 1.516 . S
C657 C656 1.516 . S
C657 C658 1.502 . S
C657 C659 1.561 . S
C657 C660 1.526 . S
C658 H642 0.959 . S
C658 H643 0.959 . S
C658 H644 0.961 . S
C658 C657 1.502 . S
C659 H645 0.960 . S
C659 H646 0.961 . S
C659 H647 0.959 . S
C659 C657 1.561 . S
C660 C657 1.526 . S
C660 C661 1.396 . S
C660 C665 1.390 . S
C661 C655 1.465 . S
C661 C660 1.396 . S
C661 C662 1.399 . S
C662 H648 0.929 . S
C662 C661 1.399 . S
C662 C663 1.385 . S
C663 H649 0.931 . S
C663 C662 1.385 . S
C663 C664 1.389 . S
C664 C663 1.389 . S
C664 C665 1.387 . S
C665 H650 0.930 . S
C665 C660 1.390 . S
C665 C664 1.387 . S
H666 C678 0.930 . S
H667 C680 0.930 . S
H668 C681 0.930 . S
H669 C685 0.959 . S
H670 C685 0.959 . S
H671 C685 0.961 . S
H672 C686 0.960 . S
H673 C686 0.961 . S
H674 C686 0.959 . S
H675 C689 0.929 . S
H676 C690 0.931 . S
H677 C692 0.930 . S
C678 H666 0.930 . S
C678 C679 1.399 . S
C678 C683 1.399 . S
C679 C678 1.399 . S
C679 C680 1.376 . S
C680 H667 0.930 . S
C680 C679 1.376 . S
C680 C681 1.388 . S
C681 H668 0.930 . S
C681 C680 1.388 . S
C681 C682 1.390 . S
C682 C681 1.390 . S
C682 C683 1.394 . S
C682 C688 1.465 . S
C683 C678 1.399 . S
C683 C682 1.394 . S
C683 C684 1.516 . S
C684 C683 1.516 . S
C684 C685 1.502 . S
C684 C686 1.561 . S
C684 C687 1.526 . S
C685 H669 0.959 . S
C685 H670 0.959 . S
C685 H671 0.961 . S
C685 C684 1.502 . S
C686 H672 0.960 . S
C686 H673 0.961 . S
C686 H674 0.959 . S
C686 C684 1.561 . S
C687 C684 1.526 . S
C687 C688 1.396 . S
C687 C692 1.390 . S
C688 C682 1.465 . S
C688 C687 1.396 . S
C688 C689 1.399 . S
C689 H675 0.929 . S
C689 C688 1.399 . S
C689 C690 1.385 . S
C690 H676 0.931 . S
C690 C689 1.385 . S
C690 C691 1.389 . S
C691 C690 1.389 . S
C691 C692 1.387 . S
C692 H677 0.930 . S
C692 C687 1.390 . S
C692 C691 1.387 . S
H693 C705 0.930 . S
H694 C707 0.930 . S
H695 C708 0.930 . S
H696 C712 0.959 . S
H697 C712 0.959 . S
H698 C712 0.961 . S
H699 C713 0.960 . S
H700 C713 0.961 . S
H701 C713 0.959 . S
H702 C716 0.929 . S
H703 C717 0.931 . S
H704 C719 0.930 . S
C705 H693 0.930 . S
C705 C706 1.399 . S
C705 C710 1.399 . S
C706 C705 1.399 . S
C706 C707 1.376 . S
C707 H694 0.930 . S
C707 C706 1.376 . S
C707 C708 1.388 . S
C708 H695 0.930 . S
C708 C707 1.388 . S
C708 C709 1.390 . S
C709 C708 1.390 . S
C709 C710 1.394 . S
C709 C715 1.465 . S
C710 C705 1.399 . S
C710 C709 1.394 . S
C710 C711 1.516 . S
C711 C710 1.516 . S
C711 C712 1.502 . S
C711 C713 1.561 . S
C711 C714 1.526 . S
C712 H696 0.959 . S
C712 H697 0.959 . S
C712 H698 0.961 . S
C712 C711 1.502 . S
C713 H699 0.960 . S
C713 H700 0.961 . S
C713 H701 0.959 . S
C713 C711 1.561 . S
C714 C711 1.526 . S
C714 C715 1.396 . S
C714 C719 1.390 . S
C715 C709 1.465 . S
C715 C714 1.396 . S
C715 C716 1.399 . S
C716 H702 0.929 . S
C716 C715 1.399 . S
C716 C717 1.385 . S
C717 H703 0.931 . S
C717 C716 1.385 . S
C717 C718 1.389 . S
C718 C717 1.389 . S
C718 C719 1.387 . S
C719 H704 0.930 . S
C719 C714 1.390 . S
C719 C718 1.387 . S
H720 C732 0.930 . S
H721 C734 0.930 . S
H722 C735 0.930 . S
H723 C739 0.959 . S
H724 C739 0.959 . S
H725 C739 0.961 . S
H726 C740 0.960 . S
H727 C740 0.961 . S
H728 C740 0.959 . S
H729 C743 0.929 . S
H730 C744 0.931 . S
H731 C746 0.930 . S
C732 H720 0.930 . S
C732 C733 1.399 . S
C732 C737 1.399 . S
C733 C732 1.399 . S
C733 C734 1.376 . S
C734 H721 0.930 . S
C734 C733 1.376 . S
C734 C735 1.388 . S
C735 H722 0.930 . S
C735 C734 1.388 . S
C735 C736 1.390 . S
C736 C735 1.390 . S
C736 C737 1.394 . S
C736 C742 1.465 . S
C737 C732 1.399 . S
C737 C736 1.394 . S
C737 C738 1.516 . S
C738 C737 1.516 . S
C738 C739 1.502 . S
C738 C740 1.561 . S
C738 C741 1.526 . S
C739 H723 0.959 . S
C739 H724 0.959 . S
C739 H725 0.961 . S
C739 C738 1.502 . S
C740 H726 0.960 . S
C740 H727 0.961 . S
C740 H728 0.959 . S
C740 C738 1.561 . S
C741 C738 1.526 . S
C741 C742 1.396 . S
C741 C746 1.390 . S
C742 C736 1.465 . S
C742 C741 1.396 . S
C742 C743 1.399 . S
C743 H729 0.929 . S
C743 C742 1.399 . S
C743 C744 1.385 . S
C744 H730 0.931 . S
C744 C743 1.385 . S
C744 C745 1.389 . S
C745 C744 1.389 . S
C745 C746 1.387 . S
C746 H731 0.930 . S
C746 C741 1.390 . S
C746 C745 1.387 . S
H747 C759 0.930 . S
H748 C761 0.930 . S
H749 C762 0.930 . S
H750 C766 0.959 . S
H751 C766 0.959 . S
H752 C766 0.961 . S
H753 C767 0.960 . S
H754 C767 0.961 . S
H755 C767 0.959 . S
H756 C770 0.929 . S
H757 C771 0.931 . S
H758 C773 0.930 . S
C759 H747 0.930 . S
C759 C760 1.399 . S
C759 C764 1.399 . S
C760 C759 1.399 . S
C760 C761 1.376 . S
C761 H748 0.930 . S
C761 C760 1.376 . S
C761 C762 1.388 . S
C762 H749 0.930 . S
C762 C761 1.388 . S
C762 C763 1.390 . S
C763 C762 1.390 . S
C763 C764 1.394 . S
C763 C769 1.465 . S
C764 C759 1.399 . S
C764 C763 1.394 . S
C764 C765 1.516 . S
C765 C764 1.516 . S
C765 C766 1.502 . S
C765 C767 1.561 . S
C765 C768 1.526 . S
C766 H750 0.959 . S
C766 H751 0.959 . S
C766 H752 0.961 . S
C766 C765 1.502 . S
C767 H753 0.960 . S
C767 H754 0.961 . S
C767 H755 0.959 . S
C767 C765 1.561 . S
C768 C765 1.526 . S
C768 C769 1.396 . S
C768 C773 1.390 . S
C769 C763 1.465 . S
C769 C768 1.396 . S
C769 C770 1.399 . S
C770 H756 0.929 . S
C770 C769 1.399 . S
C770 C771 1.385 . S
C771 H757 0.931 . S
C771 C770 1.385 . S
C771 C772 1.389 . S
C772 C771 1.389 . S
C772 C773 1.387 . S
C773 H758 0.930 . S
C773 C768 1.390 . S
C773 C772 1.387 . S
H774 C786 0.930 . S
H775 C788 0.930 . S
H776 C789 0.930 . S
H777 C793 0.959 . S
H778 C793 0.959 . S
H779 C793 0.961 . S
H780 C794 0.960 . S
H781 C794 0.961 . S
H782 C794 0.959 . S
H783 C797 0.929 . S
H784 C798 0.931 . S
H785 C800 0.930 . S
C786 H774 0.930 . S
C786 C787 1.399 . S
C786 C791 1.399 . S
C787 C786 1.399 . S
C787 C788 1.376 . S
C788 H775 0.930 . S
C788 C787 1.376 . S
C788 C789 1.388 . S
C789 H776 0.930 . S
C789 C788 1.388 . S
C789 C790 1.390 . S
C790 C789 1.390 . S
C790 C791 1.394 . S
C790 C796 1.465 . S
C791 C786 1.399 . S
C791 C790 1.394 . S
C791 C792 1.516 . S
C792 C791 1.516 . S
C792 C793 1.502 . S
C792 C794 1.561 . S
C792 C795 1.526 . S
C793 H777 0.959 . S
C793 H778 0.959 . S
C793 H779 0.961 . S
C793 C792 1.502 . S
C794 H780 0.960 . S
C794 H781 0.961 . S
C794 H782 0.959 . S
C794 C792 1.561 . S
C795 C792 1.526 . S
C795 C796 1.396 . S
C795 C800 1.390 . S
C796 C790 1.465 . S
C796 C795 1.396 . S
C796 C797 1.399 . S
C797 H783 0.929 . S
C797 C796 1.399 . S
C797 C798 1.385 . S
C798 H784 0.931 . S
C798 C797 1.385 . S
C798 C799 1.389 . S
C799 C798 1.389 . S
C799 C800 1.387 . S
C800 H785 0.930 . S
C800 C795 1.390 . S
C800 C799 1.387 . S
H801 C813 0.930 . S
H802 C815 0.930 . S
H803 C816 0.930 . S
H804 C820 0.959 . S
H805 C820 0.959 . S
H806 C820 0.961 . S
H807 C821 0.960 . S
H808 C821 0.961 . S
H809 C821 0.959 . S
H810 C824 0.929 . S
H811 C825 0.931 . S
H812 C827 0.930 . S
C813 H801 0.930 . S
C813 C814 1.399 . S
C813 C818 1.399 . S
C814 C813 1.399 . S
C814 C815 1.376 . S
C815 H802 0.930 . S
C815 C814 1.376 . S
C815 C816 1.388 . S
C816 H803 0.930 . S
C816 C815 1.388 . S
C816 C817 1.390 . S
C817 C816 1.390 . S
C817 C818 1.394 . S
C817 C823 1.465 . S
C818 C813 1.399 . S
C818 C817 1.394 . S
C818 C819 1.516 . S
C819 C818 1.516 . S
C819 C820 1.502 . S
C819 C821 1.561 . S
C819 C822 1.526 . S
C820 H804 0.959 . S
C820 H805 0.959 . S
C820 H806 0.961 . S
C820 C819 1.502 . S
C821 H807 0.960 . S
C821 H808 0.961 . S
C821 H809 0.959 . S
C821 C819 1.561 . S
C822 C819 1.526 . S
C822 C823 1.396 . S
C822 C827 1.390 . S
C823 C817 1.465 . S
C823 C822 1.396 . S
C823 C824 1.399 . S
C824 H810 0.929 . S
C824 C823 1.399 . S
C824 C825 1.385 . S
C825 H811 0.931 . S
C825 C824 1.385 . S
C825 C826 1.389 . S
C826 C825 1.389 . S
C826 C827 1.387 . S
C827 H812 0.930 . S
C827 C822 1.390 . S
C827 C826 1.387 . S
H828 C840 0.930 . S
H829 C842 0.930 . S
H830 C843 0.930 . S
H831 C847 0.959 . S
H832 C847 0.959 . S
H833 C847 0.961 . S
H834 C848 0.960 . S
H835 C848 0.961 . S
H836 C848 0.959 . S
H837 C851 0.929 . S
H838 C852 0.931 . S
H839 C854 0.930 . S
C840 H828 0.930 . S
C840 C841 1.399 . S
C840 C845 1.399 . S
C841 C840 1.399 . S
C841 C842 1.376 . S
C842 H829 0.930 . S
C842 C841 1.376 . S
C842 C843 1.388 . S
C843 H830 0.930 . S
C843 C842 1.388 . S
C843 C844 1.390 . S
C844 C843 1.390 . S
C844 C845 1.394 . S
C844 C850 1.465 . S
C845 C840 1.399 . S
C845 C844 1.394 . S
C845 C846 1.516 . S
C846 C845 1.516 . S
C846 C847 1.502 . S
C846 C848 1.561 . S
C846 C849 1.526 . S
C847 H831 0.959 . S
C847 H832 0.959 . S
C847 H833 0.961 . S
C847 C846 1.502 . S
C848 H834 0.960 . S
C848 H835 0.961 . S
C848 H836 0.959 . S
C848 C846 1.561 . S
C849 C846 1.526 . S
C849 C850 1.396 . S
C849 C854 1.390 . S
C850 C844 1.465 . S
C850 C849 1.396 . S
C850 C851 1.399 . S
C851 H837 0.929 . S
C851 C850 1.399 . S
C851 C852 1.385 . S
C852 H838 0.931 . S
C852 C851 1.385 . S
C852 C853 1.389 . S
C853 C852 1.389 . S
C853 C854 1.387 . S
C854 H839 0.930 . S
C854 C849 1.390 . S
C854 C853 1.387 . S
H855 C867 0.930 . S
H856 C869 0.930 . S
H857 C870 0.930 . S
H858 C874 0.959 . S
H859 C874 0.959 . S
H860 C874 0.961 . S
H861 C875 0.960 . S
H862 C875 0.961 . S
H863 C875 0.959 . S
H864 C878 0.929 . S
H865 C879 0.931 . S
H866 C881 0.930 . S
C867 H855 0.930 . S
C867 C868 1.399 . S
C867 C872 1.399 . S
C868 C867 1.399 . S
C868 C869 1.376 . S
C869 H856 0.930 . S
C869 C868 1.376 . S
C869 C870 1.388 . S
C870 H857 0.930 . S
C870 C869 1.388 . S
C870 C871 1.390 . S
C871 C870 1.390 . S
C871 C872 1.394 . S
C871 C877 1.465 . S
C872 C867 1.399 . S
C872 C871 1.394 . S
C872 C873 1.516 . S
C873 C872 1.516 . S
C873 C874 1.502 . S
C873 C875 1.561 . S
C873 C876 1.526 . S
C874 H858 0.959 . S
C874 H859 0.959 . S
C874 H860 0.961 . S
C874 C873 1.502 . S
C875 H861 0.960 . S
C875 H862 0.961 . S
C875 H863 0.959 . S
C875 C873 1.561 . S
C876 C873 1.526 . S
C876 C877 1.396 . S
C876 C881 1.390 . S
C877 C871 1.465 . S
C877 C876 1.396 . S
C877 C878 1.399 . S
C878 H864 0.929 . S
C878 C877 1.399 . S
C878 C879 1.385 . S
C879 H865 0.931 . S
C879 C878 1.385 . S
C879 C880 1.389 . S
C880 C879 1.389 . S
C880 C881 1.387 . S
C881 H866 0.930 . S
C881 C876 1.390 . S
C881 C880 1.387 . S
H882 C894 0.930 . S
H883 C896 0.930 . S
H884 C897 0.930 . S
H885 C901 0.959 . S
H886 C901 0.959 . S
H887 C901 0.961 . S
H888 C902 0.960 . S
H889 C902 0.961 . S
H890 C902 0.959 . S
H891 C905 0.929 . S
H892 C906 0.931 . S
H893 C908 0.930 . S
C894 H882 0.930 . S
C894 C895 1.399 . S
C894 C899 1.399 . S
C895 C894 1.399 . S
C895 C896 1.376 . S
C896 H883 0.930 . S
C896 C895 1.376 . S
C896 C897 1.388 . S
C897 H884 0.930 . S
C897 C896 1.388 . S
C897 C898 1.390 . S
C898 C897 1.390 . S
C898 C899 1.394 . S
C898 C904 1.465 . S
C899 C894 1.399 . S
C899 C898 1.394 . S
C899 C900 1.516 . S
C900 C899 1.516 . S
C900 C901 1.502 . S
C900 C902 1.561 . S
C900 C903 1.526 . S
C901 H885 0.959 . S
C901 H886 0.959 . S
C901 H887 0.961 . S
C901 C900 1.502 . S
C902 H888 0.960 . S
C902 H889 0.961 . S
C902 H890 0.959 . S
C902 C900 1.561 . S
C903 C900 1.526 . S
C903 C904 1.396 . S
C903 C908 1.390 . S
C904 C898 1.465 . S
C904 C903 1.396 . S
C904 C905 1.399 . S
C905 H891 0.929 . S
C905 C904 1.399 . S
C905 C906 1.385 . S
C906 H892 0.931 . S
C906 C905 1.385 . S
C906 C907 1.389 . S
C907 C906 1.389 . S
C907 C908 1.387 . S
C908 H893 0.930 . S
C908 C903 1.390 . S
C908 C907 1.387 . S
H909 C921 0.930 . S
H910 C923 0.930 . S
H911 C924 0.930 . S
H912 C928 0.959 . S
H913 C928 0.959 . S
H914 C928 0.961 . S
H915 C929 0.960 . S
H916 C929 0.961 . S
H917 C929 0.959 . S
H918 C932 0.929 . S
H919 C933 0.931 . S
H920 C935 0.930 . S
C921 H909 0.930 . S
C921 C922 1.399 . S
C921 C926 1.399 . S
C922 C921 1.399 . S
C922 C923 1.376 . S
C923 H910 0.930 . S
C923 C922 1.376 . S
C923 C924 1.388 . S
C924 H911 0.930 . S
C924 C923 1.388 . S
C924 C925 1.390 . S
C925 C924 1.390 . S
C925 C926 1.394 . S
C925 C931 1.465 . S
C926 C921 1.399 . S
C926 C925 1.394 . S
C926 C927 1.516 . S
C927 C926 1.516 . S
C927 C928 1.502 . S
C927 C929 1.561 . S
C927 C930 1.526 . S
C928 H912 0.959 . S
C928 H913 0.959 . S
C928 H914 0.961 . S
C928 C927 1.502 . S
C929 H915 0.960 . S
C929 H916 0.961 . S
C929 H917 0.959 . S
C929 C927 1.561 . S
C930 C927 1.526 . S
C930 C931 1.396 . S
C930 C935 1.390 . S
C931 C925 1.465 . S
C931 C930 1.396 . S
C931 C932 1.399 . S
C932 H918 0.929 . S
C932 C931 1.399 . S
C932 C933 1.385 . S
C933 H919 0.931 . S
C933 C932 1.385 . S
C933 C934 1.389 . S
C934 C933 1.389 . S
C934 C935 1.387 . S
C935 H920 0.930 . S
C935 C930 1.390 . S
C935 C934 1.387 . S
H936 C948 0.930 . S
H937 C950 0.930 . S
H938 C951 0.930 . S
H939 C955 0.959 . S
H940 C955 0.959 . S
H941 C955 0.961 . S
H942 C956 0.960 . S
H943 C956 0.961 . S
H944 C956 0.959 . S
H945 C959 0.929 . S
H946 C960 0.931 . S
H947 C962 0.930 . S
C948 H936 0.930 . S
C948 C949 1.399 . S
C948 C953 1.399 . S
C949 C948 1.399 . S
C949 C950 1.376 . S
C950 H937 0.930 . S
C950 C949 1.376 . S
C950 C951 1.388 . S
C951 H938 0.930 . S
C951 C950 1.388 . S
C951 C952 1.390 . S
C952 C951 1.390 . S
C952 C953 1.394 . S
C952 C958 1.465 . S
C953 C948 1.399 . S
C953 C952 1.394 . S
C953 C954 1.516 . S
C954 C953 1.516 . S
C954 C955 1.502 . S
C954 C956 1.561 . S
C954 C957 1.526 . S
C955 H939 0.959 . S
C955 H940 0.959 . S
C955 H941 0.961 . S
C955 C954 1.502 . S
C956 H942 0.960 . S
C956 H943 0.961 . S
C956 H944 0.959 . S
C956 C954 1.561 . S
C957 C954 1.526 . S
C957 C958 1.396 . S
C957 C962 1.390 . S
C958 C952 1.465 . S
C958 C957 1.396 . S
C958 C959 1.399 . S
C959 H945 0.929 . S
C959 C958 1.399 . S
C959 C960 1.385 . S
C960 H946 0.931 . S
C960 C959 1.385 . S
C960 C961 1.389 . S
C961 C960 1.389 . S
C961 C962 1.387 . S
C962 H947 0.930 . S
C962 C957 1.390 . S
C962 C961 1.387 . S
H963 C975 0.930 . S
H964 C977 0.930 . S
H965 C978 0.930 . S
H966 C982 0.959 . S
H967 C982 0.959 . S
H968 C982 0.961 . S
H969 C983 0.960 . S
H970 C983 0.961 . S
H971 C983 0.959 . S
H972 C986 0.929 . S
H973 C987 0.931 . S
H974 C989 0.930 . S
C975 H963 0.930 . S
C975 C976 1.399 . S
C975 C980 1.399 . S
C976 C975 1.399 . S
C976 C977 1.376 . S
C977 H964 0.930 . S
C977 C976 1.376 . S
C977 C978 1.388 . S
C978 H965 0.930 . S
C978 C977 1.388 . S
C978 C979 1.390 . S
C979 C978 1.390 . S
C979 C980 1.394 . S
C979 C985 1.465 . S
C980 C975 1.399 . S
C980 C979 1.394 . S
C980 C981 1.516 . S
C981 C980 1.516 . S
C981 C982 1.502 . S
C981 C983 1.561 . S
C981 C984 1.526 . S
C982 H966 0.959 . S
C982 H967 0.959 . S
C982 H968 0.961 . S
C982 C981 1.502 . S
C983 H969 0.960 . S
C983 H970 0.961 . S
C983 H971 0.959 . S
C983 C981 1.561 . S
C984 C981 1.526 . S
C984 C985 1.396 . S
C984 C989 1.390 . S
C985 C979 1.465 . S
C985 C984 1.396 . S
C985 C986 1.399 . S
C986 H972 0.929 . S
C986 C985 1.399 . S
C986 C987 1.385 . S
C987 H973 0.931 . S
C987 C986 1.385 . S
C987 C988 1.389 . S
C988 C987 1.389 . S
C988 C989 1.387 . S
C989 H974 0.930 . S
C989 C984 1.390 . S
C989 C988 1.387 . S
H990 C1002 0.930 . S
H991 C1004 0.930 . S
H992 C1005 0.930 . S
H993 C1009 0.959 . S
H994 C1009 0.959 . S
H995 C1009 0.961 . S
H996 C1010 0.960 . S
H997 C1010 0.961 . S
H998 C1010 0.959 . S
H999 C1013 0.929 . S
H1000 C1014 0.931 . S
H1001 C1016 0.930 . S
C1002 H990 0.930 . S
C1002 C1003 1.399 . S
C1002 C1007 1.399 . S
C1003 C1002 1.399 . S
C1003 C1004 1.376 . S
C1004 H991 0.930 . S
C1004 C1003 1.376 . S
C1004 C1005 1.388 . S
C1005 H992 0.930 . S
C1005 C1004 1.388 . S
C1005 C1006 1.390 . S
C1006 C1005 1.390 . S
C1006 C1007 1.394 . S
C1006 C1012 1.465 . S
C1007 C1002 1.399 . S
C1007 C1006 1.394 . S
C1007 C1008 1.516 . S
C1008 C1007 1.516 . S
C1008 C1009 1.502 . S
C1008 C1010 1.561 . S
C1008 C1011 1.526 . S
C1009 H993 0.959 . S
C1009 H994 0.959 . S
C1009 H995 0.961 . S
C1009 C1008 1.502 . S
C1010 H996 0.960 . S
C1010 H997 0.961 . S
C1010 H998 0.959 . S
C1010 C1008 1.561 . S
C1011 C1008 1.526 . S
C1011 C1012 1.396 . S
C1011 C1016 1.390 . S
C1012 C1006 1.465 . S
C1012 C1011 1.396 . S
C1012 C1013 1.399 . S
C1013 H999 0.929 . S
C1013 C1012 1.399 . S
C1013 C1014 1.385 . S
C1014 H1000 0.931 . S
C1014 C1013 1.385 . S
C1014 C1015 1.389 . S
C1015 C1014 1.389 . S
C1015 C1016 1.387 . S
C1016 H1001 0.930 . S
C1016 C1011 1.390 . S
C1016 C1015 1.387 . S
H1017 C1029 0.930 . S
H1018 C1031 0.930 . S
H1019 C1032 0.930 . S
H1020 C1036 0.959 . S
H1021 C1036 0.959 . S
H1022 C1036 0.961 . S
H1023 C1037 0.960 . S
H1024 C1037 0.961 . S
H1025 C1037 0.959 . S
H1026 C1040 0.929 . S
H1027 C1041 0.931 . S
H1028 C1043 0.930 . S
C1029 H1017 0.930 . S
C1029 C1030 1.399 . S
C1029 C1034 1.399 . S
C1030 C1029 1.399 . S
C1030 C1031 1.376 . S
C1031 H1018 0.930 . S
C1031 C1030 1.376 . S
C1031 C1032 1.388 . S
C1032 H1019 0.930 . S
C1032 C1031 1.388 . S
C1032 C1033 1.390 . S
C1033 C1032 1.390 . S
C1033 C1034 1.394 . S
C1033 C1039 1.465 . S
C1034 C1029 1.399 . S
C1034 C1033 1.394 . S
C1034 C1035 1.516 . S
C1035 C1034 1.516 . S
C1035 C1036 1.502 . S
C1035 C1037 1.561 . S
C1035 C1038 1.526 . S
C1036 H1020 0.959 . S
C1036 H1021 0.959 . S
C1036 H1022 0.961 . S
C1036 C1035 1.502 . S
C1037 H1023 0.960 . S
C1037 H1024 0.961 . S
C1037 H1025 0.959 . S
C1037 C1035 1.561 . S
C1038 C1035 1.526 . S
C1038 C1039 1.396 . S
C1038 C1043 1.390 . S
C1039 C1033 1.465 . S
C1039 C1038 1.396 . S
C1039 C1040 1.399 . S
C1040 H1026 0.929 . S
C1040 C1039 1.399 . S
C1040 C1041 1.385 . S
C1041 H1027 0.931 . S
C1041 C1040 1.385 . S
C1041 C1042 1.389 . S
C1042 C1041 1.389 . S
C1042 C1043 1.387 . S
C1043 H1028 0.930 . S
C1043 C1038 1.390 . S
C1043 C1042 1.387 . S
C409 C235 1.398 . S
C421 C328 1.345 . S
C448 C336 1.336 . S
C436 C289 1.386 . S
C475 C340 1.377 . S
C463 C157 1.428 . S
C490 C211 1.419 . S
C502 C316 1.370 . S
C529 C357 1.325 . S
C517 C79 1.401 . S
C556 C391 1.326 . S
C544 C118 1.402 . S
C571 C1 1.382 . S
C583 C379 1.309 . S
C598 C40 1.412 . S
C610 C361 1.396 . S
C637 C315 1.327 . S
C625 C55 1.456 . S
C664 C349 1.246 . S
C652 C16 1.426 . S
C691 C353 1.264 . S
C679 C133 1.425 . S
C718 C331 1.255 . S
C706 C94 1.428 . S
C745 C370 1.320 . S
C733 C196 1.435 . S
C760 C172 1.455 . S
C772 C378 1.286 . S
C799 C394 1.317 . S
C787 C274 1.464 . S
C814 C250 1.437 . S
C826 C374 1.316 . S
C853 C319 1.375 . S
C841 C21 1.486 . S
C880 C337 1.269 . S
C868 C60 1.505 . S
C895 C99 1.468 . S
C907 C352 1.344 . S
C934 C332 1.364 . S
C922 C138 1.474 . S
C961 C358 1.316 . S
C949 C177 1.495 . S
C976 C216 1.504 . S
C988 C382 1.336 . S
C1003 C255 1.489 . S
C1015 C395 1.266 . S
C1030 C294 1.488 . S
C1042 C373 1.351 . S
