# Generated by pormake.
# Topology zzz, (3,6)-cn, num edge types: 1
# Building blocks:
#     Node 0, Type 0, BuildingBlock: VETTIZ_charged_linker_0, # of connection points: 3
#     Node 1, Type 0, BuildingBlock: VETTIZ_charged_linker_0, # of connection points: 3
#     Node 2, Type 0, BuildingBlock: VETTIZ_charged_linker_0, # of connection points: 3
#     Node 3, Type 0, BuildingBlock: VETTIZ_charged_linker_0, # of connection points: 3
#     Node 4, Type 0, BuildingBlock: VETTIZ_charged_linker_0, # of connection points: 3
#     Node 5, Type 0, BuildingBlock: VETTIZ_charged_linker_0, # of connection points: 3
#     Node 6, Type 0, BuildingBlock: VETTIZ_charged_linker_0, # of connection points: 3
#     Node 7, Type 0, BuildingBlock: VETTIZ_charged_linker_0, # of connection points: 3
#     Node 8, Type 1, BuildingBlock: PAMTUU_clean_sbu_0, # of connection points: 6
#     Node 9, Type 1, BuildingBlock: PAMTUU_clean_sbu_0, # of connection points: 6
#     Node 10, Type 1, BuildingBlock: PAMTUU_clean_sbu_0, # of connection points: 6
#     Node 11, Type 1, BuildingBlock: PAMTUU_clean_sbu_0, # of connection points: 6
#     Edge 12, Type (0, 1), BuildingBlock: ZUJKAS_clean_linker_0, # of connection points: 2
#     Edge 13, Type (0, 1), BuildingBlock: ZUJKAS_clean_linker_0, # of connection points: 2
#     Edge 14, Type (0, 1), BuildingBlock: ZUJKAS_clean_linker_0, # of connection points: 2
#     Edge 15, Type (0, 1), BuildingBlock: ZUJKAS_clean_linker_0, # of connection points: 2
#     Edge 16, Type (0, 1), BuildingBlock: ZUJKAS_clean_linker_0, # of connection points: 2
#     Edge 17, Type (0, 1), BuildingBlock: ZUJKAS_clean_linker_0, # of connection points: 2
#     Edge 18, Type (0, 1), BuildingBlock: ZUJKAS_clean_linker_0, # of connection points: 2
#     Edge 19, Type (0, 1), BuildingBlock: ZUJKAS_clean_linker_0, # of connection points: 2
#     Edge 20, Type (0, 1), BuildingBlock: ZUJKAS_clean_linker_0, # of connection points: 2
#     Edge 21, Type (0, 1), BuildingBlock: ZUJKAS_clean_linker_0, # of connection points: 2
#     Edge 22, Type (0, 1), BuildingBlock: ZUJKAS_clean_linker_0, # of connection points: 2
#     Edge 23, Type (0, 1), BuildingBlock: ZUJKAS_clean_linker_0, # of connection points: 2
#     Edge 24, Type (0, 1), BuildingBlock: ZUJKAS_clean_linker_0, # of connection points: 2
#     Edge 25, Type (0, 1), BuildingBlock: ZUJKAS_clean_linker_0, # of connection points: 2
#     Edge 26, Type (0, 1), BuildingBlock: ZUJKAS_clean_linker_0, # of connection points: 2
#     Edge 27, Type (0, 1), BuildingBlock: ZUJKAS_clean_linker_0, # of connection points: 2
#     Edge 28, Type (0, 1), BuildingBlock: ZUJKAS_clean_linker_0, # of connection points: 2
#     Edge 29, Type (0, 1), BuildingBlock: ZUJKAS_clean_linker_0, # of connection points: 2
#     Edge 30, Type (0, 1), BuildingBlock: ZUJKAS_clean_linker_0, # of connection points: 2
#     Edge 31, Type (0, 1), BuildingBlock: ZUJKAS_clean_linker_0, # of connection points: 2
#     Edge 32, Type (0, 1), BuildingBlock: ZUJKAS_clean_linker_0, # of connection points: 2
#     Edge 33, Type (0, 1), BuildingBlock: ZUJKAS_clean_linker_0, # of connection points: 2
#     Edge 34, Type (0, 1), BuildingBlock: ZUJKAS_clean_linker_0, # of connection points: 2
#     Edge 35, Type (0, 1), BuildingBlock: ZUJKAS_clean_linker_0, # of connection points: 2
# Relax obj value: 0.365
# Max RMSD: 0.263
# Mean RMSD: 0.222
data_MOF--net-zzz--node1-PAMTUU_clean_sbu_0--node2-VETTIZ_charged_linker_0--edge1-ZUJKAS_clean_linker_0
_symmetry_space_group_name_H-M    P1
_symmetry_Int_Tables_number       1
_symmetry_cell_setting            triclinic
loop_
_symmetry_equiv_pos_as_xyz
'x, y, z'
_cell_length_a     71.669304
_cell_length_b     75.064602
_cell_length_c     25.245015
_cell_angle_alpha  97.046927
_cell_angle_beta   89.996098
_cell_angle_gamma 90.341349
loop_
_atom_site_label
_atom_site_type_symbol
_atom_site_fract_x
_atom_site_fract_y
_atom_site_fract_z
_atom_type_partial_charge
C0 C 0.81167 0.48844 0.36086 0.0
C1 C 0.82836 0.48053 0.37664 0.0
C2 C 0.83406 0.46408 0.34911 0.0
C3 C 0.80729 0.46348 0.29062 0.0
C4 C 0.80116 0.47948 0.31782 0.0
C5 C 0.78262 0.48496 0.29536 0.0
H6 H 0.71557 0.46571 0.10095 0.0
C7 C 0.79384 0.45738 0.24797 0.0
C8 C 0.77897 0.46964 0.25047 0.0
H9 H 0.7158 0.51147 0.22215 0.0
H10 H 0.74432 0.50051 0.26051 0.0
H11 H 0.75743 0.46731 0.07398 0.0
H12 H 0.726 0.43679 0.17644 0.0
H13 H 0.74325 0.42218 0.14767 0.0
H14 H 0.7263 0.4312 0.1053 0.0
H15 H 0.74281 0.44868 0.04906 0.0
H16 H 0.76697 0.44577 0.06514 0.0
C17 C 0.78534 0.50312 0.27364 0.0
C18 C 0.76774 0.4855 0.33963 0.0
C19 C 0.8122 0.40614 0.10839 0.0
C20 C 0.80359 0.39831 0.06091 0.0
C21 C 0.78457 0.40193 0.05285 0.0
C22 C 0.77502 0.41455 0.08827 0.0
C23 C 0.78453 0.42365 0.13239 0.0
C24 C 0.80245 0.41867 0.14334 0.0
C25 C 0.81018 0.42929 0.19291 0.0
C26 C 0.79443 0.44247 0.20754 0.0
C27 C 0.77961 0.43924 0.17162 0.0
C28 C 0.82828 0.43889 0.17749 0.0
C29 C 0.8129 0.4162 0.23544 0.0
C30 C 0.72171 0.47344 0.1358 0.0
C31 C 0.71362 0.48955 0.15799 0.0
C32 C 0.72187 0.49902 0.20407 0.0
C33 C 0.73843 0.49268 0.22606 0.0
C34 C 0.74665 0.47665 0.20195 0.0
C35 C 0.73793 0.46732 0.15796 0.0
C36 C 0.74813 0.45076 0.13597 0.0
C37 C 0.76454 0.45141 0.17363 0.0
C38 C 0.76397 0.4666 0.21262 0.0
C39 C 0.75411 0.45303 0.07796 0.0
C40 C 0.73532 0.43431 0.14106 0.0
H41 H 0.82913 0.44321 0.28736 0.0
H42 H 0.80687 0.50104 0.38177 0.0
H43 H 0.76851 0.47321 0.36007 0.0
H44 H 0.75342 0.48593 0.32389 0.0
H45 H 0.76993 0.49733 0.37008 0.0
H46 H 0.7979 0.50275 0.24765 0.0
H47 H 0.78728 0.51413 0.30687 0.0
H48 H 0.77348 0.50652 0.24904 0.0
H49 H 0.82674 0.40377 0.11647 0.0
H50 H 0.77731 0.39571 0.01769 0.0
H51 H 0.76088 0.41737 0.07836 0.0
H52 H 0.82648 0.44425 0.13864 0.0
H53 H 0.84024 0.42948 0.17345 0.0
H54 H 0.83217 0.45061 0.20609 0.0
H55 H 0.80449 0.40369 0.22631 0.0
H56 H 0.80808 0.42205 0.27555 0.0
H57 H 0.82771 0.41214 0.23798 0.0
H58 H 0.84681 0.4578 0.36036 0.0
C59 C 0.82371 0.45557 0.3066 0.0
C60 C 0.9322 0.76938 0.11223 0.0
C61 C 0.9251 0.78685 0.12551 0.0
C62 C 0.917 0.79137 0.17639 0.0
C63 C 0.92927 0.76425 0.20438 0.0
C64 C 0.93379 0.75812 0.15237 0.0
C65 C 0.94194 0.73956 0.1477 0.0
H66 H 0.99581 0.68038 0.23888 0.0
C67 C 0.93765 0.75229 0.23934 0.0
C68 C 0.94317 0.73677 0.2068 0.0
H69 H 0.95024 0.66786 0.12755 0.0
H70 H 0.93644 0.69703 0.15737 0.0
H71 H 1.00144 0.72568 0.22804 0.0
H72 H 0.96525 0.69917 0.33246 0.0
H73 H 0.97827 0.71697 0.36763 0.0
H74 H 0.99024 0.69752 0.33614 0.0
H75 H 1.01081 0.71272 0.2771 0.0
H76 H 1.00312 0.73541 0.29532 0.0
C77 C 0.96146 0.73946 0.12174 0.0
C78 C 0.9285 0.72652 0.11441 0.0
C79 C 0.96513 0.78485 0.40905 0.0
C80 C 0.98126 0.78237 0.43852 0.0
C81 C 0.99164 0.7665 0.42582 0.0
C82 C 0.98585 0.7533 0.38424 0.0
C83 C 0.96989 0.75631 0.35403 0.0
C84 C 0.96009 0.77211 0.36628 0.0
C85 C 0.94484 0.77441 0.32704 0.0
C86 C 0.94673 0.75709 0.28928 0.0
C87 C 0.96119 0.74628 0.30576 0.0
C88 C 0.94894 0.7916 0.3 0.0
C89 C 0.92598 0.77508 0.3568 0.0
C90 C 0.98341 0.68426 0.21877 0.0
C91 C 0.97464 0.67219 0.17873 0.0
C92 C 0.9577 0.67717 0.15636 0.0
C93 C 0.95019 0.69417 0.17091 0.0
C94 C 0.96012 0.70653 0.20594 0.0
C95 C 0.97541 0.70131 0.23309 0.0
C96 C 0.9803 0.71542 0.27964 0.0
C97 C 0.96519 0.72952 0.27474 0.0
C98 C 0.95468 0.72441 0.22868 0.0
C99 C 1.00001 0.72272 0.26997 0.0
C100 C 0.97854 0.70689 0.332 0.0
H101 H 0.91306 0.78394 0.25465 0.0
H102 H 0.93786 0.76514 0.07302 0.0
H103 H 0.92239 0.73281 0.08077 0.0
H104 H 0.9168 0.72244 0.13928 0.0
H105 H 0.93589 0.71449 0.09531 0.0
H106 H 0.9708 0.74952 0.14456 0.0
H107 H 0.96056 0.74259 0.07995 0.0
H108 H 0.96801 0.72606 0.12065 0.0
H109 H 0.95717 0.79711 0.41701 0.0
H110 H 1.00424 0.76439 0.44783 0.0
H111 H 0.99422 0.74148 0.3763 0.0
H112 H 0.95891 0.80093 0.32301 0.0
H113 H 0.93624 0.79972 0.29663 0.0
H114 H 0.95528 0.78828 0.25987 0.0
H115 H 0.92517 0.7644 0.38365 0.0
H116 H 0.91403 0.77276 0.32908 0.0
H117 H 0.92416 0.78827 0.38149 0.0
H118 H 0.91035 0.80424 0.18672 0.0
C119 C 0.91894 0.77997 0.21592 0.0
C120 C 0.83272 0.99084 0.21419 0.0
C121 C 0.84427 0.00152 0.18474 0.0
C122 C 0.83713 0.01774 0.17038 0.0
C123 C 0.80669 0.01011 0.20077 0.0
C124 C 0.81394 0.996 0.22394 0.0
C125 C 0.79882 0.98738 0.25479 0.0
H126 H 0.705 0.98066 0.29809 0.0
C127 C 0.78639 0.00961 0.20423 0.0
C128 C 0.7816 0.99835 0.24272 0.0
H129 H 0.74441 0.9923 0.42751 0.0
H130 H 0.76926 0.99574 0.36249 0.0
H131 H 0.71807 0.01425 0.24515 0.0
H132 H 0.73235 0.95842 0.20594 0.0
H133 H 0.73281 0.96825 0.14624 0.0
H134 H 0.71115 0.96734 0.18255 0.0
H135 H 0.70149 0.99684 0.22297 0.0
H136 H 0.7149 0.00742 0.17612 0.0
C137 C 0.80385 0.98936 0.31441 0.0
C138 C 0.7964 0.96746 0.23248 0.0
C139 C 0.75376 0.02059 0.03266 0.0
C140 C 0.73746 0.01326 0.00801 0.0
C141 C 0.72627 0.00162 0.03433 0.0
C142 C 0.73102 0.99774 0.08549 0.0
C143 C 0.74713 0.00554 0.11031 0.0
C144 C 0.75865 0.01609 0.08301 0.0
C145 C 0.77634 0.02142 0.11301 0.0
C146 C 0.77351 0.01209 0.16294 0.0
C147 C 0.75603 0.00354 0.16178 0.0
C148 C 0.77655 0.04204 0.12664 0.0
C149 C 0.79328 0.01425 0.07846 0.0
C150 C 0.71903 0.98329 0.31295 0.0
C151 C 0.72262 0.9859 0.36824 0.0
C152 C 0.74124 0.98954 0.38536 0.0
C153 C 0.75572 0.9911 0.3481 0.0
C154 C 0.7517 0.98847 0.2933 0.0
C155 C 0.73344 0.98537 0.27661 0.0
C156 C 0.73085 0.98808 0.21881 0.0
C157 C 0.75008 0.99495 0.20584 0.0
C158 C 0.76257 0.99339 0.24759 0.0
C159 C 0.71551 0.00235 0.21516 0.0
C160 C 0.72643 0.96965 0.18645 0.0
H161 H 0.81338 0.03449 0.16691 0.0
H162 H 0.83804 0.97873 0.22785 0.0
H163 H 0.79334 0.96604 0.18897 0.0
H164 H 0.78467 0.96133 0.2528 0.0
H165 H 0.80927 0.9598 0.23878 0.0
H166 H 0.80261 0.00356 0.33258 0.0
H167 H 0.81842 0.98494 0.32004 0.0
H168 H 0.79474 0.98072 0.33613 0.0
H169 H 0.76264 0.0294 0.01267 0.0
H170 H 0.7136 0.99589 0.01578 0.0
H171 H 0.72191 0.98898 0.10409 0.0
H172 H 0.76274 0.04695 0.14218 0.0
H173 H 0.77979 0.04864 0.09062 0.0
H174 H 0.78682 0.04662 0.15805 0.0
H175 H 0.79762 1.0008 0.08787 0.0
H176 H 0.80534 0.02358 0.08328 0.0
H177 H 0.79018 0.01282 0.03505 0.0
H178 H 0.84575 0.0265 0.14943 0.0
C179 C 0.81841 0.02215 0.17889 0.0
C180 C 0.56317 0.73118 0.2618 0.0
C181 C 0.56541 0.71253 0.26301 0.0
C182 C 0.56438 0.70089 0.21501 0.0
C183 C 0.55771 0.72581 0.16606 0.0
C184 C 0.55962 0.73757 0.21238 0.0
C185 C 0.55765 0.75689 0.20125 0.0
H186 H 0.53445 0.8137 0.01941 0.0
C187 C 0.55259 0.73609 0.12223 0.0
C188 C 0.5526 0.75443 0.14193 0.0
H189 H 0.55506 0.82908 0.17927 0.0
H190 H 0.55698 0.79754 0.19316 0.0
H191 H 0.56349 0.78192 0.98891 0.0
H192 H 0.50703 0.78391 0.0467 0.0
H193 H 0.50885 0.76347 1.0052 0.0
H194 H 0.51224 0.78432 0.97741 0.0
H195 H 0.54385 0.78786 0.95066 0.0
H196 H 0.55067 0.76485 0.95068 0.0
C197 C 0.57676 0.76633 0.21158 0.0
C198 C 0.54176 0.76579 0.23603 0.0
C199 C 0.53282 0.70164 0.94591 0.0
C200 C 0.5241 0.70671 0.90037 0.0
C201 C 0.52086 0.725 0.89696 0.0
C202 C 0.52637 0.7381 0.93868 0.0
C203 C 0.53486 0.73277 0.98455 0.0
C204 C 0.53781 0.71477 0.98751 0.0
C205 C 0.54543 0.71129 0.04059 0.0
C206 C 0.54676 0.73023 0.06923 0.0
C207 C 0.54086 0.74273 0.03607 0.0
C208 C 0.56498 0.70269 0.03119 0.0
C209 C 0.53094 0.6996 0.06679 0.0
C210 C 0.53921 0.81036 0.0577 0.0
C211 C 0.54439 0.82388 0.09843 0.0
C212 C 0.55098 0.81887 0.14721 0.0
C213 C 0.55213 0.8006 0.15511 0.0
C214 C 0.54697 0.78724 0.11344 0.0
C215 C 0.54071 0.79237 0.06574 0.0
C216 C 0.53626 0.77676 0.02485 0.0
C217 C 0.54136 0.76128 0.05489 0.0
C218 C 0.5474 0.76728 0.10726 0.0
C219 C 0.54909 0.77783 0.97588 0.0
C220 C 0.51506 0.77708 0.01237 0.0
H221 H 0.55966 0.69766 0.13217 0.0
H222 H 0.56424 0.74043 0.29811 0.0
H223 H 0.52908 0.75711 0.23241 0.0
H224 H 0.53762 0.77884 0.22399 0.0
H225 H 0.5459 0.76792 0.27875 0.0
H226 H 0.58835 0.7571 0.19787 0.0
H227 H 0.57884 0.77074 0.25482 0.0
H228 H 0.57852 0.77797 0.18927 0.0
H229 H 0.53497 0.68761 0.95014 0.0
H230 H 0.514 0.72909 0.86222 0.0
H231 H 0.52359 0.75184 0.93388 0.0
H232 H 0.57225 0.70792 0.99725 0.0
H233 H 0.56391 0.68788 0.02166 0.0
H234 H 0.5745 0.70598 0.06553 0.0
H235 H 0.51649 0.70217 0.0536 0.0
H236 H 0.53036 0.70262 0.11067 0.0
H237 H 0.53369 0.68506 0.05605 0.0
H238 H 0.56602 0.68654 0.21499 0.0
C239 C 0.56057 0.70738 0.16686 0.0
C240 C 0.3293 0.50967 0.29898 0.0
C241 C 0.34046 0.5164 0.34335 0.0
C242 C 0.33515 0.53227 0.37482 0.0
C243 C 0.30785 0.53459 0.31975 0.0
C244 C 0.31298 0.51911 0.28776 0.0
C245 C 0.29914 0.51458 0.24232 0.0
H246 H 0.21583 0.53568 0.13012 0.0
C247 C 0.29037 0.54133 0.29891 0.0
C248 C 0.28503 0.52985 0.25296 0.0
H249 H 0.25142 0.49141 0.07276 0.0
H250 H 0.27414 0.50107 0.14308 0.0
H251 H 0.22025 0.53251 0.25292 0.0
H252 H 0.24744 0.56444 0.14563 0.0
H253 H 0.24638 0.57827 0.20682 0.0
H254 H 0.225 0.57028 0.17379 0.0
H255 H 0.20914 0.55072 0.22563 0.0
H256 H 0.22222 0.55426 0.28687 0.0
C257 C 0.29025 0.49614 0.24784 0.0
C258 C 0.30948 0.51518 0.18897 0.0
C259 C 0.25791 0.59357 0.40778 0.0
C260 C 0.24083 0.60215 0.40122 0.0
C261 C 0.23115 0.59833 0.3525 0.0
C262 C 0.23764 0.58521 0.31268 0.0
C263 C 0.25394 0.5757 0.3216 0.0
C264 C 0.26418 0.58046 0.36751 0.0
C265 C 0.28131 0.56914 0.36966 0.0
C266 C 0.27917 0.55622 0.31859 0.0
C267 C 0.26302 0.56 0.29114 0.0
C268 C 0.27992 0.55932 0.42021 0.0
C269 C 0.29865 0.58158 0.36792 0.0
C270 C 0.22851 0.52803 0.13266 0.0
C271 C 0.23177 0.51272 0.09649 0.0
C272 C 0.24859 0.50326 0.10051 0.0
C273 C 0.26169 0.50885 0.14139 0.0
C274 C 0.25797 0.52415 0.17815 0.0
C275 C 0.24164 0.53352 0.17235 0.0
C276 C 0.23966 0.54959 0.21312 0.0
C277 C 0.25732 0.54846 0.24523 0.0
C278 C 0.26817 0.53346 0.2255 0.0
C279 C 0.22188 0.54684 0.24639 0.0
C280 C 0.23946 0.56658 0.18369 0.0
H281 H 0.31589 0.55328 0.3894 0.0
H282 H 0.33321 0.49752 0.27392 0.0
H283 H 0.31843 0.52739 0.19085 0.0
H284 H 0.29985 0.51581 0.15521 0.0
H285 H 0.31858 0.50326 0.1799 0.0
H286 H 0.28543 0.49561 0.28951 0.0
H287 H 0.3005 0.4852 0.23786 0.0
H288 H 0.2779 0.49331 0.2221 0.0
H289 H 0.26575 0.59638 0.44457 0.0
H290 H 0.21788 0.60461 0.34649 0.0
H291 H 0.22918 0.58241 0.27758 0.0
H292 H 0.2653 0.55497 0.42659 0.0
H293 H 0.28433 0.56826 0.45644 0.0
H294 H 0.28815 0.54688 0.41746 0.0
H295 H 0.29534 0.5939 0.3494 0.0
H296 H 0.31001 0.57513 0.34286 0.0
H297 H 0.30411 0.58597 0.40862 0.0
H298 H 0.34355 0.53765 0.40886 0.0
C299 C 0.31905 0.54136 0.3633 0.0
C300 C 0.0939 0.22862 0.44109 0.0
C301 C 0.09323 0.21017 0.44569 0.0
C302 C 0.09609 0.1978 0.39971 0.0
C303 C 0.09623 0.22204 0.34484 0.0
C304 C 0.09527 0.23425 0.39032 0.0
C305 C 0.09418 0.25325 0.37764 0.0
H306 H 0.0664 0.31061 0.21063 0.0
C307 C 0.09365 0.23192 0.29828 0.0
C308 C 0.09246 0.25018 0.31694 0.0
H309 H 0.09043 0.32175 0.36863 0.0
H310 H 0.09794 0.29079 0.36802 0.0
H311 H 0.1025 0.28079 0.16866 0.0
H312 H 0.04625 0.27066 0.22224 0.0
H313 H 0.05191 0.25754 0.16117 0.0
H314 H 0.05039 0.28151 0.16358 0.0
H315 H 0.08239 0.28711 0.13281 0.0
H316 H 0.09061 0.26435 0.12474 0.0
C317 C 0.11266 0.26299 0.3964 0.0
C318 C 0.07644 0.26193 0.40459 0.0
C319 C 0.0837 0.19569 0.11872 0.0
C320 C 0.07701 0.19941 0.06919 0.0
C321 C 0.07189 0.21722 0.06336 0.0
C322 C 0.07391 0.23111 0.10635 0.0
C323 C 0.0808 0.22705 0.1558 0.0
C324 C 0.08527 0.20943 0.16101 0.0
C325 C 0.09056 0.20673 0.21671 0.0
C326 C 0.08976 0.22578 0.24404 0.0
C327 C 0.08411 0.23789 0.20866 0.0
C328 C 0.11071 0.19933 0.2159 0.0
C329 C 0.07559 0.19433 0.23828 0.0
C330 C 0.0732 0.3062 0.24498 0.0
C331 C 0.07757 0.31861 0.29023 0.0
C332 C 0.08689 0.31253 0.33354 0.0
C333 C 0.09111 0.29449 0.33347 0.0
C334 C 0.0858 0.28212 0.29007 0.0
C335 C 0.07795 0.28794 0.24534 0.0
C336 C 0.07581 0.27249 0.2008 0.0
C337 C 0.08288 0.25661 0.22778 0.0
C338 C 0.08797 0.26258 0.28086 0.0
C339 C 0.0884 0.27633 0.15391 0.0
C340 C 0.05499 0.2704 0.18572 0.0
H341 H 0.09921 0.19356 0.31585 0.0
H342 H 0.09226 0.2384 0.47601 0.0
H343 H 0.06411 0.253 0.39545 0.0
H344 H 0.07287 0.27489 0.39118 0.0
H345 H 0.07812 0.26428 0.44863 0.0
H346 H 0.12347 0.25359 0.40789 0.0
H347 H 0.11038 0.27308 0.43178 0.0
H348 H 0.11918 0.26972 0.36418 0.0
H349 H 0.08708 0.18206 0.12516 0.0
H350 H 0.06644 0.22038 0.02562 0.0
H351 H 0.06979 0.2444 0.09986 0.0
H352 H 0.11971 0.20624 0.18876 0.0
H353 H 0.1109 0.18473 0.20156 0.0
H354 H 0.11759 0.20161 0.25534 0.0
H355 H 0.06255 0.1935 0.21416 0.0
H356 H 0.07091 0.19936 0.27914 0.0
H357 H 0.08079 0.1804 0.23788 0.0
H358 H 0.0957 0.18349 0.40193 0.0
C359 C 0.09774 0.20366 0.34943 0.0
C360 C 0.30721 0.01754 0.13411 0.0
C361 C 0.32449 0.0254 0.12202 0.0
C362 C 0.33144 0.04 0.15674 0.0
C363 C 0.30506 0.03839 0.21568 0.0
C364 C 0.29749 0.02457 0.18094 0.0
C365 C 0.27847 0.01903 0.2004 0.0
H366 H 0.21 0.0354 0.39144 0.0
C367 C 0.29223 0.04269 0.26096 0.0
C368 C 0.2761 0.03194 0.2519 0.0
H369 H 0.20881 0.99351 0.25848 0.0
H370 H 0.23926 0.00349 0.22873 0.0
H371 H 0.24553 0.02672 0.42683 0.0
H372 H 0.22953 0.06773 0.33415 0.0
H373 H 0.24581 0.07734 0.3819 0.0
H374 H 0.22478 0.06714 0.40378 0.0
H375 H 0.24173 0.04903 0.45809 0.0
H376 H 0.26462 0.04139 0.4361 0.0
C377 C 0.27954 0.99932 0.21164 0.0
C378 C 0.2637 0.02216 0.15819 0.0
C379 C 0.31659 0.07663 0.43235 0.0
C380 C 0.3084 0.07979 0.48329 0.0
C381 C 0.28882 0.07959 0.48753 0.0
C382 C 0.27777 0.07387 0.44289 0.0
C383 C 0.28645 0.06794 0.39399 0.0
C384 C 0.30537 0.07053 0.3883 0.0
C385 C 0.31204 0.06376 0.33291 0.0
C386 C 0.29443 0.05448 0.30905 0.0
C387 C 0.27962 0.05695 0.3452 0.0
C388 C 0.32812 0.05028 0.33729 0.0
C389 C 0.31764 0.08026 0.30467 0.0
C390 C 0.21604 0.02861 0.35513 0.0
C391 C 0.20685 0.014 0.3266 0.0
C392 C 0.2156 0.00498 0.28085 0.0
C393 C 0.23323 0.01078 0.26375 0.0
C394 C 0.24237 0.02543 0.29358 0.0
C395 C 0.23366 0.0338 0.33886 0.0
C396 C 0.24576 0.04748 0.37037 0.0
C397 C 0.26294 0.04685 0.33547 0.0
C398 C 0.2611 0.03408 0.2898 0.0
C399 C 0.2496 0.041 0.42572 0.0
C400 C 0.236 0.06594 0.37321 0.0
H401 H 0.32808 0.05751 0.22783 0.0
H402 H 0.30139 0.00646 0.10763 0.0
H403 H 0.26524 0.03586 0.14617 0.0
H404 H 0.24933 0.02116 0.17318 0.0
H405 H 0.26529 0.01229 0.1219 0.0
H406 H 0.29238 0.99712 0.23467 0.0
H407 H 0.27993 0.99008 0.17375 0.0
H408 H 0.26774 0.99546 0.23587 0.0
H409 H 0.3316 0.07691 0.42786 0.0
H410 H 0.28219 0.08238 0.5262 0.0
H411 H 0.26302 0.07317 0.44904 0.0
H412 H 0.32421 0.04043 0.36494 0.0
H413 H 0.34104 0.05735 0.35274 0.0
H414 H 0.33165 0.04238 0.29897 0.0
H415 H 0.31305 0.09317 0.32719 0.0
H416 H 0.31097 0.07986 0.26484 0.0
H417 H 0.33301 0.08121 0.29997 0.0
H418 H 0.34462 0.04625 0.14836 0.0
C419 C 0.32185 0.04652 0.20305 0.0
C420 C 0.47429 0.25536 0.19454 0.0
C421 C 0.47021 0.27353 0.18989 0.0
C422 C 0.46495 0.28496 0.23571 0.0
C423 C 0.47023 0.26134 0.29063 0.0
C424 C 0.47376 0.24944 0.2456 0.0
C425 C 0.47642 0.23056 0.25995 0.0
H426 H 0.49161 0.1782 0.45959 0.0
C427 C 0.47288 0.25205 0.33805 0.0
C428 C 0.47616 0.2338 0.32098 0.0
H429 H 0.48317 0.15931 0.29285 0.0
H430 H 0.47924 0.19022 0.27378 0.0
H431 H 0.51717 0.21049 0.44352 0.0
H432 H 0.45822 0.2063 0.47011 0.0
H433 H 0.46649 0.22524 0.51173 0.0
H434 H 0.47564 0.20343 0.51945 0.0
H435 H 0.50777 0.21038 0.50926 0.0
H436 H 0.51095 0.23097 0.47997 0.0
C437 C 0.4954 0.22333 0.23827 0.0
C438 C 0.45962 0.219 0.23758 0.0
C439 C 0.48165 0.29024 0.51611 0.0
C440 C 0.48862 0.28648 0.56548 0.0
C441 C 0.49147 0.2685 0.57384 0.0
C442 C 0.48796 0.2545 0.53281 0.0
C443 C 0.48192 0.25857 0.48259 0.0
C444 C 0.4787 0.27621 0.47525 0.0
C445 C 0.47381 0.27833 0.41856 0.0
C446 C 0.4748 0.25899 0.39265 0.0
C447 C 0.47941 0.24753 0.4303 0.0
C448 C 0.4891 0.29036 0.39728 0.0
C449 C 0.45373 0.28594 0.41763 0.0
C450 C 0.489 0.18067 0.41884 0.0
C451 C 0.48788 0.16639 0.37764 0.0
C452 C 0.48409 0.17016 0.32527 0.0
C453 C 0.48174 0.18804 0.31439 0.0
C454 C 0.4828 0.20219 0.35653 0.0
C455 C 0.48627 0.19821 0.4077 0.0
C456 C 0.48652 0.21449 0.44836 0.0
C457 C 0.48185 0.22896 0.41395 0.0
C458 C 0.48002 0.22193 0.35976 0.0
C459 C 0.50654 0.21675 0.47197 0.0
C460 C 0.47102 0.21233 0.49 0.0
H461 H 0.46119 0.28854 0.319 0.0
H462 H 0.47784 0.24617 0.1596 0.0
H463 H 0.44653 0.22697 0.24089 0.0
H464 H 0.45686 0.20755 0.26004 0.0
H465 H 0.46171 0.21395 0.19477 0.0
H466 H 0.5067 0.23316 0.25079 0.0
H467 H 0.49525 0.22097 0.19396 0.0
H468 H 0.49919 0.21064 0.2533 0.0
H469 H 0.47975 0.30396 0.50813 0.0
H470 H 0.49684 0.26533 0.61167 0.0
H471 H 0.49062 0.24109 0.54135 0.0
H472 H 0.50319 0.28646 0.41018 0.0
H473 H 0.48699 0.3047 0.41279 0.0
H474 H 0.48986 0.28927 0.3535 0.0
H475 H 0.44562 0.28347 0.45364 0.0
H476 H 0.44543 0.27935 0.38359 0.0
H477 H 0.45391 0.30067 0.41612 0.0
H478 H 0.46165 0.29891 0.23314 0.0
C479 C 0.46486 0.27897 0.28573 0.0
Tb480 Tb 0.01509 0.99976 0.72152 0.0
Tb481 Tb 0.04262 0.98125 0.80069 0.0
C482 C 0.99972 0.98731 0.82603 0.0
C483 C 1.00136 0.0376 0.66074 0.0
C484 C 1.01115 0.07392 0.65869 0.0
C485 C 0.99452 0.06689 0.63424 0.0
C486 C 0.98961 0.0488 0.63552 0.0
C487 C 0.01785 0.04465 0.68499 0.0
C488 C 0.02257 0.06258 0.68464 0.0
C489 C 0.99657 0.01884 0.66574 0.0
O490 O 0.02308 0.01964 0.78776 0.0
O491 O 0.05171 0.00928 0.80792 0.0
O492 O 0.05803 0.98074 0.72606 0.0
O493 O 0.04355 0.00446 0.6952 0.0
O494 O 0.05405 0.98033 0.8771 0.0
O495 O 0.06039 0.95988 0.81209 0.0
O496 O 0.02384 0.96034 0.7643 0.0
O497 O 0.01647 0.97173 0.6869 0.0
O498 O 0.99634 0.98751 0.77492 0.0
O499 O 0.0169 0.98859 0.84447 0.0
C500 C 0.03988 0.02258 0.80752 0.0
O501 O 1.00882 0.0071 0.64571 0.0
O502 O 0.99175 0.01606 0.71378 0.0
C503 C 0.05737 0.99298 0.69316 0.0
C504 C 0.0515 0.94999 0.89228 0.0
C505 C 0.03069 0.92053 0.91946 0.0
C506 C 0.04949 0.91837 0.90425 0.0
C507 C 0.0598 0.93302 0.8903 0.0
C508 C 0.03313 0.95227 0.91132 0.0
C509 C 0.02283 0.9377 0.92459 0.0
C510 C 0.05998 0.96398 0.86374 0.0
C511 C 0.0183 0.95803 0.71432 0.0
H512 H 0.98549 0.07525 0.61351 0.0
H513 H 0.97674 0.04361 0.61694 0.0
H514 H 0.0271 0.03628 0.70482 0.0
H515 H 0.03521 0.06756 0.70501 0.0
H516 H 0.05581 0.9052 0.90012 0.0
H517 H 0.07382 0.93088 0.87489 0.0
H518 H 0.02626 0.96511 0.91286 0.0
H519 H 1.00844 0.93973 0.93698 0.0
Tb520 Tb 0.51253 0.97948 0.70125 0.0
Tb521 Tb 0.5294 0.01293 0.7818 0.0
C522 C 0.53083 0.97364 0.80926 0.0
C523 C 0.47513 0.9546 0.63453 0.0
C524 C 0.4387 0.96812 0.63264 0.0
C525 C 0.44505 0.9606 0.67743 0.0
C526 C 0.46309 0.95378 0.6783 0.0
C527 C 0.46779 0.9597 0.5871 0.0
C528 C 0.44969 0.96646 0.58618 0.0
C529 C 0.49557 0.95518 0.64289 0.0
O530 O 0.49126 0.98526 0.76263 0.0
O531 O 0.49948 0.01385 0.79836 0.0
O532 O 0.52694 0.02114 0.70278 0.0
O533 O 0.50145 0.0043 0.67702 0.0
O534 O 0.54818 0.02319 0.84183 0.0
O535 O 0.52875 0.04058 0.80788 0.0
O536 O 0.55375 0.00121 0.73877 0.0
O537 O 0.53997 0.98391 0.66739 0.0
O538 O 0.53062 0.96827 0.75774 0.0
O539 O 0.52681 0.9903 0.82768 0.0
C540 C 0.48746 1.00043 0.79236 0.0
O541 O 0.50413 0.96849 0.62426 0.0
O542 O 0.50128 0.95336 0.69099 0.0
C543 C 0.51203 0.01838 0.67305 0.0
C544 C 0.55977 0.05065 0.8216 0.0
C545 C 0.5948 0.06249 0.789 0.0
C546 C 0.58029 0.05889 0.75175 0.0
C547 C 0.56297 0.05289 0.76786 0.0
C548 C 0.57357 0.05588 0.85959 0.0
C549 C 0.59094 0.06176 0.84349 0.0
C550 C 0.54392 0.03972 0.83604 0.0
C551 C 0.55475 0.99178 0.69126 0.0
H552 H 0.43663 0.96138 0.7133 0.0
H553 H 0.46814 0.94959 0.71526 0.0
H554 H 0.47667 0.96034 0.55264 0.0
H555 H 0.44509 0.9721 0.55094 0.0
H556 H 0.5827 0.05952 0.70967 0.0
H557 H 0.55255 0.04882 0.73766 0.0
H558 H 0.57143 0.05407 0.90109 0.0
H559 H 0.6018 0.06416 0.87337 0.0
Tb560 Tb 0.5119 0.49004 0.78952 0.0
Tb561 Tb 0.54089 0.5032 0.70029 0.0
C562 C 0.49894 0.49576 0.67363 0.0
C563 C 0.49152 0.45962 0.87952 0.0
C564 C 0.49121 0.42592 0.91921 0.0
C565 C 0.47604 0.43776 0.92831 0.0
C566 C 0.47619 0.45441 0.90854 0.0
C567 C 0.50684 0.44803 0.87106 0.0
C568 C 0.50669 0.43135 0.89063 0.0
C569 C 0.49067 0.47628 0.85402 0.0
O570 O 0.53122 0.4685 0.76746 0.0
O571 O 0.53878 0.474 0.68269 0.0
O572 O 0.55833 0.49536 0.76414 0.0
O573 O 0.5371 0.50034 0.83243 0.0
O574 O 0.56502 0.5178 0.68538 0.0
O575 O 0.54814 0.50532 0.62047 0.0
O576 O 0.53238 0.52629 0.75454 0.0
O577 O 0.50367 0.51749 0.78208 0.0
O578 O 0.49859 0.48496 0.71091 0.0
O579 O 0.51286 0.50703 0.6708 0.0
C580 C 0.53714 0.46301 0.71923 0.0
O581 O 0.50304 0.4887 0.86873 0.0
O582 O 0.48883 0.47381 0.80242 0.0
C583 C 0.55447 0.49838 0.81544 0.0
C584 C 0.56114 0.53386 0.61209 0.0
C585 C 0.56098 0.56761 0.57287 0.0
C586 C 0.57607 0.55575 0.56231 0.0
C587 C 0.57613 0.53906 0.58174 0.0
C588 C 0.54604 0.5456 0.62285 0.0
C589 C 0.54593 0.56229 0.6033 0.0
C590 C 0.5617 0.5166 0.63437 0.0
C591 C 0.51546 0.53012 0.77194 0.0
H592 H 0.46377 0.43397 0.94945 0.0
H593 H 0.46413 0.46304 0.91489 0.0
H594 H 0.51879 0.45175 0.84852 0.0
H595 H 0.51871 0.42272 0.88337 0.0
H596 H 0.58777 0.55929 0.53845 0.0
H597 H 0.58794 0.53023 0.57323 0.0
H598 H 0.5344 0.54192 0.64676 0.0
H599 H 0.53419 0.57114 0.61269 0.0
Tb600 Tb 0.0389 0.51462 0.68838 0.0
Tb601 Tb 0.02567 0.48211 0.75497 0.0
C602 C 0.02321 0.52219 0.80392 0.0
C603 C 0.06343 0.55459 0.64852 0.0
C604 C 0.0915 0.58117 0.66045 0.0
C605 C 0.07762 0.58136 0.62109 0.0
C606 C 0.06372 0.56817 0.6152 0.0
C607 C 0.07674 0.55469 0.6893 0.0
C608 C 0.09071 0.56787 0.69517 0.0
C609 C 0.04951 0.54017 0.6393 0.0
O610 O 0.06466 0.50537 0.72336 0.0
O611 O 0.05228 0.49088 0.79065 0.0
O612 O 0.04379 0.47164 0.68918 0.0
O613 O 0.03508 0.49078 0.63116 0.0
O614 O 0.01722 0.472 0.82537 0.0
O615 O 0.02165 0.45436 0.75258 0.0
O616 O 1.00218 0.48517 0.70198 0.0
O617 O 1.00861 0.51321 0.67809 0.0
O618 O 0.03667 0.52572 0.77156 0.0
O619 O 0.01401 0.50687 0.79616 0.0
C620 C 0.0665 0.49819 0.76827 0.0
O621 O 0.05609 0.52391 0.63029 0.0
O622 O 0.03552 0.5412 0.67249 0.0
C623 C 0.04111 0.475 0.64003 0.0
C624 C 0.99837 0.44605 0.80944 0.0
C625 C 0.96532 0.42638 0.82007 0.0
C626 C 0.98252 0.42006 0.8368 0.0
C627 C 0.99891 0.42983 0.83144 0.0
C628 C 0.9813 0.45244 0.79257 0.0
C629 C 0.96489 0.44269 0.79789 0.0
C630 C 0.01582 0.45562 0.80166 0.0
C631 C 0.99724 0.49944 0.67995 0.0
H632 H 0.07799 0.59121 0.59313 0.0
H633 H 0.05348 0.56828 0.58364 0.0
H634 H 0.07658 0.54434 0.7157 0.0
H635 H 0.10113 0.56744 0.72606 0.0
H636 H 0.98333 0.40747 0.85353 0.0
H637 H 0.01204 0.42464 0.84406 0.0
H638 H 0.98071 0.46493 0.77521 0.0
H639 H 0.95183 0.44806 0.78539 0.0
H640 H 0.19842 0.98176 0.36147 0.0
H641 H 0.17159 0.9752 0.417 0.0
H642 H 0.14857 0.02712 0.39987 0.0
H643 H 0.17527 0.03365 0.3448 0.0
H644 H 0.16312 0.99666 0.51514 0.0
H645 H 0.10274 0.99372 0.37708 0.0
H646 H 0.12652 0.99098 0.35385 0.0
H647 H 0.11755 0.01302 0.375 0.0
C648 C 0.18727 0.99146 0.36799 0.0
C649 C 0.1888 0.00811 0.3482 0.0
C650 C 0.17204 0.98779 0.40016 0.0
C651 C 0.15793 1.00061 0.41241 0.0
C652 C 0.15903 0.01687 0.39036 0.0
H653 H 0.06298 0.01857 0.62561 0.0
H654 H 0.08749 0.01964 0.55851 0.0
C655 C 0.1743 0.02059 0.35878 0.0
C656 C 0.14308 0.99789 0.45227 0.0
H657 H 0.09578 0.99702 0.47012 0.0
C658 C 0.14839 0.9965 0.50517 0.0
C659 C 0.12385 0.99791 0.43952 0.0
C660 C 0.11727 0.99883 0.38319 0.0
C661 C 0.13506 0.99571 0.54587 0.0
C662 C 0.11578 0.99584 0.53325 0.0
C663 C 0.11049 0.99696 0.48008 0.0
C664 C 0.1009 0.99511 0.57463 0.0
C665 C 0.14183 0.99551 0.60241 0.0
C666 C 0.10005 0.9809 0.60606 0.0
C667 C 0.08612 0.98035 0.64492 0.0
C668 C 0.07251 0.99386 0.65289 0.0
C669 C 0.07324 0.00796 0.62087 0.0
C670 C 0.08725 0.00856 0.58227 0.0
H671 H 0.15635 1.00069 0.60767 0.0
H672 H 0.13269 0.00369 0.63131 0.0
H673 H 0.14168 0.98149 0.61217 0.0
H674 H 0.11005 0.97009 0.60021 0.0
H675 H 0.08591 0.96916 0.66825 0.0
H676 H 0.46454 0.13725 0.35518 0.0
H677 H 0.46568 0.10897 0.3954 0.0
H678 H 0.51756 0.12587 0.47273 0.0
H679 H 0.51648 0.15394 0.43299 0.0
H680 H 0.49601 0.08054 0.40104 0.0
H681 H 0.47817 0.12012 0.59452 0.0
H682 H 0.47428 0.12833 0.53113 0.0
H683 H 0.49727 0.12909 0.55976 0.0
C684 C 0.47643 0.13465 0.37951 0.0
C685 C 0.49035 0.14783 0.39132 0.0
C686 C 0.47702 0.11856 0.40266 0.0
C687 C 0.49155 0.11548 0.43775 0.0
C688 C 0.5061 0.12808 0.44634 0.0
H689 H 0.53118 0.04879 0.65785 0.0
H690 H 0.52387 0.0707 0.59758 0.0
C691 C 0.50549 0.14408 0.42351 0.0
C692 C 0.49099 0.10003 0.46932 0.0
H693 H 0.48944 0.09051 0.59814 0.0
C694 C 0.49426 0.0826 0.44402 0.0
C695 C 0.48858 0.10277 0.52535 0.0
C696 C 0.48421 0.12105 0.5544 0.0
C697 C 0.49624 0.06802 0.47384 0.0
C698 C 0.49475 0.07098 0.53015 0.0
C699 C 0.49065 0.08827 0.55501 0.0
C700 C 0.49915 0.05687 0.56468 0.0
C701 C 0.50084 0.04973 0.44538 0.0
C702 C 0.48762 0.04173 0.56641 0.0
C703 C 0.49174 0.02907 0.60133 0.0
C704 C 0.50745 0.03138 0.63505 0.0
C705 C 0.51896 0.04652 0.63268 0.0
C706 C 0.51481 0.05911 0.59812 0.0
H707 H 0.50375 0.05011 0.4023 0.0
H708 H 0.51317 0.04414 0.4641 0.0
H709 H 0.4889 0.04048 0.44902 0.0
H710 H 0.4753 0.03986 0.54145 0.0
H711 H 0.48257 0.01759 0.60217 0.0
H712 H 0.34366 0.49065 0.40979 0.0
H713 H 0.37189 0.48399 0.45891 0.0
H714 H 0.40431 0.51749 0.36614 0.0
H715 H 0.37608 0.52425 0.31748 0.0
H716 H 0.40937 0.47078 0.43229 0.0
H717 H 0.40873 0.54217 0.52164 0.0
H718 H 0.38914 0.53165 0.48505 0.0
H719 H 0.40913 0.53875 0.44996 0.0
C720 C 0.35698 0.49593 0.3984 0.0
C721 C 0.35778 0.50767 0.35911 0.0
C722 C 0.37307 0.49228 0.42683 0.0
C723 C 0.3902 0.50048 0.41693 0.0
C724 C 0.39124 0.51117 0.37501 0.0
H725 H 0.49565 0.51524 0.58901 0.0
H726 H 0.46982 0.51522 0.52582 0.0
C727 C 0.37516 0.51482 0.34663 0.0
C728 C 0.40643 0.49926 0.45345 0.0
H729 H 0.43402 0.52467 0.54449 0.0
C730 C 0.41477 0.48255 0.45686 0.0
C731 C 0.41345 0.5146 0.48584 0.0
C732 C 0.40459 0.5328 0.486 0.0
C733 C 0.43016 0.48084 0.49072 0.0
C734 C 0.43719 0.49621 0.52308 0.0
C735 C 0.42876 0.51289 0.51971 0.0
C736 C 0.45328 0.49543 0.56061 0.0
C737 C 0.43903 0.46266 0.49048 0.0
C738 C 0.45268 0.48441 0.60182 0.0
C739 C 0.46753 0.48434 0.63811 0.0
C740 C 0.48329 0.49543 0.63443 0.0
C741 C 0.48381 0.50649 0.59321 0.0
C742 C 0.469 0.5065 0.55691 0.0
H743 H 0.43566 0.45366 0.4534 0.0
H744 H 0.45444 0.46385 0.49433 0.0
H745 H 0.43363 0.45625 0.52478 0.0
H746 H 0.44056 0.47608 0.60661 0.0
H747 H 0.46653 0.47575 0.66947 0.0
H748 H 0.10002 0.34791 0.30945 0.0
H749 H 0.09068 0.37717 0.3542 0.0
H750 H 0.0328 0.36185 0.33314 0.0
H751 H 0.04224 0.33216 0.28983 0.0
H752 H 0.06975 0.40598 0.34144 0.0
H753 H 0.03754 0.36783 0.49358 0.0
H754 H 0.05132 0.35712 0.43919 0.0
H755 H 0.02755 0.36332 0.42811 0.0
C756 C 0.08529 0.35104 0.31255 0.0
C757 C 0.07186 0.33773 0.29654 0.0
C758 C 0.07995 0.36775 0.33844 0.0
C759 C 0.06104 0.37154 0.34875 0.0
C760 C 0.0475 0.35905 0.32706 0.0
H761 H 0.03067 0.47477 0.53543 0.0
H762 H 0.03437 0.45049 0.4622 0.0
C763 C 0.05288 0.3422 0.3014 0.0
C764 C 0.05598 0.38746 0.38736 0.0
H765 H 0.03715 0.3992 0.51113 0.0
C766 C 0.06245 0.40454 0.37832 0.0
C767 C 0.0468 0.38555 0.43614 0.0
C768 C 0.04054 0.36748 0.45028 0.0
C769 C 0.0603 0.41964 0.41687 0.0
C770 C 0.05103 0.41771 0.46545 0.0
C771 C 0.04421 0.40071 0.47392 0.0
C772 C 0.04905 0.43283 0.50937 0.0
C773 C 0.06876 0.43729 0.4061 0.0
C774 C 0.05565 0.43094 0.56082 0.0
C775 C 0.05329 0.44469 0.60299 0.0
C776 C 0.04433 0.46073 0.59471 0.0
C777 C 0.03783 0.46269 0.54311 0.0
C778 C 0.04003 0.44883 0.50102 0.0
H779 H 0.07955 0.43543 0.37432 0.0
H780 H 0.05765 0.44592 0.39254 0.0
H781 H 0.07521 0.44446 0.44272 0.0
H782 H 0.06262 0.41874 0.56845 0.0
H783 H 0.05844 0.4427 0.64215 0.0
H784 H 0.85311 0.97007 0.12379 0.0
H785 H 0.88078 0.96454 0.06692 0.0
H786 H 0.90466 0.0148 0.13716 0.0
H787 H 0.87702 0.02039 0.19349 0.0
H788 H 0.90222 0.01249 0.0283 0.0
H789 H 0.93538 0.951 0.08544 0.0
H790 H 0.91082 0.94886 0.07156 0.0
H791 H 0.9188 0.96397 0.12783 0.0
C792 C 0.86462 0.97955 0.12867 0.0
C793 C 0.86292 0.99562 0.16333 0.0
C794 C 0.88042 0.97643 0.09588 0.0
C795 C 0.89488 0.98926 0.09755 0.0
C796 C 0.89372 0.00471 0.1349 0.0
H797 H 1.00164 0.98744 0.9346 0.0
H798 H 0.97598 0.98683 0.99801 0.0
C799 C 0.87796 0.00784 0.16741 0.0
C800 C 0.91012 0.98772 0.05679 0.0
H801 H 0.94667 0.96175 0.0066 0.0
C802 C 0.91194 0.00139 0.02367 0.0
C803 C 0.92287 0.97328 0.05063 0.0
C804 C 0.92204 0.9585 0.086 0.0
C805 C 0.92606 1.00105 0.98484 0.0
C806 C 0.93866 0.98649 0.97811 0.0
C807 C 0.93692 0.97283 0.01132 0.0
C808 C 0.9542 0.98571 0.93845 0.0
C809 C 0.92765 0.01654 0.95219 0.0
C810 C 0.95059 0.98496 0.88345 0.0
C811 C 0.9653 0.98525 0.8468 0.0
C812 C 0.98398 0.98626 0.86432 0.0
C813 C 0.9875 0.98661 0.91937 0.0
C814 C 0.97281 0.98625 0.95587 0.0
H815 H 0.91975 0.02845 0.97033 0.0
H816 H 0.94247 0.02051 0.94781 0.0
H817 H 0.92189 0.0124 0.91172 0.0
H818 H 0.93637 0.98427 0.86885 0.0
H819 H 0.96202 0.98487 0.8048 0.0
H820 H 0.5711 0.85034 0.1166 0.0
H821 H 0.57103 0.87984 0.08369 0.0
H822 H 0.51565 0.86917 0.02022 0.0
H823 H 0.51547 0.84017 0.0542 0.0
H824 H 0.56923 0.88512 0.98055 0.0
H825 H 0.51 0.92027 0.08538 0.0
H826 H 0.52013 0.90043 0.10711 0.0
H827 H 0.50292 0.8985 0.05462 0.0
C828 C 0.5587 0.85458 0.09718 0.0
C829 C 0.54331 0.84293 0.0879 0.0
C830 C 0.55872 0.87137 0.07801 0.0
C831 C 0.54326 0.87686 0.04985 0.0
C832 C 0.52759 0.86551 0.04276 0.0
H833 H 0.5362 0.93745 0.78622 0.0
H834 H 0.54114 0.91555 0.84858 0.0
C835 C 0.52757 0.84882 0.06182 0.0
C836 C 0.54402 0.89343 0.02287 0.0
H837 H 0.51846 0.93005 1.00047 0.0
C838 C 0.55831 0.89512 0.98565 0.0
C839 C 0.52997 0.90669 0.02989 0.0
C840 C 0.51502 0.90648 0.07188 0.0
C841 C 0.55832 0.90908 0.95326 0.0
C842 C 0.54341 0.92147 0.95722 0.0
C843 C 0.52973 0.9204 0.99662 0.0
C844 C 0.54121 0.93505 0.91929 0.0
C845 C 0.57426 0.9103 0.91483 0.0
C846 C 0.53912 0.95333 0.93811 0.0
C847 C 0.53606 0.96592 0.90243 0.0
C848 C 0.53495 0.96049 0.84712 0.0
C849 C 0.53714 0.94218 0.82843 0.0
C850 C 0.54011 0.92961 0.86411 0.0
H851 H 0.58713 0.90419 0.92904 0.0
H852 H 0.57051 0.9028 0.87559 0.0
H853 H 0.57736 0.92445 0.90906 0.0
H854 H 0.53977 0.95786 0.98051 0.0
H855 H 0.53439 0.9799 0.91829 0.0
H856 H 0.71089 0.495 0.05416 0.0
H857 H 0.68258 0.49919 1.00335 0.0
H858 H 0.65006 0.50186 0.14775 0.0
H859 H 0.67863 0.49774 0.19911 0.0
H860 H 0.65307 0.4744 0.99788 0.0
H861 H 0.62838 0.54306 0.07182 0.0
H862 H 0.65209 0.53601 0.08119 0.0
H863 H 0.63368 0.52868 0.12175 0.0
C864 C 0.69777 0.49694 0.07535 0.0
C865 C 0.69699 0.49607 0.13067 0.0
C866 C 0.68157 0.49927 0.0462 0.0
C867 C 0.66412 0.50085 0.07151 0.0
C868 C 0.66336 0.50093 0.12731 0.0
H869 H 0.55245 0.50231 0.92532 0.0
H870 H 0.57827 0.50284 0.9893 0.0
C871 C 0.67969 0.49862 0.15671 0.0
C872 C 0.64684 0.50063 0.03827 0.0
H873 H 0.60924 0.52559 0.0089 0.0
C874 C 0.64349 0.48561 1.0004 0.0
C875 C 0.63418 0.51513 0.04181 0.0
C876 C 0.63723 0.53173 0.08101 0.0
C877 C 0.62805 0.48474 0.9658 0.0
C878 C 0.6157 0.49948 0.96801 0.0
C879 C 0.61873 0.51433 0.00685 0.0
C880 C 0.59994 0.49981 0.92928 0.0
C881 C 0.62501 0.46789 0.9275 0.0
C882 C 0.60345 0.49827 0.87414 0.0
C883 C 0.58874 0.49789 0.83746 0.0
C884 C 0.57008 0.49921 0.85491 0.0
C885 C 0.5666 0.50119 0.91027 0.0
C886 C 0.58137 0.50154 0.94701 0.0
H887 H 0.63206 0.45616 0.94141 0.0
H888 H 0.60992 0.46473 0.92219 0.0
H889 H 0.63096 0.46985 0.88804 0.0
H890 H 0.61764 0.49733 0.85934 0.0
H891 H 0.59204 0.49653 0.7953 0.0
H892 H 0.95778 0.6395 0.17525 0.0
H893 H 0.96764 0.61143 0.12349 0.0
H894 H 0.01861 0.63709 0.0812 0.0
H895 H 1.00891 0.66509 0.13418 0.0
H896 H 0.97208 0.60829 0.01803 0.0
H897 H 0.0381 0.5888 0.10842 0.0
H898 H 0.02251 0.60518 0.14259 0.0
H899 H 0.03852 0.61152 0.09315 0.0
C900 C 0.97137 0.63895 0.15632 0.0
C901 C 0.98263 0.65442 0.15885 0.0
C902 C 0.97696 0.62293 0.12653 0.0
C903 C 0.99391 0.62204 0.09844 0.0
C904 C 1.00566 0.63725 0.10332 0.0
H905 H 0.04124 0.55396 0.83437 0.0
H906 H 0.03373 0.57684 0.90826 0.0
C907 C 1.00013 0.65327 0.13363 0.0
C908 C 0.99811 0.60602 0.0593 0.0
H909 H 0.0314 0.57473 0.01992 0.0
C910 C 0.98495 0.60081 0.01896 0.0
C911 C 0.01493 0.59628 0.06018 0.0
C912 C 0.02925 0.60061 0.10372 0.0
C913 C 0.98836 0.58653 0.97874 0.0
C914 C 1.00531 0.577 0.97907 0.0
C915 C 0.01839 0.58202 0.01975 0.0
C916 C 1.01013 0.56246 0.93579 0.0
C917 C 0.97408 0.5822 0.93505 0.0
C918 C 0.99948 0.54658 0.92695 0.0
C919 C 1.00372 0.53337 0.88444 0.0
C920 C 0.01871 0.53581 0.85001 0.0
C921 C 0.02952 0.55161 0.85975 0.0
C922 C 0.02531 0.56473 0.90221 0.0
H923 H 0.96366 0.59308 0.93444 0.0
H924 H 0.98094 0.57992 0.89537 0.0
H925 H 0.96651 0.56972 0.94156 0.0
H926 H 0.98784 0.54443 0.95284 0.0
H927 H 0.99517 0.52135 0.87835 0.0
H928 H 0.10573 0.18153 0.49311 0.0
H929 H 0.08859 0.16619 0.55816 0.0
H930 H 0.04797 0.20863 0.57526 0.0
H931 H 0.06467 0.22381 0.50927 0.0
H932 H 0.07224 0.17531 0.6666 0.0
H933 H 0.02035 0.16304 0.50094 0.0
H934 H 0.04353 0.17132 0.48996 0.0
H935 H 0.02657 0.18587 0.52472 0.0
C936 C 0.09342 0.18782 0.51172 0.0
C937 C 0.08638 0.20369 0.49534 0.0
C938 C 0.08371 0.17912 0.54911 0.0
C939 C 0.06688 0.18618 0.57061 0.0
C940 C 0.06086 0.20294 0.55864 0.0
H941 H 0.98961 0.10444 0.66635 0.0
H942 H 1.00021 0.13524 0.6593 0.0
C943 C 0.07054 0.21165 0.52117 0.0
C944 C 0.05438 0.17452 0.59778 0.0
H945 H 0.01771 0.14567 0.57098 0.0
C946 C 0.06003 0.16913 0.64647 0.0
C947 C 0.03835 0.16663 0.57156 0.0
C948 C 0.03178 0.17188 0.51879 0.0
C949 C 0.05075 0.15515 0.66789 0.0
C950 C 0.03584 0.14614 0.63906 0.0
C951 C 0.02919 0.15259 0.59285 0.0
C952 C 0.02936 0.12821 0.64995 0.0
C953 C 0.0575 0.14962 0.71996 0.0
C954 C 0.04218 0.1141 0.64593 0.0
C955 C 0.03618 0.0966 0.64877 0.0
C956 C 0.01718 0.09275 0.65595 0.0
C957 C 1.00431 0.10693 0.66037 0.0
C958 C 1.01035 0.12454 0.65706 0.0
H959 H 0.0637 0.1612 0.74577 0.0
H960 H 0.04596 0.14387 0.74198 0.0
H961 H 0.06852 0.13933 0.71173 0.0
H962 H 0.05681 0.11652 0.6384 0.0
H963 H 0.04645 0.086 0.64379 0.0
H964 H 0.302 0.05836 0.55992 0.0
H965 H 0.32545 0.04672 0.61482 0.0
H966 H 0.36534 0.08535 0.56912 0.0
H967 H 0.34182 0.09658 0.51136 0.0
H968 H 0.37751 0.05459 0.53977 0.0
H969 H 0.35503 0.05184 0.746 0.0
H970 H 0.33616 0.04328 0.70385 0.0
H971 H 0.34367 0.06632 0.70402 0.0
C972 C 0.31545 0.06506 0.56356 0.0
C973 C 0.32015 0.07825 0.53077 0.0
C974 C 0.32894 0.05839 0.59548 0.0
C975 C 0.34729 0.06508 0.59632 0.0
C976 C 0.35132 0.07989 0.56895 0.0
H977 H 0.43234 0.99522 0.71217 0.0
H978 H 0.41062 0.02012 0.71026 0.0
C979 C 0.33788 0.08633 0.53603 0.0
C980 C 0.3626 0.05389 0.61389 0.0
H981 H 0.37282 0.02524 0.70491 0.0
C982 C 0.37671 0.04861 0.57671 0.0
C983 C 0.36193 0.04611 0.66224 0.0
C984 C 0.34846 0.0524 0.70638 0.0
C985 C 0.38912 0.03487 0.5845 0.0
C986 C 0.38695 0.02565 0.6297 0.0
C987 C 0.37396 0.03187 0.66921 0.0
C988 C 0.39788 0.00934 0.63543 0.0
C989 C 0.40421 0.03014 0.5435 0.0
C990 C 0.39721 0.99462 0.5953 0.0
C991 C 0.40971 0.98046 0.59591 0.0
C992 C 0.42277 0.98064 0.63737 0.0
C993 C 0.4223 0.99464 0.67992 0.0
C994 C 0.40997 0.00893 0.67884 0.0
H995 H 0.40779 0.04177 0.52201 0.0
H996 H 0.4171 0.02563 0.5622 0.0
H997 H 0.39916 0.01912 0.5135 0.0
H998 H 0.38759 0.99449 0.56215 0.0
H999 H 0.40971 0.96977 0.56294 0.0
H1000 H 0.52229 0.29008 0.61573 0.0
H1001 H 0.53584 0.3179 0.66098 0.0
H1002 H 0.4836 0.34498 0.64471 0.0
H1003 H 0.46994 0.31719 0.60052 0.0
H1004 H 0.53927 0.34699 0.60648 0.0
H1005 H 0.50014 0.36609 0.79314 0.0
H1006 H 0.49997 0.34347 0.75911 0.0
H1007 H 0.4847 0.36019 0.73783 0.0
C1008 C 0.51349 0.30178 0.62389 0.0
C1009 C 0.49509 0.30155 0.60452 0.0
C1010 C 0.52128 0.31768 0.64936 0.0
C1011 C 0.51071 0.33347 0.65635 0.0
C1012 C 0.49192 0.33289 0.6406 0.0
H1013 H 0.53225 0.44211 0.62361 0.0
H1014 H 0.53005 0.40929 0.61034 0.0
C1015 C 0.48415 0.31705 0.61503 0.0
C1016 C 0.51985 0.35104 0.67205 0.0
H1017 H 0.5144 0.39048 0.75272 0.0
C1018 C 0.53414 0.3564 0.63921 0.0
C1019 C 0.51328 0.36322 0.71501 0.0
C1020 C 0.49881 0.35788 0.7536 0.0
C1021 C 0.54122 0.37398 0.64617 0.0
C1022 C 0.53356 0.38657 0.68636 0.0
C1023 C 0.52011 0.38089 0.72135 0.0
C1024 C 0.53829 0.40592 0.69112 0.0
C1025 C 0.55659 0.37896 0.60981 0.0
C1026 C 0.54398 0.41488 0.74047 0.0
C1027 C 0.54506 0.43355 0.74814 0.0
C1028 C 0.54047 0.44362 0.70657 0.0
C1029 C 0.53609 0.43465 0.65603 0.0
C1030 C 0.53484 0.4159 0.64848 0.0
H1031 H 0.56504 0.36706 0.5946 0.0
H1032 H 0.55033 0.38433 0.57488 0.0
H1033 H 0.56599 0.38938 0.63056 0.0
H1034 H 0.5467 0.40747 0.77385 0.0
H1035 H 0.54856 0.44016 0.78751 0.0
H1036 H 0.2218 0.63392 0.40416 0.0
H1037 H 0.19928 0.64567 0.47244 0.0
H1038 H 0.21521 0.60447 0.56849 0.0
H1039 H 0.23784 0.59313 0.50167 0.0
H1040 H 0.17118 0.62576 0.48645 0.0
H1041 H 0.20198 0.64228 0.68512 0.0
H1042 H 0.216 0.64109 0.62529 0.0
H1043 H 0.21134 0.62119 0.65688 0.0
C1044 C 0.22097 0.62787 0.4409 0.0
C1045 C 0.23144 0.6125 0.44736 0.0
C1046 C 0.20816 0.63463 0.48 0.0
C1047 C 0.20553 0.62604 0.52591 0.0
C1048 C 0.21724 0.61172 0.53441 0.0
H1049 H 0.12815 0.57286 0.67101 0.0
H1050 H 0.15506 0.59079 0.65087 0.0
C1051 C 0.23017 0.60512 0.49575 0.0
C1052 C 0.1881 0.6288 0.55762 0.0
H1053 H 0.17132 0.62606 0.68293 0.0
C1054 C 0.17114 0.62657 0.52964 0.0
C1055 C 0.18793 0.62994 0.61399 0.0
C1056 C 0.20534 0.63396 0.64686 0.0
C1057 C 0.15444 0.62328 0.55563 0.0
C1058 C 0.15467 0.62247 0.61133 0.0
C1059 C 0.17122 0.62651 0.64014 0.0
C1060 C 0.13896 0.61412 0.63745 0.0
C1061 C 0.13709 0.61893 0.52241 0.0
C1062 C 0.12107 0.62166 0.63935 0.0
C1063 C 0.10557 0.61136 0.65066 0.0
C1064 C 0.1078 0.59346 0.66064 0.0
C1065 C 0.12593 0.58662 0.66377 0.0
C1066 C 0.14136 0.59687 0.65225 0.0
H1067 H 0.13987 0.61827 0.47891 0.0
H1068 H 0.13109 0.60586 0.53045 0.0
H1069 H 0.12646 0.62943 0.53314 0.0
H1070 H 0.11899 0.63506 0.62877 0.0
H1071 H 0.09179 0.6171 0.64897 0.0
H1072 H 0.92508 0.78468 0.01528 0.0
H1073 H 0.93893 0.80653 0.96174 0.0
H1074 H 0.94935 0.84268 0.10515 0.0
H1075 H 0.93587 0.8212 0.15847 0.0
H1076 H 0.93788 0.86025 0.02143 0.0
H1077 H 0.99582 0.81275 0.96255 0.0
H1078 H 0.97261 0.80508 0.9444 0.0
H1079 H 0.97915 0.80892 0.01354 0.0
C1080 C 0.93007 0.79741 0.03525 0.0
C1081 C 0.92942 0.8011 0.09128 0.0
C1082 C 0.93801 0.80984 1.00463 0.0
C1083 C 0.94548 0.82606 0.02966 0.0
C1084 C 0.94367 0.83025 0.08502 0.0
H1085 H 0.0369 0.89446 0.98388 0.0
H1086 H 0.01524 0.87047 1.00205 0.0
C1087 C 0.93577 0.81793 0.11549 0.0
C1088 C 0.95658 0.83824 0.99998 0.0
H1089 H 0.9989 0.84198 0.94002 0.0
C1090 C 0.95108 0.85623 1.00276 0.0
C1091 C 0.97392 0.83294 0.97645 0.0
C1092 C 0.98088 0.81392 0.9742 0.0
C1093 C 0.9628 0.86926 0.98482 0.0
C1094 C 0.9803 0.86402 0.96216 0.0
C1095 C 0.98546 0.8459 0.95731 0.0
C1096 C 0.99399 0.87737 0.94714 0.0
C1097 C 0.95678 0.88866 0.99325 0.0
C1098 C 0.98945 0.88879 0.90914 0.0
C1099 C 1.00165 0.90256 0.89939 0.0
C1100 C 0.01873 0.90494 0.92678 0.0
C1101 C 0.02378 0.89288 0.96248 0.0
C1102 C 0.01144 0.87922 0.97277 0.0
H1103 H 0.94512 0.89084 0.02227 0.0
H1104 H 0.96858 0.89758 0.00789 0.0
H1105 H 0.95193 0.89269 0.95474 0.0
H1106 H 0.97631 0.88728 0.88786 0.0
H1107 H 0.99765 0.91152 0.87085 0.0
H1108 H 0.73051 0.9913 0.91589 0.0
H1109 H 0.71608 0.99972 0.83457 0.0
H1110 H 0.71538 0.05512 0.90527 0.0
H1111 H 0.73077 0.04681 0.98458 0.0
H1112 H 0.68332 0.01044 0.83707 0.0
H1113 H 0.72247 0.06382 0.75635 0.0
H1114 H 0.73309 0.05008 0.80187 0.0
H1115 H 0.72049 0.07017 0.82673 0.0
C1116 C 0.72779 0.00533 0.91296 0.0
C1117 C 0.73155 0.01844 0.9562 0.0
C1118 C 0.71967 0.01016 0.86653 0.0
C1119 C 0.71477 0.02811 0.86323 0.0
C1120 C 0.71953 0.0413 0.90563 0.0
H1121 H 0.62341 0.08333 0.8356 0.0
H1122 H 0.65632 0.07544 0.82805 0.0
C1123 C 0.72808 0.03652 0.95141 0.0
C1124 C 0.70119 0.0325 0.82243 0.0
H1125 H 0.68765 0.06719 0.75577 0.0
C1126 C 0.68458 0.02246 0.81743 0.0
C1127 C 0.70278 0.0481 0.79631 0.0
C1128 C 0.72081 0.05848 0.79524 0.0
C1129 C 0.66882 0.02867 0.7929 0.0
C1130 C 0.66979 0.04536 0.77216 0.0
C1131 C 0.68691 0.05451 0.77218 0.0
C1132 C 0.65245 0.0548 0.76115 0.0
C1133 C 0.65078 0.01818 0.79448 0.0
C1134 C 0.63974 0.04696 0.72293 0.0
C1135 C 0.6208 0.05108 0.72811 0.0
C1136 C 0.6145 0.06335 0.77105 0.0
C1137 C 0.62777 0.07339 0.80328 0.0
C1138 C 0.64664 0.06905 0.79856 0.0
H1139 H 0.65211 0.00651 0.81734 0.0
H1140 H 0.63951 0.02695 0.81295 0.0
H1141 H 0.64644 0.01302 0.75323 0.0
H1142 H 0.6441 0.03614 0.69327 0.0
H1143 H 0.61104 0.04313 0.70221 0.0
H1144 H 0.48848 0.70108 0.86391 0.0
H1145 H 0.47613 0.67293 0.81626 0.0
H1146 H 0.53205 0.65201 0.79988 0.0
H1147 H 0.54433 0.67999 0.84684 0.0
H1148 H 0.50711 0.64037 0.7108 0.0
H1149 H 0.47785 0.63138 0.91097 0.0
H1150 H 0.47102 0.65059 0.87954 0.0
H1151 H 0.49449 0.64899 0.90321 0.0
C1152 C 0.49812 0.6907 0.84815 0.0
C1153 C 0.5173 0.6925 0.8593 0.0
C1154 C 0.49107 0.67463 0.82134 0.0
C1155 C 0.50317 0.66034 0.80546 0.0
C1156 C 0.52248 0.66289 0.81188 0.0
H1157 H 0.53777 0.55896 0.7638 0.0
H1158 H 0.52869 0.58987 0.76187 0.0
C1159 C 0.52949 0.67883 0.83877 0.0
C1160 C 0.49615 0.64185 0.79063 0.0
H1161 H 0.4828 0.60564 0.85125 0.0
C1162 C 0.50118 0.63282 0.74079 0.0
C1163 C 0.48826 0.63207 0.82972 0.0
C1164 C 0.48259 0.64113 0.884 0.0
C1165 C 0.50021 0.61405 0.73088 0.0
C1166 C 0.49441 0.60417 0.77231 0.0
C1167 C 0.48738 0.61328 0.81981 0.0
C1168 C 0.49915 0.58499 0.77153 0.0
C1169 C 0.50657 0.60494 0.67738 0.0
C1170 C 0.48564 0.57204 0.78033 0.0
C1171 C 0.49086 0.55415 0.78219 0.0
C1172 C 0.50967 0.54909 0.77582 0.0
C1173 C 0.52312 0.56229 0.76853 0.0
C1174 C 0.51793 0.57999 0.76663 0.0
H1175 H 0.50335 0.6133 0.64519 0.0
H1176 H 0.52193 0.60317 0.67806 0.0
H1177 H 0.4999 0.59155 0.66759 0.0
H1178 H 0.47111 0.57575 0.78531 0.0
H1179 H 0.48017 0.54427 0.7876 0.0
H1180 H 0.79962 0.39964 0.95337 0.0
H1181 H 0.82363 0.39359 0.88612 0.0
H1182 H 0.85913 0.37251 1.00129 0.0
H1183 H 0.8345 0.37696 0.06761 0.0
H1184 H 0.85262 0.41344 0.90296 0.0
H1185 H 0.87798 0.34392 0.87033 0.0
H1186 H 0.85558 0.34949 0.9006 0.0
H1187 H 0.87655 0.35103 0.94053 0.0
C1188 C 0.81204 0.39274 0.96391 0.0
C1189 C 0.81528 0.38931 0.01675 0.0
C1190 C 0.8259 0.3894 0.92518 0.0
C1191 C 0.84334 0.38283 0.93862 0.0
C1192 C 0.84578 0.37743 0.98947 0.0
H1193 H 0.95501 0.41006 0.90658 0.0
H1194 H 0.92493 0.39627 0.92276 0.0
C1195 C 0.83175 0.38035 0.02789 0.0
C1196 C 0.85989 0.3857 0.90524 0.0
H1197 H 0.90164 0.36744 0.86276 0.0
C1198 C 0.86305 0.40319 0.89265 0.0
C1199 C 0.87363 0.37242 0.89211 0.0
C1200 C 0.87062 0.35314 0.90118 0.0
C1201 C 0.88 0.40809 0.87088 0.0
C1202 C 0.89415 0.39511 0.86093 0.0
C1203 C 0.89073 0.37737 0.87069 0.0
C1204 C 0.91317 0.40042 0.84638 0.0
C1205 C 0.88309 0.42744 0.8621 0.0
C1206 C 0.91661 0.40688 0.79747 0.0
C1207 C 0.93379 0.41483 0.78811 0.0
C1208 C 0.94779 0.41636 0.82749 0.0
C1209 C 0.94458 0.40898 0.87529 0.0
C1210 C 0.92742 0.40107 0.88459 0.0
H1211 H 0.87162 0.4363 0.8789 0.0
H1212 H 0.89644 0.43258 0.88057 0.0
H1213 H 0.88395 0.42838 0.81864 0.0
H1214 H 0.90578 0.40637 0.76739 0.0
H1215 H 0.93598 0.42008 0.75049 0.0
H1216 H 0.04573 0.18891 0.01022 0.0
H1217 H 0.04067 0.15976 0.95567 0.0
H1218 H 0.09819 0.14605 0.97829 0.0
H1219 H 0.10326 0.17497 0.03257 0.0
H1220 H 0.0605 0.1394 0.861 0.0
H1221 H 0.06616 0.10841 0.04943 0.0
H1222 H 0.06217 0.13211 0.04871 0.0
H1223 H 0.08509 0.12303 0.03615 0.0
C1224 C 0.0574 0.1799 1.00206 0.0
C1225 C 0.07486 0.18416 0.02592 0.0
C1226 C 0.05448 0.16321 0.97118 0.0
C1227 C 0.06898 0.15059 0.96374 0.0
C1228 C 0.08674 0.15545 0.98411 0.0
H1229 H 0.07284 0.03515 0.85547 0.0
H1230 H 0.08074 0.06632 0.89013 0.0
C1231 C 0.08964 0.17201 0.01493 0.0
C1232 C 0.06528 0.13181 0.93935 0.0
H1233 H 0.06349 0.08866 0.96963 0.0
C1234 C 0.0611 0.1283 0.88472 0.0
C1235 C 0.06615 0.11731 0.97025 0.0
C1236 C 0.06999 0.12032 0.02948 0.0
C1237 C 0.05803 0.11063 0.86008 0.0
C1238 C 0.05876 0.09614 0.89117 0.0
C1239 C 0.06302 0.09971 0.94572 0.0
C1240 C 0.05432 0.07729 0.86865 0.0
C1241 C 0.05439 0.10765 0.80075 0.0
C1242 C 0.03678 0.07302 0.84576 0.0
C1243 C 0.03222 0.05529 0.82634 0.0
C1244 C 0.04506 0.0413 0.82933 0.0
C1245 C 0.06263 0.04556 0.85249 0.0
C1246 C 0.06716 0.06337 0.87223 0.0
H1247 H 0.06119 0.11825 0.78037 0.0
H1248 H 0.05957 0.09441 0.78235 0.0
H1249 H 0.03915 0.10824 0.79347 0.0
H1250 H 0.02648 0.0834 0.8435 0.0
H1251 H 0.01852 0.05261 0.80898 0.0
H1252 H 0.3419 0.99294 0.09985 0.0
H1253 H 0.36764 0.98591 0.03624 0.0
H1254 H 0.3601 0.03684 0.97696 0.0
H1255 H 0.33447 0.04383 0.0402 0.0
H1256 H 0.36925 0.0081 0.89537 0.0
H1257 H 0.41789 0.01288 0.06822 0.0
H1258 H 0.39915 0.9969 0.06914 0.0
H1259 H 0.39405 0.02044 0.07453 0.0
C1260 C 0.34532 0.00231 0.07188 0.0
C1261 C 0.33608 0.01886 0.07468 0.0
C1262 C 0.36019 0.99841 0.03603 0.0
C1263 C 0.36607 0.01099 1.00234 0.0
C1264 C 0.35592 0.02693 1.0025 0.0
H1265 H 0.47481 0.02846 0.86387 0.0
H1266 H 0.44508 0.0306 0.91224 0.0
C1267 C 0.34119 0.03088 0.03847 0.0
C1268 C 0.38363 0.00841 0.97032 0.0
H1269 H 0.43114 0.00654 0.98268 0.0
C1270 C 0.38277 0.0076 0.91442 0.0
C1271 C 0.40135 0.00813 0.99513 0.0
C1272 C 0.40331 0.00977 0.05505 0.0
C1273 C 0.39907 0.0064 0.88284 0.0
C1274 C 0.41676 0.00593 0.90771 0.0
C1275 C 0.41761 0.00681 0.96355 0.0
C1276 C 0.43458 0.0048 0.87669 0.0
C1277 C 0.39732 0.00617 0.82321 0.0
C1278 C 0.43871 0.98954 0.84075 0.0
C1279 C 0.45578 0.98821 0.81336 0.0
C1280 C 0.46914 0.00215 0.8209 0.0
C1281 C 0.4649 0.01747 0.85675 0.0
C1282 C 0.44788 0.01872 0.88453 0.0
H1283 H 0.38325 0.01041 0.81139 0.0
H1284 H 0.40794 0.01515 0.8082 0.0
H1285 H 0.3998 0.99235 0.80342 0.0
H1286 H 0.42887 0.97848 0.83455 0.0
H1287 H 0.45855 0.97613 0.78663 0.0
H1288 H 0.502 0.27573 0.13153 0.0
H1289 H 0.50816 0.29772 0.069 0.0
H1290 H 0.45025 0.31306 0.07642 0.0
H1291 H 0.44407 0.29104 0.1382 0.0
H1292 H 0.46675 0.31456 0.97419 0.0
H1293 H 0.50881 0.35033 0.14007 0.0
H1294 H 0.51596 0.32785 0.11646 0.0
H1295 H 0.49383 0.33156 0.14921 0.0
C1296 C 0.49046 0.28323 0.11786 0.0
C1297 C 0.47256 0.28169 0.13963 0.0
C1298 C 0.49403 0.29597 0.08274 0.0
C1299 C 0.47974 0.30734 0.06899 0.0
C1300 C 0.46151 0.30453 0.0866 0.0
H1301 H 0.47784 0.41743 0.01483 0.0
H1302 H 0.47613 0.38792 0.04604 0.0
C1303 C 0.45796 0.29187 0.12171 0.0
C1304 C 0.48394 0.32352 0.04221 0.0
H1305 H 0.50483 0.36486 0.06385 0.0
C1306 C 0.47528 0.32547 0.99335 0.0
C1307 C 0.49482 0.3379 0.06777 0.0
C1308 C 0.5038 0.33698 0.12146 0.0
C1309 C 0.47698 0.34148 0.96979 0.0
C1310 C 0.48773 0.35589 0.99565 0.0
C1311 C 0.49667 0.35379 0.04395 0.0
C1312 C 0.48884 0.37372 0.97551 0.0
C1313 C 0.46661 0.34313 0.91863 0.0
C1314 C 0.49674 0.37567 0.9256 0.0
C1315 C 0.49764 0.39258 0.90742 0.0
C1316 C 0.49071 0.40793 0.93887 0.0
C1317 C 0.48304 0.40591 0.98913 0.0
C1318 C 0.48216 0.38904 0.00723 0.0
H1319 H 0.45596 0.33235 0.90979 0.0
H1320 H 0.45959 0.35634 0.9206 0.0
H1321 H 0.47667 0.34212 0.88499 0.0
H1322 H 0.50228 0.36412 0.90076 0.0
H1323 H 0.50353 0.39357 0.86838 0.0
H1324 H 0.23326 0.51222 0.98756 0.0
H1325 H 0.20668 0.50894 0.92507 0.0
H1326 H 0.17044 0.49744 0.05313 0.0
H1327 H 0.19674 0.50126 0.11543 0.0
H1328 H 0.18065 0.48283 0.89054 0.0
H1329 H 0.14508 0.54043 1.00495 0.0
H1330 H 0.16901 0.53491 0.01737 0.0
H1331 H 0.15024 0.52311 0.04561 0.0
C1332 C 0.21968 0.50861 1.00189 0.0
C1333 C 0.21705 0.50696 0.05626 0.0
C1334 C 0.20446 0.50684 0.9663 0.0
C1335 C 0.18637 0.50343 0.98454 0.0
C1336 C 0.18408 0.5006 0.0382 0.0
H1337 H 0.07432 0.48788 0.86612 0.0
H1338 H 0.10404 0.48935 0.91354 0.0
C1339 C 0.19917 0.50255 0.0737 0.0
C1340 C 0.16973 0.50354 0.94863 0.0
H1341 H 0.1266 0.5224 0.94007 0.0
C1342 C 0.16893 0.49162 0.90109 0.0
C1343 C 0.15442 0.51515 0.96182 0.0
C1344 C 0.15477 0.52925 0.0099 0.0
C1345 C 0.15298 0.49048 0.86792 0.0
C1346 C 0.13744 0.50158 0.88242 0.0
C1347 C 0.13844 0.51379 0.92911 0.0
C1348 C 0.11963 0.50016 0.85141 0.0
C1349 C 0.15254 0.477 0.81848 0.0
C1350 C 0.11837 0.50586 0.80048 0.0
C1351 C 0.10122 0.50517 0.77308 0.0
C1352 C 0.08499 0.49869 0.79598 0.0
C1353 C 0.08644 0.49289 0.84686 0.0
C1354 C 0.10347 0.49373 0.87424 0.0
H1355 H 0.16466 0.46778 0.81637 0.0
H1356 H 0.13948 0.46893 0.81724 0.0
H1357 H 0.15273 0.4842 0.78262 0.0
H1358 H 0.13059 0.5111 0.78228 0.0
H1359 H 0.10068 0.50981 0.73415 0.0
H1360 H 0.96146 0.79938 0.52171 0.0
H1361 H 0.96904 0.8281 0.57439 0.0
H1362 H 0.02239 0.82875 0.49564 0.0
H1363 H 0.015 0.79971 0.44371 0.0
H1364 H 0.02464 0.84276 0.60159 0.0
H1365 H 0.96593 0.87363 0.50367 0.0
H1366 H 0.95874 0.85535 0.53867 0.0
H1367 H 0.97396 0.85121 0.48183 0.0
C1368 C 0.97499 0.80546 0.51663 0.0
C1369 C 0.98763 0.79735 0.47854 0.0
C1370 C 0.97923 0.82195 0.54632 0.0
C1371 C 0.99605 0.83088 0.53784 0.0
C1372 C 1.00926 0.82221 0.50255 0.0
H1373 H 0.01256 0.94654 0.60812 0.0
H1374 H 1.0079 0.91569 0.56597 0.0
C1375 C 1.00509 0.80556 0.47316 0.0
C1376 C 0.99931 0.84963 0.56331 0.0
H1377 H 0.98092 0.89186 0.57474 0.0
C1378 C 0.01511 0.8535 0.59568 0.0
C1379 C 0.98709 0.86378 0.55471 0.0
C1380 C 0.97059 0.86087 0.51741 0.0
C1381 C 0.0188 0.87102 0.62049 0.0
C1382 C 1.00613 0.885 0.6137 0.0
C1383 C 0.99053 0.88116 0.58055 0.0
C1384 C 1.00889 0.90377 0.63979 0.0
C1385 C 0.03648 0.8744 0.65269 0.0
C1386 C 1.01061 0.90749 0.69549 0.0
C1387 C 0.01341 0.92511 0.71966 0.0
C1388 C 0.01424 0.93949 0.68876 0.0
C1389 C 0.01196 0.93582 0.63315 0.0
C1390 C 1.00933 0.91816 0.60897 0.0
H1391 H 0.04711 0.86394 0.64092 0.0
H1392 H 0.0426 0.88773 0.64789 0.0
H1393 H 0.03326 0.87408 0.69555 0.0
H1394 H 1.00975 0.89676 0.72041 0.0
H1395 H 0.01495 0.92742 0.76265 0.0
H1396 H 0.72102 0.9739 0.46778 0.0
H1397 H 0.69437 0.97497 0.5292 0.0
H1398 H 0.6612 1.00024 0.41743 0.0
H1399 H 0.68779 1.00009 0.35763 0.0
H1400 H 0.65541 0.01615 0.51513 0.0
H1401 H 0.64923 0.94255 0.5179 0.0
H1402 H 0.67153 0.95172 0.53946 0.0
H1403 H 0.66419 0.95229 0.47156 0.0
C1404 C 0.70809 0.97977 0.4564 0.0
C1405 C 0.7066 0.98657 0.40696 0.0
C1406 C 0.69274 0.98018 0.49137 0.0
C1407 C 0.6755 0.98731 0.47766 0.0
C1408 C 0.67419 0.99449 0.429 0.0
H1409 H 0.56347 0.97213 0.59531 0.0
H1410 H 0.59314 0.97124 0.54711 0.0
C1411 C 0.68946 0.99418 0.39435 0.0
C1412 C 0.65878 0.9876 0.51354 0.0
H1413 H 0.6287 0.96077 0.57407 0.0
C1414 C 0.64966 0.00403 0.52819 0.0
C1415 C 0.65098 0.97179 0.53014 0.0
C1416 C 0.65935 0.95356 0.51362 0.0
C1417 C 0.63305 0.00506 0.55827 0.0
C1418 C 0.62545 0.9893 0.57565 0.0
C1419 C 0.63458 0.97289 0.56133 0.0
C1420 C 0.60759 0.98948 0.60653 0.0
C1421 C 0.62334 0.02291 0.56923 0.0
C1422 C 0.60579 0.99981 0.65663 0.0
C1423 C 0.58878 1.00037 0.6844 0.0
C1424 C 0.57313 0.99052 0.66291 0.0
C1425 C 0.57512 0.97992 0.61322 0.0
C1426 C 0.59214 0.97936 0.58554 0.0
H1427 H 0.62853 0.0327 0.54295 0.0
H1428 H 0.60803 0.02129 0.5636 0.0
H1429 H 0.62591 0.02865 0.61116 0.0
H1430 H 0.61755 0.00748 0.6743 0.0
H1431 H 0.58788 0.0087 0.7225 0.0
H1432 H 0.54164 0.71345 0.34795 0.0
H1433 H 0.5413 0.69216 0.41465 0.0
H1434 H 0.59388 0.67067 0.35435 0.0
H1435 H 0.5942 0.6918 0.28789 0.0
H1436 H 0.56333 0.64563 0.34917 0.0
H1437 H 0.57152 0.68339 0.55179 0.0
H1438 H 0.55529 0.69218 0.50728 0.0
H1439 H 0.57975 0.69208 0.49224 0.0
C1440 C 0.55351 0.70473 0.35068 0.0
C1441 C 0.568 0.70431 0.31303 0.0
C1442 C 0.55326 0.6925 0.38857 0.0
C1443 C 0.56756 0.67979 0.38943 0.0
C1444 C 0.58272 0.68035 0.35449 0.0
H1445 H 0.59002 0.59145 0.56984 0.0
H1446 H 0.59052 0.6194 0.52884 0.0
C1447 C 0.58296 0.69251 0.31677 0.0
C1448 C 0.56557 0.66433 0.42073 0.0
H1449 H 0.56485 0.65226 0.54707 0.0
C1450 C 0.56363 0.6471 0.39245 0.0
C1451 C 0.56597 0.66626 0.47714 0.0
C1452 C 0.56836 0.68443 0.5092 0.0
C1453 C 0.56213 0.63177 0.41895 0.0
C1454 C 0.56249 0.63366 0.47534 0.0
C1455 C 0.56445 0.65087 0.50382 0.0
C1456 C 0.56155 0.61771 0.50477 0.0
C1457 C 0.56054 0.61356 0.38645 0.0
C1458 C 0.54501 0.60763 0.5056 0.0
C1459 C 0.54468 0.59162 0.5289 0.0
C1460 C 0.56094 0.5853 0.55153 0.0
C1461 C 0.57733 0.59576 0.55201 0.0
C1462 C 0.57761 0.61182 0.52904 0.0
H1463 H 0.56333 0.61414 0.3434 0.0
H1464 H 0.57045 0.604 0.40141 0.0
H1465 H 0.54622 0.60818 0.39047 0.0
H1466 H 0.53245 0.61197 0.48714 0.0
H1467 H 0.53184 0.5839 0.52757 0.0
H1468 H 0.8347 0.46764 0.47052 0.0
H1469 H 0.8616 0.47437 0.52949 0.0
H1470 H 0.87809 0.51689 0.43874 0.0
H1471 H 0.851 0.51016 0.37967 0.0
H1472 H 0.89782 0.47075 0.48606 0.0
H1473 H 0.88802 0.53893 0.59523 0.0
H1474 H 0.86879 0.52554 0.56563 0.0
H1475 H 0.8842 0.53677 0.52431 0.0
C1476 C 0.8436 0.47895 0.46464 0.0
C1477 C 0.84055 0.48859 0.42108 0.0
C1478 C 0.8591 0.48268 0.49804 0.0
C1479 C 0.87193 0.49617 0.48882 0.0
C1480 C 0.86827 0.50662 0.44737 0.0
H1481 H 0.98366 0.52357 0.61599 0.0
H1482 H 0.95342 0.52303 0.57071 0.0
C1483 C 0.8527 0.50286 0.41378 0.0
C1484 C 0.89015 0.49759 0.51806 0.0
H1485 H 0.91749 0.5254 0.60374 0.0
C1486 C 0.90206 0.48268 0.51201 0.0
C1487 C 0.89586 0.51322 0.55135 0.0
C1488 C 0.88354 0.52952 0.56004 0.0
C1489 C 0.91949 0.48297 0.53781 0.0
C1490 C 0.92509 0.49845 0.57218 0.0
C1491 C 0.91324 0.51347 0.57782 0.0
C1492 C 0.9432 0.49926 0.60213 0.0
C1493 C 0.93195 0.4668 0.5266 0.0
C1494 C 0.94755 0.48634 0.63609 0.0
C1495 C 0.96494 0.4865 0.66167 0.0
C1496 C 0.97838 0.49978 0.65474 0.0
C1497 C 0.97374 0.5131 0.62229 0.0
C1498 C 0.95638 0.51283 0.59633 0.0
H1499 H 0.92833 0.4587 0.4881 0.0
H1500 H 0.94686 0.47081 0.52532 0.0
H1501 H 0.93014 0.45807 0.55867 0.0
H1502 H 0.9375 0.47601 0.64264 0.0
H1503 H 0.96785 0.47613 0.68676 0.0
loop_
_geom_bond_atom_site_label_1
_geom_bond_atom_site_label_2
_geom_bond_distance
_geom_bond_site_symmetry_2
_ccdc_geom_bond_type
C0 C1 1.391 . S
C0 C4 1.391 . S
C0 H42 0.948 . S
C1 C0 1.391 . S
C1 C2 1.391 . S
C2 C1 1.391 . S
C2 H58 0.947 . S
C2 C59 1.392 . S
C3 C4 1.391 . S
C3 C7 1.397 . S
C3 C59 1.419 . S
C4 C0 1.391 . S
C4 C3 1.391 . S
C4 C5 1.399 . S
C5 C4 1.399 . S
C5 C8 1.396 . S
C5 C17 1.453 . S
C5 C18 1.684 . S
H6 C30 0.948 . S
C7 C3 1.397 . S
C7 C8 1.394 . S
C7 C26 1.723 . S
C8 C5 1.396 . S
C8 C7 1.394 . S
C8 C38 1.723 . S
H9 C32 0.947 . S
H10 C33 0.948 . S
H11 C39 0.982 . S
H12 C40 0.979 . S
H13 C40 0.980 . S
H14 C40 0.983 . S
H15 C39 0.979 . S
H16 C39 0.977 . S
C17 C5 1.453 . S
C17 H46 0.982 . S
C17 H47 0.979 . S
C17 H48 0.977 . S
C18 C5 1.684 . S
C18 H43 0.979 . S
C18 H44 0.980 . S
C18 H45 0.983 . S
C19 C20 1.391 . S
C19 C24 1.391 . S
C19 H49 0.948 . S
C20 C19 1.391 . S
C20 C21 1.391 . S
C21 C20 1.391 . S
C21 C22 1.392 . S
C21 H50 0.947 . S
C22 C21 1.392 . S
C22 C23 1.419 . S
C22 H51 0.948 . S
C23 C22 1.419 . S
C23 C24 1.391 . S
C23 C27 1.397 . S
C24 C19 1.391 . S
C24 C23 1.391 . S
C24 C25 1.399 . S
C25 C24 1.399 . S
C25 C26 1.396 . S
C25 C28 1.453 . S
C25 C29 1.684 . S
C26 C7 1.723 . S
C26 C25 1.396 . S
C26 C27 1.394 . S
C27 C23 1.397 . S
C27 C26 1.394 . S
C27 C37 1.723 . S
C28 C25 1.453 . S
C28 H52 0.982 . S
C28 H53 0.979 . S
C28 H54 0.977 . S
C29 C25 1.684 . S
C29 H55 0.979 . S
C29 H56 0.980 . S
C29 H57 0.983 . S
C30 H6 0.948 . S
C30 C31 1.391 . S
C30 C35 1.391 . S
C31 C30 1.391 . S
C31 C32 1.391 . S
C32 H9 0.947 . S
C32 C31 1.391 . S
C32 C33 1.392 . S
C33 H10 0.948 . S
C33 C32 1.392 . S
C33 C34 1.419 . S
C34 C33 1.419 . S
C34 C35 1.391 . S
C34 C38 1.397 . S
C35 C30 1.391 . S
C35 C34 1.391 . S
C35 C36 1.399 . S
C36 C35 1.399 . S
C36 C37 1.396 . S
C36 C39 1.453 . S
C36 C40 1.684 . S
C37 C27 1.723 . S
C37 C36 1.396 . S
C37 C38 1.394 . S
C38 C8 1.723 . S
C38 C34 1.397 . S
C38 C37 1.394 . S
C39 H11 0.982 . S
C39 H15 0.979 . S
C39 H16 0.977 . S
C39 C36 1.453 . S
C40 H12 0.979 . S
C40 H13 0.980 . S
C40 H14 0.983 . S
C40 C36 1.684 . S
H41 C59 0.948 . S
H42 C0 0.948 . S
H43 C18 0.979 . S
H44 C18 0.980 . S
H45 C18 0.983 . S
H46 C17 0.982 . S
H47 C17 0.979 . S
H48 C17 0.977 . S
H49 C19 0.948 . S
H50 C21 0.947 . S
H51 C22 0.948 . S
H52 C28 0.982 . S
H53 C28 0.979 . S
H54 C28 0.977 . S
H55 C29 0.979 . S
H56 C29 0.980 . S
H57 C29 0.983 . S
H58 C2 0.947 . S
C59 C2 1.392 . S
C59 C3 1.419 . S
C59 H41 0.948 . S
C60 C61 1.391 . S
C60 C64 1.391 . S
C60 H102 0.948 . S
C61 C60 1.391 . S
C61 C62 1.391 . S
C62 C61 1.391 . S
C62 H118 0.947 . S
C62 C119 1.392 . S
C63 C64 1.391 . S
C63 C67 1.397 . S
C63 C119 1.419 . S
C64 C60 1.391 . S
C64 C63 1.391 . S
C64 C65 1.399 . S
C65 C64 1.399 . S
C65 C68 1.396 . S
C65 C77 1.453 . S
C65 C78 1.684 . S
H66 C90 0.948 . S
C67 C63 1.397 . S
C67 C68 1.394 . S
C67 C86 1.723 . S
C68 C65 1.396 . S
C68 C67 1.394 . S
C68 C98 1.723 . S
H69 C92 0.947 . S
H70 C93 0.948 . S
H71 C99 0.982 . S
H72 C100 0.979 . S
H73 C100 0.980 . S
H74 C100 0.983 . S
H75 C99 0.979 . S
H76 C99 0.977 . S
C77 C65 1.453 . S
C77 H106 0.982 . S
C77 H107 0.979 . S
C77 H108 0.977 . S
C78 C65 1.684 . S
C78 H103 0.979 . S
C78 H104 0.980 . S
C78 H105 0.983 . S
C79 C80 1.391 . S
C79 C84 1.391 . S
C79 H109 0.948 . S
C80 C79 1.391 . S
C80 C81 1.391 . S
C81 C80 1.391 . S
C81 C82 1.392 . S
C81 H110 0.947 . S
C82 C81 1.392 . S
C82 C83 1.419 . S
C82 H111 0.948 . S
C83 C82 1.419 . S
C83 C84 1.391 . S
C83 C87 1.397 . S
C84 C79 1.391 . S
C84 C83 1.391 . S
C84 C85 1.399 . S
C85 C84 1.399 . S
C85 C86 1.396 . S
C85 C88 1.453 . S
C85 C89 1.684 . S
C86 C67 1.723 . S
C86 C85 1.396 . S
C86 C87 1.394 . S
C87 C83 1.397 . S
C87 C86 1.394 . S
C87 C97 1.723 . S
C88 C85 1.453 . S
C88 H112 0.982 . S
C88 H113 0.979 . S
C88 H114 0.977 . S
C89 C85 1.684 . S
C89 H115 0.979 . S
C89 H116 0.980 . S
C89 H117 0.983 . S
C90 H66 0.948 . S
C90 C91 1.391 . S
C90 C95 1.391 . S
C91 C90 1.391 . S
C91 C92 1.391 . S
C92 H69 0.947 . S
C92 C91 1.391 . S
C92 C93 1.392 . S
C93 H70 0.948 . S
C93 C92 1.392 . S
C93 C94 1.419 . S
C94 C93 1.419 . S
C94 C95 1.391 . S
C94 C98 1.397 . S
C95 C90 1.391 . S
C95 C94 1.391 . S
C95 C96 1.399 . S
C96 C95 1.399 . S
C96 C97 1.396 . S
C96 C99 1.453 . S
C96 C100 1.684 . S
C97 C87 1.723 . S
C97 C96 1.396 . S
C97 C98 1.394 . S
C98 C68 1.723 . S
C98 C94 1.397 . S
C98 C97 1.394 . S
C99 H71 0.982 . S
C99 H75 0.979 . S
C99 H76 0.977 . S
C99 C96 1.453 . S
C100 H72 0.979 . S
C100 H73 0.980 . S
C100 H74 0.983 . S
C100 C96 1.684 . S
H101 C119 0.948 . S
H102 C60 0.948 . S
H103 C78 0.979 . S
H104 C78 0.980 . S
H105 C78 0.983 . S
H106 C77 0.982 . S
H107 C77 0.979 . S
H108 C77 0.977 . S
H109 C79 0.948 . S
H110 C81 0.947 . S
H111 C82 0.948 . S
H112 C88 0.982 . S
H113 C88 0.979 . S
H114 C88 0.977 . S
H115 C89 0.979 . S
H116 C89 0.980 . S
H117 C89 0.983 . S
H118 C62 0.947 . S
C119 C62 1.392 . S
C119 C63 1.419 . S
C119 H101 0.948 . S
C120 C121 1.391 . S
C120 C124 1.391 . S
C120 H162 0.948 . S
C121 C120 1.391 . S
C121 C122 1.391 . S
C122 C121 1.391 . S
C122 H178 0.947 . S
C122 C179 1.392 . S
C123 C124 1.406 . S
C123 C127 1.397 1_565 S
C123 C179 1.418 . S
C124 C120 1.391 . S
C124 C123 1.406 . S
C124 C125 1.399 . S
C125 C124 1.399 . S
C125 C128 1.386 1_565 S
C125 C137 1.453 1_565 S
C125 C138 1.684 . S
H126 C150 0.948 . S
C127 C123 1.397 1_545 S
C127 C128 1.401 . S
C127 C146 1.717 . S
C128 C125 1.386 1_545 S
C128 C127 1.401 . S
C128 C158 1.719 . S
H129 C152 0.947 . S
H130 C153 0.948 . S
H131 C159 0.982 . S
H132 C160 0.979 . S
H133 C160 0.980 . S
H134 C160 0.983 . S
H135 C159 0.979 . S
H136 C159 0.977 . S
C137 C125 1.453 1_545 S
C137 H166 0.982 . S
C137 H167 0.979 . S
C137 H168 0.977 . S
C138 C125 1.684 . S
C138 H163 0.979 . S
C138 H164 0.980 . S
C138 H165 0.983 . S
C139 C140 1.391 . S
C139 C144 1.391 . S
C139 H169 0.948 . S
C140 C139 1.391 . S
C140 C141 1.391 . S
C141 C140 1.391 . S
C141 C142 1.392 . S
C141 H170 0.947 . S
C142 C141 1.392 . S
C142 C143 1.426 . S
C142 H171 0.948 . S
C143 C142 1.426 . S
C143 C144 1.392 . S
C143 C147 1.400 1_565 S
C144 C139 1.391 . S
C144 C143 1.392 . S
C144 C145 1.399 . S
C145 C144 1.399 . S
C145 C146 1.395 1_565 S
C145 C148 1.453 1_565 S
C145 C149 1.684 . S
C146 C127 1.717 . S
C146 C145 1.395 1_545 S
C146 C147 1.389 . S
C147 C143 1.400 1_545 S
C147 C146 1.389 . S
C147 C157 1.729 . S
C148 C145 1.453 1_545 S
C148 H172 0.982 . S
C148 H173 0.979 . S
C148 H174 0.977 . S
C149 C145 1.684 . S
C149 H175 0.979 . S
C149 H176 0.980 . S
C149 H177 0.983 . S
C150 H126 0.948 . S
C150 C151 1.391 . S
C150 C155 1.391 . S
C151 C150 1.391 . S
C151 C152 1.391 . S
C152 H129 0.947 . S
C152 C151 1.391 . S
C152 C153 1.392 . S
C153 H130 0.948 . S
C153 C152 1.392 . S
C153 C154 1.432 . S
C154 C153 1.432 . S
C154 C155 1.401 . S
C154 C158 1.387 1_565 S
C155 C150 1.391 . S
C155 C154 1.401 . S
C155 C156 1.399 . S
C156 C155 1.399 . S
C156 C157 1.384 1_565 S
C156 C159 1.453 1_565 S
C156 C160 1.684 . S
C157 C147 1.729 . S
C157 C156 1.384 1_545 S
C157 C158 1.389 . S
C158 C128 1.719 . S
C158 C154 1.387 1_545 S
C158 C157 1.389 . S
C159 H131 0.982 . S
C159 H135 0.979 . S
C159 H136 0.977 . S
C159 C156 1.453 1_545 S
C160 H132 0.979 . S
C160 H133 0.980 . S
C160 H134 0.983 . S
C160 C156 1.684 . S
H161 C179 0.948 . S
H162 C120 0.948 . S
H163 C138 0.979 . S
H164 C138 0.980 . S
H165 C138 0.983 . S
H166 C137 0.982 . S
H167 C137 0.979 . S
H168 C137 0.977 . S
H169 C139 0.948 . S
H170 C141 0.947 . S
H171 C142 0.948 . S
H172 C148 0.982 . S
H173 C148 0.979 . S
H174 C148 0.977 . S
H175 C149 0.979 . S
H176 C149 0.980 . S
H177 C149 0.983 . S
H178 C122 0.947 . S
C179 C122 1.392 . S
C179 C123 1.418 . S
C179 H161 0.948 . S
C180 C181 1.391 . S
C180 C184 1.391 . S
C180 H222 0.948 . S
C181 C180 1.391 . S
C181 C182 1.391 . S
C182 C181 1.391 . S
C182 H238 0.947 . S
C182 C239 1.392 . S
C183 C184 1.391 . S
C183 C187 1.397 . S
C183 C239 1.419 . S
C184 C180 1.391 . S
C184 C183 1.391 . S
C184 C185 1.399 . S
C185 C184 1.399 . S
C185 C188 1.396 . S
C185 C197 1.453 . S
C185 C198 1.684 . S
H186 C210 0.948 . S
C187 C183 1.397 . S
C187 C188 1.394 . S
C187 C206 1.723 1_554 S
C188 C185 1.396 . S
C188 C187 1.394 . S
C188 C218 1.723 1_554 S
H189 C212 0.947 . S
H190 C213 0.948 . S
H191 C219 0.982 . S
H192 C220 0.979 . S
H193 C220 0.980 . S
H194 C220 0.983 . S
H195 C219 0.979 . S
H196 C219 0.977 . S
C197 C185 1.453 . S
C197 H226 0.982 . S
C197 H227 0.979 . S
C197 H228 0.977 . S
C198 C185 1.684 . S
C198 H223 0.979 . S
C198 H224 0.980 . S
C198 H225 0.983 . S
C199 C200 1.391 . S
C199 C204 1.391 . S
C199 H229 0.948 . S
C200 C199 1.391 . S
C200 C201 1.391 . S
C201 C200 1.391 . S
C201 C202 1.392 . S
C201 H230 0.947 . S
C202 C201 1.392 . S
C202 C203 1.419 . S
C202 H231 0.948 . S
C203 C202 1.419 . S
C203 C204 1.391 . S
C203 C207 1.397 . S
C204 C199 1.391 . S
C204 C203 1.391 . S
C204 C205 1.399 . S
C205 C204 1.399 . S
C205 C206 1.396 . S
C205 C208 1.453 . S
C205 C209 1.674 1_556 S
C206 C187 1.723 1_556 S
C206 C205 1.396 . S
C206 C207 1.394 . S
C207 C203 1.397 . S
C207 C206 1.394 . S
C207 C217 1.723 . S
C208 C205 1.453 . S
C208 H232 0.982 . S
C208 H233 0.979 . S
C208 H234 0.977 1_556 S
C209 C205 1.674 1_554 S
C209 H235 0.975 1_554 S
C209 H236 0.999 . S
C209 H237 0.978 1_554 S
C210 H186 0.948 . S
C210 C211 1.391 . S
C210 C215 1.391 . S
C211 C210 1.391 . S
C211 C212 1.391 1_556 S
C212 H189 0.947 . S
C212 C211 1.391 1_554 S
C212 C213 1.392 . S
C213 H190 0.948 . S
C213 C212 1.392 . S
C213 C214 1.419 1_554 S
C214 C213 1.419 1_556 S
C214 C215 1.391 . S
C214 C218 1.397 . S
C215 C210 1.391 . S
C215 C214 1.391 . S
C215 C216 1.399 . S
C216 C215 1.399 . S
C216 C217 1.396 . S
C216 C219 1.453 . S
C216 C220 1.684 . S
C217 C207 1.723 . S
C217 C216 1.396 . S
C217 C218 1.394 . S
C218 C188 1.723 1_556 S
C218 C214 1.397 . S
C218 C217 1.394 . S
C219 H191 0.982 . S
C219 H195 0.979 . S
C219 H196 0.977 . S
C219 C216 1.453 . S
C220 H192 0.979 . S
C220 H193 0.980 . S
C220 H194 0.983 . S
C220 C216 1.684 . S
H221 C239 0.948 . S
H222 C180 0.948 . S
H223 C198 0.979 . S
H224 C198 0.980 . S
H225 C198 0.983 . S
H226 C197 0.982 . S
H227 C197 0.979 . S
H228 C197 0.977 . S
H229 C199 0.948 . S
H230 C201 0.947 . S
H231 C202 0.948 . S
H232 C208 0.982 . S
H233 C208 0.979 . S
H234 C208 0.977 1_554 S
H235 C209 0.975 1_556 S
H236 C209 0.999 . S
H237 C209 0.978 1_556 S
H238 C182 0.947 . S
C239 C182 1.392 . S
C239 C183 1.419 . S
C239 H221 0.948 . S
C240 C241 1.391 . S
C240 C244 1.391 . S
C240 H282 0.948 . S
C241 C240 1.391 . S
C241 C242 1.391 . S
C242 C241 1.391 . S
C242 H298 0.947 . S
C242 C299 1.392 . S
C243 C244 1.391 . S
C243 C247 1.397 . S
C243 C299 1.419 . S
C244 C240 1.391 . S
C244 C243 1.391 . S
C244 C245 1.399 . S
C245 C244 1.399 . S
C245 C248 1.396 . S
C245 C257 1.453 . S
C245 C258 1.684 . S
H246 C270 0.948 1_556 S
C247 C243 1.397 . S
C247 C248 1.394 . S
C247 C266 1.723 . S
C248 C245 1.396 . S
C248 C247 1.394 . S
C248 C278 1.723 . S
H249 C272 0.947 . S
H250 C273 0.948 . S
H251 C279 0.982 . S
H252 C280 0.979 . S
H253 C280 0.980 . S
H254 C280 0.983 . S
H255 C279 0.979 . S
H256 C279 0.977 . S
C257 C245 1.453 . S
C257 H286 0.982 . S
C257 H287 0.979 . S
C257 H288 0.977 . S
C258 C245 1.684 . S
C258 H283 0.979 . S
C258 H284 0.980 . S
C258 H285 0.983 . S
C259 C260 1.391 . S
C259 C264 1.391 . S
C259 H289 0.948 . S
C260 C259 1.391 . S
C260 C261 1.391 . S
C261 C260 1.391 . S
C261 C262 1.392 . S
C261 H290 0.947 . S
C262 C261 1.392 . S
C262 C263 1.419 . S
C262 H291 0.948 . S
C263 C262 1.419 . S
C263 C264 1.391 . S
C263 C267 1.397 . S
C264 C259 1.391 . S
C264 C263 1.391 . S
C264 C265 1.399 . S
C265 C264 1.399 . S
C265 C266 1.396 . S
C265 C268 1.453 . S
C265 C269 1.684 . S
C266 C247 1.723 . S
C266 C265 1.396 . S
C266 C267 1.394 . S
C267 C263 1.397 . S
C267 C266 1.394 . S
C267 C277 1.723 . S
C268 C265 1.453 . S
C268 H292 0.982 . S
C268 H293 0.979 . S
C268 H294 0.977 . S
C269 C265 1.684 . S
C269 H295 0.979 . S
C269 H296 0.980 . S
C269 H297 0.983 . S
C270 H246 0.948 1_554 S
C270 C271 1.391 1_554 S
C270 C275 1.391 . S
C271 C270 1.391 1_556 S
C271 C272 1.391 . S
C272 H249 0.947 . S
C272 C271 1.391 . S
C272 C273 1.392 1_556 S
C273 H250 0.948 . S
C273 C272 1.392 1_554 S
C273 C274 1.419 . S
C274 C273 1.419 . S
C274 C275 1.391 . S
C274 C278 1.397 . S
C275 C270 1.391 . S
C275 C274 1.391 . S
C275 C276 1.399 . S
C276 C275 1.399 . S
C276 C277 1.396 . S
C276 C279 1.453 . S
C276 C280 1.684 . S
C277 C267 1.723 . S
C277 C276 1.396 . S
C277 C278 1.394 . S
C278 C248 1.723 . S
C278 C274 1.397 . S
C278 C277 1.394 . S
C279 H251 0.982 . S
C279 H255 0.979 . S
C279 H256 0.977 . S
C279 C276 1.453 . S
C280 H252 0.979 . S
C280 H253 0.980 . S
C280 H254 0.983 . S
C280 C276 1.684 . S
H281 C299 0.948 . S
H282 C240 0.948 . S
H283 C258 0.979 . S
H284 C258 0.980 . S
H285 C258 0.983 . S
H286 C257 0.982 . S
H287 C257 0.979 . S
H288 C257 0.977 . S
H289 C259 0.948 . S
H290 C261 0.947 . S
H291 C262 0.948 . S
H292 C268 0.982 . S
H293 C268 0.979 . S
H294 C268 0.977 . S
H295 C269 0.979 . S
H296 C269 0.980 . S
H297 C269 0.983 . S
H298 C242 0.947 . S
C299 C242 1.392 . S
C299 C243 1.419 . S
C299 H281 0.948 . S
C300 C301 1.391 . S
C300 C304 1.391 . S
C300 H342 0.948 . S
C301 C300 1.391 . S
C301 C302 1.391 . S
C302 C301 1.391 . S
C302 H358 0.947 . S
C302 C359 1.392 . S
C303 C304 1.391 . S
C303 C307 1.397 . S
C303 C359 1.419 . S
C304 C300 1.391 . S
C304 C303 1.391 . S
C304 C305 1.399 . S
C305 C304 1.399 . S
C305 C308 1.396 . S
C305 C317 1.453 . S
C305 C318 1.684 . S
H306 C330 0.948 . S
C307 C303 1.397 . S
C307 C308 1.394 . S
C307 C326 1.723 . S
C308 C305 1.396 . S
C308 C307 1.394 . S
C308 C338 1.723 . S
H309 C332 0.947 . S
H310 C333 0.948 . S
H311 C339 0.982 . S
H312 C340 0.979 . S
H313 C340 0.980 . S
H314 C340 0.983 . S
H315 C339 0.979 . S
H316 C339 0.977 . S
C317 C305 1.453 . S
C317 H346 0.982 . S
C317 H347 0.979 . S
C317 H348 0.977 . S
C318 C305 1.684 . S
C318 H343 0.979 . S
C318 H344 0.980 . S
C318 H345 0.983 . S
C319 C320 1.400 . S
C319 C324 1.391 . S
C319 H349 0.948 . S
C320 C319 1.400 . S
C320 C321 1.392 . S
C321 C320 1.392 . S
C321 C322 1.392 . S
C321 H350 0.947 1_554 S
C322 C321 1.392 . S
C322 C323 1.419 . S
C322 H351 0.948 . S
C323 C322 1.419 . S
C323 C324 1.391 . S
C323 C327 1.397 . S
C324 C319 1.391 . S
C324 C323 1.391 . S
C324 C325 1.399 . S
C325 C324 1.399 . S
C325 C326 1.396 . S
C325 C328 1.453 . S
C325 C329 1.684 . S
C326 C307 1.723 . S
C326 C325 1.396 . S
C326 C327 1.394 . S
C327 C323 1.397 . S
C327 C326 1.394 . S
C327 C337 1.723 . S
C328 C325 1.453 . S
C328 H352 0.982 . S
C328 H353 0.979 . S
C328 H354 0.977 . S
C329 C325 1.684 . S
C329 H355 0.979 . S
C329 H356 0.980 . S
C329 H357 0.983 . S
C330 H306 0.948 . S
C330 C331 1.391 . S
C330 C335 1.391 . S
C331 C330 1.391 . S
C331 C332 1.391 . S
C332 H309 0.947 . S
C332 C331 1.391 . S
C332 C333 1.392 . S
C333 H310 0.948 . S
C333 C332 1.392 . S
C333 C334 1.419 . S
C334 C333 1.419 . S
C334 C335 1.391 . S
C334 C338 1.397 . S
C335 C330 1.391 . S
C335 C334 1.391 . S
C335 C336 1.399 . S
C336 C335 1.399 . S
C336 C337 1.396 . S
C336 C339 1.453 . S
C336 C340 1.684 . S
C337 C327 1.723 . S
C337 C336 1.396 . S
C337 C338 1.394 . S
C338 C308 1.723 . S
C338 C334 1.397 . S
C338 C337 1.394 . S
C339 H311 0.982 . S
C339 H315 0.979 . S
C339 H316 0.977 . S
C339 C336 1.453 . S
C340 H312 0.979 . S
C340 H313 0.980 . S
C340 H314 0.983 . S
C340 C336 1.684 . S
H341 C359 0.948 . S
H342 C300 0.948 . S
H343 C318 0.979 . S
H344 C318 0.980 . S
H345 C318 0.983 . S
H346 C317 0.982 . S
H347 C317 0.979 . S
H348 C317 0.977 . S
H349 C319 0.948 . S
H350 C321 0.947 1_556 S
H351 C322 0.948 . S
H352 C328 0.982 . S
H353 C328 0.979 . S
H354 C328 0.977 . S
H355 C329 0.979 . S
H356 C329 0.980 . S
H357 C329 0.983 . S
H358 C302 0.947 . S
C359 C302 1.392 . S
C359 C303 1.419 . S
C359 H341 0.948 . S
C360 C361 1.391 . S
C360 C364 1.391 1_556 S
C360 H402 0.948 . S
C361 C360 1.391 . S
C361 C362 1.391 . S
C362 C361 1.391 . S
C362 H418 0.947 . S
C362 C419 1.392 1_556 S
C363 C364 1.406 . S
C363 C367 1.388 1_545 S
C363 C419 1.428 . S
C364 C360 1.391 1_554 S
C364 C363 1.406 . S
C364 C365 1.399 . S
C365 C364 1.399 . S
C365 C368 1.382 1_545 S
C365 C377 1.453 1_545 S
C365 C378 1.684 . S
H366 C390 0.948 . S
C367 C363 1.388 1_565 S
C367 C368 1.394 . S
C367 C386 1.715 . S
C368 C365 1.382 1_565 S
C368 C367 1.394 . S
C368 C398 1.728 . S
H369 C392 0.947 . S
H370 C393 0.948 . S
H371 C399 0.982 . S
H372 C400 0.979 . S
H373 C400 0.980 . S
H374 C400 0.983 . S
H375 C399 0.979 . S
H376 C399 0.977 . S
C377 C365 1.453 1_565 S
C377 H406 0.982 . S
C377 H407 0.979 . S
C377 H408 0.977 . S
C378 C365 1.684 . S
C378 H403 0.979 . S
C378 H404 0.980 . S
C378 H405 1.005 . S
C379 C380 1.391 . S
C379 C384 1.391 . S
C379 H409 0.948 . S
C380 C379 1.391 . S
C380 C381 1.391 . S
C381 C380 1.391 . S
C381 C382 1.392 . S
C381 H410 0.947 . S
C382 C381 1.392 . S
C382 C383 1.417 . S
C382 H411 0.948 . S
C383 C382 1.417 . S
C383 C384 1.402 . S
C383 C387 1.401 1_545 S
C384 C379 1.391 . S
C384 C383 1.402 . S
C384 C385 1.399 . S
C385 C384 1.399 . S
C385 C386 1.391 1_545 S
C385 C388 1.453 1_545 S
C385 C389 1.684 . S
C386 C367 1.715 . S
C386 C385 1.391 1_565 S
C386 C387 1.399 . S
C387 C383 1.401 1_565 S
C387 C386 1.399 . S
C387 C397 1.722 . S
C388 C385 1.453 1_565 S
C388 H412 0.982 . S
C388 H413 0.979 . S
C388 H414 0.977 . S
C389 C385 1.684 . S
C389 H415 0.979 . S
C389 H416 0.980 . S
C389 H417 0.983 . S
C390 H366 0.948 . S
C390 C391 1.391 . S
C390 C395 1.391 . S
C391 C390 1.391 . S
C391 C392 1.391 . S
C392 H369 0.947 . S
C392 C391 1.391 . S
C392 C393 1.392 . S
C393 H370 0.948 . S
C393 C392 1.392 . S
C393 C394 1.431 . S
C394 C393 1.431 . S
C394 C395 1.392 . S
C394 C398 1.395 1_545 S
C395 C390 1.391 . S
C395 C394 1.392 . S
C395 C396 1.399 . S
C396 C395 1.399 . S
C396 C397 1.393 1_545 S
C396 C399 1.453 1_545 S
C396 C400 1.684 . S
C397 C387 1.722 . S
C397 C396 1.393 1_565 S
C397 C398 1.386 . S
C398 C368 1.728 . S
C398 C394 1.395 1_565 S
C398 C397 1.386 . S
C399 H371 0.982 . S
C399 H375 0.979 . S
C399 H376 0.977 . S
C399 C396 1.453 1_565 S
C400 H372 0.979 . S
C400 H373 0.980 . S
C400 H374 0.983 . S
C400 C396 1.684 . S
H401 C419 0.948 . S
H402 C360 0.948 . S
H403 C378 0.979 . S
H404 C378 0.980 . S
H405 C378 1.005 . S
H406 C377 0.982 . S
H407 C377 0.979 . S
H408 C377 0.977 . S
H409 C379 0.948 . S
H410 C381 0.947 . S
H411 C382 0.948 . S
H412 C388 0.982 . S
H413 C388 0.979 . S
H414 C388 0.977 . S
H415 C389 0.979 . S
H416 C389 0.980 . S
H417 C389 0.983 . S
H418 C362 0.947 . S
C419 C362 1.392 1_554 S
C419 C363 1.428 . S
C419 H401 0.948 . S
C420 C421 1.391 . S
C420 C424 1.391 . S
C420 H462 0.948 . S
C421 C420 1.391 . S
C421 C422 1.391 . S
C422 C421 1.391 . S
C422 H478 0.947 . S
C422 C479 1.392 . S
C423 C424 1.391 . S
C423 C427 1.397 . S
C423 C479 1.419 . S
C424 C420 1.391 . S
C424 C423 1.391 . S
C424 C425 1.399 . S
C425 C424 1.399 . S
C425 C428 1.396 . S
C425 C437 1.453 . S
C425 C438 1.684 . S
H426 C450 0.948 . S
C427 C423 1.397 . S
C427 C428 1.394 . S
C427 C446 1.723 . S
C428 C425 1.396 . S
C428 C427 1.394 . S
C428 C458 1.723 . S
H429 C452 0.947 . S
H430 C453 0.948 . S
H431 C459 0.982 . S
H432 C460 0.979 . S
H433 C460 0.980 . S
H434 C460 0.983 . S
H435 C459 0.979 . S
H436 C459 0.977 . S
C437 C425 1.453 . S
C437 H466 0.982 . S
C437 H467 0.979 . S
C437 H468 0.977 . S
C438 C425 1.684 . S
C438 H463 0.979 . S
C438 H464 0.980 . S
C438 H465 0.983 . S
C439 C440 1.391 . S
C439 C444 1.391 . S
C439 H469 0.948 . S
C440 C439 1.391 . S
C440 C441 1.391 . S
C441 C440 1.391 . S
C441 C442 1.392 . S
C441 H470 0.947 . S
C442 C441 1.392 . S
C442 C443 1.419 . S
C442 H471 0.948 . S
C443 C442 1.419 . S
C443 C444 1.391 . S
C443 C447 1.397 . S
C444 C439 1.391 . S
C444 C443 1.391 . S
C444 C445 1.399 . S
C445 C444 1.399 . S
C445 C446 1.396 . S
C445 C448 1.453 . S
C445 C449 1.684 . S
C446 C427 1.723 . S
C446 C445 1.396 . S
C446 C447 1.394 . S
C447 C443 1.397 . S
C447 C446 1.394 . S
C447 C457 1.723 . S
C448 C445 1.453 . S
C448 H472 0.982 . S
C448 H473 0.979 . S
C448 H474 0.977 . S
C449 C445 1.684 . S
C449 H475 0.979 . S
C449 H476 0.980 . S
C449 H477 0.983 . S
C450 H426 0.948 . S
C450 C451 1.391 . S
C450 C455 1.391 . S
C451 C450 1.391 . S
C451 C452 1.391 . S
C452 H429 0.947 . S
C452 C451 1.391 . S
C452 C453 1.392 . S
C453 H430 0.948 . S
C453 C452 1.392 . S
C453 C454 1.419 . S
C454 C453 1.419 . S
C454 C455 1.391 . S
C454 C458 1.397 . S
C455 C450 1.391 . S
C455 C454 1.391 . S
C455 C456 1.399 . S
C456 C455 1.399 . S
C456 C457 1.396 . S
C456 C459 1.453 . S
C456 C460 1.684 . S
C457 C447 1.723 . S
C457 C456 1.396 . S
C457 C458 1.394 . S
C458 C428 1.723 . S
C458 C454 1.397 . S
C458 C457 1.394 . S
C459 H431 0.982 . S
C459 H435 0.979 . S
C459 H436 0.977 . S
C459 C456 1.453 . S
C460 H432 0.979 . S
C460 H433 0.980 . S
C460 H434 0.983 . S
C460 C456 1.684 . S
H461 C479 0.948 . S
H462 C420 0.948 . S
H463 C438 0.979 . S
H464 C438 0.980 . S
H465 C438 0.983 . S
H466 C437 0.982 . S
H467 C437 0.979 . S
H468 C437 0.977 . S
H469 C439 0.948 . S
H470 C441 0.947 . S
H471 C442 0.948 . S
H472 C448 0.982 . S
H473 C448 0.979 . S
H474 C448 0.977 . S
H475 C449 0.979 . S
H476 C449 0.980 . S
H477 C449 0.983 . S
H478 C422 0.947 . S
C479 C422 1.392 . S
C479 C423 1.419 . S
C479 H461 0.948 . S
Tb480 C489 2.764 1_655 S
Tb480 O490 2.326 1_655 S
Tb480 O493 2.305 1_655 S
Tb480 O497 2.322 1_545 S
Tb480 O498 2.348 . S
Tb480 O501 2.416 1_655 S
Tb480 O502 2.398 . S
Tb481 O491 2.322 1_565 S
Tb481 O492 2.349 . S
Tb481 O494 2.415 . S
Tb481 O495 2.399 . S
Tb481 O496 2.325 . S
Tb481 O499 2.303 1_455 S
Tb481 C510 2.764 . S
C482 O498 1.261 . S
C482 O499 1.257 1_545 S
C483 C486 1.358 1_455 S
C483 C487 1.332 . S
C483 C489 1.504 . S
C484 C485 1.373 1_455 S
C484 C488 1.308 . S
C485 C484 1.373 1_655 S
C485 C486 1.429 . S
C485 H512 0.932 . S
C486 C483 1.358 1_655 S
C486 C485 1.429 . S
C486 H513 0.930 . S
C487 C483 1.332 . S
C487 C488 1.394 . S
C487 H514 0.932 . S
C488 C484 1.308 . S
C488 C487 1.394 . S
C488 H515 0.929 . S
C489 Tb480 2.764 1_455 S
C489 C483 1.504 . S
C489 O501 1.239 . S
C489 O502 1.263 1_455 S
O490 Tb480 2.326 1_455 S
O490 C500 1.236 . S
O491 Tb481 2.322 1_545 S
O491 C500 1.257 . S
O492 Tb481 2.349 . S
O492 C503 1.261 . S
O493 Tb480 2.305 1_455 S
O493 C503 1.257 1_545 S
O494 Tb481 2.415 . S
O494 C510 1.239 . S
O495 Tb481 2.399 . S
O495 C510 1.263 . S
O496 Tb481 2.325 . S
O496 C511 1.236 1_455 S
O497 Tb480 2.322 1_565 S
O497 C511 1.257 . S
O498 Tb480 2.348 . S
O498 C482 1.261 . S
O499 Tb481 2.303 1_655 S
O499 C482 1.257 1_565 S
C500 O490 1.236 . S
C500 O491 1.257 . S
O501 Tb480 2.416 1_455 S
O501 C489 1.239 . S
O502 Tb480 2.398 . S
O502 C489 1.263 1_655 S
C503 O492 1.261 . S
C503 O493 1.257 1_565 S
C504 C507 1.358 . S
C504 C508 1.332 . S
C504 C510 1.504 . S
C505 C506 1.373 . S
C505 C509 1.308 . S
C506 C505 1.373 . S
C506 C507 1.429 . S
C506 H516 0.932 . S
C507 C504 1.358 . S
C507 C506 1.429 . S
C507 H517 0.930 . S
C508 C504 1.332 . S
C508 C509 1.394 . S
C508 H518 0.932 1_455 S
C509 C505 1.308 . S
C509 C508 1.394 . S
C509 H519 0.929 1_455 S
C510 Tb481 2.764 . S
C510 O494 1.239 . S
C510 O495 1.263 . S
C510 C504 1.504 . S
C511 O496 1.236 1_655 S
C511 O497 1.257 . S
H512 C485 0.932 . S
H513 C486 0.930 . S
H514 C487 0.932 . S
H515 C488 0.929 . S
H516 C506 0.932 . S
H517 C507 0.930 . S
H518 C508 0.932 1_655 S
H519 C509 0.929 1_655 S
Tb520 C529 2.764 . S
Tb520 O530 2.325 . S
Tb520 O533 2.303 1_565 S
Tb520 O537 2.322 . S
Tb520 O538 2.349 . S
Tb520 O541 2.415 1_565 S
Tb520 O542 2.399 . S
Tb521 O531 2.322 . S
Tb521 O532 2.349 . S
Tb521 O534 2.415 1_545 S
Tb521 O535 2.399 . S
Tb521 O536 2.325 . S
Tb521 O539 2.303 1_545 S
Tb521 C550 2.764 . S
C522 O538 1.261 . S
C522 O539 1.257 . S
C523 C526 1.358 . S
C523 C527 1.332 . S
C523 C529 1.504 . S
C524 C525 1.373 . S
C524 C528 1.308 . S
C525 C524 1.373 . S
C525 C526 1.429 . S
C525 H552 0.932 . S
C526 C523 1.358 . S
C526 C525 1.429 . S
C526 H553 0.930 . S
C527 C523 1.332 . S
C527 C528 1.394 . S
C527 H554 0.932 1_565 S
C528 C524 1.308 . S
C528 C527 1.394 . S
C528 H555 0.929 1_565 S
C529 Tb520 2.764 . S
C529 C523 1.504 . S
C529 O541 1.239 1_565 S
C529 O542 1.263 . S
O530 Tb520 2.325 . S
O530 C540 1.236 1_565 S
O531 Tb521 2.322 . S
O531 C540 1.257 . S
O532 Tb521 2.349 . S
O532 C543 1.261 . S
O533 Tb520 2.303 1_545 S
O533 C543 1.257 . S
O534 Tb521 2.415 1_565 S
O534 C550 1.239 1_565 S
O535 Tb521 2.399 . S
O535 C550 1.263 . S
O536 Tb521 2.325 . S
O536 C551 1.236 1_545 S
O537 Tb520 2.322 . S
O537 C551 1.257 . S
O538 Tb520 2.349 . S
O538 C522 1.261 . S
O539 Tb521 2.303 1_565 S
O539 C522 1.257 . S
C540 O530 1.236 1_545 S
C540 O531 1.257 . S
O541 Tb520 2.415 1_545 S
O541 C529 1.239 1_545 S
O542 Tb520 2.399 . S
O542 C529 1.263 . S
C543 O532 1.261 . S
C543 O533 1.257 . S
C544 C547 1.358 . S
C544 C548 1.332 . S
C544 C550 1.504 . S
C545 C546 1.373 . S
C545 C549 1.308 . S
C546 C545 1.373 . S
C546 C547 1.429 . S
C546 H556 0.932 . S
C547 C544 1.358 . S
C547 C546 1.429 . S
C547 H557 0.930 . S
C548 C544 1.332 . S
C548 C549 1.394 . S
C548 H558 0.932 1_545 S
C549 C545 1.308 . S
C549 C548 1.394 . S
C549 H559 0.929 1_545 S
C550 Tb521 2.764 . S
C550 O534 1.239 1_545 S
C550 O535 1.263 . S
C550 C544 1.504 . S
C551 O536 1.236 1_565 S
C551 O537 1.257 . S
H552 C525 0.932 . S
H553 C526 0.930 . S
H554 C527 0.932 1_545 S
H555 C528 0.929 1_545 S
H556 C546 0.932 . S
H557 C547 0.930 . S
H558 C548 0.932 1_565 S
H559 C549 0.929 1_565 S
Tb560 C569 2.764 . S
Tb560 O570 2.325 . S
Tb560 O573 2.303 . S
Tb560 O577 2.322 . S
Tb560 O578 2.349 . S
Tb560 O581 2.415 . S
Tb560 O582 2.399 . S
Tb561 O571 2.322 . S
Tb561 O572 2.349 . S
Tb561 O574 2.415 . S
Tb561 O575 2.399 . S
Tb561 O576 2.325 . S
Tb561 O579 2.303 . S
Tb561 C590 2.764 . S
C562 O578 1.261 . S
C562 O579 1.257 . S
C563 C566 1.358 . S
C563 C567 1.332 . S
C563 C569 1.504 . S
C564 C565 1.373 . S
C564 C568 1.308 . S
C565 C564 1.373 . S
C565 C566 1.429 . S
C565 H592 0.932 . S
C566 C563 1.358 . S
C566 C565 1.429 . S
C566 H593 0.930 . S
C567 C563 1.332 . S
C567 C568 1.394 . S
C567 H594 0.932 . S
C568 C564 1.308 . S
C568 C567 1.394 . S
C568 H595 0.929 . S
C569 Tb560 2.764 . S
C569 C563 1.504 . S
C569 O581 1.239 . S
C569 O582 1.263 . S
O570 Tb560 2.325 . S
O570 C580 1.236 . S
O571 Tb561 2.322 . S
O571 C580 1.257 . S
O572 Tb561 2.349 . S
O572 C583 1.261 . S
O573 Tb560 2.303 . S
O573 C583 1.257 . S
O574 Tb561 2.415 . S
O574 C590 1.239 . S
O575 Tb561 2.399 . S
O575 C590 1.263 . S
O576 Tb561 2.325 . S
O576 C591 1.236 . S
O577 Tb560 2.322 . S
O577 C591 1.257 . S
O578 Tb560 2.349 . S
O578 C562 1.261 . S
O579 Tb561 2.303 . S
O579 C562 1.257 . S
C580 O570 1.236 . S
C580 O571 1.257 . S
O581 Tb560 2.415 . S
O581 C569 1.239 . S
O582 Tb560 2.399 . S
O582 C569 1.263 . S
C583 O572 1.261 . S
C583 O573 1.257 . S
C584 C587 1.358 . S
C584 C588 1.332 . S
C584 C590 1.504 . S
C585 C586 1.373 . S
C585 C589 1.308 . S
C586 C585 1.373 . S
C586 C587 1.429 . S
C586 H596 0.932 . S
C587 C584 1.358 . S
C587 C586 1.429 . S
C587 H597 0.930 . S
C588 C584 1.332 . S
C588 C589 1.394 . S
C588 H598 0.932 . S
C589 C585 1.308 . S
C589 C588 1.394 . S
C589 H599 0.929 . S
C590 Tb561 2.764 . S
C590 O574 1.239 . S
C590 O575 1.263 . S
C590 C584 1.504 . S
C591 O576 1.236 . S
C591 O577 1.257 . S
H592 C565 0.932 . S
H593 C566 0.930 . S
H594 C567 0.932 . S
H595 C568 0.929 . S
H596 C586 0.932 . S
H597 C587 0.930 . S
H598 C588 0.932 . S
H599 C589 0.929 . S
Tb600 C609 2.764 . S
Tb600 O610 2.325 . S
Tb600 O613 2.303 . S
Tb600 O617 2.322 1_455 S
Tb600 O618 2.349 . S
Tb600 O621 2.415 . S
Tb600 O622 2.399 . S
Tb601 O611 2.322 . S
Tb601 O612 2.349 . S
Tb601 O614 2.415 1_455 S
Tb601 O615 2.399 1_455 S
Tb601 O616 2.325 1_455 S
Tb601 O619 2.303 . S
Tb601 C630 2.764 1_455 S
C602 O618 1.261 . S
C602 O619 1.257 . S
C603 C606 1.358 . S
C603 C607 1.332 . S
C603 C609 1.504 . S
C604 C605 1.373 . S
C604 C608 1.308 . S
C605 C604 1.373 . S
C605 C606 1.429 . S
C605 H632 0.932 . S
C606 C603 1.358 . S
C606 C605 1.429 . S
C606 H633 0.930 . S
C607 C603 1.332 . S
C607 C608 1.394 . S
C607 H634 0.932 . S
C608 C604 1.308 . S
C608 C607 1.394 . S
C608 H635 0.929 . S
C609 Tb600 2.764 . S
C609 C603 1.504 . S
C609 O621 1.239 . S
C609 O622 1.263 . S
O610 Tb600 2.325 . S
O610 C620 1.236 . S
O611 Tb601 2.322 . S
O611 C620 1.257 . S
O612 Tb601 2.349 . S
O612 C623 1.261 . S
O613 Tb600 2.303 . S
O613 C623 1.257 . S
O614 Tb601 2.415 1_655 S
O614 C630 1.239 . S
O615 Tb601 2.399 1_655 S
O615 C630 1.263 . S
O616 Tb601 2.325 1_655 S
O616 C631 1.236 . S
O617 Tb600 2.322 1_655 S
O617 C631 1.257 . S
O618 Tb600 2.349 . S
O618 C602 1.261 . S
O619 Tb601 2.303 . S
O619 C602 1.257 . S
C620 O610 1.236 . S
C620 O611 1.257 . S
O621 Tb600 2.415 . S
O621 C609 1.239 . S
O622 Tb600 2.399 . S
O622 C609 1.263 . S
C623 O612 1.261 . S
C623 O613 1.257 . S
C624 C627 1.358 . S
C624 C628 1.332 . S
C624 C630 1.504 . S
C625 C626 1.373 . S
C625 C629 1.308 . S
C626 C625 1.373 . S
C626 C627 1.429 . S
C626 H636 0.932 . S
C627 C624 1.358 . S
C627 C626 1.429 . S
C627 H637 0.930 . S
C628 C624 1.332 . S
C628 C629 1.394 . S
C628 H638 0.932 . S
C629 C625 1.308 . S
C629 C628 1.394 . S
C629 H639 0.929 . S
C630 Tb601 2.764 1_655 S
C630 O614 1.239 . S
C630 O615 1.263 . S
C630 C624 1.504 . S
C631 O616 1.236 . S
C631 O617 1.257 . S
H632 C605 0.932 . S
H633 C606 0.930 . S
H634 C607 0.932 . S
H635 C608 0.929 . S
H636 C626 0.932 . S
H637 C627 0.930 . S
H638 C628 0.932 . S
H639 C629 0.929 . S
H640 C648 0.929 . S
H641 C650 0.930 . S
H642 C652 0.930 . S
H643 C655 0.929 . S
H644 C658 0.930 . S
H645 C660 0.960 . S
H646 C660 0.960 . S
H647 C660 0.960 . S
C648 H640 0.929 . S
C648 C649 1.386 . S
C648 C650 1.384 . S
C649 C648 1.386 . S
C649 C655 1.384 1_565 S
C650 H641 0.930 . S
C650 C648 1.384 . S
C650 C651 1.372 . S
C651 C650 1.372 . S
C651 C652 1.400 1_565 S
C651 C656 1.486 . S
C652 H642 0.930 . S
C652 C651 1.400 1_545 S
C652 C655 1.386 . S
H653 C669 0.930 . S
H654 C670 0.931 . S
C655 H643 0.929 . S
C655 C649 1.384 1_545 S
C655 C652 1.386 . S
C656 C651 1.486 . S
C656 C658 1.371 1_565 S
C656 C659 1.433 . S
H657 C663 0.930 . S
C658 H644 0.930 . S
C658 C656 1.371 1_545 S
C658 C661 1.403 . S
C659 C656 1.433 . S
C659 C660 1.524 . S
C659 C663 1.400 . S
C660 H645 0.960 . S
C660 H646 0.960 . S
C660 H647 0.960 . S
C660 C659 1.524 . S
C661 C658 1.403 . S
C661 C662 1.419 . S
C661 C665 1.495 . S
C662 C661 1.419 . S
C662 C663 1.364 1_545 S
C662 C664 1.479 . S
C663 H657 0.930 . S
C663 C659 1.400 . S
C663 C662 1.364 1_565 S
C664 C662 1.479 . S
C664 C666 1.348 1_545 S
C664 C670 1.409 . S
C665 C661 1.495 . S
C665 H671 0.959 . S
C665 H672 0.961 . S
C665 H673 0.960 . S
C666 C664 1.348 1_565 S
C666 C667 1.394 . S
C666 H674 0.930 . S
C667 C666 1.394 . S
C667 C668 1.404 . S
C667 H675 0.929 . S
C668 C667 1.404 . S
C668 C669 1.351 1_565 S
C669 H653 0.930 . S
C669 C668 1.351 1_545 S
C669 C670 1.379 . S
C670 H654 0.931 . S
C670 C664 1.409 . S
C670 C669 1.379 . S
H671 C665 0.959 . S
H672 C665 0.961 . S
H673 C665 0.960 . S
H674 C666 0.930 . S
H675 C667 0.929 . S
H676 C684 0.929 . S
H677 C686 0.930 . S
H678 C688 0.930 . S
H679 C691 0.929 . S
H680 C694 0.930 . S
H681 C696 0.960 . S
H682 C696 0.960 . S
H683 C696 0.960 . S
C684 H676 0.929 . S
C684 C685 1.377 . S
C684 C686 1.384 . S
C685 C684 1.377 . S
C685 C691 1.390 . S
C686 H677 0.930 . S
C686 C684 1.384 . S
C686 C687 1.372 . S
C687 C686 1.372 . S
C687 C688 1.400 . S
C687 C692 1.490 . S
C688 H678 0.930 . S
C688 C687 1.400 . S
C688 C691 1.386 . S
H689 C705 0.930 . S
H690 C706 0.931 . S
C691 H679 0.929 . S
C691 C685 1.390 . S
C691 C688 1.386 . S
C692 C687 1.490 . S
C692 C694 1.395 . S
C692 C695 1.403 . S
H693 C699 0.930 . S
C694 H680 0.930 . S
C694 C692 1.395 . S
C694 C697 1.403 . S
C695 C692 1.403 . S
C695 C696 1.524 . S
C695 C699 1.400 . S
C696 H681 0.960 . S
C696 H682 0.960 . S
C696 H683 0.960 . S
C696 C695 1.524 . S
C697 C694 1.403 . S
C697 C698 1.392 . S
C697 C701 1.495 . S
C698 C697 1.392 . S
C698 C699 1.385 . S
C698 C700 1.478 . S
C699 H693 0.930 . S
C699 C695 1.400 . S
C699 C698 1.385 . S
C700 C698 1.478 . S
C700 C702 1.381 . S
C700 C706 1.383 . S
C701 C697 1.495 . S
C701 H707 0.959 . S
C701 H708 0.961 . S
C701 H709 0.960 . S
C702 C700 1.381 . S
C702 C703 1.394 . S
C702 H710 0.930 . S
C703 C702 1.394 . S
C703 C704 1.383 . S
C703 H711 0.929 . S
C704 C703 1.383 . S
C704 C705 1.377 . S
C705 H689 0.930 . S
C705 C704 1.377 . S
C705 C706 1.379 . S
C706 H690 0.931 . S
C706 C700 1.383 . S
C706 C705 1.379 . S
H707 C701 0.959 . S
H708 C701 0.961 . S
H709 C701 0.960 . S
H710 C702 0.930 . S
H711 C703 0.929 . S
H712 C720 0.929 . S
H713 C722 0.930 . S
H714 C724 0.930 . S
H715 C727 0.929 . S
H716 C730 0.930 . S
H717 C732 0.960 . S
H718 C732 0.960 . S
H719 C732 0.960 . S
C720 H712 0.929 . S
C720 C721 1.377 . S
C720 C722 1.384 . S
C721 C720 1.377 . S
C721 C727 1.390 . S
C722 H713 0.930 . S
C722 C720 1.384 . S
C722 C723 1.372 . S
C723 C722 1.372 . S
C723 C724 1.400 . S
C723 C728 1.490 . S
C724 H714 0.930 . S
C724 C723 1.400 . S
C724 C727 1.386 . S
H725 C741 0.930 . S
H726 C742 0.931 . S
C727 H715 0.929 . S
C727 C721 1.390 . S
C727 C724 1.386 . S
C728 C723 1.490 . S
C728 C730 1.395 . S
C728 C731 1.403 . S
H729 C735 0.930 . S
C730 H716 0.930 . S
C730 C728 1.395 . S
C730 C733 1.403 . S
C731 C728 1.403 . S
C731 C732 1.524 . S
C731 C735 1.400 . S
C732 H717 0.960 . S
C732 H718 0.960 . S
C732 H719 0.960 . S
C732 C731 1.524 . S
C733 C730 1.403 . S
C733 C734 1.392 . S
C733 C737 1.495 . S
C734 C733 1.392 . S
C734 C735 1.385 . S
C734 C736 1.478 . S
C735 H729 0.930 . S
C735 C731 1.400 . S
C735 C734 1.385 . S
C736 C734 1.478 . S
C736 C738 1.381 . S
C736 C742 1.383 . S
C737 C733 1.495 . S
C737 H743 0.959 . S
C737 H744 0.961 . S
C737 H745 0.960 . S
C738 C736 1.381 . S
C738 C739 1.394 . S
C738 H746 0.930 . S
C739 C738 1.394 . S
C739 C740 1.383 . S
C739 H747 0.929 . S
C740 C739 1.383 . S
C740 C741 1.377 . S
C741 H725 0.930 . S
C741 C740 1.377 . S
C741 C742 1.379 . S
C742 H726 0.931 . S
C742 C736 1.383 . S
C742 C741 1.379 . S
H743 C737 0.959 . S
H744 C737 0.961 . S
H745 C737 0.960 . S
H746 C738 0.930 . S
H747 C739 0.929 . S
H748 C756 0.929 . S
H749 C758 0.930 . S
H750 C760 0.930 . S
H751 C763 0.929 . S
H752 C766 0.930 . S
H753 C768 0.960 . S
H754 C768 0.960 . S
H755 C768 0.960 . S
C756 H748 0.929 . S
C756 C757 1.377 . S
C756 C758 1.384 . S
C757 C756 1.377 . S
C757 C763 1.390 . S
C758 H749 0.930 . S
C758 C756 1.384 . S
C758 C759 1.372 . S
C759 C758 1.372 . S
C759 C760 1.400 . S
C759 C764 1.490 . S
C760 H750 0.930 . S
C760 C759 1.400 . S
C760 C763 1.386 . S
H761 C777 0.930 . S
H762 C778 0.931 . S
C763 H751 0.929 . S
C763 C757 1.390 . S
C763 C760 1.386 . S
C764 C759 1.490 . S
C764 C766 1.395 . S
C764 C767 1.403 . S
H765 C771 0.930 . S
C766 H752 0.930 . S
C766 C764 1.395 . S
C766 C769 1.403 . S
C767 C764 1.403 . S
C767 C768 1.524 . S
C767 C771 1.400 . S
C768 H753 0.960 . S
C768 H754 0.960 . S
C768 H755 0.960 . S
C768 C767 1.524 . S
C769 C766 1.403 . S
C769 C770 1.392 . S
C769 C773 1.495 . S
C770 C769 1.392 . S
C770 C771 1.385 . S
C770 C772 1.478 . S
C771 H765 0.930 . S
C771 C767 1.400 . S
C771 C770 1.385 . S
C772 C770 1.478 . S
C772 C774 1.381 . S
C772 C778 1.383 . S
C773 C769 1.495 . S
C773 H779 0.959 . S
C773 H780 0.961 . S
C773 H781 0.960 . S
C774 C772 1.381 . S
C774 C775 1.394 . S
C774 H782 0.930 . S
C775 C774 1.394 . S
C775 C776 1.383 . S
C775 H783 0.929 . S
C776 C775 1.383 . S
C776 C777 1.377 . S
C777 H761 0.930 . S
C777 C776 1.377 . S
C777 C778 1.379 . S
C778 H762 0.931 . S
C778 C772 1.383 . S
C778 C777 1.379 . S
H779 C773 0.959 . S
H780 C773 0.961 . S
H781 C773 0.960 . S
H782 C774 0.930 . S
H783 C775 0.929 . S
H784 C792 0.929 . S
H785 C794 0.930 . S
H786 C796 0.930 . S
H787 C799 0.929 . S
H788 C802 0.930 . S
H789 C804 0.960 . S
H790 C804 0.960 . S
H791 C804 0.960 . S
C792 H784 0.929 . S
C792 C793 1.378 1_565 S
C792 C794 1.384 . S
C793 C792 1.378 1_545 S
C793 C799 1.388 . S
C794 H785 0.930 . S
C794 C792 1.384 . S
C794 C795 1.370 1_565 S
C795 C794 1.370 1_545 S
C795 C796 1.401 . S
C795 C800 1.484 . S
C796 H786 0.930 . S
C796 C795 1.401 . S
C796 C799 1.386 . S
H797 C813 0.930 . S
H798 C814 0.931 . S
C799 H787 0.929 . S
C799 C793 1.388 . S
C799 C796 1.386 . S
C800 C795 1.484 . S
C800 C802 1.438 . S
C800 C803 1.370 1_545 S
H801 C807 0.930 . S
C802 H788 0.930 . S
C802 C800 1.438 . S
C802 C805 1.403 1_554 S
C803 C800 1.370 1_565 S
C803 C804 1.524 . S
C803 C807 1.400 . S
C804 H789 0.960 . S
C804 H790 0.960 . S
C804 H791 0.960 . S
C804 C803 1.524 . S
C805 C802 1.403 1_556 S
C805 C806 1.392 . S
C805 C809 1.495 . S
C806 C805 1.392 . S
C806 C807 1.385 1_546 S
C806 C808 1.478 . S
C807 H801 0.930 . S
C807 C803 1.400 . S
C807 C806 1.385 1_564 S
C808 C806 1.478 . S
C808 C810 1.381 1_545 S
C808 C814 1.383 . S
C809 C805 1.495 . S
C809 H815 0.959 . S
C809 H816 0.961 . S
C809 H817 0.960 . S
C810 C808 1.381 1_565 S
C810 C811 1.394 . S
C810 H818 0.930 . S
C811 C810 1.394 . S
C811 C812 1.383 1_565 S
C811 H819 0.929 . S
C812 C811 1.383 1_545 S
C812 C813 1.377 . S
C813 H797 0.930 . S
C813 C812 1.377 . S
C813 C814 1.379 . S
C814 H798 0.931 . S
C814 C808 1.383 . S
C814 C813 1.379 . S
H815 C809 0.959 . S
H816 C809 0.961 . S
H817 C809 0.960 . S
H818 C810 0.930 . S
H819 C811 0.929 . S
H820 C828 0.929 1_554 S
H821 C830 0.930 . S
H822 C832 0.930 . S
H823 C835 0.929 . S
H824 C838 0.930 . S
H825 C840 0.960 . S
H826 C840 0.960 . S
H827 C840 0.960 . S
C828 H820 0.929 1_556 S
C828 C829 1.377 . S
C828 C830 1.384 . S
C829 C828 1.377 . S
C829 C835 1.390 . S
C830 H821 0.930 . S
C830 C828 1.384 . S
C830 C831 1.372 . S
C831 C830 1.372 . S
C831 C832 1.400 . S
C831 C836 1.490 . S
C832 H822 0.930 . S
C832 C831 1.400 . S
C832 C835 1.386 . S
H833 C849 0.930 . S
H834 C850 0.931 . S
C835 H823 0.929 . S
C835 C829 1.390 . S
C835 C832 1.386 . S
C836 C831 1.490 . S
C836 C838 1.395 . S
C836 C839 1.403 . S
H837 C843 0.930 . S
C838 H824 0.930 . S
C838 C836 1.395 . S
C838 C841 1.403 . S
C839 C836 1.403 . S
C839 C840 1.524 . S
C839 C843 1.400 . S
C840 H825 0.960 . S
C840 H826 0.960 . S
C840 H827 0.960 . S
C840 C839 1.524 . S
C841 C838 1.403 . S
C841 C842 1.392 . S
C841 C845 1.495 . S
C842 C841 1.392 . S
C842 C843 1.385 . S
C842 C844 1.478 . S
C843 H837 0.930 . S
C843 C839 1.400 . S
C843 C842 1.385 . S
C844 C842 1.478 . S
C844 C846 1.381 . S
C844 C850 1.383 . S
C845 C841 1.495 . S
C845 H851 0.959 . S
C845 H852 0.961 . S
C845 H853 0.960 . S
C846 C844 1.381 . S
C846 C847 1.394 . S
C846 H854 0.930 . S
C847 C846 1.394 . S
C847 C848 1.383 . S
C847 H855 0.929 . S
C848 C847 1.383 . S
C848 C849 1.377 . S
C849 H833 0.930 . S
C849 C848 1.377 . S
C849 C850 1.379 . S
C850 H834 0.931 . S
C850 C844 1.383 . S
C850 C849 1.379 . S
H851 C845 0.959 . S
H852 C845 0.961 . S
H853 C845 0.960 . S
H854 C846 0.930 . S
H855 C847 0.929 . S
H856 C864 0.929 . S
H857 C866 0.930 . S
H858 C868 0.930 . S
H859 C871 0.929 . S
H860 C874 0.930 . S
H861 C876 0.960 . S
H862 C876 0.960 . S
H863 C876 0.960 . S
C864 H856 0.929 . S
C864 C865 1.377 . S
C864 C866 1.384 . S
C865 C864 1.377 . S
C865 C871 1.390 . S
C866 H857 0.930 . S
C866 C864 1.384 . S
C866 C867 1.372 . S
C867 C866 1.372 . S
C867 C868 1.400 . S
C867 C872 1.490 . S
C868 H858 0.930 . S
C868 C867 1.400 . S
C868 C871 1.386 . S
H869 C885 0.930 . S
H870 C886 0.931 . S
C871 H859 0.929 . S
C871 C865 1.390 . S
C871 C868 1.386 . S
C872 C867 1.490 . S
C872 C874 1.395 . S
C872 C875 1.403 . S
H873 C879 0.930 . S
C874 H860 0.930 . S
C874 C872 1.395 . S
C874 C877 1.403 1_554 S
C875 C872 1.403 . S
C875 C876 1.524 . S
C875 C879 1.400 . S
C876 H861 0.960 . S
C876 H862 0.960 . S
C876 H863 0.960 . S
C876 C875 1.524 . S
C877 C874 1.403 1_556 S
C877 C878 1.392 . S
C877 C881 1.495 . S
C878 C877 1.392 . S
C878 C879 1.385 1_556 S
C878 C880 1.478 . S
C879 H873 0.930 . S
C879 C875 1.400 . S
C879 C878 1.385 1_554 S
C880 C878 1.478 . S
C880 C882 1.381 . S
C880 C886 1.383 . S
C881 C877 1.495 . S
C881 H887 0.959 . S
C881 H888 0.961 . S
C881 H889 0.960 . S
C882 C880 1.381 . S
C882 C883 1.394 . S
C882 H890 0.930 . S
C883 C882 1.394 . S
C883 C884 1.383 . S
C883 H891 0.929 . S
C884 C883 1.383 . S
C884 C885 1.377 . S
C885 H869 0.930 . S
C885 C884 1.377 . S
C885 C886 1.379 . S
C886 H870 0.931 . S
C886 C880 1.383 . S
C886 C885 1.379 . S
H887 C881 0.959 . S
H888 C881 0.961 . S
H889 C881 0.960 . S
H890 C882 0.930 . S
H891 C883 0.929 . S
H892 C900 0.929 . S
H893 C902 0.930 . S
H894 C904 0.930 . S
H895 C907 0.929 . S
H896 C910 0.930 1_554 S
H897 C912 0.960 . S
H898 C912 0.960 1_655 S
H899 C912 0.960 . S
C900 H892 0.929 . S
C900 C901 1.377 . S
C900 C902 1.384 . S
C901 C900 1.377 . S
C901 C907 1.390 . S
C902 H893 0.930 . S
C902 C900 1.384 . S
C902 C903 1.372 . S
C903 C902 1.372 . S
C903 C904 1.400 . S
C903 C908 1.490 . S
C904 H894 0.930 . S
C904 C903 1.400 . S
C904 C907 1.386 . S
H905 C921 0.930 . S
H906 C922 0.923 1_455 S
C907 H895 0.929 . S
C907 C901 1.390 . S
C907 C904 1.386 . S
C908 C903 1.490 . S
C908 C910 1.393 1_554 S
C908 C911 1.403 . S
H909 C915 0.930 1_455 S
C910 H896 0.930 1_556 S
C910 C908 1.393 1_556 S
C910 C913 1.405 . S
C911 C908 1.403 . S
C911 C912 1.524 1_655 S
C911 C915 1.400 1_554 S
C912 H897 0.960 . S
C912 H898 0.960 1_455 S
C912 H899 0.960 . S
C912 C911 1.524 1_455 S
C913 C910 1.405 . S
C913 C914 1.392 . S
C913 C917 1.495 . S
C914 C913 1.392 . S
C914 C915 1.385 . S
C914 C916 1.478 . S
C915 H909 0.930 1_655 S
C915 C911 1.400 1_556 S
C915 C914 1.385 . S
C916 C914 1.478 . S
C916 C918 1.381 . S
C916 C922 1.383 . S
C917 C913 1.495 . S
C917 H923 0.959 . S
C917 H924 0.961 . S
C917 H925 0.960 . S
C918 C916 1.381 . S
C918 C919 1.394 . S
C918 H926 0.930 . S
C919 C918 1.394 . S
C919 C920 1.383 . S
C919 H927 0.929 . S
C920 C919 1.383 . S
C920 C921 1.377 1_655 S
C921 H905 0.930 . S
C921 C920 1.377 1_455 S
C921 C922 1.379 1_455 S
C922 H906 0.923 1_655 S
C922 C916 1.383 . S
C922 C921 1.379 1_655 S
H923 C917 0.959 . S
H924 C917 0.961 . S
H925 C917 0.960 . S
H926 C918 0.930 . S
H927 C919 0.929 . S
H928 C936 0.929 . S
H929 C938 0.930 . S
H930 C940 0.930 . S
H931 C943 0.929 . S
H932 C946 0.930 . S
H933 C948 0.960 . S
H934 C948 0.960 . S
H935 C948 0.960 . S
C936 H928 0.929 . S
C936 C937 1.377 . S
C936 C938 1.384 . S
C937 C936 1.377 . S
C937 C943 1.390 . S
C938 H929 0.930 . S
C938 C936 1.384 . S
C938 C939 1.372 . S
C939 C938 1.372 . S
C939 C940 1.400 . S
C939 C944 1.490 . S
C940 H930 0.930 . S
C940 C939 1.400 . S
C940 C943 1.386 . S
H941 C957 0.930 . S
H942 C958 0.931 1_655 S
C943 H931 0.929 . S
C943 C937 1.390 . S
C943 C940 1.386 . S
C944 C939 1.490 . S
C944 C946 1.395 . S
C944 C947 1.403 . S
H945 C951 0.930 . S
C946 H932 0.930 . S
C946 C944 1.395 . S
C946 C949 1.403 . S
C947 C944 1.403 . S
C947 C948 1.524 . S
C947 C951 1.400 . S
C948 H933 0.960 . S
C948 H934 0.960 . S
C948 H935 0.960 . S
C948 C947 1.524 . S
C949 C946 1.403 . S
C949 C950 1.392 . S
C949 C953 1.495 . S
C950 C949 1.392 . S
C950 C951 1.385 . S
C950 C952 1.478 . S
C951 H945 0.930 . S
C951 C947 1.400 . S
C951 C950 1.385 . S
C952 C950 1.478 . S
C952 C954 1.381 . S
C952 C958 1.383 . S
C953 C949 1.495 . S
C953 H959 0.959 . S
C953 H960 0.961 . S
C953 H961 0.960 . S
C954 C952 1.381 . S
C954 C955 1.394 . S
C954 H962 0.930 . S
C955 C954 1.394 . S
C955 C956 1.383 . S
C955 H963 0.929 . S
C956 C955 1.383 . S
C956 C957 1.377 1_455 S
C957 H941 0.930 . S
C957 C956 1.377 1_655 S
C957 C958 1.379 1_655 S
C958 H942 0.931 1_455 S
C958 C952 1.383 . S
C958 C957 1.379 1_455 S
H959 C953 0.959 . S
H960 C953 0.961 . S
H961 C953 0.960 . S
H962 C954 0.930 . S
H963 C955 0.929 . S
H964 C972 0.929 . S
H965 C974 0.930 . S
H966 C976 0.930 . S
H967 C979 0.929 . S
H968 C982 0.948 . S
H969 C984 0.960 . S
H970 C984 0.960 . S
H971 C984 0.960 . S
C972 H964 0.929 . S
C972 C973 1.377 1_565 S
C972 C974 1.384 . S
C973 C972 1.377 1_545 S
C973 C979 1.390 . S
C974 H965 0.930 . S
C974 C972 1.384 . S
C974 C975 1.372 . S
C975 C974 1.372 . S
C975 C976 1.400 1_565 S
C975 C980 1.490 . S
C976 H966 0.930 . S
C976 C975 1.400 1_545 S
C976 C979 1.386 . S
H977 C993 0.942 . S
H978 C994 0.931 1_545 S
C979 H967 0.929 . S
C979 C973 1.390 . S
C979 C976 1.386 . S
C980 C975 1.490 . S
C980 C982 1.395 . S
C980 C983 1.403 . S
H981 C987 0.930 . S
C982 H968 0.948 . S
C982 C980 1.395 . S
C982 C985 1.403 . S
C983 C980 1.403 . S
C983 C984 1.524 . S
C983 C987 1.400 . S
C984 H969 0.960 . S
C984 H970 0.960 . S
C984 H971 0.960 . S
C984 C983 1.524 . S
C985 C982 1.403 . S
C985 C986 1.392 . S
C985 C989 1.495 . S
C986 C985 1.392 . S
C986 C987 1.385 . S
C986 C988 1.478 . S
C987 H981 0.930 . S
C987 C983 1.400 . S
C987 C986 1.385 . S
C988 C986 1.478 . S
C988 C990 1.381 . S
C988 C994 1.383 . S
C989 C985 1.495 . S
C989 H995 0.959 1_565 S
C989 H996 0.961 1_565 S
C989 H997 0.960 . S
C990 C988 1.381 . S
C990 C991 1.394 . S
C990 H998 0.930 . S
C991 C990 1.394 . S
C991 C992 1.383 . S
C991 H999 0.929 . S
C992 C991 1.383 . S
C992 C993 1.377 . S
C993 H977 0.942 . S
C993 C992 1.377 . S
C993 C994 1.379 . S
C994 H978 0.931 1_565 S
C994 C988 1.383 . S
C994 C993 1.379 . S
H995 C989 0.959 1_545 S
H996 C989 0.961 1_545 S
H997 C989 0.960 . S
H998 C990 0.930 . S
H999 C991 0.929 . S
H1000 C1008 0.929 . S
H1001 C1010 0.930 . S
H1002 C1012 0.930 . S
H1003 C1015 0.929 . S
H1004 C1018 0.930 . S
H1005 C1020 0.960 . S
H1006 C1020 0.960 . S
H1007 C1020 0.960 . S
C1008 H1000 0.929 . S
C1008 C1009 1.377 . S
C1008 C1010 1.384 . S
C1009 C1008 1.377 . S
C1009 C1015 1.390 . S
C1010 H1001 0.930 . S
C1010 C1008 1.384 . S
C1010 C1011 1.372 . S
C1011 C1010 1.372 . S
C1011 C1012 1.400 . S
C1011 C1016 1.490 . S
C1012 H1002 0.930 . S
C1012 C1011 1.400 . S
C1012 C1015 1.386 . S
H1013 C1029 0.930 . S
H1014 C1030 0.931 . S
C1015 H1003 0.929 . S
C1015 C1009 1.390 . S
C1015 C1012 1.386 . S
C1016 C1011 1.490 . S
C1016 C1018 1.395 . S
C1016 C1019 1.403 . S
H1017 C1023 0.930 . S
C1018 H1004 0.930 . S
C1018 C1016 1.395 . S
C1018 C1021 1.403 . S
C1019 C1016 1.403 . S
C1019 C1020 1.524 . S
C1019 C1023 1.400 . S
C1020 H1005 0.960 . S
C1020 H1006 0.960 . S
C1020 H1007 0.960 . S
C1020 C1019 1.524 . S
C1021 C1018 1.403 . S
C1021 C1022 1.392 . S
C1021 C1025 1.495 . S
C1022 C1021 1.392 . S
C1022 C1023 1.385 . S
C1022 C1024 1.478 . S
C1023 H1017 0.930 . S
C1023 C1019 1.400 . S
C1023 C1022 1.385 . S
C1024 C1022 1.478 . S
C1024 C1026 1.381 . S
C1024 C1030 1.383 . S
C1025 C1021 1.495 . S
C1025 H1031 0.959 . S
C1025 H1032 0.961 . S
C1025 H1033 0.960 . S
C1026 C1024 1.381 . S
C1026 C1027 1.394 . S
C1026 H1034 0.930 . S
C1027 C1026 1.394 . S
C1027 C1028 1.383 . S
C1027 H1035 0.929 . S
C1028 C1027 1.383 . S
C1028 C1029 1.377 . S
C1029 H1013 0.930 . S
C1029 C1028 1.377 . S
C1029 C1030 1.379 . S
C1030 H1014 0.931 . S
C1030 C1024 1.383 . S
C1030 C1029 1.379 . S
H1031 C1025 0.959 . S
H1032 C1025 0.961 . S
H1033 C1025 0.960 . S
H1034 C1026 0.930 . S
H1035 C1027 0.929 . S
H1036 C1044 0.929 . S
H1037 C1046 0.930 . S
H1038 C1048 0.930 . S
H1039 C1051 0.929 . S
H1040 C1054 0.930 . S
H1041 C1056 0.960 . S
H1042 C1056 0.960 . S
H1043 C1056 0.960 . S
C1044 H1036 0.929 . S
C1044 C1045 1.377 . S
C1044 C1046 1.384 . S
C1045 C1044 1.377 . S
C1045 C1051 1.390 . S
C1046 H1037 0.930 . S
C1046 C1044 1.384 . S
C1046 C1047 1.372 . S
C1047 C1046 1.372 . S
C1047 C1048 1.400 . S
C1047 C1052 1.490 . S
C1048 H1038 0.930 . S
C1048 C1047 1.400 . S
C1048 C1051 1.386 . S
H1049 C1065 0.930 . S
H1050 C1066 0.931 . S
C1051 H1039 0.929 . S
C1051 C1045 1.390 . S
C1051 C1048 1.386 . S
C1052 C1047 1.490 . S
C1052 C1054 1.395 . S
C1052 C1055 1.403 . S
H1053 C1059 0.930 . S
C1054 H1040 0.930 . S
C1054 C1052 1.395 . S
C1054 C1057 1.403 . S
C1055 C1052 1.403 . S
C1055 C1056 1.524 . S
C1055 C1059 1.400 . S
C1056 H1041 0.960 . S
C1056 H1042 0.960 . S
C1056 H1043 0.960 . S
C1056 C1055 1.524 . S
C1057 C1054 1.403 . S
C1057 C1058 1.392 . S
C1057 C1061 1.495 . S
C1058 C1057 1.392 . S
C1058 C1059 1.385 . S
C1058 C1060 1.478 . S
C1059 H1053 0.930 . S
C1059 C1055 1.400 . S
C1059 C1058 1.385 . S
C1060 C1058 1.478 . S
C1060 C1062 1.381 . S
C1060 C1066 1.383 . S
C1061 C1057 1.495 . S
C1061 H1067 0.959 . S
C1061 H1068 0.961 . S
C1061 H1069 0.960 . S
C1062 C1060 1.381 . S
C1062 C1063 1.394 . S
C1062 H1070 0.930 . S
C1063 C1062 1.394 . S
C1063 C1064 1.383 . S
C1063 H1071 0.929 . S
C1064 C1063 1.383 . S
C1064 C1065 1.377 . S
C1065 H1049 0.930 . S
C1065 C1064 1.377 . S
C1065 C1066 1.379 . S
C1066 H1050 0.931 . S
C1066 C1060 1.383 . S
C1066 C1065 1.379 . S
H1067 C1061 0.959 . S
H1068 C1061 0.961 . S
H1069 C1061 0.960 . S
H1070 C1062 0.930 . S
H1071 C1063 0.929 . S
H1072 C1080 0.929 . S
H1073 C1082 0.930 1_556 S
H1074 C1084 0.930 . S
H1075 C1087 0.929 . S
H1076 C1090 0.930 . S
H1077 C1092 0.960 . S
H1078 C1092 0.960 . S
H1079 C1092 0.960 . S
C1080 H1072 0.929 . S
C1080 C1081 1.377 . S
C1080 C1082 1.384 . S
C1081 C1080 1.377 . S
C1081 C1087 1.390 . S
C1082 H1073 0.930 1_554 S
C1082 C1080 1.384 . S
C1082 C1083 1.372 . S
C1083 C1082 1.372 . S
C1083 C1084 1.400 . S
C1083 C1088 1.490 . S
C1084 H1074 0.930 . S
C1084 C1083 1.400 . S
C1084 C1087 1.386 . S
H1085 C1101 0.930 . S
H1086 C1102 0.931 1_554 S
C1087 H1075 0.929 . S
C1087 C1081 1.390 . S
C1087 C1084 1.386 . S
C1088 C1083 1.490 . S
C1088 C1090 1.395 1_554 S
C1088 C1091 1.403 . S
H1089 C1095 0.930 1_554 S
C1090 H1076 0.930 . S
C1090 C1088 1.395 1_556 S
C1090 C1093 1.403 . S
C1091 C1088 1.403 . S
C1091 C1092 1.524 1_655 S
C1091 C1095 1.400 1_654 S
C1092 H1077 0.960 . S
C1092 H1078 0.960 . S
C1092 H1079 0.960 . S
C1092 C1091 1.524 1_455 S
C1093 C1090 1.403 . S
C1093 C1094 1.392 . S
C1093 C1097 1.495 . S
C1094 C1093 1.392 . S
C1094 C1095 1.385 1_655 S
C1094 C1096 1.452 1_655 S
C1095 H1089 0.930 1_556 S
C1095 C1091 1.400 1_456 S
C1095 C1094 1.385 1_455 S
C1096 C1094 1.452 1_455 S
C1096 C1098 1.395 . S
C1096 C1102 1.401 . S
C1097 C1093 1.495 . S
C1097 H1103 0.959 . S
C1097 H1104 0.961 . S
C1097 H1105 0.960 . S
C1098 C1096 1.395 . S
C1098 C1099 1.394 . S
C1098 H1106 0.951 . S
C1099 C1098 1.394 . S
C1099 C1100 1.383 . S
C1099 H1107 0.929 . S
C1100 C1099 1.383 . S
C1100 C1101 1.377 . S
C1101 H1085 0.930 . S
C1101 C1100 1.377 . S
C1101 C1102 1.379 . S
C1102 H1086 0.931 1_556 S
C1102 C1096 1.401 . S
C1102 C1101 1.379 . S
H1103 C1097 0.959 . S
H1104 C1097 0.961 . S
H1105 C1097 0.960 . S
H1106 C1098 0.951 . S
H1107 C1099 0.929 . S
H1108 C1116 0.929 . S
H1109 C1118 0.930 . S
H1110 C1120 0.930 . S
H1111 C1123 0.929 . S
H1112 C1126 0.930 . S
H1113 C1128 0.960 1_556 S
H1114 C1128 0.960 1_556 S
H1115 C1128 0.960 . S
C1116 H1108 0.929 . S
C1116 C1117 1.377 . S
C1116 C1118 1.384 . S
C1117 C1116 1.377 . S
C1117 C1123 1.390 1_565 S
C1118 H1109 0.930 . S
C1118 C1116 1.384 . S
C1118 C1119 1.372 1_565 S
C1119 C1118 1.372 1_545 S
C1119 C1120 1.400 . S
C1119 C1124 1.490 . S
C1120 H1110 0.930 . S
C1120 C1119 1.400 . S
C1120 C1123 1.386 . S
H1121 C1137 0.930 . S
H1122 C1138 0.931 1_554 S
C1123 H1111 0.929 . S
C1123 C1117 1.390 1_545 S
C1123 C1120 1.386 . S
C1124 C1119 1.490 . S
C1124 C1126 1.395 1_545 S
C1124 C1127 1.403 . S
H1125 C1131 0.930 1_556 S
C1126 H1112 0.930 . S
C1126 C1124 1.395 1_565 S
C1126 C1129 1.403 . S
C1127 C1124 1.403 . S
C1127 C1128 1.524 . S
C1127 C1131 1.400 . S
C1128 H1113 0.960 1_554 S
C1128 H1114 0.960 1_554 S
C1128 H1115 0.960 . S
C1128 C1127 1.524 . S
C1129 C1126 1.403 . S
C1129 C1130 1.392 1_565 S
C1129 C1133 1.495 . S
C1130 C1129 1.392 1_545 S
C1130 C1131 1.385 . S
C1130 C1132 1.478 1_554 S
C1131 H1125 0.930 1_554 S
C1131 C1127 1.400 . S
C1131 C1130 1.385 . S
C1132 C1130 1.478 1_556 S
C1132 C1134 1.420 . S
C1132 C1138 1.383 . S
C1133 C1129 1.495 . S
C1133 H1139 0.959 . S
C1133 H1140 0.961 . S
C1133 H1141 0.960 . S
C1134 C1132 1.420 . S
C1134 C1135 1.413 . S
C1134 H1142 0.875 1_545 S
C1135 C1134 1.413 . S
C1135 C1136 1.383 . S
C1135 H1143 0.929 1_545 S
C1136 C1135 1.383 . S
C1136 C1137 1.377 . S
C1137 H1121 0.930 . S
C1137 C1136 1.377 . S
C1137 C1138 1.379 . S
C1138 H1122 0.931 1_556 S
C1138 C1132 1.383 . S
C1138 C1137 1.379 . S
H1139 C1133 0.959 . S
H1140 C1133 0.961 . S
H1141 C1133 0.960 . S
H1142 C1134 0.875 1_565 S
H1143 C1135 0.929 1_565 S
H1144 C1152 0.929 . S
H1145 C1154 0.930 . S
H1146 C1156 0.930 . S
H1147 C1159 0.929 . S
H1148 C1162 0.930 . S
H1149 C1164 0.960 . S
H1150 C1164 0.960 . S
H1151 C1164 0.960 . S
C1152 H1144 0.929 . S
C1152 C1153 1.377 . S
C1152 C1154 1.384 . S
C1153 C1152 1.377 . S
C1153 C1159 1.390 . S
C1154 H1145 0.930 . S
C1154 C1152 1.384 . S
C1154 C1155 1.372 . S
C1155 C1154 1.372 . S
C1155 C1156 1.400 . S
C1155 C1160 1.490 . S
C1156 H1146 0.930 . S
C1156 C1155 1.400 . S
C1156 C1159 1.386 . S
H1157 C1173 0.930 . S
H1158 C1174 0.931 . S
C1159 H1147 0.929 . S
C1159 C1153 1.390 . S
C1159 C1156 1.386 . S
C1160 C1155 1.490 . S
C1160 C1162 1.395 . S
C1160 C1163 1.403 . S
H1161 C1167 0.930 . S
C1162 H1148 0.930 . S
C1162 C1160 1.395 . S
C1162 C1165 1.403 . S
C1163 C1160 1.403 . S
C1163 C1164 1.524 . S
C1163 C1167 1.400 . S
C1164 H1149 0.960 . S
C1164 H1150 0.960 . S
C1164 H1151 0.960 . S
C1164 C1163 1.524 . S
C1165 C1162 1.403 . S
C1165 C1166 1.392 . S
C1165 C1169 1.495 . S
C1166 C1165 1.392 . S
C1166 C1167 1.385 . S
C1166 C1168 1.478 . S
C1167 H1161 0.930 . S
C1167 C1163 1.400 . S
C1167 C1166 1.385 . S
C1168 C1166 1.478 . S
C1168 C1170 1.381 . S
C1168 C1174 1.383 . S
C1169 C1165 1.495 . S
C1169 H1175 0.959 . S
C1169 H1176 0.961 . S
C1169 H1177 0.960 . S
C1170 C1168 1.381 . S
C1170 C1171 1.394 . S
C1170 H1178 0.930 . S
C1171 C1170 1.394 . S
C1171 C1172 1.383 . S
C1171 H1179 0.929 . S
C1172 C1171 1.383 . S
C1172 C1173 1.377 . S
C1173 H1157 0.930 . S
C1173 C1172 1.377 . S
C1173 C1174 1.379 . S
C1174 H1158 0.931 . S
C1174 C1168 1.383 . S
C1174 C1173 1.379 . S
H1175 C1169 0.959 . S
H1176 C1169 0.961 . S
H1177 C1169 0.960 . S
H1178 C1170 0.930 . S
H1179 C1171 0.929 . S
H1180 C1188 0.929 . S
H1181 C1190 0.930 . S
H1182 C1192 0.930 . S
H1183 C1195 0.929 . S
H1184 C1198 0.930 . S
H1185 C1200 0.960 . S
H1186 C1200 0.960 . S
H1187 C1200 0.960 1_554 S
C1188 H1180 0.929 . S
C1188 C1189 1.377 . S
C1188 C1190 1.384 . S
C1189 C1188 1.377 . S
C1189 C1195 1.390 . S
C1190 H1181 0.930 . S
C1190 C1188 1.384 . S
C1190 C1191 1.372 . S
C1191 C1190 1.372 . S
C1191 C1192 1.400 . S
C1191 C1196 1.490 . S
C1192 H1182 0.930 . S
C1192 C1191 1.400 . S
C1192 C1195 1.386 . S
H1193 C1209 0.930 . S
H1194 C1210 0.931 . S
C1195 H1183 0.929 . S
C1195 C1189 1.390 . S
C1195 C1192 1.386 . S
C1196 C1191 1.490 . S
C1196 C1198 1.395 . S
C1196 C1199 1.403 . S
H1197 C1203 0.930 . S
C1198 H1184 0.930 . S
C1198 C1196 1.395 . S
C1198 C1201 1.403 . S
C1199 C1196 1.403 . S
C1199 C1200 1.524 1_554 S
C1199 C1203 1.400 1_554 S
C1200 H1185 0.960 . S
C1200 H1186 0.960 . S
C1200 H1187 0.960 1_556 S
C1200 C1199 1.524 1_556 S
C1201 C1198 1.403 . S
C1201 C1202 1.392 . S
C1201 C1205 1.495 . S
C1202 C1201 1.392 . S
C1202 C1203 1.385 1_554 S
C1202 C1204 1.478 1_554 S
C1203 H1197 0.930 . S
C1203 C1199 1.400 1_556 S
C1203 C1202 1.385 1_556 S
C1204 C1202 1.478 1_556 S
C1204 C1206 1.381 . S
C1204 C1210 1.383 . S
C1205 C1201 1.495 . S
C1205 H1211 0.959 . S
C1205 H1212 0.961 . S
C1205 H1213 0.960 . S
C1206 C1204 1.381 . S
C1206 C1207 1.394 . S
C1206 H1214 0.930 . S
C1207 C1206 1.394 . S
C1207 C1208 1.383 . S
C1207 H1215 0.929 . S
C1208 C1207 1.383 . S
C1208 C1209 1.377 . S
C1209 H1193 0.930 . S
C1209 C1208 1.377 . S
C1209 C1210 1.379 . S
C1210 H1194 0.931 . S
C1210 C1204 1.383 . S
C1210 C1209 1.379 . S
H1211 C1205 0.959 . S
H1212 C1205 0.961 . S
H1213 C1205 0.960 . S
H1214 C1206 0.930 . S
H1215 C1207 0.929 . S
H1216 C1224 0.929 . S
H1217 C1226 0.930 . S
H1218 C1228 0.930 . S
H1219 C1231 0.929 . S
H1220 C1234 0.930 . S
H1221 C1236 0.960 . S
H1222 C1236 0.960 1_554 S
H1223 C1236 0.960 . S
C1224 H1216 0.929 . S
C1224 C1225 1.377 . S
C1224 C1226 1.384 . S
C1225 C1224 1.377 . S
C1225 C1231 1.390 . S
C1226 H1217 0.930 . S
C1226 C1224 1.384 . S
C1226 C1227 1.372 . S
C1227 C1226 1.372 . S
C1227 C1228 1.400 . S
C1227 C1232 1.490 . S
C1228 H1218 0.930 . S
C1228 C1227 1.400 . S
C1228 C1231 1.386 . S
H1229 C1245 0.930 . S
H1230 C1246 0.931 . S
C1231 H1219 0.929 . S
C1231 C1225 1.390 . S
C1231 C1228 1.386 . S
C1232 C1227 1.490 . S
C1232 C1234 1.395 . S
C1232 C1235 1.403 . S
H1233 C1239 0.930 . S
C1234 H1220 0.930 . S
C1234 C1232 1.395 . S
C1234 C1237 1.403 . S
C1235 C1232 1.403 . S
C1235 C1236 1.524 . S
C1235 C1239 1.400 . S
C1236 H1221 0.960 . S
C1236 H1222 0.960 1_556 S
C1236 H1223 0.960 . S
C1236 C1235 1.524 . S
C1237 C1234 1.403 . S
C1237 C1238 1.392 . S
C1237 C1241 1.495 . S
C1238 C1237 1.392 . S
C1238 C1239 1.385 . S
C1238 C1240 1.478 . S
C1239 H1233 0.930 . S
C1239 C1235 1.400 . S
C1239 C1238 1.385 . S
C1240 C1238 1.478 . S
C1240 C1242 1.381 . S
C1240 C1246 1.383 . S
C1241 C1237 1.495 . S
C1241 H1247 0.959 . S
C1241 H1248 0.961 . S
C1241 H1249 0.960 . S
C1242 C1240 1.381 . S
C1242 C1243 1.394 . S
C1242 H1250 0.930 . S
C1243 C1242 1.394 . S
C1243 C1244 1.383 . S
C1243 H1251 0.929 . S
C1244 C1243 1.383 . S
C1244 C1245 1.377 . S
C1245 H1229 0.930 . S
C1245 C1244 1.377 . S
C1245 C1246 1.379 . S
C1246 H1230 0.931 . S
C1246 C1240 1.383 . S
C1246 C1245 1.379 . S
H1247 C1241 0.959 . S
H1248 C1241 0.961 . S
H1249 C1241 0.960 . S
H1250 C1242 0.930 . S
H1251 C1243 0.929 . S
H1252 C1260 0.929 . S
H1253 C1262 0.930 . S
H1254 C1264 0.930 . S
H1255 C1267 0.929 . S
H1256 C1270 0.930 . S
H1257 C1272 0.960 . S
H1258 C1272 0.960 . S
H1259 C1272 0.960 . S
C1260 H1252 0.929 . S
C1260 C1261 1.355 1_565 S
C1260 C1262 1.384 . S
C1261 C1260 1.355 1_545 S
C1261 C1267 1.413 . S
C1262 H1253 0.930 . S
C1262 C1260 1.384 . S
C1262 C1263 1.353 1_565 S
C1263 C1262 1.353 1_545 S
C1263 C1264 1.418 . S
C1263 C1268 1.490 . S
C1264 H1254 0.930 . S
C1264 C1263 1.418 . S
C1264 C1267 1.386 . S
H1265 C1281 0.930 . S
H1266 C1282 0.931 . S
C1267 H1255 0.929 . S
C1267 C1261 1.413 . S
C1267 C1264 1.386 . S
C1268 C1263 1.490 . S
C1268 C1270 1.388 1_545 S
C1268 C1271 1.411 . S
H1269 C1275 0.930 . S
C1270 H1256 0.930 . S
C1270 C1268 1.388 1_565 S
C1270 C1273 1.403 . S
C1271 C1268 1.411 . S
C1271 C1272 1.524 . S
C1271 C1275 1.400 . S
C1272 H1257 0.960 . S
C1272 H1258 0.960 . S
C1272 H1259 0.960 . S
C1272 C1271 1.524 . S
C1273 C1270 1.403 . S
C1273 C1274 1.382 1_565 S
C1273 C1277 1.495 . S
C1274 C1273 1.382 1_545 S
C1274 C1275 1.395 . S
C1274 C1276 1.481 . S
C1275 H1269 0.930 . S
C1275 C1271 1.400 . S
C1275 C1274 1.395 . S
C1276 C1274 1.481 . S
C1276 C1278 1.381 1_545 S
C1276 C1282 1.383 . S
C1277 C1273 1.495 . S
C1277 H1283 0.959 . S
C1277 H1284 0.961 . S
C1277 H1285 0.960 . S
C1278 C1276 1.381 1_565 S
C1278 C1279 1.394 . S
C1278 H1286 0.930 . S
C1279 C1278 1.394 . S
C1279 C1280 1.383 1_565 S
C1279 H1287 0.929 . S
C1280 C1279 1.383 1_545 S
C1280 C1281 1.377 . S
C1281 H1265 0.930 . S
C1281 C1280 1.377 . S
C1281 C1282 1.379 . S
C1282 H1266 0.931 . S
C1282 C1276 1.383 . S
C1282 C1281 1.379 . S
H1283 C1277 0.959 . S
H1284 C1277 0.961 . S
H1285 C1277 0.960 . S
H1286 C1278 0.930 . S
H1287 C1279 0.929 . S
H1288 C1296 0.929 . S
H1289 C1298 0.930 . S
H1290 C1300 0.930 . S
H1291 C1303 0.929 . S
H1292 C1306 0.930 . S
H1293 C1308 0.960 . S
H1294 C1308 0.960 . S
H1295 C1308 0.960 . S
C1296 H1288 0.929 . S
C1296 C1297 1.377 . S
C1296 C1298 1.384 . S
C1297 C1296 1.377 . S
C1297 C1303 1.390 . S
C1298 H1289 0.930 . S
C1298 C1296 1.384 . S
C1298 C1299 1.372 . S
C1299 C1298 1.372 . S
C1299 C1300 1.400 . S
C1299 C1304 1.490 . S
C1300 H1290 0.930 . S
C1300 C1299 1.400 . S
C1300 C1303 1.386 . S
H1301 C1317 0.930 . S
H1302 C1318 0.931 . S
C1303 H1291 0.929 . S
C1303 C1297 1.390 . S
C1303 C1300 1.386 . S
C1304 C1299 1.490 . S
C1304 C1306 1.395 . S
C1304 C1307 1.403 . S
H1305 C1311 0.930 . S
C1306 H1292 0.930 . S
C1306 C1304 1.395 . S
C1306 C1309 1.403 . S
C1307 C1304 1.403 . S
C1307 C1308 1.524 . S
C1307 C1311 1.400 . S
C1308 H1293 0.960 . S
C1308 H1294 0.960 . S
C1308 H1295 0.960 . S
C1308 C1307 1.524 . S
C1309 C1306 1.403 . S
C1309 C1310 1.392 . S
C1309 C1313 1.495 1_554 S
C1310 C1309 1.392 . S
C1310 C1311 1.385 . S
C1310 C1312 1.478 . S
C1311 H1305 0.930 . S
C1311 C1307 1.400 . S
C1311 C1310 1.385 . S
C1312 C1310 1.478 . S
C1312 C1314 1.381 . S
C1312 C1318 1.383 . S
C1313 C1309 1.495 1_556 S
C1313 H1319 0.959 . S
C1313 H1320 0.961 . S
C1313 H1321 0.960 . S
C1314 C1312 1.381 . S
C1314 C1315 1.394 1_554 S
C1314 H1322 0.930 . S
C1315 C1314 1.394 1_556 S
C1315 C1316 1.383 . S
C1315 H1323 0.929 . S
C1316 C1315 1.383 . S
C1316 C1317 1.377 1_556 S
C1317 H1301 0.930 . S
C1317 C1316 1.377 1_554 S
C1317 C1318 1.379 . S
C1318 H1302 0.931 . S
C1318 C1312 1.383 . S
C1318 C1317 1.379 . S
H1319 C1313 0.959 . S
H1320 C1313 0.961 . S
H1321 C1313 0.960 . S
H1322 C1314 0.930 . S
H1323 C1315 0.929 . S
H1324 C1332 0.929 . S
H1325 C1334 0.930 . S
H1326 C1336 0.930 . S
H1327 C1339 0.929 . S
H1328 C1342 0.930 . S
H1329 C1344 0.960 . S
H1330 C1344 0.960 . S
H1331 C1344 0.960 . S
C1332 H1324 0.929 . S
C1332 C1333 1.377 . S
C1332 C1334 1.384 . S
C1333 C1332 1.377 . S
C1333 C1339 1.390 . S
C1334 H1325 0.930 . S
C1334 C1332 1.384 . S
C1334 C1335 1.372 . S
C1335 C1334 1.372 . S
C1335 C1336 1.400 . S
C1335 C1340 1.490 . S
C1336 H1326 0.930 . S
C1336 C1335 1.400 . S
C1336 C1339 1.386 . S
H1337 C1353 0.930 . S
H1338 C1354 0.931 . S
C1339 H1327 0.929 . S
C1339 C1333 1.390 . S
C1339 C1336 1.386 . S
C1340 C1335 1.490 . S
C1340 C1342 1.395 . S
C1340 C1343 1.403 . S
H1341 C1347 0.930 . S
C1342 H1328 0.930 . S
C1342 C1340 1.395 . S
C1342 C1345 1.403 . S
C1343 C1340 1.403 . S
C1343 C1344 1.524 . S
C1343 C1347 1.400 . S
C1344 H1329 0.960 . S
C1344 H1330 0.960 . S
C1344 H1331 0.960 . S
C1344 C1343 1.524 . S
C1345 C1342 1.403 . S
C1345 C1346 1.392 . S
C1345 C1349 1.495 . S
C1346 C1345 1.392 . S
C1346 C1347 1.385 . S
C1346 C1348 1.478 . S
C1347 H1341 0.930 . S
C1347 C1343 1.400 . S
C1347 C1346 1.385 . S
C1348 C1346 1.478 . S
C1348 C1350 1.381 . S
C1348 C1354 1.383 . S
C1349 C1345 1.495 . S
C1349 H1355 0.959 . S
C1349 H1356 0.961 . S
C1349 H1357 0.960 . S
C1350 C1348 1.381 . S
C1350 C1351 1.394 . S
C1350 H1358 0.930 . S
C1351 C1350 1.394 . S
C1351 C1352 1.383 . S
C1351 H1359 0.929 . S
C1352 C1351 1.383 . S
C1352 C1353 1.377 . S
C1353 H1337 0.930 . S
C1353 C1352 1.377 . S
C1353 C1354 1.379 . S
C1354 H1338 0.931 . S
C1354 C1348 1.383 . S
C1354 C1353 1.379 . S
H1355 C1349 0.959 . S
H1356 C1349 0.961 . S
H1357 C1349 0.960 . S
H1358 C1350 0.930 . S
H1359 C1351 0.929 . S
H1360 C1368 0.929 . S
H1361 C1370 0.930 . S
H1362 C1372 0.930 . S
H1363 C1375 0.929 . S
H1364 C1378 0.930 . S
H1365 C1380 0.960 . S
H1366 C1380 0.960 . S
H1367 C1380 0.960 . S
C1368 H1360 0.929 . S
C1368 C1369 1.377 . S
C1368 C1370 1.384 . S
C1369 C1368 1.377 . S
C1369 C1375 1.390 . S
C1370 H1361 0.930 . S
C1370 C1368 1.384 . S
C1370 C1371 1.372 . S
C1371 C1370 1.372 . S
C1371 C1372 1.400 . S
C1371 C1376 1.490 . S
C1372 H1362 0.930 . S
C1372 C1371 1.400 . S
C1372 C1375 1.386 . S
H1373 C1389 0.900 1_455 S
H1374 C1390 0.931 1_455 S
C1375 H1363 0.929 . S
C1375 C1369 1.390 . S
C1375 C1372 1.386 . S
C1376 C1371 1.490 . S
C1376 C1378 1.395 . S
C1376 C1379 1.403 . S
H1377 C1383 0.930 . S
C1378 H1364 0.930 . S
C1378 C1376 1.395 . S
C1378 C1381 1.403 . S
C1379 C1376 1.403 . S
C1379 C1380 1.524 . S
C1379 C1383 1.400 . S
C1380 H1365 0.960 . S
C1380 H1366 0.960 . S
C1380 H1367 0.960 . S
C1380 C1379 1.524 . S
C1381 C1378 1.403 . S
C1381 C1382 1.392 . S
C1381 C1385 1.495 . S
C1382 C1381 1.392 . S
C1382 C1383 1.385 . S
C1382 C1384 1.478 . S
C1383 H1377 0.930 . S
C1383 C1379 1.400 . S
C1383 C1382 1.385 . S
C1384 C1382 1.478 . S
C1384 C1386 1.381 . S
C1384 C1390 1.383 . S
C1385 C1381 1.495 . S
C1385 H1391 0.959 . S
C1385 H1392 1.018 . S
C1385 H1393 0.960 . S
C1386 C1384 1.381 . S
C1386 C1387 1.394 . S
C1386 H1394 0.930 . S
C1387 C1386 1.394 . S
C1387 C1388 1.383 . S
C1387 H1395 0.929 . S
C1388 C1387 1.383 . S
C1388 C1389 1.399 . S
C1389 H1373 0.900 1_655 S
C1389 C1388 1.399 . S
C1389 C1390 1.388 . S
C1390 H1374 0.931 1_655 S
C1390 C1384 1.383 . S
C1390 C1389 1.388 . S
H1391 C1385 0.959 . S
H1392 C1385 1.018 . S
H1393 C1385 0.960 . S
H1394 C1386 0.930 . S
H1395 C1387 0.929 . S
H1396 C1404 0.929 . S
H1397 C1406 0.930 . S
H1398 C1408 0.930 . S
H1399 C1411 0.929 . S
H1400 C1414 0.930 . S
H1401 C1416 0.960 . S
H1402 C1416 0.960 . S
H1403 C1416 0.960 . S
C1404 H1396 0.929 . S
C1404 C1405 1.408 . S
C1404 C1406 1.384 . S
C1405 C1404 1.408 . S
C1405 C1411 1.363 1_565 S
C1406 H1397 0.930 . S
C1406 C1404 1.384 . S
C1406 C1407 1.372 . S
C1407 C1406 1.372 . S
C1407 C1408 1.400 1_565 S
C1407 C1412 1.490 . S
C1408 H1398 0.930 . S
C1408 C1407 1.400 1_545 S
C1408 C1411 1.386 . S
H1409 C1425 0.930 . S
H1410 C1426 0.931 . S
C1411 H1399 0.929 . S
C1411 C1405 1.363 1_545 S
C1411 C1408 1.386 . S
C1412 C1407 1.490 . S
C1412 C1414 1.395 1_565 S
C1412 C1415 1.403 . S
H1413 C1419 0.930 . S
C1414 H1400 0.930 . S
C1414 C1412 1.395 1_545 S
C1414 C1417 1.403 . S
C1415 C1412 1.403 . S
C1415 C1416 1.524 . S
C1415 C1419 1.400 . S
C1416 H1401 0.960 . S
C1416 H1402 0.960 . S
C1416 H1403 0.960 . S
C1416 C1415 1.524 . S
C1417 C1414 1.403 . S
C1417 C1418 1.392 1_545 S
C1417 C1421 1.495 . S
C1418 C1417 1.392 1_565 S
C1418 C1419 1.385 . S
C1418 C1420 1.478 . S
C1419 H1413 0.930 . S
C1419 C1415 1.400 . S
C1419 C1418 1.385 . S
C1420 C1418 1.478 . S
C1420 C1422 1.381 . S
C1420 C1426 1.383 1_565 S
C1421 C1417 1.495 . S
C1421 H1427 0.959 . S
C1421 H1428 0.961 . S
C1421 H1429 0.960 . S
C1422 C1420 1.381 . S
C1422 C1423 1.394 . S
C1422 H1430 0.930 . S
C1423 C1422 1.394 . S
C1423 C1424 1.383 . S
C1423 H1431 0.929 . S
C1424 C1423 1.383 . S
C1424 C1425 1.377 1_565 S
C1425 H1409 0.930 . S
C1425 C1424 1.377 1_545 S
C1425 C1426 1.379 . S
C1426 H1410 0.931 . S
C1426 C1420 1.383 1_545 S
C1426 C1425 1.379 . S
H1427 C1421 0.959 . S
H1428 C1421 0.961 . S
H1429 C1421 0.960 . S
H1430 C1422 0.930 . S
H1431 C1423 0.929 . S
H1432 C1440 0.929 . S
H1433 C1442 0.930 . S
H1434 C1444 0.930 . S
H1435 C1447 0.929 . S
H1436 C1450 0.930 . S
H1437 C1452 0.960 . S
H1438 C1452 0.960 . S
H1439 C1452 0.960 . S
C1440 H1432 0.929 . S
C1440 C1441 1.377 . S
C1440 C1442 1.384 . S
C1441 C1440 1.377 . S
C1441 C1447 1.390 . S
C1442 H1433 0.930 . S
C1442 C1440 1.384 . S
C1442 C1443 1.372 . S
C1443 C1442 1.372 . S
C1443 C1444 1.400 . S
C1443 C1448 1.490 . S
C1444 H1434 0.930 . S
C1444 C1443 1.400 . S
C1444 C1447 1.386 . S
H1445 C1461 0.930 . S
H1446 C1462 0.931 . S
C1447 H1435 0.929 . S
C1447 C1441 1.390 . S
C1447 C1444 1.386 . S
C1448 C1443 1.490 . S
C1448 C1450 1.395 . S
C1448 C1451 1.403 . S
H1449 C1455 0.930 . S
C1450 H1436 0.930 . S
C1450 C1448 1.395 . S
C1450 C1453 1.403 . S
C1451 C1448 1.403 . S
C1451 C1452 1.524 . S
C1451 C1455 1.400 . S
C1452 H1437 0.960 . S
C1452 H1438 0.960 . S
C1452 H1439 0.960 . S
C1452 C1451 1.524 . S
C1453 C1450 1.403 . S
C1453 C1454 1.392 . S
C1453 C1457 1.495 . S
C1454 C1453 1.392 . S
C1454 C1455 1.385 . S
C1454 C1456 1.478 . S
C1455 H1449 0.930 . S
C1455 C1451 1.400 . S
C1455 C1454 1.385 . S
C1456 C1454 1.478 . S
C1456 C1458 1.381 . S
C1456 C1462 1.383 . S
C1457 C1453 1.495 . S
C1457 H1463 0.959 . S
C1457 H1464 0.961 . S
C1457 H1465 0.960 . S
C1458 C1456 1.381 . S
C1458 C1459 1.394 . S
C1458 H1466 0.930 . S
C1459 C1458 1.394 . S
C1459 C1460 1.383 . S
C1459 H1467 0.929 . S
C1460 C1459 1.383 . S
C1460 C1461 1.377 . S
C1461 H1445 0.930 . S
C1461 C1460 1.377 . S
C1461 C1462 1.379 . S
C1462 H1446 0.931 . S
C1462 C1456 1.383 . S
C1462 C1461 1.379 . S
H1463 C1457 0.959 . S
H1464 C1457 0.961 . S
H1465 C1457 0.960 . S
H1466 C1458 0.930 . S
H1467 C1459 0.929 . S
H1468 C1476 0.929 . S
H1469 C1478 0.930 . S
H1470 C1480 0.930 . S
H1471 C1483 0.929 . S
H1472 C1486 0.930 . S
H1473 C1488 0.960 . S
H1474 C1488 0.960 . S
H1475 C1488 0.960 . S
C1476 H1468 0.929 . S
C1476 C1477 1.377 . S
C1476 C1478 1.384 . S
C1477 C1476 1.377 . S
C1477 C1483 1.390 . S
C1478 H1469 0.930 . S
C1478 C1476 1.384 . S
C1478 C1479 1.372 . S
C1479 C1478 1.372 . S
C1479 C1480 1.400 . S
C1479 C1484 1.490 . S
C1480 H1470 0.930 . S
C1480 C1479 1.400 . S
C1480 C1483 1.386 . S
H1481 C1497 0.930 . S
H1482 C1498 0.931 . S
C1483 H1471 0.929 . S
C1483 C1477 1.390 . S
C1483 C1480 1.386 . S
C1484 C1479 1.490 . S
C1484 C1486 1.395 . S
C1484 C1487 1.403 . S
H1485 C1491 0.930 . S
C1486 H1472 0.930 . S
C1486 C1484 1.395 . S
C1486 C1489 1.403 . S
C1487 C1484 1.403 . S
C1487 C1488 1.524 . S
C1487 C1491 1.400 . S
C1488 H1473 0.960 . S
C1488 H1474 0.960 . S
C1488 H1475 0.960 . S
C1488 C1487 1.524 . S
C1489 C1486 1.403 . S
C1489 C1490 1.392 . S
C1489 C1493 1.495 . S
C1490 C1489 1.392 . S
C1490 C1491 1.385 . S
C1490 C1492 1.478 . S
C1491 H1485 0.930 . S
C1491 C1487 1.400 . S
C1491 C1490 1.385 . S
C1492 C1490 1.478 . S
C1492 C1494 1.381 . S
C1492 C1498 1.383 . S
C1493 C1489 1.495 . S
C1493 H1499 0.959 . S
C1493 H1500 0.961 . S
C1493 H1501 0.960 . S
C1494 C1492 1.381 . S
C1494 C1495 1.394 . S
C1494 H1502 0.930 . S
C1495 C1494 1.394 . S
C1495 C1496 1.383 . S
C1495 H1503 0.929 . S
C1496 C1495 1.383 . S
C1496 C1497 1.377 . S
C1497 H1481 0.930 . S
C1497 C1496 1.377 . S
C1497 C1498 1.379 . S
C1498 H1482 0.931 . S
C1498 C1492 1.383 . S
C1498 C1497 1.379 . S
H1499 C1493 0.959 . S
H1500 C1493 0.961 . S
H1501 C1493 0.960 . S
H1502 C1494 0.930 . S
H1503 C1495 0.929 . S
C649 C391 1.969 1_565 S
C668 C503 2.026 . S
C704 C543 1.565 . S
C685 C451 1.558 . S
C740 C562 2.075 . S
C721 C241 1.828 . S
C776 C623 1.642 . S
C757 C331 1.417 . S
C812 C482 2.001 . S
C793 C121 1.756 1_545 S
C829 C211 1.511 . S
C848 C522 1.574 . S
C865 C31 2.052 . S
C884 C583 2.080 . S
C901 C91 1.480 . S
C920 C602 1.647 1_655 S
C956 C484 0.499 . S
C937 C301 0.596 . S
C992 C524 0.363 . S
C973 C380 0.189 . S
C1028 C580 0.610 . S
C1009 C440 0.553 . S
C1045 C260 0.507 . S
C1064 C604 0.364 . S
C1081 C61 0.534 . S
C1100 C505 0.451 . S
C1136 C545 0.341 . S
C1117 C140 0.531 . S
C1172 C591 0.471 . S
C1153 C200 0.593 . S
C1189 C20 0.190 . S
C1208 C625 0.255 . S
C1225 C320 2.253 1_556 S
C1244 C500 2.381 . S
C1261 C361 2.428 . S
C1280 C540 2.886 . S
C1316 C564 1.840 . S
C1297 C421 1.669 . S
C1352 C620 2.857 . S
C1333 C271 2.741 . S
C1369 C80 2.304 . S
C1388 C511 2.394 . S
C1424 C551 2.885 . S
C1405 C151 2.756 . S
C1460 C585 1.865 . S
C1441 C181 1.650 . S
C1477 C1 2.423 . S
C1496 C631 2.847 . S
