# Generated by pormake.
# Topology pyr, (3,6)-cn, num edge types: 1
# Building blocks:
#     Node 0, Type 0, BuildingBlock: BETDIP_clean_linker_0, # of connection points: 3
#     Node 1, Type 0, BuildingBlock: BETDIP_clean_linker_0, # of connection points: 3
#     Node 2, Type 0, BuildingBlock: BETDIP_clean_linker_0, # of connection points: 3
#     Node 3, Type 0, BuildingBlock: BETDIP_clean_linker_0, # of connection points: 3
#     Node 4, Type 0, BuildingBlock: BETDIP_clean_linker_0, # of connection points: 3
#     Node 5, Type 0, BuildingBlock: BETDIP_clean_linker_0, # of connection points: 3
#     Node 6, Type 0, BuildingBlock: BETDIP_clean_linker_0, # of connection points: 3
#     Node 7, Type 0, BuildingBlock: BETDIP_clean_linker_0, # of connection points: 3
#     Node 8, Type 1, BuildingBlock: CIFDUS_clean_sbu_1, # of connection points: 6
#     Node 9, Type 1, BuildingBlock: CIFDUS_clean_sbu_1, # of connection points: 6
#     Node 10, Type 1, BuildingBlock: CIFDUS_clean_sbu_1, # of connection points: 6
#     Node 11, Type 1, BuildingBlock: CIFDUS_clean_sbu_1, # of connection points: 6
#     Edge 12, Type (0, 1), BuildingBlock: ZUJKAS_clean_linker_0, # of connection points: 2
#     Edge 13, Type (0, 1), BuildingBlock: ZUJKAS_clean_linker_0, # of connection points: 2
#     Edge 14, Type (0, 1), BuildingBlock: ZUJKAS_clean_linker_0, # of connection points: 2
#     Edge 15, Type (0, 1), BuildingBlock: ZUJKAS_clean_linker_0, # of connection points: 2
#     Edge 16, Type (0, 1), BuildingBlock: ZUJKAS_clean_linker_0, # of connection points: 2
#     Edge 17, Type (0, 1), BuildingBlock: ZUJKAS_clean_linker_0, # of connection points: 2
#     Edge 18, Type (0, 1), BuildingBlock: ZUJKAS_clean_linker_0, # of connection points: 2
#     Edge 19, Type (0, 1), BuildingBlock: ZUJKAS_clean_linker_0, # of connection points: 2
#     Edge 20, Type (0, 1), BuildingBlock: ZUJKAS_clean_linker_0, # of connection points: 2
#     Edge 21, Type (0, 1), BuildingBlock: ZUJKAS_clean_linker_0, # of connection points: 2
#     Edge 22, Type (0, 1), BuildingBlock: ZUJKAS_clean_linker_0, # of connection points: 2
#     Edge 23, Type (0, 1), BuildingBlock: ZUJKAS_clean_linker_0, # of connection points: 2
#     Edge 24, Type (0, 1), BuildingBlock: ZUJKAS_clean_linker_0, # of connection points: 2
#     Edge 25, Type (0, 1), BuildingBlock: ZUJKAS_clean_linker_0, # of connection points: 2
#     Edge 26, Type (0, 1), BuildingBlock: ZUJKAS_clean_linker_0, # of connection points: 2
#     Edge 27, Type (0, 1), BuildingBlock: ZUJKAS_clean_linker_0, # of connection points: 2
#     Edge 28, Type (0, 1), BuildingBlock: ZUJKAS_clean_linker_0, # of connection points: 2
#     Edge 29, Type (0, 1), BuildingBlock: ZUJKAS_clean_linker_0, # of connection points: 2
#     Edge 30, Type (0, 1), BuildingBlock: ZUJKAS_clean_linker_0, # of connection points: 2
#     Edge 31, Type (0, 1), BuildingBlock: ZUJKAS_clean_linker_0, # of connection points: 2
#     Edge 32, Type (0, 1), BuildingBlock: ZUJKAS_clean_linker_0, # of connection points: 2
#     Edge 33, Type (0, 1), BuildingBlock: ZUJKAS_clean_linker_0, # of connection points: 2
#     Edge 34, Type (0, 1), BuildingBlock: ZUJKAS_clean_linker_0, # of connection points: 2
#     Edge 35, Type (0, 1), BuildingBlock: ZUJKAS_clean_linker_0, # of connection points: 2
# Relax obj value: 0.083
# Max RMSD: 0.174
# Mean RMSD: 0.139
data_MOF--net-pry--node1-CIFDUS_clean_sbu_1--node2-BETDIP_clean_linker_0--edge1-ZUJKAS_clean_linker_0
_symmetry_space_group_name_H-M    P1
_symmetry_Int_Tables_number       1
_symmetry_cell_setting            triclinic
loop_
_symmetry_equiv_pos_as_xyz
'x, y, z'
_cell_length_a     47.30087
_cell_length_b     44.986483
_cell_length_c     46.254441
_cell_angle_alpha  94.866658
_cell_angle_beta   87.108083
_cell_angle_gamma 96.922191
loop_
_atom_site_label
_atom_site_type_symbol
_atom_site_fract_x
_atom_site_fract_y
_atom_site_fract_z
_atom_type_partial_charge
H0 H 0.13003 0.18421 0.2109 0.0
H1 H 0.19046 0.17166 0.13974 0.0
H2 H 0.19258 0.12269 0.21516 0.0
H3 H 0.15929 0.18952 0.11406 0.0
C4 C 0.14857 0.20525 0.12852 0.0
C5 C 0.14772 0.17314 0.20121 0.0
C6 C 0.15984 0.15242 0.2166 0.0
C7 C 0.15824 0.17995 0.17334 0.0
C8 C 0.18175 0.16629 0.16096 0.0
C9 C 0.19435 0.14559 0.17588 0.0
C10 C 0.18312 0.13873 0.20362 0.0
N11 N 0.14513 0.20116 0.15879 0.0
H12 H 0.35927 0.92704 0.68592 0.0
H13 H 0.36494 0.85919 0.61537 0.0
H14 H 0.42612 0.86949 0.68186 0.0
H15 H 0.33046 0.87762 0.59686 0.0
C16 C 0.32141 0.894 0.61197 0.0
C17 C 0.37026 0.90923 0.67494 0.0
C18 C 0.3941 0.90017 0.68728 0.0
C19 C 0.35967 0.895 0.64892 0.0
C20 C 0.37318 0.87115 0.63496 0.0
C21 C 0.39706 0.86169 0.64684 0.0
C22 C 0.40742 0.87639 0.67293 0.0
N23 N 0.33492 0.90485 0.63825 0.0
H24 H 0.72612 0.36263 0.81174 0.0
H25 H 0.65975 0.28858 0.804 0.0
H26 H 0.71839 0.29486 0.87287 0.0
H27 H 0.6571 0.30163 0.75902 0.0
C28 C 0.66426 0.32545 0.7589 0.0
C29 C 0.71547 0.34198 0.81959 0.0
C30 C 0.72513 0.33069 0.84428 0.0
C31 C 0.69243 0.32673 0.80443 0.0
C32 C 0.6784 0.29989 0.81455 0.0
C33 C 0.68759 0.28819 0.83932 0.0
C34 C 0.71114 0.30367 0.85382 0.0
N35 N 0.68349 0.33983 0.7799 0.0
H36 H 0.85071 0.62076 0.38803 0.0
H37 H 0.92763 0.68232 0.39483 0.0
H38 H 0.87169 0.66854 0.46989 0.0
H39 H 0.93286 0.67396 0.34748 0.0
C40 C 0.91543 0.65856 0.33865 0.0
C41 C 0.86534 0.63611 0.40108 0.0
C42 C 0.85859 0.64276 0.43057 0.0
C43 C 0.8899 0.65039 0.38773 0.0
C44 C 0.90864 0.67079 0.40462 0.0
C45 C 0.90221 0.67738 0.43438 0.0
C46 C 0.87705 0.66335 0.44709 0.0
N47 N 0.89381 0.64455 0.35715 0.0
H48 H 0.81792 0.85868 0.92695 0.0
H49 H 0.87884 0.84486 0.85648 0.0
H50 H 0.81747 0.90707 0.85063 0.0
H51 H 0.90341 0.82854 0.89142 0.0
C52 C 0.88773 0.81816 0.90656 0.0
C53 C 0.82646 0.86371 0.9055 0.0
C54 C 0.81485 0.88493 0.89039 0.0
C55 C 0.84963 0.84939 0.89376 0.0
C56 C 0.86117 0.85599 0.866 0.0
C57 C 0.84991 0.87714 0.85037 0.0
C58 C 0.82675 0.89139 0.86281 0.0
N59 N 0.86029 0.82823 0.91044 0.0
H60 H 0.65105 0.11027 0.37887 0.0
H61 H 0.64641 0.17697 0.45047 0.0
H62 H 0.58989 0.17395 0.38021 0.0
H63 H 0.68816 0.16681 0.46082 0.0
C64 C 0.69284 0.14566 0.44974 0.0
C65 C 0.64141 0.12928 0.38935 0.0
C66 C 0.6187 0.14001 0.37655 0.0
C67 C 0.65211 0.14284 0.41555 0.0
C68 C 0.63932 0.1671 0.42962 0.0
C69 C 0.61684 0.17863 0.41708 0.0
C70 C 0.6066 0.16479 0.39055 0.0
N71 N 0.67591 0.13158 0.42669 0.0
H72 H 0.28966 0.67582 0.24912 0.0
H73 H 0.35267 0.75215 0.26295 0.0
H74 H 0.30183 0.74312 0.18753 0.0
H75 H 0.35606 0.7367 0.30609 0.0
C76 C 0.34814 0.71304 0.30592 0.0
C77 C 0.30053 0.69672 0.24204 0.0
C78 C 0.29271 0.70782 0.21644 0.0
C79 C 0.322 0.71242 0.25904 0.0
C80 C 0.33605 0.73979 0.25015 0.0
C81 C 0.32882 0.75134 0.22443 0.0
C82 C 0.30705 0.73509 0.20781 0.0
N83 N 0.32934 0.69928 0.28426 0.0
H84 H 0.10588 0.33807 0.66399 0.0
H85 H 0.17855 0.40387 0.67765 0.0
H86 H 0.1601 0.36728 0.59141 0.0
H87 H 0.15468 0.41812 0.71714 0.0
C88 C 0.14275 0.39795 0.72477 0.0
C89 C 0.12368 0.35238 0.65508 0.0
C90 C 0.13076 0.34994 0.62501 0.0
C91 C 0.14006 0.37256 0.67419 0.0
C92 C 0.16458 0.38954 0.66319 0.0
C93 C 0.1719 0.38752 0.63339 0.0
C94 C 0.1544 0.36852 0.61442 0.0
N95 N 0.13226 0.37412 0.70443 0.0
O96 O 0.9656 0.02713 0.52047 0.0
Mn97 Mn 1.00359 0.01379 0.53346 0.0
O98 O 0.95365 0.99895 0.4793 0.0
Mn99 Mn 0.98728 0.98142 0.4733 0.0
O100 O 0.04158 1.00057 0.54645 0.0
O101 O 0.00985 0.05198 0.55877 0.0
Mn102 Mn 0.01877 0.0454 0.59391 0.0
O103 O 0.98035 0.99166 0.56744 0.0
O104 O 0.05231 0.02753 0.5886 0.0
O105 O 0.02665 0.03544 0.49922 0.0
O106 O 0.01806 0.00543 0.45819 0.0
O107 O 0.01865 0.08651 0.5936 0.0
O108 O 0.98761 0.02179 0.60847 0.0
C109 C 0.9954 0.94751 0.50098 0.0
C110 C 0.9485 0.01874 0.49975 0.0
C111 C 0.0581 0.0084 0.56775 0.0
C112 C 0.01223 0.08021 0.56674 0.0
C113 C 0.97508 0.99862 0.59467 0.0
C114 C 0.03113 0.02841 0.47186 0.0
O115 O 0.99732 0.97578 0.50826 0.0
O116 O 0.98793 0.94036 0.47456 0.0
O117 O 0.49044 0.0095 0.98923 0.0
Mn118 Mn 0.5061 0.02026 0.03113 0.0
O119 O 0.48169 0.95915 0.98323 0.0
Mn120 Mn 0.50072 0.95196 1.0154 0.0
O121 O 0.52177 0.03126 0.07305 0.0
O122 O 0.52027 0.06165 0.01886 0.0
Mn123 Mn 0.51059 0.08863 0.04629 0.0
O124 O 0.46611 0.03363 0.04533 0.0
O125 O 0.5291 0.08176 0.07888 0.0
O126 O 0.54604 0.00671 0.01696 0.0
O127 O 0.54004 0.95619 1.01156 0.0
O128 O 0.52981 0.11019 0.01791 0.0
O129 O 0.47123 0.08412 0.04946 0.0
C130 C 0.48031 0.95652 0.05738 0.0
C131 C 0.48075 0.98512 0.97453 0.0
C132 C 0.53077 0.05596 0.08767 0.0
C133 C 0.53216 0.08393 1.0049 0.0
C134 C 0.45581 0.05892 0.0502 0.0
C135 C 0.55587 0.98122 1.01149 0.0
O136 O 0.49188 0.97886 0.04331 0.0
O137 O 0.48205 0.93031 0.04401 0.0
O138 O 0.55389 0.53613 0.51906 0.0
Mn139 Mn 0.51159 0.52377 0.53211 0.0
O140 O 0.55707 0.5256 0.4705 0.0
Mn141 Mn 0.52079 0.50506 0.46646 0.0
O142 O 0.46941 0.51153 0.54517 0.0
O143 O 0.52389 0.52266 0.5732 0.0
Mn144 Mn 0.50268 0.54456 0.5968 0.0
O145 O 0.50528 0.56954 0.53863 0.0
O146 O 0.46539 0.52656 0.59277 0.0
O147 O 0.51786 0.4781 0.52497 0.0
O148 O 0.51601 0.46591 0.47679 0.0
O149 O 0.52718 0.52973 0.62011 0.0
O150 O 0.50968 0.5834 0.58607 0.0
C151 C 0.48552 0.53109 0.46953 0.0
C152 C 0.56786 0.53635 0.49449 0.0
C153 C 0.45476 0.51412 0.56923 0.0
C154 C 0.53624 0.51662 0.59602 0.0
C155 C 0.5071 0.58971 0.56014 0.0
C156 C 0.51743 0.4588 0.50271 0.0
O157 O 0.49904 0.52473 0.49133 0.0
O158 O 0.49449 0.51953 0.44471 0.0
O159 O 0.97716 0.49736 1.004 0.0
Mn160 Mn 0.01194 0.51591 0.02837 0.0
O161 O 0.98384 0.51816 0.96108 0.0
Mn162 Mn 0.01883 0.54119 0.96796 0.0
O163 O 0.04668 0.53459 0.05273 0.0
O164 O 0.9884 0.51099 0.0651 0.0
Mn165 Mn 0.00503 0.49122 0.08923 0.0
O166 O 0.02544 0.47266 0.02899 0.0
O167 O 0.03971 0.51486 0.09615 0.0
O168 O 0.99839 0.5592 0.02807 0.0
O169 O 0.01708 0.57845 0.98722 0.0
O170 O 0.97209 0.50225 0.10828 0.0
O171 O 0.00739 0.45387 0.07036 0.0
C172 C 0.05405 0.51578 0.97074 0.0
C173 C 0.96935 0.50068 0.97829 0.0
C174 C 0.05427 0.53198 0.07868 0.0
C175 C 0.96953 0.51613 0.08535 0.0
C176 C 0.01997 0.4508 0.04553 0.0
C177 C 0.00424 0.58132 1.01192 0.0
O178 O 0.03546 0.52064 0.99143 0.0
O179 O 0.05137 0.53023 0.9482 0.0
H180 H 0.18903 0.14331 0.26445 0.0
H181 H 0.16933 0.12702 0.31125 0.0
H182 H 0.08423 0.12875 0.28272 0.0
H183 H 0.10365 0.14392 0.23551 0.0
H184 H 0.13298 0.15207 0.35447 0.0
H185 H 0.08327 0.04266 0.30506 0.0
H186 H 0.10909 0.06706 0.28546 0.0
H187 H 0.07263 0.07479 0.28983 0.0
C188 C 0.1661 0.14004 0.26801 0.0
C189 C 0.14796 0.1446 0.24595 0.0
C190 C 0.15488 0.13101 0.29493 0.0
C191 C 0.12529 0.12624 0.3004 0.0
C192 C 0.10714 0.13183 0.27886 0.0
H193 H 0.03107 0.08802 0.46384 0.0
H194 H 0.05649 0.11486 0.42436 0.0
C195 C 0.11831 0.1408 0.25193 0.0
C196 C 0.11344 0.11414 0.32806 0.0
H197 H 0.07275 0.05394 0.35493 0.0
C198 C 0.11981 0.13061 0.35463 0.0
C199 C 0.09657 0.08596 0.3283 0.0
C200 C 0.09016 0.06641 0.30069 0.0
C201 C 0.10953 0.11974 0.38136 0.0
C202 C 0.09221 0.0918 0.3815 0.0
C203 C 0.08597 0.07539 0.3549 0.0
C204 C 0.08071 0.0784 0.40871 0.0
C205 C 0.1178 0.13789 0.4092 0.0
C206 C 0.08626 0.0493 0.41358 0.0
C207 C 0.07171 0.03404 0.43594 0.0
C208 C 0.05151 0.04761 0.4542 0.0
C209 C 0.04719 0.07742 0.45064 0.0
C210 C 0.06162 0.09269 0.42796 0.0
H211 H 0.13671 0.15461 0.40578 0.0
H212 H 0.0998 0.15025 0.41769 0.0
H213 H 0.12251 0.12309 0.42594 0.0
H214 H 0.10084 0.03777 0.39909 0.0
H215 H 0.07512 0.01093 0.43801 0.0
H216 H 0.41356 0.87375 0.73255 0.0
H217 H 0.42904 0.89767 0.77943 0.0
H218 H 0.41292 0.9837 0.75362 0.0
H219 H 0.39801 0.96012 0.70627 0.0
H220 H 0.47381 0.948 0.79134 0.0
H221 H 0.36523 0.97175 0.83184 0.0
H222 H 0.37082 0.94445 0.80179 0.0
H223 H 0.3775 0.9838 0.79677 0.0
C224 C 0.41369 0.89783 0.73657 0.0
C225 C 0.40445 0.91495 0.71554 0.0
C226 C 0.42241 0.91144 0.76348 0.0
C227 C 0.42187 0.94239 0.77007 0.0
C228 C 0.41312 0.9597 0.74909 0.0
H229 H 0.49572 0.02646 0.9342 0.0
H230 H 0.48123 0.02242 0.88346 0.0
C231 C 0.40451 0.94613 0.72207 0.0
C232 C 0.43011 0.95619 0.79917 0.0
H233 H 0.40244 0.98413 0.86412 0.0
C234 C 0.45836 0.95637 0.80715 0.0
C235 C 0.40981 0.96695 0.81971 0.0
C236 C 0.37906 0.96668 0.81235 0.0
C237 C 0.46667 0.96616 0.83546 0.0
C238 C 0.4462 0.97612 0.85625 0.0
C239 C 0.41814 0.97682 0.84801 0.0
C240 C 0.45253 0.98156 0.88746 0.0
C241 C 0.49692 0.96429 0.84342 0.0
C242 C 0.44045 0.9606 0.90663 0.0
C243 C 0.4487 0.9628 0.93531 0.0
C244 C 0.46903 0.98622 0.94561 0.0
C245 C 0.47991 0.0083 0.9269 0.0
C246 C 0.47182 0.00588 0.89792 0.0
H247 H 0.50939 0.95313 0.82556 0.0
H248 H 0.50774 0.98728 0.84859 0.0
H249 H 0.49707 0.95171 0.86305 0.0
H250 H 0.4255 0.94172 0.89903 0.0
H251 H 0.43977 0.94556 0.94925 0.0
H252 H 0.62792 0.3039 0.71647 0.0
H253 H 0.61027 0.33139 0.67882 0.0
H254 H 0.66028 0.41254 0.71187 0.0
H255 H 0.67817 0.38517 0.74929 0.0
H256 H 0.57939 0.37978 0.68751 0.0
H257 H 0.67965 0.41161 0.62475 0.0
H258 H 0.67638 0.38285 0.6501 0.0
H259 H 0.68204 0.42189 0.66298 0.0
C260 C 0.63534 0.32755 0.7155 0.0
C261 C 0.65446 0.34232 0.73578 0.0
C262 C 0.62526 0.34322 0.69398 0.0
C263 C 0.63431 0.37393 0.69216 0.0
C264 C 0.65352 0.38871 0.71236 0.0
H265 H 0.58722 0.52591 0.62051 0.0
H266 H 0.61281 0.48734 0.63793 0.0
C267 C 0.66356 0.37306 0.73392 0.0
C268 C 0.62215 0.391 0.67052 0.0
H269 H 0.6402 0.43838 0.6168 0.0
C270 C 0.5926 0.39219 0.67169 0.0
C271 C 0.63942 0.40717 0.64987 0.0
C272 C 0.67111 0.40564 0.64659 0.0
C273 C 0.58002 0.41036 0.65395 0.0
C274 C 0.5974 0.42732 0.6339 0.0
C275 C 0.62685 0.42528 0.632 0.0
C276 C 0.58582 0.44997 0.61752 0.0
C277 C 0.54844 0.41254 0.6581 0.0
C278 C 0.56318 0.44191 0.59872 0.0
C279 C 0.54853 0.4641 0.58865 0.0
C280 C 0.5567 0.49455 0.59683 0.0
C281 C 0.58087 0.50257 0.61345 0.0
C282 C 0.5954 0.48051 0.62355 0.0
H283 H 0.53931 0.40276 0.67828 0.0
H284 H 0.54405 0.43631 0.65901 0.0
H285 H 0.53722 0.40007 0.63947 0.0
H286 H 0.55569 0.41848 0.59335 0.0
H287 H 0.52941 0.45733 0.57669 0.0
H288 H 0.87246 0.62669 0.3073 0.0
H289 H 0.8732 0.61204 0.25524 0.0
H290 H 0.95783 0.65882 0.24577 0.0
H291 H 0.957 0.67419 0.29805 0.0
H292 H 0.92127 0.66458 0.19871 0.0
H293 H 0.92253 0.54626 0.22437 0.0
H294 H 0.89317 0.56407 0.24107 0.0
H295 H 0.92893 0.57753 0.2512 0.0
C296 C 0.89119 0.63406 0.29418 0.0
C297 C 0.91494 0.65118 0.30682 0.0
C298 C 0.89153 0.62572 0.26438 0.0
C299 C 0.91571 0.63399 0.24671 0.0
C300 C 0.93896 0.6522 0.25903 0.0
H301 H 0.99127 0.5744 0.0884 0.0
H302 H 0.97132 0.61073 0.12314 0.0
C303 C 0.93854 0.66078 0.28887 0.0
C304 C 0.91773 0.62129 0.2161 0.0
H305 H 0.9205 0.55489 0.17539 0.0
C306 C 0.9209 0.64059 0.19348 0.0
C307 C 0.9174 0.59001 0.20938 0.0
C308 C 0.91559 0.56823 0.23273 0.0
C309 C 0.92369 0.62928 0.16423 0.0
C310 C 0.92355 0.59799 0.15761 0.0
C311 C 0.92 0.57884 0.18032 0.0
C312 C 0.93028 0.58419 0.12808 0.0
C313 C 0.92682 0.65088 0.14077 0.0
C314 C 0.9131 0.55836 0.11722 0.0
C315 C 0.92471 0.53736 0.09753 0.0
C316 C 0.95344 0.54218 0.08821 0.0
C317 C 0.96888 0.57038 0.09489 0.0
C318 C 0.95747 0.5912 0.11502 0.0
H319 H 0.91677 0.67153 0.14778 0.0
H320 H 0.94982 0.65769 0.13606 0.0
H321 H 0.91719 0.6404 0.1204 0.0
H322 H 0.892 0.55254 0.12684 0.0
H323 H 0.9125 0.51564 0.09294 0.0
H324 H 0.20501 0.0868 0.17626 0.0
H325 H 0.24579 0.06355 0.15361 0.0
H326 H 0.2805 0.1483 0.12194 0.0
H327 H 0.24027 0.17187 0.14494 0.0
H328 H 0.27789 0.09655 0.07922 0.0
H329 H 0.32977 0.07744 0.18046 0.0
H330 H 0.29244 0.06435 0.17773 0.0
H331 H 0.30398 0.10391 0.18004 0.0
C332 C 0.2215 0.10061 0.16481 0.0
C333 C 0.21927 0.13127 0.16245 0.0
C334 C 0.24476 0.08724 0.15181 0.0
C335 C 0.26626 0.10424 0.13624 0.0
C336 C 0.2641 0.13475 0.1338 0.0
H337 H 0.42457 0.10497 0.04543 0.0
H338 H 0.3764 0.11012 0.06432 0.0
C339 C 0.24098 0.14815 0.14685 0.0
C340 C 0.29093 0.09044 0.12203 0.0
H341 H 0.35324 0.0641 0.13612 0.0
C342 C 0.29422 0.08915 0.09164 0.0
C343 C 0.31204 0.08043 0.13823 0.0
C344 C 0.30966 0.08166 0.17094 0.0
C345 C 0.31848 0.07905 0.07707 0.0
C346 C 0.34038 0.07065 0.09335 0.0
C347 C 0.33646 0.07053 0.12365 0.0
C348 C 0.3688 0.06568 0.07979 0.0
C349 C 0.32062 0.07794 0.04435 0.0
C350 C 0.38085 0.03897 0.08234 0.0
C351 C 0.40874 0.03591 0.07148 0.0
C352 C 0.42512 0.05975 0.05838 0.0
C353 C 0.41264 0.08613 0.05539 0.0
C354 C 0.38492 0.08906 0.06601 0.0
H355 H 0.29916 0.07462 0.03504 0.0
H356 H 0.33163 0.09961 0.0376 0.0
H357 H 0.3329 0.05961 0.03503 0.0
H358 H 0.36888 0.02072 0.09314 0.0
H359 H 0.41784 0.01547 0.07439 0.0
H360 H 0.29014 0.87635 0.56461 0.0
H361 H 0.2458 0.89441 0.55174 0.0
H362 H 0.24797 0.95423 0.62975 0.0
H363 H 0.29219 0.93651 0.64262 0.0
H364 H 0.19302 0.89333 0.58421 0.0
H365 H 0.23922 0.00954 0.56501 0.0
H366 H 0.26085 0.97929 0.56642 0.0
H367 H 0.24762 0.99787 0.59943 0.0
C368 C 0.28116 0.89344 0.57892 0.0
C369 C 0.29468 0.90511 0.6045 0.0
C370 C 0.25587 0.90368 0.57157 0.0
C371 C 0.24385 0.92596 0.58957 0.0
C372 C 0.25719 0.93743 0.61528 0.0
H373 H 0.09807 0.01968 0.60909 0.0
H374 H 0.14252 0.99795 0.61095 0.0
C375 C 0.2824 0.92716 0.62267 0.0
C376 C 0.21706 0.93691 0.58194 0.0
H377 H 0.1885 1.00069 0.56997 0.0
C378 C 0.19201 0.91671 0.5807 0.0
C379 C 0.21592 0.96737 0.5772 0.0
C380 C 0.24238 0.98975 0.57678 0.0
C381 C 0.16554 0.92653 0.57633 0.0
C382 C 0.16428 0.95724 0.57268 0.0
C383 C 0.18951 0.97717 0.57287 0.0
C384 C 0.13685 0.96972 0.57096 0.0
C385 C 0.13899 0.9043 0.57698 0.0
C386 C 0.11887 0.96115 0.5477 0.0
C387 C 0.0932 0.97358 0.54651 0.0
C388 C 0.08516 0.99487 0.56855 0.0
C389 C 0.10342 0.00337 0.59171 0.0
C390 C 0.12894 0.99099 0.59283 0.0
H391 H 0.14298 0.88278 0.58527 0.0
H392 H 0.12184 0.91378 0.59079 0.0
H393 H 0.13121 0.8994 0.55465 0.0
H394 H 0.12481 0.94509 0.53035 0.0
H395 H 0.07976 0.96661 0.52831 0.0
H396 H 0.73606 0.39135 0.85817 0.0
H397 H 0.77685 0.41856 0.88338 0.0
H398 H 0.81002 0.33486 0.89257 0.0
H399 H 0.76966 0.30752 0.86676 0.0
H400 H 0.79614 0.41301 0.93987 0.0
H401 H 0.87672 0.38615 0.85296 0.0
H402 H 0.83896 0.38113 0.84706 0.0
H403 H 0.85462 0.35427 0.8659 0.0
C404 C 0.75216 0.37873 0.86531 0.0
C405 C 0.74966 0.34724 0.86021 0.0
C406 C 0.77534 0.3943 0.87994 0.0
C407 C 0.79664 0.37879 0.88959 0.0
C408 C 0.79402 0.34734 0.88499 0.0
H409 H 0.93358 0.45712 1.00491 0.0
H410 H 0.89119 0.42692 0.98516 0.0
C411 C 0.7708 0.33173 0.87043 0.0
C412 C 0.82179 0.39562 0.90406 0.0
H413 H 0.894 0.41238 0.89609 0.0
C414 C 0.81757 0.41283 0.93038 0.0
C415 C 0.84968 0.39556 0.8915 0.0
C416 C 0.85539 0.37852 0.86268 0.0
C417 C 0.84052 0.42999 0.94446 0.0
C418 C 0.86845 0.42969 0.93201 0.0
C419 C 0.87262 0.41241 0.90573 0.0
C420 C 0.89351 0.44846 0.94486 0.0
C421 C 0.83459 0.44898 0.97207 0.0
C422 C 0.90909 0.47036 0.92872 0.0
C423 C 0.93331 0.4875 0.93982 0.0
C424 C 0.94273 0.4831 0.96739 0.0
C425 C 0.92693 0.46126 0.9837 0.0
C426 C 0.9026 0.44405 0.97249 0.0
H427 H 0.8116 0.45179 0.97535 0.0
H428 H 0.84108 0.43796 0.99086 0.0
H429 H 0.84703 0.47153 0.97191 0.0
H430 H 0.90251 0.47417 0.90736 0.0
H431 H 0.94478 0.50407 0.92656 0.0
H432 H 0.83825 0.58375 0.4339 0.0
H433 H 0.79074 0.56333 0.45184 0.0
H434 H 0.76901 0.65347 0.47214 0.0
H435 H 0.81695 0.67373 0.4558 0.0
H436 H 0.74647 0.61894 0.51221 0.0
H437 H 0.72289 0.56052 0.40409 0.0
H438 H 0.75247 0.54777 0.42018 0.0
H439 H 0.75485 0.58588 0.41023 0.0
C440 C 0.82332 0.59905 0.44254 0.0
C441 C 0.83097 0.63022 0.44337 0.0
C442 C 0.79619 0.58745 0.45257 0.0
C443 C 0.77602 0.60687 0.4626 0.0
C444 C 0.78414 0.63803 0.46441 0.0
H445 H 0.59553 0.56778 0.45214 0.0
H446 H 0.64621 0.58559 0.4478 0.0
C447 C 0.81145 0.6496 0.45504 0.0
C448 C 0.74605 0.59507 0.46981 0.0
H449 H 0.68767 0.55296 0.44135 0.0
C450 C 0.73357 0.60449 0.49674 0.0
C451 C 0.72913 0.57653 0.44945 0.0
C452 C 0.7404 0.56732 0.41928 0.0
C453 C 0.70454 0.5964 0.50364 0.0
C454 C 0.68779 0.57748 0.48342 0.0
C455 C 0.70051 0.56743 0.45686 0.0
C456 C 0.65666 0.56917 0.48819 0.0
C457 C 0.69193 0.60926 0.53192 0.0
C458 C 0.64545 0.55457 0.51268 0.0
C459 C 0.61621 0.54504 0.51554 0.0
C460 C 0.598 0.5492 0.49353 0.0
C461 C 0.60918 0.56414 0.46932 0.0
C462 C 0.63814 0.57427 0.46682 0.0
H463 H 0.70536 0.62962 0.54083 0.0
H464 H 0.67018 0.61523 0.52918 0.0
H465 H 0.69053 0.59228 0.54814 0.0
H466 H 0.65935 0.5497 0.52911 0.0
H467 H 0.60808 0.53326 0.53427 0.0
H468 H 0.11767 0.24863 0.15571 0.0
H469 H 0.09768 0.28841 0.13317 0.0
H470 H 0.1324 0.2573 0.04958 0.0
H471 H 0.15204 0.2172 0.07194 0.0
H472 H 0.12515 0.33456 0.10264 0.0
H473 H 0.04919 0.26097 0.03265 0.0
H474 H 0.06644 0.24726 0.06195 0.0
H475 H 0.08555 0.25314 0.02795 0.0
C476 C 0.12094 0.25017 0.13252 0.0
C477 C 0.13628 0.22967 0.11553 0.0
C478 C 0.10954 0.27295 0.11965 0.0
C479 C 0.11315 0.27561 0.08958 0.0
C480 C 0.12877 0.25536 0.07268 0.0
H481 H 0.07287 0.44233 0.02139 0.0
H482 H 0.09775 0.39807 0.02554 0.0
C483 C 0.14013 0.23256 0.08552 0.0
C484 C 0.10099 0.29994 0.07611 0.0
H485 H 0.05284 0.31309 0.02731 0.0
C486 C 0.10948 0.32989 0.08603 0.0
C487 C 0.08044 0.29381 0.0545 0.0
C488 C 0.06962 0.26207 0.04375 0.0
C489 C 0.09766 0.35382 0.07538 0.0
C490 C 0.07709 0.34772 0.05376 0.0
C491 C 0.06893 0.31778 0.04349 0.0
C492 C 0.06123 0.37175 0.04456 0.0
C493 C 0.10632 0.38533 0.08839 0.0
C494 C 0.03198 0.37077 0.0517 0.0
C495 C 0.01772 0.39575 0.04894 0.0
C496 C 0.03235 0.42219 0.0388 0.0
C497 C 0.06094 0.42215 0.0289 0.0
C498 C 0.07529 0.39704 0.03173 0.0
H499 H 0.11832 0.38553 0.10847 0.0
H500 H 0.12021 0.39794 0.07243 0.0
H501 H 0.08732 0.39735 0.09367 0.0
H502 H 0.0206 0.35148 0.06142 0.0
H503 H 0.99569 0.39515 0.05676 0.0
H504 H 0.67357 0.27774 0.89599 0.0
H505 H 0.64788 0.23274 0.91502 0.0
H506 H 0.63934 0.19111 0.82796 0.0
H507 H 0.66593 0.23592 0.80868 0.0
H508 H 0.59262 0.20868 0.9029 0.0
H509 H 0.66881 0.1254 0.87162 0.0
H510 H 0.67906 0.16543 0.87208 0.0
H511 H 0.65872 0.14615 0.84298 0.0
C512 C 0.66671 0.25886 0.88084 0.0
C513 C 0.67203 0.26045 0.85077 0.0
C514 C 0.65184 0.23318 0.89177 0.0
C515 C 0.64197 0.20836 0.87297 0.0
C516 C 0.64718 0.20975 0.84293 0.0
H517 H 0.51169 0.08225 0.95112 0.0
H518 H 0.53872 0.10601 0.91091 0.0
C519 C 0.66209 0.23554 0.83193 0.0
C520 C 0.62499 0.18191 0.88512 0.0
H521 H 0.62579 0.10771 0.89603 0.0
C522 C 0.5997 0.18652 0.90112 0.0
C523 C 0.63437 0.15305 0.88291 0.0
C524 C 0.66182 0.14706 0.86667 0.0
C525 C 0.58396 0.16343 0.91569 0.0
C526 C 0.59335 0.13453 0.91368 0.0
C527 C 0.61836 0.12968 0.89715 0.0
C528 C 0.5792 0.11062 0.93163 0.0
C529 C 0.55819 0.17074 0.93439 0.0
C530 C 0.59348 0.10244 0.95509 0.0
C531 C 0.57813 0.08812 0.97767 0.0
C532 C 0.54837 0.08178 0.97706 0.0
C533 C 0.53471 0.08628 0.95181 0.0
C534 C 0.55009 0.10037 0.92906 0.0
H535 H 0.55717 0.19533 0.938 0.0
H536 H 0.53855 0.16052 0.92356 0.0
H537 H 0.55832 0.16146 0.95588 0.0
H538 H 0.61593 0.10997 0.9575 0.0
H539 H 0.58904 0.08547 0.99718 0.0
H540 H 0.88535 0.72344 0.47047 0.0
H541 H 0.91525 0.7633 0.49732 0.0
H542 H 0.99037 0.72322 0.46545 0.0
H543 H 0.96037 0.68334 0.43789 0.0
H544 H 0.95567 0.76573 0.53973 0.0
H545 H 0.00439 0.80603 0.43565 0.0
H546 H 0.9739 0.77791 0.43645 0.0
H547 H 0.00871 0.76826 0.4428 0.0
C548 C 0.90822 0.72287 0.46946 0.0
C549 C 0.92058 0.70045 0.4519 0.0
C550 C 0.92528 0.74561 0.48491 0.0
C551 C 0.95505 0.7464 0.48321 0.0
C552 C 0.96746 0.72331 0.46669 0.0
H553 H 0.04366 0.92247 0.50692 0.0
H554 H 0.04336 0.86957 0.51557 0.0
C555 C 0.95035 0.70063 0.45092 0.0
C556 C 0.9726 0.77315 0.49645 0.0
H557 H 0.01223 0.83734 0.47749 0.0
C558 C 0.96862 0.78117 0.52629 0.0
C559 C 0.98977 0.79312 0.47899 0.0
C560 C 0.99442 0.78614 0.44668 0.0
C561 C 0.97961 0.80957 0.53867 0.0
C562 C 0.9946 0.83051 0.52065 0.0
C563 C 1.0008 0.82134 0.49143 0.0
C564 C 0.99871 0.8633 0.52913 0.0
C565 C 0.97398 0.81726 0.57063 0.0
C566 C 0.97451 0.8781 0.5366 0.0
C567 C 0.9749 0.90846 0.53217 0.0
C568 C 0.99938 0.92424 0.5201 0.0
C569 C 0.02468 0.91076 0.51671 0.0
C570 C 0.02443 0.88045 0.52145 0.0
H571 H 0.97444 0.79723 0.58301 0.0
H572 H 0.98981 0.8356 0.57948 0.0
H573 H 0.95236 0.82449 0.57409 0.0
H574 H 0.95426 0.8655 0.54208 0.0
H575 H 0.95504 0.91836 0.53444 0.0
H576 H 0.41025 0.85007 0.58887 0.0
H577 H 0.43018 0.80588 0.56515 0.0
H578 H 0.43435 0.7707 0.64847 0.0
H579 H 0.41412 0.81449 0.67228 0.0
H580 H 0.4835 0.78258 0.57567 0.0
H581 H 0.38749 0.70272 0.59772 0.0
H582 H 0.38671 0.74289 0.5997 0.0
H583 H 0.40022 0.72583 0.62909 0.0
C584 C 0.41534 0.83286 0.60211 0.0
C585 C 0.4105 0.83572 0.63245 0.0
C586 C 0.42684 0.80773 0.58854 0.0
C587 C 0.4334 0.78489 0.60502 0.0
C588 C 0.4291 0.78793 0.63533 0.0
H589 H 0.5332 0.64089 0.58699 0.0
H590 H 0.51651 0.69042 0.59088 0.0
C591 C 0.41778 0.81309 0.64892 0.0
C592 C 0.44457 0.75768 0.59072 0.0
H593 H 0.43002 0.68137 0.58243 0.0
C594 C 0.47172 0.76045 0.5768 0.0
C595 C 0.42893 0.72893 0.59173 0.0
C596 C 0.3991 0.7248 0.60512 0.0
C597 C 0.48425 0.73498 0.56522 0.0
C598 C 0.4693 0.70608 0.56788 0.0
C599 C 0.44155 0.7035 0.58044 0.0
C600 C 0.48284 0.67812 0.5606 0.0
C601 C 0.51352 0.73922 0.55063 0.0
C602 C 0.46982 0.65477 0.54187 0.0
C603 C 0.47941 0.62635 0.53961 0.0
C604 C 0.50201 0.62083 0.55621 0.0
C605 C 0.51598 0.64467 0.57366 0.0
C606 C 0.50652 0.67303 0.5758 0.0
H607 H 0.51791 0.76164 0.54187 0.0
H608 H 0.52975 0.73773 0.5668 0.0
H609 H 0.51599 0.72161 0.53264 0.0
H610 H 0.45129 0.65807 0.53022 0.0
H611 H 0.46763 0.60816 0.52686 0.0
H612 H 0.86755 0.83903 0.80499 0.0
H613 H 0.88811 0.85234 0.7573 0.0
H614 H 0.8802 0.94564 0.78192 0.0
H615 H 0.86045 0.93274 0.82962 0.0
H616 H 0.86504 0.88302 0.71349 0.0
H617 H 0.96444 0.94588 0.75555 0.0
H618 H 0.94124 0.92051 0.77689 0.0
H619 H 0.93292 0.95806 0.77371 0.0
C620 C 0.87047 0.86242 0.80034 0.0
C621 C 0.86241 0.88482 0.82124 0.0
C622 C 0.88201 0.86994 0.77299 0.0
C623 C 0.88599 0.90002 0.76614 0.0
C624 C 0.8777 0.92233 0.78683 0.0
H625 H 0.93672 0.01617 0.63569 0.0
H626 H 0.91338 0.98682 0.67401 0.0
C627 C 0.86615 0.91486 0.81405 0.0
C628 C 0.89891 0.90851 0.73754 0.0
H629 H 0.953 0.95475 0.70743 0.0
C630 C 0.88453 0.89829 0.71203 0.0
C631 C 0.9245 0.92821 0.73561 0.0
C632 C 0.94185 0.93858 0.76186 0.0
C633 C 0.89425 0.90871 0.68495 0.0
C634 C 0.91891 0.9297 0.68344 0.0
C635 C 0.93396 0.93876 0.70868 0.0
C636 C 0.92819 0.94502 0.65676 0.0
C637 C 0.8775 0.89846 0.65833 0.0
C638 C 0.94333 0.93092 0.63359 0.0
C639 C 0.95661 0.94774 0.61132 0.0
C640 C 0.95507 0.97885 0.61226 0.0
C641 C 0.93823 0.99224 0.63441 0.0
C642 C 0.92494 0.97552 0.65637 0.0
H643 H 0.8583 0.88263 0.66321 0.0
H644 H 0.87078 0.91821 0.64881 0.0
H645 H 0.89125 0.88721 0.64172 0.0
H646 H 0.94628 0.90742 0.63365 0.0
H647 H 0.96982 0.93698 0.59477 0.0
H648 H 0.65051 0.122 0.32854 0.0
H649 H 0.63361 0.10061 0.28127 0.0
H650 H 0.54667 0.10468 0.31271 0.0
H651 H 0.56344 0.12621 0.36012 0.0
H652 H 0.59712 0.0489 0.2638 0.0
H653 H 0.55275 0.15325 0.24155 0.0
H654 H 0.57607 0.15199 0.27097 0.0
H655 H 0.53912 0.13727 0.27445 0.0
C656 C 0.62777 0.11804 0.32553 0.0
C657 C 0.60832 0.126 0.34808 0.0
C658 C 0.61815 0.10582 0.29847 0.0
C659 C 0.5889 0.10135 0.29333 0.0
C660 C 0.56937 0.10844 0.31602 0.0
H661 H 0.51552 0.01642 0.12973 0.0
H662 H 0.52938 0.02331 0.18073 0.0
C663 C 0.57898 0.1208 0.34307 0.0
C664 C 0.57909 0.09064 0.2638 0.0
H665 H 0.54642 0.11245 0.20629 0.0
C666 C 0.58586 0.06267 0.25124 0.0
C667 C 0.56463 0.10877 0.24738 0.0
C668 C 0.55789 0.1396 0.25909 0.0
C669 C 0.57886 0.05255 0.22254 0.0
C670 C 0.56454 0.07078 0.20616 0.0
C671 C 0.55729 0.09843 0.21896 0.0
C672 C 0.5589 0.06326 0.17491 0.0
C673 C 0.58771 0.02302 0.20957 0.0
C674 C 0.57131 0.08295 0.15469 0.0
C675 C 0.56332 0.07922 0.12592 0.0
C676 C 0.54277 0.05561 0.11657 0.0
C677 C 0.53158 0.03466 0.13631 0.0
C678 C 0.53947 0.0386 0.16541 0.0
H679 H 0.6027 0.01401 0.22339 0.0
H680 H 0.56854 0.00633 0.20714 0.0
H681 H 0.59798 0.02559 0.18766 0.0
H682 H 0.58645 0.10201 0.16147 0.0
H683 H 0.57248 0.09559 0.11117 0.0
H684 H 0.33134 0.65386 0.31579 0.0
H685 H 0.34856 0.62507 0.35248 0.0
H686 H 0.40377 0.70334 0.38371 0.0
H687 H 0.38612 0.73242 0.34744 0.0
H688 H 0.40216 0.61278 0.35692 0.0
H689 H 0.36926 0.67452 0.45945 0.0
H690 H 0.35546 0.68005 0.42486 0.0
H691 H 0.38995 0.69824 0.43497 0.0
C692 C 0.34689 0.66506 0.33068 0.0
C693 C 0.35738 0.69545 0.32876 0.0
C694 C 0.3567 0.64857 0.3517 0.0
C695 C 0.37714 0.66211 0.37127 0.0
C696 C 0.38746 0.69255 0.36947 0.0
H697 H 0.49477 0.59171 0.47581 0.0
H698 H 0.46445 0.62532 0.45649 0.0
C699 C 0.37755 0.70908 0.34854 0.0
C700 C 0.38935 0.64375 0.39179 0.0
H701 H 0.40289 0.63935 0.46326 0.0
C702 C 0.40197 0.61843 0.3802 0.0
C703 C 0.38933 0.6512 0.4222 0.0
C704 C 0.37503 0.67732 0.43617 0.0
C705 C 0.41507 0.60078 0.39795 0.0
C706 C 0.41525 0.60832 0.42829 0.0
C707 C 0.40258 0.63355 0.44003 0.0
C708 C 0.42958 0.59052 0.44754 0.0
C709 C 0.42935 0.57459 0.38395 0.0
C710 C 0.41924 0.56033 0.45068 0.0
C711 C 0.43646 0.54124 0.4619 0.0
C712 C 0.46403 0.55218 0.47056 0.0
C713 C 0.47325 0.58298 0.47007 0.0
C714 C 0.45604 0.60212 0.45878 0.0
H715 H 0.43215 0.57534 0.36002 0.0
H716 H 0.45056 0.57418 0.39306 0.0
H717 H 0.41605 0.55331 0.38846 0.0
H718 H 0.39884 0.55098 0.44222 0.0
H719 H 0.42923 0.51741 0.46136 0.0
H720 H 0.10975 0.35446 0.75447 0.0
H721 H 0.09774 0.35657 0.8069 0.0
H722 H 0.149 0.44242 0.81839 0.0
H723 H 0.16118 0.44033 0.76635 0.0
H724 H 0.15489 0.40168 0.86266 0.0
H725 H 0.04189 0.41509 0.84287 0.0
H726 H 0.05667 0.38287 0.82534 0.0
H727 H 0.06958 0.4197 0.8148 0.0
C728 C 0.1186 0.37364 0.76826 0.0
C729 C 0.13617 0.39743 0.75637 0.0
C730 C 0.11174 0.3748 0.79817 0.0
C731 C 0.12236 0.39975 0.81649 0.0
C732 C 0.14067 0.42291 0.80468 0.0
H733 H 0.10972 0.51695 0.95534 0.0
H734 H 0.12899 0.47695 0.92484 0.0
C735 C 0.14746 0.42179 0.77494 0.0
C736 C 0.11286 0.40351 0.84751 0.0
H737 H 0.05699 0.42536 0.89007 0.0
C738 C 0.1333 0.40617 0.86887 0.0
C739 C 0.08463 0.40898 0.85564 0.0
C740 C 0.06184 0.4067 0.83358 0.0
C741 C 0.12671 0.41613 0.89779 0.0
C742 C 0.09916 0.4243 0.90533 0.0
C743 C 0.07814 0.41912 0.88446 0.0
C744 C 0.09293 0.44351 0.93219 0.0
C745 C 0.14963 0.41882 0.91966 0.0
C746 C 0.067 0.4378 0.94811 0.0
C747 C 0.05583 0.46099 0.96547 0.0
C748 C 0.07062 0.49004 0.96737 0.0
C749 C 0.09822 0.49457 0.95475 0.0
C750 C 0.10927 0.47155 0.9372 0.0
H751 H 0.16339 0.40047 0.91516 0.0
H752 H 0.16344 0.4404 0.91785 0.0
H753 H 0.14051 0.41807 0.94222 0.0
H754 H 0.05393 0.41642 0.94456 0.0
H755 H 0.03408 0.4571 0.97402 0.0
H756 H 0.76827 0.86084 0.922 0.0
H757 H 0.7288 0.88628 0.94419 0.0
H758 H 0.76599 0.96918 0.91042 0.0
H759 H 0.806 0.94409 0.8886 0.0
H760 H 0.73258 0.93924 0.98559 0.0
H761 H 0.68219 0.95703 0.88309 0.0
H762 H 0.70708 0.92978 0.88452 0.0
H763 H 0.71972 0.96908 0.88578 0.0
C764 C 0.76827 0.88454 0.91945 0.0
C765 C 0.79042 0.90035 0.90346 0.0
C766 C 0.74558 0.89902 0.93204 0.0
C767 C 0.74433 0.92955 0.92876 0.0
C768 C 0.76631 0.94549 0.91286 0.0
H769 H 0.59486 0.02381 0.98718 0.0
H770 H 0.64383 0.01728 0.96911 0.0
C771 C 0.78913 0.93105 0.90032 0.0
C772 C 0.72006 0.94451 0.94239 0.0
H773 H 0.6589 0.97233 0.92694 0.0
C774 C 0.71663 0.94679 0.97278 0.0
C775 C 0.69947 0.95472 0.92567 0.0
C776 C 0.70202 0.95248 0.89294 0.0
C777 C 0.69267 0.95804 0.98686 0.0
C778 C 0.67122 0.96663 0.97011 0.0
C779 C 0.67535 0.96579 0.93977 0.0
C780 C 0.64287 0.97249 0.98326 0.0
C781 C 0.69031 0.96011 0.0196 0.0
C782 C 0.62619 0.94965 0.99726 0.0
C783 C 0.59849 0.95327 1.00743 0.0
C784 C 0.58657 0.97984 1.00379 0.0
C785 C 0.60352 0.00321 0.99054 0.0
C786 C 0.63141 0.99943 0.98009 0.0
H787 H 0.7117 0.96312 0.02905 0.0
H788 H 0.67848 0.97902 0.02831 0.0
H789 H 0.67874 0.93891 0.02685 0.0
H790 H 0.63426 0.92844 0.99945 0.0
H791 H 0.58611 0.93481 0.01756 0.0
H792 H 0.72982 0.1686 0.4911 0.0
H793 H 0.7741 0.14972 0.50287 0.0
H794 H 0.7586 0.07597 0.4376 0.0
H795 H 0.71455 0.09474 0.42563 0.0
H796 H 0.78297 0.09242 0.52103 0.0
H797 H 0.83931 0.11562 0.41577 0.0
H798 H 0.80736 0.13195 0.42817 0.0
H799 H 0.80505 0.09389 0.41229 0.0
C800 C 0.73588 0.14833 0.47933 0.0
C801 C 0.71886 0.13327 0.45735 0.0
C802 C 0.76111 0.13758 0.48608 0.0
C803 C 0.7698 0.11173 0.47081 0.0
C804 C 0.7525 0.09628 0.44929 0.0
H805 H 0.90439 0.00152 0.46395 0.0
H806 H 0.86174 0.02587 0.45981 0.0
C807 C 0.72727 0.10697 0.44256 0.0
C808 C 0.79701 0.10087 0.47718 0.0
H809 H 0.86091 0.08513 0.4458 0.0
C810 C 0.80017 0.09106 0.50474 0.0
C811 C 0.81945 0.0994 0.45592 0.0
C812 C 0.81784 0.11103 0.42646 0.0
C813 C 0.82473 0.0785 0.51114 0.0
C814 C 0.84676 0.07615 0.48952 0.0
C815 C 0.84391 0.08684 0.4623 0.0
C816 C 0.87217 0.06094 0.49381 0.0
C817 C 0.82645 0.06674 0.54051 0.0
C818 C 0.89221 0.0725 0.51451 0.0
C819 C 0.91681 0.05852 0.51704 0.0
C820 C 0.92183 0.03289 0.49873 0.0
C821 C 0.90141 0.02127 0.47834 0.0
C822 C 0.87693 0.03516 0.47591 0.0
H823 H 0.80551 0.06505 0.55265 0.0
H824 H 0.83415 0.04427 0.53823 0.0
H825 H 0.84185 0.08221 0.55358 0.0
H826 H 0.88914 0.09267 0.52824 0.0
H827 H 0.93216 0.06816 0.53285 0.0
H828 H 0.28307 0.647 0.20253 0.0
H829 H 0.244 0.61917 0.17526 0.0
H830 H 0.21119 0.70224 0.16249 0.0
H831 H 0.24983 0.73022 0.19039 0.0
H832 H 0.1698 0.65887 0.18198 0.0
H833 H 0.23172 0.61157 0.08782 0.0
H834 H 0.2441 0.60419 0.12228 0.0
H835 H 0.24657 0.64223 0.11233 0.0
C836 C 0.26754 0.65938 0.19396 0.0
C837 C 0.26961 0.69089 0.19872 0.0
C838 C 0.24539 0.64344 0.17804 0.0
C839 C 0.22488 0.65863 0.16642 0.0
C840 C 0.22691 0.69006 0.17103 0.0
H841 H 0.0906 0.57417 0.05084 0.0
H842 H 0.13209 0.60601 0.07069 0.0
C843 C 0.24911 0.70603 0.18687 0.0
C844 C 0.20041 0.64158 0.15095 0.0
H845 H 0.18313 0.59039 0.09374 0.0
C846 C 0.17272 0.6441 0.16256 0.0
C847 C 0.20415 0.62257 0.12537 0.0
C848 C 0.23321 0.62013 0.11101 0.0
C849 C 0.1488 0.6274 0.1499 0.0
C850 C 0.15265 0.60731 0.12514 0.0
C851 C 0.18022 0.60556 0.11289 0.0
C852 C 0.12832 0.58723 0.11244 0.0
C853 C 0.11957 0.63141 0.16317 0.0
C854 C 0.11287 0.56564 0.12903 0.0
C855 C 0.08926 0.54745 0.11782 0.0
C856 C 0.08053 0.55028 0.0896 0.0
C857 C 0.09659 0.57139 0.07266 0.0
C858 C 0.12032 0.58962 0.08396 0.0
H859 H 0.11955 0.65305 0.17667 0.0
H860 H 0.10371 0.63058 0.14613 0.0
H861 H 0.11268 0.61298 0.17737 0.0
H862 H 0.11899 0.56297 0.15084 0.0
H863 H 0.07769 0.53135 0.13151 0.0
H864 H 0.18152 0.41971 0.58534 0.0
H865 H 0.22768 0.4421 0.56559 0.0
H866 H 0.26978 0.4125 0.63668 0.0
H867 H 0.22408 0.38976 0.65621 0.0
H868 H 0.26898 0.48656 0.59393 0.0
H869 H 0.31202 0.37869 0.56223 0.0
H870 H 0.27442 0.38129 0.56916 0.0
H871 H 0.29753 0.38138 0.59888 0.0
C872 C 0.20067 0.418 0.59669 0.0
C873 C 0.19924 0.40304 0.62233 0.0
C874 C 0.22692 0.4308 0.58544 0.0
C875 C 0.25206 0.42845 0.59947 0.0
C876 C 0.2506 0.41409 0.62533 0.0
H877 H 0.41596 0.51976 0.61451 0.0
H878 H 0.36565 0.50045 0.61616 0.0
C879 C 0.22445 0.40146 0.63664 0.0
C880 C 0.28002 0.44134 0.58763 0.0
H881 H 0.34621 0.42268 0.56674 0.0
C882 C 0.28577 0.47263 0.58747 0.0
C883 C 0.30165 0.42303 0.57873 0.0
C884 C 0.29608 0.3892 0.57694 0.0
C885 C 0.31326 0.48622 0.58052 0.0
C886 C 0.33544 0.46797 0.57391 0.0
C887 C 0.3292 0.43661 0.57211 0.0
C888 C 0.36562 0.48091 0.57178 0.0
C889 C 0.31853 0.51999 0.58105 0.0
C890 C 0.38243 0.47575 0.5464 0.0
C891 C 0.41141 0.48669 0.54536 0.0
C892 C 0.42407 0.50261 0.56987 0.0
C893 C 0.40702 0.50761 0.59522 0.0
C894 C 0.37815 0.49683 0.59616 0.0
H895 H 0.29867 0.52984 0.57748 0.0
H896 H 0.32623 0.5292 0.60264 0.0
H897 H 0.33497 0.52719 0.56426 0.0
H898 H 0.37314 0.4632 0.52747 0.0
H899 H 0.4239 0.48244 0.52549 0.0
H900 H 0.94024 0.80018 0.90818 0.0
H901 H 0.95547 0.76267 0.93767 0.0
H902 H 0.87046 0.7476 0.97591 0.0
H903 H 0.85506 0.78512 0.94644 0.0
H904 H 0.95145 0.76094 1.00125 0.0
H905 H 0.88982 0.66276 0.94253 0.0
H906 H 0.89764 0.69857 0.92718 0.0
H907 H 0.87086 0.69384 0.9558 0.0
C908 C 0.9248 0.78888 0.9229 0.0
C909 C 0.89648 0.79554 0.9249 0.0
C910 C 0.93354 0.76754 0.9398 0.0
C911 C 0.91407 0.75219 0.95887 0.0
C912 C 0.88578 0.75896 0.96114 0.0
H913 H 0.95135 0.58997 0.03603 0.0
H914 H 0.92661 0.6343 0.03163 0.0
C915 C 0.87704 0.78047 0.94433 0.0
C916 C 0.92354 0.72876 0.97579 0.0
H917 H 0.91933 0.65275 0.97882 0.0
C918 C 0.94418 0.73729 0.99663 0.0
C919 C 0.9138 0.69794 0.97002 0.0
C920 C 0.89193 0.6875 0.94758 0.0
C921 C 0.95603 0.71578 1.01113 0.0
C922 C 0.94754 0.68484 1.00412 0.0
C923 C 0.92583 0.67642 0.98434 0.0
C924 C 0.96347 0.66092 1.01358 0.0
C925 C 0.97784 0.72646 0.03356 0.0
C926 C 0.99265 0.66151 1.00612 0.0
C927 C 0.00674 0.63641 1.00878 0.0
C928 C 0.99199 0.60999 0.01882 0.0
C929 C 0.96338 0.61015 0.02865 0.0
C930 C 0.94917 0.63538 0.02584 0.0
H931 H 0.97382 0.74864 0.04443 0.0
H932 H 0.97782 0.71021 0.05034 0.0
H933 H 0.99934 0.72928 0.02269 0.0
H934 H 0.00412 0.68053 0.99606 0.0
H935 H 0.02873 0.63686 1.00084 0.0
H936 H 0.30774 0.79553 0.19692 0.0
H937 H 0.33433 0.83964 0.17691 0.0
H938 H 0.41163 0.81736 0.21095 0.0
H939 H 0.38577 0.77213 0.22915 0.0
H940 H 0.36599 0.88974 0.19891 0.0
H941 H 0.43477 0.82125 0.12687 0.0
H942 H 0.40397 0.80467 0.14677 0.0
H943 H 0.43711 0.81546 0.1645 0.0
C944 C 0.33048 0.79972 0.19987 0.0
C945 C 0.34455 0.77978 0.21435 0.0
C946 C 0.34561 0.82524 0.1887 0.0
C947 C 0.37513 0.83158 0.19187 0.0
C948 C 0.389 0.81262 0.20757 0.0
H949 H 0.5032 0.95351 0.1091 0.0
H950 H 0.47688 0.92936 0.1494 0.0
C951 C 0.374 0.78688 0.21838 0.0
C952 C 0.39158 0.85713 0.17762 0.0
H953 H 0.4463 0.87378 0.12843 0.0
C954 C 0.38362 0.88627 0.18356 0.0
C955 C 0.41445 0.85266 0.15736 0.0
C956 C 0.42292 0.8218 0.14824 0.0
C957 C 0.39798 0.91093 0.16988 0.0
C958 C 0.4209 0.90635 0.14985 0.0
C959 C 0.42904 0.87736 0.14421 0.0
C960 C 0.43535 0.93028 0.13219 0.0
C961 C 0.3886 0.94167 0.17681 0.0
C962 C 0.42064 0.94067 0.11014 0.0
C963 C 0.43572 0.95466 0.08719 0.0
C964 C 0.46564 0.95856 0.08607 0.0
C965 C 0.48011 0.95149 0.10986 0.0
C966 C 0.46508 0.93736 0.13275 0.0
H967 H 0.37551 0.94293 0.19742 0.0
H968 H 0.40731 0.9591 0.17846 0.0
H969 H 0.37553 0.94688 0.15904 0.0
H970 H 0.39779 0.93502 0.10893 0.0
H971 H 0.42416 0.959 0.06865 0.0
H972 H 0.07363 0.32789 0.627 0.0
H973 H 0.05035 0.28464 0.59807 0.0
H974 H 0.1284 0.27695 0.54722 0.0
H975 H 0.15252 0.31797 0.57738 0.0
H976 H 0.04068 0.2677 0.53948 0.0
H977 H 0.11551 0.1978 0.58307 0.0
H978 H 0.11305 0.23608 0.59687 0.0
H979 H 0.13255 0.22804 0.56325 0.0
C980 C 0.08596 0.31692 0.60982 0.0
C981 C 0.11518 0.32638 0.60504 0.0
C982 C 0.07246 0.29248 0.59297 0.0
C983 C 0.08781 0.27726 0.57083 0.0
C984 C 0.11629 0.28803 0.56455 0.0
H985 H 0.04642 0.09104 0.51911 0.0
H986 H 0.06185 0.14156 0.50451 0.0
C987 C 0.12997 0.31191 0.58172 0.0
C988 C 0.0751 0.24824 0.55672 0.0
H989 H 0.08148 0.17335 0.55204 0.0
C990 C 0.04974 0.24705 0.54186 0.0
C991 C 0.08701 0.22132 0.55976 0.0
C992 C 0.11336 0.2207 0.57679 0.0
C993 C 0.03546 0.21947 0.53086 0.0
C994 C 0.0468 0.19254 0.53501 0.0
C995 C 0.07297 0.19401 0.5484 0.0
C996 C 0.02991 0.16255 0.53152 0.0
C997 C 0.00802 0.21935 0.51564 0.0
C998 C 0.00522 0.15716 0.54934 0.0
C999 C 0.99623 0.12823 0.55734 0.0
C1000 C 0.01172 0.1044 0.54756 0.0
C1001 C 0.03368 0.10891 0.52633 0.0
C1002 C 0.04269 0.13792 0.51822 0.0
H1003 H 0.00821 0.24003 0.50405 0.0
H1004 H 0.00416 0.19942 0.49986 0.0
H1005 H 0.99002 0.21894 0.53201 0.0
H1006 H 0.99521 0.17567 0.56028 0.0
H1007 H 0.97944 0.12523 0.57403 0.0
H1008 H 0.64571 0.22831 0.44539 0.0
H1009 H 0.62659 0.27277 0.46841 0.0
H1010 H 0.54235 0.23652 0.44214 0.0
H1011 H 0.56104 0.19099 0.42053 0.0
H1012 H 0.60236 0.31305 0.44354 0.0
H1013 H 0.52508 0.26378 0.52534 0.0
H1014 H 0.55137 0.24276 0.50616 0.0
H1015 H 0.51882 0.24715 0.48926 0.0
C1016 C 0.62298 0.22933 0.44509 0.0
C1017 C 0.60492 0.20577 0.43127 0.0
C1018 C 0.6121 0.25497 0.45811 0.0
C1019 C 0.58293 0.25786 0.45753 0.0
C1020 C 0.56481 0.23454 0.4436 0.0
H1021 H 0.48754 0.40844 0.47854 0.0
H1022 H 0.50268 0.35797 0.4727 0.0
C1023 C 0.57564 0.20868 0.43079 0.0
C1024 C 0.57201 0.28619 0.46971 0.0
H1025 H 0.52126 0.31472 0.51579 0.0
C1026 C 0.58487 0.31338 0.45962 0.0
C1027 C 0.54917 0.28671 0.49074 0.0
C1028 C 0.53549 0.25856 0.50373 0.0
C1029 C 0.57509 0.34087 0.46932 0.0
C1030 C 0.55188 0.34128 0.48977 0.0
C1031 C 0.53912 0.31426 0.50018 0.0
C1032 C 0.53964 0.36958 0.49881 0.0
C1033 C 0.58911 0.36929 0.45701 0.0
C1034 C 0.55479 0.39241 0.51644 0.0
C1035 C 0.54604 0.4212 0.51997 0.0
C1036 C 0.52202 0.42744 0.50596 0.0
C1037 C 0.50591 0.40403 0.48988 0.0
C1038 C 0.51454 0.37526 0.48651 0.0
H1039 H 0.60446 0.36466 0.43868 0.0
H1040 H 0.57276 0.38222 0.44933 0.0
H1041 H 0.60079 0.38364 0.47429 0.0
H1042 H 0.57433 0.38846 0.52595 0.0
H1043 H 0.5594 0.43908 0.53152 0.0
loop_
_geom_bond_atom_site_label_1
_geom_bond_atom_site_label_2
_geom_bond_distance
_geom_bond_site_symmetry_2
_ccdc_geom_bond_type
H0 C5 0.930 . S
H1 C8 0.930 . S
H2 C10 0.930 . S
H3 C4 1.016 . S
C4 H3 1.016 . S
C4 N11 1.286 . S
C5 H0 0.930 . S
C5 C6 1.397 . S
C5 C7 1.361 . S
C6 C5 1.397 . S
C6 C10 1.390 . S
C7 C5 1.361 . S
C7 C8 1.393 . S
C7 N11 1.413 . S
C8 H1 0.930 . S
C8 C7 1.393 . S
C8 C9 1.399 . S
C9 C8 1.399 . S
C9 C10 1.381 . S
C10 H2 0.930 . S
C10 C6 1.390 . S
C10 C9 1.381 . S
N11 C4 1.286 . S
N11 C7 1.413 . S
H12 C17 0.930 . S
H13 C20 0.930 . S
H14 C22 0.930 . S
H15 C16 1.016 . S
C16 H15 1.016 . S
C16 N23 1.286 . S
C17 H12 0.930 . S
C17 C18 1.397 . S
C17 C19 1.361 . S
C18 C17 1.397 . S
C18 C22 1.390 . S
C19 C17 1.361 . S
C19 C20 1.393 . S
C19 N23 1.413 . S
C20 H13 0.930 . S
C20 C19 1.393 . S
C20 C21 1.399 . S
C21 C20 1.399 . S
C21 C22 1.381 . S
C22 H14 0.930 . S
C22 C18 1.390 . S
C22 C21 1.381 . S
N23 C16 1.286 . S
N23 C19 1.413 . S
H24 C29 0.930 . S
H25 C32 0.930 . S
H26 C34 0.930 . S
H27 C28 1.016 . S
C28 H27 1.016 . S
C28 N35 1.286 . S
C29 H24 0.930 . S
C29 C30 1.397 . S
C29 C31 1.361 . S
C30 C29 1.397 . S
C30 C34 1.390 . S
C31 C29 1.361 . S
C31 C32 1.393 . S
C31 N35 1.413 . S
C32 H25 0.930 . S
C32 C31 1.393 . S
C32 C33 1.399 . S
C33 C32 1.399 . S
C33 C34 1.381 . S
C34 H26 0.930 . S
C34 C30 1.390 . S
C34 C33 1.381 . S
N35 C28 1.286 . S
N35 C31 1.413 . S
H36 C41 0.930 . S
H37 C44 0.930 . S
H38 C46 0.930 . S
H39 C40 1.016 . S
C40 H39 1.016 . S
C40 N47 1.286 . S
C41 H36 0.930 . S
C41 C42 1.397 . S
C41 C43 1.361 . S
C42 C41 1.397 . S
C42 C46 1.390 . S
C43 C41 1.361 . S
C43 C44 1.393 . S
C43 N47 1.413 . S
C44 H37 0.930 . S
C44 C43 1.393 . S
C44 C45 1.399 . S
C45 C44 1.399 . S
C45 C46 1.381 . S
C46 H38 0.930 . S
C46 C42 1.390 . S
C46 C45 1.381 . S
N47 C40 1.286 . S
N47 C43 1.413 . S
H48 C53 0.930 . S
H49 C56 0.930 . S
H50 C58 0.930 . S
H51 C52 1.016 . S
C52 H51 1.016 . S
C52 N59 1.286 . S
C53 H48 0.930 . S
C53 C54 1.397 . S
C53 C55 1.361 . S
C54 C53 1.397 . S
C54 C58 1.390 . S
C55 C53 1.361 . S
C55 C56 1.393 . S
C55 N59 1.413 . S
C56 H49 0.930 . S
C56 C55 1.393 . S
C56 C57 1.399 . S
C57 C56 1.399 . S
C57 C58 1.381 . S
C58 H50 0.930 . S
C58 C54 1.390 . S
C58 C57 1.381 . S
N59 C52 1.286 . S
N59 C55 1.413 . S
H60 C65 0.930 . S
H61 C68 0.930 . S
H62 C70 0.930 . S
H63 C64 1.016 . S
C64 H63 1.016 . S
C64 N71 1.286 . S
C65 H60 0.930 . S
C65 C66 1.397 . S
C65 C67 1.361 . S
C66 C65 1.397 . S
C66 C70 1.390 . S
C67 C65 1.361 . S
C67 C68 1.393 . S
C67 N71 1.413 . S
C68 H61 0.930 . S
C68 C67 1.393 . S
C68 C69 1.399 . S
C69 C68 1.399 . S
C69 C70 1.381 . S
C70 H62 0.930 . S
C70 C66 1.390 . S
C70 C69 1.381 . S
N71 C64 1.286 . S
N71 C67 1.413 . S
H72 C77 0.930 . S
H73 C80 0.930 . S
H74 C82 0.930 . S
H75 C76 1.016 . S
C76 H75 1.016 . S
C76 N83 1.286 . S
C77 H72 0.930 . S
C77 C78 1.397 . S
C77 C79 1.361 . S
C78 C77 1.397 . S
C78 C82 1.390 . S
C79 C77 1.361 . S
C79 C80 1.393 . S
C79 N83 1.413 . S
C80 H73 0.930 . S
C80 C79 1.393 . S
C80 C81 1.399 . S
C81 C80 1.399 . S
C81 C82 1.381 . S
C82 H74 0.930 . S
C82 C78 1.390 . S
C82 C81 1.381 . S
N83 C76 1.286 . S
N83 C79 1.413 . S
H84 C89 0.930 . S
H85 C92 0.930 . S
H86 C94 0.930 . S
H87 C88 1.016 . S
C88 H87 1.016 . S
C88 N95 1.286 . S
C89 H84 0.930 . S
C89 C90 1.397 . S
C89 C91 1.361 . S
C90 C89 1.397 . S
C90 C94 1.390 . S
C91 C89 1.361 . S
C91 C92 1.393 . S
C91 N95 1.413 . S
C92 H85 0.930 . S
C92 C91 1.393 . S
C92 C93 1.399 . S
C93 C92 1.399 . S
C93 C94 1.381 . S
C94 H86 0.930 . S
C94 C90 1.390 . S
C94 C93 1.381 . S
N95 C88 1.286 . S
N95 C91 1.413 . S
O96 Mn97 2.163 1_655 S
O96 C110 1.244 . S
Mn97 O96 2.163 1_455 S
Mn97 O100 2.160 1_545 S
Mn97 O101 2.221 . S
Mn97 O103 2.163 1_445 S
Mn97 O105 2.160 . S
Mn97 O115 2.221 1_445 S
O98 Mn99 2.091 . S
O98 C110 1.251 1_565 S
Mn99 O98 2.091 . S
Mn99 O106 2.089 1_565 S
Mn99 O115 2.290 . S
Mn99 O116 2.251 . S
O100 Mn97 2.160 1_565 S
O100 C111 1.239 . S
O101 Mn97 2.221 . S
O101 Mn102 2.290 . S
O101 C112 1.278 . S
Mn102 O101 2.290 . S
Mn102 O104 2.089 . S
Mn102 O107 2.251 . S
Mn102 O108 2.087 . S
O103 Mn97 2.163 1_665 S
O103 C113 1.244 . S
O104 Mn102 2.089 . S
O104 C111 1.256 1_545 S
O105 Mn97 2.160 . S
O105 C114 1.239 . S
O106 Mn99 2.089 1_545 S
O106 C114 1.256 1_655 S
O107 Mn102 2.251 . S
O107 C112 1.241 . S
O108 Mn102 2.087 . S
O108 C113 1.256 1_445 S
C109 O115 1.278 . S
C109 O116 1.241 . S
C110 O96 1.244 . S
C110 O98 1.251 1_545 S
C111 O100 1.239 . S
C111 O104 1.256 1_565 S
C112 O101 1.278 . S
C112 O107 1.241 . S
C113 O103 1.244 . S
C113 O108 1.256 1_665 S
C114 O105 1.239 . S
C114 O106 1.256 1_455 S
O115 Mn97 2.221 1_665 S
O115 Mn99 2.290 . S
O115 C109 1.278 . S
O116 Mn99 2.251 . S
O116 C109 1.241 . S
O117 Mn118 2.163 1_556 S
O117 C131 1.244 1_545 S
Mn118 O117 2.163 1_554 S
Mn118 O121 2.160 . S
Mn118 O122 2.221 . S
Mn118 O124 2.163 . S
Mn118 O126 2.160 . S
Mn118 O136 2.221 1_545 S
O119 Mn120 2.087 . S
O119 C131 1.256 . S
Mn120 O119 2.087 . S
Mn120 O127 2.089 . S
Mn120 O136 2.290 1_556 S
Mn120 O137 2.251 1_556 S
O121 Mn118 2.160 . S
O121 C132 1.239 . S
O122 Mn118 2.221 . S
O122 Mn123 2.290 . S
O122 C133 1.278 1_554 S
Mn123 O122 2.290 . S
Mn123 O125 2.089 . S
Mn123 O128 2.251 . S
Mn123 O129 2.087 . S
O124 Mn118 2.163 . S
O124 C134 1.244 . S
O125 Mn123 2.089 . S
O125 C132 1.256 . S
O126 Mn118 2.160 . S
O126 C135 1.239 1_544 S
O127 Mn120 2.089 . S
O127 C135 1.256 . S
O128 Mn123 2.251 . S
O128 C133 1.241 1_554 S
O129 Mn123 2.087 . S
O129 C134 1.256 . S
C130 O136 1.278 . S
C130 O137 1.241 . S
C131 O117 1.244 1_565 S
C131 O119 1.256 . S
C132 O121 1.239 . S
C132 O125 1.256 . S
C133 O122 1.278 1_556 S
C133 O128 1.241 1_556 S
C134 O124 1.244 . S
C134 O129 1.256 . S
C135 O126 1.239 1_566 S
C135 O127 1.256 . S
O136 Mn118 2.221 1_565 S
O136 Mn120 2.290 1_554 S
O136 C130 1.278 . S
O137 Mn120 2.251 1_554 S
O137 C130 1.241 . S
O138 Mn139 2.163 . S
O138 C152 1.244 . S
Mn139 O138 2.163 . S
Mn139 O142 2.160 . S
Mn139 O143 2.221 . S
Mn139 O145 2.163 . S
Mn139 O147 2.160 . S
Mn139 O157 2.221 . S
O140 Mn141 2.087 . S
O140 C152 1.256 . S
Mn141 O140 2.087 . S
Mn141 O148 2.089 . S
Mn141 O157 2.290 . S
Mn141 O158 2.251 . S
O142 Mn139 2.160 . S
O142 C153 1.239 . S
O143 Mn139 2.221 . S
O143 Mn144 2.290 . S
O143 C154 1.278 . S
Mn144 O143 2.290 . S
Mn144 O146 2.089 . S
Mn144 O149 2.251 . S
Mn144 O150 2.087 . S
O145 Mn139 2.163 . S
O145 C155 1.244 . S
O146 Mn144 2.089 . S
O146 C153 1.256 . S
O147 Mn139 2.160 . S
O147 C156 1.239 . S
O148 Mn141 2.089 . S
O148 C156 1.256 . S
O149 Mn144 2.251 . S
O149 C154 1.241 . S
O150 Mn144 2.087 . S
O150 C155 1.256 . S
C151 O157 1.278 . S
C151 O158 1.241 . S
C152 O138 1.244 . S
C152 O140 1.256 . S
C153 O142 1.239 . S
C153 O146 1.256 . S
C154 O143 1.278 . S
C154 O149 1.241 . S
C155 O145 1.244 . S
C155 O150 1.256 . S
C156 O147 1.239 . S
C156 O148 1.256 . S
O157 Mn139 2.221 . S
O157 Mn141 2.290 . S
O157 C151 1.278 . S
O158 Mn141 2.251 . S
O158 C151 1.241 . S
O159 Mn160 2.163 1_655 S
O159 C173 1.244 1_554 S
Mn160 O159 2.163 1_455 S
Mn160 O163 2.160 . S
Mn160 O164 2.221 . S
Mn160 O166 2.163 . S
Mn160 O168 2.160 . S
Mn160 O178 2.221 1_554 S
O161 Mn162 2.087 . S
O161 C173 1.256 . S
Mn162 O161 2.087 . S
Mn162 O169 2.089 . S
Mn162 O178 2.290 1_655 S
Mn162 O179 2.251 1_655 S
O163 Mn160 2.160 . S
O163 C174 1.239 . S
O164 Mn160 2.221 . S
O164 Mn165 2.290 . S
O164 C175 1.278 1_455 S
Mn165 O164 2.290 . S
Mn165 O167 2.089 . S
Mn165 O170 2.251 1_455 S
Mn165 O171 2.087 . S
O166 Mn160 2.163 . S
O166 C176 1.244 . S
O167 Mn165 2.089 . S
O167 C174 1.256 . S
O168 Mn160 2.160 . S
O168 C177 1.239 1_454 S
O169 Mn162 2.089 . S
O169 C177 1.256 . S
O170 Mn165 2.251 1_655 S
O170 C175 1.241 . S
O171 Mn165 2.087 . S
O171 C176 1.256 . S
C172 O178 1.278 . S
C172 O179 1.241 . S
C173 O159 1.244 1_556 S
C173 O161 1.256 . S
C174 O163 1.239 . S
C174 O167 1.256 . S
C175 O164 1.278 1_655 S
C175 O170 1.241 . S
C176 O166 1.244 . S
C176 O171 1.256 . S
C177 O168 1.239 1_656 S
C177 O169 1.256 . S
O178 Mn160 2.221 1_556 S
O178 Mn162 2.290 1_455 S
O178 C172 1.278 . S
O179 Mn162 2.251 1_455 S
O179 C172 1.241 . S
H180 C188 0.929 . S
H181 C190 0.930 . S
H182 C192 0.930 . S
H183 C195 0.929 . S
H184 C198 0.930 . S
H185 C200 0.960 . S
H186 C200 0.960 . S
H187 C200 0.960 . S
C188 H180 0.929 . S
C188 C189 1.377 . S
C188 C190 1.384 . S
C189 C188 1.377 . S
C189 C195 1.390 . S
C190 H181 0.930 . S
C190 C188 1.384 . S
C190 C191 1.372 . S
C191 C190 1.372 . S
C191 C192 1.400 . S
C191 C196 1.490 . S
C192 H182 0.930 . S
C192 C191 1.400 . S
C192 C195 1.386 . S
H193 C209 0.930 . S
H194 C210 0.931 . S
C195 H183 0.929 . S
C195 C189 1.390 . S
C195 C192 1.386 . S
C196 C191 1.490 . S
C196 C198 1.395 . S
C196 C199 1.403 . S
H197 C203 0.930 . S
C198 H184 0.930 . S
C198 C196 1.395 . S
C198 C201 1.403 . S
C199 C196 1.403 . S
C199 C200 1.524 . S
C199 C203 1.400 . S
C200 H185 0.960 . S
C200 H186 0.960 . S
C200 H187 0.960 . S
C200 C199 1.524 . S
C201 C198 1.403 . S
C201 C202 1.392 . S
C201 C205 1.495 . S
C202 C201 1.392 . S
C202 C203 1.385 . S
C202 C204 1.478 . S
C203 H197 0.930 . S
C203 C199 1.400 . S
C203 C202 1.385 . S
C204 C202 1.478 . S
C204 C206 1.381 . S
C204 C210 1.383 . S
C205 C201 1.495 . S
C205 H211 0.959 . S
C205 H212 0.961 . S
C205 H213 0.960 . S
C206 C204 1.381 . S
C206 C207 1.394 . S
C206 H214 0.930 . S
C207 C206 1.394 . S
C207 C208 1.383 . S
C207 H215 0.929 . S
C208 C207 1.383 . S
C208 C209 1.377 . S
C209 H193 0.930 . S
C209 C208 1.377 . S
C209 C210 1.379 . S
C210 H194 0.931 . S
C210 C204 1.383 . S
C210 C209 1.379 . S
H211 C205 0.959 . S
H212 C205 0.961 . S
H213 C205 0.960 . S
H214 C206 0.930 . S
H215 C207 0.929 . S
H216 C224 0.929 . S
H217 C226 0.930 . S
H218 C228 0.930 . S
H219 C231 0.929 . S
H220 C234 0.930 . S
H221 C236 0.960 1_545 S
H222 C236 0.960 . S
H223 C236 0.960 . S
C224 H216 0.929 . S
C224 C225 1.377 . S
C224 C226 1.384 . S
C225 C224 1.377 . S
C225 C231 1.390 . S
C226 H217 0.930 . S
C226 C224 1.384 . S
C226 C227 1.372 . S
C227 C226 1.372 . S
C227 C228 1.400 . S
C227 C232 1.490 . S
C228 H218 0.930 . S
C228 C227 1.400 . S
C228 C231 1.386 . S
H229 C245 0.930 . S
H230 C246 0.931 1_545 S
C231 H219 0.929 . S
C231 C225 1.390 . S
C231 C228 1.386 . S
C232 C227 1.490 . S
C232 C234 1.395 . S
C232 C235 1.403 . S
H233 C239 0.930 . S
C234 H220 0.930 . S
C234 C232 1.395 . S
C234 C237 1.403 . S
C235 C232 1.403 . S
C235 C236 1.524 . S
C235 C239 1.400 . S
C236 H221 0.960 1_565 S
C236 H222 0.960 . S
C236 H223 0.960 . S
C236 C235 1.524 . S
C237 C234 1.403 . S
C237 C238 1.392 . S
C237 C241 1.495 . S
C238 C237 1.392 . S
C238 C239 1.385 . S
C238 C240 1.478 . S
C239 H233 0.930 . S
C239 C235 1.400 . S
C239 C238 1.385 . S
C240 C238 1.478 . S
C240 C242 1.381 . S
C240 C246 1.383 . S
C241 C237 1.495 . S
C241 H247 0.959 . S
C241 H248 0.961 . S
C241 H249 0.960 . S
C242 C240 1.381 . S
C242 C243 1.394 . S
C242 H250 0.930 . S
C243 C242 1.394 . S
C243 C244 1.383 . S
C243 H251 0.929 . S
C244 C243 1.383 . S
C244 C245 1.377 1_565 S
C245 H229 0.930 . S
C245 C244 1.377 1_545 S
C245 C246 1.379 1_545 S
C246 H230 0.931 1_565 S
C246 C240 1.383 . S
C246 C245 1.379 1_565 S
H247 C241 0.959 . S
H248 C241 0.961 . S
H249 C241 0.960 . S
H250 C242 0.930 . S
H251 C243 0.929 . S
H252 C260 0.929 . S
H253 C262 0.930 . S
H254 C264 0.930 . S
H255 C267 0.929 . S
H256 C270 0.930 . S
H257 C272 0.960 . S
H258 C272 0.960 . S
H259 C272 0.960 . S
C260 H252 0.929 . S
C260 C261 1.377 . S
C260 C262 1.384 . S
C261 C260 1.377 . S
C261 C267 1.390 . S
C262 H253 0.930 . S
C262 C260 1.384 . S
C262 C263 1.372 . S
C263 C262 1.372 . S
C263 C264 1.400 . S
C263 C268 1.490 . S
C264 H254 0.930 . S
C264 C263 1.400 . S
C264 C267 1.386 . S
H265 C281 0.930 . S
H266 C282 0.931 . S
C267 H255 0.929 . S
C267 C261 1.390 . S
C267 C264 1.386 . S
C268 C263 1.490 . S
C268 C270 1.395 . S
C268 C271 1.403 . S
H269 C275 0.930 . S
C270 H256 0.930 . S
C270 C268 1.395 . S
C270 C273 1.403 . S
C271 C268 1.403 . S
C271 C272 1.524 . S
C271 C275 1.400 . S
C272 H257 0.960 . S
C272 H258 0.960 . S
C272 H259 0.960 . S
C272 C271 1.524 . S
C273 C270 1.403 . S
C273 C274 1.392 . S
C273 C277 1.495 . S
C274 C273 1.392 . S
C274 C275 1.385 . S
C274 C276 1.478 . S
C275 H269 0.930 . S
C275 C271 1.400 . S
C275 C274 1.385 . S
C276 C274 1.478 . S
C276 C278 1.381 . S
C276 C282 1.383 . S
C277 C273 1.495 . S
C277 H283 0.959 . S
C277 H284 0.961 . S
C277 H285 0.960 . S
C278 C276 1.381 . S
C278 C279 1.394 . S
C278 H286 0.930 . S
C279 C278 1.394 . S
C279 C280 1.383 . S
C279 H287 0.929 . S
C280 C279 1.383 . S
C280 C281 1.377 . S
C281 H265 0.930 . S
C281 C280 1.377 . S
C281 C282 1.379 . S
C282 H266 0.931 . S
C282 C276 1.383 . S
C282 C281 1.379 . S
H283 C277 0.959 . S
H284 C277 0.961 . S
H285 C277 0.960 . S
H286 C278 0.930 . S
H287 C279 0.929 . S
H288 C296 0.929 . S
H289 C298 0.930 . S
H290 C300 0.930 . S
H291 C303 0.929 . S
H292 C306 0.930 . S
H293 C308 0.960 . S
H294 C308 0.960 . S
H295 C308 0.960 . S
C296 H288 0.929 . S
C296 C297 1.377 . S
C296 C298 1.384 . S
C297 C296 1.377 . S
C297 C303 1.390 . S
C298 H289 0.930 . S
C298 C296 1.384 . S
C298 C299 1.372 . S
C299 C298 1.372 . S
C299 C300 1.400 . S
C299 C304 1.490 . S
C300 H290 0.930 . S
C300 C299 1.400 . S
C300 C303 1.386 . S
H301 C317 0.930 . S
H302 C318 0.931 . S
C303 H291 0.929 . S
C303 C297 1.390 . S
C303 C300 1.386 . S
C304 C299 1.490 . S
C304 C306 1.395 . S
C304 C307 1.403 . S
H305 C311 0.930 . S
C306 H292 0.930 . S
C306 C304 1.395 . S
C306 C309 1.403 . S
C307 C304 1.403 . S
C307 C308 1.524 . S
C307 C311 1.400 . S
C308 H293 0.960 . S
C308 H294 0.960 . S
C308 H295 0.960 . S
C308 C307 1.524 . S
C309 C306 1.403 . S
C309 C310 1.392 . S
C309 C313 1.495 . S
C310 C309 1.392 . S
C310 C311 1.385 . S
C310 C312 1.478 . S
C311 H305 0.930 . S
C311 C307 1.400 . S
C311 C310 1.385 . S
C312 C310 1.478 . S
C312 C314 1.381 . S
C312 C318 1.383 . S
C313 C309 1.495 . S
C313 H319 0.959 . S
C313 H320 0.961 . S
C313 H321 0.960 . S
C314 C312 1.381 . S
C314 C315 1.394 . S
C314 H322 0.930 . S
C315 C314 1.394 . S
C315 C316 1.383 . S
C315 H323 0.929 . S
C316 C315 1.383 . S
C316 C317 1.377 . S
C317 H301 0.930 . S
C317 C316 1.377 . S
C317 C318 1.379 . S
C318 H302 0.931 . S
C318 C312 1.383 . S
C318 C317 1.379 . S
H319 C313 0.959 . S
H320 C313 0.961 . S
H321 C313 0.960 . S
H322 C314 0.930 . S
H323 C315 0.929 . S
H324 C332 0.929 . S
H325 C334 0.930 . S
H326 C336 0.930 . S
H327 C339 0.929 . S
H328 C342 0.930 . S
H329 C344 0.960 . S
H330 C344 0.960 . S
H331 C344 0.960 . S
C332 H324 0.929 . S
C332 C333 1.377 . S
C332 C334 1.384 . S
C333 C332 1.377 . S
C333 C339 1.390 . S
C334 H325 0.930 . S
C334 C332 1.384 . S
C334 C335 1.372 . S
C335 C334 1.372 . S
C335 C336 1.400 . S
C335 C340 1.490 . S
C336 H326 0.930 . S
C336 C335 1.400 . S
C336 C339 1.386 . S
H337 C353 0.930 . S
H338 C354 0.931 . S
C339 H327 0.929 . S
C339 C333 1.390 . S
C339 C336 1.386 . S
C340 C335 1.490 . S
C340 C342 1.395 . S
C340 C343 1.403 . S
H341 C347 0.930 . S
C342 H328 0.930 . S
C342 C340 1.395 . S
C342 C345 1.403 . S
C343 C340 1.403 . S
C343 C344 1.524 . S
C343 C347 1.400 . S
C344 H329 0.960 . S
C344 H330 0.960 . S
C344 H331 0.960 . S
C344 C343 1.524 . S
C345 C342 1.403 . S
C345 C346 1.392 . S
C345 C349 1.495 . S
C346 C345 1.392 . S
C346 C347 1.385 . S
C346 C348 1.478 . S
C347 H341 0.930 . S
C347 C343 1.400 . S
C347 C346 1.385 . S
C348 C346 1.478 . S
C348 C350 1.381 . S
C348 C354 1.383 . S
C349 C345 1.495 . S
C349 H355 0.959 . S
C349 H356 0.961 . S
C349 H357 0.960 . S
C350 C348 1.381 . S
C350 C351 1.394 . S
C350 H358 0.930 . S
C351 C350 1.394 . S
C351 C352 1.383 . S
C351 H359 0.929 . S
C352 C351 1.383 . S
C352 C353 1.377 . S
C353 H337 0.930 . S
C353 C352 1.377 . S
C353 C354 1.379 . S
C354 H338 0.931 . S
C354 C348 1.383 . S
C354 C353 1.379 . S
H355 C349 0.959 . S
H356 C349 0.961 . S
H357 C349 0.960 . S
H358 C350 0.930 . S
H359 C351 0.929 . S
H360 C368 0.929 . S
H361 C370 0.930 . S
H362 C372 0.930 . S
H363 C375 0.929 . S
H364 C378 0.930 . S
H365 C380 0.960 1_545 S
H366 C380 0.960 . S
H367 C380 0.960 . S
C368 H360 0.929 . S
C368 C369 1.377 . S
C368 C370 1.384 . S
C369 C368 1.377 . S
C369 C375 1.390 . S
C370 H361 0.930 . S
C370 C368 1.384 . S
C370 C371 1.372 . S
C371 C370 1.372 . S
C371 C372 1.400 . S
C371 C376 1.490 . S
C372 H362 0.930 . S
C372 C371 1.400 . S
C372 C375 1.386 . S
H373 C389 0.930 . S
H374 C390 0.931 . S
C375 H363 0.929 . S
C375 C369 1.390 . S
C375 C372 1.386 . S
C376 C371 1.490 . S
C376 C378 1.395 . S
C376 C379 1.403 . S
H377 C383 0.930 . S
C378 H364 0.930 . S
C378 C376 1.395 . S
C378 C381 1.403 . S
C379 C376 1.403 . S
C379 C380 1.524 . S
C379 C383 1.400 . S
C380 H365 0.960 1_565 S
C380 H366 0.960 . S
C380 H367 0.960 . S
C380 C379 1.524 . S
C381 C378 1.403 . S
C381 C382 1.392 . S
C381 C385 1.495 . S
C382 C381 1.392 . S
C382 C383 1.385 . S
C382 C384 1.478 . S
C383 H377 0.930 . S
C383 C379 1.400 . S
C383 C382 1.385 . S
C384 C382 1.478 . S
C384 C386 1.381 . S
C384 C390 1.383 . S
C385 C381 1.495 . S
C385 H391 0.959 . S
C385 H392 0.961 . S
C385 H393 0.960 . S
C386 C384 1.381 . S
C386 C387 1.394 . S
C386 H394 0.930 . S
C387 C386 1.394 . S
C387 C388 1.383 . S
C387 H395 0.929 . S
C388 C387 1.383 . S
C388 C389 1.377 . S
C389 H373 0.930 . S
C389 C388 1.377 . S
C389 C390 1.379 . S
C390 H374 0.931 . S
C390 C384 1.383 . S
C390 C389 1.379 . S
H391 C385 0.959 . S
H392 C385 0.961 . S
H393 C385 0.960 . S
H394 C386 0.930 . S
H395 C387 0.929 . S
H396 C404 0.929 . S
H397 C406 0.930 . S
H398 C408 0.930 . S
H399 C411 0.929 . S
H400 C414 0.930 . S
H401 C416 0.960 . S
H402 C416 0.960 . S
H403 C416 0.960 . S
C404 H396 0.929 . S
C404 C405 1.377 . S
C404 C406 1.384 . S
C405 C404 1.377 . S
C405 C411 1.390 . S
C406 H397 0.930 . S
C406 C404 1.384 . S
C406 C407 1.372 . S
C407 C406 1.372 . S
C407 C408 1.400 . S
C407 C412 1.490 . S
C408 H398 0.930 . S
C408 C407 1.400 . S
C408 C411 1.386 . S
H409 C425 0.930 . S
H410 C426 0.931 . S
C411 H399 0.929 . S
C411 C405 1.390 . S
C411 C408 1.386 . S
C412 C407 1.490 . S
C412 C414 1.395 . S
C412 C415 1.403 . S
H413 C419 0.930 . S
C414 H400 0.930 . S
C414 C412 1.395 . S
C414 C417 1.403 . S
C415 C412 1.403 . S
C415 C416 1.524 . S
C415 C419 1.400 . S
C416 H401 0.960 . S
C416 H402 0.960 . S
C416 H403 0.960 . S
C416 C415 1.524 . S
C417 C414 1.403 . S
C417 C418 1.392 . S
C417 C421 1.495 1_556 S
C418 C417 1.392 . S
C418 C419 1.385 . S
C418 C420 1.478 . S
C419 H413 0.930 . S
C419 C415 1.400 . S
C419 C418 1.385 . S
C420 C418 1.478 . S
C420 C422 1.381 . S
C420 C426 1.383 . S
C421 C417 1.495 1_554 S
C421 H427 0.959 . S
C421 H428 0.961 . S
C421 H429 0.960 . S
C422 C420 1.381 . S
C422 C423 1.394 . S
C422 H430 0.930 . S
C423 C422 1.394 . S
C423 C424 1.383 . S
C423 H431 0.929 . S
C424 C423 1.383 . S
C424 C425 1.377 . S
C425 H409 0.930 . S
C425 C424 1.377 . S
C425 C426 1.379 . S
C426 H410 0.931 . S
C426 C420 1.383 . S
C426 C425 1.379 . S
H427 C421 0.959 . S
H428 C421 0.961 . S
H429 C421 0.960 . S
H430 C422 0.930 . S
H431 C423 0.929 . S
H432 C440 0.929 . S
H433 C442 0.930 . S
H434 C444 0.930 . S
H435 C447 0.929 . S
H436 C450 0.930 . S
H437 C452 0.960 . S
H438 C452 0.960 . S
H439 C452 0.960 . S
C440 H432 0.929 . S
C440 C441 1.377 . S
C440 C442 1.384 . S
C441 C440 1.377 . S
C441 C447 1.390 . S
C442 H433 0.930 . S
C442 C440 1.384 . S
C442 C443 1.372 . S
C443 C442 1.372 . S
C443 C444 1.400 . S
C443 C448 1.490 . S
C444 H434 0.930 . S
C444 C443 1.400 . S
C444 C447 1.386 . S
H445 C461 0.930 . S
H446 C462 0.931 . S
C447 H435 0.929 . S
C447 C441 1.390 . S
C447 C444 1.386 . S
C448 C443 1.490 . S
C448 C450 1.395 . S
C448 C451 1.403 . S
H449 C455 0.930 . S
C450 H436 0.930 . S
C450 C448 1.395 . S
C450 C453 1.403 . S
C451 C448 1.403 . S
C451 C452 1.524 . S
C451 C455 1.400 . S
C452 H437 0.960 . S
C452 H438 0.960 . S
C452 H439 0.960 . S
C452 C451 1.524 . S
C453 C450 1.403 . S
C453 C454 1.392 . S
C453 C457 1.495 . S
C454 C453 1.392 . S
C454 C455 1.385 . S
C454 C456 1.478 . S
C455 H449 0.930 . S
C455 C451 1.400 . S
C455 C454 1.385 . S
C456 C454 1.478 . S
C456 C458 1.381 . S
C456 C462 1.383 . S
C457 C453 1.495 . S
C457 H463 0.959 . S
C457 H464 0.961 . S
C457 H465 0.960 . S
C458 C456 1.381 . S
C458 C459 1.394 . S
C458 H466 0.930 . S
C459 C458 1.394 . S
C459 C460 1.383 . S
C459 H467 0.929 . S
C460 C459 1.383 . S
C460 C461 1.377 . S
C461 H445 0.930 . S
C461 C460 1.377 . S
C461 C462 1.379 . S
C462 H446 0.931 . S
C462 C456 1.383 . S
C462 C461 1.379 . S
H463 C457 0.959 . S
H464 C457 0.961 . S
H465 C457 0.960 . S
H466 C458 0.930 . S
H467 C459 0.929 . S
H468 C476 0.929 . S
H469 C478 0.930 . S
H470 C480 0.930 . S
H471 C483 0.929 . S
H472 C486 0.930 . S
H473 C488 0.960 . S
H474 C488 0.960 . S
H475 C488 0.960 . S
C476 H468 0.929 . S
C476 C477 1.377 . S
C476 C478 1.384 . S
C477 C476 1.377 . S
C477 C483 1.390 . S
C478 H469 0.930 . S
C478 C476 1.384 . S
C478 C479 1.372 . S
C479 C478 1.372 . S
C479 C480 1.400 . S
C479 C484 1.490 . S
C480 H470 0.930 . S
C480 C479 1.400 . S
C480 C483 1.386 . S
H481 C497 0.930 . S
H482 C498 0.931 . S
C483 H471 0.929 . S
C483 C477 1.390 . S
C483 C480 1.386 . S
C484 C479 1.490 . S
C484 C486 1.395 . S
C484 C487 1.403 . S
H485 C491 0.930 . S
C486 H472 0.930 . S
C486 C484 1.395 . S
C486 C489 1.403 . S
C487 C484 1.403 . S
C487 C488 1.524 . S
C487 C491 1.400 . S
C488 H473 0.960 . S
C488 H474 0.960 . S
C488 H475 0.960 . S
C488 C487 1.524 . S
C489 C486 1.403 . S
C489 C490 1.392 . S
C489 C493 1.495 . S
C490 C489 1.392 . S
C490 C491 1.385 . S
C490 C492 1.478 . S
C491 H485 0.930 . S
C491 C487 1.400 . S
C491 C490 1.385 . S
C492 C490 1.478 . S
C492 C494 1.381 . S
C492 C498 1.383 . S
C493 C489 1.495 . S
C493 H499 0.959 . S
C493 H500 0.961 . S
C493 H501 0.960 . S
C494 C492 1.381 . S
C494 C495 1.394 . S
C494 H502 0.930 . S
C495 C494 1.394 . S
C495 C496 1.383 . S
C495 H503 0.929 . S
C496 C495 1.383 . S
C496 C497 1.377 . S
C497 H481 0.930 . S
C497 C496 1.377 . S
C497 C498 1.379 . S
C498 H482 0.931 . S
C498 C492 1.383 . S
C498 C497 1.379 . S
H499 C493 0.959 . S
H500 C493 0.961 . S
H501 C493 0.960 . S
H502 C494 0.930 . S
H503 C495 0.929 . S
H504 C512 0.929 . S
H505 C514 0.930 . S
H506 C516 0.930 . S
H507 C519 0.929 . S
H508 C522 0.930 . S
H509 C524 0.960 . S
H510 C524 0.960 . S
H511 C524 0.960 . S
C512 H504 0.929 . S
C512 C513 1.377 . S
C512 C514 1.384 . S
C513 C512 1.377 . S
C513 C519 1.390 . S
C514 H505 0.930 . S
C514 C512 1.384 . S
C514 C515 1.372 . S
C515 C514 1.372 . S
C515 C516 1.400 . S
C515 C520 1.490 . S
C516 H506 0.930 . S
C516 C515 1.400 . S
C516 C519 1.386 . S
H517 C533 0.930 . S
H518 C534 0.931 . S
C519 H507 0.929 . S
C519 C513 1.390 . S
C519 C516 1.386 . S
C520 C515 1.490 . S
C520 C522 1.395 . S
C520 C523 1.403 . S
H521 C527 0.930 . S
C522 H508 0.930 . S
C522 C520 1.395 . S
C522 C525 1.403 . S
C523 C520 1.403 . S
C523 C524 1.524 . S
C523 C527 1.400 . S
C524 H509 0.960 . S
C524 H510 0.960 . S
C524 H511 0.960 . S
C524 C523 1.524 . S
C525 C522 1.403 . S
C525 C526 1.392 . S
C525 C529 1.495 . S
C526 C525 1.392 . S
C526 C527 1.385 . S
C526 C528 1.478 . S
C527 H521 0.930 . S
C527 C523 1.400 . S
C527 C526 1.385 . S
C528 C526 1.478 . S
C528 C530 1.381 . S
C528 C534 1.383 . S
C529 C525 1.495 . S
C529 H535 0.959 1_556 S
C529 H536 0.961 . S
C529 H537 0.960 1_556 S
C530 C528 1.381 . S
C530 C531 1.394 . S
C530 H538 0.930 . S
C531 C530 1.394 . S
C531 C532 1.383 . S
C531 H539 0.929 1_556 S
C532 C531 1.383 . S
C532 C533 1.377 . S
C533 H517 0.930 . S
C533 C532 1.377 . S
C533 C534 1.379 . S
C534 H518 0.931 . S
C534 C528 1.383 . S
C534 C533 1.379 . S
H535 C529 0.959 1_554 S
H536 C529 0.961 . S
H537 C529 0.960 1_554 S
H538 C530 0.930 . S
H539 C531 0.929 1_554 S
H540 C548 0.929 . S
H541 C550 0.930 . S
H542 C552 0.930 . S
H543 C555 0.929 . S
H544 C558 0.930 . S
H545 C560 0.960 . S
H546 C560 0.960 . S
H547 C560 0.960 . S
C548 H540 0.929 . S
C548 C549 1.377 . S
C548 C550 1.384 . S
C549 C548 1.377 . S
C549 C555 1.390 . S
C550 H541 0.930 . S
C550 C548 1.384 . S
C550 C551 1.372 . S
C551 C550 1.372 . S
C551 C552 1.400 . S
C551 C556 1.490 . S
C552 H542 0.930 . S
C552 C551 1.400 . S
C552 C555 1.386 . S
H553 C569 0.930 1_455 S
H554 C570 0.931 . S
C555 H543 0.929 . S
C555 C549 1.390 . S
C555 C552 1.386 . S
C556 C551 1.490 . S
C556 C558 1.395 . S
C556 C559 1.403 . S
H557 C563 0.930 . S
C558 H544 0.930 . S
C558 C556 1.395 . S
C558 C561 1.403 . S
C559 C556 1.403 . S
C559 C560 1.524 . S
C559 C563 1.400 . S
C560 H545 0.960 . S
C560 H546 0.960 . S
C560 H547 0.960 . S
C560 C559 1.524 . S
C561 C558 1.403 . S
C561 C562 1.392 . S
C561 C565 1.495 . S
C562 C561 1.392 . S
C562 C563 1.385 . S
C562 C564 1.478 . S
C563 H557 0.930 . S
C563 C559 1.400 . S
C563 C562 1.385 . S
C564 C562 1.478 . S
C564 C566 1.381 . S
C564 C570 1.383 . S
C565 C561 1.495 . S
C565 H571 0.959 . S
C565 H572 0.961 . S
C565 H573 0.960 . S
C566 C564 1.381 . S
C566 C567 1.394 . S
C566 H574 0.930 . S
C567 C566 1.394 . S
C567 C568 1.383 . S
C567 H575 0.929 . S
C568 C567 1.383 . S
C568 C569 1.377 . S
C569 H553 0.930 1_655 S
C569 C568 1.377 . S
C569 C570 1.379 . S
C570 H554 0.931 . S
C570 C564 1.383 . S
C570 C569 1.379 . S
H571 C565 0.959 . S
H572 C565 0.961 . S
H573 C565 0.960 . S
H574 C566 0.930 . S
H575 C567 0.929 . S
H576 C584 0.929 . S
H577 C586 0.930 . S
H578 C588 0.930 . S
H579 C591 0.929 . S
H580 C594 0.930 . S
H581 C596 0.960 . S
H582 C596 0.960 . S
H583 C596 0.960 . S
C584 H576 0.929 . S
C584 C585 1.377 . S
C584 C586 1.384 . S
C585 C584 1.377 . S
C585 C591 1.390 . S
C586 H577 0.930 . S
C586 C584 1.384 . S
C586 C587 1.372 . S
C587 C586 1.372 . S
C587 C588 1.400 . S
C587 C592 1.490 . S
C588 H578 0.930 . S
C588 C587 1.400 . S
C588 C591 1.386 . S
H589 C605 0.930 . S
H590 C606 0.931 . S
C591 H579 0.929 . S
C591 C585 1.390 . S
C591 C588 1.386 . S
C592 C587 1.490 . S
C592 C594 1.395 . S
C592 C595 1.403 . S
H593 C599 0.930 . S
C594 H580 0.930 . S
C594 C592 1.395 . S
C594 C597 1.403 . S
C595 C592 1.403 . S
C595 C596 1.524 . S
C595 C599 1.400 . S
C596 H581 0.960 . S
C596 H582 0.960 . S
C596 H583 0.960 . S
C596 C595 1.524 . S
C597 C594 1.403 . S
C597 C598 1.392 . S
C597 C601 1.495 . S
C598 C597 1.392 . S
C598 C599 1.385 . S
C598 C600 1.478 . S
C599 H593 0.930 . S
C599 C595 1.400 . S
C599 C598 1.385 . S
C600 C598 1.478 . S
C600 C602 1.381 . S
C600 C606 1.383 . S
C601 C597 1.495 . S
C601 H607 0.959 . S
C601 H608 0.961 . S
C601 H609 0.960 . S
C602 C600 1.381 . S
C602 C603 1.394 . S
C602 H610 0.930 . S
C603 C602 1.394 . S
C603 C604 1.383 . S
C603 H611 0.929 . S
C604 C603 1.383 . S
C604 C605 1.377 . S
C605 H589 0.930 . S
C605 C604 1.377 . S
C605 C606 1.379 . S
C606 H590 0.931 . S
C606 C600 1.383 . S
C606 C605 1.379 . S
H607 C601 0.959 . S
H608 C601 0.961 . S
H609 C601 0.960 . S
H610 C602 0.930 . S
H611 C603 0.929 . S
H612 C620 0.929 . S
H613 C622 0.930 . S
H614 C624 0.930 . S
H615 C627 0.929 . S
H616 C630 0.930 . S
H617 C632 0.990 . S
H618 C632 0.960 . S
H619 C632 0.960 . S
C620 H612 0.929 . S
C620 C621 1.377 . S
C620 C622 1.384 . S
C621 C620 1.377 . S
C621 C627 1.390 . S
C622 H613 0.930 . S
C622 C620 1.384 . S
C622 C623 1.372 . S
C623 C622 1.372 . S
C623 C624 1.400 . S
C623 C628 1.490 . S
C624 H614 0.930 . S
C624 C623 1.400 . S
C624 C627 1.386 . S
H625 C641 0.930 1_545 S
H626 C642 0.931 1_545 S
C627 H615 0.929 . S
C627 C621 1.390 . S
C627 C624 1.386 . S
C628 C623 1.490 . S
C628 C630 1.395 . S
C628 C631 1.403 . S
H629 C635 0.930 . S
C630 H616 0.930 . S
C630 C628 1.395 . S
C630 C633 1.403 . S
C631 C628 1.403 . S
C631 C632 1.524 . S
C631 C635 1.400 . S
C632 H617 0.990 . S
C632 H618 0.960 . S
C632 H619 0.960 . S
C632 C631 1.524 . S
C633 C630 1.403 . S
C633 C634 1.392 . S
C633 C637 1.495 . S
C634 C633 1.392 . S
C634 C635 1.385 . S
C634 C636 1.478 . S
C635 H629 0.930 . S
C635 C631 1.400 . S
C635 C634 1.385 . S
C636 C634 1.478 . S
C636 C638 1.381 . S
C636 C642 1.383 . S
C637 C633 1.495 . S
C637 H643 0.959 . S
C637 H644 0.961 . S
C637 H645 0.960 . S
C638 C636 1.381 . S
C638 C639 1.394 . S
C638 H646 0.930 . S
C639 C638 1.394 . S
C639 C640 1.383 . S
C639 H647 0.929 . S
C640 C639 1.383 . S
C640 C641 1.377 . S
C641 H625 0.930 1_565 S
C641 C640 1.377 . S
C641 C642 1.379 . S
C642 H626 0.931 1_565 S
C642 C636 1.383 . S
C642 C641 1.379 . S
H643 C637 0.959 . S
H644 C637 0.961 . S
H645 C637 0.960 . S
H646 C638 0.930 . S
H647 C639 0.929 . S
H648 C656 0.929 . S
H649 C658 0.930 . S
H650 C660 0.930 . S
H651 C663 0.929 . S
H652 C666 0.930 . S
H653 C668 0.960 . S
H654 C668 0.960 . S
H655 C668 0.960 . S
C656 H648 0.929 . S
C656 C657 1.377 . S
C656 C658 1.384 . S
C657 C656 1.377 . S
C657 C663 1.390 . S
C658 H649 0.930 . S
C658 C656 1.384 . S
C658 C659 1.372 . S
C659 C658 1.372 . S
C659 C660 1.400 . S
C659 C664 1.490 . S
C660 H650 0.930 . S
C660 C659 1.400 . S
C660 C663 1.386 . S
H661 C677 0.930 . S
H662 C678 0.931 . S
C663 H651 0.929 . S
C663 C657 1.390 . S
C663 C660 1.386 . S
C664 C659 1.490 . S
C664 C666 1.395 . S
C664 C667 1.403 . S
H665 C671 0.930 . S
C666 H652 0.930 . S
C666 C664 1.395 . S
C666 C669 1.403 . S
C667 C664 1.403 . S
C667 C668 1.524 . S
C667 C671 1.400 . S
C668 H653 0.960 . S
C668 H654 0.960 . S
C668 H655 0.960 . S
C668 C667 1.524 . S
C669 C666 1.403 . S
C669 C670 1.392 . S
C669 C673 1.495 . S
C670 C669 1.392 . S
C670 C671 1.385 . S
C670 C672 1.478 . S
C671 H665 0.930 . S
C671 C667 1.400 . S
C671 C670 1.385 . S
C672 C670 1.478 . S
C672 C674 1.381 . S
C672 C678 1.383 . S
C673 C669 1.495 . S
C673 H679 0.959 . S
C673 H680 0.961 . S
C673 H681 0.960 . S
C674 C672 1.381 . S
C674 C675 1.394 . S
C674 H682 0.930 . S
C675 C674 1.394 . S
C675 C676 1.383 . S
C675 H683 0.929 . S
C676 C675 1.383 . S
C676 C677 1.377 . S
C677 H661 0.930 . S
C677 C676 1.377 . S
C677 C678 1.379 . S
C678 H662 0.931 . S
C678 C672 1.383 . S
C678 C677 1.379 . S
H679 C673 0.959 . S
H680 C673 0.961 . S
H681 C673 0.960 . S
H682 C674 0.930 . S
H683 C675 0.929 . S
H684 C692 0.929 . S
H685 C694 0.930 . S
H686 C696 0.930 . S
H687 C699 0.929 . S
H688 C702 0.930 . S
H689 C704 0.960 . S
H690 C704 0.960 . S
H691 C704 0.960 . S
C692 H684 0.929 . S
C692 C693 1.377 . S
C692 C694 1.384 . S
C693 C692 1.377 . S
C693 C699 1.390 . S
C694 H685 0.930 . S
C694 C692 1.384 . S
C694 C695 1.372 . S
C695 C694 1.372 . S
C695 C696 1.400 . S
C695 C700 1.490 . S
C696 H686 0.930 . S
C696 C695 1.400 . S
C696 C699 1.386 . S
H697 C713 0.930 . S
H698 C714 0.931 . S
C699 H687 0.929 . S
C699 C693 1.390 . S
C699 C696 1.386 . S
C700 C695 1.490 . S
C700 C702 1.395 . S
C700 C703 1.403 . S
H701 C707 0.930 . S
C702 H688 0.930 . S
C702 C700 1.395 . S
C702 C705 1.403 . S
C703 C700 1.403 . S
C703 C704 1.524 . S
C703 C707 1.400 . S
C704 H689 0.960 . S
C704 H690 0.960 . S
C704 H691 0.960 . S
C704 C703 1.524 . S
C705 C702 1.403 . S
C705 C706 1.392 . S
C705 C709 1.495 . S
C706 C705 1.392 . S
C706 C707 1.385 . S
C706 C708 1.478 . S
C707 H701 0.930 . S
C707 C703 1.400 . S
C707 C706 1.385 . S
C708 C706 1.478 . S
C708 C710 1.381 . S
C708 C714 1.383 . S
C709 C705 1.495 . S
C709 H715 0.959 . S
C709 H716 0.961 . S
C709 H717 0.960 . S
C710 C708 1.381 . S
C710 C711 1.394 . S
C710 H718 0.930 . S
C711 C710 1.394 . S
C711 C712 1.383 . S
C711 H719 0.929 . S
C712 C711 1.383 . S
C712 C713 1.377 . S
C713 H697 0.930 . S
C713 C712 1.377 . S
C713 C714 1.379 . S
C714 H698 0.931 . S
C714 C708 1.383 . S
C714 C713 1.379 . S
H715 C709 0.959 . S
H716 C709 0.961 . S
H717 C709 0.960 . S
H718 C710 0.930 . S
H719 C711 0.929 . S
H720 C728 0.929 . S
H721 C730 0.930 . S
H722 C732 0.930 . S
H723 C735 0.929 . S
H724 C738 0.930 . S
H725 C740 0.960 . S
H726 C740 0.960 . S
H727 C740 0.960 . S
C728 H720 0.929 . S
C728 C729 1.377 . S
C728 C730 1.384 . S
C729 C728 1.377 . S
C729 C735 1.390 . S
C730 H721 0.930 . S
C730 C728 1.384 . S
C730 C731 1.372 . S
C731 C730 1.372 . S
C731 C732 1.400 . S
C731 C736 1.490 . S
C732 H722 0.930 . S
C732 C731 1.400 . S
C732 C735 1.386 . S
H733 C749 0.930 . S
H734 C750 0.931 . S
C735 H723 0.929 . S
C735 C729 1.390 . S
C735 C732 1.386 . S
C736 C731 1.490 . S
C736 C738 1.395 . S
C736 C739 1.403 . S
H737 C743 0.930 . S
C738 H724 0.930 . S
C738 C736 1.395 . S
C738 C741 1.403 . S
C739 C736 1.403 . S
C739 C740 1.524 . S
C739 C743 1.400 . S
C740 H725 0.960 . S
C740 H726 0.960 . S
C740 H727 0.960 . S
C740 C739 1.524 . S
C741 C738 1.403 . S
C741 C742 1.392 . S
C741 C745 1.495 . S
C742 C741 1.392 . S
C742 C743 1.385 . S
C742 C744 1.478 . S
C743 H737 0.930 . S
C743 C739 1.400 . S
C743 C742 1.385 . S
C744 C742 1.478 . S
C744 C746 1.381 . S
C744 C750 1.383 . S
C745 C741 1.495 . S
C745 H751 0.959 . S
C745 H752 0.961 . S
C745 H753 0.960 . S
C746 C744 1.381 . S
C746 C747 1.394 . S
C746 H754 0.930 . S
C747 C746 1.394 . S
C747 C748 1.383 . S
C747 H755 0.929 . S
C748 C747 1.383 . S
C748 C749 1.377 . S
C749 H733 0.930 . S
C749 C748 1.377 . S
C749 C750 1.379 . S
C750 H734 0.931 . S
C750 C744 1.383 . S
C750 C749 1.379 . S
H751 C745 0.959 . S
H752 C745 0.961 . S
H753 C745 0.960 . S
H754 C746 0.930 . S
H755 C747 0.929 . S
H756 C764 0.929 . S
H757 C766 0.930 . S
H758 C768 0.930 . S
H759 C771 0.929 . S
H760 C774 0.930 . S
H761 C776 0.960 . S
H762 C776 0.960 . S
H763 C776 0.960 . S
C764 H756 0.929 . S
C764 C765 1.377 . S
C764 C766 1.384 . S
C765 C764 1.377 . S
C765 C771 1.390 . S
C766 H757 0.930 . S
C766 C764 1.384 . S
C766 C767 1.372 . S
C767 C766 1.372 . S
C767 C768 1.400 . S
C767 C772 1.490 . S
C768 H758 0.930 . S
C768 C767 1.400 . S
C768 C771 1.386 . S
H769 C785 0.930 . S
H770 C786 0.931 . S
C771 H759 0.929 . S
C771 C765 1.390 . S
C771 C768 1.386 . S
C772 C767 1.490 . S
C772 C774 1.395 . S
C772 C775 1.403 . S
H773 C779 0.930 . S
C774 H760 0.930 . S
C774 C772 1.395 . S
C774 C777 1.403 . S
C775 C772 1.403 . S
C775 C776 1.524 . S
C775 C779 1.400 . S
C776 H761 0.960 . S
C776 H762 0.960 . S
C776 H763 0.960 . S
C776 C775 1.524 . S
C777 C774 1.403 . S
C777 C778 1.392 . S
C777 C781 1.495 1_556 S
C778 C777 1.392 . S
C778 C779 1.385 . S
C778 C780 1.478 . S
C779 H773 0.930 . S
C779 C775 1.400 . S
C779 C778 1.385 . S
C780 C778 1.478 . S
C780 C782 1.381 . S
C780 C786 1.383 1_565 S
C781 C777 1.495 1_554 S
C781 H787 0.959 . S
C781 H788 0.961 1_565 S
C781 H789 0.960 . S
C782 C780 1.381 . S
C782 C783 1.394 . S
C782 H790 0.930 . S
C783 C782 1.394 . S
C783 C784 1.383 . S
C783 H791 0.929 1_556 S
C784 C783 1.383 . S
C784 C785 1.377 1_565 S
C785 H769 0.930 . S
C785 C784 1.377 1_545 S
C785 C786 1.379 . S
C786 H770 0.931 . S
C786 C780 1.383 1_545 S
C786 C785 1.379 . S
H787 C781 0.959 . S
H788 C781 0.961 1_545 S
H789 C781 0.960 . S
H790 C782 0.930 . S
H791 C783 0.929 1_554 S
H792 C800 0.929 . S
H793 C802 0.930 . S
H794 C804 0.930 . S
H795 C807 0.929 . S
H796 C810 0.930 . S
H797 C812 0.960 . S
H798 C812 0.960 . S
H799 C812 0.960 . S
C800 H792 0.929 . S
C800 C801 1.377 . S
C800 C802 1.384 . S
C801 C800 1.377 . S
C801 C807 1.390 . S
C802 H793 0.930 . S
C802 C800 1.384 . S
C802 C803 1.372 . S
C803 C802 1.372 . S
C803 C804 1.400 . S
C803 C808 1.490 . S
C804 H794 0.930 . S
C804 C803 1.400 . S
C804 C807 1.386 . S
H805 C821 0.930 . S
H806 C822 0.931 . S
C807 H795 0.929 . S
C807 C801 1.390 . S
C807 C804 1.386 . S
C808 C803 1.490 . S
C808 C810 1.395 . S
C808 C811 1.403 . S
H809 C815 0.930 . S
C810 H796 0.930 . S
C810 C808 1.395 . S
C810 C813 1.403 . S
C811 C808 1.403 . S
C811 C812 1.524 . S
C811 C815 1.400 . S
C812 H797 0.960 . S
C812 H798 0.960 . S
C812 H799 0.960 . S
C812 C811 1.524 . S
C813 C810 1.403 . S
C813 C814 1.392 . S
C813 C817 1.495 . S
C814 C813 1.392 . S
C814 C815 1.385 . S
C814 C816 1.478 . S
C815 H809 0.930 . S
C815 C811 1.400 . S
C815 C814 1.385 . S
C816 C814 1.478 . S
C816 C818 1.381 . S
C816 C822 1.383 . S
C817 C813 1.495 . S
C817 H823 0.959 . S
C817 H824 0.961 . S
C817 H825 0.960 . S
C818 C816 1.381 . S
C818 C819 1.394 . S
C818 H826 0.930 . S
C819 C818 1.394 . S
C819 C820 1.383 . S
C819 H827 0.929 . S
C820 C819 1.383 . S
C820 C821 1.377 . S
C821 H805 0.930 . S
C821 C820 1.377 . S
C821 C822 1.379 . S
C822 H806 0.931 . S
C822 C816 1.383 . S
C822 C821 1.379 . S
H823 C817 0.959 . S
H824 C817 0.961 . S
H825 C817 0.960 . S
H826 C818 0.930 . S
H827 C819 0.929 . S
H828 C836 0.929 . S
H829 C838 0.930 . S
H830 C840 0.930 . S
H831 C843 0.929 . S
H832 C846 0.930 . S
H833 C848 0.960 . S
H834 C848 0.960 . S
H835 C848 0.960 . S
C836 H828 0.929 . S
C836 C837 1.377 . S
C836 C838 1.384 . S
C837 C836 1.377 . S
C837 C843 1.390 . S
C838 H829 0.930 . S
C838 C836 1.384 . S
C838 C839 1.372 . S
C839 C838 1.372 . S
C839 C840 1.400 . S
C839 C844 1.490 . S
C840 H830 0.930 . S
C840 C839 1.400 . S
C840 C843 1.386 . S
H841 C857 0.930 . S
H842 C858 0.931 . S
C843 H831 0.929 . S
C843 C837 1.390 . S
C843 C840 1.386 . S
C844 C839 1.490 . S
C844 C846 1.395 . S
C844 C847 1.403 . S
H845 C851 0.930 . S
C846 H832 0.930 . S
C846 C844 1.395 . S
C846 C849 1.403 . S
C847 C844 1.403 . S
C847 C848 1.524 . S
C847 C851 1.400 . S
C848 H833 0.960 . S
C848 H834 0.960 . S
C848 H835 0.960 . S
C848 C847 1.524 . S
C849 C846 1.403 . S
C849 C850 1.392 . S
C849 C853 1.495 . S
C850 C849 1.392 . S
C850 C851 1.385 . S
C850 C852 1.478 . S
C851 H845 0.930 . S
C851 C847 1.400 . S
C851 C850 1.385 . S
C852 C850 1.478 . S
C852 C854 1.381 . S
C852 C858 1.383 . S
C853 C849 1.495 . S
C853 H859 0.959 . S
C853 H860 0.961 . S
C853 H861 0.960 . S
C854 C852 1.381 . S
C854 C855 1.394 . S
C854 H862 0.930 . S
C855 C854 1.394 . S
C855 C856 1.383 . S
C855 H863 0.929 . S
C856 C855 1.383 . S
C856 C857 1.377 . S
C857 H841 0.930 . S
C857 C856 1.377 . S
C857 C858 1.379 . S
C858 H842 0.931 . S
C858 C852 1.383 . S
C858 C857 1.379 . S
H859 C853 0.959 . S
H860 C853 0.961 . S
H861 C853 0.960 . S
H862 C854 0.930 . S
H863 C855 0.929 . S
H864 C872 0.929 . S
H865 C874 0.930 . S
H866 C876 0.930 . S
H867 C879 0.929 . S
H868 C882 0.930 . S
H869 C884 0.960 . S
H870 C884 0.960 . S
H871 C884 0.960 . S
C872 H864 0.929 . S
C872 C873 1.377 . S
C872 C874 1.384 . S
C873 C872 1.377 . S
C873 C879 1.390 . S
C874 H865 0.930 . S
C874 C872 1.384 . S
C874 C875 1.372 . S
C875 C874 1.372 . S
C875 C876 1.400 . S
C875 C880 1.490 . S
C876 H866 0.930 . S
C876 C875 1.400 . S
C876 C879 1.386 . S
H877 C893 0.930 . S
H878 C894 0.931 . S
C879 H867 0.929 . S
C879 C873 1.390 . S
C879 C876 1.386 . S
C880 C875 1.490 . S
C880 C882 1.395 . S
C880 C883 1.403 . S
H881 C887 0.930 . S
C882 H868 0.930 . S
C882 C880 1.395 . S
C882 C885 1.403 . S
C883 C880 1.403 . S
C883 C884 1.524 . S
C883 C887 1.400 . S
C884 H869 0.960 . S
C884 H870 0.960 . S
C884 H871 0.960 . S
C884 C883 1.524 . S
C885 C882 1.403 . S
C885 C886 1.392 . S
C885 C889 1.495 . S
C886 C885 1.392 . S
C886 C887 1.385 . S
C886 C888 1.478 . S
C887 H881 0.930 . S
C887 C883 1.400 . S
C887 C886 1.385 . S
C888 C886 1.478 . S
C888 C890 1.381 . S
C888 C894 1.383 . S
C889 C885 1.495 . S
C889 H895 0.959 . S
C889 H896 0.961 . S
C889 H897 0.960 . S
C890 C888 1.381 . S
C890 C891 1.394 . S
C890 H898 0.930 . S
C891 C890 1.394 . S
C891 C892 1.383 . S
C891 H899 0.929 . S
C892 C891 1.383 . S
C892 C893 1.377 . S
C893 H877 0.930 . S
C893 C892 1.377 . S
C893 C894 1.379 . S
C894 H878 0.931 . S
C894 C888 1.383 . S
C894 C893 1.379 . S
H895 C889 0.959 . S
H896 C889 0.961 . S
H897 C889 0.960 . S
H898 C890 0.930 . S
H899 C891 0.929 . S
H900 C908 0.929 . S
H901 C910 0.930 . S
H902 C912 0.930 . S
H903 C915 0.929 . S
H904 C918 0.930 . S
H905 C920 0.960 . S
H906 C920 0.960 . S
H907 C920 0.960 . S
C908 H900 0.929 . S
C908 C909 1.377 . S
C908 C910 1.384 . S
C909 C908 1.377 . S
C909 C915 1.390 . S
C910 H901 0.930 . S
C910 C908 1.384 . S
C910 C911 1.372 . S
C911 C910 1.372 . S
C911 C912 1.400 . S
C911 C916 1.490 . S
C912 H902 0.930 . S
C912 C911 1.400 . S
C912 C915 1.386 . S
H913 C929 0.930 . S
H914 C930 0.923 1_554 S
C915 H903 0.929 . S
C915 C909 1.390 . S
C915 C912 1.386 . S
C916 C911 1.490 . S
C916 C918 1.395 . S
C916 C919 1.403 . S
H917 C923 0.930 . S
C918 H904 0.930 . S
C918 C916 1.395 . S
C918 C921 1.403 . S
C919 C916 1.403 . S
C919 C920 1.524 . S
C919 C923 1.400 . S
C920 H905 0.960 . S
C920 H906 0.960 . S
C920 H907 0.960 . S
C920 C919 1.524 . S
C921 C918 1.403 . S
C921 C922 1.392 . S
C921 C925 1.495 1_655 S
C922 C921 1.392 . S
C922 C923 1.385 . S
C922 C924 1.478 . S
C923 H917 0.930 . S
C923 C919 1.400 . S
C923 C922 1.385 . S
C924 C922 1.478 . S
C924 C926 1.381 . S
C924 C930 1.396 . S
C925 C921 1.495 1_455 S
C925 H931 0.959 . S
C925 H932 0.961 . S
C925 H933 0.960 . S
C926 C924 1.381 . S
C926 C927 1.394 . S
C926 H934 0.930 . S
C927 C926 1.394 . S
C927 C928 1.383 . S
C927 H935 0.929 . S
C928 C927 1.383 . S
C928 C929 1.377 1_556 S
C929 H913 0.930 . S
C929 C928 1.377 1_554 S
C929 C930 1.374 1_554 S
C930 H914 0.923 1_556 S
C930 C924 1.396 . S
C930 C929 1.374 1_556 S
H931 C925 0.959 . S
H932 C925 0.961 . S
H933 C925 0.960 . S
H934 C926 0.930 . S
H935 C927 0.929 . S
H936 C944 0.929 . S
H937 C946 0.930 . S
H938 C948 0.930 . S
H939 C951 0.929 . S
H940 C954 0.930 . S
H941 C956 0.960 . S
H942 C956 0.960 . S
H943 C956 0.960 . S
C944 H936 0.929 . S
C944 C945 1.377 . S
C944 C946 1.384 . S
C945 C944 1.377 . S
C945 C951 1.390 . S
C946 H937 0.930 . S
C946 C944 1.384 . S
C946 C947 1.372 . S
C947 C946 1.372 . S
C947 C948 1.400 . S
C947 C952 1.490 . S
C948 H938 0.930 . S
C948 C947 1.400 . S
C948 C951 1.386 . S
H949 C965 0.930 . S
H950 C966 0.931 . S
C951 H939 0.929 . S
C951 C945 1.390 . S
C951 C948 1.386 . S
C952 C947 1.490 . S
C952 C954 1.395 . S
C952 C955 1.403 . S
H953 C959 0.930 . S
C954 H940 0.930 . S
C954 C952 1.395 . S
C954 C957 1.403 . S
C955 C952 1.403 . S
C955 C956 1.524 . S
C955 C959 1.400 . S
C956 H941 0.960 . S
C956 H942 0.960 . S
C956 H943 0.960 . S
C956 C955 1.524 . S
C957 C954 1.403 . S
C957 C958 1.392 . S
C957 C961 1.495 . S
C958 C957 1.392 . S
C958 C959 1.385 . S
C958 C960 1.478 . S
C959 H953 0.930 . S
C959 C955 1.400 . S
C959 C958 1.385 . S
C960 C958 1.478 . S
C960 C962 1.381 . S
C960 C966 1.383 . S
C961 C957 1.495 . S
C961 H967 0.959 . S
C961 H968 0.961 . S
C961 H969 0.960 . S
C962 C960 1.381 . S
C962 C963 1.394 . S
C962 H970 0.930 . S
C963 C962 1.394 . S
C963 C964 1.383 . S
C963 H971 0.929 . S
C964 C963 1.383 . S
C964 C965 1.377 . S
C965 H949 0.930 . S
C965 C964 1.377 . S
C965 C966 1.379 . S
C966 H950 0.931 . S
C966 C960 1.383 . S
C966 C965 1.379 . S
H967 C961 0.959 . S
H968 C961 0.961 . S
H969 C961 0.960 . S
H970 C962 0.930 . S
H971 C963 0.929 . S
H972 C980 0.929 . S
H973 C982 0.930 . S
H974 C984 0.930 . S
H975 C987 0.929 . S
H976 C990 0.930 . S
H977 C992 0.960 . S
H978 C992 0.960 . S
H979 C992 0.960 . S
C980 H972 0.929 . S
C980 C981 1.377 . S
C980 C982 1.384 . S
C981 C980 1.377 . S
C981 C987 1.390 . S
C982 H973 0.930 . S
C982 C980 1.384 . S
C982 C983 1.372 . S
C983 C982 1.372 . S
C983 C984 1.400 . S
C983 C988 1.490 . S
C984 H974 0.930 . S
C984 C983 1.400 . S
C984 C987 1.386 . S
H985 C1001 0.930 . S
H986 C1002 0.931 . S
C987 H975 0.929 . S
C987 C981 1.390 . S
C987 C984 1.386 . S
C988 C983 1.490 . S
C988 C990 1.395 . S
C988 C991 1.403 . S
H989 C995 0.930 . S
C990 H976 0.930 . S
C990 C988 1.395 . S
C990 C993 1.403 . S
C991 C988 1.403 . S
C991 C992 1.524 . S
C991 C995 1.400 . S
C992 H977 0.960 . S
C992 H978 0.960 . S
C992 H979 0.960 . S
C992 C991 1.524 . S
C993 C990 1.403 . S
C993 C994 1.392 . S
C993 C997 1.495 . S
C994 C993 1.392 . S
C994 C995 1.385 . S
C994 C996 1.478 . S
C995 H989 0.930 . S
C995 C991 1.400 . S
C995 C994 1.385 . S
C996 C994 1.478 . S
C996 C998 1.381 . S
C996 C1002 1.383 . S
C997 C993 1.495 . S
C997 H1003 0.959 . S
C997 H1004 0.961 . S
C997 H1005 0.960 1_455 S
C998 C996 1.381 . S
C998 C999 1.394 . S
C998 H1006 0.926 1_455 S
C999 C998 1.394 . S
C999 C1000 1.383 . S
C999 H1007 0.929 1_455 S
C1000 C999 1.383 . S
C1000 C1001 1.377 . S
C1001 H985 0.930 . S
C1001 C1000 1.377 . S
C1001 C1002 1.379 . S
C1002 H986 0.931 . S
C1002 C996 1.383 . S
C1002 C1001 1.379 . S
H1003 C997 0.959 . S
H1004 C997 0.961 . S
H1005 C997 0.960 1_655 S
H1006 C998 0.926 1_655 S
H1007 C999 0.929 1_655 S
H1008 C1016 0.929 . S
H1009 C1018 0.930 . S
H1010 C1020 0.930 . S
H1011 C1023 0.929 . S
H1012 C1026 0.930 . S
H1013 C1028 0.960 . S
H1014 C1028 0.960 . S
H1015 C1028 0.960 . S
C1016 H1008 0.929 . S
C1016 C1017 1.377 . S
C1016 C1018 1.384 . S
C1017 C1016 1.377 . S
C1017 C1023 1.390 . S
C1018 H1009 0.930 . S
C1018 C1016 1.384 . S
C1018 C1019 1.372 . S
C1019 C1018 1.372 . S
C1019 C1020 1.400 . S
C1019 C1024 1.490 . S
C1020 H1010 0.930 . S
C1020 C1019 1.400 . S
C1020 C1023 1.386 . S
H1021 C1037 0.930 . S
H1022 C1038 0.931 . S
C1023 H1011 0.929 . S
C1023 C1017 1.390 . S
C1023 C1020 1.386 . S
C1024 C1019 1.490 . S
C1024 C1026 1.395 . S
C1024 C1027 1.403 . S
H1025 C1031 0.930 . S
C1026 H1012 0.930 . S
C1026 C1024 1.395 . S
C1026 C1029 1.403 . S
C1027 C1024 1.403 . S
C1027 C1028 1.524 . S
C1027 C1031 1.400 . S
C1028 H1013 0.960 . S
C1028 H1014 0.960 . S
C1028 H1015 0.960 . S
C1028 C1027 1.524 . S
C1029 C1026 1.403 . S
C1029 C1030 1.392 . S
C1029 C1033 1.495 . S
C1030 C1029 1.392 . S
C1030 C1031 1.385 . S
C1030 C1032 1.478 . S
C1031 H1025 0.930 . S
C1031 C1027 1.400 . S
C1031 C1030 1.385 . S
C1032 C1030 1.478 . S
C1032 C1034 1.381 . S
C1032 C1038 1.383 . S
C1033 C1029 1.495 . S
C1033 H1039 0.959 . S
C1033 H1040 0.961 . S
C1033 H1041 0.960 . S
C1034 C1032 1.381 . S
C1034 C1035 1.394 . S
C1034 H1042 0.930 . S
C1035 C1034 1.394 . S
C1035 C1036 1.383 . S
C1035 H1043 0.929 . S
C1036 C1035 1.383 . S
C1036 C1037 1.377 . S
C1037 H1021 0.930 . S
C1037 C1036 1.377 . S
C1037 C1038 1.379 . S
C1038 H1022 0.931 . S
C1038 C1032 1.383 . S
C1038 C1037 1.379 . S
H1039 C1033 0.959 . S
H1040 C1033 0.961 . S
H1041 C1033 0.960 . S
H1042 C1034 0.930 . S
H1043 C1035 0.929 . S
C189 C6 1.801 . S
C208 C114 1.763 . S
C225 C18 1.811 . S
C244 C131 1.747 . S
C280 C154 1.222 . S
C261 C28 1.430 . S
C297 C40 1.193 . S
C316 C175 1.048 . S
C352 C134 2.052 . S
C333 C9 2.126 . S
C388 C111 1.671 . S
C369 C16 1.716 . S
C424 C173 1.279 . S
C405 C30 1.310 . S
C460 C152 1.047 . S
C441 C42 1.043 . S
C477 C4 1.727 . S
C496 C176 1.648 . S
C532 C133 1.361 . S
C513 C33 1.677 . S
C549 C45 1.397 . S
C568 C109 1.258 . S
C585 C21 1.749 . S
C604 C155 1.738 . S
C640 C113 1.816 . S
C621 C57 1.882 . S
C657 C66 1.614 . S
C676 C132 1.591 . S
C693 C76 1.558 . S
C712 C151 1.283 . S
C729 C88 1.024 . S
C748 C172 0.956 . S
C765 C54 2.059 . S
C784 C135 2.007 . S
C820 C110 1.797 . S
C801 C64 1.842 . S
C856 C174 0.990 . S
C837 C78 1.080 . S
C892 C153 1.163 . S
C873 C93 1.224 . S
C909 C52 1.476 . S
C928 C177 1.433 . S
C964 C130 1.387 . S
C945 C81 1.563 . S
C1000 C112 1.069 . S
C981 C90 1.139 . S
C1017 C69 1.745 . S
C1036 C156 1.685 . S
