# Generated by pormake.
# Topology ssc, (4,4)-cn, num edge types: 1
# Building blocks:
#     Node 0, Type 0, BuildingBlock: GALJAG_clean_sbu_0, # of connection points: 4
#     Node 1, Type 0, BuildingBlock: GALJAG_clean_sbu_0, # of connection points: 4
#     Node 2, Type 0, BuildingBlock: GALJAG_clean_sbu_0, # of connection points: 4
#     Node 3, Type 0, BuildingBlock: GALJAG_clean_sbu_0, # of connection points: 4
#     Node 4, Type 0, BuildingBlock: GALJAG_clean_sbu_0, # of connection points: 4
#     Node 5, Type 0, BuildingBlock: GALJAG_clean_sbu_0, # of connection points: 4
#     Node 6, Type 0, BuildingBlock: GALJAG_clean_sbu_0, # of connection points: 4
#     Node 7, Type 0, BuildingBlock: GALJAG_clean_sbu_0, # of connection points: 4
#     Node 8, Type 0, BuildingBlock: GALJAG_clean_sbu_0, # of connection points: 4
#     Node 9, Type 0, BuildingBlock: GALJAG_clean_sbu_0, # of connection points: 4
#     Node 10, Type 0, BuildingBlock: GALJAG_clean_sbu_0, # of connection points: 4
#     Node 11, Type 0, BuildingBlock: GALJAG_clean_sbu_0, # of connection points: 4
#     Node 12, Type 1, BuildingBlock: KUFVIS_clean_linker_0, # of connection points: 4
#     Node 13, Type 1, BuildingBlock: KUFVIS_clean_linker_0, # of connection points: 4
#     Node 14, Type 1, BuildingBlock: KUFVIS_clean_linker_0, # of connection points: 4
#     Node 15, Type 1, BuildingBlock: KUFVIS_clean_linker_0, # of connection points: 4
#     Node 16, Type 1, BuildingBlock: KUFVIS_clean_linker_0, # of connection points: 4
#     Node 17, Type 1, BuildingBlock: KUFVIS_clean_linker_0, # of connection points: 4
#     Node 18, Type 1, BuildingBlock: KUFVIS_clean_linker_0, # of connection points: 4
#     Node 19, Type 1, BuildingBlock: KUFVIS_clean_linker_0, # of connection points: 4
#     Node 20, Type 1, BuildingBlock: KUFVIS_clean_linker_0, # of connection points: 4
#     Node 21, Type 1, BuildingBlock: KUFVIS_clean_linker_0, # of connection points: 4
#     Node 22, Type 1, BuildingBlock: KUFVIS_clean_linker_0, # of connection points: 4
#     Node 23, Type 1, BuildingBlock: KUFVIS_clean_linker_0, # of connection points: 4
#     Edge 24, Type (0, 1), BuildingBlock: AJUNOK_clean_linker_0, # of connection points: 2
#     Edge 25, Type (0, 1), BuildingBlock: AJUNOK_clean_linker_0, # of connection points: 2
#     Edge 26, Type (0, 1), BuildingBlock: AJUNOK_clean_linker_0, # of connection points: 2
#     Edge 27, Type (0, 1), BuildingBlock: AJUNOK_clean_linker_0, # of connection points: 2
#     Edge 28, Type (0, 1), BuildingBlock: AJUNOK_clean_linker_0, # of connection points: 2
#     Edge 29, Type (0, 1), BuildingBlock: AJUNOK_clean_linker_0, # of connection points: 2
#     Edge 30, Type (0, 1), BuildingBlock: AJUNOK_clean_linker_0, # of connection points: 2
#     Edge 31, Type (0, 1), BuildingBlock: AJUNOK_clean_linker_0, # of connection points: 2
#     Edge 32, Type (0, 1), BuildingBlock: AJUNOK_clean_linker_0, # of connection points: 2
#     Edge 33, Type (0, 1), BuildingBlock: AJUNOK_clean_linker_0, # of connection points: 2
#     Edge 34, Type (0, 1), BuildingBlock: AJUNOK_clean_linker_0, # of connection points: 2
#     Edge 35, Type (0, 1), BuildingBlock: AJUNOK_clean_linker_0, # of connection points: 2
#     Edge 36, Type (0, 1), BuildingBlock: AJUNOK_clean_linker_0, # of connection points: 2
#     Edge 37, Type (0, 1), BuildingBlock: AJUNOK_clean_linker_0, # of connection points: 2
#     Edge 38, Type (0, 1), BuildingBlock: AJUNOK_clean_linker_0, # of connection points: 2
#     Edge 39, Type (0, 1), BuildingBlock: AJUNOK_clean_linker_0, # of connection points: 2
#     Edge 40, Type (0, 1), BuildingBlock: AJUNOK_clean_linker_0, # of connection points: 2
#     Edge 41, Type (0, 1), BuildingBlock: AJUNOK_clean_linker_0, # of connection points: 2
#     Edge 42, Type (0, 1), BuildingBlock: AJUNOK_clean_linker_0, # of connection points: 2
#     Edge 43, Type (0, 1), BuildingBlock: AJUNOK_clean_linker_0, # of connection points: 2
#     Edge 44, Type (0, 1), BuildingBlock: AJUNOK_clean_linker_0, # of connection points: 2
#     Edge 45, Type (0, 1), BuildingBlock: AJUNOK_clean_linker_0, # of connection points: 2
#     Edge 46, Type (0, 1), BuildingBlock: AJUNOK_clean_linker_0, # of connection points: 2
#     Edge 47, Type (0, 1), BuildingBlock: AJUNOK_clean_linker_0, # of connection points: 2
#     Edge 48, Type (0, 1), BuildingBlock: AJUNOK_clean_linker_0, # of connection points: 2
#     Edge 49, Type (0, 1), BuildingBlock: AJUNOK_clean_linker_0, # of connection points: 2
#     Edge 50, Type (0, 1), BuildingBlock: AJUNOK_clean_linker_0, # of connection points: 2
#     Edge 51, Type (0, 1), BuildingBlock: AJUNOK_clean_linker_0, # of connection points: 2
#     Edge 52, Type (0, 1), BuildingBlock: AJUNOK_clean_linker_0, # of connection points: 2
#     Edge 53, Type (0, 1), BuildingBlock: AJUNOK_clean_linker_0, # of connection points: 2
#     Edge 54, Type (0, 1), BuildingBlock: AJUNOK_clean_linker_0, # of connection points: 2
#     Edge 55, Type (0, 1), BuildingBlock: AJUNOK_clean_linker_0, # of connection points: 2
#     Edge 56, Type (0, 1), BuildingBlock: AJUNOK_clean_linker_0, # of connection points: 2
#     Edge 57, Type (0, 1), BuildingBlock: AJUNOK_clean_linker_0, # of connection points: 2
#     Edge 58, Type (0, 1), BuildingBlock: AJUNOK_clean_linker_0, # of connection points: 2
#     Edge 59, Type (0, 1), BuildingBlock: AJUNOK_clean_linker_0, # of connection points: 2
#     Edge 60, Type (0, 1), BuildingBlock: AJUNOK_clean_linker_0, # of connection points: 2
#     Edge 61, Type (0, 1), BuildingBlock: AJUNOK_clean_linker_0, # of connection points: 2
#     Edge 62, Type (0, 1), BuildingBlock: AJUNOK_clean_linker_0, # of connection points: 2
#     Edge 63, Type (0, 1), BuildingBlock: AJUNOK_clean_linker_0, # of connection points: 2
#     Edge 64, Type (0, 1), BuildingBlock: AJUNOK_clean_linker_0, # of connection points: 2
#     Edge 65, Type (0, 1), BuildingBlock: AJUNOK_clean_linker_0, # of connection points: 2
#     Edge 66, Type (0, 1), BuildingBlock: AJUNOK_clean_linker_0, # of connection points: 2
#     Edge 67, Type (0, 1), BuildingBlock: AJUNOK_clean_linker_0, # of connection points: 2
#     Edge 68, Type (0, 1), BuildingBlock: AJUNOK_clean_linker_0, # of connection points: 2
#     Edge 69, Type (0, 1), BuildingBlock: AJUNOK_clean_linker_0, # of connection points: 2
#     Edge 70, Type (0, 1), BuildingBlock: AJUNOK_clean_linker_0, # of connection points: 2
#     Edge 71, Type (0, 1), BuildingBlock: AJUNOK_clean_linker_0, # of connection points: 2
# Relax obj value: 0.073
# Max RMSD: 0.279
# Mean RMSD: 0.240
data_MOF--net-ssc--node1-GALJAG_clean_sbu_0--node2-KUFVIS_clean_linker_0--edge1-AJUNOK_clean_linker_0
_symmetry_space_group_name_H-M    P1
_symmetry_Int_Tables_number       1
_symmetry_cell_setting            triclinic
loop_
_symmetry_equiv_pos_as_xyz
'x, y, z'
_cell_length_a     23.441492
_cell_length_b     23.391715
_cell_length_c     23.454465
_cell_angle_alpha  90.076615
_cell_angle_beta   89.991931
_cell_angle_gamma 90.16713
loop_
_atom_site_label
_atom_site_type_symbol
_atom_site_fract_x
_atom_site_fract_y
_atom_site_fract_z
_atom_type_partial_charge
In0 In 0.99379 0.22307 0.12843 0.0
O1 O 0.03087 0.1818 0.20999 0.0
O2 O 0.06195 0.26337 0.18545 0.0
C3 C 0.02613 0.14456 0.05077 0.0
C4 C 0.89442 0.21914 0.18526 0.0
C5 C 0.98478 0.30467 0.04731 0.0
O6 O 0.05637 0.18768 0.0622 0.0
O7 O 0.98478 0.13727 0.08442 0.0
O8 O 0.9474 0.2663 0.0533 0.0
O9 O 0.0226 0.30485 0.08562 0.0
C10 C 0.06232 0.22393 0.22212 0.0
O11 O 0.92777 0.2615 0.18919 0.0
O12 O 0.90913 0.18197 0.14919 0.0
In13 In 0.00418 0.76114 0.37621 0.0
O14 O 0.95833 0.69681 0.43419 0.0
O15 O 0.04786 0.70755 0.44334 0.0
C16 C 0.91719 0.73862 0.30373 0.0
C17 C 0.9971 0.85817 0.43868 0.0
C18 C 0.08499 0.76031 0.2939 0.0
O19 O 0.96249 0.70961 0.30426 0.0
O20 O 0.91374 0.77476 0.34364 0.0
O21 O 0.05144 0.80195 0.30003 0.0
O22 O 0.08154 0.72342 0.33281 0.0
C23 C 0.00315 0.68307 0.4606 0.0
O24 O 0.03686 0.82299 0.44689 0.0
O25 O 0.96602 0.84641 0.39652 0.0
In26 In 0.50289 0.73333 0.6351 0.0
O27 O 0.5403 0.69109 0.55551 0.0
O28 O 0.47815 0.64566 0.60261 0.0
C29 C 0.58806 0.72337 0.71422 0.0
C30 C 0.50052 0.8211 0.56119 0.0
C31 C 0.40636 0.74362 0.69683 0.0
O32 O 0.54004 0.69973 0.71982 0.0
O33 O 0.59434 0.74834 0.66708 0.0
O34 O 0.4468 0.77932 0.70074 0.0
O35 O 0.4137 0.70525 0.65986 0.0
C36 C 0.50714 0.64881 0.55748 0.0
O37 O 0.46229 0.7832 0.56179 0.0
O38 O 0.53546 0.81813 0.60196 0.0
In39 In 0.5302 0.2416 0.85449 0.0
O40 O 0.61997 0.25364 0.81671 0.0
O41 O 0.58238 0.17061 0.81584 0.0
C42 C 0.5112 0.33435 0.92083 0.0
C43 C 0.4712 0.24868 0.75562 0.0
C44 C 0.52101 0.1752 0.94712 0.0
O45 O 0.56097 0.31939 0.90614 0.0
O46 O 0.47179 0.30635 0.89696 0.0
O47 O 0.47828 0.18495 0.91553 0.0
O48 O 0.56767 0.19536 0.92947 0.0
C49 C 0.62461 0.20143 0.80267 0.0
O50 O 0.46073 0.20961 0.79157 0.0
O51 O 0.50821 0.28473 0.77157 0.0
In52 In 0.14682 0.99875 0.24713 0.0
O53 O 0.20979 0.94732 0.30182 0.0
O54 O 0.19457 0.91974 0.21694 0.0
C55 C 0.05847 0.99996 0.32082 0.0
C56 C 0.22753 0.08049 0.24724 0.0
C57 C 0.07436 0.0042 0.15832 0.0
O58 O 0.07592 0.95443 0.29763 0.0
O59 O 0.08971 0.04297 0.31217 0.0
O60 O 0.08701 0.04766 0.18758 0.0
O61 O 0.10299 0.96018 0.16984 0.0
C62 C 0.22334 0.91352 0.26197 0.0
O63 O 0.22203 0.04662 0.20564 0.0
O64 O 0.19036 0.07535 0.28573 0.0
In65 In 0.23642 0.87721 0.47974 0.0
O66 O 0.22269 0.82203 0.39886 0.0
O67 O 0.30718 0.83365 0.42795 0.0
C68 C 0.17268 0.96626 0.43896 0.0
C69 C 0.19575 0.79902 0.55806 0.0
C70 C 0.30309 0.95468 0.53544 0.0
O71 O 0.22626 0.96506 0.43503 0.0
O72 O 0.15161 0.91954 0.45608 0.0
O73 O 0.25103 0.94755 0.54741 0.0
O74 O 0.32225 0.91857 0.50014 0.0
C75 C 0.27469 0.80978 0.39232 0.0
O76 O 0.24827 0.8056 0.54825 0.0
O77 O 0.16461 0.83248 0.52992 0.0
In78 In 0.37105 0.02466 0.78664 0.0
O79 O 0.35954 0.93496 0.75327 0.0
O80 O 0.33799 0.95132 0.84016 0.0
C81 C 0.43574 0.04229 0.6931 0.0
C82 C 0.26603 0.07577 0.77965 0.0
C83 C 0.45477 0.02986 0.86542 0.0
O84 O 0.42177 0.99277 0.70945 0.0
O85 O 0.415 0.08221 0.72249 0.0
O86 O 0.45567 0.0607 0.82153 0.0
O87 O 0.40824 0.00409 0.87307 0.0
C88 C 0.33864 0.91602 0.79933 0.0
O89 O 0.30561 0.09743 0.8095 0.0
O90 O 0.28082 0.03193 0.7526 0.0
In91 In 0.2621 0.13636 0.98001 0.0
O92 O 0.23134 0.18162 0.06103 0.0
O93 O 0.31998 0.16501 0.05266 0.0
C94 C 0.17109 0.06942 0.95484 0.0
C95 C 0.26166 0.23612 0.9196 0.0
C96 C 0.33634 0.04829 0.98528 0.0
O97 O 0.18224 0.0867 0.00463 0.0
O98 O 0.20284 0.09017 0.91635 0.0
O99 O 0.34961 0.09458 0.96028 0.0
O100 O 0.28717 0.04761 0.00667 0.0
C101 C 0.28075 0.18757 0.0817 0.0
O102 O 0.29232 0.19444 0.90354 0.0
O103 O 0.23015 0.22504 0.96167 0.0
In104 In 0.73131 0.39416 0.0106 0.0
O105 O 0.75236 0.35228 0.09741 0.0
O106 O 0.66571 0.35617 0.07124 0.0
C107 C 0.82697 0.45876 0.0036 0.0
C108 C 0.73887 0.30028 0.94321 0.0
C109 C 0.6589 0.48118 0.98508 0.0
O110 O 0.79068 0.46579 0.04275 0.0
O111 O 0.81789 0.41588 0.97249 0.0
O112 O 0.69439 0.46187 0.94951 0.0
O113 O 0.65715 0.45387 0.0314 0.0
C114 C 0.70094 0.33948 0.10815 0.0
O115 O 0.70846 0.34254 0.92891 0.0
O116 O 0.76399 0.30587 0.99022 0.0
In117 In 0.86597 0.44834 0.23333 0.0
O118 O 0.80369 0.3733 0.21964 0.0
O119 O 0.8404 0.3864 0.30134 0.0
C120 C 0.91911 0.46651 0.13549 0.0
C121 C 0.78324 0.52631 0.24612 0.0
C122 C 0.96941 0.4579 0.2811 0.0
O123 O 0.91501 0.4168 0.15598 0.0
O124 O 0.88763 0.50336 0.1586 0.0
O125 O 0.93209 0.49625 0.28861 0.0
O126 O 0.95176 0.41354 0.25589 0.0
C127 C 0.80457 0.35913 0.27156 0.0
O128 O 0.82836 0.52795 0.27585 0.0
O129 O 0.78063 0.48615 0.21016 0.0
In130 In 0.75045 0.63348 0.48384 0.0
O131 O 0.71224 0.69881 0.54792 0.0
O132 O 0.80102 0.68226 0.55065 0.0
C133 C 0.66374 0.55831 0.50602 0.0
C134 C 0.74081 0.71593 0.40149 0.0
C135 C 0.83198 0.55069 0.4637 0.0
O136 O 0.70095 0.57127 0.54277 0.0
O137 O 0.66808 0.58654 0.46046 0.0
O138 O 0.79849 0.56829 0.4255 0.0
O139 O 0.82653 0.57693 0.51027 0.0
C140 C 0.7599 0.71107 0.57011 0.0
O141 O 0.78437 0.71134 0.43275 0.0
O142 O 0.70463 0.67653 0.40853 0.0
In143 In 0.61905 0.51074 0.74794 0.0
O144 O 0.68735 0.44882 0.7847 0.0
O145 O 0.661 0.43904 0.69892 0.0
C146 C 0.54398 0.50042 0.83451 0.0
C147 C 0.70169 0.59252 0.74844 0.0
C148 C 0.53158 0.5206 0.6718 0.0
O149 O 0.55926 0.45803 0.80478 0.0
O150 O 0.5713 0.54583 0.8245 0.0
O151 O 0.54365 0.56026 0.70636 0.0
O152 O 0.56631 0.47961 0.67249 0.0
C153 C 0.69435 0.423 0.73785 0.0
O154 O 0.68406 0.57065 0.70235 0.0
O155 O 0.67454 0.57635 0.79192 0.0
H156 H 0.87439 0.40727 0.60216 0.0
H157 H 0.93424 0.25409 0.68152 0.0
H158 H 0.99005 0.2996 0.51097 0.0
H159 H 0.00975 0.20299 0.51092 0.0
H160 H 0.13161 0.10551 0.6055 0.0
H161 H 0.03433 0.2344 0.69187 0.0
C162 C 0.90191 0.3699 0.60123 0.0
C163 C 0.92817 0.35487 0.5503 0.0
C164 C 0.89987 0.33198 0.64666 0.0
C165 C 0.93624 0.28402 0.64637 0.0
C166 C 0.97301 0.27358 0.59907 0.0
C167 C 0.96622 0.30827 0.54954 0.0
C168 C 0.01644 0.22585 0.60092 0.0
C169 C 0.0313 0.1948 0.55088 0.0
C170 C 0.07352 0.15204 0.55261 0.0
C171 C 0.09958 0.13898 0.60442 0.0
C172 C 0.08482 0.16712 0.65495 0.0
C173 C 0.04413 0.2114 0.65299 0.0
H174 H 0.90383 0.58413 0.83471 0.0
H175 H 0.02532 0.67542 0.93753 0.0
H176 H 0.9552 0.75375 0.7874 0.0
H177 H 0.11152 0.71512 0.81882 0.0
H178 H 0.15193 0.89074 0.85152 0.0
H179 H 0.99207 0.82314 0.91045 0.0
C180 C 0.93231 0.62054 0.84028 0.0
C181 C 0.92495 0.66788 0.8053 0.0
C182 C 0.96287 0.6253 0.8909 0.0
C183 C -0.00038 0.67254 0.89923 0.0
C184 C 0.0015 0.71676 0.85804 0.0
C185 C 0.96043 0.71621 0.81365 0.0
C186 C 0.04475 0.76396 0.86145 0.0
C187 C 0.09946 0.7562 0.8364 0.0
C188 C 0.13784 0.80257 0.83351 0.0
C189 C 0.12175 0.85529 0.85431 0.0
C190 C 0.0717 0.86277 0.88442 0.0
C191 C 0.03194 0.81729 0.88787 0.0
H192 H 0.40974 0.92827 0.16226 0.0
H193 H 0.48029 0.76868 0.21735 0.0
H194 H 0.53463 0.845 0.05945 0.0
H195 H 0.54076 0.7468 0.04 0.0
H196 H 0.67975 0.64606 0.10179 0.0
H197 H 0.5787 0.74163 0.22005 0.0
C198 C 0.44162 0.89489 0.15769 0.0
C199 C 0.47062 0.89036 0.1063 0.0
C200 C 0.4429 0.85047 0.19708 0.0
C201 C 0.48105 0.80465 0.18863 0.0
C202 C 0.51713 0.80351 0.1402 0.0
C203 C 0.51044 0.84656 0.09854 0.0
C204 C 0.55902 0.75617 0.13053 0.0
C205 C 0.56865 0.73479 0.07478 0.0
C206 C 0.61173 0.69438 0.06471 0.0
C207 C 0.64703 0.67807 0.10937 0.0
C208 C 0.6339 0.69257 0.16526 0.0
C209 C 0.58933 0.73116 0.17639 0.0
H210 H 0.34329 0.12243 0.40894 0.0
H211 H 0.46266 0.20455 0.52001 0.0
H212 H 0.46569 0.23935 0.33863 0.0
H213 H 0.56903 0.23363 0.36402 0.0
H214 H 0.66411 0.33824 0.48059 0.0
H215 H 0.48447 0.31684 0.50283 0.0
C216 C 0.37722 0.15345 0.41553 0.0
C217 C 0.40047 0.18133 0.36845 0.0
C218 C 0.39862 0.16164 0.47009 0.0
C219 C 0.44507 0.19911 0.47779 0.0
C220 C 0.47088 0.22672 0.43045 0.0
C221 C 0.44771 0.21782 0.37538 0.0
C222 C 0.52315 0.26244 0.43936 0.0
C223 C 0.57131 0.25855 0.40286 0.0
C224 C 0.62141 0.2896 0.41613 0.0
C225 C 0.62491 0.31602 0.46954 0.0
C226 C 0.57487 0.33328 0.49627 0.0
C227 C 0.52402 0.30406 0.48305 0.0
H228 H 0.5914 0.84784 0.34878 0.0
H229 H 0.67648 0.97305 0.24435 0.0
H230 H 0.52609 0.01784 0.34143 0.0
H231 H 0.53078 0.00874 0.19025 0.0
H232 H 0.53331 0.1908 0.17367 0.0
H233 H 0.65066 0.10835 0.28766 0.0
C234 C 0.59276 0.89011 0.32945 0.0
C235 C 0.55593 0.93121 0.35039 0.0
C236 C 0.64008 0.90574 0.29717 0.0
C237 C 0.64174 0.96114 0.2724 0.0
C238 C 0.59673 1.00042 0.28399 0.0
C239 C 0.55641 0.98623 0.3266 0.0
C240 C 0.58648 0.05309 0.24927 0.0
C241 C 0.54605 0.05004 0.20489 0.0
C242 C 0.52812 0.09994 0.17675 0.0
C243 C 0.54664 0.15283 0.19675 0.0
C244 C 0.59564 0.15607 0.23019 0.0
C245 C 0.6145 0.10614 0.25907 0.0
H246 H 0.07654 0.36354 0.3977 0.0
H247 H 0.22949 0.45842 0.4311 0.0
H248 H 0.21834 0.27877 0.47055 0.0
H249 H 0.29933 0.28609 0.51296 0.0
H250 H 0.3606 0.38921 0.6502 0.0
H251 H 0.28437 0.47037 0.50688 0.0
C252 C 0.11835 0.36627 0.41755 0.0
C253 C 0.14646 0.31522 0.42874 0.0
C254 C 0.15141 0.41556 0.40813 0.0
C255 C 0.20479 0.41963 0.43584 0.0
C256 C 0.22642 0.37184 0.46697 0.0
C257 C 0.19875 0.31836 0.45797 0.0
C258 C 0.27549 0.37697 0.5089 0.0
C259 C 0.30257 0.32773 0.53269 0.0
C260 C 0.33579 0.33317 0.5824 0.0
C261 C 0.33708 0.38566 0.61034 0.0
C262 C 0.32761 0.43489 0.57909 0.0
C263 C 0.29451 0.43126 0.52908 0.0
H264 H 0.91056 0.16435 0.87397 0.0
H265 H 0.79735 0.07201 0.76537 0.0
H266 H 0.96793 0.01136 0.79057 0.0
H267 H 0.93627 0.0371 0.66658 0.0
H268 H 0.84151 0.89851 0.59249 0.0
H269 H 0.81249 0.94273 0.76691 0.0
C270 C 0.90378 0.13089 0.84256 0.0
C271 C 0.94519 0.08896 0.83555 0.0
C272 C 0.85002 0.12479 0.81855 0.0
C273 C 0.83919 0.07836 0.78216 0.0
C274 C 0.88268 0.0393 0.76833 0.0
C275 C 0.93559 0.04369 0.79692 0.0
C276 C 0.87343 0.99694 0.72166 0.0
C277 C 0.90397 0.00405 0.67012 0.0
C278 C 0.89187 0.96903 0.62296 0.0
C279 C 0.84924 0.92772 0.62775 0.0
C280 C 0.82213 0.91598 0.67888 0.0
C281 C 0.83341 0.95122 0.72661 0.0
H282 H 0.346 0.59226 0.82946 0.0
H283 H 0.29284 0.53542 0.99421 0.0
H284 H 0.21461 0.68338 0.91673 0.0
H285 H 0.23906 0.68965 0.04418 0.0
H286 H 0.08573 0.62555 0.12155 0.0
H287 H 0.15886 0.53496 0.98062 0.0
C288 C 0.31516 0.59382 0.8637 0.0
C289 C 0.27829 0.64012 0.86643 0.0
C290 C 0.32267 0.5574 0.90968 0.0
C291 C 0.2872 0.56334 0.95784 0.0
C292 C 0.24581 0.60741 0.95938 0.0
C293 C 0.24303 0.64702 0.91419 0.0
C294 C 0.20431 0.61161 0.00688 0.0
C295 C 0.20513 0.65816 0.04587 0.0
C296 C 0.16183 0.66275 0.08742 0.0
C297 C 0.11873 0.62216 0.08909 0.0
C298 C 0.11761 0.57638 0.05149 0.0
C299 C 0.16057 0.5703 0.01056 0.0
H300 H 0.64136 0.89321 0.84652 0.0
H301 H 0.70452 0.96008 0.00493 0.0
H302 H 0.76716 0.79994 0.94106 0.0
H303 H 0.75507 0.79862 0.05811 0.0
H304 H 0.89582 0.87536 0.14745 0.0
H305 H 0.82836 0.95844 -0.00057 0.0
C306 C 0.67155 0.89096 0.88165 0.0
C307 C 0.70361 0.84155 0.88862 0.0
C308 C 0.66889 0.93196 0.92478 0.0
C309 C 0.70661 0.92863 0.97111 0.0
C310 C 0.74438 0.88202 0.97571 0.0
C311 C 0.74098 0.83728 0.93543 0.0
C312 C 0.78578 0.87947 0.02362 0.0
C313 C 0.78579 0.83307 0.06248 0.0
C314 C 0.82555 0.8322 0.10746 0.0
C315 C 0.8646 0.8767 0.11318 0.0
C316 C 0.86599 0.9218 0.07476 0.0
C317 C 0.82653 0.92367 0.02991 0.0
H318 H 0.36585 0.62618 0.38077 0.0
H319 H 0.35069 0.57802 0.2041 0.0
H320 H 0.44897 0.47546 0.32151 0.0
H321 H 0.46124 0.51213 0.15945 0.0
H322 H 0.44154 0.33111 0.1348 0.0
H323 H 0.33933 0.41726 0.25944 0.0
C324 C 0.37435 0.59622 0.34622 0.0
C325 C 0.41237 0.55253 0.35571 0.0
C326 C 0.35648 0.60938 0.29142 0.0
C327 C 0.3664 0.56961 0.24667 0.0
C328 C 0.39696 0.51836 0.25879 0.0
C329 C 0.42221 0.51196 0.31298 0.0
C330 C 0.40332 0.46987 0.21778 0.0
C331 C 0.44198 0.4719 0.17143 0.0
C332 C 0.45503 0.42121 0.14105 0.0
C333 C 0.43248 0.36943 0.15952 0.0
C334 C 0.38719 0.36848 0.19768 0.0
C335 C 0.37359 0.41831 0.22841 0.0
H336 H 0.82495 0.05612 0.3119 0.0
H337 H 0.82587 0.04481 0.49426 0.0
H338 H 0.70862 0.15588 0.41099 0.0
H339 H 0.79609 0.11837 0.56687 0.0
H340 H 0.63141 0.14813 0.64078 0.0
H341 H 0.64232 0.06838 0.47719 0.0
C342 C 0.8047 0.06483 0.35262 0.0
C343 C 0.76758 0.11076 0.35633 0.0
C344 C 0.83021 0.044 0.40167 0.0
C345 C 0.80585 0.05797 0.45521 0.0
C346 C 0.75569 0.09143 0.45784 0.0
C347 C 0.73954 0.12162 0.40826 0.0
C348 C 0.72294 0.09964 0.51206 0.0
C349 C 0.75004 0.11641 0.5637 0.0
C350 C 0.71601 0.13145 0.61095 0.0
C351 C 0.6572 0.13391 0.60487 0.0
C352 C 0.63076 0.10513 0.56103 0.0
C353 C 0.66309 0.08917 0.51293 0.0
H354 H 0.11595 0.34525 0.86232 0.0
H355 H 0.18641 0.48707 0.76908 0.0
H356 H 0.00649 0.48059 0.80941 0.0
H357 H 0.01935 0.48732 0.6909 0.0
H358 H 0.01843 0.66638 0.66402 0.0
H359 H 0.15255 0.59071 0.76378 0.0
C360 C 0.1098 0.38445 0.83821 0.0
C361 C 0.05702 0.41082 0.84078 0.0
C362 C 0.15745 0.41426 0.81833 0.0
C363 C 0.14984 0.46498 0.78685 0.0
C364 C 0.09389 0.48637 0.77891 0.0
C365 C 0.04816 0.46067 0.80905 0.0
C366 C 0.0809 0.53554 0.74093 0.0
C367 C 0.03617 0.52934 0.70105 0.0
C368 C 0.01657 0.57695 0.67105 0.0
C369 C 0.03606 0.63069 0.68749 0.0
C370 C 0.09084 0.63537 0.71113 0.0
C371 C 0.11234 0.58758 0.74126 0.0
C372 C 0.03361 0.38198 0.99402 0.0
C373 C 0.99079 0.34009 0.99508 0.0
C374 C 0.04775 0.41129 0.94441 0.0
C375 C 0.02319 0.39639 0.89185 0.0
H376 H 0.0601 0.38888 0.03064 0.0
H377 H 0.083 0.4414 0.94604 0.0
S378 S 0.91064 0.28817 0.86887 0.0
N379 N 0.9218 0.28656 0.93841 0.0
N380 N 0.95448 0.33682 0.8427 0.0
C381 C 0.98008 0.3548 0.89136 0.0
C382 C 0.96273 0.32741 0.94333 0.0
C383 C 0.83191 0.77831 0.2549 0.0
C384 C 0.8798 0.74243 0.25272 0.0
C385 C 0.80718 0.80039 0.20526 0.0
C386 C 0.82937 0.7872 0.15128 0.0
H387 H 0.8178 0.795 0.29525 0.0
H388 H 0.77499 0.83326 0.20946 0.0
S389 S 0.95179 0.69194 0.12129 0.0
N390 N 0.94499 0.69003 0.1913 0.0
N391 N 0.9003 0.73399 0.09821 0.0
C392 C 0.87399 0.74731 0.14807 0.0
C393 C 0.89872 0.72413 0.19873 0.0
C394 C 0.44195 0.58191 0.50778 0.0
C395 C 0.49188 0.6151 0.50629 0.0
C396 C 0.42161 0.55309 0.4597 0.0
C397 C 0.4478 0.56032 0.40666 0.0
H398 H 0.41614 0.58086 0.54588 0.0
H399 H 0.38151 0.53009 0.46275 0.0
S400 S 0.57013 0.6561 0.37498 0.0
N401 N 0.56299 0.65967 0.44499 0.0
N402 N 0.52009 0.61154 0.35273 0.0
C403 C 0.49534 0.59706 0.40315 0.0
C404 C 0.51833 0.62343 0.45312 0.0
C405 C 0.70292 0.21703 0.73195 0.0
C406 C 0.67093 0.17929 0.76574 0.0
C407 C 0.73762 0.19647 0.68766 0.0
C408 C 0.73509 0.13942 0.67039 0.0
H409 H 0.69932 0.26266 0.73826 0.0
H410 H 0.75872 0.22598 0.66041 0.0
S411 S 0.67246 0.02115 0.75471 0.0
N412 N 0.65274 0.07961 0.78886 0.0
N413 N 0.71135 0.04303 0.70016 0.0
C414 C 0.71125 0.10042 0.70937 0.0
C415 C 0.67868 0.12033 0.75684 0.0
C416 C 0.95303 0.63072 0.53909 0.0
C417 C 0.00358 0.64266 0.50892 0.0
C418 C 0.95385 0.59703 0.58863 0.0
C419 C 0.00525 0.57405 0.60924 0.0
H420 H 0.91333 0.65046 0.5264 0.0
H421 H 0.91537 0.59383 0.61377 0.0
S422 S 0.14702 0.58326 0.5398 0.0
N423 N 0.10542 0.62422 0.50061 0.0
N424 N 0.10534 0.55621 0.58968 0.0
C425 C 0.05426 0.57941 0.57498 0.0
C426 C 0.05431 0.61637 0.52688 0.0
C427 C 0.68037 0.76056 0.7527 0.0
C428 C 0.62737 0.73429 0.76291 0.0
C429 C 0.70955 0.79063 0.79562 0.0
C430 C 0.68771 0.79314 0.85119 0.0
H431 H 0.69739 0.76068 0.71038 0.0
H432 H 0.74719 0.81513 0.78454 0.0
S433 S 0.55859 0.71866 0.90412 0.0
N434 N 0.5599 0.70367 0.83538 0.0
N435 N 0.61531 0.75876 0.91672 0.0
C436 C 0.63868 0.76072 0.8638 0.0
C437 C 0.60859 0.731 0.81969 0.0
C438 C 0.54244 0.3782 0.01316 0.0
C439 C 0.49985 0.37117 0.97142 0.0
C440 C 0.52972 0.40018 0.06771 0.0
C441 C 0.47464 0.41969 0.08103 0.0
H442 H 0.58475 0.36211 0.00494 0.0
H443 H 0.56228 0.3997 0.10035 0.0
S444 S 0.347 0.40764 0.98918 0.0
N445 N 0.39904 0.38116 0.9499 0.0
N446 N 0.37713 0.42967 0.04875 0.0
C447 C 0.43251 0.41598 0.0385 0.0
C448 C 0.44452 0.3901 0.98465 0.0
C449 C 0.80682 0.16664 0.2137 0.0
C450 C 0.84958 0.20645 0.22762 0.0
C451 C 0.77275 0.14154 0.25594 0.0
C452 C 0.77995 0.15544 0.31381 0.0
H453 H 0.80244 0.1515 0.17022 0.0
H454 H 0.74503 0.10642 0.24393 0.0
S455 S 0.88574 0.25796 0.37293 0.0
N456 N 0.89668 0.25976 0.30339 0.0
N457 N 0.83245 0.21271 0.3828 0.0
C458 C 0.8207 0.19752 0.32806 0.0
C459 C 0.85557 0.22302 0.28499 0.0
C460 C 0.98875 0.05252 0.38265 0.0
C461 C 0.00154 0.00516 0.34793 0.0
C462 C 0.9346 0.05957 0.40717 0.0
C463 C 0.88926 0.02276 0.3931 0.0
H464 H 0.02059 0.08533 0.38987 0.0
H465 H 0.92682 0.09729 0.43288 0.0
S466 S 0.89558 0.90482 0.287 0.0
N467 N 0.96228 0.92648 0.29305 0.0
N468 N 0.85854 0.94488 0.33141 0.0
C469 C 0.90035 0.97828 0.35388 0.0
C470 C 0.95662 0.96848 0.33275 0.0
C471 C 0.20092 0.70782 0.61667 0.0
C472 C 0.17235 0.75856 0.60172 0.0
C473 C 0.17784 0.66971 0.65754 0.0
C474 C 0.12725 0.68268 0.68761 0.0
H475 H 0.23967 0.696 0.59451 0.0
H476 H 0.1979 0.62843 0.66299 0.0
S477 S 0.04303 0.8156 0.67238 0.0
N478 N 0.09141 0.81933 0.62158 0.0
N479 N 0.05644 0.75568 0.70667 0.0
C480 C 0.10236 0.7362 0.67704 0.0
C481 C 0.12191 0.77131 0.63132 0.0
C482 C 0.55864 0.04278 0.88849 0.0
C483 C 0.50798 0.01083 0.89356 0.0
C484 C 0.61175 0.01962 0.90412 0.0
C485 C 0.61529 0.96461 0.92726 0.0
H486 H 0.55749 0.08458 0.86944 0.0
H487 H 0.6504 0.04371 0.896 0.0
S488 S 0.49771 0.86108 0.94397 0.0
N489 N 0.46678 0.91853 0.91797 0.0
N490 N 0.56506 0.87836 0.9535 0.0
C491 C 0.56484 0.93341 0.93513 0.0
C492 C 0.51162 0.95546 0.91643 0.0
C493 C 0.33857 0.21984 0.165 0.0
C494 C 0.29422 0.23016 0.12616 0.0
C495 C 0.36395 0.2647 0.1958 0.0
C496 C 0.34612 0.32156 0.18808 0.0
H497 H 0.35611 0.17739 0.16878 0.0
H498 H 0.40131 0.25569 0.22142 0.0
S499 S 0.23183 0.37086 0.09122 0.0
N500 N 0.23194 0.30075 0.08347 0.0
N501 N 0.28112 0.38541 0.13928 0.0
C502 C 0.29986 0.33188 0.15146 0.0
C503 C 0.27334 0.28607 0.12116 0.0
C504 C 0.01832 0.96192 0.07929 0.0
C505 C 0.02085 0.99957 0.12559 0.0
C506 C 0.96637 0.94354 0.05639 0.0
C507 C 0.91454 0.96124 0.08043 0.0
H508 H 0.05668 0.94295 0.06392 0.0
H509 H 0.96686 0.91082 0.0236 0.0
S510 S 0.89725 0.05544 0.20606 0.0
N511 N 0.96683 0.05315 0.19577 0.0
N512 N 0.86843 0.0169 0.15446 0.0
C513 C 0.91602 0.00055 0.12577 0.0
C514 C 0.96932 0.0201 0.14818 0.0
C515 C 0.25711 0.72536 0.32839 0.0
C516 C 0.29527 0.76603 0.35078 0.0
C517 C 0.27664 0.67712 0.29795 0.0
C518 C 0.33477 0.6688 0.28666 0.0
H519 H 0.21253 0.72779 0.33991 0.0
H520 H 0.24741 0.64215 0.29009 0.0
S521 S 0.45286 0.76122 0.33774 0.0
N522 N 0.39472 0.7926 0.36185 0.0
N523 N 0.43032 0.70666 0.29909 0.0
C524 C 0.3728 0.71242 0.30405 0.0
C525 C 0.3535 0.75909 0.33848 0.0
C526 C 0.48334 0.10633 0.62212 0.0
C527 C 0.48017 0.05304 0.64964 0.0
C528 C 0.52978 0.12044 0.58699 0.0
C529 C 0.57454 0.08167 0.57735 0.0
H530 H 0.45053 0.13798 0.62896 0.0
H531 H 0.53308 0.16347 0.57049 0.0
S532 S 0.59335 0.94341 0.65237 0.0
N533 N 0.52933 0.96485 0.67169 0.0
N534 N 0.61754 0.99256 0.60793 0.0
C535 C 0.57269 0.0291 0.60658 0.0
C536 C 0.52517 0.01444 0.64186 0.0
C537 C 0.23738 0.33924 0.92555 0.0
C538 C 0.25945 0.29399 0.89275 0.0
C539 C 0.21693 0.3892 0.90007 0.0
C540 C 0.21254 0.39308 0.84034 0.0
H541 H 0.23149 0.33423 0.97093 0.0
H542 H 0.19455 0.41963 0.92681 0.0
S543 S 0.28639 0.30087 0.73773 0.0
N544 N 0.29737 0.26882 0.79957 0.0
N545 N 0.24751 0.35787 0.75058 0.0
C546 C 0.24301 0.35354 0.80797 0.0
C547 C 0.26856 0.30464 0.83443 0.0
C548 C 0.43354 0.01449 0.01229 0.0
C549 C 0.37678 0.00172 -0.00162 0.0
C550 C 0.46728 0.97603 0.0434 0.0
C551 C 0.44585 0.92233 0.05838 0.0
H552 H 0.45082 0.05517 0.00092 0.0
H553 H 0.50928 0.98868 0.05757 0.0
S554 S 0.30622 0.86101 0.01658 0.0
N555 N 0.30458 0.92722 0.99213 0.0
N556 N 0.36906 0.85343 0.04732 0.0
C557 C 0.39198 0.90596 0.03772 0.0
C558 C 0.35714 0.94585 0.00812 0.0
C559 C 0.91735 0.48663 0.95485 0.0
C560 C 0.86956 0.50257 0.98716 0.0
C561 C 0.95361 0.52763 0.93031 0.0
C562 C 0.94311 0.58636 0.93656 0.0
H563 H 0.92494 0.44206 0.94633 0.0
H564 H 0.98755 0.5136 0.90258 0.0
S565 S 0.82598 0.65074 0.02135 0.0
N566 N 0.81522 0.58127 0.027 0.0
N567 N 0.8834 0.65854 0.98107 0.0
C568 C 0.89685 0.60299 0.97113 0.0
C569 C 0.85968 0.56113 0.99582 0.0
C570 C 0.75994 0.62883 0.23705 0.0
C571 C 0.74093 0.57261 0.2456 0.0
C572 C 0.72242 0.67076 0.21719 0.0
C573 C 0.66415 0.65922 0.20906 0.0
H574 H 0.80505 0.63879 0.23923 0.0
H575 H 0.7396 0.71114 0.2033 0.0
S576 S 0.59246 0.51973 0.2307 0.0
N577 N 0.65993 0.50758 0.247 0.0
N578 N 0.58862 0.58835 0.21461 0.0
C579 C 0.64372 0.60452 0.22302 0.0
C580 C 0.68236 0.56079 0.24029 0.0
C581 C 0.63136 0.46979 0.55811 0.0
C582 C 0.62593 0.50692 0.51113 0.0
C583 C 0.60643 0.41479 0.55768 0.0
C584 C 0.57519 0.39497 0.51049 0.0
H585 H 0.65784 0.4819 0.59394 0.0
H586 H 0.61328 0.38652 0.59317 0.0
S587 S 0.55393 0.4714 0.37476 0.0
N588 N 0.58826 0.51759 0.41537 0.0
N589 N 0.54174 0.41554 0.41541 0.0
C590 C 0.56648 0.4328 0.46502 0.0
C591 C 0.592 0.48829 0.46505 0.0
C592 C 0.32566 0.90449 0.28996 0.0
C593 C 0.27792 0.88151 0.26137 0.0
C594 C 0.38136 0.88826 0.27475 0.0
C595 C 0.39111 0.8464 0.23279 0.0
H596 H 0.32046 0.93974 0.3195 0.0
H597 H 0.41696 0.91244 0.29165 0.0
S598 S 0.28153 0.76916 0.15003 0.0
N599 N 0.24448 0.81223 0.19173 0.0
N600 N 0.34898 0.77897 0.16697 0.0
C601 C 0.34371 0.81867 0.20894 0.0
C602 C 0.28716 0.8369 0.22225 0.0
C603 C 0.08413 0.01872 0.46445 0.0
C604 C 0.14042 0.02108 0.44473 0.0
C605 C 0.05953 0.06384 0.49538 0.0
C606 C 0.0889 0.11545 0.50311 0.0
H607 H 0.05988 0.98058 0.45718 0.0
H608 H 0.0183 0.05748 0.51524 0.0
S609 S 0.22627 0.15383 0.43543 0.0
N610 N 0.2181 0.08538 0.41985 0.0
N611 N 0.17059 0.17217 0.47446 0.0
C612 C 0.14123 0.12219 0.47458 0.0
C613 C 0.16713 0.07499 0.44526 0.0
C614 C 0.72922 0.28527 0.29503 0.0
C615 C 0.75277 0.33881 0.30024 0.0
C616 C 0.68638 0.26923 0.33288 0.0
C617 C 0.66391 0.30849 0.37251 0.0
H618 H 0.74459 0.25611 0.26327 0.0
H619 H 0.67092 0.22558 0.33204 0.0
S620 S 0.7055 0.47987 0.38411 0.0
N621 N 0.73845 0.43387 0.34142 0.0
N622 N 0.71521 0.41247 0.35566 0.0
C623 C 0.67878 0.36801 0.3759 0.0
C624 C 0.72352 0.381 0.3393 0.0
C625 C 0.80056 0.61968 0.71488 0.0
C626 C 0.75534 0.62648 0.75393 0.0
C627 C 0.8562 0.6388 0.72839 0.0
C628 C 0.86752 0.67011 0.77845 0.0
H629 H 0.79441 0.59442 0.67662 0.0
H630 H 0.89136 0.62592 0.70163 0.0
S631 S 0.76692 0.69284 0.89633 0.0
N632 N 0.72835 0.66018 0.84762 0.0
N633 N 0.82972 0.70448 0.8675 0.0
C634 C 0.8217 0.68065 0.81529 0.0
C635 C 0.76662 0.65681 0.80438 0.0
C636 C 0.46961 0.86199 0.46706 0.0
C637 C 0.51067 0.85778 0.51086 0.0
C638 C 0.48165 0.89159 0.41617 0.0
C639 C 0.53462 0.91855 0.40804 0.0
H640 H 0.42855 0.84113 0.47152 0.0
H641 H 0.4504 0.89166 0.38242 0.0
S642 S 0.65812 0.91551 0.50639 0.0
N643 N 0.60832 0.87828 0.53925 0.0
N644 N 0.62862 0.9381 0.4468 0.0
C645 C 0.5754 0.91539 0.45188 0.0
C646 C 0.56409 0.88379 0.50234 0.0
C647 C 0.46521 0.29345 0.65986 0.0
C648 C 0.44258 0.2543 0.69926 0.0
C649 C 0.43373 0.31058 0.61239 0.0
C650 C 0.37768 0.29047 0.60328 0.0
H651 H 0.50551 0.31475 0.66801 0.0
H652 H 0.44961 0.34674 0.58841 0.0
S653 S 0.31057 0.16914 0.67753 0.0
N654 N 0.36823 0.18338 0.71563 0.0
N655 N 0.30995 0.21569 0.62481 0.0
C656 C 0.3597 0.2435 0.63519 0.0
C657 C 0.3916 0.22592 0.68425 0.0
C658 C 0.98928 0.07062 0.98457 0.0
C659 C 0.0256 0.11757 0.99352 0.0
C660 C 0.97143 0.05461 0.93001 0.0
C661 C 0.98729 0.08675 0.88202 0.0
H662 H 0.96898 0.05041 0.02036 0.0
H663 H 0.93906 0.02161 0.92628 0.0
S664 S 0.08602 0.21078 0.88045 0.0
N665 N 0.08233 0.19231 0.94833 0.0
N666 N 0.0447 0.16518 0.84575 0.0
C667 C 0.02661 0.13168 0.88948 0.0
C668 C 0.04684 0.14638 0.94516 0.0
C669 C 0.15303 0.70066 0.23928 0.0
C670 C 0.11665 0.74811 0.24041 0.0
C671 C 0.1769 0.68032 0.18866 0.0
C672 C 0.16119 0.70328 0.13572 0.0
H673 H 0.15901 0.6756 0.27739 0.0
H674 H 0.20186 0.6414 0.19031 0.0
S675 S 0.05672 0.81969 0.11331 0.0
N676 N 0.06274 0.81546 0.18327 0.0
N677 N 0.10125 0.77187 0.08681 0.0
C678 C 0.12377 0.75027 0.13553 0.0
C679 C 0.10246 0.77358 0.18798 0.0
C680 C 0.46994 0.15482 0.03878 0.0
C681 C 0.51728 0.14629 0.00282 0.0
C682 C 0.46902 0.13189 0.09424 0.0
C683 C 0.51518 0.09974 0.11521 0.0
H684 H 0.43463 0.18106 0.02482 0.0
H685 H 0.43432 0.14292 0.12238 0.0
S686 S 0.64958 0.06834 0.0395 0.0
N687 N 0.61244 0.10673 0.99383 0.0
N688 N 0.60864 0.06066 0.09588 0.0
C689 C 0.56134 0.08938 0.07871 0.0
C690 C 0.56325 0.11405 0.02341 0.0
C691 C 0.06279 0.21969 0.32941 0.0
C692 C 0.09163 0.2309 0.27779 0.0
C693 C 0.08402 0.24067 0.38185 0.0
C694 C 0.13632 0.27047 0.38457 0.0
H695 H 0.02101 0.19975 0.32865 0.0
H696 H 0.05734 0.23778 0.41943 0.0
S697 S 0.22987 0.30555 0.26288 0.0
N698 N 0.17533 0.27204 0.23339 0.0
N699 N 0.21848 0.30434 0.33211 0.0
C700 C 0.16818 0.27543 0.33412 0.0
C701 C 0.14475 0.25811 0.28061 0.0
C702 C 0.92232 0.92071 0.47683 0.0
C703 C 0.97825 0.90073 0.48148 0.0
C704 C 0.89757 0.9537 0.51923 0.0
C705 C 0.92659 0.96632 0.57009 0.0
H706 H 0.89543 0.90649 0.44241 0.0
H707 H 0.85209 0.96035 0.51631 0.0
S708 S 0.08051 0.9431 0.59443 0.0
N709 N 0.0664 0.90665 0.53568 0.0
N710 N 0.01937 0.97093 0.61536 0.0
C711 C 0.98479 0.95298 0.5726 0.0
C712 C 0.01019 0.91822 0.52925 0.0
C713 C 0.31069 0.70833 0.72725 0.0
C714 C 0.36175 0.7371 0.7408 0.0
C715 C 0.27667 0.68362 0.77003 0.0
C716 C 0.29289 0.68705 0.82747 0.0
H717 H 0.30021 0.69994 0.68315 0.0
H718 H 0.24149 0.6562 0.7579 0.0
S719 S 0.41904 0.76101 0.88565 0.0
N720 N 0.42378 0.77159 0.8163 0.0
N721 N 0.3601 0.72425 0.89616 0.0
C722 C 0.341 0.71965 0.84168 0.0
C723 C 0.37535 0.74509 0.79848 0.0
C724 C 0.48 0.54689 0.90539 0.0
C725 C 0.48973 0.50189 0.86698 0.0
C726 C 0.42554 0.55788 0.9274 0.0
C727 C 0.37768 0.52657 0.90919 0.0
H728 H 0.51395 0.57667 0.91528 0.0
H729 H 0.41976 0.59583 0.95332 0.0
S730 S 0.37871 0.40893 0.80322 0.0
N731 N 0.44656 0.4261 0.81074 0.0
N732 N 0.34305 0.45137 0.84678 0.0
C733 C 0.38662 0.48157 0.87039 0.0
C734 C 0.44278 0.46814 0.85057 0.0
C735 C 0.70409 0.24097 0.14726 0.0
C736 C 0.68384 0.29723 0.1519 0.0
C737 C 0.67838 0.196 0.17767 0.0
C738 C 0.63313 0.20558 0.21593 0.0
H739 H 0.73686 0.2308 0.1163 0.0
H740 H 0.69091 0.15265 0.16747 0.0
S741 S 0.56452 0.34587 0.24332 0.0
N742 N 0.61582 0.36063 0.19725 0.0
N743 N 0.56831 0.27637 0.25526 0.0
C744 C 0.61341 0.26224 0.22176 0.0
C745 C 0.63884 0.30792 0.18993 0.0
C746 C 0.06746 0.41887 0.28456 0.0
C747 C 0.0296 0.46262 0.29955 0.0
C748 C 0.12181 0.41661 0.30843 0.0
C749 C 0.13502 0.4498 0.35673 0.0
H750 H 0.05434 0.38425 0.25678 0.0
H751 H 0.14717 0.38028 0.29813 0.0
S752 S 0.07462 0.59395 0.37464 0.0
N753 N 0.0269 0.56027 0.33501 0.0
N754 N 0.12488 0.54707 0.3906 0.0
C755 C 0.10487 0.50119 0.36151 0.0
C756 C 0.05199 0.50828 0.3315 0.0
C757 C 0.72936 0.80393 0.61657 0.0
C758 C 0.76869 0.75866 0.61175 0.0
C759 C 0.74188 0.85302 0.64962 0.0
C760 C 0.79415 0.85878 0.6791 0.0
H761 H 0.69001 0.80278 0.59243 0.0
H762 H 0.71336 0.88923 0.64697 0.0
S763 S 0.9135 0.75615 0.67379 0.0
N764 N 0.86334 0.72559 0.63535 0.0
N765 N 0.88511 0.81501 0.69987 0.0
C766 C 0.83169 0.81191 0.6775 0.0
C767 C 0.81998 0.76329 0.64227 0.0
C768 C 0.47646 0.48465 0.58875 0.0
C769 C 0.47711 0.51633 0.6394 0.0
C770 C 0.4257 0.46581 0.5637 0.0
C771 C 0.37249 0.47839 0.5882 0.0
H772 H 0.51565 0.47288 0.56911 0.0
H773 H 0.42835 0.43729 0.5273 0.0
S774 S 0.34895 0.56469 0.71765 0.0
N775 N 0.41911 0.56385 0.71094 0.0
N776 N 0.32276 0.52778 0.66373 0.0
C777 C 0.37181 0.51368 0.6366 0.0
C778 C 0.42414 0.53302 0.66221 0.0
C779 C 0.76772 0.25958 0.84923 0.0
C780 C 0.75121 0.25073 0.90611 0.0
C781 C 0.7963 0.21659 0.81847 0.0
C782 C 0.80498 0.16211 0.84193 0.0
H783 H 0.76376 0.30157 0.83046 0.0
H784 H 0.81487 0.22719 0.77751 0.0
S785 S 0.77369 0.11867 0.99003 0.0
N786 N 0.74903 0.18458 0.98576 0.0
N787 N 0.79733 0.10255 0.92581 0.0
C788 C 0.78584 0.15193 0.89764 0.0
C789 C 0.75988 0.19642 0.93008 0.0
C790 C 0.96682 0.53864 0.0759 0.0
C791 C 0.9691 0.48539 0.10267 0.0
C792 C 0.01472 0.56296 0.05071 0.0
C793 C 0.06854 0.53793 0.05672 0.0
H794 H 0.92867 0.56404 0.07861 0.0
H795 H 0.01095 0.60538 0.03256 0.0
S796 S 0.10194 0.4102 0.14292 0.0
N797 N 0.03164 0.41393 0.14398 0.0
N798 N 0.1238 0.46375 0.10254 0.0
C799 C 0.07293 0.48707 0.08776 0.0
C800 C 0.02295 0.46022 0.11027 0.0
C801 C 0.69412 0.76078 0.31649 0.0
C802 C 0.72925 0.76654 0.36452 0.0
C803 C 0.67716 0.80835 0.28406 0.0
C804 C 0.68835 0.86461 0.30237 0.0
H805 H 0.67647 0.71943 0.30632 0.0
H806 H 0.64732 0.80186 0.24973 0.0
S807 S 0.77649 0.90377 0.42753 0.0
N808 N 0.77776 0.83326 0.42726 0.0
N809 N 0.73843 0.92304 0.37157 0.0
C810 C 0.72557 0.87107 0.34912 0.0
C811 C 0.74635 0.8222 0.37988 0.0
C812 C 0.82718 0.44465 0.47059 0.0
C813 C 0.86057 0.49384 0.46151 0.0
C814 C 0.85196 0.39288 0.48788 0.0
C815 C 0.9108 0.3893 0.50001 0.0
H816 H 0.78119 0.44754 0.47079 0.0
H817 H 0.82383 0.35825 0.50021 0.0
S818 S 0.01786 0.49896 0.46892 0.0
N819 N 0.95697 0.53072 0.45313 0.0
N820 N 0.00245 0.43387 0.48998 0.0
C821 C 0.94508 0.43505 0.48361 0.0
C822 C 0.92017 0.48759 0.46442 0.0
C823 C 0.30149 0.06131 0.54917 0.0
C824 C 0.33307 0.01018 0.5448 0.0
C825 C 0.32576 0.11424 0.53319 0.0
C826 C 0.38193 0.11753 0.51224 0.0
H827 H 0.2563 0.05983 0.55878 0.0
H828 H 0.29883 0.1516 0.53166 0.0
S829 S 0.48385 0.99965 0.50313 0.0
N830 N 0.42627 0.96916 0.5296 0.0
N831 N 0.46867 0.06709 0.49277 0.0
C832 C 0.41474 0.06807 0.51344 0.0
C833 C 0.39118 0.01494 0.53177 0.0
C834 C 0.20236 0.16108 0.76419 0.0
C835 C 0.20887 0.10171 0.76963 0.0
C836 C 0.15705 0.18457 0.73233 0.0
C837 C 0.11514 0.14899 0.70788 0.0
H838 H 0.23585 0.1886 0.77876 0.0
H839 H 0.15808 0.22973 0.72217 0.0
S840 S 0.09994 0.99318 0.73227 0.0
N841 N 0.1615 0.00972 0.76224 0.0
N842 N 0.07407 0.05357 0.70671 0.0
C843 C 0.1155 0.09081 0.72311 0.0
C844 C 0.16279 0.06706 0.75314 0.0
C845 C 0.09984 0.01612 0.89483 0.0
C846 C 0.13275 0.0199 0.94454 0.0
C847 C 0.06681 0.96728 0.88267 0.0
C848 C 0.07084 0.91748 0.91613 0.0
H849 H 0.10126 0.05035 0.86396 0.0
H850 H 0.04448 0.96543 0.84236 0.0
S851 S 0.16424 0.90031 0.04263 0.0
N852 N 0.17129 0.96829 0.02527 0.0
N853 N 0.11772 0.87338 0.99692 0.0
C854 C 0.10516 0.92037 0.96532 0.0
C855 C 0.13505 0.97173 0.98015 0.0
C856 C 0.79539 0.38947 0.75558 0.0
C857 C 0.74364 0.38498 0.72498 0.0
C858 C 0.84652 0.36584 0.73394 0.0
C859 C 0.84718 0.3366 0.68146 0.0
H860 H 0.79738 0.41513 0.79402 0.0
H861 H 0.88625 0.37495 0.75563 0.0
S862 S 0.72342 0.31188 0.58605 0.0
N863 N 0.69652 0.34516 0.64186 0.0
N864 N 0.79197 0.30495 0.59987 0.0
C865 C 0.79523 0.32965 0.65241 0.0
C866 C 0.74371 0.35264 0.67453 0.0
C867 C 0.67209 0.58529 0.96827 0.0
C868 C 0.63509 0.53965 0.98131 0.0
C869 C 0.65988 0.64105 0.9871 0.0
C870 C 0.60946 0.65312 0.01717 0.0
H871 H 0.71395 0.57678 0.95065 0.0
H872 H 0.69312 0.67304 0.98582 0.0
S873 S 0.49352 0.55214 0.04999 0.0
N874 N 0.5426 0.51259 0.01855 0.0
N875 N 0.51814 0.61797 0.0492 0.0
C876 C 0.56851 0.60992 0.02171 0.0
C877 C 0.58204 0.55281 0.00557 0.0
C878 C 0.28815 0.83831 0.85126 0.0
C879 C 0.3 0.86644 0.79984 0.0
C880 C 0.23896 0.80453 0.85746 0.0
C881 C 0.19762 0.80137 0.81388 0.0
H882 H 0.31531 0.84524 0.88794 0.0
H883 H 0.2293 0.7878 0.89944 0.0
S884 S 0.20394 0.87968 0.6768 0.0
N885 N 0.26686 0.89057 0.7055 0.0
N886 N 0.16993 0.83733 0.7216 0.0
C887 C 0.21007 0.82892 0.7621 0.0
C888 C 0.26216 0.85941 0.75423 0.0
C889 C 0.27048 0.16874 0.28481 0.0
C890 C 0.27812 0.11665 0.25677 0.0
C891 C 0.31579 0.19702 0.31143 0.0
C892 C 0.36994 0.17202 0.31434 0.0
H893 H 0.22792 0.18419 0.29146 0.0
H894 H 0.30644 0.23379 0.33784 0.0
S895 S 0.41261 0.03543 0.24725 0.0
N896 N 0.34489 0.04258 0.22954 0.0
N897 N 0.42971 0.09297 0.28455 0.0
C898 C 0.37944 0.12158 0.2831 0.0
C899 C 0.33341 0.09409 0.2536 0.0
loop_
_geom_bond_atom_site_label_1
_geom_bond_atom_site_label_2
_geom_bond_distance
_geom_bond_site_symmetry_2
_ccdc_geom_bond_type
In0 O1 2.294 . S
In0 O2 2.326 . S
In0 O6 2.266 . S
In0 O7 2.326 1_455 S
In0 O8 2.266 1_455 S
In0 O9 2.326 . S
In0 O11 2.294 1_455 S
In0 O12 2.326 1_455 S
O1 In0 2.294 . S
O1 C10 1.240 . S
O2 In0 2.326 . S
O2 C10 1.252 . S
C3 O6 1.252 1_655 S
C3 O7 1.260 . S
C4 O11 1.240 . S
C4 O12 1.252 . S
C5 O8 1.252 1_455 S
C5 O9 1.260 . S
O6 In0 2.266 . S
O6 C3 1.252 1_455 S
O7 In0 2.326 1_655 S
O7 C3 1.260 . S
O8 In0 2.266 1_655 S
O8 C5 1.252 1_655 S
O9 In0 2.326 . S
O9 C5 1.260 . S
C10 O1 1.240 . S
C10 O2 1.252 . S
O11 In0 2.294 1_655 S
O11 C4 1.240 . S
O12 In0 2.326 1_655 S
O12 C4 1.252 . S
In13 O14 2.293 1_455 S
In13 O15 2.328 . S
In13 O19 2.264 1_455 S
In13 O20 2.325 1_455 S
In13 O21 2.268 . S
In13 O22 2.326 . S
In13 O24 2.295 . S
In13 O25 2.325 1_455 S
O14 In13 2.293 1_655 S
O14 C23 1.240 1_655 S
O15 In13 2.328 . S
O15 C23 1.252 . S
C16 O19 1.252 . S
C16 O20 1.260 . S
C17 O24 1.240 1_655 S
C17 O25 1.252 . S
C18 O21 1.252 . S
C18 O22 1.260 . S
O19 In13 2.264 1_655 S
O19 C16 1.252 . S
O20 In13 2.325 1_655 S
O20 C16 1.260 . S
O21 In13 2.268 . S
O21 C18 1.252 . S
O22 In13 2.326 . S
O22 C18 1.260 . S
C23 O14 1.240 1_455 S
C23 O15 1.252 . S
O24 In13 2.295 . S
O24 C17 1.240 1_455 S
O25 In13 2.325 1_655 S
O25 C17 1.252 . S
In26 O27 2.294 . S
In26 O28 2.326 . S
In26 O32 2.266 . S
In26 O33 2.326 . S
In26 O34 2.266 . S
In26 O35 2.326 . S
In26 O37 2.294 . S
In26 O38 2.326 . S
O27 In26 2.294 . S
O27 C36 1.240 . S
O28 In26 2.326 . S
O28 C36 1.252 . S
C29 O32 1.252 . S
C29 O33 1.260 . S
C30 O37 1.240 . S
C30 O38 1.252 . S
C31 O34 1.252 . S
C31 O35 1.260 . S
O32 In26 2.266 . S
O32 C29 1.252 . S
O33 In26 2.326 . S
O33 C29 1.260 . S
O34 In26 2.266 . S
O34 C31 1.252 . S
O35 In26 2.326 . S
O35 C31 1.260 . S
C36 O27 1.240 . S
C36 O28 1.252 . S
O37 In26 2.294 . S
O37 C30 1.240 . S
O38 In26 2.326 . S
O38 C30 1.252 . S
In39 O40 2.294 . S
In39 O41 2.326 . S
In39 O45 2.266 . S
In39 O46 2.326 . S
In39 O47 2.266 . S
In39 O48 2.326 . S
In39 O50 2.294 . S
In39 O51 2.326 . S
O40 In39 2.294 . S
O40 C49 1.240 . S
O41 In39 2.326 . S
O41 C49 1.252 . S
C42 O45 1.252 . S
C42 O46 1.260 . S
C43 O50 1.240 . S
C43 O51 1.252 . S
C44 O47 1.252 . S
C44 O48 1.260 . S
O45 In39 2.266 . S
O45 C42 1.252 . S
O46 In39 2.326 . S
O46 C42 1.260 . S
O47 In39 2.266 . S
O47 C44 1.252 . S
O48 In39 2.326 . S
O48 C44 1.260 . S
C49 O40 1.240 . S
C49 O41 1.252 . S
O50 In39 2.294 . S
O50 C43 1.240 . S
O51 In39 2.326 . S
O51 C43 1.252 . S
In52 O53 2.294 1_545 S
In52 O54 2.326 1_545 S
In52 O58 2.266 1_545 S
In52 O59 2.326 . S
In52 O60 2.266 . S
In52 O61 2.326 1_545 S
In52 O63 2.294 . S
In52 O64 2.326 . S
O53 In52 2.294 1_565 S
O53 C62 1.240 . S
O54 In52 2.326 1_565 S
O54 C62 1.252 . S
C55 O58 1.252 1_545 S
C55 O59 1.260 . S
C56 O63 1.240 . S
C56 O64 1.252 . S
C57 O60 1.252 1_565 S
C57 O61 1.260 . S
O58 In52 2.266 1_565 S
O58 C55 1.252 1_565 S
O59 In52 2.326 . S
O59 C55 1.260 . S
O60 In52 2.266 . S
O60 C57 1.252 1_545 S
O61 In52 2.326 1_565 S
O61 C57 1.260 . S
C62 O53 1.240 . S
C62 O54 1.252 . S
O63 In52 2.294 . S
O63 C56 1.240 . S
O64 In52 2.326 . S
O64 C56 1.252 . S
In65 O66 2.294 . S
In65 O67 2.326 . S
In65 O71 2.266 . S
In65 O72 2.326 . S
In65 O73 2.266 . S
In65 O74 2.326 . S
In65 O76 2.294 . S
In65 O77 2.326 . S
O66 In65 2.294 . S
O66 C75 1.240 . S
O67 In65 2.326 . S
O67 C75 1.252 . S
C68 O71 1.252 . S
C68 O72 1.260 . S
C69 O76 1.240 . S
C69 O77 1.252 . S
C70 O73 1.252 . S
C70 O74 1.260 . S
O71 In65 2.266 . S
O71 C68 1.252 . S
O72 In65 2.326 . S
O72 C68 1.260 . S
O73 In65 2.266 . S
O73 C70 1.252 . S
O74 In65 2.326 . S
O74 C70 1.260 . S
C75 O66 1.240 . S
C75 O67 1.252 . S
O76 In65 2.294 . S
O76 C69 1.240 . S
O77 In65 2.326 . S
O77 C69 1.252 . S
In78 O79 2.289 1_545 S
In78 O80 2.324 1_545 S
In78 O84 2.264 1_545 S
In78 O85 2.329 . S
In78 O86 2.268 . S
In78 O87 2.322 1_545 S
In78 O89 2.299 . S
In78 O90 2.329 . S
O79 In78 2.289 1_565 S
O79 C88 1.240 . S
O80 In78 2.324 1_565 S
O80 C88 1.252 . S
C81 O84 1.252 1_545 S
C81 O85 1.260 . S
C82 O89 1.240 . S
C82 O90 1.252 . S
C83 O86 1.252 1_565 S
C83 O87 1.260 . S
O84 In78 2.264 1_565 S
O84 C81 1.252 1_565 S
O85 In78 2.329 . S
O85 C81 1.260 . S
O86 In78 2.268 . S
O86 C83 1.252 1_545 S
O87 In78 2.322 1_565 S
O87 C83 1.260 . S
C88 O79 1.240 . S
C88 O80 1.252 . S
O89 In78 2.299 . S
O89 C82 1.240 . S
O90 In78 2.329 . S
O90 C82 1.252 . S
In91 O92 2.294 . S
In91 O93 2.326 . S
In91 O97 2.266 . S
In91 O98 2.326 1_554 S
In91 O99 2.266 1_554 S
In91 O100 2.326 . S
In91 O102 2.294 1_554 S
In91 O103 2.326 1_554 S
O92 In91 2.294 . S
O92 C101 1.240 . S
O93 In91 2.326 . S
O93 C101 1.252 . S
C94 O97 1.252 1_556 S
C94 O98 1.260 . S
C95 O102 1.240 . S
C95 O103 1.252 . S
C96 O99 1.252 1_554 S
C96 O100 1.260 . S
O97 In91 2.266 . S
O97 C94 1.252 1_554 S
O98 In91 2.326 1_556 S
O98 C94 1.260 . S
O99 In91 2.266 1_556 S
O99 C96 1.252 1_556 S
O100 In91 2.326 . S
O100 C96 1.260 . S
C101 O92 1.240 . S
C101 O93 1.252 . S
O102 In91 2.294 1_556 S
O102 C95 1.240 . S
O103 In91 2.326 1_556 S
O103 C95 1.252 . S
In104 O105 2.297 . S
In104 O106 2.328 . S
In104 O110 2.267 . S
In104 O111 2.323 1_554 S
In104 O112 2.265 1_554 S
In104 O113 2.328 . S
In104 O115 2.291 1_554 S
In104 O116 2.325 1_554 S
O105 In104 2.297 . S
O105 C114 1.240 . S
O106 In104 2.328 . S
O106 C114 1.252 . S
C107 O110 1.252 1_556 S
C107 O111 1.260 . S
C108 O115 1.240 . S
C108 O116 1.252 . S
C109 O112 1.252 1_554 S
C109 O113 1.260 . S
O110 In104 2.267 . S
O110 C107 1.252 1_554 S
O111 In104 2.323 1_556 S
O111 C107 1.260 . S
O112 In104 2.265 1_556 S
O112 C109 1.252 1_556 S
O113 In104 2.328 . S
O113 C109 1.260 . S
C114 O105 1.240 . S
C114 O106 1.252 . S
O115 In104 2.291 1_556 S
O115 C108 1.240 . S
O116 In104 2.325 1_556 S
O116 C108 1.252 . S
In117 O118 2.294 . S
In117 O119 2.326 . S
In117 O123 2.266 . S
In117 O124 2.326 . S
In117 O125 2.266 . S
In117 O126 2.326 . S
In117 O128 2.294 . S
In117 O129 2.326 . S
O118 In117 2.294 . S
O118 C127 1.240 . S
O119 In117 2.326 . S
O119 C127 1.252 . S
C120 O123 1.252 . S
C120 O124 1.260 . S
C121 O128 1.240 . S
C121 O129 1.252 . S
C122 O125 1.252 . S
C122 O126 1.260 . S
O123 In117 2.266 . S
O123 C120 1.252 . S
O124 In117 2.326 . S
O124 C120 1.260 . S
O125 In117 2.266 . S
O125 C122 1.252 . S
O126 In117 2.326 . S
O126 C122 1.260 . S
C127 O118 1.240 . S
C127 O119 1.252 . S
O128 In117 2.294 . S
O128 C121 1.240 . S
O129 In117 2.326 . S
O129 C121 1.252 . S
In130 O131 2.294 . S
In130 O132 2.326 . S
In130 O136 2.266 . S
In130 O137 2.326 . S
In130 O138 2.266 . S
In130 O139 2.326 . S
In130 O141 2.294 . S
In130 O142 2.326 . S
O131 In130 2.294 . S
O131 C140 1.240 . S
O132 In130 2.326 . S
O132 C140 1.252 . S
C133 O136 1.252 . S
C133 O137 1.260 . S
C134 O141 1.240 . S
C134 O142 1.252 . S
C135 O138 1.252 . S
C135 O139 1.260 . S
O136 In130 2.266 . S
O136 C133 1.252 . S
O137 In130 2.326 . S
O137 C133 1.260 . S
O138 In130 2.266 . S
O138 C135 1.252 . S
O139 In130 2.326 . S
O139 C135 1.260 . S
C140 O131 1.240 . S
C140 O132 1.252 . S
O141 In130 2.294 . S
O141 C134 1.240 . S
O142 In130 2.326 . S
O142 C134 1.252 . S
In143 O144 2.294 . S
In143 O145 2.326 . S
In143 O149 2.266 . S
In143 O150 2.326 . S
In143 O151 2.266 . S
In143 O152 2.326 . S
In143 O154 2.294 . S
In143 O155 2.326 . S
O144 In143 2.294 . S
O144 C153 1.240 . S
O145 In143 2.326 . S
O145 C153 1.252 . S
C146 O149 1.252 . S
C146 O150 1.260 . S
C147 O154 1.240 . S
C147 O155 1.252 . S
C148 O151 1.252 . S
C148 O152 1.260 . S
O149 In143 2.266 . S
O149 C146 1.252 . S
O150 In143 2.326 . S
O150 C146 1.260 . S
O151 In143 2.266 . S
O151 C148 1.252 . S
O152 In143 2.326 . S
O152 C148 1.260 . S
C153 O144 1.240 . S
C153 O145 1.252 . S
O154 In143 2.294 . S
O154 C147 1.240 . S
O155 In143 2.326 . S
O155 C147 1.252 . S
H156 C162 0.930 . S
H157 C165 0.931 . S
H158 C167 0.931 . S
H159 C169 0.930 . S
H160 C171 0.930 . S
H161 C173 0.931 . S
C162 H156 0.930 . S
C162 C163 1.380 . S
C162 C164 1.394 . S
C163 C162 1.380 . S
C163 C167 1.382 . S
C164 C162 1.394 . S
C164 C165 1.400 . S
C165 H157 0.931 . S
C165 C164 1.400 . S
C165 C166 1.375 . S
C166 C165 1.375 . S
C166 C167 1.415 . S
C166 C168 1.501 1_655 S
C167 H158 0.931 . S
C167 C163 1.382 . S
C167 C166 1.415 . S
C168 C166 1.501 1_455 S
C168 C169 1.384 . S
C168 C173 1.408 . S
C169 H159 0.930 . S
C169 C168 1.384 . S
C169 C170 1.389 . S
C170 C169 1.389 . S
C170 C171 1.405 . S
C171 H160 0.930 . S
C171 C170 1.405 . S
C171 C172 1.364 . S
C172 C171 1.364 . S
C172 C173 1.400 . S
C173 H161 0.931 . S
C173 C168 1.408 . S
C173 C172 1.400 . S
H174 C180 0.930 . S
H175 C183 0.931 . S
H176 C185 0.931 . S
H177 C187 0.930 . S
H178 C189 0.930 . S
H179 C191 0.931 . S
C180 H174 0.930 . S
C180 C181 1.380 . S
C180 C182 1.394 . S
C181 C180 1.380 . S
C181 C185 1.382 . S
C182 C180 1.394 . S
C182 C183 1.400 . S
C183 H175 0.931 . S
C183 C182 1.400 . S
C183 C184 1.375 . S
C184 C183 1.375 . S
C184 C185 1.415 . S
C184 C186 1.501 1_655 S
C185 H176 0.931 . S
C185 C181 1.382 . S
C185 C184 1.415 . S
C186 C184 1.501 1_455 S
C186 C187 1.384 . S
C186 C191 1.408 . S
C187 H177 0.930 . S
C187 C186 1.384 . S
C187 C188 1.389 . S
C188 C187 1.389 . S
C188 C189 1.405 . S
C189 H178 0.930 . S
C189 C188 1.405 . S
C189 C190 1.364 . S
C190 C189 1.364 . S
C190 C191 1.400 . S
C191 H179 0.931 . S
C191 C186 1.408 . S
C191 C190 1.400 . S
H192 C198 0.930 . S
H193 C201 0.931 . S
H194 C203 0.931 . S
H195 C205 0.930 . S
H196 C207 0.930 . S
H197 C209 0.931 . S
C198 H192 0.930 . S
C198 C199 1.380 . S
C198 C200 1.394 . S
C199 C198 1.380 . S
C199 C203 1.382 . S
C200 C198 1.394 . S
C200 C201 1.400 . S
C201 H193 0.931 . S
C201 C200 1.400 . S
C201 C202 1.375 . S
C202 C201 1.375 . S
C202 C203 1.415 . S
C202 C204 1.501 . S
C203 H194 0.931 . S
C203 C199 1.382 . S
C203 C202 1.415 . S
C204 C202 1.501 . S
C204 C205 1.384 . S
C204 C209 1.408 . S
C205 H195 0.930 . S
C205 C204 1.384 . S
C205 C206 1.389 . S
C206 C205 1.389 . S
C206 C207 1.405 . S
C207 H196 0.930 . S
C207 C206 1.405 . S
C207 C208 1.364 . S
C208 C207 1.364 . S
C208 C209 1.400 . S
C209 H197 0.931 . S
C209 C204 1.408 . S
C209 C208 1.400 . S
H210 C216 0.930 . S
H211 C219 0.931 . S
H212 C221 0.931 . S
H213 C223 0.930 . S
H214 C225 0.930 . S
H215 C227 0.931 . S
C216 H210 0.930 . S
C216 C217 1.380 . S
C216 C218 1.394 . S
C217 C216 1.380 . S
C217 C221 1.382 . S
C218 C216 1.394 . S
C218 C219 1.400 . S
C219 H211 0.931 . S
C219 C218 1.400 . S
C219 C220 1.375 . S
C220 C219 1.375 . S
C220 C221 1.415 . S
C220 C222 1.501 . S
C221 H212 0.931 . S
C221 C217 1.382 . S
C221 C220 1.415 . S
C222 C220 1.501 . S
C222 C223 1.384 . S
C222 C227 1.408 . S
C223 H213 0.930 . S
C223 C222 1.384 . S
C223 C224 1.389 . S
C224 C223 1.389 . S
C224 C225 1.405 . S
C225 H214 0.930 . S
C225 C224 1.405 . S
C225 C226 1.364 . S
C226 C225 1.364 . S
C226 C227 1.400 . S
C227 H215 0.931 . S
C227 C222 1.408 . S
C227 C226 1.400 . S
H228 C234 0.930 . S
H229 C237 0.931 . S
H230 C239 0.931 . S
H231 C241 0.930 . S
H232 C243 0.930 . S
H233 C245 0.931 . S
C234 H228 0.930 . S
C234 C235 1.380 . S
C234 C236 1.394 . S
C235 C234 1.380 . S
C235 C239 1.382 . S
C236 C234 1.394 . S
C236 C237 1.400 . S
C237 H229 0.931 . S
C237 C236 1.400 . S
C237 C238 1.375 . S
C238 C237 1.375 . S
C238 C239 1.415 . S
C238 C240 1.501 1_565 S
C239 H230 0.931 . S
C239 C235 1.382 . S
C239 C238 1.415 . S
C240 C238 1.501 1_545 S
C240 C241 1.384 . S
C240 C245 1.408 . S
C241 H231 0.930 . S
C241 C240 1.384 . S
C241 C242 1.389 . S
C242 C241 1.389 . S
C242 C243 1.405 . S
C243 H232 0.930 . S
C243 C242 1.405 . S
C243 C244 1.364 . S
C244 C243 1.364 . S
C244 C245 1.400 . S
C245 H233 0.931 . S
C245 C240 1.408 . S
C245 C244 1.400 . S
H246 C252 0.930 . S
H247 C255 0.931 . S
H248 C257 0.931 . S
H249 C259 0.930 . S
H250 C261 0.930 . S
H251 C263 0.931 . S
C252 H246 0.930 . S
C252 C253 1.380 . S
C252 C254 1.394 . S
C253 C252 1.380 . S
C253 C257 1.382 . S
C254 C252 1.394 . S
C254 C255 1.400 . S
C255 H247 0.931 . S
C255 C254 1.400 . S
C255 C256 1.375 . S
C256 C255 1.375 . S
C256 C257 1.415 . S
C256 C258 1.501 . S
C257 H248 0.931 . S
C257 C253 1.382 . S
C257 C256 1.415 . S
C258 C256 1.501 . S
C258 C259 1.384 . S
C258 C263 1.408 . S
C259 H249 0.930 . S
C259 C258 1.384 . S
C259 C260 1.389 . S
C260 C259 1.389 . S
C260 C261 1.405 . S
C261 H250 0.930 . S
C261 C260 1.405 . S
C261 C262 1.364 . S
C262 C261 1.364 . S
C262 C263 1.400 . S
C263 H251 0.931 . S
C263 C258 1.408 . S
C263 C262 1.400 . S
H264 C270 0.930 . S
H265 C273 0.931 . S
H266 C275 0.931 . S
H267 C277 0.930 . S
H268 C279 0.930 . S
H269 C281 0.931 . S
C270 H264 0.930 . S
C270 C271 1.380 . S
C270 C272 1.394 . S
C271 C270 1.380 . S
C271 C275 1.382 . S
C272 C270 1.394 . S
C272 C273 1.400 . S
C273 H265 0.931 . S
C273 C272 1.400 . S
C273 C274 1.375 . S
C274 C273 1.375 . S
C274 C275 1.415 . S
C274 C276 1.501 1_545 S
C275 H266 0.931 . S
C275 C271 1.382 . S
C275 C274 1.415 . S
C276 C274 1.501 1_565 S
C276 C277 1.384 . S
C276 C281 1.408 . S
C277 H267 0.930 . S
C277 C276 1.384 . S
C277 C278 1.389 . S
C278 C277 1.389 . S
C278 C279 1.405 . S
C279 H268 0.930 . S
C279 C278 1.405 . S
C279 C280 1.364 . S
C280 C279 1.364 . S
C280 C281 1.400 . S
C281 H269 0.931 . S
C281 C276 1.408 . S
C281 C280 1.400 . S
H282 C288 0.930 . S
H283 C291 0.931 . S
H284 C293 0.931 . S
H285 C295 0.930 . S
H286 C297 0.930 . S
H287 C299 0.931 . S
C288 H282 0.930 . S
C288 C289 1.380 . S
C288 C290 1.394 . S
C289 C288 1.380 . S
C289 C293 1.382 . S
C290 C288 1.394 . S
C290 C291 1.400 . S
C291 H283 0.931 . S
C291 C290 1.400 . S
C291 C292 1.375 . S
C292 C291 1.375 . S
C292 C293 1.415 . S
C292 C294 1.501 1_556 S
C293 H284 0.931 . S
C293 C289 1.382 . S
C293 C292 1.415 . S
C294 C292 1.501 1_554 S
C294 C295 1.384 . S
C294 C299 1.408 . S
C295 H285 0.930 . S
C295 C294 1.384 . S
C295 C296 1.389 . S
C296 C295 1.389 . S
C296 C297 1.405 . S
C297 H286 0.930 . S
C297 C296 1.405 . S
C297 C298 1.364 . S
C298 C297 1.364 . S
C298 C299 1.400 . S
C299 H287 0.931 . S
C299 C294 1.408 . S
C299 C298 1.400 . S
H300 C306 0.930 . S
H301 C309 0.931 . S
H302 C311 0.931 . S
H303 C313 0.930 . S
H304 C315 0.930 . S
H305 C317 0.931 . S
C306 H300 0.930 . S
C306 C307 1.380 . S
C306 C308 1.394 . S
C307 C306 1.380 . S
C307 C311 1.382 . S
C308 C306 1.394 . S
C308 C309 1.400 . S
C309 H301 0.931 . S
C309 C308 1.400 . S
C309 C310 1.375 . S
C310 C309 1.375 . S
C310 C311 1.415 . S
C310 C312 1.501 1_556 S
C311 H302 0.931 . S
C311 C307 1.382 . S
C311 C310 1.415 . S
C312 C310 1.501 1_554 S
C312 C313 1.384 . S
C312 C317 1.408 . S
C313 H303 0.930 . S
C313 C312 1.384 . S
C313 C314 1.389 . S
C314 C313 1.389 . S
C314 C315 1.405 . S
C315 H304 0.930 . S
C315 C314 1.405 . S
C315 C316 1.364 . S
C316 C315 1.364 . S
C316 C317 1.400 . S
C317 H305 0.931 . S
C317 C312 1.408 . S
C317 C316 1.400 . S
H318 C324 0.930 . S
H319 C327 0.931 . S
H320 C329 0.931 . S
H321 C331 0.930 . S
H322 C333 0.930 . S
H323 C335 0.931 . S
C324 H318 0.930 . S
C324 C325 1.380 . S
C324 C326 1.394 . S
C325 C324 1.380 . S
C325 C329 1.382 . S
C326 C324 1.394 . S
C326 C327 1.400 . S
C327 H319 0.931 . S
C327 C326 1.400 . S
C327 C328 1.375 . S
C328 C327 1.375 . S
C328 C329 1.415 . S
C328 C330 1.501 . S
C329 H320 0.931 . S
C329 C325 1.382 . S
C329 C328 1.415 . S
C330 C328 1.501 . S
C330 C331 1.384 . S
C330 C335 1.408 . S
C331 H321 0.930 . S
C331 C330 1.384 . S
C331 C332 1.389 . S
C332 C331 1.389 . S
C332 C333 1.405 . S
C333 H322 0.930 . S
C333 C332 1.405 . S
C333 C334 1.364 . S
C334 C333 1.364 . S
C334 C335 1.400 . S
C335 H323 0.931 . S
C335 C330 1.408 . S
C335 C334 1.400 . S
H336 C342 0.930 . S
H337 C345 0.931 . S
H338 C347 0.931 . S
H339 C349 0.930 . S
H340 C351 0.930 . S
H341 C353 0.931 . S
C342 H336 0.930 . S
C342 C343 1.380 . S
C342 C344 1.394 . S
C343 C342 1.380 . S
C343 C347 1.382 . S
C344 C342 1.394 . S
C344 C345 1.400 . S
C345 H337 0.931 . S
C345 C344 1.400 . S
C345 C346 1.375 . S
C346 C345 1.375 . S
C346 C347 1.415 . S
C346 C348 1.501 . S
C347 H338 0.931 . S
C347 C343 1.382 . S
C347 C346 1.415 . S
C348 C346 1.501 . S
C348 C349 1.384 . S
C348 C353 1.408 . S
C349 H339 0.930 . S
C349 C348 1.384 . S
C349 C350 1.389 . S
C350 C349 1.389 . S
C350 C351 1.405 . S
C351 H340 0.930 . S
C351 C350 1.405 . S
C351 C352 1.364 . S
C352 C351 1.364 . S
C352 C353 1.400 . S
C353 H341 0.931 . S
C353 C348 1.408 . S
C353 C352 1.400 . S
H354 C360 0.930 . S
H355 C363 0.931 . S
H356 C365 0.931 . S
H357 C367 0.930 . S
H358 C369 0.930 . S
H359 C371 0.931 . S
C360 H354 0.930 . S
C360 C361 1.380 . S
C360 C362 1.394 . S
C361 C360 1.380 . S
C361 C365 1.382 . S
C362 C360 1.394 . S
C362 C363 1.400 . S
C363 H355 0.931 . S
C363 C362 1.400 . S
C363 C364 1.375 . S
C364 C363 1.375 . S
C364 C365 1.415 . S
C364 C366 1.501 . S
C365 H356 0.931 . S
C365 C361 1.382 . S
C365 C364 1.415 . S
C366 C364 1.501 . S
C366 C367 1.384 . S
C366 C371 1.408 . S
C367 H357 0.930 . S
C367 C366 1.384 . S
C367 C368 1.389 . S
C368 C367 1.389 . S
C368 C369 1.405 . S
C369 H358 0.930 . S
C369 C368 1.405 . S
C369 C370 1.364 . S
C370 C369 1.364 . S
C370 C371 1.400 . S
C371 H359 0.931 . S
C371 C366 1.408 . S
C371 C370 1.400 . S
C372 C373 1.369 . S
C372 C374 1.419 . S
C372 H376 0.930 1_556 S
C373 C372 1.369 . S
C373 C382 1.429 1_455 S
C374 C372 1.419 . S
C374 C375 1.363 . S
C374 H377 0.929 . S
C375 C374 1.363 . S
C375 C381 1.428 1_455 S
H376 C372 0.930 1_554 S
H377 C374 0.929 . S
S378 N379 1.613 . S
S378 N380 1.610 . S
N379 S378 1.613 . S
N379 C382 1.350 . S
N380 S378 1.610 . S
N380 C381 1.351 . S
C381 C375 1.428 1_655 S
C381 N380 1.351 . S
C381 C382 1.434 . S
C382 C373 1.429 1_655 S
C382 N379 1.350 . S
C382 C381 1.434 . S
C383 C384 1.369 . S
C383 C385 1.419 . S
C383 H387 0.930 . S
C384 C383 1.369 . S
C384 C393 1.429 . S
C385 C383 1.419 . S
C385 C386 1.363 . S
C385 H388 0.929 . S
C386 C385 1.363 . S
C386 C392 1.428 . S
H387 C383 0.930 . S
H388 C385 0.929 . S
S389 N390 1.613 . S
S389 N391 1.610 . S
N390 S389 1.613 . S
N390 C393 1.350 . S
N391 S389 1.610 . S
N391 C392 1.351 . S
C392 C386 1.428 . S
C392 N391 1.351 . S
C392 C393 1.434 . S
C393 C384 1.429 . S
C393 N390 1.350 . S
C393 C392 1.434 . S
C394 C395 1.369 . S
C394 C396 1.419 . S
C394 H398 0.930 . S
C395 C394 1.369 . S
C395 C404 1.429 . S
C396 C394 1.419 . S
C396 C397 1.363 . S
C396 H399 0.929 . S
C397 C396 1.363 . S
C397 C403 1.428 . S
H398 C394 0.930 . S
H399 C396 0.929 . S
S400 N401 1.613 . S
S400 N402 1.610 . S
N401 S400 1.613 . S
N401 C404 1.350 . S
N402 S400 1.610 . S
N402 C403 1.351 . S
C403 C397 1.428 . S
C403 N402 1.351 . S
C403 C404 1.434 . S
C404 C395 1.429 . S
C404 N401 1.350 . S
C404 C403 1.434 . S
C405 C406 1.369 . S
C405 C407 1.419 . S
C405 H409 0.930 . S
C406 C405 1.369 . S
C406 C415 1.429 . S
C407 C405 1.419 . S
C407 C408 1.363 . S
C407 H410 0.929 . S
C408 C407 1.363 . S
C408 C414 1.428 . S
H409 C405 0.930 . S
H410 C407 0.929 . S
S411 N412 1.613 . S
S411 N413 1.610 . S
N412 S411 1.613 . S
N412 C415 1.350 . S
N413 S411 1.610 . S
N413 C414 1.351 . S
C414 C408 1.428 . S
C414 N413 1.351 . S
C414 C415 1.434 . S
C415 C406 1.429 . S
C415 N412 1.350 . S
C415 C414 1.434 . S
C416 C417 1.369 1_655 S
C416 C418 1.419 . S
C416 H420 0.930 . S
C417 C416 1.369 1_455 S
C417 C426 1.429 . S
C418 C416 1.419 . S
C418 C419 1.363 1_655 S
C418 H421 0.929 . S
C419 C418 1.363 1_455 S
C419 C425 1.428 . S
H420 C416 0.930 . S
H421 C418 0.929 . S
S422 N423 1.613 . S
S422 N424 1.610 . S
N423 S422 1.613 . S
N423 C426 1.350 . S
N424 S422 1.610 . S
N424 C425 1.351 . S
C425 C419 1.428 . S
C425 N424 1.351 . S
C425 C426 1.434 . S
C426 C417 1.429 . S
C426 N423 1.350 . S
C426 C425 1.434 . S
C427 C428 1.369 . S
C427 C429 1.419 . S
C427 H431 0.930 . S
C428 C427 1.369 . S
C428 C437 1.429 . S
C429 C427 1.419 . S
C429 C430 1.363 . S
C429 H432 0.929 . S
C430 C429 1.363 . S
C430 C436 1.428 . S
H431 C427 0.930 . S
H432 C429 0.929 . S
S433 N434 1.613 . S
S433 N435 1.610 . S
N434 S433 1.613 . S
N434 C437 1.350 . S
N435 S433 1.610 . S
N435 C436 1.351 . S
C436 C430 1.428 . S
C436 N435 1.351 . S
C436 C437 1.434 . S
C437 C428 1.429 . S
C437 N434 1.350 . S
C437 C436 1.434 . S
C438 C439 1.369 . S
C438 C440 1.419 . S
C438 H442 0.930 . S
C439 C438 1.369 . S
C439 C448 1.429 . S
C440 C438 1.419 . S
C440 C441 1.363 . S
C440 H443 0.929 . S
C441 C440 1.363 . S
C441 C447 1.428 . S
H442 C438 0.930 . S
H443 C440 0.929 . S
S444 N445 1.613 1_554 S
S444 N446 1.610 . S
N445 S444 1.613 1_556 S
N445 C448 1.350 1_556 S
N446 S444 1.610 . S
N446 C447 1.351 . S
C447 C441 1.428 . S
C447 N446 1.351 . S
C447 C448 1.434 . S
C448 C439 1.429 . S
C448 N445 1.350 1_554 S
C448 C447 1.434 . S
C449 C450 1.369 . S
C449 C451 1.419 . S
C449 H453 0.930 . S
C450 C449 1.369 . S
C450 C459 1.429 . S
C451 C449 1.419 . S
C451 C452 1.363 . S
C451 H454 0.929 . S
C452 C451 1.363 . S
C452 C458 1.428 . S
H453 C449 0.930 . S
H454 C451 0.929 . S
S455 N456 1.613 1_455 S
S455 N457 1.610 1_455 S
N456 S455 1.613 1_655 S
N456 C459 1.350 . S
N457 S455 1.610 1_655 S
N457 C458 1.351 . S
C458 C452 1.428 . S
C458 N457 1.351 . S
C458 C459 1.434 . S
C459 C450 1.429 . S
C459 N456 1.350 . S
C459 C458 1.434 . S
C460 C461 1.369 . S
C460 C462 1.419 . S
C460 H464 0.930 1_655 S
C461 C460 1.369 . S
C461 C470 1.429 . S
C462 C460 1.419 . S
C462 C463 1.363 . S
C462 H465 0.929 . S
C463 C462 1.363 . S
C463 C469 1.428 . S
H464 C460 0.930 1_455 S
H465 C462 0.929 . S
S466 N467 1.613 . S
S466 N468 1.610 . S
N467 S466 1.613 . S
N467 C470 1.350 1_565 S
N468 S466 1.610 . S
N468 C469 1.351 1_565 S
C469 C463 1.428 . S
C469 N468 1.351 1_545 S
C469 C470 1.434 . S
C470 C461 1.429 . S
C470 N467 1.350 1_545 S
C470 C469 1.434 . S
C471 C472 1.369 . S
C471 C473 1.419 . S
C471 H475 0.930 . S
C472 C471 1.369 . S
C472 C481 1.429 . S
C473 C471 1.419 . S
C473 C474 1.363 . S
C473 H476 0.929 . S
C474 C473 1.363 . S
C474 C480 1.428 . S
H475 C471 0.930 . S
H476 C473 0.929 . S
S477 N478 1.613 . S
S477 N479 1.610 . S
N478 S477 1.613 . S
N478 C481 1.350 . S
N479 S477 1.610 . S
N479 C480 1.351 . S
C480 C474 1.428 . S
C480 N479 1.351 . S
C480 C481 1.434 . S
C481 C472 1.429 . S
C481 N478 1.350 . S
C481 C480 1.434 . S
C482 C483 1.369 1_545 S
C482 C484 1.419 . S
C482 H486 0.930 . S
C483 C482 1.369 1_565 S
C483 C492 1.429 . S
C484 C482 1.419 . S
C484 C485 1.363 1_545 S
C484 H487 0.929 . S
C485 C484 1.363 1_565 S
C485 C491 1.428 . S
H486 C482 0.930 . S
H487 C484 0.929 . S
S488 N489 1.613 . S
S488 N490 1.610 . S
N489 S488 1.613 . S
N489 C492 1.350 . S
N490 S488 1.610 . S
N490 C491 1.351 . S
C491 C485 1.428 . S
C491 N490 1.351 . S
C491 C492 1.434 . S
C492 C483 1.429 . S
C492 N489 1.350 . S
C492 C491 1.434 . S
C493 C494 1.369 . S
C493 C495 1.419 . S
C493 H497 0.930 . S
C494 C493 1.369 . S
C494 C503 1.429 . S
C495 C493 1.419 . S
C495 C496 1.363 . S
C495 H498 0.929 . S
C496 C495 1.363 . S
C496 C502 1.428 . S
H497 C493 0.930 . S
H498 C495 0.929 . S
S499 N500 1.613 . S
S499 N501 1.610 . S
N500 S499 1.613 . S
N500 C503 1.350 . S
N501 S499 1.610 . S
N501 C502 1.351 . S
C502 C496 1.428 . S
C502 N501 1.351 . S
C502 C503 1.434 . S
C503 C494 1.429 . S
C503 N500 1.350 . S
C503 C502 1.434 . S
C504 C505 1.369 . S
C504 C506 1.419 . S
C504 H508 0.930 1_655 S
C505 C504 1.369 . S
C505 C514 1.429 . S
C506 C504 1.419 . S
C506 C507 1.363 . S
C506 H509 0.929 . S
C507 C506 1.363 . S
C507 C513 1.428 . S
H508 C504 0.930 1_455 S
H509 C506 0.929 . S
S510 N511 1.613 . S
S510 N512 1.610 1_545 S
N511 S510 1.613 . S
N511 C514 1.350 1_545 S
N512 S510 1.610 1_565 S
N512 C513 1.351 . S
C513 C507 1.428 . S
C513 N512 1.351 . S
C513 C514 1.434 . S
C514 C505 1.429 . S
C514 N511 1.350 1_565 S
C514 C513 1.434 . S
C515 C516 1.369 . S
C515 C517 1.419 . S
C515 H519 0.930 . S
C516 C515 1.369 . S
C516 C525 1.429 . S
C517 C515 1.419 . S
C517 C518 1.363 . S
C517 H520 0.929 . S
C518 C517 1.363 . S
C518 C524 1.428 . S
H519 C515 0.930 . S
H520 C517 0.929 . S
S521 N522 1.613 . S
S521 N523 1.610 . S
N522 S521 1.613 . S
N522 C525 1.350 . S
N523 S521 1.610 . S
N523 C524 1.351 . S
C524 C518 1.428 . S
C524 N523 1.351 . S
C524 C525 1.434 . S
C525 C516 1.429 . S
C525 N522 1.350 . S
C525 C524 1.434 . S
C526 C527 1.369 . S
C526 C528 1.419 . S
C526 H530 0.930 . S
C527 C526 1.369 . S
C527 C536 1.429 1_545 S
C528 C526 1.419 . S
C528 C529 1.363 . S
C528 H531 0.929 . S
C529 C528 1.363 . S
C529 C535 1.428 1_545 S
H530 C526 0.930 . S
H531 C528 0.929 . S
S532 N533 1.613 . S
S532 N534 1.610 . S
N533 S532 1.613 . S
N533 C536 1.350 . S
N534 S532 1.610 . S
N534 C535 1.351 . S
C535 C529 1.428 1_565 S
C535 N534 1.351 . S
C535 C536 1.434 . S
C536 C527 1.429 1_565 S
C536 N533 1.350 . S
C536 C535 1.434 . S
C537 C538 1.369 . S
C537 C539 1.419 . S
C537 H541 0.930 . S
C538 C537 1.369 . S
C538 C547 1.429 . S
C539 C537 1.419 . S
C539 C540 1.363 . S
C539 H542 0.929 . S
C540 C539 1.363 . S
C540 C546 1.428 . S
H541 C537 0.930 . S
H542 C539 0.929 . S
S543 N544 1.613 . S
S543 N545 1.610 . S
N544 S543 1.613 . S
N544 C547 1.350 . S
N545 S543 1.610 . S
N545 C546 1.351 . S
C546 C540 1.428 . S
C546 N545 1.351 . S
C546 C547 1.434 . S
C547 C538 1.429 . S
C547 N544 1.350 . S
C547 C546 1.434 . S
C548 C549 1.369 . S
C548 C550 1.419 . S
C548 H552 0.930 1_565 S
C549 C548 1.369 . S
C549 C558 1.429 1_554 S
C550 C548 1.419 . S
C550 C551 1.363 . S
C550 H553 0.929 . S
C551 C550 1.363 . S
C551 C557 1.427 . S
H552 C548 0.930 1_545 S
H553 C550 0.929 . S
S554 N555 1.613 . S
S554 N556 1.610 . S
N555 S554 1.613 . S
N555 C558 1.350 . S
N556 S554 1.610 . S
N556 C557 1.352 1_556 S
C557 C551 1.427 . S
C557 N556 1.352 1_554 S
C557 C558 1.434 1_554 S
C558 C549 1.429 1_556 S
C558 N555 1.350 . S
C558 C557 1.434 1_556 S
C559 C560 1.369 . S
C559 C561 1.419 . S
C559 H563 0.930 1_556 S
C560 C559 1.369 . S
C560 C569 1.429 . S
C561 C559 1.419 . S
C561 C562 1.363 . S
C561 H564 0.929 . S
C562 C561 1.363 . S
C562 C568 1.428 . S
H563 C559 0.930 1_554 S
H564 C561 0.929 . S
S565 N566 1.613 . S
S565 N567 1.610 . S
N566 S565 1.613 . S
N566 C569 1.350 . S
N567 S565 1.610 . S
N567 C568 1.351 . S
C568 C562 1.428 . S
C568 N567 1.351 . S
C568 C569 1.434 . S
C569 C560 1.429 . S
C569 N566 1.350 . S
C569 C568 1.434 . S
C570 C571 1.369 . S
C570 C572 1.419 . S
C570 H574 0.930 . S
C571 C570 1.369 . S
C571 C580 1.429 . S
C572 C570 1.419 . S
C572 C573 1.363 . S
C572 H575 0.929 . S
C573 C572 1.363 . S
C573 C579 1.428 . S
H574 C570 0.930 . S
H575 C572 0.929 . S
S576 N577 1.613 . S
S576 N578 1.610 . S
N577 S576 1.613 . S
N577 C580 1.350 . S
N578 S576 1.610 . S
N578 C579 1.351 . S
C579 C573 1.428 . S
C579 N578 1.351 . S
C579 C580 1.434 . S
C580 C571 1.429 . S
C580 N577 1.350 . S
C580 C579 1.434 . S
C581 C582 1.369 . S
C581 C583 1.419 . S
C581 H585 0.930 . S
C582 C581 1.369 . S
C582 C591 1.429 . S
C583 C581 1.419 . S
C583 C584 1.363 . S
C583 H586 0.929 . S
C584 C583 1.363 . S
C584 C590 1.428 . S
H585 C581 0.930 . S
H586 C583 0.929 . S
S587 N588 1.613 . S
S587 N589 1.610 . S
N588 S587 1.613 . S
N588 C591 1.350 . S
N589 S587 1.610 . S
N589 C590 1.351 . S
C590 C584 1.428 . S
C590 N589 1.351 . S
C590 C591 1.434 . S
C591 C582 1.429 . S
C591 N588 1.350 . S
C591 C590 1.434 . S
C592 C593 1.369 . S
C592 C594 1.419 . S
C592 H596 0.930 . S
C593 C592 1.369 . S
C593 C602 1.429 . S
C594 C592 1.419 . S
C594 C595 1.363 . S
C594 H597 0.929 . S
C595 C594 1.363 . S
C595 C601 1.428 . S
H596 C592 0.930 . S
H597 C594 0.929 . S
S598 N599 1.613 . S
S598 N600 1.610 . S
N599 S598 1.613 . S
N599 C602 1.350 . S
N600 S598 1.610 . S
N600 C601 1.351 . S
C601 C595 1.428 . S
C601 N600 1.351 . S
C601 C602 1.434 . S
C602 C593 1.429 . S
C602 N599 1.350 . S
C602 C601 1.434 . S
C603 C604 1.369 . S
C603 C605 1.419 . S
C603 H607 0.923 1_545 S
C604 C603 1.369 . S
C604 C613 1.429 . S
C605 C603 1.419 . S
C605 C606 1.363 . S
C605 H608 0.929 . S
C606 C605 1.363 . S
C606 C612 1.428 . S
H607 C603 0.923 1_565 S
H608 C605 0.929 . S
S609 N610 1.613 . S
S609 N611 1.610 . S
N610 S609 1.613 . S
N610 C613 1.350 . S
N611 S609 1.610 . S
N611 C612 1.351 . S
C612 C606 1.428 . S
C612 N611 1.351 . S
C612 C613 1.434 . S
C613 C604 1.429 . S
C613 N610 1.350 . S
C613 C612 1.434 . S
C614 C615 1.369 . S
C614 C616 1.419 . S
C614 H618 0.930 . S
C615 C614 1.369 . S
C615 C624 1.429 . S
C616 C614 1.419 . S
C616 C617 1.363 . S
C616 H619 0.929 . S
C617 C616 1.363 . S
C617 C623 1.428 . S
H618 C614 0.930 . S
H619 C616 0.929 . S
S620 N621 1.613 . S
S620 N622 1.610 . S
N621 S620 1.613 . S
N621 C624 1.350 . S
N622 S620 1.610 . S
N622 C623 1.351 . S
C623 C617 1.428 . S
C623 N622 1.351 . S
C623 C624 1.434 . S
C624 C615 1.429 . S
C624 N621 1.350 . S
C624 C623 1.434 . S
C625 C626 1.369 . S
C625 C627 1.419 . S
C625 H629 0.930 . S
C626 C625 1.369 . S
C626 C635 1.429 . S
C627 C625 1.419 . S
C627 C628 1.363 . S
C627 H630 0.929 . S
C628 C627 1.363 . S
C628 C634 1.428 . S
H629 C625 0.930 . S
H630 C627 0.929 . S
S631 N632 1.613 . S
S631 N633 1.610 . S
N632 S631 1.613 . S
N632 C635 1.350 . S
N633 S631 1.610 . S
N633 C634 1.351 . S
C634 C628 1.428 . S
C634 N633 1.351 . S
C634 C635 1.434 . S
C635 C626 1.429 . S
C635 N632 1.350 . S
C635 C634 1.434 . S
C636 C637 1.369 . S
C636 C638 1.419 . S
C636 H640 0.930 . S
C637 C636 1.369 . S
C637 C646 1.429 . S
C638 C636 1.419 . S
C638 C639 1.363 . S
C638 H641 0.929 . S
C639 C638 1.363 . S
C639 C645 1.428 . S
H640 C636 0.930 . S
H641 C638 0.929 . S
S642 N643 1.613 . S
S642 N644 1.610 . S
N643 S642 1.613 . S
N643 C646 1.350 . S
N644 S642 1.610 . S
N644 C645 1.351 . S
C645 C639 1.428 . S
C645 N644 1.351 . S
C645 C646 1.434 . S
C646 C637 1.429 . S
C646 N643 1.350 . S
C646 C645 1.434 . S
C647 C648 1.369 . S
C647 C649 1.419 . S
C647 H651 0.930 . S
C648 C647 1.369 . S
C648 C657 1.429 . S
C649 C647 1.419 . S
C649 C650 1.363 . S
C649 H652 0.929 . S
C650 C649 1.363 . S
C650 C656 1.428 . S
H651 C647 0.930 . S
H652 C649 0.929 . S
S653 N654 1.613 . S
S653 N655 1.610 . S
N654 S653 1.613 . S
N654 C657 1.350 . S
N655 S653 1.610 . S
N655 C656 1.351 . S
C656 C650 1.428 . S
C656 N655 1.351 . S
C656 C657 1.434 . S
C657 C648 1.429 . S
C657 N654 1.350 . S
C657 C656 1.434 . S
C658 C659 1.369 . S
C658 C660 1.419 . S
C658 H662 0.930 1_556 S
C659 C658 1.369 . S
C659 C668 1.429 . S
C660 C658 1.419 . S
C660 C661 1.363 . S
C660 H663 0.929 . S
C661 C660 1.363 . S
C661 C667 1.428 . S
H662 C658 0.930 1_554 S
H663 C660 0.929 . S
S664 N665 1.613 . S
S664 N666 1.610 1_455 S
N665 S664 1.613 . S
N665 C668 1.350 1_455 S
N666 S664 1.610 1_655 S
N666 C667 1.351 . S
C667 C661 1.428 . S
C667 N666 1.351 . S
C667 C668 1.434 . S
C668 C659 1.429 . S
C668 N665 1.350 1_655 S
C668 C667 1.434 . S
C669 C670 1.369 . S
C669 C671 1.419 . S
C669 H673 0.930 . S
C670 C669 1.369 . S
C670 C679 1.429 . S
C671 C669 1.419 . S
C671 C672 1.363 . S
C671 H674 0.929 . S
C672 C671 1.363 . S
C672 C678 1.428 . S
H673 C669 0.930 . S
H674 C671 0.929 . S
S675 N676 1.613 . S
S675 N677 1.610 . S
N676 S675 1.613 . S
N676 C679 1.350 . S
N677 S675 1.610 . S
N677 C678 1.351 . S
C678 C672 1.428 . S
C678 N677 1.351 . S
C678 C679 1.434 . S
C679 C670 1.429 . S
C679 N676 1.350 . S
C679 C678 1.434 . S
C680 C681 1.369 . S
C680 C682 1.419 . S
C680 H684 0.930 . S
C681 C680 1.369 . S
C681 C690 1.429 . S
C682 C680 1.419 . S
C682 C683 1.363 . S
C682 H685 0.929 . S
C683 C682 1.363 . S
C683 C689 1.428 . S
H684 C680 0.930 . S
H685 C682 0.929 . S
S686 N687 1.613 1_554 S
S686 N688 1.610 . S
N687 S686 1.613 1_556 S
N687 C690 1.350 1_556 S
N688 S686 1.610 . S
N688 C689 1.351 . S
C689 C683 1.428 . S
C689 N688 1.351 . S
C689 C690 1.434 . S
C690 C681 1.429 . S
C690 N687 1.350 1_554 S
C690 C689 1.434 . S
C691 C692 1.369 . S
C691 C693 1.419 . S
C691 H695 0.930 . S
C692 C691 1.369 . S
C692 C701 1.429 . S
C693 C691 1.419 . S
C693 C694 1.363 . S
C693 H696 0.929 . S
C694 C693 1.363 . S
C694 C700 1.428 . S
H695 C691 0.930 . S
H696 C693 0.929 . S
S697 N698 1.613 . S
S697 N699 1.610 . S
N698 S697 1.613 . S
N698 C701 1.350 . S
N699 S697 1.610 . S
N699 C700 1.351 . S
C700 C694 1.428 . S
C700 N699 1.351 . S
C700 C701 1.434 . S
C701 C692 1.429 . S
C701 N698 1.350 . S
C701 C700 1.434 . S
C702 C703 1.369 . S
C702 C704 1.419 . S
C702 H706 0.930 . S
C703 C702 1.369 . S
C703 C712 1.429 1_655 S
C704 C702 1.419 . S
C704 C705 1.363 . S
C704 H707 0.929 . S
C705 C704 1.363 . S
C705 C711 1.428 1_655 S
H706 C702 0.930 . S
H707 C704 0.929 . S
S708 N709 1.613 . S
S708 N710 1.610 . S
N709 S708 1.613 . S
N709 C712 1.350 . S
N710 S708 1.610 . S
N710 C711 1.351 . S
C711 C705 1.428 1_455 S
C711 N710 1.351 . S
C711 C712 1.434 . S
C712 C703 1.429 1_455 S
C712 N709 1.350 . S
C712 C711 1.434 . S
C713 C714 1.369 . S
C713 C715 1.419 . S
C713 H717 0.930 . S
C714 C713 1.369 . S
C714 C723 1.429 . S
C715 C713 1.419 . S
C715 C716 1.363 . S
C715 H718 0.929 . S
C716 C715 1.363 . S
C716 C722 1.428 . S
H717 C713 0.930 . S
H718 C715 0.929 . S
S719 N720 1.613 . S
S719 N721 1.610 . S
N720 S719 1.613 . S
N720 C723 1.350 . S
N721 S719 1.610 . S
N721 C722 1.351 . S
C722 C716 1.428 . S
C722 N721 1.351 . S
C722 C723 1.434 . S
C723 C714 1.429 . S
C723 N720 1.350 . S
C723 C722 1.434 . S
C724 C725 1.369 . S
C724 C726 1.419 . S
C724 H728 0.930 . S
C725 C724 1.369 . S
C725 C734 1.429 . S
C726 C724 1.419 . S
C726 C727 1.363 . S
C726 H729 0.929 . S
C727 C726 1.363 . S
C727 C733 1.428 . S
H728 C724 0.930 . S
H729 C726 0.929 . S
S730 N731 1.613 . S
S730 N732 1.610 . S
N731 S730 1.613 . S
N731 C734 1.350 . S
N732 S730 1.610 . S
N732 C733 1.351 . S
C733 C727 1.428 . S
C733 N732 1.351 . S
C733 C734 1.434 . S
C734 C725 1.429 . S
C734 N731 1.350 . S
C734 C733 1.434 . S
C735 C736 1.369 . S
C735 C737 1.419 . S
C735 H739 0.930 . S
C736 C735 1.369 . S
C736 C745 1.429 . S
C737 C735 1.419 . S
C737 C738 1.363 . S
C737 H740 0.929 . S
C738 C737 1.363 . S
C738 C744 1.428 . S
H739 C735 0.930 . S
H740 C737 0.929 . S
S741 N742 1.613 . S
S741 N743 1.610 . S
N742 S741 1.613 . S
N742 C745 1.350 . S
N743 S741 1.610 . S
N743 C744 1.351 . S
C744 C738 1.428 . S
C744 N743 1.351 . S
C744 C745 1.434 . S
C745 C736 1.429 . S
C745 N742 1.350 . S
C745 C744 1.434 . S
C746 C747 1.369 . S
C746 C748 1.419 . S
C746 H750 0.930 . S
C747 C746 1.369 . S
C747 C756 1.429 . S
C748 C746 1.419 . S
C748 C749 1.363 . S
C748 H751 0.929 . S
C749 C748 1.363 . S
C749 C755 1.428 . S
H750 C746 0.930 . S
H751 C748 0.929 . S
S752 N753 1.613 . S
S752 N754 1.610 . S
N753 S752 1.613 . S
N753 C756 1.350 . S
N754 S752 1.610 . S
N754 C755 1.351 . S
C755 C749 1.428 . S
C755 N754 1.351 . S
C755 C756 1.434 . S
C756 C747 1.429 . S
C756 N753 1.350 . S
C756 C755 1.434 . S
C757 C758 1.369 . S
C757 C759 1.419 . S
C757 H761 0.930 . S
C758 C757 1.369 . S
C758 C767 1.429 . S
C759 C757 1.419 . S
C759 C760 1.363 . S
C759 H762 0.929 . S
C760 C759 1.363 . S
C760 C766 1.428 . S
H761 C757 0.930 . S
H762 C759 0.929 . S
S763 N764 1.613 . S
S763 N765 1.610 . S
N764 S763 1.613 . S
N764 C767 1.350 . S
N765 S763 1.610 . S
N765 C766 1.351 . S
C766 C760 1.428 . S
C766 N765 1.351 . S
C766 C767 1.434 . S
C767 C758 1.429 . S
C767 N764 1.350 . S
C767 C766 1.434 . S
C768 C769 1.369 . S
C768 C770 1.419 . S
C768 H772 0.930 . S
C769 C768 1.369 . S
C769 C778 1.429 . S
C770 C768 1.419 . S
C770 C771 1.363 . S
C770 H773 0.929 . S
C771 C770 1.363 . S
C771 C777 1.428 . S
H772 C768 0.930 . S
H773 C770 0.929 . S
S774 N775 1.613 . S
S774 N776 1.610 . S
N775 S774 1.613 . S
N775 C778 1.350 . S
N776 S774 1.610 . S
N776 C777 1.351 . S
C777 C771 1.428 . S
C777 N776 1.351 . S
C777 C778 1.434 . S
C778 C769 1.429 . S
C778 N775 1.350 . S
C778 C777 1.434 . S
C779 C780 1.369 . S
C779 C781 1.419 . S
C779 H783 0.930 . S
C780 C779 1.369 . S
C780 C789 1.429 . S
C781 C779 1.419 . S
C781 C782 1.363 . S
C781 H784 0.929 . S
C782 C781 1.363 . S
C782 C788 1.428 . S
H783 C779 0.930 . S
H784 C781 0.929 . S
S785 N786 1.613 . S
S785 N787 1.610 . S
N786 S785 1.613 . S
N786 C789 1.350 . S
N787 S785 1.610 . S
N787 C788 1.351 . S
C788 C782 1.428 . S
C788 N787 1.351 . S
C788 C789 1.434 . S
C789 C780 1.429 . S
C789 N786 1.350 . S
C789 C788 1.434 . S
C790 C791 1.369 . S
C790 C792 1.419 . S
C790 H794 0.930 . S
C791 C790 1.369 . S
C791 C800 1.429 . S
C792 C790 1.419 . S
C792 C793 1.363 . S
C792 H795 0.929 . S
C793 C792 1.363 . S
C793 C799 1.428 . S
H794 C790 0.930 . S
H795 C792 0.929 . S
S796 N797 1.613 . S
S796 N798 1.610 . S
N797 S796 1.613 . S
N797 C800 1.350 . S
N798 S796 1.610 . S
N798 C799 1.351 . S
C799 C793 1.428 . S
C799 N798 1.351 . S
C799 C800 1.434 . S
C800 C791 1.429 . S
C800 N797 1.350 . S
C800 C799 1.434 . S
C801 C802 1.369 . S
C801 C803 1.419 . S
C801 H805 0.930 . S
C802 C801 1.369 . S
C802 C811 1.429 . S
C803 C801 1.419 . S
C803 C804 1.363 . S
C803 H806 0.929 . S
C804 C803 1.363 . S
C804 C810 1.428 . S
H805 C801 0.930 . S
H806 C803 0.929 . S
S807 N808 1.613 . S
S807 N809 1.610 . S
N808 S807 1.613 . S
N808 C811 1.350 . S
N809 S807 1.610 . S
N809 C810 1.351 . S
C810 C804 1.428 . S
C810 N809 1.351 . S
C810 C811 1.434 . S
C811 C802 1.429 . S
C811 N808 1.350 . S
C811 C810 1.434 . S
C812 C813 1.369 . S
C812 C814 1.419 . S
C812 H816 0.930 . S
C813 C812 1.369 . S
C813 C822 1.429 . S
C814 C812 1.419 . S
C814 C815 1.363 . S
C814 H817 0.929 . S
C815 C814 1.363 . S
C815 C821 1.428 . S
H816 C812 0.930 . S
H817 C814 0.929 . S
S818 N819 1.613 1_455 S
S818 N820 1.610 1_455 S
N819 S818 1.613 1_655 S
N819 C822 1.350 . S
N820 S818 1.610 1_655 S
N820 C821 1.351 . S
C821 C815 1.428 . S
C821 N820 1.351 . S
C821 C822 1.434 . S
C822 C813 1.429 . S
C822 N819 1.350 . S
C822 C821 1.434 . S
C823 C824 1.369 . S
C823 C825 1.419 . S
C823 H827 0.930 . S
C824 C823 1.369 . S
C824 C833 1.429 . S
C825 C823 1.419 . S
C825 C826 1.363 . S
C825 H828 0.929 . S
C826 C825 1.363 . S
C826 C832 1.428 . S
H827 C823 0.930 . S
H828 C825 0.929 . S
S829 N830 1.613 1_545 S
S829 N831 1.610 . S
N830 S829 1.613 1_565 S
N830 C833 1.350 1_565 S
N831 S829 1.610 . S
N831 C832 1.351 . S
C832 C826 1.428 . S
C832 N831 1.351 . S
C832 C833 1.434 . S
C833 C824 1.429 . S
C833 N830 1.350 1_545 S
C833 C832 1.434 . S
C834 C835 1.369 . S
C834 C836 1.419 . S
C834 H838 0.930 . S
C835 C834 1.369 . S
C835 C844 1.429 . S
C836 C834 1.419 . S
C836 C837 1.363 . S
C836 H839 0.929 . S
C837 C836 1.363 . S
C837 C843 1.428 . S
H838 C834 0.930 . S
H839 C836 0.929 . S
S840 N841 1.613 1_565 S
S840 N842 1.610 1_565 S
N841 S840 1.613 1_545 S
N841 C844 1.350 . S
N842 S840 1.610 1_545 S
N842 C843 1.351 . S
C843 C837 1.428 . S
C843 N842 1.351 . S
C843 C844 1.434 . S
C844 C835 1.429 . S
C844 N841 1.350 . S
C844 C843 1.434 . S
C845 C846 1.369 . S
C845 C847 1.419 . S
C845 H849 0.930 1_565 S
C846 C845 1.369 . S
C846 C855 1.429 . S
C847 C845 1.419 . S
C847 C848 1.363 . S
C847 H850 0.929 . S
C848 C847 1.363 . S
C848 C854 1.428 . S
H849 C845 0.930 1_545 S
H850 C847 0.929 . S
S851 N852 1.613 . S
S851 N853 1.610 . S
N852 S851 1.613 . S
N852 C855 1.350 . S
N853 S851 1.610 . S
N853 C854 1.351 . S
C854 C848 1.428 . S
C854 N853 1.351 . S
C854 C855 1.434 . S
C855 C846 1.429 . S
C855 N852 1.350 . S
C855 C854 1.434 . S
C856 C857 1.369 . S
C856 C858 1.419 . S
C856 H860 0.930 . S
C857 C856 1.369 . S
C857 C866 1.429 . S
C858 C856 1.419 . S
C858 C859 1.363 . S
C858 H861 0.929 . S
C859 C858 1.363 . S
C859 C865 1.428 . S
H860 C856 0.930 . S
H861 C858 0.929 . S
S862 N863 1.613 . S
S862 N864 1.610 . S
N863 S862 1.613 . S
N863 C866 1.350 . S
N864 S862 1.610 . S
N864 C865 1.351 . S
C865 C859 1.428 . S
C865 N864 1.351 . S
C865 C866 1.434 . S
C866 C857 1.429 . S
C866 N863 1.350 . S
C866 C865 1.434 . S
C867 C868 1.369 . S
C867 C869 1.419 . S
C867 H871 0.930 . S
C868 C867 1.369 . S
C868 C877 1.429 . S
C869 C867 1.419 . S
C869 C870 1.363 . S
C869 H872 0.929 . S
C870 C869 1.363 . S
C870 C876 1.428 . S
H871 C867 0.930 . S
H872 C869 0.929 . S
S873 N874 1.613 . S
S873 N875 1.610 . S
N874 S873 1.613 . S
N874 C877 1.350 . S
N875 S873 1.610 . S
N875 C876 1.351 . S
C876 C870 1.428 . S
C876 N875 1.351 . S
C876 C877 1.434 . S
C877 C868 1.429 . S
C877 N874 1.350 . S
C877 C876 1.434 . S
C878 C879 1.369 . S
C878 C880 1.419 . S
C878 H882 0.930 . S
C879 C878 1.369 . S
C879 C888 1.429 . S
C880 C878 1.419 . S
C880 C881 1.363 . S
C880 H883 0.929 . S
C881 C880 1.363 . S
C881 C887 1.428 . S
H882 C878 0.930 . S
H883 C880 0.929 . S
S884 N885 1.613 . S
S884 N886 1.610 . S
N885 S884 1.613 . S
N885 C888 1.350 . S
N886 S884 1.610 . S
N886 C887 1.351 . S
C887 C881 1.428 . S
C887 N886 1.351 . S
C887 C888 1.434 . S
C888 C879 1.429 . S
C888 N885 1.350 . S
C888 C887 1.434 . S
C889 C890 1.369 . S
C889 C891 1.419 . S
C889 H893 0.930 . S
C890 C889 1.369 . S
C890 C899 1.429 . S
C891 C889 1.419 . S
C891 C892 1.363 . S
C891 H894 0.929 . S
C892 C891 1.363 . S
C892 C898 1.428 . S
H893 C889 0.930 . S
H894 C891 0.929 . S
S895 N896 1.613 1_565 S
S895 N897 1.610 1_565 S
N896 S895 1.613 1_545 S
N896 C899 1.350 . S
N897 S895 1.610 1_545 S
N897 C898 1.351 . S
C898 C892 1.428 . S
C898 N897 1.351 . S
C898 C899 1.434 . S
C899 C890 1.429 . S
C899 N896 1.350 . S
C899 C898 1.434 . S
C375 C361 1.240 . S
C373 C5 1.352 1_556 S
C384 C16 1.356 . S
C386 C314 1.231 . S
C395 C36 1.341 . S
C397 C325 1.227 . S
C408 C350 1.228 . S
C406 C49 1.354 . S
C417 C23 1.351 . S
C419 C368 1.210 . S
C430 C307 1.243 . S
C428 C29 1.354 . S
C441 C332 1.215 . S
C439 C42 1.359 1_554 S
C452 C343 1.242 . S
C450 C4 1.349 . S
C461 C55 1.349 1_655 S
C463 C344 1.229 . S
C474 C370 1.253 . S
C472 C69 1.357 . S
C485 C308 1.223 . S
C483 C83 1.354 . S
C496 C334 1.256 . S
C494 C101 1.346 . S
C505 C57 1.348 1_655 S
C507 C316 1.247 . S
C516 C75 1.357 . S
C518 C326 1.240 . S
C527 C81 1.354 . S
C529 C352 1.250 . S
C540 C362 1.242 . S
C538 C95 1.352 . S
C551 C199 1.232 . S
C549 C96 1.347 1_565 S
C562 C182 1.219 . S
C560 C107 1.346 . S
C573 C208 1.247 . S
C571 C121 1.348 . S
C584 C226 1.236 . S
C582 C133 1.357 . S
C593 C62 1.352 . S
C595 C200 1.234 . S
C604 C68 1.356 1_545 S
C606 C170 1.219 . S
C615 C127 1.348 . S
C617 C224 1.233 . S
C626 C147 1.351 . S
C628 C181 1.241 . S
C639 C235 1.224 . S
C637 C30 1.350 . S
C650 C260 1.238 . S
C648 C43 1.355 . S
C659 C3 1.351 1_556 S
C661 C271 1.235 . S
C670 C18 1.358 . S
C672 C296 1.239 . S
C683 C242 1.217 . S
C681 C44 1.361 1_554 S
C694 C253 1.244 . S
C692 C10 1.355 . S
C703 C17 1.346 . S
C705 C278 1.222 . S
C716 C289 1.246 . S
C714 C31 1.354 . S
C725 C146 1.351 . S
C727 C290 1.236 . S
C736 C114 1.348 . S
C738 C244 1.245 . S
C749 C254 1.233 . S
C747 C122 1.353 1_455 S
C758 C140 1.357 . S
C760 C280 1.252 . S
C771 C262 1.246 . S
C769 C148 1.349 . S
C780 C108 1.346 . S
C782 C272 1.233 . S
C793 C298 1.253 . S
C791 C120 1.351 1_455 S
C804 C236 1.249 . S
C802 C134 1.349 . S
C815 C163 1.237 . S
C813 C135 1.360 . S
C826 C218 1.223 . S
C824 C70 1.357 1_545 S
C835 C82 1.347 . S
C837 C172 1.254 . S
C848 C190 1.234 . S
C846 C94 1.347 1_565 S
C859 C164 1.235 . S
C857 C153 1.354 . S
C868 C109 1.357 . S
C870 C206 1.219 . S
C879 C88 1.348 . S
C881 C188 1.238 . S
C890 C56 1.347 . S
C892 C217 1.242 . S
