# Generated by pormake.
# Topology tsx, (6,3)-cn, num edge types: 1
# Building blocks:
#     Node 0, Type 0, BuildingBlock: VOLQOD_clean_sbu_1, # of connection points: 6
#     Node 1, Type 0, BuildingBlock: VOLQOD_clean_sbu_1, # of connection points: 6
#     Node 2, Type 1, BuildingBlock: QEWDON_clean_linker_0, # of connection points: 3
#     Node 3, Type 1, BuildingBlock: QEWDON_clean_linker_0, # of connection points: 3
#     Node 4, Type 1, BuildingBlock: QEWDON_clean_linker_0, # of connection points: 3
#     Node 5, Type 1, BuildingBlock: QEWDON_clean_linker_0, # of connection points: 3
#     Edge 6, Type (0, 1), BuildingBlock: CIFDUS_clean_linker_0, # of connection points: 2
#     Edge 7, Type (0, 1), BuildingBlock: CIFDUS_clean_linker_0, # of connection points: 2
#     Edge 8, Type (0, 1), BuildingBlock: CIFDUS_clean_linker_0, # of connection points: 2
#     Edge 9, Type (0, 1), BuildingBlock: CIFDUS_clean_linker_0, # of connection points: 2
#     Edge 10, Type (0, 1), BuildingBlock: CIFDUS_clean_linker_0, # of connection points: 2
#     Edge 11, Type (0, 1), BuildingBlock: CIFDUS_clean_linker_0, # of connection points: 2
#     Edge 12, Type (0, 1), BuildingBlock: CIFDUS_clean_linker_0, # of connection points: 2
#     Edge 13, Type (0, 1), BuildingBlock: CIFDUS_clean_linker_0, # of connection points: 2
#     Edge 14, Type (0, 1), BuildingBlock: CIFDUS_clean_linker_0, # of connection points: 2
#     Edge 15, Type (0, 1), BuildingBlock: CIFDUS_clean_linker_0, # of connection points: 2
#     Edge 16, Type (0, 1), BuildingBlock: CIFDUS_clean_linker_0, # of connection points: 2
#     Edge 17, Type (0, 1), BuildingBlock: CIFDUS_clean_linker_0, # of connection points: 2
# Relax obj value: 0.079
# Max RMSD: 0.174
# Mean RMSD: 0.147
data_MOF--net-tsx--node1-VOLQOD_clean_sbu_1--node2-QEWDON_clean_linker_0--edge1-CIFDUS_clean_linker_0
_symmetry_space_group_name_H-M    P1
_symmetry_Int_Tables_number       1
_symmetry_cell_setting            triclinic
loop_
_symmetry_equiv_pos_as_xyz
'x, y, z'
_cell_length_a     20.015934
_cell_length_b     20.550787
_cell_length_c     33.034113
_cell_angle_alpha  90.872162
_cell_angle_beta   102.32499
_cell_angle_gamma 90.090022
loop_
_atom_site_label
_atom_site_type_symbol
_atom_site_fract_x
_atom_site_fract_y
_atom_site_fract_z
_atom_type_partial_charge
O0 O 0.07936 0.0336 0.09575 0.0
Zn1 Zn 0.09481 0.01666 0.0384 0.0
O2 O 0.00942 0.02708 -0.00168 0.0
Zn3 Zn 0.98501 0.946 0.9685 0.0
Zn4 Zn 0.93639 0.04858 0.0264 0.0
Zn5 Zn 0.01839 0.09391 0.95898 0.0
O6 O 0.96496 0.95745 0.90761 0.0
O7 O 0.01373 0.05332 0.90235 0.0
O8 O 0.13341 0.92592 0.03464 0.0
O9 O 0.0626 0.88526 0.97885 0.0
O10 O 0.91095 0.89802 0.98804 0.0
O11 O 0.87827 0.96997 0.03043 0.0
O12 O 0.87788 0.12021 -0.00278 0.0
O13 O 0.16417 0.0832 0.02911 0.0
O14 O 0.93894 0.15612 0.95316 0.0
O15 O 0.10858 0.14235 0.9769 0.0
C16 C 0.03064 0.05964 0.10947 0.0
C17 C 0.98682 0.00021 0.88611 0.0
C18 C 0.87473 0.91335 0.01397 0.0
C19 C 0.11583 0.88102 0.00735 0.0
C20 C 0.8864 0.1594 0.9692 0.0
C21 C 0.1621 0.13085 0.0046 0.0
O22 O 0.97412 0.07386 0.08546 0.0
O23 O 0.52443 0.50784 0.5957 0.0
Zn24 Zn 0.55284 0.51888 0.54059 0.0
O25 O 0.47571 0.52922 0.49496 0.0
Zn26 Zn 0.47338 0.45848 0.45545 0.0
Zn27 Zn 0.3945 0.52382 0.51763 0.0
Zn28 Zn 0.4808 0.60985 0.46544 0.0
O29 O 0.45525 0.48876 0.3968 0.0
O30 O 0.49443 0.59034 0.40667 0.0
O31 O 0.61602 0.44847 0.5279 0.0
O32 O 0.56374 0.41517 0.46468 0.0
O33 O 0.41057 0.3877 0.46426 0.0
O34 O 0.35798 0.43186 0.51062 0.0
O35 O 0.32639 0.59146 0.4914 0.0
O36 O 0.60776 0.59974 0.54646 0.0
O37 O 0.38939 0.65605 0.46046 0.0
O38 O 0.56105 0.6663 0.49595 0.0
C39 C 0.46866 0.52265 0.60642 0.0
C40 C 0.47555 0.54106 0.38295 0.0
C41 C 0.37032 0.38318 0.48906 0.0
C42 C 0.61416 0.41378 0.49534 0.0
C43 C 0.33295 0.64233 0.47081 0.0
C44 C 0.60729 0.65354 0.52794 0.0
O45 O 0.41542 0.53722 0.57949 0.0
H46 H 0.94566 0.07271 0.36152 0.0
C47 C 0.97203 0.02688 0.36851 0.0
C48 C -0.0042 0.99323 0.33722 0.0
C49 C 0.99022 0.00588 0.40956 0.0
H50 H 0.05479 0.91206 0.32257 0.0
C51 C 0.03526 0.937 0.34679 0.0
C52 C 0.05447 0.91568 0.38763 0.0
C53 C 0.02931 0.94879 0.41865 0.0
C54 C 0.98365 0.05092 0.44361 0.0
H55 H 0.04517 0.93326 0.45044 0.0
C56 C 0.91378 0.10065 0.4409 0.0
C57 C 0.90166 0.16102 0.4757 0.0
C58 C 0.05304 0.05729 0.48427 0.0
H59 H 0.0968 0.02564 0.48378 0.0
C60 C 0.03391 0.14821 0.53667 0.0
H61 H 0.87318 0.09442 0.41368 0.0
C62 C 0.95657 0.18392 0.52081 0.0
H63 H 0.94246 0.22178 0.54046 0.0
H64 H 0.06579 0.16647 0.56576 0.0
H65 H 0.05781 0.03602 0.63191 0.0
C66 C 0.01777 0.00136 0.61901 0.0
C67 C 0.98043 0.9708 0.64487 0.0
C68 C -0.00016 0.99112 0.57609 0.0
H69 H 0.89439 0.90847 0.64659 0.0
C70 C 0.92616 0.92885 0.62716 0.0
C71 C 0.90958 0.91601 0.58435 0.0
C72 C 0.94724 0.94715 0.55903 0.0
C73 C 0.02483 0.03584 0.54856 0.0
H74 H 0.93424 0.93894 0.52577 0.0
C75 C 0.10936 0.05821 0.55624 0.0
C76 C 0.14542 0.11469 0.52908 0.0
C77 C 0.96383 0.07053 0.51065 0.0
H78 H 0.91064 0.05519 0.50806 0.0
C79 C 0.01906 0.15591 0.46996 0.0
H80 H 0.14383 0.03553 0.58179 0.0
C81 C 0.10488 0.16106 0.48868 0.0
H82 H 0.13359 0.19622 0.47515 0.0
H83 H -0.00263 0.18789 0.44433 0.0
H84 H 0.45836 0.54899 0.86752 0.0
C85 C 0.48463 0.50391 0.87715 0.0
C86 C 0.51367 0.46745 0.84885 0.0
C87 C 0.49657 0.48571 0.91903 0.0
H88 H 0.57488 0.38417 0.84071 0.0
C89 C 0.55188 0.41175 0.86242 0.0
C90 C 0.56457 0.39366 0.90404 0.0
C91 C 0.53536 0.43003 0.93193 0.0
C92 C 0.48362 0.5312 0.95131 0.0
H93 H 0.54731 0.41797 0.96454 0.0
C94 C 0.40453 0.56412 0.95006 0.0
C95 C 0.38154 0.61885 0.98488 0.0
C96 C 0.55261 0.55137 0.99019 0.0
H97 H 0.6018 0.52906 0.98898 0.0
C98 C 0.51726 0.63447 0.04236 0.0
H99 H 0.36438 0.54902 0.9242 0.0
C100 C 0.43302 0.65274 0.02814 0.0
H101 H 0.41289 0.68822 0.04686 0.0
H102 H 0.54622 0.65868 0.07042 0.0
H103 H 0.53813 0.53748 0.13806 0.0
C104 C 0.52405 0.48859 0.12658 0.0
C105 C 0.4966 0.44468 0.15118 0.0
C106 C 0.52559 0.47209 0.08526 0.0
H107 H 0.45467 0.34818 0.15316 0.0
C108 C 0.47544 0.38267 0.13456 0.0
C109 C 0.47355 0.36694 0.0929 0.0
C110 C 0.49935 0.41177 0.06852 0.0
C111 C 0.53632 0.52296 0.05651 0.0
H112 H 0.4956 0.40118 0.03583 0.0
C113 C 0.61304 0.56288 0.06114 0.0
C114 C 0.63184 0.62646 0.03178 0.0
C115 C 0.46613 0.54404 0.01952 0.0
H116 H 0.41871 0.51686 0.01861 0.0
C117 C 0.4953 0.6403 0.97538 0.0
H118 H 0.65397 0.54742 0.08605 0.0
C119 C 0.5785 0.66359 0.9916 0.0
H120 H 0.59736 0.70377 0.97634 0.0
H121 H 0.46451 0.66707 0.94962 0.0
H122 H 0.28541 0.11942 0.0583 0.0
H123 H 0.173 0.24415 0.96373 0.0
H124 H 0.26537 0.32436 0.97874 0.0
H125 H 0.3713 0.36473 0.0243 0.0
H126 H 0.48161 0.24181 0.12033 0.0
H127 H 0.39728 0.15488 0.09876 0.0
C128 C 0.28128 0.16379 0.04059 0.0
C129 C 0.22164 0.17596 0.01032 0.0
C130 C 0.33426 0.21016 0.04971 0.0
C131 C 0.21785 0.23355 0.98745 0.0
C132 C 0.27071 0.27958 -0.00397 0.0
C133 C 0.37801 0.31817 0.03966 0.0
C134 C 0.43254 0.30967 0.07391 0.0
C135 C 0.32831 0.26916 0.02781 0.0
C136 C 0.43991 0.24948 0.09398 0.0
C137 C 0.39152 0.19998 0.0818 0.0
H138 H 0.14969 0.81951 0.9421 0.0
H139 H 0.17189 0.81022 0.07464 0.0
H140 H 0.24008 0.71112 0.07605 0.0
H141 H 0.30388 0.63626 0.041 0.0
H142 H 0.30383 0.6612 0.91172 0.0
H143 H 0.21169 0.74116 0.90636 0.0
C144 C 0.16932 0.79534 0.97117 0.0
C145 C 0.15698 0.82196 0.00834 0.0
C146 C 0.21081 0.74037 0.97189 0.0
C147 C 0.18219 0.79085 0.04591 0.0
C148 C 0.22038 0.73405 0.0466 0.0
C149 C 0.28294 0.65868 0.01148 0.0
C150 C 0.3115 0.6445 0.97707 0.0
C151 C 0.2364 0.70953 0.00995 0.0
C152 C 0.28259 0.67155 0.93864 0.0
C153 C 0.23109 0.7183 0.93586 0.0
H154 H 0.87603 0.78252 -0.00022 0.0
H155 H 0.77687 0.93137 0.0593 0.0
H156 H 0.70313 0.84936 0.08002 0.0
H157 H 0.65701 0.73841 0.07317 0.0
H158 H 0.74953 0.59109 0.00956 0.0
H159 H 0.83804 0.66861 9e-05 0.0
C160 C 0.83839 0.79706 0.01735 0.0
C161 C 0.83097 0.86326 0.02716 0.0
C162 C 0.79607 0.74962 0.02918 0.0
C163 C 0.78298 0.88097 0.05076 0.0
C164 C 0.74105 0.83406 0.06287 0.0
C165 C 0.69868 0.72274 0.05906 0.0
C166 C 0.69816 0.65929 0.04279 0.0
C167 C 0.74619 0.76857 0.05148 0.0
C168 C 0.75052 0.63939 0.0233 0.0
C169 C 0.79998 0.68413 0.01707 0.0
H170 H 0.7618 0.17235 0.98945 0.0
H171 H 0.89054 0.25602 0.91395 0.0
H172 H 0.8016 0.33427 0.88672 0.0
H173 H 0.68828 0.37955 0.88461 0.0
H174 H 0.5582 0.29658 0.9592 0.0
H175 H 0.64718 0.21751 0.98682 0.0
C176 C 0.77059 0.20781 0.96715 0.0
C177 C 0.83297 0.20821 0.95384 0.0
C178 C 0.71901 0.2526 0.95137 0.0
C179 C 0.84318 0.25445 0.92479 0.0
C180 C 0.79228 0.29924 0.90912 0.0
C181 C 0.67883 0.34342 0.90635 0.0
C182 C 0.61639 0.34327 0.91941 0.0
C183 C 0.73003 0.29856 0.92207 0.0
C184 C 0.60582 0.2975 0.94861 0.0
C185 C 0.65662 0.25237 0.96436 0.0
H186 H 0.64159 0.76562 0.49231 0.0
H187 H 0.70232 0.64426 0.5996 0.0
H188 H 0.80161 0.71248 0.62476 0.0
H189 H 0.87321 0.80431 0.61636 0.0
H190 H 0.81256 0.93116 0.51215 0.0
H191 H 0.71285 0.86201 0.48528 0.0
C192 C 0.67627 0.75451 0.52132 0.0
C193 C 0.66429 0.69957 0.54378 0.0
C194 C 0.73407 0.79426 0.53598 0.0
C195 C 0.71005 0.68587 0.58136 0.0
C196 C 0.7672 0.72482 0.5959 0.0
C197 C 0.83788 0.81744 0.58799 0.0
C198 C 0.85049 0.87293 0.56647 0.0
C199 C 0.77994 0.77874 0.57338 0.0
C200 C 0.80481 0.88816 0.52916 0.0
C201 C 0.7473 0.84901 0.51397 0.0
H202 H 0.61435 0.29127 0.46364 0.0
H203 H 0.74652 0.45038 0.51713 0.0
H204 H 0.8464 0.38929 0.50697 0.0
H205 H 0.8958 0.29037 0.48569 0.0
H206 H 0.76851 0.12247 0.4447 0.0
H207 H 0.66594 0.18848 0.44423 0.0
C208 C 0.66521 0.31212 0.47313 0.0
C209 C 0.67372 0.37475 0.49139 0.0
C210 C 0.72254 0.27575 0.46853 0.0
C211 C 0.73934 0.40179 0.50364 0.0
C212 C 0.79615 0.36723 0.49746 0.0
C213 C 0.84565 0.26776 0.47709 0.0
C214 C 0.83956 0.20132 0.46634 0.0
C215 C 0.78827 0.3041 0.48038 0.0
C216 C 0.77433 0.17361 0.45315 0.0
C217 C 0.71593 0.21106 0.45354 0.0
H218 H 0.32767 0.34303 0.55727 0.0
H219 H 0.35775 0.27661 0.43784 0.0
H220 H 0.3123 0.16966 0.44896 0.0
H221 H 0.24424 0.10393 0.48635 0.0
H222 H 0.20275 0.17475 0.60154 0.0
H223 H 0.27764 0.26847 0.60049 0.0
C224 C 0.32427 0.30512 0.53369 0.0
C225 C 0.34364 0.31835 0.49613 0.0
C226 C 0.29808 0.24379 0.54028 0.0
C227 C 0.34146 0.26808 0.46655 0.0
C228 C 0.31619 0.20673 0.47307 0.0
C229 C 0.25512 0.13804 0.51237 0.0
C230 C 0.21695 0.13412 0.54327 0.0
C231 C 0.29223 0.19484 0.50916 0.0
C232 C 0.23135 0.17745 0.57721 0.0
C233 C 0.27238 0.23214 0.57587 0.0
H234 H 0.3213 0.74444 0.41845 0.0
H235 H 0.21092 0.64002 0.49607 0.0
H236 H 0.11458 0.71446 0.47717 0.0
H237 H 0.06189 0.8109 0.43899 0.0
H238 H 0.17388 0.91338 0.36142 0.0
H239 H 0.26869 0.83801 0.37974 0.0
C240 C 0.27627 0.73782 0.43132 0.0
C241 C 0.27376 0.68676 0.4588 0.0
C242 C 0.22091 0.78049 0.42017 0.0
C243 C 0.2145 0.67887 0.47483 0.0
C244 C 0.15927 0.72151 0.46408 0.0
C245 C 0.10704 0.81644 0.4261 0.0
C246 C 0.11028 0.8672 0.39846 0.0
C247 C 0.16195 0.77272 0.43685 0.0
C248 C 0.16926 0.87391 0.38204 0.0
C249 C 0.22387 0.83112 0.39274 0.0
H250 H 0.92726 0.07203 0.15055 0.0
H251 H 0.14709 0.05796 0.16973 0.0
H252 H 0.15533 0.04445 0.24383 0.0
H253 H 0.09939 0.0218 0.30091 0.0
H254 H 0.87978 0.02881 0.28199 0.0
H255 H 0.87185 0.0611 0.20981 0.0
C256 C 0.9771 0.06746 0.17105 0.0
C257 C 0.03647 0.06505 0.15464 0.0
C258 C 0.98128 0.05766 0.21342 0.0
C259 C 0.10063 0.05916 0.18158 0.0
C260 C 0.10538 0.05127 0.22389 0.0
C261 C 0.04985 0.03096 0.28095 0.0
C262 C 0.99009 0.02165 0.29598 0.0
C263 C 0.04592 0.04789 0.23975 0.0
C264 C 0.92623 0.03516 0.2706 0.0
C265 C 0.92183 0.05331 0.22948 0.0
H266 H 0.00827 0.08331 0.82651 0.0
H267 H 0.96344 0.88229 0.84723 0.0
H268 H 0.96483 0.85488 0.77559 0.0
H269 H 0.97654 0.88757 0.70702 0.0
H270 H 0.01147 0.08961 0.68371 0.0
H271 H 0.0192 0.11638 0.75684 0.0
C272 C -0.00127 0.03357 0.8153 0.0
C273 C 0.98534 0.98511 0.84213 0.0
C274 C -0.00109 0.01803 0.77381 0.0
C275 C 0.97313 0.9208 0.82716 0.0
C276 C 0.97434 0.90487 0.78624 0.0
C277 C 0.98549 0.93759 0.71782 0.0
C278 C -0.00699 0.98644 0.68984 0.0
C279 C 0.9868 0.95311 0.75932 0.0
C280 C 0.00635 0.05075 0.70462 0.0
C281 C 0.0099 0.0663 0.74635 0.0
H282 H 0.57396 0.52424 0.6738 0.0
H283 H 0.35374 0.51623 0.63867 0.0
H284 H 0.34699 0.50479 0.71122 0.0
H285 H 0.4046 0.48859 0.78472 0.0
H286 H 0.62468 0.49703 0.81868 0.0
H287 H 0.63049 0.51773 0.74699 0.0
C288 C 0.52445 0.52032 0.682 0.0
C289 C 0.4646 0.5204 0.65074 0.0
C290 C 0.52087 0.51396 0.72378 0.0
C291 C 0.40078 0.51618 0.66206 0.0
C292 C 0.39681 0.50952 0.7036 0.0
C293 C 0.45351 0.4963 0.77635 0.0
C294 C 0.51411 0.49089 0.8067 0.0
C295 C 0.45658 0.50734 0.73474 0.0
C296 C 0.5774 0.5006 0.79564 0.0
C297 C 0.5808 0.51217 0.75466 0.0
H298 H 0.39333 0.48157 0.31769 0.0
H299 H 0.57589 0.59892 0.35094 0.0
H300 H 0.59867 0.58162 0.28145 0.0
H301 H 0.57127 0.52415 0.21302 0.0
H302 H 0.3825 0.41447 0.17992 0.0
H303 H 0.35837 0.43715 0.24744 0.0
C304 C 0.43758 0.50415 0.30949 0.0
C305 C 0.48308 0.54097 0.33936 0.0
C306 C 0.45006 0.49425 0.26967 0.0
C307 C 0.53986 0.57057 0.32831 0.0
C308 C 0.5532 0.56021 0.2887 0.0
C309 C 0.52454 0.50583 0.2204 0.0
C310 C 0.48054 0.4651 0.19172 0.0
C311 C 0.50942 0.52076 0.25935 0.0
C312 C 0.41946 0.44301 0.20183 0.0
C313 C 0.40486 0.45667 0.2404 0.0
loop_
_geom_bond_atom_site_label_1
_geom_bond_atom_site_label_2
_geom_bond_distance
_geom_bond_site_symmetry_2
_ccdc_geom_bond_type
O0 Zn1 1.953 . S
O0 C16 1.225 1_565 S
Zn1 O0 1.953 . S
Zn1 O2 1.949 1_565 S
Zn1 O8 1.919 . S
Zn1 O13 1.924 1_565 S
O2 Zn1 1.949 1_545 S
O2 Zn3 1.923 1_444 S
O2 Zn4 1.950 1_455 S
O2 Zn5 1.945 1_554 S
Zn3 O2 1.923 1_666 S
Zn3 O6 1.933 . S
Zn3 O9 1.941 1_655 S
Zn3 O10 1.965 . S
Zn4 O2 1.950 1_655 S
Zn4 O11 1.938 1_545 S
Zn4 O12 1.906 . S
Zn4 O22 1.953 . S
Zn5 O2 1.945 1_556 S
Zn5 O7 1.932 . S
Zn5 O14 1.977 1_455 S
Zn5 O15 1.910 . S
O6 Zn3 1.933 . S
O6 C17 1.226 1_565 S
O7 Zn5 1.932 . S
O7 C17 1.307 1_455 S
O8 Zn1 1.919 . S
O8 C19 1.246 1_554 S
O9 Zn3 1.941 1_455 S
O9 C19 1.286 . S
O10 Zn3 1.965 . S
O10 C18 1.303 1_556 S
O11 Zn4 1.938 1_565 S
O11 C18 1.247 . S
O12 Zn4 1.906 . S
O12 C20 1.304 1_554 S
O13 Zn1 1.924 1_545 S
O13 C21 1.311 . S
O14 Zn5 1.977 1_655 S
O14 C20 1.272 . S
O15 Zn5 1.910 . S
O15 C21 1.231 1_556 S
C16 O0 1.225 1_545 S
C16 O22 1.298 1_455 S
C17 O6 1.226 1_545 S
C17 O7 1.307 1_655 S
C18 O10 1.303 1_554 S
C18 O11 1.247 . S
C19 O8 1.246 1_556 S
C19 O9 1.286 . S
C20 O12 1.304 1_556 S
C20 O14 1.272 . S
C21 O13 1.311 . S
C21 O15 1.231 1_554 S
O22 Zn4 1.953 . S
O22 C16 1.298 1_655 S
O23 Zn24 1.953 . S
O23 C39 1.225 . S
Zn24 O23 1.953 . S
Zn24 O25 1.949 . S
Zn24 O31 1.919 . S
Zn24 O36 1.924 . S
O25 Zn24 1.949 . S
O25 Zn26 1.923 . S
O25 Zn27 1.950 . S
O25 Zn28 1.945 . S
Zn26 O25 1.923 . S
Zn26 O29 1.933 . S
Zn26 O32 1.941 . S
Zn26 O33 1.965 . S
Zn27 O25 1.950 . S
Zn27 O34 1.938 . S
Zn27 O35 1.906 . S
Zn27 O45 1.953 . S
Zn28 O25 1.945 . S
Zn28 O30 1.932 . S
Zn28 O37 1.977 . S
Zn28 O38 1.910 . S
O29 Zn26 1.933 . S
O29 C40 1.226 . S
O30 Zn28 1.932 . S
O30 C40 1.307 . S
O31 Zn24 1.919 . S
O31 C42 1.253 . S
O32 Zn26 1.941 . S
O32 C42 1.283 . S
O33 Zn26 1.965 . S
O33 C41 1.303 . S
O34 Zn27 1.938 . S
O34 C41 1.247 . S
O35 Zn27 1.906 . S
O35 C43 1.304 . S
O36 Zn24 1.924 . S
O36 C44 1.311 . S
O37 Zn28 1.977 . S
O37 C43 1.272 . S
O38 Zn28 1.910 . S
O38 C44 1.231 . S
C39 O23 1.225 . S
C39 O45 1.298 . S
C40 O29 1.226 . S
C40 O30 1.307 . S
C41 O33 1.303 . S
C41 O34 1.247 . S
C42 O31 1.253 . S
C42 O32 1.283 . S
C43 O35 1.304 . S
C43 O37 1.272 . S
C44 O36 1.311 . S
C44 O38 1.231 . S
O45 Zn27 1.953 . S
O45 C39 1.298 . S
H46 C47 0.949 1_655 S
C47 H46 0.949 1_455 S
C47 C48 1.395 1_545 S
C47 C49 1.391 . S
C48 C47 1.395 1_565 S
C48 C51 1.390 . S
C49 C47 1.391 . S
C49 C53 1.387 1_545 S
C49 C54 1.491 . S
H50 C51 0.950 . S
C51 C48 1.390 . S
C51 H50 0.950 . S
C51 C52 1.378 . S
C52 C51 1.378 . S
C52 C53 1.409 . S
C53 C49 1.387 1_565 S
C53 C52 1.409 . S
C53 H55 0.951 . S
C54 C49 1.491 . S
C54 C56 1.382 1_455 S
C54 C58 1.404 . S
H55 C53 0.951 . S
C56 C54 1.382 1_655 S
C56 C57 1.390 . S
C56 H61 0.949 . S
C57 C56 1.390 . S
C57 C62 1.399 . S
C58 C54 1.404 . S
C58 H59 0.950 . S
C58 C60 1.375 . S
H59 C58 0.950 . S
C60 C58 1.375 . S
C60 C62 1.382 1_455 S
C60 H64 0.950 . S
H61 C56 0.949 . S
C62 C57 1.399 . S
C62 C60 1.382 1_655 S
C62 H63 0.952 . S
H63 C62 0.952 . S
H64 C60 0.950 . S
H65 C66 0.949 . S
C66 H65 0.949 . S
C66 C67 1.395 1_445 S
C66 C68 1.391 1_455 S
C67 C66 1.395 1_665 S
C67 C70 1.390 . S
C68 C66 1.391 1_655 S
C68 C72 1.387 1_545 S
C68 C73 1.491 1_655 S
H69 C70 0.950 . S
C70 C67 1.390 . S
C70 H69 0.950 . S
C70 C71 1.378 . S
C71 C70 1.378 . S
C71 C72 1.409 . S
C72 C68 1.387 1_565 S
C72 C71 1.409 . S
C72 H74 0.951 . S
C73 C68 1.491 1_455 S
C73 C75 1.382 . S
C73 C77 1.404 1_455 S
H74 C72 0.951 . S
C75 C73 1.382 . S
C75 C76 1.390 . S
C75 H80 0.949 . S
C76 C75 1.390 . S
C76 C81 1.399 . S
C77 C73 1.404 1_655 S
C77 H78 0.950 . S
C77 C79 1.375 . S
H78 C77 0.950 . S
C79 C77 1.375 . S
C79 C81 1.382 1_655 S
C79 H83 0.950 . S
H80 C75 0.949 . S
C81 C76 1.399 . S
C81 C79 1.382 1_455 S
C81 H82 0.952 . S
H82 C81 0.952 . S
H83 C79 0.950 . S
H84 C85 0.949 . S
C85 H84 0.949 . S
C85 C86 1.395 . S
C85 C87 1.391 . S
C86 C85 1.395 . S
C86 C89 1.390 . S
C87 C85 1.391 . S
C87 C91 1.387 . S
C87 C92 1.491 . S
H88 C89 0.950 . S
C89 C86 1.390 . S
C89 H88 0.950 . S
C89 C90 1.378 . S
C90 C89 1.378 . S
C90 C91 1.409 . S
C91 C87 1.387 . S
C91 C90 1.409 . S
C91 H93 0.951 . S
C92 C87 1.491 . S
C92 C94 1.382 . S
C92 C96 1.404 . S
H93 C91 0.951 . S
C94 C92 1.382 . S
C94 C95 1.390 . S
C94 H99 0.949 . S
C95 C94 1.390 . S
C95 C100 1.399 1_556 S
C96 C92 1.404 . S
C96 H97 0.950 1_556 S
C96 C98 1.375 1_556 S
H97 C96 0.950 1_554 S
C98 C96 1.375 1_554 S
C98 C100 1.382 . S
C98 H102 0.950 . S
H99 C94 0.949 . S
C100 C95 1.399 1_554 S
C100 C98 1.382 . S
C100 H101 0.952 . S
H101 C100 0.952 . S
H102 C98 0.950 . S
H103 C104 0.949 . S
C104 H103 0.949 . S
C104 C105 1.395 . S
C104 C106 1.391 . S
C105 C104 1.395 . S
C105 C108 1.390 . S
C106 C104 1.391 . S
C106 C110 1.387 . S
C106 C111 1.491 . S
H107 C108 0.950 . S
C108 C105 1.390 . S
C108 H107 0.950 . S
C108 C109 1.378 . S
C109 C108 1.378 . S
C109 C110 1.409 . S
C110 C106 1.387 . S
C110 C109 1.409 . S
C110 H112 0.951 . S
C111 C106 1.491 . S
C111 C113 1.382 . S
C111 C115 1.404 . S
H112 C110 0.951 . S
C113 C111 1.382 . S
C113 C114 1.390 . S
C113 H118 0.949 . S
C114 C113 1.390 . S
C114 C119 1.389 1_554 S
C115 C111 1.404 . S
C115 H116 0.950 . S
C115 C117 1.375 1_554 S
H116 C115 0.950 . S
C117 C115 1.375 1_556 S
C117 C119 1.383 . S
C117 H121 0.950 . S
H118 C113 0.949 . S
C119 C114 1.389 1_556 S
C119 C117 1.383 . S
C119 H120 0.961 . S
H120 C119 0.961 . S
H121 C117 0.950 . S
H122 C128 0.930 . S
H123 C131 0.930 . S
H124 C132 0.930 . S
H125 C133 0.930 . S
H126 C136 0.930 . S
H127 C137 0.930 . S
C128 H122 0.930 . S
C128 C129 1.355 . S
C128 C130 1.415 . S
C129 C128 1.355 . S
C129 C131 1.419 . S
C130 C128 1.415 . S
C130 C135 1.425 . S
C130 C137 1.409 . S
C131 H123 0.930 . S
C131 C129 1.419 . S
C131 C132 1.362 . S
C132 H124 0.930 . S
C132 C131 1.362 . S
C132 C135 1.409 . S
C133 H125 0.930 . S
C133 C134 1.355 . S
C133 C135 1.415 . S
C134 C133 1.355 . S
C134 C136 1.419 . S
C135 C130 1.425 . S
C135 C132 1.409 . S
C135 C133 1.415 . S
C136 H126 0.930 . S
C136 C134 1.419 . S
C136 C137 1.362 . S
C137 H127 0.930 . S
C137 C130 1.409 . S
C137 C136 1.362 . S
H138 C144 0.930 . S
H139 C147 0.930 . S
H140 C148 0.930 . S
H141 C149 0.930 . S
H142 C152 0.930 . S
H143 C153 0.930 . S
C144 H138 0.930 . S
C144 C145 1.355 . S
C144 C146 1.415 . S
C145 C144 1.355 . S
C145 C147 1.419 . S
C146 C144 1.415 . S
C146 C151 1.425 . S
C146 C153 1.409 . S
C147 H139 0.930 . S
C147 C145 1.419 . S
C147 C148 1.362 . S
C148 H140 0.930 . S
C148 C147 1.362 . S
C148 C151 1.409 . S
C149 H141 0.930 . S
C149 C150 1.355 . S
C149 C151 1.415 . S
C150 C149 1.355 . S
C150 C152 1.419 . S
C151 C146 1.425 . S
C151 C148 1.409 . S
C151 C149 1.415 . S
C152 H142 0.930 . S
C152 C150 1.419 . S
C152 C153 1.362 . S
C153 H143 0.930 . S
C153 C146 1.409 . S
C153 C152 1.362 . S
H154 C160 0.930 1_556 S
H155 C163 0.930 . S
H156 C164 0.930 . S
H157 C165 0.930 . S
H158 C168 0.930 . S
H159 C169 0.930 . S
C160 H154 0.930 1_554 S
C160 C161 1.355 . S
C160 C162 1.415 . S
C161 C160 1.355 . S
C161 C163 1.419 . S
C162 C160 1.415 . S
C162 C167 1.425 . S
C162 C169 1.409 . S
C163 H155 0.930 . S
C163 C161 1.419 . S
C163 C164 1.362 . S
C164 H156 0.930 . S
C164 C163 1.362 . S
C164 C167 1.409 . S
C165 H157 0.930 . S
C165 C166 1.355 . S
C165 C167 1.415 . S
C166 C165 1.355 . S
C166 C168 1.419 . S
C167 C162 1.425 . S
C167 C164 1.409 . S
C167 C165 1.415 . S
C168 H158 0.930 . S
C168 C166 1.419 . S
C168 C169 1.362 . S
C169 H159 0.930 . S
C169 C162 1.409 . S
C169 C168 1.362 . S
H170 C176 0.930 . S
H171 C179 0.930 . S
H172 C180 0.930 . S
H173 C181 0.930 . S
H174 C184 0.930 . S
H175 C185 0.930 . S
C176 H170 0.930 . S
C176 C177 1.355 . S
C176 C178 1.415 . S
C177 C176 1.355 . S
C177 C179 1.419 . S
C178 C176 1.415 . S
C178 C183 1.425 . S
C178 C185 1.409 . S
C179 H171 0.930 . S
C179 C177 1.419 . S
C179 C180 1.362 . S
C180 H172 0.930 . S
C180 C179 1.362 . S
C180 C183 1.409 . S
C181 H173 0.930 . S
C181 C182 1.355 . S
C181 C183 1.415 . S
C182 C181 1.355 . S
C182 C184 1.419 . S
C183 C178 1.425 . S
C183 C180 1.409 . S
C183 C181 1.415 . S
C184 H174 0.930 . S
C184 C182 1.419 . S
C184 C185 1.362 . S
C185 H175 0.930 . S
C185 C178 1.409 . S
C185 C184 1.362 . S
H186 C192 0.930 . S
H187 C195 0.930 . S
H188 C196 0.930 . S
H189 C197 0.930 . S
H190 C200 0.930 . S
H191 C201 0.930 . S
C192 H186 0.930 . S
C192 C193 1.355 . S
C192 C194 1.415 . S
C193 C192 1.355 . S
C193 C195 1.419 . S
C194 C192 1.415 . S
C194 C199 1.425 . S
C194 C201 1.409 . S
C195 H187 0.930 . S
C195 C193 1.419 . S
C195 C196 1.362 . S
C196 H188 0.930 . S
C196 C195 1.362 . S
C196 C199 1.409 . S
C197 H189 0.930 . S
C197 C198 1.355 . S
C197 C199 1.415 . S
C198 C197 1.355 . S
C198 C200 1.419 . S
C199 C194 1.425 . S
C199 C196 1.409 . S
C199 C197 1.415 . S
C200 H190 0.930 . S
C200 C198 1.419 . S
C200 C201 1.362 . S
C201 H191 0.930 . S
C201 C194 1.409 . S
C201 C200 1.362 . S
H202 C208 0.930 . S
H203 C211 0.930 . S
H204 C212 0.930 . S
H205 C213 0.930 . S
H206 C216 0.930 . S
H207 C217 0.930 . S
C208 H202 0.930 . S
C208 C209 1.355 . S
C208 C210 1.415 . S
C209 C208 1.355 . S
C209 C211 1.419 . S
C210 C208 1.415 . S
C210 C215 1.425 . S
C210 C217 1.409 . S
C211 H203 0.930 . S
C211 C209 1.419 . S
C211 C212 1.362 . S
C212 H204 0.930 . S
C212 C211 1.362 . S
C212 C215 1.409 . S
C213 H205 0.930 . S
C213 C214 1.355 . S
C213 C215 1.415 . S
C214 C213 1.355 . S
C214 C216 1.419 . S
C215 C210 1.425 . S
C215 C212 1.409 . S
C215 C213 1.415 . S
C216 H206 0.930 . S
C216 C214 1.419 . S
C216 C217 1.362 . S
C217 H207 0.930 . S
C217 C210 1.409 . S
C217 C216 1.362 . S
H218 C224 0.930 . S
H219 C227 0.930 . S
H220 C228 0.930 . S
H221 C229 0.930 . S
H222 C232 0.930 . S
H223 C233 0.930 . S
C224 H218 0.930 . S
C224 C225 1.355 . S
C224 C226 1.415 . S
C225 C224 1.355 . S
C225 C227 1.419 . S
C226 C224 1.415 . S
C226 C231 1.425 . S
C226 C233 1.409 . S
C227 H219 0.930 . S
C227 C225 1.419 . S
C227 C228 1.362 . S
C228 H220 0.930 . S
C228 C227 1.362 . S
C228 C231 1.409 . S
C229 H221 0.930 . S
C229 C230 1.355 . S
C229 C231 1.415 . S
C230 C229 1.355 . S
C230 C232 1.419 . S
C231 C226 1.425 . S
C231 C228 1.409 . S
C231 C229 1.415 . S
C232 H222 0.930 . S
C232 C230 1.419 . S
C232 C233 1.362 . S
C233 H223 0.930 . S
C233 C226 1.409 . S
C233 C232 1.362 . S
H234 C240 0.930 . S
H235 C243 0.930 . S
H236 C244 0.930 . S
H237 C245 0.930 . S
H238 C248 0.930 . S
H239 C249 0.930 . S
C240 H234 0.930 . S
C240 C241 1.355 . S
C240 C242 1.415 . S
C241 C240 1.355 . S
C241 C243 1.419 . S
C242 C240 1.415 . S
C242 C247 1.425 . S
C242 C249 1.409 . S
C243 H235 0.930 . S
C243 C241 1.419 . S
C243 C244 1.362 . S
C244 H236 0.930 . S
C244 C243 1.362 . S
C244 C247 1.409 . S
C245 H237 0.930 . S
C245 C246 1.355 . S
C245 C247 1.415 . S
C246 C245 1.355 . S
C246 C248 1.419 . S
C247 C242 1.425 . S
C247 C244 1.409 . S
C247 C245 1.415 . S
C248 H238 0.930 . S
C248 C246 1.419 . S
C248 C249 1.362 . S
C249 H239 0.930 . S
C249 C242 1.409 . S
C249 C248 1.362 . S
H250 C256 0.930 . S
H251 C259 0.930 . S
H252 C260 0.930 . S
H253 C261 0.930 1_655 S
H254 C264 0.930 . S
H255 C265 0.930 . S
C256 H250 0.930 . S
C256 C257 1.355 1_565 S
C256 C258 1.415 . S
C257 C256 1.355 1_545 S
C257 C259 1.419 1_455 S
C258 C256 1.415 . S
C258 C263 1.425 1_565 S
C258 C265 1.409 . S
C259 H251 0.930 . S
C259 C257 1.419 1_655 S
C259 C260 1.362 . S
C260 H252 0.930 . S
C260 C259 1.362 . S
C260 C263 1.409 1_655 S
C261 H253 0.930 1_455 S
C261 C262 1.355 1_545 S
C261 C263 1.415 . S
C262 C261 1.355 1_565 S
C262 C264 1.419 . S
C263 C258 1.425 1_545 S
C263 C260 1.409 1_455 S
C263 C261 1.415 . S
C264 H254 0.930 . S
C264 C262 1.419 . S
C264 C265 1.362 . S
C265 H255 0.930 . S
C265 C258 1.409 . S
C265 C264 1.362 . S
H266 C272 0.930 . S
H267 C275 0.930 . S
H268 C276 0.930 . S
H269 C277 0.930 . S
H270 C280 0.930 . S
H271 C281 0.930 . S
C272 H266 0.930 . S
C272 C273 1.355 1_455 S
C272 C274 1.415 . S
C273 C272 1.355 1_655 S
C273 C275 1.419 1_545 S
C274 C272 1.415 . S
C274 C279 1.425 1_445 S
C274 C281 1.409 . S
C275 H267 0.930 . S
C275 C273 1.419 1_565 S
C275 C276 1.362 . S
C276 H268 0.930 . S
C276 C275 1.362 . S
C276 C279 1.409 . S
C277 H269 0.930 . S
C277 C278 1.355 1_565 S
C277 C279 1.415 . S
C278 C277 1.355 1_545 S
C278 C280 1.419 1_655 S
C279 C274 1.425 1_665 S
C279 C276 1.409 . S
C279 C277 1.415 . S
C280 H270 0.930 . S
C280 C278 1.419 1_455 S
C280 C281 1.362 . S
C281 H271 0.930 . S
C281 C274 1.409 . S
C281 C280 1.362 . S
H282 C288 0.930 . S
H283 C291 0.930 . S
H284 C292 0.930 . S
H285 C293 0.930 . S
H286 C296 0.930 . S
H287 C297 0.930 . S
C288 H282 0.930 . S
C288 C289 1.355 . S
C288 C290 1.415 . S
C289 C288 1.355 . S
C289 C291 1.419 . S
C290 C288 1.415 . S
C290 C295 1.425 . S
C290 C297 1.409 . S
C291 H283 0.930 . S
C291 C289 1.419 . S
C291 C292 1.362 . S
C292 H284 0.930 . S
C292 C291 1.362 . S
C292 C295 1.409 . S
C293 H285 0.930 . S
C293 C294 1.355 . S
C293 C295 1.415 . S
C294 C293 1.355 . S
C294 C296 1.419 . S
C295 C290 1.425 . S
C295 C292 1.409 . S
C295 C293 1.415 . S
C296 H286 0.930 . S
C296 C294 1.419 . S
C296 C297 1.362 . S
C297 H287 0.930 . S
C297 C290 1.409 . S
C297 C296 1.362 . S
H298 C304 0.930 . S
H299 C307 0.930 . S
H300 C308 0.930 . S
H301 C309 0.930 . S
H302 C312 0.930 . S
H303 C313 0.930 . S
C304 H298 0.930 . S
C304 C305 1.355 . S
C304 C306 1.415 . S
C305 C304 1.355 . S
C305 C307 1.419 . S
C306 C304 1.415 . S
C306 C311 1.425 . S
C306 C313 1.409 . S
C307 H299 0.930 . S
C307 C305 1.419 . S
C307 C308 1.362 . S
C308 H300 0.930 . S
C308 C307 1.362 . S
C308 C311 1.409 . S
C309 H301 0.930 . S
C309 C310 1.355 . S
C309 C311 1.415 . S
C310 C309 1.355 . S
C310 C312 1.419 . S
C311 C306 1.425 . S
C311 C308 1.409 . S
C311 C309 1.415 . S
C312 H302 0.930 . S
C312 C310 1.419 . S
C312 C313 1.362 . S
C313 H303 0.930 . S
C313 C306 1.409 . S
C313 C312 1.362 . S
C134 C109 1.577 . S
C129 C21 1.573 . S
C145 C19 1.417 . S
C150 C95 1.326 . S
C161 C18 1.355 . S
C166 C114 1.373 . S
C177 C20 1.536 . S
C182 C90 1.568 . S
C193 C44 1.565 . S
C198 C71 1.578 . S
C209 C42 1.408 . S
C214 C57 1.405 . S
C230 C76 1.309 . S
C225 C41 1.400 . S
C246 C52 1.563 . S
C241 C43 1.563 . S
C257 C16 1.553 . S
C262 C48 1.530 . S
C273 C17 1.517 . S
C278 C67 1.523 1_545 S
C294 C86 1.540 . S
C289 C39 1.549 . S
C305 C40 1.515 . S
C310 C105 1.501 . S
