# Generated by pormake.
# Topology pyr, (3,6)-cn, num edge types: 1
# Building blocks:
#     Node 0, Type 0, BuildingBlock: ESEHIV_clean_linker_0, # of connection points: 3
#     Node 1, Type 0, BuildingBlock: ESEHIV_clean_linker_0, # of connection points: 3
#     Node 2, Type 0, BuildingBlock: ESEHIV_clean_linker_0, # of connection points: 3
#     Node 3, Type 0, BuildingBlock: ESEHIV_clean_linker_0, # of connection points: 3
#     Node 4, Type 0, BuildingBlock: ESEHIV_clean_linker_0, # of connection points: 3
#     Node 5, Type 0, BuildingBlock: ESEHIV_clean_linker_0, # of connection points: 3
#     Node 6, Type 0, BuildingBlock: ESEHIV_clean_linker_0, # of connection points: 3
#     Node 7, Type 0, BuildingBlock: ESEHIV_clean_linker_0, # of connection points: 3
#     Node 8, Type 1, BuildingBlock: PAMTOO_clean_sbu_0, # of connection points: 6
#     Node 9, Type 1, BuildingBlock: PAMTOO_clean_sbu_0, # of connection points: 6
#     Node 10, Type 1, BuildingBlock: PAMTOO_clean_sbu_0, # of connection points: 6
#     Node 11, Type 1, BuildingBlock: PAMTOO_clean_sbu_0, # of connection points: 6
#     Edge 12, Type (0, 1), BuildingBlock: XIVTED_clean_linker_0, # of connection points: 2
#     Edge 13, Type (0, 1), BuildingBlock: XIVTED_clean_linker_0, # of connection points: 2
#     Edge 14, Type (0, 1), BuildingBlock: XIVTED_clean_linker_0, # of connection points: 2
#     Edge 15, Type (0, 1), BuildingBlock: XIVTED_clean_linker_0, # of connection points: 2
#     Edge 16, Type (0, 1), BuildingBlock: XIVTED_clean_linker_0, # of connection points: 2
#     Edge 17, Type (0, 1), BuildingBlock: XIVTED_clean_linker_0, # of connection points: 2
#     Edge 18, Type (0, 1), BuildingBlock: XIVTED_clean_linker_0, # of connection points: 2
#     Edge 19, Type (0, 1), BuildingBlock: XIVTED_clean_linker_0, # of connection points: 2
#     Edge 20, Type (0, 1), BuildingBlock: XIVTED_clean_linker_0, # of connection points: 2
#     Edge 21, Type (0, 1), BuildingBlock: XIVTED_clean_linker_0, # of connection points: 2
#     Edge 22, Type (0, 1), BuildingBlock: XIVTED_clean_linker_0, # of connection points: 2
#     Edge 23, Type (0, 1), BuildingBlock: XIVTED_clean_linker_0, # of connection points: 2
#     Edge 24, Type (0, 1), BuildingBlock: XIVTED_clean_linker_0, # of connection points: 2
#     Edge 25, Type (0, 1), BuildingBlock: XIVTED_clean_linker_0, # of connection points: 2
#     Edge 26, Type (0, 1), BuildingBlock: XIVTED_clean_linker_0, # of connection points: 2
#     Edge 27, Type (0, 1), BuildingBlock: XIVTED_clean_linker_0, # of connection points: 2
#     Edge 28, Type (0, 1), BuildingBlock: XIVTED_clean_linker_0, # of connection points: 2
#     Edge 29, Type (0, 1), BuildingBlock: XIVTED_clean_linker_0, # of connection points: 2
#     Edge 30, Type (0, 1), BuildingBlock: XIVTED_clean_linker_0, # of connection points: 2
#     Edge 31, Type (0, 1), BuildingBlock: XIVTED_clean_linker_0, # of connection points: 2
#     Edge 32, Type (0, 1), BuildingBlock: XIVTED_clean_linker_0, # of connection points: 2
#     Edge 33, Type (0, 1), BuildingBlock: XIVTED_clean_linker_0, # of connection points: 2
#     Edge 34, Type (0, 1), BuildingBlock: XIVTED_clean_linker_0, # of connection points: 2
#     Edge 35, Type (0, 1), BuildingBlock: XIVTED_clean_linker_0, # of connection points: 2
# Relax obj value: 0.128
# Max RMSD: 0.175
# Mean RMSD: 0.072
data_MOF--net-pyr--node1-PAMTOO_clean_sbu_0--node2-ESEHIV_clean_linker_0--edge1-XIVTED_clean_linker_0
_symmetry_space_group_name_H-M    P1
_symmetry_Int_Tables_number       1
_symmetry_cell_setting            triclinic
loop_
_symmetry_equiv_pos_as_xyz
'x, y, z'
_cell_length_a     35.969834
_cell_length_b     37.510695
_cell_length_c     35.248716
_cell_angle_alpha  90.115658
_cell_angle_beta   90.09323
_cell_angle_gamma 103.83327
loop_
_atom_site_label
_atom_site_type_symbol
_atom_site_fract_x
_atom_site_fract_y
_atom_site_fract_z
_atom_type_partial_charge
H0 H 0.31 0.33221 0.28205 0.0
H1 H 0.3746 0.25047 0.29524 0.0
H2 H 0.35467 0.28909 0.18405 0.0
C3 C 0.32704 0.31484 0.26999 0.0
C4 C 0.33118 0.31385 0.23046 0.0
C5 C 0.34076 0.29072 0.2936 0.0
C6 C 0.36336 0.26884 0.27741 0.0
C7 C 0.36933 0.2684 0.23796 0.0
C8 C 0.35261 0.29079 0.21463 0.0
H9 H 0.11565 0.79786 0.79983 0.0
H10 H 0.17934 0.71434 0.79359 0.0
H11 H 0.13773 0.75427 0.69197 0.0
C12 C 0.12612 0.77758 0.78389 0.0
C13 C 0.12173 0.77658 0.74427 0.0
C14 C 0.14775 0.7559 0.80213 0.0
C15 C 0.16263 0.73125 0.78011 0.0
C16 C 0.1604 0.7315 0.74038 0.0
C17 C 0.1392 0.75366 0.72268 0.0
H18 H 0.67464 0.33209 0.93529 0.0
H19 H 0.68184 0.42356 0.86059 0.0
H20 H 0.58961 0.32643 0.84837 0.0
C21 C 0.66352 0.34436 0.91131 0.0
C22 C 0.63055 0.32443 0.89259 0.0
C23 C 0.6824 0.37988 0.89994 0.0
C24 C 0.66684 0.39649 0.87003 0.0
C25 C 0.63319 0.37761 0.85105 0.0
C26 C 0.61523 0.34147 0.86273 0.0
H27 H 0.8177 0.71564 0.43907 0.0
H28 H 0.90605 0.72136 0.35591 0.0
H29 H 0.81272 0.62471 0.3637 0.0
C30 C 0.82963 0.7034 0.41556 0.0
C31 C 0.81111 0.668 0.40332 0.0
C32 C 0.86347 0.72318 0.39843 0.0
C33 C 0.87977 0.70636 0.36905 0.0
C34 C 0.86193 0.67047 0.35633 0.0
C35 C 0.82756 0.65162 0.37388 0.0
H36 H 0.61351 0.79401 0.85517 0.0
H37 H 0.67521 0.70908 0.85822 0.0
H38 H 0.62488 0.73949 0.95994 0.0
C39 C 0.62216 0.77207 0.87004 0.0
C40 C 0.61423 0.76739 0.90899 0.0
C41 C 0.64492 0.75171 0.85151 0.0
C42 C 0.65753 0.72481 0.87213 0.0
C43 C 0.65162 0.72102 0.91142 0.0
C44 C 0.62925 0.74193 0.92955 0.0
H45 H 0.80853 0.31136 0.34639 0.0
H46 H 0.89855 0.25467 0.35557 0.0
H47 H 0.86174 0.30439 0.45422 0.0
C48 C 0.83114 0.30411 0.36276 0.0
C49 C 0.83399 0.31241 0.40169 0.0
C50 C 0.85401 0.28298 0.34584 0.0
C51 C 0.88132 0.27155 0.36823 0.0
C52 C 0.88353 0.278 0.40753 0.0
C53 C 0.86035 0.29928 0.42392 0.0
H54 H 0.31928 0.71596 0.20433 0.0
H55 H 0.31038 0.62739 0.28315 0.0
H56 H 0.40817 0.71993 0.28717 0.0
C57 C 0.331 0.7037 0.22787 0.0
C58 C 0.36632 0.72223 0.24359 0.0
C59 C 0.31059 0.66952 0.24155 0.0
C60 C 0.32607 0.65356 0.27199 0.0
C61 C 0.36111 0.67161 0.289 0.0
C62 C 0.38091 0.70621 0.27479 0.0
H63 H 0.08885 0.33153 0.79551 0.0
H64 H 0.16919 0.33306 0.7053 0.0
H65 H 0.18812 0.42208 0.78559 0.0
C66 C 0.11528 0.34472 0.78137 0.0
C67 C 0.1369 0.37909 0.79443 0.0
C68 C 0.12664 0.32823 0.7489 0.0
C69 C 0.16057 0.3458 0.73034 0.0
C70 C 0.18331 0.37944 0.74324 0.0
C71 C 0.1709 0.39617 0.77515 0.0
Dy72 Dy 0.03752 0.03281 0.55471 0.0
Dy73 Dy 0.95529 1.01492 0.60061 0.0
C74 C 0.02265 0.08563 0.62121 0.0
O75 O 0.0443 1.00327 0.60818 0.0
O76 O 0.98295 0.96984 0.61603 0.0
O77 O 0.09899 0.04489 0.5597 0.0
O78 O 0.07211 0.03722 0.50412 0.0
O79 O 0.94498 0.97994 0.54796 0.0
O80 O 0.00662 0.97698 0.53487 0.0
O81 O 0.9571 0.06606 0.5686 0.0
O82 O 0.00146 0.06376 0.52236 0.0
O83 O 0.89446 1.01056 0.59989 0.0
O84 O 0.92281 1.0017 0.65224 0.0
C85 C 0.01978 0.97445 0.62157 0.0
O86 O 0.03793 0.08334 0.5878 0.0
O87 O -0.00417 0.05845 0.63496 0.0
C88 C 0.13236 0.08017 0.51008 0.0
C89 C 0.18776 0.14254 0.48586 0.0
C90 C 0.19767 0.11745 0.51126 0.0
C91 C 0.17025 0.08651 0.5231 0.0
C92 C 0.12207 0.10553 0.48542 0.0
C93 C 0.14954 0.13629 0.47328 0.0
C94 C 0.10416 0.04732 0.52313 0.0
C95 C 0.96951 0.96437 0.53076 0.0
C96 C 0.97392 0.07746 0.5364 0.0
C97 C 0.85911 0.96854 0.64334 0.0
C98 C 0.80057 0.90699 0.66267 0.0
C99 C 0.83133 0.90298 0.63974 0.0
C100 C 0.86043 0.93358 0.63014 0.0
C101 C 0.828 0.97287 0.6651 0.0
C102 C 0.79896 0.94239 0.6747 0.0
C103 C 0.89022 1.00066 0.63537 0.0
H104 H 0.22665 0.12161 0.5219 0.0
H105 H 0.17867 0.06742 0.54244 0.0
H106 H 0.09294 0.10147 0.47518 0.0
H107 H 0.14094 0.15458 0.45316 0.0
H108 H 0.83325 0.87614 0.6298 0.0
H109 H 0.88426 0.92992 0.61303 0.0
H110 H 0.82663 0.99976 0.67542 0.0
H111 H 0.77611 0.94643 0.69296 0.0
Dy112 Dy 0.4533 1.0159 1.04435 0.0
Dy113 Dy 0.53668 0.03144 0.0888 0.0
C114 C 0.46773 0.9647 0.11404 0.0
O115 O 0.46069 0.06928 0.07445 0.0
O116 O 0.5003 0.06059 0.12268 0.0
O117 O 0.39324 1.01481 1.04789 0.0
O118 O 0.4178 1.00298 0.99442 0.0
O119 O 0.54011 0.08056 1.05213 0.0
O120 O 0.49398 0.0563 1.00768 0.0
O121 O 0.54063 0.99726 1.0379 0.0
O122 O 0.47768 0.96873 1.0279 0.0
O123 O 0.59778 0.03913 0.08369 0.0
O124 O 0.57188 0.03878 0.13927 0.0
C125 C 0.476 0.07784 0.10796 0.0
O126 O 0.44346 0.98032 0.0964 0.0
O127 O 0.50494 0.97687 0.11059 0.0
C128 C 0.35452 0.97148 1.00762 0.0
C129 C 0.29494 0.90918 0.99288 0.0
C130 C 0.32594 0.90655 1.01626 0.0
C131 C 0.35557 0.93748 1.02347 0.0
C132 C 0.32311 0.97461 0.98558 0.0
C133 C 0.29355 0.94373 0.97823 0.0
C134 C 0.38651 1.00354 1.01294 0.0
C135 C 0.52365 0.08207 1.01903 0.0
C136 C 0.5142 0.97 1.0241 0.0
C137 C 0.63498 0.07573 0.1306 0.0
C138 C 0.69706 0.13285 0.15356 0.0
C139 C 0.65936 0.1334 0.16372 0.0
C140 C 0.62854 0.10511 0.15225 0.0
C141 C 0.67233 0.07584 0.11923 0.0
C142 C 0.70308 0.10419 0.13045 0.0
C143 C 0.60368 0.04431 0.11995 0.0
H144 H 0.32775 0.88045 1.02822 0.0
H145 H 0.37971 0.93475 1.04068 0.0
H146 H 0.32195 1.00073 0.97318 0.0
H147 H 0.27055 0.94669 0.95955 0.0
H148 H 0.65376 0.15483 0.18189 0.0
H149 H 0.59988 0.1058 0.16107 0.0
H150 H 0.67781 0.05358 0.10217 0.0
H151 H 0.73167 0.10323 0.12168 0.0
Dy152 Dy 0.4935 0.48441 0.545 0.0
Dy153 Dy 0.49793 0.56049 0.5932 0.0
C154 C 0.53156 0.4963 0.62845 0.0
O155 O 0.43348 0.47769 0.56654 0.0
O156 O 0.44705 0.51975 0.61522 0.0
O157 O 0.48456 0.42538 0.54147 0.0
O158 O 0.50183 0.45883 0.49175 0.0
O159 O 0.45623 0.56105 0.54604 0.0
O160 O 0.47698 0.52365 0.50392 0.0
O161 O 0.54643 0.57354 0.55222 0.0
O162 O 0.55494 0.51553 0.54406 0.0
O163 O 0.50261 0.61902 0.59375 0.0
O164 O 0.49603 0.58873 0.64638 0.0
C165 C 0.42378 0.49216 0.59801 0.0
O166 O 0.51037 0.47355 0.60416 0.0
O167 O 0.53689 0.53211 0.6249 0.0
C168 C 0.53094 0.41011 0.50113 0.0
C169 C 0.59904 0.38809 0.48555 0.0
C170 C 0.59296 0.40182 0.52155 0.0
C171 C 0.55934 0.41299 0.52918 0.0
C172 C 0.53636 0.3953 0.46562 0.0
C173 C 0.57014 0.38442 0.45786 0.0
C174 C 0.49818 0.42664 0.5071 0.0
C175 C 0.45892 0.54946 0.51122 0.0
C176 C 0.56707 0.55123 0.54042 0.0
C177 C 0.45848 0.63092 0.6376 0.0
C178 C 0.3895 0.65089 0.65323 0.0
C179 C 0.3892 0.61823 0.63364 0.0
C180 C 0.42335 0.60847 0.62576 0.0
C181 C 0.45918 0.66378 0.65682 0.0
C182 C 0.42482 0.67383 0.66446 0.0
C183 C 0.49367 0.61905 0.62957 0.0
H184 H 0.61486 0.40534 0.54329 0.0
H185 H 0.55612 0.42503 0.5566 0.0
H186 H 0.51499 0.39325 0.4435 0.0
H187 H 0.5739 0.37359 0.42999 0.0
H188 H 0.36253 0.60031 0.62414 0.0
H189 H 0.42233 0.5832 0.61047 0.0
H190 H 0.4861 0.68143 0.66605 0.0
H191 H 0.42579 0.6991 0.67977 0.0
Dy192 Dy -0.00327 0.56089 1.0491 0.0
Dy193 Dy 0.99313 0.4852 0.09716 0.0
C194 C 0.96119 0.55023 0.13324 0.0
O195 O 0.05685 0.56886 1.07034 0.0
O196 O 0.04551 0.52536 0.11771 0.0
O197 O 0.00538 0.61983 1.04479 0.0
O198 O 0.98607 0.58527 0.99598 0.0
O199 O 0.03523 0.4844 1.05072 0.0
O200 O 0.01568 0.52257 1.00851 0.0
O201 O 0.94535 0.472 1.05494 0.0
O202 O 0.93546 0.52953 1.04939 0.0
O203 O 0.98385 0.42615 0.09834 0.0
O204 O -0.00172 0.4576 0.15003 0.0
C205 C 0.06764 0.55392 0.10095 0.0
O206 O 0.98201 0.57263 0.10864 0.0
O207 O 0.95529 0.51435 0.12958 0.0
C208 C 0.95579 0.63282 1.00705 0.0
C209 C 0.88413 0.64936 0.99595 0.0
C210 C 0.89544 0.64092 1.03233 0.0
C211 C 0.93082 0.63243 1.03779 0.0
C212 C 0.94521 0.64268 0.971 0.0
C213 C 0.90964 0.65082 0.96546 0.0
C214 C 0.98969 0.6176 1.01119 0.0
C215 C 0.03385 0.49691 1.01612 0.0
C216 C 0.92398 0.494 1.04418 0.0
C217 C 0.02961 0.41008 0.13929 0.0
C218 C 0.10004 0.39071 0.15017 0.0
C219 C 0.08345 0.38874 0.11391 0.0
C220 C 0.04866 0.39843 0.10848 0.0
C221 C 0.04527 0.41025 0.17581 0.0
C222 C 0.0802 0.4008 0.18118 0.0
C223 C -0.00359 0.42627 0.13309 0.0
H224 H 0.87624 0.63929 1.05626 0.0
H225 H 0.93793 0.62414 1.06578 0.0
H226 H 0.96381 0.64267 0.94686 0.0
H227 H 0.90179 0.65765 0.93718 0.0
H228 H 0.09812 0.38119 0.08946 0.0
H229 H 0.03751 0.39808 0.07989 0.0
H230 H 0.03119 0.41904 0.20002 0.0
H231 H 0.09199 0.40192 0.20958 0.0
H232 H 0.27016 0.29516 0.32065 0.0
H233 H 0.26217 0.14387 0.46693 0.0
H234 H 0.37482 0.26748 0.35689 0.0
H235 H 0.18122 0.21235 0.46918 0.0
H236 H 0.30647 0.19145 0.43153 0.0
H237 H 0.24001 0.27007 0.37873 0.0
C238 C 0.28753 0.28496 0.34108 0.0
C239 C 0.32534 0.2831 0.33291 0.0
C240 C 0.27937 0.19641 0.44055 0.0
C241 C 0.28941 0.25216 0.39949 0.0
C242 C 0.25398 0.16923 0.46085 0.0
C243 C 0.21741 0.17366 0.47034 0.0
C244 C 0.26785 0.2279 0.42906 0.0
C245 C 0.20851 0.20713 0.46134 0.0
C246 C 0.26985 0.27017 0.37443 0.0
C247 C 0.34526 0.26839 0.36094 0.0
N248 N 0.2332 0.23263 0.4405 0.0
N249 N 0.32673 0.25254 0.3925 0.0
H250 H 0.11071 0.78016 0.86257 0.0
H251 H 0.30835 0.84276 0.97339 0.0
H252 H 0.21727 0.7528 0.83294 0.0
H253 H 0.21725 0.89929 0.98192 0.0
H254 H 0.26537 0.79334 0.93895 0.0
H255 H 0.14083 0.80834 0.92124 0.0
C256 C 0.14003 0.77933 0.86848 0.0
C257 C 0.16147 0.76458 0.84191 0.0
C258 C 0.25453 0.81623 0.949 0.0
C259 C 0.19555 0.79583 0.90951 0.0
C260 C 0.27901 0.8444 0.96899 0.0
C261 C 0.26669 0.87571 0.97984 0.0
C262 C 0.21759 0.81947 0.93945 0.0
C263 C 0.22828 0.87616 0.97305 0.0
C264 C 0.15705 0.79522 0.90214 0.0
C265 C 0.19902 0.76336 0.85207 0.0
N266 N 0.20524 0.84879 0.95261 0.0
N267 N 0.21486 0.77917 0.8847 0.0
H268 H 0.60122 0.34542 0.78446 0.0
H269 H 0.56929 0.53153 0.6916 0.0
H270 H 0.63046 0.45015 0.84198 0.0
H271 H 0.53254 0.42436 0.64007 0.0
H272 H 0.59421 0.50327 0.74583 0.0
H273 H 0.57747 0.37461 0.73083 0.0
C274 C 0.60238 0.37449 0.78609 0.0
C275 C 0.61786 0.39516 0.81817 0.0
C276 C 0.58072 0.48599 0.72259 0.0
C277 C 0.59111 0.42918 0.75596 0.0
C278 C 0.56659 0.50215 0.69152 0.0
C279 C 0.54861 0.48039 0.66109 0.0
C280 C 0.57705 0.44778 0.72326 0.0
C281 C 0.54594 0.44238 0.6628 0.0
C282 C 0.58903 0.39127 0.75518 0.0
C283 C 0.61924 0.43302 0.81785 0.0
N284 N 0.5599 0.42741 0.6932 0.0
N285 N 0.60609 0.44874 0.78736 0.0
H286 H 0.8962 0.70295 0.29099 0.0
H287 H 0.92358 0.51557 0.19643 0.0
H288 H 0.8641 0.59784 0.34695 0.0
H289 H 0.96228 0.62259 0.14559 0.0
H290 H 0.89996 0.54442 0.25103 0.0
H291 H 0.91988 0.67352 0.23736 0.0
C292 C 0.89442 0.67375 0.29229 0.0
C293 C 0.87801 0.65302 0.32385 0.0
C294 C 0.91361 0.56155 0.22788 0.0
C295 C 0.90466 0.61875 0.26169 0.0
C296 C 0.927 0.54505 0.1966 0.0
C297 C 0.94509 0.56657 0.16622 0.0
C298 C 0.91817 0.59988 0.22884 0.0
C299 C 0.94872 0.60473 0.16825 0.0
C300 C 0.90771 0.65685 0.26139 0.0
C301 C 0.87596 0.61502 0.32318 0.0
N302 N 0.93546 0.62004 0.19887 0.0
N303 N 0.88902 0.59919 0.29271 0.0
H304 H 0.36856 0.19813 0.26159 0.0
H305 H 0.45929 0.13846 0.0773 0.0
H306 H 0.41577 0.27728 0.17483 0.0
H307 H 0.47018 0.08706 0.18478 0.0
H308 H 0.43802 0.18729 0.11057 0.0
H309 H 0.4005 0.15472 0.23247 0.0
C310 C 0.38614 0.20682 0.23686 0.0
C311 C 0.38962 0.24187 0.22096 0.0
C312 C 0.44543 0.16553 0.12689 0.0
C313 C 0.42509 0.19128 0.18667 0.0
C314 C 0.45734 0.13758 0.10798 0.0
C315 C 0.46622 0.10864 0.12842 0.0
C316 C 0.44146 0.16404 0.16644 0.0
C317 C 0.46359 0.10896 0.16808 0.0
C318 C 0.40418 0.18177 0.22013 0.0
C319 C 0.41175 0.25056 0.18791 0.0
N320 N 0.45082 0.13598 0.18585 0.0
N321 N 0.4283 0.2253 0.17165 0.0
H322 H 0.05288 0.7927 0.75982 0.0
H323 H 0.09352 0.96762 0.62464 0.0
H324 H 0.1513 0.82285 0.68658 0.0
H325 H 0.97946 0.916 0.66316 0.0
H326 H 0.11709 0.9186 0.65417 0.0
H327 H 0.02687 0.8411 0.73066 0.0
C328 C 0.0688 0.80935 0.73743 0.0
C329 C 0.10407 0.80366 0.72531 0.0
C330 C 0.0869 0.91799 0.65619 0.0
C331 C 0.07503 0.85914 0.69251 0.0
C332 C 0.07343 0.94612 0.63956 0.0
C333 C 0.03442 0.94592 0.64141 0.0
C334 C 0.06133 0.88958 0.67522 0.0
C335 C 0.00975 0.91717 0.66098 0.0
C336 C 0.05399 0.83684 0.72083 0.0
C337 C 0.12373 0.82598 0.69633 0.0
N338 N 0.02365 0.89014 0.67727 0.0
N339 N 0.10908 0.85289 0.68112 0.0
H340 H 0.74158 0.3496 0.91968 0.0
H341 H 0.87138 0.53043 1.01676 0.0
H342 H 0.70738 0.45225 0.92321 0.0
H343 H 0.89304 0.42233 1.02484 0.0
H344 H 0.81299 0.50417 0.98038 0.0
H345 H 0.79927 0.37781 0.955 0.0
C346 C 0.74613 0.37814 0.92801 0.0
C347 C 0.71915 0.39838 0.91888 0.0
C348 C 0.83049 0.48625 0.99027 0.0
C349 C 0.78595 0.43123 0.95933 0.0
C350 C 0.86382 0.50118 1.01113 0.0
C351 C 0.88728 0.47857 1.02402 0.0
C352 C 0.82065 0.44848 0.982 0.0
C353 C 0.87599 0.44091 1.01565 0.0
C354 C 0.77925 0.3943 0.94816 0.0
C355 C 0.72734 0.43558 0.9296 0.0
N356 N 0.84368 0.42717 0.99516 0.0
N357 N 0.75993 0.45079 0.94942 0.0
H358 H 0.75121 0.69771 0.42187 0.0
H359 H 0.61955 0.51499 0.5123 0.0
H360 H 0.78608 0.59538 0.42497 0.0
H361 H 0.59876 0.62322 0.52377 0.0
H362 H 0.67861 0.54192 0.47746 0.0
H363 H 0.69276 0.66869 0.45531 0.0
C364 C 0.74664 0.66908 0.42971 0.0
C365 C 0.77399 0.64915 0.42104 0.0
C366 C 0.66112 0.5597 0.48775 0.0
C367 C 0.70641 0.61538 0.45927 0.0
C368 C 0.62743 0.54438 0.50771 0.0
C369 C 0.60405 0.56685 0.5211 0.0
C370 C 0.67134 0.59769 0.48089 0.0
C371 C 0.61574 0.60472 0.51414 0.0
C372 C 0.71311 0.65245 0.44877 0.0
C373 C 0.76581 0.61181 0.43103 0.0
N374 N 0.64836 0.61882 0.49449 0.0
N375 N 0.73282 0.59614 0.44979 0.0
H376 H 0.28523 0.28372 0.1711 0.0
H377 H 0.15959 0.43053 0.19218 0.0
H378 H 0.31997 0.38345 0.23662 0.0
H379 H 0.12837 0.33517 0.11971 0.0
H380 H 0.222 0.4173 0.20283 0.0
H381 H 0.23281 0.30654 0.14416 0.0
C382 C 0.28259 0.31094 0.17893 0.0
C383 C 0.30675 0.33155 0.20652 0.0
C384 C 0.20167 0.39938 0.18436 0.0
C385 C 0.24602 0.35732 0.17671 0.0
C386 C 0.16588 0.40673 0.17857 0.0
C387 C 0.13854 0.38358 0.15551 0.0
C388 C 0.21017 0.36842 0.16724 0.0
C389 C 0.14859 0.35368 0.13778 0.0
C390 C 0.25232 0.32378 0.16386 0.0
C391 C 0.3016 0.36643 0.2159 0.0
N392 N 0.18344 0.34672 0.14435 0.0
N393 N 0.27143 0.37795 0.20153 0.0
H394 H 0.66823 0.27177 0.91189 0.0
H395 H 0.48469 0.11321 0.96596 0.0
H396 H 0.55398 0.28805 0.90007 0.0
H397 H 0.59576 0.12631 1.01802 0.0
H398 H 0.50927 0.17061 0.93054 0.0
H399 H 0.64158 0.21142 0.93888 0.0
C400 C 0.63746 0.26272 0.91496 0.0
C401 C 0.61345 0.28566 0.90447 0.0
C402 C 0.52819 0.16067 0.94958 0.0
C403 C 0.58257 0.21563 0.93485 0.0
C404 C 0.51431 0.12786 0.96958 0.0
C405 C 0.53822 0.11494 0.99502 0.0
C406 C 0.56644 0.18018 0.95447 0.0
C407 C 0.57624 0.13525 0.99889 0.0
C408 C 0.62227 0.2281 0.93029 0.0
C409 C 0.57366 0.27153 0.9079 0.0
N410 N 0.58914 0.16665 0.97878 0.0
N411 N 0.55944 0.23749 0.92303 0.0
H412 H 0.8265 0.7773 0.41398 0.0
H413 H 0.01111 0.92055 0.49662 0.0
H414 H 0.93938 0.75657 0.41353 0.0
H415 H 0.89507 0.93091 0.5116 0.0
H416 H 0.98684 0.86395 0.46054 0.0
H417 H 0.85271 0.83697 0.44326 0.0
C418 C 0.85692 0.78535 0.41994 0.0
C419 C 0.88064 0.76149 0.41173 0.0
C420 C 0.96671 0.87868 0.47158 0.0
C421 C 0.91107 0.8304 0.44531 0.0
C422 C 0.98053 0.91113 0.49218 0.0
C423 C 0.95514 0.93071 0.50735 0.0
C424 C 0.92715 0.86564 0.4658 0.0
C425 C 0.91581 0.91688 0.5006 0.0
C426 C 0.87188 0.81953 0.43667 0.0
C427 C 0.91999 0.77396 0.41932 0.0
N428 N 0.9031 0.88529 0.48042 0.0
N429 N 0.93392 0.80742 0.43595 0.0
H430 H 0.20868 0.76344 0.68408 0.0
H431 H 0.32428 0.6061 0.6817 0.0
H432 H 0.1739 0.66273 0.74751 0.0
H433 H 0.37129 0.71727 0.64459 0.0
H434 H 0.26375 0.62217 0.69592 0.0
H435 H 0.26201 0.74168 0.65781 0.0
C436 C 0.21161 0.73627 0.69165 0.0
C437 C 0.18687 0.71486 0.71812 0.0
C438 C 0.28726 0.64299 0.68454 0.0
C439 C 0.24847 0.69026 0.6889 0.0
C440 C 0.32175 0.63386 0.67635 0.0
C441 C 0.35286 0.66049 0.66211 0.0
C442 C 0.28374 0.67895 0.67817 0.0
C443 C 0.34816 0.69607 0.656 0.0
C444 C 0.24239 0.7241 0.67704 0.0
C445 C 0.19252 0.68017 0.72742 0.0
N446 N 0.31422 0.70428 0.66405 0.0
N447 N 0.22296 0.66906 0.71307 0.0
H448 H 0.6121 0.77955 0.79051 0.0
H449 H 0.81446 0.84252 0.68783 0.0
H450 H 0.717 0.75196 0.82576 0.0
H451 H 0.72284 0.89739 0.67222 0.0
H452 H 0.77109 0.79468 0.72365 0.0
H453 H 0.64549 0.80944 0.73418 0.0
C454 C 0.64179 0.77912 0.78627 0.0
C455 C 0.66162 0.76336 0.81348 0.0
C456 C 0.76027 0.81687 0.71186 0.0
C457 C 0.69958 0.79679 0.74873 0.0
C458 C 0.78496 0.84409 0.69108 0.0
C459 C 0.77249 0.87443 0.67759 0.0
C460 C 0.72289 0.82006 0.71944 0.0
C461 C 0.73391 0.87496 0.683 0.0
C462 C 0.66072 0.79602 0.754 0.0
C463 C 0.69993 0.76304 0.80577 0.0
N464 N 0.71058 0.84849 0.70407 0.0
N465 N 0.71759 0.77976 0.77442 0.0
H466 H 0.82827 0.31449 0.28312 0.0
H467 H 0.7637 0.11989 0.18084 0.0
H468 H 0.85554 0.21402 0.32071 0.0
H469 H 0.70554 0.20706 0.16509 0.0
H470 H 0.81303 0.16166 0.21731 0.0
H471 H 0.79815 0.28204 0.2264 0.0
C472 C 0.82864 0.28593 0.27927 0.0
C473 C 0.84401 0.26697 0.30735 0.0
C474 C 0.7898 0.17184 0.20536 0.0
C475 C 0.81041 0.23014 0.2422 0.0
C476 C 0.7617 0.14807 0.18425 0.0
C477 C 0.73005 0.15982 0.17031 0.0
C478 C 0.7862 0.2076 0.21289 0.0
C479 C 0.72897 0.19663 0.1761 0.0
C480 C 0.81159 0.26755 0.24681 0.0
C481 C 0.84452 0.23021 0.30011 0.0
N482 N 0.75638 0.21914 0.19745 0.0
N483 N 0.82759 0.213 0.26853 0.0
H484 H 0.3669 0.6002 0.29457 0.0
H485 H 0.43523 0.61403 0.51166 0.0
H486 H 0.39069 0.70199 0.35723 0.0
H487 H 0.44644 0.52567 0.43734 0.0
H488 H 0.41237 0.64423 0.45777 0.0
H489 H 0.38984 0.57036 0.34853 0.0
C490 C 0.37693 0.6163 0.31972 0.0
C491 C 0.37678 0.65373 0.32128 0.0
C492 C 0.41978 0.61821 0.45329 0.0
C493 C 0.40294 0.61947 0.38358 0.0
C494 C 0.43263 0.60078 0.48412 0.0
C495 C 0.44282 0.56712 0.4792 0.0
C496 C 0.41651 0.60173 0.4172 0.0
C497 C 0.43902 0.55155 0.44263 0.0
C498 C 0.39017 0.59924 0.3505 0.0
C499 C 0.39052 0.67319 0.3546 0.0
N500 N 0.42607 0.56885 0.4132 0.0
N501 N 0.40273 0.65582 0.38447 0.0
H502 H 0.1338 0.45125 0.80165 0.0
H503 H 0.05955 0.43352 1.01665 0.0
H504 H 0.10941 0.34897 0.86301 0.0
H505 H 0.04894 0.52252 0.94327 0.0
H506 H 0.08574 0.40528 0.96347 0.0
H507 H 0.11067 0.48074 0.85592 0.0
C508 C 0.12383 0.43503 0.82664 0.0
C509 C 0.12356 0.39751 0.82768 0.0
C510 C 0.07776 0.43103 0.95904 0.0
C511 C 0.09704 0.43123 0.8901 0.0
C512 C 0.06296 0.44732 0.98948 0.0
C513 C 0.05187 0.48051 0.98456 0.0
C514 C 0.0821 0.44821 0.92338 0.0
C515 C 0.05691 0.4969 0.94848 0.0
C516 C 0.11041 0.45185 0.85753 0.0
C517 C 0.10986 0.37785 0.86076 0.0
N518 N 0.07171 0.48067 0.91939 0.0
N519 N 0.09735 0.39494 0.89064 0.0
H520 H 0.63831 0.80634 0.97349 0.0
H521 H 0.47196 0.91411 0.97974 0.0
H522 H 0.5487 0.78833 0.8891 0.0
H523 H 0.58444 0.95495 1.02831 0.0
H524 H 0.49358 0.86187 0.95303 0.0
H525 H 0.61175 0.85406 1.00222 0.0
C526 C 0.6126 0.81198 0.96142 0.0
C527 C 0.5956 0.79331 0.92893 0.0
C528 C 0.5134 0.88243 0.96948 0.0
C529 C 0.56539 0.84832 0.96133 0.0
C530 C 0.50114 0.91218 0.98468 0.0
C531 C 0.5265 0.93907 1.00608 0.0
C532 C 0.55096 0.87931 0.97643 0.0
C533 C 0.56395 0.93514 1.01173 0.0
C534 C 0.5977 0.83949 0.97757 0.0
C535 C 0.56272 0.80225 0.91406 0.0
N536 N 0.57493 0.90576 0.99721 0.0
N537 N 0.54862 0.8292 0.93038 0.0
H538 H 0.95364 0.26195 0.39498 0.0
H539 H 0.91544 0.10813 0.55607 0.0
H540 H 0.85947 0.24299 0.47412 0.0
H541 H 0.00763 0.11915 0.47524 0.0
H542 H 0.89879 0.1614 0.52894 0.0
H543 H 0.97867 0.21481 0.42741 0.0
C544 C 0.93856 0.24837 0.41951 0.0
C545 C 0.90413 0.25633 0.43157 0.0
C546 C 0.92269 0.15233 0.51699 0.0
C547 C 0.93259 0.20236 0.46862 0.0
C548 C 0.93223 0.12167 0.53244 0.0
C549 C 0.96297 0.10887 0.51785 0.0
C550 C 0.94382 0.17064 0.48644 0.0
C551 C 0.98352 0.12785 0.4872 0.0
C552 C 0.95284 0.22142 0.43792 0.0
C553 C 0.88622 0.23822 0.46387 0.0
N554 N 0.97351 0.15782 0.47241 0.0
N555 N 0.90043 0.21192 0.48093 0.0
H556 H 0.28224 0.59556 0.22689 0.0
H557 H 0.11089 0.62477 0.09545 0.0
H558 H 0.2541 0.70052 0.21354 0.0
H559 H 0.10957 0.52063 0.14793 0.0
H560 H 0.16986 0.65228 0.13042 0.0
H561 H 0.22389 0.56667 0.1917 0.0
C562 C 0.26378 0.61255 0.21694 0.0
C563 C 0.2736 0.65072 0.22298 0.0
C564 C 0.15667 0.62337 0.13412 0.0
C565 C 0.20733 0.61785 0.18169 0.0
C566 C 0.12322 0.60761 0.11394 0.0
C567 C 0.10518 0.5704 0.11887 0.0
C568 C 0.17256 0.60165 0.15891 0.0
C569 C 0.12235 0.54951 0.14347 0.0
C570 C 0.23062 0.59603 0.19658 0.0
C571 C 0.24852 0.6712 0.20883 0.0
N572 N 0.1551 0.56537 0.16248 0.0
N573 N 0.21688 0.65461 0.18863 0.0
H574 H 0.23504 0.3452 0.71057 0.0
H575 H 0.38452 0.52696 0.64604 0.0
H576 H 0.21502 0.45297 0.72878 0.0
H577 H 0.3779 0.42201 0.59268 0.0
H578 H 0.32588 0.50038 0.68093 0.0
H579 H 0.2911 0.3727 0.67263 0.0
C580 C 0.24216 0.37465 0.70649 0.0
C581 C 0.21958 0.39663 0.72265 0.0
C582 C 0.33706 0.48321 0.6614 0.0
C583 C 0.28484 0.42844 0.67965 0.0
C584 C 0.3706 0.49833 0.64143 0.0
C585 C 0.38625 0.47666 0.61632 0.0
C586 C 0.31925 0.44587 0.65695 0.0
C587 C 0.36679 0.43976 0.61155 0.0
C588 C 0.27437 0.39031 0.68482 0.0
C589 C 0.23145 0.43481 0.71722 0.0
N590 N 0.33456 0.42542 0.63201 0.0
N591 N 0.26323 0.44947 0.69626 0.0
H592 H 0.6667 0.65396 0.89619 0.0
H593 H 0.84595 0.69101 1.03778 0.0
H594 H 0.69231 0.74372 0.97629 0.0
H595 H 0.8336 0.61999 0.93982 0.0
H596 H 0.78231 0.70131 1.02497 0.0
H597 H 0.71948 0.63104 0.92249 0.0
C598 C 0.68287 0.66838 0.91987 0.0
C599 C 0.67544 0.70114 0.93362 0.0
C600 C 0.79345 0.68328 1.00646 0.0
C601 C 0.73601 0.67525 0.96363 0.0
C602 C 0.8297 0.67739 1.01376 0.0
C603 C 0.84524 0.65507 0.98947 0.0
C604 C 0.7725 0.66643 0.97487 0.0
C605 C 0.823 0.63804 0.95877 0.0
C606 C 0.71308 0.65538 0.93475 0.0
C607 C 0.69691 0.71835 0.96477 0.0
N608 N 0.78784 0.64418 0.95226 0.0
N609 N 0.72662 0.70553 0.97833 0.0
H610 H 0.40895 0.78515 0.27913 0.0
H611 H 0.40048 0.91333 0.1036 0.0
H612 H 0.3715 0.74153 0.1683 0.0
H613 H 0.5012 0.93816 0.17462 0.0
H614 H 0.37885 0.85457 0.13652 0.0
H615 H 0.4353 0.84548 0.24966 0.0
C616 C 0.40648 0.78799 0.24873 0.0
C617 C 0.387 0.75811 0.22646 0.0
C618 C 0.40556 0.87305 0.14504 0.0
C619 C 0.41593 0.82721 0.19304 0.0
C620 C 0.41779 0.90669 0.12646 0.0
C621 C 0.45276 0.93068 0.13627 0.0
C622 C 0.42789 0.86361 0.17434 0.0
C623 C 0.47414 0.92037 0.16603 0.0
C624 C 0.4213 0.82248 0.23204 0.0
C625 C 0.3848 0.7638 0.18709 0.0
N626 N 0.46128 0.88767 0.18423 0.0
N627 N 0.39837 0.79762 0.17186 0.0
H628 H 0.09468 0.26338 0.7863 0.0
H629 H 0.05938 0.15156 0.59207 0.0
H630 H 0.10617 0.31268 0.6752 0.0
H631 H 0.01261 0.10116 0.6971 0.0
H632 H 0.07917 0.21009 0.62437 0.0
H633 H 0.06521 0.20355 0.75685 0.0
C634 C 0.09045 0.26174 0.75586 0.0
C635 C 0.10349 0.29296 0.7331 0.0
C636 C 0.06448 0.18639 0.64054 0.0
C637 C 0.07048 0.22485 0.69936 0.0
C638 C 0.05334 0.1527 0.62209 0.0
C639 C 0.03445 0.12114 0.64189 0.0
C640 C 0.05723 0.18896 0.67943 0.0
C641 C 0.02714 0.12476 0.68073 0.0
C642 C 0.07384 0.22761 0.73908 0.0
C643 C 0.09738 0.28925 0.6938 0.0
N644 N 0.03884 0.15805 0.69838 0.0
N645 N 0.08178 0.25591 0.67826 0.0
H646 H 0.80837 0.37088 0.37524 0.0
H647 H 0.64027 0.34994 0.52841 0.0
H648 H 0.79339 0.2934 0.46758 0.0
H649 H 0.64253 0.40697 0.42196 0.0
H650 H 0.70161 0.33609 0.51211 0.0
H651 H 0.75345 0.39232 0.39823 0.0
C652 C 0.7938 0.35868 0.40064 0.0
C653 C 0.80532 0.33006 0.41928 0.0
C654 C 0.68868 0.35169 0.49239 0.0
C655 C 0.74229 0.35441 0.44573 0.0
C656 C 0.65376 0.35965 0.5017 0.0
C657 C 0.63612 0.37932 0.47632 0.0
C658 C 0.70626 0.36385 0.45765 0.0
C659 C 0.65478 0.39117 0.44205 0.0
C660 C 0.7624 0.37087 0.4137 0.0
C661 C 0.78572 0.31567 0.45241 0.0
N662 N 0.68879 0.38326 0.43374 0.0
N663 N 0.75493 0.32776 0.46438 0.0
loop_
_geom_bond_atom_site_label_1
_geom_bond_atom_site_label_2
_geom_bond_distance
_geom_bond_site_symmetry_2
_ccdc_geom_bond_type
H0 C3 0.931 . S
H1 C6 0.928 . S
H2 C8 0.930 . S
C3 H0 0.931 . S
C3 C4 1.413 . S
C3 C5 1.360 . S
C4 C3 1.413 . S
C4 C8 1.429 . S
C5 C3 1.360 . S
C5 C6 1.372 . S
C6 H1 0.928 . S
C6 C5 1.372 . S
C6 C7 1.404 . S
C7 C6 1.404 . S
C7 C8 1.391 . S
C8 H2 0.930 . S
C8 C4 1.429 . S
C8 C7 1.391 . S
H9 C12 0.931 . S
H10 C15 0.928 . S
H11 C17 0.930 . S
C12 H9 0.931 . S
C12 C13 1.413 . S
C12 C14 1.360 . S
C13 C12 1.413 . S
C13 C17 1.429 . S
C14 C12 1.360 . S
C14 C15 1.372 . S
C15 H10 0.928 . S
C15 C14 1.372 . S
C15 C16 1.404 . S
C16 C15 1.404 . S
C16 C17 1.391 . S
C17 H11 0.930 . S
C17 C13 1.429 . S
C17 C16 1.391 . S
H18 C21 0.931 . S
H19 C24 0.928 . S
H20 C26 0.930 . S
C21 H18 0.931 . S
C21 C22 1.413 . S
C21 C23 1.360 . S
C22 C21 1.413 . S
C22 C26 1.429 . S
C23 C21 1.360 . S
C23 C24 1.372 . S
C24 H19 0.928 . S
C24 C23 1.372 . S
C24 C25 1.404 . S
C25 C24 1.404 . S
C25 C26 1.391 . S
C26 H20 0.930 . S
C26 C22 1.429 . S
C26 C25 1.391 . S
H27 C30 0.931 . S
H28 C33 0.928 . S
H29 C35 0.930 . S
C30 H27 0.931 . S
C30 C31 1.413 . S
C30 C32 1.360 . S
C31 C30 1.413 . S
C31 C35 1.429 . S
C32 C30 1.360 . S
C32 C33 1.372 . S
C33 H28 0.928 . S
C33 C32 1.372 . S
C33 C34 1.404 . S
C34 C33 1.404 . S
C34 C35 1.391 . S
C35 H29 0.930 . S
C35 C31 1.429 . S
C35 C34 1.391 . S
H36 C39 0.931 . S
H37 C42 0.928 . S
H38 C44 0.930 . S
C39 H36 0.931 . S
C39 C40 1.413 . S
C39 C41 1.360 . S
C40 C39 1.413 . S
C40 C44 1.429 . S
C41 C39 1.360 . S
C41 C42 1.372 . S
C42 H37 0.928 . S
C42 C41 1.372 . S
C42 C43 1.404 . S
C43 C42 1.404 . S
C43 C44 1.391 . S
C44 H38 0.930 . S
C44 C40 1.429 . S
C44 C43 1.391 . S
H45 C48 0.931 . S
H46 C51 0.928 . S
H47 C53 0.930 . S
C48 H45 0.931 . S
C48 C49 1.413 . S
C48 C50 1.360 . S
C49 C48 1.413 . S
C49 C53 1.429 . S
C50 C48 1.360 . S
C50 C51 1.372 . S
C51 H46 0.928 . S
C51 C50 1.372 . S
C51 C52 1.404 . S
C52 C51 1.404 . S
C52 C53 1.391 . S
C53 H47 0.930 . S
C53 C49 1.429 . S
C53 C52 1.391 . S
H54 C57 0.931 . S
H55 C60 0.928 . S
H56 C62 0.930 . S
C57 H54 0.931 . S
C57 C58 1.413 . S
C57 C59 1.360 . S
C58 C57 1.413 . S
C58 C62 1.429 . S
C59 C57 1.360 . S
C59 C60 1.372 . S
C60 H55 0.928 . S
C60 C59 1.372 . S
C60 C61 1.404 . S
C61 C60 1.404 . S
C61 C62 1.391 . S
C62 H56 0.930 . S
C62 C58 1.429 . S
C62 C61 1.391 . S
H63 C66 0.931 . S
H64 C69 0.928 . S
H65 C71 0.930 . S
C66 H63 0.931 . S
C66 C67 1.413 . S
C66 C68 1.360 . S
C67 C66 1.413 . S
C67 C71 1.429 . S
C68 C66 1.360 . S
C68 C69 1.372 . S
C69 H64 0.928 . S
C69 C68 1.372 . S
C69 C70 1.404 . S
C70 C69 1.404 . S
C70 C71 1.391 . S
C71 H65 0.930 . S
C71 C67 1.429 . S
C71 C70 1.391 . S
Dy72 O75 2.307 1_545 S
Dy72 O77 2.395 . S
Dy72 O78 2.379 . S
Dy72 O80 2.339 1_545 S
Dy72 O82 2.298 . S
Dy72 O86 2.275 . S
Dy72 C94 2.738 . S
Dy73 O76 2.298 1_655 S
Dy73 O79 2.275 . S
Dy73 O81 2.307 1_565 S
Dy73 O83 2.395 . S
Dy73 O84 2.379 . S
Dy73 O87 2.339 1_565 S
Dy73 C103 2.738 . S
C74 O86 1.254 . S
C74 O87 1.257 1_455 S
O75 Dy72 2.307 1_565 S
O75 C85 1.266 . S
O76 Dy73 2.298 1_455 S
O76 C85 1.236 . S
O77 Dy72 2.395 . S
O77 C94 1.255 . S
O78 Dy72 2.379 . S
O78 C94 1.249 . S
O79 Dy73 2.275 . S
O79 C95 1.254 . S
O80 Dy72 2.339 1_565 S
O80 C95 1.257 1_455 S
O81 Dy73 2.307 1_545 S
O81 C96 1.266 . S
O82 Dy72 2.298 . S
O82 C96 1.236 1_455 S
O83 Dy73 2.395 . S
O83 C103 1.255 . S
O84 Dy73 2.379 . S
O84 C103 1.249 . S
C85 O75 1.266 . S
C85 O76 1.236 . S
O86 Dy72 2.275 . S
O86 C74 1.254 . S
O87 Dy73 2.339 1_545 S
O87 C74 1.257 1_655 S
C88 C91 1.344 . S
C88 C92 1.328 . S
C88 C94 1.516 . S
C89 C90 1.304 . S
C89 C93 1.323 . S
C90 C89 1.304 . S
C90 C91 1.371 . S
C90 H104 0.930 . S
C91 C88 1.344 . S
C91 C90 1.371 . S
C91 H105 0.931 . S
C92 C88 1.328 . S
C92 C93 1.433 . S
C92 H106 0.931 . S
C93 C89 1.323 . S
C93 C92 1.433 . S
C93 H107 0.933 . S
C94 Dy72 2.738 . S
C94 O77 1.255 . S
C94 O78 1.249 . S
C94 C88 1.516 . S
C95 O79 1.254 . S
C95 O80 1.257 1_655 S
C96 O81 1.266 . S
C96 O82 1.236 1_655 S
C97 C100 1.344 . S
C97 C101 1.328 . S
C97 C103 1.516 . S
C98 C99 1.304 . S
C98 C102 1.323 . S
C99 C98 1.304 . S
C99 C100 1.371 . S
C99 H108 0.930 . S
C100 C97 1.344 . S
C100 C99 1.371 . S
C100 H109 0.931 . S
C101 C97 1.328 . S
C101 C102 1.433 . S
C101 H110 0.931 . S
C102 C98 1.323 . S
C102 C101 1.433 . S
C102 H111 0.933 . S
C103 Dy73 2.738 . S
C103 O83 1.255 . S
C103 O84 1.249 . S
C103 C97 1.516 . S
H104 C90 0.930 . S
H105 C91 0.931 . S
H106 C92 0.931 . S
H107 C93 0.933 . S
H108 C99 0.930 . S
H109 C100 0.931 . S
H110 C101 0.931 . S
H111 C102 0.933 . S
Dy112 O115 2.307 1_566 S
Dy112 O117 2.395 . S
Dy112 O118 2.379 . S
Dy112 O120 2.339 1_565 S
Dy112 O122 2.298 . S
Dy112 O126 2.275 1_556 S
Dy112 C134 2.738 . S
Dy113 O116 2.298 . S
Dy113 O119 2.275 1_554 S
Dy113 O121 2.307 1_544 S
Dy113 O123 2.395 . S
Dy113 O124 2.379 . S
Dy113 O127 2.339 1_545 S
Dy113 C143 2.738 . S
C114 O126 1.254 . S
C114 O127 1.257 . S
O115 Dy112 2.307 1_544 S
O115 C125 1.266 . S
O116 Dy113 2.298 . S
O116 C125 1.236 . S
O117 Dy112 2.395 . S
O117 C134 1.255 . S
O118 Dy112 2.379 . S
O118 C134 1.249 . S
O119 Dy113 2.275 1_556 S
O119 C135 1.254 . S
O120 Dy112 2.339 1_545 S
O120 C135 1.257 . S
O121 Dy113 2.307 1_566 S
O121 C136 1.266 . S
O122 Dy112 2.298 . S
O122 C136 1.236 . S
O123 Dy113 2.395 . S
O123 C143 1.255 . S
O124 Dy113 2.379 . S
O124 C143 1.249 . S
C125 O115 1.266 . S
C125 O116 1.236 . S
O126 Dy112 2.275 1_554 S
O126 C114 1.254 . S
O127 Dy113 2.339 1_565 S
O127 C114 1.257 . S
C128 C131 1.344 . S
C128 C132 1.328 . S
C128 C134 1.516 . S
C129 C130 1.304 . S
C129 C133 1.323 . S
C130 C129 1.304 . S
C130 C131 1.371 . S
C130 H144 0.930 . S
C131 C128 1.344 . S
C131 C130 1.371 . S
C131 H145 0.931 . S
C132 C128 1.328 . S
C132 C133 1.433 . S
C132 H146 0.931 . S
C133 C129 1.323 . S
C133 C132 1.433 . S
C133 H147 0.933 . S
C134 Dy112 2.738 . S
C134 O117 1.255 . S
C134 O118 1.249 . S
C134 C128 1.516 . S
C135 O119 1.254 . S
C135 O120 1.257 . S
C136 O121 1.266 . S
C136 O122 1.236 . S
C137 C140 1.344 . S
C137 C141 1.328 . S
C137 C143 1.516 . S
C138 C139 1.304 . S
C138 C142 1.323 . S
C139 C138 1.304 . S
C139 C140 1.371 . S
C139 H148 0.930 . S
C140 C137 1.344 . S
C140 C139 1.371 . S
C140 H149 0.931 . S
C141 C137 1.328 . S
C141 C142 1.433 . S
C141 H150 0.931 . S
C142 C138 1.323 . S
C142 C141 1.433 . S
C142 H151 0.933 . S
C143 Dy113 2.738 . S
C143 O123 1.255 . S
C143 O124 1.249 . S
C143 C137 1.516 . S
H144 C130 0.930 . S
H145 C131 0.931 . S
H146 C132 0.931 . S
H147 C133 0.933 . S
H148 C139 0.930 . S
H149 C140 0.931 . S
H150 C141 0.931 . S
H151 C142 0.933 . S
Dy152 O155 2.307 . S
Dy152 O157 2.395 . S
Dy152 O158 2.379 . S
Dy152 O160 2.339 . S
Dy152 O162 2.298 . S
Dy152 O166 2.275 . S
Dy152 C174 2.738 . S
Dy153 O156 2.298 . S
Dy153 O159 2.275 . S
Dy153 O161 2.307 . S
Dy153 O163 2.395 . S
Dy153 O164 2.379 . S
Dy153 O167 2.339 . S
Dy153 C183 2.738 . S
C154 O166 1.254 . S
C154 O167 1.257 . S
O155 Dy152 2.307 . S
O155 C165 1.266 . S
O156 Dy153 2.298 . S
O156 C165 1.236 . S
O157 Dy152 2.395 . S
O157 C174 1.255 . S
O158 Dy152 2.379 . S
O158 C174 1.249 . S
O159 Dy153 2.275 . S
O159 C175 1.254 . S
O160 Dy152 2.339 . S
O160 C175 1.257 . S
O161 Dy153 2.307 . S
O161 C176 1.266 . S
O162 Dy152 2.298 . S
O162 C176 1.236 . S
O163 Dy153 2.395 . S
O163 C183 1.255 . S
O164 Dy153 2.379 . S
O164 C183 1.249 . S
C165 O155 1.266 . S
C165 O156 1.236 . S
O166 Dy152 2.275 . S
O166 C154 1.254 . S
O167 Dy153 2.339 . S
O167 C154 1.257 . S
C168 C171 1.344 . S
C168 C172 1.328 . S
C168 C174 1.516 . S
C169 C170 1.304 . S
C169 C173 1.323 . S
C170 C169 1.304 . S
C170 C171 1.371 . S
C170 H184 0.930 . S
C171 C168 1.344 . S
C171 C170 1.371 . S
C171 H185 0.931 . S
C172 C168 1.328 . S
C172 C173 1.433 . S
C172 H186 0.931 . S
C173 C169 1.323 . S
C173 C172 1.433 . S
C173 H187 0.933 . S
C174 Dy152 2.738 . S
C174 O157 1.255 . S
C174 O158 1.249 . S
C174 C168 1.516 . S
C175 O159 1.254 . S
C175 O160 1.257 . S
C176 O161 1.266 . S
C176 O162 1.236 . S
C177 C180 1.344 . S
C177 C181 1.328 . S
C177 C183 1.516 . S
C178 C179 1.304 . S
C178 C182 1.323 . S
C179 C178 1.304 . S
C179 C180 1.371 . S
C179 H188 0.930 . S
C180 C177 1.344 . S
C180 C179 1.371 . S
C180 H189 0.931 . S
C181 C177 1.328 . S
C181 C182 1.433 . S
C181 H190 0.931 . S
C182 C178 1.323 . S
C182 C181 1.433 . S
C182 H191 0.933 . S
C183 Dy153 2.738 . S
C183 O163 1.255 . S
C183 O164 1.249 . S
C183 C177 1.516 . S
H184 C170 0.930 . S
H185 C171 0.931 . S
H186 C172 0.931 . S
H187 C173 0.933 . S
H188 C179 0.930 . S
H189 C180 0.931 . S
H190 C181 0.931 . S
H191 C182 0.933 . S
Dy192 O195 2.307 1_656 S
Dy192 O197 2.395 . S
Dy192 O198 2.379 . S
Dy192 O200 2.339 1_655 S
Dy192 O202 2.298 . S
Dy192 O206 2.275 1_556 S
Dy192 C214 2.738 . S
Dy193 O196 2.298 . S
Dy193 O199 2.275 1_554 S
Dy193 O201 2.307 1_455 S
Dy193 O203 2.395 . S
Dy193 O204 2.379 . S
Dy193 O207 2.339 1_455 S
Dy193 C223 2.738 . S
C194 O206 1.254 . S
C194 O207 1.257 . S
O195 Dy192 2.307 1_454 S
O195 C205 1.266 . S
O196 Dy193 2.298 . S
O196 C205 1.236 . S
O197 Dy192 2.395 . S
O197 C214 1.255 . S
O198 Dy192 2.379 . S
O198 C214 1.249 . S
O199 Dy193 2.275 1_556 S
O199 C215 1.254 . S
O200 Dy192 2.339 1_455 S
O200 C215 1.257 . S
O201 Dy193 2.307 1_655 S
O201 C216 1.266 1_554 S
O202 Dy192 2.298 . S
O202 C216 1.236 . S
O203 Dy193 2.395 . S
O203 C223 1.255 . S
O204 Dy193 2.379 . S
O204 C223 1.249 . S
C205 O195 1.266 . S
C205 O196 1.236 . S
O206 Dy192 2.275 1_554 S
O206 C194 1.254 . S
O207 Dy193 2.339 1_655 S
O207 C194 1.257 . S
C208 C211 1.344 . S
C208 C212 1.328 . S
C208 C214 1.516 . S
C209 C210 1.304 . S
C209 C213 1.323 . S
C210 C209 1.304 . S
C210 C211 1.371 . S
C210 H224 0.930 . S
C211 C208 1.344 . S
C211 C210 1.371 . S
C211 H225 0.931 . S
C212 C208 1.328 . S
C212 C213 1.433 . S
C212 H226 0.931 . S
C213 C209 1.323 . S
C213 C212 1.433 . S
C213 H227 0.933 . S
C214 Dy192 2.738 . S
C214 O197 1.255 . S
C214 O198 1.249 . S
C214 C208 1.516 . S
C215 O199 1.254 . S
C215 O200 1.257 . S
C216 O201 1.266 1_556 S
C216 O202 1.236 . S
C217 C220 1.344 . S
C217 C221 1.328 . S
C217 C223 1.516 . S
C218 C219 1.304 . S
C218 C222 1.323 . S
C219 C218 1.304 . S
C219 C220 1.371 . S
C219 H228 0.930 . S
C220 C217 1.344 . S
C220 C219 1.371 . S
C220 H229 0.931 . S
C221 C217 1.328 . S
C221 C222 1.433 . S
C221 H230 0.931 . S
C222 C218 1.323 . S
C222 C221 1.433 . S
C222 H231 0.933 . S
C223 Dy193 2.738 . S
C223 O203 1.255 . S
C223 O204 1.249 . S
C223 C217 1.516 . S
H224 C210 0.930 . S
H225 C211 0.931 . S
H226 C212 0.931 . S
H227 C213 0.933 . S
H228 C219 0.930 . S
H229 C220 0.931 . S
H230 C221 0.931 . S
H231 C222 0.933 . S
H232 C238 0.930 . S
H233 C242 0.930 . S
H234 C247 0.929 . S
H235 C245 0.929 . S
H236 C240 0.929 . S
H237 C246 0.929 . S
C238 H232 0.930 . S
C238 C239 1.367 . S
C238 C246 1.378 . S
C239 C238 1.367 . S
C239 C247 1.433 . S
C240 H236 0.929 . S
C240 C242 1.378 . S
C240 C244 1.350 . S
C241 C244 1.463 . S
C241 C246 1.350 . S
C241 N249 1.427 . S
C242 H233 0.930 . S
C242 C240 1.378 . S
C242 C243 1.367 . S
C243 C242 1.367 . S
C243 C245 1.433 . S
C244 C240 1.350 . S
C244 C241 1.463 . S
C244 N248 1.427 . S
C245 H235 0.929 . S
C245 C243 1.433 . S
C245 N248 1.384 . S
C246 H237 0.929 . S
C246 C238 1.378 . S
C246 C241 1.350 . S
C247 H234 0.929 . S
C247 C239 1.433 . S
C247 N249 1.384 . S
N248 C244 1.427 . S
N248 C245 1.384 . S
N249 C241 1.427 . S
N249 C247 1.384 . S
H250 C256 0.930 . S
H251 C260 0.930 . S
H252 C265 0.929 . S
H253 C263 0.929 . S
H254 C258 0.929 . S
H255 C264 0.929 . S
C256 H250 0.930 . S
C256 C257 1.367 . S
C256 C264 1.378 . S
C257 C256 1.367 . S
C257 C265 1.433 . S
C258 H254 0.929 . S
C258 C260 1.378 . S
C258 C262 1.350 . S
C259 C262 1.463 . S
C259 C264 1.350 . S
C259 N267 1.427 . S
C260 H251 0.930 . S
C260 C258 1.378 . S
C260 C261 1.367 . S
C261 C260 1.367 . S
C261 C263 1.433 . S
C262 C258 1.350 . S
C262 C259 1.463 . S
C262 N266 1.427 . S
C263 H253 0.929 . S
C263 C261 1.433 . S
C263 N266 1.384 . S
C264 H255 0.929 . S
C264 C256 1.378 . S
C264 C259 1.350 . S
C265 H252 0.929 . S
C265 C257 1.433 . S
C265 N267 1.384 . S
N266 C262 1.427 . S
N266 C263 1.384 . S
N267 C259 1.427 . S
N267 C265 1.384 . S
H268 C274 0.930 . S
H269 C278 0.930 . S
H270 C283 0.929 . S
H271 C281 0.929 . S
H272 C276 0.929 . S
H273 C282 0.929 . S
C274 H268 0.930 . S
C274 C275 1.367 . S
C274 C282 1.378 . S
C275 C274 1.367 . S
C275 C283 1.433 . S
C276 H272 0.929 . S
C276 C278 1.378 . S
C276 C280 1.350 . S
C277 C280 1.463 . S
C277 C282 1.350 . S
C277 N285 1.427 . S
C278 H269 0.930 . S
C278 C276 1.378 . S
C278 C279 1.367 . S
C279 C278 1.367 . S
C279 C281 1.433 . S
C280 C276 1.350 . S
C280 C277 1.463 . S
C280 N284 1.427 . S
C281 H271 0.929 . S
C281 C279 1.433 . S
C281 N284 1.384 . S
C282 H273 0.929 . S
C282 C274 1.378 . S
C282 C277 1.350 . S
C283 H270 0.929 . S
C283 C275 1.433 . S
C283 N285 1.384 . S
N284 C280 1.427 . S
N284 C281 1.384 . S
N285 C277 1.427 . S
N285 C283 1.384 . S
H286 C292 0.930 . S
H287 C296 0.930 . S
H288 C301 0.929 . S
H289 C299 0.929 . S
H290 C294 0.929 . S
H291 C300 0.929 . S
C292 H286 0.930 . S
C292 C293 1.367 . S
C292 C300 1.378 . S
C293 C292 1.367 . S
C293 C301 1.433 . S
C294 H290 0.929 . S
C294 C296 1.378 . S
C294 C298 1.350 . S
C295 C298 1.463 . S
C295 C300 1.350 . S
C295 N303 1.427 . S
C296 H287 0.930 . S
C296 C294 1.378 . S
C296 C297 1.367 . S
C297 C296 1.367 . S
C297 C299 1.433 . S
C298 C294 1.350 . S
C298 C295 1.463 . S
C298 N302 1.427 . S
C299 H289 0.929 . S
C299 C297 1.433 . S
C299 N302 1.384 . S
C300 H291 0.929 . S
C300 C292 1.378 . S
C300 C295 1.350 . S
C301 H288 0.929 . S
C301 C293 1.433 . S
C301 N303 1.384 . S
N302 C298 1.427 . S
N302 C299 1.384 . S
N303 C295 1.427 . S
N303 C301 1.384 . S
H304 C310 0.930 . S
H305 C314 0.930 . S
H306 C319 0.929 . S
H307 C317 0.929 . S
H308 C312 0.929 . S
H309 C318 0.929 . S
C310 H304 0.930 . S
C310 C311 1.367 . S
C310 C318 1.378 . S
C311 C310 1.367 . S
C311 C319 1.433 . S
C312 H308 0.929 . S
C312 C314 1.378 . S
C312 C316 1.350 . S
C313 C316 1.463 . S
C313 C318 1.350 . S
C313 N321 1.427 . S
C314 H305 0.930 . S
C314 C312 1.378 . S
C314 C315 1.367 . S
C315 C314 1.367 . S
C315 C317 1.433 . S
C316 C312 1.350 . S
C316 C313 1.463 . S
C316 N320 1.427 . S
C317 H307 0.929 . S
C317 C315 1.433 . S
C317 N320 1.384 . S
C318 H309 0.929 . S
C318 C310 1.378 . S
C318 C313 1.350 . S
C319 H306 0.929 . S
C319 C311 1.433 . S
C319 N321 1.384 . S
N320 C316 1.427 . S
N320 C317 1.384 . S
N321 C313 1.427 . S
N321 C319 1.384 . S
H322 C328 0.930 . S
H323 C332 0.930 . S
H324 C337 0.929 . S
H325 C335 0.929 . S
H326 C330 0.929 . S
H327 C336 0.929 . S
C328 H322 0.930 . S
C328 C329 1.367 . S
C328 C336 1.378 . S
C329 C328 1.367 . S
C329 C337 1.433 . S
C330 H326 0.929 . S
C330 C332 1.378 . S
C330 C334 1.350 . S
C331 C334 1.463 . S
C331 C336 1.350 . S
C331 N339 1.427 . S
C332 H323 0.930 . S
C332 C330 1.378 . S
C332 C333 1.367 . S
C333 C332 1.367 . S
C333 C335 1.433 . S
C334 C330 1.350 . S
C334 C331 1.463 . S
C334 N338 1.427 . S
C335 H325 0.929 . S
C335 C333 1.433 . S
C335 N338 1.384 . S
C336 H327 0.929 . S
C336 C328 1.378 . S
C336 C331 1.350 . S
C337 H324 0.929 . S
C337 C329 1.433 . S
C337 N339 1.384 . S
N338 C334 1.427 . S
N338 C335 1.384 . S
N339 C331 1.427 . S
N339 C337 1.384 . S
H340 C346 0.930 . S
H341 C350 0.930 . S
H342 C355 0.929 . S
H343 C353 0.929 . S
H344 C348 0.929 . S
H345 C354 0.929 . S
C346 H340 0.930 . S
C346 C347 1.367 . S
C346 C354 1.378 . S
C347 C346 1.367 . S
C347 C355 1.433 . S
C348 H344 0.929 . S
C348 C350 1.378 . S
C348 C352 1.350 . S
C349 C352 1.463 . S
C349 C354 1.350 . S
C349 N357 1.427 . S
C350 H341 0.930 . S
C350 C348 1.378 . S
C350 C351 1.367 . S
C351 C350 1.367 . S
C351 C353 1.433 . S
C352 C348 1.350 . S
C352 C349 1.463 . S
C352 N356 1.427 . S
C353 H343 0.929 . S
C353 C351 1.433 . S
C353 N356 1.384 . S
C354 H345 0.929 . S
C354 C346 1.378 . S
C354 C349 1.350 . S
C355 H342 0.929 . S
C355 C347 1.433 . S
C355 N357 1.384 . S
N356 C352 1.427 . S
N356 C353 1.384 . S
N357 C349 1.427 . S
N357 C355 1.384 . S
H358 C364 0.930 . S
H359 C368 0.930 . S
H360 C373 0.929 . S
H361 C371 0.929 . S
H362 C366 0.929 . S
H363 C372 0.929 . S
C364 H358 0.930 . S
C364 C365 1.367 . S
C364 C372 1.378 . S
C365 C364 1.367 . S
C365 C373 1.433 . S
C366 H362 0.929 . S
C366 C368 1.378 . S
C366 C370 1.350 . S
C367 C370 1.463 . S
C367 C372 1.350 . S
C367 N375 1.427 . S
C368 H359 0.930 . S
C368 C366 1.378 . S
C368 C369 1.367 . S
C369 C368 1.367 . S
C369 C371 1.433 . S
C370 C366 1.350 . S
C370 C367 1.463 . S
C370 N374 1.427 . S
C371 H361 0.929 . S
C371 C369 1.433 . S
C371 N374 1.384 . S
C372 H363 0.929 . S
C372 C364 1.378 . S
C372 C367 1.350 . S
C373 H360 0.929 . S
C373 C365 1.433 . S
C373 N375 1.384 . S
N374 C370 1.427 . S
N374 C371 1.384 . S
N375 C367 1.427 . S
N375 C373 1.384 . S
H376 C382 0.930 . S
H377 C386 0.930 . S
H378 C391 0.929 . S
H379 C389 0.929 . S
H380 C384 0.929 . S
H381 C390 0.929 . S
C382 H376 0.930 . S
C382 C383 1.367 . S
C382 C390 1.378 . S
C383 C382 1.367 . S
C383 C391 1.433 . S
C384 H380 0.929 . S
C384 C386 1.378 . S
C384 C388 1.350 . S
C385 C388 1.463 . S
C385 C390 1.350 . S
C385 N393 1.427 . S
C386 H377 0.930 . S
C386 C384 1.378 . S
C386 C387 1.367 . S
C387 C386 1.367 . S
C387 C389 1.433 . S
C388 C384 1.350 . S
C388 C385 1.463 . S
C388 N392 1.427 . S
C389 H379 0.929 . S
C389 C387 1.433 . S
C389 N392 1.384 . S
C390 H381 0.929 . S
C390 C382 1.378 . S
C390 C385 1.350 . S
C391 H378 0.929 . S
C391 C383 1.433 . S
C391 N393 1.384 . S
N392 C388 1.427 . S
N392 C389 1.384 . S
N393 C385 1.427 . S
N393 C391 1.384 . S
H394 C400 0.930 . S
H395 C404 0.930 . S
H396 C409 0.929 . S
H397 C407 0.929 . S
H398 C402 0.929 . S
H399 C408 0.929 . S
C400 H394 0.930 . S
C400 C401 1.367 . S
C400 C408 1.378 . S
C401 C400 1.367 . S
C401 C409 1.433 . S
C402 H398 0.929 . S
C402 C404 1.378 . S
C402 C406 1.350 . S
C403 C406 1.463 . S
C403 C408 1.350 . S
C403 N411 1.427 . S
C404 H395 0.930 . S
C404 C402 1.378 . S
C404 C405 1.367 . S
C405 C404 1.367 . S
C405 C407 1.433 . S
C406 C402 1.350 . S
C406 C403 1.463 . S
C406 N410 1.427 . S
C407 H397 0.929 . S
C407 C405 1.433 . S
C407 N410 1.384 . S
C408 H399 0.929 . S
C408 C400 1.378 . S
C408 C403 1.350 . S
C409 H396 0.929 . S
C409 C401 1.433 . S
C409 N411 1.384 . S
N410 C406 1.427 . S
N410 C407 1.384 . S
N411 C403 1.427 . S
N411 C409 1.384 . S
H412 C418 0.930 . S
H413 C422 0.930 1_455 S
H414 C427 0.929 . S
H415 C425 0.929 . S
H416 C420 0.929 . S
H417 C426 0.929 . S
C418 H412 0.930 . S
C418 C419 1.367 . S
C418 C426 1.378 . S
C419 C418 1.367 . S
C419 C427 1.433 . S
C420 H416 0.929 . S
C420 C422 1.378 . S
C420 C424 1.350 . S
C421 C424 1.463 . S
C421 C426 1.350 . S
C421 N429 1.427 . S
C422 H413 0.930 1_655 S
C422 C420 1.378 . S
C422 C423 1.367 . S
C423 C422 1.367 . S
C423 C425 1.433 . S
C424 C420 1.350 . S
C424 C421 1.463 . S
C424 N428 1.427 . S
C425 H415 0.929 . S
C425 C423 1.433 . S
C425 N428 1.384 . S
C426 H417 0.929 . S
C426 C418 1.378 . S
C426 C421 1.350 . S
C427 H414 0.929 . S
C427 C419 1.433 . S
C427 N429 1.384 . S
N428 C424 1.427 . S
N428 C425 1.384 . S
N429 C421 1.427 . S
N429 C427 1.384 . S
H430 C436 0.930 . S
H431 C440 0.930 . S
H432 C445 0.929 . S
H433 C443 0.929 . S
H434 C438 0.929 . S
H435 C444 0.929 . S
C436 H430 0.930 . S
C436 C437 1.367 . S
C436 C444 1.378 . S
C437 C436 1.367 . S
C437 C445 1.433 . S
C438 H434 0.929 . S
C438 C440 1.378 . S
C438 C442 1.350 . S
C439 C442 1.463 . S
C439 C444 1.350 . S
C439 N447 1.427 . S
C440 H431 0.930 . S
C440 C438 1.378 . S
C440 C441 1.367 . S
C441 C440 1.367 . S
C441 C443 1.433 . S
C442 C438 1.350 . S
C442 C439 1.463 . S
C442 N446 1.427 . S
C443 H433 0.929 . S
C443 C441 1.433 . S
C443 N446 1.384 . S
C444 H435 0.929 . S
C444 C436 1.378 . S
C444 C439 1.350 . S
C445 H432 0.929 . S
C445 C437 1.433 . S
C445 N447 1.384 . S
N446 C442 1.427 . S
N446 C443 1.384 . S
N447 C439 1.427 . S
N447 C445 1.384 . S
H448 C454 0.930 . S
H449 C458 0.930 . S
H450 C463 0.929 . S
H451 C461 0.929 . S
H452 C456 0.929 . S
H453 C462 0.929 . S
C454 H448 0.930 . S
C454 C455 1.367 . S
C454 C462 1.378 . S
C455 C454 1.367 . S
C455 C463 1.433 . S
C456 H452 0.929 . S
C456 C458 1.378 . S
C456 C460 1.350 . S
C457 C460 1.463 . S
C457 C462 1.350 . S
C457 N465 1.427 . S
C458 H449 0.930 . S
C458 C456 1.378 . S
C458 C459 1.367 . S
C459 C458 1.367 . S
C459 C461 1.433 . S
C460 C456 1.350 . S
C460 C457 1.463 . S
C460 N464 1.427 . S
C461 H451 0.929 . S
C461 C459 1.433 . S
C461 N464 1.384 . S
C462 H453 0.929 . S
C462 C454 1.378 . S
C462 C457 1.350 . S
C463 H450 0.929 . S
C463 C455 1.433 . S
C463 N465 1.384 . S
N464 C460 1.427 . S
N464 C461 1.384 . S
N465 C457 1.427 . S
N465 C463 1.384 . S
H466 C472 0.930 . S
H467 C476 0.930 . S
H468 C481 0.929 . S
H469 C479 0.929 . S
H470 C474 0.929 . S
H471 C480 0.929 . S
C472 H466 0.930 . S
C472 C473 1.367 . S
C472 C480 1.378 . S
C473 C472 1.367 . S
C473 C481 1.433 . S
C474 H470 0.929 . S
C474 C476 1.378 . S
C474 C478 1.350 . S
C475 C478 1.463 . S
C475 C480 1.350 . S
C475 N483 1.427 . S
C476 H467 0.930 . S
C476 C474 1.378 . S
C476 C477 1.367 . S
C477 C476 1.367 . S
C477 C479 1.433 . S
C478 C474 1.350 . S
C478 C475 1.463 . S
C478 N482 1.427 . S
C479 H469 0.929 . S
C479 C477 1.433 . S
C479 N482 1.384 . S
C480 H471 0.929 . S
C480 C472 1.378 . S
C480 C475 1.350 . S
C481 H468 0.929 . S
C481 C473 1.433 . S
C481 N483 1.384 . S
N482 C478 1.427 . S
N482 C479 1.384 . S
N483 C475 1.427 . S
N483 C481 1.384 . S
H484 C490 0.930 . S
H485 C494 0.930 . S
H486 C499 0.929 . S
H487 C497 0.929 . S
H488 C492 0.929 . S
H489 C498 0.929 . S
C490 H484 0.930 . S
C490 C491 1.367 . S
C490 C498 1.378 . S
C491 C490 1.367 . S
C491 C499 1.433 . S
C492 H488 0.929 . S
C492 C494 1.378 . S
C492 C496 1.350 . S
C493 C496 1.463 . S
C493 C498 1.350 . S
C493 N501 1.427 . S
C494 H485 0.930 . S
C494 C492 1.378 . S
C494 C495 1.367 . S
C495 C494 1.367 . S
C495 C497 1.433 . S
C496 C492 1.350 . S
C496 C493 1.463 . S
C496 N500 1.427 . S
C497 H487 0.929 . S
C497 C495 1.433 . S
C497 N500 1.384 . S
C498 H489 0.929 . S
C498 C490 1.378 . S
C498 C493 1.350 . S
C499 H486 0.929 . S
C499 C491 1.433 . S
C499 N501 1.384 . S
N500 C496 1.427 . S
N500 C497 1.384 . S
N501 C493 1.427 . S
N501 C499 1.384 . S
H502 C508 0.930 . S
H503 C512 0.930 . S
H504 C517 0.929 . S
H505 C515 0.929 . S
H506 C510 0.929 . S
H507 C516 0.929 . S
C508 H502 0.930 . S
C508 C509 1.367 . S
C508 C516 1.378 . S
C509 C508 1.367 . S
C509 C517 1.433 . S
C510 H506 0.929 . S
C510 C512 1.378 . S
C510 C514 1.350 . S
C511 C514 1.463 . S
C511 C516 1.350 . S
C511 N519 1.427 . S
C512 H503 0.930 . S
C512 C510 1.378 . S
C512 C513 1.367 . S
C513 C512 1.367 . S
C513 C515 1.433 . S
C514 C510 1.350 . S
C514 C511 1.463 . S
C514 N518 1.427 . S
C515 H505 0.929 . S
C515 C513 1.433 . S
C515 N518 1.384 . S
C516 H507 0.929 . S
C516 C508 1.378 . S
C516 C511 1.350 . S
C517 H504 0.929 . S
C517 C509 1.433 . S
C517 N519 1.384 . S
N518 C514 1.427 . S
N518 C515 1.384 . S
N519 C511 1.427 . S
N519 C517 1.384 . S
H520 C526 0.930 . S
H521 C530 0.930 . S
H522 C535 0.929 . S
H523 C533 0.929 . S
H524 C528 0.929 . S
H525 C534 0.929 . S
C526 H520 0.930 . S
C526 C527 1.367 . S
C526 C534 1.378 . S
C527 C526 1.367 . S
C527 C535 1.433 . S
C528 H524 0.929 . S
C528 C530 1.378 . S
C528 C532 1.350 . S
C529 C532 1.463 . S
C529 C534 1.350 . S
C529 N537 1.427 . S
C530 H521 0.930 . S
C530 C528 1.378 . S
C530 C531 1.367 . S
C531 C530 1.367 . S
C531 C533 1.433 . S
C532 C528 1.350 . S
C532 C529 1.463 . S
C532 N536 1.427 . S
C533 H523 0.929 . S
C533 C531 1.433 . S
C533 N536 1.384 . S
C534 H525 0.929 . S
C534 C526 1.378 . S
C534 C529 1.350 . S
C535 H522 0.929 . S
C535 C527 1.433 . S
C535 N537 1.384 . S
N536 C532 1.427 . S
N536 C533 1.384 . S
N537 C529 1.427 . S
N537 C535 1.384 . S
H538 C544 0.930 . S
H539 C548 0.930 . S
H540 C553 0.929 . S
H541 C551 0.929 . S
H542 C546 0.929 . S
H543 C552 0.929 . S
C544 H538 0.930 . S
C544 C545 1.367 . S
C544 C552 1.378 . S
C545 C544 1.367 . S
C545 C553 1.433 . S
C546 H542 0.929 . S
C546 C548 1.378 . S
C546 C550 1.350 . S
C547 C550 1.463 . S
C547 C552 1.350 . S
C547 N555 1.427 . S
C548 H539 0.930 . S
C548 C546 1.378 . S
C548 C549 1.367 . S
C549 C548 1.367 . S
C549 C551 1.433 . S
C550 C546 1.350 . S
C550 C547 1.463 . S
C550 N554 1.427 . S
C551 H541 0.929 . S
C551 C549 1.433 . S
C551 N554 1.384 . S
C552 H543 0.929 . S
C552 C544 1.378 . S
C552 C547 1.350 . S
C553 H540 0.929 . S
C553 C545 1.433 . S
C553 N555 1.384 . S
N554 C550 1.427 . S
N554 C551 1.384 . S
N555 C547 1.427 . S
N555 C553 1.384 . S
H556 C562 0.930 . S
H557 C566 0.930 . S
H558 C571 0.929 . S
H559 C569 0.929 . S
H560 C564 0.929 . S
H561 C570 0.929 . S
C562 H556 0.930 . S
C562 C563 1.367 . S
C562 C570 1.378 . S
C563 C562 1.367 . S
C563 C571 1.433 . S
C564 H560 0.929 . S
C564 C566 1.378 . S
C564 C568 1.350 . S
C565 C568 1.463 . S
C565 C570 1.350 . S
C565 N573 1.427 . S
C566 H557 0.930 . S
C566 C564 1.378 . S
C566 C567 1.367 . S
C567 C566 1.367 . S
C567 C569 1.433 . S
C568 C564 1.350 . S
C568 C565 1.463 . S
C568 N572 1.427 . S
C569 H559 0.929 . S
C569 C567 1.433 . S
C569 N572 1.384 . S
C570 H561 0.929 . S
C570 C562 1.378 . S
C570 C565 1.350 . S
C571 H558 0.929 . S
C571 C563 1.433 . S
C571 N573 1.384 . S
N572 C568 1.427 . S
N572 C569 1.384 . S
N573 C565 1.427 . S
N573 C571 1.384 . S
H574 C580 0.930 . S
H575 C584 0.930 . S
H576 C589 0.929 . S
H577 C587 0.929 . S
H578 C582 0.929 . S
H579 C588 0.929 . S
C580 H574 0.930 . S
C580 C581 1.367 . S
C580 C588 1.378 . S
C581 C580 1.367 . S
C581 C589 1.433 . S
C582 H578 0.929 . S
C582 C584 1.378 . S
C582 C586 1.350 . S
C583 C586 1.463 . S
C583 C588 1.350 . S
C583 N591 1.427 . S
C584 H575 0.930 . S
C584 C582 1.378 . S
C584 C585 1.367 . S
C585 C584 1.367 . S
C585 C587 1.433 . S
C586 C582 1.350 . S
C586 C583 1.463 . S
C586 N590 1.427 . S
C587 H577 0.929 . S
C587 C585 1.433 . S
C587 N590 1.384 . S
C588 H579 0.929 . S
C588 C580 1.378 . S
C588 C583 1.350 . S
C589 H576 0.929 . S
C589 C581 1.433 . S
C589 N591 1.384 . S
N590 C586 1.427 . S
N590 C587 1.384 . S
N591 C583 1.427 . S
N591 C589 1.384 . S
H592 C598 0.930 . S
H593 C602 0.930 . S
H594 C607 0.929 . S
H595 C605 0.929 . S
H596 C600 0.929 . S
H597 C606 0.929 . S
C598 H592 0.930 . S
C598 C599 1.367 . S
C598 C606 1.378 . S
C599 C598 1.367 . S
C599 C607 1.433 . S
C600 H596 0.929 . S
C600 C602 1.378 . S
C600 C604 1.350 . S
C601 C604 1.463 . S
C601 C606 1.350 . S
C601 N609 1.427 . S
C602 H593 0.930 . S
C602 C600 1.378 . S
C602 C603 1.367 . S
C603 C602 1.367 . S
C603 C605 1.433 . S
C604 C600 1.350 . S
C604 C601 1.463 . S
C604 N608 1.427 . S
C605 H595 0.929 . S
C605 C603 1.433 . S
C605 N608 1.384 . S
C606 H597 0.929 . S
C606 C598 1.378 . S
C606 C601 1.350 . S
C607 H594 0.929 . S
C607 C599 1.433 . S
C607 N609 1.384 . S
N608 C604 1.427 . S
N608 C605 1.384 . S
N609 C601 1.427 . S
N609 C607 1.384 . S
H610 C616 0.930 . S
H611 C620 0.930 . S
H612 C625 0.929 . S
H613 C623 0.929 . S
H614 C618 0.929 . S
H615 C624 0.929 . S
C616 H610 0.930 . S
C616 C617 1.367 . S
C616 C624 1.378 . S
C617 C616 1.367 . S
C617 C625 1.433 . S
C618 H614 0.929 . S
C618 C620 1.378 . S
C618 C622 1.350 . S
C619 C622 1.463 . S
C619 C624 1.350 . S
C619 N627 1.427 . S
C620 H611 0.930 . S
C620 C618 1.378 . S
C620 C621 1.367 . S
C621 C620 1.367 . S
C621 C623 1.433 . S
C622 C618 1.350 . S
C622 C619 1.463 . S
C622 N626 1.427 . S
C623 H613 0.929 . S
C623 C621 1.433 . S
C623 N626 1.384 . S
C624 H615 0.929 . S
C624 C616 1.378 . S
C624 C619 1.350 . S
C625 H612 0.929 . S
C625 C617 1.433 . S
C625 N627 1.384 . S
N626 C622 1.427 . S
N626 C623 1.384 . S
N627 C619 1.427 . S
N627 C625 1.384 . S
H628 C634 0.930 . S
H629 C638 0.930 . S
H630 C643 0.929 . S
H631 C641 0.929 . S
H632 C636 0.929 . S
H633 C642 0.929 . S
C634 H628 0.930 . S
C634 C635 1.367 . S
C634 C642 1.378 . S
C635 C634 1.367 . S
C635 C643 1.433 . S
C636 H632 0.929 . S
C636 C638 1.378 . S
C636 C640 1.350 . S
C637 C640 1.463 . S
C637 C642 1.350 . S
C637 N645 1.427 . S
C638 H629 0.930 . S
C638 C636 1.378 . S
C638 C639 1.367 . S
C639 C638 1.367 . S
C639 C641 1.433 . S
C640 C636 1.350 . S
C640 C637 1.463 . S
C640 N644 1.427 . S
C641 H631 0.929 . S
C641 C639 1.433 . S
C641 N644 1.384 . S
C642 H633 0.929 . S
C642 C634 1.378 . S
C642 C637 1.350 . S
C643 H630 0.929 . S
C643 C635 1.433 . S
C643 N645 1.384 . S
N644 C640 1.427 . S
N644 C641 1.384 . S
N645 C637 1.427 . S
N645 C643 1.384 . S
H646 C652 0.930 . S
H647 C656 0.930 . S
H648 C661 0.929 . S
H649 C659 0.929 . S
H650 C654 0.929 . S
H651 C660 0.929 . S
C652 H646 0.930 . S
C652 C653 1.367 . S
C652 C660 1.378 . S
C653 C652 1.367 . S
C653 C661 1.433 . S
C654 H650 0.929 . S
C654 C656 1.378 . S
C654 C658 1.350 . S
C655 C658 1.463 . S
C655 C660 1.350 . S
C655 N663 1.427 . S
C656 H647 0.930 . S
C656 C654 1.378 . S
C656 C657 1.367 . S
C657 C656 1.367 . S
C657 C659 1.433 . S
C658 C654 1.350 . S
C658 C655 1.463 . S
C658 N662 1.427 . S
C659 H649 0.929 . S
C659 C657 1.433 . S
C659 N662 1.384 . S
C660 H651 0.929 . S
C660 C652 1.378 . S
C660 C655 1.350 . S
C661 H648 0.929 . S
C661 C653 1.433 . S
C661 N663 1.384 . S
N662 C658 1.427 . S
N662 C659 1.384 . S
N663 C655 1.427 . S
N663 C661 1.384 . S
C239 C5 0.976 . S
C243 C89 0.996 . S
C257 C14 0.976 . S
C261 C129 0.991 . S
C279 C154 2.432 . S
C275 C25 2.487 . S
C293 C34 2.484 . S
C297 C194 2.428 . S
C315 C125 1.512 . S
C311 C7 1.459 . S
C333 C85 1.533 . S
C329 C13 1.480 . S
C351 C216 1.729 . S
C347 C23 1.755 . S
C369 C176 1.723 . S
C365 C31 1.752 . S
C383 C4 1.183 . S
C387 C218 1.204 . S
C405 C135 2.165 . S
C401 C22 2.206 . S
C419 C32 2.218 . S
C423 C95 2.179 . S
C437 C16 1.161 . S
C441 C178 1.191 . S
C459 C98 0.995 . S
C455 C41 0.985 . S
C473 C50 0.987 . S
C477 C138 1.001 . S
C491 C61 2.480 . S
C495 C175 2.429 . S
C509 C67 2.493 . S
C513 C215 2.440 . S
C527 C40 1.477 . S
C531 C136 1.532 . S
C549 C96 1.512 . S
C545 C52 1.454 . S
C567 C205 1.735 . S
C563 C59 1.764 . S
C585 C165 1.721 . S
C581 C70 1.746 . S
C599 C43 1.178 . S
C603 C209 1.197 . S
C621 C114 2.186 . S
C617 C58 2.221 . S
C639 C74 2.169 . S
C635 C68 2.201 . S
C653 C49 1.188 . S
C657 C169 1.205 . S
