# Generated by pormake.
# Topology eea, (3,6)-cn, num edge types: 1
# Building blocks:
#     Node 0, Type 0, BuildingBlock: BETDIP_clean_linker_0, # of connection points: 3
#     Node 1, Type 0, BuildingBlock: BETDIP_clean_linker_0, # of connection points: 3
#     Node 2, Type 0, BuildingBlock: BETDIP_clean_linker_0, # of connection points: 3
#     Node 3, Type 0, BuildingBlock: BETDIP_clean_linker_0, # of connection points: 3
#     Node 4, Type 0, BuildingBlock: BETDIP_clean_linker_0, # of connection points: 3
#     Node 5, Type 0, BuildingBlock: BETDIP_clean_linker_0, # of connection points: 3
#     Node 6, Type 0, BuildingBlock: BETDIP_clean_linker_0, # of connection points: 3
#     Node 7, Type 0, BuildingBlock: BETDIP_clean_linker_0, # of connection points: 3
#     Node 8, Type 0, BuildingBlock: BETDIP_clean_linker_0, # of connection points: 3
#     Node 9, Type 0, BuildingBlock: BETDIP_clean_linker_0, # of connection points: 3
#     Node 10, Type 0, BuildingBlock: BETDIP_clean_linker_0, # of connection points: 3
#     Node 11, Type 0, BuildingBlock: BETDIP_clean_linker_0, # of connection points: 3
#     Node 12, Type 0, BuildingBlock: BETDIP_clean_linker_0, # of connection points: 3
#     Node 13, Type 0, BuildingBlock: BETDIP_clean_linker_0, # of connection points: 3
#     Node 14, Type 0, BuildingBlock: BETDIP_clean_linker_0, # of connection points: 3
#     Node 15, Type 0, BuildingBlock: BETDIP_clean_linker_0, # of connection points: 3
#     Node 16, Type 0, BuildingBlock: BETDIP_clean_linker_0, # of connection points: 3
#     Node 17, Type 0, BuildingBlock: BETDIP_clean_linker_0, # of connection points: 3
#     Node 18, Type 1, BuildingBlock: CUWYAW_clean_sbu_0, # of connection points: 6
#     Node 19, Type 1, BuildingBlock: CUWYAW_clean_sbu_0, # of connection points: 6
#     Node 20, Type 1, BuildingBlock: CUWYAW_clean_sbu_0, # of connection points: 6
#     Node 21, Type 1, BuildingBlock: CUWYAW_clean_sbu_0, # of connection points: 6
#     Node 22, Type 1, BuildingBlock: CUWYAW_clean_sbu_0, # of connection points: 6
#     Node 23, Type 1, BuildingBlock: CUWYAW_clean_sbu_0, # of connection points: 6
#     Node 24, Type 1, BuildingBlock: CUWYAW_clean_sbu_0, # of connection points: 6
#     Node 25, Type 1, BuildingBlock: CUWYAW_clean_sbu_0, # of connection points: 6
#     Node 26, Type 1, BuildingBlock: CUWYAW_clean_sbu_0, # of connection points: 6
#     Edge 27, Type (0, 1), BuildingBlock: OJICUG_clean_linker_0, # of connection points: 2
#     Edge 28, Type (0, 1), BuildingBlock: OJICUG_clean_linker_0, # of connection points: 2
#     Edge 29, Type (0, 1), BuildingBlock: OJICUG_clean_linker_0, # of connection points: 2
#     Edge 30, Type (0, 1), BuildingBlock: OJICUG_clean_linker_0, # of connection points: 2
#     Edge 31, Type (0, 1), BuildingBlock: OJICUG_clean_linker_0, # of connection points: 2
#     Edge 32, Type (0, 1), BuildingBlock: OJICUG_clean_linker_0, # of connection points: 2
#     Edge 33, Type (0, 1), BuildingBlock: OJICUG_clean_linker_0, # of connection points: 2
#     Edge 34, Type (0, 1), BuildingBlock: OJICUG_clean_linker_0, # of connection points: 2
#     Edge 35, Type (0, 1), BuildingBlock: OJICUG_clean_linker_0, # of connection points: 2
#     Edge 36, Type (0, 1), BuildingBlock: OJICUG_clean_linker_0, # of connection points: 2
#     Edge 37, Type (0, 1), BuildingBlock: OJICUG_clean_linker_0, # of connection points: 2
#     Edge 38, Type (0, 1), BuildingBlock: OJICUG_clean_linker_0, # of connection points: 2
#     Edge 39, Type (0, 1), BuildingBlock: OJICUG_clean_linker_0, # of connection points: 2
#     Edge 40, Type (0, 1), BuildingBlock: OJICUG_clean_linker_0, # of connection points: 2
#     Edge 41, Type (0, 1), BuildingBlock: OJICUG_clean_linker_0, # of connection points: 2
#     Edge 42, Type (0, 1), BuildingBlock: OJICUG_clean_linker_0, # of connection points: 2
#     Edge 43, Type (0, 1), BuildingBlock: OJICUG_clean_linker_0, # of connection points: 2
#     Edge 44, Type (0, 1), BuildingBlock: OJICUG_clean_linker_0, # of connection points: 2
#     Edge 45, Type (0, 1), BuildingBlock: OJICUG_clean_linker_0, # of connection points: 2
#     Edge 46, Type (0, 1), BuildingBlock: OJICUG_clean_linker_0, # of connection points: 2
#     Edge 47, Type (0, 1), BuildingBlock: OJICUG_clean_linker_0, # of connection points: 2
#     Edge 48, Type (0, 1), BuildingBlock: OJICUG_clean_linker_0, # of connection points: 2
#     Edge 49, Type (0, 1), BuildingBlock: OJICUG_clean_linker_0, # of connection points: 2
#     Edge 50, Type (0, 1), BuildingBlock: OJICUG_clean_linker_0, # of connection points: 2
#     Edge 51, Type (0, 1), BuildingBlock: OJICUG_clean_linker_0, # of connection points: 2
#     Edge 52, Type (0, 1), BuildingBlock: OJICUG_clean_linker_0, # of connection points: 2
#     Edge 53, Type (0, 1), BuildingBlock: OJICUG_clean_linker_0, # of connection points: 2
#     Edge 54, Type (0, 1), BuildingBlock: OJICUG_clean_linker_0, # of connection points: 2
#     Edge 55, Type (0, 1), BuildingBlock: OJICUG_clean_linker_0, # of connection points: 2
#     Edge 56, Type (0, 1), BuildingBlock: OJICUG_clean_linker_0, # of connection points: 2
#     Edge 57, Type (0, 1), BuildingBlock: OJICUG_clean_linker_0, # of connection points: 2
#     Edge 58, Type (0, 1), BuildingBlock: OJICUG_clean_linker_0, # of connection points: 2
#     Edge 59, Type (0, 1), BuildingBlock: OJICUG_clean_linker_0, # of connection points: 2
#     Edge 60, Type (0, 1), BuildingBlock: OJICUG_clean_linker_0, # of connection points: 2
#     Edge 61, Type (0, 1), BuildingBlock: OJICUG_clean_linker_0, # of connection points: 2
#     Edge 62, Type (0, 1), BuildingBlock: OJICUG_clean_linker_0, # of connection points: 2
#     Edge 63, Type (0, 1), BuildingBlock: OJICUG_clean_linker_0, # of connection points: 2
#     Edge 64, Type (0, 1), BuildingBlock: OJICUG_clean_linker_0, # of connection points: 2
#     Edge 65, Type (0, 1), BuildingBlock: OJICUG_clean_linker_0, # of connection points: 2
#     Edge 66, Type (0, 1), BuildingBlock: OJICUG_clean_linker_0, # of connection points: 2
#     Edge 67, Type (0, 1), BuildingBlock: OJICUG_clean_linker_0, # of connection points: 2
#     Edge 68, Type (0, 1), BuildingBlock: OJICUG_clean_linker_0, # of connection points: 2
#     Edge 69, Type (0, 1), BuildingBlock: OJICUG_clean_linker_0, # of connection points: 2
#     Edge 70, Type (0, 1), BuildingBlock: OJICUG_clean_linker_0, # of connection points: 2
#     Edge 71, Type (0, 1), BuildingBlock: OJICUG_clean_linker_0, # of connection points: 2
#     Edge 72, Type (0, 1), BuildingBlock: OJICUG_clean_linker_0, # of connection points: 2
#     Edge 73, Type (0, 1), BuildingBlock: OJICUG_clean_linker_0, # of connection points: 2
#     Edge 74, Type (0, 1), BuildingBlock: OJICUG_clean_linker_0, # of connection points: 2
#     Edge 75, Type (0, 1), BuildingBlock: OJICUG_clean_linker_0, # of connection points: 2
#     Edge 76, Type (0, 1), BuildingBlock: OJICUG_clean_linker_0, # of connection points: 2
#     Edge 77, Type (0, 1), BuildingBlock: OJICUG_clean_linker_0, # of connection points: 2
#     Edge 78, Type (0, 1), BuildingBlock: OJICUG_clean_linker_0, # of connection points: 2
#     Edge 79, Type (0, 1), BuildingBlock: OJICUG_clean_linker_0, # of connection points: 2
#     Edge 80, Type (0, 1), BuildingBlock: OJICUG_clean_linker_0, # of connection points: 2
# Relax obj value: 0.062
# Max RMSD: 0.228
# Mean RMSD: 0.162
data_MOF--net-eea--node1-CUWYAW_clean_sbu_0--node2-BETDIP_clean_linker_0--edge1-OJICUG_clean_linker_0
_symmetry_space_group_name_H-M    P1
_symmetry_Int_Tables_number       1
_symmetry_cell_setting            triclinic
loop_
_symmetry_equiv_pos_as_xyz
'x, y, z'
_cell_length_a     39.541382
_cell_length_b     39.0456
_cell_length_c     54.968324
_cell_angle_alpha  93.090568
_cell_angle_beta   92.794376
_cell_angle_gamma 119.99827
loop_
_atom_site_label
_atom_site_type_symbol
_atom_site_fract_x
_atom_site_fract_y
_atom_site_fract_z
_atom_type_partial_charge
H0 H 0.19862 0.08628 0.36818 0.0
H1 H 0.24503 0.16511 0.43396 0.0
H2 H 0.25634 0.06129 0.42726 0.0
H3 H 0.25135 0.21059 0.40729 0.0
C4 C 0.22458 0.19437 0.39519 0.0
C5 C 0.21435 0.09412 0.38616 0.0
C6 C 0.22704 0.06943 0.39588 0.0
C7 C 0.22155 0.12906 0.39945 0.0
C8 C 0.24035 0.1388 0.42326 0.0
C9 C 0.25278 0.11428 0.43347 0.0
C10 C 0.24647 0.08004 0.41951 0.0
N11 N 0.20849 0.15311 0.38859 0.0
H12 H 0.93093 0.14034 0.37368 0.0
H13 H 0.85979 0.10047 0.43393 0.0
H14 H 0.96078 0.21762 0.44009 0.0
H15 H 0.81172 0.06708 0.40202 0.0
C16 C 0.82652 0.05539 0.39114 0.0
C17 C 0.92488 0.14632 0.39195 0.0
C18 C 0.95012 0.18302 0.4055 0.0
C19 C 0.89177 0.11687 0.40181 0.0
C20 C 0.88462 0.12351 0.42587 0.0
C21 C 0.90947 0.15966 0.4398 0.0
C22 C 0.94184 0.18954 0.42941 0.0
N23 N 0.8668 0.0803 0.38753 0.0
H24 H 0.88744 0.80059 0.38175 0.0
H25 H 0.92273 0.75632 0.44214 0.0
H26 H 0.81355 0.75517 0.44058 0.0
H27 H 0.98322 0.80019 0.43168 0.0
C28 C 0.98016 0.79789 0.41182 0.0
C29 C 0.88163 0.78742 0.39902 0.0
C30 C 0.84707 0.77885 0.40981 0.0
C31 C 0.90962 0.78048 0.41079 0.0
C32 C 0.90224 0.76342 0.4333 0.0
C33 C 0.86741 0.75394 0.44404 0.0
C34 C 0.84028 0.76209 0.43225 0.0
N35 N 0.94449 0.79043 0.3993 0.0
H36 H 0.09254 0.22675 0.63895 0.0
H37 H 0.16422 0.26399 0.57915 0.0
H38 H 0.05883 0.27013 0.57681 0.0
H39 H 0.17206 0.21174 0.58868 0.0
C40 C 0.17685 0.21712 0.60849 0.0
C41 C 0.09711 0.23787 0.62107 0.0
C42 C 0.07049 0.24715 0.60937 0.0
C43 C 0.12982 0.24222 0.60984 0.0
C44 C 0.13805 0.25904 0.58747 0.0
C45 C 0.11301 0.26994 0.57573 0.0
C46 C 0.07871 0.26292 0.5864 0.0
N47 N 0.15427 0.22982 0.62152 0.0
H48 H 0.81511 0.88906 0.65205 0.0
H49 H 0.77767 0.92134 0.58711 0.0
H50 H 0.7739 0.80927 0.58613 0.0
H51 H 0.76289 0.95632 0.61585 0.0
C52 C 0.78959 0.9691 0.62803 0.0
C53 C 0.80345 0.88181 0.63304 0.0
C54 C 0.79523 0.84561 0.62064 0.0
C55 C 0.79642 0.90879 0.6213 0.0
C56 C 0.78201 0.90007 0.59661 0.0
C57 C 0.77382 0.86428 0.5838 0.0
C58 C 0.7797 0.83669 0.59603 0.0
N59 N 0.80606 0.94536 0.63438 0.0
H60 H 0.13745 0.92582 0.64746 0.0
H61 H 0.10308 0.8511 0.57993 0.0
H62 H 0.2105 0.96291 0.58748 0.0
H63 H 0.04344 0.82653 0.59253 0.0
C64 C 0.04617 0.82845 0.61237 0.0
C65 C 0.14349 0.92043 0.62907 0.0
C66 C 0.17762 0.94896 0.6193 0.0
C67 C 0.11601 0.8854 0.61502 0.0
C68 C 0.12334 0.87829 0.59095 0.0
C69 C 0.15707 0.90663 0.58085 0.0
C70 C 0.184 0.94166 0.59514 0.0
N71 N 0.08143 0.85833 0.62571 0.0
H72 H 0.86629 0.42158 0.70331 0.0
H73 H 0.91504 0.50207 0.76825 0.0
H74 H 0.92656 0.39842 0.76184 0.0
H75 H 0.9209 0.54689 0.74117 0.0
C76 C 0.89379 0.53051 0.72938 0.0
C77 C 0.88277 0.42988 0.72105 0.0
C78 C 0.89592 0.40548 0.7307 0.0
C79 C 0.89052 0.46521 0.73409 0.0
C80 C 0.91007 0.47553 0.75768 0.0
C81 C 0.92281 0.45126 0.76788 0.0
C82 C 0.91624 0.4168 0.75409 0.0
N83 N 0.87726 0.48909 0.7232 0.0
H84 H 0.59366 0.47635 0.70492 0.0
H85 H 0.52149 0.43883 0.76446 0.0
H86 H 0.62829 0.55125 0.77297 0.0
H87 H 0.47411 0.40372 0.73296 0.0
C88 C 0.48931 0.39233 0.72224 0.0
C89 C 0.58905 0.48225 0.72356 0.0
C90 C 0.61636 0.51778 0.73765 0.0
C91 C 0.55484 0.45393 0.73297 0.0
C92 C 0.54719 0.4612 0.75672 0.0
C93 C 0.57304 0.49669 0.771 0.0
C94 C 0.60795 0.52449 0.76158 0.0
N95 N 0.52946 0.41765 0.71852 0.0
H96 H 0.55285 0.13127 0.71477 0.0
H97 H 0.59062 0.09313 0.77727 0.0
H98 H 0.48278 0.09446 0.77603 0.0
H99 H 0.64972 0.1325 0.76475 0.0
C100 C 0.64608 0.12971 0.74491 0.0
C101 C 0.54786 0.12013 0.73266 0.0
C102 C 0.5144 0.11397 0.74401 0.0
C103 C 0.57597 0.11357 0.74462 0.0
C104 C 0.5698 0.09934 0.76798 0.0
C105 C 0.53652 0.0931 0.77957 0.0
C106 C 0.50903 0.10036 0.76741 0.0
N107 N 0.61007 0.12182 0.73267 0.0
H108 H 0.76355 0.56488 0.97344 0.0
H109 H 0.82861 0.59224 0.9106 0.0
H110 H 0.72078 0.59361 0.9081 0.0
H111 H 0.83857 0.54286 0.92265 0.0
C112 C 0.8447 0.55039 0.9423 0.0
C113 C 0.76582 0.57246 0.95471 0.0
C114 C 0.73729 0.57863 0.94251 0.0
C115 C 0.79742 0.57515 0.94286 0.0
C116 C 0.80269 0.58741 0.91918 0.0
C117 C 0.77546 0.59466 0.90667 0.0
C118 C 0.74255 0.58972 0.91828 0.0
N119 N 0.82339 0.56505 0.95502 0.0
H120 H 0.48041 0.21959 0.98574 0.0
H121 H 0.44337 0.25437 0.92184 0.0
H122 H 0.44242 0.14349 0.91836 0.0
H123 H 0.42808 0.28799 0.95106 0.0
C124 C 0.45464 0.30037 0.96334 0.0
C125 C 0.4692 0.21322 0.96665 0.0
C126 C 0.46195 0.1779 0.95354 0.0
C127 C 0.46189 0.24047 0.95554 0.0
C128 C 0.44806 0.23287 0.93076 0.0
C129 C 0.44109 0.19809 0.91713 0.0
C130 C 0.44726 0.17016 0.92877 0.0
N131 N 0.47097 0.27636 0.96929 0.0
H132 H 0.80358 0.25838 0.98019 0.0
H133 H 0.76844 0.18313 0.91286 0.0
H134 H 0.87615 0.29463 0.91995 0.0
H135 H 0.70893 0.15916 0.92565 0.0
C136 C 0.71189 0.16095 0.94547 0.0
C137 C 0.80944 0.25281 0.96179 0.0
C138 C 0.84356 0.28114 0.9519 0.0
C139 C 0.78177 0.21773 0.94787 0.0
C140 C 0.78885 0.21038 0.92378 0.0
C141 C 0.82253 0.23851 0.91354 0.0
C142 C 0.84968 0.27358 0.92772 0.0
N143 N 0.74729 0.19079 0.95871 0.0
H144 H 0.53349 0.75318 0.03546 0.0
H145 H 0.57987 0.83246 0.10107 0.0
H146 H 0.58957 0.72768 0.09522 0.0
H147 H 0.58704 0.87798 0.07423 0.0
C148 C 0.56026 0.86186 0.06213 0.0
C149 C 0.54895 0.761 0.05351 0.0
C150 C 0.56102 0.73601 0.06354 0.0
C151 C 0.55647 0.79623 0.06661 0.0
C152 C 0.57496 0.80595 0.0905 0.0
C153 C 0.58679 0.78116 0.10096 0.0
C154 C 0.58015 0.74663 0.08724 0.0
N155 N 0.54398 0.82056 0.05552 0.0
H156 H 0.26053 0.80879 0.03944 0.0
H157 H 0.18767 0.77277 0.09876 0.0
H158 H 0.29575 0.88381 0.10755 0.0
H159 H 0.14063 0.73657 0.06759 0.0
C160 C 0.1559 0.72516 0.05695 0.0
C161 C 0.25592 0.81491 0.05804 0.0
C162 C 0.28348 0.85037 0.07213 0.0
C163 C 0.22145 0.78695 0.06741 0.0
C164 C 0.21372 0.79462 0.09105 0.0
C165 C 0.23997 0.8299 0.10533 0.0
C166 C 0.27519 0.85726 0.09606 0.0
N167 N 0.19595 0.75061 0.05304 0.0
H168 H 0.21953 0.46257 0.04782 0.0
H169 H 0.25733 0.42445 0.11032 0.0
H170 H 0.15006 0.42686 0.10939 0.0
H171 H 0.31663 0.46577 0.09803 0.0
C172 C 0.31292 0.46184 0.07818 0.0
C173 C 0.21462 0.45157 0.06575 0.0
C174 C 0.18139 0.44585 0.07723 0.0
C175 C 0.24265 0.44485 0.07767 0.0
C176 C 0.23657 0.43079 0.10107 0.0
C177 C 0.2035 0.42495 0.11275 0.0
C178 C 0.17613 0.43242 0.10066 0.0
N179 N 0.2767 0.45291 0.06574 0.0
H180 H 0.42346 0.8917 0.30517 0.0
H181 H 0.49912 0.93204 0.24711 0.0
H182 H 0.39805 0.94619 0.24616 0.0
H183 H 0.50536 0.87873 0.25594 0.0
C184 C 0.5096 0.88341 0.27578 0.0
C185 C 0.43077 0.90588 0.28828 0.0
C186 C 0.40652 0.91843 0.27708 0.0
C187 C 0.46356 0.9098 0.27731 0.0
C188 C 0.47325 0.92804 0.25539 0.0
C189 C 0.44984 0.94126 0.24398 0.0
C190 C 0.41615 0.93587 0.25478 0.0
N191 N 0.48658 0.89555 0.28878 0.0
H192 H 0.15019 0.5556 0.3191 0.0
H193 H 0.11161 0.58843 0.25486 0.0
H194 H 0.10729 0.47601 0.2531 0.0
H195 H 0.09731 0.62306 0.28423 0.0
C196 C 0.12414 0.63575 0.29629 0.0
C197 C 0.13815 0.54849 0.30016 0.0
C198 C 0.12943 0.51225 0.28761 0.0
C199 C 0.13103 0.57562 0.28871 0.0
C200 C 0.11607 0.56704 0.26412 0.0
C201 C 0.10745 0.53122 0.25112 0.0
C202 C 0.11342 0.50347 0.26311 0.0
N203 N 0.141 0.61213 0.30202 0.0
H204 H 0.46866 0.58861 0.31473 0.0
H205 H 0.43695 0.51552 0.24673 0.0
H206 H 0.54451 0.6277 0.25639 0.0
H207 H 0.3761 0.48986 0.25853 0.0
C208 C 0.37835 0.49186 0.27837 0.0
C209 C 0.47519 0.58387 0.29635 0.0
C210 C 0.5101 0.61237 0.28739 0.0
C211 C 0.44819 0.5493 0.28179 0.0
C212 C 0.45675 0.54263 0.25798 0.0
C213 C 0.49187 0.57059 0.24885 0.0
C214 C 0.51817 0.60537 0.26367 0.0
N215 N 0.41318 0.52196 0.29195 0.0
C216 C 0.54202 0.04988 0.08273 0.0
Eu217 Eu 0.51749 0.03302 0.03641 0.0
C218 C 0.52613 0.03493 0.10603 0.0
C219 C 0.54107 0.06061 0.12751 0.0
C220 C 0.52685 0.04697 0.1499 0.0
C221 C 0.49737 0.00726 0.15126 0.0
C222 C 0.48187 0.98177 0.12953 0.0
C223 C 0.4961 0.9955 0.1071 0.0
C224 C 0.49829 0.07643 0.0084 0.0
C225 C 0.42425 0.96361 0.02972 0.0
C226 C 0.4543 0.97621 0.93966 0.0
Eu227 Eu 0.47822 0.99255 0.986 0.0
C228 C 0.46895 0.99495 0.91706 0.0
C229 C 0.45952 0.97105 0.89504 0.0
C230 C 0.4736 0.98818 0.87339 0.0
C231 C 0.49733 0.02959 0.87339 0.0
C232 C 0.50701 0.05348 0.8956 0.0
C233 C 0.49305 0.03628 0.91728 0.0
C234 C 0.50062 0.95082 0.0136 0.0
C235 C 0.5714 0.06064 0.99245 0.0
O236 O 0.54824 0.02636 0.06812 0.0
O237 O 0.52625 0.0675 0.07109 0.0
O238 O 0.52944 0.09138 0.02359 0.0
O239 O 0.47711 0.03943 0.00971 0.0
O240 O 0.45658 0.98509 0.04446 0.0
O241 O 0.42382 0.96391 0.00574 0.0
O242 O 0.44302 0.99458 0.95501 0.0
O243 O 0.47479 0.96267 0.95055 0.0
O244 O 0.46899 0.93457 0.99877 0.0
O245 O 0.51996 0.98776 0.01208 0.0
O246 O 0.53817 0.04212 0.97824 0.0
O247 O 0.57217 0.05788 0.01632 0.0
H248 H 0.56396 0.09125 0.12698 0.0
H249 H 0.539 0.06758 0.16618 0.0
H250 H 0.45947 0.95094 0.12992 0.0
H251 H 0.484 0.97521 0.09068 0.0
H252 H 0.44113 0.93908 0.89458 0.0
H253 H 0.46523 0.96904 0.85655 0.0
H254 H 0.52555 0.08543 0.89622 0.0
H255 H 0.50106 0.05523 0.93419 0.0
C256 C 0.98922 0.51255 0.08182 0.0
Eu257 Eu 0.99571 0.4983 0.03595 0.0
C258 C 0.00796 0.51244 0.10559 0.0
C259 C 0.98506 0.49823 0.12533 0.0
C260 C 1.0022 0.49788 0.1481 0.0
C261 C 0.04265 0.51185 0.15153 0.0
C262 C 0.06542 0.52543 0.13154 0.0
C263 C 0.04821 0.52565 0.10876 0.0
C264 C 0.95067 0.42864 0.00896 0.0
C265 C 0.06508 0.47615 0.03141 0.0
C266 C 0.0337 0.47868 0.94112 0.0
Eu267 Eu 0.02453 0.49268 0.98649 0.0
C268 C 0.0179 0.47847 0.91632 0.0
C269 C 0.04358 0.4925 0.8979 0.0
C270 C 0.02939 0.49155 0.87397 0.0
C271 C 0.98911 0.47624 0.86797 0.0
C272 C 0.96352 0.46301 0.88668 0.0
C273 C 0.97783 0.46428 0.91067 0.0
C274 C 0.06817 0.56326 0.01355 0.0
C275 C 0.95549 0.51524 0.99062 0.0
O276 O 0.01078 0.54032 0.06791 0.0
O277 O 0.96758 0.47789 0.06954 0.0
O278 O 0.93669 0.44524 0.02312 0.0
O279 O 0.98768 0.44783 0.01074 0.0
O280 O 0.04891 0.49192 0.04518 0.0
O281 O 0.05589 0.46797 0.00764 0.0
O282 O 0.0105 0.45098 0.95453 0.0
O283 O 0.05439 0.51339 0.95349 0.0
O284 O 0.08299 0.5464 1.00032 0.0
O285 O 0.03129 0.54297 0.01123 0.0
O286 O 0.97201 0.49983 0.97686 0.0
O287 O 0.96389 0.52266 0.01456 0.0
H288 H 0.95392 0.48772 0.1232 0.0
H289 H 0.98397 0.48772 0.16319 0.0
H290 H 0.09657 0.53599 0.13355 0.0
H291 H 0.06641 0.53638 0.09369 0.0
H292 H 0.07467 0.50394 0.90199 0.0
H293 H 0.05003 0.50272 0.86016 0.0
H294 H 0.93229 0.45069 0.88269 0.0
H295 H 0.95752 0.4537 0.92467 0.0
C296 C 0.47823 0.50066 0.93729 0.0
Eu297 Eu 0.5037 0.52054 0.98331 0.0
C298 C 0.49585 0.50507 0.91377 0.0
C299 C 0.48237 0.51823 0.89436 0.0
C300 C 0.49766 0.52147 0.87166 0.0
C301 C 0.52659 0.51126 0.86779 0.0
C302 C 0.54088 0.49917 0.88753 0.0
C303 C 0.52575 0.49622 0.91032 0.0
C304 C 0.52627 0.5901 0.0089 0.0
C305 C 0.59806 0.55025 0.98905 0.0
C306 C 0.57249 0.54935 0.07978 0.0
Eu307 Eu 0.54583 0.53109 0.03385 0.0
C308 C 0.55806 0.55237 0.10359 0.0
C309 C 0.52065 0.5237 0.10948 0.0
C310 C 0.50858 0.52593 0.13275 0.0
C311 C 0.5337 0.55687 0.15054 0.0
C312 C 0.57066 0.58611 0.14424 0.0
C313 C 0.5827 0.5838 0.12103 0.0
C314 C 0.52045 0.46039 0.00807 0.0
C315 C 0.4522 0.50239 0.02852 0.0
O316 O 0.48146 0.4767 0.95178 0.0
O317 O 0.48372 0.5333 0.94907 0.0
O318 O 0.49505 0.57199 0.99374 0.0
O319 O 0.54615 0.57289 0.00831 0.0
O320 O 0.56533 0.5364 0.97463 0.0
O321 O 0.59919 0.55439 0.01309 0.0
O322 O 0.57685 0.5759 0.06477 0.0
O323 O 0.55766 0.51369 0.06869 0.0
O324 O 0.55312 0.47894 0.02196 0.0
O325 O 0.502 0.47891 0.00941 0.0
O326 O 0.48592 0.52043 0.04228 0.0
O327 O 0.45039 0.49399 1.00468 0.0
H328 H 0.45967 0.52566 0.89671 0.0
H329 H 0.48651 0.53167 0.85706 0.0
H330 H 0.56286 0.49073 0.88521 0.0
H331 H 0.53703 0.4864 0.92508 0.0
H332 H 0.50101 0.49918 0.09628 0.0
H333 H 0.48003 0.50282 0.13698 0.0
H334 H 0.59041 0.61083 0.15729 0.0
H335 H 0.61154 0.60636 0.11679 0.0
C336 C 0.20803 0.38173 0.41573 0.0
Eu337 Eu 0.18397 0.36549 0.36936 0.0
C338 C 0.19171 0.36572 0.43875 0.0
C339 C 0.20275 0.39163 0.46 0.0
C340 C 0.18762 0.37725 0.48207 0.0
C341 C 0.1611 0.33656 0.48333 0.0
C342 C 0.14945 0.31073 0.46181 0.0
C343 C 0.16465 0.32519 0.43971 0.0
C344 C 0.16495 0.4099 0.34217 0.0
C345 C 0.09039 0.29727 0.36312 0.0
C346 C 0.11874 0.31022 0.2729 0.0
Eu347 Eu 0.1434 0.32602 0.31912 0.0
C348 C 0.13415 0.32851 0.2503 0.0
C349 C 0.12408 0.3044 0.22831 0.0
C350 C 0.13875 0.32118 0.20667 0.0
C351 C 0.1637 0.36242 0.20667 0.0
C352 C 0.17409 0.38647 0.22885 0.0
C353 C 0.15955 0.36964 0.25052 0.0
C354 C 0.16565 0.28335 0.34595 0.0
C355 C 0.23715 0.39277 0.32513 0.0
O356 O 0.21543 0.35934 0.40092 0.0
O357 O 0.19175 0.399 0.40424 0.0
O358 O 0.19651 0.4243 0.35693 0.0
O359 O 0.14345 0.37295 0.34343 0.0
O360 O 0.12372 0.31607 0.37725 0.0
O361 O 0.08931 0.30037 0.33936 0.0
O362 O 0.10924 0.33009 0.28833 0.0
O363 O 0.13751 0.2948 0.28368 0.0
O364 O 0.13346 0.26753 0.33164 0.0
O365 O 0.18529 0.32024 0.34445 0.0
O366 O 0.20367 0.37501 0.31112 0.0
O367 O 0.23821 0.38962 0.34896 0.0
H368 H 0.22322 0.42307 0.45956 0.0
H369 H 0.19674 0.39806 0.49818 0.0
H370 H 0.12939 0.2792 0.46216 0.0
H371 H 0.15554 0.30467 0.42344 0.0
H372 H 0.10469 0.27259 0.22786 0.0
H373 H 0.12984 0.30195 0.18983 0.0
H374 H 0.19357 0.41828 0.22947 0.0
H375 H 0.16808 0.38873 0.2674 0.0
C376 C 0.65699 0.84905 0.41498 0.0
Eu377 Eu 0.66203 0.83291 0.36916 0.0
C378 C 0.67561 0.84841 0.43866 0.0
C379 C 0.65281 0.83478 0.45849 0.0
C380 C 0.66978 0.83366 0.48112 0.0
C381 C 0.70995 0.84627 0.48431 0.0
C382 C 0.73261 0.8593 0.46424 0.0
C383 C 0.71557 0.86029 0.44159 0.0
C384 C 0.61484 0.76212 0.34359 0.0
C385 C 0.72973 0.80833 0.36473 0.0
C386 C 0.69475 0.80622 0.2745 0.0
Eu387 Eu 0.68833 0.82359 0.31982 0.0
C388 C 0.67934 0.80681 0.24974 0.0
C389 C 0.70535 0.82147 0.23153 0.0
C390 C 0.69151 0.82095 0.2076 0.0
C391 C 0.65125 0.80543 0.20137 0.0
C392 C 0.62532 0.79165 0.21986 0.0
C393 C 0.63926 0.79244 0.24387 0.0
C394 C 0.73409 0.89531 0.34529 0.0
C395 C 0.62128 0.84906 0.32379 0.0
O396 O 0.67912 0.876 0.4008 0.0
O397 O 0.63401 0.81442 0.40299 0.0
O398 O 0.6022 0.78108 0.35688 0.0
O399 O 0.65188 0.78035 0.3451 0.0
O400 O 0.71467 0.82549 0.37833 0.0
O401 O 0.71937 0.79879 0.34113 0.0
O402 O 0.67033 0.78022 0.28831 0.0
O403 O 0.71816 0.84077 0.28647 0.0
O404 O 0.74782 0.87709 0.33228 0.0
O405 O 0.69719 0.87579 0.34351 0.0
O406 O 0.63679 0.83237 0.31016 0.0
O407 O 0.6306 0.85753 0.34762 0.0
H408 H 0.62188 0.82527 0.45652 0.0
H409 H 0.65167 0.82398 0.49629 0.0
H410 H 0.76354 0.86884 0.46608 0.0
H411 H 0.73367 0.87052 0.42645 0.0
H412 H 0.73642 0.83299 0.23578 0.0
H413 H 0.71237 0.83251 0.19393 0.0
H414 H 0.59411 0.77916 0.21567 0.0
H415 H 0.61864 0.78123 0.2577 0.0
C416 C 0.14277 0.83029 0.271 0.0
Eu417 Eu 0.16984 0.85309 0.31669 0.0
C418 C 0.1592 0.83353 0.24723 0.0
C419 C 0.19749 0.86357 0.24395 0.0
C420 C 0.21251 0.86594 0.22115 0.0
C421 C 0.18938 0.83839 0.20126 0.0
C422 C 0.15122 0.80811 0.20485 0.0
C423 C 0.13633 0.80576 0.2276 0.0
C424 C 0.19298 0.92399 0.3408 0.0
C425 C 0.26469 0.88488 0.32214 0.0
C426 C 0.23963 0.88349 0.41325 0.0
Eu427 Eu 0.2129 0.86601 0.36725 0.0
C428 C 0.22455 0.8849 0.43707 0.0
C429 C 0.23879 0.8747 0.45765 0.0
C430 C 0.225 0.87581 0.48047 0.0
C431 C 0.19694 0.8875 0.48313 0.0
C432 C 0.18234 0.89723 0.46241 0.0
C433 C 0.19578 0.89561 0.43954 0.0
C434 C 0.18757 0.79467 0.34227 0.0
C435 C 0.11928 0.83717 0.36223 0.0
O436 O 0.1481 0.80792 0.28577 0.0
O437 O 0.14812 0.86322 0.28226 0.0
O438 O 0.16163 0.90529 0.32579 0.0
O439 O 0.21261 0.90652 0.34084 0.0
O440 O 0.2312 0.86776 0.30812 0.0
O441 O 0.26609 0.89187 0.34607 0.0
O442 O 0.24306 0.91006 0.39847 0.0
O443 O 0.22557 0.8482 0.40188 0.0
O444 O 0.22084 0.81417 0.35547 0.0
O445 O 0.16884 0.81288 0.34357 0.0
O446 O 0.15322 0.85607 0.37575 0.0
O447 O 0.1171 0.82747 0.33854 0.0
H448 H 0.21564 0.88525 0.25898 0.0
H449 H 0.24192 0.88967 0.21898 0.0
H450 H 0.1329 0.78589 0.19011 0.0
H451 H 0.10687 0.78216 0.22987 0.0
H452 H 0.26077 0.86606 0.45609 0.0
H453 H 0.23697 0.86843 0.49615 0.0
H454 H 0.16037 0.9059 0.46389 0.0
H455 H 0.18367 0.90274 0.42388 0.0
C456 C 0.87404 0.71399 0.74932 0.0
Eu457 Eu 0.85101 0.70027 0.70289 0.0
C458 C 0.85651 0.69586 0.77171 0.0
C459 C 0.81927 0.6889 0.77712 0.0
C460 C 0.80302 0.67093 0.79822 0.0
C461 C 0.82345 0.6591 0.81409 0.0
C462 C 0.86061 0.66602 0.80857 0.0
C463 C 0.87698 0.68432 0.78764 0.0
C464 C 0.83158 0.74405 0.67551 0.0
C465 C 0.75758 0.63143 0.69585 0.0
C466 C 0.78725 0.64351 0.60608 0.0
Eu467 Eu 0.81178 0.6605 0.65233 0.0
C468 C 0.80173 0.65951 0.58279 0.0
C469 C 0.78959 0.63343 0.56155 0.0
C470 C 0.8026 0.64778 0.53911 0.0
C471 C 0.82794 0.6886 0.53748 0.0
C472 C 0.84078 0.71462 0.55898 0.0
C473 C 0.82781 0.70017 0.58148 0.0
C474 C 0.83434 0.61866 0.67969 0.0
C475 C 0.90509 0.7286 0.65897 0.0
O476 O 0.88175 0.6923 0.73415 0.0
O477 O 0.85918 0.73287 0.73814 0.0
O478 O 0.86264 0.75891 0.6908 0.0
O479 O 0.81051 0.70692 0.67648 0.0
O480 O 0.78997 0.65214 0.71064 0.0
O481 O 0.75723 0.63243 0.67193 0.0
O482 O 0.77868 0.66483 0.621 0.0
O483 O 0.8058 0.62824 0.61731 0.0
O484 O 0.80246 0.60242 0.66509 0.0
O485 O 0.85358 0.65557 0.67817 0.0
O486 O 0.87197 0.70974 0.64462 0.0
O487 O 0.90575 0.72605 0.68287 0.0
H488 H 0.80256 0.69709 0.765 0.0
H489 H 0.77423 0.66568 0.80192 0.0
H490 H 0.87727 0.65768 0.82061 0.0
H491 H 0.90566 0.6893 0.78383 0.0
H492 H 0.76986 0.6019 0.5623 0.0
H493 H 0.79271 0.62685 0.52301 0.0
H494 H 0.86001 0.74624 0.55834 0.0
H495 H 0.8378 0.72075 0.59777 0.0
C496 C 0.32632 0.18559 0.74778 0.0
Eu497 Eu 0.32973 0.1674 0.70204 0.0
C498 C 0.34451 0.18493 0.77165 0.0
C499 C 0.35032 0.15329 0.77693 0.0
C500 C 0.36762 0.15349 0.79983 0.0
C501 C 0.37988 0.18558 0.81762 0.0
C502 C 0.37421 0.21723 0.81213 0.0
C503 C 0.35663 0.21683 0.7894 0.0
C504 C 0.28439 0.09638 0.67659 0.0
C505 C 0.3984 0.14412 0.69749 0.0
C506 C 0.36438 0.14304 0.60688 0.0
Eu507 Eu 0.35692 0.15927 0.65223 0.0
C508 C 0.34825 0.14241 0.58207 0.0
C509 C 0.37373 0.15629 0.56352 0.0
C510 C 0.35928 0.15493 0.53959 0.0
C511 C 0.31893 0.13935 0.53369 0.0
C512 C 0.29353 0.12626 0.5525 0.0
C513 C 0.30809 0.12793 0.5765 0.0
C514 C 0.40086 0.23094 0.678 0.0
C515 C 0.28804 0.18216 0.65646 0.0
O516 O 0.34961 0.21148 0.7335 0.0
O517 O 0.30163 0.15122 0.73595 0.0
O518 O 0.27069 0.11322 0.6908 0.0
O519 O 0.32136 0.11603 0.67767 0.0
O520 O 0.38221 0.15991 0.71122 0.0
O521 O 0.38916 0.1357 0.67371 0.0
O522 O 0.34114 0.11622 0.62074 0.0
O523 O 0.38609 0.17801 0.61878 0.0
O524 O 0.41552 0.21373 0.66492 0.0
O525 O 0.364 0.2104 0.67615 0.0
O526 O 0.30417 0.16619 0.64277 0.0
O527 O 0.29728 0.19071 0.6803 0.0
H528 H 0.34158 0.12849 0.76339 0.0
H529 H 0.37192 0.12888 0.80352 0.0
H530 H 0.38293 0.24214 0.82558 0.0
H531 H 0.35246 0.24151 0.78566 0.0
H532 H 0.40487 0.16793 0.56752 0.0
H533 H 0.37978 0.166 0.5257 0.0
H534 H 0.26226 0.11376 0.54859 0.0
H535 H 0.2879 0.11742 0.59057 0.0
C536 C 0.81156 0.17219 0.60358 0.0
Eu537 Eu 0.83686 0.18981 0.64972 0.0
C538 C 0.82923 0.17286 0.5805 0.0
C539 C 0.8167 0.18393 0.5596 0.0
C540 C 0.83313 0.18477 0.53752 0.0
C541 C 0.8623 0.17435 0.53594 0.0
C542 C 0.87521 0.16382 0.55704 0.0
C543 C 0.85895 0.16325 0.57915 0.0
C544 C 0.85903 0.25845 0.67641 0.0
C545 C 0.93083 0.21834 0.65543 0.0
C546 C 0.90401 0.21223 0.74617 0.0
Eu547 Eu 0.87835 0.19812 0.70002 0.0
C548 C 0.88936 0.21458 0.76997 0.0
C549 C 0.90381 0.20497 0.79071 0.0
C550 C 0.89014 0.20659 0.81349 0.0
C551 C 0.86198 0.2182 0.81593 0.0
C552 C 0.84725 0.22745 0.79505 0.0
C553 C 0.86056 0.22529 0.77221 0.0
C554 C 0.85402 0.12879 0.67283 0.0
C555 C 0.78507 0.17077 0.69478 0.0
O556 O 0.80913 0.14592 0.6183 0.0
O557 O 0.82282 0.20682 0.61515 0.0
O558 O 0.82788 0.24067 0.66117 0.0
O559 O 0.879 0.24136 0.67548 0.0
O560 O 0.89794 0.20368 0.64107 0.0
O561 O 0.93205 0.22304 0.67946 0.0
O562 O 0.91039 0.24024 0.73184 0.0
O563 O 0.88718 0.17699 0.73432 0.0
O564 O 0.88662 0.14721 0.68676 0.0
O565 O 0.8351 0.14677 0.67474 0.0
O566 O 0.81872 0.18803 0.70858 0.0
O567 O 0.78331 0.16345 0.67083 0.0
H568 H 0.79398 0.19167 0.56031 0.0
H569 H 0.82229 0.19259 0.52152 0.0
H570 H 0.89792 0.15605 0.55645 0.0
H571 H 0.86949 0.15511 0.59514 0.0
H572 H 0.92579 0.1963 0.78931 0.0
H573 H 0.90221 0.19959 0.8293 0.0
H574 H 0.82521 0.23606 0.79637 0.0
H575 H 0.84829 0.2319 0.75638 0.0
C576 C 0.33686 0.86743 0.04344 0.0
C577 C 0.32029 0.8799 0.06161 0.0
H578 H 0.38182 0.88434 0.01873 0.0
C579 C 0.33898 0.92089 0.06917 0.0
H580 H 0.32475 0.83633 0.03757 0.0
C581 C 0.37303 0.94821 0.05898 0.0
C582 C 0.38827 0.93542 0.04039 0.0
H583 H 0.32719 0.93221 0.08268 0.0
H584 H 0.38699 0.97944 0.06527 0.0
C585 C 0.36991 0.89491 0.03267 0.0
C586 C 0.13603 0.47317 0.07881 0.0
C587 C 0.15229 0.45435 0.06515 0.0
H588 H 0.09579 0.49454 0.07901 0.0
C589 C 0.13987 0.44303 0.04016 0.0
H590 H 0.14543 0.48289 0.09801 0.0
C591 C 0.11149 0.45002 0.02917 0.0
C592 C 0.09493 0.46843 0.04295 0.0
H593 H 0.15155 0.42813 0.0292 0.0
H594 H 0.10239 0.44075 0.0099 0.0
C595 C 0.10762 0.48001 0.06787 0.0
C596 C 0.55555 0.69702 0.02401 0.0
C597 C 0.55342 0.69873 0.04951 0.0
H598 H 0.54855 0.66088 0.99118 0.0
C599 C 0.54378 0.66436 0.0615 0.0
H600 H 0.56343 0.72291 0.01417 0.0
C601 C 0.53646 0.62935 0.04836 0.0
C602 C 0.53824 0.62788 0.02299 0.0
H603 H 0.54083 0.66408 0.08098 0.0
H604 H 0.52791 0.60305 0.0579 0.0
C605 C 0.54757 0.66176 0.01086 0.0
C606 C 0.88101 0.31962 0.9918 0.0
C607 C 0.87246 0.3189 0.96654 0.0
H608 H 0.91287 0.35536 0.02505 0.0
C609 C 0.89147 0.35475 0.95536 0.0
H610 H 0.86741 0.29262 1.00098 0.0
C611 C 0.91808 0.39029 0.9691 0.0
C612 C 0.92606 0.39076 0.99423 0.0
H613 H 0.88506 0.35565 0.93611 0.0
H614 H 0.93142 0.41761 0.96026 0.0
C615 C 0.90733 0.35534 0.00554 0.0
C616 C 0.68705 0.54531 0.97294 0.0
C617 C 0.70175 0.57224 0.95481 0.0
H618 H 0.64356 0.51841 0.99836 0.0
C619 C 0.68172 0.5924 0.94846 0.0
H620 H 0.70024 0.52792 0.97795 0.0
C621 C 0.64785 0.5852 0.95951 0.0
C622 C 0.63416 0.55896 0.97779 0.0
H623 H 0.69213 0.61397 0.93508 0.0
H624 H 0.63265 0.60057 0.95402 0.0
C625 C 0.65418 0.53939 0.98459 0.0
C626 C 0.50758 0.16609 0.97995 0.0
C627 C 0.47165 0.15051 0.96579 0.0
H628 H 0.54394 0.15484 1.00424 0.0
C629 C 0.44489 0.10943 0.96458 0.0
H630 H 0.52907 0.19748 0.9809 0.0
C631 C 0.4534 0.08477 0.97815 0.0
C632 C 0.48891 0.10087 0.99291 0.0
H633 H 0.41694 0.09667 0.95382 0.0
H634 H 0.43197 0.05344 0.97751 0.0
C635 C 0.5161 0.14161 0.9933 0.0
C636 C 0.67784 0.13524 0.98372 0.0
C637 C 0.67678 0.13496 0.95808 0.0
H638 H 0.64538 0.1118 0.01481 0.0
C639 C 0.64132 0.10964 0.94404 0.0
H640 H 0.70482 0.15442 0.99504 0.0
C641 C 0.60742 0.08545 0.95527 0.0
C642 C 0.60813 0.08577 0.98092 0.0
H643 H 0.63969 0.10878 0.92426 0.0
H644 H 0.58058 0.06655 0.94374 0.0
C645 C 0.64381 0.11077 0.99503 0.0
C646 C 0.89134 0.52545 0.94158 0.0
C647 C 0.87293 0.54183 0.95519 0.0
H648 H 0.93165 0.50417 0.94199 0.0
C649 C 0.88176 0.54961 0.98065 0.0
H650 H 0.88501 0.51921 0.92192 0.0
C651 C 0.90863 0.54102 0.99226 0.0
C652 C 0.92706 0.52453 0.9786 0.0
H653 H 0.868 0.56229 0.9916 0.0
H654 H 0.9149 0.54731 0.01191 0.0
C655 C 0.91807 0.51686 0.95312 0.0
C656 C 0.45117 0.36176 0.97223 0.0
C657 C 0.47183 0.34139 0.9748 0.0
H658 H 0.45012 0.41533 0.9811 0.0
C659 C 0.50886 0.36065 0.98801 0.0
H660 H 0.4226 0.34753 0.96209 0.0
C661 C 0.52488 0.3996 0.99851 0.0
C662 C 0.504 0.41982 0.9962 0.0
H663 H 0.52562 0.34579 0.99013 0.0
H664 H 0.55349 0.41377 0.0086 0.0
C665 C 0.46698 0.40055 0.983 0.0
C666 C 0.09336 0.66087 0.04781 0.0
C667 C 0.13388 0.68363 0.04592 0.0
H668 H 0.04064 0.60487 0.03889 0.0
C669 C 0.15284 0.66622 0.03385 0.0
H670 H 0.07812 0.6736 0.05712 0.0
C671 C 0.13151 0.6268 0.02369 0.0
C672 C 0.09086 0.60422 0.02528 0.0
H673 H 0.18413 0.68293 0.03227 0.0
H674 H 0.1468 0.61414 0.01439 0.0
C675 C 0.07198 0.62155 0.03748 0.0
C676 C 0.38413 0.48623 0.07828 0.0
C677 C 0.34777 0.47131 0.06487 0.0
H678 H 0.44532 0.50795 0.07744 0.0
C679 C 0.34554 0.46612 0.0392 0.0
H680 H 0.38664 0.4905 0.09807 0.0
C681 C 0.37934 0.47588 0.02722 0.0
C682 C 0.41589 0.49124 0.04071 0.0
H683 H 0.3178 0.45454 0.02838 0.0
H684 H 0.37686 0.47168 0.00744 0.0
C685 C 0.41778 0.49625 0.06638 0.0
C686 C 0.56582 0.92609 0.05252 0.0
C687 C 0.5442 0.88441 0.05026 0.0
H688 H 0.56929 0.9799 0.04232 0.0
C689 C 0.50767 0.8648 0.03645 0.0
H690 H 0.59406 0.94186 0.06309 0.0
C691 C 0.49325 0.88653 0.0249 0.0
C692 C 0.51524 0.9282 0.02676 0.0
H693 H 0.49019 0.83269 0.03452 0.0
H694 H 0.46506 0.87065 0.01429 0.0
C695 C 0.55161 0.94782 0.04073 0.0
C696 C 0.02135 0.23621 0.40933 0.0
C697 C 0.98554 0.21395 0.39487 0.0
H698 H 0.08218 0.27992 0.4108 0.0
C699 C 0.98418 0.2207 0.37004 0.0
H700 H 0.0237 0.23152 0.42844 0.0
C701 C 0.01794 0.24832 0.35981 0.0
C702 C 0.0539 0.26994 0.37418 0.0
H703 H 0.95697 0.20458 0.35844 0.0
H704 H 0.01589 0.25232 0.34056 0.0
C705 C 0.05505 0.26387 0.39914 0.0
C706 C 0.80651 0.77771 0.37279 0.0
C707 C 0.81788 0.78742 0.39797 0.0
H708 H 0.7695 0.77629 0.34256 0.0
C709 C 0.80023 0.8043 0.41204 0.0
H710 H 0.81932 0.76432 0.36153 0.0
C711 C 0.77152 0.81087 0.40127 0.0
C712 C 0.75981 0.80081 0.37614 0.0
H713 H 0.80874 0.81262 0.43143 0.0
H714 H 0.75856 0.82387 0.4127 0.0
C715 C 0.77773 0.78428 0.36199 0.0
C716 C 0.21068 0.99809 0.39351 0.0
C717 C 0.2196 0.03236 0.38163 0.0
H718 H 0.19549 0.93707 0.3896 0.0
C719 C 0.221 0.03067 0.35605 0.0
H720 H 0.20819 0.99768 0.41303 0.0
C721 C 0.21306 0.9955 0.34275 0.0
C722 C 0.20458 0.96177 0.35482 0.0
H723 H 0.22827 0.05648 0.34627 0.0
H724 H 0.21351 0.99461 0.32304 0.0
C725 C 0.20349 0.96329 0.3802 0.0
C726 C 0.57826 0.66663 0.30296 0.0
C727 C 0.53735 0.65023 0.30234 0.0
H728 H 0.63505 0.71487 0.31671 0.0
C729 C 0.52253 0.67088 0.31556 0.0
H730 H 0.59058 0.65126 0.29313 0.0
C731 C 0.5479 0.70712 0.32895 0.0
C732 C 0.58869 0.72356 0.32948 0.0
H733 H 0.49125 0.65944 0.31515 0.0
H734 H 0.53548 0.72243 0.33875 0.0
C735 C 0.60371 0.70296 0.31646 0.0
C736 C 0.37155 0.91946 0.31391 0.0
C737 C 0.3707 0.9122 0.28847 0.0
H738 H 0.33905 0.9169 0.34447 0.0
C739 C 0.33499 0.89738 0.27414 0.0
H740 H 0.3987 0.93133 0.32544 0.0
C741 C 0.30078 0.88909 0.28503 0.0
C742 C 0.30145 0.89563 0.31054 0.0
H743 H 0.33323 0.89106 0.25453 0.0
H744 H 0.27369 0.87694 0.27343 0.0
C745 C 0.33736 0.91135 0.32481 0.0
C746 C 0.11147 0.44383 0.2992 0.0
C747 C 0.13871 0.48476 0.30012 0.0
H748 H 0.09807 0.38776 0.31217 0.0
C749 C 0.17484 0.5 0.31398 0.0
H750 H 0.08334 0.43131 0.28869 0.0
C751 C 0.1832 0.4753 0.32723 0.0
C752 C 0.15563 0.4347 0.32701 0.0
H753 H 0.19671 0.53124 0.3147 0.0
H754 H 0.21125 0.48823 0.3379 0.0
C755 C 0.11982 0.41897 0.31265 0.0
C756 C 0.34381 0.46621 0.3164 0.0
C757 C 0.3429 0.46602 0.29077 0.0
H758 H 0.31119 0.44306 0.34743 0.0
C759 C 0.30738 0.44109 0.27667 0.0
H760 H 0.37081 0.48505 0.32778 0.0
C761 C 0.27328 0.41724 0.28787 0.0
C762 C 0.27391 0.4175 0.31352 0.0
H763 H 0.30586 0.44033 0.25689 0.0
H764 H 0.24637 0.39864 0.27634 0.0
C765 C 0.30965 0.44208 0.32766 0.0
C766 C 0.54583 0.88126 0.3141 0.0
C767 C 0.53783 0.8747 0.28855 0.0
H768 H 0.57867 0.87845 0.34534 0.0
C769 C 0.55747 0.85994 0.27478 0.0
H770 H 0.53119 0.89276 0.32518 0.0
C771 C 0.58454 0.8517 0.28625 0.0
C772 C 0.59273 0.85823 0.3118 0.0
H773 H 0.55185 0.85472 0.25505 0.0
H774 H 0.59907 0.84027 0.27499 0.0
C775 C 0.57311 0.87315 0.32562 0.0
C776 C 0.17802 0.69625 0.32098 0.0
C777 C 0.14072 0.67647 0.30809 0.0
H778 H 0.22226 0.74953 0.34165 0.0
C779 C 0.11913 0.69598 0.30626 0.0
H780 H 0.19546 0.68204 0.32256 0.0
C781 C 0.1343 0.73444 0.31741 0.0
C782 C 0.17163 0.75428 0.33023 0.0
H783 H 0.09031 0.68131 0.2964 0.0
H784 H 0.11672 0.74853 0.31608 0.0
C785 C 0.19341 0.73491 0.33185 0.0
C786 C 0.76272 0.99296 0.38081 0.0
C787 C 0.80341 0.01443 0.37927 0.0
H788 H 0.70878 0.93851 0.37104 0.0
C789 C 0.82131 0.99628 0.36676 0.0
H790 H 0.74826 0.0063 0.39042 0.0
C791 C 0.79878 0.95731 0.35592 0.0
C792 C 0.75801 0.936 0.35728 0.0
H793 H 0.85267 0.01203 0.36541 0.0
H794 H 0.81326 0.94397 0.34636 0.0
C795 C 0.74018 0.95418 0.36981 0.0
C796 C 0.0512 0.82082 0.41206 0.0
C797 C 0.0151 0.8073 0.3986 0.0
H798 H 0.11215 0.84086 0.41124 0.0
C799 C 0.01312 0.80314 0.37291 0.0
H800 H 0.0535 0.82421 0.43187 0.0
C801 C 0.04683 0.81248 0.36095 0.0
C802 C 0.08311 0.82645 0.37448 0.0
H803 H 0.98561 0.79263 0.36204 0.0
H804 H 0.04451 0.80911 0.34115 0.0
C805 C 0.08482 0.83044 0.40018 0.0
C806 C 0.23044 0.25848 0.38512 0.0
C807 C 0.20862 0.21684 0.3831 0.0
H808 H 0.23429 0.31223 0.37451 0.0
C809 C 0.17207 0.19721 0.36929 0.0
H810 H 0.2587 0.27427 0.39566 0.0
C811 C 0.15782 0.21892 0.35753 0.0
C812 C 0.18002 0.26057 0.35917 0.0
H813 H 0.15447 0.1651 0.36753 0.0
H814 H 0.12963 0.20307 0.34692 0.0
C815 C 0.21642 0.28017 0.3731 0.0
C816 C 0.66995 0.53516 0.70911 0.0
C817 C 0.65315 0.5475 0.7272 0.0
H818 H 0.71525 0.55227 0.68464 0.0
C819 C 0.67174 0.58845 0.73483 0.0
H820 H 0.65794 0.50409 0.7032 0.0
C821 C 0.70595 0.61587 0.72483 0.0
C822 C 0.72144 0.60319 0.70634 0.0
H823 H 0.65978 0.59968 0.74829 0.0
H824 H 0.71987 0.64707 0.7312 0.0
C825 C 0.70316 0.56273 0.69852 0.0
C826 C 0.4684 0.14058 0.74538 0.0
C827 C 0.48518 0.12221 0.7318 0.0
H828 H 0.4279 0.16166 0.74533 0.0
C829 C 0.47331 0.11126 0.70673 0.0
H830 H 0.47735 0.15 0.76464 0.0
C831 C 0.44506 0.11825 0.69554 0.0
C832 C 0.42807 0.13631 0.70921 0.0
H833 H 0.48537 0.09668 0.69582 0.0
H834 H 0.43643 0.10931 0.67621 0.0
C835 C 0.44013 0.14743 0.73425 0.0
C836 C 0.88112 0.33453 0.72884 0.0
C837 C 0.88803 0.36803 0.71665 0.0
H838 H 0.86724 0.27385 0.72539 0.0
C839 C 0.88695 0.36519 0.69093 0.0
H840 H 0.88054 0.33487 0.74851 0.0
C841 C 0.87822 0.32962 0.67782 0.0
C842 C 0.87164 0.29667 0.69017 0.0
H843 H 0.8928 0.39036 0.68083 0.0
H844 H 0.87658 0.32783 0.65802 0.0
C845 C 0.87344 0.29941 0.71569 0.0
C846 C 0.22482 0.02268 0.62296 0.0
C847 C 0.20622 0.98671 0.63403 0.0
H848 H 0.26425 0.0856 0.628 0.0
C849 C 0.21493 0.98731 0.65925 0.0
H850 H 0.21823 0.02365 0.60375 0.0
C851 C 0.24115 0.02302 0.67306 0.0
C852 C 0.25955 0.05855 0.66183 0.0
H853 H 0.20158 0.96021 0.66835 0.0
H854 H 0.24692 0.02293 0.69252 0.0
C855 C 0.25126 0.05821 0.63676 0.0
C856 C 0.01727 0.26373 0.61716 0.0
C857 C 0.03436 0.24004 0.62116 0.0
H858 H 0.97063 0.27497 0.62466 0.0
C859 C 0.01657 0.20934 0.63677 0.0
H860 H 0.03011 0.28807 0.60571 0.0
C861 C 0.98363 0.20325 0.64842 0.0
C862 C 0.9668 0.22673 0.64416 0.0
H863 H 0.02757 0.18939 0.63983 0.0
H864 H 0.97063 0.17943 0.66029 0.0
C865 C 0.98345 0.25668 0.62824 0.0
C866 C 0.84049 0.834 0.64765 0.0
C867 C 0.80464 0.8184 0.63338 0.0
H868 H 0.87689 0.82269 0.67188 0.0
C869 C 0.77792 0.77729 0.63215 0.0
H870 H 0.86201 0.86538 0.64861 0.0
C871 C 0.78649 0.75261 0.64563 0.0
C872 C 0.82201 0.76868 0.66035 0.0
H873 H 0.75002 0.76447 0.62133 0.0
H874 H 0.76514 0.72123 0.64487 0.0
C875 C 0.84906 0.80948 0.66093 0.0
C876 C 0.01164 0.80316 0.65051 0.0
C877 C 0.01088 0.80258 0.62487 0.0
H878 H 0.97882 0.78008 0.68151 0.0
C879 C 0.97556 0.77712 0.61073 0.0
H880 H 0.0385 0.82245 0.66191 0.0
C881 C 0.94151 0.75307 0.62187 0.0
C882 C 0.94192 0.75368 0.64752 0.0
H883 H 0.97416 0.77604 0.59094 0.0
H884 H 0.91479 0.73403 0.61027 0.0
C885 C 0.97746 0.77884 0.66173 0.0
C886 C 0.21322 0.21511 0.64675 0.0
C887 C 0.20489 0.20816 0.62124 0.0
H888 H 0.24614 0.2124 0.67796 0.0
C889 C 0.2239 0.19262 0.60749 0.0
H890 H 0.19903 0.22717 0.65781 0.0
C891 C 0.25075 0.18408 0.61895 0.0
C892 C 0.25932 0.19108 0.64448 0.0
H893 H 0.21798 0.18704 0.58778 0.0
H894 H 0.26485 0.1721 0.60773 0.0
C895 C 0.24025 0.20668 0.65827 0.0
C896 C 0.84377 0.02991 0.6522 0.0
C897 C 0.80653 0.01019 0.63927 0.0
H898 H 0.88819 0.08328 0.67264 0.0
C899 C 0.78537 0.03008 0.63688 0.0
H900 H 0.86091 0.01544 0.65416 0.0
C901 C 0.80084 0.06882 0.64767 0.0
C902 C 0.838 0.08847 0.66069 0.0
H903 H 0.75662 0.01547 0.62693 0.0
H904 H 0.78356 0.08319 0.64601 0.0
C905 C 0.85944 0.06879 0.66271 0.0
C906 C 0.42646 0.32856 0.71243 0.0
C907 C 0.46709 0.35102 0.71085 0.0
H908 H 0.3735 0.27296 0.70306 0.0
C909 C 0.48593 0.3335 0.69876 0.0
H910 H 0.4113 0.34139 0.72173 0.0
C911 C 0.46441 0.29422 0.68835 0.0
C912 C 0.42369 0.2719 0.68972 0.0
H913 H 0.51728 0.34999 0.69739 0.0
H914 H 0.47962 0.28142 0.67909 0.0
C915 C 0.4049 0.28941 0.70185 0.0
C916 C 0.67887 0.13639 0.70574 0.0
C917 C 0.68083 0.13927 0.73145 0.0
H918 H 0.71035 0.14397 0.67383 0.0
C919 C 0.71683 0.15192 0.74477 0.0
H920 H 0.65142 0.1266 0.69498 0.0
C921 C 0.75039 0.16196 0.73276 0.0
C922 C 0.7488 0.15941 0.70706 0.0
H923 H 0.71912 0.15431 0.76459 0.0
H924 H 0.77762 0.17164 0.74376 0.0
C925 C 0.71259 0.14628 0.69364 0.0
C926 C 0.8409 0.53306 0.70376 0.0
C927 C 0.87772 0.55284 0.71723 0.0
H928 H 0.79812 0.53861 0.68155 0.0
C929 C 0.89973 0.59447 0.71881 0.0
H930 H 0.82314 0.50098 0.70235 0.0
C931 C 0.8856 0.61597 0.70668 0.0
C932 C 0.84891 0.59621 0.69308 0.0
H933 H 0.92822 0.61037 0.72908 0.0
H934 H 0.90362 0.648 0.70771 0.0
C935 C 0.82655 0.55459 0.69188 0.0
C936 C 0.50038 0.98827 0.21809 0.0
C937 C 0.46099 0.9604 0.22074 0.0
H938 H 0.5427 0.02431 0.19422 0.0
C939 C 0.4331 0.94944 0.20066 0.0
H940 H 0.52252 0.99769 0.23329 0.0
C941 C 0.44465 0.96504 0.17818 0.0
C942 C 0.4843 0.99212 0.17538 0.0
H943 H 0.40256 0.92789 0.20211 0.0
H944 H 0.42257 0.95573 0.16296 0.0
C945 C 0.51189 1.00386 0.19572 0.0
C946 C 0.05911 0.48843 0.21579 0.0
C947 C 0.09307 0.5239 0.22488 0.0
H948 H 0.01645 0.45666 0.1853 0.0
C949 C 0.11193 0.55386 0.20913 0.0
H950 H 0.04401 0.46491 0.22758 0.0
C951 C 0.09628 0.54925 0.18508 0.0
C952 C 0.06128 0.51459 0.17624 0.0
H953 H 0.13841 0.58135 0.21561 0.0
H954 H 0.11077 0.57355 0.17373 0.0
C955 C 0.04322 0.4839 0.1917 0.0
C956 C 0.53956 0.57284 0.2197 0.0
C957 C 0.5014 0.56424 0.22377 0.0
H958 H 0.57937 0.57655 0.19365 0.0
C959 C 0.47327 0.55153 0.20364 0.0
H960 H 0.56171 0.58203 0.23487 0.0
C961 C 0.48349 0.54868 0.17987 0.0
C962 C 0.52202 0.55835 0.17577 0.0
H963 H 0.44371 0.54502 0.20619 0.0
H964 H 0.46149 0.53995 0.16468 0.0
C965 C 0.54972 0.56986 0.19604 0.0
C966 C 0.97356 0.45521 0.79894 0.0
C967 C 0.94174 0.46083 0.79326 0.0
H968 H 0.01284 0.45484 0.82683 0.0
C969 C 0.92679 0.47351 0.81221 0.0
H970 H 0.98611 0.44596 0.78473 0.0
C971 C 0.94264 0.47936 0.83639 0.0
C972 C 0.9737 0.47254 0.84216 0.0
H973 H 0.90207 0.47779 0.80848 0.0
H974 H 0.93034 0.48895 0.85059 0.0
C975 C 0.98922 0.46081 0.82309 0.0
C976 C 0.52392 0.49414 0.79898 0.0
C977 C 0.5627 0.50403 0.79566 0.0
H978 H 0.48212 0.48787 0.82404 0.0
C979 C 0.59038 0.51874 0.81614 0.0
H980 H 0.50199 0.48326 0.78354 0.0
C981 C 0.57905 0.52203 0.83954 0.0
C982 C 0.53985 0.51079 0.8429 0.0
H983 H 0.62046 0.52651 0.81419 0.0
H984 H 0.60092 0.53303 0.855 0.0
C985 C 0.51263 0.49729 0.82224 0.0
C986 C 0.51742 0.09643 0.82203 0.0
C987 C 0.52985 0.07879 0.80432 0.0
H988 H 0.49738 0.09471 0.85765 0.0
C989 C 0.53383 0.04628 0.81004 0.0
H990 H 0.51449 0.12181 0.81822 0.0
C991 C 0.52411 0.03079 0.83268 0.0
C992 C 0.51055 0.04774 0.85011 0.0
H993 H 0.54319 0.032 0.79671 0.0
H994 H 0.52682 1.00529 0.83646 0.0
C995 C 0.50797 0.08115 0.84469 0.0
C996 C 0.09661 0.2753 0.5317 0.0
C997 C 0.12366 0.28896 0.55245 0.0
H998 H 0.08713 0.27962 0.49347 0.0
C999 C 0.16226 0.31959 0.55054 0.0
H1000 H 0.06671 0.2516 0.53263 0.0
C1001 C 0.17399 0.33536 0.52827 0.0
C1002 C 0.14742 0.32099 0.50725 0.0
H1003 H 0.18368 0.33098 0.56628 0.0
H1004 H 0.2043 0.35806 0.52738 0.0
C1005 C 0.10843 0.29104 0.50927 0.0
C1006 C 0.77951 0.88665 0.54175 0.0
C1007 C 0.75994 0.8569 0.55751 0.0
H1008 H 0.77903 0.9066 0.50636 0.0
C1009 C 0.72553 0.82189 0.54842 0.0
H1010 H 0.80632 0.9138 0.54827 0.0
C1011 C 0.7098 0.81772 0.52434 0.0
C1012 C 0.72851 0.84833 0.5089 0.0
H1013 H 0.7099 0.79856 0.56024 0.0
H1014 H 0.68261 0.79093 0.51794 0.0
C1015 C 0.76403 0.88239 0.5177 0.0
C1016 C 0.17448 0.93028 0.5394 0.0
C1017 C 0.16454 0.90024 0.55528 0.0
H1018 H 0.1922 0.94958 0.5041 0.0
C1019 C 0.16354 0.86509 0.54691 0.0
H1020 H 0.17524 0.95758 0.54537 0.0
C1021 C 0.17359 0.86065 0.52335 0.0
C1022 C 0.18416 0.89101 0.50761 0.0
H1023 H 0.15612 0.84157 0.55884 0.0
H1024 H 0.17328 0.83357 0.51745 0.0
C1025 C 0.18393 0.92561 0.51576 0.0
C1026 C 0.58989 0.80308 0.14524 0.0
C1027 C 0.60512 0.79041 0.12645 0.0
H1028 H 0.59281 0.81831 0.1836 0.0
C1029 C 0.63676 0.78463 0.13238 0.0
H1030 H 0.5653 0.80749 0.14129 0.0
C1031 C 0.65203 0.79014 0.1566 0.0
C1032 C 0.63625 0.80187 0.1755 0.0
H1033 H 0.64949 0.77538 0.11829 0.0
H1034 H 0.67555 0.7841 0.16054 0.0
C1035 C 0.60531 0.80877 0.16951 0.0
C1036 C 0.25546 0.84725 0.15087 0.0
C1037 C 0.22956 0.83738 0.12985 0.0
H1038 H 0.26293 0.8548 0.19011 0.0
C1039 C 0.19185 0.83136 0.13245 0.0
H1040 H 0.28464 0.85189 0.14937 0.0
C1041 C 0.17951 0.83315 0.15556 0.0
C1042 C 0.20447 0.84081 0.17674 0.0
H1043 H 0.17152 0.82437 0.11651 0.0
H1044 H 0.15005 0.82786 0.15684 0.0
C1045 C 0.24299 0.84888 0.17415 0.0
C1046 C 0.19997 0.37789 0.14326 0.0
C1047 C 0.19696 0.41095 0.13756 0.0
H1048 H 0.19192 0.33663 0.1697 0.0
C1049 C 0.18539 0.42938 0.15531 0.0
H1050 H 0.20868 0.36305 0.12988 0.0
C1051 C 0.17576 0.4143 0.17799 0.0
C1052 C 0.1773 0.38033 0.18339 0.0
H1053 H 0.18319 0.45516 0.15148 0.0
H1054 H 0.1658 0.42847 0.19098 0.0
C1055 C 0.19005 0.3626 0.16593 0.0
C1056 C 0.77804 0.63977 0.87482 0.0
C1057 C 0.78235 0.60784 0.88157 0.0
H1058 H 0.78792 0.68126 0.84814 0.0
C1059 C 0.79674 0.59068 0.86489 0.0
H1060 H 0.76724 0.65374 0.88732 0.0
C1061 C 0.80883 0.60657 0.84268 0.0
C1062 C 0.80655 0.63981 0.83648 0.0
H1063 H 0.79958 0.56547 0.8693 0.0
H1064 H 0.82065 0.59323 0.83051 0.0
C1065 C 0.78998 0.65558 0.85244 0.0
C1066 C 0.44663 0.2244 0.87618 0.0
C1067 C 0.42844 0.19235 0.89062 0.0
H1068 H 0.44577 0.24714 0.84177 0.0
C1069 C 0.39649 0.15638 0.87999 0.0
H1070 H 0.47191 0.2522 0.88367 0.0
C1071 C 0.38155 0.15344 0.85582 0.0
C1072 C 0.39834 0.18646 0.84198 0.0
H1073 H 0.38191 0.13123 0.8907 0.0
H1074 H 0.35579 0.12602 0.84837 0.0
C1075 C 0.43169 0.22153 0.85219 0.0
C1076 C 0.83963 0.26164 0.87195 0.0
C1077 C 0.82976 0.2318 0.88798 0.0
H1078 H 0.8572 0.28049 0.83654 0.0
C1079 C 0.82868 0.19655 0.87977 0.0
H1080 H 0.84046 0.28901 0.87781 0.0
C1081 C 0.83862 0.19182 0.85623 0.0
C1082 C 0.84917 0.22199 0.84035 0.0
H1083 H 0.82131 0.17318 0.89182 0.0
H1084 H 0.83829 0.16468 0.85046 0.0
C1085 C 0.84896 0.25667 0.84832 0.0
C1086 C 0.25635 0.13611 0.47786 0.0
C1087 C 0.27138 0.12349 0.45892 0.0
H1088 H 0.25985 0.15158 0.51624 0.0
C1089 C 0.30317 0.11783 0.46466 0.0
H1090 H 0.23166 0.14042 0.47409 0.0
C1091 C 0.31881 0.12348 0.48882 0.0
C1092 C 0.3033 0.13528 0.50787 0.0
H1093 H 0.31579 0.10863 0.45048 0.0
H1094 H 0.34247 0.11759 0.4926 0.0
C1095 C 0.27216 0.14198 0.50207 0.0
C1096 C 0.89265 0.1361 0.48131 0.0
C1097 C 0.90112 0.16559 0.46521 0.0
H1098 H 0.87381 0.11581 0.51622 0.0
C1099 C 0.89913 0.19932 0.47307 0.0
H1100 H 0.89426 0.10994 0.47578 0.0
C1101 C 0.88729 0.20266 0.49624 0.0
C1102 C 0.87772 0.17257 0.51209 0.0
H1103 H 0.90539 0.2224 0.46097 0.0
H1104 H 0.88522 0.22858 0.50169 0.0
C1105 C 0.88123 0.13961 0.50452 0.0
C1106 C 0.88714 0.75021 0.48761 0.0
C1107 C 0.85871 0.73543 0.46754 0.0
H1108 H 0.89985 0.74691 0.5255 0.0
C1109 C 0.82088 0.70407 0.47039 0.0
H1110 H 0.91649 0.7745 0.48597 0.0
C1111 C 0.81125 0.68864 0.49295 0.0
C1112 C 0.83926 0.70402 0.51326 0.0
H1113 H 0.79845 0.69173 0.45519 0.0
H1114 H 0.78144 0.66532 0.49461 0.0
C1115 C 0.87748 0.73472 0.51028 0.0
loop_
_geom_bond_atom_site_label_1
_geom_bond_atom_site_label_2
_geom_bond_distance
_geom_bond_site_symmetry_2
_ccdc_geom_bond_type
H0 C5 0.930 . S
H1 C8 0.930 . S
H2 C10 0.930 . S
H3 C4 1.016 . S
C4 H3 1.016 . S
C4 N11 1.286 . S
C5 H0 0.930 . S
C5 C6 1.397 . S
C5 C7 1.361 . S
C6 C5 1.397 . S
C6 C10 1.390 . S
C7 C5 1.361 . S
C7 C8 1.393 . S
C7 N11 1.413 . S
C8 H1 0.930 . S
C8 C7 1.393 . S
C8 C9 1.399 . S
C9 C8 1.399 . S
C9 C10 1.381 . S
C10 H2 0.930 . S
C10 C6 1.390 . S
C10 C9 1.381 . S
N11 C4 1.286 . S
N11 C7 1.413 . S
H12 C17 0.930 . S
H13 C20 0.930 . S
H14 C22 0.930 . S
H15 C16 1.016 . S
C16 H15 1.016 . S
C16 N23 1.286 . S
C17 H12 0.930 . S
C17 C18 1.397 . S
C17 C19 1.361 . S
C18 C17 1.397 . S
C18 C22 1.390 . S
C19 C17 1.361 . S
C19 C20 1.393 . S
C19 N23 1.413 . S
C20 H13 0.930 . S
C20 C19 1.393 . S
C20 C21 1.399 . S
C21 C20 1.399 . S
C21 C22 1.381 . S
C22 H14 0.930 . S
C22 C18 1.390 . S
C22 C21 1.381 . S
N23 C16 1.286 . S
N23 C19 1.413 . S
H24 C29 0.930 . S
H25 C32 0.930 . S
H26 C34 0.930 . S
H27 C28 1.016 . S
C28 H27 1.016 . S
C28 N35 1.286 . S
C29 H24 0.930 . S
C29 C30 1.397 . S
C29 C31 1.361 . S
C30 C29 1.397 . S
C30 C34 1.390 . S
C31 C29 1.361 . S
C31 C32 1.393 . S
C31 N35 1.413 . S
C32 H25 0.930 . S
C32 C31 1.393 . S
C32 C33 1.399 . S
C33 C32 1.399 . S
C33 C34 1.381 . S
C34 H26 0.930 . S
C34 C30 1.390 . S
C34 C33 1.381 . S
N35 C28 1.286 . S
N35 C31 1.413 . S
H36 C41 0.930 . S
H37 C44 0.930 . S
H38 C46 0.930 . S
H39 C40 1.016 . S
C40 H39 1.016 . S
C40 N47 1.286 . S
C41 H36 0.930 . S
C41 C42 1.397 . S
C41 C43 1.361 . S
C42 C41 1.397 . S
C42 C46 1.390 . S
C43 C41 1.361 . S
C43 C44 1.393 . S
C43 N47 1.413 . S
C44 H37 0.930 . S
C44 C43 1.393 . S
C44 C45 1.399 . S
C45 C44 1.399 . S
C45 C46 1.381 . S
C46 H38 0.930 . S
C46 C42 1.390 . S
C46 C45 1.381 . S
N47 C40 1.286 . S
N47 C43 1.413 . S
H48 C53 0.930 . S
H49 C56 0.930 . S
H50 C58 0.930 . S
H51 C52 1.016 . S
C52 H51 1.016 . S
C52 N59 1.286 . S
C53 H48 0.930 . S
C53 C54 1.397 . S
C53 C55 1.361 . S
C54 C53 1.397 . S
C54 C58 1.390 . S
C55 C53 1.361 . S
C55 C56 1.393 . S
C55 N59 1.413 . S
C56 H49 0.930 . S
C56 C55 1.393 . S
C56 C57 1.399 . S
C57 C56 1.399 . S
C57 C58 1.381 . S
C58 H50 0.930 . S
C58 C54 1.390 . S
C58 C57 1.381 . S
N59 C52 1.286 . S
N59 C55 1.413 . S
H60 C65 0.930 . S
H61 C68 0.930 . S
H62 C70 0.930 . S
H63 C64 1.016 . S
C64 H63 1.016 . S
C64 N71 1.286 . S
C65 H60 0.930 . S
C65 C66 1.397 . S
C65 C67 1.361 . S
C66 C65 1.397 . S
C66 C70 1.390 . S
C67 C65 1.361 . S
C67 C68 1.393 . S
C67 N71 1.413 . S
C68 H61 0.930 . S
C68 C67 1.393 . S
C68 C69 1.399 . S
C69 C68 1.399 . S
C69 C70 1.381 . S
C70 H62 0.930 . S
C70 C66 1.390 . S
C70 C69 1.381 . S
N71 C64 1.286 . S
N71 C67 1.413 . S
H72 C77 0.930 . S
H73 C80 0.930 . S
H74 C82 0.930 . S
H75 C76 1.016 . S
C76 H75 1.016 . S
C76 N83 1.286 . S
C77 H72 0.930 . S
C77 C78 1.397 . S
C77 C79 1.361 . S
C78 C77 1.397 . S
C78 C82 1.390 . S
C79 C77 1.361 . S
C79 C80 1.393 . S
C79 N83 1.413 . S
C80 H73 0.930 . S
C80 C79 1.393 . S
C80 C81 1.399 . S
C81 C80 1.399 . S
C81 C82 1.381 . S
C82 H74 0.930 . S
C82 C78 1.390 . S
C82 C81 1.381 . S
N83 C76 1.286 . S
N83 C79 1.413 . S
H84 C89 0.930 . S
H85 C92 0.930 . S
H86 C94 0.930 . S
H87 C88 1.016 . S
C88 H87 1.016 . S
C88 N95 1.286 . S
C89 H84 0.930 . S
C89 C90 1.397 . S
C89 C91 1.361 . S
C90 C89 1.397 . S
C90 C94 1.390 . S
C91 C89 1.361 . S
C91 C92 1.393 . S
C91 N95 1.413 . S
C92 H85 0.930 . S
C92 C91 1.393 . S
C92 C93 1.399 . S
C93 C92 1.399 . S
C93 C94 1.381 . S
C94 H86 0.930 . S
C94 C90 1.390 . S
C94 C93 1.381 . S
N95 C88 1.286 . S
N95 C91 1.413 . S
H96 C101 0.930 . S
H97 C104 0.930 . S
H98 C106 0.930 . S
H99 C100 1.016 . S
C100 H99 1.016 . S
C100 N107 1.286 . S
C101 H96 0.930 . S
C101 C102 1.397 . S
C101 C103 1.361 . S
C102 C101 1.397 . S
C102 C106 1.390 . S
C103 C101 1.361 . S
C103 C104 1.393 . S
C103 N107 1.413 . S
C104 H97 0.930 . S
C104 C103 1.393 . S
C104 C105 1.399 . S
C105 C104 1.399 . S
C105 C106 1.381 . S
C106 H98 0.930 . S
C106 C102 1.390 . S
C106 C105 1.381 . S
N107 C100 1.286 . S
N107 C103 1.413 . S
H108 C113 0.930 . S
H109 C116 0.930 . S
H110 C118 0.930 . S
H111 C112 1.016 . S
C112 H111 1.016 . S
C112 N119 1.286 . S
C113 H108 0.930 . S
C113 C114 1.397 . S
C113 C115 1.361 . S
C114 C113 1.397 . S
C114 C118 1.390 . S
C115 C113 1.361 . S
C115 C116 1.393 . S
C115 N119 1.413 . S
C116 H109 0.930 . S
C116 C115 1.393 . S
C116 C117 1.399 . S
C117 C116 1.399 . S
C117 C118 1.381 . S
C118 H110 0.930 . S
C118 C114 1.390 . S
C118 C117 1.381 . S
N119 C112 1.286 . S
N119 C115 1.413 . S
H120 C125 0.930 1_554 S
H121 C128 0.930 . S
H122 C130 0.930 . S
H123 C124 1.016 . S
C124 H123 1.016 . S
C124 N131 1.286 . S
C125 H120 0.930 1_556 S
C125 C126 1.397 . S
C125 C127 1.361 . S
C126 C125 1.397 . S
C126 C130 1.390 . S
C127 C125 1.361 . S
C127 C128 1.393 . S
C127 N131 1.413 . S
C128 H121 0.930 . S
C128 C127 1.393 . S
C128 C129 1.399 . S
C129 C128 1.399 . S
C129 C130 1.381 . S
C130 H122 0.930 . S
C130 C126 1.390 . S
C130 C129 1.381 . S
N131 C124 1.286 . S
N131 C127 1.413 . S
H132 C137 0.930 . S
H133 C140 0.930 . S
H134 C142 0.930 . S
H135 C136 1.016 . S
C136 H135 1.016 . S
C136 N143 1.286 . S
C137 H132 0.930 . S
C137 C138 1.397 . S
C137 C139 1.361 . S
C138 C137 1.397 . S
C138 C142 1.390 . S
C139 C137 1.361 . S
C139 C140 1.393 . S
C139 N143 1.413 . S
C140 H133 0.930 . S
C140 C139 1.393 . S
C140 C141 1.399 . S
C141 C140 1.399 . S
C141 C142 1.381 . S
C142 H134 0.930 . S
C142 C138 1.390 . S
C142 C141 1.381 . S
N143 C136 1.286 . S
N143 C139 1.413 . S
H144 C149 0.930 . S
H145 C152 0.930 . S
H146 C154 0.930 . S
H147 C148 1.016 . S
C148 H147 1.016 . S
C148 N155 1.286 . S
C149 H144 0.930 . S
C149 C150 1.397 . S
C149 C151 1.361 . S
C150 C149 1.397 . S
C150 C154 1.390 . S
C151 C149 1.361 . S
C151 C152 1.393 . S
C151 N155 1.413 . S
C152 H145 0.930 . S
C152 C151 1.393 . S
C152 C153 1.399 . S
C153 C152 1.399 . S
C153 C154 1.381 . S
C154 H146 0.930 . S
C154 C150 1.390 . S
C154 C153 1.381 . S
N155 C148 1.286 . S
N155 C151 1.413 . S
H156 C161 0.930 . S
H157 C164 0.930 . S
H158 C166 0.930 . S
H159 C160 1.016 . S
C160 H159 1.016 . S
C160 N167 1.286 . S
C161 H156 0.930 . S
C161 C162 1.397 . S
C161 C163 1.361 . S
C162 C161 1.397 . S
C162 C166 1.390 . S
C163 C161 1.361 . S
C163 C164 1.393 . S
C163 N167 1.413 . S
C164 H157 0.930 . S
C164 C163 1.393 . S
C164 C165 1.399 . S
C165 C164 1.399 . S
C165 C166 1.381 . S
C166 H158 0.930 . S
C166 C162 1.390 . S
C166 C165 1.381 . S
N167 C160 1.286 . S
N167 C163 1.413 . S
H168 C173 0.930 . S
H169 C176 0.930 . S
H170 C178 0.930 . S
H171 C172 1.016 . S
C172 H171 1.016 . S
C172 N179 1.286 . S
C173 H168 0.930 . S
C173 C174 1.397 . S
C173 C175 1.361 . S
C174 C173 1.397 . S
C174 C178 1.390 . S
C175 C173 1.361 . S
C175 C176 1.393 . S
C175 N179 1.413 . S
C176 H169 0.930 . S
C176 C175 1.393 . S
C176 C177 1.399 . S
C177 C176 1.399 . S
C177 C178 1.381 . S
C178 H170 0.930 . S
C178 C174 1.390 . S
C178 C177 1.381 . S
N179 C172 1.286 . S
N179 C175 1.413 . S
H180 C185 0.930 . S
H181 C188 0.930 . S
H182 C190 0.930 . S
H183 C184 1.016 . S
C184 H183 1.016 . S
C184 N191 1.286 . S
C185 H180 0.930 . S
C185 C186 1.397 . S
C185 C187 1.361 . S
C186 C185 1.397 . S
C186 C190 1.390 . S
C187 C185 1.361 . S
C187 C188 1.393 . S
C187 N191 1.413 . S
C188 H181 0.930 . S
C188 C187 1.393 . S
C188 C189 1.399 . S
C189 C188 1.399 . S
C189 C190 1.381 . S
C190 H182 0.930 . S
C190 C186 1.390 . S
C190 C189 1.381 . S
N191 C184 1.286 . S
N191 C187 1.413 . S
H192 C197 0.930 . S
H193 C200 0.930 . S
H194 C202 0.930 . S
H195 C196 1.016 . S
C196 H195 1.016 . S
C196 N203 1.286 . S
C197 H192 0.930 . S
C197 C198 1.397 . S
C197 C199 1.361 . S
C198 C197 1.397 . S
C198 C202 1.390 . S
C199 C197 1.361 . S
C199 C200 1.393 . S
C199 N203 1.413 . S
C200 H193 0.930 . S
C200 C199 1.393 . S
C200 C201 1.399 . S
C201 C200 1.399 . S
C201 C202 1.381 . S
C202 H194 0.930 . S
C202 C198 1.390 . S
C202 C201 1.381 . S
N203 C196 1.286 . S
N203 C199 1.413 . S
H204 C209 0.930 . S
H205 C212 0.930 . S
H206 C214 0.930 . S
H207 C208 1.016 . S
C208 H207 1.016 . S
C208 N215 1.286 . S
C209 H204 0.930 . S
C209 C210 1.397 . S
C209 C211 1.361 . S
C210 C209 1.397 . S
C210 C214 1.390 . S
C211 C209 1.361 . S
C211 C212 1.393 . S
C211 N215 1.413 . S
C212 H205 0.930 . S
C212 C211 1.393 . S
C212 C213 1.399 . S
C213 C212 1.399 . S
C213 C214 1.381 . S
C214 H206 0.930 . S
C214 C210 1.390 . S
C214 C213 1.381 . S
N215 C208 1.286 . S
N215 C211 1.413 . S
C216 Eu217 2.835 . S
C216 C218 1.500 1_545 S
C216 O236 1.257 1_545 S
C216 O237 1.260 . S
Eu217 C216 2.835 . S
Eu217 O236 2.473 1_545 S
Eu217 O237 2.480 . S
Eu217 O238 2.430 . S
Eu217 O239 2.670 1_554 S
Eu217 O240 2.394 1_545 S
Eu217 O245 2.355 1_545 S
Eu217 O247 2.374 . S
C218 C216 1.500 1_565 S
C218 C219 1.377 1_565 S
C218 C223 1.377 . S
C219 C218 1.377 1_545 S
C219 C220 1.395 . S
C219 H248 0.931 . S
C220 C219 1.395 . S
C220 C221 1.383 1_545 S
C220 H249 0.931 . S
C221 C220 1.383 1_565 S
C221 C222 1.394 . S
C222 C221 1.394 . S
C222 C223 1.378 . S
C222 H250 0.931 . S
C223 C218 1.377 . S
C223 C222 1.378 . S
C223 H251 0.931 . S
C224 O238 1.259 . S
C224 O239 1.270 1_554 S
C225 O240 1.251 . S
C225 O241 1.251 1_554 S
C226 Eu227 2.835 1_545 S
C226 C228 1.500 . S
C226 O242 1.257 . S
C226 O243 1.260 1_545 S
Eu227 C226 2.835 1_565 S
Eu227 O239 2.355 1_565 S
Eu227 O241 2.374 . S
Eu227 O242 2.473 1_565 S
Eu227 O243 2.480 . S
Eu227 O244 2.430 . S
Eu227 O245 2.670 1_556 S
Eu227 O246 2.394 1_565 S
C228 C226 1.500 . S
C228 C229 1.377 1_545 S
C228 C233 1.377 . S
C229 C228 1.377 1_565 S
C229 C230 1.395 1_565 S
C229 H252 0.931 . S
C230 C229 1.395 1_545 S
C230 C231 1.383 . S
C230 H253 0.931 1_545 S
C231 C230 1.383 . S
C231 C232 1.394 . S
C232 C231 1.394 . S
C232 C233 1.378 . S
C232 H254 0.931 . S
C233 C228 1.377 . S
C233 C232 1.378 . S
C233 H255 0.931 . S
C234 O244 1.259 1_554 S
C234 O245 1.270 . S
C235 O246 1.251 . S
C235 O247 1.251 1_556 S
O236 C216 1.257 1_565 S
O236 Eu217 2.473 1_565 S
O237 C216 1.260 . S
O237 Eu217 2.480 . S
O238 Eu217 2.430 . S
O238 C224 1.259 . S
O239 Eu217 2.670 1_556 S
O239 C224 1.270 1_556 S
O239 Eu227 2.355 1_545 S
O240 Eu217 2.394 1_565 S
O240 C225 1.251 . S
O241 C225 1.251 1_556 S
O241 Eu227 2.374 . S
O242 C226 1.257 . S
O242 Eu227 2.473 1_545 S
O243 C226 1.260 1_565 S
O243 Eu227 2.480 . S
O244 Eu227 2.430 . S
O244 C234 1.259 1_556 S
O245 Eu217 2.355 1_565 S
O245 Eu227 2.670 1_554 S
O245 C234 1.270 . S
O246 Eu227 2.394 1_545 S
O246 C235 1.251 . S
O247 Eu217 2.374 . S
O247 C235 1.251 1_554 S
H248 C219 0.931 . S
H249 C220 0.931 . S
H250 C222 0.931 . S
H251 C223 0.931 . S
H252 C229 0.931 . S
H253 C230 0.931 1_565 S
H254 C232 0.931 . S
H255 C233 0.931 . S
C256 Eu257 2.835 1_455 S
C256 C258 1.500 . S
C256 O276 1.257 . S
C256 O277 1.260 1_455 S
Eu257 C256 2.835 1_655 S
Eu257 O276 2.473 1_655 S
Eu257 O277 2.480 . S
Eu257 O278 2.430 . S
Eu257 O279 2.670 1_554 S
Eu257 O280 2.394 1_655 S
Eu257 O285 2.355 1_655 S
Eu257 O287 2.374 . S
C258 C256 1.500 . S
C258 C259 1.377 . S
C258 C263 1.377 . S
C259 C258 1.377 . S
C259 C260 1.395 . S
C259 H288 0.931 1_455 S
C260 C259 1.395 . S
C260 C261 1.383 . S
C260 H289 0.923 1_455 S
C261 C260 1.383 . S
C261 C262 1.394 . S
C262 C261 1.394 . S
C262 C263 1.378 . S
C262 H290 0.931 . S
C263 C258 1.377 . S
C263 C262 1.378 . S
C263 H291 0.931 . S
C264 O278 1.259 1_556 S
C264 O279 1.270 . S
C265 O280 1.251 . S
C265 O281 1.256 1_554 S
C266 Eu267 2.835 1_655 S
C266 C268 1.500 . S
C266 O282 1.257 . S
C266 O283 1.260 1_655 S
Eu267 C266 2.835 1_455 S
Eu267 O279 2.355 1_455 S
Eu267 O281 2.371 . S
Eu267 O282 2.473 1_455 S
Eu267 O283 2.480 . S
Eu267 O284 2.430 . S
Eu267 O285 2.670 1_556 S
Eu267 O286 2.394 1_455 S
C268 C266 1.500 . S
C268 C269 1.377 1_655 S
C268 C273 1.377 . S
C269 C268 1.377 1_455 S
C269 C270 1.395 1_455 S
C269 H292 0.931 . S
C270 C269 1.395 1_655 S
C270 C271 1.383 . S
C270 H293 0.931 1_655 S
C271 C270 1.383 . S
C271 C272 1.394 . S
C272 C271 1.394 . S
C272 C273 1.378 . S
C272 H294 0.931 . S
C273 C268 1.377 . S
C273 C272 1.378 . S
C273 H295 0.931 . S
C274 O284 1.259 1_554 S
C274 O285 1.270 . S
C275 O286 1.251 . S
C275 O287 1.251 1_556 S
O276 C256 1.257 . S
O276 Eu257 2.473 1_455 S
O277 C256 1.260 1_655 S
O277 Eu257 2.480 . S
O278 Eu257 2.430 . S
O278 C264 1.259 1_554 S
O279 Eu257 2.670 1_556 S
O279 C264 1.270 . S
O279 Eu267 2.355 1_655 S
O280 Eu257 2.394 1_455 S
O280 C265 1.251 . S
O281 C265 1.256 1_556 S
O281 Eu267 2.371 . S
O282 C266 1.257 . S
O282 Eu267 2.473 1_655 S
O283 C266 1.260 1_455 S
O283 Eu267 2.480 . S
O284 Eu267 2.430 . S
O284 C274 1.259 1_556 S
O285 Eu257 2.355 1_455 S
O285 Eu267 2.670 1_554 S
O285 C274 1.270 . S
O286 Eu267 2.394 1_655 S
O286 C275 1.251 . S
O287 Eu257 2.374 . S
O287 C275 1.251 1_554 S
H288 C259 0.931 1_655 S
H289 C260 0.923 1_655 S
H290 C262 0.931 . S
H291 C263 0.931 . S
H292 C269 0.931 . S
H293 C270 0.931 1_455 S
H294 C272 0.931 . S
H295 C273 0.931 . S
C296 Eu297 2.835 . S
C296 C298 1.500 . S
C296 O316 1.257 . S
C296 O317 1.260 . S
Eu297 C296 2.835 . S
Eu297 O316 2.473 . S
Eu297 O317 2.480 . S
Eu297 O318 2.430 . S
Eu297 O319 2.670 1_556 S
Eu297 O320 2.394 . S
Eu297 O325 2.355 . S
Eu297 O327 2.374 1_556 S
C298 C296 1.500 . S
C298 C299 1.377 . S
C298 C303 1.377 . S
C299 C298 1.377 . S
C299 C300 1.395 . S
C299 H328 0.931 . S
C300 C299 1.395 . S
C300 C301 1.383 . S
C300 H329 0.931 . S
C301 C300 1.383 . S
C301 C302 1.394 . S
C302 C301 1.394 . S
C302 C303 1.378 . S
C302 H330 0.931 . S
C303 C298 1.377 . S
C303 C302 1.378 . S
C303 H331 0.931 . S
C304 O318 1.259 1_554 S
C304 O319 1.270 . S
C305 O320 1.251 . S
C305 O321 1.251 1_556 S
C306 Eu307 2.835 . S
C306 C308 1.500 . S
C306 O322 1.257 . S
C306 O323 1.260 . S
Eu307 C306 2.835 . S
Eu307 O319 2.355 . S
Eu307 O321 2.374 . S
Eu307 O322 2.473 . S
Eu307 O323 2.480 . S
Eu307 O324 2.430 . S
Eu307 O325 2.670 1_554 S
Eu307 O326 2.394 . S
C308 C306 1.500 . S
C308 C309 1.377 . S
C308 C313 1.377 . S
C309 C308 1.377 . S
C309 C310 1.395 . S
C309 H332 0.931 . S
C310 C309 1.395 . S
C310 C311 1.383 . S
C310 H333 0.931 . S
C311 C310 1.383 . S
C311 C312 1.394 . S
C312 C311 1.394 . S
C312 C313 1.378 . S
C312 H334 0.931 . S
C313 C308 1.377 . S
C313 C312 1.378 . S
C313 H335 0.931 . S
C314 O324 1.259 . S
C314 O325 1.270 1_554 S
C315 O326 1.251 . S
C315 O327 1.251 . S
O316 C296 1.257 . S
O316 Eu297 2.473 . S
O317 C296 1.260 . S
O317 Eu297 2.480 . S
O318 Eu297 2.430 . S
O318 C304 1.259 1_556 S
O319 Eu297 2.670 1_554 S
O319 C304 1.270 . S
O319 Eu307 2.355 . S
O320 Eu297 2.394 . S
O320 C305 1.251 . S
O321 C305 1.251 1_554 S
O321 Eu307 2.374 . S
O322 C306 1.257 . S
O322 Eu307 2.473 . S
O323 C306 1.260 . S
O323 Eu307 2.480 . S
O324 Eu307 2.430 . S
O324 C314 1.259 . S
O325 Eu297 2.355 . S
O325 Eu307 2.670 1_556 S
O325 C314 1.270 1_556 S
O326 Eu307 2.394 . S
O326 C315 1.251 . S
O327 Eu297 2.374 1_554 S
O327 C315 1.251 . S
H328 C299 0.931 . S
H329 C300 0.931 . S
H330 C302 0.931 . S
H331 C303 0.931 . S
H332 C309 0.931 . S
H333 C310 0.931 . S
H334 C312 0.931 . S
H335 C313 0.931 . S
C336 Eu337 2.835 . S
C336 C338 1.500 . S
C336 O356 1.257 . S
C336 O357 1.260 . S
Eu337 C336 2.835 . S
Eu337 O356 2.473 . S
Eu337 O357 2.480 . S
Eu337 O358 2.430 . S
Eu337 O359 2.670 . S
Eu337 O360 2.394 . S
Eu337 O365 2.355 . S
Eu337 O367 2.374 . S
C338 C336 1.500 . S
C338 C339 1.377 . S
C338 C343 1.377 . S
C339 C338 1.377 . S
C339 C340 1.395 . S
C339 H368 0.931 . S
C340 C339 1.395 . S
C340 C341 1.383 . S
C340 H369 0.931 . S
C341 C340 1.383 . S
C341 C342 1.394 . S
C342 C341 1.394 . S
C342 C343 1.378 . S
C342 H370 0.931 . S
C343 C338 1.377 . S
C343 C342 1.378 . S
C343 H371 0.931 . S
C344 O358 1.259 . S
C344 O359 1.270 . S
C345 O360 1.251 . S
C345 O361 1.251 . S
C346 Eu347 2.835 . S
C346 C348 1.500 . S
C346 O362 1.257 . S
C346 O363 1.260 . S
Eu347 C346 2.835 . S
Eu347 O359 2.355 . S
Eu347 O361 2.374 . S
Eu347 O362 2.473 . S
Eu347 O363 2.480 . S
Eu347 O364 2.430 . S
Eu347 O365 2.670 . S
Eu347 O366 2.394 . S
C348 C346 1.500 . S
C348 C349 1.377 . S
C348 C353 1.377 . S
C349 C348 1.377 . S
C349 C350 1.395 . S
C349 H372 0.931 . S
C350 C349 1.395 . S
C350 C351 1.383 . S
C350 H373 0.931 . S
C351 C350 1.383 . S
C351 C352 1.394 . S
C352 C351 1.394 . S
C352 C353 1.378 . S
C352 H374 0.931 . S
C353 C348 1.377 . S
C353 C352 1.378 . S
C353 H375 0.931 . S
C354 O364 1.259 . S
C354 O365 1.270 . S
C355 O366 1.251 . S
C355 O367 1.251 . S
O356 C336 1.257 . S
O356 Eu337 2.473 . S
O357 C336 1.260 . S
O357 Eu337 2.480 . S
O358 Eu337 2.430 . S
O358 C344 1.259 . S
O359 Eu337 2.670 . S
O359 C344 1.270 . S
O359 Eu347 2.355 . S
O360 Eu337 2.394 . S
O360 C345 1.251 . S
O361 C345 1.251 . S
O361 Eu347 2.374 . S
O362 C346 1.257 . S
O362 Eu347 2.473 . S
O363 C346 1.260 . S
O363 Eu347 2.480 . S
O364 Eu347 2.430 . S
O364 C354 1.259 . S
O365 Eu337 2.355 . S
O365 Eu347 2.670 . S
O365 C354 1.270 . S
O366 Eu347 2.394 . S
O366 C355 1.251 . S
O367 Eu337 2.374 . S
O367 C355 1.251 . S
H368 C339 0.931 . S
H369 C340 0.931 . S
H370 C342 0.931 . S
H371 C343 0.931 . S
H372 C349 0.931 . S
H373 C350 0.931 . S
H374 C352 0.931 . S
H375 C353 0.931 . S
C376 Eu377 2.835 . S
C376 C378 1.500 . S
C376 O396 1.257 . S
C376 O397 1.260 . S
Eu377 C376 2.835 . S
Eu377 O396 2.473 . S
Eu377 O397 2.480 . S
Eu377 O398 2.430 . S
Eu377 O399 2.670 . S
Eu377 O400 2.394 . S
Eu377 O405 2.355 . S
Eu377 O407 2.374 . S
C378 C376 1.500 . S
C378 C379 1.377 . S
C378 C383 1.377 . S
C379 C378 1.377 . S
C379 C380 1.395 . S
C379 H408 0.931 . S
C380 C379 1.395 . S
C380 C381 1.383 . S
C380 H409 0.931 . S
C381 C380 1.383 . S
C381 C382 1.394 . S
C382 C381 1.394 . S
C382 C383 1.378 . S
C382 H410 0.931 . S
C383 C378 1.377 . S
C383 C382 1.378 . S
C383 H411 0.931 . S
C384 O398 1.259 . S
C384 O399 1.270 . S
C385 O400 1.251 . S
C385 O401 1.251 . S
C386 Eu387 2.835 . S
C386 C388 1.500 . S
C386 O402 1.257 . S
C386 O403 1.260 . S
Eu387 C386 2.835 . S
Eu387 O399 2.355 . S
Eu387 O401 2.374 . S
Eu387 O402 2.473 . S
Eu387 O403 2.480 . S
Eu387 O404 2.430 . S
Eu387 O405 2.670 . S
Eu387 O406 2.394 . S
C388 C386 1.500 . S
C388 C389 1.377 . S
C388 C393 1.377 . S
C389 C388 1.377 . S
C389 C390 1.395 . S
C389 H412 0.931 . S
C390 C389 1.395 . S
C390 C391 1.383 . S
C390 H413 0.931 . S
C391 C390 1.383 . S
C391 C392 1.394 . S
C392 C391 1.394 . S
C392 C393 1.378 . S
C392 H414 0.931 . S
C393 C388 1.377 . S
C393 C392 1.378 . S
C393 H415 0.931 . S
C394 O404 1.259 . S
C394 O405 1.270 . S
C395 O406 1.251 . S
C395 O407 1.251 . S
O396 C376 1.257 . S
O396 Eu377 2.473 . S
O397 C376 1.260 . S
O397 Eu377 2.480 . S
O398 Eu377 2.430 . S
O398 C384 1.259 . S
O399 Eu377 2.670 . S
O399 C384 1.270 . S
O399 Eu387 2.355 . S
O400 Eu377 2.394 . S
O400 C385 1.251 . S
O401 C385 1.251 . S
O401 Eu387 2.374 . S
O402 C386 1.257 . S
O402 Eu387 2.473 . S
O403 C386 1.260 . S
O403 Eu387 2.480 . S
O404 Eu387 2.430 . S
O404 C394 1.259 . S
O405 Eu377 2.355 . S
O405 Eu387 2.670 . S
O405 C394 1.270 . S
O406 Eu387 2.394 . S
O406 C395 1.251 . S
O407 Eu377 2.374 . S
O407 C395 1.251 . S
H408 C379 0.931 . S
H409 C380 0.931 . S
H410 C382 0.931 . S
H411 C383 0.931 . S
H412 C389 0.931 . S
H413 C390 0.931 . S
H414 C392 0.931 . S
H415 C393 0.931 . S
C416 Eu417 2.835 . S
C416 C418 1.500 . S
C416 O436 1.257 . S
C416 O437 1.260 . S
Eu417 C416 2.835 . S
Eu417 O436 2.473 . S
Eu417 O437 2.480 . S
Eu417 O438 2.430 . S
Eu417 O439 2.670 . S
Eu417 O440 2.394 . S
Eu417 O445 2.355 . S
Eu417 O447 2.374 . S
C418 C416 1.500 . S
C418 C419 1.377 . S
C418 C423 1.377 . S
C419 C418 1.377 . S
C419 C420 1.395 . S
C419 H448 0.931 . S
C420 C419 1.395 . S
C420 C421 1.383 . S
C420 H449 0.931 . S
C421 C420 1.383 . S
C421 C422 1.394 . S
C422 C421 1.394 . S
C422 C423 1.378 . S
C422 H450 0.931 . S
C423 C418 1.377 . S
C423 C422 1.378 . S
C423 H451 0.931 . S
C424 O438 1.259 . S
C424 O439 1.270 . S
C425 O440 1.251 . S
C425 O441 1.251 . S
C426 Eu427 2.835 . S
C426 C428 1.500 . S
C426 O442 1.257 . S
C426 O443 1.260 . S
Eu427 C426 2.835 . S
Eu427 O439 2.355 . S
Eu427 O441 2.374 . S
Eu427 O442 2.473 . S
Eu427 O443 2.480 . S
Eu427 O444 2.430 . S
Eu427 O445 2.670 . S
Eu427 O446 2.394 . S
C428 C426 1.500 . S
C428 C429 1.377 . S
C428 C433 1.377 . S
C429 C428 1.377 . S
C429 C430 1.395 . S
C429 H452 0.931 . S
C430 C429 1.395 . S
C430 C431 1.383 . S
C430 H453 0.931 . S
C431 C430 1.383 . S
C431 C432 1.394 . S
C432 C431 1.394 . S
C432 C433 1.378 . S
C432 H454 0.931 . S
C433 C428 1.377 . S
C433 C432 1.378 . S
C433 H455 0.931 . S
C434 O444 1.259 . S
C434 O445 1.270 . S
C435 O446 1.251 . S
C435 O447 1.251 . S
O436 C416 1.257 . S
O436 Eu417 2.473 . S
O437 C416 1.260 . S
O437 Eu417 2.480 . S
O438 Eu417 2.430 . S
O438 C424 1.259 . S
O439 Eu417 2.670 . S
O439 C424 1.270 . S
O439 Eu427 2.355 . S
O440 Eu417 2.394 . S
O440 C425 1.251 . S
O441 C425 1.251 . S
O441 Eu427 2.374 . S
O442 C426 1.257 . S
O442 Eu427 2.473 . S
O443 C426 1.260 . S
O443 Eu427 2.480 . S
O444 Eu427 2.430 . S
O444 C434 1.259 . S
O445 Eu417 2.355 . S
O445 Eu427 2.670 . S
O445 C434 1.270 . S
O446 Eu427 2.394 . S
O446 C435 1.251 . S
O447 Eu417 2.374 . S
O447 C435 1.251 . S
H448 C419 0.931 . S
H449 C420 0.931 . S
H450 C422 0.931 . S
H451 C423 0.931 . S
H452 C429 0.931 . S
H453 C430 0.931 . S
H454 C432 0.931 . S
H455 C433 0.931 . S
C456 Eu457 2.835 . S
C456 C458 1.500 . S
C456 O476 1.257 . S
C456 O477 1.260 . S
Eu457 C456 2.835 . S
Eu457 O476 2.473 . S
Eu457 O477 2.480 . S
Eu457 O478 2.430 . S
Eu457 O479 2.670 . S
Eu457 O480 2.394 . S
Eu457 O485 2.355 . S
Eu457 O487 2.374 . S
C458 C456 1.500 . S
C458 C459 1.377 . S
C458 C463 1.377 . S
C459 C458 1.377 . S
C459 C460 1.395 . S
C459 H488 0.931 . S
C460 C459 1.395 . S
C460 C461 1.383 . S
C460 H489 0.931 . S
C461 C460 1.383 . S
C461 C462 1.394 . S
C462 C461 1.394 . S
C462 C463 1.378 . S
C462 H490 0.931 . S
C463 C458 1.377 . S
C463 C462 1.378 . S
C463 H491 0.931 . S
C464 O478 1.259 . S
C464 O479 1.270 . S
C465 O480 1.251 . S
C465 O481 1.251 . S
C466 Eu467 2.835 . S
C466 C468 1.500 . S
C466 O482 1.257 . S
C466 O483 1.260 . S
Eu467 C466 2.835 . S
Eu467 O479 2.355 . S
Eu467 O481 2.374 . S
Eu467 O482 2.473 . S
Eu467 O483 2.480 . S
Eu467 O484 2.430 . S
Eu467 O485 2.670 . S
Eu467 O486 2.394 . S
C468 C466 1.500 . S
C468 C469 1.377 . S
C468 C473 1.377 . S
C469 C468 1.377 . S
C469 C470 1.395 . S
C469 H492 0.931 . S
C470 C469 1.395 . S
C470 C471 1.383 . S
C470 H493 0.931 . S
C471 C470 1.383 . S
C471 C472 1.394 . S
C472 C471 1.394 . S
C472 C473 1.378 . S
C472 H494 0.931 . S
C473 C468 1.377 . S
C473 C472 1.378 . S
C473 H495 0.931 . S
C474 O484 1.259 . S
C474 O485 1.270 . S
C475 O486 1.251 . S
C475 O487 1.251 . S
O476 C456 1.257 . S
O476 Eu457 2.473 . S
O477 C456 1.260 . S
O477 Eu457 2.480 . S
O478 Eu457 2.430 . S
O478 C464 1.259 . S
O479 Eu457 2.670 . S
O479 C464 1.270 . S
O479 Eu467 2.355 . S
O480 Eu457 2.394 . S
O480 C465 1.251 . S
O481 C465 1.251 . S
O481 Eu467 2.374 . S
O482 C466 1.257 . S
O482 Eu467 2.473 . S
O483 C466 1.260 . S
O483 Eu467 2.480 . S
O484 Eu467 2.430 . S
O484 C474 1.259 . S
O485 Eu457 2.355 . S
O485 Eu467 2.670 . S
O485 C474 1.270 . S
O486 Eu467 2.394 . S
O486 C475 1.251 . S
O487 Eu457 2.374 . S
O487 C475 1.251 . S
H488 C459 0.931 . S
H489 C460 0.931 . S
H490 C462 0.931 . S
H491 C463 0.931 . S
H492 C469 0.931 . S
H493 C470 0.931 . S
H494 C472 0.931 . S
H495 C473 0.931 . S
C496 Eu497 2.835 . S
C496 C498 1.500 . S
C496 O516 1.257 . S
C496 O517 1.260 . S
Eu497 C496 2.835 . S
Eu497 O516 2.473 . S
Eu497 O517 2.480 . S
Eu497 O518 2.430 . S
Eu497 O519 2.670 . S
Eu497 O520 2.394 . S
Eu497 O525 2.355 . S
Eu497 O527 2.374 . S
C498 C496 1.500 . S
C498 C499 1.377 . S
C498 C503 1.377 . S
C499 C498 1.377 . S
C499 C500 1.395 . S
C499 H528 0.931 . S
C500 C499 1.395 . S
C500 C501 1.383 . S
C500 H529 0.931 . S
C501 C500 1.383 . S
C501 C502 1.394 . S
C502 C501 1.394 . S
C502 C503 1.378 . S
C502 H530 0.931 . S
C503 C498 1.377 . S
C503 C502 1.378 . S
C503 H531 0.931 . S
C504 O518 1.259 . S
C504 O519 1.270 . S
C505 O520 1.251 . S
C505 O521 1.251 . S
C506 Eu507 2.835 . S
C506 C508 1.500 . S
C506 O522 1.257 . S
C506 O523 1.260 . S
Eu507 C506 2.835 . S
Eu507 O519 2.355 . S
Eu507 O521 2.374 . S
Eu507 O522 2.473 . S
Eu507 O523 2.480 . S
Eu507 O524 2.430 . S
Eu507 O525 2.670 . S
Eu507 O526 2.394 . S
C508 C506 1.500 . S
C508 C509 1.377 . S
C508 C513 1.377 . S
C509 C508 1.377 . S
C509 C510 1.395 . S
C509 H532 0.931 . S
C510 C509 1.395 . S
C510 C511 1.383 . S
C510 H533 0.931 . S
C511 C510 1.383 . S
C511 C512 1.394 . S
C512 C511 1.394 . S
C512 C513 1.378 . S
C512 H534 0.931 . S
C513 C508 1.377 . S
C513 C512 1.378 . S
C513 H535 0.931 . S
C514 O524 1.259 . S
C514 O525 1.270 . S
C515 O526 1.251 . S
C515 O527 1.251 . S
O516 C496 1.257 . S
O516 Eu497 2.473 . S
O517 C496 1.260 . S
O517 Eu497 2.480 . S
O518 Eu497 2.430 . S
O518 C504 1.259 . S
O519 Eu497 2.670 . S
O519 C504 1.270 . S
O519 Eu507 2.355 . S
O520 Eu497 2.394 . S
O520 C505 1.251 . S
O521 C505 1.251 . S
O521 Eu507 2.374 . S
O522 C506 1.257 . S
O522 Eu507 2.473 . S
O523 C506 1.260 . S
O523 Eu507 2.480 . S
O524 Eu507 2.430 . S
O524 C514 1.259 . S
O525 Eu497 2.355 . S
O525 Eu507 2.670 . S
O525 C514 1.270 . S
O526 Eu507 2.394 . S
O526 C515 1.251 . S
O527 Eu497 2.374 . S
O527 C515 1.251 . S
H528 C499 0.931 . S
H529 C500 0.931 . S
H530 C502 0.931 . S
H531 C503 0.931 . S
H532 C509 0.931 . S
H533 C510 0.931 . S
H534 C512 0.931 . S
H535 C513 0.931 . S
C536 Eu537 2.835 . S
C536 C538 1.500 . S
C536 O556 1.257 . S
C536 O557 1.260 . S
Eu537 C536 2.835 . S
Eu537 O556 2.473 . S
Eu537 O557 2.480 . S
Eu537 O558 2.430 . S
Eu537 O559 2.670 . S
Eu537 O560 2.394 . S
Eu537 O565 2.355 . S
Eu537 O567 2.374 . S
C538 C536 1.500 . S
C538 C539 1.377 . S
C538 C543 1.377 . S
C539 C538 1.377 . S
C539 C540 1.395 . S
C539 H568 0.931 . S
C540 C539 1.395 . S
C540 C541 1.383 . S
C540 H569 0.931 . S
C541 C540 1.383 . S
C541 C542 1.394 . S
C542 C541 1.394 . S
C542 C543 1.378 . S
C542 H570 0.931 . S
C543 C538 1.377 . S
C543 C542 1.378 . S
C543 H571 0.931 . S
C544 O558 1.259 . S
C544 O559 1.270 . S
C545 O560 1.251 . S
C545 O561 1.251 . S
C546 Eu547 2.835 . S
C546 C548 1.500 . S
C546 O562 1.257 . S
C546 O563 1.260 . S
Eu547 C546 2.835 . S
Eu547 O559 2.355 . S
Eu547 O561 2.374 . S
Eu547 O562 2.473 . S
Eu547 O563 2.480 . S
Eu547 O564 2.430 . S
Eu547 O565 2.670 . S
Eu547 O566 2.394 . S
C548 C546 1.500 . S
C548 C549 1.377 . S
C548 C553 1.377 . S
C549 C548 1.377 . S
C549 C550 1.395 . S
C549 H572 0.931 . S
C550 C549 1.395 . S
C550 C551 1.383 . S
C550 H573 0.931 . S
C551 C550 1.383 . S
C551 C552 1.394 . S
C552 C551 1.394 . S
C552 C553 1.378 . S
C552 H574 0.931 . S
C553 C548 1.377 . S
C553 C552 1.378 . S
C553 H575 0.931 . S
C554 O564 1.259 . S
C554 O565 1.270 . S
C555 O566 1.251 . S
C555 O567 1.251 . S
O556 C536 1.257 . S
O556 Eu537 2.473 . S
O557 C536 1.260 . S
O557 Eu537 2.480 . S
O558 Eu537 2.430 . S
O558 C544 1.259 . S
O559 Eu537 2.670 . S
O559 C544 1.270 . S
O559 Eu547 2.355 . S
O560 Eu537 2.394 . S
O560 C545 1.251 . S
O561 C545 1.251 . S
O561 Eu547 2.374 . S
O562 C546 1.257 . S
O562 Eu547 2.473 . S
O563 C546 1.260 . S
O563 Eu547 2.480 . S
O564 Eu547 2.430 . S
O564 C554 1.259 . S
O565 Eu537 2.355 . S
O565 Eu547 2.670 . S
O565 C554 1.270 . S
O566 Eu547 2.394 . S
O566 C555 1.251 . S
O567 Eu537 2.374 . S
O567 C555 1.251 . S
H568 C539 0.931 . S
H569 C540 0.931 . S
H570 C542 0.931 . S
H571 C543 0.931 . S
H572 C549 0.931 . S
H573 C550 0.931 . S
H574 C552 0.931 . S
H575 C553 0.931 . S
C576 C577 1.387 . S
C576 H580 0.950 . S
C576 C585 1.390 . S
C577 C576 1.387 . S
C577 C579 1.387 . S
H578 C585 0.950 . S
C579 C577 1.387 . S
C579 C581 1.390 . S
C579 H583 0.950 . S
H580 C576 0.950 . S
C581 C579 1.390 . S
C581 C582 1.387 . S
C581 H584 0.950 . S
C582 C581 1.387 . S
C582 C585 1.387 . S
H583 C579 0.950 . S
H584 C581 0.950 . S
C585 C576 1.390 . S
C585 H578 0.950 . S
C585 C582 1.387 . S
C586 C587 1.387 . S
C586 H590 0.950 . S
C586 C595 1.390 . S
C587 C586 1.387 . S
C587 C589 1.387 . S
H588 C595 0.950 . S
C589 C587 1.387 . S
C589 C591 1.390 . S
C589 H593 0.950 . S
H590 C586 0.950 . S
C591 C589 1.390 . S
C591 C592 1.387 . S
C591 H594 0.950 . S
C592 C591 1.387 . S
C592 C595 1.387 . S
H593 C589 0.950 . S
H594 C591 0.950 . S
C595 C586 1.390 . S
C595 H588 0.950 . S
C595 C592 1.387 . S
C596 C597 1.387 . S
C596 H600 0.950 1_554 S
C596 C605 1.390 . S
C597 C596 1.387 . S
C597 C599 1.387 . S
H598 C605 0.950 1_556 S
C599 C597 1.387 . S
C599 C601 1.390 . S
C599 H603 0.950 . S
H600 C596 0.950 1_556 S
C601 C599 1.390 . S
C601 C602 1.387 . S
C601 H604 0.950 . S
C602 C601 1.387 . S
C602 C605 1.387 . S
H603 C599 0.950 . S
H604 C601 0.950 . S
C605 C596 1.390 . S
C605 H598 0.950 1_554 S
C605 C602 1.387 . S
C606 C607 1.387 . S
C606 H610 0.950 1_556 S
C606 C615 1.390 1_556 S
C607 C606 1.387 . S
C607 C609 1.387 . S
H608 C615 0.950 . S
C609 C607 1.387 . S
C609 C611 1.390 . S
C609 H613 0.950 . S
H610 C606 0.950 1_554 S
C611 C609 1.390 . S
C611 C612 1.387 . S
C611 H614 0.950 . S
C612 C611 1.387 . S
C612 C615 1.387 1_556 S
H613 C609 0.950 . S
H614 C611 0.950 . S
C615 C606 1.390 1_554 S
C615 H608 0.950 . S
C615 C612 1.387 1_554 S
C616 C617 1.387 . S
C616 H620 0.950 . S
C616 C625 1.390 . S
C617 C616 1.387 . S
C617 C619 1.387 . S
H618 C625 0.950 . S
C619 C617 1.387 . S
C619 C621 1.390 . S
C619 H623 0.950 . S
H620 C616 0.950 . S
C621 C619 1.390 . S
C621 C622 1.387 . S
C621 H624 0.950 . S
C622 C621 1.387 . S
C622 C625 1.387 . S
H623 C619 0.950 . S
H624 C621 0.950 . S
C625 C616 1.390 . S
C625 H618 0.950 . S
C625 C622 1.387 . S
C626 C627 1.387 . S
C626 H630 0.950 1_556 S
C626 C635 1.390 1_556 S
C627 C626 1.387 . S
C627 C629 1.387 . S
H628 C635 0.950 . S
C629 C627 1.387 . S
C629 C631 1.390 . S
C629 H633 0.950 . S
H630 C626 0.950 1_554 S
C631 C629 1.390 . S
C631 C632 1.387 . S
C631 H634 0.950 . S
C632 C631 1.387 . S
C632 C635 1.387 1_556 S
H633 C629 0.950 . S
H634 C631 0.950 . S
C635 C626 1.390 1_554 S
C635 H628 0.950 . S
C635 C632 1.387 1_554 S
C636 C637 1.388 1_554 S
C636 H640 0.950 . S
C636 C645 1.390 . S
C637 C636 1.388 1_556 S
C637 C639 1.387 . S
H638 C645 0.950 . S
C639 C637 1.387 . S
C639 C641 1.390 . S
C639 H643 0.950 . S
H640 C636 0.950 . S
C641 C639 1.390 . S
C641 C642 1.387 . S
C641 H644 0.950 . S
C642 C641 1.387 . S
C642 C645 1.387 1_556 S
H643 C639 0.950 . S
H644 C641 0.950 . S
C645 C636 1.390 . S
C645 H638 0.950 . S
C645 C642 1.387 1_554 S
C646 C647 1.387 . S
C646 H650 0.950 . S
C646 C655 1.390 . S
C647 C646 1.387 . S
C647 C649 1.387 . S
H648 C655 0.950 . S
C649 C647 1.387 . S
C649 C651 1.390 . S
C649 H653 0.962 . S
H650 C646 0.950 . S
C651 C649 1.390 . S
C651 C652 1.387 . S
C651 H654 0.950 1_556 S
C652 C651 1.387 . S
C652 C655 1.387 . S
H653 C649 0.962 . S
H654 C651 0.950 1_554 S
C655 C646 1.390 . S
C655 H648 0.950 . S
C655 C652 1.387 . S
C656 C657 1.387 . S
C656 H660 0.950 . S
C656 C665 1.390 . S
C657 C656 1.387 . S
C657 C659 1.387 1_556 S
H658 C665 0.950 . S
C659 C657 1.387 1_554 S
C659 C661 1.390 . S
C659 H663 0.950 . S
H660 C656 0.950 . S
C661 C659 1.390 . S
C661 C662 1.387 1_554 S
C661 H664 0.950 . S
C662 C661 1.387 1_556 S
C662 C665 1.387 . S
H663 C659 0.950 . S
H664 C661 0.950 . S
C665 C656 1.390 . S
C665 H658 0.950 . S
C665 C662 1.387 . S
C666 C667 1.387 . S
C666 H670 0.950 . S
C666 C675 1.390 . S
C667 C666 1.387 . S
C667 C669 1.387 . S
H668 C675 0.950 . S
C669 C667 1.387 . S
C669 C671 1.390 1_554 S
C669 H673 0.950 1_554 S
H670 C666 0.950 . S
C671 C669 1.390 1_556 S
C671 C672 1.387 1_556 S
C671 H674 0.950 . S
C672 C671 1.387 1_554 S
C672 C675 1.387 . S
H673 C669 0.950 1_556 S
H674 C671 0.950 . S
C675 C666 1.390 . S
C675 H668 0.950 . S
C675 C672 1.387 . S
C676 C677 1.387 . S
C676 H680 0.950 . S
C676 C685 1.390 . S
C677 C676 1.387 . S
C677 C679 1.387 . S
H678 C685 0.950 . S
C679 C677 1.387 . S
C679 C681 1.390 . S
C679 H683 0.950 . S
H680 C676 0.950 . S
C681 C679 1.390 . S
C681 C682 1.387 . S
C681 H684 0.950 . S
C682 C681 1.387 . S
C682 C685 1.387 . S
H683 C679 0.950 . S
H684 C681 0.950 . S
C685 C676 1.390 . S
C685 H678 0.950 . S
C685 C682 1.387 . S
C686 C687 1.387 . S
C686 H690 0.950 . S
C686 C695 1.390 . S
C687 C686 1.387 . S
C687 C689 1.387 1_554 S
H688 C695 0.950 . S
C689 C687 1.387 1_556 S
C689 C691 1.390 . S
C689 H693 0.950 . S
H690 C686 0.950 . S
C691 C689 1.390 . S
C691 C692 1.387 1_556 S
C691 H694 0.950 . S
C692 C691 1.387 1_554 S
C692 C695 1.387 . S
H693 C689 0.950 . S
H694 C691 0.950 . S
C695 C686 1.390 . S
C695 H688 0.950 . S
C695 C692 1.387 . S
C696 C697 1.387 . S
C696 H700 0.950 . S
C696 C705 1.390 1_655 S
C697 C696 1.387 . S
C697 C699 1.387 . S
H698 C705 0.950 . S
C699 C697 1.387 . S
C699 C701 1.390 . S
C699 H703 0.950 . S
H700 C696 0.950 . S
C701 C699 1.390 . S
C701 C702 1.387 1_655 S
C701 H704 0.950 . S
C702 C701 1.387 1_455 S
C702 C705 1.387 . S
H703 C699 0.950 . S
H704 C701 0.950 . S
C705 C696 1.390 1_455 S
C705 H698 0.950 . S
C705 C702 1.387 . S
C706 C707 1.387 . S
C706 H710 0.950 . S
C706 C715 1.390 . S
C707 C706 1.387 . S
C707 C709 1.387 . S
H708 C715 0.950 . S
C709 C707 1.387 . S
C709 C711 1.390 . S
C709 H713 0.950 . S
H710 C706 0.950 . S
C711 C709 1.390 . S
C711 C712 1.387 . S
C711 H714 0.950 . S
C712 C711 1.387 . S
C712 C715 1.387 . S
H713 C709 0.950 . S
H714 C711 0.950 . S
C715 C706 1.390 . S
C715 H708 0.950 . S
C715 C712 1.387 . S
C716 C717 1.387 . S
C716 H720 0.950 . S
C716 C725 1.390 . S
C717 C716 1.387 . S
C717 C719 1.387 . S
H718 C725 0.950 1_565 S
C719 C717 1.387 . S
C719 C721 1.390 . S
C719 H723 0.950 . S
H720 C716 0.950 . S
C721 C719 1.390 . S
C721 C722 1.387 1_545 S
C721 H724 0.950 1_545 S
C722 C721 1.387 1_565 S
C722 C725 1.387 1_565 S
H723 C719 0.950 . S
H724 C721 0.950 1_565 S
C725 C716 1.390 . S
C725 H718 0.950 1_545 S
C725 C722 1.387 1_545 S
C726 C727 1.387 . S
C726 H730 0.950 . S
C726 C735 1.390 . S
C727 C726 1.387 . S
C727 C729 1.387 . S
H728 C735 0.950 . S
C729 C727 1.387 . S
C729 C731 1.390 . S
C729 H733 0.950 . S
H730 C726 0.950 . S
C731 C729 1.390 . S
C731 C732 1.387 . S
C731 H734 0.950 . S
C732 C731 1.387 . S
C732 C735 1.387 . S
H733 C729 0.950 . S
H734 C731 0.950 . S
C735 C726 1.390 . S
C735 H728 0.950 . S
C735 C732 1.387 . S
C736 C737 1.387 . S
C736 H740 0.950 . S
C736 C745 1.390 . S
C737 C736 1.387 . S
C737 C739 1.387 . S
H738 C745 0.950 . S
C739 C737 1.387 . S
C739 C741 1.390 . S
C739 H743 0.950 . S
H740 C736 0.950 . S
C741 C739 1.390 . S
C741 C742 1.387 . S
C741 H744 0.950 . S
C742 C741 1.387 . S
C742 C745 1.387 . S
H743 C739 0.950 . S
H744 C741 0.950 . S
C745 C736 1.390 . S
C745 H738 0.950 . S
C745 C742 1.387 . S
C746 C747 1.387 . S
C746 H750 0.950 . S
C746 C755 1.390 . S
C747 C746 1.387 . S
C747 C749 1.387 . S
H748 C755 0.950 . S
C749 C747 1.387 . S
C749 C751 1.390 . S
C749 H753 0.950 . S
H750 C746 0.950 . S
C751 C749 1.390 . S
C751 C752 1.387 . S
C751 H754 0.950 . S
C752 C751 1.387 . S
C752 C755 1.387 . S
H753 C749 0.950 . S
H754 C751 0.950 . S
C755 C746 1.390 . S
C755 H748 0.950 . S
C755 C752 1.387 . S
C756 C757 1.387 . S
C756 H760 0.950 . S
C756 C765 1.390 . S
C757 C756 1.387 . S
C757 C759 1.387 . S
H758 C765 0.950 . S
C759 C757 1.387 . S
C759 C761 1.390 . S
C759 H763 0.950 . S
H760 C756 0.950 . S
C761 C759 1.390 . S
C761 C762 1.387 . S
C761 H764 0.950 . S
C762 C761 1.387 . S
C762 C765 1.387 . S
H763 C759 0.950 . S
H764 C761 0.950 . S
C765 C756 1.390 . S
C765 H758 0.950 . S
C765 C762 1.387 . S
C766 C767 1.387 . S
C766 H770 0.950 . S
C766 C775 1.390 . S
C767 C766 1.387 . S
C767 C769 1.387 . S
H768 C775 0.950 . S
C769 C767 1.387 . S
C769 C771 1.390 . S
C769 H773 0.950 . S
H770 C766 0.950 . S
C771 C769 1.390 . S
C771 C772 1.387 . S
C771 H774 0.950 . S
C772 C771 1.387 . S
C772 C775 1.387 . S
H773 C769 0.950 . S
H774 C771 0.950 . S
C775 C766 1.390 . S
C775 H768 0.950 . S
C775 C772 1.387 . S
C776 C777 1.387 . S
C776 H780 0.950 . S
C776 C785 1.390 . S
C777 C776 1.387 . S
C777 C779 1.387 . S
H778 C785 0.950 . S
C779 C777 1.387 . S
C779 C781 1.390 . S
C779 H783 0.950 . S
H780 C776 0.950 . S
C781 C779 1.390 . S
C781 C782 1.387 . S
C781 H784 0.950 . S
C782 C781 1.387 . S
C782 C785 1.387 . S
H783 C779 0.950 . S
H784 C781 0.950 . S
C785 C776 1.390 . S
C785 H778 0.950 . S
C785 C782 1.387 . S
C786 C787 1.387 1_565 S
C786 H790 0.950 . S
C786 C795 1.390 . S
C787 C786 1.387 1_545 S
C787 C789 1.387 1_545 S
H788 C795 0.950 . S
C789 C787 1.387 1_565 S
C789 C791 1.390 . S
C789 H793 0.950 . S
H790 C786 0.950 . S
C791 C789 1.390 . S
C791 C792 1.387 . S
C791 H794 0.950 . S
C792 C791 1.387 . S
C792 C795 1.387 . S
H793 C789 0.950 . S
H794 C791 0.950 . S
C795 C786 1.390 . S
C795 H788 0.950 . S
C795 C792 1.387 . S
C796 C797 1.387 . S
C796 H800 0.950 . S
C796 C805 1.390 . S
C797 C796 1.387 . S
C797 C799 1.387 . S
H798 C805 0.950 . S
C799 C797 1.387 . S
C799 C801 1.390 . S
C799 H803 0.950 . S
H800 C796 0.950 . S
C801 C799 1.390 . S
C801 C802 1.387 . S
C801 H804 0.950 . S
C802 C801 1.387 . S
C802 C805 1.387 . S
H803 C799 0.950 . S
H804 C801 0.950 . S
C805 C796 1.390 . S
C805 H798 0.950 . S
C805 C802 1.387 . S
C806 C807 1.387 . S
C806 H810 0.950 . S
C806 C815 1.390 . S
C807 C806 1.387 . S
C807 C809 1.387 . S
H808 C815 0.950 . S
C809 C807 1.387 . S
C809 C811 1.390 . S
C809 H813 0.950 . S
H810 C806 0.950 . S
C811 C809 1.390 . S
C811 C812 1.387 . S
C811 H814 0.950 . S
C812 C811 1.387 . S
C812 C815 1.387 . S
H813 C809 0.950 . S
H814 C811 0.950 . S
C815 C806 1.390 . S
C815 H808 0.950 . S
C815 C812 1.387 . S
C816 C817 1.387 . S
C816 H820 0.950 . S
C816 C825 1.390 . S
C817 C816 1.387 . S
C817 C819 1.387 . S
H818 C825 0.950 . S
C819 C817 1.387 . S
C819 C821 1.390 . S
C819 H823 0.950 . S
H820 C816 0.950 . S
C821 C819 1.390 . S
C821 C822 1.387 . S
C821 H824 0.950 . S
C822 C821 1.387 . S
C822 C825 1.387 . S
H823 C819 0.950 . S
H824 C821 0.950 . S
C825 C816 1.390 . S
C825 H818 0.950 . S
C825 C822 1.387 . S
C826 C827 1.387 . S
C826 H830 0.950 . S
C826 C835 1.390 . S
C827 C826 1.387 . S
C827 C829 1.387 . S
H828 C835 0.950 . S
C829 C827 1.387 . S
C829 C831 1.390 . S
C829 H833 0.950 . S
H830 C826 0.950 . S
C831 C829 1.390 . S
C831 C832 1.387 . S
C831 H834 0.950 . S
C832 C831 1.387 . S
C832 C835 1.387 . S
H833 C829 0.950 . S
H834 C831 0.950 . S
C835 C826 1.390 . S
C835 H828 0.950 . S
C835 C832 1.387 . S
C836 C837 1.387 . S
C836 H840 0.950 . S
C836 C845 1.390 . S
C837 C836 1.387 . S
C837 C839 1.387 . S
H838 C845 0.950 . S
C839 C837 1.387 . S
C839 C841 1.390 . S
C839 H843 0.950 . S
H840 C836 0.950 . S
C841 C839 1.390 . S
C841 C842 1.387 . S
C841 H844 0.950 . S
C842 C841 1.387 . S
C842 C845 1.387 . S
H843 C839 0.950 . S
H844 C841 0.950 . S
C845 C836 1.390 . S
C845 H838 0.950 . S
C845 C842 1.387 . S
C846 C847 1.387 . S
C846 H850 0.950 . S
C846 C855 1.390 1_565 S
C847 C846 1.387 . S
C847 C849 1.387 . S
H848 C855 0.950 . S
C849 C847 1.387 . S
C849 C851 1.386 1_565 S
C849 H853 0.950 . S
H850 C846 0.950 . S
C851 C849 1.386 1_545 S
C851 C852 1.391 . S
C851 H854 0.951 . S
C852 C851 1.391 . S
C852 C855 1.387 . S
H853 C849 0.950 . S
H854 C851 0.951 . S
C855 C846 1.390 1_545 S
C855 H848 0.950 . S
C855 C852 1.387 . S
C856 C857 1.387 . S
C856 H860 0.950 . S
C856 C865 1.390 1_455 S
C857 C856 1.387 . S
C857 C859 1.387 . S
H858 C865 0.950 . S
C859 C857 1.387 . S
C859 C861 1.403 . S
C859 H863 0.950 . S
H860 C856 0.950 . S
C861 C859 1.403 . S
C861 C862 1.376 1_455 S
C861 H864 0.948 1_455 S
C862 C861 1.376 1_655 S
C862 C865 1.387 . S
H863 C859 0.950 . S
H864 C861 0.948 1_655 S
C865 C856 1.390 1_655 S
C865 H858 0.950 . S
C865 C862 1.387 . S
C866 C867 1.387 . S
C866 H870 0.950 . S
C866 C875 1.390 . S
C867 C866 1.387 . S
C867 C869 1.387 . S
H868 C875 0.950 . S
C869 C867 1.387 . S
C869 C871 1.390 . S
C869 H873 0.950 . S
H870 C866 0.950 . S
C871 C869 1.390 . S
C871 C872 1.387 . S
C871 H874 0.950 . S
C872 C871 1.387 . S
C872 C875 1.387 . S
H873 C869 0.950 . S
H874 C871 0.950 . S
C875 C866 1.390 . S
C875 H868 0.950 . S
C875 C872 1.387 . S
C876 C877 1.387 . S
C876 H880 0.950 1_655 S
C876 C885 1.390 . S
C877 C876 1.387 . S
C877 C879 1.387 . S
H878 C885 0.950 . S
C879 C877 1.387 . S
C879 C881 1.390 . S
C879 H883 0.950 . S
H880 C876 0.950 1_455 S
C881 C879 1.390 . S
C881 C882 1.387 . S
C881 H884 0.950 . S
C882 C881 1.387 . S
C882 C885 1.387 . S
H883 C879 0.950 . S
H884 C881 0.950 . S
C885 C876 1.390 . S
C885 H878 0.950 . S
C885 C882 1.387 . S
C886 C887 1.387 . S
C886 H890 0.950 . S
C886 C895 1.390 . S
C887 C886 1.387 . S
C887 C889 1.387 . S
H888 C895 0.950 . S
C889 C887 1.387 . S
C889 C891 1.390 . S
C889 H893 0.950 . S
H890 C886 0.950 . S
C891 C889 1.390 . S
C891 C892 1.387 . S
C891 H894 0.950 . S
C892 C891 1.387 . S
C892 C895 1.387 . S
H893 C889 0.950 . S
H894 C891 0.950 . S
C895 C886 1.390 . S
C895 H888 0.950 . S
C895 C892 1.387 . S
C896 C897 1.387 . S
C896 H900 0.950 . S
C896 C905 1.390 . S
C897 C896 1.387 . S
C897 C899 1.387 . S
H898 C905 0.950 . S
C899 C897 1.387 . S
C899 C901 1.390 . S
C899 H903 0.950 . S
H900 C896 0.950 . S
C901 C899 1.390 . S
C901 C902 1.387 . S
C901 H904 0.950 . S
C902 C901 1.387 . S
C902 C905 1.387 . S
H903 C899 0.950 . S
H904 C901 0.950 . S
C905 C896 1.390 . S
C905 H898 0.950 . S
C905 C902 1.387 . S
C906 C907 1.387 . S
C906 H910 0.950 . S
C906 C915 1.390 . S
C907 C906 1.387 . S
C907 C909 1.387 . S
H908 C915 0.950 . S
C909 C907 1.387 . S
C909 C911 1.390 . S
C909 H913 0.950 . S
H910 C906 0.950 . S
C911 C909 1.390 . S
C911 C912 1.387 . S
C911 H914 0.950 . S
C912 C911 1.387 . S
C912 C915 1.387 . S
H913 C909 0.950 . S
H914 C911 0.950 . S
C915 C906 1.390 . S
C915 H908 0.950 . S
C915 C912 1.387 . S
C916 C917 1.387 . S
C916 H920 0.950 . S
C916 C925 1.390 . S
C917 C916 1.387 . S
C917 C919 1.387 . S
H918 C925 0.950 . S
C919 C917 1.387 . S
C919 C921 1.390 . S
C919 H923 0.950 . S
H920 C916 0.950 . S
C921 C919 1.390 . S
C921 C922 1.387 . S
C921 H924 0.950 . S
C922 C921 1.387 . S
C922 C925 1.387 . S
H923 C919 0.950 . S
H924 C921 0.950 . S
C925 C916 1.390 . S
C925 H918 0.950 . S
C925 C922 1.387 . S
C926 C927 1.387 . S
C926 H930 0.950 . S
C926 C935 1.390 . S
C927 C926 1.387 . S
C927 C929 1.387 . S
H928 C935 0.950 . S
C929 C927 1.387 . S
C929 C931 1.390 . S
C929 H933 0.950 . S
H930 C926 0.950 . S
C931 C929 1.390 . S
C931 C932 1.387 . S
C931 H934 0.950 . S
C932 C931 1.387 . S
C932 C935 1.387 . S
H933 C929 0.950 . S
H934 C931 0.950 . S
C935 C926 1.390 . S
C935 H928 0.950 . S
C935 C932 1.387 . S
C936 C937 1.387 . S
C936 H940 0.950 . S
C936 C945 1.390 . S
C937 C936 1.387 . S
C937 C939 1.387 . S
H938 C945 0.950 . S
C939 C937 1.387 . S
C939 C941 1.390 . S
C939 H943 0.950 . S
H940 C936 0.950 . S
C941 C939 1.390 . S
C941 C942 1.387 . S
C941 H944 0.950 . S
C942 C941 1.387 . S
C942 C945 1.387 . S
H943 C939 0.950 . S
H944 C941 0.950 . S
C945 C936 1.390 . S
C945 H938 0.950 . S
C945 C942 1.387 . S
C946 C947 1.387 . S
C946 H950 0.950 . S
C946 C955 1.390 . S
C947 C946 1.387 . S
C947 C949 1.387 . S
H948 C955 0.950 . S
C949 C947 1.387 . S
C949 C951 1.390 . S
C949 H953 0.950 . S
H950 C946 0.950 . S
C951 C949 1.390 . S
C951 C952 1.387 . S
C951 H954 0.950 . S
C952 C951 1.387 . S
C952 C955 1.387 . S
H953 C949 0.950 . S
H954 C951 0.950 . S
C955 C946 1.390 . S
C955 H948 0.950 . S
C955 C952 1.387 . S
C956 C957 1.387 . S
C956 H960 0.950 . S
C956 C965 1.390 . S
C957 C956 1.387 . S
C957 C959 1.387 . S
H958 C965 0.950 . S
C959 C957 1.387 . S
C959 C961 1.390 . S
C959 H963 0.950 . S
H960 C956 0.950 . S
C961 C959 1.390 . S
C961 C962 1.387 . S
C961 H964 0.950 . S
C962 C961 1.387 . S
C962 C965 1.387 . S
H963 C959 0.950 . S
H964 C961 0.950 . S
C965 C956 1.390 . S
C965 H958 0.950 . S
C965 C962 1.387 . S
C966 C967 1.387 . S
C966 H970 0.950 1_655 S
C966 C975 1.390 . S
C967 C966 1.387 . S
C967 C969 1.387 . S
H968 C975 0.950 1_455 S
C969 C967 1.387 . S
C969 C971 1.390 . S
C969 H973 0.950 . S
H970 C966 0.950 1_455 S
C971 C969 1.390 . S
C971 C972 1.387 . S
C971 H974 0.950 . S
C972 C971 1.387 . S
C972 C975 1.387 . S
H973 C969 0.950 . S
H974 C971 0.950 . S
C975 C966 1.390 . S
C975 H968 0.950 1_655 S
C975 C972 1.387 . S
C976 C977 1.387 . S
C976 H980 0.950 . S
C976 C985 1.390 . S
C977 C976 1.387 . S
C977 C979 1.387 . S
H978 C985 0.950 . S
C979 C977 1.387 . S
C979 C981 1.390 . S
C979 H983 0.950 . S
H980 C976 0.950 . S
C981 C979 1.390 . S
C981 C982 1.387 . S
C981 H984 0.950 . S
C982 C981 1.387 . S
C982 C985 1.387 . S
H983 C979 0.950 . S
H984 C981 0.950 . S
C985 C976 1.390 . S
C985 H978 0.950 . S
C985 C982 1.387 . S
C986 C987 1.387 . S
C986 H990 0.950 . S
C986 C995 1.390 . S
C987 C986 1.387 . S
C987 C989 1.387 . S
H988 C995 0.950 . S
C989 C987 1.387 . S
C989 C991 1.390 . S
C989 H993 0.950 . S
H990 C986 0.950 . S
C991 C989 1.390 . S
C991 C992 1.387 . S
C991 H994 0.950 . S
C992 C991 1.387 . S
C992 C995 1.387 . S
H993 C989 0.950 . S
H994 C991 0.950 . S
C995 C986 1.390 . S
C995 H988 0.950 . S
C995 C992 1.387 . S
C996 C997 1.387 . S
C996 H1000 0.950 . S
C996 C1005 1.390 . S
C997 C996 1.387 . S
C997 C999 1.387 . S
H998 C1005 0.950 . S
C999 C997 1.387 . S
C999 C1001 1.390 . S
C999 H1003 0.950 . S
H1000 C996 0.950 . S
C1001 C999 1.390 . S
C1001 C1002 1.387 . S
C1001 H1004 0.950 . S
C1002 C1001 1.387 . S
C1002 C1005 1.387 . S
H1003 C999 0.950 . S
H1004 C1001 0.950 . S
C1005 C996 1.390 . S
C1005 H998 0.950 . S
C1005 C1002 1.387 . S
C1006 C1007 1.387 . S
C1006 H1010 0.950 . S
C1006 C1015 1.390 . S
C1007 C1006 1.387 . S
C1007 C1009 1.387 . S
H1008 C1015 0.950 . S
C1009 C1007 1.387 . S
C1009 C1011 1.390 . S
C1009 H1013 0.950 . S
H1010 C1006 0.950 . S
C1011 C1009 1.390 . S
C1011 C1012 1.387 . S
C1011 H1014 0.950 . S
C1012 C1011 1.387 . S
C1012 C1015 1.387 . S
H1013 C1009 0.950 . S
H1014 C1011 0.950 . S
C1015 C1006 1.390 . S
C1015 H1008 0.950 . S
C1015 C1012 1.387 . S
C1016 C1017 1.387 . S
C1016 H1020 0.950 . S
C1016 C1025 1.390 . S
C1017 C1016 1.387 . S
C1017 C1019 1.387 . S
H1018 C1025 0.950 . S
C1019 C1017 1.387 . S
C1019 C1021 1.390 . S
C1019 H1023 0.950 . S
H1020 C1016 0.950 . S
C1021 C1019 1.390 . S
C1021 C1022 1.387 . S
C1021 H1024 0.950 . S
C1022 C1021 1.387 . S
C1022 C1025 1.387 . S
H1023 C1019 0.950 . S
H1024 C1021 0.950 . S
C1025 C1016 1.390 . S
C1025 H1018 0.950 . S
C1025 C1022 1.387 . S
C1026 C1027 1.387 . S
C1026 H1030 0.950 . S
C1026 C1035 1.390 . S
C1027 C1026 1.387 . S
C1027 C1029 1.387 . S
H1028 C1035 0.950 . S
C1029 C1027 1.387 . S
C1029 C1031 1.390 . S
C1029 H1033 0.950 . S
H1030 C1026 0.950 . S
C1031 C1029 1.390 . S
C1031 C1032 1.387 . S
C1031 H1034 0.950 . S
C1032 C1031 1.387 . S
C1032 C1035 1.387 . S
H1033 C1029 0.950 . S
H1034 C1031 0.950 . S
C1035 C1026 1.390 . S
C1035 H1028 0.950 . S
C1035 C1032 1.387 . S
C1036 C1037 1.387 . S
C1036 H1040 0.950 . S
C1036 C1045 1.390 . S
C1037 C1036 1.387 . S
C1037 C1039 1.387 . S
H1038 C1045 0.950 . S
C1039 C1037 1.387 . S
C1039 C1041 1.390 . S
C1039 H1043 0.950 . S
H1040 C1036 0.950 . S
C1041 C1039 1.390 . S
C1041 C1042 1.387 . S
C1041 H1044 0.950 . S
C1042 C1041 1.387 . S
C1042 C1045 1.387 . S
H1043 C1039 0.950 . S
H1044 C1041 0.950 . S
C1045 C1036 1.390 . S
C1045 H1038 0.950 . S
C1045 C1042 1.387 . S
C1046 C1047 1.387 . S
C1046 H1050 0.950 . S
C1046 C1055 1.390 . S
C1047 C1046 1.387 . S
C1047 C1049 1.387 . S
H1048 C1055 0.950 . S
C1049 C1047 1.387 . S
C1049 C1051 1.390 . S
C1049 H1053 0.950 . S
H1050 C1046 0.950 . S
C1051 C1049 1.390 . S
C1051 C1052 1.387 . S
C1051 H1054 0.950 . S
C1052 C1051 1.387 . S
C1052 C1055 1.387 . S
H1053 C1049 0.950 . S
H1054 C1051 0.950 . S
C1055 C1046 1.390 . S
C1055 H1048 0.950 . S
C1055 C1052 1.387 . S
C1056 C1057 1.387 . S
C1056 H1060 0.950 . S
C1056 C1065 1.390 . S
C1057 C1056 1.387 . S
C1057 C1059 1.387 . S
H1058 C1065 0.950 . S
C1059 C1057 1.387 . S
C1059 C1061 1.390 . S
C1059 H1063 0.950 . S
H1060 C1056 0.950 . S
C1061 C1059 1.390 . S
C1061 C1062 1.387 . S
C1061 H1064 0.950 . S
C1062 C1061 1.387 . S
C1062 C1065 1.387 . S
H1063 C1059 0.950 . S
H1064 C1061 0.950 . S
C1065 C1056 1.390 . S
C1065 H1058 0.950 . S
C1065 C1062 1.387 . S
C1066 C1067 1.387 . S
C1066 H1070 0.950 . S
C1066 C1075 1.390 . S
C1067 C1066 1.387 . S
C1067 C1069 1.387 . S
H1068 C1075 0.950 . S
C1069 C1067 1.387 . S
C1069 C1071 1.390 . S
C1069 H1073 0.950 . S
H1070 C1066 0.950 . S
C1071 C1069 1.390 . S
C1071 C1072 1.387 . S
C1071 H1074 0.950 . S
C1072 C1071 1.387 . S
C1072 C1075 1.387 . S
H1073 C1069 0.950 . S
H1074 C1071 0.950 . S
C1075 C1066 1.390 . S
C1075 H1068 0.950 . S
C1075 C1072 1.387 . S
C1076 C1077 1.387 . S
C1076 H1080 0.950 . S
C1076 C1085 1.390 . S
C1077 C1076 1.387 . S
C1077 C1079 1.387 . S
H1078 C1085 0.950 . S
C1079 C1077 1.387 . S
C1079 C1081 1.390 . S
C1079 H1083 0.950 . S
H1080 C1076 0.950 . S
C1081 C1079 1.390 . S
C1081 C1082 1.387 . S
C1081 H1084 0.950 . S
C1082 C1081 1.387 . S
C1082 C1085 1.387 . S
H1083 C1079 0.950 . S
H1084 C1081 0.950 . S
C1085 C1076 1.390 . S
C1085 H1078 0.950 . S
C1085 C1082 1.387 . S
C1086 C1087 1.387 . S
C1086 H1090 0.950 . S
C1086 C1095 1.390 . S
C1087 C1086 1.387 . S
C1087 C1089 1.387 . S
H1088 C1095 0.950 . S
C1089 C1087 1.387 . S
C1089 C1091 1.390 . S
C1089 H1093 0.950 . S
H1090 C1086 0.950 . S
C1091 C1089 1.390 . S
C1091 C1092 1.387 . S
C1091 H1094 0.950 . S
C1092 C1091 1.387 . S
C1092 C1095 1.387 . S
H1093 C1089 0.950 . S
H1094 C1091 0.950 . S
C1095 C1086 1.390 . S
C1095 H1088 0.950 . S
C1095 C1092 1.387 . S
C1096 C1097 1.387 . S
C1096 H1100 0.950 . S
C1096 C1105 1.390 . S
C1097 C1096 1.387 . S
C1097 C1099 1.387 . S
H1098 C1105 0.950 . S
C1099 C1097 1.387 . S
C1099 C1101 1.390 . S
C1099 H1103 0.950 . S
H1100 C1096 0.950 . S
C1101 C1099 1.390 . S
C1101 C1102 1.387 . S
C1101 H1104 0.950 . S
C1102 C1101 1.387 . S
C1102 C1105 1.387 . S
H1103 C1099 0.950 . S
H1104 C1101 0.950 . S
C1105 C1096 1.390 . S
C1105 H1098 0.950 . S
C1105 C1102 1.387 . S
C1106 C1107 1.387 . S
C1106 H1110 0.950 . S
C1106 C1115 1.390 . S
C1107 C1106 1.387 . S
C1107 C1109 1.387 . S
H1108 C1115 0.950 . S
C1109 C1107 1.387 . S
C1109 C1111 1.390 . S
C1109 H1113 0.950 . S
H1110 C1106 0.950 . S
C1111 C1109 1.390 . S
C1111 C1112 1.387 . S
C1111 H1114 0.950 . S
C1112 C1111 1.387 . S
C1112 C1115 1.387 . S
H1113 C1109 0.950 . S
H1114 C1111 0.950 . S
C1115 C1106 1.390 . S
C1115 H1108 0.950 . S
C1115 C1112 1.387 . S
C577 C162 1.647 . S
C582 C225 1.641 . S
C587 C174 1.738 . S
C592 C265 1.732 . S
C597 C150 1.588 . S
C602 C304 1.556 . S
C607 C138 1.497 . S
C612 C264 1.453 . S
C622 C305 1.517 . S
C617 C114 1.519 . S
C627 C126 1.407 . S
C632 C224 1.388 1_556 S
C642 C235 1.619 . S
C637 C136 1.639 . S
C652 C275 1.602 . S
C647 C112 1.615 . S
C657 C124 1.623 . S
C662 C314 1.665 1_556 S
C667 C160 1.509 . S
C672 C274 1.530 . S
C677 C172 1.482 . S
C682 C315 1.455 . S
C692 C234 1.537 . S
C687 C148 1.494 . S
C702 C345 1.642 . S
C697 C18 1.648 . S
C707 C30 1.738 . S
C712 C385 1.732 . S
C717 C6 1.589 . S
C722 C424 1.554 . S
C727 C210 1.497 . S
C732 C384 1.452 . S
C737 C186 1.519 . S
C742 C425 1.517 . S
C747 C198 1.409 . S
C752 C344 1.388 . S
C757 C208 1.639 . S
C762 C355 1.619 . S
C767 C184 1.615 . S
C772 C395 1.603 . S
C782 C434 1.665 . S
C777 C196 1.625 . S
C787 C16 1.510 . S
C792 C394 1.531 . S
C802 C435 1.454 . S
C797 C28 1.481 1_455 S
C807 C4 1.494 . S
C812 C354 1.537 . S
C822 C465 1.641 . S
C817 C90 1.646 . S
C827 C102 1.737 . S
C832 C505 1.731 . S
C842 C544 1.553 . S
C837 C78 1.588 . S
C852 C504 1.450 . S
C847 C66 1.497 . S
C862 C545 1.517 . S
C857 C42 1.519 . S
C867 C54 1.407 . S
C872 C464 1.388 . S
C877 C64 1.639 1_655 S
C882 C475 1.619 . S
C887 C40 1.614 . S
C892 C515 1.602 . S
C902 C554 1.665 . S
C897 C52 1.625 1_545 S
C907 C88 1.509 . S
C912 C514 1.530 . S
C917 C100 1.481 . S
C922 C555 1.455 . S
C927 C76 1.497 . S
C932 C474 1.538 . S
C937 C189 1.611 . S
C942 C221 1.591 . S
C952 C261 1.896 . S
C947 C201 1.908 . S
C957 C213 1.561 . S
C962 C311 1.576 . S
C967 C81 1.722 . S
C972 C271 1.732 . S
C977 C93 1.685 . S
C982 C301 1.682 . S
C992 C231 1.386 . S
C987 C105 1.379 . S
C997 C45 1.612 . S
C1002 C341 1.593 . S
C1007 C57 1.909 . S
C1012 C381 1.897 . S
C1017 C69 1.562 . S
C1022 C431 1.576 . S
C1027 C153 1.723 . S
C1032 C391 1.733 . S
C1042 C421 1.683 . S
C1037 C165 1.685 . S
C1047 C177 1.377 . S
C1052 C351 1.385 . S
C1057 C117 1.610 . S
C1062 C461 1.591 . S
C1067 C129 1.909 . S
C1072 C501 1.898 . S
C1082 C551 1.576 . S
C1077 C141 1.561 . S
C1087 C9 1.723 . S
C1092 C511 1.733 . S
C1097 C21 1.686 . S
C1102 C541 1.683 . S
C1107 C33 1.379 . S
C1112 C471 1.386 . S
