# Generated by pormake.
# Topology ssa, (4,4)-cn, num edge types: 1
# Building blocks:
#     Node 0, Type 0, BuildingBlock: KOZSID_clean_sbu_0, # of connection points: 4
#     Node 1, Type 0, BuildingBlock: KOZSID_clean_sbu_0, # of connection points: 4
#     Node 2, Type 0, BuildingBlock: KOZSID_clean_sbu_0, # of connection points: 4
#     Node 3, Type 0, BuildingBlock: KOZSID_clean_sbu_0, # of connection points: 4
#     Node 4, Type 0, BuildingBlock: KOZSID_clean_sbu_0, # of connection points: 4
#     Node 5, Type 0, BuildingBlock: KOZSID_clean_sbu_0, # of connection points: 4
#     Node 6, Type 1, BuildingBlock: GIZVER_clean_linker_0, # of connection points: 4
#     Node 7, Type 1, BuildingBlock: GIZVER_clean_linker_0, # of connection points: 4
#     Node 8, Type 1, BuildingBlock: GIZVER_clean_linker_0, # of connection points: 4
#     Node 9, Type 1, BuildingBlock: GIZVER_clean_linker_0, # of connection points: 4
#     Node 10, Type 1, BuildingBlock: GIZVER_clean_linker_0, # of connection points: 4
#     Node 11, Type 1, BuildingBlock: GIZVER_clean_linker_0, # of connection points: 4
#     Edge 12, Type (0, 1), None
#     Edge 13, Type (0, 1), None
#     Edge 14, Type (0, 1), None
#     Edge 15, Type (0, 1), None
#     Edge 16, Type (0, 1), None
#     Edge 17, Type (0, 1), None
#     Edge 18, Type (0, 1), None
#     Edge 19, Type (0, 1), None
#     Edge 20, Type (0, 1), None
#     Edge 21, Type (0, 1), None
#     Edge 22, Type (0, 1), None
#     Edge 23, Type (0, 1), None
#     Edge 24, Type (0, 1), None
#     Edge 25, Type (0, 1), None
#     Edge 26, Type (0, 1), None
#     Edge 27, Type (0, 1), None
#     Edge 28, Type (0, 1), None
#     Edge 29, Type (0, 1), None
#     Edge 30, Type (0, 1), None
#     Edge 31, Type (0, 1), None
#     Edge 32, Type (0, 1), None
#     Edge 33, Type (0, 1), None
#     Edge 34, Type (0, 1), None
#     Edge 35, Type (0, 1), None
# Relax obj value: 0.012
# Max RMSD: 0.040
# Mean RMSD: 0.022
data_MOF--net-ssa--node1-KOZSID_clean_sbu_0--node2-GIZVER_clean_linker_0--edge1-none
_symmetry_space_group_name_H-M    P1
_symmetry_Int_Tables_number       1
_symmetry_cell_setting            triclinic
loop_
_symmetry_equiv_pos_as_xyz
'x, y, z'
_cell_length_a     29.88326
_cell_length_b     31.265875
_cell_length_c     16.829432
_cell_angle_alpha  83.264348
_cell_angle_beta   90.183559
_cell_angle_gamma 124.44792
loop_
_atom_site_label
_atom_site_type_symbol
_atom_site_fract_x
_atom_site_fract_y
_atom_site_fract_z
_atom_type_partial_charge
C0 C 0.92538 0.5172 0.02746 0.0
C1 C 0.88144 0.49907 0.08127 0.0
C2 C 0.8843 0.46845 0.14364 0.0
C3 C 0.9297 0.46965 0.12409 0.0
N4 N 0.95615 0.49991 0.05376 0.0
Co5 Co 0.02161 0.51054 -0.00122 0.0
N6 N 0.01293 0.45077 0.07075 0.0
C7 C 0.97456 0.42018 0.13146 0.0
C8 C 0.97094 0.37478 0.15638 0.0
C9 C 1.01083 0.37799 0.11012 0.0
C10 C 0.03689 0.42561 0.06017 0.0
N11 N 0.08672 0.51993 0.94401 0.0
C12 C 0.10956 0.49275 0.96022 0.0
C13 C 0.15537 0.51322 0.90871 0.0
C14 C 0.16325 0.55632 0.86191 0.0
C15 C 0.12162 0.55951 0.88672 0.0
N16 N 0.0292 0.56938 0.92634 0.0
C17 C 0.07239 0.60553 0.8752 0.0
C18 C 0.06468 0.64068 0.83184 0.0
C19 C 0.01349 0.62555 0.85742 0.0
C20 C 0.99295 0.58202 0.91507 0.0
N21 N 0.07062 0.56297 0.07018 0.0
C22 C 0.14057 0.64248 0.16413 0.0
C23 C 0.1565 0.61347 0.13219 0.0
C24 C 0.12153 0.57477 0.08487 0.0
C25 C 0.0911 0.6341 0.14185 0.0
C26 C 0.0571 0.59458 0.09576 0.0
N27 N 0.97386 0.46084 0.92491 0.0
C28 C 0.95996 0.44141 0.7897 0.0
C29 C 0.91145 0.39179 0.81336 0.0
C30 C 0.8933 0.37871 0.89488 0.0
C31 C 0.925 0.41386 0.94957 0.0
C32 C 0.99026 0.47435 0.84524 0.0
H33 H 0.90982 0.40242 0.01154 0.0
H34 H 0.02696 0.5112 0.82261 0.0
H35 H 0.13651 0.55454 0.0622 0.0
H36 H 0.01994 0.59031 0.08066 0.0
C37 C 0.93954 0.43286 0.15758 0.0
C38 C 0.93687 0.55045 0.95167 0.0
C39 C 0.09473 0.45515 0.03375 0.0
C40 C 0.11415 0.59907 0.85924 0.0
H41 H 0.84999 0.50611 0.07472 0.0
H42 H 0.85438 0.4448 0.19389 0.0
H43 H 0.94362 0.34374 0.2038 0.0
H44 H 0.0239 0.3519 0.11913 0.0
H45 H 0.18148 0.49967 0.90667 0.0
H46 H 0.19625 0.58293 0.81672 0.0
H47 H 0.09153 0.67151 0.78386 0.0
H48 H 0.9926 0.64297 0.8342 0.0
H49 H 0.19414 0.61819 0.14758 0.0
H50 H 0.07714 0.65612 0.16406 0.0
H51 H 0.97584 0.45511 0.72777 0.0
H52 H 0.85599 0.34129 0.91663 0.0
C53 C 0.59652 0.02991 0.59714 0.0
C54 C 0.60322 0.99536 0.64619 0.0
C55 C 0.55254 0.95525 0.67982 0.0
C56 C 0.51743 0.96554 0.64501 0.0
N57 N 0.54282 0.00929 0.59089 0.0
Co58 Co 0.50972 0.01979 0.49509 0.0
N59 N 0.43435 0.95777 0.53569 0.0
C60 C 0.41998 0.92897 0.6086 0.0
C61 C 0.36577 0.88814 0.6183 0.0
C62 C 0.34496 0.89046 0.54626 0.0
C63 C 0.38807 0.93183 0.496 0.0
N64 N 0.47693 0.03029 0.39876 0.0
C65 C 0.42401 1.00171 0.38236 0.0
C66 C 0.41238 0.03103 0.32927 0.0
C67 C 0.46095 0.07833 0.30666 0.0
C68 C 0.4986 0.07595 0.35026 0.0
N69 N 0.58451 0.08323 0.45503 0.0
C70 C 0.59626 0.1177 0.38899 0.0
C71 C 0.65097 0.15567 0.37353 0.0
C72 C 0.67531 0.14576 0.43526 0.0
C73 C 0.63377 0.10357 0.48683 0.0
N74 N 0.52399 0.97247 0.44601 0.0
C75 C 0.54354 0.90658 0.3744 0.0
C76 C 0.58492 0.95925 0.37515 0.0
C77 C 0.57461 0.99103 0.41162 0.0
C78 C 0.49422 0.88608 0.41716 0.0
C79 C 0.48565 0.91907 0.45315 0.0
N80 N 0.49516 0.06588 0.54456 0.0
C81 C 0.52603 0.14244 0.60826 0.0
C82 C 0.47259 0.12709 0.62252 0.0
C83 C 0.43111 0.08351 0.59053 0.0
C84 C 0.44328 0.05392 0.55109 0.0
C85 C 0.53639 0.11171 0.56891 0.0
H86 H 0.40974 0.02057 0.52837 0.0
H87 H 0.57779 0.12418 0.56374 0.0
H88 H 0.60816 0.031 0.40684 0.0
H89 H 0.44688 0.89922 0.48506 0.0
C90 C 0.46052 0.9322 0.65466 0.0
C91 C 0.64087 0.08531 0.56776 0.0
C92 C 0.38593 0.94525 0.41008 0.0
C93 C 0.55458 0.11442 0.34578 0.0
H94 H 0.64124 1.00051 0.66012 0.0
H95 H 0.54241 0.92174 0.7225 0.0
H96 H 0.34484 0.85768 0.66924 0.0
H97 H 0.30353 0.86361 0.53154 0.0
H98 H 0.3736 0.01794 0.30535 0.0
H99 H 0.468 0.11029 0.26309 0.0
H100 H 0.67078 0.18734 0.32402 0.0
H101 H 0.71855 0.16791 0.44254 0.0
H102 H 0.62422 0.97669 0.3433 0.0
H103 H 0.46089 0.84528 0.41867 0.0
H104 H 0.55929 0.17582 0.63295 0.0
H105 H 0.38908 0.07026 0.60065 0.0
C106 C 0.62069 0.57863 0.925 0.0
C107 C 0.65353 0.62463 0.87262 0.0
C108 C 0.62027 0.63894 0.84255 0.0
C109 C 0.56912 0.60078 0.878 0.0
N110 N 0.56833 0.5637 0.92872 0.0
Co111 Co 0.50481 0.50479 -0.00164 0.0
N112 N 0.45195 0.515 0.93964 0.0
C113 C 0.46542 0.55545 0.8829 0.0
C114 C 0.42097 0.55371 0.85635 0.0
C115 C 0.37681 0.51075 0.9016 0.0
C116 C 0.39684 0.48883 0.95385 0.0
N117 N 0.44115 0.44493 0.06738 0.0
C118 C 0.38776 0.42086 0.05425 0.0
C119 C 0.35618 0.37256 0.10219 0.0
C120 C 0.39101 0.36773 0.14975 0.0
C121 C 0.44173 0.41291 0.12754 0.0
N122 N 0.55649 0.49372 0.05791 0.0
C123 C 0.54508 0.46219 0.12776 0.0
C124 C 0.58821 0.46009 0.15009 0.0
C125 C 0.62913 0.49192 0.09082 0.0
C126 C 0.60848 0.51142 0.03553 0.0
N127 N 0.51661 0.55657 0.0678 0.0
C128 C 0.53955 0.63746 0.15391 0.0
C129 C 0.57946 0.6288 0.13734 0.0
C130 C 0.56709 0.58817 0.09504 0.0
C131 C 0.48999 0.60837 0.12056 0.0
C132 C 0.47971 0.5688 0.07754 0.0
N133 N 0.49529 0.45559 0.92639 0.0
C134 C 0.49189 0.37964 0.89788 0.0
C135 C 0.48664 0.39052 0.81673 0.0
C136 C 0.48337 0.43314 0.79343 0.0
C137 C 0.48941 0.46563 0.84763 0.0
C138 C 0.49552 0.41231 0.95184 0.0
H139 H 0.49054 0.49958 0.82432 0.0
H140 H 0.49937 0.4025 0.01344 0.0
H141 H 0.5992 0.58333 0.084 0.0
H142 H 0.44109 0.5483 0.05472 0.0
C143 C 0.5203 0.59479 0.85864 0.0
C144 C 0.63928 0.54697 0.96267 0.0
C145 C 0.36597 0.45151 0.02716 0.0
C146 C 0.49086 0.42488 0.15711 0.0
H147 H 0.69643 0.64436 0.85578 0.0
H148 H 0.63159 0.67177 0.79738 0.0
H149 H 0.42078 0.58143 0.81159 0.0
H150 H 0.33509 0.4985 0.89874 0.0
H151 H 0.31217 0.34702 0.10911 0.0
H152 H 0.38033 0.33589 0.19652 0.0
H153 H 0.58841 0.43483 0.19957 0.0
H154 H 0.66893 0.49885 0.0871 0.0
H155 H 0.61899 0.65125 0.16122 0.0
H156 H 0.45765 0.61333 0.13236 0.0
H157 H 0.49363 0.34665 0.91956 0.0
H158 H 0.47674 0.44233 0.73285 0.0
C159 C 0.93182 0.40503 0.47501 0.0
C160 C 0.88808 0.3784 0.42874 0.0
C161 C 0.88099 0.41489 0.38909 0.0
C162 C 0.92135 0.46187 0.41194 0.0
N163 N 0.95468 0.45754 0.46111 0.0
Co164 Co 0.02 0.51634 0.50581 0.0
N165 N 0.01431 0.5698 0.44071 0.0
C166 C 0.97115 0.56149 0.4022 0.0
C167 C 0.97825 0.60737 0.36831 0.0
C168 C 0.02912 0.64674 0.38691 0.0
C169 C 0.04991 0.62239 0.43119 0.0
N170 N 0.08558 0.5743 0.54988 0.0
C171 C 0.11713 0.62595 0.52058 0.0
C172 C 0.15791 0.65394 0.57059 0.0
C173 C 0.15303 0.61782 0.63145 0.0
C174 C 0.10907 0.57012 0.61595 0.0
N175 N 0.02579 0.46287 0.57144 0.0
C176 C 0.06287 0.47152 0.62457 0.0
C177 C 0.06653 0.42957 0.64225 0.0
C178 C 0.02797 0.39169 0.59965 0.0
C179 C 1.00216 0.41248 0.55976 0.0
N180 N 0.06767 0.51999 0.42029 0.0
C181 C 0.12675 0.51373 0.2966 0.0
C182 C 0.14424 0.5191 0.37436 0.0
C183 C 0.11437 0.52254 0.43512 0.0
C184 C 0.08147 0.51579 0.28203 0.0
C185 C 0.05282 0.51853 0.34365 0.0
N186 N 0.97193 0.51452 0.5894 0.0
C187 C 0.95024 0.56395 0.66127 0.0
C188 C 0.89932 0.51885 0.68937 0.0
C189 C 0.88494 0.4715 0.66591 0.0
C190 C 0.92116 0.47047 0.61461 0.0
C191 C 0.98574 0.56095 0.61251 0.0
H192 H 0.90775 0.43367 0.59699 0.0
H193 H 0.02409 0.59707 0.59267 0.0
H194 H 0.12881 0.52616 0.49411 0.0
H195 H 0.01807 0.51887 0.32881 0.0
C196 C 0.92935 0.5106 0.38933 0.0
C197 C 0.94479 0.37975 0.54217 0.0
C198 C 0.10735 0.64832 0.44682 0.0
C199 C 0.09773 0.52124 0.64816 0.0
H200 H 0.86297 0.33686 0.42538 0.0
H201 H 0.84958 0.40778 0.34943 0.0
H202 H 0.95128 0.61166 0.3305 0.0
H203 H 0.05016 0.68815 0.36571 0.0
H204 H 0.18806 0.69574 0.56411 0.0
H205 H 0.18033 0.62522 0.6785 0.0
H206 H 0.09331 0.4265 0.68226 0.0
H207 H 0.01532 0.3514 0.6057 0.0
H208 H 0.17929 0.51866 0.38905 0.0
H209 H 0.06636 0.51358 0.2233 0.0
H210 H 0.96392 0.6011 0.68079 0.0
H211 H 0.84685 0.43525 0.68926 0.0
C212 C 0.48553 0.97455 0.16434 0.0
C213 C 0.50325 0.98068 0.24106 0.0
C214 C 0.55067 0.02921 0.23619 0.0
C215 C 0.56042 0.04967 0.15734 0.0
N216 N 0.5219 0.01707 0.11143 0.0
Co217 Co 0.5265 0.02499 -0.00668 0.0
N218 N 0.60582 0.0843 0.9856 0.0
C219 C 0.63431 0.10988 0.04604 0.0
C220 C 0.68828 0.14772 0.02395 0.0
C221 C 0.69437 0.14688 0.94386 0.0
C222 C 0.64335 0.10883 0.92178 0.0
N223 N 0.53025 0.03261 0.87513 0.0
C224 C 0.57279 0.0677 0.82171 0.0
C225 C 0.55495 0.07077 0.74672 0.0
C226 C 0.50006 0.0353 0.75196 0.0
C227 C 0.48699 0.01339 0.83031 0.0
N228 N 0.44728 0.96574 0.0015 0.0
C229 C 0.41385 0.95181 0.94149 0.0
C230 C 0.3615 0.91001 0.96463 0.0
C231 C 0.36162 0.89624 0.04468 0.0
C232 C 0.41434 0.93066 0.06546 0.0
N233 N 0.50677 0.07689 0.98652 0.0
C234 C 0.47234 0.13692 0.90918 0.0
C235 C 0.43506 0.08904 0.95677 0.0
C236 C 0.45362 0.06079 -0.00168 0.0
C237 C 0.52754 0.15894 0.91643 0.0
C238 C 0.5439 0.12821 0.95369 0.0
N239 N 0.54621 0.97321 0.00022 0.0
C240 C 0.50951 0.88249 0.04799 0.0
C241 C 0.55563 0.89791 0.09023 0.0
C242 C 0.60147 0.94917 0.06903 0.0
C243 C 0.59568 0.98642 0.02567 0.0
C244 C 0.50695 0.92081 -0.00044 0.0
H245 H 0.63054 0.02604 0.02103 0.0
H246 H 0.47052 0.9077 0.96908 0.0
H247 H 0.42364 0.02382 0.03327 0.0
H248 H 0.58669 0.14594 0.94746 0.0
C249 C 0.61072 0.09274 0.1239 0.0
C250 C 0.43117 0.9304 0.14667 0.0
C251 C 0.63032 0.10085 0.83928 0.0
C252 C 0.43423 0.97642 0.8637 0.0
H253 H 0.48361 0.95295 0.29488 0.0
H254 H 0.57725 0.04681 0.28291 0.0
H255 H 0.71969 0.17214 0.06191 0.0
H256 H 0.73186 0.17205 0.90601 0.0
H257 H 0.57914 0.09786 0.6947 0.0
H258 H 0.47252 0.02781 0.70544 0.0
H259 H 0.32759 0.89115 0.92748 0.0
H260 H 0.32684 0.86459 0.0832 0.0
H261 H 0.39172 0.07092 0.95494 0.0
H262 H 0.55794 0.1964 0.88184 0.0
H263 H 0.47362 0.84262 0.05913 0.0
H264 H 0.63904 0.96242 0.09731 0.0
C265 C 0.53359 0.62171 0.51109 0.0
C266 C 0.51618 0.645 0.5555 0.0
C267 C 0.4773 0.60617 0.61237 0.0
C268 C 0.4738 0.56179 0.59984 0.0
N269 N 0.50966 0.5705 0.54077 0.0
Co270 Co 0.51654 0.51696 0.49776 0.0
N271 N 0.45192 0.45809 0.56733 0.0
C272 C 0.42131 0.4618 0.62132 0.0
C273 C 0.37935 0.41408 0.66002 0.0
C274 C 0.38479 0.37809 0.63068 0.0
C275 C 0.42979 0.40599 0.5754 0.0
N276 N 0.52173 0.46333 0.45152 0.0
C277 C 0.49629 0.41143 0.47824 0.0
C278 C 0.51553 0.38912 0.43542 0.0
C279 C 0.55547 0.42865 0.38046 0.0
C280 C 0.55829 0.47283 0.39259 0.0
N281 N 0.58216 0.57589 0.43137 0.0
C282 C 0.6169 0.57316 0.38511 0.0
C283 C 0.66177 0.62174 0.35429 0.0
C284 C 0.654 0.65699 0.38178 0.0
C285 C 0.60444 0.62775 0.42732 0.0
N286 N 0.56615 0.52121 0.58078 0.0
C287 C 0.6343 0.52531 0.70065 0.0
C288 C 0.63802 0.51169 0.62662 0.0
C289 C 0.60424 0.51047 0.56763 0.0
C290 C 0.59877 0.54033 0.71116 0.0
C291 C 0.56482 0.53704 0.65231 0.0
N292 N 0.46824 0.51333 0.41423 0.0
C293 C 0.44936 0.51142 0.27583 0.0
C294 C 0.39953 0.50458 0.29262 0.0
C295 C 0.38574 0.50429 0.37185 0.0
C296 C 0.42036 0.50829 0.43165 0.0
C297 C 0.4828 0.51623 0.33624 0.0
H298 H 0.40731 0.50669 0.49148 0.0
H299 H 0.52035 0.52213 0.31865 0.0
H300 H 0.60938 0.49941 0.51303 0.0
H301 H 0.53696 0.54622 0.66749 0.0
C302 C 0.43416 0.51067 0.63602 0.0
C303 C 0.57096 0.64763 0.43895 0.0
C304 C 0.45782 0.38337 0.54888 0.0
C305 C 0.60284 0.5246 0.36583 0.0
H306 H 0.52957 0.68546 0.54749 0.0
H307 H 0.45295 0.60949 0.65539 0.0
H308 H 0.35007 0.40655 0.70691 0.0
H309 H 0.36118 0.3365 0.65199 0.0
H310 H 0.50402 0.34919 0.44634 0.0
H311 H 0.58278 0.42637 0.34206 0.0
H312 H 0.69425 0.63051 0.31246 0.0
H313 H 0.67835 0.69887 0.36277 0.0
H314 H 0.66564 0.50076 0.61483 0.0
H315 H 0.59545 0.55304 0.76622 0.0
H316 H 0.46254 0.51177 0.21615 0.0
H317 H 0.34773 0.49906 0.38811 0.0
H318 H 0.20557 0.4914 0.02898 0.0
H319 H 0.23585 0.55049 0.25594 0.0
H320 H 0.07333 0.45019 0.19349 0.0
H321 H 0.29636 0.56482 0.05613 0.0
H322 H 0.31014 0.5844 0.15301 0.0
H323 H 0.30251 0.49401 0.02106 0.0
H324 H 0.3791 0.44371 0.18734 0.0
H325 H 0.33596 0.54264 0.25579 0.0
C326 C 0.18998 0.49283 0.0856 0.0
C327 C 0.13395 0.47031 0.09987 0.0
C328 C 0.22698 0.51936 0.14352 0.0
C329 C 0.20738 0.52567 0.21511 0.0
C330 C 0.15121 0.50233 0.23081 0.0
C331 C 0.11589 0.4705 0.17685 0.0
C332 C 0.28784 0.54937 0.12127 0.0
C333 C 0.31139 0.51725 0.13933 0.0
C334 C 0.31748 0.4922 0.07889 0.0
C335 C 0.34458 0.46698 0.09295 0.0
C336 C 0.36078 0.46432 0.17093 0.0
C337 C 0.36231 0.49445 0.22691 0.0
C338 C 0.33539 0.51925 0.2126 0.0
H339 H 0.71097 0.19855 0.55097 0.0
H340 H 0.70268 0.20804 0.79924 0.0
H341 H 0.65124 0.06245 0.72931 0.0
H342 H 0.74297 0.28088 0.59378 0.0
H343 H 0.7275 0.28122 0.69547 0.0
H344 H 0.83132 0.30041 0.55007 0.0
H345 H 0.96114 0.37856 0.70359 0.0
H346 H 0.79986 0.31957 0.78817 0.0
C347 C 0.70363 0.17899 0.61118 0.0
C348 C 0.67484 0.1233 0.62807 0.0
C349 C 0.71999 0.21061 0.67396 0.0
C350 C 0.70015 0.18557 0.75296 0.0
C351 C 0.67216 0.13112 0.77007 0.0
C352 C 0.66928 0.10301 0.70959 0.0
C353 C 0.74798 0.26968 0.65671 0.0
C354 C 0.80846 0.30119 0.67057 0.0
C355 C 0.84643 0.31445 0.60624 0.0
C356 C 0.90291 0.34736 0.61378 0.0
C357 C 0.91923 0.35894 0.69127 0.0
C358 C 0.88453 0.35517 0.75128 0.0
C359 C 0.82803 0.32403 0.7422 0.0
H360 H 0.50855 0.7042 0.16672 0.0
H361 H 0.53029 0.71133 0.41888 0.0
H362 H 0.56974 0.62388 0.29191 0.0
H363 H 0.45107 0.7157 0.25195 0.0
H364 H 0.46189 0.72199 0.3548 0.0
H365 H 0.51621 0.79295 0.14296 0.0
H366 H 0.57432 0.94073 0.2214 0.0
H367 H 0.51391 0.80532 0.39568 0.0
C368 C 0.5235 0.69603 0.22113 0.0
C369 C 0.544 0.66541 0.22138 0.0
C370 C 0.51778 0.71221 0.29257 0.0
C371 C 0.53514 0.69896 0.36431 0.0
C372 C 0.55619 0.66813 0.36489 0.0
C373 C 0.55933 0.6517 0.29258 0.0
C374 C 0.48356 0.73392 0.29425 0.0
C375 C 0.51548 0.7929 0.27221 0.0
C376 C 0.5271 0.81668 0.19092 0.0
C377 C 0.55016 0.87079 0.1723 0.0
C378 C 0.56067 0.90013 0.23523 0.0
C379 C 0.54689 0.87691 0.31514 0.0
C380 C 0.52581 0.82363 0.33365 0.0
H381 H 0.74294 0.55848 0.70328 0.0
H382 H 0.748 0.5797 0.95159 0.0
H383 H 0.59502 0.48791 0.85123 0.0
H384 H 0.82865 0.62081 0.76193 0.0
H385 H 0.83108 0.62287 0.86682 0.0
H386 H 0.83093 0.55195 0.7017 0.0
H387 H 0.91459 0.49586 0.83428 0.0
H388 H 0.86607 0.58109 0.9457 0.0
C389 C 0.72187 0.5477 0.76204 0.0
C390 C 0.66516 0.52348 0.76902 0.0
C391 C 0.75209 0.56342 0.83052 0.0
C392 C 0.72484 0.5597 0.90272 0.0
C393 C 0.66792 0.53409 0.90835 0.0
C394 C 0.63881 0.5087 0.84535 0.0
C395 C 0.81404 0.59554 0.82122 0.0
C396 C 0.8378 0.56316 0.82718 0.0
C397 C 0.84405 0.54426 0.75844 0.0
C398 C 0.87212 0.52004 0.7614 0.0
C399 C 0.89128 0.51257 0.83342 0.0
C400 C 0.89281 0.53749 0.89757 0.0
C401 C 0.86411 0.56095 0.89622 0.0
H402 H 0.3624 0.82292 0.1903 0.0
H403 H 0.32076 0.83205 0.42867 0.0
H404 H 0.40284 0.96814 0.24676 0.0
H405 H 0.323 0.74818 0.29126 0.0
H406 H 0.30794 0.75139 0.39129 0.0
H407 H 0.25094 0.71781 0.19071 0.0
H408 H 0.08824 0.62252 0.29916 0.0
H409 H 0.21857 0.72674 0.43574 0.0
C410 C 0.35988 0.84506 0.23293 0.0
C411 C 0.38871 0.89945 0.21485 0.0
C412 C 0.3304 0.81969 0.30804 0.0
C413 C 0.33672 0.8511 0.36806 0.0
C414 C 0.36569 0.90658 0.34906 0.0
C415 C 0.38356 0.92737 0.26806 0.0
C416 C 0.30243 0.76071 0.32767 0.0
C417 C 0.24177 0.72747 0.31448 0.0
C418 C 0.22239 0.70661 0.24133 0.0
C419 C 0.16595 0.66993 0.2353 0.0
C420 C 0.13052 0.65345 0.30297 0.0
C421 C 0.14818 0.6727 0.37584 0.0
C422 C 0.20389 0.71095 0.38039 0.0
H423 H 0.43685 0.2832 0.83332 0.0
H424 H 0.40924 0.27559 0.58333 0.0
H425 H 0.52389 0.4228 0.66214 0.0
H426 H 0.36162 0.2028 0.78348 0.0
H427 H 0.36058 0.19642 0.67946 0.0
H428 H 0.41964 0.18714 0.87135 0.0
H429 H 0.49136 0.11666 0.77303 0.0
H430 H 0.4229 0.17962 0.61613 0.0
C431 C 0.44868 0.30238 0.77181 0.0
C432 C 0.48102 0.35731 0.75541 0.0
C433 C 0.42655 0.27204 0.70868 0.0
C434 C 0.43307 0.29786 0.63004 0.0
C435 C 0.46708 0.35296 0.61407 0.0
C436 C 0.497 0.38072 0.67527 0.0
C437 C 0.38813 0.21299 0.7284 0.0
C438 C 0.4184 0.18723 0.74188 0.0
C439 C 0.43074 0.1762 0.82001 0.0
C440 C 0.45724 0.1506 0.831 0.0
C441 C 0.47142 0.13678 0.7644 0.0
C442 C 0.45949 0.14703 0.68743 0.0
C443 C 0.43283 0.1722 0.6759 0.0
loop_
_geom_bond_atom_site_label_1
_geom_bond_atom_site_label_2
_geom_bond_distance
_geom_bond_site_symmetry_2
_ccdc_geom_bond_type
C0 C1 1.443 . S
C0 N4 1.376 . S
C0 C38 1.389 1_554 S
C1 C0 1.443 . S
C1 C2 1.340 . S
C1 H41 0.951 . S
C2 C1 1.340 . S
C2 C3 1.439 . S
C2 H42 0.950 . S
C3 C2 1.439 . S
C3 N4 1.374 . S
C3 C37 1.395 . S
N4 C0 1.376 . S
N4 C3 1.374 . S
N4 Co5 2.008 1_655 S
Co5 N4 2.008 1_455 S
Co5 N6 1.995 . S
Co5 N11 2.008 1_554 S
Co5 N16 1.995 1_554 S
Co5 N21 2.282 . S
Co5 N27 2.282 1_454 S
N6 Co5 1.995 . S
N6 C7 1.376 1_455 S
N6 C10 1.383 . S
C7 N6 1.376 1_655 S
C7 C8 1.446 . S
C7 C37 1.391 . S
C8 C7 1.446 . S
C8 C9 1.339 1_655 S
C8 H43 0.949 . S
C9 C8 1.339 1_455 S
C9 C10 1.439 . S
C9 H44 0.950 . S
C10 N6 1.383 . S
C10 C9 1.439 . S
C10 C39 1.392 . S
N11 Co5 2.008 1_556 S
N11 C12 1.376 1_556 S
N11 C15 1.374 . S
C12 N11 1.376 1_554 S
C12 C13 1.443 1_554 S
C12 C39 1.389 . S
C13 C12 1.443 1_556 S
C13 C14 1.340 . S
C13 H45 0.951 . S
C14 C13 1.340 . S
C14 C15 1.439 . S
C14 H46 0.950 . S
C15 N11 1.374 . S
C15 C14 1.439 . S
C15 C40 1.395 . S
N16 Co5 1.995 1_556 S
N16 C17 1.376 . S
N16 C20 1.383 1_455 S
C17 N16 1.376 . S
C17 C18 1.446 . S
C17 C40 1.391 . S
C18 C17 1.446 . S
C18 C19 1.339 1_455 S
C18 H47 0.949 . S
C19 C18 1.339 1_655 S
C19 C20 1.439 . S
C19 H48 0.950 . S
C20 N16 1.383 1_655 S
C20 C19 1.439 . S
C20 C38 1.392 . S
N21 Co5 2.282 . S
N21 C24 1.332 . S
N21 C26 1.332 . S
C22 C23 1.386 . S
C22 C25 1.388 . S
C23 C22 1.386 . S
C23 C24 1.382 . S
C23 H49 0.950 . S
C24 N21 1.332 . S
C24 C23 1.382 . S
C24 H35 0.952 1_554 S
C25 C22 1.388 . S
C25 C26 1.382 . S
C25 H50 0.950 . S
C26 N21 1.332 . S
C26 C25 1.382 . S
C26 H36 0.948 . S
N27 Co5 2.282 1_656 S
N27 C31 1.332 . S
N27 C32 1.332 . S
C28 C29 1.388 . S
C28 C32 1.382 . S
C28 H51 0.950 . S
C29 C28 1.388 . S
C29 C30 1.386 . S
C30 C29 1.386 . S
C30 C31 1.382 . S
C30 H52 0.950 . S
C31 N27 1.332 . S
C31 C30 1.382 . S
C31 H33 0.952 1_556 S
C32 N27 1.332 . S
C32 C28 1.382 . S
C32 H34 0.948 . S
H33 C31 0.952 1_554 S
H34 C32 0.948 . S
H35 C24 0.952 1_556 S
H36 C26 0.948 . S
C37 C3 1.395 . S
C37 C7 1.391 . S
C38 C0 1.389 1_556 S
C38 C20 1.392 . S
C39 C10 1.392 . S
C39 C12 1.389 . S
C40 C15 1.395 . S
C40 C17 1.391 . S
H41 C1 0.951 . S
H42 C2 0.950 . S
H43 C8 0.949 . S
H44 C9 0.950 . S
H45 C13 0.951 . S
H46 C14 0.950 . S
H47 C18 0.949 . S
H48 C19 0.950 . S
H49 C23 0.950 . S
H50 C25 0.950 . S
H51 C28 0.950 . S
H52 C30 0.950 . S
C53 C54 1.443 . S
C53 N57 1.376 . S
C53 C91 1.389 . S
C54 C53 1.443 . S
C54 C55 1.340 1_545 S
C54 H94 0.951 . S
C55 C54 1.340 1_565 S
C55 C56 1.439 . S
C55 H95 0.950 . S
C56 C55 1.439 . S
C56 N57 1.374 1_565 S
C56 C90 1.395 . S
N57 C53 1.376 . S
N57 C56 1.374 1_545 S
N57 Co58 2.008 . S
Co58 N57 2.008 . S
Co58 N59 1.995 1_545 S
Co58 N64 2.008 . S
Co58 N69 1.995 . S
Co58 N74 2.282 1_545 S
Co58 N80 2.282 . S
N59 Co58 1.995 1_565 S
N59 C60 1.376 . S
N59 C63 1.383 . S
C60 N59 1.376 . S
C60 C61 1.446 . S
C60 C90 1.391 . S
C61 C60 1.446 . S
C61 C62 1.339 . S
C61 H96 0.949 . S
C62 C61 1.339 . S
C62 C63 1.439 . S
C62 H97 0.950 . S
C63 N59 1.383 . S
C63 C62 1.439 . S
C63 C92 1.392 . S
N64 Co58 2.008 . S
N64 C65 1.376 1_545 S
N64 C68 1.374 . S
C65 N64 1.376 1_565 S
C65 C66 1.443 . S
C65 C92 1.389 . S
C66 C65 1.443 . S
C66 C67 1.340 1_565 S
C66 H98 0.951 . S
C67 C66 1.340 1_545 S
C67 C68 1.439 . S
C67 H99 0.950 . S
C68 N64 1.374 . S
C68 C67 1.439 . S
C68 C93 1.395 . S
N69 Co58 1.995 . S
N69 C70 1.376 . S
N69 C73 1.383 . S
C70 N69 1.376 . S
C70 C71 1.446 . S
C70 C93 1.391 . S
C71 C70 1.446 . S
C71 C72 1.339 . S
C71 H100 0.949 . S
C72 C71 1.339 . S
C72 C73 1.439 . S
C72 H101 0.950 . S
C73 N69 1.383 . S
C73 C72 1.439 . S
C73 C91 1.392 . S
N74 Co58 2.282 1_565 S
N74 C77 1.332 . S
N74 C79 1.332 . S
C75 C76 1.386 . S
C75 C78 1.388 . S
C76 C75 1.386 . S
C76 C77 1.382 . S
C76 H102 0.950 . S
C77 N74 1.332 . S
C77 C76 1.382 . S
C77 H88 0.952 1_565 S
C78 C75 1.388 . S
C78 C79 1.382 . S
C78 H103 0.950 . S
C79 N74 1.332 . S
C79 C78 1.382 . S
C79 H89 0.948 . S
N80 Co58 2.282 . S
N80 C84 1.332 . S
N80 C85 1.332 . S
C81 C82 1.388 . S
C81 C85 1.382 . S
C81 H104 0.950 . S
C82 C81 1.388 . S
C82 C83 1.386 . S
C83 C82 1.386 . S
C83 C84 1.382 . S
C83 H105 0.950 . S
C84 N80 1.332 . S
C84 C83 1.382 . S
C84 H86 0.952 . S
C85 N80 1.332 . S
C85 C81 1.382 . S
C85 H87 0.948 . S
H86 C84 0.952 . S
H87 C85 0.948 . S
H88 C77 0.952 1_545 S
H89 C79 0.948 . S
C90 C56 1.395 . S
C90 C60 1.391 . S
C91 C53 1.389 . S
C91 C73 1.392 . S
C92 C63 1.392 . S
C92 C65 1.389 . S
C93 C68 1.395 . S
C93 C70 1.391 . S
H94 C54 0.951 . S
H95 C55 0.950 . S
H96 C61 0.949 . S
H97 C62 0.950 . S
H98 C66 0.951 . S
H99 C67 0.950 . S
H100 C71 0.949 . S
H101 C72 0.950 . S
H102 C76 0.950 . S
H103 C78 0.950 . S
H104 C81 0.950 . S
H105 C83 0.950 . S
C106 C107 1.443 . S
C106 N110 1.376 . S
C106 C144 1.389 . S
C107 C106 1.443 . S
C107 C108 1.340 . S
C107 H147 0.951 . S
C108 C107 1.340 . S
C108 C109 1.439 . S
C108 H148 0.950 . S
C109 C108 1.439 . S
C109 N110 1.374 . S
C109 C143 1.395 . S
N110 C106 1.376 . S
N110 C109 1.374 . S
N110 Co111 2.008 1_556 S
Co111 N110 2.008 1_554 S
Co111 N112 1.995 1_554 S
Co111 N117 2.008 . S
Co111 N122 1.995 . S
Co111 N127 2.282 . S
Co111 N133 2.282 1_554 S
N112 Co111 1.995 1_556 S
N112 C113 1.376 . S
N112 C116 1.387 . S
C113 N112 1.376 . S
C113 C114 1.446 . S
C113 C143 1.391 . S
C114 C113 1.446 . S
C114 C115 1.339 . S
C114 H149 0.949 . S
C115 C114 1.339 . S
C115 C116 1.443 . S
C115 H150 0.950 . S
C116 N112 1.387 . S
C116 C115 1.443 . S
C116 C145 1.384 1_556 S
N117 Co111 2.008 . S
N117 C118 1.376 . S
N117 C121 1.374 . S
C118 N117 1.376 . S
C118 C119 1.443 . S
C118 C145 1.389 . S
C119 C118 1.443 . S
C119 C120 1.340 . S
C119 H151 0.951 . S
C120 C119 1.340 . S
C120 C121 1.439 . S
C120 H152 0.950 . S
C121 N117 1.374 . S
C121 C120 1.439 . S
C121 C146 1.395 . S
N122 Co111 1.995 . S
N122 C123 1.376 . S
N122 C126 1.383 . S
C123 N122 1.376 . S
C123 C124 1.446 . S
C123 C146 1.391 . S
C124 C123 1.446 . S
C124 C125 1.339 . S
C124 H153 0.949 . S
C125 C124 1.339 . S
C125 C126 1.439 . S
C125 H154 0.950 . S
C126 N122 1.383 . S
C126 C125 1.439 . S
C126 C144 1.392 1_554 S
N127 Co111 2.282 . S
N127 C130 1.332 . S
N127 C132 1.332 . S
C128 C129 1.386 . S
C128 C131 1.388 . S
C129 C128 1.386 . S
C129 C130 1.382 . S
C129 H155 0.950 . S
C130 N127 1.332 . S
C130 C129 1.382 . S
C130 H141 0.952 . S
C131 C128 1.388 . S
C131 C132 1.382 . S
C131 H156 0.950 . S
C132 N127 1.332 . S
C132 C131 1.382 . S
C132 H142 0.948 1_554 S
N133 Co111 2.282 1_556 S
N133 C137 1.332 . S
N133 C138 1.332 . S
C134 C135 1.388 . S
C134 C138 1.382 . S
C134 H157 0.950 . S
C135 C134 1.388 . S
C135 C136 1.386 . S
C136 C135 1.386 . S
C136 C137 1.382 . S
C136 H158 0.950 . S
C137 N133 1.332 . S
C137 C136 1.382 . S
C137 H139 0.952 . S
C138 N133 1.332 . S
C138 C134 1.382 . S
C138 H140 0.948 1_556 S
H139 C137 0.952 . S
H140 C138 0.948 1_554 S
H141 C130 0.952 . S
H142 C132 0.948 1_556 S
C143 C109 1.395 . S
C143 C113 1.391 . S
C144 C106 1.389 . S
C144 C126 1.392 1_556 S
C145 C116 1.384 1_554 S
C145 C118 1.389 . S
C146 C121 1.395 . S
C146 C123 1.391 . S
H147 C107 0.951 . S
H148 C108 0.950 . S
H149 C114 0.949 . S
H150 C115 0.950 . S
H151 C119 0.951 . S
H152 C120 0.950 . S
H153 C124 0.949 . S
H154 C125 0.950 . S
H155 C129 0.950 . S
H156 C131 0.950 . S
H157 C134 0.950 . S
H158 C136 0.950 . S
C159 C160 1.443 . S
C159 N163 1.376 . S
C159 C197 1.389 . S
C160 C159 1.443 . S
C160 C161 1.340 . S
C160 H200 0.951 . S
C161 C160 1.340 . S
C161 C162 1.439 . S
C161 H201 0.950 . S
C162 C161 1.439 . S
C162 N163 1.374 . S
C162 C196 1.395 . S
N163 C159 1.376 . S
N163 C162 1.374 . S
N163 Co164 2.008 1_655 S
Co164 N163 2.008 1_455 S
Co164 N165 1.995 . S
Co164 N170 2.008 . S
Co164 N175 1.995 1_455 S
Co164 N180 2.282 . S
Co164 N186 2.282 1_455 S
N165 Co164 1.995 . S
N165 C166 1.376 1_455 S
N165 C169 1.383 . S
C166 N165 1.376 1_655 S
C166 C167 1.446 . S
C166 C196 1.391 . S
C167 C166 1.446 . S
C167 C168 1.339 1_655 S
C167 H202 0.949 . S
C168 C167 1.339 1_455 S
C168 C169 1.439 . S
C168 H203 0.950 . S
C169 N165 1.383 . S
C169 C168 1.439 . S
C169 C198 1.392 . S
N170 Co164 2.008 . S
N170 C171 1.376 . S
N170 C174 1.374 . S
C171 N170 1.376 . S
C171 C172 1.443 . S
C171 C198 1.389 . S
C172 C171 1.443 . S
C172 C173 1.340 . S
C172 H204 0.951 . S
C173 C172 1.340 . S
C173 C174 1.439 . S
C173 H205 0.950 . S
C174 N170 1.374 . S
C174 C173 1.439 . S
C174 C199 1.395 . S
N175 Co164 1.995 1_655 S
N175 C176 1.376 1_655 S
N175 C179 1.383 . S
C176 N175 1.376 1_455 S
C176 C177 1.446 . S
C176 C199 1.391 . S
C177 C176 1.446 . S
C177 C178 1.339 1_455 S
C177 H206 0.949 . S
C178 C177 1.339 1_655 S
C178 C179 1.439 . S
C178 H207 0.950 . S
C179 N175 1.383 . S
C179 C178 1.439 . S
C179 C197 1.392 . S
N180 Co164 2.282 . S
N180 C183 1.332 . S
N180 C185 1.332 . S
C181 C182 1.386 . S
C181 C184 1.388 . S
C182 C181 1.386 . S
C182 C183 1.382 . S
C182 H208 0.950 . S
C183 N180 1.332 . S
C183 C182 1.382 . S
C183 H194 0.952 . S
C184 C181 1.388 . S
C184 C185 1.382 . S
C184 H209 0.950 . S
C185 N180 1.332 . S
C185 C184 1.382 . S
C185 H195 0.948 . S
N186 Co164 2.282 1_655 S
N186 C190 1.332 . S
N186 C191 1.332 . S
C187 C188 1.388 . S
C187 C191 1.382 . S
C187 H210 0.950 . S
C188 C187 1.388 . S
C188 C189 1.386 . S
C189 C188 1.386 . S
C189 C190 1.382 . S
C189 H211 0.950 . S
C190 N186 1.332 . S
C190 C189 1.382 . S
C190 H192 0.952 . S
C191 N186 1.332 . S
C191 C187 1.382 . S
C191 H193 0.948 . S
H192 C190 0.952 . S
H193 C191 0.948 . S
H194 C183 0.952 . S
H195 C185 0.948 . S
C196 C162 1.395 . S
C196 C166 1.391 . S
C197 C159 1.389 . S
C197 C179 1.392 . S
C198 C169 1.392 . S
C198 C171 1.389 . S
C199 C174 1.395 . S
C199 C176 1.391 . S
H200 C160 0.951 . S
H201 C161 0.950 . S
H202 C167 0.949 . S
H203 C168 0.950 . S
H204 C172 0.951 . S
H205 C173 0.950 . S
H206 C177 0.949 . S
H207 C178 0.950 . S
H208 C182 0.950 . S
H209 C184 0.950 . S
H210 C187 0.950 . S
H211 C189 0.950 . S
C212 C213 1.443 . S
C212 N216 1.377 . S
C212 C250 1.389 . S
C213 C212 1.443 . S
C213 C214 1.340 1_565 S
C213 H253 0.951 . S
C214 C213 1.340 1_545 S
C214 C215 1.439 . S
C214 H254 0.950 . S
C215 C214 1.439 . S
C215 N216 1.373 1_545 S
C215 C249 1.395 . S
N216 C212 1.377 . S
N216 C215 1.373 1_565 S
N216 Co217 2.018 1_565 S
Co217 N216 2.018 1_545 S
Co217 N218 1.997 . S
Co217 N223 1.999 1_554 S
Co217 N228 1.992 1_544 S
Co217 N233 2.279 1_554 S
Co217 N239 2.286 1_545 S
N218 Co217 1.997 . S
N218 C219 1.376 . S
N218 C222 1.383 1_554 S
C219 N218 1.376 . S
C219 C220 1.446 . S
C219 C249 1.391 . S
C220 C219 1.446 . S
C220 C221 1.339 1_554 S
C220 H255 0.949 . S
C221 C220 1.339 1_556 S
C221 C222 1.439 . S
C221 H256 0.950 . S
C222 N218 1.383 1_556 S
C222 C221 1.439 . S
C222 C251 1.392 . S
N223 Co217 1.999 1_556 S
N223 C224 1.376 . S
N223 C227 1.374 1_545 S
C224 N223 1.376 . S
C224 C225 1.443 . S
C224 C251 1.389 . S
C225 C224 1.443 . S
C225 C226 1.340 . S
C225 H257 0.951 . S
C226 C225 1.340 . S
C226 C227 1.439 1_545 S
C226 H258 0.950 1_545 S
C227 N223 1.374 1_565 S
C227 C226 1.439 1_565 S
C227 C252 1.395 . S
N228 Co217 1.992 1_566 S
N228 C229 1.376 . S
N228 C232 1.383 1_556 S
C229 N228 1.376 . S
C229 C230 1.446 . S
C229 C252 1.391 . S
C230 C229 1.446 . S
C230 C231 1.339 1_556 S
C230 H259 0.949 . S
C231 C230 1.339 1_554 S
C231 C232 1.439 . S
C231 H260 0.950 . S
C232 N228 1.383 1_554 S
C232 C231 1.439 . S
C232 C250 1.392 . S
N233 Co217 2.279 1_556 S
N233 C236 1.332 . S
N233 C238 1.332 . S
C234 C235 1.386 . S
C234 C237 1.388 . S
C235 C234 1.386 . S
C235 C236 1.382 . S
C235 H261 0.950 . S
C236 N233 1.332 . S
C236 C235 1.382 . S
C236 H247 0.952 . S
C237 C234 1.388 . S
C237 C238 1.382 . S
C237 H262 0.950 . S
C238 N233 1.332 . S
C238 C237 1.382 . S
C238 H248 0.948 1_556 S
N239 Co217 2.286 1_565 S
N239 C243 1.332 . S
N239 C244 1.332 . S
C240 C241 1.388 . S
C240 C244 1.382 . S
C240 H263 0.950 . S
C241 C240 1.388 . S
C241 C242 1.386 . S
C242 C241 1.386 . S
C242 C243 1.382 . S
C242 H264 0.950 . S
C243 N239 1.332 . S
C243 C242 1.382 . S
C243 H245 0.952 1_565 S
C244 N239 1.332 . S
C244 C240 1.382 . S
C244 H246 0.948 1_554 S
H245 C243 0.952 1_545 S
H246 C244 0.948 1_556 S
H247 C236 0.952 . S
H248 C238 0.948 1_554 S
C249 C215 1.395 . S
C249 C219 1.391 . S
C250 C212 1.389 . S
C250 C232 1.392 . S
C251 C222 1.392 . S
C251 C224 1.389 . S
C252 C227 1.395 . S
C252 C229 1.391 . S
H253 C213 0.951 . S
H254 C214 0.950 . S
H255 C220 0.949 . S
H256 C221 0.950 . S
H257 C225 0.951 . S
H258 C226 0.950 1_565 S
H259 C230 0.949 . S
H260 C231 0.950 . S
H261 C235 0.950 . S
H262 C237 0.950 . S
H263 C240 0.950 . S
H264 C242 0.950 . S
C265 C266 1.443 . S
C265 N269 1.376 . S
C265 C303 1.389 . S
C266 C265 1.443 . S
C266 C267 1.340 . S
C266 H306 0.951 . S
C267 C266 1.340 . S
C267 C268 1.439 . S
C267 H307 0.950 . S
C268 C267 1.439 . S
C268 N269 1.374 . S
C268 C302 1.395 . S
N269 C265 1.376 . S
N269 C268 1.374 . S
N269 Co270 2.008 . S
Co270 N269 2.008 . S
Co270 N271 1.995 . S
Co270 N276 2.008 . S
Co270 N281 1.995 . S
Co270 N286 2.282 . S
Co270 N292 2.282 . S
N271 Co270 1.995 . S
N271 C272 1.376 . S
N271 C275 1.383 . S
C272 N271 1.376 . S
C272 C273 1.446 . S
C272 C302 1.391 . S
C273 C272 1.446 . S
C273 C274 1.339 . S
C273 H308 0.949 . S
C274 C273 1.339 . S
C274 C275 1.439 . S
C274 H309 0.950 . S
C275 N271 1.383 . S
C275 C274 1.439 . S
C275 C304 1.392 . S
N276 Co270 2.008 . S
N276 C277 1.376 . S
N276 C280 1.374 . S
C277 N276 1.376 . S
C277 C278 1.443 . S
C277 C304 1.389 . S
C278 C277 1.443 . S
C278 C279 1.340 . S
C278 H310 0.951 . S
C279 C278 1.340 . S
C279 C280 1.439 . S
C279 H311 0.950 . S
C280 N276 1.374 . S
C280 C279 1.439 . S
C280 C305 1.395 . S
N281 Co270 1.995 . S
N281 C282 1.376 . S
N281 C285 1.383 . S
C282 N281 1.376 . S
C282 C283 1.446 . S
C282 C305 1.391 . S
C283 C282 1.446 . S
C283 C284 1.339 . S
C283 H312 0.949 . S
C284 C283 1.339 . S
C284 C285 1.439 . S
C284 H313 0.950 . S
C285 N281 1.383 . S
C285 C284 1.439 . S
C285 C303 1.392 . S
N286 Co270 2.282 . S
N286 C289 1.332 . S
N286 C291 1.332 . S
C287 C288 1.386 . S
C287 C290 1.388 . S
C288 C287 1.386 . S
C288 C289 1.382 . S
C288 H314 0.950 . S
C289 N286 1.332 . S
C289 C288 1.382 . S
C289 H300 0.952 . S
C290 C287 1.388 . S
C290 C291 1.382 . S
C290 H315 0.950 . S
C291 N286 1.332 . S
C291 C290 1.382 . S
C291 H301 0.948 . S
N292 Co270 2.282 . S
N292 C296 1.332 . S
N292 C297 1.332 . S
C293 C294 1.388 . S
C293 C297 1.382 . S
C293 H316 0.950 . S
C294 C293 1.388 . S
C294 C295 1.386 . S
C295 C294 1.386 . S
C295 C296 1.382 . S
C295 H317 0.950 . S
C296 N292 1.332 . S
C296 C295 1.382 . S
C296 H298 0.952 . S
C297 N292 1.332 . S
C297 C293 1.382 . S
C297 H299 0.948 . S
H298 C296 0.952 . S
H299 C297 0.948 . S
H300 C289 0.952 . S
H301 C291 0.948 . S
C302 C268 1.395 . S
C302 C272 1.391 . S
C303 C265 1.389 . S
C303 C285 1.392 . S
C304 C275 1.392 . S
C304 C277 1.389 . S
C305 C280 1.395 . S
C305 C282 1.391 . S
H306 C266 0.951 . S
H307 C267 0.950 . S
H308 C273 0.949 . S
H309 C274 0.950 . S
H310 C278 0.951 . S
H311 C279 0.950 . S
H312 C283 0.949 . S
H313 C284 0.950 . S
H314 C288 0.950 . S
H315 C290 0.950 . S
H316 C293 0.950 . S
H317 C295 0.950 . S
H318 C326 0.930 . S
H319 C329 0.930 . S
H320 C331 0.930 . S
H321 C332 0.970 . S
H322 C332 0.970 . S
H323 C334 0.930 . S
H324 C336 0.930 . S
H325 C338 0.930 . S
C326 H318 0.930 . S
C326 C327 1.382 . S
C326 C328 1.426 . S
C327 C326 1.382 . S
C327 C331 1.389 . S
C328 C326 1.426 . S
C328 C329 1.375 . S
C328 C332 1.532 . S
C329 H319 0.930 . S
C329 C328 1.375 . S
C329 C330 1.416 . S
C330 C329 1.416 . S
C330 C331 1.371 . S
C331 H320 0.930 . S
C331 C327 1.389 . S
C331 C330 1.371 . S
C332 H321 0.970 . S
C332 H322 0.970 . S
C332 C328 1.532 . S
C332 C333 1.499 . S
C333 C332 1.499 . S
C333 C334 1.370 . S
C333 C338 1.415 . S
C334 H323 0.930 . S
C334 C333 1.370 . S
C334 C335 1.407 . S
C335 C334 1.407 . S
C335 C336 1.365 . S
C336 H324 0.930 . S
C336 C335 1.365 . S
C336 C337 1.393 . S
C337 C336 1.393 . S
C337 C338 1.387 . S
C338 H325 0.930 . S
C338 C333 1.415 . S
C338 C337 1.387 . S
H339 C347 0.930 . S
H340 C350 0.930 . S
H341 C352 0.930 . S
H342 C353 0.970 . S
H343 C353 0.970 . S
H344 C355 0.930 . S
H345 C357 0.930 . S
H346 C359 0.930 . S
C347 H339 0.930 . S
C347 C348 1.382 . S
C347 C349 1.426 . S
C348 C347 1.382 . S
C348 C352 1.389 . S
C349 C347 1.426 . S
C349 C350 1.375 . S
C349 C353 1.532 . S
C350 H340 0.930 . S
C350 C349 1.375 . S
C350 C351 1.416 . S
C351 C350 1.416 . S
C351 C352 1.371 . S
C352 H341 0.930 . S
C352 C348 1.389 . S
C352 C351 1.371 . S
C353 H342 0.970 . S
C353 H343 0.970 . S
C353 C349 1.532 . S
C353 C354 1.499 . S
C354 C353 1.499 . S
C354 C355 1.370 . S
C354 C359 1.415 . S
C355 H344 0.930 . S
C355 C354 1.370 . S
C355 C356 1.407 . S
C356 C355 1.407 . S
C356 C357 1.365 . S
C357 H345 0.930 . S
C357 C356 1.365 . S
C357 C358 1.393 . S
C358 C357 1.393 . S
C358 C359 1.387 . S
C359 H346 0.930 . S
C359 C354 1.415 . S
C359 C358 1.387 . S
H360 C368 0.930 . S
H361 C371 0.930 . S
H362 C373 0.930 . S
H363 C374 0.970 . S
H364 C374 0.970 . S
H365 C376 0.930 . S
H366 C378 0.930 . S
H367 C380 0.930 . S
C368 H360 0.930 . S
C368 C369 1.382 . S
C368 C370 1.426 . S
C369 C368 1.382 . S
C369 C373 1.389 . S
C370 C368 1.426 . S
C370 C371 1.375 . S
C370 C374 1.532 . S
C371 H361 0.930 . S
C371 C370 1.375 . S
C371 C372 1.416 . S
C372 C371 1.416 . S
C372 C373 1.371 . S
C373 H362 0.930 . S
C373 C369 1.389 . S
C373 C372 1.371 . S
C374 H363 0.970 . S
C374 H364 0.970 . S
C374 C370 1.532 . S
C374 C375 1.499 . S
C375 C374 1.499 . S
C375 C376 1.370 . S
C375 C380 1.415 . S
C376 H365 0.930 . S
C376 C375 1.370 . S
C376 C377 1.407 . S
C377 C376 1.407 . S
C377 C378 1.365 . S
C378 H366 0.930 . S
C378 C377 1.365 . S
C378 C379 1.393 . S
C379 C378 1.393 . S
C379 C380 1.387 . S
C380 H367 0.930 . S
C380 C375 1.415 . S
C380 C379 1.387 . S
H381 C389 0.930 . S
H382 C392 0.930 . S
H383 C394 0.930 . S
H384 C395 0.970 . S
H385 C395 0.970 . S
H386 C397 0.930 . S
H387 C399 0.930 . S
H388 C401 0.930 . S
C389 H381 0.930 . S
C389 C390 1.382 . S
C389 C391 1.426 . S
C390 C389 1.382 . S
C390 C394 1.389 . S
C391 C389 1.426 . S
C391 C392 1.375 . S
C391 C395 1.532 . S
C392 H382 0.930 . S
C392 C391 1.375 . S
C392 C393 1.416 . S
C393 C392 1.416 . S
C393 C394 1.371 . S
C394 H383 0.930 . S
C394 C390 1.389 . S
C394 C393 1.371 . S
C395 H384 0.970 . S
C395 H385 0.970 . S
C395 C391 1.532 . S
C395 C396 1.499 . S
C396 C395 1.499 . S
C396 C397 1.370 . S
C396 C401 1.415 . S
C397 H386 0.930 . S
C397 C396 1.370 . S
C397 C398 1.407 . S
C398 C397 1.407 . S
C398 C399 1.365 . S
C399 H387 0.930 . S
C399 C398 1.365 . S
C399 C400 1.393 . S
C400 C399 1.393 . S
C400 C401 1.387 . S
C401 H388 0.930 . S
C401 C396 1.415 . S
C401 C400 1.387 . S
H402 C410 0.930 . S
H403 C413 0.930 . S
H404 C415 0.930 . S
H405 C416 0.970 . S
H406 C416 0.970 . S
H407 C418 0.930 . S
H408 C420 0.930 . S
H409 C422 0.930 . S
C410 H402 0.930 . S
C410 C411 1.382 . S
C410 C412 1.426 . S
C411 C410 1.382 . S
C411 C415 1.389 . S
C412 C410 1.426 . S
C412 C413 1.375 . S
C412 C416 1.532 . S
C413 H403 0.930 . S
C413 C412 1.375 . S
C413 C414 1.416 . S
C414 C413 1.416 . S
C414 C415 1.371 . S
C415 H404 0.930 . S
C415 C411 1.389 . S
C415 C414 1.371 . S
C416 H405 0.970 . S
C416 H406 0.970 . S
C416 C412 1.532 . S
C416 C417 1.499 . S
C417 C416 1.499 . S
C417 C418 1.370 . S
C417 C422 1.415 . S
C418 H407 0.930 . S
C418 C417 1.370 . S
C418 C419 1.407 . S
C419 C418 1.407 . S
C419 C420 1.365 . S
C420 H408 0.930 . S
C420 C419 1.365 . S
C420 C421 1.393 . S
C421 C420 1.393 . S
C421 C422 1.387 . S
C422 H409 0.930 . S
C422 C417 1.415 . S
C422 C421 1.387 . S
H423 C431 0.930 . S
H424 C434 0.930 . S
H425 C436 0.930 . S
H426 C437 0.970 . S
H427 C437 0.970 . S
H428 C439 0.930 . S
H429 C441 0.930 . S
H430 C443 0.930 . S
C431 H423 0.930 . S
C431 C432 1.382 . S
C431 C433 1.426 . S
C432 C431 1.382 . S
C432 C436 1.389 . S
C433 C431 1.426 . S
C433 C434 1.375 . S
C433 C437 1.532 . S
C434 H424 0.930 . S
C434 C433 1.375 . S
C434 C435 1.416 . S
C435 C434 1.416 . S
C435 C436 1.371 . S
C436 H425 0.930 . S
C436 C432 1.389 . S
C436 C435 1.371 . S
C437 H426 0.970 . S
C437 H427 0.970 . S
C437 C433 1.532 . S
C437 C438 1.499 . S
C438 C437 1.499 . S
C438 C439 1.370 . S
C438 C443 1.415 . S
C439 H428 0.930 . S
C439 C438 1.370 . S
C439 C440 1.407 . S
C440 C439 1.407 . S
C440 C441 1.365 . S
C441 H429 0.930 . S
C441 C440 1.365 . S
C441 C442 1.393 . S
C442 C441 1.393 . S
C442 C443 1.387 . S
C443 H430 0.930 . S
C443 C438 1.415 . S
C443 C442 1.387 . S
C39 C327 1.559 . S
C91 C348 1.596 . S
C369 C128 1.377 . S
C398 C188 1.646 . S
C411 C250 1.556 . S
C435 C304 1.873 . S
C75 C379 1.371 . S
C144 C393 1.779 . S
C421 C198 1.468 . S
C440 C234 1.614 . S
C294 C337 1.390 . S
C358 C29 1.404 . S
C400 C38 1.814 . S
C92 C414 1.603 . S
C432 C135 1.712 . S
C181 C330 1.472 . S
C251 C351 1.544 . S
C303 C372 1.644 . S
C82 C442 1.663 . S
C335 C145 1.659 . S
C197 C356 1.489 . S
C241 C377 1.461 . S
C287 C390 1.603 . S
C22 C419 1.420 . S
