# Generated by pormake.
# Topology nom, (4,4)-cn, num edge types: 1
# Building blocks:
#     Node 0, Type 0, BuildingBlock: KUFVIS_clean_linker_0, # of connection points: 4
#     Node 1, Type 0, BuildingBlock: KUFVIS_clean_linker_0, # of connection points: 4
#     Node 2, Type 0, BuildingBlock: KUFVIS_clean_linker_0, # of connection points: 4
#     Node 3, Type 0, BuildingBlock: KUFVIS_clean_linker_0, # of connection points: 4
#     Node 4, Type 0, BuildingBlock: KUFVIS_clean_linker_0, # of connection points: 4
#     Node 5, Type 0, BuildingBlock: KUFVIS_clean_linker_0, # of connection points: 4
#     Node 6, Type 1, BuildingBlock: CEKHIL_clean_sbu_0, # of connection points: 4
#     Node 7, Type 1, BuildingBlock: CEKHIL_clean_sbu_0, # of connection points: 4
#     Node 8, Type 1, BuildingBlock: CEKHIL_clean_sbu_0, # of connection points: 4
#     Node 9, Type 1, BuildingBlock: CEKHIL_clean_sbu_0, # of connection points: 4
#     Node 10, Type 1, BuildingBlock: CEKHIL_clean_sbu_0, # of connection points: 4
#     Node 11, Type 1, BuildingBlock: CEKHIL_clean_sbu_0, # of connection points: 4
#     Edge 12, Type (0, 1), BuildingBlock: UVAHIK_clean_linker_0, # of connection points: 2
#     Edge 13, Type (0, 1), BuildingBlock: UVAHIK_clean_linker_0, # of connection points: 2
#     Edge 14, Type (0, 1), BuildingBlock: UVAHIK_clean_linker_0, # of connection points: 2
#     Edge 15, Type (0, 1), BuildingBlock: UVAHIK_clean_linker_0, # of connection points: 2
#     Edge 16, Type (0, 1), BuildingBlock: UVAHIK_clean_linker_0, # of connection points: 2
#     Edge 17, Type (0, 1), BuildingBlock: UVAHIK_clean_linker_0, # of connection points: 2
#     Edge 18, Type (0, 1), BuildingBlock: UVAHIK_clean_linker_0, # of connection points: 2
#     Edge 19, Type (0, 1), BuildingBlock: UVAHIK_clean_linker_0, # of connection points: 2
#     Edge 20, Type (0, 1), BuildingBlock: UVAHIK_clean_linker_0, # of connection points: 2
#     Edge 21, Type (0, 1), BuildingBlock: UVAHIK_clean_linker_0, # of connection points: 2
#     Edge 22, Type (0, 1), BuildingBlock: UVAHIK_clean_linker_0, # of connection points: 2
#     Edge 23, Type (0, 1), BuildingBlock: UVAHIK_clean_linker_0, # of connection points: 2
#     Edge 24, Type (0, 1), BuildingBlock: UVAHIK_clean_linker_0, # of connection points: 2
#     Edge 25, Type (0, 1), BuildingBlock: UVAHIK_clean_linker_0, # of connection points: 2
#     Edge 26, Type (0, 1), BuildingBlock: UVAHIK_clean_linker_0, # of connection points: 2
#     Edge 27, Type (0, 1), BuildingBlock: UVAHIK_clean_linker_0, # of connection points: 2
#     Edge 28, Type (0, 1), BuildingBlock: UVAHIK_clean_linker_0, # of connection points: 2
#     Edge 29, Type (0, 1), BuildingBlock: UVAHIK_clean_linker_0, # of connection points: 2
#     Edge 30, Type (0, 1), BuildingBlock: UVAHIK_clean_linker_0, # of connection points: 2
#     Edge 31, Type (0, 1), BuildingBlock: UVAHIK_clean_linker_0, # of connection points: 2
#     Edge 32, Type (0, 1), BuildingBlock: UVAHIK_clean_linker_0, # of connection points: 2
#     Edge 33, Type (0, 1), BuildingBlock: UVAHIK_clean_linker_0, # of connection points: 2
#     Edge 34, Type (0, 1), BuildingBlock: UVAHIK_clean_linker_0, # of connection points: 2
#     Edge 35, Type (0, 1), BuildingBlock: UVAHIK_clean_linker_0, # of connection points: 2
# Relax obj value: 0.004
# Max RMSD: 0.049
# Mean RMSD: 0.042
data_MOF--net-nom--node1-CEKHIL_clean_sbu_0--node2-KUFVIS_clean_linker_0--edge1-UVAHIK_clean_linker_0
_symmetry_space_group_name_H-M    P1
_symmetry_Int_Tables_number       1
_symmetry_cell_setting            triclinic
loop_
_symmetry_equiv_pos_as_xyz
'x, y, z'
_cell_length_a     59.338104
_cell_length_b     58.857822
_cell_length_c     59.38775
_cell_angle_alpha  89.976091
_cell_angle_beta   89.968087
_cell_angle_gamma 120.80852
loop_
_atom_site_label
_atom_site_type_symbol
_atom_site_fract_x
_atom_site_fract_y
_atom_site_fract_z
_atom_type_partial_charge
H0 H 0.10803 0.56754 0.34617 0.0
H1 H 0.05454 0.56034 0.29447 0.0
H2 H 0.0263 0.52928 0.36158 0.0
H3 H 0.99208 0.53233 0.35201 0.0
H4 H 0.93568 0.49977 0.29879 0.0
H5 H 0.01596 0.52694 0.28392 0.0
C6 C 0.08807 0.56043 0.34064 0.0
C7 C 0.06767 0.54843 0.35622 0.0
C8 C 0.08344 0.56442 0.31834 0.0
C9 C 0.05766 0.55634 0.3116 0.0
C10 C 0.03625 0.54297 0.32681 0.0
C11 C 0.04182 0.53946 0.34934 0.0
C12 C 1.00833 0.53197 0.31902 0.0
C13 C 0.98795 0.52719 0.33441 0.0
C14 C 0.96172 0.515 0.32717 0.0
C15 C 0.9559 0.50903 0.30442 0.0
C16 C 0.97547 0.51391 0.28889 0.0
C17 C 1.00148 0.52483 0.29614 0.0
H18 H 0.53869 0.09855 0.51089 0.0
H19 H 0.50609 0.04325 0.45677 0.0
H20 H 0.50664 0.01667 0.52511 0.0
H21 H 0.47581 0.9783 0.51404 0.0
H22 H 0.46513 0.92464 0.46109 0.0
H23 H 0.50334 0.00703 0.44612 0.0
C24 C 0.52873 0.07821 0.50501 0.0
C25 C 0.52189 0.05786 0.5204 0.0
C26 C 0.5237 0.07296 0.48211 0.0
C27 C 0.51049 0.04664 0.47451 0.0
C28 C 0.50385 0.02539 0.4897 0.0
C29 C 0.51006 0.03166 0.51284 0.0
C30 C 0.49193 0.99718 0.48149 0.0
C31 C 0.47906 0.97546 0.49663 0.0
C32 C 0.47036 0.94951 0.48945 0.0
C33 C 0.47287 0.94482 0.46684 0.0
C34 C 0.48398 0.9654 0.45127 0.0
C35 C 0.49386 0.99152 0.45853 0.0
H36 H 0.5509 0.45544 0.63369 0.0
H37 H 0.50155 0.46146 0.68281 0.0
H38 H 0.51017 0.49525 0.61604 0.0
H39 H 0.47358 0.49397 0.62354 0.0
H40 H 0.44282 0.52021 0.67593 0.0
H41 H 0.49479 0.49301 0.69349 0.0
C42 C 0.53821 0.46285 0.63858 0.0
C43 C 0.53128 0.47552 0.62256 0.0
C44 C 0.52784 0.45806 0.66034 0.0
C45 C 0.51012 0.46628 0.66616 0.0
C46 C 0.50374 0.48056 0.65064 0.0
C47 C 0.51442 0.48469 0.62861 0.0
C48 C 0.48637 0.49127 0.6575 0.0
C49 C 0.4726 0.49741 0.64129 0.0
C50 C 0.4576 0.50859 0.64794 0.0
C51 C 0.45475 0.51198 0.67079 0.0
C52 C 0.46756 0.50571 0.68711 0.0
C53 C 0.48396 0.49624 0.68051 0.0
H54 H 0.10503 0.52365 0.79975 0.0
H55 H 0.04994 0.49433 0.85408 0.0
H56 H 0.02536 0.50009 0.78635 0.0
H57 H 0.98648 0.46888 0.79737 0.0
H58 H 0.93472 0.46248 0.85028 0.0
H59 H 0.01633 0.49716 0.86472 0.0
C60 C 0.08502 0.51533 0.80575 0.0
C61 C 0.06537 0.5111 0.79058 0.0
C62 C 0.07961 0.51003 0.82863 0.0
C63 C 0.05369 0.49905 0.83638 0.0
C64 C 0.03325 0.49494 0.82138 0.0
C65 C 0.03975 0.50157 0.79834 0.0
C66 C 1.00566 0.48505 0.82967 0.0
C67 C 0.98397 0.47285 0.81468 0.0
C68 C 0.95862 0.46567 0.82191 0.0
C69 C 0.95452 0.46924 0.84444 0.0
C70 C 0.97509 0.47985 0.8599 0.0
C71 C 1.00065 0.48808 0.85252 0.0
H72 H 0.50802 0.92518 0.01276 0.0
H73 H 0.51826 0.97853 0.9596 0.0
H74 H 0.55251 0.00826 0.02559 0.0
H75 H 0.55166 0.04334 0.01619 0.0
H76 H 0.57349 0.09755 0.96124 0.0
H77 H 0.54904 0.01706 0.94729 0.0
C78 C 0.51641 0.94534 0.00673 0.0
C79 C 0.53048 0.96634 0.02154 0.0
C80 C 0.51231 0.94978 0.98446 0.0
C81 C 0.52264 0.97581 0.97671 0.0
C82 C 0.53743 0.99774 0.99121 0.0
C83 C 0.54117 0.99244 0.01382 0.0
C84 C 0.54814 0.02575 0.98297 0.0
C85 C 0.55435 0.04675 0.99825 0.0
C86 C 0.56367 0.07263 0.99046 0.0
C87 C 0.56604 0.07755 0.96734 0.0
C88 C 0.5604 0.05753 0.9519 0.0
C89 C 0.55215 0.03189 0.95963 0.0
H90 H 0.50105 0.57887 0.12949 0.0
H91 H 0.54526 0.56606 0.1796 0.0
H92 H 0.52954 0.52678 0.11475 0.0
H93 H 0.56812 0.52891 0.12246 0.0
H94 H 0.58592 0.49046 0.17487 0.0
H95 H 0.54208 0.5276 0.19101 0.0
C96 C 0.51139 0.56899 0.13483 0.0
C97 C 0.51414 0.55232 0.11984 0.0
C98 C 0.5225 0.57395 0.15627 0.0
C99 C 0.53629 0.56156 0.16308 0.0
C100 C 0.53911 0.5442 0.14831 0.0
C101 C 0.52798 0.53996 0.1265 0.0
C102 C 0.55317 0.53026 0.1557 0.0
C103 C 0.56663 0.52322 0.13998 0.0
C104 C 0.57796 0.50837 0.1468 0.0
C105 C 0.57674 0.50144 0.16945 0.0
C106 C 0.56435 0.50878 0.18537 0.0
C107 C 0.55249 0.52303 0.17855 0.0
Co108 Co 0.65209 0.38508 0.40374 0.0
O109 O 0.67789 0.38692 0.38283 0.0
O110 O 0.68576 0.41704 0.40874 0.0
C111 C 0.63602 0.34209 0.41319 0.0
O112 O 0.63139 0.38993 0.42897 0.0
Co113 Co 0.59213 0.3461 0.39759 0.0
O114 O 0.58918 0.35717 0.42833 0.0
C115 C 0.61877 0.39699 0.3725 0.0
C116 C 0.69477 0.40876 0.39276 0.0
C117 C 0.60803 0.37781 0.43734 0.0
O118 O 0.64104 0.40401 0.38181 0.0
O119 O 0.59788 0.37461 0.37589 0.0
O120 O 0.65718 0.36075 0.42267 0.0
O121 O 0.62631 0.34972 0.39754 0.0
Co122 Co 0.28174 0.63933 0.57251 0.0
O123 O 0.30809 0.63884 0.59128 0.0
O124 O 0.28201 0.60686 0.56792 0.0
C125 C 0.30814 0.68139 0.56022 0.0
O126 O 0.25328 0.63272 0.54963 0.0
Co127 Co 0.26237 0.67898 0.57956 0.0
O128 O 0.24316 0.66462 0.55094 0.0
C129 C 0.24434 0.63293 0.61009 0.0
C130 C 0.30135 0.61617 0.58216 0.0
C131 C 0.24067 0.64367 0.54225 0.0
O132 O 0.25455 0.62278 0.59736 0.0
O133 O 0.24761 0.65594 0.60681 0.0
O134 O 0.30916 0.66199 0.55081 0.0
O135 O 0.29261 0.67503 0.57725 0.0
Co136 Co 0.65131 0.27621 0.7374 0.0
O137 O 0.64977 0.30232 0.7189 0.0
O138 O 0.61881 0.27583 0.7428 0.0
C139 C 0.69319 0.30356 0.74889 0.0
O140 O 0.64632 0.24778 0.7601 0.0
Co141 Co 0.69166 0.25836 0.72819 0.0
O142 O 0.67991 0.24046 0.75773 0.0
C143 C 0.64439 0.23863 0.69945 0.0
C144 C 0.62745 0.29524 0.72845 0.0
C145 C 0.65894 0.23667 0.76714 0.0
O146 O 0.63456 0.24869 0.71273 0.0
O147 O 0.66755 0.24247 0.70181 0.0
O148 O 0.67393 0.30406 0.75881 0.0
O149 O 0.68675 0.28807 0.73173 0.0
Co150 Co 0.38892 0.64036 0.9035 0.0
O151 O 0.36277 0.63844 0.8831 0.0
O152 O 0.35595 0.6074 0.90777 0.0
C153 C 0.4032 0.68249 0.91451 0.0
O154 O 0.41027 0.63541 0.92797 0.0
Co155 Co 0.44825 0.68121 0.89728 0.0
O156 O 0.45232 0.66852 0.92699 0.0
C157 C 0.42274 0.63262 0.86932 0.0
C158 C 0.34646 0.61587 0.89235 0.0
C159 C 0.43381 0.64749 0.93588 0.0
O160 O 0.40108 0.6236 0.8804 0.0
O161 O 0.44272 0.65573 0.87253 0.0
O162 O 0.38254 0.66279 0.9237 0.0
O163 O 0.41352 0.67632 0.89828 0.0
Co164 Co 0.75712 0.38129 0.07287 0.0
O165 O 0.73108 0.38245 0.09151 0.0
O166 O 0.75773 0.41426 0.06821 0.0
C167 C 0.72975 0.33941 0.06058 0.0
O168 O 0.78556 0.38714 0.05018 0.0
Co169 Co 0.77469 0.34038 0.08053 0.0
O170 O 0.79452 0.35444 0.0521 0.0
C171 C 0.79425 0.38702 0.11053 0.0
C172 C 0.73829 0.40522 0.08238 0.0
C173 C 0.79778 0.37561 0.04319 0.0
O174 O 0.78421 0.39733 0.09778 0.0
O175 O 0.79044 0.36377 0.10745 0.0
O176 O 0.72968 0.35925 0.05107 0.0
O177 O 0.74507 0.34528 0.07771 0.0
Co178 Co 0.39128 0.74984 0.23439 0.0
O179 O 0.39368 0.72544 0.21417 0.0
O180 O 0.42228 0.74799 0.24104 0.0
C181 C 0.34815 0.72292 0.24276 0.0
O182 O 0.39544 0.77596 0.25906 0.0
Co183 Co 0.35447 0.77188 0.22531 0.0
O184 O 0.36417 0.78653 0.25612 0.0
C185 C 0.40536 0.7948 0.20121 0.0
C186 C 0.41485 0.73066 0.22494 0.0
C187 C 0.38368 0.78784 0.26632 0.0
O188 O 0.4116 0.7801 0.21252 0.0
O189 O 0.38301 0.79308 0.20295 0.0
O190 O 0.36594 0.72018 0.25302 0.0
O191 O 0.35669 0.7403 0.22684 0.0
C192 C 0.12433 0.56874 0.30233 0.0
C193 C 0.10628 0.57747 0.30281 0.0
C194 C 0.14866 0.58378 0.29185 0.0
C195 C 0.19588 0.65315 0.27598 0.0
H196 H 0.23464 0.62194 0.25187 0.0
C197 C 0.30226 0.71438 0.24057 0.0
C198 C 0.31991 0.70698 0.24853 0.0
C199 C 0.2754 0.69883 0.24528 0.0
C200 C 0.22408 0.63092 0.25864 0.0
H201 H 0.09883 0.6079 0.29131 0.0
H202 H 0.14126 0.63401 0.27222 0.0
H203 H 0.1882 0.59371 0.26079 0.0
H204 H 0.32326 0.67751 0.26769 0.0
H205 H 0.27625 0.65006 0.27556 0.0
H206 H 0.23194 0.69045 0.27352 0.0
C207 C 0.13681 0.61579 0.28051 0.0
C208 C 0.19743 0.61476 0.2638 0.0
C209 C 0.11235 0.60067 0.29114 0.0
C210 C 0.31016 0.68375 0.26137 0.0
C211 C 0.28324 0.66796 0.26574 0.0
C212 C 0.22247 0.66937 0.2705 0.0
C213 C 0.15563 0.60794 0.28134 0.0
C214 C 0.18306 0.62554 0.27303 0.0
C215 C 0.26557 0.67529 0.25769 0.0
C216 C 0.23697 0.65835 0.26221 0.0
H217 H 0.12011 0.55084 0.31112 0.0
H218 H 0.16253 0.57707 0.29315 0.0
H219 H 0.18571 0.66223 0.28336 0.0
H220 H 0.30917 0.73219 0.23065 0.0
H221 H 0.26224 0.70492 0.2388 0.0
C222 C 0.51819 0.10393 0.45683 0.0
C223 C 0.5345 0.09594 0.46672 0.0
C224 C 0.52904 0.12952 0.44785 0.0
C225 C 0.58456 0.19521 0.45895 0.0
H226 H 0.56797 0.21656 0.40263 0.0
C227 C 0.63793 0.30489 0.43185 0.0
C228 C 0.62388 0.31386 0.41942 0.0
C229 C 0.6269 0.27792 0.4365 0.0
C230 C 0.57254 0.211 0.41861 0.0
H231 H 0.57474 0.10741 0.47379 0.0
H232 H 0.59366 0.15183 0.45805 0.0
H233 H 0.54857 0.16953 0.41117 0.0
H234 H 0.58701 0.3017 0.40258 0.0
H235 H 0.56734 0.25496 0.41149 0.0
H236 H 0.60769 0.23628 0.46697 0.0
C237 C 0.57259 0.13859 0.45731 0.0
C238 C 0.5615 0.18402 0.42338 0.0
C239 C 0.56181 0.11312 0.46608 0.0
C240 C 0.5984 0.29538 0.41212 0.0
C241 C 0.5872 0.26848 0.41705 0.0
C242 C 0.59525 0.22209 0.45437 0.0
C243 C 0.55629 0.14743 0.44891 0.0
C244 C 0.56761 0.17589 0.44352 0.0
C245 C 0.60136 0.25928 0.42914 0.0
C246 C 0.58957 0.23045 0.43407 0.0
H247 H 0.49706 0.09115 0.4575 0.0
H248 H 0.51604 0.13587 0.4415 0.0
H249 H 0.58923 0.1895 0.47483 0.0
H250 H 0.65771 0.31864 0.43752 0.0
H251 H 0.63867 0.27168 0.44551 0.0
C252 C 0.454 0.54551 0.63186 0.0
C253 C 0.4456 0.51847 0.63172 0.0
C254 C 0.43905 0.55474 0.62159 0.0
C255 C 0.37007 0.53108 0.60649 0.0
H256 H 0.40028 0.60278 0.58411 0.0
C257 C 0.30793 0.57736 0.57797 0.0
C258 C 0.31646 0.60283 0.58643 0.0
C259 C 0.32326 0.56567 0.58082 0.0
C260 C 0.39155 0.58272 0.59037 0.0
H261 H 0.4157 0.47996 0.61981 0.0
H262 H 0.38966 0.49612 0.60108 0.0
H263 H 0.4286 0.58483 0.59127 0.0
H264 H 0.34773 0.63588 0.60465 0.0
H265 H 0.37442 0.61563 0.60944 0.0
H266 H 0.33297 0.52916 0.60554 0.0
C267 C 0.40768 0.51021 0.60948 0.0
C268 C 0.40778 0.5724 0.59451 0.0
C269 C 0.42274 0.50096 0.61986 0.0
C270 C 0.34051 0.61621 0.59797 0.0
C271 C 0.35595 0.60471 0.60055 0.0
C272 C 0.35377 0.54134 0.60209 0.0
C273 C 0.41519 0.53713 0.61087 0.0
C274 C 0.39741 0.54666 0.60321 0.0
C275 C 0.34762 0.57938 0.59189 0.0
C276 C 0.36443 0.56751 0.59453 0.0
H277 H 0.47138 0.55933 0.6412 0.0
H278 H 0.44544 0.57549 0.62338 0.0
H279 H 0.36131 0.51134 0.61344 0.0
H280 H 0.28954 0.56655 0.56894 0.0
H281 H 0.31633 0.54616 0.57392 0.0
C282 C 0.91812 0.46293 0.80691 0.0
C283 C 0.93548 0.45334 0.80677 0.0
C284 C 0.89305 0.44797 0.79776 0.0
C285 C 0.84923 0.39236 0.76147 0.0
H286 H 0.79641 0.38113 0.8058 0.0
C287 C 0.73974 0.31439 0.74807 0.0
C288 C 0.72085 0.32006 0.75601 0.0
C289 C 0.76622 0.33077 0.75353 0.0
C290 C 0.81076 0.38433 0.79301 0.0
H291 H 0.94109 0.42167 0.79529 0.0
H292 H 0.89709 0.39554 0.77873 0.0
H293 H 0.84257 0.4107 0.81432 0.0
H294 H 0.71481 0.34732 0.77589 0.0
H295 H 0.76111 0.3765 0.78485 0.0
H296 H 0.81747 0.36651 0.7399 0.0
C297 C 0.90295 0.4146 0.78613 0.0
C298 C 0.83728 0.40124 0.79797 0.0
C299 C 0.92814 0.42957 0.79547 0.0
C300 C 0.72892 0.34233 0.76971 0.0
C301 C 0.7555 0.359 0.77489 0.0
C302 C 0.82261 0.37571 0.75634 0.0
C303 C 0.88483 0.42317 0.7881 0.0
C304 C 0.85678 0.40544 0.78227 0.0
C305 C 0.77457 0.35351 0.76679 0.0
C306 C 0.80298 0.3714 0.77208 0.0
H307 H 0.92341 0.48132 0.81535 0.0
H308 H 0.87964 0.45527 0.79912 0.0
H309 H 0.86388 0.39535 0.74905 0.0
H310 H 0.7341 0.29727 0.73757 0.0
H311 H 0.7801 0.32546 0.74739 0.0
C312 C 0.47085 0.90787 0.9761 0.0
C313 C 0.49679 0.92639 0.97 0.0
C314 C 0.45825 0.88235 0.96714 0.0
C315 C 0.46223 0.83865 0.92415 0.0
H316 H 0.42981 0.78574 0.97119 0.0
C317 C 0.4367 0.7307 0.91139 0.0
C318 C 0.41332 0.71038 0.92093 0.0
C319 C 0.44561 0.75721 0.91631 0.0
C320 C 0.43838 0.80014 0.95773 0.0
H321 H 0.52946 0.93348 0.94888 0.0
H322 H 0.50745 0.88873 0.93305 0.0
H323 H 0.44632 0.83197 0.9799 0.0
H324 H 0.38099 0.7019 0.9432 0.0
H325 H 0.39631 0.74818 0.95158 0.0
H326 H 0.45442 0.80672 0.90201 0.0
C327 C 0.4967 0.89397 0.94458 0.0
C328 C 0.44785 0.82672 0.96272 0.0
C329 C 0.50929 0.91962 0.95353 0.0
C330 C 0.39918 0.71711 0.93571 0.0
C331 C 0.40802 0.74366 0.94054 0.0
C332 C 0.45264 0.81198 0.91911 0.0
C333 C 0.47144 0.87473 0.95204 0.0
C334 C 0.46001 0.84634 0.94604 0.0
C335 C 0.4313 0.76408 0.93081 0.0
C336 C 0.44076 0.79239 0.93589 0.0
H337 H 0.46093 0.91266 0.98891 0.0
H338 H 0.43861 0.86819 0.97288 0.0
H339 H 0.47131 0.85324 0.91089 0.0
H340 H 0.4481 0.72615 0.89999 0.0
H341 H 0.46387 0.77231 0.90885 0.0
C342 C 0.58341 0.47248 0.13062 0.0
C343 C 0.59115 0.49937 0.13095 0.0
C344 C 0.59907 0.46411 0.12034 0.0
C345 C 0.66853 0.48954 0.10597 0.0
H346 H 0.63988 0.41861 0.08229 0.0
C347 C 0.732 0.44424 0.07787 0.0
C348 C 0.72337 0.41879 0.08647 0.0
C349 C 0.71664 0.45594 0.08049 0.0
C350 C 0.64819 0.43848 0.08888 0.0
H351 H 0.62053 0.53845 0.11958 0.0
H352 H 0.64786 0.52379 0.10092 0.0
H353 H 0.61084 0.43573 0.08931 0.0
H354 H 0.69196 0.38585 0.10477 0.0
H355 H 0.66524 0.40608 0.10908 0.0
H356 H 0.70595 0.49206 0.10551 0.0
C357 C 0.62983 0.50918 0.10903 0.0
C358 C 0.63154 0.44832 0.09295 0.0
C359 C 0.61404 0.51757 0.1194 0.0
C360 C 0.69926 0.40548 0.09796 0.0
C361 C 0.68381 0.41698 0.10028 0.0
C362 C 0.68527 0.47977 0.10162 0.0
C363 C 0.62295 0.48242 0.10999 0.0
C364 C 0.64131 0.47369 0.1022 0.0
C365 C 0.69217 0.44222 0.09141 0.0
C366 C 0.67514 0.45386 0.09364 0.0
H367 H 0.5659 0.45806 0.13952 0.0
H368 H 0.59313 0.44344 0.12176 0.0
H369 H 0.67682 0.50904 0.11331 0.0
H370 H 0.75046 0.45498 0.06889 0.0
H371 H 0.72358 0.47542 0.07348 0.0
C372 C 0.46747 0.90893 0.50505 0.0
C373 C 0.45792 0.92639 0.50476 0.0
C374 C 0.45233 0.88355 0.51394 0.0
C375 C 0.39558 0.83868 0.54859 0.0
H376 H 0.38663 0.78627 0.50426 0.0
C377 C 0.31814 0.72806 0.56023 0.0
C378 C 0.32435 0.70924 0.55287 0.0
C379 C 0.33438 0.75481 0.55493 0.0
C380 C 0.38917 0.8005 0.51704 0.0
H381 H 0.42606 0.93187 0.51515 0.0
H382 H 0.39954 0.88728 0.53128 0.0
H383 H 0.41624 0.83299 0.49648 0.0
H384 H 0.35237 0.70359 0.53408 0.0
H385 H 0.38129 0.75038 0.52537 0.0
H386 H 0.369 0.80625 0.56943 0.0
C387 C 0.41874 0.89332 0.52445 0.0
C388 C 0.40611 0.82733 0.51252 0.0
C389 C 0.43393 0.91883 0.51538 0.0
C390 C 0.34697 0.71764 0.5398 0.0
C391 C 0.36349 0.7445 0.53477 0.0
C392 C 0.37888 0.81175 0.55329 0.0
C393 C 0.42735 0.8751 0.52287 0.0
C394 C 0.40952 0.8467 0.52823 0.0
C395 C 0.35753 0.76352 0.54242 0.0
C396 C 0.3754 0.79226 0.53754 0.0
H397 H 0.48597 0.91437 0.49701 0.0
H398 H 0.45963 0.87006 0.51287 0.0
H399 H 0.39794 0.85322 0.56101 0.0
H400 H 0.30073 0.72217 0.57024 0.0
H401 H 0.32871 0.76864 0.56067 0.0
C402 C 0.51658 0.41977 0.68631 0.0
C403 C 0.53549 0.44358 0.67618 0.0
C404 C 0.52413 0.40346 0.6971 0.0
C405 C 0.58327 0.40173 0.71732 0.0
H406 H 0.54187 0.32727 0.70205 0.0
C407 C 0.62728 0.3348 0.7134 0.0
C408 C 0.6139 0.3102 0.72442 0.0
C409 C 0.61568 0.35016 0.71085 0.0
C410 C 0.55345 0.34794 0.7067 0.0
H411 H 0.57714 0.46988 0.67074 0.0
H412 H 0.59028 0.44168 0.68908 0.0
H413 H 0.52522 0.35657 0.69312 0.0
H414 H 0.57751 0.28217 0.74097 0.0
H415 H 0.55682 0.30888 0.73587 0.0
H416 H 0.61209 0.39327 0.72979 0.0
C417 C 0.56965 0.43539 0.68905 0.0
C418 C 0.54387 0.36477 0.7017 0.0
C419 C 0.56212 0.45159 0.67837 0.0
C420 C 0.58831 0.30102 0.73238 0.0
C421 C 0.57647 0.31627 0.72947 0.0
C422 C 0.59295 0.38501 0.72201 0.0
C423 C 0.55076 0.41071 0.69801 0.0
C424 C 0.55897 0.39206 0.70642 0.0
C425 C 0.59023 0.34119 0.71896 0.0
C426 C 0.57844 0.35807 0.71628 0.0
H427 H 0.4959 0.41306 0.68476 0.0
H428 H 0.50906 0.38481 0.70412 0.0
H429 H 0.5952 0.42243 0.72176 0.0
H430 H 0.64703 0.34254 0.70711 0.0
H431 H 0.62663 0.36911 0.70241 0.0
C432 C 0.12107 0.5456 0.84507 0.0
C433 C 0.10224 0.51851 0.84388 0.0
C434 C 0.14613 0.5541 0.85337 0.0
C435 C 0.18907 0.53929 0.88558 0.0
H436 H 0.23999 0.57994 0.83911 0.0
C437 C 0.3005 0.5766 0.8955 0.0
C438 C 0.31812 0.60182 0.88672 0.0
C439 C 0.27352 0.56435 0.89102 0.0
C440 C 0.22621 0.56898 0.85246 0.0
H441 H 0.09412 0.47912 0.85171 0.0
H442 H 0.13818 0.49416 0.86699 0.0
H443 H 0.19371 0.56329 0.83249 0.0
H444 H 0.3212 0.634 0.86653 0.0
H445 H 0.27461 0.61326 0.85934 0.0
H446 H 0.22171 0.54582 0.90592 0.0
C447 C 0.1334 0.50871 0.86141 0.0
C448 C 0.19963 0.55931 0.84858 0.0
C449 C 0.10821 0.50012 0.85284 0.0
C450 C 0.30824 0.61443 0.87335 0.0
C451 C 0.28139 0.60239 0.8691 0.0
C452 C 0.21587 0.54939 0.88966 0.0
C453 C 0.15287 0.5357 0.86079 0.0
C454 C 0.18082 0.54467 0.86515 0.0
C455 C 0.26358 0.57715 0.87783 0.0
C456 C 0.23485 0.56471 0.87324 0.0
H457 H 0.11695 0.56009 0.83804 0.0
H458 H 0.16072 0.57502 0.8529 0.0
H459 H 0.1749 0.528 0.8986 0.0
H460 H 0.30751 0.56639 0.9059 0.0
H461 H 0.26052 0.5448 0.89782 0.0
C462 C 0.56516 0.11405 0.00223 0.0
C463 C 0.57316 0.09562 0.0058 0.0
C464 C 0.57949 0.13947 0.01128 0.0
C465 C 0.63194 0.18311 0.05105 0.0
H466 H 0.64985 0.23572 0.00428 0.0
C467 C 0.71549 0.29147 0.06267 0.0
C468 C 0.71209 0.3116 0.05367 0.0
C469 C 0.69773 0.26492 0.05769 0.0
C470 C 0.64478 0.22144 0.0177 0.0
H471 H 0.601 0.0885 0.0232 0.0
H472 H 0.62598 0.13299 0.03939 0.0
H473 H 0.61859 0.18945 0.99637 0.0
H474 H 0.68753 0.31972 0.03222 0.0
H475 H 0.65614 0.27336 0.02388 0.0
H476 H 0.65803 0.21513 0.07245 0.0
C477 C 0.60865 0.12777 0.02952 0.0
C478 C 0.62682 0.19484 0.01315 0.0
C479 C 0.59427 0.10225 0.02039 0.0
C480 C 0.69078 0.30465 0.03926 0.0
C481 C 0.67282 0.27804 0.03446 0.0
C482 C 0.64975 0.20981 0.0557 0.0
C483 C 0.60212 0.147 0.02414 0.0
C484 C 0.62023 0.17534 0.02973 0.0
C485 C 0.67593 0.25777 0.04376 0.0
C486 C 0.65655 0.22934 0.03903 0.0
H487 H 0.54888 0.10936 0.9911 0.0
H488 H 0.57364 0.15367 0.00725 0.0
H489 H 0.62716 0.16855 0.06419 0.0
H490 H 0.73181 0.2962 0.07375 0.0
H491 H 0.70118 0.25 0.06476 0.0
C492 C 0.50095 0.58413 0.18772 0.0
C493 C 0.51988 0.59307 0.17055 0.0
C494 C 0.49297 0.60099 0.19665 0.0
C495 C 0.48711 0.65704 0.17765 0.0
H496 H 0.46762 0.66021 0.23938 0.0
C497 C 0.42177 0.69975 0.2009 0.0
C498 C 0.42905 0.71661 0.21966 0.0
C499 C 0.43442 0.68573 0.19623 0.0
C500 C 0.47315 0.65966 0.22209 0.0
H501 H 0.54637 0.62674 0.15012 0.0
H502 H 0.53302 0.65634 0.16599 0.0
H503 H 0.48844 0.63453 0.23023 0.0
H504 H 0.45531 0.73184 0.24832 0.0
H505 H 0.47741 0.70723 0.24015 0.0
H506 H 0.4717 0.68185 0.16938 0.0
C507 C 0.52404 0.63633 0.17242 0.0
C508 C 0.4849 0.64482 0.21684 0.0
C509 C 0.53195 0.61953 0.16355 0.0
C510 C 0.4493 0.7191 0.23367 0.0
C511 C 0.46183 0.70485 0.2291 0.0
C512 C 0.4752 0.67162 0.18285 0.0
C513 C 0.5037 0.62697 0.1884 0.0
C514 C 0.49205 0.64337 0.19454 0.0
C515 C 0.45456 0.68804 0.21028 0.0
C516 C 0.46796 0.67305 0.20509 0.0
H517 H 0.49101 0.56363 0.19303 0.0
H518 H 0.47718 0.59313 0.20886 0.0
H519 H 0.49196 0.65603 0.16024 0.0
H520 H 0.40618 0.69727 0.18981 0.0
H521 H 0.42813 0.67273 0.18174 0.0
C522 C 0.9328 0.52424 0.35167 0.0
C523 C 0.93927 0.50619 0.34278 0.0
C524 C 0.90761 0.51518 0.36053 0.0
C525 C 0.84148 0.46278 0.34897 0.0
H526 H 0.82 0.47853 0.40562 0.0
C527 C 0.73273 0.40904 0.37421 0.0
C528 C 0.72315 0.4222 0.38723 0.0
C529 C 0.75957 0.42062 0.37 0.0
C530 C 0.82563 0.47428 0.38955 0.0
H531 H 0.92542 0.46471 0.33741 0.0
H532 H 0.88168 0.44896 0.3528 0.0
H533 H 0.86674 0.49661 0.39785 0.0
H534 H 0.73431 0.45809 0.40584 0.0
H535 H 0.78121 0.47891 0.39771 0.0
H536 H 0.80097 0.44134 0.34005 0.0
C537 C 0.89587 0.47 0.35296 0.0
C538 C 0.85242 0.48454 0.38521 0.0
C539 C 0.92094 0.47898 0.34437 0.0
C540 C 0.74108 0.44745 0.39572 0.0
C541 C 0.76803 0.45927 0.39122 0.0
C542 C 0.81489 0.45296 0.35309 0.0
C543 C 0.88859 0.48802 0.36029 0.0
C544 C 0.86052 0.47845 0.36502 0.0
C545 C 0.7777 0.44596 0.37834 0.0
C546 C 0.80643 0.4581 0.3736 0.0
H547 H 0.94647 0.54532 0.35025 0.0
H548 H 0.90244 0.52947 0.36603 0.0
H549 H 0.84721 0.45822 0.33305 0.0
H550 H 0.71952 0.38941 0.36766 0.0
H551 H 0.76609 0.40932 0.36052 0.0
C552 C 0.07391 0.56415 0.39588 0.0
C553 C 0.07465 0.54706 0.37986 0.0
C554 C 0.08807 0.56945 0.41598 0.0
C555 C 0.14733 0.5705 0.43644 0.0
H556 H 0.13057 0.59215 0.49256 0.0
C557 C 0.21803 0.60786 0.51307 0.0
C558 C 0.22114 0.63055 0.5239 0.0
C559 C 0.19855 0.59479 0.49671 0.0
C560 C 0.13555 0.58625 0.47694 0.0
H561 H 0.08882 0.52048 0.37279 0.0
H562 H 0.11253 0.52868 0.40828 0.0
H563 H 0.0973 0.57218 0.46313 0.0
H564 H 0.20619 0.65736 0.5257 0.0
H565 H 0.17249 0.63468 0.49723 0.0
H566 H 0.18565 0.58482 0.45018 0.0
C567 C 0.10175 0.53866 0.40519 0.0
C568 C 0.11648 0.5748 0.46007 0.0
C569 C 0.08785 0.53361 0.38503 0.0
C570 C 0.20445 0.63997 0.51778 0.0
C571 C 0.18491 0.62681 0.50158 0.0
C572 C 0.16631 0.58178 0.45335 0.0
C573 C 0.10311 0.55762 0.42043 0.0
C574 C 0.12224 0.56714 0.43944 0.0
C575 C 0.18161 0.60399 0.49094 0.0
C576 C 0.1608 0.5902 0.47365 0.0
H577 H 0.06425 0.57509 0.39204 0.0
H578 H 0.08873 0.58428 0.4272 0.0
H579 H 0.15275 0.5654 0.42065 0.0
H580 H 0.23046 0.6 0.51737 0.0
H581 H 0.19644 0.5772 0.48886 0.0
C582 C 0.55557 0.07666 0.55028 0.0
C583 C 0.52918 0.06542 0.54411 0.0
C584 C 0.56517 0.0926 0.5694 0.0
C585 C 0.55002 0.11579 0.62144 0.0
H586 H 0.60912 0.18352 0.60309 0.0
C587 C 0.60071 0.20731 0.6813 0.0
C588 C 0.62829 0.22061 0.68102 0.0
C589 C 0.58603 0.18809 0.66495 0.0
C590 C 0.59278 0.1647 0.6086 0.0
H591 H 0.4917 0.06042 0.55356 0.0
H592 H 0.5084 0.08793 0.58752 0.0
H593 H 0.58873 0.14755 0.57606 0.0
H594 H 0.662 0.22483 0.66283 0.0
H595 H 0.63675 0.19165 0.63486 0.0
H596 H 0.55463 0.13293 0.65426 0.0
C597 C 0.52159 0.08432 0.57764 0.0
C598 C 0.58114 0.14408 0.5931 0.0
C599 C 0.51201 0.06846 0.55835 0.0
C600 C 0.6408 0.21495 0.66367 0.0
C601 C 0.62626 0.19598 0.64745 0.0
C602 C 0.56194 0.13646 0.63714 0.0
C603 C 0.54853 0.0976 0.58264 0.0
C604 C 0.55999 0.11927 0.59944 0.0
C605 C 0.59871 0.18208 0.64794 0.0
C606 C 0.58381 0.16101 0.63096 0.0
H607 H 0.5692 0.07496 0.53928 0.0
H608 H 0.58597 0.1024 0.57304 0.0
H609 H 0.53357 0.09689 0.62666 0.0
H610 H 0.59048 0.21114 0.69451 0.0
H611 H 0.56481 0.17786 0.66568 0.0
C612 C 0.4843 0.53102 0.72302 0.0
C613 C 0.46386 0.51023 0.71094 0.0
C614 C 0.47905 0.53959 0.74329 0.0
C615 C 0.42385 0.54079 0.77062 0.0
H616 H 0.47286 0.57271 0.82002 0.0
C617 C 0.40428 0.5905 0.84664 0.0
C618 C 0.4256 0.61537 0.85273 0.0
C619 C 0.40771 0.57436 0.83135 0.0
C620 C 0.45898 0.56388 0.80631 0.0
H621 H 0.42242 0.48088 0.711 0.0
H622 H 0.41332 0.49508 0.74674 0.0
H623 H 0.48164 0.54941 0.79048 0.0
H624 H 0.46734 0.64258 0.84748 0.0
H625 H 0.47311 0.61468 0.821 0.0
H626 H 0.40146 0.55569 0.78623 0.0
C627 C 0.43327 0.50529 0.74044 0.0
C628 C 0.46404 0.55057 0.78938 0.0
C629 C 0.43849 0.49693 0.72014 0.0
C630 C 0.45038 0.62362 0.84322 0.0
C631 C 0.45381 0.60748 0.82816 0.0
C632 C 0.41875 0.554 0.78759 0.0
C633 C 0.45325 0.52741 0.75181 0.0
C634 C 0.44676 0.53923 0.7711 0.0
C635 C 0.43259 0.58266 0.82205 0.0
C636 C 0.43652 0.56615 0.80539 0.0
H637 H 0.50393 0.54179 0.71601 0.0
H638 H 0.4949 0.5568 0.75148 0.0
H639 H 0.41031 0.53275 0.75661 0.0
H640 H 0.38495 0.58348 0.85366 0.0
H641 H 0.39098 0.55527 0.82698 0.0
C642 C 0.97113 0.46283 0.89899 0.0
C643 C 0.96837 0.47963 0.88394 0.0
C644 C 0.95698 0.45525 0.9192 0.0
C645 C 0.91452 0.46722 0.95762 0.0
H646 H 0.87513 0.39071 0.96219 0.0
C647 C 0.8217 0.41096 0.01375 0.0
C648 C 0.81788 0.38829 0.02515 0.0
C649 C 0.84174 0.42357 0.99772 0.0
C650 C 0.8862 0.41212 0.96149 0.0
H651 H 0.95077 0.50363 0.879 0.0
H652 H 0.92644 0.49083 0.91442 0.0
H653 H 0.90989 0.41203 0.9344 0.0
H654 H 0.83236 0.36122 0.02851 0.0
H655 H 0.86729 0.38332 0.00111 0.0
H656 H 0.89065 0.46725 0.9847 0.0
C657 C 0.93937 0.48339 0.9107 0.0
C658 C 0.90623 0.42436 0.94554 0.0
C659 C 0.95335 0.49079 0.89044 0.0
C660 C 0.83447 0.37847 0.01998 0.0
C661 C 0.85455 0.39115 0.00413 0.0
C662 C 0.89456 0.45495 0.97376 0.0
C663 C 0.93999 0.4645 0.92475 0.0
C664 C 0.92054 0.45204 0.9433 0.0
C665 C 0.85853 0.41388 0.99277 0.0
C666 C 0.88001 0.4272 0.97581 0.0
H667 H 0.98236 0.45375 0.89424 0.0
H668 H 0.95816 0.44097 0.92988 0.0
H669 H 0.92522 0.48859 0.95632 0.0
H670 H 0.80931 0.41908 0.01728 0.0
H671 H 0.84393 0.44078 0.98907 0.0
C672 C 0.54221 0.94405 0.05102 0.0
C673 C 0.53156 0.95981 0.04542 0.0
C674 C 0.53616 0.93066 0.07161 0.0
C675 C 0.50131 0.92145 0.12658 0.0
H676 H 0.48137 0.84813 0.118 0.0
C677 C 0.42137 0.83633 0.1789 0.0
C678 C 0.42499 0.81561 0.18603 0.0
C679 C 0.43944 0.85613 0.16464 0.0
C680 C 0.48727 0.86862 0.12086 0.0
H681 H 0.50765 0.97531 0.0573 0.0
H682 H 0.49669 0.95176 0.09314 0.0
H683 H 0.5052 0.88027 0.08844 0.0
H684 H 0.45079 0.79972 0.18381 0.0
H685 H 0.48232 0.83431 0.15832 0.0
H686 H 0.48203 0.90926 0.1586 0.0
C687 C 0.51014 0.95001 0.08196 0.0
C688 C 0.50105 0.88716 0.10392 0.0
C689 C 0.51646 0.96364 0.06144 0.0
C690 C 0.44738 0.81535 0.17861 0.0
C691 C 0.46539 0.83511 0.16401 0.0
C692 C 0.48734 0.90283 0.14345 0.0
C693 C 0.51896 0.9324 0.08688 0.0
C694 C 0.50774 0.91373 0.10631 0.0
C695 C 0.46158 0.85572 0.1569 0.0
C696 C 0.47962 0.87609 0.14053 0.0
H697 H 0.55377 0.94068 0.03881 0.0
H698 H 0.54386 0.91783 0.07503 0.0
H699 H 0.50652 0.94177 0.12923 0.0
H700 H 0.40449 0.83736 0.18437 0.0
H701 H 0.43571 0.87148 0.15921 0.0
C702 C 0.55296 0.47408 0.21431 0.0
C703 C 0.56421 0.50097 0.20903 0.0
C704 C 0.55775 0.46635 0.2351 0.0
C705 C 0.60799 0.4901 0.27916 0.0
H706 H 0.55607 0.42584 0.30909 0.0
C707 C 0.63412 0.43009 0.34084 0.0
C708 C 0.61599 0.41571 0.35792 0.0
C709 C 0.62865 0.44445 0.32512 0.0
C710 C 0.57082 0.44408 0.30126 0.0
H711 H 0.58843 0.54093 0.22141 0.0
H712 H 0.59669 0.52741 0.25817 0.0
H713 H 0.54279 0.44346 0.27829 0.0
H714 H 0.57925 0.40686 0.37331 0.0
H715 H 0.57029 0.43262 0.34673 0.0
H716 H 0.63605 0.49063 0.30225 0.0
C717 C 0.58426 0.51232 0.24615 0.0
C718 C 0.5632 0.45402 0.28338 0.0
C719 C 0.57927 0.52006 0.22531 0.0
C720 C 0.59333 0.41741 0.36001 0.0
C721 C 0.58812 0.43205 0.34467 0.0
C722 C 0.61564 0.48017 0.29718 0.0
C723 C 0.57408 0.48537 0.25104 0.0
C724 C 0.58173 0.47686 0.27183 0.0
C725 C 0.60515 0.44493 0.3265 0.0
C726 C 0.59719 0.45682 0.30827 0.0
H727 H 0.54157 0.45907 0.20185 0.0
H728 H 0.54983 0.44546 0.23814 0.0
H729 H 0.62282 0.5076 0.27047 0.0
H730 H 0.65172 0.42903 0.33891 0.0
H731 H 0.64219 0.45406 0.3113 0.0
C732 C 0.49543 0.94459 0.42034 0.0
C733 C 0.48291 0.95819 0.42732 0.0
C734 C 0.48762 0.92958 0.40058 0.0
C735 C 0.42727 0.89032 0.3692 0.0
H736 H 0.47067 0.88071 0.32598 0.0
C737 C 0.38265 0.81985 0.29356 0.0
C738 C 0.3946 0.80585 0.28604 0.0
C739 C 0.39424 0.83899 0.31039 0.0
C740 C 0.45827 0.88288 0.33811 0.0
H741 H 0.45371 0.96824 0.41859 0.0
H742 H 0.44008 0.94215 0.38386 0.0
H743 H 0.49121 0.91591 0.35409 0.0
H744 H 0.42783 0.80052 0.29106 0.0
H745 H 0.44775 0.83354 0.32088 0.0
H746 H 0.39441 0.85696 0.35391 0.0
C747 C 0.4559 0.94304 0.39367 0.0
C748 C 0.47005 0.90321 0.35408 0.0
C749 C 0.46394 0.95829 0.41332 0.0
C750 C 0.41807 0.81092 0.29638 0.0
C751 C 0.42965 0.83007 0.31333 0.0
C752 C 0.41552 0.8699 0.35343 0.0
C753 C 0.46687 0.92762 0.38764 0.0
C754 C 0.45465 0.90721 0.36973 0.0
C755 C 0.41806 0.84462 0.32033 0.0
C756 C 0.43082 0.86594 0.3376 0.0
H757 H 0.50979 0.94388 0.43112 0.0
H758 H 0.49636 0.91785 0.39644 0.0
H759 H 0.41489 0.89244 0.38141 0.0
H760 H 0.36461 0.81659 0.28602 0.0
H761 H 0.38486 0.84995 0.31509 0.0
C762 C 0.52151 0.46006 0.58289 0.0
C763 C 0.54 0.47621 0.5991 0.0
C764 C 0.52963 0.45314 0.56327 0.0
C765 C 0.5855 0.46627 0.52697 0.0
H766 H 0.5504 0.38979 0.52378 0.0
C767 C 0.62136 0.41264 0.46751 0.0
C768 C 0.60187 0.38946 0.45691 0.0
C769 C 0.61472 0.42463 0.4846 0.0
C770 C 0.56018 0.41116 0.52408 0.0
H771 H 0.58143 0.49965 0.6068 0.0
H772 H 0.59573 0.48825 0.57211 0.0
H773 H 0.53627 0.41035 0.55139 0.0
H774 H 0.56006 0.36068 0.4563 0.0
H775 H 0.54857 0.38169 0.48532 0.0
H776 H 0.60919 0.46709 0.49936 0.0
C777 C 0.57501 0.48079 0.5746 0.0
C778 C 0.55203 0.42294 0.53996 0.0
C779 C 0.56685 0.4874 0.59438 0.0
C780 C 0.57571 0.37838 0.46411 0.0
C781 C 0.56908 0.39044 0.48095 0.0
C782 C 0.59345 0.45445 0.51077 0.0
C783 C 0.55639 0.46254 0.55943 0.0
C784 C 0.56451 0.45058 0.54155 0.0
C785 C 0.58841 0.41379 0.4914 0.0
C786 C 0.58082 0.4267 0.50907 0.0
H787 H 0.5007 0.45091 0.58632 0.0
H788 H 0.5149 0.43922 0.55172 0.0
H789 H 0.59555 0.48764 0.52794 0.0
H790 H 0.64171 0.42175 0.46241 0.0
H791 H 0.63021 0.44238 0.49248 0.0
C792 C 0.07671 0.50187 0.75272 0.0
C793 C 0.07319 0.51884 0.76697 0.0
C794 C 0.09235 0.51182 0.7334 0.0
C795 C 0.15066 0.57273 0.71724 0.0
H796 H 0.14006 0.54381 0.65693 0.0
C797 C 0.22113 0.6306 0.64573 0.0
C798 C 0.22673 0.61738 0.62894 0.0
C799 C 0.20232 0.61655 0.66216 0.0
C800 C 0.14345 0.55182 0.67382 0.0
H801 H 0.08181 0.55889 0.77187 0.0
H802 H 0.10895 0.57633 0.73804 0.0
H803 H 0.10446 0.52298 0.6847 0.0
H804 H 0.2174 0.57881 0.61672 0.0
H805 H 0.18448 0.55399 0.64596 0.0
H806 H 0.18959 0.60113 0.70687 0.0
C807 C 0.09965 0.55539 0.74169 0.0
C808 C 0.12301 0.54004 0.68961 0.0
C809 C 0.08388 0.54541 0.76085 0.0
C810 C 0.21362 0.58959 0.62949 0.0
C811 C 0.19458 0.57539 0.64606 0.0
C812 C 0.17107 0.58425 0.70165 0.0
C813 C 0.105 0.53895 0.72837 0.0
C814 C 0.1263 0.55077 0.71133 0.0
C815 C 0.18856 0.58877 0.66246 0.0
C816 C 0.16761 0.57434 0.67959 0.0
H817 H 0.06909 0.48143 0.75747 0.0
H818 H 0.09623 0.49875 0.72349 0.0
H819 H 0.15403 0.58094 0.73407 0.0
H820 H 0.23087 0.65199 0.64593 0.0
H821 H 0.19799 0.62757 0.67425 0.0
C822 C 0.58734 0.069 0.91695 0.0
C823 C 0.56457 0.06489 0.92783 0.0
C824 C 0.59589 0.08394 0.8971 0.0
C825 C 0.57746 0.1157 0.85212 0.0
H826 H 0.65093 0.17039 0.85543 0.0
C827 C 0.62298 0.20883 0.79491 0.0
C828 C 0.64802 0.21727 0.78596 0.0
C829 C 0.61218 0.18905 0.81147 0.0
C830 C 0.63046 0.15509 0.85404 0.0
H831 H 0.53202 0.07159 0.92605 0.0
H832 H 0.54658 0.09724 0.89126 0.0
H833 H 0.63249 0.13542 0.88356 0.0
H834 H 0.68146 0.21172 0.78786 0.0
H835 H 0.66264 0.17739 0.81637 0.0
H836 H 0.57544 0.13564 0.82266 0.0
C837 C 0.55784 0.08893 0.89781 0.0
C838 C 0.6199 0.13492 0.87014 0.0
C839 C 0.54942 0.07415 0.91769 0.0
C840 C 0.66214 0.20581 0.79431 0.0
C841 C 0.65138 0.18614 0.81081 0.0
C842 C 0.58806 0.13588 0.83594 0.0
C843 C 0.58178 0.09498 0.88782 0.0
C844 C 0.59325 0.11502 0.86946 0.0
C845 C 0.62619 0.17733 0.8195 0.0
C846 C 0.6147 0.15589 0.83674 0.0
H847 H 0.59955 0.06243 0.92471 0.0
H848 H 0.61422 0.08793 0.88962 0.0
H849 H 0.55688 0.10061 0.85104 0.0
H850 H 0.61153 0.21717 0.7889 0.0
H851 H 0.59287 0.183 0.81802 0.0
C852 C 0.4772 0.54038 0.09333 0.0
C853 C 0.5041 0.55032 0.09674 0.0
C854 C 0.46842 0.54625 0.07354 0.0
C855 C 0.49192 0.60189 0.03634 0.0
H856 H 0.43165 0.55775 -0.00127 0.0
C857 C 0.46686 0.64559 0.96076 0.0
C858 C 0.44045 0.6355 0.95488 0.0
C859 C 0.47368 0.6334 0.97733 0.0
C860 C 0.4483 0.57041 0.00929 0.0
H861 H 0.5427 0.57261 0.08179 0.0
H862 H 0.52741 0.58307 0.04716 0.0
H863 H 0.44531 0.53734 0.02746 0.0
H864 H 0.40042 0.60475 0.9623 0.0
H865 H 0.4123 0.58395 0.99191 0.0
H866 H 0.49447 0.635 0.01929 0.0
C867 C 0.51312 0.57061 0.0597 0.0
C868 C 0.45623 0.55865 0.02557 0.0
C869 C 0.52184 0.5644 0.07935 0.0
C870 C 0.42096 0.61308 0.96638 0.0
C871 C 0.42781 0.60099 0.98323 0.0
C872 C 0.48379 0.61363 0.02042 0.0
C873 C 0.48649 0.56257 0.05707 0.0
C874 C 0.47831 0.57431 0.03907 0.0
C875 C 0.45431 0.61092 0.98883 0.0
C876 C 0.46204 0.5981 0.00647 0.0
H877 H 0.46326 0.52982 0.10671 0.0
H878 H 0.44783 0.5399 0.07198 0.0
H879 H 0.50857 0.6145 0.04696 0.0
H880 H 0.48249 0.66263 0.95216 0.0
H881 H 0.49431 0.64137 0.98074 0.0
C882 C 0.96316 0.52182 0.25094 0.0
C883 C 0.96726 0.50547 0.26548 0.0
C884 C 0.94724 0.51117 0.23188 0.0
C885 C 0.88957 0.44894 0.21651 0.0
H886 H 0.89878 0.47762 0.15618 0.0
C887 C 0.81875 0.3898 0.14552 0.0
C888 C 0.81233 0.40274 0.12906 0.0
C889 C 0.83779 0.40413 0.16171 0.0
C890 C 0.89578 0.46964 0.17307 0.0
H891 H 0.95937 0.46577 0.27114 0.0
H892 H 0.93183 0.44713 0.23771 0.0
H893 H 0.93451 0.49939 0.18366 0.0
H894 H 0.82056 0.44109 0.11716 0.0
H895 H 0.85385 0.46634 0.14593 0.0
H896 H 0.85089 0.41959 0.20639 0.0
C897 C 0.94083 0.46812 0.24097 0.0
C898 C 0.9163 0.48198 0.18871 0.0
C899 C 0.95685 0.4788 0.25989 0.0
C900 C 0.82496 0.43051 0.12966 0.0
C901 C 0.84421 0.44497 0.14597 0.0
C902 C 0.86909 0.43683 0.20105 0.0
C903 C 0.93491 0.48394 0.22736 0.0
C904 C 0.91352 0.47142 0.21046 0.0
C905 C 0.85098 0.43188 0.16207 0.0
C906 C 0.87204 0.44668 0.179 0.0
H907 H 0.97055 0.54233 0.25529 0.0
H908 H 0.94294 0.5238 0.22175 0.0
H909 H 0.88656 0.4408 0.23335 0.0
H910 H 0.80944 0.36845 0.14567 0.0
H911 H 0.84269 0.39335 0.17357 0.0
loop_
_geom_bond_atom_site_label_1
_geom_bond_atom_site_label_2
_geom_bond_distance
_geom_bond_site_symmetry_2
_ccdc_geom_bond_type
H0 C6 0.930 . S
H1 C9 0.931 . S
H2 C11 0.931 . S
H3 C13 0.930 . S
H4 C15 0.930 . S
H5 C17 0.931 1_455 S
C6 H0 0.930 . S
C6 C7 1.380 . S
C6 C8 1.394 . S
C7 C6 1.380 . S
C7 C11 1.382 . S
C8 C6 1.394 . S
C8 C9 1.400 . S
C9 H1 0.931 . S
C9 C8 1.400 . S
C9 C10 1.375 . S
C10 C9 1.375 . S
C10 C11 1.415 . S
C10 C12 1.501 1_455 S
C11 H2 0.931 . S
C11 C7 1.382 . S
C11 C10 1.415 . S
C12 C10 1.501 1_655 S
C12 C13 1.384 . S
C12 C17 1.408 . S
C13 H3 0.930 . S
C13 C12 1.384 . S
C13 C14 1.389 . S
C14 C13 1.389 . S
C14 C15 1.405 . S
C15 H4 0.930 . S
C15 C14 1.405 . S
C15 C16 1.364 . S
C16 C15 1.364 . S
C16 C17 1.400 . S
C17 H5 0.931 1_655 S
C17 C12 1.408 . S
C17 C16 1.400 . S
H18 C24 0.930 . S
H19 C27 0.931 . S
H20 C29 0.931 . S
H21 C31 0.930 . S
H22 C33 0.930 . S
H23 C35 0.931 1_545 S
C24 H18 0.930 . S
C24 C25 1.380 . S
C24 C26 1.394 . S
C25 C24 1.380 . S
C25 C29 1.382 . S
C26 C24 1.394 . S
C26 C27 1.400 . S
C27 H19 0.931 . S
C27 C26 1.400 . S
C27 C28 1.375 . S
C28 C27 1.375 . S
C28 C29 1.415 . S
C28 C30 1.501 1_545 S
C29 H20 0.931 . S
C29 C25 1.382 . S
C29 C28 1.415 . S
C30 C28 1.501 1_565 S
C30 C31 1.384 . S
C30 C35 1.408 . S
C31 H21 0.930 . S
C31 C30 1.384 . S
C31 C32 1.389 . S
C32 C31 1.389 . S
C32 C33 1.405 . S
C33 H22 0.930 . S
C33 C32 1.405 . S
C33 C34 1.364 . S
C34 C33 1.364 . S
C34 C35 1.400 . S
C35 H23 0.931 1_565 S
C35 C30 1.408 . S
C35 C34 1.400 . S
H36 C42 0.930 . S
H37 C45 0.931 . S
H38 C47 0.931 . S
H39 C49 0.930 . S
H40 C51 0.930 . S
H41 C53 0.931 . S
C42 H36 0.930 . S
C42 C43 1.380 . S
C42 C44 1.394 . S
C43 C42 1.380 . S
C43 C47 1.382 . S
C44 C42 1.394 . S
C44 C45 1.400 . S
C45 H37 0.931 . S
C45 C44 1.400 . S
C45 C46 1.375 . S
C46 C45 1.375 . S
C46 C47 1.415 . S
C46 C48 1.501 . S
C47 H38 0.931 . S
C47 C43 1.382 . S
C47 C46 1.415 . S
C48 C46 1.501 . S
C48 C49 1.384 . S
C48 C53 1.408 . S
C49 H39 0.930 . S
C49 C48 1.384 . S
C49 C50 1.389 . S
C50 C49 1.389 . S
C50 C51 1.405 . S
C51 H40 0.930 . S
C51 C50 1.405 . S
C51 C52 1.364 . S
C52 C51 1.364 . S
C52 C53 1.400 . S
C53 H41 0.931 . S
C53 C48 1.408 . S
C53 C52 1.400 . S
H54 C60 0.930 . S
H55 C63 0.931 . S
H56 C65 0.931 . S
H57 C67 0.930 . S
H58 C69 0.930 . S
H59 C71 0.931 1_455 S
C60 H54 0.930 . S
C60 C61 1.380 . S
C60 C62 1.394 . S
C61 C60 1.380 . S
C61 C65 1.382 . S
C62 C60 1.394 . S
C62 C63 1.400 . S
C63 H55 0.931 . S
C63 C62 1.400 . S
C63 C64 1.375 . S
C64 C63 1.375 . S
C64 C65 1.415 . S
C64 C66 1.501 1_455 S
C65 H56 0.931 . S
C65 C61 1.382 . S
C65 C64 1.415 . S
C66 C64 1.501 1_655 S
C66 C67 1.384 . S
C66 C71 1.408 . S
C67 H57 0.930 . S
C67 C66 1.384 . S
C67 C68 1.389 . S
C68 C67 1.389 . S
C68 C69 1.405 . S
C69 H58 0.930 . S
C69 C68 1.405 . S
C69 C70 1.364 . S
C70 C69 1.364 . S
C70 C71 1.400 . S
C71 H59 0.931 1_655 S
C71 C66 1.408 . S
C71 C70 1.400 . S
H72 C78 0.930 . S
H73 C81 0.931 . S
H74 C83 0.931 . S
H75 C85 0.930 . S
H76 C87 0.930 . S
H77 C89 0.931 . S
C78 H72 0.930 . S
C78 C79 1.380 . S
C78 C80 1.394 1_554 S
C79 C78 1.380 . S
C79 C83 1.382 . S
C80 C78 1.394 1_556 S
C80 C81 1.400 . S
C81 H73 0.931 . S
C81 C80 1.400 . S
C81 C82 1.375 . S
C82 C81 1.375 . S
C82 C83 1.415 1_556 S
C82 C84 1.501 1_565 S
C83 H74 0.931 . S
C83 C79 1.382 . S
C83 C82 1.415 1_554 S
C84 C82 1.501 1_545 S
C84 C85 1.384 1_556 S
C84 C89 1.408 . S
C85 H75 0.930 . S
C85 C84 1.384 1_554 S
C85 C86 1.389 1_554 S
C86 C85 1.389 1_556 S
C86 C87 1.405 . S
C87 H76 0.930 . S
C87 C86 1.405 . S
C87 C88 1.364 . S
C88 C87 1.364 . S
C88 C89 1.400 . S
C89 H77 0.931 . S
C89 C84 1.408 . S
C89 C88 1.400 . S
H90 C96 0.930 . S
H91 C99 0.931 . S
H92 C101 0.931 . S
H93 C103 0.930 . S
H94 C105 0.930 . S
H95 C107 0.931 . S
C96 H90 0.930 . S
C96 C97 1.380 . S
C96 C98 1.394 . S
C97 C96 1.380 . S
C97 C101 1.382 . S
C98 C96 1.394 . S
C98 C99 1.400 . S
C99 H91 0.931 . S
C99 C98 1.400 . S
C99 C100 1.375 . S
C100 C99 1.375 . S
C100 C101 1.415 . S
C100 C102 1.501 . S
C101 H92 0.931 . S
C101 C97 1.382 . S
C101 C100 1.415 . S
C102 C100 1.501 . S
C102 C103 1.384 . S
C102 C107 1.408 . S
C103 H93 0.930 . S
C103 C102 1.384 . S
C103 C104 1.389 . S
C104 C103 1.389 . S
C104 C105 1.405 . S
C105 H94 0.930 . S
C105 C104 1.405 . S
C105 C106 1.364 . S
C106 C105 1.364 . S
C106 C107 1.400 . S
C107 H95 0.931 . S
C107 C102 1.408 . S
C107 C106 1.400 . S
Co108 O109 2.216 . S
Co108 O110 2.091 . S
Co108 O112 2.004 . S
Co108 O118 2.021 . S
Co108 O120 2.137 . S
Co108 O121 2.244 . S
O109 Co108 2.216 . S
O109 C116 1.247 . S
O110 Co108 2.091 . S
O110 C116 1.261 . S
C111 O120 1.247 . S
C111 O121 1.272 . S
O112 Co108 2.004 . S
O112 C117 1.259 . S
Co113 O114 2.061 . S
Co113 O119 2.052 . S
Co113 O121 2.135 . S
O114 Co113 2.061 . S
O114 C117 1.235 . S
C115 O118 1.238 . S
C115 O119 1.241 . S
C116 O109 1.247 . S
C116 O110 1.261 . S
C117 O112 1.259 . S
C117 O114 1.235 . S
O118 Co108 2.021 . S
O118 C115 1.238 . S
O119 Co113 2.052 . S
O119 C115 1.241 . S
O120 Co108 2.137 . S
O120 C111 1.247 . S
O121 Co108 2.244 . S
O121 C111 1.272 . S
O121 Co113 2.135 . S
Co122 O123 2.216 . S
Co122 O124 2.091 . S
Co122 O126 2.004 . S
Co122 O132 2.021 . S
Co122 O134 2.137 . S
Co122 O135 2.244 . S
O123 Co122 2.216 . S
O123 C130 1.247 . S
O124 Co122 2.091 . S
O124 C130 1.261 . S
C125 O134 1.247 . S
C125 O135 1.272 . S
O126 Co122 2.004 . S
O126 C131 1.259 . S
Co127 O128 2.061 . S
Co127 O133 2.052 . S
Co127 O135 2.135 . S
O128 Co127 2.061 . S
O128 C131 1.235 . S
C129 O132 1.238 . S
C129 O133 1.241 . S
C130 O123 1.247 . S
C130 O124 1.261 . S
C131 O126 1.259 . S
C131 O128 1.235 . S
O132 Co122 2.021 . S
O132 C129 1.238 . S
O133 Co127 2.052 . S
O133 C129 1.241 . S
O134 Co122 2.137 . S
O134 C125 1.247 . S
O135 Co122 2.244 . S
O135 C125 1.272 . S
O135 Co127 2.135 . S
Co136 O137 2.216 . S
Co136 O138 2.091 . S
Co136 O140 2.004 . S
Co136 O146 2.021 . S
Co136 O148 2.137 . S
Co136 O149 2.244 . S
O137 Co136 2.216 . S
O137 C144 1.247 . S
O138 Co136 2.091 . S
O138 C144 1.261 . S
C139 O148 1.247 . S
C139 O149 1.272 . S
O140 Co136 2.004 . S
O140 C145 1.259 . S
Co141 O142 2.061 . S
Co141 O147 2.052 . S
Co141 O149 2.135 . S
O142 Co141 2.061 . S
O142 C145 1.235 . S
C143 O146 1.238 . S
C143 O147 1.241 . S
C144 O137 1.247 . S
C144 O138 1.261 . S
C145 O140 1.259 . S
C145 O142 1.235 . S
O146 Co136 2.021 . S
O146 C143 1.238 . S
O147 Co141 2.052 . S
O147 C143 1.241 . S
O148 Co136 2.137 . S
O148 C139 1.247 . S
O149 Co136 2.244 . S
O149 C139 1.272 . S
O149 Co141 2.135 . S
Co150 O151 2.216 . S
Co150 O152 2.091 . S
Co150 O154 2.004 . S
Co150 O160 2.021 . S
Co150 O162 2.137 . S
Co150 O163 2.244 . S
O151 Co150 2.216 . S
O151 C158 1.247 . S
O152 Co150 2.091 . S
O152 C158 1.261 . S
C153 O162 1.247 . S
C153 O163 1.272 . S
O154 Co150 2.004 . S
O154 C159 1.259 . S
Co155 O156 2.061 . S
Co155 O161 2.052 . S
Co155 O163 2.135 . S
O156 Co155 2.061 . S
O156 C159 1.235 . S
C157 O160 1.238 . S
C157 O161 1.241 . S
C158 O151 1.247 . S
C158 O152 1.261 . S
C159 O154 1.259 . S
C159 O156 1.235 . S
O160 Co150 2.021 . S
O160 C157 1.238 . S
O161 Co155 2.052 . S
O161 C157 1.241 . S
O162 Co150 2.137 . S
O162 C153 1.247 . S
O163 Co150 2.244 . S
O163 C153 1.272 . S
O163 Co155 2.135 . S
Co164 O165 2.216 . S
Co164 O166 2.091 . S
Co164 O168 2.004 . S
Co164 O174 2.021 . S
Co164 O176 2.137 . S
Co164 O177 2.244 . S
O165 Co164 2.216 . S
O165 C172 1.247 . S
O166 Co164 2.091 . S
O166 C172 1.261 . S
C167 O176 1.247 . S
C167 O177 1.272 . S
O168 Co164 2.004 . S
O168 C173 1.259 . S
Co169 O170 2.061 . S
Co169 O175 2.052 . S
Co169 O177 2.135 . S
O170 Co169 2.061 . S
O170 C173 1.235 . S
C171 O174 1.238 . S
C171 O175 1.241 . S
C172 O165 1.247 . S
C172 O166 1.261 . S
C173 O168 1.259 . S
C173 O170 1.235 . S
O174 Co164 2.021 . S
O174 C171 1.238 . S
O175 Co169 2.052 . S
O175 C171 1.241 . S
O176 Co164 2.137 . S
O176 C167 1.247 . S
O177 Co164 2.244 . S
O177 C167 1.272 . S
O177 Co169 2.135 . S
Co178 O179 2.216 . S
Co178 O180 2.091 . S
Co178 O182 2.004 . S
Co178 O188 2.021 . S
Co178 O190 2.137 . S
Co178 O191 2.244 . S
O179 Co178 2.216 . S
O179 C186 1.247 . S
O180 Co178 2.091 . S
O180 C186 1.261 . S
C181 O190 1.247 . S
C181 O191 1.272 . S
O182 Co178 2.004 . S
O182 C187 1.259 . S
Co183 O184 2.061 . S
Co183 O189 2.052 . S
Co183 O191 2.135 . S
O184 Co183 2.061 . S
O184 C187 1.235 . S
C185 O188 1.238 . S
C185 O189 1.241 . S
C186 O179 1.247 . S
C186 O180 1.261 . S
C187 O182 1.259 . S
C187 O184 1.235 . S
O188 Co178 2.021 . S
O188 C185 1.238 . S
O189 Co183 2.052 . S
O189 C185 1.241 . S
O190 Co178 2.137 . S
O190 C181 1.247 . S
O191 Co178 2.244 . S
O191 C181 1.272 . S
O191 Co183 2.135 . S
C192 C193 1.349 . S
C192 C194 1.327 . S
C192 H217 0.950 . S
C193 C192 1.349 . S
C193 C209 1.349 . S
C194 C192 1.327 . S
C194 C213 1.429 . S
C194 H218 0.950 . S
C195 C212 1.574 . S
C195 C214 1.368 . S
C195 H219 0.949 . S
H196 C200 0.949 . S
C197 C198 1.349 . S
C197 C199 1.327 . S
C197 H220 0.950 . S
C198 C197 1.349 . S
C198 C210 1.349 . S
C199 C197 1.327 . S
C199 C215 1.429 . S
C199 H221 0.950 . S
C200 H196 0.949 . S
C200 C208 1.574 . S
C200 C216 1.368 . S
H201 C209 0.950 . S
H202 C207 0.950 . S
H203 C208 0.949 . S
H204 C210 0.950 . S
H205 C211 0.950 . S
H206 C212 0.949 . S
C207 H202 0.950 . S
C207 C209 1.327 . S
C207 C213 1.429 . S
C208 C200 1.574 . S
C208 H203 0.949 . S
C208 C214 1.368 . S
C209 C193 1.349 . S
C209 H201 0.950 . S
C209 C207 1.327 . S
C210 C198 1.349 . S
C210 H204 0.950 . S
C210 C211 1.327 . S
C211 H205 0.950 . S
C211 C210 1.327 . S
C211 C215 1.429 . S
C212 C195 1.574 . S
C212 H206 0.949 . S
C212 C216 1.368 . S
C213 C194 1.429 . S
C213 C207 1.429 . S
C213 C214 1.523 . S
C214 C195 1.368 . S
C214 C208 1.368 . S
C214 C213 1.523 . S
C215 C199 1.429 . S
C215 C211 1.429 . S
C215 C216 1.523 . S
C216 C200 1.368 . S
C216 C212 1.368 . S
C216 C215 1.523 . S
H217 C192 0.950 . S
H218 C194 0.950 . S
H219 C195 0.949 . S
H220 C197 0.950 . S
H221 C199 0.950 . S
C222 C223 1.349 . S
C222 C224 1.327 . S
C222 H247 0.950 . S
C223 C222 1.349 . S
C223 C239 1.349 . S
C224 C222 1.327 . S
C224 C243 1.429 . S
C224 H248 0.950 . S
C225 C242 1.574 . S
C225 C244 1.368 . S
C225 H249 0.949 . S
H226 C230 0.949 . S
C227 C228 1.349 . S
C227 C229 1.327 . S
C227 H250 0.950 . S
C228 C227 1.349 . S
C228 C240 1.349 . S
C229 C227 1.327 . S
C229 C245 1.429 . S
C229 H251 0.950 . S
C230 H226 0.949 . S
C230 C238 1.574 . S
C230 C246 1.368 . S
H231 C239 0.950 . S
H232 C237 0.950 . S
H233 C238 0.949 . S
H234 C240 0.950 . S
H235 C241 0.950 . S
H236 C242 0.949 . S
C237 H232 0.950 . S
C237 C239 1.327 . S
C237 C243 1.429 . S
C238 C230 1.574 . S
C238 H233 0.949 . S
C238 C244 1.368 . S
C239 C223 1.349 . S
C239 H231 0.950 . S
C239 C237 1.327 . S
C240 C228 1.349 . S
C240 H234 0.950 . S
C240 C241 1.327 . S
C241 H235 0.950 . S
C241 C240 1.327 . S
C241 C245 1.429 . S
C242 C225 1.574 . S
C242 H236 0.949 . S
C242 C246 1.368 . S
C243 C224 1.429 . S
C243 C237 1.429 . S
C243 C244 1.523 . S
C244 C225 1.368 . S
C244 C238 1.368 . S
C244 C243 1.523 . S
C245 C229 1.429 . S
C245 C241 1.429 . S
C245 C246 1.523 . S
C246 C230 1.368 . S
C246 C242 1.368 . S
C246 C245 1.523 . S
H247 C222 0.950 . S
H248 C224 0.950 . S
H249 C225 0.949 . S
H250 C227 0.950 . S
H251 C229 0.950 . S
C252 C253 1.349 . S
C252 C254 1.327 . S
C252 H277 0.950 . S
C253 C252 1.349 . S
C253 C269 1.349 . S
C254 C252 1.327 . S
C254 C273 1.429 . S
C254 H278 0.950 . S
C255 C272 1.574 . S
C255 C274 1.368 . S
C255 H279 0.949 . S
H256 C260 0.949 . S
C257 C258 1.349 . S
C257 C259 1.327 . S
C257 H280 0.950 . S
C258 C257 1.349 . S
C258 C270 1.349 . S
C259 C257 1.327 . S
C259 C275 1.429 . S
C259 H281 0.950 . S
C260 H256 0.949 . S
C260 C268 1.574 . S
C260 C276 1.368 . S
H261 C269 0.950 . S
H262 C267 0.950 . S
H263 C268 0.949 . S
H264 C270 0.950 . S
H265 C271 0.950 . S
H266 C272 0.949 . S
C267 H262 0.950 . S
C267 C269 1.327 . S
C267 C273 1.429 . S
C268 C260 1.574 . S
C268 H263 0.949 . S
C268 C274 1.368 . S
C269 C253 1.349 . S
C269 H261 0.950 . S
C269 C267 1.327 . S
C270 C258 1.349 . S
C270 H264 0.950 . S
C270 C271 1.327 . S
C271 H265 0.950 . S
C271 C270 1.327 . S
C271 C275 1.429 . S
C272 C255 1.574 . S
C272 H266 0.949 . S
C272 C276 1.368 . S
C273 C254 1.429 . S
C273 C267 1.429 . S
C273 C274 1.523 . S
C274 C255 1.368 . S
C274 C268 1.368 . S
C274 C273 1.523 . S
C275 C259 1.429 . S
C275 C271 1.429 . S
C275 C276 1.523 . S
C276 C260 1.368 . S
C276 C272 1.368 . S
C276 C275 1.523 . S
H277 C252 0.950 . S
H278 C254 0.950 . S
H279 C255 0.949 . S
H280 C257 0.950 . S
H281 C259 0.950 . S
C282 C283 1.349 . S
C282 C284 1.327 . S
C282 H307 0.950 . S
C283 C282 1.349 . S
C283 C299 1.349 . S
C284 C282 1.327 . S
C284 C303 1.429 . S
C284 H308 0.950 . S
C285 C302 1.574 . S
C285 C304 1.368 . S
C285 H309 0.949 . S
H286 C290 0.949 . S
C287 C288 1.349 . S
C287 C289 1.327 . S
C287 H310 0.950 . S
C288 C287 1.349 . S
C288 C300 1.349 . S
C289 C287 1.327 . S
C289 C305 1.429 . S
C289 H311 0.950 . S
C290 H286 0.949 . S
C290 C298 1.574 . S
C290 C306 1.368 . S
H291 C299 0.950 . S
H292 C297 0.950 . S
H293 C298 0.949 . S
H294 C300 0.950 . S
H295 C301 0.950 . S
H296 C302 0.949 . S
C297 H292 0.950 . S
C297 C299 1.327 . S
C297 C303 1.429 . S
C298 C290 1.574 . S
C298 H293 0.949 . S
C298 C304 1.368 . S
C299 C283 1.349 . S
C299 H291 0.950 . S
C299 C297 1.327 . S
C300 C288 1.349 . S
C300 H294 0.950 . S
C300 C301 1.327 . S
C301 H295 0.950 . S
C301 C300 1.327 . S
C301 C305 1.429 . S
C302 C285 1.574 . S
C302 H296 0.949 . S
C302 C306 1.368 . S
C303 C284 1.429 . S
C303 C297 1.429 . S
C303 C304 1.523 . S
C304 C285 1.368 . S
C304 C298 1.368 . S
C304 C303 1.523 . S
C305 C289 1.429 . S
C305 C301 1.429 . S
C305 C306 1.523 . S
C306 C290 1.368 . S
C306 C302 1.368 . S
C306 C305 1.523 . S
H307 C282 0.950 . S
H308 C284 0.950 . S
H309 C285 0.949 . S
H310 C287 0.950 . S
H311 C289 0.950 . S
C312 C313 1.349 . S
C312 C314 1.327 . S
C312 H337 0.950 . S
C313 C312 1.349 . S
C313 C329 1.349 . S
C314 C312 1.327 . S
C314 C333 1.429 . S
C314 H338 0.950 . S
C315 C332 1.574 . S
C315 C334 1.368 . S
C315 H339 0.949 . S
H316 C320 0.949 . S
C317 C318 1.349 . S
C317 C319 1.327 . S
C317 H340 0.950 . S
C318 C317 1.349 . S
C318 C330 1.349 . S
C319 C317 1.327 . S
C319 C335 1.429 . S
C319 H341 0.950 . S
C320 H316 0.949 . S
C320 C328 1.574 . S
C320 C336 1.368 . S
H321 C329 0.950 . S
H322 C327 0.950 . S
H323 C328 0.949 . S
H324 C330 0.950 . S
H325 C331 0.950 . S
H326 C332 0.949 . S
C327 H322 0.950 . S
C327 C329 1.327 . S
C327 C333 1.429 . S
C328 C320 1.574 . S
C328 H323 0.949 . S
C328 C334 1.368 . S
C329 C313 1.349 . S
C329 H321 0.950 . S
C329 C327 1.327 . S
C330 C318 1.349 . S
C330 H324 0.950 . S
C330 C331 1.327 . S
C331 H325 0.950 . S
C331 C330 1.327 . S
C331 C335 1.429 . S
C332 C315 1.574 . S
C332 H326 0.949 . S
C332 C336 1.368 . S
C333 C314 1.429 . S
C333 C327 1.429 . S
C333 C334 1.523 . S
C334 C315 1.368 . S
C334 C328 1.368 . S
C334 C333 1.523 . S
C335 C319 1.429 . S
C335 C331 1.429 . S
C335 C336 1.523 . S
C336 C320 1.368 . S
C336 C332 1.368 . S
C336 C335 1.523 . S
H337 C312 0.950 . S
H338 C314 0.950 . S
H339 C315 0.949 . S
H340 C317 0.950 . S
H341 C319 0.950 . S
C342 C343 1.349 . S
C342 C344 1.327 . S
C342 H367 0.950 . S
C343 C342 1.349 . S
C343 C359 1.349 . S
C344 C342 1.327 . S
C344 C363 1.429 . S
C344 H368 0.950 . S
C345 C362 1.574 . S
C345 C364 1.368 . S
C345 H369 0.949 . S
H346 C350 0.949 . S
C347 C348 1.349 . S
C347 C349 1.327 . S
C347 H370 0.950 . S
C348 C347 1.349 . S
C348 C360 1.349 . S
C349 C347 1.327 . S
C349 C365 1.429 . S
C349 H371 0.950 . S
C350 H346 0.949 . S
C350 C358 1.574 . S
C350 C366 1.368 . S
H351 C359 0.950 . S
H352 C357 0.950 . S
H353 C358 0.949 . S
H354 C360 0.950 . S
H355 C361 0.950 . S
H356 C362 0.949 . S
C357 H352 0.950 . S
C357 C359 1.327 . S
C357 C363 1.429 . S
C358 C350 1.574 . S
C358 H353 0.949 . S
C358 C364 1.368 . S
C359 C343 1.349 . S
C359 H351 0.950 . S
C359 C357 1.327 . S
C360 C348 1.349 . S
C360 H354 0.950 . S
C360 C361 1.327 . S
C361 H355 0.950 . S
C361 C360 1.327 . S
C361 C365 1.429 . S
C362 C345 1.574 . S
C362 H356 0.949 . S
C362 C366 1.368 . S
C363 C344 1.429 . S
C363 C357 1.429 . S
C363 C364 1.523 . S
C364 C345 1.368 . S
C364 C358 1.368 . S
C364 C363 1.523 . S
C365 C349 1.429 . S
C365 C361 1.429 . S
C365 C366 1.523 . S
C366 C350 1.368 . S
C366 C362 1.368 . S
C366 C365 1.523 . S
H367 C342 0.950 . S
H368 C344 0.950 . S
H369 C345 0.949 . S
H370 C347 0.950 . S
H371 C349 0.950 . S
C372 C373 1.349 . S
C372 C374 1.327 . S
C372 H397 0.950 . S
C373 C372 1.349 . S
C373 C389 1.349 . S
C374 C372 1.327 . S
C374 C393 1.429 . S
C374 H398 0.950 . S
C375 C392 1.574 . S
C375 C394 1.368 . S
C375 H399 0.949 . S
H376 C380 0.949 . S
C377 C378 1.349 . S
C377 C379 1.327 . S
C377 H400 0.950 . S
C378 C377 1.349 . S
C378 C390 1.349 . S
C379 C377 1.327 . S
C379 C395 1.429 . S
C379 H401 0.950 . S
C380 H376 0.949 . S
C380 C388 1.574 . S
C380 C396 1.368 . S
H381 C389 0.950 . S
H382 C387 0.950 . S
H383 C388 0.949 . S
H384 C390 0.950 . S
H385 C391 0.950 . S
H386 C392 0.949 . S
C387 H382 0.950 . S
C387 C389 1.327 . S
C387 C393 1.429 . S
C388 C380 1.574 . S
C388 H383 0.949 . S
C388 C394 1.368 . S
C389 C373 1.349 . S
C389 H381 0.950 . S
C389 C387 1.327 . S
C390 C378 1.349 . S
C390 H384 0.950 . S
C390 C391 1.327 . S
C391 H385 0.950 . S
C391 C390 1.327 . S
C391 C395 1.429 . S
C392 C375 1.574 . S
C392 H386 0.949 . S
C392 C396 1.368 . S
C393 C374 1.429 . S
C393 C387 1.429 . S
C393 C394 1.523 . S
C394 C375 1.368 . S
C394 C388 1.368 . S
C394 C393 1.523 . S
C395 C379 1.429 . S
C395 C391 1.429 . S
C395 C396 1.523 . S
C396 C380 1.368 . S
C396 C392 1.368 . S
C396 C395 1.523 . S
H397 C372 0.950 . S
H398 C374 0.950 . S
H399 C375 0.949 . S
H400 C377 0.950 . S
H401 C379 0.950 . S
C402 C403 1.349 . S
C402 C404 1.327 . S
C402 H427 0.950 . S
C403 C402 1.349 . S
C403 C419 1.349 . S
C404 C402 1.327 . S
C404 C423 1.429 . S
C404 H428 0.950 . S
C405 C422 1.574 . S
C405 C424 1.368 . S
C405 H429 0.949 . S
H406 C410 0.949 . S
C407 C408 1.349 . S
C407 C409 1.327 . S
C407 H430 0.950 . S
C408 C407 1.349 . S
C408 C420 1.349 . S
C409 C407 1.327 . S
C409 C425 1.429 . S
C409 H431 0.950 . S
C410 H406 0.949 . S
C410 C418 1.574 . S
C410 C426 1.368 . S
H411 C419 0.950 . S
H412 C417 0.950 . S
H413 C418 0.949 . S
H414 C420 0.950 . S
H415 C421 0.950 . S
H416 C422 0.949 . S
C417 H412 0.950 . S
C417 C419 1.327 . S
C417 C423 1.429 . S
C418 C410 1.574 . S
C418 H413 0.949 . S
C418 C424 1.368 . S
C419 C403 1.349 . S
C419 H411 0.950 . S
C419 C417 1.327 . S
C420 C408 1.349 . S
C420 H414 0.950 . S
C420 C421 1.327 . S
C421 H415 0.950 . S
C421 C420 1.327 . S
C421 C425 1.429 . S
C422 C405 1.574 . S
C422 H416 0.949 . S
C422 C426 1.368 . S
C423 C404 1.429 . S
C423 C417 1.429 . S
C423 C424 1.523 . S
C424 C405 1.368 . S
C424 C418 1.368 . S
C424 C423 1.523 . S
C425 C409 1.429 . S
C425 C421 1.429 . S
C425 C426 1.523 . S
C426 C410 1.368 . S
C426 C422 1.368 . S
C426 C425 1.523 . S
H427 C402 0.950 . S
H428 C404 0.950 . S
H429 C405 0.949 . S
H430 C407 0.950 . S
H431 C409 0.950 . S
C432 C433 1.349 . S
C432 C434 1.327 . S
C432 H457 0.950 . S
C433 C432 1.349 . S
C433 C449 1.349 . S
C434 C432 1.327 . S
C434 C453 1.429 . S
C434 H458 0.950 . S
C435 C452 1.574 . S
C435 C454 1.368 . S
C435 H459 0.949 . S
H436 C440 0.949 . S
C437 C438 1.349 . S
C437 C439 1.327 . S
C437 H460 0.950 . S
C438 C437 1.349 . S
C438 C450 1.349 . S
C439 C437 1.327 . S
C439 C455 1.429 . S
C439 H461 0.950 . S
C440 H436 0.949 . S
C440 C448 1.574 . S
C440 C456 1.368 . S
H441 C449 0.950 . S
H442 C447 0.950 . S
H443 C448 0.949 . S
H444 C450 0.950 . S
H445 C451 0.950 . S
H446 C452 0.949 . S
C447 H442 0.950 . S
C447 C449 1.327 . S
C447 C453 1.429 . S
C448 C440 1.574 . S
C448 H443 0.949 . S
C448 C454 1.368 . S
C449 C433 1.349 . S
C449 H441 0.950 . S
C449 C447 1.327 . S
C450 C438 1.349 . S
C450 H444 0.950 . S
C450 C451 1.327 . S
C451 H445 0.950 . S
C451 C450 1.327 . S
C451 C455 1.429 . S
C452 C435 1.574 . S
C452 H446 0.949 . S
C452 C456 1.368 . S
C453 C434 1.429 . S
C453 C447 1.429 . S
C453 C454 1.523 . S
C454 C435 1.368 . S
C454 C448 1.368 . S
C454 C453 1.523 . S
C455 C439 1.429 . S
C455 C451 1.429 . S
C455 C456 1.523 . S
C456 C440 1.368 . S
C456 C452 1.368 . S
C456 C455 1.523 . S
H457 C432 0.950 . S
H458 C434 0.950 . S
H459 C435 0.949 . S
H460 C437 0.950 . S
H461 C439 0.950 . S
C462 C463 1.349 1_556 S
C462 C464 1.327 . S
C462 H487 0.950 . S
C463 C462 1.349 1_554 S
C463 C479 1.349 . S
C464 C462 1.327 . S
C464 C483 1.429 1_556 S
C464 H488 0.950 . S
C465 C482 1.574 . S
C465 C484 1.368 . S
C465 H489 0.949 . S
H466 C470 0.949 . S
C467 C468 1.349 . S
C467 C469 1.327 . S
C467 H490 0.950 . S
C468 C467 1.349 . S
C468 C480 1.349 . S
C469 C467 1.327 . S
C469 C485 1.429 . S
C469 H491 0.950 . S
C470 H466 0.949 . S
C470 C478 1.574 . S
C470 C486 1.368 . S
H471 C479 0.950 . S
H472 C477 0.950 . S
H473 C478 0.949 1_556 S
H474 C480 0.950 . S
H475 C481 0.950 . S
H476 C482 0.949 . S
C477 H472 0.950 . S
C477 C479 1.327 . S
C477 C483 1.429 . S
C478 C470 1.574 . S
C478 H473 0.949 1_554 S
C478 C484 1.368 . S
C479 C463 1.349 . S
C479 H471 0.950 . S
C479 C477 1.327 . S
C480 C468 1.349 . S
C480 H474 0.950 . S
C480 C481 1.327 . S
C481 H475 0.950 . S
C481 C480 1.327 . S
C481 C485 1.429 . S
C482 C465 1.574 . S
C482 H476 0.949 . S
C482 C486 1.368 . S
C483 C464 1.429 1_554 S
C483 C477 1.429 . S
C483 C484 1.523 . S
C484 C465 1.368 . S
C484 C478 1.368 . S
C484 C483 1.523 . S
C485 C469 1.429 . S
C485 C481 1.429 . S
C485 C486 1.523 . S
C486 C470 1.368 . S
C486 C482 1.368 . S
C486 C485 1.523 . S
H487 C462 0.950 . S
H488 C464 0.950 . S
H489 C465 0.949 . S
H490 C467 0.950 . S
H491 C469 0.950 . S
C492 C493 1.349 . S
C492 C494 1.327 . S
C492 H517 0.950 . S
C493 C492 1.349 . S
C493 C509 1.349 . S
C494 C492 1.327 . S
C494 C513 1.429 . S
C494 H518 0.950 . S
C495 C512 1.574 . S
C495 C514 1.368 . S
C495 H519 0.949 . S
H496 C500 0.949 . S
C497 C498 1.349 . S
C497 C499 1.327 . S
C497 H520 0.950 . S
C498 C497 1.349 . S
C498 C510 1.349 . S
C499 C497 1.327 . S
C499 C515 1.429 . S
C499 H521 0.950 . S
C500 H496 0.949 . S
C500 C508 1.574 . S
C500 C516 1.368 . S
H501 C509 0.950 . S
H502 C507 0.950 . S
H503 C508 0.949 . S
H504 C510 0.950 . S
H505 C511 0.950 . S
H506 C512 0.949 . S
C507 H502 0.950 . S
C507 C509 1.327 . S
C507 C513 1.429 . S
C508 C500 1.574 . S
C508 H503 0.949 . S
C508 C514 1.368 . S
C509 C493 1.349 . S
C509 H501 0.950 . S
C509 C507 1.327 . S
C510 C498 1.349 . S
C510 H504 0.950 . S
C510 C511 1.327 . S
C511 H505 0.950 . S
C511 C510 1.327 . S
C511 C515 1.429 . S
C512 C495 1.574 . S
C512 H506 0.949 . S
C512 C516 1.368 . S
C513 C494 1.429 . S
C513 C507 1.429 . S
C513 C514 1.523 . S
C514 C495 1.368 . S
C514 C508 1.368 . S
C514 C513 1.523 . S
C515 C499 1.429 . S
C515 C511 1.429 . S
C515 C516 1.523 . S
C516 C500 1.368 . S
C516 C512 1.368 . S
C516 C515 1.523 . S
H517 C492 0.950 . S
H518 C494 0.950 . S
H519 C495 0.949 . S
H520 C497 0.950 . S
H521 C499 0.950 . S
C522 C523 1.349 . S
C522 C524 1.327 . S
C522 H547 0.950 . S
C523 C522 1.349 . S
C523 C539 1.349 . S
C524 C522 1.327 . S
C524 C543 1.429 . S
C524 H548 0.950 . S
C525 C542 1.574 . S
C525 C544 1.368 . S
C525 H549 0.949 . S
H526 C530 0.949 . S
C527 C528 1.349 . S
C527 C529 1.327 . S
C527 H550 0.950 . S
C528 C527 1.349 . S
C528 C540 1.349 . S
C529 C527 1.327 . S
C529 C545 1.429 . S
C529 H551 0.950 . S
C530 H526 0.949 . S
C530 C538 1.574 . S
C530 C546 1.368 . S
H531 C539 0.950 . S
H532 C537 0.950 . S
H533 C538 0.949 . S
H534 C540 0.950 . S
H535 C541 0.950 . S
H536 C542 0.949 . S
C537 H532 0.950 . S
C537 C539 1.327 . S
C537 C543 1.429 . S
C538 C530 1.574 . S
C538 H533 0.949 . S
C538 C544 1.368 . S
C539 C523 1.349 . S
C539 H531 0.950 . S
C539 C537 1.327 . S
C540 C528 1.349 . S
C540 H534 0.950 . S
C540 C541 1.327 . S
C541 H535 0.950 . S
C541 C540 1.327 . S
C541 C545 1.429 . S
C542 C525 1.574 . S
C542 H536 0.949 . S
C542 C546 1.368 . S
C543 C524 1.429 . S
C543 C537 1.429 . S
C543 C544 1.523 . S
C544 C525 1.368 . S
C544 C538 1.368 . S
C544 C543 1.523 . S
C545 C529 1.429 . S
C545 C541 1.429 . S
C545 C546 1.523 . S
C546 C530 1.368 . S
C546 C542 1.368 . S
C546 C545 1.523 . S
H547 C522 0.950 . S
H548 C524 0.950 . S
H549 C525 0.949 . S
H550 C527 0.950 . S
H551 C529 0.950 . S
C552 C553 1.349 . S
C552 C554 1.327 . S
C552 H577 0.950 . S
C553 C552 1.349 . S
C553 C569 1.349 . S
C554 C552 1.327 . S
C554 C573 1.429 . S
C554 H578 0.950 . S
C555 C572 1.574 . S
C555 C574 1.368 . S
C555 H579 0.949 . S
H556 C560 0.949 . S
C557 C558 1.349 . S
C557 C559 1.327 . S
C557 H580 0.950 . S
C558 C557 1.349 . S
C558 C570 1.349 . S
C559 C557 1.327 . S
C559 C575 1.429 . S
C559 H581 0.950 . S
C560 H556 0.949 . S
C560 C568 1.574 . S
C560 C576 1.368 . S
H561 C569 0.950 . S
H562 C567 0.950 . S
H563 C568 0.949 . S
H564 C570 0.950 . S
H565 C571 0.950 . S
H566 C572 0.949 . S
C567 H562 0.950 . S
C567 C569 1.327 . S
C567 C573 1.429 . S
C568 C560 1.574 . S
C568 H563 0.949 . S
C568 C574 1.368 . S
C569 C553 1.349 . S
C569 H561 0.950 . S
C569 C567 1.327 . S
C570 C558 1.349 . S
C570 H564 0.950 . S
C570 C571 1.327 . S
C571 H565 0.950 . S
C571 C570 1.327 . S
C571 C575 1.429 . S
C572 C555 1.574 . S
C572 H566 0.949 . S
C572 C576 1.368 . S
C573 C554 1.429 . S
C573 C567 1.429 . S
C573 C574 1.523 . S
C574 C555 1.368 . S
C574 C568 1.368 . S
C574 C573 1.523 . S
C575 C559 1.429 . S
C575 C571 1.429 . S
C575 C576 1.523 . S
C576 C560 1.368 . S
C576 C572 1.368 . S
C576 C575 1.523 . S
H577 C552 0.950 . S
H578 C554 0.950 . S
H579 C555 0.949 . S
H580 C557 0.950 . S
H581 C559 0.950 . S
C582 C583 1.349 . S
C582 C584 1.327 . S
C582 H607 0.950 . S
C583 C582 1.349 . S
C583 C599 1.349 . S
C584 C582 1.327 . S
C584 C603 1.429 . S
C584 H608 0.950 . S
C585 C602 1.574 . S
C585 C604 1.368 . S
C585 H609 0.949 . S
H586 C590 0.949 . S
C587 C588 1.349 . S
C587 C589 1.327 . S
C587 H610 0.950 . S
C588 C587 1.349 . S
C588 C600 1.349 . S
C589 C587 1.327 . S
C589 C605 1.429 . S
C589 H611 0.950 . S
C590 H586 0.949 . S
C590 C598 1.574 . S
C590 C606 1.368 . S
H591 C599 0.950 . S
H592 C597 0.950 . S
H593 C598 0.949 . S
H594 C600 0.950 . S
H595 C601 0.950 . S
H596 C602 0.949 . S
C597 H592 0.950 . S
C597 C599 1.327 . S
C597 C603 1.429 . S
C598 C590 1.574 . S
C598 H593 0.949 . S
C598 C604 1.368 . S
C599 C583 1.349 . S
C599 H591 0.950 . S
C599 C597 1.327 . S
C600 C588 1.349 . S
C600 H594 0.950 . S
C600 C601 1.327 . S
C601 H595 0.950 . S
C601 C600 1.327 . S
C601 C605 1.429 . S
C602 C585 1.574 . S
C602 H596 0.949 . S
C602 C606 1.368 . S
C603 C584 1.429 . S
C603 C597 1.429 . S
C603 C604 1.523 . S
C604 C585 1.368 . S
C604 C598 1.368 . S
C604 C603 1.523 . S
C605 C589 1.429 . S
C605 C601 1.429 . S
C605 C606 1.523 . S
C606 C590 1.368 . S
C606 C602 1.368 . S
C606 C605 1.523 . S
H607 C582 0.950 . S
H608 C584 0.950 . S
H609 C585 0.949 . S
H610 C587 0.950 . S
H611 C589 0.950 . S
C612 C613 1.349 . S
C612 C614 1.327 . S
C612 H637 0.950 . S
C613 C612 1.349 . S
C613 C629 1.349 . S
C614 C612 1.327 . S
C614 C633 1.429 . S
C614 H638 0.950 . S
C615 C632 1.574 . S
C615 C634 1.368 . S
C615 H639 0.949 . S
H616 C620 0.949 . S
C617 C618 1.349 . S
C617 C619 1.327 . S
C617 H640 0.950 . S
C618 C617 1.349 . S
C618 C630 1.349 . S
C619 C617 1.327 . S
C619 C635 1.429 . S
C619 H641 0.950 . S
C620 H616 0.949 . S
C620 C628 1.574 . S
C620 C636 1.368 . S
H621 C629 0.950 . S
H622 C627 0.950 . S
H623 C628 0.949 . S
H624 C630 0.950 . S
H625 C631 0.950 . S
H626 C632 0.949 . S
C627 H622 0.950 . S
C627 C629 1.327 . S
C627 C633 1.429 . S
C628 C620 1.574 . S
C628 H623 0.949 . S
C628 C634 1.368 . S
C629 C613 1.349 . S
C629 H621 0.950 . S
C629 C627 1.327 . S
C630 C618 1.349 . S
C630 H624 0.950 . S
C630 C631 1.327 . S
C631 H625 0.950 . S
C631 C630 1.327 . S
C631 C635 1.429 . S
C632 C615 1.574 . S
C632 H626 0.949 . S
C632 C636 1.368 . S
C633 C614 1.429 . S
C633 C627 1.429 . S
C633 C634 1.523 . S
C634 C615 1.368 . S
C634 C628 1.368 . S
C634 C633 1.523 . S
C635 C619 1.429 . S
C635 C631 1.429 . S
C635 C636 1.523 . S
C636 C620 1.368 . S
C636 C632 1.368 . S
C636 C635 1.523 . S
H637 C612 0.950 . S
H638 C614 0.950 . S
H639 C615 0.949 . S
H640 C617 0.950 . S
H641 C619 0.950 . S
C642 C643 1.349 . S
C642 C644 1.327 . S
C642 H667 0.950 . S
C643 C642 1.349 . S
C643 C659 1.349 . S
C644 C642 1.327 . S
C644 C663 1.429 . S
C644 H668 0.950 . S
C645 C662 1.574 . S
C645 C664 1.368 . S
C645 H669 0.949 . S
H646 C650 0.949 . S
C647 C648 1.349 . S
C647 C649 1.327 1_554 S
C647 H670 0.950 . S
C648 C647 1.349 . S
C648 C660 1.349 . S
C649 C647 1.327 1_556 S
C649 C665 1.429 . S
C649 H671 0.950 . S
C650 H646 0.949 . S
C650 C658 1.574 . S
C650 C666 1.368 . S
H651 C659 0.950 . S
H652 C657 0.950 . S
H653 C658 0.949 . S
H654 C660 0.950 . S
H655 C661 0.950 . S
H656 C662 0.949 . S
C657 H652 0.950 . S
C657 C659 1.327 . S
C657 C663 1.429 . S
C658 C650 1.574 . S
C658 H653 0.949 . S
C658 C664 1.368 . S
C659 C643 1.349 . S
C659 H651 0.950 . S
C659 C657 1.327 . S
C660 C648 1.349 . S
C660 H654 0.950 . S
C660 C661 1.327 1_554 S
C661 H655 0.950 . S
C661 C660 1.327 1_556 S
C661 C665 1.429 . S
C662 C645 1.574 . S
C662 H656 0.949 . S
C662 C666 1.368 . S
C663 C644 1.429 . S
C663 C657 1.429 . S
C663 C664 1.523 . S
C664 C645 1.368 . S
C664 C658 1.368 . S
C664 C663 1.523 . S
C665 C649 1.429 . S
C665 C661 1.429 . S
C665 C666 1.523 . S
C666 C650 1.368 . S
C666 C662 1.368 . S
C666 C665 1.523 . S
H667 C642 0.950 . S
H668 C644 0.950 . S
H669 C645 0.949 . S
H670 C647 0.950 . S
H671 C649 0.950 . S
C672 C673 1.349 . S
C672 C674 1.327 . S
C672 H697 0.950 . S
C673 C672 1.349 . S
C673 C689 1.349 . S
C674 C672 1.327 . S
C674 C693 1.429 . S
C674 H698 0.950 . S
C675 C692 1.574 . S
C675 C694 1.368 . S
C675 H699 0.949 . S
H676 C680 0.949 . S
C677 C678 1.349 . S
C677 C679 1.327 . S
C677 H700 0.950 . S
C678 C677 1.349 . S
C678 C690 1.349 . S
C679 C677 1.327 . S
C679 C695 1.429 . S
C679 H701 0.950 . S
C680 H676 0.949 . S
C680 C688 1.574 . S
C680 C696 1.368 . S
H681 C689 0.950 . S
H682 C687 0.950 . S
H683 C688 0.949 . S
H684 C690 0.950 . S
H685 C691 0.950 . S
H686 C692 0.949 . S
C687 H682 0.950 . S
C687 C689 1.327 . S
C687 C693 1.429 . S
C688 C680 1.574 . S
C688 H683 0.949 . S
C688 C694 1.368 . S
C689 C673 1.349 . S
C689 H681 0.950 . S
C689 C687 1.327 . S
C690 C678 1.349 . S
C690 H684 0.950 . S
C690 C691 1.327 . S
C691 H685 0.950 . S
C691 C690 1.327 . S
C691 C695 1.429 . S
C692 C675 1.574 . S
C692 H686 0.949 . S
C692 C696 1.368 . S
C693 C674 1.429 . S
C693 C687 1.429 . S
C693 C694 1.523 . S
C694 C675 1.368 . S
C694 C688 1.368 . S
C694 C693 1.523 . S
C695 C679 1.429 . S
C695 C691 1.429 . S
C695 C696 1.523 . S
C696 C680 1.368 . S
C696 C692 1.368 . S
C696 C695 1.523 . S
H697 C672 0.950 . S
H698 C674 0.950 . S
H699 C675 0.949 . S
H700 C677 0.950 . S
H701 C679 0.950 . S
C702 C703 1.349 . S
C702 C704 1.327 . S
C702 H727 0.950 . S
C703 C702 1.349 . S
C703 C719 1.349 . S
C704 C702 1.327 . S
C704 C723 1.429 . S
C704 H728 0.950 . S
C705 C722 1.574 . S
C705 C724 1.368 . S
C705 H729 0.949 . S
H706 C710 0.949 . S
C707 C708 1.349 . S
C707 C709 1.327 . S
C707 H730 0.950 . S
C708 C707 1.349 . S
C708 C720 1.349 . S
C709 C707 1.327 . S
C709 C725 1.429 . S
C709 H731 0.950 . S
C710 H706 0.949 . S
C710 C718 1.574 . S
C710 C726 1.368 . S
H711 C719 0.950 . S
H712 C717 0.950 . S
H713 C718 0.949 . S
H714 C720 0.950 . S
H715 C721 0.950 . S
H716 C722 0.949 . S
C717 H712 0.950 . S
C717 C719 1.327 . S
C717 C723 1.429 . S
C718 C710 1.574 . S
C718 H713 0.949 . S
C718 C724 1.368 . S
C719 C703 1.349 . S
C719 H711 0.950 . S
C719 C717 1.327 . S
C720 C708 1.349 . S
C720 H714 0.950 . S
C720 C721 1.327 . S
C721 H715 0.950 . S
C721 C720 1.327 . S
C721 C725 1.429 . S
C722 C705 1.574 . S
C722 H716 0.949 . S
C722 C726 1.368 . S
C723 C704 1.429 . S
C723 C717 1.429 . S
C723 C724 1.523 . S
C724 C705 1.368 . S
C724 C718 1.368 . S
C724 C723 1.523 . S
C725 C709 1.429 . S
C725 C721 1.429 . S
C725 C726 1.523 . S
C726 C710 1.368 . S
C726 C722 1.368 . S
C726 C725 1.523 . S
H727 C702 0.950 . S
H728 C704 0.950 . S
H729 C705 0.949 . S
H730 C707 0.950 . S
H731 C709 0.950 . S
C732 C733 1.349 . S
C732 C734 1.327 . S
C732 H757 0.950 . S
C733 C732 1.349 . S
C733 C749 1.349 . S
C734 C732 1.327 . S
C734 C753 1.429 . S
C734 H758 0.950 . S
C735 C752 1.574 . S
C735 C754 1.368 . S
C735 H759 0.949 . S
H736 C740 0.949 . S
C737 C738 1.349 . S
C737 C739 1.327 . S
C737 H760 0.950 . S
C738 C737 1.349 . S
C738 C750 1.349 . S
C739 C737 1.327 . S
C739 C755 1.429 . S
C739 H761 0.950 . S
C740 H736 0.949 . S
C740 C748 1.574 . S
C740 C756 1.368 . S
H741 C749 0.950 . S
H742 C747 0.950 . S
H743 C748 0.949 . S
H744 C750 0.950 . S
H745 C751 0.950 . S
H746 C752 0.949 . S
C747 H742 0.950 . S
C747 C749 1.327 . S
C747 C753 1.429 . S
C748 C740 1.574 . S
C748 H743 0.949 . S
C748 C754 1.368 . S
C749 C733 1.349 . S
C749 H741 0.950 . S
C749 C747 1.327 . S
C750 C738 1.349 . S
C750 H744 0.950 . S
C750 C751 1.327 . S
C751 H745 0.950 . S
C751 C750 1.327 . S
C751 C755 1.429 . S
C752 C735 1.574 . S
C752 H746 0.949 . S
C752 C756 1.368 . S
C753 C734 1.429 . S
C753 C747 1.429 . S
C753 C754 1.523 . S
C754 C735 1.368 . S
C754 C748 1.368 . S
C754 C753 1.523 . S
C755 C739 1.429 . S
C755 C751 1.429 . S
C755 C756 1.523 . S
C756 C740 1.368 . S
C756 C752 1.368 . S
C756 C755 1.523 . S
H757 C732 0.950 . S
H758 C734 0.950 . S
H759 C735 0.949 . S
H760 C737 0.950 . S
H761 C739 0.950 . S
C762 C763 1.349 . S
C762 C764 1.327 . S
C762 H787 0.950 . S
C763 C762 1.349 . S
C763 C779 1.349 . S
C764 C762 1.327 . S
C764 C783 1.429 . S
C764 H788 0.950 . S
C765 C782 1.574 . S
C765 C784 1.368 . S
C765 H789 0.949 . S
H766 C770 0.949 . S
C767 C768 1.349 . S
C767 C769 1.327 . S
C767 H790 0.950 . S
C768 C767 1.349 . S
C768 C780 1.349 . S
C769 C767 1.327 . S
C769 C785 1.429 . S
C769 H791 0.950 . S
C770 H766 0.949 . S
C770 C778 1.574 . S
C770 C786 1.368 . S
H771 C779 0.950 . S
H772 C777 0.950 . S
H773 C778 0.949 . S
H774 C780 0.950 . S
H775 C781 0.950 . S
H776 C782 0.949 . S
C777 H772 0.950 . S
C777 C779 1.327 . S
C777 C783 1.429 . S
C778 C770 1.574 . S
C778 H773 0.949 . S
C778 C784 1.368 . S
C779 C763 1.349 . S
C779 H771 0.950 . S
C779 C777 1.327 . S
C780 C768 1.349 . S
C780 H774 0.950 . S
C780 C781 1.327 . S
C781 H775 0.950 . S
C781 C780 1.327 . S
C781 C785 1.429 . S
C782 C765 1.574 . S
C782 H776 0.949 . S
C782 C786 1.368 . S
C783 C764 1.429 . S
C783 C777 1.429 . S
C783 C784 1.523 . S
C784 C765 1.368 . S
C784 C778 1.368 . S
C784 C783 1.523 . S
C785 C769 1.429 . S
C785 C781 1.429 . S
C785 C786 1.523 . S
C786 C770 1.368 . S
C786 C782 1.368 . S
C786 C785 1.523 . S
H787 C762 0.950 . S
H788 C764 0.950 . S
H789 C765 0.949 . S
H790 C767 0.950 . S
H791 C769 0.950 . S
C792 C793 1.349 . S
C792 C794 1.327 . S
C792 H817 0.950 . S
C793 C792 1.349 . S
C793 C809 1.349 . S
C794 C792 1.327 . S
C794 C813 1.429 . S
C794 H818 0.950 . S
C795 C812 1.574 . S
C795 C814 1.368 . S
C795 H819 0.949 . S
H796 C800 0.949 . S
C797 C798 1.349 . S
C797 C799 1.327 . S
C797 H820 0.950 . S
C798 C797 1.349 . S
C798 C810 1.349 . S
C799 C797 1.327 . S
C799 C815 1.429 . S
C799 H821 0.950 . S
C800 H796 0.949 . S
C800 C808 1.574 . S
C800 C816 1.368 . S
H801 C809 0.950 . S
H802 C807 0.950 . S
H803 C808 0.949 . S
H804 C810 0.950 . S
H805 C811 0.950 . S
H806 C812 0.949 . S
C807 H802 0.950 . S
C807 C809 1.327 . S
C807 C813 1.429 . S
C808 C800 1.574 . S
C808 H803 0.949 . S
C808 C814 1.368 . S
C809 C793 1.349 . S
C809 H801 0.950 . S
C809 C807 1.327 . S
C810 C798 1.349 . S
C810 H804 0.950 . S
C810 C811 1.327 . S
C811 H805 0.950 . S
C811 C810 1.327 . S
C811 C815 1.429 . S
C812 C795 1.574 . S
C812 H806 0.949 . S
C812 C816 1.368 . S
C813 C794 1.429 . S
C813 C807 1.429 . S
C813 C814 1.523 . S
C814 C795 1.368 . S
C814 C808 1.368 . S
C814 C813 1.523 . S
C815 C799 1.429 . S
C815 C811 1.429 . S
C815 C816 1.523 . S
C816 C800 1.368 . S
C816 C812 1.368 . S
C816 C815 1.523 . S
H817 C792 0.950 . S
H818 C794 0.950 . S
H819 C795 0.949 . S
H820 C797 0.950 . S
H821 C799 0.950 . S
C822 C823 1.349 . S
C822 C824 1.327 . S
C822 H847 0.950 . S
C823 C822 1.349 . S
C823 C839 1.349 . S
C824 C822 1.327 . S
C824 C843 1.429 . S
C824 H848 0.950 . S
C825 C842 1.574 . S
C825 C844 1.368 . S
C825 H849 0.949 . S
H826 C830 0.949 . S
C827 C828 1.349 . S
C827 C829 1.327 . S
C827 H850 0.950 . S
C828 C827 1.349 . S
C828 C840 1.349 . S
C829 C827 1.327 . S
C829 C845 1.429 . S
C829 H851 0.950 . S
C830 H826 0.949 . S
C830 C838 1.574 . S
C830 C846 1.368 . S
H831 C839 0.950 . S
H832 C837 0.950 . S
H833 C838 0.949 . S
H834 C840 0.950 . S
H835 C841 0.950 . S
H836 C842 0.949 . S
C837 H832 0.950 . S
C837 C839 1.327 . S
C837 C843 1.429 . S
C838 C830 1.574 . S
C838 H833 0.949 . S
C838 C844 1.368 . S
C839 C823 1.349 . S
C839 H831 0.950 . S
C839 C837 1.327 . S
C840 C828 1.349 . S
C840 H834 0.950 . S
C840 C841 1.327 . S
C841 H835 0.950 . S
C841 C840 1.327 . S
C841 C845 1.429 . S
C842 C825 1.574 . S
C842 H836 0.949 . S
C842 C846 1.368 . S
C843 C824 1.429 . S
C843 C837 1.429 . S
C843 C844 1.523 . S
C844 C825 1.368 . S
C844 C838 1.368 . S
C844 C843 1.523 . S
C845 C829 1.429 . S
C845 C841 1.429 . S
C845 C846 1.523 . S
C846 C830 1.368 . S
C846 C842 1.368 . S
C846 C845 1.523 . S
H847 C822 0.950 . S
H848 C824 0.950 . S
H849 C825 0.949 . S
H850 C827 0.950 . S
H851 C829 0.950 . S
C852 C853 1.349 . S
C852 C854 1.327 . S
C852 H877 0.950 . S
C853 C852 1.349 . S
C853 C869 1.349 . S
C854 C852 1.327 . S
C854 C873 1.429 . S
C854 H878 0.950 . S
C855 C872 1.574 . S
C855 C874 1.368 . S
C855 H879 0.949 . S
H856 C860 0.949 1_556 S
C857 C858 1.349 . S
C857 C859 1.327 . S
C857 H880 0.950 . S
C858 C857 1.349 . S
C858 C870 1.349 . S
C859 C857 1.327 . S
C859 C875 1.429 . S
C859 H881 0.950 1_556 S
C860 H856 0.949 1_554 S
C860 C868 1.574 . S
C860 C876 1.368 . S
H861 C869 0.950 . S
H862 C867 0.950 . S
H863 C868 0.949 . S
H864 C870 0.950 . S
H865 C871 0.950 . S
H866 C872 0.949 . S
C867 H862 0.950 . S
C867 C869 1.327 . S
C867 C873 1.429 . S
C868 C860 1.574 . S
C868 H863 0.949 . S
C868 C874 1.368 . S
C869 C853 1.349 . S
C869 H861 0.950 . S
C869 C867 1.327 . S
C870 C858 1.349 . S
C870 H864 0.950 . S
C870 C871 1.327 . S
C871 H865 0.950 . S
C871 C870 1.327 . S
C871 C875 1.429 . S
C872 C855 1.574 . S
C872 H866 0.949 . S
C872 C876 1.368 . S
C873 C854 1.429 . S
C873 C867 1.429 . S
C873 C874 1.523 . S
C874 C855 1.368 . S
C874 C868 1.368 . S
C874 C873 1.523 . S
C875 C859 1.429 . S
C875 C871 1.429 . S
C875 C876 1.523 1_556 S
C876 C860 1.368 . S
C876 C872 1.368 . S
C876 C875 1.523 1_554 S
H877 C852 0.950 . S
H878 C854 0.950 . S
H879 C855 0.949 . S
H880 C857 0.950 . S
H881 C859 0.950 1_554 S
C882 C883 1.349 . S
C882 C884 1.327 . S
C882 H907 0.950 . S
C883 C882 1.349 . S
C883 C899 1.349 . S
C884 C882 1.327 . S
C884 C903 1.429 . S
C884 H908 0.950 . S
C885 C902 1.574 . S
C885 C904 1.368 . S
C885 H909 0.949 . S
H886 C890 0.949 . S
C887 C888 1.349 . S
C887 C889 1.327 . S
C887 H910 0.950 . S
C888 C887 1.349 . S
C888 C900 1.349 . S
C889 C887 1.327 . S
C889 C905 1.429 . S
C889 H911 0.950 . S
C890 H886 0.949 . S
C890 C898 1.574 . S
C890 C906 1.368 . S
H891 C899 0.950 . S
H892 C897 0.950 . S
H893 C898 0.949 . S
H894 C900 0.950 . S
H895 C901 0.950 . S
H896 C902 0.949 . S
C897 H892 0.950 . S
C897 C899 1.327 . S
C897 C903 1.429 . S
C898 C890 1.574 . S
C898 H893 0.949 . S
C898 C904 1.368 . S
C899 C883 1.349 . S
C899 H891 0.950 . S
C899 C897 1.327 . S
C900 C888 1.349 . S
C900 H894 0.950 . S
C900 C901 1.327 . S
C901 H895 0.950 . S
C901 C900 1.327 . S
C901 C905 1.429 . S
C902 C885 1.574 . S
C902 H896 0.949 . S
C902 C906 1.368 . S
C903 C884 1.429 . S
C903 C897 1.429 . S
C903 C904 1.523 . S
C904 C885 1.368 . S
C904 C898 1.368 . S
C904 C903 1.523 . S
C905 C889 1.429 . S
C905 C901 1.429 . S
C905 C906 1.523 . S
C906 C890 1.368 . S
C906 C902 1.368 . S
C906 C905 1.523 . S
H907 C882 0.950 . S
H908 C884 0.950 . S
H909 C885 0.949 . S
H910 C887 0.950 . S
H911 C889 0.950 . S
C198 C181 1.611 . S
C193 C8 1.558 . S
C223 C26 1.568 . S
C228 C111 1.616 . S
C253 C50 1.579 . S
C258 C130 1.632 . S
C283 C68 1.558 . S
C288 C139 1.616 . S
C318 C153 1.614 . S
C313 C80 1.566 . S
C343 C104 1.573 . S
C348 C172 1.626 . S
C373 C32 1.554 . S
C378 C125 1.608 . S
C403 C44 1.556 . S
C408 C144 1.607 . S
C433 C62 1.560 . S
C438 C158 1.606 . S
C468 C167 1.602 . S
C463 C86 1.548 1_554 S
C498 C186 1.606 . S
C493 C98 1.555 . S
C528 C116 1.610 . S
C523 C14 1.560 . S
C553 C7 1.475 . S
C558 C131 1.513 . S
C583 C25 1.469 . S
C588 C143 1.487 . S
C618 C157 1.491 . S
C613 C52 1.475 . S
C643 C70 1.475 . S
C648 C173 1.513 . S
C678 C185 1.487 . S
C673 C79 1.468 . S
C708 C115 1.492 . S
C703 C106 1.476 . S
C738 C187 1.518 . S
C733 C34 1.479 . S
C763 C43 1.488 . S
C768 C117 1.531 . S
C798 C129 1.503 . S
C793 C61 1.484 . S
C823 C88 1.480 . S
C828 C145 1.519 . S
C853 C97 1.487 . S
C858 C159 1.530 . S
C883 C16 1.486 . S
C888 C171 1.503 . S
