# Generated by pormake.
# Topology pts, (4,4)-cn, num edge types: 1
# Building blocks:
#     Node 0, Type 0, BuildingBlock: AZAVOO_clean_linker_0, # of connection points: 4
#     Node 1, Type 0, BuildingBlock: AZAVOO_clean_linker_0, # of connection points: 4
#     Node 2, Type 1, BuildingBlock: UXUYUI_clean_sbu_0, # of connection points: 4
#     Node 3, Type 1, BuildingBlock: UXUYUI_clean_sbu_0, # of connection points: 4
#     Edge 4, Type (0, 1), BuildingBlock: EZIPEK_clean_linker_0, # of connection points: 2
#     Edge 5, Type (0, 1), BuildingBlock: EZIPEK_clean_linker_0, # of connection points: 2
#     Edge 6, Type (0, 1), BuildingBlock: EZIPEK_clean_linker_0, # of connection points: 2
#     Edge 7, Type (0, 1), BuildingBlock: EZIPEK_clean_linker_0, # of connection points: 2
#     Edge 8, Type (0, 1), BuildingBlock: EZIPEK_clean_linker_0, # of connection points: 2
#     Edge 9, Type (0, 1), BuildingBlock: EZIPEK_clean_linker_0, # of connection points: 2
#     Edge 10, Type (0, 1), BuildingBlock: EZIPEK_clean_linker_0, # of connection points: 2
#     Edge 11, Type (0, 1), BuildingBlock: EZIPEK_clean_linker_0, # of connection points: 2
# Relax obj value: 0.129
# Max RMSD: 0.231
# Mean RMSD: 0.163
data_MOF--net-pts--node1-UXUYUI_clean_sbu_0--node2-AZAVOO_clean_linker_0--edge1-EZIPEK_clean_linker_0
_symmetry_space_group_name_H-M    P1
_symmetry_Int_Tables_number       1
_symmetry_cell_setting            triclinic
loop_
_symmetry_equiv_pos_as_xyz
'x, y, z'
_cell_length_a     26.200169
_cell_length_b     26.182011
_cell_length_c     45.005232
_cell_angle_alpha  91.771616
_cell_angle_beta   91.59358
_cell_angle_gamma 90.01839
loop_
_atom_site_label
_atom_site_type_symbol
_atom_site_fract_x
_atom_site_fract_y
_atom_site_fract_z
_atom_type_partial_charge
H0 H 0.47001 0.07152 0.80761 0.0
H1 H 0.88805 0.01376 0.0367 0.0
H2 H 0.4548 0.14502 0.96769 0.0
H3 H 0.37591 0.14035 0.93729 0.0
H4 H 0.34788 0.98864 0.96786 0.0
H5 H 0.42898 0.99213 0.99691 0.0
H6 H 0.52856 0.13399 0.92977 0.0
H7 H 0.50473 0.12311 0.87697 0.0
H8 H 0.49262 0.95997 0.88755 0.0
H9 H 0.51528 0.97164 0.94048 0.0
H10 H 0.63167 0.13526 0.94742 0.0
H11 H 0.69437 0.12842 0.90779 0.0
H12 H 0.69768 0.96475 0.91607 0.0
H13 H 0.63481 0.97165 0.95571 0.0
H14 H 0.67254 0.14169 0.00862 0.0
H15 H 0.76561 0.14108 0.01536 0.0
H16 H 0.76104 0.97829 0.02875 0.0
H17 H 0.66824 0.97925 0.02091 0.0
H18 H 0.58495 0.14917 0.06695 0.0
H19 H 0.64293 0.15646 0.11085 0.0
H20 H 0.66534 0.9933 0.10714 0.0
H21 H 0.60587 0.98584 0.0642 0.0
H22 H 0.45116 0.14401 0.03451 0.0
H23 H 0.38258 0.14584 0.07068 0.0
H24 H 0.43265 1.00008 0.10266 0.0
H25 H 0.49994 0.99721 0.0657 0.0
O26 O 0.47934 0.07499 0.82854 0.0
O27 O 0.47266 0.99149 0.8353 0.0
O28 O 0.85184 0.09835 0.02548 0.0
O29 O 0.85139 0.01498 0.03355 0.0
C30 C 0.50275 0.06542 0.99326 0.0
C31 C 0.53906 0.05999 0.9707 0.0
C32 C 0.59134 0.05824 0.97816 0.0
C33 C 0.60795 0.0607 0.00811 0.0
C34 C 0.57196 0.06425 0.03101 0.0
C35 C 0.519 0.06696 0.02365 0.0
C36 C 0.44804 0.06857 0.98402 0.0
C37 C 0.43102 0.11125 0.96847 0.0
C38 C 0.38617 0.10854 0.95108 0.0
C39 C 0.35693 0.06363 0.94974 0.0
C40 C 0.3705 0.0233 0.96832 0.0
C41 C 0.41641 0.02542 0.98503 0.0
C42 C 0.52269 0.05369 0.93895 0.0
C43 C 0.52013 0.09604 0.92067 0.0
C44 C 0.50677 0.08966 0.89051 0.0
C45 C 0.49651 0.04068 0.87806 0.0
C46 C 0.50007 0.99823 0.89644 0.0
C47 C 0.51275 0.00477 0.92668 0.0
C48 C 0.62902 0.05393 0.95431 0.0
C49 C 0.64588 0.09798 0.9406 0.0
C50 C 0.68134 0.09409 0.91809 0.0
C51 C 0.70025 0.04611 0.90914 0.0
C52 C 0.68322 0.00199 0.92276 0.0
C53 C 0.64769 0.0059 0.94528 0.0
C54 C 0.66368 0.06074 0.015 0.0
C55 C 0.69175 0.10606 0.01327 0.0
C56 C 0.74489 0.10551 0.0169 0.0
C57 C 0.77076 0.05964 0.02276 0.0
C58 C 0.74233 0.0143 0.02448 0.0
C59 C 0.68929 0.0148 0.02031 0.0
C60 C 0.5915 0.067 0.0623 0.0
C61 C 0.6003 0.11478 0.07654 0.0
C62 C 0.6335 0.11895 0.10145 0.0
C63 C 0.65896 0.07546 0.11182 0.0
C64 C 0.64621 0.02724 0.09935 0.0
C65 C 0.61225 0.023 0.07493 0.0
C66 C 0.48061 0.07042 0.04737 0.0
C67 C 0.44746 0.11249 0.04934 0.0
C68 C 0.40852 0.11364 0.06999 0.0
C69 C 0.40257 0.07307 0.08928 0.0
C70 C 0.43669 0.03175 0.08797 0.0
C71 C 0.47519 0.03028 0.06704 0.0
C72 C 0.48213 0.03402 0.84604 0.0
C73 C 0.82708 0.05902 0.02728 0.0
H74 H 0.01881 0.41917 0.31026 0.0
H75 H 0.11824 0.88404 0.50669 0.0
H76 H 0.98411 0.44049 0.47071 0.0
H77 H 0.98085 0.35486 0.45045 0.0
H78 H 0.14162 0.33734 0.47413 0.0
H79 H 0.14297 0.42297 0.49403 0.0
H80 H 0.99032 0.52496 0.425 0.0
H81 H 0.98777 0.48558 0.37493 0.0
H82 H 0.14385 0.43532 0.38779 0.0
H83 H 0.14602 0.47543 0.43767 0.0
H84 H 0.99171 0.63331 0.4478 0.0
H85 H 0.99355 0.69548 0.40801 0.0
H86 H 0.15285 0.66239 0.39528 0.0
H87 H 0.15104 0.60024 0.43526 0.0
H88 H 0.9922 0.66279 0.51061 0.0
H89 H 0.99192 0.75634 0.51377 0.0
H90 H 0.1545 0.75726 0.49959 0.0
H91 H 0.15396 0.66375 0.49591 0.0
H92 H 0.99303 0.57706 0.56215 0.0
H93 H 0.98826 0.63658 0.60538 0.0
H94 H 0.14651 0.67638 0.59576 0.0
H95 H 0.15156 0.61618 0.55306 0.0
H96 H 0.98724 0.46293 0.53914 0.0
H97 H 0.98734 0.39724 0.57707 0.0
H98 H 0.14834 0.42216 0.59405 0.0
H99 H 0.14816 0.48819 0.55621 0.0
O100 O 0.02085 0.43503 0.32997 0.0
O101 O 0.10097 0.40969 0.33781 0.0
O102 O 0.03404 0.84443 0.51385 0.0
O103 O 0.11726 0.84708 0.50551 0.0
C104 C 0.06745 0.4934 0.49026 0.0
C105 C 0.06917 0.52544 0.4656 0.0
C106 C 0.07114 0.57876 0.47014 0.0
C107 C 0.0724 0.60026 0.49926 0.0
C108 C 0.07183 0.56837 0.52409 0.0
C109 C 0.06894 0.51473 0.51956 0.0
C110 C 0.06331 0.43741 0.48472 0.0
C111 C 0.01775 0.41668 0.47294 0.0
C112 C 0.01607 0.36648 0.46168 0.0
C113 C 0.05957 0.33426 0.46273 0.0
C114 C 0.10539 0.35645 0.47476 0.0
C115 C 0.10687 0.4068 0.48606 0.0
C116 C 0.06833 0.503 0.43488 0.0
C117 C 0.02401 0.50575 0.41684 0.0
C118 C 0.02262 0.48308 0.38831 0.0
C119 C 0.06557 0.45717 0.37738 0.0
C120 C 0.11009 0.45489 0.39553 0.0
C121 C 0.11144 0.47773 0.42401 0.0
C122 C 0.07129 0.61259 0.44436 0.0
C123 C 0.02683 0.63911 0.43621 0.0
C124 C 0.02785 0.67433 0.4136 0.0
C125 C 0.07333 0.6833 0.3989 0.0
C126 C 0.11748 0.6557 0.40644 0.0
C127 C 0.11644 0.62043 0.4291 0.0
C128 C 0.07318 0.6567 0.50338 0.0
C129 C 0.02773 0.68334 0.50843 0.0
C130 C 0.02767 0.73672 0.51005 0.0
C131 C 0.07327 0.76428 0.50708 0.0
C132 C 0.11879 0.73725 0.50215 0.0
C133 C 0.11867 0.68389 0.50017 0.0
C134 C 0.07261 0.59241 0.55443 0.0
C135 C 0.0272 0.59699 0.57013 0.0
C136 C 0.02442 0.63104 0.59465 0.0
C137 C 0.06693 0.66116 0.60348 0.0
C138 C 0.11338 0.65348 0.58925 0.0
C139 C 0.11627 0.61913 0.56498 0.0
C140 C 0.06764 0.4804 0.54509 0.0
C141 C 0.02229 0.45491 0.55146 0.0
C142 C 0.02236 0.41752 0.57295 0.0
C143 C 0.06785 0.40502 0.58821 0.0
C144 C 0.11292 0.43154 0.58249 0.0
C145 C 0.11277 0.46917 0.56108 0.0
C146 C 0.06375 0.43251 0.34722 0.0
C147 C 0.07346 0.82097 0.50903 0.0
Li148 Li 0.05359 0.09301 0.27741 0.0
Li149 Li 0.05066 0.99899 0.26565 0.0
Li150 Li 0.0924 0.06299 0.2323 0.0
Li151 Li 0.00189 0.0592 0.23569 0.0
C152 C 0.14014 0.05623 0.29879 0.0
N153 N 0.19426 0.08332 0.35048 0.0
C154 C 0.13698 0.02628 0.32386 0.0
C155 C 0.17141 0.09955 0.2999 0.0
C156 C 0.16453 0.04069 0.3498 0.0
C157 C 0.19827 0.11275 0.32628 0.0
C158 C 0.94577 0.05414 0.28357 0.0
C159 C 0.85894 0.02503 0.28737 0.0
N160 N 0.84338 0.07432 0.29104 0.0
C161 C 0.92897 0.1045 0.28744 0.0
C162 C 0.91058 0.01402 0.28359 0.0
C163 C 0.87703 0.11391 0.29118 0.0
C164 C 0.0662 0.18765 0.31222 0.0
N165 N 0.05555 0.13677 0.31207 0.0
C166 C 0.04577 0.13958 0.36471 0.0
C167 C 0.04501 0.11268 0.33752 0.0
C168 C 0.05678 0.19192 0.36558 0.0
C169 C 0.06705 0.21625 0.33905 0.0
H170 H 0.07382 0.20601 0.29164 0.0
H171 H 0.03622 0.07228 0.33665 0.0
C172 C 0.08741 0.8983 0.27533 0.0
N173 N 0.05358 0.93497 0.28382 0.0
C174 C 0.09276 0.85391 0.29166 0.0
C175 C 0.02772 0.8858 0.32457 0.0
C176 C 0.02375 0.92944 0.30774 0.0
C177 C 0.06298 0.84789 0.31674 0.0
H178 H 0.1112 0.90427 0.25648 0.0
H179 H 0.99823 0.95985 0.31442 0.0
C180 C 0.06662 0.15567 0.21918 0.0
N181 N 0.11328 0.22182 0.18164 0.0
C182 C 0.04655 0.16243 0.19045 0.0
C183 C 0.11023 0.18282 0.22884 0.0
C184 C 0.0707 0.19604 0.17182 0.0
C185 C 0.13336 0.21595 0.20952 0.0
C186 C 0.02215 0.97919 0.19839 0.0
C187 C 0.01142 0.00535 0.17234 0.0
C188 C 0.00629 0.92849 0.20053 0.0
C189 C 0.98439 0.98046 0.14893 0.0
C190 C 0.97949 0.9049 0.17659 0.0
N191 N 0.96913 0.93117 0.15152 0.0
C192 C 0.19745 0.06257 0.21817 0.0
C193 C 0.14157 0.07772 0.17709 0.0
C194 C 0.23975 0.06403 0.19991 0.0
N195 N 0.14949 0.0694 0.20656 0.0
C196 C 0.18278 0.08026 0.15814 0.0
C197 C 0.23251 0.07289 0.16951 0.0
H198 H 0.20284 0.05497 0.2415 0.0
H199 H 0.10327 0.08183 0.16812 0.0
C200 C 0.91867 0.1122 0.20873 0.0
N201 N 0.93605 0.06509 0.21595 0.0
C202 C 0.87143 0.11753 0.19397 0.0
C203 C 0.85949 0.02614 0.19579 0.0
C204 C 0.90681 0.02262 0.21061 0.0
C205 C 0.84186 0.07396 0.18694 0.0
H206 H 0.94157 0.14563 0.21436 0.0
H207 H 0.92029 0.98588 0.21773 0.0
O208 O 0.11211 0.04371 0.27348 0.0
O209 O 0.9962 0.04433 0.2788 0.0
O210 O 0.04386 0.12254 0.23769 0.0
O211 O 0.04818 0.00286 0.22169 0.0
H212 H 0.11308 0.99261 0.32347 0.0
H213 H 0.17464 0.12294 0.28068 0.0
H214 H 0.16212 0.01807 0.36943 0.0
H215 H 0.22226 0.14643 0.32751 0.0
H216 H 0.83121 0.9944 0.28722 0.0
H217 H 0.95565 0.13603 0.28712 0.0
H218 H 0.92288 0.97486 0.28021 0.0
H219 H 0.86343 0.15271 0.29404 0.0
H220 H 0.0376 0.1199 0.38486 0.0
H221 H 0.07552 0.25676 0.33915 0.0
H222 H 0.1206 0.8253 0.28533 0.0
H223 H 0.00466 0.88228 0.34401 0.0
H224 H 0.01328 0.14129 0.18236 0.0
H225 H 0.12632 0.17808 0.25093 0.0
H226 H 0.05576 0.20136 0.14948 0.0
H227 H 0.16732 0.23694 0.21667 0.0
H228 H 0.02273 0.04478 0.17049 0.0
H229 H 0.01434 0.90772 0.22055 0.0
H230 H 0.97533 1.00042 0.12877 0.0
H231 H 0.96682 0.86574 0.17796 0.0
H232 H 0.27767 0.0578 0.20931 0.0
H233 H 0.1759 0.08684 0.13473 0.0
H234 H 0.85852 0.15502 0.18756 0.0
H235 H 0.83728 0.99188 0.19082 0.0
Li236 Li 0.9978 0.05181 0.76201 0.0
Li237 Li 0.08986 0.05485 0.7726 0.0
Li238 Li 0.05009 0.09537 0.72966 0.0
Li239 Li 0.05404 1.00162 0.73084 0.0
C240 C 0.04815 0.16363 0.77305 0.0
N241 N 0.06505 0.26779 0.77206 0.0
C242 C 0.0956 0.18395 0.78213 0.0
C243 C 0.0091 0.19641 0.7638 0.0
C244 C 0.10342 0.23669 0.78143 0.0
C245 C 0.01847 0.24891 0.76333 0.0
C246 C 0.06861 0.95317 0.78368 0.0
C247 C 0.14409 0.90056 0.78569 0.0
N248 N 0.12008 0.86845 0.80396 0.0
C249 C 0.04465 0.91965 0.80244 0.0
C250 C 0.11872 0.94359 0.77518 0.0
C251 C 0.07133 0.87703 0.81247 0.0
C252 C 0.90945 0.00537 0.78386 0.0
N253 N 0.93593 0.04993 0.78273 0.0
C254 C 0.88099 0.09059 0.81761 0.0
C255 C 0.92231 0.09229 0.79883 0.0
C256 C 0.85391 0.04482 0.81978 0.0
C257 C 0.86768 0.002 0.80234 0.0
H258 H 0.92187 0.9721 0.77118 0.0
H259 H 0.94468 0.12683 0.79793 0.0
C260 C 0.18756 0.07281 0.80118 0.0
N261 N 0.13866 0.05715 0.80459 0.0
C262 C 0.222 0.07385 0.82548 0.0
C263 C 0.15531 0.04168 0.85602 0.0
C264 C 0.12199 0.04213 0.83131 0.0
C265 C 0.20587 0.05782 0.8532 0.0
H266 H 0.19962 0.08471 0.77967 0.0
H267 H 0.08277 0.03013 0.83334 0.0
C268 C 0.9443 0.04104 0.71316 0.0
N269 N 0.83956 0.03198 0.70568 0.0
C270 C 0.92266 0.99503 0.70248 0.0
C271 C 0.91267 0.08276 0.71945 0.0
C272 C 0.86963 0.99112 0.69897 0.0
C273 C 0.85982 0.07733 0.71572 0.0
C274 C 0.1377 0.05262 0.70484 0.0
C275 C 0.10976 0.05341 0.67791 0.0
C276 C 0.19098 0.05459 0.70476 0.0
C277 C 0.13574 0.05593 0.65131 0.0
C278 C 0.21553 0.05696 0.67767 0.0
N279 N 0.18764 0.05761 0.65174 0.0
C280 C 0.09873 0.18131 0.70533 0.0
C281 C 0.01583 0.16316 0.6852 0.0
C282 C 0.10308 0.2233 0.68712 0.0
N283 N 0.05538 0.15256 0.70424 0.0
C284 C 0.01866 0.20461 0.66652 0.0
C285 C 0.06262 0.23516 0.66751 0.0
H286 H 0.12988 0.17159 0.72037 0.0
H287 H 0.98218 0.13929 0.6844 0.0
C288 C 0.0248 0.90067 0.71647 0.0
N289 N 0.0606 0.9363 0.71039 0.0
C290 C 0.02465 0.85281 0.70182 0.0
C291 C 0.09969 0.87806 0.6759 0.0
C292 C 0.0986 0.92527 0.69119 0.0
C293 C 0.06193 0.84168 0.68088 0.0
H294 H 0.9957 0.90987 0.73236 0.0
H295 H 0.12796 0.95293 0.68742 0.0
O296 O 0.04017 0.11192 0.7729 0.0
O297 O 0.04277 0.99492 0.77364 0.0
O298 O 0.99614 0.04534 0.71727 0.0
O299 O 0.11316 0.05192 0.73125 0.0
H300 H 0.12625 0.15931 0.78936 0.0
H301 H 0.97212 0.18152 0.75673 0.0
H302 H 0.14007 0.25286 0.78822 0.0
H303 H 0.98873 0.27463 0.75595 0.0
H304 H 0.18288 0.89268 0.7793 0.0
H305 H 0.00583 0.92655 0.80915 0.0
H306 H 0.13787 0.96902 0.76061 0.0
H307 H 0.05327 0.85075 0.82701 0.0
H308 H 0.87127 0.12404 0.83105 0.0
H309 H 0.84753 0.96609 0.80385 0.0
H310 H 0.26091 0.08645 0.82268 0.0
H311 H 0.14185 0.029 0.87711 0.0
H312 H 0.94646 0.96273 0.69678 0.0
H313 H 0.92871 0.11872 0.72758 0.0
H314 H 0.85239 0.95563 0.69087 0.0
H315 H 0.83491 0.10915 0.72087 0.0
H316 H 0.0685 0.05204 0.67751 0.0
H317 H 0.21311 0.05435 0.72542 0.0
H318 H 0.11464 0.05659 0.63032 0.0
H319 H 0.25677 0.05842 0.67728 0.0
H320 H 0.13761 0.24612 0.68818 0.0
H321 H 0.98699 0.21278 0.65143 0.0
H322 H 0.99506 0.82533 0.70614 0.0
H323 H 0.12914 0.87028 0.65996 0.0
C324 C 0.3581 0.10895 0.13432 0.0
C325 C 0.35934 0.07294 0.11011 0.0
C326 C 0.28098 0.03329 0.12715 0.0
C327 C 0.27667 0.0727 0.14932 0.0
N328 N 0.30636 0.1534 0.17067 0.0
N329 N 0.31646 0.00725 0.07996 0.0
C330 C 0.31397 0.11207 0.15202 0.0
C331 C 0.31921 0.03685 0.10552 0.0
N332 N 0.39972 0.13909 0.141 0.0
N333 N 0.2497 0.99151 0.12732 0.0
H334 H 0.34313 0.00932 0.06326 0.0
H335 H 0.28514 0.98424 0.07403 0.0
H336 H 0.22185 0.9869 0.14313 0.0
H337 H 0.25468 0.95922 0.1136 0.0
H338 H 0.40308 0.16221 0.16021 0.0
H339 H 0.43294 0.13752 0.12875 0.0
H340 H 0.32954 0.18576 0.17121 0.0
H341 H 0.27422 0.15744 0.18369 0.0
C342 C 0.07949 0.31184 0.59791 0.0
C343 C 0.06871 0.36196 0.60895 0.0
C344 C 0.05308 0.32892 0.65833 0.0
C345 C 0.06631 0.27921 0.64765 0.0
N346 N 0.0996 0.22384 0.60907 0.0
N347 N 0.05235 0.42019 0.65006 0.0
C348 C 0.08172 0.27082 0.61792 0.0
C349 C 0.05763 0.37108 0.63933 0.0
N350 N 0.08623 0.30331 0.56812 0.0
N351 N 0.0347 0.33545 0.68634 0.0
H352 H 0.05425 0.45183 0.63659 0.0
H353 H 0.04972 0.43002 0.67254 0.0
H354 H 0.032 0.30567 0.7011 0.0
H355 H 0.01896 0.36945 0.69439 0.0
H356 H 0.08823 0.26706 0.55806 0.0
H357 H 0.08647 0.33255 0.55288 0.0
H358 H 0.11665 0.21649 0.58877 0.0
H359 H 0.10099 0.1927 0.62298 0.0
C360 C 0.70097 0.07012 0.16279 0.0
C361 C 0.70456 0.08053 0.13217 0.0
C362 C 0.79788 0.08532 0.1375 0.0
C363 C 0.79426 0.07778 0.16843 0.0
N364 N 0.74289 0.07088 0.2117 0.0
N365 N 0.75513 0.10806 0.09156 0.0
C366 C 0.74586 0.07247 0.18146 0.0
C367 C 0.75263 0.09142 0.11995 0.0
N368 N 0.65484 0.05708 0.17383 0.0
N369 N 0.84453 0.08398 0.12455 0.0
H370 H 0.7232 0.11139 0.07749 0.0
H371 H 0.78824 0.12278 0.08281 0.0
H372 H 0.8788 0.07935 0.13651 0.0
H373 H 0.8491 0.08291 0.10162 0.0
H374 H 0.65039 0.04335 0.19506 0.0
H375 H 0.62101 0.05734 0.16104 0.0
H376 H 0.70865 0.07205 0.22289 0.0
H377 H 0.77505 0.07233 0.22591 0.0
C378 C 0.08364 0.70385 0.65376 0.0
C379 C 0.06142 0.70547 0.6247 0.0
C380 C 0.03252 0.79336 0.63475 0.0
C381 C 0.0595 0.79361 0.66249 0.0
N382 N 0.1138 0.75134 0.6981 0.0
N383 N 0.02018 0.75352 0.58588 0.0
C384 C 0.08577 0.74935 0.67201 0.0
C385 C 0.03696 0.7506 0.61482 0.0
N386 N 0.1017 0.65852 0.66404 0.0
N387 N 0.00213 0.8339 0.62758 0.0
H388 H 0.02181 0.72289 0.57064 0.0
H389 H 0.00817 0.7873 0.57629 0.0
H390 H 0.99894 0.86664 0.6412 0.0
H391 H 0.97686 0.83352 0.6093 0.0
H392 H 0.11394 0.65334 0.68593 0.0
H393 H 0.10066 0.6247 0.65114 0.0
H394 H 0.13846 0.72248 0.7048 0.0
H395 H 0.11478 0.7835 0.71239 0.0
C396 C 0.32133 0.02426 0.90158 0.0
C397 C 0.31528 0.0579 0.92669 0.0
C398 C 0.23693 0.09193 0.90354 0.0
C399 C 0.24224 0.05677 0.87912 0.0
N400 N 0.28635 0.98501 0.85655 0.0
N401 N 0.26179 0.11571 0.95448 0.0
C402 C 0.28315 0.02143 0.87885 0.0
C403 C 0.2713 0.08934 0.92853 0.0
N404 N 0.36373 0.99483 0.89814 0.0
N405 N 0.20074 0.12946 0.9022 0.0
H406 H 0.28592 0.11411 0.97327 0.0
H407 H 0.22787 0.1352 0.95833 0.0
H408 H 0.1753 0.13308 0.88416 0.0
H409 H 0.19866 0.15962 0.91775 0.0
H410 H 0.39494 0.99479 0.913 0.0
H411 H 0.39494 0.99479 0.913 0.0
H412 H 0.31617 0.95862 0.85558 0.0
H413 H 0.25834 0.97983 0.83979 0.0
C414 C 0.01126 0.26113 0.43558 0.0
C415 C 0.058 0.28186 0.44697 0.0
C416 C 0.10382 0.22992 0.41042 0.0
C417 C 0.05705 0.2208 0.39445 0.0
N418 N 0.96481 0.22484 0.39279 0.0
N419 N 0.14057 0.24759 0.45939 0.0
C420 C 0.01016 0.23475 0.40755 0.0
C421 C 0.10294 0.25579 0.43859 0.0
N422 N 0.96954 0.26214 0.45304 0.0
N423 N 0.14897 0.21402 0.39888 0.0
H424 H 0.13524 0.25683 0.48184 0.0
H425 H 0.1725 0.22498 0.45527 0.0
H426 H 0.15113 0.19312 0.37884 0.0
H427 H 0.18425 0.22442 0.40853 0.0
H428 H 0.93541 0.24351 0.44717 0.0
H429 H 0.97177 0.27695 0.47486 0.0
H430 H 0.93006 0.23907 0.40013 0.0
H431 H 0.96234 0.20559 0.37216 0.0
C432 C 0.79135 0.03745 0.89452 0.0
C433 C 0.73913 0.04241 0.88595 0.0
C434 C 0.76184 0.04849 0.8337 0.0
C435 C 0.81379 0.04107 0.84214 0.0
N436 N 0.87764 0.01929 0.87926 0.0
N437 N 0.67309 0.04429 0.84763 0.0
C438 C 0.82842 0.03269 0.87219 0.0
C439 C 0.72387 0.04542 0.85556 0.0
N440 N 0.80564 0.03926 0.92401 0.0
N441 N 0.7491 0.06002 0.80501 0.0
H442 H 0.64429 0.04257 0.86313 0.0
H443 H 0.65943 0.04109 0.82572 0.0
H444 H 0.77582 0.06125 0.78828 0.0
H445 H 0.71278 0.0716 0.79811 0.0
H446 H 0.84345 0.04184 0.93166 0.0
H447 H 0.77955 0.04208 0.94108 0.0
H448 H 0.88947 0.00726 0.90017 0.0
H449 H 0.90608 0.01609 0.86353 0.0
C450 C 0.09503 0.77262 0.38536 0.0
C451 C 0.07508 0.72384 0.37673 0.0
C452 C 0.04861 0.7556 0.32802 0.0
C453 C 0.07056 0.80372 0.33621 0.0
N454 N 0.12393 0.8553 0.36977 0.0
N455 N 0.04149 0.66554 0.33859 0.0
C456 C 0.09672 0.81134 0.36402 0.0
C457 C 0.05456 0.71428 0.3476 0.0
N458 N 0.11035 0.78258 0.41428 0.0
N459 N 0.02036 0.75004 0.30211 0.0
H460 H 0.04498 0.63453 0.35253 0.0
H461 H 0.03118 0.65506 0.31674 0.0
H462 H 0.01585 0.77925 0.28702 0.0
H463 H 0.99851 0.71778 0.29649 0.0
H464 H 0.11952 0.81902 0.42272 0.0
H465 H 0.11023 0.75511 0.43058 0.0
H466 H 0.14806 0.86093 0.38835 0.0
H467 H 0.12605 0.88452 0.3546 0.0
loop_
_geom_bond_atom_site_label_1
_geom_bond_atom_site_label_2
_geom_bond_distance
_geom_bond_site_symmetry_2
_ccdc_geom_bond_type
H0 O26 0.856 . S
H1 O29 0.854 . S
H2 C37 0.930 . S
H3 C38 0.930 . S
H4 C40 0.930 1_565 S
H5 C41 0.930 1_565 S
H6 C43 0.931 . S
H7 C44 0.930 . S
H8 C46 0.930 . S
H9 C47 0.936 . S
H10 C49 0.930 . S
H11 C50 0.931 . S
H12 C52 0.930 . S
H13 C53 0.929 . S
H14 C55 0.931 . S
H15 C56 0.930 . S
H16 C58 0.928 1_565 S
H17 C59 0.932 1_565 S
H18 C61 0.930 . S
H19 C62 0.929 . S
H20 C64 0.931 . S
H21 C65 0.930 1_565 S
H22 C67 0.929 . S
H23 C68 0.931 . S
H24 C70 0.930 1_565 S
H25 C71 0.929 1_565 S
O26 H0 0.856 . S
O26 C72 1.300 . S
O27 C72 1.209 1_565 S
O28 C73 1.199 . S
O29 H1 0.854 . S
O29 C73 1.297 . S
C30 C31 1.404 . S
C30 C35 1.397 1_556 S
C30 C36 1.492 . S
C31 C30 1.404 . S
C31 C32 1.396 . S
C31 C42 1.492 . S
C32 C31 1.396 . S
C32 C33 1.397 . S
C32 C48 1.509 . S
C33 C32 1.397 . S
C33 C34 1.412 1_556 S
C33 C54 1.485 1_556 S
C34 C33 1.412 1_554 S
C34 C35 1.388 . S
C34 C60 1.490 . S
C35 C30 1.397 1_554 S
C35 C34 1.388 . S
C35 C66 1.519 . S
C36 C30 1.492 . S
C36 C37 1.363 . S
C36 C41 1.390 . S
C37 H2 0.930 . S
C37 C36 1.363 . S
C37 C38 1.372 . S
C38 H3 0.930 . S
C38 C37 1.372 . S
C38 C39 1.383 . S
C39 C38 1.383 . S
C39 C40 1.395 . S
C40 H4 0.930 1_545 S
C40 C39 1.395 . S
C40 C41 1.362 . S
C41 H5 0.930 1_545 S
C41 C36 1.390 . S
C41 C40 1.362 . S
C42 C31 1.492 . S
C42 C43 1.377 . S
C42 C47 1.390 1_545 S
C43 H6 0.931 . S
C43 C42 1.377 . S
C43 C44 1.376 . S
C44 H7 0.930 . S
C44 C43 1.376 . S
C44 C45 1.376 . S
C45 C44 1.376 . S
C45 C46 1.378 1_545 S
C45 C72 1.486 . S
C46 H8 0.930 . S
C46 C45 1.378 1_565 S
C46 C47 1.377 . S
C47 H9 0.936 . S
C47 C42 1.390 1_565 S
C47 C46 1.377 . S
C48 C32 1.509 . S
C48 C49 1.391 . S
C48 C53 1.386 1_545 S
C49 H10 0.930 . S
C49 C48 1.391 . S
C49 C50 1.375 . S
C50 H11 0.931 . S
C50 C49 1.375 . S
C50 C51 1.375 . S
C51 C50 1.375 . S
C51 C52 1.361 1_545 S
C52 H12 0.930 . S
C52 C51 1.361 1_565 S
C52 C53 1.399 . S
C53 H13 0.929 . S
C53 C48 1.386 1_565 S
C53 C52 1.399 . S
C54 C33 1.485 1_554 S
C54 C55 1.394 . S
C54 C59 1.360 1_554 S
C55 H14 0.931 . S
C55 C54 1.394 . S
C55 C56 1.372 . S
C56 H15 0.930 . S
C56 C55 1.372 . S
C56 C57 1.397 . S
C57 C56 1.397 . S
C57 C58 1.391 . S
C57 C73 1.476 . S
C58 H16 0.928 1_545 S
C58 C57 1.391 . S
C58 C59 1.366 1_554 S
C59 H17 0.932 1_545 S
C59 C54 1.360 1_556 S
C59 C58 1.366 1_556 S
C60 C34 1.490 . S
C60 C61 1.380 . S
C60 C65 1.386 . S
C61 H18 0.930 . S
C61 C60 1.380 . S
C61 C62 1.381 . S
C62 H19 0.929 . S
C62 C61 1.381 . S
C62 C63 1.371 . S
C63 C62 1.371 . S
C63 C64 1.380 . S
C64 H20 0.931 . S
C64 C63 1.380 . S
C64 C65 1.387 . S
C65 H21 0.930 1_545 S
C65 C60 1.386 . S
C65 C64 1.387 . S
C66 C35 1.519 . S
C66 C67 1.377 . S
C66 C71 1.361 . S
C67 H22 0.929 . S
C67 C66 1.377 . S
C67 C68 1.386 . S
C68 H23 0.931 . S
C68 C67 1.386 . S
C68 C69 1.363 . S
C69 C68 1.363 . S
C69 C70 1.385 . S
C70 H24 0.930 1_545 S
C70 C69 1.385 . S
C70 C71 1.396 . S
C71 H25 0.929 1_545 S
C71 C66 1.361 . S
C71 C70 1.396 . S
C72 O26 1.300 . S
C72 O27 1.209 1_545 S
C72 C45 1.486 . S
C73 O28 1.199 . S
C73 O29 1.297 . S
C73 C57 1.476 . S
H74 O100 0.856 . S
H75 O103 0.854 . S
H76 C111 0.930 1_655 S
H77 C112 0.930 . S
H78 C114 0.930 . S
H79 C115 0.930 . S
H80 C117 0.931 1_655 S
H81 C118 0.930 1_655 S
H82 C120 0.930 . S
H83 C121 0.929 . S
H84 C123 0.930 1_655 S
H85 C124 0.931 . S
H86 C126 0.930 . S
H87 C127 0.929 . S
H88 C129 0.931 1_655 S
H89 C130 0.916 1_655 S
H90 C132 0.930 . S
H91 C133 0.932 . S
H92 C135 0.930 1_655 S
H93 C136 0.929 1_655 S
H94 C138 0.931 . S
H95 C139 0.930 . S
H96 C141 0.929 1_655 S
H97 C142 0.931 1_655 S
H98 C144 0.930 . S
H99 C145 0.929 . S
O100 H74 0.856 . S
O100 C146 1.300 . S
O101 C146 1.209 . S
O102 C147 1.199 . S
O103 H75 0.854 . S
O103 C147 1.297 . S
C104 C105 1.404 . S
C104 C109 1.397 . S
C104 C110 1.492 . S
C105 C104 1.404 . S
C105 C106 1.396 . S
C105 C116 1.492 . S
C106 C105 1.396 . S
C106 C107 1.397 . S
C106 C122 1.509 . S
C107 C106 1.397 . S
C107 C108 1.412 . S
C107 C128 1.485 . S
C108 C107 1.412 . S
C108 C109 1.388 . S
C108 C134 1.490 . S
C109 C104 1.397 . S
C109 C108 1.388 . S
C109 C140 1.519 . S
C110 C104 1.492 . S
C110 C111 1.363 . S
C110 C115 1.390 . S
C111 H76 0.930 1_455 S
C111 C110 1.363 . S
C111 C112 1.372 1_455 S
C112 H77 0.930 . S
C112 C111 1.372 1_655 S
C112 C113 1.383 1_655 S
C113 C112 1.383 1_455 S
C113 C114 1.395 . S
C114 H78 0.930 . S
C114 C113 1.395 . S
C114 C115 1.362 . S
C115 H79 0.930 . S
C115 C110 1.390 . S
C115 C114 1.362 . S
C116 C105 1.492 . S
C116 C117 1.377 . S
C116 C121 1.397 . S
C117 H80 0.931 1_455 S
C117 C116 1.377 . S
C117 C118 1.376 . S
C118 H81 0.930 1_455 S
C118 C117 1.376 . S
C118 C119 1.376 . S
C119 C118 1.376 . S
C119 C120 1.378 . S
C119 C146 1.486 . S
C120 H82 0.930 . S
C120 C119 1.378 . S
C120 C121 1.376 . S
C121 H83 0.929 . S
C121 C116 1.397 . S
C121 C120 1.376 . S
C122 C106 1.509 . S
C122 C123 1.391 . S
C122 C127 1.386 . S
C123 H84 0.930 1_455 S
C123 C122 1.391 . S
C123 C124 1.375 . S
C124 H85 0.931 . S
C124 C123 1.375 . S
C124 C125 1.375 . S
C125 C124 1.375 . S
C125 C126 1.361 . S
C126 H86 0.930 . S
C126 C125 1.361 . S
C126 C127 1.399 . S
C127 H87 0.929 . S
C127 C122 1.386 . S
C127 C126 1.399 . S
C128 C107 1.485 . S
C128 C129 1.394 . S
C128 C133 1.360 . S
C129 H88 0.931 1_455 S
C129 C128 1.394 . S
C129 C130 1.372 . S
C130 H89 0.916 1_455 S
C130 C129 1.372 . S
C130 C131 1.397 . S
C131 C130 1.397 . S
C131 C132 1.390 . S
C131 C147 1.476 . S
C132 H90 0.930 . S
C132 C131 1.390 . S
C132 C133 1.366 . S
C133 H91 0.932 . S
C133 C128 1.360 . S
C133 C132 1.366 . S
C134 C108 1.490 . S
C134 C135 1.380 . S
C134 C139 1.386 . S
C135 H92 0.930 1_455 S
C135 C134 1.380 . S
C135 C136 1.381 . S
C136 H93 0.929 1_455 S
C136 C135 1.381 . S
C136 C137 1.371 . S
C137 C136 1.371 . S
C137 C138 1.380 . S
C138 H94 0.931 . S
C138 C137 1.380 . S
C138 C139 1.387 . S
C139 H95 0.930 . S
C139 C134 1.386 . S
C139 C138 1.387 . S
C140 C109 1.519 . S
C140 C141 1.377 . S
C140 C145 1.361 . S
C141 H96 0.929 1_455 S
C141 C140 1.377 . S
C141 C142 1.386 . S
C142 H97 0.931 1_455 S
C142 C141 1.386 . S
C142 C143 1.363 . S
C143 C142 1.363 . S
C143 C144 1.385 . S
C144 H98 0.930 . S
C144 C143 1.385 . S
C144 C145 1.396 . S
C145 H99 0.929 . S
C145 C140 1.361 . S
C145 C144 1.396 . S
C146 O100 1.300 . S
C146 O101 1.209 . S
C146 C119 1.486 . S
C147 O102 1.199 . S
C147 O103 1.297 . S
C147 C131 1.476 . S
Li148 N165 1.990 . S
Li148 O208 1.956 . S
Li148 O209 1.970 1_455 S
Li148 O210 1.961 . S
Li149 N173 1.990 1_545 S
Li149 O208 1.970 . S
Li149 O209 1.956 1_455 S
Li149 O211 1.961 1_545 S
Li150 N195 1.990 . S
Li150 O208 1.961 . S
Li150 O210 1.956 . S
Li150 O211 1.970 1_545 S
Li151 N201 1.990 . S
Li151 O209 1.961 . S
Li151 O210 1.970 1_655 S
Li151 O211 1.956 1_645 S
C152 C154 1.348 . S
C152 C155 1.356 . S
C152 O208 1.325 . S
N153 C156 1.314 . S
N153 C157 1.279 . S
C154 C152 1.348 . S
C154 C156 1.353 . S
C154 H212 0.929 . S
C155 C152 1.356 . S
C155 C157 1.358 . S
C155 H213 0.930 . S
C156 N153 1.314 . S
C156 C154 1.353 . S
C156 H214 0.930 . S
C157 N153 1.279 . S
C157 C155 1.358 . S
C157 H215 0.930 . S
C158 C161 1.348 . S
C158 C162 1.356 . S
C158 O209 1.325 . S
C159 N160 1.279 . S
C159 C162 1.358 . S
C159 H216 0.930 1_545 S
N160 C159 1.279 . S
N160 C163 1.314 . S
C161 C158 1.348 . S
C161 C163 1.353 . S
C161 H217 0.929 . S
C162 C158 1.356 . S
C162 C159 1.358 . S
C162 H218 0.930 1_545 S
C163 N160 1.314 . S
C163 C161 1.353 . S
C163 H219 0.930 . S
C164 N165 1.314 . S
C164 C169 1.353 . S
C164 H170 0.930 1_455 S
N165 Li148 1.990 . S
N165 C164 1.314 . S
N165 C167 1.279 . S
C166 C167 1.358 . S
C166 C168 1.356 . S
C166 H220 0.930 . S
C167 N165 1.279 . S
C167 C166 1.358 . S
C167 H171 0.930 . S
C168 C166 1.356 . S
C168 C169 1.348 . S
C169 C164 1.353 . S
C169 C168 1.348 . S
C169 H221 0.929 1_455 S
H170 C164 0.930 1_655 S
H171 C167 0.930 . S
C172 N173 1.314 . S
C172 C174 1.353 . S
C172 H178 0.930 . S
N173 Li149 1.990 1_565 S
N173 C172 1.314 . S
N173 C176 1.282 . S
C174 C172 1.353 . S
C174 C177 1.348 . S
C174 H222 0.929 . S
C175 C176 1.359 . S
C175 C177 1.356 . S
C175 H223 0.930 1_455 S
C176 N173 1.282 . S
C176 C175 1.359 . S
C176 H179 0.928 1_455 S
C177 C174 1.348 . S
C177 C175 1.356 . S
H178 C172 0.930 . S
H179 C176 0.928 1_655 S
C180 C182 1.348 . S
C180 C183 1.356 . S
C180 O210 1.325 . S
N181 C184 1.314 . S
N181 C185 1.279 . S
C182 C180 1.348 . S
C182 C184 1.353 . S
C182 H224 0.929 1_455 S
C183 C180 1.356 . S
C183 C185 1.358 . S
C183 H225 0.930 . S
C184 N181 1.314 . S
C184 C182 1.353 . S
C184 H226 0.930 1_455 S
C185 N181 1.279 . S
C185 C183 1.358 . S
C185 H227 0.930 . S
C186 C187 1.348 . S
C186 C188 1.356 1_455 S
C186 O211 1.325 . S
C187 C186 1.348 . S
C187 C189 1.353 . S
C187 H228 0.929 . S
C188 C186 1.356 1_655 S
C188 C190 1.358 . S
C188 H229 0.930 . S
C189 C187 1.353 . S
C189 N191 1.314 . S
C189 H230 0.930 . S
C190 C188 1.358 . S
C190 N191 1.279 1_655 S
C190 H231 0.930 . S
N191 C189 1.314 . S
N191 C190 1.279 1_455 S
C192 C194 1.353 . S
C192 N195 1.314 . S
C192 H198 0.930 . S
C193 N195 1.279 . S
C193 C196 1.358 . S
C193 H199 0.930 . S
C194 C192 1.353 . S
C194 C197 1.348 . S
C194 H232 0.929 . S
N195 Li150 1.990 . S
N195 C192 1.314 . S
N195 C193 1.279 . S
C196 C193 1.358 . S
C196 C197 1.356 . S
C196 H233 0.930 . S
C197 C194 1.348 . S
C197 C196 1.356 . S
H198 C192 0.930 . S
H199 C193 0.930 . S
C200 N201 1.314 . S
C200 C202 1.353 . S
C200 H206 0.930 . S
N201 Li151 1.990 . S
N201 C200 1.314 . S
N201 C204 1.279 . S
C202 C200 1.353 . S
C202 C205 1.348 . S
C202 H234 0.929 . S
C203 C204 1.358 . S
C203 C205 1.356 . S
C203 H235 0.930 1_545 S
C204 N201 1.279 . S
C204 C203 1.358 . S
C204 H207 0.930 1_545 S
C205 C202 1.348 . S
C205 C203 1.356 . S
H206 C200 0.930 . S
H207 C204 0.930 1_565 S
O208 Li148 1.956 . S
O208 Li149 1.970 . S
O208 Li150 1.961 . S
O208 C152 1.325 . S
O209 Li148 1.970 1_655 S
O209 Li149 1.956 1_655 S
O209 Li151 1.961 . S
O209 C158 1.325 . S
O210 Li148 1.961 . S
O210 Li150 1.956 . S
O210 Li151 1.970 1_455 S
O210 C180 1.325 . S
O211 Li149 1.961 1_565 S
O211 Li150 1.970 1_565 S
O211 Li151 1.956 1_465 S
O211 C186 1.325 . S
H212 C154 0.929 . S
H213 C155 0.930 . S
H214 C156 0.930 . S
H215 C157 0.930 . S
H216 C159 0.930 1_565 S
H217 C161 0.929 . S
H218 C162 0.930 1_565 S
H219 C163 0.930 . S
H220 C166 0.930 . S
H221 C169 0.929 1_655 S
H222 C174 0.929 . S
H223 C175 0.930 1_655 S
H224 C182 0.929 1_655 S
H225 C183 0.930 . S
H226 C184 0.930 1_655 S
H227 C185 0.930 . S
H228 C187 0.929 . S
H229 C188 0.930 . S
H230 C189 0.930 . S
H231 C190 0.930 . S
H232 C194 0.929 . S
H233 C196 0.930 . S
H234 C202 0.929 . S
H235 C203 0.930 1_565 S
Li236 N253 1.990 1_455 S
Li236 O296 1.956 . S
Li236 O297 1.970 1_545 S
Li236 O298 1.960 1_455 S
Li237 N261 1.990 . S
Li237 O296 1.970 . S
Li237 O297 1.956 1_545 S
Li237 O299 1.961 . S
Li238 N283 1.990 . S
Li238 O296 1.961 . S
Li238 O298 1.940 1_455 S
Li238 O299 1.970 . S
Li239 N289 1.990 . S
Li239 O297 1.961 . S
Li239 O298 1.953 1_465 S
Li239 O299 1.956 1_565 S
C240 C242 1.348 . S
C240 C243 1.356 . S
C240 O296 1.325 . S
N241 C244 1.314 . S
N241 C245 1.279 . S
C242 C240 1.348 . S
C242 C244 1.353 . S
C242 H300 0.929 . S
C243 C240 1.356 . S
C243 C245 1.358 . S
C243 H301 0.930 1_455 S
C244 N241 1.314 . S
C244 C242 1.353 . S
C244 H302 0.930 . S
C245 N241 1.279 . S
C245 C243 1.358 . S
C245 H303 0.930 1_455 S
C246 C249 1.348 . S
C246 C250 1.356 . S
C246 O297 1.325 . S
C247 N248 1.279 . S
C247 C250 1.358 . S
C247 H304 0.930 . S
N248 C247 1.279 . S
N248 C251 1.314 . S
C249 C246 1.348 . S
C249 C251 1.353 . S
C249 H305 0.929 . S
C250 C246 1.356 . S
C250 C247 1.358 . S
C250 H306 0.930 . S
C251 N248 1.314 . S
C251 C249 1.353 . S
C251 H307 0.930 . S
C252 N253 1.314 . S
C252 C257 1.353 . S
C252 H258 0.930 1_545 S
N253 Li236 1.990 1_655 S
N253 C252 1.314 . S
N253 C255 1.279 . S
C254 C255 1.358 . S
C254 C256 1.356 . S
C254 H308 0.930 . S
C255 N253 1.279 . S
C255 C254 1.358 . S
C255 H259 0.930 . S
C256 C254 1.356 . S
C256 C257 1.348 . S
C257 C252 1.353 . S
C257 C256 1.348 . S
C257 H309 0.929 1_545 S
H258 C252 0.930 1_565 S
H259 C255 0.930 . S
C260 N261 1.314 . S
C260 C262 1.353 . S
C260 H266 0.930 . S
N261 Li237 1.990 . S
N261 C260 1.314 . S
N261 C264 1.281 . S
C262 C260 1.353 . S
C262 C265 1.348 . S
C262 H310 0.929 . S
C263 C264 1.359 . S
C263 C265 1.356 . S
C263 H311 0.930 1_545 S
C264 N261 1.281 . S
C264 C263 1.359 . S
C264 H267 0.929 1_545 S
C265 C262 1.348 . S
C265 C263 1.356 . S
H266 C260 0.930 . S
H267 C264 0.929 1_565 S
C268 C270 1.341 1_545 S
C268 C271 1.356 . S
C268 O298 1.343 . S
N269 C272 1.314 . S
N269 C273 1.279 . S
C270 C268 1.341 1_565 S
C270 C272 1.352 1_565 S
C270 H312 0.937 . S
C271 C268 1.356 . S
C271 C273 1.358 . S
C271 H313 0.930 . S
C272 N269 1.314 . S
C272 C270 1.352 1_545 S
C272 H314 0.930 1_545 S
C273 N269 1.279 . S
C273 C271 1.358 . S
C273 H315 0.930 . S
C274 C275 1.348 . S
C274 C276 1.356 1_545 S
C274 O299 1.325 . S
C275 C274 1.348 . S
C275 C277 1.353 . S
C275 H316 0.929 . S
C276 C274 1.356 1_565 S
C276 C278 1.358 . S
C276 H317 0.930 . S
C277 C275 1.353 . S
C277 N279 1.314 . S
C277 H318 0.930 . S
C278 C276 1.358 . S
C278 N279 1.279 1_565 S
C278 H319 0.930 . S
N279 C277 1.314 . S
N279 C278 1.279 1_545 S
C280 C282 1.353 . S
C280 N283 1.314 . S
C280 H286 0.930 . S
C281 N283 1.279 . S
C281 C284 1.358 . S
C281 H287 0.918 1_455 S
C282 C280 1.353 . S
C282 C285 1.348 . S
C282 H320 0.929 . S
N283 Li238 1.990 . S
N283 C280 1.314 . S
N283 C281 1.279 . S
C284 C281 1.358 . S
C284 C285 1.356 . S
C284 H321 0.917 1_455 S
C285 C282 1.348 . S
C285 C284 1.356 . S
H286 C280 0.930 . S
H287 C281 0.918 1_655 S
C288 N289 1.314 . S
C288 C290 1.353 . S
C288 H294 0.930 . S
N289 Li239 1.990 . S
N289 C288 1.314 . S
N289 C292 1.279 . S
C290 C288 1.353 . S
C290 C293 1.348 . S
C290 H322 0.929 . S
C291 C292 1.358 . S
C291 C293 1.356 . S
C291 H323 0.930 . S
C292 N289 1.279 . S
C292 C291 1.358 . S
C292 H295 0.930 . S
C293 C290 1.348 . S
C293 C291 1.356 . S
H294 C288 0.930 . S
H295 C292 0.930 . S
O296 Li236 1.956 . S
O296 Li237 1.970 . S
O296 Li238 1.961 . S
O296 C240 1.325 . S
O297 Li236 1.970 1_565 S
O297 Li237 1.956 1_565 S
O297 Li239 1.961 . S
O297 C246 1.325 . S
O298 Li236 1.960 1_655 S
O298 Li238 1.940 1_655 S
O298 Li239 1.953 1_645 S
O298 C268 1.343 . S
O299 Li237 1.961 . S
O299 Li238 1.970 . S
O299 Li239 1.956 1_545 S
O299 C274 1.325 . S
H300 C242 0.929 . S
H301 C243 0.930 1_655 S
H302 C244 0.930 . S
H303 C245 0.930 1_655 S
H304 C247 0.930 . S
H305 C249 0.929 . S
H306 C250 0.930 . S
H307 C251 0.930 . S
H308 C254 0.930 . S
H309 C257 0.929 1_565 S
H310 C262 0.929 . S
H311 C263 0.930 1_565 S
H312 C270 0.937 . S
H313 C271 0.930 . S
H314 C272 0.930 1_565 S
H315 C273 0.930 . S
H316 C275 0.929 . S
H317 C276 0.930 . S
H318 C277 0.930 . S
H319 C278 0.930 . S
H320 C282 0.929 . S
H321 C284 0.917 1_655 S
H322 C290 0.929 . S
H323 C291 0.930 . S
C324 C325 1.363 . S
C324 C330 1.379 . S
C324 N332 1.356 . S
C325 C324 1.363 . S
C325 C331 1.363 . S
C326 C327 1.363 . S
C326 C331 1.379 . S
C326 N333 1.356 1_545 S
C327 C326 1.363 . S
C327 C330 1.363 . S
N328 C330 1.356 . S
N328 H340 0.984 . S
N328 H341 0.985 . S
N329 C331 1.356 1_565 S
N329 H334 0.984 . S
N329 H335 0.985 . S
C330 C324 1.379 . S
C330 C327 1.363 . S
C330 N328 1.356 . S
C331 C325 1.363 . S
C331 C326 1.379 . S
C331 N329 1.356 1_545 S
N332 C324 1.356 . S
N332 H338 0.984 . S
N332 H339 0.984 . S
N333 C326 1.356 1_565 S
N333 H336 0.984 . S
N333 H337 0.985 . S
H334 N329 0.984 . S
H335 N329 0.985 . S
H336 N333 0.984 . S
H337 N333 0.985 . S
H338 N332 0.984 . S
H339 N332 0.984 . S
H340 N328 0.984 . S
H341 N328 0.985 . S
C342 C343 1.363 . S
C342 C348 1.379 . S
C342 N350 1.356 . S
C343 C342 1.363 . S
C343 C349 1.363 . S
C344 C345 1.363 . S
C344 C349 1.379 . S
C344 N351 1.356 . S
C345 C344 1.363 . S
C345 C348 1.363 . S
N346 C348 1.356 . S
N346 H358 0.984 1_455 S
N346 H359 0.985 . S
N347 C349 1.356 . S
N347 H352 0.984 . S
N347 H353 0.985 . S
C348 C342 1.379 . S
C348 C345 1.363 . S
C348 N346 1.356 . S
C349 C343 1.363 . S
C349 C344 1.379 . S
C349 N347 1.356 . S
N350 C342 1.356 . S
N350 H356 0.984 . S
N350 H357 0.984 . S
N351 C344 1.356 . S
N351 H354 0.984 . S
N351 H355 0.985 . S
H352 N347 0.984 . S
H353 N347 0.985 . S
H354 N351 0.984 . S
H355 N351 0.985 . S
H356 N350 0.984 . S
H357 N350 0.984 . S
H358 N346 0.984 1_655 S
H359 N346 0.985 . S
C360 C361 1.363 . S
C360 C366 1.379 . S
C360 N368 1.356 . S
C361 C360 1.363 . S
C361 C367 1.363 . S
C362 C363 1.363 . S
C362 C367 1.379 . S
C362 N369 1.356 . S
C363 C362 1.363 . S
C363 C366 1.363 . S
N364 C366 1.356 1_565 S
N364 H376 0.984 . S
N364 H377 0.985 . S
N365 C367 1.356 . S
N365 H370 0.984 . S
N365 H371 0.985 . S
C366 C360 1.379 . S
C366 C363 1.363 . S
C366 N364 1.356 1_545 S
C367 C361 1.363 . S
C367 C362 1.379 . S
C367 N365 1.356 . S
N368 C360 1.356 . S
N368 H374 0.984 1_545 S
N368 H375 0.984 . S
N369 C362 1.356 . S
N369 H372 0.984 . S
N369 H373 0.985 . S
H370 N365 0.984 . S
H371 N365 0.985 . S
H372 N369 0.984 . S
H373 N369 0.985 . S
H374 N368 0.984 1_565 S
H375 N368 0.984 . S
H376 N364 0.984 . S
H377 N364 0.985 . S
C378 C379 1.363 . S
C378 C384 1.379 . S
C378 N386 1.356 . S
C379 C378 1.363 . S
C379 C385 1.363 . S
C380 C381 1.363 . S
C380 C385 1.379 . S
C380 N387 1.356 . S
C381 C380 1.363 . S
C381 C384 1.363 . S
N382 C384 1.356 . S
N382 H394 0.984 . S
N382 H395 0.985 . S
N383 C385 1.356 . S
N383 H388 0.984 . S
N383 H389 0.985 . S
C384 C378 1.379 . S
C384 C381 1.363 . S
C384 N382 1.356 . S
C385 C379 1.363 . S
C385 C380 1.379 . S
C385 N383 1.356 . S
N386 C378 1.356 . S
N386 H392 0.984 . S
N386 H393 0.984 . S
N387 C380 1.356 . S
N387 H390 0.984 . S
N387 H391 0.985 . S
H388 N383 0.984 . S
H389 N383 0.985 . S
H390 N387 0.984 . S
H391 N387 0.985 . S
H392 N386 0.984 . S
H393 N386 0.984 . S
H394 N382 0.984 . S
H395 N382 0.985 . S
C396 C397 1.363 . S
C396 C402 1.379 . S
C396 N404 1.348 1_545 S
C397 C396 1.363 . S
C397 C403 1.363 . S
C398 C399 1.363 . S
C398 C403 1.379 . S
C398 N405 1.356 . S
C399 C398 1.363 . S
C399 C402 1.363 . S
N400 C402 1.356 1_565 S
N400 H412 0.984 . S
N400 H413 0.985 . S
N401 C403 1.356 . S
N401 H406 0.984 . S
N401 H407 0.985 . S
C402 C396 1.379 . S
C402 C399 1.363 . S
C402 N400 1.356 1_545 S
C403 C397 1.363 . S
C403 C398 1.379 . S
C403 N401 1.356 . S
N404 C396 1.348 1_565 S
N404 H410 1.001 . S
N404 H411 0.977 1_565 S
N405 C398 1.356 . S
N405 H408 0.984 . S
N405 H409 0.985 . S
H406 N401 0.984 . S
H407 N401 0.985 . S
H408 N405 0.984 . S
H409 N405 0.985 . S
H410 N404 1.001 . S
H411 N404 0.977 1_545 S
H412 N400 0.984 . S
H413 N400 0.985 . S
C414 C415 1.363 1_655 S
C414 C420 1.379 . S
C414 N422 1.356 . S
C415 C414 1.363 1_455 S
C415 C421 1.363 . S
C416 C417 1.363 . S
C416 C421 1.379 . S
C416 N423 1.356 . S
C417 C416 1.363 . S
C417 C420 1.363 1_455 S
N418 C420 1.356 . S
N418 H430 0.984 . S
N418 H431 0.985 . S
N419 C421 1.356 . S
N419 H424 0.984 . S
N419 H425 0.985 . S
C420 C414 1.379 . S
C420 C417 1.363 1_655 S
C420 N418 1.356 . S
C421 C415 1.363 . S
C421 C416 1.379 . S
C421 N419 1.356 . S
N422 C414 1.356 . S
N422 H428 0.984 . S
N422 H429 0.984 . S
N423 C416 1.356 . S
N423 H426 0.984 . S
N423 H427 0.985 . S
H424 N419 0.984 . S
H425 N419 0.985 . S
H426 N423 0.984 . S
H427 N423 0.985 . S
H428 N422 0.984 . S
H429 N422 0.984 . S
H430 N418 0.984 . S
H431 N418 0.985 . S
C432 C433 1.363 1_565 S
C432 C438 1.379 . S
C432 N440 1.356 . S
C433 C432 1.363 1_545 S
C433 C439 1.363 . S
C434 C435 1.363 . S
C434 C439 1.379 . S
C434 N441 1.356 . S
C435 C434 1.363 . S
C435 C438 1.363 1_545 S
N436 C438 1.356 . S
N436 H448 0.984 . S
N436 H449 0.985 . S
N437 C439 1.356 . S
N437 H442 0.984 . S
N437 H443 0.985 . S
C438 C432 1.379 . S
C438 C435 1.363 1_565 S
C438 N436 1.356 . S
C439 C433 1.363 . S
C439 C434 1.379 . S
C439 N437 1.356 . S
N440 C432 1.356 . S
N440 H446 0.984 . S
N440 H447 0.984 . S
N441 C434 1.356 . S
N441 H444 0.984 . S
N441 H445 0.985 . S
H442 N437 0.984 . S
H443 N437 0.985 . S
H444 N441 0.984 . S
H445 N441 0.985 . S
H446 N440 0.984 . S
H447 N440 0.984 . S
H448 N436 0.984 . S
H449 N436 0.985 . S
C450 C451 1.363 . S
C450 C456 1.379 . S
C450 N458 1.356 . S
C451 C450 1.363 . S
C451 C457 1.363 . S
C452 C453 1.363 . S
C452 C457 1.379 . S
C452 N459 1.356 1_455 S
C453 C452 1.363 . S
C453 C456 1.363 . S
N454 C456 1.356 . S
N454 H466 0.984 . S
N454 H467 0.985 . S
N455 C457 1.356 . S
N455 H460 0.984 . S
N455 H461 0.985 1_455 S
C456 C450 1.379 . S
C456 C453 1.363 . S
C456 N454 1.356 . S
C457 C451 1.363 . S
C457 C452 1.379 . S
C457 N455 1.356 . S
N458 C450 1.356 . S
N458 H464 0.984 . S
N458 H465 0.984 . S
N459 C452 1.356 1_655 S
N459 H462 0.984 . S
N459 H463 0.985 . S
H460 N455 0.984 . S
H461 N455 0.985 1_655 S
H462 N459 0.984 . S
H463 N459 0.985 . S
H464 N458 0.984 . S
H465 N458 0.984 . S
H466 N454 0.984 . S
H467 N454 0.985 . S
C327 C197 2.150 . S
C325 C69 2.148 . S
C345 C285 2.165 . S
C343 C143 2.156 . S
C363 C205 1.636 . S
C361 C63 1.473 . S
C381 C293 1.612 . S
C379 C137 1.459 . S
C399 C265 1.579 . S
C397 C39 1.453 . S
C417 C168 1.546 . S
C415 C113 1.433 . S
C435 C256 0.822 . S
C433 C51 0.821 . S
C451 C125 0.886 . S
C453 C177 0.892 . S
