# Generated by pormake.
# Topology hwx, (6,3)-cn, num edge types: 1
# Building blocks:
#     Node 0, Type 0, BuildingBlock: OJICUG_clean_sbu_0, # of connection points: 6
#     Node 1, Type 0, BuildingBlock: OJICUG_clean_sbu_0, # of connection points: 6
#     Node 2, Type 0, BuildingBlock: OJICUG_clean_sbu_0, # of connection points: 6
#     Node 3, Type 0, BuildingBlock: OJICUG_clean_sbu_0, # of connection points: 6
#     Node 4, Type 1, BuildingBlock: QEWDON_clean_linker_0, # of connection points: 3
#     Node 5, Type 1, BuildingBlock: QEWDON_clean_linker_0, # of connection points: 3
#     Node 6, Type 1, BuildingBlock: QEWDON_clean_linker_0, # of connection points: 3
#     Node 7, Type 1, BuildingBlock: QEWDON_clean_linker_0, # of connection points: 3
#     Node 8, Type 1, BuildingBlock: QEWDON_clean_linker_0, # of connection points: 3
#     Node 9, Type 1, BuildingBlock: QEWDON_clean_linker_0, # of connection points: 3
#     Node 10, Type 1, BuildingBlock: QEWDON_clean_linker_0, # of connection points: 3
#     Node 11, Type 1, BuildingBlock: QEWDON_clean_linker_0, # of connection points: 3
#     Edge 12, Type (0, 1), BuildingBlock: XIVTED_clean_linker_0, # of connection points: 2
#     Edge 13, Type (0, 1), BuildingBlock: XIVTED_clean_linker_0, # of connection points: 2
#     Edge 14, Type (0, 1), BuildingBlock: XIVTED_clean_linker_0, # of connection points: 2
#     Edge 15, Type (0, 1), BuildingBlock: XIVTED_clean_linker_0, # of connection points: 2
#     Edge 16, Type (0, 1), BuildingBlock: XIVTED_clean_linker_0, # of connection points: 2
#     Edge 17, Type (0, 1), BuildingBlock: XIVTED_clean_linker_0, # of connection points: 2
#     Edge 18, Type (0, 1), BuildingBlock: XIVTED_clean_linker_0, # of connection points: 2
#     Edge 19, Type (0, 1), BuildingBlock: XIVTED_clean_linker_0, # of connection points: 2
#     Edge 20, Type (0, 1), BuildingBlock: XIVTED_clean_linker_0, # of connection points: 2
#     Edge 21, Type (0, 1), BuildingBlock: XIVTED_clean_linker_0, # of connection points: 2
#     Edge 22, Type (0, 1), BuildingBlock: XIVTED_clean_linker_0, # of connection points: 2
#     Edge 23, Type (0, 1), BuildingBlock: XIVTED_clean_linker_0, # of connection points: 2
#     Edge 24, Type (0, 1), BuildingBlock: XIVTED_clean_linker_0, # of connection points: 2
#     Edge 25, Type (0, 1), BuildingBlock: XIVTED_clean_linker_0, # of connection points: 2
#     Edge 26, Type (0, 1), BuildingBlock: XIVTED_clean_linker_0, # of connection points: 2
#     Edge 27, Type (0, 1), BuildingBlock: XIVTED_clean_linker_0, # of connection points: 2
#     Edge 28, Type (0, 1), BuildingBlock: XIVTED_clean_linker_0, # of connection points: 2
#     Edge 29, Type (0, 1), BuildingBlock: XIVTED_clean_linker_0, # of connection points: 2
#     Edge 30, Type (0, 1), BuildingBlock: XIVTED_clean_linker_0, # of connection points: 2
#     Edge 31, Type (0, 1), BuildingBlock: XIVTED_clean_linker_0, # of connection points: 2
#     Edge 32, Type (0, 1), BuildingBlock: XIVTED_clean_linker_0, # of connection points: 2
#     Edge 33, Type (0, 1), BuildingBlock: XIVTED_clean_linker_0, # of connection points: 2
#     Edge 34, Type (0, 1), BuildingBlock: XIVTED_clean_linker_0, # of connection points: 2
#     Edge 35, Type (0, 1), BuildingBlock: XIVTED_clean_linker_0, # of connection points: 2
# Relax obj value: 0.002
# Max RMSD: 0.100
# Mean RMSD: 0.077
data_MOF--net-hwx--node1-OJICUG_clean_sbu_0--node2-QEWDON_clean_linker_0--edge1-XIVTED_clean_linker_0
_symmetry_space_group_name_H-M    P1
_symmetry_Int_Tables_number       1
_symmetry_cell_setting            triclinic
loop_
_symmetry_equiv_pos_as_xyz
'x, y, z'
_cell_length_a     56.091359
_cell_length_b     56.082434
_cell_length_c     19.982853
_cell_angle_alpha  92.587538
_cell_angle_beta   92.532021
_cell_angle_gamma 89.979701
loop_
_atom_site_label
_atom_site_type_symbol
_atom_site_fract_x
_atom_site_fract_y
_atom_site_fract_z
_atom_type_partial_charge
Sc0 Sc 0.22662 0.22691 0.08493 0.0
Sc1 Sc 0.18554 0.19021 0.98964 0.0
Sc2 Sc 0.22286 0.22931 0.90878 0.0
O3 O 0.2117 0.2155 -0.00555 0.0
C4 C 0.22335 0.27565 0.00693 0.0
C5 C 0.17141 0.22341 0.11585 0.0
C6 C 0.16633 0.22547 0.87915 0.0
C7 C 0.22058 0.17084 0.10411 0.0
C8 C 0.27205 0.22376 -0.00529 0.0
C9 C 0.21664 0.17397 0.86595 0.0
O10 O 0.22612 0.264 0.0599 0.0
O11 O 0.16696 0.2076 0.06948 0.0
O12 O 0.18682 0.23378 0.86794 0.0
O13 O 0.22958 0.19119 0.12055 0.0
O14 O 0.26013 0.22691 0.94013 0.0
O15 O 0.20121 0.17012 0.90885 0.0
O16 O 0.26241 0.22253 0.05091 0.0
O17 O 0.20467 0.16767 0.05742 0.0
O18 O 0.22629 0.19427 0.86031 0.0
O19 O 0.19207 0.23249 0.12755 0.0
O20 O 0.22101 0.26558 0.9487 0.0
O21 O 0.16323 0.20976 0.92168 0.0
Sc22 Sc 0.27001 0.73354 0.41644 0.0
Sc23 Sc 0.3094 0.69592 0.5042 0.0
Sc24 Sc 0.27219 0.73535 0.5936 0.0
O25 O 0.28384 0.72163 0.50475 0.0
C26 C 0.2748 0.78187 0.50776 0.0
C27 C 0.32534 0.72854 0.38723 0.0
C28 C 0.32845 0.73069 0.62513 0.0
C29 C 0.27438 0.67731 0.38346 0.0
C30 C 0.22368 0.73081 0.50308 0.0
C31 C 0.27707 0.67991 0.62176 0.0
O32 O 0.27233 0.77055 0.45124 0.0
O33 O 0.32919 0.71287 0.43029 0.0
O34 O 0.30804 0.73931 0.63761 0.0
O35 O 0.26588 0.69782 0.37163 0.0
O36 O 0.23509 0.73315 0.55948 0.0
O37 O 0.29254 0.67604 0.57809 0.0
O38 O 0.2339 0.73041 0.44747 0.0
O39 O 0.29011 0.674 0.4297 0.0
O40 O 0.26789 0.70038 0.63316 0.0
O41 O 0.30491 0.73788 0.37648 0.0
O42 O 0.27532 0.77156 0.5632 0.0
O43 O 0.33153 0.71498 0.57861 0.0
Sc44 Sc 0.77768 0.77814 0.92565 0.0
Sc45 Sc 0.81461 0.81894 0.02137 0.0
Sc46 Sc 0.77571 0.78131 0.10188 0.0
O47 O 0.78931 0.79278 0.01629 0.0
C48 C 0.72917 0.78128 0.00477 0.0
C49 C 0.78114 0.83349 0.89623 0.0
C50 C 0.77974 0.83774 0.13353 0.0
C51 C 0.83366 0.78424 0.90535 0.0
C52 C 0.78102 0.73237 0.01441 0.0
C53 C 0.83115 0.78728 0.14354 0.0
O54 O 0.74065 0.77865 0.95142 0.0
O55 O 0.79698 0.83787 0.94257 0.0
O56 O 0.77138 0.81721 0.144 0.0
O57 O 0.8133 0.77521 0.88925 0.0
O58 O 0.77803 0.7441 0.06942 0.0
O59 O 0.83495 0.80287 0.10105 0.0
O60 O 0.78207 0.74221 0.95849 0.0
O61 O 0.83692 0.80007 0.95228 0.0
O62 O 0.81083 0.7777 0.14937 0.0
O63 O 0.77212 0.81282 0.8841 0.0
O64 O 0.7394 0.78337 0.06281 0.0
O65 O 0.79535 0.84102 0.09078 0.0
Sc66 Sc 0.72283 0.28943 0.5968 0.0
Sc67 Sc 0.68178 0.32375 0.50357 0.0
Sc68 Sc 0.71759 0.28136 0.42086 0.0
O69 O 0.70744 0.29813 0.50713 0.0
C70 C 0.76758 0.28765 0.50233 0.0
C71 C 0.7181 0.34566 0.61822 0.0
C72 C 0.713 0.33619 0.38151 0.0
C73 C 0.66739 0.29501 0.62823 0.0
C74 C 0.71752 0.23825 0.52088 0.0
C75 C 0.66168 0.28567 0.39117 0.0
O76 O 0.75861 0.28871 0.55984 0.0
O77 O 0.69999 0.347 0.57812 0.0
O78 O 0.71959 0.31467 0.37038 0.0
O79 O 0.68871 0.28891 0.64427 0.0
O80 O 0.71728 0.24641 0.46242 0.0
O81 O 0.65972 0.3043 0.42902 0.0
O82 O 0.71872 0.25166 0.57405 0.0
O83 O 0.66186 0.30681 0.5771 0.0
O84 O 0.68134 0.27475 0.38467 0.0
O85 O 0.72906 0.32622 0.62815 0.0
O86 O 0.75488 0.28569 0.44806 0.0
O87 O 0.69976 0.34247 0.42919 0.0
H88 H 0.25022 0.51372 0.08605 0.0
C89 C 0.24706 0.52333 0.04064 0.0
C90 C 0.2396 0.54728 0.04474 0.0
C91 C 0.25247 0.5124 0.97855 0.0
H92 H 0.23253 0.57861 0.9889 0.0
C93 C 0.2367 0.55973 0.98554 0.0
C94 C 0.2421 0.54911 0.92313 0.0
C95 C 0.24983 0.52528 0.92003 0.0
C96 C 0.26514 0.48934 0.97645 0.0
H97 H 0.25485 0.51701 0.87263 0.0
C98 C 0.25368 0.46798 0.99079 0.0
C99 C 0.26659 0.44644 0.99104 0.0
C100 C 0.2894 0.48901 0.96187 0.0
H101 H 0.29849 0.50533 0.9509 0.0
C102 C 0.30222 0.46772 0.96256 0.0
H103 H 0.23493 0.46814 0.00186 0.0
C104 C 0.29095 0.44656 0.97731 0.0
H105 H 0.30117 0.43016 0.97686 0.0
H106 H 0.32095 0.46762 0.95162 0.0
H107 H 0.98414 0.71778 0.4215 0.0
C108 C 0.97761 0.72388 0.46959 0.0
C109 C 0.95845 0.73991 0.47216 0.0
C110 C 0.98795 0.71526 0.52909 0.0
H111 H 0.93457 0.75921 0.53625 0.0
C112 C 0.94991 0.74744 0.53437 0.0
C113 C 0.95946 0.73822 0.59371 0.0
C114 C 0.9785 0.72204 0.59107 0.0
C115 C 0.00771 0.69804 0.52585 0.0
H116 H 0.98573 0.71458 0.63677 0.0
C117 C 0.03134 0.70604 0.52263 0.0
C118 C 0.05011 0.68954 0.51669 0.0
C119 C 1.00286 0.6735 0.52399 0.0
H120 H 0.9847 0.66712 0.52638 0.0
C121 C 0.02142 0.65706 0.51825 0.0
H122 H 0.03501 0.72504 0.52362 0.0
C123 C 0.04491 0.66497 0.5143 0.0
H124 H 0.05905 0.6519 0.51018 0.0
H125 H 0.0176 0.63812 0.51666 0.0
H126 H 0.78514 0.50009 0.93173 0.0
C127 C 0.77972 0.48928 0.97207 0.0
C128 C 0.76578 0.46881 0.95733 0.0
C129 C 0.78761 0.4951 0.03869 0.0
H130 H 0.74937 0.43819 -0.00289 0.0
C131 C 0.75972 0.4543 0.00904 0.0
C132 C 0.7679 0.45948 0.07524 0.0
C133 C 0.78161 0.48012 0.09019 0.0
C134 C 0.8041 0.51541 0.05346 0.0
H135 H 0.7883 0.48407 0.14122 0.0
C136 C 0.79747 0.53878 0.03767 0.0
C137 C 0.81369 0.5578 0.05004 0.0
C138 C 0.82694 0.51126 0.08214 0.0
H139 H 0.83239 0.49338 0.09445 0.0
C140 C 0.84311 0.53003 0.0938 0.0
H141 H 0.77981 0.54213 0.01589 0.0
C142 C 0.83661 0.55316 0.07762 0.0
H143 H 0.84934 0.56753 0.08783 0.0
H144 H 0.86075 0.52666 0.1155 0.0
H145 H 0.00482 0.25566 0.58451 0.0
C146 C 0.01505 0.25926 0.54132 0.0
C147 C 0.03909 0.26637 0.55018 0.0
C148 C 0.00481 0.25496 0.47649 0.0
H149 H 0.0714 0.27331 0.50023 0.0
C150 C 0.05247 0.26957 0.49349 0.0
C151 C 0.04262 0.26497 0.42851 0.0
C152 C 0.01856 0.25809 0.42048 0.0
C153 C 0.98142 0.24297 0.46654 0.0
H154 H 0.01078 0.25393 0.37069 0.0
C155 C 0.95994 0.25501 0.47915 0.0
C156 C 0.93793 0.24356 0.46326 0.0
C157 C 0.98073 0.21928 0.44053 0.0
H158 H 0.99711 0.20975 0.43065 0.0
C159 C 0.95897 0.20775 0.42654 0.0
H160 H 0.96035 0.27341 0.49832 0.0
C161 C 0.93769 0.21984 0.43728 0.0
H162 H 0.92094 0.21068 0.4251 0.0
H163 H 0.9586 0.1895 0.40644 0.0
H164 H 0.75341 1.00089 0.42917 0.0
C165 C 0.74967 0.99082 0.47257 0.0
C166 C 0.74276 0.96671 0.46428 0.0
C167 C 0.75347 1.00144 0.53719 0.0
H168 H 0.73582 0.93461 0.51517 0.0
C169 C 0.73938 0.95359 0.52136 0.0
C170 C 0.74351 0.96381 0.58617 0.0
C171 C 0.75014 0.98796 0.59358 0.0
C172 C 0.76535 0.02488 0.54674 0.0
H173 H 0.75399 0.99602 0.64322 0.0
C174 C 0.75273 0.04635 0.53907 0.0
C175 C 0.76424 0.06837 0.55468 0.0
C176 C 0.78955 0.02556 0.56786 0.0
H177 H 0.79947 0.00916 0.57409 0.0
C178 C 0.80107 0.04733 0.58177 0.0
H179 H 0.73396 0.0459 0.52365 0.0
C180 C 0.7885 0.06861 0.57572 0.0
H181 H 0.79776 0.08534 0.58739 0.0
H182 H 0.81974 0.0477 0.59805 0.0
H183 H 0.50732 0.21974 0.07739 0.0
C184 C 0.51641 0.22793 0.0375 0.0
C185 C 0.53626 0.24263 0.05299 0.0
C186 C 0.50891 0.22307 0.97022 0.0
H187 H 0.56458 0.26263 0.01397 0.0
C188 C 0.54848 0.25242 0.00118 0.0
C189 C 0.54142 0.24769 0.93366 0.0
C190 C 0.52148 0.23287 0.91851 0.0
C191 C 0.48926 0.20602 0.95384 0.0
H192 H 0.51577 0.22876 0.86677 0.0
C193 C 0.46567 0.21171 0.96951 0.0
C194 C 0.44723 0.19495 0.95557 0.0
C195 C 0.49429 0.18362 0.92368 0.0
H196 H 0.51237 0.17897 0.91131 0.0
C197 C 0.47609 0.16689 0.91044 0.0
H198 H 0.4617 0.22906 0.99252 0.0
C199 C 0.4527 0.17243 0.92652 0.0
H200 H 0.43879 0.15929 0.91508 0.0
H201 H 0.48011 0.14958 0.88756 0.0
H202 H 0.28878 0.02213 0.5882 0.0
C203 C 0.2825 0.02836 0.53996 0.0
C204 C 0.26648 0.04753 0.53702 0.0
C205 C 0.29081 0.01758 0.4806 0.0
H206 H 0.24694 0.071 0.47234 0.0
C207 C 0.25869 0.05565 0.47458 0.0
C208 C 0.26761 0.04566 0.4153 0.0
C209 C 0.28375 0.02659 0.41831 0.0
C210 C 0.30798 0.99779 0.48424 0.0
H211 H 0.29099 0.01902 0.37265 0.0
C212 C 0.29992 0.97418 0.48742 0.0
C213 C 0.31637 0.95538 0.49395 0.0
C214 C 0.33253 1.0026 0.4867 0.0
H215 H 0.33896 0.02075 0.48438 0.0
C216 C 0.34892 0.98402 0.49292 0.0
H217 H 0.28092 0.97054 0.48604 0.0
C218 C 0.34094 0.96055 0.49684 0.0
H219 H 0.35398 0.94639 0.50136 0.0
H220 H 0.36786 0.98781 0.49492 0.0
H221 H 0.49083 0.75626 0.92236 0.0
C222 C 0.4814 0.75948 0.96808 0.0
C223 C 0.45755 0.76725 0.96472 0.0
C224 C 0.49241 0.75379 0.02978 0.0
H225 H 0.42646 0.77457 0.02136 0.0
C226 C 0.44528 0.77018 0.02425 0.0
C227 C 0.45597 0.76447 0.08628 0.0
C228 C 0.47971 0.75647 0.08866 0.0
C229 C 0.51523 0.74071 0.031 0.0
H230 H 0.48802 0.75122 0.13573 0.0
C231 C 0.53672 0.75179 0.01598 0.0
C232 C 0.558 0.73848 0.01478 0.0
C233 C 0.51519 0.71643 0.04529 0.0
H234 H 0.49876 0.70763 0.05675 0.0
C235 C 0.53622 0.70321 0.04364 0.0
H236 H 0.53687 0.77056 0.00515 0.0
C237 C 0.5575 0.7141 0.02822 0.0
H238 H 0.5737 0.70358 0.02794 0.0
H239 H 0.53602 0.68447 0.05437 0.0
H240 H 0.12573 0.20625 0.10983 0.0
H241 H 0.08014 0.29436 0.40255 0.0
H242 H 0.17087 0.25956 0.21421 0.0
H243 H 0.04238 0.23119 0.3251 0.0
H244 H 0.11086 0.28635 0.32116 0.0
H245 H 0.09269 0.21952 0.17662 0.0
C246 C 0.12877 0.22078 0.1468 0.0
C247 C 0.1513 0.23164 0.15672 0.0
C248 C 0.09567 0.27445 0.32156 0.0
C249 C 0.1132 0.24703 0.23349 0.0
C250 C 0.07811 0.27901 0.36787 0.0
C251 C 0.0587 0.26332 0.37123 0.0
C252 C 0.09374 0.25414 0.27803 0.0
C253 C 0.05682 0.24395 0.32424 0.0
C254 C 0.10979 0.22837 0.18492 0.0
C255 C 0.15392 0.2505 0.20521 0.0
N256 N 0.07421 0.23982 0.28009 0.0
N257 N 0.1351 0.25756 0.24199 0.0
H258 H 0.24027 0.67781 0.70807 0.0
H259 H 0.27655 0.54929 0.83 0.0
H260 H 0.29632 0.6351 0.6222 0.0
H261 H 0.21121 0.58446 0.88407 0.0
H262 H 0.28271 0.57952 0.74881 0.0
H263 H 0.22862 0.64357 0.77108 0.0
C264 C 0.25012 0.66128 0.7024 0.0
C265 C 0.26945 0.65945 0.66014 0.0
C266 C 0.26683 0.58047 0.77772 0.0
C267 C 0.25613 0.6202 0.73184 0.0
C268 C 0.26315 0.563 0.8237 0.0
C269 C 0.24342 0.56441 0.86453 0.0
C270 C 0.25085 0.59967 0.773 0.0
C271 C 0.22692 0.58293 0.8546 0.0
C272 C 0.24336 0.64169 0.73805 0.0
C273 C 0.28139 0.63747 0.65435 0.0
N274 N 0.23118 0.60004 0.81059 0.0
N275 N 0.27465 0.61881 0.69011 0.0
H276 H 0.83668 0.74509 0.20627 0.0
H277 H 0.95057 0.78468 0.42849 0.0
H278 H 0.87215 0.81203 0.17883 0.0
H279 H 0.93453 0.71059 0.38053 0.0
H280 H 0.92114 0.79596 0.34104 0.0
H281 H 0.87093 0.73278 0.27676 0.0
C282 C 0.85162 0.75722 0.21527 0.0
C283 C 0.85152 0.77967 0.18698 0.0
C284 C 0.92441 0.77722 0.34873 0.0
C285 C 0.89064 0.76571 0.2674 0.0
C286 C 0.94122 0.77083 0.39823 0.0
C287 C 0.945 0.74672 0.41091 0.0
C288 C 0.91086 0.75937 0.31322 0.0
C289 C 0.93225 0.72936 0.37142 0.0
C290 C 0.87123 0.75009 0.2549 0.0
C291 C 0.87149 0.79456 0.19966 0.0
N292 N 0.9154 0.73603 0.32498 0.0
N293 N 0.89015 0.78742 0.23956 0.0
H294 H 0.76224 0.35435 0.67831 0.0
H295 H 0.72198 0.46609 0.89348 0.0
H296 H 0.69349 0.38717 0.64257 0.0
H297 H 0.79606 0.44935 0.86835 0.0
H298 H 0.71117 0.43946 0.79629 0.0
H299 H 0.77525 0.38995 0.74493 0.0
C300 C 0.7499 0.36908 0.68426 0.0
C301 C 0.72664 0.36765 0.6555 0.0
C302 C 0.72985 0.44214 0.81065 0.0
C303 C 0.74142 0.40847 0.7318 0.0
C304 C 0.73599 0.45749 0.86562 0.0
C305 C 0.75991 0.45998 0.88807 0.0
C306 C 0.74775 0.42872 0.77949 0.0
C307 C 0.77745 0.44806 0.85173 0.0
C308 C 0.75741 0.3895 0.72181 0.0
C309 C 0.71154 0.38744 0.66413 0.0
N310 N 0.77099 0.4325 0.79998 0.0
N311 N 0.71907 0.40689 0.70238 0.0
H312 H 0.65565 0.24251 0.32215 0.0
H313 H 0.55413 0.20866 0.1345 0.0
H314 H 0.61843 0.30779 0.37328 0.0
H315 H 0.54336 0.28451 0.12486 0.0
H316 H 0.58211 0.21589 0.23114 0.0
H317 H 0.62063 0.22871 0.25482 0.0
C318 C 0.64003 0.25384 0.31984 0.0
C319 C 0.64011 0.27645 0.35301 0.0
C320 C 0.57346 0.23095 0.20835 0.0
C321 C 0.59961 0.26049 0.27714 0.0
C322 C 0.55714 0.22678 0.1542 0.0
C323 C 0.54665 0.24606 0.12185 0.0
C324 C 0.57929 0.25457 0.22958 0.0
C325 C 0.55123 0.26923 0.14858 0.0
C326 C 0.61984 0.24577 0.28212 0.0
C327 C 0.61925 0.29028 0.3484 0.0
N328 N 0.56744 0.27287 0.2005 0.0
N329 N 0.6 0.28223 0.31033 0.0
H330 H 0.19125 0.13352 0.82944 0.0
H331 H 0.29608 0.07096 0.62916 0.0
H332 H 0.25887 0.16787 0.8035 0.0
H333 H 0.22177 0.05641 0.58008 0.0
H334 H 0.28438 0.10063 0.71582 0.0
H335 H 0.20392 0.09965 0.75801 0.0
C336 C 0.20878 0.13391 0.80884 0.0
C337 C 0.22397 0.15363 0.82193 0.0
C338 C 0.27068 0.09064 0.68676 0.0
C339 C 0.23866 0.11479 0.74149 0.0
C340 C 0.27733 0.07357 0.63809 0.0
C341 C 0.2598 0.06128 0.59801 0.0
C342 C 0.24637 0.09512 0.69572 0.0
C343 C 0.23573 0.06555 0.61035 0.0
C344 C 0.21596 0.1146 0.76817 0.0
C345 C 0.2465 0.15317 0.794 0.0
N346 N 0.22969 0.08219 0.65813 0.0
N347 N 0.25322 0.13399 0.75526 0.0
H348 H 0.32751 0.76577 0.30242 0.0
H349 H 0.45576 0.72963 0.17819 0.0
H350 H 0.37005 0.70913 0.3856 0.0
H351 H 0.42084 0.79541 0.127 0.0
H352 H 0.4256 0.72323 0.25941 0.0
H353 H 0.36175 0.77765 0.23975 0.0
C354 C 0.344 0.75583 0.30755 0.0
C355 C 0.34578 0.73628 0.34896 0.0
C356 C 0.4247 0.73926 0.23114 0.0
C357 C 0.38505 0.74986 0.27767 0.0
C358 C 0.44213 0.74308 0.18514 0.0
C359 C 0.44077 0.763 0.14508 0.0
C360 C 0.40557 0.75529 0.23664 0.0
C361 C 0.42233 0.77955 0.15584 0.0
C362 C 0.36359 0.76273 0.27212 0.0
C363 C 0.36772 0.72424 0.35411 0.0
N364 N 0.40525 0.77515 0.19983 0.0
N365 N 0.38639 0.73112 0.31856 0.0
H366 H 0.74482 0.83404 0.79872 0.0
H367 H 0.77648 0.96486 0.69165 0.0
H368 H 0.7985 0.87912 0.90157 0.0
H369 H 0.71423 0.92617 0.6117 0.0
H370 H 0.78303 0.93457 0.77371 0.0
H371 H 0.73229 0.86779 0.73201 0.0
C372 C 0.75396 0.85098 0.80738 0.0
C373 C 0.7729 0.85362 0.85553 0.0
C374 C 0.76774 0.93282 0.73884 0.0
C375 C 0.75857 0.89231 0.77961 0.0
C376 C 0.7638 0.95033 0.69227 0.0
C377 C 0.74485 0.94804 0.64413 0.0
C378 C 0.75282 0.91267 0.73692 0.0
C379 C 0.72934 0.92844 0.64701 0.0
C380 C 0.7467 0.87028 0.76954 0.0
C381 C 0.78392 0.87611 0.86486 0.0
N382 N 0.73386 0.91134 0.69193 0.0
N383 N 0.77669 0.89447 0.82703 0.0
H384 H 0.83863 0.74239 0.83118 0.0
H385 H 0.95507 0.78144 0.65946 0.0
H386 H 0.87634 0.80717 0.89501 0.0
H387 H 0.93449 0.7076 0.66544 0.0
H388 H 0.9266 0.79168 0.74585 0.0
H389 H 0.87307 0.72961 0.76769 0.0
C390 C 0.85415 0.75392 0.83187 0.0
C391 C 0.85453 0.77598 0.86799 0.0
C392 C 0.92869 0.77316 0.72945 0.0
C393 C 0.89392 0.76146 0.79548 0.0
C394 C 0.94499 0.76734 0.68058 0.0
C395 C 0.94715 0.74367 0.65619 0.0
C396 C 0.91402 0.75524 0.75243 0.0
C397 C 0.93346 0.72602 0.68385 0.0
C398 C 0.87386 0.74651 0.79613 0.0
C399 C 0.87524 0.79005 0.86774 0.0
N400 N 0.91711 0.73221 0.72975 0.0
N401 N 0.894 0.78269 0.83134 0.0
H402 H 0.70574 0.38461 0.39383 0.0
H403 H 0.77723 0.41201 0.06882 0.0
H404 H 0.74082 0.33071 0.27225 0.0
H405 H 0.7478 0.46732 0.19723 0.0
H406 H 0.76518 0.38223 0.14593 0.0
H407 H 0.72141 0.41525 0.32457 0.0
C408 C 0.71667 0.37916 0.35249 0.0
C409 C 0.72184 0.35494 0.33874 0.0
C410 C 0.76146 0.40086 0.15775 0.0
C411 C 0.73996 0.39007 0.2595 0.0
C412 C 0.76835 0.41785 0.11375 0.0
C413 C 0.76327 0.44207 0.12657 0.0
C414 C 0.74921 0.40807 0.21494 0.0
C415 C 0.75201 0.44878 0.18574 0.0
C416 C 0.7257 0.39672 0.31317 0.0
C417 C 0.73624 0.34908 0.28473 0.0
N418 N 0.7451 0.43181 0.22754 0.0
N419 N 0.74472 0.3665 0.24709 0.0
H420 H 0.12069 0.20788 0.87551 0.0
H421 H 0.0719 0.29864 0.60497 0.0
H422 H 0.16322 0.26356 0.79729 0.0
H423 H 0.03662 0.23275 0.64477 0.0
H424 H 0.10108 0.29155 0.69649 0.0
H425 H 0.08611 0.22186 0.8101 0.0
C426 C 0.12278 0.22312 0.84487 0.0
C427 C 0.14506 0.23436 0.84129 0.0
C428 C 0.08669 0.27888 0.686 0.0
C429 C 0.10534 0.25057 0.76674 0.0
C430 C 0.06995 0.28298 0.63412 0.0
C431 C 0.05202 0.26608 0.61657 0.0
C432 C 0.08544 0.25775 0.72072 0.0
C433 C 0.05012 0.24627 0.6565 0.0
C434 C 0.10297 0.2311 0.80764 0.0
C435 C 0.14653 0.25413 0.80099 0.0
N436 N 0.06688 0.24245 0.70607 0.0
N437 N 0.12697 0.26153 0.76506 0.0
H438 H 0.23697 0.67466 0.28962 0.0
H439 H 0.27138 0.54503 0.15233 0.0
H440 H 0.29184 0.6317 0.38313 0.0
H441 H 0.20763 0.58161 0.08486 0.0
H442 H 0.27657 0.5746 0.24491 0.0
H443 H 0.22416 0.6398 0.21933 0.0
C444 C 0.2463 0.65793 0.29554 0.0
C445 C 0.26573 0.65625 0.34185 0.0
C446 C 0.26119 0.57594 0.21062 0.0
C447 C 0.25107 0.61622 0.2617 0.0
C448 C 0.25804 0.55885 0.15805 0.0
C449 C 0.23922 0.56101 0.11006 0.0
C450 C 0.24558 0.5955 0.21479 0.0
C451 C 0.22269 0.57956 0.1199 0.0
C452 C 0.23886 0.63797 0.2557 0.0
C453 C 0.27691 0.63397 0.34781 0.0
N454 N 0.22651 0.59635 0.17036 0.0
N455 N 0.26958 0.61493 0.30777 0.0
H456 H 0.37413 0.71354 0.62179 0.0
H457 H 0.42366 0.79976 0.92545 0.0
H458 H 0.33152 0.76744 0.72123 0.0
H459 H 0.45897 0.73531 0.85724 0.0
H460 H 0.39376 0.7939 0.83326 0.0
H461 H 0.40871 0.72671 0.6918 0.0
C462 C 0.372 0.72822 0.65815 0.0
C463 C 0.3497 0.73917 0.66616 0.0
C464 C 0.4083 0.7813 0.83784 0.0
C465 C 0.38947 0.75445 0.74627 0.0
C466 C 0.42543 0.78467 0.89021 0.0
C467 C 0.44365 0.7678 0.89977 0.0
C468 C 0.40948 0.76097 0.79453 0.0
C469 C 0.44531 0.74882 0.85194 0.0
C470 C 0.39183 0.73575 0.69803 0.0
C471 C 0.34824 0.75825 0.71383 0.0
N472 N 0.42823 0.74573 0.80198 0.0
N473 N 0.36783 0.76519 0.75234 0.0
H474 H 0.74156 0.84062 0.21503 0.0
H475 H 0.77624 0.96924 0.36908 0.0
H476 H 0.798 0.88316 0.14078 0.0
H477 H 0.7109 0.93328 0.41062 0.0
H478 H 0.7824 0.93997 0.27731 0.0
H479 H 0.72862 0.87541 0.28189 0.0
C480 C 0.75121 0.85726 0.21263 0.0
C481 C 0.77108 0.85883 0.17274 0.0
C482 C 0.76646 0.93873 0.30561 0.0
C483 C 0.7563 0.89881 0.24912 0.0
C484 C 0.76279 0.95564 0.3576 0.0
C485 C 0.74318 0.95352 0.39819 0.0
C486 C 0.75055 0.91944 0.29469 0.0
C487 C 0.7265 0.9353 0.38133 0.0
C488 C 0.7437 0.87719 0.25049 0.0
C489 C 0.78269 0.88101 0.17109 0.0
N490 N 0.73079 0.91871 0.33173 0.0
N491 N 0.77528 0.90002 0.20925 0.0
H492 H 0.62413 0.27689 0.58552 0.0
H493 H 0.56489 0.29067 0.93325 0.0
H494 H 0.66632 0.29698 0.76485 0.0
H495 H 0.55252 0.22557 0.81259 0.0
H496 H 0.59543 0.30193 0.85721 0.0
H497 H 0.59118 0.26582 0.6554 0.0
C498 C 0.62638 0.27899 0.6396 0.0
C499 C 0.64788 0.28777 0.66983 0.0
C500 C 0.58581 0.28529 0.84739 0.0
C501 C 0.61033 0.27591 0.74891 0.0
C502 C 0.56843 0.27876 0.89069 0.0
C503 C 0.55645 0.25676 0.88055 0.0
C504 C 0.59076 0.27018 0.79221 0.0
C505 C 0.56121 0.24265 0.82269 0.0
C506 C 0.60769 0.27264 0.6791 0.0
C507 C 0.65005 0.29012 0.7399 0.0
N508 N 0.57809 0.24958 0.78062 0.0
N509 N 0.63133 0.28452 0.77724 0.0
H510 H 0.26277 0.16567 0.17627 0.0
H511 H 0.22414 0.04994 0.35105 0.0
H512 H 0.19762 0.12821 0.11501 0.0
H513 H 0.298 0.0699 0.34102 0.0
H514 H 0.21361 0.07811 0.26419 0.0
H515 H 0.27576 0.13117 0.23908 0.0
C516 C 0.25121 0.15019 0.176 0.0
C517 C 0.22898 0.1499 0.14084 0.0
C518 C 0.23219 0.07593 0.27978 0.0
C519 C 0.24373 0.11044 0.21259 0.0
C520 C 0.23817 0.05979 0.32891 0.0
C521 C 0.26194 0.05758 0.35236 0.0
C522 C 0.25006 0.09037 0.25559 0.0
C523 C 0.27951 0.07098 0.32338 0.0
C524 C 0.25873 0.13044 0.21133 0.0
C525 C 0.21487 0.12923 0.14155 0.0
N526 N 0.27317 0.08719 0.27727 0.0
N527 N 0.22234 0.11044 0.17761 0.0
H528 H 0.23993 0.30387 0.11454 0.0
H529 H 0.22756 0.42616 0.92437 0.0
H530 H 0.20981 0.30776 0.91267 0.0
H531 H 0.27968 0.41451 0.0845 0.0
H532 H 0.21256 0.38534 0.93458 0.0
H533 H 0.24615 0.34705 0.11861 0.0
C534 C 0.23431 0.3138 0.07138 0.0
C535 C 0.22459 0.30208 0.01283 0.0
C536 C 0.22705 0.39188 0.96805 0.0
C537 C 0.23162 0.35155 0.01745 0.0
C538 C 0.23547 0.41514 0.96257 0.0
C539 C 0.25492 0.42352 0.00346 0.0
C540 C 0.23799 0.37713 0.01538 0.0
C541 C 0.26475 0.40856 0.05179 0.0
C542 C 0.23796 0.33845 0.07372 0.0
C543 C 0.21764 0.31598 0.95854 0.0
N544 N 0.25623 0.38605 0.05629 0.0
N545 N 0.22139 0.33998 0.96204 0.0
H546 H 0.19452 0.7132 0.39893 0.0
H547 H 0.07407 0.72311 0.59769 0.0
H548 H 0.19307 0.7398 0.60492 0.0
H549 H 0.08292 0.67465 0.42684 0.0
H550 H 0.11602 0.73517 0.59273 0.0
H551 H 0.15181 0.70485 0.4001 0.0
C552 C 0.18521 0.71751 0.44426 0.0
C553 C 0.19748 0.72716 0.50204 0.0
C554 C 0.10872 0.72194 0.55629 0.0
C555 C 0.1485 0.71763 0.50349 0.0
C556 C 0.08481 0.71517 0.55886 0.0
C557 C 0.07511 0.69778 0.51279 0.0
C558 C 0.12288 0.71152 0.50664 0.0
C559 C 0.08981 0.68792 0.46373 0.0
C560 C 0.16084 0.7126 0.44493 0.0
C561 C 0.1844 0.73223 0.55936 0.0
N562 N 0.11293 0.69497 0.46182 0.0
N563 N 0.16061 0.72743 0.55863 0.0
H564 H 0.76559 0.70249 0.10833 0.0
H565 H 0.83682 0.58935 0.97545 0.0
H566 H 0.8029 0.70244 0.92396 0.0
H567 H 0.77525 0.58273 0.09496 0.0
H568 H 0.8272 0.63159 0.96204 0.0
H569 H 0.77153 0.65928 0.11146 0.0
C570 C 0.775 0.6934 0.06847 0.0
C571 C 0.7838 0.70611 0.01584 0.0
C572 C 0.81567 0.62083 0.99061 0.0
C573 C 0.79082 0.65675 0.01957 0.0
C574 C 0.82117 0.59681 -0.00163 0.0
C575 C 0.80677 0.58264 0.03628 0.0
C576 C 0.79594 0.63087 0.0223 0.0
C577 C 0.78668 0.59308 0.06498 0.0
C578 C 0.77825 0.66873 0.07013 0.0
C579 C 0.79574 0.69335 0.96534 0.0
N580 N 0.78201 0.61667 0.05815 0.0
N581 N 0.79914 0.66941 0.96884 0.0
H582 H 0.79327 0.28815 0.38915 0.0
H583 H 0.91972 0.26467 0.57667 0.0
H584 H 0.80219 0.28583 0.6046 0.0
H585 H 0.90392 0.25051 0.36563 0.0
H586 H 0.87897 0.28036 0.58806 0.0
H587 H 0.83603 0.28256 0.38044 0.0
C588 C 0.80421 0.28665 0.43482 0.0
C589 C 0.79394 0.2871 0.49771 0.0
C590 C 0.88457 0.27409 0.53918 0.0
C591 C 0.84321 0.28059 0.48783 0.0
C592 C 0.90779 0.2653 0.53267 0.0
C593 C 0.91497 0.2562 0.47024 0.0
C594 C 0.86871 0.27395 0.48263 0.0
C595 C 0.89892 0.25721 0.41471 0.0
C596 C 0.82869 0.28343 0.42972 0.0
C597 C 0.80923 0.28538 0.555 0.0
N598 N 0.87655 0.26581 0.42226 0.0
N599 N 0.83309 0.28196 0.54866 0.0
H600 H 0.72153 0.21363 0.63636 0.0
H601 H 0.7382 0.08588 0.44822 0.0
H602 H 0.71549 0.20274 0.42087 0.0
H603 H 0.76129 0.10306 0.65331 0.0
H604 H 0.72172 0.12642 0.44053 0.0
H605 H 0.7278 0.17091 0.64612 0.0
C606 C 0.72125 0.20228 0.59102 0.0
C607 C 0.71831 0.21197 0.52758 0.0
C608 C 0.73015 0.12117 0.4874 0.0
C609 C 0.72559 0.16283 0.53864 0.0
C610 C 0.7394 0.09807 0.49186 0.0
C611 C 0.75127 0.09131 0.55127 0.0
C612 C 0.7326 0.1374 0.54304 0.0
C613 C 0.75249 0.10772 0.60638 0.0
C614 C 0.72491 0.17784 0.5967 0.0
C615 C 0.71795 0.19617 0.47081 0.0
N616 N 0.7434 0.13001 0.60085 0.0
N617 N 0.72176 0.17241 0.47765 0.0
H618 H 0.30145 0.2403 0.90127 0.0
H619 H 0.4161 0.16991 0.02693 0.0
H620 H 0.30242 0.2013 0.08272 0.0
H621 H 0.42134 0.23321 0.91385 0.0
H622 H 0.37362 0.1783 0.04091 0.0
H623 H 0.3447 0.23502 0.89692 0.0
C624 C 0.31075 0.23063 0.9402 0.0
C625 C 0.29829 0.2212 0.99241 0.0
C626 C 0.38413 0.19047 0.01359 0.0
C627 C 0.3477 0.21492 0.98727 0.0
C628 C 0.40828 0.18566 0.00548 0.0
C629 C 0.42214 0.20093 0.96927 0.0
C630 C 0.37366 0.21038 0.98393 0.0
C631 C 0.41124 0.22112 0.94249 0.0
C632 C 0.33544 0.22776 0.93787 0.0
C633 C 0.31132 0.20895 0.04172 0.0
N634 N 0.38755 0.22512 0.94962 0.0
N635 N 0.33528 0.20594 0.03756 0.0
H636 H 0.29262 0.81097 0.61191 0.0
H637 H 0.28279 0.9314 0.41303 0.0
H638 H 0.26559 0.81256 0.40641 0.0
H639 H 0.33109 0.92264 0.5841 0.0
H640 H 0.27061 0.88951 0.41829 0.0
H641 H 0.30101 0.8537 0.61084 0.0
C642 C 0.28823 0.82032 0.56672 0.0
C643 C 0.27845 0.80808 0.50903 0.0
C644 C 0.28383 0.89681 0.45472 0.0
C645 C 0.28803 0.85706 0.50769 0.0
C646 C 0.29067 0.92069 0.45198 0.0
C647 C 0.30805 0.93041 0.49801 0.0
C648 C 0.29418 0.88268 0.50448 0.0
C649 C 0.31783 0.91574 0.54722 0.0
C650 C 0.29315 0.84469 0.5661 0.0
C651 C 0.27327 0.8212 0.45189 0.0
N652 N 0.31072 0.89264 0.54927 0.0
N653 N 0.2781 0.84498 0.45267 0.0
H654 H 0.69754 0.79544 0.09967 0.0
H655 H 0.58918 0.72507 0.91956 0.0
H656 H 0.70048 0.76454 0.89834 0.0
H657 H 0.57942 0.77677 0.08216 0.0
H658 H 0.62991 0.73978 0.90982 0.0
H659 H 0.6543 0.7894 0.09432 0.0
C660 C 0.68909 0.78759 0.05411 0.0
C661 C 0.70274 0.78027 -0.00039 0.0
C662 C 0.61877 0.7482 0.94694 0.0
C663 C 0.65327 0.77312 -0.00651 0.0
C664 C 0.59558 0.73979 0.95249 0.0
C665 C 0.58107 0.74973 0.00178 0.0
C666 C 0.62769 0.76631 0.99205 0.0
C667 C 0.59009 0.76875 0.04333 0.0
C668 C 0.66438 0.78424 0.05102 0.0
C669 C 0.69074 0.77039 0.94167 0.0
N670 N 0.61301 0.77619 0.03829 0.0
N671 N 0.66676 0.76679 0.94052 0.0
loop_
_geom_bond_atom_site_label_1
_geom_bond_atom_site_label_2
_geom_bond_distance
_geom_bond_site_symmetry_2
_ccdc_geom_bond_type
Sc0 O3 2.025 . S
Sc0 O10 2.105 . S
Sc0 O13 2.105 . S
Sc0 O16 2.105 . S
Sc0 O19 2.105 . S
Sc1 O3 2.025 . S
Sc1 O11 2.112 . S
Sc1 O15 2.097 1_554 S
Sc1 O17 2.112 . S
Sc1 O21 2.097 1_554 S
Sc2 O3 2.025 1_556 S
Sc2 O12 2.105 . S
Sc2 O14 2.105 . S
Sc2 O18 2.105 . S
Sc2 O20 2.105 . S
O3 Sc0 2.025 . S
O3 Sc1 2.025 . S
O3 Sc2 2.025 1_554 S
C4 O10 1.268 . S
C4 O20 1.268 1_554 S
C5 O11 1.268 . S
C5 O19 1.268 . S
C6 O12 1.268 . S
C6 O21 1.268 . S
C7 O13 1.268 . S
C7 O17 1.268 . S
C8 O14 1.268 1_554 S
C8 O16 1.268 . S
C9 O15 1.268 . S
C9 O18 1.268 . S
O10 Sc0 2.105 . S
O10 C4 1.268 . S
O11 Sc1 2.112 . S
O11 C5 1.268 . S
O12 Sc2 2.105 . S
O12 C6 1.268 . S
O13 Sc0 2.105 . S
O13 C7 1.268 . S
O14 Sc2 2.105 . S
O14 C8 1.268 1_556 S
O15 Sc1 2.097 1_556 S
O15 C9 1.268 . S
O16 Sc0 2.105 . S
O16 C8 1.268 . S
O17 Sc1 2.112 . S
O17 C7 1.268 . S
O18 Sc2 2.105 . S
O18 C9 1.268 . S
O19 Sc0 2.105 . S
O19 C5 1.268 . S
O20 Sc2 2.105 . S
O20 C4 1.268 1_556 S
O21 Sc1 2.097 1_556 S
O21 C6 1.268 . S
Sc22 O25 2.025 . S
Sc22 O32 2.105 . S
Sc22 O35 2.105 . S
Sc22 O38 2.105 . S
Sc22 O41 2.105 . S
Sc23 O25 2.025 . S
Sc23 O33 2.105 . S
Sc23 O37 2.105 . S
Sc23 O39 2.105 . S
Sc23 O43 2.105 . S
Sc24 O25 2.025 . S
Sc24 O34 2.105 . S
Sc24 O36 2.105 . S
Sc24 O40 2.105 . S
Sc24 O42 2.105 . S
O25 Sc22 2.025 . S
O25 Sc23 2.025 . S
O25 Sc24 2.025 . S
C26 O32 1.268 . S
C26 O42 1.268 . S
C27 O33 1.268 . S
C27 O41 1.268 . S
C28 O34 1.268 . S
C28 O43 1.268 . S
C29 O35 1.268 . S
C29 O39 1.268 . S
C30 O36 1.268 . S
C30 O38 1.268 . S
C31 O37 1.268 . S
C31 O40 1.268 . S
O32 Sc22 2.105 . S
O32 C26 1.268 . S
O33 Sc23 2.105 . S
O33 C27 1.268 . S
O34 Sc24 2.105 . S
O34 C28 1.268 . S
O35 Sc22 2.105 . S
O35 C29 1.268 . S
O36 Sc24 2.105 . S
O36 C30 1.268 . S
O37 Sc23 2.105 . S
O37 C31 1.268 . S
O38 Sc22 2.105 . S
O38 C30 1.268 . S
O39 Sc23 2.105 . S
O39 C29 1.268 . S
O40 Sc24 2.105 . S
O40 C31 1.268 . S
O41 Sc22 2.105 . S
O41 C27 1.268 . S
O42 Sc24 2.105 . S
O42 C26 1.268 . S
O43 Sc23 2.105 . S
O43 C28 1.268 . S
Sc44 O47 2.025 1_556 S
Sc44 O54 2.105 . S
Sc44 O57 2.105 . S
Sc44 O60 2.105 . S
Sc44 O63 2.105 . S
Sc45 O47 2.025 . S
Sc45 O55 2.105 1_554 S
Sc45 O59 2.105 . S
Sc45 O61 2.105 1_554 S
Sc45 O65 2.105 . S
Sc46 O47 2.025 . S
Sc46 O56 2.105 . S
Sc46 O58 2.105 . S
Sc46 O62 2.105 . S
Sc46 O64 2.105 . S
O47 Sc44 2.025 1_554 S
O47 Sc45 2.025 . S
O47 Sc46 2.025 . S
C48 O54 1.268 1_554 S
C48 O64 1.268 . S
C49 O55 1.268 . S
C49 O63 1.268 . S
C50 O56 1.268 . S
C50 O65 1.268 . S
C51 O57 1.268 . S
C51 O61 1.268 . S
C52 O58 1.268 . S
C52 O60 1.268 1_554 S
C53 O59 1.268 . S
C53 O62 1.268 . S
O54 Sc44 2.105 . S
O54 C48 1.268 1_556 S
O55 Sc45 2.105 1_556 S
O55 C49 1.268 . S
O56 Sc46 2.105 . S
O56 C50 1.268 . S
O57 Sc44 2.105 . S
O57 C51 1.268 . S
O58 Sc46 2.105 . S
O58 C52 1.268 . S
O59 Sc45 2.105 . S
O59 C53 1.268 . S
O60 Sc44 2.105 . S
O60 C52 1.268 1_556 S
O61 Sc45 2.105 1_556 S
O61 C51 1.268 . S
O62 Sc46 2.105 . S
O62 C53 1.268 . S
O63 Sc44 2.105 . S
O63 C49 1.268 . S
O64 Sc46 2.105 . S
O64 C48 1.268 . S
O65 Sc45 2.105 . S
O65 C50 1.268 . S
Sc66 O69 2.025 . S
Sc66 O76 2.105 . S
Sc66 O79 2.105 . S
Sc66 O82 2.105 . S
Sc66 O85 2.105 . S
Sc67 O69 2.025 . S
Sc67 O77 2.105 . S
Sc67 O81 2.105 . S
Sc67 O83 2.105 . S
Sc67 O87 2.105 . S
Sc68 O69 2.025 . S
Sc68 O78 2.105 . S
Sc68 O80 2.105 . S
Sc68 O84 2.105 . S
Sc68 O86 2.105 . S
O69 Sc66 2.025 . S
O69 Sc67 2.025 . S
O69 Sc68 2.025 . S
C70 O76 1.268 . S
C70 O86 1.268 . S
C71 O77 1.268 . S
C71 O85 1.268 . S
C72 O78 1.268 . S
C72 O87 1.268 . S
C73 O79 1.268 . S
C73 O83 1.268 . S
C74 O80 1.268 . S
C74 O82 1.268 . S
C75 O81 1.268 . S
C75 O84 1.268 . S
O76 Sc66 2.105 . S
O76 C70 1.268 . S
O77 Sc67 2.105 . S
O77 C71 1.268 . S
O78 Sc68 2.105 . S
O78 C72 1.268 . S
O79 Sc66 2.105 . S
O79 C73 1.268 . S
O80 Sc68 2.105 . S
O80 C74 1.268 . S
O81 Sc67 2.105 . S
O81 C75 1.268 . S
O82 Sc66 2.105 . S
O82 C74 1.268 . S
O83 Sc67 2.105 . S
O83 C73 1.268 . S
O84 Sc68 2.105 . S
O84 C75 1.268 . S
O85 Sc66 2.105 . S
O85 C71 1.268 . S
O86 Sc68 2.105 . S
O86 C70 1.268 . S
O87 Sc67 2.105 . S
O87 C72 1.268 . S
H88 C89 0.949 . S
C89 H88 0.949 . S
C89 C90 1.395 . S
C89 C91 1.391 1_554 S
C90 C89 1.395 . S
C90 C93 1.390 . S
C91 C89 1.391 1_556 S
C91 C95 1.387 . S
C91 C96 1.491 . S
H92 C93 0.950 . S
C93 C90 1.390 . S
C93 H92 0.950 . S
C93 C94 1.378 1_554 S
C94 C93 1.378 1_556 S
C94 C95 1.409 . S
C95 C91 1.387 . S
C95 C94 1.409 . S
C95 H97 0.951 . S
C96 C91 1.491 . S
C96 C98 1.382 1_556 S
C96 C100 1.404 . S
H97 C95 0.951 . S
C98 C96 1.382 1_554 S
C98 C99 1.390 1_554 S
C98 H103 0.949 . S
C99 C98 1.390 1_556 S
C99 C104 1.399 . S
C100 C96 1.404 . S
C100 H101 0.950 . S
C100 C102 1.375 . S
H101 C100 0.950 . S
C102 C100 1.375 . S
C102 C104 1.382 . S
C102 H106 0.950 . S
H103 C98 0.949 . S
C104 C99 1.399 . S
C104 C102 1.382 . S
C104 H105 0.952 . S
H105 C104 0.952 . S
H106 C102 0.950 . S
H107 C108 0.949 . S
C108 H107 0.949 . S
C108 C109 1.395 . S
C108 C110 1.391 . S
C109 C108 1.395 . S
C109 C112 1.390 . S
C110 C108 1.391 . S
C110 C114 1.387 . S
C110 C115 1.491 1_655 S
H111 C112 0.950 . S
C112 C109 1.390 . S
C112 H111 0.950 . S
C112 C113 1.378 . S
C113 C112 1.378 . S
C113 C114 1.409 . S
C114 C110 1.387 . S
C114 C113 1.409 . S
C114 H116 0.951 . S
C115 C110 1.491 1_455 S
C115 C117 1.382 . S
C115 C119 1.404 . S
H116 C114 0.951 . S
C117 C115 1.382 . S
C117 C118 1.390 . S
C117 H122 0.949 . S
C118 C117 1.390 . S
C118 C123 1.399 . S
C119 C115 1.404 . S
C119 H120 0.950 . S
C119 C121 1.375 . S
H120 C119 0.950 . S
C121 C119 1.375 . S
C121 C123 1.382 . S
C121 H125 0.950 . S
H122 C117 0.949 . S
C123 C118 1.399 . S
C123 C121 1.382 . S
C123 H124 0.952 . S
H124 C123 0.952 . S
H125 C121 0.950 . S
H126 C127 0.949 . S
C127 H126 0.949 . S
C127 C128 1.395 . S
C127 C129 1.391 1_556 S
C128 C127 1.395 . S
C128 C131 1.390 1_556 S
C129 C127 1.391 1_554 S
C129 C133 1.387 . S
C129 C134 1.491 . S
H130 C131 0.950 . S
C131 C128 1.390 1_554 S
C131 H130 0.950 . S
C131 C132 1.378 . S
C132 C131 1.378 . S
C132 C133 1.409 . S
C133 C129 1.387 . S
C133 C132 1.409 . S
C133 H135 0.951 . S
C134 C129 1.491 . S
C134 C136 1.382 . S
C134 C138 1.404 . S
H135 C133 0.951 . S
C136 C134 1.382 . S
C136 C137 1.390 . S
C136 H141 0.949 1_554 S
C137 C136 1.390 . S
C137 C142 1.399 . S
C138 C134 1.404 . S
C138 H139 0.950 . S
C138 C140 1.375 . S
H139 C138 0.950 . S
C140 C138 1.375 . S
C140 C142 1.382 . S
C140 H144 0.950 . S
H141 C136 0.949 1_556 S
C142 C137 1.399 . S
C142 C140 1.382 . S
C142 H143 0.952 . S
H143 C142 0.952 . S
H144 C140 0.950 . S
H145 C146 0.949 . S
C146 H145 0.949 . S
C146 C147 1.395 . S
C146 C148 1.391 . S
C147 C146 1.395 . S
C147 C150 1.390 . S
C148 C146 1.391 . S
C148 C152 1.387 . S
C148 C153 1.491 1_455 S
H149 C150 0.950 . S
C150 C147 1.390 . S
C150 H149 0.950 . S
C150 C151 1.378 . S
C151 C150 1.378 . S
C151 C152 1.409 . S
C152 C148 1.387 . S
C152 C151 1.409 . S
C152 H154 0.951 . S
C153 C148 1.491 1_655 S
C153 C155 1.382 . S
C153 C157 1.404 . S
H154 C152 0.951 . S
C155 C153 1.382 . S
C155 C156 1.390 . S
C155 H160 0.949 . S
C156 C155 1.390 . S
C156 C161 1.399 . S
C157 C153 1.404 . S
C157 H158 0.950 . S
C157 C159 1.375 . S
H158 C157 0.950 . S
C159 C157 1.375 . S
C159 C161 1.382 . S
C159 H163 0.950 . S
H160 C155 0.949 . S
C161 C156 1.399 . S
C161 C159 1.382 . S
C161 H162 0.952 . S
H162 C161 0.952 . S
H163 C159 0.950 . S
H164 C165 0.949 . S
C165 H164 0.949 . S
C165 C166 1.395 . S
C165 C167 1.391 . S
C166 C165 1.395 . S
C166 C169 1.390 . S
C167 C165 1.391 . S
C167 C171 1.387 . S
C167 C172 1.491 1_565 S
H168 C169 0.950 . S
C169 C166 1.390 . S
C169 H168 0.950 . S
C169 C170 1.378 . S
C170 C169 1.378 . S
C170 C171 1.409 . S
C171 C167 1.387 . S
C171 C170 1.409 . S
C171 H173 0.951 . S
C172 C167 1.491 1_545 S
C172 C174 1.382 . S
C172 C176 1.404 . S
H173 C171 0.951 . S
C174 C172 1.382 . S
C174 C175 1.390 . S
C174 H179 0.949 . S
C175 C174 1.390 . S
C175 C180 1.399 . S
C176 C172 1.404 . S
C176 H177 0.950 . S
C176 C178 1.375 . S
H177 C176 0.950 . S
C178 C176 1.375 . S
C178 C180 1.382 . S
C178 H182 0.950 . S
H179 C174 0.949 . S
C180 C175 1.399 . S
C180 C178 1.382 . S
C180 H181 0.952 . S
H181 C180 0.952 . S
H182 C178 0.950 . S
H183 C184 0.949 . S
C184 H183 0.949 . S
C184 C185 1.395 . S
C184 C186 1.391 1_554 S
C185 C184 1.395 . S
C185 C188 1.390 . S
C186 C184 1.391 1_556 S
C186 C190 1.387 . S
C186 C191 1.491 . S
H187 C188 0.950 . S
C188 C185 1.390 . S
C188 H187 0.950 . S
C188 C189 1.378 1_554 S
C189 C188 1.378 1_556 S
C189 C190 1.409 . S
C190 C186 1.387 . S
C190 C189 1.409 . S
C190 H192 0.951 . S
C191 C186 1.491 . S
C191 C193 1.382 1_556 S
C191 C195 1.404 . S
H192 C190 0.951 . S
C193 C191 1.382 1_554 S
C193 C194 1.390 1_554 S
C193 H198 0.949 . S
C194 C193 1.390 1_556 S
C194 C199 1.399 . S
C195 C191 1.404 . S
C195 H196 0.950 . S
C195 C197 1.375 . S
H196 C195 0.950 . S
C197 C195 1.375 . S
C197 C199 1.382 . S
C197 H201 0.950 . S
H198 C193 0.949 . S
C199 C194 1.399 . S
C199 C197 1.382 . S
C199 H200 0.952 . S
H200 C199 0.952 . S
H201 C197 0.950 . S
H202 C203 0.949 . S
C203 H202 0.949 . S
C203 C204 1.395 . S
C203 C205 1.391 . S
C204 C203 1.395 . S
C204 C207 1.390 . S
C205 C203 1.391 . S
C205 C209 1.387 . S
C205 C210 1.491 1_545 S
H206 C207 0.950 . S
C207 C204 1.390 . S
C207 H206 0.950 . S
C207 C208 1.378 . S
C208 C207 1.378 . S
C208 C209 1.409 . S
C209 C205 1.387 . S
C209 C208 1.409 . S
C209 H211 0.951 . S
C210 C205 1.491 1_565 S
C210 C212 1.382 . S
C210 C214 1.404 . S
H211 C209 0.951 . S
C212 C210 1.382 . S
C212 C213 1.390 . S
C212 H217 0.949 . S
C213 C212 1.390 . S
C213 C218 1.399 . S
C214 C210 1.404 . S
C214 H215 0.950 . S
C214 C216 1.375 . S
H215 C214 0.950 . S
C216 C214 1.375 . S
C216 C218 1.382 . S
C216 H220 0.950 . S
H217 C212 0.949 . S
C218 C213 1.399 . S
C218 C216 1.382 . S
C218 H219 0.952 . S
H219 C218 0.952 . S
H220 C216 0.950 . S
H221 C222 0.949 . S
C222 H221 0.949 . S
C222 C223 1.395 . S
C222 C224 1.391 1_556 S
C223 C222 1.395 . S
C223 C226 1.390 1_556 S
C224 C222 1.391 1_554 S
C224 C228 1.387 . S
C224 C229 1.491 . S
H225 C226 0.950 . S
C226 C223 1.390 1_554 S
C226 H225 0.950 . S
C226 C227 1.378 . S
C227 C226 1.378 . S
C227 C228 1.409 . S
C228 C224 1.387 . S
C228 C227 1.409 . S
C228 H230 0.951 . S
C229 C224 1.491 . S
C229 C231 1.382 . S
C229 C233 1.404 . S
H230 C228 0.951 . S
C231 C229 1.382 . S
C231 C232 1.390 . S
C231 H236 0.949 1_554 S
C232 C231 1.390 . S
C232 C237 1.399 . S
C233 C229 1.404 . S
C233 H234 0.950 . S
C233 C235 1.375 . S
H234 C233 0.950 . S
C235 C233 1.375 . S
C235 C237 1.382 . S
C235 H239 0.950 . S
H236 C231 0.949 1_556 S
C237 C232 1.399 . S
C237 C235 1.382 . S
C237 H238 0.952 . S
H238 C237 0.952 . S
H239 C235 0.950 . S
H240 C246 0.930 . S
H241 C250 0.930 . S
H242 C255 0.929 . S
H243 C253 0.929 . S
H244 C248 0.929 . S
H245 C254 0.929 . S
C246 H240 0.930 . S
C246 C247 1.367 . S
C246 C254 1.378 . S
C247 C246 1.367 . S
C247 C255 1.433 . S
C248 H244 0.929 . S
C248 C250 1.378 . S
C248 C252 1.350 . S
C249 C252 1.463 . S
C249 C254 1.350 . S
C249 N257 1.427 . S
C250 H241 0.930 . S
C250 C248 1.378 . S
C250 C251 1.367 . S
C251 C250 1.367 . S
C251 C253 1.433 . S
C252 C248 1.350 . S
C252 C249 1.463 . S
C252 N256 1.427 . S
C253 H243 0.929 . S
C253 C251 1.433 . S
C253 N256 1.384 . S
C254 H245 0.929 . S
C254 C246 1.378 . S
C254 C249 1.350 . S
C255 H242 0.929 . S
C255 C247 1.433 . S
C255 N257 1.384 . S
N256 C252 1.427 . S
N256 C253 1.384 . S
N257 C249 1.427 . S
N257 C255 1.384 . S
H258 C264 0.930 . S
H259 C268 0.930 . S
H260 C273 0.929 . S
H261 C271 0.929 . S
H262 C266 0.929 . S
H263 C272 0.929 . S
C264 H258 0.930 . S
C264 C265 1.367 . S
C264 C272 1.378 . S
C265 C264 1.367 . S
C265 C273 1.433 . S
C266 H262 0.929 . S
C266 C268 1.378 . S
C266 C270 1.350 . S
C267 C270 1.463 . S
C267 C272 1.350 . S
C267 N275 1.427 . S
C268 H259 0.930 . S
C268 C266 1.378 . S
C268 C269 1.367 . S
C269 C268 1.367 . S
C269 C271 1.433 . S
C270 C266 1.350 . S
C270 C267 1.463 . S
C270 N274 1.427 . S
C271 H261 0.929 . S
C271 C269 1.433 . S
C271 N274 1.384 . S
C272 H263 0.929 . S
C272 C264 1.378 . S
C272 C267 1.350 . S
C273 H260 0.929 . S
C273 C265 1.433 . S
C273 N275 1.384 . S
N274 C270 1.427 . S
N274 C271 1.384 . S
N275 C267 1.427 . S
N275 C273 1.384 . S
H276 C282 0.930 . S
H277 C286 0.930 . S
H278 C291 0.929 . S
H279 C289 0.929 . S
H280 C284 0.929 . S
H281 C290 0.929 . S
C282 H276 0.930 . S
C282 C283 1.367 . S
C282 C290 1.378 . S
C283 C282 1.367 . S
C283 C291 1.433 . S
C284 H280 0.929 . S
C284 C286 1.378 . S
C284 C288 1.350 . S
C285 C288 1.463 . S
C285 C290 1.350 . S
C285 N293 1.427 . S
C286 H277 0.930 . S
C286 C284 1.378 . S
C286 C287 1.367 . S
C287 C286 1.367 . S
C287 C289 1.433 . S
C288 C284 1.350 . S
C288 C285 1.463 . S
C288 N292 1.427 . S
C289 H279 0.929 . S
C289 C287 1.433 . S
C289 N292 1.384 . S
C290 H281 0.929 . S
C290 C282 1.378 . S
C290 C285 1.350 . S
C291 H278 0.929 . S
C291 C283 1.433 . S
C291 N293 1.384 . S
N292 C288 1.427 . S
N292 C289 1.384 . S
N293 C285 1.427 . S
N293 C291 1.384 . S
H294 C300 0.930 . S
H295 C304 0.930 . S
H296 C309 0.929 . S
H297 C307 0.929 . S
H298 C302 0.929 . S
H299 C308 0.929 . S
C300 H294 0.930 . S
C300 C301 1.367 . S
C300 C308 1.378 . S
C301 C300 1.367 . S
C301 C309 1.433 . S
C302 H298 0.929 . S
C302 C304 1.378 . S
C302 C306 1.350 . S
C303 C306 1.463 . S
C303 C308 1.350 . S
C303 N311 1.427 . S
C304 H295 0.930 . S
C304 C302 1.378 . S
C304 C305 1.367 . S
C305 C304 1.367 . S
C305 C307 1.433 . S
C306 C302 1.350 . S
C306 C303 1.463 . S
C306 N310 1.427 . S
C307 H297 0.929 . S
C307 C305 1.433 . S
C307 N310 1.384 . S
C308 H299 0.929 . S
C308 C300 1.378 . S
C308 C303 1.350 . S
C309 H296 0.929 . S
C309 C301 1.433 . S
C309 N311 1.384 . S
N310 C306 1.427 . S
N310 C307 1.384 . S
N311 C303 1.427 . S
N311 C309 1.384 . S
H312 C318 0.930 . S
H313 C322 0.930 . S
H314 C327 0.929 . S
H315 C325 0.929 . S
H316 C320 0.929 . S
H317 C326 0.929 . S
C318 H312 0.930 . S
C318 C319 1.367 . S
C318 C326 1.378 . S
C319 C318 1.367 . S
C319 C327 1.433 . S
C320 H316 0.929 . S
C320 C322 1.378 . S
C320 C324 1.350 . S
C321 C324 1.463 . S
C321 C326 1.350 . S
C321 N329 1.427 . S
C322 H313 0.930 . S
C322 C320 1.378 . S
C322 C323 1.367 . S
C323 C322 1.367 . S
C323 C325 1.433 . S
C324 C320 1.350 . S
C324 C321 1.463 . S
C324 N328 1.427 . S
C325 H315 0.929 . S
C325 C323 1.433 . S
C325 N328 1.384 . S
C326 H317 0.929 . S
C326 C318 1.378 . S
C326 C321 1.350 . S
C327 H314 0.929 . S
C327 C319 1.433 . S
C327 N329 1.384 . S
N328 C324 1.427 . S
N328 C325 1.384 . S
N329 C321 1.427 . S
N329 C327 1.384 . S
H330 C336 0.930 . S
H331 C340 0.930 . S
H332 C345 0.929 . S
H333 C343 0.929 . S
H334 C338 0.929 . S
H335 C344 0.929 . S
C336 H330 0.930 . S
C336 C337 1.367 . S
C336 C344 1.378 . S
C337 C336 1.367 . S
C337 C345 1.433 . S
C338 H334 0.929 . S
C338 C340 1.378 . S
C338 C342 1.350 . S
C339 C342 1.463 . S
C339 C344 1.350 . S
C339 N347 1.427 . S
C340 H331 0.930 . S
C340 C338 1.378 . S
C340 C341 1.367 . S
C341 C340 1.367 . S
C341 C343 1.433 . S
C342 C338 1.350 . S
C342 C339 1.463 . S
C342 N346 1.427 . S
C343 H333 0.929 . S
C343 C341 1.433 . S
C343 N346 1.384 . S
C344 H335 0.929 . S
C344 C336 1.378 . S
C344 C339 1.350 . S
C345 H332 0.929 . S
C345 C337 1.433 . S
C345 N347 1.384 . S
N346 C342 1.427 . S
N346 C343 1.384 . S
N347 C339 1.427 . S
N347 C345 1.384 . S
H348 C354 0.930 . S
H349 C358 0.930 . S
H350 C363 0.929 . S
H351 C361 0.929 . S
H352 C356 0.929 . S
H353 C362 0.929 . S
C354 H348 0.930 . S
C354 C355 1.367 . S
C354 C362 1.378 . S
C355 C354 1.367 . S
C355 C363 1.433 . S
C356 H352 0.929 . S
C356 C358 1.378 . S
C356 C360 1.350 . S
C357 C360 1.463 . S
C357 C362 1.350 . S
C357 N365 1.427 . S
C358 H349 0.930 . S
C358 C356 1.378 . S
C358 C359 1.367 . S
C359 C358 1.367 . S
C359 C361 1.433 . S
C360 C356 1.350 . S
C360 C357 1.463 . S
C360 N364 1.427 . S
C361 H351 0.929 . S
C361 C359 1.433 . S
C361 N364 1.384 . S
C362 H353 0.929 . S
C362 C354 1.378 . S
C362 C357 1.350 . S
C363 H350 0.929 . S
C363 C355 1.433 . S
C363 N365 1.384 . S
N364 C360 1.427 . S
N364 C361 1.384 . S
N365 C357 1.427 . S
N365 C363 1.384 . S
H366 C372 0.930 . S
H367 C376 0.930 . S
H368 C381 0.929 . S
H369 C379 0.929 . S
H370 C374 0.929 . S
H371 C380 0.929 . S
C372 H366 0.930 . S
C372 C373 1.367 . S
C372 C380 1.378 . S
C373 C372 1.367 . S
C373 C381 1.433 . S
C374 H370 0.929 . S
C374 C376 1.378 . S
C374 C378 1.350 . S
C375 C378 1.463 . S
C375 C380 1.350 . S
C375 N383 1.427 . S
C376 H367 0.930 . S
C376 C374 1.378 . S
C376 C377 1.367 . S
C377 C376 1.367 . S
C377 C379 1.433 . S
C378 C374 1.350 . S
C378 C375 1.463 . S
C378 N382 1.427 . S
C379 H369 0.929 . S
C379 C377 1.433 . S
C379 N382 1.384 . S
C380 H371 0.929 . S
C380 C372 1.378 . S
C380 C375 1.350 . S
C381 H368 0.929 . S
C381 C373 1.433 . S
C381 N383 1.384 . S
N382 C378 1.427 . S
N382 C379 1.384 . S
N383 C375 1.427 . S
N383 C381 1.384 . S
H384 C390 0.930 . S
H385 C394 0.930 . S
H386 C399 0.929 . S
H387 C397 0.929 . S
H388 C392 0.929 . S
H389 C398 0.929 . S
C390 H384 0.930 . S
C390 C391 1.367 . S
C390 C398 1.378 . S
C391 C390 1.367 . S
C391 C399 1.433 . S
C392 H388 0.929 . S
C392 C394 1.378 . S
C392 C396 1.350 . S
C393 C396 1.463 . S
C393 C398 1.350 . S
C393 N401 1.427 . S
C394 H385 0.930 . S
C394 C392 1.378 . S
C394 C395 1.367 . S
C395 C394 1.367 . S
C395 C397 1.433 . S
C396 C392 1.350 . S
C396 C393 1.463 . S
C396 N400 1.427 . S
C397 H387 0.929 . S
C397 C395 1.433 . S
C397 N400 1.384 . S
C398 H389 0.929 . S
C398 C390 1.378 . S
C398 C393 1.350 . S
C399 H386 0.929 . S
C399 C391 1.433 . S
C399 N401 1.384 . S
N400 C396 1.427 . S
N400 C397 1.384 . S
N401 C393 1.427 . S
N401 C399 1.384 . S
H402 C408 0.930 . S
H403 C412 0.930 . S
H404 C417 0.929 . S
H405 C415 0.929 . S
H406 C410 0.929 . S
H407 C416 0.929 . S
C408 H402 0.930 . S
C408 C409 1.367 . S
C408 C416 1.378 . S
C409 C408 1.367 . S
C409 C417 1.433 . S
C410 H406 0.929 . S
C410 C412 1.378 . S
C410 C414 1.350 . S
C411 C414 1.463 . S
C411 C416 1.350 . S
C411 N419 1.427 . S
C412 H403 0.930 . S
C412 C410 1.378 . S
C412 C413 1.367 . S
C413 C412 1.367 . S
C413 C415 1.433 . S
C414 C410 1.350 . S
C414 C411 1.463 . S
C414 N418 1.427 . S
C415 H405 0.929 . S
C415 C413 1.433 . S
C415 N418 1.384 . S
C416 H407 0.929 . S
C416 C408 1.378 . S
C416 C411 1.350 . S
C417 H404 0.929 . S
C417 C409 1.433 . S
C417 N419 1.384 . S
N418 C414 1.427 . S
N418 C415 1.384 . S
N419 C411 1.427 . S
N419 C417 1.384 . S
H420 C426 0.930 . S
H421 C430 0.930 . S
H422 C435 0.929 . S
H423 C433 0.929 . S
H424 C428 0.929 . S
H425 C434 0.929 . S
C426 H420 0.930 . S
C426 C427 1.367 . S
C426 C434 1.378 . S
C427 C426 1.367 . S
C427 C435 1.433 . S
C428 H424 0.929 . S
C428 C430 1.378 . S
C428 C432 1.350 . S
C429 C432 1.463 . S
C429 C434 1.350 . S
C429 N437 1.427 . S
C430 H421 0.930 . S
C430 C428 1.378 . S
C430 C431 1.367 . S
C431 C430 1.367 . S
C431 C433 1.433 . S
C432 C428 1.350 . S
C432 C429 1.463 . S
C432 N436 1.427 . S
C433 H423 0.929 . S
C433 C431 1.433 . S
C433 N436 1.384 . S
C434 H425 0.929 . S
C434 C426 1.378 . S
C434 C429 1.350 . S
C435 H422 0.929 . S
C435 C427 1.433 . S
C435 N437 1.384 . S
N436 C432 1.427 . S
N436 C433 1.384 . S
N437 C429 1.427 . S
N437 C435 1.384 . S
H438 C444 0.930 . S
H439 C448 0.930 . S
H440 C453 0.929 . S
H441 C451 0.929 . S
H442 C446 0.929 . S
H443 C452 0.929 . S
C444 H438 0.930 . S
C444 C445 1.367 . S
C444 C452 1.378 . S
C445 C444 1.367 . S
C445 C453 1.433 . S
C446 H442 0.929 . S
C446 C448 1.378 . S
C446 C450 1.350 . S
C447 C450 1.463 . S
C447 C452 1.350 . S
C447 N455 1.427 . S
C448 H439 0.930 . S
C448 C446 1.378 . S
C448 C449 1.367 . S
C449 C448 1.367 . S
C449 C451 1.433 . S
C450 C446 1.350 . S
C450 C447 1.463 . S
C450 N454 1.427 . S
C451 H441 0.929 . S
C451 C449 1.433 . S
C451 N454 1.384 . S
C452 H443 0.929 . S
C452 C444 1.378 . S
C452 C447 1.350 . S
C453 H440 0.929 . S
C453 C445 1.433 . S
C453 N455 1.384 . S
N454 C450 1.427 . S
N454 C451 1.384 . S
N455 C447 1.427 . S
N455 C453 1.384 . S
H456 C462 0.930 . S
H457 C466 0.930 . S
H458 C471 0.929 . S
H459 C469 0.929 . S
H460 C464 0.929 . S
H461 C470 0.929 . S
C462 H456 0.930 . S
C462 C463 1.367 . S
C462 C470 1.378 . S
C463 C462 1.367 . S
C463 C471 1.433 . S
C464 H460 0.929 . S
C464 C466 1.378 . S
C464 C468 1.350 . S
C465 C468 1.463 . S
C465 C470 1.350 . S
C465 N473 1.427 . S
C466 H457 0.930 . S
C466 C464 1.378 . S
C466 C467 1.367 . S
C467 C466 1.367 . S
C467 C469 1.433 . S
C468 C464 1.350 . S
C468 C465 1.463 . S
C468 N472 1.427 . S
C469 H459 0.929 . S
C469 C467 1.433 . S
C469 N472 1.384 . S
C470 H461 0.929 . S
C470 C462 1.378 . S
C470 C465 1.350 . S
C471 H458 0.929 . S
C471 C463 1.433 . S
C471 N473 1.384 . S
N472 C468 1.427 . S
N472 C469 1.384 . S
N473 C465 1.427 . S
N473 C471 1.384 . S
H474 C480 0.930 . S
H475 C484 0.930 . S
H476 C489 0.929 . S
H477 C487 0.929 . S
H478 C482 0.929 . S
H479 C488 0.929 . S
C480 H474 0.930 . S
C480 C481 1.367 . S
C480 C488 1.378 . S
C481 C480 1.367 . S
C481 C489 1.433 . S
C482 H478 0.929 . S
C482 C484 1.378 . S
C482 C486 1.350 . S
C483 C486 1.463 . S
C483 C488 1.350 . S
C483 N491 1.427 . S
C484 H475 0.930 . S
C484 C482 1.378 . S
C484 C485 1.367 . S
C485 C484 1.367 . S
C485 C487 1.433 . S
C486 C482 1.350 . S
C486 C483 1.463 . S
C486 N490 1.427 . S
C487 H477 0.929 . S
C487 C485 1.433 . S
C487 N490 1.384 . S
C488 H479 0.929 . S
C488 C480 1.378 . S
C488 C483 1.350 . S
C489 H476 0.929 . S
C489 C481 1.433 . S
C489 N491 1.384 . S
N490 C486 1.427 . S
N490 C487 1.384 . S
N491 C483 1.427 . S
N491 C489 1.384 . S
H492 C498 0.930 . S
H493 C502 0.930 . S
H494 C507 0.929 . S
H495 C505 0.929 . S
H496 C500 0.929 . S
H497 C506 0.929 . S
C498 H492 0.930 . S
C498 C499 1.367 . S
C498 C506 1.378 . S
C499 C498 1.367 . S
C499 C507 1.433 . S
C500 H496 0.929 . S
C500 C502 1.378 . S
C500 C504 1.350 . S
C501 C504 1.463 . S
C501 C506 1.350 . S
C501 N509 1.427 . S
C502 H493 0.930 . S
C502 C500 1.378 . S
C502 C503 1.367 . S
C503 C502 1.367 . S
C503 C505 1.433 . S
C504 C500 1.350 . S
C504 C501 1.463 . S
C504 N508 1.427 . S
C505 H495 0.929 . S
C505 C503 1.433 . S
C505 N508 1.384 . S
C506 H497 0.929 . S
C506 C498 1.378 . S
C506 C501 1.350 . S
C507 H494 0.929 . S
C507 C499 1.433 . S
C507 N509 1.384 . S
N508 C504 1.427 . S
N508 C505 1.384 . S
N509 C501 1.427 . S
N509 C507 1.384 . S
H510 C516 0.930 . S
H511 C520 0.930 . S
H512 C525 0.929 . S
H513 C523 0.929 . S
H514 C518 0.929 . S
H515 C524 0.929 . S
C516 H510 0.930 . S
C516 C517 1.367 . S
C516 C524 1.378 . S
C517 C516 1.367 . S
C517 C525 1.433 . S
C518 H514 0.929 . S
C518 C520 1.378 . S
C518 C522 1.350 . S
C519 C522 1.463 . S
C519 C524 1.350 . S
C519 N527 1.427 . S
C520 H511 0.930 . S
C520 C518 1.378 . S
C520 C521 1.367 . S
C521 C520 1.367 . S
C521 C523 1.433 . S
C522 C518 1.350 . S
C522 C519 1.463 . S
C522 N526 1.427 . S
C523 H513 0.929 . S
C523 C521 1.433 . S
C523 N526 1.384 . S
C524 H515 0.929 . S
C524 C516 1.378 . S
C524 C519 1.350 . S
C525 H512 0.929 . S
C525 C517 1.433 . S
C525 N527 1.384 . S
N526 C522 1.427 . S
N526 C523 1.384 . S
N527 C519 1.427 . S
N527 C525 1.384 . S
H528 C534 0.930 . S
H529 C538 0.930 . S
H530 C543 0.929 . S
H531 C541 0.929 . S
H532 C536 0.929 . S
H533 C542 0.929 . S
C534 H528 0.930 . S
C534 C535 1.367 . S
C534 C542 1.378 . S
C535 C534 1.367 . S
C535 C543 1.433 1_554 S
C536 H532 0.929 . S
C536 C538 1.378 . S
C536 C540 1.350 1_556 S
C537 C540 1.463 . S
C537 C542 1.350 . S
C537 N545 1.427 1_554 S
C538 H529 0.930 . S
C538 C536 1.378 . S
C538 C539 1.367 1_556 S
C539 C538 1.367 1_554 S
C539 C541 1.433 . S
C540 C536 1.350 1_554 S
C540 C537 1.463 . S
C540 N544 1.427 . S
C541 H531 0.929 . S
C541 C539 1.433 . S
C541 N544 1.384 . S
C542 H533 0.929 . S
C542 C534 1.378 . S
C542 C537 1.350 . S
C543 H530 0.929 . S
C543 C535 1.433 1_556 S
C543 N545 1.384 . S
N544 C540 1.427 . S
N544 C541 1.384 . S
N545 C537 1.427 1_556 S
N545 C543 1.384 . S
H546 C552 0.930 . S
H547 C556 0.930 . S
H548 C561 0.929 . S
H549 C559 0.929 . S
H550 C554 0.929 . S
H551 C560 0.929 . S
C552 H546 0.930 . S
C552 C553 1.367 . S
C552 C560 1.378 . S
C553 C552 1.367 . S
C553 C561 1.433 . S
C554 H550 0.929 . S
C554 C556 1.378 . S
C554 C558 1.350 . S
C555 C558 1.463 . S
C555 C560 1.350 . S
C555 N563 1.427 . S
C556 H547 0.930 . S
C556 C554 1.378 . S
C556 C557 1.367 . S
C557 C556 1.367 . S
C557 C559 1.433 . S
C558 C554 1.350 . S
C558 C555 1.463 . S
C558 N562 1.427 . S
C559 H549 0.929 . S
C559 C557 1.433 . S
C559 N562 1.384 . S
C560 H551 0.929 . S
C560 C552 1.378 . S
C560 C555 1.350 . S
C561 H548 0.929 . S
C561 C553 1.433 . S
C561 N563 1.384 . S
N562 C558 1.427 . S
N562 C559 1.384 . S
N563 C555 1.427 . S
N563 C561 1.384 . S
H564 C570 0.930 . S
H565 C574 0.930 . S
H566 C579 0.929 . S
H567 C577 0.929 . S
H568 C572 0.929 . S
H569 C578 0.929 . S
C570 H564 0.930 . S
C570 C571 1.367 . S
C570 C578 1.378 . S
C571 C570 1.367 . S
C571 C579 1.433 1_554 S
C572 H568 0.929 . S
C572 C574 1.378 . S
C572 C576 1.350 1_556 S
C573 C576 1.463 . S
C573 C578 1.350 . S
C573 N581 1.427 1_554 S
C574 H565 0.930 . S
C574 C572 1.378 . S
C574 C575 1.367 1_556 S
C575 C574 1.367 1_554 S
C575 C577 1.433 . S
C576 C572 1.350 1_554 S
C576 C573 1.463 . S
C576 N580 1.427 . S
C577 H567 0.929 . S
C577 C575 1.433 . S
C577 N580 1.384 . S
C578 H569 0.929 . S
C578 C570 1.378 . S
C578 C573 1.350 . S
C579 H566 0.929 . S
C579 C571 1.433 1_556 S
C579 N581 1.384 . S
N580 C576 1.427 . S
N580 C577 1.384 . S
N581 C573 1.427 1_556 S
N581 C579 1.384 . S
H582 C588 0.930 . S
H583 C592 0.930 . S
H584 C597 0.929 . S
H585 C595 0.929 . S
H586 C590 0.929 . S
H587 C596 0.929 . S
C588 H582 0.930 . S
C588 C589 1.367 . S
C588 C596 1.378 . S
C589 C588 1.367 . S
C589 C597 1.433 . S
C590 H586 0.929 . S
C590 C592 1.378 . S
C590 C594 1.350 . S
C591 C594 1.463 . S
C591 C596 1.350 . S
C591 N599 1.427 . S
C592 H583 0.930 . S
C592 C590 1.378 . S
C592 C593 1.367 . S
C593 C592 1.367 . S
C593 C595 1.433 . S
C594 C590 1.350 . S
C594 C591 1.463 . S
C594 N598 1.427 . S
C595 H585 0.929 . S
C595 C593 1.433 . S
C595 N598 1.384 . S
C596 H587 0.929 . S
C596 C588 1.378 . S
C596 C591 1.350 . S
C597 H584 0.929 . S
C597 C589 1.433 . S
C597 N599 1.384 . S
N598 C594 1.427 . S
N598 C595 1.384 . S
N599 C591 1.427 . S
N599 C597 1.384 . S
H600 C606 0.930 . S
H601 C610 0.930 . S
H602 C615 0.929 . S
H603 C613 0.929 . S
H604 C608 0.929 . S
H605 C614 0.929 . S
C606 H600 0.930 . S
C606 C607 1.367 . S
C606 C614 1.378 . S
C607 C606 1.367 . S
C607 C615 1.433 . S
C608 H604 0.929 . S
C608 C610 1.378 . S
C608 C612 1.350 . S
C609 C612 1.463 . S
C609 C614 1.350 . S
C609 N617 1.427 . S
C610 H601 0.930 . S
C610 C608 1.378 . S
C610 C611 1.367 . S
C611 C610 1.367 . S
C611 C613 1.433 . S
C612 C608 1.350 . S
C612 C609 1.463 . S
C612 N616 1.427 . S
C613 H603 0.929 . S
C613 C611 1.433 . S
C613 N616 1.384 . S
C614 H605 0.929 . S
C614 C606 1.378 . S
C614 C609 1.350 . S
C615 H602 0.929 . S
C615 C607 1.433 . S
C615 N617 1.384 . S
N616 C612 1.427 . S
N616 C613 1.384 . S
N617 C609 1.427 . S
N617 C615 1.384 . S
H618 C624 0.930 . S
H619 C628 0.930 . S
H620 C633 0.929 . S
H621 C631 0.929 . S
H622 C626 0.929 . S
H623 C632 0.929 . S
C624 H618 0.930 . S
C624 C625 1.367 1_556 S
C624 C632 1.378 . S
C625 C624 1.367 1_554 S
C625 C633 1.433 . S
C626 H622 0.929 . S
C626 C628 1.378 . S
C626 C630 1.350 . S
C627 C630 1.463 . S
C627 C632 1.350 1_554 S
C627 N635 1.427 . S
C628 H619 0.930 . S
C628 C626 1.378 . S
C628 C629 1.367 . S
C629 C628 1.367 . S
C629 C631 1.433 1_554 S
C630 C626 1.350 . S
C630 C627 1.463 . S
C630 N634 1.427 1_554 S
C631 H621 0.929 . S
C631 C629 1.433 1_556 S
C631 N634 1.384 . S
C632 H623 0.929 . S
C632 C624 1.378 . S
C632 C627 1.350 1_556 S
C633 H620 0.929 . S
C633 C625 1.433 . S
C633 N635 1.384 . S
N634 C630 1.427 1_556 S
N634 C631 1.384 . S
N635 C627 1.427 . S
N635 C633 1.384 . S
H636 C642 0.930 . S
H637 C646 0.930 . S
H638 C651 0.929 . S
H639 C649 0.929 . S
H640 C644 0.929 . S
H641 C650 0.929 . S
C642 H636 0.930 . S
C642 C643 1.367 . S
C642 C650 1.378 . S
C643 C642 1.367 . S
C643 C651 1.433 . S
C644 H640 0.929 . S
C644 C646 1.378 . S
C644 C648 1.350 . S
C645 C648 1.463 . S
C645 C650 1.350 . S
C645 N653 1.427 . S
C646 H637 0.930 . S
C646 C644 1.378 . S
C646 C647 1.367 . S
C647 C646 1.367 . S
C647 C649 1.433 . S
C648 C644 1.350 . S
C648 C645 1.463 . S
C648 N652 1.427 . S
C649 H639 0.929 . S
C649 C647 1.433 . S
C649 N652 1.384 . S
C650 H641 0.929 . S
C650 C642 1.378 . S
C650 C645 1.350 . S
C651 H638 0.929 . S
C651 C643 1.433 . S
C651 N653 1.384 . S
N652 C648 1.427 . S
N652 C649 1.384 . S
N653 C645 1.427 . S
N653 C651 1.384 . S
H654 C660 0.930 . S
H655 C664 0.931 . S
H656 C669 0.929 1_556 S
H657 C667 0.929 . S
H658 C662 0.927 1_556 S
H659 C668 0.929 . S
C660 H654 0.930 . S
C660 C661 1.367 . S
C660 C668 1.378 . S
C661 C660 1.367 . S
C661 C669 1.433 . S
C662 H658 0.927 1_554 S
C662 C664 1.378 1_554 S
C662 C666 1.351 . S
C663 C666 1.463 . S
C663 C668 1.350 . S
C663 N671 1.427 . S
C664 H655 0.931 . S
C664 C662 1.378 1_556 S
C664 C665 1.366 1_556 S
C665 C664 1.366 1_554 S
C665 C667 1.433 . S
C666 C662 1.351 . S
C666 C663 1.463 . S
C666 N670 1.427 . S
C667 H657 0.929 . S
C667 C665 1.433 . S
C667 N670 1.384 . S
C668 H659 0.929 . S
C668 C660 1.378 . S
C668 C663 1.350 . S
C669 H656 0.929 1_554 S
C669 C661 1.433 . S
C669 N671 1.384 . S
N670 C666 1.427 . S
N670 C667 1.384 . S
N671 C663 1.427 . S
N671 C669 1.384 . S
C247 C5 1.471 . S
C251 C151 1.487 . S
C265 C31 1.498 . S
C269 C94 1.505 . S
C287 C109 1.493 . S
C283 C53 1.540 . S
C301 C71 1.510 . S
C305 C128 1.485 . S
C323 C185 1.487 . S
C319 C75 1.507 . S
C341 C204 1.493 . S
C337 C9 1.538 . S
C359 C227 1.506 . S
C355 C27 1.498 . S
C377 C170 1.486 . S
C373 C49 1.474 . S
C391 C51 1.474 . S
C395 C113 1.488 . S
C409 C72 1.499 . S
C413 C132 1.506 . S
C427 C6 1.535 . S
C431 C147 1.498 . S
C449 C90 1.474 . S
C445 C29 1.515 . S
C463 C28 1.509 . S
C467 C223 1.480 . S
C485 C166 1.505 . S
C481 C50 1.534 . S
C503 C189 1.504 . S
C499 C73 1.503 . S
C517 C7 1.480 . S
C521 C208 1.484 . S
C539 C99 1.370 1_554 S
C535 C4 1.511 . S
C557 C118 1.423 . S
C553 C30 1.513 . S
C571 C52 1.508 . S
C575 C137 1.424 . S
C589 C70 1.513 . S
C593 C156 1.381 . S
C611 C175 1.385 . S
C607 C74 1.512 . S
C625 C8 1.509 . S
C629 C194 1.430 1_554 S
C643 C26 1.513 . S
C647 C213 1.424 . S
C661 C48 1.515 . S
C665 C232 1.371 . S
