# Generated by pormake.
# Topology eea, (3,6)-cn, num edge types: 1
# Building blocks:
#     Node 0, Type 0, BuildingBlock: PAMTOO_clean_linker_0, # of connection points: 3
#     Node 1, Type 0, BuildingBlock: PAMTOO_clean_linker_0, # of connection points: 3
#     Node 2, Type 0, BuildingBlock: PAMTOO_clean_linker_0, # of connection points: 3
#     Node 3, Type 0, BuildingBlock: PAMTOO_clean_linker_0, # of connection points: 3
#     Node 4, Type 0, BuildingBlock: PAMTOO_clean_linker_0, # of connection points: 3
#     Node 5, Type 0, BuildingBlock: PAMTOO_clean_linker_0, # of connection points: 3
#     Node 6, Type 0, BuildingBlock: PAMTOO_clean_linker_0, # of connection points: 3
#     Node 7, Type 0, BuildingBlock: PAMTOO_clean_linker_0, # of connection points: 3
#     Node 8, Type 0, BuildingBlock: PAMTOO_clean_linker_0, # of connection points: 3
#     Node 9, Type 0, BuildingBlock: PAMTOO_clean_linker_0, # of connection points: 3
#     Node 10, Type 0, BuildingBlock: PAMTOO_clean_linker_0, # of connection points: 3
#     Node 11, Type 0, BuildingBlock: PAMTOO_clean_linker_0, # of connection points: 3
#     Node 12, Type 0, BuildingBlock: PAMTOO_clean_linker_0, # of connection points: 3
#     Node 13, Type 0, BuildingBlock: PAMTOO_clean_linker_0, # of connection points: 3
#     Node 14, Type 0, BuildingBlock: PAMTOO_clean_linker_0, # of connection points: 3
#     Node 15, Type 0, BuildingBlock: PAMTOO_clean_linker_0, # of connection points: 3
#     Node 16, Type 0, BuildingBlock: PAMTOO_clean_linker_0, # of connection points: 3
#     Node 17, Type 0, BuildingBlock: PAMTOO_clean_linker_0, # of connection points: 3
#     Node 18, Type 1, BuildingBlock: NUHQIS_clean_sbu_0, # of connection points: 6
#     Node 19, Type 1, BuildingBlock: NUHQIS_clean_sbu_0, # of connection points: 6
#     Node 20, Type 1, BuildingBlock: NUHQIS_clean_sbu_0, # of connection points: 6
#     Node 21, Type 1, BuildingBlock: NUHQIS_clean_sbu_0, # of connection points: 6
#     Node 22, Type 1, BuildingBlock: NUHQIS_clean_sbu_0, # of connection points: 6
#     Node 23, Type 1, BuildingBlock: NUHQIS_clean_sbu_0, # of connection points: 6
#     Node 24, Type 1, BuildingBlock: NUHQIS_clean_sbu_0, # of connection points: 6
#     Node 25, Type 1, BuildingBlock: NUHQIS_clean_sbu_0, # of connection points: 6
#     Node 26, Type 1, BuildingBlock: NUHQIS_clean_sbu_0, # of connection points: 6
#     Edge 27, Type (0, 1), BuildingBlock: TEMPAE_clean_linker_10, # of connection points: 2
#     Edge 28, Type (0, 1), BuildingBlock: TEMPAE_clean_linker_10, # of connection points: 2
#     Edge 29, Type (0, 1), BuildingBlock: TEMPAE_clean_linker_10, # of connection points: 2
#     Edge 30, Type (0, 1), BuildingBlock: TEMPAE_clean_linker_10, # of connection points: 2
#     Edge 31, Type (0, 1), BuildingBlock: TEMPAE_clean_linker_10, # of connection points: 2
#     Edge 32, Type (0, 1), BuildingBlock: TEMPAE_clean_linker_10, # of connection points: 2
#     Edge 33, Type (0, 1), BuildingBlock: TEMPAE_clean_linker_10, # of connection points: 2
#     Edge 34, Type (0, 1), BuildingBlock: TEMPAE_clean_linker_10, # of connection points: 2
#     Edge 35, Type (0, 1), BuildingBlock: TEMPAE_clean_linker_10, # of connection points: 2
#     Edge 36, Type (0, 1), BuildingBlock: TEMPAE_clean_linker_10, # of connection points: 2
#     Edge 37, Type (0, 1), BuildingBlock: TEMPAE_clean_linker_10, # of connection points: 2
#     Edge 38, Type (0, 1), BuildingBlock: TEMPAE_clean_linker_10, # of connection points: 2
#     Edge 39, Type (0, 1), BuildingBlock: TEMPAE_clean_linker_10, # of connection points: 2
#     Edge 40, Type (0, 1), BuildingBlock: TEMPAE_clean_linker_10, # of connection points: 2
#     Edge 41, Type (0, 1), BuildingBlock: TEMPAE_clean_linker_10, # of connection points: 2
#     Edge 42, Type (0, 1), BuildingBlock: TEMPAE_clean_linker_10, # of connection points: 2
#     Edge 43, Type (0, 1), BuildingBlock: TEMPAE_clean_linker_10, # of connection points: 2
#     Edge 44, Type (0, 1), BuildingBlock: TEMPAE_clean_linker_10, # of connection points: 2
#     Edge 45, Type (0, 1), BuildingBlock: TEMPAE_clean_linker_10, # of connection points: 2
#     Edge 46, Type (0, 1), BuildingBlock: TEMPAE_clean_linker_10, # of connection points: 2
#     Edge 47, Type (0, 1), BuildingBlock: TEMPAE_clean_linker_10, # of connection points: 2
#     Edge 48, Type (0, 1), BuildingBlock: TEMPAE_clean_linker_10, # of connection points: 2
#     Edge 49, Type (0, 1), BuildingBlock: TEMPAE_clean_linker_10, # of connection points: 2
#     Edge 50, Type (0, 1), BuildingBlock: TEMPAE_clean_linker_10, # of connection points: 2
#     Edge 51, Type (0, 1), BuildingBlock: TEMPAE_clean_linker_10, # of connection points: 2
#     Edge 52, Type (0, 1), BuildingBlock: TEMPAE_clean_linker_10, # of connection points: 2
#     Edge 53, Type (0, 1), BuildingBlock: TEMPAE_clean_linker_10, # of connection points: 2
#     Edge 54, Type (0, 1), BuildingBlock: TEMPAE_clean_linker_10, # of connection points: 2
#     Edge 55, Type (0, 1), BuildingBlock: TEMPAE_clean_linker_10, # of connection points: 2
#     Edge 56, Type (0, 1), BuildingBlock: TEMPAE_clean_linker_10, # of connection points: 2
#     Edge 57, Type (0, 1), BuildingBlock: TEMPAE_clean_linker_10, # of connection points: 2
#     Edge 58, Type (0, 1), BuildingBlock: TEMPAE_clean_linker_10, # of connection points: 2
#     Edge 59, Type (0, 1), BuildingBlock: TEMPAE_clean_linker_10, # of connection points: 2
#     Edge 60, Type (0, 1), BuildingBlock: TEMPAE_clean_linker_10, # of connection points: 2
#     Edge 61, Type (0, 1), BuildingBlock: TEMPAE_clean_linker_10, # of connection points: 2
#     Edge 62, Type (0, 1), BuildingBlock: TEMPAE_clean_linker_10, # of connection points: 2
#     Edge 63, Type (0, 1), BuildingBlock: TEMPAE_clean_linker_10, # of connection points: 2
#     Edge 64, Type (0, 1), BuildingBlock: TEMPAE_clean_linker_10, # of connection points: 2
#     Edge 65, Type (0, 1), BuildingBlock: TEMPAE_clean_linker_10, # of connection points: 2
#     Edge 66, Type (0, 1), BuildingBlock: TEMPAE_clean_linker_10, # of connection points: 2
#     Edge 67, Type (0, 1), BuildingBlock: TEMPAE_clean_linker_10, # of connection points: 2
#     Edge 68, Type (0, 1), BuildingBlock: TEMPAE_clean_linker_10, # of connection points: 2
#     Edge 69, Type (0, 1), BuildingBlock: TEMPAE_clean_linker_10, # of connection points: 2
#     Edge 70, Type (0, 1), BuildingBlock: TEMPAE_clean_linker_10, # of connection points: 2
#     Edge 71, Type (0, 1), BuildingBlock: TEMPAE_clean_linker_10, # of connection points: 2
#     Edge 72, Type (0, 1), BuildingBlock: TEMPAE_clean_linker_10, # of connection points: 2
#     Edge 73, Type (0, 1), BuildingBlock: TEMPAE_clean_linker_10, # of connection points: 2
#     Edge 74, Type (0, 1), BuildingBlock: TEMPAE_clean_linker_10, # of connection points: 2
#     Edge 75, Type (0, 1), BuildingBlock: TEMPAE_clean_linker_10, # of connection points: 2
#     Edge 76, Type (0, 1), BuildingBlock: TEMPAE_clean_linker_10, # of connection points: 2
#     Edge 77, Type (0, 1), BuildingBlock: TEMPAE_clean_linker_10, # of connection points: 2
#     Edge 78, Type (0, 1), BuildingBlock: TEMPAE_clean_linker_10, # of connection points: 2
#     Edge 79, Type (0, 1), BuildingBlock: TEMPAE_clean_linker_10, # of connection points: 2
#     Edge 80, Type (0, 1), BuildingBlock: TEMPAE_clean_linker_10, # of connection points: 2
# Relax obj value: 0.057
# Max RMSD: 0.207
# Mean RMSD: 0.146
data_MOF--net-eea--node1-NUHQIS_clean_sbu_0--node2-PAMTOO_clean_linker_0--edge1-TEMPAE_clean_linker_10
_symmetry_space_group_name_H-M    P1
_symmetry_Int_Tables_number       1
_symmetry_cell_setting            triclinic
loop_
_symmetry_equiv_pos_as_xyz
'x, y, z'
_cell_length_a     55.589969
_cell_length_b     56.142184
_cell_length_c     69.018777
_cell_angle_alpha  93.133956
_cell_angle_beta   93.605822
_cell_angle_gamma 119.8615
loop_
_atom_site_label
_atom_site_type_symbol
_atom_site_fract_x
_atom_site_fract_y
_atom_site_fract_z
_atom_type_partial_charge
H0 H 0.25379 0.08125 0.43454 0.0
H1 H 0.25287 0.15748 0.43337 0.0
H2 H 0.22311 0.10003 0.38214 0.0
H3 H 0.24967 0.15709 0.37215 0.0
C4 C 0.2491 0.16709 0.38633 0.0
O5 O 0.23092 0.14727 0.39727 0.0
H6 H 0.27058 0.17811 0.39407 0.0
C7 C 0.24945 0.09517 0.42676 0.0
C8 C 0.23813 0.08768 0.40714 0.0
C9 C 0.2549 0.12031 0.43645 0.0
C10 C 0.24882 0.13796 0.42625 0.0
C11 C 0.23756 0.13062 0.40672 0.0
C12 C 0.23226 0.10562 0.39718 0.0
H13 H 0.94061 0.17373 0.43668 0.0
H14 H 0.86622 0.09335 0.429 0.0
H15 H 0.92082 0.12007 0.38389 0.0
H16 H 0.86205 0.08274 0.36681 0.0
C17 C 0.85351 0.07606 0.38092 0.0
O18 O 0.87478 0.07992 0.39449 0.0
H19 H 0.84434 0.08884 0.38569 0.0
C20 C 0.92709 0.15416 0.42808 0.0
C21 C 0.9338 0.14934 0.40949 0.0
C22 C 0.90252 0.13427 0.43527 0.0
C23 C 0.88497 0.10924 0.42369 0.0
C24 C 0.89159 0.10428 0.40525 0.0
C25 C 0.91586 0.12426 0.39816 0.0
H26 H 0.84045 0.75925 0.44613 0.0
H27 H 0.92267 0.76939 0.44763 0.0
H28 H 0.89299 0.79912 0.40121 0.0
H29 H 0.92342 0.77349 0.38743 0.0
C30 C 0.93639 0.77563 0.40108 0.0
O31 O 0.93435 0.79289 0.4151 0.0
H32 H 0.92819 0.75473 0.40617 0.0
C33 C 0.8599 0.76621 0.43972 0.0
C34 C 0.86406 0.77953 0.42256 0.0
C35 C 0.88102 0.76277 0.44907 0.0
C36 C 0.90633 0.77228 0.44081 0.0
C37 C 0.91045 0.78502 0.42345 0.0
C38 C 0.88956 0.78911 0.41457 0.0
H39 H 0.07131 0.24225 0.59727 0.0
H40 H 0.1409 0.22861 0.59843 0.0
H41 H 0.08633 0.20071 0.64335 0.0
H42 H 0.1478 0.22881 0.65785 0.0
C43 C 0.15521 0.22474 0.64413 0.0
O44 O 0.13231 0.20657 0.63132 0.0
H45 H 0.16748 0.24463 0.63775 0.0
C46 C 0.08301 0.23363 0.60398 0.0
C47 C 0.07504 0.22054 0.62122 0.0
C48 C 0.10645 0.23636 0.59543 0.0
C49 C 0.12272 0.22674 0.6047 0.0
C50 C 0.11574 0.21465 0.62217 0.0
C51 C 0.09179 0.21109 0.63021 0.0
H52 H 0.75902 0.82901 0.61325 0.0
H53 H 0.76716 0.90953 0.61952 0.0
H54 H 0.79057 0.87901 0.66847 0.0
H55 H 0.76889 0.92104 0.68049 0.0
C56 C 0.76909 0.92623 0.66517 0.0
O57 O 0.78729 0.92047 0.65609 0.0
H58 H 0.74751 0.91366 0.65769 0.0
C59 C 0.76489 0.848 0.62213 0.0
C60 C 0.77532 0.85145 0.64179 0.0
C61 C 0.76155 0.86866 0.61396 0.0
C62 C 0.76894 0.89303 0.62564 0.0
C63 C 0.77907 0.89648 0.64526 0.0
C64 C 0.78207 0.87572 0.65337 0.0
H65 H 0.16333 0.9133 0.59498 0.0
H66 H 0.08455 0.83759 0.59289 0.0
H67 H 0.11266 0.89758 0.6426 0.0
H68 H 0.08379 0.84148 0.65309 0.0
C69 C 0.07095 0.8305 0.63905 0.0
O70 O 0.07242 0.84952 0.62663 0.0
H71 H 0.07949 0.81807 0.63248 0.0
C72 C 0.14479 0.89973 0.60171 0.0
C73 C 0.14084 0.90837 0.62013 0.0
C74 C 0.12469 0.87428 0.59162 0.0
C75 C 0.10025 0.85744 0.60023 0.0
C76 C 0.096 0.86592 0.61853 0.0
C77 C 0.11614 0.89138 0.62839 0.0
H78 H 0.92895 0.42629 0.76435 0.0
H79 H 0.93171 0.50361 0.75807 0.0
H80 H 0.89801 0.44057 0.7101 0.0
H81 H 0.92468 0.49449 0.69649 0.0
C82 C 0.92492 0.50691 0.7097 0.0
O83 O 0.9077 0.48958 0.72237 0.0
H84 H 0.94677 0.51909 0.71674 0.0
C85 C 0.92563 0.43994 0.75547 0.0
C86 C 0.91338 0.43046 0.73614 0.0
C87 C 0.93229 0.46627 0.7637 0.0
C88 C 0.92673 0.4832 0.75217 0.0
C89 C 0.91437 0.47381 0.73295 0.0
C90 C 0.90763 0.44753 0.72499 0.0
H91 H 0.6044 0.50909 0.77043 0.0
H92 H 0.53229 0.42746 0.76676 0.0
H93 H 0.58595 0.45019 0.72098 0.0
H94 H 0.52308 0.41151 0.70644 0.0
C95 C 0.51683 0.40502 0.72111 0.0
O96 O 0.54039 0.41102 0.73311 0.0
H97 H 0.50683 0.41649 0.72691 0.0
C98 C 0.59125 0.48872 0.76276 0.0
C99 C 0.59826 0.48201 0.74484 0.0
C100 C 0.56742 0.46923 0.77084 0.0
C101 C 0.55059 0.44292 0.76073 0.0
C102 C 0.55715 0.43625 0.74276 0.0
C103 C 0.58103 0.45564 0.7349 0.0
H104 H 0.51092 0.09709 0.78 0.0
H105 H 0.5926 0.10685 0.77925 0.0
H106 H 0.56065 0.13511 0.73324 0.0
H107 H 0.58858 0.10434 0.7202 0.0
C108 C 0.60406 0.11009 0.73315 0.0
O109 O 0.60217 0.1287 0.74601 0.0
H110 H 0.59921 0.09112 0.74031 0.0
C111 C 0.52999 0.10423 0.77307 0.0
C112 C 0.53305 0.11696 0.75569 0.0
C113 C 0.55137 0.10071 0.78178 0.0
C114 C 0.576 0.10964 0.7728 0.0
C115 C 0.57895 0.1214 0.75508 0.0
C116 C 0.5577 0.12532 0.74667 0.0
H117 H 0.72206 0.55881 0.92381 0.0
H118 H 0.79633 0.55237 0.92724 0.0
H119 H 0.74464 0.52928 0.97418 0.0
H120 H 0.80458 0.55348 0.98851 0.0
C121 C 0.81205 0.55229 0.97412 0.0
O122 O 0.78977 0.53333 0.96122 0.0
H123 H 0.82142 0.57319 0.96885 0.0
C124 C 0.73606 0.55348 0.93152 0.0
C125 C 0.73042 0.54363 0.94995 0.0
C126 C 0.75986 0.55684 0.92314 0.0
C127 C 0.77771 0.54969 0.93328 0.0
C128 C 0.77222 0.53985 0.95161 0.0
C129 C 0.7487 0.53691 0.95996 0.0
H130 H 0.41907 0.16557 0.94746 0.0
H131 H 0.42556 0.24555 0.95379 0.0
H132 H 0.46084 0.22036 0.99973 0.0
H133 H 0.44184 0.25811 0.0163 0.0
C134 C 0.43687 0.26328 1.00182 0.0
O135 O 0.45262 0.25973 0.98854 0.0
H136 H 0.41415 0.24923 0.99741 0.0
C137 C 0.4255 0.18495 0.95601 0.0
C138 C 0.44008 0.19046 0.97456 0.0
C139 C 0.42048 0.20485 0.94812 0.0
C140 C 0.42955 0.23004 0.95937 0.0
C141 C 0.44384 0.23542 0.97795 0.0
C142 C 0.44945 0.21586 0.98542 0.0
H143 H 0.82951 0.25677 0.93022 0.0
H144 H 0.75329 0.17851 0.92778 0.0
H145 H 0.77935 0.23689 0.97833 0.0
H146 H 0.75413 0.18063 0.98786 0.0
C147 C 0.74033 0.16952 0.97418 0.0
O148 O 0.74068 0.18833 0.96199 0.0
H149 H 0.7483 0.15701 0.9669 0.0
C150 C 0.81118 0.24244 0.93683 0.0
C151 C 0.8069 0.24991 0.95549 0.0
C152 C 0.79211 0.2167 0.92665 0.0
C153 C 0.76828 0.19849 0.93531 0.0
C154 C 0.76383 0.2058 0.95391 0.0
C155 C 0.78311 0.2314 0.964 0.0
H156 H 0.59203 0.75872 0.1 0.0
H157 H 0.59481 0.83626 0.09481 0.0
H158 H 0.56087 0.77407 0.04629 0.0
H159 H 0.58746 0.82984 0.03334 0.0
C160 C 0.58799 0.84126 0.0472 0.0
O161 O 0.57055 0.82287 0.05926 0.0
H162 H 0.60987 0.85261 0.05423 0.0
C163 C 0.58831 0.77242 0.09145 0.0
C164 C 0.57619 0.76341 0.07206 0.0
C165 C 0.59527 0.79872 0.09993 0.0
C166 C 0.58973 0.81592 0.0887 0.0
C167 C 0.57741 0.80694 0.06945 0.0
C168 C 0.5708 0.78087 0.06112 0.0
H169 H 0.26889 0.84465 0.09787 0.0
H170 H 0.1962 0.76308 0.09093 0.0
H171 H 0.25431 0.78791 0.04796 0.0
H172 H 0.19709 0.74898 0.0291 0.0
C173 C 0.18734 0.74384 0.04299 0.0
O174 O 0.20737 0.74823 0.05782 0.0
H175 H 0.17846 0.75749 0.04588 0.0
C176 C 0.25617 0.82459 0.08967 0.0
C177 C 0.26457 0.81872 0.07211 0.0
C178 C 0.23159 0.80462 0.09674 0.0
C179 C 0.21516 0.77887 0.08577 0.0
C180 C 0.22335 0.77302 0.06823 0.0
C181 C 0.24816 0.79272 0.06156 0.0
H182 H 0.17408 0.43883 0.11514 0.0
H183 H 0.25199 0.43937 0.11578 0.0
H184 H 0.2251 0.46928 0.06798 0.0
H185 H 0.25322 0.4398 0.05599 0.0
C186 C 0.26655 0.44305 0.06971 0.0
O187 O 0.26498 0.46149 0.08291 0.0
H188 H 0.25862 0.42281 0.07582 0.0
C189 C 0.19283 0.44326 0.10845 0.0
C190 C 0.19718 0.45459 0.09051 0.0
C191 C 0.21228 0.43738 0.11771 0.0
C192 C 0.2367 0.44374 0.10896 0.0
C193 C 0.24129 0.45522 0.09108 0.0
C194 C 0.22145 0.46045 0.08181 0.0
H195 H 0.39319 0.89225 0.25582 0.0
H196 H 0.46744 0.88572 0.25911 0.0
H197 H 0.41364 0.85896 0.30477 0.0
H198 H 0.47319 0.88311 0.32015 0.0
C199 C 0.48143 0.88277 0.30593 0.0
O200 O 0.45972 0.86457 0.29234 0.0
H201 H 0.49121 0.90408 0.30135 0.0
C202 C 0.40675 0.88608 0.26314 0.0
C203 C 0.40028 0.87476 0.28105 0.0
C204 C 0.43119 0.8906 0.25513 0.0
C205 C 0.44876 0.88295 0.26511 0.0
C206 C 0.44246 0.87165 0.28294 0.0
C207 C 0.41834 0.86769 0.29094 0.0
H208 H 0.08798 0.49584 0.28074 0.0
H209 H 0.09393 0.57555 0.28667 0.0
H210 H 0.1261 0.54947 0.33394 0.0
H211 H 0.10553 0.58709 0.34947 0.0
C212 C 0.10143 0.59217 0.33473 0.0
O213 O 0.11824 0.58887 0.32228 0.0
H214 H 0.07894 0.57795 0.32965 0.0
C215 C 0.09413 0.51515 0.28929 0.0
C216 C 0.10739 0.52026 0.30825 0.0
C217 C 0.08936 0.53505 0.28121 0.0
C218 C 0.0972 0.5598 0.29262 0.0
C219 C 0.11019 0.56479 0.31162 0.0
C220 C 0.11563 0.54524 0.31933 0.0
H221 H 0.49752 0.58466 0.26676 0.0
H222 H 0.4218 0.50629 0.26637 0.0
H223 H 0.44976 0.56623 0.3161 0.0
H224 H 0.42354 0.51019 0.32671 0.0
C225 C 0.40993 0.49888 0.313 0.0
O226 O 0.41035 0.51749 0.30059 0.0
H227 H 0.41808 0.48635 0.30601 0.0
C228 C 0.47968 0.57045 0.27384 0.0
C229 C 0.47624 0.57845 0.29263 0.0
C230 C 0.46033 0.54439 0.26416 0.0
C231 C 0.43705 0.52649 0.27346 0.0
C232 C 0.43332 0.53443 0.29211 0.0
C233 C 0.45294 0.56026 0.30172 0.0
Tb234 Tb 0.48713 0.99457 0.9981 0.0
Eu235 Eu 0.50486 0.01733 0.04508 0.0
C236 C 0.51211 0.96914 0.02662 0.0
C237 C 0.4447 0.96612 0.02895 0.0
C238 C 0.48648 0.99331 0.94414 0.0
C239 C 0.52405 0.01864 0.92404 0.0
C240 C 0.51488 0.006 0.94109 0.0
C241 C 0.46759 0.99385 0.92996 0.0
C242 C 0.47682 0.00677 0.91302 0.0
C243 C 0.50511 0.01913 0.90984 0.0
C244 C 0.47622 0.97944 0.96191 0.0
O245 O 0.47065 0.02181 1.00404 0.0
O246 O 0.50044 0.04992 0.03052 0.0
O247 O 0.54429 0.037 0.03019 0.0
O248 O 0.52526 0.03419 0.99901 0.0
C249 C 0.48252 0.04508 0.01543 0.0
O250 O 0.49822 0.03462 0.07193 0.0
O251 O 0.53136 0.02488 0.07203 0.0
O252 O 0.50215 0.97611 0.04118 0.0
O253 O 0.51397 0.97991 1.01001 0.0
O254 O 0.45439 0.96252 0.01281 0.0
O255 O 0.45865 0.98849 0.04115 0.0
C256 C 0.54682 0.04428 1.01231 0.0
O257 O 0.49377 0.97623 0.97327 0.0
O258 O 0.46186 0.9873 0.97189 0.0
C259 C 0.50695 0.01681 0.09979 0.0
C260 C 0.48788 0.98793 0.13282 0.0
C261 C 0.50601 0.01671 0.13488 0.0
C262 C 0.51548 0.03102 0.11848 0.0
C263 C 0.48877 0.98814 0.0976 0.0
C264 C 0.47933 0.9738 0.11398 0.0
C265 C 0.51677 0.03189 0.08258 0.0
H266 H 0.54601 0.02827 0.92204 0.0
H267 H 0.53005 0.00617 0.95183 0.0
H268 H 0.44562 0.9842 0.93197 0.0
H269 H 0.46175 0.00667 0.90222 0.0
H270 H 0.51321 0.02813 0.1492 0.0
H271 H 0.52949 0.05316 0.1204 0.0
H272 H 0.48187 0.97687 0.08322 0.0
H273 H 0.46512 0.95171 0.11189 0.0
Tb274 Tb 0.00676 0.48872 0.99976 0.0
Eu275 Eu 0.9903 0.48961 0.04461 0.0
C276 C 0.03661 0.5427 0.02792 0.0
C277 C 0.03969 0.47873 0.03425 0.0
C278 C 0.01023 0.49214 0.94584 0.0
C279 C 0.02133 0.50313 0.91287 0.0
C280 C 0.02941 0.5007 0.9319 0.0
C281 C 0.98311 0.4871 0.94076 0.0
C282 C 0.97494 0.4893 0.92167 0.0
C283 C 0.99383 0.49683 0.90745 0.0
C284 C 0.0183 0.48671 0.96507 0.0
O285 O 0.98374 0.44664 1.00776 0.0
O286 O 0.95506 0.4527 0.02679 0.0
O287 O 0.9691 0.50804 0.02742 0.0
O288 O 0.96865 0.49094 0.99624 0.0
C289 C 0.9596 0.43682 0.01485 0.0
O290 O 0.97322 0.46788 0.06997 0.0
O291 O 0.98624 0.51134 0.07023 0.0
O292 O 0.03152 0.52788 0.04278 0.0
O293 O 0.02274 0.53157 1.01067 0.0
O294 O 0.04101 0.49011 0.01791 0.0
O295 O 0.01884 0.47187 0.04492 0.0
C296 C 0.95983 0.50262 1.00881 0.0
O297 O 0.03289 0.50795 0.97789 0.0
O298 O 0.9989 0.46591 0.97277 0.0
C299 C 0.99043 0.49523 0.10066 0.0
C300 C 0.01231 0.5045 0.14011 0.0
C301 C 0.00607 0.48021 0.12873 0.0
C302 C 0.99525 0.47561 0.1092 0.0
C303 C 0.99674 0.51954 0.11204 0.0
C304 C 0.00771 0.5242 0.13153 0.0
C305 C 0.97755 0.49008 0.08035 0.0
H306 H 0.03624 0.50875 0.90217 0.0
H307 H 0.0504 0.50467 0.93557 0.0
H308 H 0.96803 0.48067 0.95136 0.0
H309 H 0.95371 0.4846 0.91793 0.0
H310 H 0.00967 0.4648 0.13493 0.0
H311 H 0.99047 0.45658 0.10087 0.0
H312 H 0.99288 0.53484 0.10592 0.0
H313 H 0.01201 0.54296 0.14002 0.0
Tb314 Tb 0.52025 0.51879 0.03783 0.0
Eu315 Eu 0.49808 0.51734 0.99227 0.0
C316 C 0.49089 0.46422 1.01058 0.0
C317 C 0.55908 0.52696 1.00462 0.0
C318 C 0.52343 0.51754 0.09166 0.0
C319 C 0.52297 0.50836 0.12564 0.0
C320 C 0.53374 0.5098 0.10769 0.0
C321 C 0.50157 0.52297 0.09359 0.0
C322 C 0.49093 0.52172 0.11155 0.0
C323 C 0.50183 0.51483 0.12784 0.0
C324 C 0.53643 0.52118 0.07332 0.0
O325 O 0.53985 0.56056 0.02921 0.0
O326 O 0.50338 0.55531 1.00901 0.0
O327 O 0.45986 0.50052 1.00845 0.0
O328 O 0.48094 0.51821 0.03973 0.0
C329 C 0.52555 0.57094 0.02123 0.0
O330 O 0.50031 0.53926 0.96677 0.0
O331 O 0.47152 0.4952 0.96525 0.0
O332 O 0.49971 0.47854 0.99559 0.0
O333 O 0.49051 0.4761 0.02736 0.0
O334 O 0.55045 0.51556 0.02083 0.0
O335 O 0.54446 0.53455 0.99359 0.0
C336 C 0.45862 0.50643 0.02695 0.0
O337 O 0.52701 0.49923 0.06107 0.0
O338 O 0.53977 0.54241 0.06455 0.0
C339 C 0.49293 0.51285 0.93657 0.0
C340 C 0.51078 0.50487 0.90058 0.0
C341 C 0.52612 0.5301 0.91231 0.0
C342 C 0.51731 0.53406 0.93011 0.0
C343 C 0.47744 0.48773 0.92473 0.0
C344 C 0.48633 0.48374 0.90697 0.0
C345 C 0.48346 0.51675 0.95546 0.0
H346 H 0.53191 0.5032 0.13798 0.0
H347 H 0.55059 0.50552 0.10644 0.0
H348 H 0.49321 0.52884 0.08135 0.0
H349 H 0.47442 0.52651 0.11277 0.0
H350 H 0.54516 0.54668 0.90783 0.0
H351 H 0.52973 0.55373 0.93881 0.0
H352 H 0.45842 0.47113 0.92921 0.0
H353 H 0.47387 0.4642 0.89811 0.0
Tb354 Tb 0.15539 0.32388 0.33283 0.0
Eu355 Eu 0.17061 0.34744 0.37954 0.0
C356 C 0.17789 0.29821 0.36322 0.0
C357 C 0.11115 0.2967 0.36255 0.0
C358 C 0.15326 0.3216 0.27863 0.0
C359 C 0.18419 0.33849 0.25298 0.0
C360 C 0.17707 0.32541 0.27007 0.0
C361 C 0.1365 0.33087 0.26953 0.0
C362 C 0.1436 0.3439 0.25237 0.0
C363 C 0.16754 0.34787 0.24389 0.0
C364 C 0.14605 0.30776 0.29682 0.0
O365 O 0.13962 0.35218 0.33666 0.0
O366 O 0.16741 0.3799 0.36402 0.0
O367 O 0.21087 0.36632 0.36559 0.0
O368 O 0.19327 0.36379 0.33411 0.0
C369 C 0.15049 0.37517 0.34833 0.0
O370 O 0.16231 0.36459 0.4057 0.0
O371 O 0.19693 0.35701 0.40689 0.0
O372 O 0.16769 0.30603 0.37719 0.0
O373 O 0.18054 0.3083 0.34628 0.0
O374 O 0.12268 0.29208 0.34782 0.0
O375 O 0.12413 0.3199 0.37399 0.0
C376 C 0.21432 0.37375 0.34779 0.0
O377 O 0.16681 0.30996 0.30818 0.0
O378 O 0.12837 0.31068 0.30682 0.0
C379 C 0.17312 0.35045 0.4348 0.0
C380 C 0.15735 0.32495 0.46947 0.0
C381 C 0.17575 0.35358 0.47013 0.0
C382 C 0.18356 0.3662 0.45291 0.0
C383 C 0.15469 0.32191 0.434 0.0
C384 C 0.14687 0.30925 0.45121 0.0
C385 C 0.18172 0.36384 0.41684 0.0
H386 H 0.20295 0.34149 0.24699 0.0
H387 H 0.19034 0.31836 0.27661 0.0
H388 H 0.11786 0.32801 0.27561 0.0
H389 H 0.13008 0.35049 0.24559 0.0
H390 H 0.18444 0.36617 0.48396 0.0
H391 H 0.19789 0.38825 0.45375 0.0
H392 H 0.14639 0.30947 0.42007 0.0
H393 H 0.13243 0.28723 0.45021 0.0
Tb394 Tb 0.67572 0.81883 0.33402 0.0
Eu395 Eu 0.659 0.8211 0.37863 0.0
C396 C 0.70647 0.8733 0.36194 0.0
C397 C 0.7083 0.80892 0.36917 0.0
C398 C 0.67876 0.82274 0.28036 0.0
C399 C 0.68893 0.83358 0.24724 0.0
C400 C 0.69729 0.83044 0.26599 0.0
C401 C 0.65215 0.81936 0.27603 0.0
C402 C 0.64369 0.82222 0.25723 0.0
C403 C 0.66182 0.8288 0.24256 0.0
C404 C 0.68679 0.81648 0.29926 0.0
O405 O 0.65287 0.777 0.34237 0.0
O406 O 0.62411 0.78341 0.36109 0.0
O407 O 0.63898 0.84018 0.36093 0.0
O408 O 0.63751 0.82094 0.33032 0.0
C409 C 0.62878 0.76727 0.34949 0.0
O410 O 0.64084 0.79984 0.40391 0.0
O411 O 0.65505 0.84355 0.40389 0.0
O412 O 0.70073 0.8587 0.37693 0.0
O413 O 0.69289 0.86208 0.34463 0.0
O414 O 0.70891 0.81793 0.35189 0.0
O415 O 0.68867 0.80478 0.38049 0.0
C416 C 0.62927 0.83373 0.34241 0.0
O417 O 0.70222 0.83738 0.3122 0.0
O418 O 0.66696 0.796 0.30694 0.0
C419 C 0.65909 0.82755 0.43434 0.0
C420 C 0.68281 0.83738 0.47332 0.0
C421 C 0.67692 0.81335 0.46176 0.0
C422 C 0.66521 0.80849 0.44244 0.0
C423 C 0.66499 0.85156 0.44592 0.0
C424 C 0.67688 0.85651 0.46519 0.0
C425 C 0.64586 0.8224 0.41415 0.0
H426 H 0.70323 0.83845 0.23616 0.0
H427 H 0.7179 0.83316 0.2691 0.0
H428 H 0.6376 0.81364 0.28698 0.0
H429 H 0.62277 0.81869 0.25403 0.0
H430 H 0.68152 0.79839 0.46763 0.0
H431 H 0.66089 0.78975 0.43392 0.0
H432 H 0.66021 0.86644 0.4401 0.0
H433 H 0.68093 0.87505 0.47386 0.0
Tb434 Tb 0.18809 0.84837 0.36642 0.0
Eu435 Eu 0.16517 0.84624 0.32088 0.0
C436 C 0.15699 0.79324 0.33984 0.0
C437 C 0.22602 0.85508 0.33287 0.0
C438 C 0.19162 0.84805 0.42024 0.0
C439 C 0.18983 0.83767 0.45399 0.0
C440 C 0.2007 0.83893 0.43609 0.0
C441 C 0.17091 0.85511 0.42231 0.0
C442 C 0.16018 0.85404 0.4402 0.0
C443 C 0.16983 0.84569 0.45631 0.0
C444 C 0.20456 0.85113 0.40189 0.0
O445 O 0.20803 0.88987 0.35734 0.0
O446 O 0.17141 0.88474 0.3374 0.0
O447 O 0.12742 0.83075 0.33758 0.0
O448 O 0.1494 0.84895 0.3686 0.0
C449 C 0.19379 0.90036 0.34943 0.0
O450 O 0.16682 0.86787 0.29533 0.0
O451 O 0.13828 0.82377 0.29403 0.0
O452 O 0.16582 0.80703 0.32462 0.0
O453 O 0.15729 0.80579 0.35652 0.0
O454 O 0.21753 0.84406 0.34922 0.0
O455 O 0.21144 0.86269 0.32179 0.0
C456 C 0.1268 0.8373 0.35608 0.0
O457 O 0.19473 0.82895 0.38981 0.0
O458 O 0.20833 0.87235 0.39291 0.0
C459 C 0.15854 0.84145 0.26497 0.0
C460 C 0.17446 0.834 0.22803 0.0
C461 C 0.19061 0.85889 0.24003 0.0
C462 C 0.18276 0.86259 0.25829 0.0
C463 C 0.1423 0.81663 0.25292 0.0
C464 C 0.15025 0.81289 0.23469 0.0
C465 C 0.14975 0.84529 0.28416 0.0
H466 H 0.19778 0.83135 0.46621 0.0
H467 H 0.21664 0.83335 0.43475 0.0
H468 H 0.16347 0.86205 0.41021 0.0
H469 H 0.14455 0.86003 0.44152 0.0
H470 H 0.20952 0.87543 0.23537 0.0
H471 H 0.19573 0.88204 0.26713 0.0
H472 H 0.12338 0.80011 0.25757 0.0
H473 H 0.1372 0.79361 0.22567 0.0
Tb474 Tb 0.81578 0.65698 0.66545 0.0
Eu475 Eu 0.83904 0.67749 0.71203 0.0
C476 C 0.84303 0.62937 0.68956 0.0
C477 C 0.77698 0.62698 0.69797 0.0
C478 C 0.81029 0.65606 0.61113 0.0
C479 C 0.84895 0.67909 0.59146 0.0
C480 C 0.83871 0.66732 0.60865 0.0
C481 C 0.79236 0.65678 0.59626 0.0
C482 C 0.80261 0.66879 0.57923 0.0
C483 C 0.83101 0.68018 0.57668 0.0
C484 C 0.799 0.64497 0.62942 0.0
O485 O 0.79765 0.68023 0.67767 0.0
O486 O 0.83481 0.71086 0.69865 0.0
O487 O 0.87685 0.69648 0.69553 0.0
O488 O 0.85556 0.69504 0.66543 0.0
C489 C 0.8127 0.70492 0.68699 0.0
O490 O 0.83672 0.69652 0.73969 0.0
O491 O 0.86645 0.68236 0.73782 0.0
O492 O 0.83517 0.63616 0.70542 0.0
O493 O 0.8429 0.64057 0.67335 0.0
O494 O 0.78418 0.62436 0.6805 0.0
O495 O 0.79286 0.64841 0.71069 0.0
C496 C 0.87807 0.70414 0.67778 0.0
O497 O 0.81041 0.63323 0.63913 0.0
O498 O 0.79441 0.6611 0.64088 0.0
C499 C 0.84467 0.67692 0.76673 0.0
C500 C 0.82454 0.64935 0.80012 0.0
C501 C 0.84379 0.6779 0.80184 0.0
C502 C 0.85376 0.69155 0.78527 0.0
C503 C 0.82547 0.64848 0.76486 0.0
C504 C 0.81551 0.63479 0.78142 0.0
C505 C 0.85442 0.6915 0.74933 0.0
H506 H 0.87097 0.68793 0.58991 0.0
H507 H 0.85302 0.66735 0.62008 0.0
H508 H 0.77042 0.64837 0.59795 0.0
H509 H 0.78829 0.66914 0.56801 0.0
H510 H 0.85084 0.68981 0.81598 0.0
H511 H 0.86838 0.71357 0.78692 0.0
H512 H 0.81814 0.63689 0.75059 0.0
H513 H 0.80095 0.61277 0.77957 0.0
Tb514 Tb 0.34386 0.15397 0.67039 0.0
Eu515 Eu 0.3203 0.14555 0.71352 0.0
C516 C 0.37162 0.20227 0.70355 0.0
C517 C 0.37177 0.13847 0.70463 0.0
C518 C 0.34982 0.15851 0.6172 0.0
C519 C 0.3566 0.16613 0.58327 0.0
C520 C 0.36758 0.1684 0.60247 0.0
C521 C 0.32094 0.14651 0.61264 0.0
C522 C 0.30991 0.14414 0.5934 0.0
C523 C 0.32765 0.15388 0.57851 0.0
C524 C 0.36173 0.16097 0.63724 0.0
O525 O 0.30306 0.1169 0.66579 0.0
O526 O 0.3008 0.10351 0.69668 0.0
O527 O 0.28767 0.14614 0.69309 0.0
O528 O 0.31662 0.17167 0.67085 0.0
C529 C 0.29248 0.09786 0.67791 0.0
O530 O 0.30874 0.12221 0.73885 0.0
O531 O 0.30364 0.15794 0.73741 0.0
O532 O 0.34841 0.19131 0.71199 0.0
O533 O 0.37607 0.18785 0.69015 0.0
O534 O 0.36226 0.1332 0.68607 0.0
O535 O 0.36226 0.14883 0.7175 0.0
C536 C 0.293 0.16195 0.6788 0.0
O537 O 0.36303 0.18061 0.64901 0.0
O538 O 0.35261 0.13798 0.64535 0.0
C539 C 0.31476 0.14826 0.76839 0.0
C540 C 0.33777 0.16385 0.80763 0.0
C541 C 0.30868 0.14921 0.80286 0.0
C542 C 0.29729 0.14146 0.78338 0.0
C543 C 0.34378 0.16322 0.773 0.0
C544 C 0.35521 0.17094 0.79248 0.0
C545 C 0.3025 0.13899 0.74808 0.0
H546 H 0.37074 0.17349 0.57207 0.0
H547 H 0.38993 0.17774 0.60581 0.0
H548 H 0.30698 0.13893 0.62394 0.0
H549 H 0.28755 0.13485 0.5902 0.0
H550 H 0.29471 0.14318 0.8142 0.0
H551 H 0.27483 0.12984 0.78003 0.0
H552 H 0.35755 0.16868 0.76153 0.0
H553 H 0.37769 0.18248 0.79569 0.0
Tb554 Tb 0.85694 0.18183 0.70336 0.0
Eu555 Eu 0.83707 0.18409 0.65779 0.0
C556 C 0.83164 0.12941 0.67372 0.0
C557 C 0.89687 0.19316 0.67071 0.0
C558 C 0.86139 0.18291 0.75717 0.0
C559 C 0.85975 0.17635 0.7916 0.0
C560 C 0.86963 0.17448 0.77379 0.0
C561 C 0.84309 0.19321 0.75846 0.0
C562 C 0.83328 0.19522 0.77629 0.0
C563 C 0.84147 0.18674 0.79304 0.0
C564 C 0.87113 0.17988 0.73844 0.0
O565 O 0.85144 0.21738 0.7037 0.0
O566 O 0.86149 0.22754 0.67261 0.0
O567 O 0.80384 0.18326 0.67523 0.0
O568 O 0.81172 0.16347 0.70141 0.0
C569 C 0.85965 0.23504 0.69055 0.0
O570 O 0.84603 0.20693 0.63217 0.0
O571 O 0.80863 0.16692 0.63093 0.0
O572 O 0.81926 0.13929 0.66267 0.0
O573 O 0.85222 0.1454 0.68709 0.0
O574 O 0.89464 0.20145 0.68833 0.0
O575 O 0.87528 0.18017 0.65758 0.0
C576 C 0.79583 0.1703 0.69096 0.0
O577 O 0.85338 0.15832 0.72674 0.0
O578 O 0.88309 0.202 0.72928 0.0
C579 C 0.8313 0.17949 0.60225 0.0
C580 C 0.84682 0.16856 0.56615 0.0
C581 C 0.83003 0.18074 0.56712 0.0
C582 C 0.82238 0.18618 0.58503 0.0
C583 C 0.84768 0.16695 0.6014 0.0
C584 C 0.85534 0.16148 0.58349 0.0
C585 C 0.82482 0.18714 0.6211 0.0
H586 H 0.86668 0.16999 0.80429 0.0
H587 H 0.88365 0.16637 0.77298 0.0
H588 H 0.83629 0.19954 0.74567 0.0
H589 H 0.81902 0.20304 0.77692 0.0
H590 H 0.82279 0.18609 0.55403 0.0
H591 H 0.80978 0.19594 0.58546 0.0
H592 H 0.85493 0.16185 0.61462 0.0
H593 H 0.8685 0.15234 0.58328 0.0
C594 C 0.2946 0.86601 0.06218 0.0
C595 C 0.2905 0.83973 0.06479 0.0
C596 C 0.31913 0.88615 0.05528 0.0
C597 C 0.34026 0.88 0.05135 0.0
C598 C 0.33616 0.85342 0.05397 0.0
C599 C 0.31115 0.83348 0.06046 0.0
C600 C 0.32251 0.91407 0.05233 0.0
C601 C 0.35845 0.84628 0.05038 0.0
C602 C 0.39676 0.92537 0.0201 0.0
C603 C 0.418 0.94382 0.03438 0.0
C604 C 0.37118 0.90457 0.02538 0.0
C605 C 0.36717 0.90178 0.04539 0.0
C606 C 0.38884 0.92001 0.05983 0.0
C607 C 0.41384 0.94101 0.05415 0.0
C608 C 0.34832 0.88585 1.00959 0.0
C609 C 0.3857 0.91733 0.08132 0.0
H610 H 0.27846 0.87068 0.06537 0.0
H611 H 0.30797 0.81316 0.06261 0.0
H612 H 0.34015 0.93022 0.06244 0.0
H613 H 0.32756 0.91915 0.03726 0.0
H614 H 0.30343 0.91496 0.05488 0.0
H615 H 0.35179 0.82454 0.05278 0.0
H616 H 0.36398 0.84962 0.03521 0.0
H617 H 0.37764 0.8601 0.06026 0.0
H618 H 0.39992 0.92759 1.00482 0.0
H619 H 0.43037 0.95503 0.06525 0.0
H620 H 0.32949 0.88756 1.01124 0.0
H621 H 0.34232 0.86404 1.01098 0.0
H622 H 0.35466 0.89089 0.99473 0.0
H623 H 0.36847 0.92061 0.08529 0.0
H624 H 0.40504 0.93239 0.09067 0.0
H625 H 0.38018 0.89618 0.08463 0.0
C626 C 0.16808 0.47697 0.09071 0.0
C627 C 0.17592 0.45981 0.0809 0.0
C628 C 0.14661 0.48068 0.08243 0.0
C629 C 0.13218 0.46629 0.06413 0.0
C630 C 0.14024 0.4491 0.05409 0.0
C631 C 0.16228 0.44631 0.06253 0.0
C632 C 0.13912 0.4997 0.09339 0.0
C633 C 0.12502 0.43299 0.03475 0.0
C634 C 0.0589 0.45477 0.05404 0.0
C635 C 0.06306 0.4748 0.04131 0.0
C636 C 0.08109 0.45129 0.06115 0.0
C637 C 0.1082 0.46873 0.05579 0.0
C638 C 0.1125 0.489 0.04294 0.0
C639 C 0.08981 0.49157 0.03567 0.0
C640 C 0.07553 0.42905 0.07449 0.0
C641 C 0.14119 0.50842 0.03724 0.0
H642 H 0.17876 0.48744 0.10492 0.0
H643 H 0.16823 0.43281 0.05508 0.0
H644 H 0.13963 0.51526 0.08391 0.0
H645 H 0.11757 0.48771 0.09752 0.0
H646 H 0.15349 0.51066 0.10685 0.0
H647 H 0.13417 0.42091 0.02867 0.0
H648 H 0.1028 0.41856 0.03656 0.0
H649 H 0.12547 0.44717 0.02402 0.0
H650 H 0.03823 0.44164 0.05833 0.0
H651 H 0.0932 0.50726 0.02597 0.0
H652 H 0.08722 0.43854 0.08905 0.0
H653 H 0.083 0.41538 0.06859 0.0
H654 H 0.05303 0.41623 0.07638 0.0
H655 H 0.15544 0.52064 0.05048 0.0
H656 H 0.14098 0.52289 0.02697 0.0
H657 H 0.14996 0.49653 0.03033 0.0
C658 C 0.55413 0.71256 0.07385 0.0
C659 C 0.5686 0.73551 0.06345 0.0
C660 C 0.54714 0.68606 0.06607 0.0
C661 C 0.555 0.68248 0.0475 0.0
C662 C 0.56949 0.70555 0.03686 0.0
C663 C 0.57601 0.73182 0.04495 0.0
C664 C 0.53143 0.6619 0.07776 0.0
C665 C 0.57841 0.70253 0.0171 0.0
C666 C 0.55958 0.61782 0.03769 0.0
C667 C 0.53399 0.6001 0.02664 0.0
C668 C 0.56707 0.645 0.04406 0.0
C669 C 0.54838 0.65457 0.03942 0.0
C670 C 0.5228 0.637 0.0279 0.0
C671 C 0.51595 0.60999 0.02156 0.0
C672 C 0.59467 0.66325 0.05616 0.0
C673 C 0.50227 0.64645 0.02278 0.0
H674 H 0.54806 0.71534 0.08805 0.0
H675 H 0.58739 0.7496 0.03696 0.0
H676 H 0.51175 0.6461 0.06915 0.0
H677 H 0.54404 0.65202 0.08099 0.0
H678 H 0.52631 0.66813 0.09177 0.0
H679 H 0.58915 0.72247 1.0106 0.0
H680 H 0.59272 0.69414 0.0184 0.0
H681 H 0.56001 0.68763 1.00696 0.0
H682 H 0.5737 0.61038 0.04158 0.0
H683 H 0.4961 0.59638 0.01307 0.0
H684 H 0.59101 0.66839 0.07103 0.0
H685 H 0.60666 0.68298 0.04963 0.0
H686 H 0.60757 0.65327 0.05744 0.0
H687 H 0.49485 0.65095 0.0363 0.0
H688 H 0.4839 0.63074 0.01292 0.0
H689 H 0.51256 0.66585 0.01563 0.0
C690 C 0.83874 0.27887 0.98509 0.0
C691 C 0.82755 0.27705 0.96594 0.0
C692 C 0.85994 0.30426 0.99452 0.0
C693 C 0.86984 0.32833 0.9846 0.0
C694 C 0.85796 0.32668 0.96547 0.0
C695 C 0.83706 0.30103 0.95634 0.0
C696 C 0.87228 0.3052 0.01486 0.0
C697 C 0.86766 0.35194 0.9545 0.0
C698 C 0.90953 0.39965 1.01238 0.0
C699 C 0.93702 0.40824 1.00854 0.0
C700 C 0.88749 0.37339 1.0051 0.0
C701 C 0.89315 0.3552 0.9939 0.0
C702 C 0.92097 0.36338 0.99058 0.0
C703 C 0.94257 0.38987 0.99784 0.0
C704 C 0.85807 0.36551 1.00879 0.0
C705 C 0.92785 0.34442 0.97888 0.0
H706 H 0.83154 0.26028 0.99245 0.0
H707 H 0.82817 0.29965 0.94159 0.0
H708 H 0.89469 0.31178 0.01472 0.0
H709 H 0.87105 0.32064 0.02483 0.0
H710 H 0.86154 0.28486 0.02084 0.0
H711 H 0.85542 0.34732 0.94006 0.0
H712 H 0.86594 0.36816 0.96318 0.0
H713 H 0.88995 0.36057 0.9522 0.0
H714 H 0.90504 0.41375 0.02058 0.0
H715 H 0.96377 0.3963 0.99491 0.0
H716 H 0.84785 0.34552 0.01522 0.0
H717 H 0.84566 0.36276 0.99476 0.0
H718 H 0.85736 0.38134 0.01874 0.0
H719 H 0.91884 0.32411 0.98487 0.0
H720 H 0.95069 0.3531 0.97881 0.0
H721 H 0.91841 0.3407 0.96358 0.0
C722 C 0.70863 0.55409 0.97731 0.0
C723 C 0.70563 0.54074 0.95882 0.0
C724 C 0.68541 0.55237 0.98557 0.0
C725 C 0.65852 0.53637 0.97526 0.0
C726 C 0.65537 0.52238 0.95673 0.0
C727 C 0.67903 0.52502 0.94863 0.0
C728 C 0.68973 0.56811 1.00513 0.0
C729 C 0.62701 0.50465 0.94545 0.0
C730 C 0.59491 0.51246 1.00337 0.0
C731 C 0.58532 0.53028 0.99805 0.0
C732 C 0.61874 0.51422 0.9961 0.0
C733 C 0.63371 0.53473 0.9836 0.0
C734 C 0.62455 0.55329 0.97866 0.0
C735 C 0.60027 0.5506 0.98573 0.0
C736 C 0.62747 0.49367 1.00136 0.0
C737 C 0.64027 0.57584 0.96574 0.0
H738 H 0.72927 0.56643 0.98509 0.0
H739 H 0.67675 0.51455 0.93437 0.0
H740 H 0.68229 0.58303 1.00367 0.0
H741 H 0.67729 0.55374 0.01567 0.0
H742 H 0.71197 0.57959 1.01126 0.0
H743 H 0.62799 0.49408 0.93169 0.0
H744 H 0.61279 0.48882 0.95453 0.0
H745 H 0.61771 0.51754 0.94179 0.0
H746 H 0.58326 0.49654 0.01274 0.0
H747 H 0.59304 0.56454 0.98167 0.0
H748 H 0.64923 0.50461 1.0084 0.0
H749 H 0.62694 0.48156 0.98792 0.0
H750 H 0.61375 0.47914 1.01139 0.0
H751 H 0.66247 0.58856 0.97178 0.0
H752 H 0.63135 0.58957 0.96421 0.0
H753 H 0.63984 0.5666 0.95101 0.0
C754 C 0.42457 0.14439 0.98635 0.0
C755 C 0.44628 0.16994 0.98227 0.0
C756 C 0.43015 0.12435 0.99312 0.0
C757 C 0.45802 0.12985 0.99528 0.0
C758 C 0.48002 0.15579 0.99126 0.0
C759 C 0.47387 0.17571 0.98502 0.0
C760 C 0.40624 0.09717 0.99767 0.0
C761 C 0.5099 0.16217 0.99293 0.0
C762 C 0.47743 0.08582 0.02512 0.0
C763 C 0.47593 0.06659 1.01056 0.0
C764 C 0.47114 0.10628 0.02043 0.0
C765 C 0.46402 0.10794 1.00068 0.0
C766 C 0.46283 0.08874 0.98592 0.0
C767 C 0.46845 0.06808 0.99109 0.0
C768 C 0.47196 0.12601 0.03657 0.0
C769 C 0.45598 0.09023 0.96465 0.0
H770 H 0.40325 0.14016 0.98425 0.0
H771 H 0.49054 0.19552 0.98171 0.0
H772 H 0.40401 0.08022 0.9873 0.0
H773 H 0.41049 0.09268 1.01255 0.0
H774 H 0.38613 0.09701 0.99671 0.0
H775 H 0.5246 0.18356 0.98969 0.0
H776 H 0.51617 0.15941 1.00783 0.0
H777 H 0.51194 0.14755 0.98263 0.0
H778 H 0.48307 0.08457 0.0402 0.0
H779 H 0.4676 0.05342 0.97977 0.0
H780 H 0.45148 0.12501 0.03618 0.0
H781 H 0.48778 0.14749 0.03442 0.0
H782 H 0.477 0.12139 0.05123 0.0
H783 H 0.43489 0.08771 0.96228 0.0
H784 H 0.45661 0.07413 0.95495 0.0
H785 H 0.471 0.1108 0.96027 0.0
C786 C 0.69857 0.12248 0.97649 0.0
C787 C 0.7111 0.15128 0.97928 0.0
C788 C 0.67161 0.10535 0.98169 0.0
C789 C 0.65687 0.11734 0.98983 0.0
C790 C 0.66943 0.14643 0.99262 0.0
C791 C 0.69651 0.16306 0.98743 0.0
C792 C 0.659 0.07441 0.97864 0.0
C793 C 0.65433 0.15997 1.00117 0.0
C794 C 0.57813 0.07235 0.9879 0.0
C795 C 0.57485 0.06393 1.00681 0.0
C796 C 0.60467 0.09 0.98224 0.0
C797 C 0.62853 0.0994 0.99578 0.0
C798 C 0.62536 0.09123 0.01493 0.0
C799 C 0.59857 0.07365 0.02023 0.0
C800 C 0.6072 0.09835 0.9617 0.0
C801 C 0.65032 0.10071 0.02975 0.0
H802 H 0.70995 0.11336 0.97034 0.0
H803 H 0.70637 0.18535 0.98973 0.0
H804 H 0.65415 0.06553 0.99281 0.0
H805 H 0.63907 0.06506 0.96906 0.0
H806 H 0.67311 0.06838 0.97198 0.0
H807 H 0.66675 0.18284 1.00193 0.0
H808 H 0.63418 0.15276 0.99227 0.0
H809 H 0.6495 0.15394 0.0161 0.0
H810 H 0.55997 0.06497 0.9774 0.0
H811 H 0.59631 0.06724 0.03485 0.0
H812 H 0.61984 0.09125 0.95409 0.0
H813 H 0.61821 0.12118 0.96206 0.0
H814 H 0.58657 0.08965 0.95305 0.0
H815 H 0.66424 0.09352 0.02436 0.0
H816 H 0.64427 0.09287 0.04413 0.0
H817 H 0.66256 0.12359 0.03183 0.0
C818 C 0.86105 0.56097 0.97263 0.0
C819 C 0.83354 0.54349 0.9766 0.0
C820 C 0.88166 0.55379 0.97624 0.0
C821 C 0.87453 0.5285 0.98396 0.0
C822 C 0.84655 0.51038 0.9874 0.0
C823 C 0.82641 0.51818 0.98377 0.0
C824 C 0.91126 0.57374 0.97247 0.0
C825 C 0.83809 0.4832 0.99555 0.0
C826 C 0.92514 0.50136 0.98294 0.0
C827 C 0.93841 0.5096 1.00206 0.0
C828 C 0.90431 0.50739 0.97677 0.0
C829 C 0.89671 0.52209 0.98999 0.0
C830 C 0.91025 0.5307 1.00921 0.0
C831 C 0.93084 0.52432 0.01501 0.0
C832 C 0.89027 0.49781 0.95617 0.0
C833 C 0.90292 0.54659 0.02374 0.0
H834 H 0.86659 0.58057 0.96709 0.0
H835 H 0.80512 0.50472 0.98686 0.0
H836 H 0.92483 0.58166 0.9865 0.0
H837 H 0.9194 0.56308 0.96327 0.0
H838 H 0.91298 0.59158 0.96515 0.0
H839 H 0.81516 0.4705 0.99589 0.0
H840 H 0.84516 0.47118 0.98671 0.0
H841 H 0.8483 0.48702 1.01063 0.0
H842 H 0.93079 0.48996 0.97283 0.0
H843 H 0.941 0.53092 0.02979 0.0
H844 H 0.8927 0.51569 0.94859 0.0
H845 H 0.86758 0.48356 0.95643 0.0
H846 H 0.89892 0.48704 0.94757 0.0
H847 H 0.90603 0.56585 0.01792 0.0
H848 H 0.91568 0.55211 0.03805 0.0
H849 H 0.88059 0.53415 0.02613 0.0
C850 C 0.42499 0.30014 0.99508 0.0
C851 C 0.44383 0.29286 1.00331 0.0
C852 C 0.43177 0.32784 0.99594 0.0
C853 C 0.45816 0.34867 1.00498 0.0
C854 C 0.47735 0.34139 0.01313 0.0
C855 C 0.46991 0.31351 1.01221 0.0
C856 C 0.41074 0.33484 0.98719 0.0
C857 C 0.50576 0.36304 0.02274 0.0
C858 C 0.48667 0.42233 0.99236 0.0
C859 C 0.48161 0.43445 1.00874 0.0
C860 C 0.47897 0.39434 0.99087 0.0
C861 C 0.46569 0.3781 1.00604 0.0
C862 C 0.46009 0.3901 0.02244 0.0
C863 C 0.46823 0.41817 0.02363 0.0
C864 C 0.48546 0.38227 0.97323 0.0
C865 C 0.44573 0.37336 0.03883 0.0
H866 H 0.40495 0.28413 0.98798 0.0
H867 H 0.48452 0.30775 0.01833 0.0
H868 H 0.40576 0.34606 0.99852 0.0
H869 H 0.41965 0.34873 0.97557 0.0
H870 H 0.39106 0.31618 0.98085 0.0
H871 H 0.51834 0.35393 0.02817 0.0
H872 H 0.5174 0.37793 1.01222 0.0
H873 H 0.5035 0.37488 0.03519 0.0
H874 H 0.4971 0.4348 0.98083 0.0
H875 H 0.46411 0.42735 0.0363 0.0
H876 H 0.46605 0.36438 0.9658 0.0
H877 H 0.49961 0.37455 0.97786 0.0
H878 H 0.49546 0.39757 0.96256 0.0
H879 H 0.42535 0.35523 0.03299 0.0
H880 H 0.44213 0.3856 0.05027 0.0
H881 H 0.45855 0.36538 0.04569 0.0
C882 C 0.16993 0.69369 0.03327 0.0
C883 C 0.16469 0.71403 0.04102 0.0
C884 C 0.14921 0.66571 0.03145 0.0
C885 C 0.12264 0.65801 0.03753 0.0
C886 C 0.11736 0.67851 0.04557 0.0
C887 C 0.13856 0.70631 0.04735 0.0
C888 C 0.15569 0.64442 0.02297 0.0
C889 C 0.08928 0.67108 0.05217 0.0
C890 C 0.06151 0.58921 0.01554 0.0
C891 C 0.05824 0.57232 0.03057 0.0
C892 C 0.08223 0.61719 0.01769 0.0
C893 C 0.10026 0.62851 0.03523 0.0
C894 C 0.09704 0.61162 0.05048 0.0
C895 C 0.076 0.58373 0.048 0.0
C896 C 0.08491 0.63462 1.00115 0.0
C897 C 0.116 0.62293 0.06936 0.0
H898 H 0.19031 0.69977 0.02861 0.0
H899 H 0.13466 0.72207 0.05357 0.0
H900 H 0.15214 0.62901 0.03349 0.0
H901 H 0.14147 0.63313 1.00954 0.0
H902 H 0.17756 0.65379 0.01932 0.0
H903 H 0.08861 0.68948 0.05819 0.0
H904 H 0.07283 0.66049 0.03973 0.0
H905 H 0.08412 0.6565 0.06352 0.0
H906 H 0.04784 0.58059 1.00204 0.0
H907 H 0.0737 0.57081 0.05966 0.0
H908 H 0.10588 0.64298 0.99601 0.0
H909 H 0.08281 0.6525 1.00633 0.0
H910 H 0.06893 0.62279 0.98859 0.0
H911 H 0.13796 0.63094 0.06635 0.0
H912 H 0.11064 0.60711 0.07983 0.0
H913 H 0.11474 0.64049 0.07636 0.0
C914 C 0.31061 0.47998 0.05769 0.0
C915 C 0.29622 0.45423 0.06502 0.0
C916 C 0.33766 0.49 0.05217 0.0
C917 C 0.35048 0.4737 0.05382 0.0
C918 C 0.33611 0.44779 0.06141 0.0
C919 C 0.30916 0.43837 0.06691 0.0
C920 C 0.35231 0.51776 0.04423 0.0
C921 C 0.34896 0.42972 0.0633 0.0
C922 C 0.40659 0.48411 0.02088 0.0
C923 C 0.43109 0.4991 0.03368 0.0
C924 C 0.38031 0.476 0.0272 0.0
C925 C 0.37838 0.48312 0.04681 0.0
C926 C 0.40302 0.49861 0.05976 0.0
C927 C 0.42905 0.50638 0.05305 0.0
C928 C 0.35454 0.4594 0.01295 0.0
C929 C 0.40186 0.50671 0.08076 0.0
H930 H 0.30048 0.49211 0.05607 0.0
H931 H 0.298 0.41836 0.07243 0.0
H932 H 0.37301 0.53113 0.05262 0.0
H933 H 0.35597 0.51512 0.02885 0.0
H934 H 0.34009 0.52849 0.04483 0.0
H935 H 0.33547 0.41059 0.07011 0.0
H936 H 0.35273 0.42384 0.04867 0.0
H937 H 0.36946 0.44124 0.07222 0.0
H938 H 0.40785 0.47831 1.0059 0.0
H939 H 0.44779 0.51805 0.06307 0.0
H940 H 0.34233 0.47009 1.01194 0.0
H941 H 0.34097 0.43901 0.01819 0.0
H942 H 0.35962 0.45602 0.9981 0.0
H943 H 0.39097 0.51873 0.08142 0.0
H944 H 0.42295 0.51924 0.08886 0.0
H945 H 0.38973 0.48794 0.08828 0.0
C946 C 0.55202 0.85099 0.03198 0.0
C947 C 0.57784 0.86088 0.0429 0.0
C948 C 0.54098 0.86831 0.02901 0.0
C949 C 0.55628 0.8962 0.03707 0.0
C950 C 0.58259 0.90639 0.04788 0.0
C951 C 0.59298 0.8885 0.0508 0.0
C952 C 0.51276 0.85667 0.01754 0.0
C953 C 0.5996 0.93608 0.05653 0.0
C954 C 0.53901 0.94718 0.01539 0.0
C955 C 0.52295 0.9501 0.0292 0.0
C956 C 0.55006 0.92976 0.01781 0.0
C957 C 0.54466 0.91468 0.03432 0.0
C958 C 0.52822 0.9173 0.04822 0.0
C959 C 0.51767 0.93511 0.04554 0.0
C960 C 0.56772 0.92768 1.00278 0.0
C961 C 0.52179 0.90129 0.0659 0.0
H962 H 0.54028 0.8295 0.02608 0.0
H963 H 0.61283 0.89603 0.05941 0.0
H964 H 0.49815 0.85867 0.02682 0.0
H965 H 0.51448 0.86855 1.00487 0.0
H966 H 0.50366 0.83458 1.01213 0.0
H967 H 0.62003 0.94094 0.06403 0.0
H968 H 0.60339 0.95009 0.04491 0.0
H969 H 0.58788 0.94055 0.06719 0.0
H970 H 0.54331 0.95879 1.00277 0.0
H971 H 0.50518 0.93719 0.05623 0.0
H972 H 0.55829 0.90599 0.99636 0.0
H973 H 0.58878 0.93391 1.00983 0.0
H974 H 0.57004 0.94088 0.99081 0.0
H975 H 0.51115 0.87884 0.06126 0.0
H976 H 0.50832 0.90533 0.07517 0.0
H977 H 0.54145 0.90681 0.07487 0.0
C978 C 0.95798 0.17893 0.38322 0.0
C979 C 0.95942 0.17055 0.40182 0.0
C980 C 0.982 0.19919 0.37584 0.0
C981 C 0.00814 0.21095 0.38719 0.0
C982 C 0.00973 0.20225 0.40588 0.0
C983 C 0.98529 0.18234 0.41305 0.0
C984 C 0.97934 0.20832 0.35603 0.0
C985 C 0.03725 0.21397 0.41831 0.0
C986 C 0.07472 0.24684 0.36217 0.0
C987 C 0.08381 0.27471 0.36748 0.0
C988 C 0.05001 0.22581 0.36835 0.0
C989 C 0.03375 0.23289 0.37978 0.0
C990 C 0.04239 0.26102 0.38461 0.0
C991 C 0.06745 0.28157 0.37858 0.0
C992 C 0.04174 0.19606 0.36318 0.0
C993 C 0.02538 0.26945 0.39641 0.0
H994 H 0.93793 0.16997 0.3746 0.0
H995 H 0.98643 0.17567 0.42736 0.0
H996 H 0.9867 0.23075 0.35745 0.0
H997 H 0.99274 0.20501 0.34627 0.0
H998 H 0.95753 0.19705 0.34902 0.0
H999 H 0.03508 0.20421 0.43216 0.0
H1000 H 0.05225 0.21097 0.41011 0.0
H1001 H 0.04638 0.23651 0.42188 0.0
H1002 H 0.08743 0.24142 0.35374 0.0
H1003 H 0.07429 0.3031 0.38263 0.0
H1004 H 0.0204 0.18455 0.35543 0.0
H1005 H 0.04134 0.18612 0.37672 0.0
H1006 H 0.05628 0.19399 0.35384 0.0
H1007 H 0.0036 0.25936 0.38946 0.0
H1008 H 0.0341 0.29215 0.39792 0.0
H1009 H 0.0246 0.26247 0.41121 0.0
C1010 C 0.84728 0.80982 0.40905 0.0
C1011 C 0.84168 0.7835 0.41323 0.0
C1012 C 0.82584 0.81413 0.40145 0.0
C1013 C 0.79827 0.79145 0.3976 0.0
C1014 C 0.79271 0.76469 0.40129 0.0
C1015 C 0.81443 0.7611 0.40925 0.0
C1016 C 0.83254 0.84304 0.39804 0.0
C1017 C 0.76375 0.7399 0.39701 0.0
C1018 C 0.73723 0.80443 0.39645 0.0
C1019 C 0.73103 0.80405 0.37637 0.0
C1020 C 0.75923 0.80065 0.40354 0.0
C1021 C 0.77508 0.79581 0.39023 0.0
C1022 C 0.76868 0.79503 0.36994 0.0
C1023 C 0.74693 0.79945 0.36326 0.0
C1024 C 0.76567 0.80211 0.4253 0.0
C1025 C 0.7847 0.78937 0.35526 0.0
H1026 H 0.86831 0.82719 0.41229 0.0
H1027 H 0.81015 0.7407 0.41234 0.0
H1028 H 0.8263 0.84377 0.38261 0.0
H1029 H 0.82046 0.8492 0.4072 0.0
H1030 H 0.85508 0.85836 0.40153 0.0
H1031 H 0.76321 0.72032 0.39972 0.0
H1032 H 0.74933 0.74227 0.40626 0.0
H1033 H 0.75576 0.73836 0.38158 0.0
H1034 H 0.72521 0.80821 0.40668 0.0
H1035 H 0.74215 0.79896 0.34772 0.0
H1036 H 0.78761 0.8184 0.42983 0.0
H1037 H 0.76343 0.78227 0.42924 0.0
H1038 H 0.75177 0.80664 0.43371 0.0
H1039 H 0.80708 0.80547 0.35766 0.0
H1040 H 0.77677 0.78889 0.33998 0.0
H1041 H 0.78334 0.76927 0.35724 0.0
C1042 C 0.24029 0.0594 0.37872 0.0
C1043 C 0.23191 0.06087 0.39727 0.0
C1044 C 0.23498 0.03413 0.36945 0.0
C1045 C 0.22074 0.00982 0.37893 0.0
C1046 C 0.21193 0.01117 0.39756 0.0
C1047 C 0.21771 0.03671 0.40653 0.0
C1048 C 0.24488 0.03346 0.34966 0.0
C1049 C 0.19643 0.98564 0.40804 0.0
C1050 C 0.18371 0.93906 0.35048 0.0
C1051 C 0.20199 0.92934 0.35523 0.0
C1052 C 0.18997 0.96562 0.35759 0.0
C1053 C 0.21519 0.98289 0.36957 0.0
C1054 C 0.23427 0.97364 0.37371 0.0
C1055 C 0.22738 0.94691 0.36655 0.0
C1056 C 0.16905 0.97474 0.35298 0.0
C1057 C 0.26152 0.99161 0.38627 0.0
H1058 H 0.25147 0.07813 0.37162 0.0
H1059 H 0.21089 0.03778 0.42077 0.0
H1060 H 0.2597 0.02564 0.35045 0.0
H1061 H 0.227 0.01906 0.33895 0.0
H1062 H 0.25536 0.05415 0.34417 0.0
H1063 H 0.19059 0.99018 0.4223 0.0
H1064 H 0.17718 0.97015 0.39886 0.0
H1065 H 0.20954 0.97611 0.41063 0.0
H1066 H 0.16403 0.9256 0.34176 0.0
H1067 H 0.24169 0.9396 0.37016 0.0
H1068 H 0.17926 0.99502 0.34693 0.0
H1069 H 0.16065 0.97741 0.36658 0.0
H1070 H 0.15133 0.95963 0.34238 0.0
H1071 H 0.2731 0.01215 0.38072 0.0
H1072 H 0.27504 0.98224 0.38677 0.0
H1073 H 0.25732 0.99501 0.40137 0.0
C1074 C 0.50944 0.60824 0.32147 0.0
C1075 C 0.49713 0.60588 0.30258 0.0
C1076 C 0.53066 0.63394 0.33048 0.0
C1077 C 0.5394 0.6578 0.32044 0.0
C1078 C 0.52642 0.65557 0.30157 0.0
C1079 C 0.50557 0.6296 0.29282 0.0
C1080 C 0.54422 0.63545 0.35051 0.0
C1081 C 0.53484 0.68057 0.2905 0.0
C1082 C 0.57899 0.72942 0.34791 0.0
C1083 C 0.60633 0.73849 0.34344 0.0
C1084 C 0.55707 0.70294 0.34091 0.0
C1085 C 0.56266 0.68503 0.32931 0.0
C1086 C 0.59035 0.69373 0.3253 0.0
C1087 C 0.61183 0.72039 0.33234 0.0
C1088 C 0.52778 0.69448 0.34538 0.0
C1089 C 0.5972 0.67512 0.31313 0.0
H1090 H 0.50304 0.58984 0.32895 0.0
H1091 H 0.49584 0.62779 0.27829 0.0
H1092 H 0.56667 0.64264 0.34977 0.0
H1093 H 0.54295 0.65068 0.36069 0.0
H1094 H 0.53439 0.61518 0.35662 0.0
H1095 H 0.52182 0.6755 0.27634 0.0
H1096 H 0.53307 0.6966 0.29938 0.0
H1097 H 0.55697 0.68966 0.28761 0.0
H1098 H 0.57452 0.74328 0.35644 0.0
H1099 H 0.63291 0.72717 0.32889 0.0
H1100 H 0.51839 0.67462 0.35199 0.0
H1101 H 0.51458 0.69124 0.33164 0.0
H1102 H 0.52713 0.71022 0.35547 0.0
H1103 H 0.58906 0.65492 0.3192 0.0
H1104 H 0.61999 0.68427 0.31242 0.0
H1105 H 0.5869 0.67105 0.29806 0.0
C1106 C 0.37694 0.88363 0.30807 0.0
C1107 C 0.37488 0.87091 0.28952 0.0
C1108 C 0.35317 0.88134 0.31583 0.0
C1109 C 0.32667 0.86536 0.30496 0.0
C1110 C 0.32448 0.8519 0.2864 0.0
C1111 C 0.34868 0.85515 0.2788 0.0
C1112 C 0.3565 0.89655 0.33543 0.0
C1113 C 0.29658 0.83417 0.27454 0.0
C1114 C 0.26177 0.84045 0.33181 0.0
C1115 C 0.25228 0.85831 0.32639 0.0
C1116 C 0.28591 0.84244 0.32491 0.0
C1117 C 0.30132 0.86326 0.31273 0.0
C1118 C 0.29218 0.88177 0.30762 0.0
C1119 C 0.26757 0.87883 0.31429 0.0
C1120 C 0.29457 0.82188 0.33029 0.0
C1121 C 0.30834 0.90466 0.29506 0.0
H1122 H 0.39728 0.89602 0.31626 0.0
H1123 H 0.34714 0.84522 0.26449 0.0
H1124 H 0.34901 0.91141 0.33383 0.0
H1125 H 0.34356 0.88183 0.34563 0.0
H1126 H 0.37851 0.90802 0.34206 0.0
H1127 H 0.29828 0.82389 0.2609 0.0
H1128 H 0.28196 0.8181 0.2833 0.0
H1129 H 0.2873 0.84698 0.27062 0.0
H1130 H 0.24987 0.82439 0.34101 0.0
H1131 H 0.26041 0.89281 0.31017 0.0
H1132 H 0.31602 0.8328 0.33788 0.0
H1133 H 0.29486 0.81025 0.31687 0.0
H1134 H 0.28033 0.80693 0.33988 0.0
H1135 H 0.33031 0.91749 0.30157 0.0
H1136 H 0.29926 0.91821 0.29328 0.0
H1137 H 0.30869 0.89576 0.2804 0.0
C1138 C 0.09181 0.47386 0.31938 0.0
C1139 C 0.11357 0.49982 0.31606 0.0
C1140 C 0.0974 0.45368 0.32581 0.0
C1141 C 0.12535 0.45949 0.32839 0.0
C1142 C 0.1474 0.48586 0.32517 0.0
C1143 C 0.14122 0.50587 0.31923 0.0
C1144 C 0.07342 0.42602 0.32954 0.0
C1145 C 0.1774 0.49261 0.32736 0.0
C1146 C 0.14416 0.41502 0.35803 0.0
C1147 C 0.14374 0.39651 0.34336 0.0
C1148 C 0.13771 0.43537 0.35341 0.0
C1149 C 0.13146 0.43763 0.33363 0.0
C1150 C 0.13129 0.41913 0.31876 0.0
C1151 C 0.13709 0.39855 0.32384 0.0
C1152 C 0.13744 0.45433 0.36967 0.0
C1153 C 0.12533 0.4213 0.29747 0.0
H1154 H 0.07045 0.46941 0.3169 0.0
H1155 H 0.15792 0.52599 0.31645 0.0
H1156 H 0.07192 0.40963 0.31895 0.0
H1157 H 0.07706 0.42094 0.34435 0.0
H1158 H 0.05316 0.42555 0.32824 0.0
H1159 H 0.19209 0.51425 0.32465 0.0
H1160 H 0.18312 0.4893 0.34224 0.0
H1161 H 0.18009 0.47855 0.31693 0.0
H1162 H 0.1491 0.41331 0.37316 0.0
H1163 H 0.13702 0.3844 0.31246 0.0
H1164 H 0.11679 0.45297 0.36886 0.0
H1165 H 0.1532 0.47604 0.36803 0.0
H1166 H 0.1419 0.44927 0.38432 0.0
H1167 H 0.10419 0.41856 0.2947 0.0
H1168 H 0.12662 0.40567 0.28769 0.0
H1169 H 0.14043 0.44216 0.29357 0.0
C1170 C 0.36752 0.45189 0.31426 0.0
C1171 C 0.38058 0.48065 0.3179 0.0
C1172 C 0.3403 0.43479 0.31906 0.0
C1173 C 0.32583 0.4468 0.32761 0.0
C1174 C 0.33893 0.47587 0.33125 0.0
C1175 C 0.36624 0.49245 0.32645 0.0
C1176 C 0.32711 0.40387 0.31509 0.0
C1177 C 0.32413 0.48943 0.34025 0.0
C1178 C 0.24683 0.403 0.32435 0.0
C1179 C 0.24274 0.39338 0.34289 0.0
C1180 C 0.27373 0.42071 0.31926 0.0
C1181 C 0.29712 0.42887 0.333 0.0
C1182 C 0.29314 0.41949 0.3518 0.0
C1183 C 0.26601 0.40194 0.35653 0.0
C1184 C 0.27713 0.43042 0.29912 0.0
C1185 C 0.31758 0.42764 0.36681 0.0
H1186 H 0.37865 0.44275 0.30774 0.0
H1187 H 0.37648 0.51471 0.32933 0.0
H1188 H 0.32154 0.39412 0.32891 0.0
H1189 H 0.30751 0.39542 0.30524 0.0
H1190 H 0.34113 0.39783 0.30831 0.0
H1191 H 0.33704 0.51232 0.34177 0.0
H1192 H 0.30433 0.48319 0.33118 0.0
H1193 H 0.31866 0.48246 0.35489 0.0
H1194 H 0.229 0.39658 0.31371 0.0
H1195 H 0.26311 0.39458 0.37087 0.0
H1196 H 0.28946 0.42318 0.29123 0.0
H1197 H 0.28884 0.45331 0.3002 0.0
H1198 H 0.25678 0.4228 0.29032 0.0
H1199 H 0.3313 0.42033 0.36121 0.0
H1200 H 0.31092 0.41897 0.38088 0.0
H1201 H 0.33025 0.45045 0.36958 0.0
C1202 C 0.4958 0.84895 0.31638 0.0
C1203 C 0.5028 0.8738 0.30851 0.0
C1204 C 0.51594 0.84119 0.32023 0.0
C1205 C 0.54377 0.85882 0.31621 0.0
C1206 C 0.55068 0.88351 0.30763 0.0
C1207 C 0.53009 0.89067 0.30384 0.0
C1208 C 0.50767 0.81463 0.32926 0.0
C1209 C 0.58009 0.9029 0.30318 0.0
C1210 C 0.60078 0.85626 0.34771 0.0
C1211 C 0.60788 0.8406 0.33528 0.0
C1212 C 0.58015 0.86244 0.34159 0.0
C1213 C 0.56607 0.85267 0.32256 0.0
C1214 C 0.57323 0.83704 0.30983 0.0
C1215 C 0.5941 0.83123 0.31633 0.0
C1216 C 0.57331 0.87935 0.35558 0.0
C1217 C 0.55864 0.82621 0.28945 0.0
H1218 H 0.47466 0.8359 0.31991 0.0
H1219 H 0.5355 0.90984 0.29767 0.0
H1220 H 0.51446 0.80204 0.32081 0.0
H1221 H 0.51826 0.81933 0.34429 0.0
H1222 H 0.48479 0.80213 0.32995 0.0
H1223 H 0.58159 0.92013 0.29515 0.0
H1224 H 0.59408 0.91175 0.317 0.0
H1225 H 0.5879 0.89155 0.29438 0.0
H1226 H 0.61133 0.86374 0.36234 0.0
H1227 H 0.59938 0.81908 0.30662 0.0
H1228 H 0.5511 0.86726 0.35836 0.0
H1229 H 0.57627 0.89814 0.34906 0.0
H1230 H 0.58648 0.88575 0.36977 0.0
H1231 H 0.53604 0.812 0.29015 0.0
H1232 H 0.56714 0.81501 0.28118 0.0
H1233 H 0.56069 0.84349 0.28128 0.0
C1234 C 0.08947 0.6287 0.327 0.0
C1235 C 0.10817 0.62167 0.33584 0.0
C1236 C 0.09624 0.65637 0.32733 0.0
C1237 C 0.12246 0.67739 0.33645 0.0
C1238 C 0.14146 0.67035 0.3453 0.0
C1239 C 0.13402 0.64251 0.34491 0.0
C1240 C 0.0754 0.66312 0.31788 0.0
C1241 C 0.16971 0.69221 0.35501 0.0
C1242 C 0.15204 0.75052 0.32245 0.0
C1243 C 0.14699 0.76334 0.33843 0.0
C1244 C 0.14388 0.72244 0.3215 0.0
C1245 C 0.13012 0.70681 0.3368 0.0
C1246 C 0.1244 0.71948 0.35274 0.0
C1247 C 0.13303 0.74764 0.35341 0.0
C1248 C 0.15052 0.70964 0.30435 0.0
C1249 C 0.1095 0.70339 0.36922 0.0
H1250 H 0.0696 0.61253 0.31979 0.0
H1251 H 0.14852 0.63694 0.35152 0.0
H1252 H 0.07034 0.67486 0.32873 0.0
H1253 H 0.08453 0.67645 0.30601 0.0
H1254 H 0.05573 0.64432 0.3117 0.0
H1255 H 0.1821 0.68326 0.36108 0.0
H1256 H 0.18168 0.70665 0.34434 0.0
H1257 H 0.1672 0.70451 0.36701 0.0
H1258 H 0.1629 0.76256 0.31086 0.0
H1259 H 0.12889 0.75736 0.36575 0.0
H1260 H 0.13116 0.69156 0.29705 0.0
H1261 H 0.16458 0.70207 0.30951 0.0
H1262 H 0.16071 0.72446 0.29342 0.0
H1263 H 0.08923 0.68512 0.36338 0.0
H1264 H 0.1056 0.71604 0.38014 0.0
H1265 H 0.12211 0.69567 0.37675 0.0
C1266 C 0.80465 0.03702 0.38344 0.0
C1267 C 0.83153 0.04594 0.3781 0.0
C1268 C 0.78408 0.00896 0.38082 0.0
C1269 C 0.79069 0.98939 0.37284 0.0
C1270 C 0.8179 -0.00168 0.36756 0.0
C1271 C 0.83799 0.02654 0.37021 0.0
C1272 C 0.75527 0.00026 0.38653 0.0
C1273 C 0.82581 0.97806 0.35916 0.0
C1274 C 0.74516 0.91447 0.3824 0.0
C1275 C 0.72803 0.90298 0.36471 0.0
C1276 C 0.76573 0.94253 0.3852 0.0
C1277 C 0.76912 0.95956 0.37001 0.0
C1278 C 0.75187 0.94812 0.35215 0.0
C1279 C 0.73161 0.91995 0.34968 0.0
C1280 C 0.78387 0.95392 0.40441 0.0
C1281 C 0.75473 0.96568 0.33566 0.0
H1282 H 0.7997 0.05204 0.38962 0.0
H1283 H 0.85884 0.03353 0.36616 0.0
H1284 H 0.73958 0.98945 0.37369 0.0
H1285 H 0.75 0.98549 0.39775 0.0
H1286 H 0.75346 0.01806 0.39238 0.0
H1287 H 0.84794 0.98834 0.356 0.0
H1288 H 0.82241 0.9625 0.36952 0.0
H1289 H 0.8123 0.96678 0.34547 0.0
H1290 H 0.74264 0.90151 0.39407 0.0
H1291 H 0.71844 0.91128 0.33598 0.0
H1292 H 0.78138 0.97071 0.41143 0.0
H1293 H 0.80614 0.96301 0.40189 0.0
H1294 H 0.77876 0.93788 0.41468 0.0
H1295 H 0.75144 0.98287 0.34064 0.0
H1296 H 0.7396 0.95366 0.32272 0.0
H1297 H 0.77614 0.97502 0.33116 0.0
C1298 C 0.98054 0.81315 0.38953 0.0
C1299 C 0.96621 0.78722 0.39661 0.0
C1300 C 0.00745 0.8232 0.38371 0.0
C1301 C 0.02018 0.80677 0.38482 0.0
C1302 C 0.00598 0.7808 0.39234 0.0
C1303 C 0.97918 0.77135 0.39814 0.0
C1304 C 0.02195 0.85105 0.37589 0.0
C1305 C 0.01875 0.7626 0.39372 0.0
C1306 C 0.07483 0.81627 0.35072 0.0
C1307 C 0.09969 0.83081 0.36321 0.0
C1308 C 0.04891 0.80877 0.3575 0.0
C1309 C 0.04774 0.81602 0.37725 0.0
C1310 C 0.07277 0.83118 0.38986 0.0
C1311 C 0.09841 0.83837 0.3827 0.0
C1312 C 0.0227 0.79253 0.34359 0.0
C1313 C 0.07244 0.8394 0.41099 0.0
H1314 H 0.9704 0.82531 0.38822 0.0
H1315 H 0.96808 0.75121 0.40349 0.0
H1316 H 0.04299 0.86419 0.38388 0.0
H1317 H 0.02485 0.84848 0.36031 0.0
H1318 H 0.01 0.862 0.37711 0.0
H1319 H 0.00552 0.74353 0.40068 0.0
H1320 H 0.02185 0.7566 0.3789 0.0
H1321 H 0.03956 0.77405 0.40225 0.0
H1322 H 0.0755 0.8103 0.33565 0.0
H1323 H 0.11744 0.84971 0.39248 0.0
H1324 H 0.01066 0.80343 0.34312 0.0
H1325 H 0.0092 0.77209 0.34879 0.0
H1326 H 0.02722 0.78926 0.32853 0.0
H1327 H 0.06155 0.85139 0.41206 0.0
H1328 H 0.09378 0.85199 0.41871 0.0
H1329 H 0.06071 0.82067 0.41864 0.0
C1330 C 0.21322 0.17739 0.37173 0.0
C1331 C 0.23895 0.18688 0.38266 0.0
C1332 C 0.20265 0.19511 0.36876 0.0
C1333 C 0.21839 0.22299 0.37679 0.0
C1334 C 0.24449 0.23271 0.38777 0.0
C1335 C 0.2544 0.21444 0.39068 0.0
C1336 C 0.17465 0.18398 0.35709 0.0
C1337 C 0.26195 0.26239 0.39638 0.0
C1338 C 0.20405 0.27482 0.35348 0.0
C1339 C 0.1879 0.27872 0.36673 0.0
C1340 C 0.2142 0.25683 0.35664 0.0
C1341 C 0.20779 0.24216 0.37336 0.0
C1342 C 0.19131 0.2458 0.38674 0.0
C1343 C 0.18166 0.26418 0.38331 0.0
C1344 C 0.23192 0.25365 0.34215 0.0
C1345 C 0.18385 0.23025 0.40462 0.0
H1346 H 0.20128 0.15598 0.36568 0.0
H1347 H 0.27423 0.22168 0.39924 0.0
H1348 H 0.16035 0.18715 0.36599 0.0
H1349 H 0.17705 0.1954 0.34406 0.0
H1350 H 0.16481 0.16164 0.3522 0.0
H1351 H 0.28181 0.26665 0.4045 0.0
H1352 H 0.26689 0.27633 0.38461 0.0
H1353 H 0.25006 0.26754 0.40646 0.0
H1354 H 0.2091 0.28608 0.34068 0.0
H1355 H 0.1691 0.26702 0.39357 0.0
H1356 H 0.22195 0.2318 0.33596 0.0
H1357 H 0.25259 0.25929 0.3496 0.0
H1358 H 0.23517 0.26674 0.32996 0.0
H1359 H 0.17257 0.2077 0.40025 0.0
H1360 H 0.17059 0.23519 0.41346 0.0
H1361 H 0.2031 0.23528 0.41393 0.0
C1362 C 0.62866 0.52929 0.73484 0.0
C1363 C 0.6237 0.50252 0.73663 0.0
C1364 C 0.65301 0.54913 0.72755 0.0
C1365 C 0.67312 0.54214 0.7223 0.0
C1366 C 0.6681 0.51504 0.72398 0.0
C1367 C 0.64331 0.49546 0.73095 0.0
C1368 C 0.65737 0.57765 0.72567 0.0
C1369 C 0.68925 0.50693 0.71889 0.0
C1370 C 0.72807 0.58745 0.69003 0.0
C1371 C 0.75048 0.60491 0.70393 0.0
C1372 C 0.70266 0.56697 0.69578 0.0
C1373 C 0.6999 0.56352 0.71586 0.0
C1374 C 0.7227 0.58076 0.72991 0.0
C1375 C 0.74758 0.60141 0.72379 0.0
C1376 C 0.67865 0.5493 0.68041 0.0
C1377 C 0.72085 0.57741 0.75143 0.0
H1378 H 0.61335 0.53466 0.73905 0.0
H1379 H 0.63956 0.4748 0.73249 0.0
H1380 H 0.67581 0.59306 0.73557 0.0
H1381 H 0.66163 0.58318 0.71058 0.0
H1382 H 0.63901 0.57927 0.72928 0.0
H1383 H 0.6819 0.48486 0.72058 0.0
H1384 H 0.69402 0.5108 0.70363 0.0
H1385 H 0.70904 0.51981 0.72844 0.0
H1386 H 0.73019 0.59017 0.67468 0.0
H1387 H 0.76494 0.61466 0.7346 0.0
H1388 H 0.66055 0.55183 0.68314 0.0
H1389 H 0.67191 0.5272 0.6812 0.0
H1390 H 0.68414 0.55464 0.66543 0.0
H1391 H 0.70444 0.58128 0.75648 0.0
H1392 H 0.74087 0.59174 0.76039 0.0
H1393 H 0.71484 0.55592 0.7541 0.0
C1394 C 0.49567 0.12902 0.7595 0.0
C1395 C 0.51043 0.12141 0.7472 0.0
C1396 C 0.47327 0.13181 0.75199 0.0
C1397 C 0.46571 0.12748 0.73161 0.0
C1398 C 0.48095 0.12057 0.71902 0.0
C1399 C 0.50301 0.11744 0.72697 0.0
C1400 C 0.45747 0.13908 0.76593 0.0
C1401 C 0.47374 0.11619 0.69718 0.0
C1402 C 0.39167 0.10944 0.71457 0.0
C1403 C 0.39563 0.13527 0.71077 0.0
C1404 C 0.41441 0.1065 0.72112 0.0
C1405 C 0.44164 0.12995 0.7236 0.0
C1406 C 0.44564 0.15599 0.71929 0.0
C1407 C 0.42247 0.15837 0.71308 0.0
C1408 C 0.40925 0.0785 0.72584 0.0
C1409 C 0.47432 0.18139 0.72149 0.0
H1410 H 0.50161 0.1328 0.7751 0.0
H1411 H 0.51407 0.11132 0.71735 0.0
H1412 H 0.45847 0.15862 0.76254 0.0
H1413 H 0.43515 0.12274 0.76418 0.0
H1414 H 0.46583 0.14148 0.78141 0.0
H1415 H 0.48839 0.11214 0.68935 0.0
H1416 H 0.45231 0.09845 0.69339 0.0
H1417 H 0.47405 0.13463 0.69186 0.0
H1418 H 0.37074 0.09168 0.71275 0.0
H1419 H 0.42528 0.1783 0.71002 0.0
H1420 H 0.41577 0.07939 0.74151 0.0
H1421 H 0.42196 0.07243 0.71733 0.0
H1422 H 0.38695 0.06225 0.72265 0.0
H1423 H 0.48311 0.18621 0.73701 0.0
H1424 H 0.47401 0.19972 0.71648 0.0
H1425 H 0.48859 0.17755 0.71303 0.0
C1426 C 0.87959 0.3848 0.71767 0.0
C1427 C 0.90588 0.40239 0.72789 0.0
C1428 C 0.87176 0.35774 0.71062 0.0
C1429 C 0.89075 0.34814 0.71381 0.0
C1430 C 0.91755 0.36601 0.72374 0.0
C1431 C 0.92477 0.39291 0.73071 0.0
C1432 C 0.84292 0.3392 0.70022 0.0
C1433 C 0.93844 0.35656 0.72729 0.0
C1434 C 0.86239 0.27128 0.71474 0.0
C1435 C 0.86703 0.26388 0.69619 0.0
C1436 C 0.86974 0.29858 0.72055 0.0
C1437 C 0.88218 0.31902 0.70754 0.0
C1438 C 0.88676 0.3117 0.68875 0.0
C1439 C 0.87905 0.28417 0.68326 0.0
C1440 C 0.86438 0.30556 0.74068 0.0
C1441 C 0.90009 0.33301 0.67453 0.0
H1442 H 0.86483 0.39197 0.71564 0.0
H1443 H 0.94524 0.40659 0.7384 0.0
H1444 H 0.84431 0.33069 0.68572 0.0
H1445 H 0.83098 0.32145 0.70871 0.0
H1446 H 0.83111 0.3502 0.69817 0.0
H1447 H 0.95882 0.37339 0.73447 0.0
H1448 H 0.93015 0.33931 0.73667 0.0
H1449 H 0.94192 0.34866 0.71328 0.0
H1450 H 0.85301 0.25574 0.72481 0.0
H1451 H 0.88276 0.27864 0.66892 0.0
H1452 H 0.85107 0.31509 0.73959 0.0
H1453 H 0.88437 0.3209 0.7492 0.0
H1454 H 0.85399 0.28713 0.74888 0.0
H1455 H 0.88772 0.34325 0.67176 0.0
H1456 H 0.90187 0.32389 0.66038 0.0
H1457 H 0.92126 0.34926 0.68089 0.0
C1458 C 0.15541 0.95378 0.63902 0.0
C1459 C 0.16261 0.93526 0.63048 0.0
C1460 C 0.17606 0.98001 0.64764 0.0
C1461 C 0.20455 0.98778 0.64781 0.0
C1462 C 0.21188 0.96885 0.63972 0.0
C1463 C 0.19083 0.94286 0.63113 0.0
C1464 C 0.16744 -0.00032 0.65607 0.0
C1465 C 0.24199 0.97625 0.63975 0.0
C1466 C 0.25915 0.06389 0.65061 0.0
C1467 C 0.26995 0.06966 0.67031 0.0
C1468 C 0.23769 0.03742 0.64318 0.0
C1469 C 0.22678 0.01611 0.65571 0.0
C1470 C 0.23753 0.02175 0.67561 0.0
C1471 C 0.25895 0.04847 0.68268 0.0
C1472 C 0.22676 0.03223 0.62187 0.0
C1473 C 0.22651 -0.00048 0.6894 0.0
H1474 H 0.13364 0.94808 0.63842 0.0
H1475 H 0.19648 0.92844 0.6248 0.0
H1476 H 0.17672 0.00706 0.67142 0.0
H1477 H 0.17542 0.01806 0.64776 0.0
H1478 H 0.14443 0.99003 0.65563 0.0
H1479 H 0.24412 0.95874 0.63367 0.0
H1480 H 0.25308 0.99389 0.63099 0.0
H1481 H 0.25256 0.98286 0.65484 0.0
H1482 H 0.26741 0.08009 0.64092 0.0
H1483 H 0.26713 0.05269 0.69792 0.0
H1484 H 0.20398 0.02436 0.62039 0.0
H1485 H 0.23004 0.01616 0.6145 0.0
H1486 H 0.23712 0.05115 0.61415 0.0
H1487 H 0.20373 0.99081 0.6897 0.0
H1488 H 0.23685 0.00734 0.70451 0.0
H1489 H 0.22973 0.98237 0.68419 0.0
C1490 C 0.04757 0.21696 0.64986 0.0
C1491 C 0.0493 0.21676 0.62961 0.0
C1492 C 0.02328 0.21298 0.65777 0.0
C1493 C 0.0005 0.20978 0.64525 0.0
C1494 C 0.0022 0.21006 0.62489 0.0
C1495 C 0.02623 0.2129 0.61732 0.0
C1496 C 0.02191 0.21192 0.67951 0.0
C1497 C 0.97859 0.20733 0.61105 0.0
C1498 C 0.9265 0.17484 0.65944 0.0
C1499 C 0.92394 0.19753 0.66564 0.0
C1500 C 0.95178 0.17851 0.65364 0.0
C1501 C 0.97457 0.20559 0.65328 0.0
C1502 C 0.972 0.2286 0.65963 0.0
C1503 C 0.94677 0.22424 0.6661 0.0
C1504 C 0.95395 0.15342 0.64766 0.0
C1505 C 0.99544 0.25778 0.6588 0.0
H1506 H 0.06524 0.2204 0.65965 0.0
H1507 H 0.02671 0.21186 0.60164 0.0
H1508 H 0.01917 0.22893 0.68576 0.0
H1509 H 0.00356 0.19225 0.6825 0.0
H1510 H 0.04096 0.21362 0.68716 0.0
H1511 H 0.98405 0.21006 0.5958 0.0
H1512 H 0.95988 0.18667 0.61125 0.0
H1513 H 0.97285 0.22289 0.61578 0.0
H1514 H 0.90871 0.15419 0.65922 0.0
H1515 H 0.9445 0.24171 0.67078 0.0
H1516 H 0.97274 0.15491 0.65554 0.0
H1517 H 0.95624 0.15238 0.63184 0.0
H1518 H 0.93532 0.13393 0.65062 0.0
H1519 H 0.01472 0.26114 0.66721 0.0
H1520 H 0.99032 0.27336 0.66466 0.0
H1521 H 1.00006 0.26124 0.64346 0.0
C1522 C 0.79341 0.81881 0.63943 0.0
C1523 C 0.7801 0.83013 0.64994 0.0
C1524 C 0.7982 0.79864 0.64682 0.0
C1525 C 0.78934 0.78949 0.66515 0.0
C1526 C 0.77595 0.80088 0.67588 0.0
C1527 C 0.77158 0.82119 0.66817 0.0
C1528 C 0.81276 0.78713 0.63501 0.0
C1529 C 0.76603 0.7914 0.69539 0.0
C1530 C 0.78005 0.71922 0.67268 0.0
C1531 C 0.80541 0.72636 0.68336 0.0
C1532 C 0.77398 0.73957 0.66741 0.0
C1533 C 0.79389 0.76771 0.67281 0.0
C1534 C 0.81907 0.775 0.68423 0.0
C1535 C 0.82449 0.7542 0.68945 0.0
C1536 C 0.74678 0.731 0.65539 0.0
C1537 C 0.84084 0.80483 0.69017 0.0
H1538 H 0.80039 0.82601 0.62547 0.0
H1539 H 0.7611 0.82981 0.67625 0.0
H1540 H 0.83185 0.79042 0.64367 0.0
H1541 H 0.79895 0.76454 0.63144 0.0
H1542 H 0.81872 0.79682 0.62118 0.0
H1543 H 0.75627 0.80258 0.70199 0.0
H1544 H 0.75058 0.76897 0.69367 0.0
H1545 H 0.78377 0.79454 0.70565 0.0
H1546 H 0.76511 0.69772 0.66805 0.0
H1547 H 0.84414 0.75986 0.6977 0.0
H1548 H 0.75096 0.73784 0.64057 0.0
H1549 H 0.73603 0.74107 0.66206 0.0
H1550 H 0.73251 0.70828 0.65393 0.0
H1551 H 0.84952 0.8152 0.677 0.0
H1552 H 0.85827 0.80696 0.70032 0.0
H1553 H 0.83132 0.81586 0.69728 0.0
C1554 C 0.02633 0.82358 0.65124 0.0
C1555 C 0.04118 0.81208 0.64311 0.0
C1556 C 0.99908 0.80669 0.65608 0.0
C1557 C 0.98657 0.77762 0.65291 0.0
C1558 C 0.0014 0.76594 0.64446 0.0
C1559 C 0.02854 0.78333 0.63965 0.0
C1560 C 0.98392 0.81992 0.66499 0.0
C1561 C 0.98886 0.73505 0.64095 0.0
C1562 C 0.93002 0.73338 0.68432 0.0
C1563 C 0.90569 0.72357 0.6715 0.0
C1564 C 0.95639 0.75113 0.67848 0.0
C1565 C 0.95858 0.75937 0.65935 0.0
C1566 C 0.93413 0.74978 0.64636 0.0
C1567 C 0.90799 0.73197 0.65258 0.0
C1568 C 0.98197 0.7608 0.69274 0.0
C1569 C 0.93562 0.75816 0.62586 0.0
H1570 H 0.03623 0.84583 0.65401 0.0
H1571 H 0.04007 0.77441 0.63345 0.0
H1572 H 0.96335 0.81222 0.65653 0.0
H1573 H 0.97993 0.81418 0.68007 0.0
H1574 H 0.99593 0.84279 0.66549 0.0
H1575 H 0.00265 0.72929 0.63351 0.0
H1576 H 0.98491 0.72589 0.65506 0.0
H1577 H 0.96848 0.72574 0.63192 0.0
H1578 H 0.92855 0.72703 0.69896 0.0
H1579 H 0.88936 0.72451 0.64253 0.0
H1580 H 0.99394 0.78369 0.69492 0.0
H1581 H 0.99587 0.75398 0.68677 0.0
H1582 H 0.97668 0.75278 0.70716 0.0
H1583 H 0.94619 0.78097 0.62627 0.0
H1584 H 0.91466 0.74913 0.61762 0.0
H1585 H 0.94821 0.75144 0.61779 0.0
C1586 C 0.19173 0.22266 0.66608 0.0
C1587 C 0.17427 0.21334 0.64852 0.0
C1588 C 0.211 0.21395 0.67026 0.0
C1589 C 0.21289 0.19545 0.6565 0.0
C1590 C 0.19551 0.18614 0.63863 0.0
C1591 C 0.17667 0.19551 0.63472 0.0
C1592 C 0.22946 0.22468 0.68936 0.0
C1593 C 0.19682 0.1663 0.62365 0.0
C1594 C 0.27974 0.19221 0.6611 0.0
C1595 C 0.27216 0.16958 0.67198 0.0
C1596 C 0.26052 0.20061 0.65565 0.0
C1597 C 0.23298 0.18577 0.66098 0.0
C1598 C 0.22498 0.16237 0.67141 0.0
C1599 C 0.2447 0.15467 0.67689 0.0
C1600 C 0.26993 0.22584 0.64471 0.0
C1601 C 0.19571 0.14576 0.6771 0.0
H1602 H 0.19042 0.23702 0.67652 0.0
H1603 H 0.16382 0.18887 0.62086 0.0
H1604 H 0.22577 0.20723 0.69793 0.0
H1605 H 0.25171 0.23531 0.68656 0.0
H1606 H 0.22571 0.23933 0.69833 0.0
H1607 H 0.18156 0.16067 0.61062 0.0
H1608 H 0.21806 0.17557 0.61886 0.0
H1609 H 0.19261 0.14716 0.63022 0.0
H1610 H 0.30092 0.20386 0.65728 0.0
H1611 H 0.23858 0.13698 0.68512 0.0
H1612 H 0.26864 0.24208 0.65372 0.0
H1613 H 0.25596 0.22077 0.63106 0.0
H1614 H 0.29168 0.2344 0.64096 0.0
H1615 H 0.19142 0.15875 0.68739 0.0
H1616 H 0.19236 0.12716 0.68414 0.0
H1617 H 0.18033 0.13913 0.66404 0.0
C1618 C 0.80133 0.9749 0.65619 0.0
C1619 C 0.77786 0.95637 0.66506 0.0
C1620 C 0.80943 0.00291 0.65666 0.0
C1621 C 0.79369 0.01263 0.66614 0.0
C1622 C 0.7697 0.99401 0.67474 0.0
C1623 C 0.76211 0.96609 0.67411 0.0
C1624 C 0.83519 0.02221 0.64736 0.0
C1625 C 0.75239 0.00367 0.68495 0.0
C1626 C 0.8314 0.08814 0.68556 0.0
C1627 C 0.82217 0.09961 0.67139 0.0
C1628 C 0.82208 0.05983 0.68407 0.0
C1629 C 0.80325 0.04257 0.66794 0.0
C1630 C 0.79396 0.05398 0.6535 0.0
C1631 C 0.80345 0.0824 0.65544 0.0
C1632 C 0.83234 0.04839 0.69982 0.0
C1633 C 0.77405 0.03617 0.63601 0.0
H1634 H 0.81365 0.96773 0.64901 0.0
H1635 H 0.74392 0.95176 0.68085 0.0
H1636 H 0.83012 0.03356 0.6367 0.0
H1637 H 0.85119 0.0378 0.65869 0.0
H1638 H 0.84436 0.01115 0.63976 0.0
H1639 H 0.73362 0.98634 0.69008 0.0
H1640 H 0.76517 0.01862 0.6977 0.0
H1641 H 0.7456 0.01455 0.67498 0.0
H1642 H 0.8457 0.10123 0.69802 0.0
H1643 H 0.79627 0.09114 0.64443 0.0
H1644 H 0.84341 0.0385 0.69339 0.0
H1645 H 0.81439 0.03223 0.70647 0.0
H1646 H 0.84671 0.06457 0.71155 0.0
H1647 H 0.78335 0.02589 0.62765 0.0
H1648 H 0.76881 0.04824 0.62609 0.0
H1649 H 0.75448 0.01967 0.64087 0.0
C1650 C 0.49196 0.3596 0.73597 0.0
C1651 C 0.49572 0.3746 0.71971 0.0
C1652 C 0.47184 0.33142 0.73481 0.0
C1653 C 0.45457 0.31817 0.71714 0.0
C1654 C 0.45768 0.33347 0.70089 0.0
C1655 C 0.47821 0.3615 0.70239 0.0
C1656 C 0.46925 0.31577 0.7524 0.0
C1657 C 0.43938 0.32019 0.68189 0.0
C1658 C 0.42076 0.24082 0.70481 0.0
C1659 C 0.39321 0.23152 0.70881 0.0
C1660 C 0.44116 0.26885 0.70814 0.0
C1661 C 0.43374 0.28813 0.71536 0.0
C1662 C 0.40612 0.27879 0.71992 0.0
C1663 C 0.38621 0.25051 0.71674 0.0
C1664 C 0.47048 0.27789 0.70343 0.0
C1665 C 0.39735 0.29877 0.72746 0.0
H1666 H 0.5049 0.36987 0.74958 0.0
H1667 H 0.4806 0.37327 0.68999 0.0
H1668 H 0.44775 0.30647 0.75671 0.0
H1669 H 0.47316 0.29859 0.74872 0.0
H1670 H 0.48412 0.32915 0.76509 0.0
H1671 H 0.44379 0.3352 0.67088 0.0
H1672 H 0.44259 0.30342 0.67575 0.0
H1673 H 0.41709 0.3107 0.68445 0.0
H1674 H 0.42637 0.22618 0.69887 0.0
H1675 H 0.36491 0.24343 0.71977 0.0
H1676 H 0.4857 0.29055 0.71615 0.0
H1677 H 0.47549 0.291 0.69115 0.0
H1678 H 0.47334 0.26011 0.69931 0.0
H1679 H 0.4114 0.31188 0.74051 0.0
H1680 H 0.37556 0.28808 0.73133 0.0
H1681 H 0.39909 0.31273 0.71617 0.0
C1682 C 0.65643 0.14446 0.73694 0.0
C1683 C 0.6329 0.12177 0.72652 0.0
C1684 C 0.68323 0.15385 0.73108 0.0
C1685 C 0.68665 0.13982 0.71473 0.0
C1686 C 0.66299 0.11686 0.70427 0.0
C1687 C 0.63646 0.10816 0.71029 0.0
C1688 C 0.70794 0.17851 0.74255 0.0
C1689 C 0.66576 0.10106 0.68695 0.0
C1690 C 0.75272 0.17429 0.68903 0.0
C1691 C 0.76807 0.16294 0.69717 0.0
C1692 C 0.72642 0.16737 0.69488 0.0
C1693 C 0.71504 0.1484 0.709 0.0
C1694 C 0.73047 0.13695 0.71731 0.0
C1695 C 0.75683 0.14448 0.71138 0.0
C1696 C 0.71075 0.18028 0.68588 0.0
C1697 C 0.71897 0.11642 0.73225 0.0
H1698 H 0.65402 0.15481 0.74975 0.0
H1699 H 0.61836 0.09032 0.70246 0.0
H1700 H 0.7222 0.17218 0.7494 0.0
H1701 H 0.71991 0.19431 0.73265 0.0
H1702 H 0.70162 0.18809 0.75418 0.0
H1703 H 0.64524 0.08403 0.68013 0.0
H1704 H 0.67636 0.11518 0.67577 0.0
H1705 H 0.67888 0.09219 0.69158 0.0
H1706 H 0.76131 0.18873 0.67816 0.0
H1707 H 0.76847 0.13555 0.71775 0.0
H1708 H 0.70551 0.19088 0.69749 0.0
H1709 H 0.6908 0.16399 0.67785 0.0
H1710 H 0.72291 0.19543 0.67563 0.0
H1711 H 0.71414 0.12559 0.74501 0.0
H1712 H 0.73373 0.10965 0.73745 0.0
H1713 H 0.69918 0.09796 0.72589 0.0
C1714 C 0.88857 0.51455 0.69249 0.0
C1715 C 0.91422 0.52562 0.70388 0.0
C1716 C 0.87668 0.53093 0.68853 0.0
C1717 C 0.89091 0.55903 0.69612 0.0
C1718 C 0.91727 0.5705 0.70713 0.0
C1719 C 0.92853 0.55356 0.71102 0.0
C1720 C 0.84843 0.51791 0.67689 0.0
C1721 C 0.93315 0.60044 0.71535 0.0
C1722 C 0.8696 0.60823 0.67597 0.0
C1723 C 0.85388 0.61014 0.69046 0.0
C1724 C 0.88157 0.59142 0.67747 0.0
C1725 C 0.87743 0.57598 0.69373 0.0
C1726 C 0.86094 0.57726 0.70811 0.0
C1727 C 0.84949 0.59443 0.70636 0.0
C1728 C 0.8992 0.5907 0.66193 0.0
C1729 C 0.85577 0.56084 0.72556 0.0
H1730 H 0.87748 0.49284 0.68716 0.0
H1731 H 0.94827 0.56203 0.71997 0.0
H1732 H 0.83298 0.51796 0.6863 0.0
H1733 H 0.84917 0.53008 0.66458 0.0
H1734 H 0.84096 0.4963 0.67098 0.0
H1735 H 0.95428 0.60664 0.7223 0.0
H1736 H 0.93531 0.61394 0.70364 0.0
H1737 H 0.92143 0.60412 0.72642 0.0
H1738 H 0.87316 0.62041 0.66368 0.0
H1739 H 0.8372 0.59565 0.71755 0.0
H1740 H 0.89121 0.56912 0.65575 0.0
H1741 H 0.92092 0.59877 0.66848 0.0
H1742 H 0.89958 0.60315 0.64986 0.0
H1743 H 0.84662 0.53861 0.72066 0.0
H1744 H 0.8415 0.56325 0.73499 0.0
H1745 H 0.87582 0.56759 0.73445 0.0
C1746 C 0.46653 0.92405 0.2349 0.0
C1747 C 0.4388 0.90401 0.23671 0.0
C1748 C 0.47408 0.9372 0.21777 0.0
C1749 C 0.45338 0.93033 0.20206 0.0
C1750 C 0.42535 0.91013 0.20375 0.0
C1751 C 0.4184 0.89717 0.22103 0.0
C1752 C 0.5042 0.95864 0.21655 0.0
C1753 C 0.4027 0.90226 0.1873 0.0
C1754 C 0.46963 0.98333 0.16556 0.0
C1755 C 0.47816 0.9727 0.15029 0.0
C1756 C 0.46107 0.96951 0.18235 0.0
C1757 C 0.46114 0.9445 0.18395 0.0
C1758 C 0.46941 0.93349 0.16849 0.0
C1759 C 0.47778 0.9477 0.15183 0.0
C1760 C 0.4522 0.9818 0.19846 0.0
C1761 C 0.46992 0.90697 0.1697 0.0
H1762 H 0.48235 0.92982 0.24705 0.0
H1763 H 0.397 0.88149 0.2222 0.0
H1764 H 0.51206 0.95277 0.20382 0.0
H1765 H 0.50596 0.97885 0.21433 0.0
H1766 H 0.51785 0.96121 0.22991 0.0
H1767 H 0.38191 0.88622 0.19094 0.0
H1768 H 0.40151 0.92072 0.18379 0.0
H1769 H 0.4077 0.89438 0.17396 0.0
H1770 H 0.46951 0.00243 0.16433 0.0
H1771 H 0.48464 0.93953 0.14018 0.0
H1772 H 0.46624 0.98667 0.21205 0.0
H1773 H 0.4308 0.96665 0.20161 0.0
H1774 H 0.45257 0.00097 0.19472 0.0
H1775 H 0.48489 0.90945 0.18214 0.0
H1776 H 0.47602 0.90071 0.15616 0.0
H1777 H 0.44908 0.89007 0.17242 0.0
C1778 C 0.08722 0.52012 0.24607 0.0
C1779 C 0.07737 0.53043 0.26063 0.0
C1780 C 0.07648 0.51592 0.22648 0.0
C1781 C 0.05532 0.52215 0.22134 0.0
C1782 C 0.04522 0.53253 0.23596 0.0
C1783 C 0.05645 0.53663 0.25546 0.0
C1784 C 0.0879 0.505 0.21128 0.0
C1785 C 0.02255 0.53924 0.231 0.0
C1786 C 0.04569 0.5348 0.16871 0.0
C1787 C 0.02319 0.50912 0.16096 0.0
C1788 C 0.05624 0.5394 0.1884 0.0
C1789 C 0.04386 0.51784 0.20061 0.0
C1790 C 0.02098 0.49194 0.1929 0.0
C1791 C 0.01097 0.48787 0.17314 0.0
C1792 C 0.08082 0.56722 0.19608 0.0
C1793 C 0.00715 0.46853 0.20552 0.0
H1794 H 0.10371 0.51572 0.24997 0.0
H1795 H 0.04864 0.5444 0.2667 0.0
H1796 H 0.07084 0.48543 0.20347 0.0
H1797 H 0.09684 0.51995 0.20027 0.0
H1798 H 0.10433 0.50114 0.21772 0.0
H1799 H 0.01692 0.54702 0.2441 0.0
H1800 H 0.02942 0.55508 0.22049 0.0
H1801 H 0.0036 0.52056 0.22386 0.0
H1802 H 0.05535 0.55118 0.15928 0.0
H1803 H 0.99332 0.46811 0.16724 0.0
H1804 H 0.09859 0.56479 0.20158 0.0
H1805 H 0.07535 0.57629 0.20855 0.0
H1806 H 0.08773 0.58195 0.18476 0.0
H1807 H 0.02248 0.46289 0.21142 0.0
H1808 H 0.98918 0.44987 0.19737 0.0
H1809 H 0.99971 0.4751 0.21816 0.0
C1810 C 0.49129 0.54334 0.23963 0.0
C1811 C 0.46446 0.5363 0.24428 0.0
C1812 C 0.49598 0.53784 0.22062 0.0
C1813 C 0.47325 0.5246 0.20589 0.0
C1814 C 0.44595 0.51642 0.21062 0.0
C1815 C 0.44189 0.5225 0.22974 0.0
C1816 C 0.52543 0.54698 0.21616 0.0
C1817 C 0.42116 0.502 0.19534 0.0
C1818 C 0.49087 0.53926 0.15408 0.0
C1819 C 0.4925 0.51615 0.14733 0.0
C1820 C 0.48403 0.54195 0.17298 0.0
C1821 C 0.47842 0.52088 0.18537 0.0
C1822 C 0.47922 0.4971 0.17844 0.0
C1823 C 0.48646 0.49511 0.15952 0.0
C1824 C 0.48374 0.5678 0.1799 0.0
C1825 C 0.47296 0.47403 0.19113 0.0
H1826 H 0.50875 0.55344 0.25087 0.0
H1827 H 0.42113 0.51717 0.23313 0.0
H1828 H 0.52661 0.52922 0.20947 0.0
H1829 H 0.53172 0.56252 0.20543 0.0
H1830 H 0.54067 0.55616 0.2294 0.0
H1831 H 0.40109 0.49484 0.20171 0.0
H1832 H 0.42289 0.51628 0.18431 0.0
H1833 H 0.42078 0.48396 0.18758 0.0
H1834 H 0.49587 0.55574 0.14479 0.0
H1835 H 0.48747 0.47711 0.15426 0.0
H1836 H 0.50004 0.57921 0.19233 0.0
H1837 H 0.46337 0.56234 0.18521 0.0
H1838 H 0.48757 0.58176 0.16822 0.0
H1839 H 0.48896 0.48168 0.20388 0.0
H1840 H 0.47262 0.45614 0.18312 0.0
H1841 H 0.45249 0.46689 0.19685 0.0
C1842 C 0.93409 0.48906 0.79655 0.0
C1843 C 0.94373 0.47527 0.78455 0.0
C1844 C 0.94295 0.4955 0.81661 0.0
C1845 C 0.96161 0.48768 0.8249 0.0
C1846 C 0.97212 0.47459 0.81277 0.0
C1847 C 0.96321 0.46873 0.79274 0.0
C1848 C 0.93154 0.50977 0.82905 0.0
C1849 C 0.99201 0.46584 0.82106 0.0
C1850 C 0.00067 0.5172 0.8754 0.0
C1851 C 0.9844 0.49594 0.8867 0.0
C1852 C 0.993 0.5153 0.85535 0.0
C1853 C 0.96873 0.49139 0.84639 0.0
C1854 C 0.95189 0.47018 0.85785 0.0
C1855 C 0.95986 0.47279 0.87788 0.0
C1856 C 0.01122 0.53852 0.84366 0.0
C1857 C 0.926 0.44424 0.84882 0.0
H1858 H 0.91884 0.49396 0.79043 0.0
H1859 H 0.97121 0.45859 0.78352 0.0
H1860 H 0.91763 0.49534 0.83901 0.0
H1861 H 0.94876 0.52775 0.83826 0.0
H1862 H 0.91951 0.51697 0.82013 0.0
H1863 H 0.99918 0.45697 0.80954 0.0
H1864 H 0.01052 0.48372 0.82938 0.0
H1865 H 0.98162 0.45015 0.83138 0.0
H1866 H 0.01954 0.53522 0.88224 0.0
H1867 H 0.94743 0.45615 0.88652 0.0
H1868 H 0.99847 0.54534 0.83522 0.0
H1869 H 0.02079 0.53116 0.833 0.0
H1870 H 0.02815 0.55656 0.85305 0.0
H1871 H 0.91168 0.44954 0.84076 0.0
H1872 H 0.9146 0.43021 0.85988 0.0
H1873 H 0.9318 0.43295 0.83813 0.0
C1874 C 0.53235 0.46876 0.79207 0.0
C1875 C 0.56003 0.47614 0.7898 0.0
C1876 C 0.52476 0.47421 0.81007 0.0
C1877 C 0.54533 0.48727 0.82622 0.0
C1878 C 0.57339 0.49509 0.82397 0.0
C1879 C 0.58042 0.48949 0.80576 0.0
C1880 C 0.49466 0.46576 0.81184 0.0
C1881 C 0.59588 0.50893 0.84089 0.0
C1882 C 0.52923 0.52111 0.86874 0.0
C1883 C 0.52019 0.50063 0.88169 0.0
C1884 C 0.53773 0.51717 0.8507 0.0
C1885 C 0.5373 0.49219 0.84555 0.0
C1886 C 0.52852 0.47158 0.85866 0.0
C1887 C 0.52 0.47602 0.87656 0.0
C1888 C 0.54678 0.53954 0.83704 0.0
C1889 C 0.52797 0.44476 0.85375 0.0
H1890 H 0.51659 0.45878 0.7797 0.0
H1891 H 0.60179 0.49498 0.80412 0.0
H1892 H 0.48621 0.45057 0.82275 0.0
H1893 H 0.49313 0.48395 0.8171 0.0
H1894 H 0.48135 0.45644 0.79775 0.0
H1895 H 0.61681 0.51434 0.83661 0.0
H1896 H 0.5967 0.52804 0.84701 0.0
H1897 H 0.59097 0.49507 0.8527 0.0
H1898 H 0.52915 0.54006 0.87256 0.0
H1899 H 0.51339 0.46029 0.88664 0.0
H1900 H 0.53275 0.53149 0.82321 0.0
H1901 H 0.56815 0.54595 0.8333 0.0
H1902 H 0.54654 0.55801 0.84342 0.0
H1903 H 0.51349 0.4335 0.84042 0.0
H1904 H 0.52128 0.43114 0.86575 0.0
H1905 H 0.54898 0.44896 0.85058 0.0
C1906 C 0.56722 0.10143 0.81667 0.0
C1907 C 0.54763 0.08782 0.80034 0.0
C1908 C 0.56233 0.09073 0.83487 0.0
C1909 C 0.53748 0.06566 0.83662 0.0
C1910 C 0.51822 0.05129 0.81994 0.0
C1911 C 0.52344 0.06266 0.80204 0.0
C1912 C 0.5832 0.10678 0.85236 0.0
C1913 C 0.49172 0.02428 0.82112 0.0
C1914 C 0.53132 0.02567 0.88054 0.0
C1915 C 0.51468 0.03215 0.89161 0.0
C1916 C 0.53933 0.03676 0.86273 0.0
C1917 C 0.53078 0.05505 0.85602 0.0
C1918 C 0.51463 0.06226 0.86743 0.0
C1919 C 0.5066 0.05055 0.88503 0.0
C1920 C 0.55621 0.02829 0.85084 0.0
C1921 C 0.50544 0.08199 0.86091 0.0
H1922 H 0.58582 0.12099 0.81536 0.0
H1923 H 0.50842 0.05203 0.78934 0.0
H1924 H 0.57347 0.11389 0.86307 0.0
H1925 H 0.58949 0.09338 0.85974 0.0
H1926 H 0.6022 0.12507 0.84835 0.0
H1927 H 0.47992 0.01478 0.80656 0.0
H1928 H 0.49659 0.00945 0.82782 0.0
H1929 H 0.47808 0.02769 0.83057 0.0
H1930 H 0.5374 0.01126 0.88554 0.0
H1931 H 0.494 0.05582 0.89369 0.0
H1932 H 0.57543 0.04681 0.84742 0.0
H1933 H 0.54396 0.01702 0.83675 0.0
H1934 H 0.56221 0.01483 0.85851 0.0
H1935 H 0.52376 0.10162 0.85785 0.0
H1936 H 0.49435 0.08669 0.872 0.0
H1937 H 0.49132 0.07302 0.84716 0.0
C1938 C 0.14167 0.268 0.57429 0.0
C1939 C 0.11383 0.2492 0.57683 0.0
C1940 C 0.14885 0.28022 0.55678 0.0
C1941 C 0.12767 0.27353 0.54146 0.0
C1942 C 0.09954 0.25456 0.54391 0.0
C1943 C 0.09297 0.2426 0.56156 0.0
C1944 C 0.17908 0.30041 0.55471 0.0
C1945 C 0.07639 0.24686 0.52789 0.0
C1946 C 0.14279 0.32396 0.5032 0.0
C1947 C 0.14932 0.31154 0.4878 0.0
C1948 C 0.1356 0.31176 0.52071 0.0
C1949 C 0.13495 0.28653 0.52289 0.0
C1950 C 0.14137 0.27379 0.50737 0.0
C1951 C 0.14847 0.28644 0.49001 0.0
C1952 C 0.12872 0.32588 0.5369 0.0
C1953 C 0.14096 0.24691 0.50918 0.0
H1954 H 0.15784 0.27344 0.58612 0.0
H1955 H 0.07146 0.22779 0.56332 0.0
H1956 H 0.18583 0.29321 0.54197 0.0
H1957 H 0.18167 0.32081 0.55197 0.0
H1958 H 0.19306 0.30313 0.5679 0.0
H1959 H 0.05558 0.23185 0.53215 0.0
H1960 H 0.07603 0.26561 0.524 0.0
H1961 H 0.08019 0.23774 0.51458 0.0
H1962 H 0.14303 0.34316 0.50148 0.0
H1963 H 0.15383 0.27691 0.47826 0.0
H1964 H 0.14322 0.33061 0.55021 0.0
H1965 H 0.10732 0.31192 0.54067 0.0
H1966 H 0.13012 0.34539 0.53286 0.0
H1967 H 0.15618 0.24949 0.52148 0.0
H1968 H 0.14613 0.23951 0.49567 0.0
H1969 H 0.12006 0.23077 0.51248 0.0
C1970 C 0.76072 0.85474 0.57879 0.0
C1971 C 0.75052 0.86482 0.59323 0.0
C1972 C 0.75019 0.8506 0.55914 0.0
C1973 C 0.72885 0.85654 0.55388 0.0
C1974 C 0.71854 0.86682 0.5684 0.0
C1975 C 0.72959 0.87094 0.58792 0.0
C1976 C 0.76186 0.83984 0.54402 0.0
C1977 C 0.69561 0.87315 0.56334 0.0
C1978 C 0.71729 0.86814 0.50128 0.0
C1979 C 0.69474 0.84228 0.49391 0.0
C1980 C 0.72869 0.87306 0.52078 0.0
C1981 C 0.71706 0.85166 0.53319 0.0
C1982 C 0.69422 0.82554 0.52584 0.0
C1983 C 0.68339 0.82113 0.50625 0.0
C1984 C 0.75323 0.90109 0.52808 0.0
C1985 C 0.68112 0.80232 0.53871 0.0
H1986 H 0.77714 0.85031 0.58285 0.0
H1987 H 0.7215 0.87848 0.59911 0.0
H1988 H 0.74503 0.81989 0.53651 0.0
H1989 H 0.77019 0.85449 0.53276 0.0
H1990 H 0.77878 0.83673 0.55049 0.0
H1991 H 0.69009 0.88123 0.57634 0.0
H1992 H 0.70211 0.8886 0.55254 0.0
H1993 H 0.67666 0.85419 0.55649 0.0
H1994 H 0.72624 0.88442 0.4917 0.0
H1995 H 0.66573 0.80123 0.50062 0.0
H1996 H 0.77115 0.89894 0.53366 0.0
H1997 H 0.74782 0.91043 0.54042 0.0
H1998 H 0.75989 0.91545 0.51652 0.0
H1999 H 0.6969 0.79729 0.54464 0.0
H2000 H 0.66333 0.78332 0.53076 0.0
H2001 H 0.67357 0.80882 0.55132 0.0
C2002 C 0.1559 0.87137 0.56806 0.0
C2003 C 0.12923 0.86585 0.57198 0.0
C2004 C 0.16121 0.86595 0.54921 0.0
C2005 C 0.13921 0.85432 0.53391 0.0
C2006 C 0.11196 0.84751 0.53791 0.0
C2007 C 0.10731 0.85349 0.55688 0.0
C2008 C 0.19059 0.8736 0.54554 0.0
C2009 C 0.08792 0.8348 0.52202 0.0
C2010 C 0.16012 0.8707 0.48292 0.0
C2011 C 0.16033 0.84696 0.47575 0.0
C2012 C 0.15282 0.87312 0.5017 0.0
C2013 C 0.14525 0.85113 0.51354 0.0
C2014 C 0.14472 0.8268 0.5062 0.0
C2015 C 0.15248 0.82509 0.48742 0.0
C2016 C 0.154 0.89955 0.50908 0.0
C2017 C 0.13636 0.80278 0.5183 0.0
H2018 H 0.17282 0.88034 0.57972 0.0
H2019 H 0.08668 0.84933 0.55971 0.0
H2020 H 0.19084 0.85549 0.53852 0.0
H2021 H 0.19854 0.88988 0.53535 0.0
H2022 H 0.20508 0.88134 0.55917 0.0
H2023 H 0.0676 0.82826 0.52786 0.0
H2024 H 0.09116 0.84997 0.51136 0.0
H2025 H 0.08689 0.81661 0.51396 0.0
H2026 H 0.16652 0.88779 0.47403 0.0
H2027 H 0.1524 0.80662 0.48182 0.0
H2028 H 0.1697 0.9096 0.522 0.0
H2029 H 0.13356 0.89501 0.51381 0.0
H2030 H 0.15954 0.91437 0.49784 0.0
H2031 H 0.15154 0.80912 0.53144 0.0
H2032 H 0.13542 0.78474 0.51004 0.0
H2033 H 0.11566 0.79633 0.52343 0.0
C2034 C 0.62686 0.80081 0.12836 0.0
C2035 C 0.60734 0.80761 0.12065 0.0
C2036 C 0.63653 0.80676 0.14825 0.0
C2037 C 0.62684 0.82029 0.16072 0.0
C2038 C 0.60819 0.82843 0.15291 0.0
C2039 C 0.59848 0.8218 0.13299 0.0
C2040 C 0.65633 0.79761 0.15605 0.0
C2041 C 0.5977 0.84323 0.16572 0.0
C2042 C 0.62664 0.80546 0.21361 0.0
C2043 C 0.65175 0.82824 0.22207 0.0
C2044 C 0.61797 0.803 0.19373 0.0
C2045 C 0.63467 0.82401 0.1821 0.0
C2046 C 0.65951 0.8476 0.19073 0.0
C2047 C 0.66791 0.84932 0.21063 0.0
C2048 C 0.59153 0.77735 0.18502 0.0
C2049 C 0.67755 0.87064 0.17886 0.0
H2050 H 0.63432 0.79042 0.11886 0.0
H2051 H 0.58322 0.82694 0.12724 0.0
H2052 H 0.67528 0.81538 0.16405 0.0
H2053 H 0.64619 0.78212 0.16655 0.0
H2054 H 0.66278 0.78834 0.14429 0.0
H2055 H 0.58573 0.85077 0.15709 0.0
H2056 H 0.58397 0.82905 0.17587 0.0
H2057 H 0.6154 0.86106 0.17473 0.0
H2058 H 0.61431 0.78897 0.22238 0.0
H2059 H 0.68724 0.86703 0.21722 0.0
H2060 H 0.59659 0.76575 0.17405 0.0
H2061 H 0.57725 0.78303 0.17736 0.0
H2062 H 0.58037 0.76346 0.19622 0.0
H2063 H 0.68661 0.86301 0.16795 0.0
H2064 H 0.69487 0.8886 0.18808 0.0
H2065 H 0.66479 0.87769 0.17068 0.0
C2066 C 0.2433 0.82266 0.1321 0.0
C2067 C 0.22341 0.81029 0.11578 0.0
C2068 C 0.23567 0.82709 0.15038 0.0
C2069 C 0.2075 0.81904 0.15236 0.0
C2070 C 0.1874 0.80691 0.13588 0.0
C2071 C 0.19558 0.80263 0.11779 0.0
C2072 C 0.25768 0.83996 0.16764 0.0
C2073 C 0.1572 0.79826 0.13738 0.0
C2074 C 0.18205 0.80547 0.20261 0.0
C2075 C 0.18283 0.83014 0.20861 0.0
C2076 C 0.19008 0.80162 0.18435 0.0
C2077 C 0.19897 0.82289 0.17176 0.0
C2078 C 0.19971 0.8478 0.17771 0.0
C2079 C 0.1917 0.85115 0.19609 0.0
C2080 C 0.18921 0.77484 0.17858 0.0
C2081 C 0.20887 0.87087 0.16464 0.0
H2082 H 0.26476 0.8283 0.13069 0.0
H2083 H 0.1802 0.79335 0.10517 0.0
H2084 H 0.25845 0.85881 0.17425 0.0
H2085 H 0.25229 0.82537 0.17901 0.0
H2086 H 0.27876 0.84556 0.16358 0.0
H2087 H 0.14429 0.7897 0.12309 0.0
H2088 H 0.1484 0.7824 0.1478 0.0
H2089 H 0.15554 0.81618 0.14312 0.0
H2090 H 0.17553 0.7893 0.21233 0.0
H2091 H 0.19203 0.87013 0.20058 0.0
H2092 H 0.21029 0.77904 0.17563 0.0
H2093 H 0.17516 0.76454 0.16493 0.0
H2094 H 0.18185 0.76039 0.19006 0.0
H2095 H 0.23046 0.87781 0.16115 0.0
H2096 H 0.2082 0.88891 0.17142 0.0
H2097 H 0.19526 0.86334 0.15063 0.0
C2098 C 0.1799 0.40246 0.13856 0.0
C2099 C 0.20665 0.42422 0.13629 0.0
C2100 C 0.17391 0.39016 0.15611 0.0
C2101 C 0.19519 0.39979 0.1718 0.0
C2102 C 0.22232 0.42155 0.16957 0.0
C2103 C 0.22774 0.4335 0.15182 0.0
C2104 C 0.14475 0.36691 0.15787 0.0
C2105 C 0.24556 0.43235 0.18598 0.0
C2106 C 0.17235 0.38464 0.22264 0.0
C2107 C 0.17504 0.36149 0.22554 0.0
C2108 C 0.17914 0.3975 0.20532 0.0
C2109 C 0.18893 0.38702 0.19055 0.0
C2110 C 0.19193 0.36383 0.19344 0.0
C2111 C 0.18489 0.35132 0.21086 0.0
C2112 C 0.17564 0.42218 0.20277 0.0
C2113 C 0.20225 0.35202 0.17801 0.0
H2114 H 0.16363 0.39486 0.12651 0.0
H2115 H 0.24838 0.45046 0.15023 0.0
H2116 H 0.14532 0.34813 0.16135 0.0
H2117 H 0.13584 0.37258 0.17003 0.0
H2118 H 0.13059 0.3618 0.14428 0.0
H2119 H 0.26558 0.44913 0.18182 0.0
H2120 H 0.23981 0.44035 0.19888 0.0
H2121 H 0.24874 0.41536 0.19048 0.0
H2122 H 0.16515 0.39288 0.23402 0.0
H2123 H 0.18666 0.33322 0.21284 0.0
H2124 H 0.16041 0.41761 0.18995 0.0
H2125 H 0.19575 0.44011 0.19991 0.0
H2126 H 0.16828 0.4281 0.21579 0.0
H2127 H 0.18764 0.34475 0.16449 0.0
H2128 H 0.20431 0.33447 0.18278 0.0
H2129 H 0.22284 0.36824 0.17427 0.0
C2130 C 0.76518 0.59232 0.90063 0.0
C2131 C 0.76676 0.56876 0.90419 0.0
C2132 C 0.77339 0.6049 0.88334 0.0
C2133 C 0.78332 0.59358 0.86924 0.0
C2134 C 0.7843 0.56939 0.87254 0.0
C2135 C 0.77607 0.55731 0.88999 0.0
C2136 C 0.77219 0.63076 0.88041 0.0
C2137 C 0.79453 0.55656 0.85778 0.0
C2138 C 0.7857 0.61469 0.81766 0.0
C2139 C 0.81391 0.63486 0.81778 0.0
C2140 C 0.77544 0.60098 0.83426 0.0
C2141 C 0.79379 0.6077 0.85144 0.0
C2142 C 0.82227 0.62801 0.85165 0.0
C2143 C 0.83199 0.64127 0.83482 0.0
C2144 C 0.74494 0.57941 0.83347 0.0
C2145 C 0.84251 0.63574 0.86968 0.0
H2146 H 0.75832 0.60145 0.91166 0.0
H2147 H 0.77701 0.5389 0.89258 0.0
H2148 H 0.79356 0.64831 0.87969 0.0
H2149 H 0.75988 0.62811 0.86636 0.0
H2150 H 0.76277 0.63622 0.89235 0.0
H2151 H 0.79283 0.53707 0.86215 0.0
H2152 H 0.78241 0.55218 0.84335 0.0
H2153 H 0.81668 0.57125 0.85596 0.0
H2154 H 0.7715 0.60986 0.80464 0.0
H2155 H 0.85389 0.6565 0.83496 0.0
H2156 H 0.73492 0.58562 0.84451 0.0
H2157 H 0.74271 0.55944 0.83708 0.0
H2158 H 0.73353 0.57623 0.81889 0.0
H2159 H 0.83533 0.64311 0.88208 0.0
H2160 H 0.86394 0.65214 0.86751 0.0
H2161 H 0.84332 0.61734 0.87388 0.0
C2162 C 0.38409 0.17378 0.92099 0.0
C2163 C 0.4069 0.19974 0.9279 0.0
C2164 C 0.37215 0.16825 0.90158 0.0
C2165 C 0.38325 0.18922 0.8888 0.0
C2166 C 0.40587 0.21565 0.89578 0.0
C2167 C 0.41745 0.22058 0.91524 0.0
C2168 C 0.34797 0.13983 0.89467 0.0
C2169 C 0.41827 0.23852 0.88257 0.0
C2170 C 0.37204 0.16713 0.83449 0.0
C2171 C 0.34982 0.17103 0.82836 0.0
C2172 C 0.38317 0.17307 0.85411 0.0
C2173 C 0.37183 0.1832 0.86793 0.0
C2174 C 0.34955 0.1874 0.86182 0.0
C2175 C 0.33878 0.18124 0.8421 0.0
C2176 C 0.40688 0.16824 0.86008 0.0
C2177 C 0.33704 0.19833 0.87613 0.0
H2178 H 0.3756 0.15771 0.93078 0.0
H2179 H 0.43531 0.24058 0.92039 0.0
H2180 H 0.32994 0.14135 0.88844 0.0
H2181 H 0.35391 0.13013 0.8829 0.0
H2182 H 0.34124 0.12609 0.9066 0.0
H2183 H 0.43492 0.25828 0.89051 0.0
H2184 H 0.42725 0.23253 0.87063 0.0
H2185 H 0.4018 0.24195 0.87572 0.0
H2186 H 0.38039 0.15889 0.82398 0.0
H2187 H 0.32182 0.18459 0.8374 0.0
H2188 H 0.40049 0.15291 0.87097 0.0
H2189 H 0.42507 0.18767 0.86712 0.0
H2190 H 0.41356 0.1606 0.84749 0.0
H2191 H 0.32872 0.18421 0.88771 0.0
H2192 H 0.31991 0.20061 0.86901 0.0
H2193 H 0.35338 0.21872 0.88339 0.0
C2194 C 0.77576 0.19708 0.89168 0.0
C2195 C 0.7973 0.20921 0.90701 0.0
C2196 C 0.78099 0.19162 0.87278 0.0
C2197 C 0.8084 0.19853 0.86917 0.0
C2198 C 0.83006 0.21012 0.88469 0.0
C2199 C 0.82422 0.21522 0.90342 0.0
C2200 C 0.75736 0.17912 0.85658 0.0
C2201 C 0.85955 0.21767 0.88145 0.0
C2202 C 0.82232 0.16741 0.82403 0.0
C2203 C 0.83135 0.18905 0.81205 0.0
C2204 C 0.81398 0.16986 0.84245 0.0
C2205 C 0.81484 0.19461 0.84906 0.0
C2206 C 0.82334 0.2163 0.83685 0.0
C2207 C 0.83144 0.21322 0.81846 0.0
C2208 C 0.8048 0.14621 0.855 0.0
C2209 C 0.8247 0.24308 0.84344 0.0
H2210 H 0.75496 0.19258 0.89434 0.0
H2211 H 0.84084 0.22412 0.9153 0.0
H2212 H 0.76147 0.19403 0.84557 0.0
H2213 H 0.75589 0.16041 0.84903 0.0
H2214 H 0.73696 0.17343 0.86201 0.0
H2215 H 0.87383 0.22583 0.89519 0.0
H2216 H 0.8599 0.19934 0.87496 0.0
H2217 H 0.86769 0.23354 0.87098 0.0
H2218 H 0.82184 0.14853 0.819 0.0
H2219 H 0.83864 0.2301 0.80932 0.0
H2220 H 0.78398 0.14027 0.85971 0.0
H2221 H 0.81959 0.15274 0.86839 0.0
H2222 H 0.80376 0.12779 0.84727 0.0
H2223 H 0.80427 0.23896 0.84795 0.0
H2224 H 0.83045 0.25736 0.83183 0.0
H2225 H 0.84034 0.25354 0.85634 0.0
C2226 C 0.28788 0.12305 0.46405 0.0
C2227 C 0.26638 0.12768 0.45727 0.0
C2228 C 0.29796 0.12851 0.48385 0.0
C2229 C 0.28632 0.13895 0.4972 0.0
C2230 C 0.26507 0.14428 0.49041 0.0
C2231 C 0.25532 0.13854 0.4705 0.0
C2232 C 0.32075 0.12268 0.49055 0.0
C2233 C 0.25222 0.15546 0.50422 0.0
C2234 C 0.29295 0.12555 0.54997 0.0
C2235 C 0.31605 0.15066 0.55798 0.0
C2236 C 0.28271 0.12166 0.53027 0.0
C2237 C 0.29587 0.14344 0.51834 0.0
C2238 C 0.31879 0.16906 0.52644 0.0
C2239 C 0.32864 0.17235 0.54618 0.0
C2240 C 0.25827 0.094 0.52212 0.0
C2241 C 0.33321 0.1928 0.51418 0.0
H2242 H 0.29681 0.11508 0.45382 0.0
H2243 H 0.2385 0.1419 0.46537 0.0
H2244 H 0.33883 0.14162 0.49826 0.0
H2245 H 0.31307 0.10684 0.50106 0.0
H2246 H 0.32802 0.11522 0.47824 0.0
H2247 H 0.23688 0.15977 0.49647 0.0
H2248 H 0.24151 0.14037 0.51485 0.0
H2249 H 0.2687 0.17478 0.51268 0.0
H2250 H 0.28336 0.10863 0.55898 0.0
H2251 H 0.34628 0.19192 0.55239 0.0
H2252 H 0.26485 0.08436 0.51072 0.0
H2253 H 0.24142 0.09671 0.51508 0.0
H2254 H 0.24966 0.0796 0.53353 0.0
H2255 H 0.34253 0.18697 0.50239 0.0
H2256 H 0.34995 0.21175 0.5229 0.0
H2257 H 0.31786 0.1976 0.50708 0.0
C2258 C 0.86725 0.13213 0.45713 0.0
C2259 C 0.89494 0.13963 0.45468 0.0
C2260 C 0.85962 0.13676 0.47535 0.0
C2261 C 0.88018 0.14931 0.49155 0.0
C2262 C 0.90818 0.15703 0.48919 0.0
C2263 C 0.91523 0.1521 0.47079 0.0
C2264 C 0.82955 0.12832 0.47724 0.0
C2265 C 0.93069 0.17043 0.50613 0.0
C2266 C 0.8646 0.18388 0.53395 0.0
C2267 C 0.85576 0.16372 0.54717 0.0
C2268 C 0.87288 0.17957 0.51591 0.0
C2269 C 0.87232 0.15449 0.51092 0.0
C2270 C 0.86365 0.13415 0.52425 0.0
C2271 C 0.8555 0.13901 0.54221 0.0
C2272 C 0.88211 0.20183 0.50214 0.0
C2273 C 0.86266 0.10709 0.51943 0.0
H2274 H 0.85152 0.12289 0.4447 0.0
H2275 H 0.9366 0.15766 0.46908 0.0
H2276 H 0.82132 0.11359 0.48846 0.0
H2277 H 0.82805 0.14665 0.48214 0.0
H2278 H 0.81605 0.11851 0.46328 0.0
H2279 H 0.95149 0.17534 0.50186 0.0
H2280 H 0.93201 0.1898 0.51223 0.0
H2281 H 0.92542 0.15656 0.51795 0.0
H2282 H 0.86531 0.20321 0.53781 0.0
H2283 H 0.84844 0.12323 0.55226 0.0
H2284 H 0.86829 0.1937 0.48822 0.0
H2285 H 0.90357 0.20823 0.49861 0.0
H2286 H 0.88177 0.22033 0.50833 0.0
H2287 H 0.84785 0.09575 0.50625 0.0
H2288 H 0.85612 0.09372 0.53157 0.0
H2289 H 0.88347 0.11095 0.51602 0.0
C2290 C 0.89624 0.7626 0.484 0.0
C2291 C 0.87656 0.74966 0.46762 0.0
C2292 C 0.89107 0.75163 0.50211 0.0
C2293 C 0.86579 0.72693 0.50376 0.0
C2294 C 0.84637 0.71323 0.48705 0.0
C2295 C 0.8519 0.72487 0.46923 0.0
C2296 C 0.91213 0.76704 0.51962 0.0
C2297 C 0.81937 0.68665 0.48811 0.0
C2298 C 0.85785 0.68625 0.54766 0.0
C2299 C 0.84167 0.69344 0.55868 0.0
C2300 C 0.86629 0.6973 0.52987 0.0
C2301 C 0.8587 0.7163 0.52315 0.0
C2302 C 0.84317 0.72431 0.53459 0.0
C2303 C 0.83469 0.71265 0.55213 0.0
C2304 C 0.88255 0.68801 0.51798 0.0
C2305 C 0.83502 0.74483 0.52813 0.0
H2306 H 0.91523 0.78189 0.48282 0.0
H2307 H 0.8368 0.71468 0.45652 0.0
H2308 H 0.90289 0.77465 0.5304 0.0
H2309 H 0.91768 0.75305 0.5269 0.0
H2310 H 0.9315 0.78494 0.51566 0.0
H2311 H 0.80751 0.67752 0.47353 0.0
H2312 H 0.82359 0.67134 0.4947 0.0
H2313 H 0.80606 0.69053 0.49762 0.0
H2314 H 0.86313 0.67128 0.55265 0.0
H2315 H 0.82247 0.7185 0.56077 0.0
H2316 H 0.90208 0.70613 0.51452 0.0
H2317 H 0.8701 0.6769 0.50391 0.0
H2318 H 0.88794 0.67415 0.52566 0.0
H2319 H 0.85378 0.7641 0.52507 0.0
H2320 H 0.82436 0.7501 0.53924 0.0
H2321 H 0.82084 0.73624 0.51439 0.0
loop_
_geom_bond_atom_site_label_1
_geom_bond_atom_site_label_2
_geom_bond_distance
_geom_bond_site_symmetry_2
_ccdc_geom_bond_type
H0 C7 0.929 . S
H1 C10 0.930 . S
H2 C12 0.929 . S
H3 C4 0.969 . S
C4 H3 0.969 . S
C4 O5 1.550 . S
C4 H6 0.973 . S
O5 C4 1.550 . S
O5 C11 1.412 . S
H6 C4 0.973 . S
C7 H0 0.929 . S
C7 C8 1.400 . S
C7 C9 1.364 . S
C8 C7 1.400 . S
C8 C12 1.377 . S
C9 C7 1.364 . S
C9 C10 1.374 . S
C10 H1 0.930 . S
C10 C9 1.374 . S
C10 C11 1.383 . S
C11 O5 1.412 . S
C11 C10 1.383 . S
C11 C12 1.394 . S
C12 H2 0.929 . S
C12 C8 1.377 . S
C12 C11 1.394 . S
H13 C20 0.929 . S
H14 C23 0.930 . S
H15 C25 0.929 . S
H16 C17 0.969 . S
C17 H16 0.969 . S
C17 O18 1.550 . S
C17 H19 0.973 . S
O18 C17 1.550 . S
O18 C24 1.412 . S
H19 C17 0.973 . S
C20 H13 0.929 . S
C20 C21 1.400 . S
C20 C22 1.364 . S
C21 C20 1.400 . S
C21 C25 1.377 . S
C22 C20 1.364 . S
C22 C23 1.374 . S
C23 H14 0.930 . S
C23 C22 1.374 . S
C23 C24 1.383 . S
C24 O18 1.412 . S
C24 C23 1.383 . S
C24 C25 1.394 . S
C25 H15 0.929 . S
C25 C21 1.377 . S
C25 C24 1.394 . S
H26 C33 0.929 . S
H27 C36 0.930 . S
H28 C38 0.929 . S
H29 C30 0.969 . S
C30 H29 0.969 . S
C30 O31 1.550 . S
C30 H32 0.973 . S
O31 C30 1.550 . S
O31 C37 1.412 . S
H32 C30 0.973 . S
C33 H26 0.929 . S
C33 C34 1.400 . S
C33 C35 1.364 . S
C34 C33 1.400 . S
C34 C38 1.377 . S
C35 C33 1.364 . S
C35 C36 1.374 . S
C36 H27 0.930 . S
C36 C35 1.374 . S
C36 C37 1.383 . S
C37 O31 1.412 . S
C37 C36 1.383 . S
C37 C38 1.394 . S
C38 H28 0.929 . S
C38 C34 1.377 . S
C38 C37 1.394 . S
H39 C46 0.929 . S
H40 C49 0.930 . S
H41 C51 0.929 . S
H42 C43 0.969 . S
C43 H42 0.969 . S
C43 O44 1.550 . S
C43 H45 0.973 . S
O44 C43 1.550 . S
O44 C50 1.412 . S
H45 C43 0.973 . S
C46 H39 0.929 . S
C46 C47 1.400 . S
C46 C48 1.364 . S
C47 C46 1.400 . S
C47 C51 1.377 . S
C48 C46 1.364 . S
C48 C49 1.374 . S
C49 H40 0.930 . S
C49 C48 1.374 . S
C49 C50 1.383 . S
C50 O44 1.412 . S
C50 C49 1.383 . S
C50 C51 1.394 . S
C51 H41 0.929 . S
C51 C47 1.377 . S
C51 C50 1.394 . S
H52 C59 0.929 . S
H53 C62 0.930 . S
H54 C64 0.929 . S
H55 C56 0.969 . S
C56 H55 0.969 . S
C56 O57 1.550 . S
C56 H58 0.973 . S
O57 C56 1.550 . S
O57 C63 1.412 . S
H58 C56 0.973 . S
C59 H52 0.929 . S
C59 C60 1.400 . S
C59 C61 1.364 . S
C60 C59 1.400 . S
C60 C64 1.377 . S
C61 C59 1.364 . S
C61 C62 1.374 . S
C62 H53 0.930 . S
C62 C61 1.374 . S
C62 C63 1.383 . S
C63 O57 1.412 . S
C63 C62 1.383 . S
C63 C64 1.394 . S
C64 H54 0.929 . S
C64 C60 1.377 . S
C64 C63 1.394 . S
H65 C72 0.929 . S
H66 C75 0.930 . S
H67 C77 0.929 . S
H68 C69 0.969 . S
C69 H68 0.969 . S
C69 O70 1.550 . S
C69 H71 0.973 . S
O70 C69 1.550 . S
O70 C76 1.412 . S
H71 C69 0.973 . S
C72 H65 0.929 . S
C72 C73 1.400 . S
C72 C74 1.364 . S
C73 C72 1.400 . S
C73 C77 1.377 . S
C74 C72 1.364 . S
C74 C75 1.374 . S
C75 H66 0.930 . S
C75 C74 1.374 . S
C75 C76 1.383 . S
C76 O70 1.412 . S
C76 C75 1.383 . S
C76 C77 1.394 . S
C77 H67 0.929 . S
C77 C73 1.377 . S
C77 C76 1.394 . S
H78 C85 0.929 . S
H79 C88 0.930 . S
H80 C90 0.929 . S
H81 C82 0.969 . S
C82 H81 0.969 . S
C82 O83 1.550 . S
C82 H84 0.973 . S
O83 C82 1.550 . S
O83 C89 1.412 . S
H84 C82 0.973 . S
C85 H78 0.929 . S
C85 C86 1.400 . S
C85 C87 1.364 . S
C86 C85 1.400 . S
C86 C90 1.377 . S
C87 C85 1.364 . S
C87 C88 1.374 . S
C88 H79 0.930 . S
C88 C87 1.374 . S
C88 C89 1.383 . S
C89 O83 1.412 . S
C89 C88 1.383 . S
C89 C90 1.394 . S
C90 H80 0.929 . S
C90 C86 1.377 . S
C90 C89 1.394 . S
H91 C98 0.929 . S
H92 C101 0.930 . S
H93 C103 0.929 . S
H94 C95 0.969 . S
C95 H94 0.969 . S
C95 O96 1.550 . S
C95 H97 0.973 . S
O96 C95 1.550 . S
O96 C102 1.412 . S
H97 C95 0.973 . S
C98 H91 0.929 . S
C98 C99 1.400 . S
C98 C100 1.364 . S
C99 C98 1.400 . S
C99 C103 1.377 . S
C100 C98 1.364 . S
C100 C101 1.374 . S
C101 H92 0.930 . S
C101 C100 1.374 . S
C101 C102 1.383 . S
C102 O96 1.412 . S
C102 C101 1.383 . S
C102 C103 1.394 . S
C103 H93 0.929 . S
C103 C99 1.377 . S
C103 C102 1.394 . S
H104 C111 0.929 . S
H105 C114 0.930 . S
H106 C116 0.929 . S
H107 C108 0.969 . S
C108 H107 0.969 . S
C108 O109 1.550 . S
C108 H110 0.973 . S
O109 C108 1.550 . S
O109 C115 1.412 . S
H110 C108 0.973 . S
C111 H104 0.929 . S
C111 C112 1.400 . S
C111 C113 1.364 . S
C112 C111 1.400 . S
C112 C116 1.377 . S
C113 C111 1.364 . S
C113 C114 1.374 . S
C114 H105 0.930 . S
C114 C113 1.374 . S
C114 C115 1.383 . S
C115 O109 1.412 . S
C115 C114 1.383 . S
C115 C116 1.394 . S
C116 H106 0.929 . S
C116 C112 1.377 . S
C116 C115 1.394 . S
H117 C124 0.929 . S
H118 C127 0.930 . S
H119 C129 0.929 . S
H120 C121 0.969 . S
C121 H120 0.969 . S
C121 O122 1.550 . S
C121 H123 0.973 . S
O122 C121 1.550 . S
O122 C128 1.412 . S
H123 C121 0.973 . S
C124 H117 0.929 . S
C124 C125 1.400 . S
C124 C126 1.364 . S
C125 C124 1.400 . S
C125 C129 1.377 . S
C126 C124 1.364 . S
C126 C127 1.374 . S
C127 H118 0.930 . S
C127 C126 1.374 . S
C127 C128 1.383 . S
C128 O122 1.412 . S
C128 C127 1.383 . S
C128 C129 1.394 . S
C129 H119 0.929 . S
C129 C125 1.377 . S
C129 C128 1.394 . S
H130 C137 0.929 . S
H131 C140 0.930 . S
H132 C142 0.929 . S
H133 C134 0.969 . S
C134 H133 0.969 . S
C134 O135 1.550 . S
C134 H136 0.973 . S
O135 C134 1.550 . S
O135 C141 1.412 . S
H136 C134 0.973 . S
C137 H130 0.929 . S
C137 C138 1.400 . S
C137 C139 1.364 . S
C138 C137 1.400 . S
C138 C142 1.377 . S
C139 C137 1.364 . S
C139 C140 1.374 . S
C140 H131 0.930 . S
C140 C139 1.374 . S
C140 C141 1.383 . S
C141 O135 1.412 . S
C141 C140 1.383 . S
C141 C142 1.394 . S
C142 H132 0.929 . S
C142 C138 1.377 . S
C142 C141 1.394 . S
H143 C150 0.929 . S
H144 C153 0.930 . S
H145 C155 0.929 . S
H146 C147 0.969 . S
C147 H146 0.969 . S
C147 O148 1.550 . S
C147 H149 0.973 . S
O148 C147 1.550 . S
O148 C154 1.412 . S
H149 C147 0.973 . S
C150 H143 0.929 . S
C150 C151 1.400 . S
C150 C152 1.364 . S
C151 C150 1.400 . S
C151 C155 1.377 . S
C152 C150 1.364 . S
C152 C153 1.374 . S
C153 H144 0.930 . S
C153 C152 1.374 . S
C153 C154 1.383 . S
C154 O148 1.412 . S
C154 C153 1.383 . S
C154 C155 1.394 . S
C155 H145 0.929 . S
C155 C151 1.377 . S
C155 C154 1.394 . S
H156 C163 0.929 . S
H157 C166 0.930 . S
H158 C168 0.929 . S
H159 C160 0.969 . S
C160 H159 0.969 . S
C160 O161 1.550 . S
C160 H162 0.973 . S
O161 C160 1.550 . S
O161 C167 1.412 . S
H162 C160 0.973 . S
C163 H156 0.929 . S
C163 C164 1.400 . S
C163 C165 1.364 . S
C164 C163 1.400 . S
C164 C168 1.377 . S
C165 C163 1.364 . S
C165 C166 1.374 . S
C166 H157 0.930 . S
C166 C165 1.374 . S
C166 C167 1.383 . S
C167 O161 1.412 . S
C167 C166 1.383 . S
C167 C168 1.394 . S
C168 H158 0.929 . S
C168 C164 1.377 . S
C168 C167 1.394 . S
H169 C176 0.929 . S
H170 C179 0.930 . S
H171 C181 0.929 . S
H172 C173 0.969 . S
C173 H172 0.969 . S
C173 O174 1.550 . S
C173 H175 0.973 . S
O174 C173 1.550 . S
O174 C180 1.412 . S
H175 C173 0.973 . S
C176 H169 0.929 . S
C176 C177 1.400 . S
C176 C178 1.364 . S
C177 C176 1.400 . S
C177 C181 1.377 . S
C178 C176 1.364 . S
C178 C179 1.374 . S
C179 H170 0.930 . S
C179 C178 1.374 . S
C179 C180 1.383 . S
C180 O174 1.412 . S
C180 C179 1.383 . S
C180 C181 1.394 . S
C181 H171 0.929 . S
C181 C177 1.377 . S
C181 C180 1.394 . S
H182 C189 0.929 . S
H183 C192 0.930 . S
H184 C194 0.929 . S
H185 C186 0.969 . S
C186 H185 0.969 . S
C186 O187 1.550 . S
C186 H188 0.973 . S
O187 C186 1.550 . S
O187 C193 1.412 . S
H188 C186 0.973 . S
C189 H182 0.929 . S
C189 C190 1.400 . S
C189 C191 1.364 . S
C190 C189 1.400 . S
C190 C194 1.377 . S
C191 C189 1.364 . S
C191 C192 1.374 . S
C192 H183 0.930 . S
C192 C191 1.374 . S
C192 C193 1.383 . S
C193 O187 1.412 . S
C193 C192 1.383 . S
C193 C194 1.394 . S
C194 H184 0.929 . S
C194 C190 1.377 . S
C194 C193 1.394 . S
H195 C202 0.929 . S
H196 C205 0.930 . S
H197 C207 0.929 . S
H198 C199 0.969 . S
C199 H198 0.969 . S
C199 O200 1.550 . S
C199 H201 0.973 . S
O200 C199 1.550 . S
O200 C206 1.412 . S
H201 C199 0.973 . S
C202 H195 0.929 . S
C202 C203 1.400 . S
C202 C204 1.364 . S
C203 C202 1.400 . S
C203 C207 1.377 . S
C204 C202 1.364 . S
C204 C205 1.374 . S
C205 H196 0.930 . S
C205 C204 1.374 . S
C205 C206 1.383 . S
C206 O200 1.412 . S
C206 C205 1.383 . S
C206 C207 1.394 . S
C207 H197 0.929 . S
C207 C203 1.377 . S
C207 C206 1.394 . S
H208 C215 0.929 . S
H209 C218 0.930 . S
H210 C220 0.929 . S
H211 C212 0.969 . S
C212 H211 0.969 . S
C212 O213 1.550 . S
C212 H214 0.973 . S
O213 C212 1.550 . S
O213 C219 1.412 . S
H214 C212 0.973 . S
C215 H208 0.929 . S
C215 C216 1.400 . S
C215 C217 1.364 . S
C216 C215 1.400 . S
C216 C220 1.377 . S
C217 C215 1.364 . S
C217 C218 1.374 . S
C218 H209 0.930 . S
C218 C217 1.374 . S
C218 C219 1.383 . S
C219 O213 1.412 . S
C219 C218 1.383 . S
C219 C220 1.394 . S
C220 H210 0.929 . S
C220 C216 1.377 . S
C220 C219 1.394 . S
H221 C228 0.929 . S
H222 C231 0.930 . S
H223 C233 0.929 . S
H224 C225 0.969 . S
C225 H224 0.969 . S
C225 O226 1.550 . S
C225 H227 0.973 . S
O226 C225 1.550 . S
O226 C232 1.412 . S
H227 C225 0.973 . S
C228 H221 0.929 . S
C228 C229 1.400 . S
C228 C230 1.364 . S
C229 C228 1.400 . S
C229 C233 1.377 . S
C230 C228 1.364 . S
C230 C231 1.374 . S
C231 H222 0.930 . S
C231 C230 1.374 . S
C231 C232 1.383 . S
C232 O226 1.412 . S
C232 C231 1.383 . S
C232 C233 1.394 . S
C233 H223 0.929 . S
C233 C229 1.377 . S
C233 C232 1.394 . S
Tb234 C244 2.825 1_565 S
Tb234 O245 2.347 1_565 S
Tb234 O248 2.366 1_565 S
Tb234 O253 2.418 . S
Tb234 O254 2.384 . S
Tb234 O257 2.479 . S
Tb234 O258 2.471 1_565 S
Eu235 O246 2.418 . S
Eu235 O247 2.384 . S
Eu235 O250 2.479 . S
Eu235 O251 2.471 1_545 S
Eu235 O252 2.347 1_545 S
Eu235 O255 2.366 1_545 S
Eu235 C265 2.825 . S
C236 O252 1.259 . S
C236 O253 1.265 1_554 S
C237 O254 1.255 1_554 S
C237 O255 1.265 . S
C238 C240 1.380 1_545 S
C238 C241 1.374 . S
C238 C244 1.507 . S
C239 C240 1.384 1_545 S
C239 C243 1.387 . S
C239 H266 0.930 1_545 S
C240 C238 1.380 1_565 S
C240 C239 1.384 1_565 S
C240 H267 0.931 . S
C241 C238 1.374 . S
C241 C242 1.390 . S
C241 H268 0.930 . S
C242 C241 1.390 . S
C242 C243 1.391 . S
C242 H269 0.930 . S
C243 C239 1.387 . S
C243 C242 1.391 . S
C244 Tb234 2.825 1_545 S
C244 C238 1.507 . S
C244 O257 1.238 1_545 S
C244 O258 1.247 . S
O245 Tb234 2.347 1_545 S
O245 C249 1.259 1_556 S
O246 Eu235 2.418 . S
O246 C249 1.265 . S
O247 Eu235 2.384 . S
O247 C256 1.255 1_554 S
O248 Tb234 2.366 1_545 S
O248 C256 1.265 . S
C249 O245 1.259 1_554 S
C249 O246 1.265 . S
O250 Eu235 2.479 . S
O250 C265 1.238 . S
O251 Eu235 2.471 1_565 S
O251 C265 1.247 1_565 S
O252 Eu235 2.347 1_565 S
O252 C236 1.259 . S
O253 Tb234 2.418 . S
O253 C236 1.265 1_556 S
O254 Tb234 2.384 . S
O254 C237 1.255 1_556 S
O255 Eu235 2.366 1_565 S
O255 C237 1.265 . S
C256 O247 1.255 1_556 S
C256 O248 1.265 . S
O257 Tb234 2.479 . S
O257 C244 1.238 1_565 S
O258 Tb234 2.471 1_545 S
O258 C244 1.247 . S
C259 C262 1.380 1_565 S
C259 C263 1.374 . S
C259 C265 1.507 1_565 S
C260 C261 1.387 1_565 S
C260 C264 1.391 . S
C261 C260 1.387 1_545 S
C261 C262 1.384 . S
C261 H270 0.930 . S
C262 C259 1.380 1_545 S
C262 C261 1.384 . S
C262 H271 0.931 . S
C263 C259 1.374 . S
C263 C264 1.390 . S
C263 H272 0.930 . S
C264 C260 1.391 . S
C264 C263 1.390 . S
C264 H273 0.930 . S
C265 Eu235 2.825 . S
C265 O250 1.238 . S
C265 O251 1.247 1_545 S
C265 C259 1.507 1_545 S
H266 C239 0.930 1_565 S
H267 C240 0.931 . S
H268 C241 0.930 . S
H269 C242 0.930 . S
H270 C261 0.930 . S
H271 C262 0.931 . S
H272 C263 0.930 . S
H273 C264 0.930 . S
Tb274 C284 2.821 1_455 S
Tb274 O285 2.347 1_455 S
Tb274 O288 2.366 1_455 S
Tb274 O293 2.418 . S
Tb274 O294 2.384 1_556 S
Tb274 O297 2.479 . S
Tb274 O298 2.471 1_455 S
Eu275 O286 2.418 . S
Eu275 O287 2.384 . S
Eu275 O290 2.479 . S
Eu275 O291 2.471 1_655 S
Eu275 O292 2.347 1_655 S
Eu275 O295 2.366 1_655 S
Eu275 C305 2.825 1_655 S
C276 O292 1.259 . S
C276 O293 1.265 1_554 S
C277 O294 1.255 . S
C277 O295 1.265 . S
C278 C280 1.380 1_655 S
C278 C281 1.374 . S
C278 C284 1.512 . S
C279 C280 1.384 1_655 S
C279 C283 1.387 . S
C279 H306 0.930 1_655 S
C280 C278 1.380 1_455 S
C280 C279 1.384 1_455 S
C280 H307 0.931 . S
C281 C278 1.374 . S
C281 C282 1.390 . S
C281 H308 0.930 . S
C282 C281 1.390 . S
C282 C283 1.391 . S
C282 H309 0.930 . S
C283 C279 1.387 . S
C283 C282 1.391 . S
C284 Tb274 2.821 1_655 S
C284 C278 1.512 . S
C284 O297 1.232 1_655 S
C284 O298 1.249 . S
O285 Tb274 2.347 1_655 S
O285 C289 1.259 1_556 S
O286 Eu275 2.418 . S
O286 C289 1.265 . S
O287 Eu275 2.384 . S
O287 C296 1.255 1_554 S
O288 Tb274 2.366 1_655 S
O288 C296 1.265 . S
C289 O285 1.259 1_554 S
C289 O286 1.265 . S
O290 Eu275 2.479 . S
O290 C305 1.238 1_655 S
O291 Eu275 2.471 1_455 S
O291 C305 1.247 . S
O292 Eu275 2.347 1_455 S
O292 C276 1.259 . S
O293 Tb274 2.418 . S
O293 C276 1.265 1_556 S
O294 Tb274 2.384 1_554 S
O294 C277 1.255 . S
O295 Eu275 2.366 1_455 S
O295 C277 1.265 . S
C296 O287 1.255 1_556 S
C296 O288 1.265 . S
O297 Tb274 2.479 . S
O297 C284 1.232 1_455 S
O298 Tb274 2.471 1_655 S
O298 C284 1.249 . S
C299 C302 1.380 . S
C299 C303 1.374 . S
C299 C305 1.507 . S
C300 C301 1.387 . S
C300 C304 1.391 . S
C301 C300 1.387 . S
C301 C302 1.386 . S
C301 H310 0.925 1_455 S
C302 C299 1.380 . S
C302 C301 1.386 . S
C302 H311 0.929 1_455 S
C303 C299 1.374 . S
C303 C304 1.390 . S
C303 H312 0.930 . S
C304 C300 1.391 . S
C304 C303 1.390 . S
C304 H313 0.930 . S
C305 Eu275 2.825 1_455 S
C305 O290 1.238 1_455 S
C305 O291 1.247 . S
C305 C299 1.507 . S
H306 C279 0.930 1_455 S
H307 C280 0.931 . S
H308 C281 0.930 . S
H309 C282 0.930 . S
H310 C301 0.925 1_655 S
H311 C302 0.929 1_655 S
H312 C303 0.930 . S
H313 C304 0.930 . S
Tb314 C324 2.825 . S
Tb314 O325 2.347 . S
Tb314 O328 2.366 . S
Tb314 O333 2.418 . S
Tb314 O334 2.384 . S
Tb314 O337 2.479 . S
Tb314 O338 2.471 . S
Eu315 O326 2.418 . S
Eu315 O327 2.384 1_556 S
Eu315 O330 2.479 . S
Eu315 O331 2.471 . S
Eu315 O332 2.346 . S
Eu315 O335 2.366 . S
Eu315 C345 2.825 . S
C316 O332 1.259 1_554 S
C316 O333 1.265 . S
C317 O334 1.255 1_556 S
C317 O335 1.265 . S
C318 C320 1.380 . S
C318 C321 1.374 . S
C318 C324 1.507 . S
C319 C320 1.384 . S
C319 C323 1.387 . S
C319 H346 0.930 . S
C320 C318 1.380 . S
C320 C319 1.384 . S
C320 H347 0.931 . S
C321 C318 1.374 . S
C321 C322 1.390 . S
C321 H348 0.930 . S
C322 C321 1.390 . S
C322 C323 1.391 . S
C322 H349 0.930 . S
C323 C319 1.387 . S
C323 C322 1.391 . S
C324 Tb314 2.825 . S
C324 C318 1.507 . S
C324 O337 1.238 . S
C324 O338 1.247 . S
O325 Tb314 2.347 . S
O325 C329 1.259 . S
O326 Eu315 2.418 . S
O326 C329 1.265 1_556 S
O327 Eu315 2.384 1_554 S
O327 C336 1.255 . S
O328 Tb314 2.366 . S
O328 C336 1.265 . S
C329 O325 1.259 . S
C329 O326 1.265 1_554 S
O330 Eu315 2.479 . S
O330 C345 1.238 . S
O331 Eu315 2.471 . S
O331 C345 1.247 . S
O332 Eu315 2.346 . S
O332 C316 1.259 1_556 S
O333 Tb314 2.418 . S
O333 C316 1.265 . S
O334 Tb314 2.384 . S
O334 C317 1.255 1_554 S
O335 Eu315 2.366 . S
O335 C317 1.265 . S
C336 O327 1.255 . S
C336 O328 1.265 . S
O337 Tb314 2.479 . S
O337 C324 1.238 . S
O338 Tb314 2.471 . S
O338 C324 1.247 . S
C339 C342 1.380 . S
C339 C343 1.374 . S
C339 C345 1.507 . S
C340 C341 1.387 . S
C340 C344 1.391 . S
C341 C340 1.387 . S
C341 C342 1.384 . S
C341 H350 0.930 . S
C342 C339 1.380 . S
C342 C341 1.384 . S
C342 H351 0.931 . S
C343 C339 1.374 . S
C343 C344 1.390 . S
C343 H352 0.930 . S
C344 C340 1.391 . S
C344 C343 1.390 . S
C344 H353 0.930 . S
C345 Eu315 2.825 . S
C345 O330 1.238 . S
C345 O331 1.247 . S
C345 C339 1.507 . S
H346 C319 0.930 . S
H347 C320 0.931 . S
H348 C321 0.930 . S
H349 C322 0.930 . S
H350 C341 0.930 . S
H351 C342 0.931 . S
H352 C343 0.930 . S
H353 C344 0.930 . S
Tb354 C364 2.825 . S
Tb354 O365 2.347 . S
Tb354 O368 2.366 . S
Tb354 O373 2.418 . S
Tb354 O374 2.384 . S
Tb354 O377 2.479 . S
Tb354 O378 2.471 . S
Eu355 O366 2.418 . S
Eu355 O367 2.384 . S
Eu355 O370 2.479 . S
Eu355 O371 2.471 . S
Eu355 O372 2.347 . S
Eu355 O375 2.366 . S
Eu355 C385 2.825 . S
C356 O372 1.259 . S
C356 O373 1.265 . S
C357 O374 1.255 . S
C357 O375 1.265 . S
C358 C360 1.380 . S
C358 C361 1.374 . S
C358 C364 1.507 . S
C359 C360 1.384 . S
C359 C363 1.387 . S
C359 H386 0.930 . S
C360 C358 1.380 . S
C360 C359 1.384 . S
C360 H387 0.931 . S
C361 C358 1.374 . S
C361 C362 1.390 . S
C361 H388 0.930 . S
C362 C361 1.390 . S
C362 C363 1.391 . S
C362 H389 0.930 . S
C363 C359 1.387 . S
C363 C362 1.391 . S
C364 Tb354 2.825 . S
C364 C358 1.507 . S
C364 O377 1.238 . S
C364 O378 1.247 . S
O365 Tb354 2.347 . S
O365 C369 1.259 . S
O366 Eu355 2.418 . S
O366 C369 1.265 . S
O367 Eu355 2.384 . S
O367 C376 1.255 . S
O368 Tb354 2.366 . S
O368 C376 1.265 . S
C369 O365 1.259 . S
C369 O366 1.265 . S
O370 Eu355 2.479 . S
O370 C385 1.238 . S
O371 Eu355 2.471 . S
O371 C385 1.247 . S
O372 Eu355 2.347 . S
O372 C356 1.259 . S
O373 Tb354 2.418 . S
O373 C356 1.265 . S
O374 Tb354 2.384 . S
O374 C357 1.255 . S
O375 Eu355 2.366 . S
O375 C357 1.265 . S
C376 O367 1.255 . S
C376 O368 1.265 . S
O377 Tb354 2.479 . S
O377 C364 1.238 . S
O378 Tb354 2.471 . S
O378 C364 1.247 . S
C379 C382 1.380 . S
C379 C383 1.374 . S
C379 C385 1.507 . S
C380 C381 1.387 . S
C380 C384 1.391 . S
C381 C380 1.387 . S
C381 C382 1.384 . S
C381 H390 0.930 . S
C382 C379 1.380 . S
C382 C381 1.384 . S
C382 H391 0.931 . S
C383 C379 1.374 . S
C383 C384 1.390 . S
C383 H392 0.930 . S
C384 C380 1.391 . S
C384 C383 1.390 . S
C384 H393 0.930 . S
C385 Eu355 2.825 . S
C385 O370 1.238 . S
C385 O371 1.247 . S
C385 C379 1.507 . S
H386 C359 0.930 . S
H387 C360 0.931 . S
H388 C361 0.930 . S
H389 C362 0.930 . S
H390 C381 0.930 . S
H391 C382 0.931 . S
H392 C383 0.930 . S
H393 C384 0.930 . S
Tb394 C404 2.825 . S
Tb394 O405 2.347 . S
Tb394 O408 2.366 . S
Tb394 O413 2.418 . S
Tb394 O414 2.384 . S
Tb394 O417 2.479 . S
Tb394 O418 2.471 . S
Eu395 O406 2.418 . S
Eu395 O407 2.384 . S
Eu395 O410 2.479 . S
Eu395 O411 2.471 . S
Eu395 O412 2.347 . S
Eu395 O415 2.366 . S
Eu395 C425 2.825 . S
C396 O412 1.259 . S
C396 O413 1.265 . S
C397 O414 1.255 . S
C397 O415 1.265 . S
C398 C400 1.380 . S
C398 C401 1.374 . S
C398 C404 1.507 . S
C399 C400 1.384 . S
C399 C403 1.387 . S
C399 H426 0.930 . S
C400 C398 1.380 . S
C400 C399 1.384 . S
C400 H427 0.931 . S
C401 C398 1.374 . S
C401 C402 1.390 . S
C401 H428 0.930 . S
C402 C401 1.390 . S
C402 C403 1.391 . S
C402 H429 0.930 . S
C403 C399 1.387 . S
C403 C402 1.391 . S
C404 Tb394 2.825 . S
C404 C398 1.507 . S
C404 O417 1.238 . S
C404 O418 1.247 . S
O405 Tb394 2.347 . S
O405 C409 1.259 . S
O406 Eu395 2.418 . S
O406 C409 1.265 . S
O407 Eu395 2.384 . S
O407 C416 1.255 . S
O408 Tb394 2.366 . S
O408 C416 1.265 . S
C409 O405 1.259 . S
C409 O406 1.265 . S
O410 Eu395 2.479 . S
O410 C425 1.238 . S
O411 Eu395 2.471 . S
O411 C425 1.247 . S
O412 Eu395 2.347 . S
O412 C396 1.259 . S
O413 Tb394 2.418 . S
O413 C396 1.265 . S
O414 Tb394 2.384 . S
O414 C397 1.255 . S
O415 Eu395 2.366 . S
O415 C397 1.265 . S
C416 O407 1.255 . S
C416 O408 1.265 . S
O417 Tb394 2.479 . S
O417 C404 1.238 . S
O418 Tb394 2.471 . S
O418 C404 1.247 . S
C419 C422 1.380 . S
C419 C423 1.374 . S
C419 C425 1.507 . S
C420 C421 1.387 . S
C420 C424 1.391 . S
C421 C420 1.387 . S
C421 C422 1.384 . S
C421 H430 0.930 . S
C422 C419 1.380 . S
C422 C421 1.384 . S
C422 H431 0.931 . S
C423 C419 1.374 . S
C423 C424 1.390 . S
C423 H432 0.930 . S
C424 C420 1.391 . S
C424 C423 1.390 . S
C424 H433 0.930 . S
C425 Eu395 2.825 . S
C425 O410 1.238 . S
C425 O411 1.247 . S
C425 C419 1.507 . S
H426 C399 0.930 . S
H427 C400 0.931 . S
H428 C401 0.930 . S
H429 C402 0.930 . S
H430 C421 0.930 . S
H431 C422 0.931 . S
H432 C423 0.930 . S
H433 C424 0.930 . S
Tb434 C444 2.825 . S
Tb434 O445 2.347 . S
Tb434 O448 2.366 . S
Tb434 O453 2.418 . S
Tb434 O454 2.384 . S
Tb434 O457 2.479 . S
Tb434 O458 2.471 . S
Eu435 O446 2.418 . S
Eu435 O447 2.384 . S
Eu435 O450 2.479 . S
Eu435 O451 2.471 . S
Eu435 O452 2.347 . S
Eu435 O455 2.366 . S
Eu435 C465 2.825 . S
C436 O452 1.259 . S
C436 O453 1.265 . S
C437 O454 1.255 . S
C437 O455 1.265 . S
C438 C440 1.380 . S
C438 C441 1.374 . S
C438 C444 1.507 . S
C439 C440 1.384 . S
C439 C443 1.387 . S
C439 H466 0.930 . S
C440 C438 1.380 . S
C440 C439 1.384 . S
C440 H467 0.931 . S
C441 C438 1.374 . S
C441 C442 1.390 . S
C441 H468 0.930 . S
C442 C441 1.390 . S
C442 C443 1.391 . S
C442 H469 0.930 . S
C443 C439 1.387 . S
C443 C442 1.391 . S
C444 Tb434 2.825 . S
C444 C438 1.507 . S
C444 O457 1.238 . S
C444 O458 1.247 . S
O445 Tb434 2.347 . S
O445 C449 1.259 . S
O446 Eu435 2.418 . S
O446 C449 1.265 . S
O447 Eu435 2.384 . S
O447 C456 1.255 . S
O448 Tb434 2.366 . S
O448 C456 1.265 . S
C449 O445 1.259 . S
C449 O446 1.265 . S
O450 Eu435 2.479 . S
O450 C465 1.238 . S
O451 Eu435 2.471 . S
O451 C465 1.247 . S
O452 Eu435 2.347 . S
O452 C436 1.259 . S
O453 Tb434 2.418 . S
O453 C436 1.265 . S
O454 Tb434 2.384 . S
O454 C437 1.255 . S
O455 Eu435 2.366 . S
O455 C437 1.265 . S
C456 O447 1.255 . S
C456 O448 1.265 . S
O457 Tb434 2.479 . S
O457 C444 1.238 . S
O458 Tb434 2.471 . S
O458 C444 1.247 . S
C459 C462 1.380 . S
C459 C463 1.374 . S
C459 C465 1.507 . S
C460 C461 1.387 . S
C460 C464 1.391 . S
C461 C460 1.387 . S
C461 C462 1.384 . S
C461 H470 0.930 . S
C462 C459 1.380 . S
C462 C461 1.384 . S
C462 H471 0.931 . S
C463 C459 1.374 . S
C463 C464 1.390 . S
C463 H472 0.930 . S
C464 C460 1.391 . S
C464 C463 1.390 . S
C464 H473 0.930 . S
C465 Eu435 2.825 . S
C465 O450 1.238 . S
C465 O451 1.247 . S
C465 C459 1.507 . S
H466 C439 0.930 . S
H467 C440 0.931 . S
H468 C441 0.930 . S
H469 C442 0.930 . S
H470 C461 0.930 . S
H471 C462 0.931 . S
H472 C463 0.930 . S
H473 C464 0.930 . S
Tb474 C484 2.825 . S
Tb474 O485 2.347 . S
Tb474 O488 2.366 . S
Tb474 O493 2.418 . S
Tb474 O494 2.384 . S
Tb474 O497 2.479 . S
Tb474 O498 2.471 . S
Eu475 O486 2.418 . S
Eu475 O487 2.384 . S
Eu475 O490 2.479 . S
Eu475 O491 2.471 . S
Eu475 O492 2.347 . S
Eu475 O495 2.366 . S
Eu475 C505 2.825 . S
C476 O492 1.259 . S
C476 O493 1.265 . S
C477 O494 1.255 . S
C477 O495 1.265 . S
C478 C480 1.380 . S
C478 C481 1.374 . S
C478 C484 1.507 . S
C479 C480 1.384 . S
C479 C483 1.387 . S
C479 H506 0.930 . S
C480 C478 1.380 . S
C480 C479 1.384 . S
C480 H507 0.931 . S
C481 C478 1.374 . S
C481 C482 1.390 . S
C481 H508 0.930 . S
C482 C481 1.390 . S
C482 C483 1.391 . S
C482 H509 0.930 . S
C483 C479 1.387 . S
C483 C482 1.391 . S
C484 Tb474 2.825 . S
C484 C478 1.507 . S
C484 O497 1.238 . S
C484 O498 1.247 . S
O485 Tb474 2.347 . S
O485 C489 1.259 . S
O486 Eu475 2.418 . S
O486 C489 1.265 . S
O487 Eu475 2.384 . S
O487 C496 1.255 . S
O488 Tb474 2.366 . S
O488 C496 1.265 . S
C489 O485 1.259 . S
C489 O486 1.265 . S
O490 Eu475 2.479 . S
O490 C505 1.238 . S
O491 Eu475 2.471 . S
O491 C505 1.247 . S
O492 Eu475 2.347 . S
O492 C476 1.259 . S
O493 Tb474 2.418 . S
O493 C476 1.265 . S
O494 Tb474 2.384 . S
O494 C477 1.255 . S
O495 Eu475 2.366 . S
O495 C477 1.265 . S
C496 O487 1.255 . S
C496 O488 1.265 . S
O497 Tb474 2.479 . S
O497 C484 1.238 . S
O498 Tb474 2.471 . S
O498 C484 1.247 . S
C499 C502 1.380 . S
C499 C503 1.374 . S
C499 C505 1.507 . S
C500 C501 1.387 . S
C500 C504 1.391 . S
C501 C500 1.387 . S
C501 C502 1.384 . S
C501 H510 0.930 . S
C502 C499 1.380 . S
C502 C501 1.384 . S
C502 H511 0.931 . S
C503 C499 1.374 . S
C503 C504 1.390 . S
C503 H512 0.930 . S
C504 C500 1.391 . S
C504 C503 1.390 . S
C504 H513 0.930 . S
C505 Eu475 2.825 . S
C505 O490 1.238 . S
C505 O491 1.247 . S
C505 C499 1.507 . S
H506 C479 0.930 . S
H507 C480 0.931 . S
H508 C481 0.930 . S
H509 C482 0.930 . S
H510 C501 0.930 . S
H511 C502 0.931 . S
H512 C503 0.930 . S
H513 C504 0.930 . S
Tb514 C524 2.825 . S
Tb514 O525 2.347 . S
Tb514 O528 2.366 . S
Tb514 O533 2.418 . S
Tb514 O534 2.384 . S
Tb514 O537 2.479 . S
Tb514 O538 2.471 . S
Eu515 O526 2.418 . S
Eu515 O527 2.384 . S
Eu515 O530 2.479 . S
Eu515 O531 2.471 . S
Eu515 O532 2.347 . S
Eu515 O535 2.366 . S
Eu515 C545 2.825 . S
C516 O532 1.259 . S
C516 O533 1.265 . S
C517 O534 1.255 . S
C517 O535 1.265 . S
C518 C520 1.380 . S
C518 C521 1.374 . S
C518 C524 1.507 . S
C519 C520 1.384 . S
C519 C523 1.387 . S
C519 H546 0.930 . S
C520 C518 1.380 . S
C520 C519 1.384 . S
C520 H547 0.931 . S
C521 C518 1.374 . S
C521 C522 1.390 . S
C521 H548 0.930 . S
C522 C521 1.390 . S
C522 C523 1.391 . S
C522 H549 0.930 . S
C523 C519 1.387 . S
C523 C522 1.391 . S
C524 Tb514 2.825 . S
C524 C518 1.507 . S
C524 O537 1.238 . S
C524 O538 1.247 . S
O525 Tb514 2.347 . S
O525 C529 1.259 . S
O526 Eu515 2.418 . S
O526 C529 1.265 . S
O527 Eu515 2.384 . S
O527 C536 1.255 . S
O528 Tb514 2.366 . S
O528 C536 1.265 . S
C529 O525 1.259 . S
C529 O526 1.265 . S
O530 Eu515 2.479 . S
O530 C545 1.238 . S
O531 Eu515 2.471 . S
O531 C545 1.247 . S
O532 Eu515 2.347 . S
O532 C516 1.259 . S
O533 Tb514 2.418 . S
O533 C516 1.265 . S
O534 Tb514 2.384 . S
O534 C517 1.255 . S
O535 Eu515 2.366 . S
O535 C517 1.265 . S
C536 O527 1.255 . S
C536 O528 1.265 . S
O537 Tb514 2.479 . S
O537 C524 1.238 . S
O538 Tb514 2.471 . S
O538 C524 1.247 . S
C539 C542 1.380 . S
C539 C543 1.374 . S
C539 C545 1.507 . S
C540 C541 1.387 . S
C540 C544 1.391 . S
C541 C540 1.387 . S
C541 C542 1.384 . S
C541 H550 0.930 . S
C542 C539 1.380 . S
C542 C541 1.384 . S
C542 H551 0.931 . S
C543 C539 1.374 . S
C543 C544 1.390 . S
C543 H552 0.930 . S
C544 C540 1.391 . S
C544 C543 1.390 . S
C544 H553 0.930 . S
C545 Eu515 2.825 . S
C545 O530 1.238 . S
C545 O531 1.247 . S
C545 C539 1.507 . S
H546 C519 0.930 . S
H547 C520 0.931 . S
H548 C521 0.930 . S
H549 C522 0.930 . S
H550 C541 0.930 . S
H551 C542 0.931 . S
H552 C543 0.930 . S
H553 C544 0.930 . S
Tb554 C564 2.825 . S
Tb554 O565 2.347 . S
Tb554 O568 2.366 . S
Tb554 O573 2.418 . S
Tb554 O574 2.384 . S
Tb554 O577 2.479 . S
Tb554 O578 2.471 . S
Eu555 O566 2.418 . S
Eu555 O567 2.384 . S
Eu555 O570 2.479 . S
Eu555 O571 2.471 . S
Eu555 O572 2.347 . S
Eu555 O575 2.366 . S
Eu555 C585 2.825 . S
C556 O572 1.259 . S
C556 O573 1.265 . S
C557 O574 1.255 . S
C557 O575 1.265 . S
C558 C560 1.380 . S
C558 C561 1.374 . S
C558 C564 1.507 . S
C559 C560 1.384 . S
C559 C563 1.387 . S
C559 H586 0.930 . S
C560 C558 1.380 . S
C560 C559 1.384 . S
C560 H587 0.931 . S
C561 C558 1.374 . S
C561 C562 1.390 . S
C561 H588 0.930 . S
C562 C561 1.390 . S
C562 C563 1.391 . S
C562 H589 0.930 . S
C563 C559 1.387 . S
C563 C562 1.391 . S
C564 Tb554 2.825 . S
C564 C558 1.507 . S
C564 O577 1.238 . S
C564 O578 1.247 . S
O565 Tb554 2.347 . S
O565 C569 1.259 . S
O566 Eu555 2.418 . S
O566 C569 1.265 . S
O567 Eu555 2.384 . S
O567 C576 1.255 . S
O568 Tb554 2.366 . S
O568 C576 1.265 . S
C569 O565 1.259 . S
C569 O566 1.265 . S
O570 Eu555 2.479 . S
O570 C585 1.238 . S
O571 Eu555 2.471 . S
O571 C585 1.247 . S
O572 Eu555 2.347 . S
O572 C556 1.259 . S
O573 Tb554 2.418 . S
O573 C556 1.265 . S
O574 Tb554 2.384 . S
O574 C557 1.255 . S
O575 Eu555 2.366 . S
O575 C557 1.265 . S
C576 O567 1.255 . S
C576 O568 1.265 . S
O577 Tb554 2.479 . S
O577 C564 1.238 . S
O578 Tb554 2.471 . S
O578 C564 1.247 . S
C579 C582 1.380 . S
C579 C583 1.374 . S
C579 C585 1.507 . S
C580 C581 1.387 . S
C580 C584 1.391 . S
C581 C580 1.387 . S
C581 C582 1.384 . S
C581 H590 0.930 . S
C582 C579 1.380 . S
C582 C581 1.384 . S
C582 H591 0.931 . S
C583 C579 1.374 . S
C583 C584 1.390 . S
C583 H592 0.930 . S
C584 C580 1.391 . S
C584 C583 1.390 . S
C584 H593 0.930 . S
C585 Eu555 2.825 . S
C585 O570 1.238 . S
C585 O571 1.247 . S
C585 C579 1.507 . S
H586 C559 0.930 . S
H587 C560 0.931 . S
H588 C561 0.930 . S
H589 C562 0.930 . S
H590 C581 0.930 . S
H591 C582 0.931 . S
H592 C583 0.930 . S
H593 C584 0.930 . S
C594 C595 1.391 . S
C594 C596 1.394 . S
C594 H610 0.931 . S
C595 C594 1.391 . S
C595 C599 1.376 . S
C596 C594 1.394 . S
C596 C597 1.369 . S
C596 C600 1.531 . S
C597 C596 1.369 . S
C597 C598 1.410 . S
C597 C605 1.503 . S
C598 C597 1.410 . S
C598 C599 1.392 . S
C598 C601 1.511 . S
C599 C595 1.376 . S
C599 C598 1.392 . S
C599 H611 0.929 . S
C600 C596 1.531 . S
C600 H612 0.960 . S
C600 H613 0.962 . S
C600 H614 0.960 . S
C601 C598 1.511 . S
C601 H615 0.961 . S
C601 H616 0.961 . S
C601 H617 0.961 . S
C602 C603 1.370 . S
C602 C604 1.363 . S
C602 H618 0.931 1_554 S
C603 C602 1.370 . S
C603 C607 1.408 . S
C604 C602 1.363 . S
C604 C605 1.370 . S
C604 C608 1.526 1_554 S
C605 C597 1.503 . S
C605 C604 1.370 . S
C605 C606 1.403 . S
C606 C605 1.403 . S
C606 C607 1.404 . S
C606 C609 1.539 . S
C607 C603 1.408 . S
C607 C606 1.404 . S
C607 H619 0.930 . S
C608 C604 1.526 1_556 S
C608 H620 0.956 1_556 S
C608 H621 0.961 1_556 S
C608 H622 0.958 . S
C609 C606 1.539 . S
C609 H623 0.958 . S
C609 H624 0.961 . S
C609 H625 0.960 . S
H610 C594 0.931 . S
H611 C599 0.929 . S
H612 C600 0.960 . S
H613 C600 0.962 . S
H614 C600 0.960 . S
H615 C601 0.961 . S
H616 C601 0.961 . S
H617 C601 0.961 . S
H618 C602 0.931 1_556 S
H619 C607 0.930 . S
H620 C608 0.956 1_554 S
H621 C608 0.961 1_554 S
H622 C608 0.958 . S
H623 C609 0.958 . S
H624 C609 0.961 . S
H625 C609 0.960 . S
C626 C627 1.391 . S
C626 C628 1.394 . S
C626 H642 0.931 . S
C627 C626 1.391 . S
C627 C631 1.376 . S
C628 C626 1.394 . S
C628 C629 1.369 . S
C628 C632 1.531 . S
C629 C628 1.369 . S
C629 C630 1.410 . S
C629 C637 1.503 . S
C630 C629 1.410 . S
C630 C631 1.392 . S
C630 C633 1.511 . S
C631 C627 1.376 . S
C631 C630 1.392 . S
C631 H643 0.929 . S
C632 C628 1.531 . S
C632 H644 0.960 . S
C632 H645 0.962 . S
C632 H646 0.960 . S
C633 C630 1.511 . S
C633 H647 0.961 . S
C633 H648 0.961 . S
C633 H649 0.961 . S
C634 C635 1.370 . S
C634 C636 1.363 . S
C634 H650 0.931 . S
C635 C634 1.370 . S
C635 C639 1.408 . S
C636 C634 1.363 . S
C636 C637 1.370 . S
C636 C640 1.524 . S
C637 C629 1.503 . S
C637 C636 1.370 . S
C637 C638 1.403 . S
C638 C637 1.403 . S
C638 C639 1.404 . S
C638 C641 1.539 . S
C639 C635 1.408 . S
C639 C638 1.404 . S
C639 H651 0.930 . S
C640 C636 1.524 . S
C640 H652 0.956 . S
C640 H653 0.961 . S
C640 H654 0.961 . S
C641 C638 1.539 . S
C641 H655 0.958 . S
C641 H656 0.961 . S
C641 H657 0.960 . S
H642 C626 0.931 . S
H643 C631 0.929 . S
H644 C632 0.960 . S
H645 C632 0.962 . S
H646 C632 0.960 . S
H647 C633 0.961 . S
H648 C633 0.961 . S
H649 C633 0.961 . S
H650 C634 0.931 . S
H651 C639 0.930 . S
H652 C640 0.956 . S
H653 C640 0.961 . S
H654 C640 0.961 . S
H655 C641 0.958 . S
H656 C641 0.961 . S
H657 C641 0.960 . S
C658 C659 1.391 . S
C658 C660 1.394 . S
C658 H674 0.931 . S
C659 C658 1.391 . S
C659 C663 1.376 . S
C660 C658 1.394 . S
C660 C661 1.369 . S
C660 C664 1.531 . S
C661 C660 1.369 . S
C661 C662 1.410 . S
C661 C669 1.503 . S
C662 C661 1.410 . S
C662 C663 1.392 . S
C662 C665 1.511 1_554 S
C663 C659 1.376 . S
C663 C662 1.392 . S
C663 H675 0.929 . S
C664 C660 1.531 . S
C664 H676 0.960 . S
C664 H677 0.962 . S
C664 H678 0.960 . S
C665 C662 1.511 1_556 S
C665 H679 0.961 . S
C665 H680 0.961 . S
C665 H681 0.961 . S
C666 C667 1.370 . S
C666 C668 1.363 . S
C666 H682 0.931 . S
C667 C666 1.370 . S
C667 C671 1.408 . S
C668 C666 1.363 . S
C668 C669 1.370 . S
C668 C672 1.524 . S
C669 C661 1.503 . S
C669 C668 1.370 . S
C669 C670 1.403 . S
C670 C669 1.403 . S
C670 C671 1.404 . S
C670 C673 1.539 . S
C671 C667 1.408 . S
C671 C670 1.404 . S
C671 H683 0.930 . S
C672 C668 1.524 . S
C672 H684 0.956 . S
C672 H685 0.961 . S
C672 H686 0.961 . S
C673 C670 1.539 . S
C673 H687 0.958 . S
C673 H688 0.961 1_554 S
C673 H689 0.960 1_554 S
H674 C658 0.931 . S
H675 C663 0.929 . S
H676 C664 0.960 . S
H677 C664 0.962 . S
H678 C664 0.960 . S
H679 C665 0.961 . S
H680 C665 0.961 . S
H681 C665 0.961 . S
H682 C666 0.931 . S
H683 C671 0.930 . S
H684 C672 0.956 . S
H685 C672 0.961 . S
H686 C672 0.961 . S
H687 C673 0.958 . S
H688 C673 0.961 1_556 S
H689 C673 0.960 1_556 S
C690 C691 1.391 . S
C690 C692 1.394 . S
C690 H706 0.931 . S
C691 C690 1.391 . S
C691 C695 1.376 . S
C692 C690 1.394 . S
C692 C693 1.369 . S
C692 C696 1.531 1_556 S
C693 C692 1.369 . S
C693 C694 1.410 . S
C693 C701 1.503 . S
C694 C693 1.410 . S
C694 C695 1.392 . S
C694 C697 1.511 . S
C695 C691 1.376 . S
C695 C694 1.392 . S
C695 H707 0.929 . S
C696 C692 1.531 1_554 S
C696 H708 0.960 . S
C696 H709 0.962 . S
C696 H710 0.960 . S
C697 C694 1.511 . S
C697 H711 0.961 . S
C697 H712 0.961 . S
C697 H713 0.961 . S
C698 C699 1.370 . S
C698 C700 1.363 . S
C698 H714 0.931 . S
C699 C698 1.370 . S
C699 C703 1.408 . S
C700 C698 1.363 . S
C700 C701 1.370 . S
C700 C704 1.524 . S
C701 C693 1.503 . S
C701 C700 1.370 . S
C701 C702 1.403 . S
C702 C701 1.403 . S
C702 C703 1.404 . S
C702 C705 1.539 . S
C703 C699 1.408 . S
C703 C702 1.404 . S
C703 H715 0.930 . S
C704 C700 1.524 . S
C704 H716 0.956 . S
C704 H717 0.961 . S
C704 H718 0.961 . S
C705 C702 1.539 . S
C705 H719 0.938 1_556 S
C705 H720 0.961 . S
C705 H721 0.960 . S
H706 C690 0.931 . S
H707 C695 0.929 . S
H708 C696 0.960 . S
H709 C696 0.962 . S
H710 C696 0.960 . S
H711 C697 0.961 . S
H712 C697 0.961 . S
H713 C697 0.961 . S
H714 C698 0.931 . S
H715 C703 0.930 . S
H716 C704 0.956 . S
H717 C704 0.961 . S
H718 C704 0.961 . S
H719 C705 0.938 1_554 S
H720 C705 0.961 . S
H721 C705 0.960 . S
C722 C723 1.391 . S
C722 C724 1.394 . S
C722 H738 0.931 . S
C723 C722 1.391 . S
C723 C727 1.376 . S
C724 C722 1.394 . S
C724 C725 1.369 . S
C724 C728 1.531 . S
C725 C724 1.369 . S
C725 C726 1.410 . S
C725 C733 1.503 . S
C726 C725 1.410 . S
C726 C727 1.392 . S
C726 C729 1.511 . S
C727 C723 1.376 . S
C727 C726 1.392 . S
C727 H739 0.929 . S
C728 C724 1.531 . S
C728 H740 0.960 . S
C728 H741 0.962 1_556 S
C728 H742 0.960 . S
C729 C726 1.511 . S
C729 H743 0.961 . S
C729 H744 0.961 . S
C729 H745 0.961 . S
C730 C731 1.370 . S
C730 C732 1.363 . S
C730 H746 0.931 . S
C731 C730 1.370 . S
C731 C735 1.408 . S
C732 C730 1.363 . S
C732 C733 1.370 . S
C732 C736 1.524 . S
C733 C725 1.503 . S
C733 C732 1.370 . S
C733 C734 1.403 . S
C734 C733 1.403 . S
C734 C735 1.404 . S
C734 C737 1.539 . S
C735 C731 1.408 . S
C735 C734 1.404 . S
C735 H747 0.930 . S
C736 C732 1.524 . S
C736 H748 0.956 . S
C736 H749 0.961 . S
C736 H750 0.961 . S
C737 C734 1.539 . S
C737 H751 0.958 . S
C737 H752 0.961 . S
C737 H753 0.960 . S
H738 C722 0.931 . S
H739 C727 0.929 . S
H740 C728 0.960 . S
H741 C728 0.962 1_554 S
H742 C728 0.960 . S
H743 C729 0.961 . S
H744 C729 0.961 . S
H745 C729 0.961 . S
H746 C730 0.931 . S
H747 C735 0.930 . S
H748 C736 0.956 . S
H749 C736 0.961 . S
H750 C736 0.961 . S
H751 C737 0.958 . S
H752 C737 0.961 . S
H753 C737 0.960 . S
C754 C755 1.391 . S
C754 C756 1.394 . S
C754 H770 0.931 . S
C755 C754 1.391 . S
C755 C759 1.376 . S
C756 C754 1.394 . S
C756 C757 1.369 . S
C756 C760 1.531 . S
C757 C756 1.369 . S
C757 C758 1.410 . S
C757 C765 1.503 . S
C758 C757 1.410 . S
C758 C759 1.392 . S
C758 C761 1.511 . S
C759 C755 1.376 . S
C759 C758 1.392 . S
C759 H771 0.929 . S
C760 C756 1.531 . S
C760 H772 0.960 . S
C760 H773 0.962 . S
C760 H774 0.960 . S
C761 C758 1.511 . S
C761 H775 0.961 . S
C761 H776 0.961 . S
C761 H777 0.961 . S
C762 C763 1.370 1_554 S
C762 C764 1.363 . S
C762 H778 0.931 . S
C763 C762 1.370 1_556 S
C763 C767 1.408 . S
C764 C762 1.363 . S
C764 C765 1.370 1_554 S
C764 C768 1.524 . S
C765 C757 1.503 . S
C765 C764 1.370 1_556 S
C765 C766 1.403 . S
C766 C765 1.403 . S
C766 C767 1.404 . S
C766 C769 1.539 . S
C767 C763 1.408 . S
C767 C766 1.404 . S
C767 H779 0.930 . S
C768 C764 1.524 . S
C768 H780 0.956 . S
C768 H781 0.961 . S
C768 H782 0.961 . S
C769 C766 1.539 . S
C769 H783 0.958 . S
C769 H784 0.961 . S
C769 H785 0.960 . S
H770 C754 0.931 . S
H771 C759 0.929 . S
H772 C760 0.960 . S
H773 C760 0.962 . S
H774 C760 0.960 . S
H775 C761 0.961 . S
H776 C761 0.961 . S
H777 C761 0.961 . S
H778 C762 0.931 . S
H779 C767 0.930 . S
H780 C768 0.956 . S
H781 C768 0.961 . S
H782 C768 0.961 . S
H783 C769 0.958 . S
H784 C769 0.961 . S
H785 C769 0.960 . S
C786 C787 1.391 . S
C786 C788 1.394 . S
C786 H802 0.931 . S
C787 C786 1.391 . S
C787 C791 1.376 . S
C788 C786 1.394 . S
C788 C789 1.369 . S
C788 C792 1.531 . S
C789 C788 1.369 . S
C789 C790 1.410 . S
C789 C797 1.503 . S
C790 C789 1.410 . S
C790 C791 1.392 . S
C790 C793 1.511 . S
C791 C787 1.376 . S
C791 C790 1.392 . S
C791 H803 0.929 . S
C792 C788 1.531 . S
C792 H804 0.973 . S
C792 H805 0.962 . S
C792 H806 0.960 . S
C793 C790 1.511 . S
C793 H807 0.961 . S
C793 H808 0.961 . S
C793 H809 0.961 . S
C794 C795 1.370 . S
C794 C796 1.363 . S
C794 H810 0.931 . S
C795 C794 1.370 . S
C795 C799 1.408 1_556 S
C796 C794 1.363 . S
C796 C797 1.370 . S
C796 C800 1.524 . S
C797 C789 1.503 . S
C797 C796 1.370 . S
C797 C798 1.403 1_556 S
C798 C797 1.403 1_554 S
C798 C799 1.404 . S
C798 C801 1.539 . S
C799 C795 1.408 1_554 S
C799 C798 1.404 . S
C799 H811 0.930 . S
C800 C796 1.524 . S
C800 H812 0.956 . S
C800 H813 0.961 . S
C800 H814 0.961 . S
C801 C798 1.539 . S
C801 H815 0.958 . S
C801 H816 0.961 . S
C801 H817 0.960 . S
H802 C786 0.931 . S
H803 C791 0.929 . S
H804 C792 0.973 . S
H805 C792 0.962 . S
H806 C792 0.960 . S
H807 C793 0.961 . S
H808 C793 0.961 . S
H809 C793 0.961 . S
H810 C794 0.931 . S
H811 C799 0.930 . S
H812 C800 0.956 . S
H813 C800 0.961 . S
H814 C800 0.961 . S
H815 C801 0.958 . S
H816 C801 0.961 . S
H817 C801 0.960 . S
C818 C819 1.391 . S
C818 C820 1.394 . S
C818 H834 0.931 . S
C819 C818 1.391 . S
C819 C823 1.376 . S
C820 C818 1.394 . S
C820 C821 1.369 . S
C820 C824 1.531 . S
C821 C820 1.369 . S
C821 C822 1.410 . S
C821 C829 1.503 . S
C822 C821 1.410 . S
C822 C823 1.392 . S
C822 C825 1.511 . S
C823 C819 1.376 . S
C823 C822 1.392 . S
C823 H835 0.929 . S
C824 C820 1.531 . S
C824 H836 0.960 . S
C824 H837 0.962 . S
C824 H838 0.960 . S
C825 C822 1.511 . S
C825 H839 0.961 . S
C825 H840 0.961 . S
C825 H841 0.961 . S
C826 C827 1.370 . S
C826 C828 1.363 . S
C826 H842 0.931 . S
C827 C826 1.370 . S
C827 C831 1.408 . S
C828 C826 1.363 . S
C828 C829 1.370 . S
C828 C832 1.524 . S
C829 C821 1.503 . S
C829 C828 1.370 . S
C829 C830 1.403 . S
C830 C829 1.403 . S
C830 C831 1.404 . S
C830 C833 1.539 1_556 S
C831 C827 1.408 . S
C831 C830 1.404 . S
C831 H843 0.930 1_556 S
C832 C828 1.524 . S
C832 H844 0.956 . S
C832 H845 0.961 . S
C832 H846 0.961 . S
C833 C830 1.539 1_554 S
C833 H847 0.958 . S
C833 H848 0.961 . S
C833 H849 0.960 . S
H834 C818 0.931 . S
H835 C823 0.929 . S
H836 C824 0.960 . S
H837 C824 0.962 . S
H838 C824 0.960 . S
H839 C825 0.961 . S
H840 C825 0.961 . S
H841 C825 0.961 . S
H842 C826 0.931 . S
H843 C831 0.930 1_554 S
H844 C832 0.956 . S
H845 C832 0.961 . S
H846 C832 0.961 . S
H847 C833 0.958 . S
H848 C833 0.961 . S
H849 C833 0.960 . S
C850 C851 1.391 1_554 S
C850 C852 1.394 . S
C850 H866 0.931 . S
C851 C850 1.391 1_556 S
C851 C855 1.376 . S
C852 C850 1.394 . S
C852 C853 1.369 1_554 S
C852 C856 1.531 . S
C853 C852 1.369 1_556 S
C853 C854 1.410 . S
C853 C861 1.503 . S
C854 C853 1.410 . S
C854 C855 1.392 . S
C854 C857 1.511 . S
C855 C851 1.376 . S
C855 C854 1.392 . S
C855 H867 0.929 . S
C856 C852 1.531 . S
C856 H868 0.960 . S
C856 H869 0.962 . S
C856 H870 0.960 . S
C857 C854 1.511 . S
C857 H871 0.961 . S
C857 H872 0.961 . S
C857 H873 0.961 . S
C858 C859 1.337 1_556 S
C858 C860 1.363 . S
C858 H874 0.931 . S
C859 C858 1.337 1_554 S
C859 C863 1.447 . S
C860 C858 1.363 . S
C860 C861 1.370 . S
C860 C864 1.524 . S
C861 C853 1.503 . S
C861 C860 1.370 . S
C861 C862 1.403 1_556 S
C862 C861 1.403 1_554 S
C862 C863 1.404 . S
C862 C865 1.539 . S
C863 C859 1.447 . S
C863 C862 1.404 . S
C863 H875 0.930 . S
C864 C860 1.524 . S
C864 H876 0.956 . S
C864 H877 0.961 . S
C864 H878 0.961 . S
C865 C862 1.539 . S
C865 H879 0.958 . S
C865 H880 0.961 . S
C865 H881 0.960 . S
H866 C850 0.931 . S
H867 C855 0.929 . S
H868 C856 0.960 . S
H869 C856 0.962 . S
H870 C856 0.960 . S
H871 C857 0.961 . S
H872 C857 0.961 . S
H873 C857 0.961 . S
H874 C858 0.931 . S
H875 C863 0.930 . S
H876 C864 0.956 . S
H877 C864 0.961 . S
H878 C864 0.961 . S
H879 C865 0.958 . S
H880 C865 0.961 . S
H881 C865 0.960 . S
C882 C883 1.391 . S
C882 C884 1.394 . S
C882 H898 0.931 . S
C883 C882 1.391 . S
C883 C887 1.376 . S
C884 C882 1.394 . S
C884 C885 1.369 . S
C884 C888 1.531 . S
C885 C884 1.369 . S
C885 C886 1.410 . S
C885 C893 1.503 . S
C886 C885 1.410 . S
C886 C887 1.392 . S
C886 C889 1.511 . S
C887 C883 1.376 . S
C887 C886 1.392 . S
C887 H899 0.929 . S
C888 C884 1.531 . S
C888 H900 0.960 . S
C888 H901 0.962 . S
C888 H902 0.960 . S
C889 C886 1.511 . S
C889 H903 0.961 . S
C889 H904 0.961 . S
C889 H905 0.961 . S
C890 C891 1.370 . S
C890 C892 1.363 . S
C890 H906 0.931 1_554 S
C891 C890 1.370 . S
C891 C895 1.408 . S
C892 C890 1.363 . S
C892 C893 1.370 . S
C892 C896 1.524 1_554 S
C893 C885 1.503 . S
C893 C892 1.370 . S
C893 C894 1.403 . S
C894 C893 1.403 . S
C894 C895 1.404 . S
C894 C897 1.539 . S
C895 C891 1.408 . S
C895 C894 1.404 . S
C895 H907 0.930 . S
C896 C892 1.524 1_556 S
C896 H908 0.956 . S
C896 H909 0.961 . S
C896 H910 0.961 . S
C897 C894 1.539 . S
C897 H911 0.958 . S
C897 H912 0.961 . S
C897 H913 0.960 . S
H898 C882 0.931 . S
H899 C887 0.929 . S
H900 C888 0.960 . S
H901 C888 0.962 . S
H902 C888 0.960 . S
H903 C889 0.961 . S
H904 C889 0.961 . S
H905 C889 0.961 . S
H906 C890 0.931 1_556 S
H907 C895 0.930 . S
H908 C896 0.956 . S
H909 C896 0.961 . S
H910 C896 0.961 . S
H911 C897 0.958 . S
H912 C897 0.961 . S
H913 C897 0.960 . S
C914 C915 1.391 . S
C914 C916 1.394 . S
C914 H930 0.931 . S
C915 C914 1.391 . S
C915 C919 1.376 . S
C916 C914 1.394 . S
C916 C917 1.369 . S
C916 C920 1.531 . S
C917 C916 1.369 . S
C917 C918 1.410 . S
C917 C925 1.503 . S
C918 C917 1.410 . S
C918 C919 1.392 . S
C918 C921 1.511 . S
C919 C915 1.376 . S
C919 C918 1.392 . S
C919 H931 0.929 . S
C920 C916 1.531 . S
C920 H932 0.960 . S
C920 H933 0.962 . S
C920 H934 0.960 . S
C921 C918 1.511 . S
C921 H935 0.961 . S
C921 H936 0.961 . S
C921 H937 0.961 . S
C922 C923 1.370 . S
C922 C924 1.363 . S
C922 H938 0.931 . S
C923 C922 1.370 . S
C923 C927 1.408 . S
C924 C922 1.363 . S
C924 C925 1.370 . S
C924 C928 1.524 . S
C925 C917 1.503 . S
C925 C924 1.370 . S
C925 C926 1.403 . S
C926 C925 1.403 . S
C926 C927 1.404 . S
C926 C929 1.539 . S
C927 C923 1.408 . S
C927 C926 1.404 . S
C927 H939 0.930 . S
C928 C924 1.524 . S
C928 H940 0.956 . S
C928 H941 0.961 . S
C928 H942 0.961 . S
C929 C926 1.539 . S
C929 H943 0.958 . S
C929 H944 0.961 . S
C929 H945 0.960 . S
H930 C914 0.931 . S
H931 C919 0.929 . S
H932 C920 0.960 . S
H933 C920 0.962 . S
H934 C920 0.960 . S
H935 C921 0.961 . S
H936 C921 0.961 . S
H937 C921 0.961 . S
H938 C922 0.931 . S
H939 C927 0.930 . S
H940 C928 0.956 . S
H941 C928 0.961 . S
H942 C928 0.961 . S
H943 C929 0.958 . S
H944 C929 0.961 . S
H945 C929 0.960 . S
C946 C947 1.391 . S
C946 C948 1.394 . S
C946 H962 0.931 . S
C947 C946 1.391 . S
C947 C951 1.376 . S
C948 C946 1.394 . S
C948 C949 1.369 . S
C948 C952 1.531 . S
C949 C948 1.369 . S
C949 C950 1.410 . S
C949 C957 1.503 . S
C950 C949 1.410 . S
C950 C951 1.392 . S
C950 C953 1.511 . S
C951 C947 1.376 . S
C951 C950 1.392 . S
C951 H963 0.929 . S
C952 C948 1.531 . S
C952 H964 0.960 . S
C952 H965 0.962 . S
C952 H966 0.960 . S
C953 C950 1.511 . S
C953 H967 0.961 . S
C953 H968 0.961 . S
C953 H969 0.961 . S
C954 C955 1.370 1_556 S
C954 C956 1.363 1_556 S
C954 H970 0.931 . S
C955 C954 1.370 1_554 S
C955 C959 1.408 . S
C956 C954 1.363 1_554 S
C956 C957 1.370 . S
C956 C960 1.524 1_554 S
C957 C949 1.503 . S
C957 C956 1.370 . S
C957 C958 1.403 . S
C958 C957 1.403 . S
C958 C959 1.404 . S
C958 C961 1.539 . S
C959 C955 1.408 . S
C959 C958 1.404 . S
C959 H971 0.930 . S
C960 C956 1.524 1_556 S
C960 H972 0.956 . S
C960 H973 0.961 . S
C960 H974 0.961 . S
C961 C958 1.539 . S
C961 H975 0.958 . S
C961 H976 0.961 . S
C961 H977 0.960 . S
H962 C946 0.931 . S
H963 C951 0.929 . S
H964 C952 0.960 . S
H965 C952 0.962 . S
H966 C952 0.960 . S
H967 C953 0.961 . S
H968 C953 0.961 . S
H969 C953 0.961 . S
H970 C954 0.931 . S
H971 C959 0.930 . S
H972 C960 0.956 . S
H973 C960 0.961 . S
H974 C960 0.961 . S
H975 C961 0.958 . S
H976 C961 0.961 . S
H977 C961 0.960 . S
C978 C979 1.391 . S
C978 C980 1.394 . S
C978 H994 0.931 . S
C979 C978 1.391 . S
C979 C983 1.376 . S
C980 C978 1.394 . S
C980 C981 1.369 . S
C980 C984 1.531 . S
C981 C980 1.369 . S
C981 C982 1.410 . S
C981 C989 1.503 1_655 S
C982 C981 1.410 . S
C982 C983 1.392 . S
C982 C985 1.511 . S
C983 C979 1.376 . S
C983 C982 1.392 . S
C983 H995 0.929 . S
C984 C980 1.531 . S
C984 H996 0.960 . S
C984 H997 0.962 . S
C984 H998 0.960 . S
C985 C982 1.511 . S
C985 H999 0.961 . S
C985 H1000 0.961 1_655 S
C985 H1001 0.961 . S
C986 C987 1.370 . S
C986 C988 1.363 . S
C986 H1002 0.931 . S
C987 C986 1.370 . S
C987 C991 1.408 . S
C988 C986 1.363 . S
C988 C989 1.370 . S
C988 C992 1.524 . S
C989 C981 1.503 1_455 S
C989 C988 1.370 . S
C989 C990 1.403 . S
C990 C989 1.403 . S
C990 C991 1.404 . S
C990 C993 1.539 1_455 S
C991 C987 1.408 . S
C991 C990 1.404 . S
C991 H1003 0.930 . S
C992 C988 1.524 . S
C992 H1004 0.956 1_455 S
C992 H1005 0.961 . S
C992 H1006 0.961 . S
C993 C990 1.539 1_655 S
C993 H1007 0.958 . S
C993 H1008 0.961 1_655 S
C993 H1009 0.960 . S
H994 C978 0.931 . S
H995 C983 0.929 . S
H996 C984 0.960 . S
H997 C984 0.962 . S
H998 C984 0.960 . S
H999 C985 0.961 . S
H1000 C985 0.961 1_455 S
H1001 C985 0.961 . S
H1002 C986 0.931 . S
H1003 C991 0.930 . S
H1004 C992 0.956 1_655 S
H1005 C992 0.961 . S
H1006 C992 0.961 . S
H1007 C993 0.958 . S
H1008 C993 0.961 1_455 S
H1009 C993 0.960 . S
C1010 C1011 1.391 . S
C1010 C1012 1.394 . S
C1010 H1026 0.931 . S
C1011 C1010 1.391 . S
C1011 C1015 1.376 . S
C1012 C1010 1.394 . S
C1012 C1013 1.369 . S
C1012 C1016 1.531 . S
C1013 C1012 1.369 . S
C1013 C1014 1.410 . S
C1013 C1021 1.503 . S
C1014 C1013 1.410 . S
C1014 C1015 1.392 . S
C1014 C1017 1.511 . S
C1015 C1011 1.376 . S
C1015 C1014 1.392 . S
C1015 H1027 0.929 . S
C1016 C1012 1.531 . S
C1016 H1028 0.960 . S
C1016 H1029 0.962 . S
C1016 H1030 0.960 . S
C1017 C1014 1.511 . S
C1017 H1031 0.961 . S
C1017 H1032 0.961 . S
C1017 H1033 0.961 . S
C1018 C1019 1.370 . S
C1018 C1020 1.363 . S
C1018 H1034 0.931 . S
C1019 C1018 1.370 . S
C1019 C1023 1.408 . S
C1020 C1018 1.363 . S
C1020 C1021 1.370 . S
C1020 C1024 1.524 . S
C1021 C1013 1.503 . S
C1021 C1020 1.370 . S
C1021 C1022 1.403 . S
C1022 C1021 1.403 . S
C1022 C1023 1.404 . S
C1022 C1025 1.539 . S
C1023 C1019 1.408 . S
C1023 C1022 1.404 . S
C1023 H1035 0.930 . S
C1024 C1020 1.524 . S
C1024 H1036 0.956 . S
C1024 H1037 0.961 . S
C1024 H1038 0.961 . S
C1025 C1022 1.539 . S
C1025 H1039 0.958 . S
C1025 H1040 0.961 . S
C1025 H1041 0.960 . S
H1026 C1010 0.931 . S
H1027 C1015 0.929 . S
H1028 C1016 0.960 . S
H1029 C1016 0.962 . S
H1030 C1016 0.960 . S
H1031 C1017 0.961 . S
H1032 C1017 0.961 . S
H1033 C1017 0.961 . S
H1034 C1018 0.931 . S
H1035 C1023 0.930 . S
H1036 C1024 0.956 . S
H1037 C1024 0.961 . S
H1038 C1024 0.961 . S
H1039 C1025 0.958 . S
H1040 C1025 0.961 . S
H1041 C1025 0.960 . S
C1042 C1043 1.391 . S
C1042 C1044 1.394 . S
C1042 H1058 0.931 . S
C1043 C1042 1.391 . S
C1043 C1047 1.376 . S
C1044 C1042 1.394 . S
C1044 C1045 1.369 . S
C1044 C1048 1.531 . S
C1045 C1044 1.369 . S
C1045 C1046 1.410 . S
C1045 C1053 1.503 . S
C1046 C1045 1.410 . S
C1046 C1047 1.392 . S
C1046 C1049 1.511 . S
C1047 C1043 1.376 . S
C1047 C1046 1.392 . S
C1047 H1059 0.929 . S
C1048 C1044 1.531 . S
C1048 H1060 0.960 . S
C1048 H1061 0.962 . S
C1048 H1062 0.960 . S
C1049 C1046 1.511 . S
C1049 H1063 0.961 . S
C1049 H1064 0.961 . S
C1049 H1065 0.961 . S
C1050 C1051 1.370 . S
C1050 C1052 1.363 . S
C1050 H1066 0.931 . S
C1051 C1050 1.370 . S
C1051 C1055 1.408 . S
C1052 C1050 1.363 . S
C1052 C1053 1.370 1_565 S
C1052 C1056 1.524 . S
C1053 C1045 1.503 . S
C1053 C1052 1.370 1_545 S
C1053 C1054 1.385 1_545 S
C1054 C1053 1.385 1_565 S
C1054 C1055 1.427 . S
C1054 C1057 1.535 1_565 S
C1055 C1051 1.408 . S
C1055 C1054 1.427 . S
C1055 H1067 0.930 . S
C1056 C1052 1.524 . S
C1056 H1068 0.956 1_565 S
C1056 H1069 0.961 1_565 S
C1056 H1070 0.961 . S
C1057 C1054 1.535 1_545 S
C1057 H1071 0.958 . S
C1057 H1072 0.961 . S
C1057 H1073 0.960 . S
H1058 C1042 0.931 . S
H1059 C1047 0.929 . S
H1060 C1048 0.960 . S
H1061 C1048 0.962 . S
H1062 C1048 0.960 . S
H1063 C1049 0.961 . S
H1064 C1049 0.961 . S
H1065 C1049 0.961 . S
H1066 C1050 0.931 . S
H1067 C1055 0.930 . S
H1068 C1056 0.956 1_545 S
H1069 C1056 0.961 1_545 S
H1070 C1056 0.961 . S
H1071 C1057 0.958 . S
H1072 C1057 0.961 . S
H1073 C1057 0.960 . S
C1074 C1075 1.391 . S
C1074 C1076 1.394 . S
C1074 H1090 0.931 . S
C1075 C1074 1.391 . S
C1075 C1079 1.376 . S
C1076 C1074 1.394 . S
C1076 C1077 1.369 . S
C1076 C1080 1.531 . S
C1077 C1076 1.369 . S
C1077 C1078 1.410 . S
C1077 C1085 1.503 . S
C1078 C1077 1.410 . S
C1078 C1079 1.392 . S
C1078 C1081 1.511 . S
C1079 C1075 1.376 . S
C1079 C1078 1.392 . S
C1079 H1091 0.929 . S
C1080 C1076 1.531 . S
C1080 H1092 0.960 . S
C1080 H1093 0.962 . S
C1080 H1094 0.960 . S
C1081 C1078 1.511 . S
C1081 H1095 0.961 . S
C1081 H1096 0.961 . S
C1081 H1097 0.961 . S
C1082 C1083 1.370 . S
C1082 C1084 1.363 . S
C1082 H1098 0.931 . S
C1083 C1082 1.370 . S
C1083 C1087 1.408 . S
C1084 C1082 1.363 . S
C1084 C1085 1.370 . S
C1084 C1088 1.524 . S
C1085 C1077 1.503 . S
C1085 C1084 1.370 . S
C1085 C1086 1.403 . S
C1086 C1085 1.403 . S
C1086 C1087 1.404 . S
C1086 C1089 1.539 . S
C1087 C1083 1.408 . S
C1087 C1086 1.404 . S
C1087 H1099 0.930 . S
C1088 C1084 1.524 . S
C1088 H1100 0.956 . S
C1088 H1101 0.961 . S
C1088 H1102 0.961 . S
C1089 C1086 1.539 . S
C1089 H1103 0.958 . S
C1089 H1104 0.961 . S
C1089 H1105 0.960 . S
H1090 C1074 0.931 . S
H1091 C1079 0.929 . S
H1092 C1080 0.960 . S
H1093 C1080 0.962 . S
H1094 C1080 0.960 . S
H1095 C1081 0.961 . S
H1096 C1081 0.961 . S
H1097 C1081 0.961 . S
H1098 C1082 0.931 . S
H1099 C1087 0.930 . S
H1100 C1088 0.956 . S
H1101 C1088 0.961 . S
H1102 C1088 0.961 . S
H1103 C1089 0.958 . S
H1104 C1089 0.961 . S
H1105 C1089 0.960 . S
C1106 C1107 1.391 . S
C1106 C1108 1.394 . S
C1106 H1122 0.931 . S
C1107 C1106 1.391 . S
C1107 C1111 1.376 . S
C1108 C1106 1.394 . S
C1108 C1109 1.369 . S
C1108 C1112 1.531 . S
C1109 C1108 1.369 . S
C1109 C1110 1.410 . S
C1109 C1117 1.503 . S
C1110 C1109 1.410 . S
C1110 C1111 1.392 . S
C1110 C1113 1.511 . S
C1111 C1107 1.376 . S
C1111 C1110 1.392 . S
C1111 H1123 0.929 . S
C1112 C1108 1.531 . S
C1112 H1124 0.960 . S
C1112 H1125 0.962 . S
C1112 H1126 0.960 . S
C1113 C1110 1.511 . S
C1113 H1127 0.961 . S
C1113 H1128 0.961 . S
C1113 H1129 0.961 . S
C1114 C1115 1.370 . S
C1114 C1116 1.363 . S
C1114 H1130 0.931 . S
C1115 C1114 1.370 . S
C1115 C1119 1.408 . S
C1116 C1114 1.363 . S
C1116 C1117 1.370 . S
C1116 C1120 1.524 . S
C1117 C1109 1.503 . S
C1117 C1116 1.370 . S
C1117 C1118 1.403 . S
C1118 C1117 1.403 . S
C1118 C1119 1.404 . S
C1118 C1121 1.539 . S
C1119 C1115 1.408 . S
C1119 C1118 1.404 . S
C1119 H1131 0.930 . S
C1120 C1116 1.524 . S
C1120 H1132 0.956 . S
C1120 H1133 0.961 . S
C1120 H1134 0.961 . S
C1121 C1118 1.539 . S
C1121 H1135 0.958 . S
C1121 H1136 0.961 . S
C1121 H1137 0.960 . S
H1122 C1106 0.931 . S
H1123 C1111 0.929 . S
H1124 C1112 0.960 . S
H1125 C1112 0.962 . S
H1126 C1112 0.960 . S
H1127 C1113 0.961 . S
H1128 C1113 0.961 . S
H1129 C1113 0.961 . S
H1130 C1114 0.931 . S
H1131 C1119 0.930 . S
H1132 C1120 0.956 . S
H1133 C1120 0.961 . S
H1134 C1120 0.961 . S
H1135 C1121 0.958 . S
H1136 C1121 0.961 . S
H1137 C1121 0.960 . S
C1138 C1139 1.391 . S
C1138 C1140 1.394 . S
C1138 H1154 0.931 . S
C1139 C1138 1.391 . S
C1139 C1143 1.376 . S
C1140 C1138 1.394 . S
C1140 C1141 1.369 . S
C1140 C1144 1.531 . S
C1141 C1140 1.369 . S
C1141 C1142 1.410 . S
C1141 C1149 1.503 . S
C1142 C1141 1.410 . S
C1142 C1143 1.392 . S
C1142 C1145 1.511 . S
C1143 C1139 1.376 . S
C1143 C1142 1.392 . S
C1143 H1155 0.929 . S
C1144 C1140 1.531 . S
C1144 H1156 0.960 . S
C1144 H1157 0.962 . S
C1144 H1158 0.960 . S
C1145 C1142 1.511 . S
C1145 H1159 0.961 . S
C1145 H1160 0.961 . S
C1145 H1161 0.961 . S
C1146 C1147 1.370 . S
C1146 C1148 1.363 . S
C1146 H1162 0.931 . S
C1147 C1146 1.370 . S
C1147 C1151 1.408 . S
C1148 C1146 1.363 . S
C1148 C1149 1.370 . S
C1148 C1152 1.524 . S
C1149 C1141 1.503 . S
C1149 C1148 1.370 . S
C1149 C1150 1.403 . S
C1150 C1149 1.403 . S
C1150 C1151 1.404 . S
C1150 C1153 1.539 . S
C1151 C1147 1.408 . S
C1151 C1150 1.404 . S
C1151 H1163 0.930 . S
C1152 C1148 1.524 . S
C1152 H1164 0.956 . S
C1152 H1165 0.961 . S
C1152 H1166 0.961 . S
C1153 C1150 1.539 . S
C1153 H1167 0.958 . S
C1153 H1168 0.961 . S
C1153 H1169 0.960 . S
H1154 C1138 0.931 . S
H1155 C1143 0.929 . S
H1156 C1144 0.960 . S
H1157 C1144 0.962 . S
H1158 C1144 0.960 . S
H1159 C1145 0.961 . S
H1160 C1145 0.961 . S
H1161 C1145 0.961 . S
H1162 C1146 0.931 . S
H1163 C1151 0.930 . S
H1164 C1152 0.956 . S
H1165 C1152 0.961 . S
H1166 C1152 0.961 . S
H1167 C1153 0.958 . S
H1168 C1153 0.961 . S
H1169 C1153 0.960 . S
C1170 C1171 1.391 . S
C1170 C1172 1.394 . S
C1170 H1186 0.931 . S
C1171 C1170 1.391 . S
C1171 C1175 1.376 . S
C1172 C1170 1.394 . S
C1172 C1173 1.369 . S
C1172 C1176 1.531 . S
C1173 C1172 1.369 . S
C1173 C1174 1.410 . S
C1173 C1181 1.503 . S
C1174 C1173 1.410 . S
C1174 C1175 1.392 . S
C1174 C1177 1.511 . S
C1175 C1171 1.376 . S
C1175 C1174 1.392 . S
C1175 H1187 0.929 . S
C1176 C1172 1.531 . S
C1176 H1188 0.960 . S
C1176 H1189 0.962 . S
C1176 H1190 0.960 . S
C1177 C1174 1.511 . S
C1177 H1191 0.961 . S
C1177 H1192 0.961 . S
C1177 H1193 0.961 . S
C1178 C1179 1.370 . S
C1178 C1180 1.363 . S
C1178 H1194 0.931 . S
C1179 C1178 1.370 . S
C1179 C1183 1.408 . S
C1180 C1178 1.363 . S
C1180 C1181 1.370 . S
C1180 C1184 1.524 . S
C1181 C1173 1.503 . S
C1181 C1180 1.370 . S
C1181 C1182 1.403 . S
C1182 C1181 1.403 . S
C1182 C1183 1.404 . S
C1182 C1185 1.539 . S
C1183 C1179 1.408 . S
C1183 C1182 1.404 . S
C1183 H1195 0.930 . S
C1184 C1180 1.524 . S
C1184 H1196 0.956 . S
C1184 H1197 0.961 . S
C1184 H1198 0.961 . S
C1185 C1182 1.539 . S
C1185 H1199 0.958 . S
C1185 H1200 0.961 . S
C1185 H1201 0.960 . S
H1186 C1170 0.931 . S
H1187 C1175 0.929 . S
H1188 C1176 0.960 . S
H1189 C1176 0.962 . S
H1190 C1176 0.960 . S
H1191 C1177 0.961 . S
H1192 C1177 0.961 . S
H1193 C1177 0.961 . S
H1194 C1178 0.931 . S
H1195 C1183 0.930 . S
H1196 C1184 0.956 . S
H1197 C1184 0.961 . S
H1198 C1184 0.961 . S
H1199 C1185 0.958 . S
H1200 C1185 0.961 . S
H1201 C1185 0.960 . S
C1202 C1203 1.391 . S
C1202 C1204 1.394 . S
C1202 H1218 0.931 . S
C1203 C1202 1.391 . S
C1203 C1207 1.376 . S
C1204 C1202 1.394 . S
C1204 C1205 1.369 . S
C1204 C1208 1.531 . S
C1205 C1204 1.369 . S
C1205 C1206 1.410 . S
C1205 C1213 1.503 . S
C1206 C1205 1.410 . S
C1206 C1207 1.392 . S
C1206 C1209 1.511 . S
C1207 C1203 1.376 . S
C1207 C1206 1.392 . S
C1207 H1219 0.929 . S
C1208 C1204 1.531 . S
C1208 H1220 0.960 . S
C1208 H1221 0.962 . S
C1208 H1222 0.960 . S
C1209 C1206 1.511 . S
C1209 H1223 0.961 . S
C1209 H1224 0.961 . S
C1209 H1225 0.961 . S
C1210 C1211 1.370 . S
C1210 C1212 1.363 . S
C1210 H1226 0.931 . S
C1211 C1210 1.370 . S
C1211 C1215 1.408 . S
C1212 C1210 1.363 . S
C1212 C1213 1.370 . S
C1212 C1216 1.524 . S
C1213 C1205 1.503 . S
C1213 C1212 1.370 . S
C1213 C1214 1.403 . S
C1214 C1213 1.403 . S
C1214 C1215 1.404 . S
C1214 C1217 1.539 . S
C1215 C1211 1.408 . S
C1215 C1214 1.404 . S
C1215 H1227 0.930 . S
C1216 C1212 1.524 . S
C1216 H1228 0.956 . S
C1216 H1229 0.961 . S
C1216 H1230 0.961 . S
C1217 C1214 1.539 . S
C1217 H1231 0.958 . S
C1217 H1232 0.961 . S
C1217 H1233 0.960 . S
H1218 C1202 0.931 . S
H1219 C1207 0.929 . S
H1220 C1208 0.960 . S
H1221 C1208 0.962 . S
H1222 C1208 0.960 . S
H1223 C1209 0.961 . S
H1224 C1209 0.961 . S
H1225 C1209 0.961 . S
H1226 C1210 0.931 . S
H1227 C1215 0.930 . S
H1228 C1216 0.956 . S
H1229 C1216 0.961 . S
H1230 C1216 0.961 . S
H1231 C1217 0.958 . S
H1232 C1217 0.961 . S
H1233 C1217 0.960 . S
C1234 C1235 1.391 . S
C1234 C1236 1.394 . S
C1234 H1250 0.931 . S
C1235 C1234 1.391 . S
C1235 C1239 1.376 . S
C1236 C1234 1.394 . S
C1236 C1237 1.369 . S
C1236 C1240 1.531 . S
C1237 C1236 1.369 . S
C1237 C1238 1.410 . S
C1237 C1245 1.503 . S
C1238 C1237 1.410 . S
C1238 C1239 1.392 . S
C1238 C1241 1.511 . S
C1239 C1235 1.376 . S
C1239 C1238 1.392 . S
C1239 H1251 0.929 . S
C1240 C1236 1.531 . S
C1240 H1252 0.960 . S
C1240 H1253 0.962 . S
C1240 H1254 0.960 . S
C1241 C1238 1.511 . S
C1241 H1255 0.961 . S
C1241 H1256 0.961 . S
C1241 H1257 0.961 . S
C1242 C1243 1.370 . S
C1242 C1244 1.363 . S
C1242 H1258 0.931 . S
C1243 C1242 1.370 . S
C1243 C1247 1.408 . S
C1244 C1242 1.363 . S
C1244 C1245 1.370 . S
C1244 C1248 1.524 . S
C1245 C1237 1.503 . S
C1245 C1244 1.370 . S
C1245 C1246 1.403 . S
C1246 C1245 1.403 . S
C1246 C1247 1.404 . S
C1246 C1249 1.539 . S
C1247 C1243 1.408 . S
C1247 C1246 1.404 . S
C1247 H1259 0.930 . S
C1248 C1244 1.524 . S
C1248 H1260 0.956 . S
C1248 H1261 0.961 . S
C1248 H1262 0.961 . S
C1249 C1246 1.539 . S
C1249 H1263 0.958 . S
C1249 H1264 0.961 . S
C1249 H1265 0.960 . S
H1250 C1234 0.931 . S
H1251 C1239 0.929 . S
H1252 C1240 0.960 . S
H1253 C1240 0.962 . S
H1254 C1240 0.960 . S
H1255 C1241 0.961 . S
H1256 C1241 0.961 . S
H1257 C1241 0.961 . S
H1258 C1242 0.931 . S
H1259 C1247 0.930 . S
H1260 C1248 0.956 . S
H1261 C1248 0.961 . S
H1262 C1248 0.961 . S
H1263 C1249 0.958 . S
H1264 C1249 0.961 . S
H1265 C1249 0.960 . S
C1266 C1267 1.391 . S
C1266 C1268 1.394 1_545 S
C1266 H1282 0.931 . S
C1267 C1266 1.391 . S
C1267 C1271 1.376 . S
C1268 C1266 1.394 1_565 S
C1268 C1269 1.369 . S
C1268 C1272 1.531 . S
C1269 C1268 1.369 . S
C1269 C1270 1.410 . S
C1269 C1277 1.503 . S
C1270 C1269 1.410 . S
C1270 C1271 1.392 1_565 S
C1270 C1273 1.511 . S
C1271 C1267 1.376 . S
C1271 C1270 1.392 1_545 S
C1271 H1283 0.929 . S
C1272 C1268 1.531 . S
C1272 H1284 0.960 . S
C1272 H1285 0.962 . S
C1272 H1286 0.960 . S
C1273 C1270 1.511 . S
C1273 H1287 0.961 . S
C1273 H1288 0.961 . S
C1273 H1289 0.961 . S
C1274 C1275 1.370 . S
C1274 C1276 1.363 . S
C1274 H1290 0.931 . S
C1275 C1274 1.370 . S
C1275 C1279 1.408 . S
C1276 C1274 1.363 . S
C1276 C1277 1.370 . S
C1276 C1280 1.524 . S
C1277 C1269 1.503 . S
C1277 C1276 1.370 . S
C1277 C1278 1.403 . S
C1278 C1277 1.403 . S
C1278 C1279 1.404 . S
C1278 C1281 1.539 . S
C1279 C1275 1.408 . S
C1279 C1278 1.404 . S
C1279 H1291 0.930 . S
C1280 C1276 1.524 . S
C1280 H1292 0.956 . S
C1280 H1293 0.961 . S
C1280 H1294 0.961 . S
C1281 C1278 1.539 . S
C1281 H1295 0.958 . S
C1281 H1296 0.961 . S
C1281 H1297 0.960 . S
H1282 C1266 0.931 . S
H1283 C1271 0.929 . S
H1284 C1272 0.960 . S
H1285 C1272 0.962 . S
H1286 C1272 0.960 . S
H1287 C1273 0.961 . S
H1288 C1273 0.961 . S
H1289 C1273 0.961 . S
H1290 C1274 0.931 . S
H1291 C1279 0.930 . S
H1292 C1280 0.956 . S
H1293 C1280 0.961 . S
H1294 C1280 0.961 . S
H1295 C1281 0.958 . S
H1296 C1281 0.961 . S
H1297 C1281 0.960 . S
C1298 C1299 1.391 1_455 S
C1298 C1300 1.394 . S
C1298 H1314 0.931 . S
C1299 C1298 1.391 1_655 S
C1299 C1303 1.376 . S
C1300 C1298 1.394 . S
C1300 C1301 1.369 . S
C1300 C1304 1.531 . S
C1301 C1300 1.369 . S
C1301 C1302 1.410 . S
C1301 C1309 1.503 . S
C1302 C1301 1.410 . S
C1302 C1303 1.392 1_455 S
C1302 C1305 1.511 . S
C1303 C1299 1.376 . S
C1303 C1302 1.392 1_655 S
C1303 H1315 0.929 . S
C1304 C1300 1.531 . S
C1304 H1316 0.960 . S
C1304 H1317 0.962 . S
C1304 H1318 0.960 . S
C1305 C1302 1.511 . S
C1305 H1319 0.961 . S
C1305 H1320 0.961 . S
C1305 H1321 0.961 . S
C1306 C1307 1.370 . S
C1306 C1308 1.363 . S
C1306 H1322 0.931 . S
C1307 C1306 1.370 . S
C1307 C1311 1.408 . S
C1308 C1306 1.363 . S
C1308 C1309 1.370 . S
C1308 C1312 1.524 . S
C1309 C1301 1.503 . S
C1309 C1308 1.370 . S
C1309 C1310 1.403 . S
C1310 C1309 1.403 . S
C1310 C1311 1.404 . S
C1310 C1313 1.539 . S
C1311 C1307 1.408 . S
C1311 C1310 1.404 . S
C1311 H1323 0.930 . S
C1312 C1308 1.524 . S
C1312 H1324 0.956 . S
C1312 H1325 0.961 . S
C1312 H1326 0.961 . S
C1313 C1310 1.539 . S
C1313 H1327 0.958 . S
C1313 H1328 0.961 . S
C1313 H1329 0.960 . S
H1314 C1298 0.931 . S
H1315 C1303 0.929 . S
H1316 C1304 0.960 . S
H1317 C1304 0.962 . S
H1318 C1304 0.960 . S
H1319 C1305 0.961 . S
H1320 C1305 0.961 . S
H1321 C1305 0.961 . S
H1322 C1306 0.931 . S
H1323 C1311 0.930 . S
H1324 C1312 0.956 . S
H1325 C1312 0.961 . S
H1326 C1312 0.961 . S
H1327 C1313 0.958 . S
H1328 C1313 0.961 . S
H1329 C1313 0.960 . S
C1330 C1331 1.391 . S
C1330 C1332 1.394 . S
C1330 H1346 0.931 . S
C1331 C1330 1.391 . S
C1331 C1335 1.376 . S
C1332 C1330 1.394 . S
C1332 C1333 1.369 . S
C1332 C1336 1.531 . S
C1333 C1332 1.369 . S
C1333 C1334 1.410 . S
C1333 C1341 1.503 . S
C1334 C1333 1.410 . S
C1334 C1335 1.392 . S
C1334 C1337 1.511 . S
C1335 C1331 1.376 . S
C1335 C1334 1.392 . S
C1335 H1347 0.929 . S
C1336 C1332 1.531 . S
C1336 H1348 0.960 . S
C1336 H1349 0.962 . S
C1336 H1350 0.960 . S
C1337 C1334 1.511 . S
C1337 H1351 0.961 . S
C1337 H1352 0.961 . S
C1337 H1353 0.961 . S
C1338 C1339 1.370 . S
C1338 C1340 1.363 . S
C1338 H1354 0.931 . S
C1339 C1338 1.370 . S
C1339 C1343 1.408 . S
C1340 C1338 1.363 . S
C1340 C1341 1.370 . S
C1340 C1344 1.524 . S
C1341 C1333 1.503 . S
C1341 C1340 1.370 . S
C1341 C1342 1.403 . S
C1342 C1341 1.403 . S
C1342 C1343 1.404 . S
C1342 C1345 1.539 . S
C1343 C1339 1.408 . S
C1343 C1342 1.404 . S
C1343 H1355 0.930 . S
C1344 C1340 1.524 . S
C1344 H1356 0.956 . S
C1344 H1357 0.961 . S
C1344 H1358 0.961 . S
C1345 C1342 1.539 . S
C1345 H1359 0.958 . S
C1345 H1360 0.961 . S
C1345 H1361 0.960 . S
H1346 C1330 0.931 . S
H1347 C1335 0.929 . S
H1348 C1336 0.960 . S
H1349 C1336 0.962 . S
H1350 C1336 0.960 . S
H1351 C1337 0.961 . S
H1352 C1337 0.961 . S
H1353 C1337 0.961 . S
H1354 C1338 0.931 . S
H1355 C1343 0.930 . S
H1356 C1344 0.956 . S
H1357 C1344 0.961 . S
H1358 C1344 0.961 . S
H1359 C1345 0.958 . S
H1360 C1345 0.961 . S
H1361 C1345 0.960 . S
C1362 C1363 1.391 . S
C1362 C1364 1.394 . S
C1362 H1378 0.931 . S
C1363 C1362 1.391 . S
C1363 C1367 1.376 . S
C1364 C1362 1.394 . S
C1364 C1365 1.369 . S
C1364 C1368 1.531 . S
C1365 C1364 1.369 . S
C1365 C1366 1.410 . S
C1365 C1373 1.503 . S
C1366 C1365 1.410 . S
C1366 C1367 1.392 . S
C1366 C1369 1.511 . S
C1367 C1363 1.376 . S
C1367 C1366 1.392 . S
C1367 H1379 0.929 . S
C1368 C1364 1.531 . S
C1368 H1380 0.960 . S
C1368 H1381 0.962 . S
C1368 H1382 0.960 . S
C1369 C1366 1.511 . S
C1369 H1383 0.961 . S
C1369 H1384 0.961 . S
C1369 H1385 0.961 . S
C1370 C1371 1.370 . S
C1370 C1372 1.363 . S
C1370 H1386 0.931 . S
C1371 C1370 1.370 . S
C1371 C1375 1.408 . S
C1372 C1370 1.363 . S
C1372 C1373 1.370 . S
C1372 C1376 1.524 . S
C1373 C1365 1.503 . S
C1373 C1372 1.370 . S
C1373 C1374 1.403 . S
C1374 C1373 1.403 . S
C1374 C1375 1.404 . S
C1374 C1377 1.539 . S
C1375 C1371 1.408 . S
C1375 C1374 1.404 . S
C1375 H1387 0.930 . S
C1376 C1372 1.524 . S
C1376 H1388 0.956 . S
C1376 H1389 0.961 . S
C1376 H1390 0.961 . S
C1377 C1374 1.539 . S
C1377 H1391 0.958 . S
C1377 H1392 0.961 . S
C1377 H1393 0.960 . S
H1378 C1362 0.931 . S
H1379 C1367 0.929 . S
H1380 C1368 0.960 . S
H1381 C1368 0.962 . S
H1382 C1368 0.960 . S
H1383 C1369 0.961 . S
H1384 C1369 0.961 . S
H1385 C1369 0.961 . S
H1386 C1370 0.931 . S
H1387 C1375 0.930 . S
H1388 C1376 0.956 . S
H1389 C1376 0.961 . S
H1390 C1376 0.961 . S
H1391 C1377 0.958 . S
H1392 C1377 0.961 . S
H1393 C1377 0.960 . S
C1394 C1395 1.391 . S
C1394 C1396 1.394 . S
C1394 H1410 0.931 . S
C1395 C1394 1.391 . S
C1395 C1399 1.376 . S
C1396 C1394 1.394 . S
C1396 C1397 1.369 . S
C1396 C1400 1.531 . S
C1397 C1396 1.369 . S
C1397 C1398 1.410 . S
C1397 C1405 1.503 . S
C1398 C1397 1.410 . S
C1398 C1399 1.392 . S
C1398 C1401 1.511 . S
C1399 C1395 1.376 . S
C1399 C1398 1.392 . S
C1399 H1411 0.929 . S
C1400 C1396 1.531 . S
C1400 H1412 0.960 . S
C1400 H1413 0.962 . S
C1400 H1414 0.960 . S
C1401 C1398 1.511 . S
C1401 H1415 0.961 . S
C1401 H1416 0.961 . S
C1401 H1417 0.961 . S
C1402 C1403 1.370 . S
C1402 C1404 1.363 . S
C1402 H1418 0.931 . S
C1403 C1402 1.370 . S
C1403 C1407 1.408 . S
C1404 C1402 1.363 . S
C1404 C1405 1.370 . S
C1404 C1408 1.524 . S
C1405 C1397 1.503 . S
C1405 C1404 1.370 . S
C1405 C1406 1.403 . S
C1406 C1405 1.403 . S
C1406 C1407 1.404 . S
C1406 C1409 1.539 . S
C1407 C1403 1.408 . S
C1407 C1406 1.404 . S
C1407 H1419 0.930 . S
C1408 C1404 1.524 . S
C1408 H1420 0.956 . S
C1408 H1421 0.961 . S
C1408 H1422 0.961 . S
C1409 C1406 1.539 . S
C1409 H1423 0.958 . S
C1409 H1424 0.961 . S
C1409 H1425 0.960 . S
H1410 C1394 0.931 . S
H1411 C1399 0.929 . S
H1412 C1400 0.960 . S
H1413 C1400 0.962 . S
H1414 C1400 0.960 . S
H1415 C1401 0.961 . S
H1416 C1401 0.961 . S
H1417 C1401 0.961 . S
H1418 C1402 0.931 . S
H1419 C1407 0.930 . S
H1420 C1408 0.956 . S
H1421 C1408 0.961 . S
H1422 C1408 0.961 . S
H1423 C1409 0.958 . S
H1424 C1409 0.961 . S
H1425 C1409 0.960 . S
C1426 C1427 1.391 . S
C1426 C1428 1.394 . S
C1426 H1442 0.931 . S
C1427 C1426 1.391 . S
C1427 C1431 1.376 . S
C1428 C1426 1.394 . S
C1428 C1429 1.369 . S
C1428 C1432 1.531 . S
C1429 C1428 1.369 . S
C1429 C1430 1.410 . S
C1429 C1437 1.503 . S
C1430 C1429 1.410 . S
C1430 C1431 1.392 . S
C1430 C1433 1.511 . S
C1431 C1427 1.376 . S
C1431 C1430 1.392 . S
C1431 H1443 0.929 . S
C1432 C1428 1.531 . S
C1432 H1444 0.960 . S
C1432 H1445 0.962 . S
C1432 H1446 0.960 . S
C1433 C1430 1.511 . S
C1433 H1447 0.961 . S
C1433 H1448 0.961 . S
C1433 H1449 0.961 . S
C1434 C1435 1.370 . S
C1434 C1436 1.363 . S
C1434 H1450 0.931 . S
C1435 C1434 1.370 . S
C1435 C1439 1.408 . S
C1436 C1434 1.363 . S
C1436 C1437 1.370 . S
C1436 C1440 1.524 . S
C1437 C1429 1.503 . S
C1437 C1436 1.370 . S
C1437 C1438 1.403 . S
C1438 C1437 1.403 . S
C1438 C1439 1.404 . S
C1438 C1441 1.539 . S
C1439 C1435 1.408 . S
C1439 C1438 1.404 . S
C1439 H1451 0.930 . S
C1440 C1436 1.524 . S
C1440 H1452 0.956 . S
C1440 H1453 0.961 . S
C1440 H1454 0.961 . S
C1441 C1438 1.539 . S
C1441 H1455 0.958 . S
C1441 H1456 0.961 . S
C1441 H1457 0.960 . S
H1442 C1426 0.931 . S
H1443 C1431 0.929 . S
H1444 C1432 0.960 . S
H1445 C1432 0.962 . S
H1446 C1432 0.960 . S
H1447 C1433 0.961 . S
H1448 C1433 0.961 . S
H1449 C1433 0.961 . S
H1450 C1434 0.931 . S
H1451 C1439 0.930 . S
H1452 C1440 0.956 . S
H1453 C1440 0.961 . S
H1454 C1440 0.961 . S
H1455 C1441 0.958 . S
H1456 C1441 0.961 . S
H1457 C1441 0.960 . S
C1458 C1459 1.391 . S
C1458 C1460 1.394 . S
C1458 H1474 0.931 . S
C1459 C1458 1.391 . S
C1459 C1463 1.376 . S
C1460 C1458 1.394 . S
C1460 C1461 1.369 . S
C1460 C1464 1.531 . S
C1461 C1460 1.369 . S
C1461 C1462 1.410 . S
C1461 C1469 1.503 1_565 S
C1462 C1461 1.410 . S
C1462 C1463 1.392 . S
C1462 C1465 1.511 . S
C1463 C1459 1.376 . S
C1463 C1462 1.392 . S
C1463 H1475 0.929 . S
C1464 C1460 1.531 . S
C1464 H1476 0.960 1_565 S
C1464 H1477 0.958 1_565 S
C1464 H1478 0.960 . S
C1465 C1462 1.511 . S
C1465 H1479 0.961 . S
C1465 H1480 0.961 . S
C1465 H1481 0.961 . S
C1466 C1467 1.370 . S
C1466 C1468 1.363 . S
C1466 H1482 0.931 . S
C1467 C1466 1.370 . S
C1467 C1471 1.408 . S
C1468 C1466 1.363 . S
C1468 C1469 1.370 . S
C1468 C1472 1.524 . S
C1469 C1461 1.503 1_545 S
C1469 C1468 1.370 . S
C1469 C1470 1.403 . S
C1470 C1469 1.403 . S
C1470 C1471 1.404 . S
C1470 C1473 1.516 1_545 S
C1471 C1467 1.408 . S
C1471 C1470 1.404 . S
C1471 H1483 0.930 . S
C1472 C1468 1.524 . S
C1472 H1484 0.956 . S
C1472 H1485 0.961 1_545 S
C1472 H1486 0.961 . S
C1473 C1470 1.516 1_565 S
C1473 H1487 0.917 1_565 S
C1473 H1488 0.968 1_565 S
C1473 H1489 1.001 . S
H1474 C1458 0.931 . S
H1475 C1463 0.929 . S
H1476 C1464 0.960 1_545 S
H1477 C1464 0.958 1_545 S
H1478 C1464 0.960 . S
H1479 C1465 0.961 . S
H1480 C1465 0.961 . S
H1481 C1465 0.961 . S
H1482 C1466 0.931 . S
H1483 C1471 0.930 . S
H1484 C1472 0.956 . S
H1485 C1472 0.961 1_565 S
H1486 C1472 0.961 . S
H1487 C1473 0.917 1_545 S
H1488 C1473 0.968 1_545 S
H1489 C1473 1.001 . S
C1490 C1491 1.391 . S
C1490 C1492 1.394 . S
C1490 H1506 0.931 . S
C1491 C1490 1.391 . S
C1491 C1495 1.376 . S
C1492 C1490 1.394 . S
C1492 C1493 1.369 . S
C1492 C1496 1.531 . S
C1493 C1492 1.369 . S
C1493 C1494 1.410 . S
C1493 C1501 1.503 1_455 S
C1494 C1493 1.410 . S
C1494 C1495 1.392 . S
C1494 C1497 1.511 . S
C1495 C1491 1.376 . S
C1495 C1494 1.392 . S
C1495 H1507 0.929 . S
C1496 C1492 1.531 . S
C1496 H1508 0.960 . S
C1496 H1509 0.962 . S
C1496 H1510 0.960 . S
C1497 C1494 1.511 . S
C1497 H1511 0.961 . S
C1497 H1512 0.961 1_455 S
C1497 H1513 0.961 . S
C1498 C1499 1.370 . S
C1498 C1500 1.363 . S
C1498 H1514 0.931 . S
C1499 C1498 1.370 . S
C1499 C1503 1.408 . S
C1500 C1498 1.363 . S
C1500 C1501 1.370 . S
C1500 C1504 1.524 . S
C1501 C1493 1.503 1_655 S
C1501 C1500 1.370 . S
C1501 C1502 1.403 . S
C1502 C1501 1.403 . S
C1502 C1503 1.404 . S
C1502 C1505 1.539 1_655 S
C1503 C1499 1.408 . S
C1503 C1502 1.404 . S
C1503 H1515 0.930 . S
C1504 C1500 1.524 . S
C1504 H1516 0.956 . S
C1504 H1517 0.961 . S
C1504 H1518 0.961 . S
C1505 C1502 1.539 1_455 S
C1505 H1519 0.958 . S
C1505 H1520 0.961 . S
C1505 H1521 0.960 . S
H1506 C1490 0.931 . S
H1507 C1495 0.929 . S
H1508 C1496 0.960 . S
H1509 C1496 0.962 . S
H1510 C1496 0.960 . S
H1511 C1497 0.961 . S
H1512 C1497 0.961 1_655 S
H1513 C1497 0.961 . S
H1514 C1498 0.931 . S
H1515 C1503 0.930 . S
H1516 C1504 0.956 . S
H1517 C1504 0.961 . S
H1518 C1504 0.961 . S
H1519 C1505 0.958 . S
H1520 C1505 0.961 . S
H1521 C1505 0.960 . S
C1522 C1523 1.391 . S
C1522 C1524 1.394 . S
C1522 H1538 0.931 . S
C1523 C1522 1.391 . S
C1523 C1527 1.376 . S
C1524 C1522 1.394 . S
C1524 C1525 1.369 . S
C1524 C1528 1.531 . S
C1525 C1524 1.369 . S
C1525 C1526 1.410 . S
C1525 C1533 1.503 . S
C1526 C1525 1.410 . S
C1526 C1527 1.392 . S
C1526 C1529 1.511 . S
C1527 C1523 1.376 . S
C1527 C1526 1.392 . S
C1527 H1539 0.929 . S
C1528 C1524 1.531 . S
C1528 H1540 0.960 . S
C1528 H1541 0.962 . S
C1528 H1542 0.960 . S
C1529 C1526 1.511 . S
C1529 H1543 0.961 . S
C1529 H1544 0.961 . S
C1529 H1545 0.961 . S
C1530 C1531 1.370 . S
C1530 C1532 1.363 . S
C1530 H1546 0.931 . S
C1531 C1530 1.370 . S
C1531 C1535 1.408 . S
C1532 C1530 1.363 . S
C1532 C1533 1.370 . S
C1532 C1536 1.524 . S
C1533 C1525 1.503 . S
C1533 C1532 1.370 . S
C1533 C1534 1.403 . S
C1534 C1533 1.403 . S
C1534 C1535 1.404 . S
C1534 C1537 1.539 . S
C1535 C1531 1.408 . S
C1535 C1534 1.404 . S
C1535 H1547 0.930 . S
C1536 C1532 1.524 . S
C1536 H1548 0.956 . S
C1536 H1549 0.961 . S
C1536 H1550 0.961 . S
C1537 C1534 1.539 . S
C1537 H1551 0.958 . S
C1537 H1552 0.961 . S
C1537 H1553 0.960 . S
H1538 C1522 0.931 . S
H1539 C1527 0.929 . S
H1540 C1528 0.960 . S
H1541 C1528 0.962 . S
H1542 C1528 0.960 . S
H1543 C1529 0.961 . S
H1544 C1529 0.961 . S
H1545 C1529 0.961 . S
H1546 C1530 0.931 . S
H1547 C1535 0.930 . S
H1548 C1536 0.956 . S
H1549 C1536 0.961 . S
H1550 C1536 0.961 . S
H1551 C1537 0.958 . S
H1552 C1537 0.961 . S
H1553 C1537 0.960 . S
C1554 C1555 1.391 . S
C1554 C1556 1.394 1_455 S
C1554 H1570 0.931 . S
C1555 C1554 1.391 . S
C1555 C1559 1.376 . S
C1556 C1554 1.394 1_655 S
C1556 C1557 1.369 . S
C1556 C1560 1.531 . S
C1557 C1556 1.369 . S
C1557 C1558 1.410 . S
C1557 C1565 1.503 . S
C1558 C1557 1.410 . S
C1558 C1559 1.392 1_655 S
C1558 C1561 1.511 . S
C1559 C1555 1.376 . S
C1559 C1558 1.392 1_455 S
C1559 H1571 0.929 . S
C1560 C1556 1.531 . S
C1560 H1572 0.960 . S
C1560 H1573 0.962 . S
C1560 H1574 0.960 . S
C1561 C1558 1.511 . S
C1561 H1575 0.961 1_655 S
C1561 H1576 0.961 . S
C1561 H1577 0.961 . S
C1562 C1563 1.370 . S
C1562 C1564 1.363 . S
C1562 H1578 0.931 . S
C1563 C1562 1.370 . S
C1563 C1567 1.408 . S
C1564 C1562 1.363 . S
C1564 C1565 1.370 . S
C1564 C1568 1.524 . S
C1565 C1557 1.503 . S
C1565 C1564 1.370 . S
C1565 C1566 1.403 . S
C1566 C1565 1.403 . S
C1566 C1567 1.404 . S
C1566 C1569 1.539 . S
C1567 C1563 1.408 . S
C1567 C1566 1.404 . S
C1567 H1579 0.930 . S
C1568 C1564 1.524 . S
C1568 H1580 0.956 . S
C1568 H1581 0.961 . S
C1568 H1582 0.961 . S
C1569 C1566 1.539 . S
C1569 H1583 0.958 . S
C1569 H1584 0.961 . S
C1569 H1585 0.960 . S
H1570 C1554 0.931 . S
H1571 C1559 0.929 . S
H1572 C1560 0.960 . S
H1573 C1560 0.962 . S
H1574 C1560 0.960 . S
H1575 C1561 0.961 1_455 S
H1576 C1561 0.961 . S
H1577 C1561 0.961 . S
H1578 C1562 0.931 . S
H1579 C1567 0.930 . S
H1580 C1568 0.956 . S
H1581 C1568 0.961 . S
H1582 C1568 0.961 . S
H1583 C1569 0.958 . S
H1584 C1569 0.961 . S
H1585 C1569 0.960 . S
C1586 C1587 1.391 . S
C1586 C1588 1.394 . S
C1586 H1602 0.931 . S
C1587 C1586 1.391 . S
C1587 C1591 1.376 . S
C1588 C1586 1.394 . S
C1588 C1589 1.369 . S
C1588 C1592 1.531 . S
C1589 C1588 1.369 . S
C1589 C1590 1.410 . S
C1589 C1597 1.503 . S
C1590 C1589 1.410 . S
C1590 C1591 1.392 . S
C1590 C1593 1.511 . S
C1591 C1587 1.376 . S
C1591 C1590 1.392 . S
C1591 H1603 0.929 . S
C1592 C1588 1.531 . S
C1592 H1604 0.960 . S
C1592 H1605 0.962 . S
C1592 H1606 0.960 . S
C1593 C1590 1.511 . S
C1593 H1607 0.961 . S
C1593 H1608 0.961 . S
C1593 H1609 0.961 . S
C1594 C1595 1.370 . S
C1594 C1596 1.363 . S
C1594 H1610 0.931 . S
C1595 C1594 1.370 . S
C1595 C1599 1.408 . S
C1596 C1594 1.363 . S
C1596 C1597 1.370 . S
C1596 C1600 1.524 . S
C1597 C1589 1.503 . S
C1597 C1596 1.370 . S
C1597 C1598 1.403 . S
C1598 C1597 1.403 . S
C1598 C1599 1.404 . S
C1598 C1601 1.539 . S
C1599 C1595 1.408 . S
C1599 C1598 1.404 . S
C1599 H1611 0.930 . S
C1600 C1596 1.524 . S
C1600 H1612 0.956 . S
C1600 H1613 0.961 . S
C1600 H1614 0.961 . S
C1601 C1598 1.539 . S
C1601 H1615 0.958 . S
C1601 H1616 0.961 . S
C1601 H1617 0.960 . S
H1602 C1586 0.931 . S
H1603 C1591 0.929 . S
H1604 C1592 0.960 . S
H1605 C1592 0.962 . S
H1606 C1592 0.960 . S
H1607 C1593 0.961 . S
H1608 C1593 0.961 . S
H1609 C1593 0.961 . S
H1610 C1594 0.931 . S
H1611 C1599 0.930 . S
H1612 C1600 0.956 . S
H1613 C1600 0.961 . S
H1614 C1600 0.961 . S
H1615 C1601 0.958 . S
H1616 C1601 0.961 . S
H1617 C1601 0.960 . S
C1618 C1619 1.391 . S
C1618 C1620 1.394 1_565 S
C1618 H1634 0.931 . S
C1619 C1618 1.391 . S
C1619 C1623 1.376 . S
C1620 C1618 1.394 1_545 S
C1620 C1621 1.369 . S
C1620 C1624 1.531 . S
C1621 C1620 1.369 . S
C1621 C1622 1.410 . S
C1621 C1629 1.503 . S
C1622 C1621 1.410 . S
C1622 C1623 1.392 1_545 S
C1622 C1625 1.511 . S
C1623 C1619 1.376 . S
C1623 C1622 1.392 1_565 S
C1623 H1635 0.929 . S
C1624 C1620 1.531 . S
C1624 H1636 0.960 . S
C1624 H1637 0.962 . S
C1624 H1638 0.960 . S
C1625 C1622 1.511 . S
C1625 H1639 0.961 . S
C1625 H1640 0.961 . S
C1625 H1641 0.961 . S
C1626 C1627 1.370 . S
C1626 C1628 1.363 . S
C1626 H1642 0.931 . S
C1627 C1626 1.370 . S
C1627 C1631 1.408 . S
C1628 C1626 1.363 . S
C1628 C1629 1.370 . S
C1628 C1632 1.524 . S
C1629 C1621 1.503 . S
C1629 C1628 1.370 . S
C1629 C1630 1.403 . S
C1630 C1629 1.403 . S
C1630 C1631 1.404 . S
C1630 C1633 1.539 . S
C1631 C1627 1.408 . S
C1631 C1630 1.404 . S
C1631 H1643 0.930 . S
C1632 C1628 1.524 . S
C1632 H1644 0.956 . S
C1632 H1645 0.961 . S
C1632 H1646 0.961 . S
C1633 C1630 1.539 . S
C1633 H1647 0.958 . S
C1633 H1648 0.961 . S
C1633 H1649 0.960 . S
H1634 C1618 0.931 . S
H1635 C1623 0.929 . S
H1636 C1624 0.960 . S
H1637 C1624 0.962 . S
H1638 C1624 0.960 . S
H1639 C1625 0.961 . S
H1640 C1625 0.961 . S
H1641 C1625 0.961 . S
H1642 C1626 0.931 . S
H1643 C1631 0.930 . S
H1644 C1632 0.956 . S
H1645 C1632 0.961 . S
H1646 C1632 0.961 . S
H1647 C1633 0.958 . S
H1648 C1633 0.961 . S
H1649 C1633 0.960 . S
C1650 C1651 1.391 . S
C1650 C1652 1.394 . S
C1650 H1666 0.931 . S
C1651 C1650 1.391 . S
C1651 C1655 1.376 . S
C1652 C1650 1.394 . S
C1652 C1653 1.369 . S
C1652 C1656 1.531 . S
C1653 C1652 1.369 . S
C1653 C1654 1.410 . S
C1653 C1661 1.503 . S
C1654 C1653 1.410 . S
C1654 C1655 1.392 . S
C1654 C1657 1.511 . S
C1655 C1651 1.376 . S
C1655 C1654 1.392 . S
C1655 H1667 0.929 . S
C1656 C1652 1.531 . S
C1656 H1668 0.960 . S
C1656 H1669 0.962 . S
C1656 H1670 0.960 . S
C1657 C1654 1.511 . S
C1657 H1671 0.961 . S
C1657 H1672 0.961 . S
C1657 H1673 0.961 . S
C1658 C1659 1.370 . S
C1658 C1660 1.363 . S
C1658 H1674 0.931 . S
C1659 C1658 1.370 . S
C1659 C1663 1.408 . S
C1660 C1658 1.363 . S
C1660 C1661 1.370 . S
C1660 C1664 1.524 . S
C1661 C1653 1.503 . S
C1661 C1660 1.370 . S
C1661 C1662 1.403 . S
C1662 C1661 1.403 . S
C1662 C1663 1.404 . S
C1662 C1665 1.539 . S
C1663 C1659 1.408 . S
C1663 C1662 1.404 . S
C1663 H1675 0.930 . S
C1664 C1660 1.524 . S
C1664 H1676 0.956 . S
C1664 H1677 0.961 . S
C1664 H1678 0.961 . S
C1665 C1662 1.539 . S
C1665 H1679 0.958 . S
C1665 H1680 0.961 . S
C1665 H1681 0.960 . S
H1666 C1650 0.931 . S
H1667 C1655 0.929 . S
H1668 C1656 0.960 . S
H1669 C1656 0.962 . S
H1670 C1656 0.960 . S
H1671 C1657 0.961 . S
H1672 C1657 0.961 . S
H1673 C1657 0.961 . S
H1674 C1658 0.931 . S
H1675 C1663 0.930 . S
H1676 C1664 0.956 . S
H1677 C1664 0.961 . S
H1678 C1664 0.961 . S
H1679 C1665 0.958 . S
H1680 C1665 0.961 . S
H1681 C1665 0.960 . S
C1682 C1683 1.391 . S
C1682 C1684 1.394 . S
C1682 H1698 0.931 . S
C1683 C1682 1.391 . S
C1683 C1687 1.376 . S
C1684 C1682 1.394 . S
C1684 C1685 1.369 . S
C1684 C1688 1.531 . S
C1685 C1684 1.369 . S
C1685 C1686 1.410 . S
C1685 C1693 1.503 . S
C1686 C1685 1.410 . S
C1686 C1687 1.392 . S
C1686 C1689 1.511 . S
C1687 C1683 1.376 . S
C1687 C1686 1.392 . S
C1687 H1699 0.929 . S
C1688 C1684 1.531 . S
C1688 H1700 0.960 . S
C1688 H1701 0.962 . S
C1688 H1702 0.960 . S
C1689 C1686 1.511 . S
C1689 H1703 0.961 . S
C1689 H1704 0.961 . S
C1689 H1705 0.961 . S
C1690 C1691 1.370 . S
C1690 C1692 1.363 . S
C1690 H1706 0.931 . S
C1691 C1690 1.370 . S
C1691 C1695 1.408 . S
C1692 C1690 1.363 . S
C1692 C1693 1.370 . S
C1692 C1696 1.524 . S
C1693 C1685 1.503 . S
C1693 C1692 1.370 . S
C1693 C1694 1.403 . S
C1694 C1693 1.403 . S
C1694 C1695 1.404 . S
C1694 C1697 1.539 . S
C1695 C1691 1.408 . S
C1695 C1694 1.404 . S
C1695 H1707 0.930 . S
C1696 C1692 1.524 . S
C1696 H1708 0.956 . S
C1696 H1709 0.961 . S
C1696 H1710 0.961 . S
C1697 C1694 1.539 . S
C1697 H1711 0.958 . S
C1697 H1712 0.961 . S
C1697 H1713 0.960 . S
H1698 C1682 0.931 . S
H1699 C1687 0.929 . S
H1700 C1688 0.960 . S
H1701 C1688 0.962 . S
H1702 C1688 0.960 . S
H1703 C1689 0.961 . S
H1704 C1689 0.961 . S
H1705 C1689 0.961 . S
H1706 C1690 0.931 . S
H1707 C1695 0.930 . S
H1708 C1696 0.956 . S
H1709 C1696 0.961 . S
H1710 C1696 0.961 . S
H1711 C1697 0.958 . S
H1712 C1697 0.961 . S
H1713 C1697 0.960 . S
C1714 C1715 1.391 . S
C1714 C1716 1.394 . S
C1714 H1730 0.931 . S
C1715 C1714 1.391 . S
C1715 C1719 1.376 . S
C1716 C1714 1.394 . S
C1716 C1717 1.369 . S
C1716 C1720 1.531 . S
C1717 C1716 1.369 . S
C1717 C1718 1.410 . S
C1717 C1725 1.503 . S
C1718 C1717 1.410 . S
C1718 C1719 1.392 . S
C1718 C1721 1.511 . S
C1719 C1715 1.376 . S
C1719 C1718 1.392 . S
C1719 H1731 0.929 . S
C1720 C1716 1.531 . S
C1720 H1732 0.960 . S
C1720 H1733 0.962 . S
C1720 H1734 0.960 . S
C1721 C1718 1.511 . S
C1721 H1735 0.961 . S
C1721 H1736 0.961 . S
C1721 H1737 0.961 . S
C1722 C1723 1.370 . S
C1722 C1724 1.363 . S
C1722 H1738 0.931 . S
C1723 C1722 1.370 . S
C1723 C1727 1.408 . S
C1724 C1722 1.363 . S
C1724 C1725 1.370 . S
C1724 C1728 1.524 . S
C1725 C1717 1.503 . S
C1725 C1724 1.370 . S
C1725 C1726 1.403 . S
C1726 C1725 1.403 . S
C1726 C1727 1.404 . S
C1726 C1729 1.539 . S
C1727 C1723 1.408 . S
C1727 C1726 1.404 . S
C1727 H1739 0.930 . S
C1728 C1724 1.524 . S
C1728 H1740 0.956 . S
C1728 H1741 0.961 . S
C1728 H1742 0.961 . S
C1729 C1726 1.539 . S
C1729 H1743 0.958 . S
C1729 H1744 0.961 . S
C1729 H1745 0.960 . S
H1730 C1714 0.931 . S
H1731 C1719 0.929 . S
H1732 C1720 0.960 . S
H1733 C1720 0.962 . S
H1734 C1720 0.960 . S
H1735 C1721 0.961 . S
H1736 C1721 0.961 . S
H1737 C1721 0.961 . S
H1738 C1722 0.931 . S
H1739 C1727 0.930 . S
H1740 C1728 0.956 . S
H1741 C1728 0.961 . S
H1742 C1728 0.961 . S
H1743 C1729 0.958 . S
H1744 C1729 0.961 . S
H1745 C1729 0.960 . S
C1746 C1747 1.391 . S
C1746 C1748 1.394 . S
C1746 H1762 0.931 . S
C1747 C1746 1.391 . S
C1747 C1751 1.376 . S
C1748 C1746 1.394 . S
C1748 C1749 1.369 . S
C1748 C1752 1.531 . S
C1749 C1748 1.369 . S
C1749 C1750 1.410 . S
C1749 C1757 1.503 . S
C1750 C1749 1.410 . S
C1750 C1751 1.392 . S
C1750 C1753 1.511 . S
C1751 C1747 1.376 . S
C1751 C1750 1.392 . S
C1751 H1763 0.929 . S
C1752 C1748 1.531 . S
C1752 H1764 0.960 . S
C1752 H1765 0.962 . S
C1752 H1766 0.960 . S
C1753 C1750 1.511 . S
C1753 H1767 0.961 . S
C1753 H1768 0.961 . S
C1753 H1769 0.961 . S
C1754 C1755 1.370 . S
C1754 C1756 1.363 . S
C1754 H1770 0.931 . S
C1755 C1754 1.370 . S
C1755 C1759 1.408 . S
C1756 C1754 1.363 . S
C1756 C1757 1.370 . S
C1756 C1760 1.524 . S
C1757 C1749 1.503 . S
C1757 C1756 1.370 . S
C1757 C1758 1.403 . S
C1758 C1757 1.403 . S
C1758 C1759 1.404 . S
C1758 C1761 1.539 . S
C1759 C1755 1.408 . S
C1759 C1758 1.404 . S
C1759 H1771 0.930 . S
C1760 C1756 1.524 . S
C1760 H1772 0.956 . S
C1760 H1773 0.961 . S
C1760 H1774 0.961 . S
C1761 C1758 1.539 . S
C1761 H1775 0.958 . S
C1761 H1776 0.961 . S
C1761 H1777 0.960 . S
H1762 C1746 0.931 . S
H1763 C1751 0.929 . S
H1764 C1752 0.960 . S
H1765 C1752 0.962 . S
H1766 C1752 0.960 . S
H1767 C1753 0.961 . S
H1768 C1753 0.961 . S
H1769 C1753 0.961 . S
H1770 C1754 0.931 . S
H1771 C1759 0.930 . S
H1772 C1760 0.956 . S
H1773 C1760 0.961 . S
H1774 C1760 0.961 . S
H1775 C1761 0.958 . S
H1776 C1761 0.961 . S
H1777 C1761 0.960 . S
C1778 C1779 1.391 . S
C1778 C1780 1.394 . S
C1778 H1794 0.931 . S
C1779 C1778 1.391 . S
C1779 C1783 1.376 . S
C1780 C1778 1.394 . S
C1780 C1781 1.369 . S
C1780 C1784 1.531 . S
C1781 C1780 1.369 . S
C1781 C1782 1.410 . S
C1781 C1789 1.503 . S
C1782 C1781 1.410 . S
C1782 C1783 1.392 . S
C1782 C1785 1.511 . S
C1783 C1779 1.376 . S
C1783 C1782 1.392 . S
C1783 H1795 0.929 . S
C1784 C1780 1.531 . S
C1784 H1796 0.960 . S
C1784 H1797 0.962 . S
C1784 H1798 0.960 . S
C1785 C1782 1.511 . S
C1785 H1799 0.961 . S
C1785 H1800 0.961 . S
C1785 H1801 0.961 . S
C1786 C1787 1.370 . S
C1786 C1788 1.363 . S
C1786 H1802 0.931 . S
C1787 C1786 1.370 . S
C1787 C1791 1.408 . S
C1788 C1786 1.363 . S
C1788 C1789 1.370 . S
C1788 C1792 1.524 . S
C1789 C1781 1.503 . S
C1789 C1788 1.370 . S
C1789 C1790 1.403 . S
C1790 C1789 1.403 . S
C1790 C1791 1.404 . S
C1790 C1793 1.539 1_455 S
C1791 C1787 1.408 . S
C1791 C1790 1.404 . S
C1791 H1803 0.930 . S
C1792 C1788 1.524 . S
C1792 H1804 0.956 . S
C1792 H1805 0.961 . S
C1792 H1806 0.961 . S
C1793 C1790 1.539 1_655 S
C1793 H1807 0.958 . S
C1793 H1808 0.961 . S
C1793 H1809 0.960 . S
H1794 C1778 0.931 . S
H1795 C1783 0.929 . S
H1796 C1784 0.960 . S
H1797 C1784 0.962 . S
H1798 C1784 0.960 . S
H1799 C1785 0.961 . S
H1800 C1785 0.961 . S
H1801 C1785 0.961 . S
H1802 C1786 0.931 . S
H1803 C1791 0.930 . S
H1804 C1792 0.956 . S
H1805 C1792 0.961 . S
H1806 C1792 0.961 . S
H1807 C1793 0.958 . S
H1808 C1793 0.961 . S
H1809 C1793 0.960 . S
C1810 C1811 1.391 . S
C1810 C1812 1.394 . S
C1810 H1826 0.931 . S
C1811 C1810 1.391 . S
C1811 C1815 1.376 . S
C1812 C1810 1.394 . S
C1812 C1813 1.369 . S
C1812 C1816 1.531 . S
C1813 C1812 1.369 . S
C1813 C1814 1.410 . S
C1813 C1821 1.503 . S
C1814 C1813 1.410 . S
C1814 C1815 1.392 . S
C1814 C1817 1.511 . S
C1815 C1811 1.376 . S
C1815 C1814 1.392 . S
C1815 H1827 0.929 . S
C1816 C1812 1.531 . S
C1816 H1828 0.960 . S
C1816 H1829 0.962 . S
C1816 H1830 0.960 . S
C1817 C1814 1.511 . S
C1817 H1831 0.961 . S
C1817 H1832 0.961 . S
C1817 H1833 0.961 . S
C1818 C1819 1.370 . S
C1818 C1820 1.363 . S
C1818 H1834 0.931 . S
C1819 C1818 1.370 . S
C1819 C1823 1.408 . S
C1820 C1818 1.363 . S
C1820 C1821 1.370 . S
C1820 C1824 1.524 . S
C1821 C1813 1.503 . S
C1821 C1820 1.370 . S
C1821 C1822 1.403 . S
C1822 C1821 1.403 . S
C1822 C1823 1.404 . S
C1822 C1825 1.539 . S
C1823 C1819 1.408 . S
C1823 C1822 1.404 . S
C1823 H1835 0.930 . S
C1824 C1820 1.524 . S
C1824 H1836 0.956 . S
C1824 H1837 0.961 . S
C1824 H1838 0.961 . S
C1825 C1822 1.539 . S
C1825 H1839 0.958 . S
C1825 H1840 0.961 . S
C1825 H1841 0.960 . S
H1826 C1810 0.931 . S
H1827 C1815 0.929 . S
H1828 C1816 0.960 . S
H1829 C1816 0.962 . S
H1830 C1816 0.960 . S
H1831 C1817 0.961 . S
H1832 C1817 0.961 . S
H1833 C1817 0.961 . S
H1834 C1818 0.931 . S
H1835 C1823 0.930 . S
H1836 C1824 0.956 . S
H1837 C1824 0.961 . S
H1838 C1824 0.961 . S
H1839 C1825 0.958 . S
H1840 C1825 0.961 . S
H1841 C1825 0.960 . S
C1842 C1843 1.391 . S
C1842 C1844 1.394 . S
C1842 H1858 0.931 . S
C1843 C1842 1.391 . S
C1843 C1847 1.376 . S
C1844 C1842 1.394 . S
C1844 C1845 1.369 . S
C1844 C1848 1.531 . S
C1845 C1844 1.369 . S
C1845 C1846 1.410 . S
C1845 C1853 1.503 . S
C1846 C1845 1.410 . S
C1846 C1847 1.392 . S
C1846 C1849 1.511 1_655 S
C1847 C1843 1.376 . S
C1847 C1846 1.392 . S
C1847 H1859 0.929 . S
C1848 C1844 1.531 . S
C1848 H1860 0.960 . S
C1848 H1861 0.962 . S
C1848 H1862 0.960 . S
C1849 C1846 1.511 1_455 S
C1849 H1863 0.961 . S
C1849 H1864 0.961 . S
C1849 H1865 0.961 . S
C1850 C1851 1.370 . S
C1850 C1852 1.363 . S
C1850 H1866 0.931 . S
C1851 C1850 1.370 . S
C1851 C1855 1.408 . S
C1852 C1850 1.363 . S
C1852 C1853 1.370 . S
C1852 C1856 1.524 . S
C1853 C1845 1.503 . S
C1853 C1852 1.370 . S
C1853 C1854 1.403 . S
C1854 C1853 1.403 . S
C1854 C1855 1.404 . S
C1854 C1857 1.539 . S
C1855 C1851 1.408 . S
C1855 C1854 1.404 . S
C1855 H1867 0.930 . S
C1856 C1852 1.524 . S
C1856 H1868 0.956 . S
C1856 H1869 0.961 . S
C1856 H1870 0.961 . S
C1857 C1854 1.539 . S
C1857 H1871 0.958 . S
C1857 H1872 0.961 . S
C1857 H1873 0.960 . S
H1858 C1842 0.931 . S
H1859 C1847 0.929 . S
H1860 C1848 0.960 . S
H1861 C1848 0.962 . S
H1862 C1848 0.960 . S
H1863 C1849 0.961 . S
H1864 C1849 0.961 . S
H1865 C1849 0.961 . S
H1866 C1850 0.931 . S
H1867 C1855 0.930 . S
H1868 C1856 0.956 . S
H1869 C1856 0.961 . S
H1870 C1856 0.961 . S
H1871 C1857 0.958 . S
H1872 C1857 0.961 . S
H1873 C1857 0.960 . S
C1874 C1875 1.391 . S
C1874 C1876 1.394 . S
C1874 H1890 0.931 . S
C1875 C1874 1.391 . S
C1875 C1879 1.376 . S
C1876 C1874 1.394 . S
C1876 C1877 1.369 . S
C1876 C1880 1.531 . S
C1877 C1876 1.369 . S
C1877 C1878 1.410 . S
C1877 C1885 1.503 . S
C1878 C1877 1.410 . S
C1878 C1879 1.392 . S
C1878 C1881 1.511 . S
C1879 C1875 1.376 . S
C1879 C1878 1.392 . S
C1879 H1891 0.929 . S
C1880 C1876 1.531 . S
C1880 H1892 0.960 . S
C1880 H1893 0.962 . S
C1880 H1894 0.960 . S
C1881 C1878 1.511 . S
C1881 H1895 0.961 . S
C1881 H1896 0.961 . S
C1881 H1897 0.961 . S
C1882 C1883 1.370 . S
C1882 C1884 1.363 . S
C1882 H1898 0.931 . S
C1883 C1882 1.370 . S
C1883 C1887 1.408 . S
C1884 C1882 1.363 . S
C1884 C1885 1.370 . S
C1884 C1888 1.524 . S
C1885 C1877 1.503 . S
C1885 C1884 1.370 . S
C1885 C1886 1.403 . S
C1886 C1885 1.403 . S
C1886 C1887 1.404 . S
C1886 C1889 1.539 . S
C1887 C1883 1.408 . S
C1887 C1886 1.404 . S
C1887 H1899 0.930 . S
C1888 C1884 1.524 . S
C1888 H1900 0.956 . S
C1888 H1901 0.961 . S
C1888 H1902 0.961 . S
C1889 C1886 1.539 . S
C1889 H1903 0.958 . S
C1889 H1904 0.961 . S
C1889 H1905 0.960 . S
H1890 C1874 0.931 . S
H1891 C1879 0.929 . S
H1892 C1880 0.960 . S
H1893 C1880 0.962 . S
H1894 C1880 0.960 . S
H1895 C1881 0.961 . S
H1896 C1881 0.961 . S
H1897 C1881 0.961 . S
H1898 C1882 0.931 . S
H1899 C1887 0.930 . S
H1900 C1888 0.956 . S
H1901 C1888 0.961 . S
H1902 C1888 0.961 . S
H1903 C1889 0.958 . S
H1904 C1889 0.961 . S
H1905 C1889 0.960 . S
C1906 C1907 1.391 . S
C1906 C1908 1.394 . S
C1906 H1922 0.931 . S
C1907 C1906 1.391 . S
C1907 C1911 1.376 . S
C1908 C1906 1.394 . S
C1908 C1909 1.369 . S
C1908 C1912 1.531 . S
C1909 C1908 1.369 . S
C1909 C1910 1.410 . S
C1909 C1917 1.503 . S
C1910 C1909 1.410 . S
C1910 C1911 1.392 . S
C1910 C1913 1.511 . S
C1911 C1907 1.376 . S
C1911 C1910 1.392 . S
C1911 H1923 0.929 . S
C1912 C1908 1.531 . S
C1912 H1924 0.960 . S
C1912 H1925 0.962 . S
C1912 H1926 0.960 . S
C1913 C1910 1.511 . S
C1913 H1927 0.961 . S
C1913 H1928 0.961 . S
C1913 H1929 0.961 . S
C1914 C1915 1.370 . S
C1914 C1916 1.363 . S
C1914 H1930 0.931 . S
C1915 C1914 1.370 . S
C1915 C1919 1.408 . S
C1916 C1914 1.363 . S
C1916 C1917 1.370 . S
C1916 C1920 1.524 . S
C1917 C1909 1.503 . S
C1917 C1916 1.370 . S
C1917 C1918 1.403 . S
C1918 C1917 1.403 . S
C1918 C1919 1.404 . S
C1918 C1921 1.539 . S
C1919 C1915 1.408 . S
C1919 C1918 1.404 . S
C1919 H1931 0.930 . S
C1920 C1916 1.524 . S
C1920 H1932 0.956 . S
C1920 H1933 0.961 . S
C1920 H1934 0.965 1_545 S
C1921 C1918 1.539 . S
C1921 H1935 0.958 . S
C1921 H1936 0.961 . S
C1921 H1937 0.960 . S
H1922 C1906 0.931 . S
H1923 C1911 0.929 . S
H1924 C1912 0.960 . S
H1925 C1912 0.962 . S
H1926 C1912 0.960 . S
H1927 C1913 0.961 . S
H1928 C1913 0.961 . S
H1929 C1913 0.961 . S
H1930 C1914 0.931 . S
H1931 C1919 0.930 . S
H1932 C1920 0.956 . S
H1933 C1920 0.961 . S
H1934 C1920 0.965 1_565 S
H1935 C1921 0.958 . S
H1936 C1921 0.961 . S
H1937 C1921 0.960 . S
C1938 C1939 1.391 . S
C1938 C1940 1.394 . S
C1938 H1954 0.931 . S
C1939 C1938 1.391 . S
C1939 C1943 1.376 . S
C1940 C1938 1.394 . S
C1940 C1941 1.369 . S
C1940 C1944 1.531 . S
C1941 C1940 1.369 . S
C1941 C1942 1.410 . S
C1941 C1949 1.503 . S
C1942 C1941 1.410 . S
C1942 C1943 1.392 . S
C1942 C1945 1.511 . S
C1943 C1939 1.376 . S
C1943 C1942 1.392 . S
C1943 H1955 0.929 . S
C1944 C1940 1.531 . S
C1944 H1956 0.960 . S
C1944 H1957 0.962 . S
C1944 H1958 0.960 . S
C1945 C1942 1.511 . S
C1945 H1959 0.961 . S
C1945 H1960 0.961 . S
C1945 H1961 0.961 . S
C1946 C1947 1.370 . S
C1946 C1948 1.363 . S
C1946 H1962 0.931 . S
C1947 C1946 1.370 . S
C1947 C1951 1.408 . S
C1948 C1946 1.363 . S
C1948 C1949 1.370 . S
C1948 C1952 1.524 . S
C1949 C1941 1.503 . S
C1949 C1948 1.370 . S
C1949 C1950 1.403 . S
C1950 C1949 1.403 . S
C1950 C1951 1.404 . S
C1950 C1953 1.539 . S
C1951 C1947 1.408 . S
C1951 C1950 1.404 . S
C1951 H1963 0.930 . S
C1952 C1948 1.524 . S
C1952 H1964 0.956 . S
C1952 H1965 0.961 . S
C1952 H1966 0.961 . S
C1953 C1950 1.539 . S
C1953 H1967 0.958 . S
C1953 H1968 0.961 . S
C1953 H1969 0.960 . S
H1954 C1938 0.931 . S
H1955 C1943 0.929 . S
H1956 C1944 0.960 . S
H1957 C1944 0.962 . S
H1958 C1944 0.960 . S
H1959 C1945 0.961 . S
H1960 C1945 0.961 . S
H1961 C1945 0.961 . S
H1962 C1946 0.931 . S
H1963 C1951 0.930 . S
H1964 C1952 0.956 . S
H1965 C1952 0.961 . S
H1966 C1952 0.961 . S
H1967 C1953 0.958 . S
H1968 C1953 0.961 . S
H1969 C1953 0.960 . S
C1970 C1971 1.391 . S
C1970 C1972 1.394 . S
C1970 H1986 0.931 . S
C1971 C1970 1.391 . S
C1971 C1975 1.376 . S
C1972 C1970 1.394 . S
C1972 C1973 1.369 . S
C1972 C1976 1.531 . S
C1973 C1972 1.369 . S
C1973 C1974 1.410 . S
C1973 C1981 1.503 . S
C1974 C1973 1.410 . S
C1974 C1975 1.392 . S
C1974 C1977 1.511 . S
C1975 C1971 1.376 . S
C1975 C1974 1.392 . S
C1975 H1987 0.929 . S
C1976 C1972 1.531 . S
C1976 H1988 0.960 . S
C1976 H1989 0.962 . S
C1976 H1990 0.960 . S
C1977 C1974 1.511 . S
C1977 H1991 0.961 . S
C1977 H1992 0.961 . S
C1977 H1993 0.961 . S
C1978 C1979 1.370 . S
C1978 C1980 1.363 . S
C1978 H1994 0.931 . S
C1979 C1978 1.370 . S
C1979 C1983 1.408 . S
C1980 C1978 1.363 . S
C1980 C1981 1.370 . S
C1980 C1984 1.524 . S
C1981 C1973 1.503 . S
C1981 C1980 1.370 . S
C1981 C1982 1.403 . S
C1982 C1981 1.403 . S
C1982 C1983 1.404 . S
C1982 C1985 1.539 . S
C1983 C1979 1.408 . S
C1983 C1982 1.404 . S
C1983 H1995 0.930 . S
C1984 C1980 1.524 . S
C1984 H1996 0.956 . S
C1984 H1997 0.961 . S
C1984 H1998 0.961 . S
C1985 C1982 1.539 . S
C1985 H1999 0.958 . S
C1985 H2000 0.961 . S
C1985 H2001 0.960 . S
H1986 C1970 0.931 . S
H1987 C1975 0.929 . S
H1988 C1976 0.960 . S
H1989 C1976 0.962 . S
H1990 C1976 0.960 . S
H1991 C1977 0.961 . S
H1992 C1977 0.961 . S
H1993 C1977 0.961 . S
H1994 C1978 0.931 . S
H1995 C1983 0.930 . S
H1996 C1984 0.956 . S
H1997 C1984 0.961 . S
H1998 C1984 0.961 . S
H1999 C1985 0.958 . S
H2000 C1985 0.961 . S
H2001 C1985 0.960 . S
C2002 C2003 1.391 . S
C2002 C2004 1.394 . S
C2002 H2018 0.931 . S
C2003 C2002 1.391 . S
C2003 C2007 1.376 . S
C2004 C2002 1.394 . S
C2004 C2005 1.369 . S
C2004 C2008 1.531 . S
C2005 C2004 1.369 . S
C2005 C2006 1.410 . S
C2005 C2013 1.503 . S
C2006 C2005 1.410 . S
C2006 C2007 1.392 . S
C2006 C2009 1.511 . S
C2007 C2003 1.376 . S
C2007 C2006 1.392 . S
C2007 H2019 0.929 . S
C2008 C2004 1.531 . S
C2008 H2020 0.960 . S
C2008 H2021 0.962 . S
C2008 H2022 0.960 . S
C2009 C2006 1.511 . S
C2009 H2023 0.961 . S
C2009 H2024 0.961 . S
C2009 H2025 0.961 . S
C2010 C2011 1.370 . S
C2010 C2012 1.363 . S
C2010 H2026 0.931 . S
C2011 C2010 1.370 . S
C2011 C2015 1.408 . S
C2012 C2010 1.363 . S
C2012 C2013 1.370 . S
C2012 C2016 1.524 . S
C2013 C2005 1.503 . S
C2013 C2012 1.370 . S
C2013 C2014 1.403 . S
C2014 C2013 1.403 . S
C2014 C2015 1.404 . S
C2014 C2017 1.539 . S
C2015 C2011 1.408 . S
C2015 C2014 1.404 . S
C2015 H2027 0.930 . S
C2016 C2012 1.524 . S
C2016 H2028 0.956 . S
C2016 H2029 0.961 . S
C2016 H2030 0.961 . S
C2017 C2014 1.539 . S
C2017 H2031 0.958 . S
C2017 H2032 0.961 . S
C2017 H2033 0.960 . S
H2018 C2002 0.931 . S
H2019 C2007 0.929 . S
H2020 C2008 0.960 . S
H2021 C2008 0.962 . S
H2022 C2008 0.960 . S
H2023 C2009 0.961 . S
H2024 C2009 0.961 . S
H2025 C2009 0.961 . S
H2026 C2010 0.931 . S
H2027 C2015 0.930 . S
H2028 C2016 0.956 . S
H2029 C2016 0.961 . S
H2030 C2016 0.961 . S
H2031 C2017 0.958 . S
H2032 C2017 0.961 . S
H2033 C2017 0.960 . S
C2034 C2035 1.391 . S
C2034 C2036 1.394 . S
C2034 H2050 0.931 . S
C2035 C2034 1.391 . S
C2035 C2039 1.376 . S
C2036 C2034 1.394 . S
C2036 C2037 1.369 . S
C2036 C2040 1.531 . S
C2037 C2036 1.369 . S
C2037 C2038 1.410 . S
C2037 C2045 1.503 . S
C2038 C2037 1.410 . S
C2038 C2039 1.392 . S
C2038 C2041 1.511 . S
C2039 C2035 1.376 . S
C2039 C2038 1.392 . S
C2039 H2051 0.929 . S
C2040 C2036 1.531 . S
C2040 H2052 0.960 . S
C2040 H2053 0.962 . S
C2040 H2054 0.960 . S
C2041 C2038 1.511 . S
C2041 H2055 0.961 . S
C2041 H2056 0.961 . S
C2041 H2057 0.961 . S
C2042 C2043 1.370 . S
C2042 C2044 1.363 . S
C2042 H2058 0.931 . S
C2043 C2042 1.370 . S
C2043 C2047 1.408 . S
C2044 C2042 1.363 . S
C2044 C2045 1.370 . S
C2044 C2048 1.524 . S
C2045 C2037 1.503 . S
C2045 C2044 1.370 . S
C2045 C2046 1.403 . S
C2046 C2045 1.403 . S
C2046 C2047 1.404 . S
C2046 C2049 1.539 . S
C2047 C2043 1.408 . S
C2047 C2046 1.404 . S
C2047 H2059 0.930 . S
C2048 C2044 1.524 . S
C2048 H2060 0.956 . S
C2048 H2061 0.961 . S
C2048 H2062 0.961 . S
C2049 C2046 1.539 . S
C2049 H2063 0.958 . S
C2049 H2064 0.961 . S
C2049 H2065 0.960 . S
H2050 C2034 0.931 . S
H2051 C2039 0.929 . S
H2052 C2040 0.960 . S
H2053 C2040 0.962 . S
H2054 C2040 0.960 . S
H2055 C2041 0.961 . S
H2056 C2041 0.961 . S
H2057 C2041 0.961 . S
H2058 C2042 0.931 . S
H2059 C2047 0.930 . S
H2060 C2048 0.956 . S
H2061 C2048 0.961 . S
H2062 C2048 0.961 . S
H2063 C2049 0.958 . S
H2064 C2049 0.961 . S
H2065 C2049 0.960 . S
C2066 C2067 1.391 . S
C2066 C2068 1.394 . S
C2066 H2082 0.931 . S
C2067 C2066 1.391 . S
C2067 C2071 1.376 . S
C2068 C2066 1.394 . S
C2068 C2069 1.369 . S
C2068 C2072 1.531 . S
C2069 C2068 1.369 . S
C2069 C2070 1.410 . S
C2069 C2077 1.503 . S
C2070 C2069 1.410 . S
C2070 C2071 1.392 . S
C2070 C2073 1.511 . S
C2071 C2067 1.376 . S
C2071 C2070 1.392 . S
C2071 H2083 0.929 . S
C2072 C2068 1.531 . S
C2072 H2084 0.960 . S
C2072 H2085 0.962 . S
C2072 H2086 0.960 . S
C2073 C2070 1.511 . S
C2073 H2087 0.961 . S
C2073 H2088 0.961 . S
C2073 H2089 0.961 . S
C2074 C2075 1.370 . S
C2074 C2076 1.363 . S
C2074 H2090 0.931 . S
C2075 C2074 1.370 . S
C2075 C2079 1.408 . S
C2076 C2074 1.363 . S
C2076 C2077 1.370 . S
C2076 C2080 1.524 . S
C2077 C2069 1.503 . S
C2077 C2076 1.370 . S
C2077 C2078 1.403 . S
C2078 C2077 1.403 . S
C2078 C2079 1.404 . S
C2078 C2081 1.539 . S
C2079 C2075 1.408 . S
C2079 C2078 1.404 . S
C2079 H2091 0.930 . S
C2080 C2076 1.524 . S
C2080 H2092 0.956 . S
C2080 H2093 0.961 . S
C2080 H2094 0.961 . S
C2081 C2078 1.539 . S
C2081 H2095 0.958 . S
C2081 H2096 0.961 . S
C2081 H2097 0.960 . S
H2082 C2066 0.931 . S
H2083 C2071 0.929 . S
H2084 C2072 0.960 . S
H2085 C2072 0.962 . S
H2086 C2072 0.960 . S
H2087 C2073 0.961 . S
H2088 C2073 0.961 . S
H2089 C2073 0.961 . S
H2090 C2074 0.931 . S
H2091 C2079 0.930 . S
H2092 C2080 0.956 . S
H2093 C2080 0.961 . S
H2094 C2080 0.961 . S
H2095 C2081 0.958 . S
H2096 C2081 0.961 . S
H2097 C2081 0.960 . S
C2098 C2099 1.391 . S
C2098 C2100 1.394 . S
C2098 H2114 0.931 . S
C2099 C2098 1.391 . S
C2099 C2103 1.376 . S
C2100 C2098 1.394 . S
C2100 C2101 1.369 . S
C2100 C2104 1.531 . S
C2101 C2100 1.369 . S
C2101 C2102 1.410 . S
C2101 C2109 1.503 . S
C2102 C2101 1.410 . S
C2102 C2103 1.392 . S
C2102 C2105 1.511 . S
C2103 C2099 1.376 . S
C2103 C2102 1.392 . S
C2103 H2115 0.929 . S
C2104 C2100 1.531 . S
C2104 H2116 0.960 . S
C2104 H2117 0.962 . S
C2104 H2118 0.960 . S
C2105 C2102 1.511 . S
C2105 H2119 0.961 . S
C2105 H2120 0.961 . S
C2105 H2121 0.961 . S
C2106 C2107 1.370 . S
C2106 C2108 1.363 . S
C2106 H2122 0.931 . S
C2107 C2106 1.370 . S
C2107 C2111 1.408 . S
C2108 C2106 1.363 . S
C2108 C2109 1.370 . S
C2108 C2112 1.524 . S
C2109 C2101 1.503 . S
C2109 C2108 1.370 . S
C2109 C2110 1.403 . S
C2110 C2109 1.403 . S
C2110 C2111 1.404 . S
C2110 C2113 1.539 . S
C2111 C2107 1.408 . S
C2111 C2110 1.404 . S
C2111 H2123 0.930 . S
C2112 C2108 1.524 . S
C2112 H2124 0.956 . S
C2112 H2125 0.961 . S
C2112 H2126 0.961 . S
C2113 C2110 1.539 . S
C2113 H2127 0.958 . S
C2113 H2128 0.961 . S
C2113 H2129 0.960 . S
H2114 C2098 0.931 . S
H2115 C2103 0.929 . S
H2116 C2104 0.960 . S
H2117 C2104 0.962 . S
H2118 C2104 0.960 . S
H2119 C2105 0.961 . S
H2120 C2105 0.961 . S
H2121 C2105 0.961 . S
H2122 C2106 0.931 . S
H2123 C2111 0.930 . S
H2124 C2112 0.956 . S
H2125 C2112 0.961 . S
H2126 C2112 0.961 . S
H2127 C2113 0.958 . S
H2128 C2113 0.961 . S
H2129 C2113 0.960 . S
C2130 C2131 1.391 . S
C2130 C2132 1.394 . S
C2130 H2146 0.931 . S
C2131 C2130 1.391 . S
C2131 C2135 1.376 . S
C2132 C2130 1.394 . S
C2132 C2133 1.369 . S
C2132 C2136 1.531 . S
C2133 C2132 1.369 . S
C2133 C2134 1.410 . S
C2133 C2141 1.503 . S
C2134 C2133 1.410 . S
C2134 C2135 1.392 . S
C2134 C2137 1.511 . S
C2135 C2131 1.376 . S
C2135 C2134 1.392 . S
C2135 H2147 0.929 . S
C2136 C2132 1.531 . S
C2136 H2148 0.960 . S
C2136 H2149 0.962 . S
C2136 H2150 0.960 . S
C2137 C2134 1.511 . S
C2137 H2151 0.961 . S
C2137 H2152 0.961 . S
C2137 H2153 0.961 . S
C2138 C2139 1.370 . S
C2138 C2140 1.363 . S
C2138 H2154 0.931 . S
C2139 C2138 1.370 . S
C2139 C2143 1.408 . S
C2140 C2138 1.363 . S
C2140 C2141 1.370 . S
C2140 C2144 1.524 . S
C2141 C2133 1.503 . S
C2141 C2140 1.370 . S
C2141 C2142 1.403 . S
C2142 C2141 1.403 . S
C2142 C2143 1.404 . S
C2142 C2145 1.539 . S
C2143 C2139 1.408 . S
C2143 C2142 1.404 . S
C2143 H2155 0.930 . S
C2144 C2140 1.524 . S
C2144 H2156 0.956 . S
C2144 H2157 0.961 . S
C2144 H2158 0.961 . S
C2145 C2142 1.539 . S
C2145 H2159 0.958 . S
C2145 H2160 0.961 . S
C2145 H2161 0.960 . S
H2146 C2130 0.931 . S
H2147 C2135 0.929 . S
H2148 C2136 0.960 . S
H2149 C2136 0.962 . S
H2150 C2136 0.960 . S
H2151 C2137 0.961 . S
H2152 C2137 0.961 . S
H2153 C2137 0.961 . S
H2154 C2138 0.931 . S
H2155 C2143 0.930 . S
H2156 C2144 0.956 . S
H2157 C2144 0.961 . S
H2158 C2144 0.961 . S
H2159 C2145 0.958 . S
H2160 C2145 0.961 . S
H2161 C2145 0.960 . S
C2162 C2163 1.391 . S
C2162 C2164 1.394 . S
C2162 H2178 0.931 . S
C2163 C2162 1.391 . S
C2163 C2167 1.376 . S
C2164 C2162 1.394 . S
C2164 C2165 1.369 . S
C2164 C2168 1.531 . S
C2165 C2164 1.369 . S
C2165 C2166 1.410 . S
C2165 C2173 1.503 . S
C2166 C2165 1.410 . S
C2166 C2167 1.392 . S
C2166 C2169 1.511 . S
C2167 C2163 1.376 . S
C2167 C2166 1.392 . S
C2167 H2179 0.929 . S
C2168 C2164 1.531 . S
C2168 H2180 0.960 . S
C2168 H2181 0.962 . S
C2168 H2182 0.960 . S
C2169 C2166 1.511 . S
C2169 H2183 0.961 . S
C2169 H2184 0.961 . S
C2169 H2185 0.961 . S
C2170 C2171 1.370 . S
C2170 C2172 1.363 . S
C2170 H2186 0.931 . S
C2171 C2170 1.370 . S
C2171 C2175 1.408 . S
C2172 C2170 1.363 . S
C2172 C2173 1.370 . S
C2172 C2176 1.524 . S
C2173 C2165 1.503 . S
C2173 C2172 1.370 . S
C2173 C2174 1.403 . S
C2174 C2173 1.403 . S
C2174 C2175 1.404 . S
C2174 C2177 1.539 . S
C2175 C2171 1.408 . S
C2175 C2174 1.404 . S
C2175 H2187 0.930 . S
C2176 C2172 1.524 . S
C2176 H2188 0.956 . S
C2176 H2189 0.961 . S
C2176 H2190 0.961 . S
C2177 C2174 1.539 . S
C2177 H2191 0.958 . S
C2177 H2192 0.961 . S
C2177 H2193 0.960 . S
H2178 C2162 0.931 . S
H2179 C2167 0.929 . S
H2180 C2168 0.960 . S
H2181 C2168 0.962 . S
H2182 C2168 0.960 . S
H2183 C2169 0.961 . S
H2184 C2169 0.961 . S
H2185 C2169 0.961 . S
H2186 C2170 0.931 . S
H2187 C2175 0.930 . S
H2188 C2176 0.956 . S
H2189 C2176 0.961 . S
H2190 C2176 0.961 . S
H2191 C2177 0.958 . S
H2192 C2177 0.961 . S
H2193 C2177 0.960 . S
C2194 C2195 1.391 . S
C2194 C2196 1.394 . S
C2194 H2210 0.931 . S
C2195 C2194 1.391 . S
C2195 C2199 1.376 . S
C2196 C2194 1.394 . S
C2196 C2197 1.369 . S
C2196 C2200 1.531 . S
C2197 C2196 1.369 . S
C2197 C2198 1.410 . S
C2197 C2205 1.503 . S
C2198 C2197 1.410 . S
C2198 C2199 1.392 . S
C2198 C2201 1.511 . S
C2199 C2195 1.376 . S
C2199 C2198 1.392 . S
C2199 H2211 0.929 . S
C2200 C2196 1.531 . S
C2200 H2212 0.960 . S
C2200 H2213 0.962 . S
C2200 H2214 0.960 . S
C2201 C2198 1.511 . S
C2201 H2215 0.961 . S
C2201 H2216 0.961 . S
C2201 H2217 0.961 . S
C2202 C2203 1.370 . S
C2202 C2204 1.363 . S
C2202 H2218 0.931 . S
C2203 C2202 1.370 . S
C2203 C2207 1.408 . S
C2204 C2202 1.363 . S
C2204 C2205 1.370 . S
C2204 C2208 1.524 . S
C2205 C2197 1.503 . S
C2205 C2204 1.370 . S
C2205 C2206 1.403 . S
C2206 C2205 1.403 . S
C2206 C2207 1.404 . S
C2206 C2209 1.539 . S
C2207 C2203 1.408 . S
C2207 C2206 1.404 . S
C2207 H2219 0.930 . S
C2208 C2204 1.524 . S
C2208 H2220 0.956 . S
C2208 H2221 0.961 . S
C2208 H2222 0.961 . S
C2209 C2206 1.539 . S
C2209 H2223 0.958 . S
C2209 H2224 0.961 . S
C2209 H2225 0.960 . S
H2210 C2194 0.931 . S
H2211 C2199 0.929 . S
H2212 C2200 0.960 . S
H2213 C2200 0.962 . S
H2214 C2200 0.960 . S
H2215 C2201 0.961 . S
H2216 C2201 0.961 . S
H2217 C2201 0.961 . S
H2218 C2202 0.931 . S
H2219 C2207 0.930 . S
H2220 C2208 0.956 . S
H2221 C2208 0.961 . S
H2222 C2208 0.961 . S
H2223 C2209 0.958 . S
H2224 C2209 0.961 . S
H2225 C2209 0.960 . S
C2226 C2227 1.391 . S
C2226 C2228 1.394 . S
C2226 H2242 0.931 . S
C2227 C2226 1.391 . S
C2227 C2231 1.376 . S
C2228 C2226 1.394 . S
C2228 C2229 1.369 . S
C2228 C2232 1.531 . S
C2229 C2228 1.369 . S
C2229 C2230 1.410 . S
C2229 C2237 1.503 . S
C2230 C2229 1.410 . S
C2230 C2231 1.392 . S
C2230 C2233 1.511 . S
C2231 C2227 1.376 . S
C2231 C2230 1.392 . S
C2231 H2243 0.929 . S
C2232 C2228 1.531 . S
C2232 H2244 0.960 . S
C2232 H2245 0.962 . S
C2232 H2246 0.960 . S
C2233 C2230 1.511 . S
C2233 H2247 0.961 . S
C2233 H2248 0.961 . S
C2233 H2249 0.961 . S
C2234 C2235 1.370 . S
C2234 C2236 1.363 . S
C2234 H2250 0.931 . S
C2235 C2234 1.370 . S
C2235 C2239 1.408 . S
C2236 C2234 1.363 . S
C2236 C2237 1.370 . S
C2236 C2240 1.524 . S
C2237 C2229 1.503 . S
C2237 C2236 1.370 . S
C2237 C2238 1.403 . S
C2238 C2237 1.403 . S
C2238 C2239 1.404 . S
C2238 C2241 1.539 . S
C2239 C2235 1.408 . S
C2239 C2238 1.404 . S
C2239 H2251 0.930 . S
C2240 C2236 1.524 . S
C2240 H2252 0.956 . S
C2240 H2253 0.961 . S
C2240 H2254 0.961 . S
C2241 C2238 1.539 . S
C2241 H2255 0.958 . S
C2241 H2256 0.961 . S
C2241 H2257 0.960 . S
H2242 C2226 0.931 . S
H2243 C2231 0.929 . S
H2244 C2232 0.960 . S
H2245 C2232 0.962 . S
H2246 C2232 0.960 . S
H2247 C2233 0.961 . S
H2248 C2233 0.961 . S
H2249 C2233 0.961 . S
H2250 C2234 0.931 . S
H2251 C2239 0.930 . S
H2252 C2240 0.956 . S
H2253 C2240 0.961 . S
H2254 C2240 0.961 . S
H2255 C2241 0.958 . S
H2256 C2241 0.961 . S
H2257 C2241 0.960 . S
C2258 C2259 1.391 . S
C2258 C2260 1.394 . S
C2258 H2274 0.931 . S
C2259 C2258 1.391 . S
C2259 C2263 1.376 . S
C2260 C2258 1.394 . S
C2260 C2261 1.369 . S
C2260 C2264 1.531 . S
C2261 C2260 1.369 . S
C2261 C2262 1.410 . S
C2261 C2269 1.503 . S
C2262 C2261 1.410 . S
C2262 C2263 1.392 . S
C2262 C2265 1.511 . S
C2263 C2259 1.376 . S
C2263 C2262 1.392 . S
C2263 H2275 0.929 . S
C2264 C2260 1.531 . S
C2264 H2276 0.960 . S
C2264 H2277 0.962 . S
C2264 H2278 0.960 . S
C2265 C2262 1.511 . S
C2265 H2279 0.961 . S
C2265 H2280 0.961 . S
C2265 H2281 0.961 . S
C2266 C2267 1.370 . S
C2266 C2268 1.363 . S
C2266 H2282 0.931 . S
C2267 C2266 1.370 . S
C2267 C2271 1.408 . S
C2268 C2266 1.363 . S
C2268 C2269 1.370 . S
C2268 C2272 1.524 . S
C2269 C2261 1.503 . S
C2269 C2268 1.370 . S
C2269 C2270 1.403 . S
C2270 C2269 1.403 . S
C2270 C2271 1.404 . S
C2270 C2273 1.539 . S
C2271 C2267 1.408 . S
C2271 C2270 1.404 . S
C2271 H2283 0.930 . S
C2272 C2268 1.524 . S
C2272 H2284 0.956 . S
C2272 H2285 0.961 . S
C2272 H2286 0.961 . S
C2273 C2270 1.539 . S
C2273 H2287 0.958 . S
C2273 H2288 0.961 . S
C2273 H2289 0.960 . S
H2274 C2258 0.931 . S
H2275 C2263 0.929 . S
H2276 C2264 0.960 . S
H2277 C2264 0.962 . S
H2278 C2264 0.960 . S
H2279 C2265 0.961 . S
H2280 C2265 0.961 . S
H2281 C2265 0.961 . S
H2282 C2266 0.931 . S
H2283 C2271 0.930 . S
H2284 C2272 0.956 . S
H2285 C2272 0.961 . S
H2286 C2272 0.961 . S
H2287 C2273 0.958 . S
H2288 C2273 0.961 . S
H2289 C2273 0.960 . S
C2290 C2291 1.391 . S
C2290 C2292 1.394 . S
C2290 H2306 0.931 . S
C2291 C2290 1.391 . S
C2291 C2295 1.376 . S
C2292 C2290 1.394 . S
C2292 C2293 1.369 . S
C2292 C2296 1.531 . S
C2293 C2292 1.369 . S
C2293 C2294 1.410 . S
C2293 C2301 1.503 . S
C2294 C2293 1.410 . S
C2294 C2295 1.392 . S
C2294 C2297 1.511 . S
C2295 C2291 1.376 . S
C2295 C2294 1.392 . S
C2295 H2307 0.929 . S
C2296 C2292 1.531 . S
C2296 H2308 0.960 . S
C2296 H2309 0.962 . S
C2296 H2310 0.960 . S
C2297 C2294 1.511 . S
C2297 H2311 0.961 . S
C2297 H2312 0.961 . S
C2297 H2313 0.961 . S
C2298 C2299 1.370 . S
C2298 C2300 1.363 . S
C2298 H2314 0.931 . S
C2299 C2298 1.370 . S
C2299 C2303 1.408 . S
C2300 C2298 1.363 . S
C2300 C2301 1.370 . S
C2300 C2304 1.524 . S
C2301 C2293 1.503 . S
C2301 C2300 1.370 . S
C2301 C2302 1.403 . S
C2302 C2301 1.403 . S
C2302 C2303 1.404 . S
C2302 C2305 1.539 . S
C2303 C2299 1.408 . S
C2303 C2302 1.404 . S
C2303 H2315 0.930 . S
C2304 C2300 1.524 . S
C2304 H2316 0.956 . S
C2304 H2317 0.961 . S
C2304 H2318 0.961 . S
C2305 C2302 1.539 . S
C2305 H2319 0.958 . S
C2305 H2320 0.961 . S
C2305 H2321 0.960 . S
H2306 C2290 0.931 . S
H2307 C2295 0.929 . S
H2308 C2296 0.960 . S
H2309 C2296 0.962 . S
H2310 C2296 0.960 . S
H2311 C2297 0.961 . S
H2312 C2297 0.961 . S
H2313 C2297 0.961 . S
H2314 C2298 0.931 . S
H2315 C2303 0.930 . S
H2316 C2304 0.956 . S
H2317 C2304 0.961 . S
H2318 C2304 0.961 . S
H2319 C2305 0.958 . S
H2320 C2305 0.961 . S
H2321 C2305 0.960 . S
C595 C177 1.658 . S
C603 C237 1.683 . S
C627 C190 1.795 . S
C635 C277 1.793 . S
C659 C164 1.598 . S
C667 C329 1.580 . S
C691 C151 1.481 . S
C699 C289 1.465 1_556 S
C731 C317 1.507 . S
C723 C125 1.504 . S
C755 C138 1.338 . S
C763 C249 1.363 1_556 S
C795 C256 1.672 . S
C787 C147 1.658 . S
C827 C296 1.675 . S
C819 C121 1.644 . S
C851 C134 1.646 . S
C859 C316 1.687 . S
C883 C173 1.429 . S
C891 C276 1.520 . S
C915 C186 1.430 . S
C923 C336 1.466 . S
C955 C236 1.480 . S
C947 C160 1.397 . S
C987 C357 1.682 . S
C979 C21 1.675 . S
C1011 C34 1.800 . S
C1019 C397 1.796 . S
C1043 C8 1.601 . S
C1051 C449 1.595 . S
C1075 C229 1.458 . S
C1083 C409 1.465 . S
C1107 C203 1.505 . S
C1115 C437 1.507 . S
C1139 C216 1.346 . S
C1147 C369 1.364 . S
C1171 C225 1.656 . S
C1179 C376 1.671 . S
C1203 C199 1.619 . S
C1211 C416 1.683 . S
C1243 C436 1.674 . S
C1235 C212 1.646 . S
C1267 C17 1.500 . S
C1275 C396 1.502 . S
C1307 C456 1.460 . S
C1299 C30 1.404 . S
C1331 C4 1.403 . S
C1339 C356 1.481 . S
C1371 C477 1.682 . S
C1363 C99 1.655 . S
C1395 C112 1.793 . S
C1403 C517 1.793 . S
C1435 C569 1.586 . S
C1427 C86 1.614 . S
C1467 C529 1.452 . S
C1459 C73 1.490 . S
C1499 C557 1.507 . S
C1491 C47 1.505 . S
C1523 C60 1.361 . S
C1531 C489 1.347 . S
C1555 C69 1.609 . S
C1563 C496 1.670 . S
C1587 C43 1.645 . S
C1595 C536 1.678 . S
C1627 C556 1.689 . S
C1619 C56 1.585 . S
C1651 C95 1.452 . S
C1659 C516 1.509 . S
C1683 C108 1.405 . S
C1691 C576 1.458 . S
C1715 C82 1.396 . S
C1723 C476 1.477 . S
C1747 C204 1.505 . S
C1755 C260 1.458 . S
C1787 C300 1.906 . S
C1779 C217 1.950 . S
C1811 C230 1.574 . S
C1819 C323 1.570 . S
C1843 C87 1.762 . S
C1851 C283 1.781 . S
C1875 C100 1.674 . S
C1883 C340 1.665 . S
C1915 C243 1.309 . S
C1907 C113 1.289 . S
C1939 C48 1.501 . S
C1947 C380 1.462 . S
C1971 C61 1.946 . S
C1979 C420 1.908 . S
C2003 C74 1.573 . S
C2011 C443 1.572 . S
C2035 C165 1.789 . S
C2043 C403 1.783 . S
C2075 C460 1.660 . S
C2067 C178 1.680 . S
C2099 C191 1.304 . S
C2107 C363 1.307 . S
C2131 C126 1.500 . S
C2139 C500 1.457 . S
C2163 C139 1.955 . S
C2171 C540 1.903 . S
C2203 C563 1.575 . S
C2195 C152 1.537 . S
C2227 C9 1.785 . S
C2235 C523 1.785 . S
C2259 C22 1.679 . S
C2267 C580 1.662 . S
C2291 C35 1.290 . S
C2299 C483 1.309 . S
