# Generated by pormake.
# Topology pyr, (3,6)-cn, num edge types: 1
# Building blocks:
#     Node 0, Type 0, BuildingBlock: PAMTOO_clean_linker_0, # of connection points: 3
#     Node 1, Type 0, BuildingBlock: PAMTOO_clean_linker_0, # of connection points: 3
#     Node 2, Type 0, BuildingBlock: PAMTOO_clean_linker_0, # of connection points: 3
#     Node 3, Type 0, BuildingBlock: PAMTOO_clean_linker_0, # of connection points: 3
#     Node 4, Type 0, BuildingBlock: PAMTOO_clean_linker_0, # of connection points: 3
#     Node 5, Type 0, BuildingBlock: PAMTOO_clean_linker_0, # of connection points: 3
#     Node 6, Type 0, BuildingBlock: PAMTOO_clean_linker_0, # of connection points: 3
#     Node 7, Type 0, BuildingBlock: PAMTOO_clean_linker_0, # of connection points: 3
#     Node 8, Type 1, BuildingBlock: BETFEN_clean_sbu_0, # of connection points: 6
#     Node 9, Type 1, BuildingBlock: BETFEN_clean_sbu_0, # of connection points: 6
#     Node 10, Type 1, BuildingBlock: BETFEN_clean_sbu_0, # of connection points: 6
#     Node 11, Type 1, BuildingBlock: BETFEN_clean_sbu_0, # of connection points: 6
#     Edge 12, Type (0, 1), BuildingBlock: AJUNOK_clean_linker_0, # of connection points: 2
#     Edge 13, Type (0, 1), BuildingBlock: AJUNOK_clean_linker_0, # of connection points: 2
#     Edge 14, Type (0, 1), BuildingBlock: AJUNOK_clean_linker_0, # of connection points: 2
#     Edge 15, Type (0, 1), BuildingBlock: AJUNOK_clean_linker_0, # of connection points: 2
#     Edge 16, Type (0, 1), BuildingBlock: AJUNOK_clean_linker_0, # of connection points: 2
#     Edge 17, Type (0, 1), BuildingBlock: AJUNOK_clean_linker_0, # of connection points: 2
#     Edge 18, Type (0, 1), BuildingBlock: AJUNOK_clean_linker_0, # of connection points: 2
#     Edge 19, Type (0, 1), BuildingBlock: AJUNOK_clean_linker_0, # of connection points: 2
#     Edge 20, Type (0, 1), BuildingBlock: AJUNOK_clean_linker_0, # of connection points: 2
#     Edge 21, Type (0, 1), BuildingBlock: AJUNOK_clean_linker_0, # of connection points: 2
#     Edge 22, Type (0, 1), BuildingBlock: AJUNOK_clean_linker_0, # of connection points: 2
#     Edge 23, Type (0, 1), BuildingBlock: AJUNOK_clean_linker_0, # of connection points: 2
#     Edge 24, Type (0, 1), BuildingBlock: AJUNOK_clean_linker_0, # of connection points: 2
#     Edge 25, Type (0, 1), BuildingBlock: AJUNOK_clean_linker_0, # of connection points: 2
#     Edge 26, Type (0, 1), BuildingBlock: AJUNOK_clean_linker_0, # of connection points: 2
#     Edge 27, Type (0, 1), BuildingBlock: AJUNOK_clean_linker_0, # of connection points: 2
#     Edge 28, Type (0, 1), BuildingBlock: AJUNOK_clean_linker_0, # of connection points: 2
#     Edge 29, Type (0, 1), BuildingBlock: AJUNOK_clean_linker_0, # of connection points: 2
#     Edge 30, Type (0, 1), BuildingBlock: AJUNOK_clean_linker_0, # of connection points: 2
#     Edge 31, Type (0, 1), BuildingBlock: AJUNOK_clean_linker_0, # of connection points: 2
#     Edge 32, Type (0, 1), BuildingBlock: AJUNOK_clean_linker_0, # of connection points: 2
#     Edge 33, Type (0, 1), BuildingBlock: AJUNOK_clean_linker_0, # of connection points: 2
#     Edge 34, Type (0, 1), BuildingBlock: AJUNOK_clean_linker_0, # of connection points: 2
#     Edge 35, Type (0, 1), BuildingBlock: AJUNOK_clean_linker_0, # of connection points: 2
# Relax obj value: 0.247
# Max RMSD: 0.328
# Mean RMSD: 0.154
data_MOF--net-pyr--node1-BETFEN_clean_sbu_0--node2-PAMTOO_clean_linker_0--edge1-AJUNOK_clean_linker_0
_symmetry_space_group_name_H-M    P1
_symmetry_Int_Tables_number       1
_symmetry_cell_setting            triclinic
loop_
_symmetry_equiv_pos_as_xyz
'x, y, z'
_cell_length_a     26.42209
_cell_length_b     30.71957
_cell_length_c     27.027745
_cell_angle_alpha  92.716121
_cell_angle_beta   101.64637
_cell_angle_gamma 117.87812
loop_
_atom_site_label
_atom_site_type_symbol
_atom_site_fract_x
_atom_site_fract_y
_atom_site_fract_z
_atom_type_partial_charge
H0 H 0.39766 0.39829 0.31636 0.0
H1 H 0.51869 0.34534 0.3705 0.0
H2 H 0.53748 0.42522 0.24361 0.0
H3 H 0.66115 0.39739 0.32468 0.0
C4 C 0.61776 0.36831 0.32912 0.0
O5 O 0.57281 0.37137 0.29587 0.0
H6 H 0.61746 0.37495 0.36971 0.0
C7 C 0.43843 0.39769 0.31649 0.0
C8 C 0.4679 0.41761 0.27859 0.0
C9 C 0.45606 0.37092 0.34937 0.0
C10 C 0.50564 0.36653 0.34561 0.0
C11 C 0.53626 0.38699 0.30847 0.0
C12 C 0.51757 0.41322 0.27526 0.0
H13 H 0.29152 0.90775 0.78565 0.0
H14 H 0.26175 0.85673 0.62592 0.0
H15 H 0.36989 0.82235 0.74052 0.0
H16 H 0.40623 0.88028 0.64447 0.0
C17 C 0.37949 0.8408 0.62455 0.0
O18 O 0.32965 0.81454 0.64244 0.0
H19 H 0.36504 0.84252 0.58347 0.0
C20 C 0.29608 0.88572 0.75602 0.0
C21 C 0.33337 0.86516 0.76902 0.0
C22 C 0.26949 0.88243 0.70455 0.0
C23 C 0.28027 0.85794 0.6659 0.0
C24 C 0.3161 0.83578 0.67906 0.0
C25 C 0.341 0.83826 0.73058 0.0
H26 H 0.73211 0.28102 0.9382 0.0
H27 H 0.57033 0.24448 0.82631 0.0
H28 H 0.73261 0.37888 0.83088 0.0
H29 H 0.62983 0.38939 0.82779 0.0
C30 C 0.60499 0.36473 0.78996 0.0
O31 O 0.62096 0.3279 0.7842 0.0
H32 H 0.55749 0.34633 0.79025 0.0
C33 C 0.70795 0.28885 0.90562 0.0
C34 C 0.73832 0.33245 0.88627 0.0
C35 C 0.64775 0.25558 0.88439 0.0
C36 C 0.61693 0.26912 0.84373 0.0
C37 C 0.6478 0.3143 0.82446 0.0
C38 C 0.70856 0.34507 0.84582 0.0
H39 H 0.89427 0.72841 0.46727 0.0
H40 H 0.8674 0.59979 0.37117 0.0
H41 H 1.0122 0.74588 0.37157 0.0
H42 H 0.9319 0.66723 0.26544 0.0
C43 C 0.93596 0.63554 0.28017 0.0
O44 O 0.96107 0.64893 0.33311 0.0
H45 H 0.89004 0.60408 0.2732 0.0
C46 C 0.90678 0.71238 0.43848 0.0
C47 C 0.95625 0.74389 0.42131 0.0
C48 C 0.87331 0.66083 0.42028 0.0
C49 C 0.89207 0.6396 0.38496 0.0
C50 C 0.94209 0.67001 0.36645 0.0
C51 C 0.97388 0.72231 0.38509 0.0
H52 H 0.72311 0.7404 0.80068 0.0
H53 H 0.57112 0.62565 0.83931 0.0
H54 H 0.68871 0.58849 0.78105 0.0
H55 H 0.57325 0.50149 0.86555 0.0
C56 C 0.6044 0.54181 0.86784 0.0
O57 O 0.59572 0.55434 0.81947 0.0
H58 H 0.5926 0.56221 0.89444 0.0
C59 C 0.69554 0.70142 0.80298 0.0
C60 C 0.71194 0.66633 0.78877 0.0
C61 C 0.64513 0.68743 0.82123 0.0
C62 C 0.60963 0.63704 0.82417 0.0
C63 C 0.62588 0.60155 0.81047 0.0
C64 C 0.67637 0.61599 0.79165 0.0
H65 H 0.85891 0.12924 0.34534 0.0
H66 H 0.78593 0.22514 0.3713 0.0
H67 H 0.88805 0.19856 0.49814 0.0
H68 H 0.85851 0.30608 0.4465 0.0
C69 C 0.84024 0.28867 0.47854 0.0
O70 O 0.82035 0.23801 0.47098 0.0
H71 H 0.87628 0.30597 0.51444 0.0
C72 C 0.85489 0.1552 0.37073 0.0
C73 C 0.87976 0.16292 0.42367 0.0
C74 C 0.82089 0.17766 0.35123 0.0
C75 C 0.81244 0.20798 0.38548 0.0
C76 C 0.83631 0.21518 0.4382 0.0
C77 C 0.87078 0.19354 0.45712 0.0
H78 H 0.42782 0.75438 0.15278 0.0
H79 H 0.42121 0.64932 0.2534 0.0
H80 H 0.5757 0.79496 0.28251 0.0
H81 H 0.47445 0.70543 0.36 0.0
C82 C 0.51848 0.70837 0.36203 0.0
O83 O 0.52735 0.7057 0.31317 0.0
H84 H 0.55234 0.74566 0.38436 0.0
C85 C 0.44851 0.74581 0.187 0.0
C86 C 0.50508 0.78156 0.21595 0.0
C87 C 0.41771 0.69881 0.20052 0.0
C88 C 0.44474 0.68582 0.24301 0.0
C89 C 0.50166 0.72018 0.27295 0.0
C90 C 0.53196 0.76833 0.25938 0.0
H91 H 0.10987 0.29127 0.82323 0.0
H92 H 0.22435 0.44419 0.80809 0.0
H93 H 0.21468 0.32466 0.71219 0.0
H94 H 0.33095 0.40675 0.76157 0.0
C95 C 0.32219 0.4362 0.74604 0.0
O96 O 0.26193 0.42006 0.73299 0.0
H97 H 0.34425 0.46886 0.77734 0.0
C98 C 0.14213 0.3181 0.80573 0.0
C99 C 0.15927 0.30072 0.76523 0.0
C100 C 0.16467 0.37047 0.82152 0.0
C101 C 0.20613 0.40437 0.79706 0.0
C102 C 0.2239 0.38754 0.75791 0.0
C103 C 0.20033 0.33648 0.74254 0.0
Pr104 Pr 1.02439 0.99996 0.6117 0.0
Pr105 Pr 0.12051 0.05337 0.57016 0.0
C106 C 0.92368 0.93502 0.63433 0.0
C107 C 0.90348 0.88622 0.65092 0.0
C108 C 0.94446 0.87291 0.67721 0.0
C109 C 0.92485 0.82771 0.69592 0.0
C110 C 0.86402 0.79521 0.68812 0.0
C111 C 0.82323 0.80759 0.65943 0.0
C112 C 0.84288 0.85284 0.64103 0.0
C113 C 0.09514 0.09848 0.66783 0.0
C114 C 0.14056 0.99082 0.65572 0.0
C115 C 0.21364 0.11843 0.53826 0.0
C116 C 0.23894 0.16442 0.51598 0.0
C117 C 0.2145 0.16548 0.46506 0.0
C118 C 0.24602 0.20489 0.44077 0.0
C119 C 0.30183 0.24391 0.46721 0.0
C120 C 0.32426 0.24499 0.5191 0.0
C121 C 0.293 0.20533 0.54336 0.0
C122 C 0.06681 0.95042 0.53072 0.0
C123 C 1.00164 0.06184 0.52192 0.0
O124 O 0.92983 0.93643 0.58768 0.0
O125 O 0.96707 0.97291 0.66721 0.0
O126 O 0.08013 0.08656 0.61953 0.0
O127 O 0.0777 0.05841 0.68873 0.0
O128 O 0.1665 0.03578 0.64382 0.0
O129 O 0.08282 0.96397 0.64067 0.0
O130 O 0.21102 0.12226 0.58603 0.0
O131 O 0.16879 0.07854 0.50869 0.0
O132 O 1.03922 0.97422 0.53587 0.0
O133 O 0.12328 0.97989 0.54668 0.0
O134 O 0.97934 0.03475 0.55617 0.0
O135 O 0.05499 0.07327 0.51768 0.0
H136 H 0.99152 0.89814 0.68452 0.0
H137 H 0.957 0.8189 0.71785 0.0
H138 H 0.77602 0.78343 0.65352 0.0
H139 H 0.81076 0.8624 0.62042 0.0
H140 H 0.17282 0.13458 0.44299 0.0
H141 H 0.22846 0.20352 0.40051 0.0
H142 H 0.36769 0.27468 0.53974 0.0
H143 H 0.31281 0.20521 0.58255 0.0
Pr144 Pr 0.53657 1.02327 0.07224 0.0
Pr145 Pr 0.63241 1.02319 0.04316 0.0
C146 C 0.46882 0.03243 0.12902 0.0
C147 C 0.48299 0.07714 0.16419 0.0
C148 C 0.48586 0.11964 0.14466 0.0
C149 C 0.5115 0.16514 0.17706 0.0
C150 C 0.53449 0.16912 0.2296 0.0
C151 C 0.52898 0.12631 0.24977 0.0
C152 C 0.50325 0.0806 0.21729 0.0
C153 C 0.57173 0.08974 1.00205 0.0
C154 C 0.67413 0.09851 0.1437 0.0
C155 C 0.6999 1.0087 0.98952 0.0
C156 C 0.68617 0.96068 0.96201 0.0
C157 C 0.63622 0.91722 0.96658 0.0
C158 C 0.62205 0.87083 0.94134 0.0
C159 C 0.65768 0.86714 0.91116 0.0
C160 C 0.70696 0.91086 0.90565 0.0
C161 C 0.7212 0.95745 0.93105 0.0
C162 C 0.59325 0.95566 0.1118 0.0
C163 C 0.49653 0.95166 0.96917 0.0
O164 O 0.50167 1.01179 0.14315 0.0
O165 O 0.4601 0.0352 0.0802 0.0
O166 O 0.60782 0.08643 1.03885 0.0
O167 O 0.51738 0.05938 1.00178 0.0
O168 O 0.69304 0.0945 0.1034 0.0
O169 O 0.61781 0.07093 0.14241 0.0
O170 O 0.66393 0.02529 0.97089 0.0
O171 O 0.71049 1.01208 1.03924 0.0
O172 O 0.55946 0.95965 0.07384 0.0
O173 O 0.64812 0.98685 0.11496 0.0
O174 O 0.47661 0.95353 1.00942 0.0
O175 O 0.55293 0.97968 0.97183 0.0
H176 H 0.47075 0.11848 0.10402 0.0
H177 H 0.51431 0.19757 0.16086 0.0
H178 H 0.54645 0.12859 0.29024 0.0
H179 H 0.50188 0.04853 0.23335 0.0
H180 H 0.60835 0.91918 0.99005 0.0
H181 H 0.5834 0.83783 0.94556 0.0
H182 H 0.73516 0.90882 0.88263 0.0
H183 H 0.75961 0.99071 0.92691 0.0
Pr184 Pr 0.60908 0.58214 0.60454 0.0
Pr185 Pr 0.54788 0.48053 0.52735 0.0
C186 C 0.62981 0.66901 0.6549 0.0
C187 C 0.59412 0.69435 0.65216 0.0
C188 C 0.53231 0.66687 0.63368 0.0
C189 C 0.49819 0.69072 0.63004 0.0
C190 C 0.52523 0.74266 0.64449 0.0
C191 C 0.58737 0.77029 0.66214 0.0
C192 C 0.62152 0.74626 0.66592 0.0
C193 C 0.62805 0.50544 0.64331 0.0
C194 C 0.46717 0.49599 0.5979 0.0
C195 C 0.52834 0.39011 0.48923 0.0
C196 C 0.56994 0.37179 0.48488 0.0
C197 C 0.62469 0.40376 0.47526 0.0
C198 C 0.66654 0.38821 0.47556 0.0
C199 C 0.65458 0.34034 0.48542 0.0
C200 C 0.59966 0.30825 0.49498 0.0
C201 C 0.55757 0.32386 0.49456 0.0
C202 C 0.52691 0.55115 0.47642 0.0
C203 C 0.68198 0.56991 0.52446 0.0
O204 O 0.64878 0.66634 0.61439 0.0
O205 O 0.60982 0.62731 0.67356 0.0
O206 O 0.58144 0.50129 0.6149 0.0
O207 O 0.66872 0.55236 0.65361 0.0
O208 O 0.47032 0.46313 0.56682 0.0
O209 O 0.50973 0.54323 0.61023 0.0
O210 O 0.5265 0.40106 0.53588 0.0
O211 O 0.52845 0.42335 0.46071 0.0
O212 O 0.55519 0.55742 0.52212 0.0
O213 O 0.50336 0.50454 0.45615 0.0
O214 O 0.67323 0.60212 0.55056 0.0
O215 O 0.64783 0.52124 0.52129 0.0
H216 H 0.51027 0.62691 0.62184 0.0
H217 H 0.45053 0.66844 0.61628 0.0
H218 H 0.60963 0.81053 0.67245 0.0
H219 H 0.66926 0.76818 0.67952 0.0
H220 H 0.63545 0.44099 0.46776 0.0
H221 H 0.70816 0.41355 0.46755 0.0
H222 H 0.58961 0.27141 0.50352 0.0
H223 H 0.51585 0.29891 0.50267 0.0
Pr224 Pr 0.06227 0.54634 1.02235 0.0
Pr225 Pr 0.07713 0.47946 0.09443 0.0
C226 C 1.01847 0.59266 0.95961 0.0
C227 C 0.96282 0.5941 0.95246 0.0
C228 C 0.94374 0.61301 0.91083 0.0
C229 C 0.88699 0.60796 0.90051 0.0
C230 C 0.84879 0.58333 0.93135 0.0
C231 C 0.86847 0.56554 0.97366 0.0
C232 C 0.92536 0.57133 0.98442 0.0
C233 C 0.18029 0.57775 0.07171 0.0
C234 C 1.02839 0.55371 0.13625 0.0
C235 C 0.11713 0.44047 0.16887 0.0
C236 C 0.16632 0.42997 0.17418 0.0
C237 C 0.18175 0.41855 0.13037 0.0
C238 C 0.23585 0.41951 0.13494 0.0
C239 C 0.27528 0.43265 0.18326 0.0
C240 C 0.25857 0.44193 0.22708 0.0
C241 C 0.20451 0.44074 0.22256 0.0
C242 C 0.97038 0.43448 1.02053 0.0
C243 C 0.10214 0.46594 0.98057 0.0
O244 O 1.0117 0.54854 0.94548 0.0
O245 O 0.0573 0.61559 1.00362 0.0
O246 O 0.13741 0.56119 0.09173 0.0
O247 O 0.16393 0.58354 1.02501 0.0
O248 O 1.03626 0.51475 0.1444 0.0
O249 O 1.0368 0.57281 0.09364 0.0
O250 O 0.13357 0.48796 0.17267 0.0
O251 O 0.07032 0.41288 0.13133 0.0
O252 O 0.9939 0.47747 0.04611 0.0
O253 O 1.00039 0.41179 1.03476 0.0
O254 O 0.0698 0.48799 0.96695 0.0
O255 O 0.12108 0.46605 1.03004 0.0
H256 H 0.97195 0.63024 0.88554 0.0
H257 H 0.87212 0.62162 0.86751 0.0
H258 H 0.83942 0.54639 0.99773 0.0
H259 H 0.93947 0.55649 1.01669 0.0
H260 H 0.15319 0.41097 0.09252 0.0
H261 H 0.24778 0.41185 0.10078 0.0
H262 H 0.28773 0.45066 0.26488 0.0
H263 H 0.19367 0.45033 0.25659 0.0
C264 C 0.40321 0.28998 0.37963 0.0
C265 C 0.41709 0.34026 0.38102 0.0
C266 C 0.36572 0.25933 0.40776 0.0
C267 C 0.34082 0.2778 0.43837 0.0
H268 H 0.42048 0.2738 0.35578 0.0
H269 H 0.35605 0.22078 0.40555 0.0
S270 S 0.36175 0.4058 0.45541 0.0
N271 N 0.40168 0.40669 0.41525 0.0
N272 N 0.33169 0.34859 0.46906 0.0
C273 C 0.35391 0.32766 0.44046 0.0
C274 C 0.39167 0.35895 0.41126 0.0
C275 C 0.35526 0.87118 0.86469 0.0
C276 C 0.37501 0.88226 0.82002 0.0
C277 C 0.39515 0.89213 0.91328 0.0
C278 C 0.45575 0.92484 0.91837 0.0
H279 H 0.30869 0.84707 0.86199 0.0
H280 H 0.3782 0.88361 0.94691 0.0
S281 S 0.52748 0.96826 0.81183 0.0
N282 N 0.45722 0.92991 0.78341 0.0
N283 N 0.53264 0.96785 0.87357 0.0
C284 C 0.47565 0.93549 0.87343 0.0
C285 C 0.4351 0.91467 0.82451 0.0
C286 C 0.56773 0.38827 0.70629 0.0
C287 C 0.61534 0.39734 0.74768 0.0
C288 C 0.57324 0.42227 0.67168 0.0
C289 C 0.62667 0.46716 0.67665 0.0
H290 H 0.52495 0.35557 0.70184 0.0
H291 H 0.53433 0.41408 0.6419 0.0
S292 S 0.76677 0.50623 0.77499 0.0
N293 N 0.71938 0.45268 0.78872 0.0
N294 N 0.72957 0.51658 0.72439 0.0
C295 C 0.67551 0.47544 0.71626 0.0
C296 C 0.66993 0.44058 0.75139 0.0
C297 C 0.96878 0.57283 0.25163 0.0
C298 C 0.96913 0.61885 0.24877 0.0
C299 C 0.98885 0.5526 0.21631 0.0
C300 C 1.0096 0.57683 0.17551 0.0
H301 H 0.95084 0.55131 0.28044 0.0
H302 H 0.98644 0.51682 0.22029 0.0
S303 S 1.02277 0.69972 0.15198 0.0
N304 N 0.99503 0.68891 0.20241 0.0
N305 N 1.03148 0.65142 0.13678 0.0
C306 C 1.01157 0.62353 0.17319 0.0
C307 C 0.99179 0.64425 0.20936 0.0
C308 C 0.63034 0.30822 0.27381 0.0
C309 C 0.60889 0.31681 0.31466 0.0
C310 C 0.60858 0.2598 0.2484 0.0
C311 C 0.56416 0.21837 0.26264 0.0
H312 H 0.66129 0.33937 0.25925 0.0
H313 H 0.62447 0.25494 0.21571 0.0
S314 S 0.49631 0.22009 0.36942 0.0
N315 N 0.54446 0.27915 0.37091 0.0
N316 N 0.50194 0.1884 0.32175 0.0
C317 C 0.54487 0.22599 0.30523 0.0
C318 C 0.56756 0.27523 0.33151 0.0
C319 C 0.25723 0.95056 0.66666 0.0
C320 C 0.23558 0.90918 0.692 0.0
C321 C 0.22797 0.97865 0.6577 0.0
C322 C 0.17558 0.96584 0.67313 0.0
H323 H 0.29735 0.96152 0.65413 0.0
H324 H 0.24548 1.00956 0.63697 0.0
S325 S 0.10161 0.86097 0.7416 0.0
N326 N 0.1599 0.85732 0.73348 0.0
N327 N 0.10394 0.90925 0.71557 0.0
C328 C 0.15382 0.92464 0.69878 0.0
C329 C 0.18409 0.89655 0.70853 0.0
C330 C 0.82096 0.40932 0.94245 0.0
C331 C 0.80166 0.36436 0.91037 0.0
C332 C 0.877 0.43305 0.97691 0.0
C333 C 0.9149 0.41239 0.98013 0.0
H334 H 0.79123 0.42426 0.94334 0.0
H335 H 0.88926 0.46618 1.00312 0.0
S336 S 0.88735 0.29924 0.8984 0.0
N337 N 0.82618 0.3029 0.87962 0.0
N338 N 0.93191 0.34777 0.94403 0.0
C339 C 0.89754 0.36941 0.94551 0.0
C340 C 0.84068 0.34539 0.91059 0.0
C341 C 0.81021 0.58995 0.46395 0.0
C342 C 0.81876 0.63152 0.43931 0.0
C343 C 0.76501 0.5689 0.49035 0.0
C344 C 0.7276 0.58936 0.49408 0.0
H345 H 0.84012 0.57495 0.46469 0.0
H346 H 0.76086 0.53771 0.50961 0.0
S347 S 0.72507 0.69248 0.42931 0.0
N348 N 0.78002 0.68738 0.41477 0.0
N349 N 0.69812 0.64976 0.4656 0.0
C350 C 0.7339 0.62906 0.46735 0.0
C351 C 0.7785 0.64952 0.4397 0.0
C352 C 0.43434 0.47489 0.24343 0.0
C353 C 0.43555 0.42996 0.23603 0.0
C354 C 0.38405 0.47779 0.21973 0.0
C355 C 0.33343 0.43543 0.18958 0.0
H356 H 0.46926 0.50583 0.27203 0.0
H357 H 0.38235 0.51165 0.22916 0.0
S358 S 0.3203 0.31277 0.15046 0.0
N359 N 0.38737 0.34568 0.18903 0.0
N360 N 0.29153 0.35043 0.14629 0.0
C361 C 0.33743 0.39271 0.17635 0.0
C362 C 0.38915 0.39019 0.19935 0.0
C363 C 0.65498 0.18362 0.92068 0.0
C364 C 0.62122 0.20803 0.90689 0.0
C365 C 0.6393 0.1462 0.95177 0.0
C366 C 0.58783 0.12982 0.96923 0.0
H367 H 0.69549 0.19481 0.90872 0.0
H368 H 0.66769 0.12985 0.96204 0.0
S369 S 0.48073 0.17742 0.94144 0.0
N370 N 0.53221 0.21086 0.91227 0.0
N371 N 0.50074 0.13861 0.9679 0.0
C372 C 0.55162 0.15153 0.95344 0.0
C373 C 0.56851 0.19076 0.92282 0.0
C374 C 0.9548 0.82408 0.44523 0.0
C375 C 0.98779 0.79889 0.44335 0.0
C376 C 0.98028 0.8727 0.47306 0.0
C377 C 1.04021 0.8988 0.50054 0.0
H378 H 0.90809 0.80539 0.42586 0.0
H379 H 0.95253 0.88972 0.47344 0.0
S380 S 0.14626 0.84997 0.50949 0.0
N381 N 0.08389 0.8043 0.4723 0.0
N382 N 0.13193 0.89519 0.52408 0.0
C383 C 0.07401 0.87442 0.4984 0.0
C384 C 0.04797 0.82486 0.46995 0.0
C385 C 0.40828 0.77943 0.59123 0.0
C386 C 0.41728 0.81561 0.6309 0.0
C387 C 0.44337 0.7561 0.59584 0.0
C388 C 0.4884 0.76769 0.64055 0.0
H389 H 0.37427 0.76952 0.55613 0.0
H390 H 0.43559 0.72918 0.56388 0.0
S391 S 0.52624 0.8564 0.75726 0.0
N392 N 0.47304 0.86037 0.71705 0.0
N393 N 0.53708 0.81501 0.72658 0.0
C394 C 0.49668 0.80272 0.68102 0.0
C395 C 0.46144 0.82686 0.67606 0.0
C396 C 0.75636 0.67241 0.71555 0.0
C397 C 0.76478 0.68422 0.76833 0.0
C398 C 0.79403 0.70628 0.68938 0.0
C399 C 0.84179 0.75237 0.71577 0.0
H400 H 0.71636 0.6404 0.6935 0.0
H401 H 0.78199 0.69881 0.64788 0.0
S402 S 0.89262 0.79296 0.85644 0.0
N403 N 0.83162 0.73873 0.84762 0.0
N404 N 0.90306 0.80275 0.79886 0.0
C405 C 0.85644 0.76038 0.76957 0.0
C406 C 0.81782 0.7259 0.79594 0.0
C407 C 0.72725 0.1516 0.2844 0.0
C408 C 0.78736 0.16426 0.29653 0.0
C409 C 0.69235 0.13382 0.23413 0.0
C410 C 0.71569 0.12737 0.1937 0.0
H411 H 0.70604 0.15322 0.31425 0.0
H412 H 0.64583 0.12299 0.22742 0.0
S413 S 0.8723 0.16085 0.20402 0.0
N414 N 0.87041 0.17414 0.26332 0.0
N415 N 0.80415 0.13927 0.1685 0.0
C416 C 0.77654 0.14253 0.20466 0.0
C417 C 0.81235 0.16102 0.25617 0.0
C418 C 0.56676 0.67851 0.43469 0.0
C419 C 0.52163 0.66696 0.38983 0.0
C420 C 0.56735 0.64138 0.46343 0.0
C421 C 0.52344 0.59088 0.4481 0.0
H422 H 0.60158 0.71675 0.44816 0.0
H423 H 0.60297 0.65225 0.49751 0.0
S424 S 0.39266 0.54149 0.33686 0.0
N425 N 0.42969 0.6016 0.33407 0.0
N426 N 0.43182 0.53198 0.38663 0.0
C427 C 0.47792 0.57895 0.4037 0.0
C428 C 0.47682 0.61681 0.37498 0.0
C429 C 0.15192 0.38291 0.9126 0.0
C430 C 0.14427 0.39136 0.86127 0.0
C431 C 0.1388 0.407 0.95071 0.0
C432 C 0.11642 0.44037 0.93953 0.0
H433 H 0.16978 0.35849 0.92384 0.0
H434 H 0.14635 0.39932 0.98941 0.0
S435 S 0.08606 0.47399 0.81048 0.0
N436 N 0.11142 0.43505 0.80165 0.0
N437 N 0.08629 0.479 0.87161 0.0
C438 C 0.10754 0.44815 0.888 0.0
C439 C 0.12152 0.42419 0.8496 0.0
C440 C 0.63706 0.76458 0.81258 0.0
C441 C 0.63489 0.72733 0.84183 0.0
C442 C 0.64216 0.80902 0.83479 0.0
C443 C 0.645 0.81764 0.88703 0.0
H444 H 0.63781 0.76033 0.77284 0.0
H445 H 0.64577 0.83746 0.81132 0.0
S446 S 0.63876 0.7312 0.97986 0.0
N447 N 0.63371 0.70119 0.9252 0.0
N448 N 0.64304 0.78468 0.96709 0.0
C449 C 0.63982 0.77968 0.91615 0.0
C450 C 0.6347 0.73444 0.89348 0.0
C451 C 0.88933 0.10567 0.48241 0.0
C452 C 0.90959 0.13493 0.44499 0.0
C453 C 0.91808 0.08066 0.50541 0.0
C454 C 0.96869 0.08424 0.49228 0.0
H455 H 0.85111 0.10242 0.49436 0.0
H456 H 0.9012 0.05947 0.53478 0.0
S457 S 1.03773 0.15474 0.39439 0.0
N458 N 0.98149 0.16481 0.39408 0.0
N459 N 1.03632 0.11808 0.43748 0.0
C460 C 0.98846 0.11239 0.45372 0.0
C461 C 0.95867 0.1376 0.42999 0.0
C462 C 0.31614 0.68372 0.16093 0.0
C463 C 0.35618 0.66506 0.17017 0.0
C464 C 0.25955 0.65528 0.12819 0.0
C465 C 0.24109 0.6073 0.10337 0.0
H466 H 0.32896 0.72091 0.17888 0.0
H467 H 0.22997 0.6709 0.12224 0.0
S468 S 0.32766 0.5405 0.11517 0.0
N469 N 0.3728 0.59512 0.15234 0.0
N470 N 0.26546 0.54124 0.09089 0.0
C471 C 0.27978 0.58756 0.1128 0.0
C472 C 0.33763 0.61654 0.14633 0.0
C473 C 0.3835 0.50047 0.69625 0.0
C474 C 0.34934 0.45001 0.70045 0.0
C475 C 0.41791 0.51465 0.66037 0.0
C476 C 0.41982 0.47907 0.62675 0.0
H477 H 0.38606 0.52946 0.72271 0.0
H478 H 0.44549 0.55418 0.66092 0.0
S479 S 0.33165 0.34141 0.61768 0.0
N480 N 0.31448 0.36407 0.66442 0.0
N481 N 0.37885 0.3903 0.59708 0.0
C482 C 0.38228 0.42822 0.62808 0.0
C483 C 0.34719 0.41386 0.66478 0.0
C484 C 0.68243 0.5149 0.88035 0.0
C485 C 0.66748 0.55256 0.88814 0.0
C486 C 0.74126 0.52495 0.89599 0.0
C487 C 0.78714 0.5734 0.91769 0.0
H488 H 0.64845 0.47755 0.86193 0.0
H489 H 0.75121 0.49495 0.89016 0.0
S490 S 0.77157 0.68463 0.94766 0.0
N491 N 0.7032 0.63947 0.92205 0.0
N492 N 0.81435 0.65901 0.9475 0.0
C493 C 0.77303 0.6113 0.92588 0.0
C494 C 0.71299 0.60071 0.91194 0.0
C495 C 0.49801 0.85323 0.17929 0.0
C496 C 0.53328 0.83127 0.19796 0.0
C497 C 0.51762 0.89321 0.15171 0.0
C498 C 0.57423 0.9144 0.14281 0.0
H499 H 0.45359 0.83806 0.18438 0.0
H500 H 0.48797 0.90743 0.13698 0.0
S501 S 0.68645 0.87446 0.18647 0.0
N502 N 0.629 0.83583 0.20681 0.0
N503 N 0.66713 0.91262 0.1576 0.0
C504 C 0.6115 0.89508 0.16379 0.0
C505 C 0.59091 0.8534 0.19088 0.0
C506 C 0.11717 0.23154 0.68924 0.0
C507 C 0.13505 0.24629 0.74307 0.0
C508 C 0.10491 0.18441 0.66583 0.0
C509 C 0.1091 0.1487 0.69476 0.0
H510 H 0.11408 0.25745 0.66457 0.0
H511 H 0.09223 0.17606 0.62439 0.0
S512 S 0.15183 0.1667 0.83705 0.0
N513 N 0.15506 0.21998 0.82459 0.0
N514 N 0.13065 0.13114 0.78097 0.0
C515 C 0.12499 0.16205 0.74869 0.0
C516 C 0.13802 0.21055 0.77264 0.0
C517 C 0.8035 0.34422 0.51016 0.0
C518 C 0.79014 0.29881 0.48212 0.0
C519 C 0.75924 0.35683 0.51193 0.0
C520 C 0.69983 0.32457 0.48556 0.0
H521 H 0.84875 0.37049 0.53049 0.0
H522 H 0.77173 0.39231 0.53397 0.0
S523 S 0.64124 0.202 0.40464 0.0
N524 N 0.71273 0.22202 0.42584 0.0
N525 N 0.63004 0.24565 0.42997 0.0
C526 C 0.68571 0.279 0.45748 0.0
C527 C 0.73075 0.26628 0.45525 0.0
loop_
_geom_bond_atom_site_label_1
_geom_bond_atom_site_label_2
_geom_bond_distance
_geom_bond_site_symmetry_2
_ccdc_geom_bond_type
H0 C7 0.929 . S
H1 C10 0.930 . S
H2 C12 0.929 . S
H3 C4 0.969 . S
C4 H3 0.969 . S
C4 O5 1.550 . S
C4 H6 0.973 . S
O5 C4 1.550 . S
O5 C11 1.412 . S
H6 C4 0.973 . S
C7 H0 0.929 . S
C7 C8 1.400 . S
C7 C9 1.364 . S
C8 C7 1.400 . S
C8 C12 1.377 . S
C9 C7 1.364 . S
C9 C10 1.374 . S
C10 H1 0.930 . S
C10 C9 1.374 . S
C10 C11 1.383 . S
C11 O5 1.412 . S
C11 C10 1.383 . S
C11 C12 1.394 . S
C12 H2 0.929 . S
C12 C8 1.377 . S
C12 C11 1.394 . S
H13 C20 0.929 . S
H14 C23 0.930 . S
H15 C25 0.929 . S
H16 C17 0.969 . S
C17 H16 0.969 . S
C17 O18 1.550 . S
C17 H19 0.973 . S
O18 C17 1.550 . S
O18 C24 1.412 . S
H19 C17 0.973 . S
C20 H13 0.929 . S
C20 C21 1.400 . S
C20 C22 1.364 . S
C21 C20 1.400 . S
C21 C25 1.377 . S
C22 C20 1.364 . S
C22 C23 1.374 . S
C23 H14 0.930 . S
C23 C22 1.374 . S
C23 C24 1.383 . S
C24 O18 1.412 . S
C24 C23 1.383 . S
C24 C25 1.394 . S
C25 H15 0.929 . S
C25 C21 1.377 . S
C25 C24 1.394 . S
H26 C33 0.929 . S
H27 C36 0.930 . S
H28 C38 0.929 . S
H29 C30 0.969 . S
C30 H29 0.969 . S
C30 O31 1.550 . S
C30 H32 0.973 . S
O31 C30 1.550 . S
O31 C37 1.412 . S
H32 C30 0.973 . S
C33 H26 0.929 . S
C33 C34 1.400 . S
C33 C35 1.364 . S
C34 C33 1.400 . S
C34 C38 1.377 . S
C35 C33 1.364 . S
C35 C36 1.374 . S
C36 H27 0.930 . S
C36 C35 1.374 . S
C36 C37 1.383 . S
C37 O31 1.412 . S
C37 C36 1.383 . S
C37 C38 1.394 . S
C38 H28 0.929 . S
C38 C34 1.377 . S
C38 C37 1.394 . S
H39 C46 0.929 . S
H40 C49 0.930 . S
H41 C51 0.929 . S
H42 C43 0.969 . S
C43 H42 0.969 . S
C43 O44 1.550 . S
C43 H45 0.973 . S
O44 C43 1.550 . S
O44 C50 1.412 . S
H45 C43 0.973 . S
C46 H39 0.929 . S
C46 C47 1.400 . S
C46 C48 1.364 . S
C47 C46 1.400 . S
C47 C51 1.377 . S
C48 C46 1.364 . S
C48 C49 1.374 . S
C49 H40 0.930 . S
C49 C48 1.374 . S
C49 C50 1.383 . S
C50 O44 1.412 . S
C50 C49 1.383 . S
C50 C51 1.394 . S
C51 H41 0.929 . S
C51 C47 1.377 . S
C51 C50 1.394 . S
H52 C59 0.929 . S
H53 C62 0.930 . S
H54 C64 0.929 . S
H55 C56 0.969 . S
C56 H55 0.969 . S
C56 O57 1.550 . S
C56 H58 0.973 . S
O57 C56 1.550 . S
O57 C63 1.412 . S
H58 C56 0.973 . S
C59 H52 0.929 . S
C59 C60 1.400 . S
C59 C61 1.364 . S
C60 C59 1.400 . S
C60 C64 1.377 . S
C61 C59 1.364 . S
C61 C62 1.374 . S
C62 H53 0.930 . S
C62 C61 1.374 . S
C62 C63 1.383 . S
C63 O57 1.412 . S
C63 C62 1.383 . S
C63 C64 1.394 . S
C64 H54 0.929 . S
C64 C60 1.377 . S
C64 C63 1.394 . S
H65 C72 0.929 . S
H66 C75 0.930 . S
H67 C77 0.929 . S
H68 C69 0.969 . S
C69 H68 0.969 . S
C69 O70 1.550 . S
C69 H71 0.973 . S
O70 C69 1.550 . S
O70 C76 1.412 . S
H71 C69 0.973 . S
C72 H65 0.929 . S
C72 C73 1.400 . S
C72 C74 1.364 . S
C73 C72 1.400 . S
C73 C77 1.377 . S
C74 C72 1.364 . S
C74 C75 1.374 . S
C75 H66 0.930 . S
C75 C74 1.374 . S
C75 C76 1.383 . S
C76 O70 1.412 . S
C76 C75 1.383 . S
C76 C77 1.394 . S
C77 H67 0.929 . S
C77 C73 1.377 . S
C77 C76 1.394 . S
H78 C85 0.929 . S
H79 C88 0.930 . S
H80 C90 0.929 . S
H81 C82 0.969 . S
C82 H81 0.969 . S
C82 O83 1.550 . S
C82 H84 0.973 . S
O83 C82 1.550 . S
O83 C89 1.412 . S
H84 C82 0.973 . S
C85 H78 0.929 . S
C85 C86 1.400 . S
C85 C87 1.364 . S
C86 C85 1.400 . S
C86 C90 1.377 . S
C87 C85 1.364 . S
C87 C88 1.374 . S
C88 H79 0.930 . S
C88 C87 1.374 . S
C88 C89 1.383 . S
C89 O83 1.412 . S
C89 C88 1.383 . S
C89 C90 1.394 . S
C90 H80 0.929 . S
C90 C86 1.377 . S
C90 C89 1.394 . S
H91 C98 0.929 . S
H92 C101 0.930 . S
H93 C103 0.929 . S
H94 C95 0.969 . S
C95 H94 0.969 . S
C95 O96 1.550 . S
C95 H97 0.973 . S
O96 C95 1.550 . S
O96 C102 1.412 . S
H97 C95 0.973 . S
C98 H91 0.929 . S
C98 C99 1.400 . S
C98 C100 1.364 . S
C99 C98 1.400 . S
C99 C103 1.377 . S
C100 C98 1.364 . S
C100 C101 1.374 . S
C101 H92 0.930 . S
C101 C100 1.374 . S
C101 C102 1.383 . S
C102 O96 1.412 . S
C102 C101 1.383 . S
C102 C103 1.394 . S
C103 H93 0.929 . S
C103 C99 1.377 . S
C103 C102 1.394 . S
Pr104 C106 2.880 . S
Pr104 O124 2.562 . S
Pr104 O125 2.490 . S
Pr104 O126 2.695 1_665 S
Pr104 O127 2.512 1_665 S
Pr104 O129 2.437 1_655 S
Pr104 O132 2.436 . S
Pr104 O134 2.438 1_565 S
Pr105 C115 2.880 . S
Pr105 O126 2.436 . S
Pr105 O128 2.438 1_545 S
Pr105 O130 2.562 . S
Pr105 O131 2.490 . S
Pr105 O132 2.695 1_445 S
Pr105 O133 2.512 1_545 S
Pr105 O135 2.437 . S
C106 Pr104 2.880 . S
C106 C107 1.491 . S
C106 O124 1.254 . S
C106 O125 1.225 . S
C107 C106 1.491 . S
C107 C108 1.392 . S
C107 C112 1.356 . S
C108 C107 1.392 . S
C108 C109 1.368 . S
C108 H136 0.929 . S
C109 C108 1.368 . S
C109 C110 1.386 . S
C109 H137 0.929 . S
C110 C109 1.386 . S
C110 C111 1.373 . S
C111 C110 1.373 . S
C111 C112 1.409 . S
C111 H138 0.931 . S
C112 C107 1.356 . S
C112 C111 1.409 . S
C112 H139 0.930 . S
C113 O126 1.270 . S
C113 O127 1.248 . S
C114 O128 1.267 . S
C114 O129 1.278 . S
C115 Pr105 2.880 . S
C115 C116 1.491 . S
C115 O130 1.254 . S
C115 O131 1.225 . S
C116 C115 1.491 . S
C116 C117 1.392 . S
C116 C121 1.356 . S
C117 C116 1.392 . S
C117 C118 1.368 . S
C117 H140 0.929 . S
C118 C117 1.368 . S
C118 C119 1.386 . S
C118 H141 0.929 . S
C119 C118 1.386 . S
C119 C120 1.373 . S
C120 C119 1.373 . S
C120 C121 1.409 . S
C120 H142 0.931 . S
C121 C116 1.356 . S
C121 C120 1.409 . S
C121 H143 0.930 . S
C122 O132 1.270 . S
C122 O133 1.248 1_655 S
C123 O134 1.267 . S
C123 O135 1.278 1_655 S
O124 Pr104 2.562 . S
O124 C106 1.254 . S
O125 Pr104 2.490 . S
O125 C106 1.225 . S
O126 Pr104 2.695 1_445 S
O126 Pr105 2.436 . S
O126 C113 1.270 . S
O127 Pr104 2.512 1_445 S
O127 C113 1.248 . S
O128 Pr105 2.438 1_565 S
O128 C114 1.267 . S
O129 Pr104 2.437 1_455 S
O129 C114 1.278 . S
O130 Pr105 2.562 . S
O130 C115 1.254 . S
O131 Pr105 2.490 . S
O131 C115 1.225 . S
O132 Pr104 2.436 . S
O132 Pr105 2.695 1_665 S
O132 C122 1.270 . S
O133 Pr105 2.512 1_565 S
O133 C122 1.248 1_455 S
O134 Pr104 2.438 1_545 S
O134 C123 1.267 . S
O135 Pr105 2.437 . S
O135 C123 1.278 1_455 S
H136 C108 0.929 . S
H137 C109 0.929 . S
H138 C111 0.931 . S
H139 C112 0.930 . S
H140 C117 0.929 . S
H141 C118 0.929 . S
H142 C120 0.931 . S
H143 C121 0.930 . S
Pr144 C146 2.880 . S
Pr144 O164 2.562 . S
Pr144 O165 2.490 . S
Pr144 O166 2.695 1_554 S
Pr144 O167 2.512 1_554 S
Pr144 O169 2.437 . S
Pr144 O172 2.436 1_545 S
Pr144 O174 2.438 1_544 S
Pr145 C155 2.880 1_554 S
Pr145 O166 2.436 1_564 S
Pr145 O168 2.438 1_565 S
Pr145 O170 2.562 1_554 S
Pr145 O171 2.490 1_554 S
Pr145 O172 2.695 . S
Pr145 O173 2.512 . S
Pr145 O175 2.437 1_554 S
C146 Pr144 2.880 . S
C146 C147 1.491 . S
C146 O164 1.254 . S
C146 O165 1.225 . S
C147 C146 1.491 . S
C147 C148 1.392 . S
C147 C152 1.356 . S
C148 C147 1.392 . S
C148 C149 1.368 . S
C148 H176 0.929 . S
C149 C148 1.368 . S
C149 C150 1.386 . S
C149 H177 0.929 . S
C150 C149 1.386 . S
C150 C151 1.373 . S
C151 C150 1.373 . S
C151 C152 1.409 . S
C151 H178 0.931 . S
C152 C147 1.356 . S
C152 C151 1.409 . S
C152 H179 0.930 . S
C153 O166 1.270 . S
C153 O167 1.248 . S
C154 O168 1.267 . S
C154 O169 1.278 . S
C155 Pr145 2.880 1_556 S
C155 C156 1.491 . S
C155 O170 1.254 . S
C155 O171 1.225 . S
C156 C155 1.491 . S
C156 C157 1.392 . S
C156 C161 1.356 . S
C157 C156 1.392 . S
C157 C158 1.368 . S
C157 H180 0.929 . S
C158 C157 1.368 . S
C158 C159 1.386 . S
C158 H181 0.929 . S
C159 C158 1.386 . S
C159 C160 1.373 . S
C160 C159 1.373 . S
C160 C161 1.409 . S
C160 H182 0.931 . S
C161 C156 1.356 . S
C161 C160 1.409 . S
C161 H183 0.930 . S
C162 O172 1.270 . S
C162 O173 1.248 . S
C163 O174 1.267 . S
C163 O175 1.278 . S
O164 Pr144 2.562 . S
O164 C146 1.254 . S
O165 Pr144 2.490 . S
O165 C146 1.225 . S
O166 Pr144 2.695 1_556 S
O166 Pr145 2.436 1_546 S
O166 C153 1.270 . S
O167 Pr144 2.512 1_556 S
O167 C153 1.248 . S
O168 Pr145 2.438 1_545 S
O168 C154 1.267 . S
O169 Pr144 2.437 . S
O169 C154 1.278 . S
O170 Pr145 2.562 1_556 S
O170 C155 1.254 . S
O171 Pr145 2.490 1_556 S
O171 C155 1.225 . S
O172 Pr144 2.436 1_565 S
O172 Pr145 2.695 . S
O172 C162 1.270 . S
O173 Pr145 2.512 . S
O173 C162 1.248 . S
O174 Pr144 2.438 1_566 S
O174 C163 1.267 . S
O175 Pr145 2.437 1_556 S
O175 C163 1.278 . S
H176 C148 0.929 . S
H177 C149 0.929 . S
H178 C151 0.931 . S
H179 C152 0.930 . S
H180 C157 0.929 . S
H181 C158 0.929 . S
H182 C160 0.931 . S
H183 C161 0.930 . S
Pr184 C186 2.880 . S
Pr184 O204 2.562 . S
Pr184 O205 2.490 . S
Pr184 O206 2.695 . S
Pr184 O207 2.512 . S
Pr184 O209 2.437 . S
Pr184 O212 2.436 . S
Pr184 O214 2.438 . S
Pr185 C195 2.880 . S
Pr185 O206 2.436 . S
Pr185 O208 2.438 . S
Pr185 O210 2.562 . S
Pr185 O211 2.490 . S
Pr185 O212 2.695 . S
Pr185 O213 2.512 . S
Pr185 O215 2.437 . S
C186 Pr184 2.880 . S
C186 C187 1.491 . S
C186 O204 1.254 . S
C186 O205 1.225 . S
C187 C186 1.491 . S
C187 C188 1.392 . S
C187 C192 1.356 . S
C188 C187 1.392 . S
C188 C189 1.368 . S
C188 H216 0.929 . S
C189 C188 1.368 . S
C189 C190 1.386 . S
C189 H217 0.929 . S
C190 C189 1.386 . S
C190 C191 1.373 . S
C191 C190 1.373 . S
C191 C192 1.409 . S
C191 H218 0.931 . S
C192 C187 1.356 . S
C192 C191 1.409 . S
C192 H219 0.930 . S
C193 O206 1.270 . S
C193 O207 1.248 . S
C194 O208 1.267 . S
C194 O209 1.278 . S
C195 Pr185 2.880 . S
C195 C196 1.491 . S
C195 O210 1.254 . S
C195 O211 1.225 . S
C196 C195 1.491 . S
C196 C197 1.392 . S
C196 C201 1.356 . S
C197 C196 1.392 . S
C197 C198 1.368 . S
C197 H220 0.929 . S
C198 C197 1.368 . S
C198 C199 1.386 . S
C198 H221 0.929 . S
C199 C198 1.386 . S
C199 C200 1.373 . S
C200 C199 1.373 . S
C200 C201 1.409 . S
C200 H222 0.931 . S
C201 C196 1.356 . S
C201 C200 1.409 . S
C201 H223 0.930 . S
C202 O212 1.270 . S
C202 O213 1.248 . S
C203 O214 1.267 . S
C203 O215 1.278 . S
O204 Pr184 2.562 . S
O204 C186 1.254 . S
O205 Pr184 2.490 . S
O205 C186 1.225 . S
O206 Pr184 2.695 . S
O206 Pr185 2.436 . S
O206 C193 1.270 . S
O207 Pr184 2.512 . S
O207 C193 1.248 . S
O208 Pr185 2.438 . S
O208 C194 1.267 . S
O209 Pr184 2.437 . S
O209 C194 1.278 . S
O210 Pr185 2.562 . S
O210 C195 1.254 . S
O211 Pr185 2.490 . S
O211 C195 1.225 . S
O212 Pr184 2.436 . S
O212 Pr185 2.695 . S
O212 C202 1.270 . S
O213 Pr185 2.512 . S
O213 C202 1.248 . S
O214 Pr184 2.438 . S
O214 C203 1.267 . S
O215 Pr185 2.437 . S
O215 C203 1.278 . S
H216 C188 0.929 . S
H217 C189 0.929 . S
H218 C191 0.931 . S
H219 C192 0.930 . S
H220 C197 0.929 . S
H221 C198 0.929 . S
H222 C200 0.931 . S
H223 C201 0.930 . S
Pr224 C226 2.880 . S
Pr224 O244 2.562 . S
Pr224 O245 2.490 . S
Pr224 O246 2.696 1_656 S
Pr224 O247 2.513 1_656 S
Pr224 O249 2.438 1_556 S
Pr224 O252 2.436 1_556 S
Pr224 O254 2.438 1_655 S
Pr225 C235 2.880 . S
Pr225 O246 2.436 . S
Pr225 O248 2.438 1_455 S
Pr225 O250 2.562 . S
Pr225 O251 2.490 . S
Pr225 O252 2.695 1_455 S
Pr225 O253 2.512 1_455 S
Pr225 O255 2.437 . S
C226 Pr224 2.880 . S
C226 C227 1.491 . S
C226 O244 1.254 . S
C226 O245 1.225 . S
C227 C226 1.491 . S
C227 C228 1.392 . S
C227 C232 1.356 . S
C228 C227 1.392 . S
C228 C229 1.368 . S
C228 H256 0.929 . S
C229 C228 1.368 . S
C229 C230 1.386 . S
C229 H257 0.929 . S
C230 C229 1.386 . S
C230 C231 1.373 . S
C231 C230 1.373 . S
C231 C232 1.409 . S
C231 H258 0.931 . S
C232 C227 1.356 . S
C232 C231 1.409 . S
C232 H259 0.930 . S
C233 O246 1.270 . S
C233 O247 1.248 . S
C234 O248 1.267 . S
C234 O249 1.278 . S
C235 Pr225 2.880 . S
C235 C236 1.491 . S
C235 O250 1.254 . S
C235 O251 1.225 . S
C236 C235 1.491 . S
C236 C237 1.392 . S
C236 C241 1.356 . S
C237 C236 1.392 . S
C237 C238 1.368 . S
C237 H260 0.929 . S
C238 C237 1.368 . S
C238 C239 1.386 . S
C238 H261 0.929 . S
C239 C238 1.386 . S
C239 C240 1.373 . S
C240 C239 1.373 . S
C240 C241 1.409 . S
C240 H262 0.931 . S
C241 C236 1.356 . S
C241 C240 1.409 . S
C241 H263 0.930 . S
C242 O252 1.270 . S
C242 O253 1.248 . S
C243 O254 1.267 . S
C243 O255 1.278 1_556 S
O244 Pr224 2.562 . S
O244 C226 1.254 . S
O245 Pr224 2.490 . S
O245 C226 1.225 . S
O246 Pr224 2.696 1_454 S
O246 Pr225 2.436 . S
O246 C233 1.270 . S
O247 Pr224 2.513 1_454 S
O247 C233 1.248 . S
O248 Pr225 2.438 1_655 S
O248 C234 1.267 . S
O249 Pr224 2.438 1_554 S
O249 C234 1.278 . S
O250 Pr225 2.562 . S
O250 C235 1.254 . S
O251 Pr225 2.490 . S
O251 C235 1.225 . S
O252 Pr224 2.436 1_554 S
O252 Pr225 2.695 1_655 S
O252 C242 1.270 . S
O253 Pr225 2.512 1_655 S
O253 C242 1.248 . S
O254 Pr224 2.438 1_455 S
O254 C243 1.267 . S
O255 Pr225 2.437 . S
O255 C243 1.278 1_554 S
H256 C228 0.929 . S
H257 C229 0.929 . S
H258 C231 0.931 . S
H259 C232 0.930 . S
H260 C237 0.929 . S
H261 C238 0.929 . S
H262 C240 0.931 . S
H263 C241 0.930 . S
C264 C265 1.369 . S
C264 C266 1.419 . S
C264 H268 0.930 . S
C265 C264 1.369 . S
C265 C274 1.429 . S
C266 C264 1.419 . S
C266 C267 1.363 . S
C266 H269 0.929 . S
C267 C266 1.363 . S
C267 C273 1.428 . S
H268 C264 0.930 . S
H269 C266 0.929 . S
S270 N271 1.613 . S
S270 N272 1.610 . S
N271 S270 1.613 . S
N271 C274 1.350 . S
N272 S270 1.610 . S
N272 C273 1.351 . S
C273 C267 1.428 . S
C273 N272 1.351 . S
C273 C274 1.434 . S
C274 C265 1.429 . S
C274 N271 1.350 . S
C274 C273 1.434 . S
C275 C276 1.369 . S
C275 C277 1.419 . S
C275 H279 0.930 . S
C276 C275 1.369 . S
C276 C285 1.429 . S
C277 C275 1.419 . S
C277 C278 1.363 . S
C277 H280 0.929 . S
C278 C277 1.363 . S
C278 C284 1.428 . S
H279 C275 0.930 . S
H280 C277 0.929 . S
S281 N282 1.613 . S
S281 N283 1.610 . S
N282 S281 1.613 . S
N282 C285 1.350 . S
N283 S281 1.610 . S
N283 C284 1.351 . S
C284 C278 1.428 . S
C284 N283 1.351 . S
C284 C285 1.434 . S
C285 C276 1.429 . S
C285 N282 1.350 . S
C285 C284 1.434 . S
C286 C287 1.369 . S
C286 C288 1.419 . S
C286 H290 0.930 . S
C287 C286 1.369 . S
C287 C296 1.429 . S
C288 C286 1.419 . S
C288 C289 1.363 . S
C288 H291 0.929 . S
C289 C288 1.363 . S
C289 C295 1.428 . S
H290 C286 0.930 . S
H291 C288 0.929 . S
S292 N293 1.613 . S
S292 N294 1.610 . S
N293 S292 1.613 . S
N293 C296 1.350 . S
N294 S292 1.610 . S
N294 C295 1.351 . S
C295 C289 1.428 . S
C295 N294 1.351 . S
C295 C296 1.434 . S
C296 C287 1.429 . S
C296 N293 1.350 . S
C296 C295 1.434 . S
C297 C298 1.369 . S
C297 C299 1.419 . S
C297 H301 0.930 . S
C298 C297 1.369 . S
C298 C307 1.429 . S
C299 C297 1.419 . S
C299 C300 1.363 . S
C299 H302 0.929 . S
C300 C299 1.363 . S
C300 C306 1.428 . S
H301 C297 0.930 . S
H302 C299 0.929 . S
S303 N304 1.613 . S
S303 N305 1.610 . S
N304 S303 1.613 . S
N304 C307 1.350 . S
N305 S303 1.610 . S
N305 C306 1.351 . S
C306 C300 1.428 . S
C306 N305 1.351 . S
C306 C307 1.434 . S
C307 C298 1.429 . S
C307 N304 1.350 . S
C307 C306 1.434 . S
C308 C309 1.369 . S
C308 C310 1.419 . S
C308 H312 0.930 . S
C309 C308 1.369 . S
C309 C318 1.429 . S
C310 C308 1.419 . S
C310 C311 1.363 . S
C310 H313 0.929 . S
C311 C310 1.363 . S
C311 C317 1.428 . S
H312 C308 0.930 . S
H313 C310 0.929 . S
S314 N315 1.613 . S
S314 N316 1.610 . S
N315 S314 1.613 . S
N315 C318 1.350 . S
N316 S314 1.610 . S
N316 C317 1.351 . S
C317 C311 1.428 . S
C317 N316 1.351 . S
C317 C318 1.434 . S
C318 C309 1.429 . S
C318 N315 1.350 . S
C318 C317 1.434 . S
C319 C320 1.369 . S
C319 C321 1.419 . S
C319 H323 0.930 . S
C320 C319 1.369 . S
C320 C329 1.429 . S
C321 C319 1.419 . S
C321 C322 1.363 . S
C321 H324 0.929 . S
C322 C321 1.363 . S
C322 C328 1.428 . S
H323 C319 0.930 . S
H324 C321 0.929 . S
S325 N326 1.613 . S
S325 N327 1.610 . S
N326 S325 1.613 . S
N326 C329 1.350 . S
N327 S325 1.610 . S
N327 C328 1.351 . S
C328 C322 1.428 . S
C328 N327 1.351 . S
C328 C329 1.434 . S
C329 C320 1.429 . S
C329 N326 1.350 . S
C329 C328 1.434 . S
C330 C331 1.369 . S
C330 C332 1.419 . S
C330 H334 0.930 . S
C331 C330 1.369 . S
C331 C340 1.429 . S
C332 C330 1.419 . S
C332 C333 1.363 . S
C332 H335 0.929 . S
C333 C332 1.363 . S
C333 C339 1.428 . S
H334 C330 0.930 . S
H335 C332 0.929 . S
S336 N337 1.613 . S
S336 N338 1.610 . S
N337 S336 1.613 . S
N337 C340 1.350 . S
N338 S336 1.610 . S
N338 C339 1.351 . S
C339 C333 1.428 . S
C339 N338 1.351 . S
C339 C340 1.434 . S
C340 C331 1.429 . S
C340 N337 1.350 . S
C340 C339 1.434 . S
C341 C342 1.369 . S
C341 C343 1.419 . S
C341 H345 0.930 . S
C342 C341 1.369 . S
C342 C351 1.429 . S
C343 C341 1.419 . S
C343 C344 1.363 . S
C343 H346 0.929 . S
C344 C343 1.363 . S
C344 C350 1.428 . S
H345 C341 0.930 . S
H346 C343 0.929 . S
S347 N348 1.613 . S
S347 N349 1.610 . S
N348 S347 1.613 . S
N348 C351 1.350 . S
N349 S347 1.610 . S
N349 C350 1.351 . S
C350 C344 1.428 . S
C350 N349 1.351 . S
C350 C351 1.434 . S
C351 C342 1.429 . S
C351 N348 1.350 . S
C351 C350 1.434 . S
C352 C353 1.369 . S
C352 C354 1.419 . S
C352 H356 0.930 . S
C353 C352 1.369 . S
C353 C362 1.429 . S
C354 C352 1.419 . S
C354 C355 1.363 . S
C354 H357 0.929 . S
C355 C354 1.363 . S
C355 C361 1.428 . S
H356 C352 0.930 . S
H357 C354 0.929 . S
S358 N359 1.613 . S
S358 N360 1.610 . S
N359 S358 1.613 . S
N359 C362 1.350 . S
N360 S358 1.610 . S
N360 C361 1.351 . S
C361 C355 1.428 . S
C361 N360 1.351 . S
C361 C362 1.434 . S
C362 C353 1.429 . S
C362 N359 1.350 . S
C362 C361 1.434 . S
C363 C364 1.369 . S
C363 C365 1.419 . S
C363 H367 0.930 . S
C364 C363 1.369 . S
C364 C373 1.429 . S
C365 C363 1.419 . S
C365 C366 1.363 . S
C365 H368 0.929 . S
C366 C365 1.363 . S
C366 C372 1.428 . S
H367 C363 0.930 . S
H368 C365 0.929 . S
S369 N370 1.613 . S
S369 N371 1.610 . S
N370 S369 1.613 . S
N370 C373 1.350 . S
N371 S369 1.610 . S
N371 C372 1.351 . S
C372 C366 1.428 . S
C372 N371 1.351 . S
C372 C373 1.434 . S
C373 C364 1.429 . S
C373 N370 1.350 . S
C373 C372 1.434 . S
C374 C375 1.369 . S
C374 C376 1.419 . S
C374 H378 0.930 . S
C375 C374 1.369 . S
C375 C384 1.429 . S
C376 C374 1.419 . S
C376 C377 1.363 . S
C376 H379 0.929 . S
C377 C376 1.363 . S
C377 C383 1.428 . S
H378 C374 0.930 . S
H379 C376 0.929 . S
S380 N381 1.613 1_455 S
S380 N382 1.610 1_455 S
N381 S380 1.613 1_655 S
N381 C384 1.350 . S
N382 S380 1.610 1_655 S
N382 C383 1.351 . S
C383 C377 1.428 . S
C383 N382 1.351 . S
C383 C384 1.434 . S
C384 C375 1.429 . S
C384 N381 1.350 . S
C384 C383 1.434 . S
C385 C386 1.369 . S
C385 C387 1.419 . S
C385 H389 0.930 . S
C386 C385 1.369 . S
C386 C395 1.429 . S
C387 C385 1.419 . S
C387 C388 1.363 . S
C387 H390 0.929 . S
C388 C387 1.363 . S
C388 C394 1.428 . S
H389 C385 0.930 . S
H390 C387 0.929 . S
S391 N392 1.613 . S
S391 N393 1.610 . S
N392 S391 1.613 . S
N392 C395 1.350 . S
N393 S391 1.610 . S
N393 C394 1.351 . S
C394 C388 1.428 . S
C394 N393 1.351 . S
C394 C395 1.434 . S
C395 C386 1.429 . S
C395 N392 1.350 . S
C395 C394 1.434 . S
C396 C397 1.369 . S
C396 C398 1.419 . S
C396 H400 0.930 . S
C397 C396 1.369 . S
C397 C406 1.429 . S
C398 C396 1.419 . S
C398 C399 1.363 . S
C398 H401 0.929 . S
C399 C398 1.363 . S
C399 C405 1.428 . S
H400 C396 0.930 . S
H401 C398 0.929 . S
S402 N403 1.613 . S
S402 N404 1.610 . S
N403 S402 1.613 . S
N403 C406 1.350 . S
N404 S402 1.610 . S
N404 C405 1.351 . S
C405 C399 1.428 . S
C405 N404 1.351 . S
C405 C406 1.434 . S
C406 C397 1.429 . S
C406 N403 1.350 . S
C406 C405 1.434 . S
C407 C408 1.369 . S
C407 C409 1.419 . S
C407 H411 0.930 . S
C408 C407 1.369 . S
C408 C417 1.429 . S
C409 C407 1.419 . S
C409 C410 1.363 . S
C409 H412 0.929 . S
C410 C409 1.363 . S
C410 C416 1.428 . S
H411 C407 0.930 . S
H412 C409 0.929 . S
S413 N414 1.613 . S
S413 N415 1.610 . S
N414 S413 1.613 . S
N414 C417 1.350 . S
N415 S413 1.610 . S
N415 C416 1.351 . S
C416 C410 1.428 . S
C416 N415 1.351 . S
C416 C417 1.434 . S
C417 C408 1.429 . S
C417 N414 1.350 . S
C417 C416 1.434 . S
C418 C419 1.369 . S
C418 C420 1.419 . S
C418 H422 0.930 . S
C419 C418 1.369 . S
C419 C428 1.429 . S
C420 C418 1.419 . S
C420 C421 1.363 . S
C420 H423 0.929 . S
C421 C420 1.363 . S
C421 C427 1.428 . S
H422 C418 0.930 . S
H423 C420 0.929 . S
S424 N425 1.613 . S
S424 N426 1.610 . S
N425 S424 1.613 . S
N425 C428 1.350 . S
N426 S424 1.610 . S
N426 C427 1.351 . S
C427 C421 1.428 . S
C427 N426 1.351 . S
C427 C428 1.434 . S
C428 C419 1.429 . S
C428 N425 1.350 . S
C428 C427 1.434 . S
C429 C430 1.369 . S
C429 C431 1.419 . S
C429 H433 0.930 . S
C430 C429 1.369 . S
C430 C439 1.429 . S
C431 C429 1.419 . S
C431 C432 1.363 . S
C431 H434 0.929 . S
C432 C431 1.363 . S
C432 C438 1.428 . S
H433 C429 0.930 . S
H434 C431 0.929 . S
S435 N436 1.613 . S
S435 N437 1.610 . S
N436 S435 1.613 . S
N436 C439 1.350 . S
N437 S435 1.610 . S
N437 C438 1.351 . S
C438 C432 1.428 . S
C438 N437 1.351 . S
C438 C439 1.434 . S
C439 C430 1.429 . S
C439 N436 1.350 . S
C439 C438 1.434 . S
C440 C441 1.369 . S
C440 C442 1.419 . S
C440 H444 0.930 . S
C441 C440 1.369 . S
C441 C450 1.429 . S
C442 C440 1.419 . S
C442 C443 1.363 . S
C442 H445 0.929 . S
C443 C442 1.363 . S
C443 C449 1.428 . S
H444 C440 0.930 . S
H445 C442 0.929 . S
S446 N447 1.613 . S
S446 N448 1.610 . S
N447 S446 1.613 . S
N447 C450 1.350 . S
N448 S446 1.610 . S
N448 C449 1.351 . S
C449 C443 1.428 . S
C449 N448 1.351 . S
C449 C450 1.434 . S
C450 C441 1.429 . S
C450 N447 1.350 . S
C450 C449 1.434 . S
C451 C452 1.369 . S
C451 C453 1.419 . S
C451 H455 0.930 . S
C452 C451 1.369 . S
C452 C461 1.429 . S
C453 C451 1.419 . S
C453 C454 1.363 . S
C453 H456 0.929 . S
C454 C453 1.363 . S
C454 C460 1.428 . S
H455 C451 0.930 . S
H456 C453 0.929 . S
S457 N458 1.613 . S
S457 N459 1.610 . S
N458 S457 1.613 . S
N458 C461 1.350 1_455 S
N459 S457 1.610 . S
N459 C460 1.351 1_455 S
C460 C454 1.428 . S
C460 N459 1.351 1_655 S
C460 C461 1.434 . S
C461 C452 1.429 . S
C461 N458 1.350 1_655 S
C461 C460 1.434 . S
C462 C463 1.369 . S
C462 C464 1.419 . S
C462 H466 0.930 . S
C463 C462 1.369 . S
C463 C472 1.429 . S
C464 C462 1.419 . S
C464 C465 1.363 . S
C464 H467 0.929 . S
C465 C464 1.363 . S
C465 C471 1.428 . S
H466 C462 0.930 . S
H467 C464 0.929 . S
S468 N469 1.613 . S
S468 N470 1.610 . S
N469 S468 1.613 . S
N469 C472 1.350 . S
N470 S468 1.610 . S
N470 C471 1.351 . S
C471 C465 1.428 . S
C471 N470 1.351 . S
C471 C472 1.434 . S
C472 C463 1.429 . S
C472 N469 1.350 . S
C472 C471 1.434 . S
C473 C474 1.369 . S
C473 C475 1.419 . S
C473 H477 0.930 . S
C474 C473 1.369 . S
C474 C483 1.429 . S
C475 C473 1.419 . S
C475 C476 1.363 . S
C475 H478 0.929 . S
C476 C475 1.363 . S
C476 C482 1.428 . S
H477 C473 0.930 . S
H478 C475 0.929 . S
S479 N480 1.613 . S
S479 N481 1.610 . S
N480 S479 1.613 . S
N480 C483 1.350 . S
N481 S479 1.610 . S
N481 C482 1.351 . S
C482 C476 1.428 . S
C482 N481 1.351 . S
C482 C483 1.434 . S
C483 C474 1.429 . S
C483 N480 1.350 . S
C483 C482 1.434 . S
C484 C485 1.369 . S
C484 C486 1.419 . S
C484 H488 0.930 . S
C485 C484 1.369 . S
C485 C494 1.429 . S
C486 C484 1.419 . S
C486 C487 1.363 . S
C486 H489 0.929 . S
C487 C486 1.363 . S
C487 C493 1.428 . S
H488 C484 0.930 . S
H489 C486 0.929 . S
S490 N491 1.613 . S
S490 N492 1.610 . S
N491 S490 1.613 . S
N491 C494 1.350 . S
N492 S490 1.610 . S
N492 C493 1.351 . S
C493 C487 1.428 . S
C493 N492 1.351 . S
C493 C494 1.434 . S
C494 C485 1.429 . S
C494 N491 1.350 . S
C494 C493 1.434 . S
C495 C496 1.369 . S
C495 C497 1.419 . S
C495 H499 0.930 . S
C496 C495 1.369 . S
C496 C505 1.429 . S
C497 C495 1.419 . S
C497 C498 1.363 . S
C497 H500 0.929 . S
C498 C497 1.363 . S
C498 C504 1.428 . S
H499 C495 0.930 . S
H500 C497 0.929 . S
S501 N502 1.613 . S
S501 N503 1.610 . S
N502 S501 1.613 . S
N502 C505 1.350 . S
N503 S501 1.610 . S
N503 C504 1.351 . S
C504 C498 1.428 . S
C504 N503 1.351 . S
C504 C505 1.434 . S
C505 C496 1.429 . S
C505 N502 1.350 . S
C505 C504 1.434 . S
C506 C507 1.369 . S
C506 C508 1.419 . S
C506 H510 0.930 . S
C507 C506 1.369 . S
C507 C516 1.429 . S
C508 C506 1.419 . S
C508 C509 1.363 . S
C508 H511 0.929 . S
C509 C508 1.363 . S
C509 C515 1.428 . S
H510 C506 0.930 . S
H511 C508 0.929 . S
S512 N513 1.613 . S
S512 N514 1.610 . S
N513 S512 1.613 . S
N513 C516 1.350 . S
N514 S512 1.610 . S
N514 C515 1.351 . S
C515 C509 1.428 . S
C515 N514 1.351 . S
C515 C516 1.434 . S
C516 C507 1.429 . S
C516 N513 1.350 . S
C516 C515 1.434 . S
C517 C518 1.369 . S
C517 C519 1.419 . S
C517 H521 0.930 . S
C518 C517 1.369 . S
C518 C527 1.429 . S
C519 C517 1.419 . S
C519 C520 1.363 . S
C519 H522 0.929 . S
C520 C519 1.363 . S
C520 C526 1.428 . S
H521 C517 0.930 . S
H522 C519 0.929 . S
S523 N524 1.613 . S
S523 N525 1.610 . S
N524 S523 1.613 . S
N524 C527 1.350 . S
N525 S523 1.610 . S
N525 C526 1.351 . S
C526 C520 1.428 . S
C526 N525 1.351 . S
C526 C527 1.434 . S
C527 C518 1.429 . S
C527 N524 1.350 . S
C527 C526 1.434 . S
C265 C9 1.395 . S
C267 C119 1.490 . S
C276 C21 1.437 . S
C278 C163 1.485 . S
C289 C193 2.252 . S
C287 C30 2.207 . S
C298 C43 2.524 . S
C300 C234 2.546 . S
C311 C150 0.951 . S
C309 C4 0.834 . S
C322 C114 2.774 . S
C320 C22 2.728 . S
C333 C242 1.015 1_556 S
C331 C34 0.984 . S
C344 C203 2.084 . S
C342 C48 2.139 . S
C353 C8 1.735 . S
C355 C239 1.831 . S
C366 C153 1.846 . S
C364 C35 1.856 . S
C375 C47 2.116 . S
C377 C122 2.050 . S
C386 C17 2.300 . S
C388 C190 2.228 . S
C399 C110 1.102 . S
C397 C60 1.051 . S
C408 C74 1.345 . S
C410 C154 1.378 . S
C419 C82 1.669 . S
C421 C202 1.934 . S
C430 C100 2.988 . S
C432 C243 2.936 . S
C441 C61 1.270 . S
C443 C159 1.383 . S
C454 C123 2.210 . S
C452 C73 2.154 . S
C465 C233 1.399 . S
C463 C87 1.445 . S
C476 C194 2.204 . S
C474 C95 2.351 . S
C485 C56 1.468 . S
C487 C230 1.462 . S
C498 C162 2.209 . S
C496 C86 2.252 . S
C509 C113 1.971 . S
C507 C99 2.006 . S
C518 C69 1.795 . S
C520 C199 1.991 . S
