# Generated by pormake.
# Topology ssc, (4,4)-cn, num edge types: 1
# Building blocks:
#     Node 0, Type 0, BuildingBlock: QUQFOY_clean_sbu_3, # of connection points: 4
#     Node 1, Type 0, BuildingBlock: QUQFOY_clean_sbu_3, # of connection points: 4
#     Node 2, Type 0, BuildingBlock: QUQFOY_clean_sbu_3, # of connection points: 4
#     Node 3, Type 0, BuildingBlock: QUQFOY_clean_sbu_3, # of connection points: 4
#     Node 4, Type 0, BuildingBlock: QUQFOY_clean_sbu_3, # of connection points: 4
#     Node 5, Type 0, BuildingBlock: QUQFOY_clean_sbu_3, # of connection points: 4
#     Node 6, Type 0, BuildingBlock: QUQFOY_clean_sbu_3, # of connection points: 4
#     Node 7, Type 0, BuildingBlock: QUQFOY_clean_sbu_3, # of connection points: 4
#     Node 8, Type 0, BuildingBlock: QUQFOY_clean_sbu_3, # of connection points: 4
#     Node 9, Type 0, BuildingBlock: QUQFOY_clean_sbu_3, # of connection points: 4
#     Node 10, Type 0, BuildingBlock: QUQFOY_clean_sbu_3, # of connection points: 4
#     Node 11, Type 0, BuildingBlock: QUQFOY_clean_sbu_3, # of connection points: 4
#     Node 12, Type 1, BuildingBlock: GIZVER_clean_linker_0, # of connection points: 4
#     Node 13, Type 1, BuildingBlock: GIZVER_clean_linker_0, # of connection points: 4
#     Node 14, Type 1, BuildingBlock: GIZVER_clean_linker_0, # of connection points: 4
#     Node 15, Type 1, BuildingBlock: GIZVER_clean_linker_0, # of connection points: 4
#     Node 16, Type 1, BuildingBlock: GIZVER_clean_linker_0, # of connection points: 4
#     Node 17, Type 1, BuildingBlock: GIZVER_clean_linker_0, # of connection points: 4
#     Node 18, Type 1, BuildingBlock: GIZVER_clean_linker_0, # of connection points: 4
#     Node 19, Type 1, BuildingBlock: GIZVER_clean_linker_0, # of connection points: 4
#     Node 20, Type 1, BuildingBlock: GIZVER_clean_linker_0, # of connection points: 4
#     Node 21, Type 1, BuildingBlock: GIZVER_clean_linker_0, # of connection points: 4
#     Node 22, Type 1, BuildingBlock: GIZVER_clean_linker_0, # of connection points: 4
#     Node 23, Type 1, BuildingBlock: GIZVER_clean_linker_0, # of connection points: 4
#     Edge 24, Type (0, 1), BuildingBlock: XUDNAN_clean_linker_2, # of connection points: 2
#     Edge 25, Type (0, 1), BuildingBlock: XUDNAN_clean_linker_2, # of connection points: 2
#     Edge 26, Type (0, 1), BuildingBlock: XUDNAN_clean_linker_2, # of connection points: 2
#     Edge 27, Type (0, 1), BuildingBlock: XUDNAN_clean_linker_2, # of connection points: 2
#     Edge 28, Type (0, 1), BuildingBlock: XUDNAN_clean_linker_2, # of connection points: 2
#     Edge 29, Type (0, 1), BuildingBlock: XUDNAN_clean_linker_2, # of connection points: 2
#     Edge 30, Type (0, 1), BuildingBlock: XUDNAN_clean_linker_2, # of connection points: 2
#     Edge 31, Type (0, 1), BuildingBlock: XUDNAN_clean_linker_2, # of connection points: 2
#     Edge 32, Type (0, 1), BuildingBlock: XUDNAN_clean_linker_2, # of connection points: 2
#     Edge 33, Type (0, 1), BuildingBlock: XUDNAN_clean_linker_2, # of connection points: 2
#     Edge 34, Type (0, 1), BuildingBlock: XUDNAN_clean_linker_2, # of connection points: 2
#     Edge 35, Type (0, 1), BuildingBlock: XUDNAN_clean_linker_2, # of connection points: 2
#     Edge 36, Type (0, 1), BuildingBlock: XUDNAN_clean_linker_2, # of connection points: 2
#     Edge 37, Type (0, 1), BuildingBlock: XUDNAN_clean_linker_2, # of connection points: 2
#     Edge 38, Type (0, 1), BuildingBlock: XUDNAN_clean_linker_2, # of connection points: 2
#     Edge 39, Type (0, 1), BuildingBlock: XUDNAN_clean_linker_2, # of connection points: 2
#     Edge 40, Type (0, 1), BuildingBlock: XUDNAN_clean_linker_2, # of connection points: 2
#     Edge 41, Type (0, 1), BuildingBlock: XUDNAN_clean_linker_2, # of connection points: 2
#     Edge 42, Type (0, 1), BuildingBlock: XUDNAN_clean_linker_2, # of connection points: 2
#     Edge 43, Type (0, 1), BuildingBlock: XUDNAN_clean_linker_2, # of connection points: 2
#     Edge 44, Type (0, 1), BuildingBlock: XUDNAN_clean_linker_2, # of connection points: 2
#     Edge 45, Type (0, 1), BuildingBlock: XUDNAN_clean_linker_2, # of connection points: 2
#     Edge 46, Type (0, 1), BuildingBlock: XUDNAN_clean_linker_2, # of connection points: 2
#     Edge 47, Type (0, 1), BuildingBlock: XUDNAN_clean_linker_2, # of connection points: 2
#     Edge 48, Type (0, 1), BuildingBlock: XUDNAN_clean_linker_2, # of connection points: 2
#     Edge 49, Type (0, 1), BuildingBlock: XUDNAN_clean_linker_2, # of connection points: 2
#     Edge 50, Type (0, 1), BuildingBlock: XUDNAN_clean_linker_2, # of connection points: 2
#     Edge 51, Type (0, 1), BuildingBlock: XUDNAN_clean_linker_2, # of connection points: 2
#     Edge 52, Type (0, 1), BuildingBlock: XUDNAN_clean_linker_2, # of connection points: 2
#     Edge 53, Type (0, 1), BuildingBlock: XUDNAN_clean_linker_2, # of connection points: 2
#     Edge 54, Type (0, 1), BuildingBlock: XUDNAN_clean_linker_2, # of connection points: 2
#     Edge 55, Type (0, 1), BuildingBlock: XUDNAN_clean_linker_2, # of connection points: 2
#     Edge 56, Type (0, 1), BuildingBlock: XUDNAN_clean_linker_2, # of connection points: 2
#     Edge 57, Type (0, 1), BuildingBlock: XUDNAN_clean_linker_2, # of connection points: 2
#     Edge 58, Type (0, 1), BuildingBlock: XUDNAN_clean_linker_2, # of connection points: 2
#     Edge 59, Type (0, 1), BuildingBlock: XUDNAN_clean_linker_2, # of connection points: 2
#     Edge 60, Type (0, 1), BuildingBlock: XUDNAN_clean_linker_2, # of connection points: 2
#     Edge 61, Type (0, 1), BuildingBlock: XUDNAN_clean_linker_2, # of connection points: 2
#     Edge 62, Type (0, 1), BuildingBlock: XUDNAN_clean_linker_2, # of connection points: 2
#     Edge 63, Type (0, 1), BuildingBlock: XUDNAN_clean_linker_2, # of connection points: 2
#     Edge 64, Type (0, 1), BuildingBlock: XUDNAN_clean_linker_2, # of connection points: 2
#     Edge 65, Type (0, 1), BuildingBlock: XUDNAN_clean_linker_2, # of connection points: 2
#     Edge 66, Type (0, 1), BuildingBlock: XUDNAN_clean_linker_2, # of connection points: 2
#     Edge 67, Type (0, 1), BuildingBlock: XUDNAN_clean_linker_2, # of connection points: 2
#     Edge 68, Type (0, 1), BuildingBlock: XUDNAN_clean_linker_2, # of connection points: 2
#     Edge 69, Type (0, 1), BuildingBlock: XUDNAN_clean_linker_2, # of connection points: 2
#     Edge 70, Type (0, 1), BuildingBlock: XUDNAN_clean_linker_2, # of connection points: 2
#     Edge 71, Type (0, 1), BuildingBlock: XUDNAN_clean_linker_2, # of connection points: 2
# Relax obj value: 0.121
# Max RMSD: 0.300
# Mean RMSD: 0.278
data_MOF--net-ssc--node1-QUQFOY_clean_sbu_3--node2-GIZVER_clean_linker_0--edge1-XUDNAN_clean_linker_2
_symmetry_space_group_name_H-M    P1
_symmetry_Int_Tables_number       1
_symmetry_cell_setting            triclinic
loop_
_symmetry_equiv_pos_as_xyz
'x, y, z'
_cell_length_a     31.299593
_cell_length_b     31.464144
_cell_length_c     31.320817
_cell_angle_alpha  92.866707
_cell_angle_beta   90.221536
_cell_angle_gamma 91.252361
loop_
_atom_site_label
_atom_site_type_symbol
_atom_site_fract_x
_atom_site_fract_y
_atom_site_fract_z
_atom_type_partial_charge
C0 C 0.15525 0.31843 0.21032 0.0
O1 O 0.15777 0.27827 0.20973 0.0
Cd2 Cd 0.08996 0.24193 0.19867 0.0
O3 O 0.12109 0.33521 0.19793 0.0
Cd4 Cd 0.0525 0.3157 0.1633 0.0
C5 C 0.01957 0.30246 0.26136 0.0
O6 O 0.06203 0.24643 0.12674 0.0
O7 O -0.001 0.26042 0.15046 0.0
O8 O 0.07774 0.34618 0.09887 0.0
C9 C 0.02179 0.24249 0.12169 0.0
O10 O 0.04326 0.27015 0.25633 0.0
C11 C 0.04604 0.36939 0.09257 0.0
O12 O 0.01541 0.32806 0.23144 0.0
O13 O 0.01681 0.37008 0.1207 0.0
C14 C 0.06569 0.80872 0.37955 0.0
O15 O 0.06685 0.84714 0.36902 0.0
Cd16 Cd 0.01316 0.89362 0.39291 0.0
O17 O 0.03646 0.7951 0.40406 0.0
Cd18 Cd 0.97335 0.81466 0.44815 0.0
C19 C 0.92184 0.83532 0.35769 0.0
O20 O 0.01159 0.87979 0.46687 0.0
O21 O 0.94517 0.88028 0.48358 0.0
O22 O 0.00177 0.75572 0.48741 0.0
C23 C 0.98117 0.89953 0.48425 0.0
O24 O 0.94961 0.86518 0.3544 0.0
C25 C 0.9683 0.74837 0.50869 0.0
O26 O 0.92242 0.81068 0.38871 0.0
O27 O 0.93674 0.77205 0.5025 0.0
C28 C 0.51411 0.7259 0.76143 0.0
O29 O 0.4991 0.6923 0.77703 0.0
Cd30 Cd 0.44598 0.64874 0.73815 0.0
O31 O 0.49871 0.73898 0.72687 0.0
Cd32 Cd 0.43614 0.7156 0.68147 0.0
C33 C 0.36376 0.71044 0.75895 0.0
O34 O 0.46093 0.6438 0.66257 0.0
O35 O 0.39611 0.65605 0.64402 0.0
O36 O 0.47033 0.75057 0.62382 0.0
C37 C 0.42879 0.63313 0.63943 0.0
O38 O 0.37562 0.67216 0.76036 0.0
C39 C 0.43768 0.77024 0.61212 0.0
O40 O 0.38395 0.73605 0.7359 0.0
O41 O 0.40421 0.76669 0.6345 0.0
C42 C 0.5974 0.1867 0.78892 0.0
O43 O 0.62641 0.21233 0.80331 0.0
Cd44 Cd 0.58783 0.27178 0.82957 0.0
O45 O 0.55992 0.18858 0.8046 0.0
Cd46 Cd 0.52075 0.2246 0.86481 0.0
C47 C 0.49083 0.25653 0.77479 0.0
O48 O 0.57843 0.25959 0.90433 0.0
O49 O 0.51801 0.29151 0.90924 0.0
O50 O 0.52249 0.16283 0.90612 0.0
C51 C 0.55463 0.28519 0.92508 0.0
O52 O 0.53011 0.26791 0.77452 0.0
C53 C 0.48432 0.16554 0.91944 0.0
O54 O 0.47417 0.2435 0.80869 0.0
O55 O 0.46117 0.19347 0.90364 0.0
C56 C 0.11667 0.05852 0.09056 0.0
O57 O 0.13364 0.09186 0.07617 0.0
Cd58 Cd 0.16662 0.13052 0.13678 0.0
O59 O 0.13006 0.04492 0.12566 0.0
Cd60 Cd 0.18097 0.05119 0.18565 0.0
C61 C 0.08856 0.09498 0.20668 0.0
O62 O 0.23382 0.10583 0.16568 0.0
O63 O 0.21674 0.10387 0.23263 0.0
O64 O 0.21601 0.98571 0.16184 0.0
C65 C 0.24158 0.11808 0.20441 0.0
O66 O 0.10297 0.12263 0.18172 0.0
C67 C 0.21636 0.96951 0.1982 0.0
O68 O 0.11143 0.06401 0.21671 0.0
O69 O 0.20005 0.99123 0.22911 0.0
C70 C 0.17055 0.92653 0.40927 0.0
O71 O 0.19082 0.9166 0.37543 0.0
Cd72 Cd 0.24855 0.86952 0.37352 0.0
O73 O 0.18108 0.91173 0.44506 0.0
Cd74 Cd 0.23958 0.8628 0.46791 0.0
C75 C 0.31647 0.93018 0.4376 0.0
O76 O 0.22733 0.80824 0.41203 0.0
O77 O 0.29087 0.80994 0.43876 0.0
O78 O 0.19525 0.83186 0.52385 0.0
C79 C 0.26182 0.78923 0.41793 0.0
O80 O 0.30922 0.91358 0.4003 0.0
C81 C 0.22599 0.8271 0.5497 0.0
O82 O 0.29346 0.91975 0.46893 0.0
O83 O 0.26204 0.84242 0.53924 0.0
C84 C 0.45705 0.91453 0.61069 0.0
O85 O 0.46792 0.88999 0.6396 0.0
Cd86 Cd 0.42659 0.88084 0.70339 0.0
O87 O 0.42539 0.93897 0.61653 0.0
Cd88 Cd 0.38 0.95426 0.68087 0.0
C89 C 0.45294 0.97113 0.75722 0.0
O90 O 0.3516 0.87997 0.68622 0.0
O91 O 0.33766 0.92425 0.73839 0.0
O92 O 0.33139 0.99354 0.63562 0.0
C93 C 0.33031 0.8882 0.71976 0.0
O94 O 0.44855 0.93138 0.76188 0.0
C95 C 0.32344 0.02188 0.66474 0.0
O96 O 0.4374 0.98757 0.72462 0.0
O97 O 0.34204 0.01885 0.70036 0.0
C98 C 0.18307 0.01105 0.02928 0.0
O99 O 0.20514 0.02113 0.06249 0.0
Cd100 Cd 0.25967 0.07425 0.07136 0.0
O101 O 0.18934 0.02997 0.99456 0.0
Cd102 Cd 0.2418 0.08655 0.97202 0.0
C103 C 0.3265 0.02678 -0.0019 0.0
O104 O 0.23407 0.13359 0.0363 0.0
O105 O 0.2886 0.14727 -0.00204 0.0
O106 O 0.19095 0.11597 0.92066 0.0
C107 C 0.26572 0.15793 0.02986 0.0
O108 O 0.32041 0.04104 0.0363 0.0
C109 C 0.21782 0.11808 0.89045 0.0
O110 O 0.30056 0.03503 0.9683 0.0
O111 O 0.25463 0.10373 0.89758 0.0
C112 C 0.68444 0.37767 0.08584 0.0
O113 O 0.68383 0.3665 0.04632 0.0
Cd114 Cd 0.71069 0.30252 0.01384 0.0
O115 O 0.69947 0.35375 0.1137 0.0
Cd116 Cd 0.73542 0.28394 0.1147 0.0
C117 C 0.8118 0.32902 0.05295 0.0
O118 O 0.69224 0.24785 0.05934 0.0
O119 O 0.74861 0.21497 0.07635 0.0
O120 O 0.69188 0.27194 0.17687 0.0
C121 C 0.71474 0.21511 0.05404 0.0
O122 O 0.78586 0.3206 0.02207 0.0
C123 C 0.71964 0.25183 0.19702 0.0
O124 O 0.8016 0.32201 0.09153 0.0
O125 O 0.75682 0.25014 0.18079 0.0
C126 C 0.00752 0.45587 0.19249 0.0
O127 O -0.00218 0.42037 0.20797 0.0
Cd128 Cd 0.93329 0.40697 0.24808 0.0
O129 O 0.98193 0.48674 0.19594 0.0
Cd130 Cd 0.91102 0.50133 0.22662 0.0
C131 C 0.95198 0.48496 0.32517 0.0
O132 O 0.87326 0.43218 0.20882 0.0
O133 O 0.84079 0.47875 0.24896 0.0
O134 O 0.89624 0.55107 0.17026 0.0
C135 C 0.83954 0.44303 0.22852 0.0
O136 O 0.94789 0.44506 0.31671 0.0
C137 C 0.88468 0.58054 0.19675 0.0
O138 O 0.94272 0.51128 0.29726 0.0
O139 O 0.88686 0.57316 0.23614 0.0
C140 C 0.71881 0.64615 0.5856 0.0
O141 O 0.74 0.64566 0.62021 0.0
Cd142 Cd 0.80614 0.68524 0.63131 0.0
O143 O 0.73129 0.66897 0.55538 0.0
Cd144 Cd 0.79207 0.71644 0.53799 0.0
C145 C 0.8552 0.63124 0.5489 0.0
O146 O 0.79967 0.75656 0.60716 0.0
O147 O 0.84943 0.76555 0.56057 0.0
O148 O 0.74872 0.76419 0.49812 0.0
C149 C 0.83325 0.77665 0.59638 0.0
O150 O 0.85196 0.63805 0.58915 0.0
C151 C 0.76627 0.75565 0.4623 0.0
O152 O 0.83623 0.65474 0.52334 0.0
O153 O 0.79578 0.72861 0.46142 0.0
C154 C 0.58729 0.51718 0.72153 0.0
O155 O 0.59736 0.55237 0.74102 0.0
Cd156 Cd 0.65373 0.56102 0.79224 0.0
O157 O 0.6073 0.48324 0.72829 0.0
Cd158 Cd 0.66603 0.45656 0.77142 0.0
C159 C 0.60909 0.48826 0.85963 0.0
O160 O 0.70846 0.51964 0.76114 0.0
O161 O 0.73204 0.48034 0.80953 0.0
O162 O 0.6817 0.40897 0.70934 0.0
C163 C 0.73734 0.51305 0.78798 0.0
O164 O 0.62204 0.52603 0.85287 0.0
C165 C 0.69243 0.37766 0.73079 0.0
O166 O 0.61742 0.45709 0.83352 0.0
O167 O 0.68917 0.38232 0.7712 0.0
H168 H 0.07412 0.2371 0.59352 0.0
H169 H 0.00404 0.21879 0.47468 0.0
H170 H 0.09848 0.12962 0.5085 0.0
H171 H 0.01653 0.2825 0.58108 0.0
H172 H 0.03772 0.29795 0.53186 0.0
H173 H 0.9431 0.23043 0.56708 0.0
H174 H 0.8556 0.32315 0.52292 0.0
H175 H 0.98815 0.3369 0.49787 0.0
C176 C 0.06644 0.21799 0.56464 0.0
C177 C 0.09043 0.18191 0.55424 0.0
C178 C 0.03463 0.23139 0.53654 0.0
C179 C 0.02684 0.208 0.49753 0.0
C180 C 0.05038 0.17152 0.48737 0.0
C181 C 0.0811 0.15838 0.51624 0.0
C182 C 0.01561 0.27444 0.54609 0.0
C183 C 0.97037 0.28042 0.53065 0.0
C184 C 0.93608 0.25731 0.54816 0.0
C185 C 0.89376 0.27189 0.54544 0.0
C186 C 0.88659 0.3085 0.52244 0.0
C187 C 0.92034 0.33166 0.50526 0.0
C188 C 0.9619 0.31693 0.50829 0.0
H189 H 0.13195 0.66563 0.87938 0.0
H190 H 0.05518 0.70277 0.98801 0.0
H191 H 0.09551 0.79556 0.89983 0.0
H192 H 0.09995 0.61111 0.91914 0.0
H193 H 0.10333 0.62861 0.9745 0.0
H194 H 0.0117 0.66383 0.90852 0.0
H195 H 0.92187 0.57919 0.9645 0.0
H196 H 0.05608 0.56293 0.98447 0.0
C197 C 0.11483 0.69001 0.8974 0.0
C198 C 0.11813 0.7327 0.88616 0.0
C199 C 0.09064 0.6788 0.93318 0.0
C200 C 0.07161 0.711 0.95907 0.0
C201 C 0.07302 0.75343 0.94723 0.0
C202 C 0.09441 0.76309 0.9095 0.0
C203 C 0.08557 0.63256 0.94418 0.0
C204 C 0.0394 0.61851 0.95042 0.0
C205 C 0.00553 0.6387 0.93024 0.0
C206 C 0.96324 0.62578 0.93695 0.0
C207 C 0.95452 0.59121 0.96213 0.0
C208 C 0.98771 0.56765 0.97814 0.0
C209 C 0.03021 0.58166 0.9729 0.0
H210 H 0.54922 0.68824 0.13824 0.0
H211 H 0.63477 0.79598 0.16279 0.0
H212 H 0.68287 0.67961 0.10847 0.0
H213 H 0.54387 0.75175 0.20173 0.0
H214 H 0.56247 0.80188 0.18384 0.0
H215 H 0.54579 0.79984 0.09277 0.0
H216 H 0.4102 0.80588 0.08589 0.0
H217 H 0.46956 0.75483 0.19591 0.0
C218 C 0.58065 0.70291 0.13539 0.0
C219 C 0.61503 0.67847 0.12011 0.0
C220 C 0.58721 0.74571 0.14988 0.0
C221 C 0.62861 0.76423 0.14877 0.0
C222 C 0.66267 0.7406 0.13219 0.0
C223 C 0.65536 0.69838 0.11734 0.0
C224 C 0.55173 0.76926 0.17269 0.0
C225 C 0.51201 0.77299 0.1456 0.0
C226 C 0.51484 0.79097 0.10543 0.0
C227 C 0.4777 0.80088 0.08329 0.0
C228 C 0.43776 0.7937 0.10187 0.0
C229 C 0.43396 0.7788 0.14335 0.0
C230 C 0.47146 0.76656 0.16405 0.0
H231 H 0.58851 0.28205 0.38994 0.0
H232 H 0.55134 0.35903 0.50117 0.0
H233 H 0.64148 0.40849 0.41308 0.0
H234 H 0.55558 0.26592 0.48756 0.0
H235 H 0.50923 0.29575 0.47981 0.0
H236 H 0.49167 0.29451 0.38853 0.0
H237 H 0.45725 0.16417 0.35841 0.0
H238 H 0.53906 0.19622 0.46627 0.0
C239 C 0.59037 0.31151 0.4092 0.0
C240 C 0.61699 0.34499 0.39624 0.0
C241 C 0.56569 0.31665 0.44669 0.0
C242 C 0.56963 0.35486 0.47198 0.0
C243 C 0.59701 0.38771 0.45982 0.0
C244 C 0.62037 0.38269 0.42215 0.0
C245 C 0.537 0.28163 0.46267 0.0
C246 C 0.51994 0.2489 0.42944 0.0
C247 C 0.4955 0.26112 0.39423 0.0
C248 C 0.47427 0.22997 0.36783 0.0
C249 C 0.47659 0.18714 0.37735 0.0
C250 C 0.49907 0.17442 0.41319 0.0
C251 C 0.52189 0.20549 0.43822 0.0
H252 H 0.44509 0.9892 0.18217 0.0
H253 H 0.53986 0.9878 0.28247 0.0
H254 H 0.50994 0.10429 0.22426 0.0
H255 H 0.44958 0.9263 0.22886 0.0
H256 H 0.49673 0.92332 0.19847 0.0
H257 H 0.44817 0.90334 0.30103 0.0
H258 H 0.56393 0.86045 0.35782 0.0
H259 H 0.56803 0.91237 0.23424 0.0
C260 C 0.46657 0.00597 0.20468 0.0
C261 C 0.47455 0.04941 0.20089 0.0
C262 C 0.48977 0.98294 0.23381 0.0
C263 C 0.52044 0.00486 0.26075 0.0
C264 C 0.5271 0.04922 0.25875 0.0
C265 C 0.50305 0.07097 0.22917 0.0
C266 C 0.48429 0.9348 0.23013 0.0
C267 C 0.5059 0.91147 0.26462 0.0
C268 C 0.4823 0.89843 0.30004 0.0
C269 C 0.50264 0.87864 0.33354 0.0
C270 C 0.54698 0.87348 0.33139 0.0
C271 C 0.57044 0.88456 0.29557 0.0
C272 C 0.54987 0.90318 0.26182 0.0
H273 H 0.25256 0.30548 0.54708 0.0
H274 H 0.28757 0.43744 0.57397 0.0
H275 H 0.37805 0.34004 0.59372 0.0
H276 H 0.20468 0.36033 0.5259 0.0
H277 H 0.20348 0.39243 0.57456 0.0
H278 H 0.26299 0.39763 0.47016 0.0
H279 H 0.21462 0.52112 0.44531 0.0
H280 H 0.17525 0.45755 0.55684 0.0
C281 C 0.27631 0.32986 0.55622 0.0
C282 C 0.31733 0.31815 0.56832 0.0
C283 C 0.26584 0.37323 0.55726 0.0
C284 C 0.29619 0.40429 0.5719 0.0
C285 C 0.33742 0.3928 0.58341 0.0
C286 C 0.34736 0.34969 0.58177 0.0
C287 C 0.22183 0.38645 0.5446 0.0
C288 C 0.2231 0.42583 0.51873 0.0
C289 C 0.24598 0.42598 0.48023 0.0
C290 C 0.24325 0.46027 0.4531 0.0
C291 C 0.2183 0.49517 0.46635 0.0
C292 C 0.19072 0.49236 0.50138 0.0
C293 C 0.19639 0.45973 0.52964 0.0
H294 H 0.96426 0.17591 0.66978 0.0
H295 H 0.88817 0.07877 0.72644 0.0
H296 H 0.00223 0.04545 0.65924 0.0
H297 H 0.90592 0.19728 0.71298 0.0
H298 H 0.86395 0.15916 0.70046 0.0
H299 H 0.94389 0.19536 0.78526 0.0
H300 H 0.86872 0.14776 0.88681 0.0
H301 H 0.82503 0.12745 0.75684 0.0
C302 C 0.96058 0.14327 0.67899 0.0
C303 C 0.98711 0.11209 0.66062 0.0
C304 C 0.92564 0.13154 0.7041 0.0
C305 C 0.91746 0.08821 0.71091 0.0
C306 C 0.94509 0.0569 0.69485 0.0
C307 C 0.98162 0.06976 0.67266 0.0
C308 C 0.89413 0.16451 0.71901 0.0
C309 C 0.88583 0.16094 0.76584 0.0
C310 C 0.9162 0.17745 0.79575 0.0
C311 C 0.91006 0.17185 0.83921 0.0
C312 C 0.87408 0.14936 0.85271 0.0
C313 C 0.84283 0.13349 0.82345 0.0
C314 C 0.84896 0.13933 0.77982 0.0
H315 H 0.31632 0.68771 0.2051 0.0
H316 H 0.32032 0.5858 0.10719 0.0
H317 H 0.21144 0.59852 0.18829 0.0
H318 H 0.37134 0.69041 0.15346 0.0
H319 H 0.39189 0.63835 0.15681 0.0
H320 H 0.3277 0.70528 0.08349 0.0
H321 H 0.3692 0.63474 0.97047 0.0
H322 H 0.41379 0.60095 0.09348 0.0
C323 C 0.30197 0.6598 0.18882 0.0
C324 C 0.26215 0.64427 0.20195 0.0
C325 C 0.32357 0.63909 0.15469 0.0
C326 C 0.30441 0.60259 0.13338 0.0
C327 C 0.26345 0.5889 0.14503 0.0
C328 C 0.24317 0.60948 0.17946 0.0
C329 C 0.36659 0.65674 0.1415 0.0
C330 C 0.37114 0.65409 0.09373 0.0
C331 C 0.34685 0.68048 0.0685 0.0
C332 C 0.34561 0.67316 0.02407 0.0
C333 C 0.36925 0.63995 0.00499 0.0
C334 C 0.39407 0.6142 0.02973 0.0
C335 C 0.39532 0.62157 0.07411 0.0
H336 H 0.71762 0.89338 0.09773 0.0
H337 H 0.78849 0.98871 0.03226 0.0
H338 H 0.8546 0.88862 0.0895 0.0
H339 H 0.68196 0.95397 0.07784 0.0
H340 H 0.71445 -6e-05 0.06787 0.0
H341 H 0.70606 0.89883 0.99622 0.0
H342 H 0.63798 0.96134 0.89918 0.0
H343 H 0.66316 0.0275 0.01985 0.0
C344 C 0.74791 0.90546 0.08633 0.0
C345 C 0.78616 0.88662 0.09841 0.0
C346 C 0.74847 0.942 0.06213 0.0
C347 C 0.7878 0.95912 0.04847 0.0
C348 C 0.82628 0.93984 0.05876 0.0
C349 C 0.82462 0.90261 0.08165 0.0
C350 C 0.70768 0.96622 0.05704 0.0
C351 C 0.69073 0.96489 0.01179 0.0
C352 C 0.69184 0.92735 0.98505 0.0
C353 C 0.67351 0.92647 0.94404 0.0
C354 C 0.65372 0.96267 0.93021 0.0
C355 C 0.64939 -0.0012 0.95751 0.0
C356 C 0.6677 -8e-05 -0.00167 0.0
H357 H 0.53028 0.43148 0.23271 0.0
H358 H 0.39686 0.40094 0.24739 0.0
H359 H 0.48282 0.30612 0.19795 0.0
H360 H 0.48824 0.48009 0.27504 0.0
H361 H 0.45248 0.48232 0.2315 0.0
H362 H 0.45277 0.44447 0.34468 0.0
H363 H 0.34763 0.52551 0.37875 0.0
H364 H 0.38896 0.51533 0.24993 0.0
C365 C 0.50474 0.40767 0.23362 0.0
C366 C 0.5112 0.36729 0.21425 0.0
C367 C 0.46406 0.41934 0.24871 0.0
C368 C 0.42918 0.39047 0.24168 0.0
C369 C 0.43592 0.34973 0.22241 0.0
C370 C 0.47781 0.33716 0.21365 0.0
C371 C 0.45795 0.4658 0.26156 0.0
C372 C 0.42264 0.47565 0.29312 0.0
C373 C 0.4267 0.46446 0.33608 0.0
C374 C 0.3998 0.48233 0.36808 0.0
C375 C 0.36717 0.50884 0.35526 0.0
C376 C 0.36296 0.52047 0.31315 0.0
C377 C 0.39066 0.50402 0.282 0.0
H378 H 0.74758 0.12782 0.50304 0.0
H379 H 0.7277 0.0089 0.43059 0.0
H380 H 0.62276 0.06872 0.49469 0.0
H381 H 0.8076 0.07875 0.48416 0.0
H382 H 0.79941 0.0357 0.44549 0.0
H383 H 0.80716 0.15469 0.46229 0.0
H384 H 0.84353 0.17148 0.33245 0.0
H385 H 0.80625 0.04736 0.37102 0.0
C386 C 0.72611 0.10323 0.48944 0.0
C387 C 0.68289 0.1031 0.501 0.0
C388 C 0.74235 0.07007 0.46286 0.0
C389 C 0.71495 0.03613 0.44837 0.0
C390 C 0.67149 0.03642 0.45913 0.0
C391 C 0.65568 0.07057 0.48405 0.0
C392 C 0.78967 0.06876 0.45445 0.0
C393 C 0.80206 0.09821 0.4198 0.0
C394 C 0.80982 0.142 0.42964 0.0
C395 C 0.82368 0.16887 0.39777 0.0
C396 C 0.82939 0.15154 0.35613 0.0
C397 C 0.82445 0.10777 0.34639 0.0
C398 C 0.80945 0.08137 0.37808 0.0
H399 H 0.06065 0.48171 0.68222 0.0
H400 H 0.18301 0.54272 0.70276 0.0
H401 H 0.06818 0.61535 0.71411 0.0
H402 H 0.13532 0.44961 0.66238 0.0
H403 H 0.18028 0.4683 0.69393 0.0
H404 H 0.10553 0.47548 0.77466 0.0
H405 H 0.12401 0.34886 0.81481 0.0
H406 H 0.16036 0.37945 0.68861 0.0
C407 C 0.07929 0.50976 0.69275 0.0
C408 C 0.05978 0.5495 0.69621 0.0
C409 C 0.12358 0.50683 0.69973 0.0
C410 C 0.14863 0.5449 0.704 0.0
C411 C 0.12918 0.58516 0.70611 0.0
C412 C 0.08441 0.58555 0.70911 0.0
C413 C 0.14493 0.46392 0.69427 0.0
C414 C 0.13407 0.43162 0.72755 0.0
C415 C 0.11537 0.44316 0.76756 0.0
C416 C 0.10936 0.4126 0.79854 0.0
C417 C 0.12425 0.37144 0.78978 0.0
C418 C 0.14037 0.35834 0.74996 0.0
C419 C 0.14614 0.38882 0.71906 0.0
H420 H 0.03125 0.32904 0.01648 0.0
H421 H 0.05511 0.45399 0.07602 0.0
H422 H 0.06644 0.48308 0.00447 0.0
H423 H 0.10903 0.33429 0.94144 0.0
H424 H 0.08033 0.30591 0.89864 0.0
H425 H 0.06767 0.2958 0.95316 0.0
H426 H 0.98618 0.31956 0.9453 0.0
H427 H 0.00142 0.3161 0.88973 0.0
H428 H 0.97697 0.36313 0.9118 0.0
H429 H 0.08951 0.49422 0.92681 0.0
H430 H 0.11263 0.48699 0.85111 0.0
H431 H 0.05945 0.35811 0.84302 0.0
C432 C 0.03706 0.36291 0.01433 0.0
C433 C 0.04201 0.38955 0.05149 0.0
C434 C 0.05115 0.43334 0.04783 0.0
C435 C 0.05804 0.44993 0.00747 0.0
C436 C 0.05471 0.42236 0.97132 0.0
C437 C 0.0429 0.38002 0.97445 0.0
C438 C 0.04369 0.35618 0.9315 0.0
C439 C 0.07719 0.321 0.93123 0.0
C440 C -0.00056 0.33768 0.91882 0.0
C441 C 0.05708 0.39177 0.90354 0.0
C442 C 0.06439 0.4296 0.92683 0.0
C443 C 0.08288 0.46497 0.90807 0.0
C444 C 0.09554 0.46075 0.86487 0.0
C445 C 0.08872 0.42173 0.84091 0.0
C446 C 0.06654 0.38812 0.8603 0.0
H447 H 0.93663 0.81792 0.27392 0.0
H448 H 0.83524 0.84101 0.36531 0.0
H449 H 0.78289 0.84243 0.30567 0.0
H450 H 0.90004 0.88568 0.19804 0.0
H451 H 0.91644 0.85271 0.15261 0.0
H452 H 0.94405 0.85019 0.20275 0.0
H453 H 0.92996 0.76965 0.19928 0.0
H454 H 0.89882 0.77088 0.1508 0.0
H455 H 0.87629 0.74853 0.19767 0.0
H456 H 0.74593 0.85545 0.23644 0.0
H457 H 0.72872 0.87948 0.16563 0.0
H458 H 0.84846 0.82858 0.11756 0.0
C459 C 0.9031 0.8218 0.28128 0.0
C460 C 0.88956 0.82897 0.3238 0.0
C461 C 0.84581 0.83484 0.33274 0.0
C462 C 0.81599 0.83563 0.29918 0.0
C463 C 0.8304 0.829 0.25731 0.0
C464 C 0.87287 0.82136 0.24838 0.0
C465 C 0.88087 0.81819 0.20077 0.0
C466 C 0.91216 0.85381 0.18784 0.0
C467 C 0.89739 0.7742 0.18625 0.0
C468 C 0.83622 0.82528 0.18417 0.0
C469 C 0.80771 0.83231 0.21722 0.0
C470 C 0.76754 0.84888 0.21016 0.0
C471 C 0.75784 0.86213 0.16916 0.0
C472 C 0.78789 0.85785 0.13532 0.0
C473 C 0.82533 0.83467 0.14252 0.0
H474 H 0.36307 0.59697 0.59058 0.0
H475 H 0.50039 0.59435 0.60934 0.0
H476 H 0.50624 0.54338 0.54772 0.0
H477 H 0.34115 0.48274 0.54496 0.0
H478 H 0.30277 0.50591 0.5115 0.0
H479 H 0.3146 0.53065 0.56346 0.0
H480 H 0.32855 0.59893 0.51652 0.0
H481 H 0.32381 0.56723 0.46725 0.0
H482 H 0.37234 0.59734 0.47924 0.0
H483 H 0.49805 0.4996 0.47986 0.0
H484 H 0.479 0.47412 0.40687 0.0
H485 H 0.34505 0.4936 0.43743 0.0
C486 C 0.39412 0.58431 0.58271 0.0
C487 C 0.43113 0.59882 0.60549 0.0
C488 C 0.47145 0.58299 0.59302 0.0
C489 C 0.47507 0.55362 0.55822 0.0
C490 C 0.43798 0.53953 0.53667 0.0
C491 C 0.3982 0.55447 0.54829 0.0
C492 C 0.36446 0.53974 0.5156 0.0
C493 C 0.32859 0.51332 0.53526 0.0
C494 C 0.34625 0.57808 0.49335 0.0
C495 C 0.39117 0.51265 0.4851 0.0
C496 C 0.43351 0.5137 0.49724 0.0
C497 C 0.46504 0.49739 0.47029 0.0
C498 C 0.45354 0.48228 0.4288 0.0
C499 C 0.41033 0.48258 0.41494 0.0
C500 C 0.37867 0.49421 0.44549 0.0
H501 H 0.6713 0.16001 0.74964 0.0
H502 H 0.53481 0.17227 0.72955 0.0
H503 H 0.54493 0.16287 0.65198 0.0
H504 H 0.70719 0.21215 0.66283 0.0
H505 H 0.74913 0.17688 0.64551 0.0
H506 H 0.73403 0.1811 0.70102 0.0
H507 H 0.71617 0.1012 0.70386 0.0
H508 H 0.73537 0.09454 0.6499 0.0
H509 H 0.68255 0.0754 0.66302 0.0
H510 H 0.57047 0.16153 0.57697 0.0
H511 H 0.60571 0.14218 0.50872 0.0
H512 H 0.72407 0.12238 0.57707 0.0
C513 C 0.64347 0.15938 0.72893 0.0
C514 C 0.60241 0.1674 0.74554 0.0
C515 C 0.56662 0.16621 0.71757 0.0
C516 C 0.57207 0.16153 0.67336 0.0
C517 C 0.61328 0.15661 0.65782 0.0
C518 C 0.64806 0.15318 0.68466 0.0
C519 C 0.68841 0.14475 0.65944 0.0
C520 C 0.7217 0.18085 0.66768 0.0
C521 C 0.70667 0.10138 0.66964 0.0
C522 C 0.67078 0.14447 0.61426 0.0
C523 C 0.62762 0.15268 0.61419 0.0
C524 C 0.6041 0.1542 0.57652 0.0
C525 C 0.62445 0.14348 0.53794 0.0
C526 C 0.66736 0.12999 0.53765 0.0
C527 C 0.69139 0.13288 0.57608 0.0
H528 H 0.01028 0.67318 0.50289 0.0
H529 H 0.92443 0.74659 0.58391 0.0
H530 H 0.92338 0.68969 0.63563 0.0
H531 H 0.9655 0.56745 0.52617 0.0
H532 H 0.01647 0.54258 0.5268 0.0
H533 H 0.00735 0.58659 0.49296 0.0
H534 H 0.07085 0.63208 0.52783 0.0
H535 H 0.08194 0.58482 0.55536 0.0
H536 H 0.07518 0.63414 0.58541 0.0
H537 H 0.94216 0.63157 0.68364 0.0
H538 H 0.98428 0.58255 0.72548 0.0
H539 H 0.0528 0.54288 0.61133 0.0
C540 C 0.99068 0.67686 0.5312 0.0
C541 C 0.96644 0.71374 0.53896 0.0
C542 C 0.94176 0.71782 0.5766 0.0
C543 C 0.94125 0.68573 0.60624 0.0
C544 C 0.96511 0.6494 0.59743 0.0
C545 C 0.98957 0.64497 0.56087 0.0
C546 C 0.01536 0.60484 0.5606 0.0
C547 C 0.00032 0.57342 0.52445 0.0
C548 C 0.06362 0.6147 0.55704 0.0
C549 C 0.00387 0.58874 0.60398 0.0
C550 C 0.97413 0.61439 0.62448 0.0
C551 C 0.96434 0.61036 0.66757 0.0
C552 C 0.98797 0.582 0.69108 0.0
C553 C 0.02096 0.55821 0.67133 0.0
C554 C 0.02645 0.55927 0.62669 0.0
H555 H 0.52356 0.74237 0.84762 0.0
H556 H 0.58172 0.76648 0.72557 0.0
H557 H 0.63831 0.81056 0.76255 0.0
H558 H 0.53705 0.8474 0.88931 0.0
H559 H 0.54636 0.83335 0.94358 0.0
H560 H 0.51492 0.79843 0.90818 0.0
H561 H 0.56564 0.73667 0.92312 0.0
H562 H 0.59759 0.77188 0.95812 0.0
H563 H 0.62215 0.74316 0.91376 0.0
H564 H 0.68408 0.85708 0.81126 0.0
H565 H 0.7102 0.90994 0.8669 0.0
H566 H 0.62146 0.85835 0.95751 0.0
C567 C 0.5489 0.75611 0.8289 0.0
C568 C 0.54892 0.75049 0.78385 0.0
C569 C 0.5815 0.77018 0.76014 0.0
C570 C 0.61388 0.79497 0.7809 0.0
C571 C 0.6129 0.80019 0.82538 0.0
C572 C 0.58089 0.78184 0.84911 0.0
C573 C 0.58391 0.7971 0.89579 0.0
C574 C 0.54317 0.82046 0.91001 0.0
C575 C 0.59287 0.75998 0.92438 0.0
C576 C 0.62216 0.82745 0.89443 0.0
C577 C 0.63892 0.82804 0.85364 0.0
C578 C 0.67188 0.85627 0.84349 0.0
C579 C 0.68682 0.8859 0.8753 0.0
C580 C 0.66876 0.88711 0.91664 0.0
C581 C 0.63702 0.85668 0.92666 0.0
H582 H 0.53268 0.35853 0.9698 0.0
H583 H 0.5944 0.23808 0.98214 0.0
H584 H 0.60612 0.25494 0.05916 0.0
H585 H 0.59701 0.42005 0.04729 0.0
H586 H 0.55506 0.44863 0.07439 0.0
H587 H 0.55072 0.43434 0.0178 0.0
H588 H 0.48172 0.39077 0.02151 0.0
H589 H 0.47808 0.41058 0.07609 0.0
H590 H 0.4749 0.35407 0.0635 0.0
H591 H 0.60121 0.2796 0.13587 0.0
H592 H 0.57246 0.30627 0.20548 0.0
H593 H 0.51594 0.41156 0.14374 0.0
C594 C 0.54995 0.3365 0.98858 0.0
C595 C 0.56465 0.29797 0.96989 0.0
C596 C 0.58549 0.26895 0.99558 0.0
C597 C 0.59198 0.27814 0.03937 0.0
C598 C 0.57759 0.31668 0.05698 0.0
C599 C 0.55672 0.34524 0.03239 0.0
C600 C 0.53951 0.38172 0.05979 0.0
C601 C 0.56189 0.42371 0.04918 0.0
C602 C 0.49066 0.38441 0.05492 0.0
C603 C 0.55199 0.36822 0.1038 0.0
C604 C 0.57469 0.331 0.10157 0.0
C605 C 0.58451 0.30938 0.13814 0.0
C606 C 0.56851 0.32488 0.17763 0.0
C607 C 0.54316 0.36157 0.18001 0.0
C608 C 0.53686 0.38455 0.14302 0.0
H609 H 0.9356 0.32178 0.26742 0.0
H610 H 0.04494 0.28882 0.34264 0.0
H611 H -0.00197 0.276 0.40385 0.0
H612 H 0.86122 0.35866 0.36618 0.0
H613 H 0.81667 0.33488 0.33652 0.0
H614 H 0.85989 0.36079 0.30898 0.0
H615 H 0.86713 0.29032 0.26171 0.0
H616 H 0.82644 0.26421 0.29124 0.0
H617 H 0.87881 0.24185 0.28743 0.0
H618 H 0.94164 0.24359 0.44487 0.0
H619 H 0.88545 0.19013 0.45682 0.0
H620 H 0.80856 0.24177 0.35783 0.0
C621 C 0.94963 0.31442 0.29775 0.0
C622 C 0.99374 0.30688 0.30069 0.0
C623 C 0.01119 0.29523 0.34001 0.0
C624 C 0.9847 0.28818 0.37508 0.0
C625 C 0.94066 0.2926 0.37035 0.0
C626 C 0.92321 0.30602 0.33267 0.0
C627 C 0.87522 0.29824 0.33156 0.0
C628 C 0.85182 0.34063 0.33605 0.0
C629 C 0.86114 0.27212 0.29062 0.0
C630 C 0.86928 0.27327 0.37139 0.0
C631 C 0.90693 0.2726 0.39472 0.0
C632 C 0.9117 0.24502 0.42789 0.0
C633 C 0.87924 0.21478 0.4348 0.0
C634 C 0.84285 0.2118 0.4079 0.0
C635 C 0.83599 0.24412 0.37906 0.0
H636 H 0.04641 0.04736 0.26541 0.0
H637 H 0.02635 0.14186 0.17138 0.0
H638 H 0.94902 0.13819 0.18457 0.0
H639 H 0.94099 0.98614 0.24618 0.0
H640 H 0.93612 0.9779 0.3024 0.0
H641 H 0.98829 0.98101 0.27835 0.0
H642 H 0.00975 0.0415 0.33387 0.0
H643 H 0.95777 0.03796 0.35747 0.0
H644 H 0.97748 0.08828 0.33937 0.0
H645 H 0.8758 0.1307 0.21247 0.0
H646 H 0.81709 0.13355 0.26458 0.0
H647 H 0.88384 0.04622 0.34248 0.0
C648 C 0.02563 0.06686 0.24724 0.0
C649 C 0.04254 0.09487 0.21742 0.0
C650 C 0.01434 0.12031 0.19467 0.0
C651 C 0.97017 0.11787 0.20131 0.0
C652 C 0.95443 0.08965 0.23061 0.0
C653 C 0.98135 0.06498 0.25365 0.0
C654 C 0.95708 0.04237 0.28788 0.0
C655 C 0.95555 0.994 0.27808 0.0
C656 C 0.97664 0.05329 0.33228 0.0
C657 C 0.91322 0.06111 0.28296 0.0
C658 C 0.91181 0.08639 0.24811 0.0
C659 C 0.87627 0.11054 0.23946 0.0
C660 C 0.84289 0.11179 0.2691 0.0
C661 C 0.84612 0.09027 0.30757 0.0
C662 C 0.88012 0.06218 0.3129 0.0
H663 H 0.15213 0.8014 0.58777 0.0
H664 H 0.28954 0.78808 0.59252 0.0
H665 H 0.28075 0.72985 0.64208 0.0
H666 H 0.13347 0.77219 0.70346 0.0
H667 H 0.0836 0.74565 0.68863 0.0
H668 H 0.10151 0.79156 0.66085 0.0
H669 H 0.09617 0.74795 0.58807 0.0
H670 H 0.07682 0.70352 0.61634 0.0
H671 H 0.1231 0.69796 0.58222 0.0
H672 H 0.25543 0.6668 0.68543 0.0
H673 H 0.21697 0.6052 0.71388 0.0
H674 H 0.09711 0.65897 0.67349 0.0
C675 C 0.18042 0.78723 0.60045 0.0
C676 C 0.22143 0.79938 0.58641 0.0
C677 C 0.25773 0.77966 0.60321 0.0
C678 C 0.25305 0.74643 0.63136 0.0
C679 C 0.21194 0.73413 0.64349 0.0
C680 C 0.17632 0.75454 0.62901 0.0
C681 C 0.13555 0.73318 0.64341 0.0
C682 C 0.11217 0.7624 0.67602 0.0
C683 C 0.10628 0.71976 0.60521 0.0
C684 C 0.15362 0.69533 0.66483 0.0
C685 C 0.19762 0.69723 0.66641 0.0
C686 C 0.22087 0.66507 0.68427 0.0
C687 C 0.19853 0.62975 0.70009 0.0
C688 C 0.15327 0.62587 0.69666 0.0
C689 C 0.13114 0.66003 0.67901 0.0
H690 H 0.45051 0.96524 0.84325 0.0
H691 H 0.5082 0.03736 0.74362 0.0
H692 H 0.55513 0.07544 0.79721 0.0
H693 H 0.46402 0.05801 0.92995 0.0
H694 H 0.47403 0.02173 0.97121 0.0
H695 H 0.4367 0.00726 0.92846 0.0
H696 H 0.47697 0.93891 0.90676 0.0
H697 H 0.51251 0.95014 0.95072 0.0
H698 H 0.53377 0.94233 0.89756 0.0
H699 H 0.60936 0.08551 0.85401 0.0
H700 H 0.66332 0.06459 0.9058 0.0
H701 H 0.56662 -0.00294 0.9746 0.0
C702 C 0.47222 0.99003 0.83319 0.0
C703 C 0.47635 -0.00183 0.78959 0.0
C704 C 0.5047 0.0308 0.77706 0.0
C705 C 0.53116 0.05281 0.80737 0.0
C706 C 0.5276 0.04295 0.85022 0.0
C707 C 0.49791 0.01305 0.86324 0.0
C708 C 0.5038 0.00432 0.9099 0.0
C709 C 0.46749 0.02394 0.93654 0.0
C710 C 0.50704 0.95614 0.91655 0.0
C711 C 0.5455 0.02845 0.91918 0.0
C712 C 0.55777 0.05227 0.88498 0.0
C713 C 0.59939 0.06882 0.8818 0.0
C714 C 0.62998 0.05735 0.91171 0.0
C715 C 0.61848 0.03028 0.94455 0.0
C716 C 0.57521 0.01934 0.95066 0.0
H717 H 0.33907 0.20643 0.02917 0.0
H718 H 0.22707 0.18142 0.1059 0.0
H719 H 0.25591 0.23075 0.16361 0.0
H720 H 0.41473 0.20998 0.11258 0.0
H721 H 0.44651 0.25244 0.09142 0.0
H722 H 0.41566 0.21702 0.05585 0.0
H723 H 0.35058 0.3184 0.06124 0.0
H724 H 0.3776 0.28136 0.0254 0.0
H725 H 0.40804 0.31727 0.06085 0.0
H726 H 0.30319 0.27659 0.21672 0.0
H727 H 0.35818 0.32263 0.25502 0.0
H728 H 0.43487 0.31953 0.13993 0.0
C729 C 0.32031 0.21159 0.05788 0.0
C730 C 0.28087 0.19003 0.06303 0.0
C731 C 0.25741 0.19767 0.10123 0.0
C732 C 0.27353 0.22561 0.13419 0.0
C733 C 0.3132 0.24551 0.12849 0.0
C734 C 0.33587 0.23916 0.09094 0.0
C735 C 0.37763 0.26401 0.09229 0.0
C736 C 0.41586 0.23408 0.08779 0.0
C737 C 0.37849 0.29723 0.05791 0.0
C738 C 0.37539 0.28487 0.1367 0.0
C739 C 0.33835 0.27374 0.15751 0.0
C740 C 0.33133 0.28712 0.20013 0.0
C741 C 0.36274 0.31295 0.22173 0.0
C742 C 0.40073 0.32456 0.20058 0.0
C743 C 0.40639 0.31081 0.15731 0.0
H744 H 0.06208 0.00522 0.12905 0.0
H745 H 0.08042 0.06858 0.01044 0.0
H746 H 0.00851 0.04176 0.98578 0.0
H747 H -0.00037 0.91352 0.08582 0.0
H748 H 0.96697 0.91314 0.13309 0.0
H749 H 0.02168 0.93189 0.13688 0.0
H750 H 0.99605 0.00277 0.17281 0.0
H751 H 0.94112 0.98524 0.16783 0.0
H752 H 0.95831 0.0342 0.14517 0.0
H753 H 0.929 0.01396 0.97897 0.0
H754 H 0.85607 0.98263 0.98845 0.0
H755 H 0.89291 0.94622 0.11502 0.0
C756 C 0.0516 0.01315 0.09749 0.0
C757 C 0.07695 0.03902 0.07167 0.0
C758 C 0.06143 0.04888 0.03086 0.0
C759 C 0.0206 0.03407 0.01677 0.0
C760 C 0.99553 0.01052 0.0443 0.0
C761 C 0.01101 -9e-05 0.08364 0.0
C762 C 0.97801 0.97649 0.10885 0.0
C763 C 0.99243 0.93106 0.11659 0.0
C764 C 0.9678 0.00117 0.15115 0.0
C765 C 0.94088 0.97619 0.07811 0.0
C766 C 0.95122 0.99529 0.04066 0.0
C767 C 0.92089 -0.00141 0.0081 0.0
C768 C 0.87946 0.98106 0.01385 0.0
C769 C 0.86886 0.96084 0.05201 0.0
C770 C 0.90003 0.95974 0.08466 0.0
H771 H 0.33302 0.75958 0.37686 0.0
H772 H 0.20556 0.723 0.41681 0.0
H773 H 0.21518 0.65071 0.38431 0.0
H774 H 0.32856 0.7057 0.27598 0.0
H775 H 0.3822 0.68568 0.27418 0.0
H776 H 0.37103 0.73483 0.30374 0.0
H777 H 0.39842 0.71001 0.37512 0.0
H778 H 0.41598 0.66237 0.34697 0.0
H779 H 0.38174 0.65863 0.39286 0.0
H780 H 0.23785 0.58348 0.34734 0.0
H781 H 0.27748 0.52136 0.31956 0.0
H782 H 0.38869 0.60154 0.29998 0.0
C783 C 0.30716 0.73626 0.37838 0.0
C784 C 0.26845 0.74647 0.39888 0.0
C785 C 0.23523 0.71553 0.40069 0.0
C786 C 0.24035 0.67462 0.38217 0.0
C787 C 0.27808 0.66596 0.36031 0.0
C788 C 0.31118 0.69562 0.35878 0.0
C789 C 0.34909 0.67747 0.33481 0.0
C790 C 0.35833 0.70234 0.29475 0.0
C791 C 0.38862 0.67707 0.3642 0.0
C792 C 0.33217 0.63277 0.32327 0.0
C793 C 0.29099 0.62707 0.33811 0.0
C794 C 0.26982 0.58766 0.33494 0.0
C795 C 0.29206 0.55265 0.31819 0.0
C796 C 0.33541 0.55693 0.30652 0.0
C797 C 0.35496 0.59784 0.30684 0.0
H798 H 0.54195 0.89958 0.60367 0.0
H799 H 0.43265 0.9382 0.53129 0.0
H800 H 0.47987 0.95359 0.47054 0.0
H801 H 0.60259 0.98299 0.5809 0.0
H802 H 0.65315 0.95663 0.57902 0.0
H803 H 0.61029 0.93558 0.60983 0.0
H804 H 0.61477 0.86228 0.56696 0.0
H805 H 0.65898 0.88426 0.53788 0.0
H806 H 0.61356 0.86106 0.50936 0.0
H807 H 0.5389 0.9807 0.42639 0.0
H808 H 0.60236 0.02304 0.40675 0.0
H809 H 0.67451 0.96915 0.50789 0.0
C810 C 0.5278 0.90954 0.5743 0.0
C811 C 0.48367 0.91743 0.57191 0.0
C812 C 0.46643 0.93208 0.53368 0.0
C813 C 0.49299 0.94039 0.49889 0.0
C814 C 0.53685 0.93417 0.50294 0.0
C815 C 0.55413 0.91906 0.53987 0.0
C816 C 0.60241 0.92388 0.54038 0.0
C817 C 0.61796 0.95142 0.57981 0.0
C818 C 0.62363 0.88026 0.53853 0.0
C819 C 0.60951 0.9464 0.4993 0.0
C820 C 0.57149 0.95062 0.47729 0.0
C821 C 0.56904 0.97607 0.44216 0.0
C822 C 0.6054 -0.00021 0.4309 0.0
C823 C 0.64355 -0.00189 0.45499 0.0
C824 C 0.64624 0.96925 0.48784 0.0
H825 H 0.14106 0.14907 0.86384 0.0
H826 H 0.27461 0.14029 0.82898 0.0
H827 H 0.26358 0.19061 0.77258 0.0
H828 H 0.10072 0.16673 0.74817 0.0
H829 H 0.0608 0.2025 0.76897 0.0
H830 H 0.07607 0.15773 0.79894 0.0
H831 H 0.09393 0.20851 0.86446 0.0
H832 H 0.07852 0.25298 0.83488 0.0
H833 H 0.13113 0.2524 0.85856 0.0
H834 H 0.24391 0.25519 0.73554 0.0
H835 H 0.21631 0.32593 0.71994 0.0
H836 H 0.09327 0.28886 0.77063 0.0
C837 C 0.16753 0.15639 0.8431 0.0
C838 C 0.20869 0.14073 0.85097 0.0
C839 C 0.2427 0.15161 0.82358 0.0
C840 C 0.23673 0.1801 0.79116 0.0
C841 C 0.19628 0.1966 0.7854 0.0
C842 C 0.16188 0.18425 0.8099 0.0
C843 C 0.12303 0.21039 0.80083 0.0
C844 C 0.08811 0.18268 0.77785 0.0
C845 C 0.10572 0.23238 0.84212 0.0
C846 C 0.14229 0.2422 0.77106 0.0
C847 C 0.18427 0.23308 0.76156 0.0
C848 C 0.21069 0.262 0.74104 0.0
C849 C 0.19469 0.3021 0.7321 0.0
C850 C 0.1526 0.31285 0.7439 0.0
C851 C 0.12545 0.28124 0.76077 0.0
H852 H 0.39685 0.01831 0.0472 0.0
H853 H 0.3332 0.96456 0.93339 0.0
H854 H 0.38291 0.90434 0.93162 0.0
H855 H 0.50865 0.97919 0.02631 0.0
H856 H 0.5142 0.96901 0.08211 0.0
H857 H 0.48143 0.01184 0.06609 0.0
H858 H 0.41799 0.97981 0.10783 0.0
H859 H 0.45067 0.93677 0.12268 0.0
H860 H 0.40083 0.92563 0.09502 0.0
H861 H 0.42463 0.84179 0.95478 0.0
H862 H 0.45398 0.78639 -0.00076 0.0
H863 H 0.49618 0.88332 0.09339 0.0
C864 C 0.39449 0.99489 0.02085 0.0
C865 C 0.36141 0.99634 0.99035 0.0
C866 C 0.35871 0.96444 0.95684 0.0
C867 C 0.38686 0.9301 0.95562 0.0
C868 C 0.41794 0.92862 0.98765 0.0
C869 C 0.42218 0.96071 0.0193 0.0
C870 C 0.45245 0.94884 0.05418 0.0
C871 C 0.49156 0.97902 0.0573 0.0
C872 C 0.42909 0.94768 0.09743 0.0
C873 C 0.46443 0.90478 0.03784 0.0
C874 C 0.44412 0.89331 -0.00055 0.0
C875 C 0.44239 0.85096 0.98362 0.0
C876 C 0.45954 0.81962 0.00878 0.0
C877 C 0.47885 0.83105 0.04875 0.0
C878 C 0.48381 0.87428 0.06178 0.0
H879 H 0.85091 0.39614 0.09877 0.0
H880 H 0.85857 0.3179 0.98134 0.0
H881 H 0.91342 0.36662 0.95436 0.0
H882 H 0.85241 0.4895 0.04819 0.0
H883 H 0.88308 0.52159 0.08694 0.0
H884 H 0.85214 0.47656 0.10364 0.0
H885 H 0.91888 0.44367 0.13614 0.0
H886 H 0.95021 0.48927 0.12074 0.0
H887 H 0.96601 0.43637 0.10391 0.0
H888 H 0.95676 0.42877 0.93454 0.0
H889 H 0.99085 0.49879 0.925 0.0
H890 H 0.95421 0.54008 0.05327 0.0
C891 C 0.86598 0.38813 0.06844 0.0
C892 C 0.85162 0.3524 0.04269 0.0
C893 C 0.86997 0.34446 0.00195 0.0
C894 C 0.90125 0.37196 0.98636 0.0
C895 C 0.91381 0.40762 0.01173 0.0
C896 C 0.89695 0.41587 0.05198 0.0
C897 C 0.91107 0.45983 0.06957 0.0
C898 C 0.87238 0.48854 0.07756 0.0
C899 C 0.93813 0.45701 0.11008 0.0
C900 C 0.93819 0.47487 0.03302 0.0
C901 C 0.93934 0.44408 5e-05 0.0
C902 C 0.95817 0.45205 0.96099 0.0
C903 C 0.97753 0.49191 0.95585 0.0
C904 C 0.97709 0.52376 0.98921 0.0
C905 C 0.95706 0.51527 0.02828 0.0
H906 H 0.83219 0.63178 0.2431 0.0
H907 H 0.89166 0.61669 0.11869 0.0
H908 H 0.85221 0.67876 0.09471 0.0
H909 H 0.73137 0.64833 0.20293 0.0
H910 H 0.7169 0.68349 0.24758 0.0
H911 H 0.75653 0.64418 0.25435 0.0
H912 H 0.80053 0.70587 0.28586 0.0
H913 H 0.77174 0.7507 0.26749 0.0
H914 H 0.82596 0.74223 0.25145 0.0
H915 H 0.79638 0.73155 0.08035 0.0
H916 H 0.72369 0.75894 0.07344 0.0
H917 H 0.70214 0.74314 0.20774 0.0
C918 C 0.83802 0.64236 0.21122 0.0
C919 C 0.8655 0.62004 0.18295 0.0
C920 C 0.87108 0.63381 0.14098 0.0
C921 C 0.84898 0.66913 0.12725 0.0
C922 C 0.82125 0.68996 0.15578 0.0
C923 C 0.81544 0.67656 0.19676 0.0
C924 C 0.77904 0.69908 0.21906 0.0
C925 C 0.74391 0.66688 0.23163 0.0
C926 C 0.7952 0.72604 0.25828 0.0
C927 C 0.76407 0.72656 0.18379 0.0
C928 C 0.78946 0.72159 0.14777 0.0
C929 C 0.77696 0.73665 0.10857 0.0
C930 C 0.73579 0.75292 0.10497 0.0
C931 C 0.70774 0.75332 0.14026 0.0
C932 C 0.72372 0.74447 0.18087 0.0
H933 H 0.71858 0.56324 0.60594 0.0
H934 H 0.64521 0.65576 0.54069 0.0
H935 H 0.59751 0.59804 0.51073 0.0
H936 H 0.72133 0.49109 0.52118 0.0
H937 H 0.71823 0.44384 0.5514 0.0
H938 H 0.74018 0.49249 0.5757 0.0
H939 H 0.68637 0.48729 0.63679 0.0
H940 H 0.66142 0.43965 0.61271 0.0
H941 H 0.63004 0.48599 0.62541 0.0
H942 H 0.56934 0.53162 0.47567 0.0
H943 H 0.55674 0.45947 0.44226 0.0
H944 H 0.64778 0.40855 0.52938 0.0
C945 C 0.69117 0.57143 0.58705 0.0
C946 C 0.68471 0.61395 0.57641 0.0
C947 C 0.64999 0.62343 0.54979 0.0
C948 C 0.62287 0.59085 0.53263 0.0
C949 C 0.63127 0.54898 0.54206 0.0
C950 C 0.66441 0.53911 0.56888 0.0
C951 C 0.67025 0.49133 0.56906 0.0
C952 C 0.71514 0.479 0.55339 0.0
C953 C 0.66149 0.47502 0.61364 0.0
C954 C 0.63599 0.47597 0.53719 0.0
C955 C 0.61381 0.50984 0.52224 0.0
C956 C 0.5849 0.50459 0.48841 0.0
C957 C 0.57799 0.46369 0.4696 0.0
C958 C 0.59997 0.4287 0.48458 0.0
C959 C 0.62918 0.43475 0.51889 0.0
H960 H 0.22834 0.90417 0.13907 0.0
H961 H 0.25437 0.94428 0.27113 0.0
H962 H 0.3025 0.88373 0.27749 0.0
H963 H 0.23936 0.7821 0.15429 0.0
H964 H 0.26233 0.77677 0.10183 0.0
H965 H 0.2219 0.81577 0.11295 0.0
H966 H 0.27497 0.87338 0.08523 0.0
H967 H 0.31502 0.8341 0.07637 0.0
H968 H 0.32664 0.88072 0.11057 0.0
H969 H 0.362 0.83401 0.2628 0.0
H970 H 0.42323 0.7986 0.22997 0.0
H971 H 0.35136 0.77845 0.1114 0.0
C972 C 0.24295 0.89913 0.16976 0.0
C973 C 0.23788 0.92888 0.20455 0.0
C974 C 0.25769 0.92171 0.24414 0.0
C975 C 0.28501 0.88731 0.24805 0.0
C976 C 0.29089 0.85946 0.21255 0.0
C977 C 0.26932 0.8642 0.17447 0.0
C978 C 0.28496 0.83316 0.13969 0.0
C979 C 0.25001 0.80001 0.12644 0.0
C980 C 0.30138 0.85676 0.10073 0.0
C981 C 0.32102 0.81278 0.1631 0.0
C982 C 0.32365 0.82793 0.20524 0.0
C983 C 0.35933 0.82055 0.2304 0.0
C984 C 0.3942 0.79981 0.21128 0.0
C985 C 0.39307 0.786 0.16737 0.0
C986 C 0.35419 0.78933 0.14461 0.0
H987 H 0.18518 0.00674 0.3869 0.0
H988 H 0.08514 0.92159 0.4284 0.0
H989 H 0.03285 0.97967 0.42463 0.0
H990 H 0.15963 0.088 0.45472 0.0
H991 H 0.17472 0.12961 0.41985 0.0
H992 H 0.19848 0.07852 0.41306 0.0
H993 H 0.17199 0.0753 0.3335 0.0
H994 H 0.14633 0.12577 0.34203 0.0
H995 H 0.11577 0.07966 0.32225 0.0
H996 H 0.9953 0.04878 0.4287 0.0
H997 H 0.98242 0.12006 0.46228 0.0
H998 H 0.10808 0.162 0.42425 0.0
C999 C 0.15192 0.00028 0.39417 0.0
C1000 C 0.13866 0.95996 0.4073 0.0
C1001 C 0.09551 0.95242 0.41797 0.0
C1002 C 0.0657 0.98504 0.41548 0.0
C1003 C 0.07991 0.02504 0.4032 0.0
C1004 C 0.12232 0.03285 0.39337 0.0
C1005 C 0.13183 0.07998 0.39054 0.0
C1006 C 0.16832 0.09487 0.42137 0.0
C1007 C 0.14208 0.0908 0.34433 0.0
C1008 C 0.08926 0.09786 0.40439 0.0
C1009 C 0.05898 0.06568 0.40882 0.0
C1010 C 0.01895 0.07399 0.42629 0.0
C1011 C 0.01164 0.11469 0.44476 0.0
C1012 C 0.04503 0.14549 0.44709 0.0
C1013 C 0.0821 0.13866 0.42241 0.0
H1014 H 0.75765 0.4656 0.24046 0.0
H1015 H 0.83806 0.3556 0.2284 0.0
H1016 H 0.77948 0.31094 0.25688 0.0
H1017 H 0.71915 0.45103 0.33422 0.0
H1018 H 0.66501 0.46728 0.32591 0.0
H1019 H 0.70691 0.48711 0.29309 0.0
H1020 H 0.66758 0.45731 0.22385 0.0
H1021 H 0.62452 0.44 0.25746 0.0
H1022 H 0.64936 0.40233 0.22085 0.0
H1023 H 0.72312 0.28599 0.30877 0.0
H1024 H 0.66909 0.28056 0.36606 0.0
H1025 H 0.62246 0.40447 0.3372 0.0
C1026 C 0.76223 0.43171 0.2422 0.0
C1027 C 0.80232 0.41401 0.23304 0.0
C1028 C 0.80746 0.36967 0.23545 0.0
C1029 C 0.77442 0.34414 0.25167 0.0
C1030 C 0.73625 0.36334 0.26389 0.0
C1031 C 0.72943 0.40589 0.25752 0.0
C1032 C 0.68795 0.42043 0.27733 0.0
C1033 C 0.69525 0.45866 0.30954 0.0
C1034 C 0.65542 0.43068 0.24276 0.0
C1035 C 0.67442 0.38074 0.29925 0.0
C1036 C 0.70215 0.34775 0.29088 0.0
C1037 C 0.69997 0.31077 0.31385 0.0
C1038 C 0.66924 0.30791 0.3464 0.0
C1039 C 0.64166 0.34213 0.35588 0.0
C1040 C 0.64302 0.37775 0.33037 0.0
H1041 H 0.81792 0.53473 0.76442 0.0
H1042 H 0.71591 0.5696 0.85115 0.0
H1043 H 0.76259 0.62495 0.88667 0.0
H1044 H 0.89491 0.53377 0.835 0.0
H1045 H 0.93749 0.55592 0.80377 0.0
H1046 H 0.89268 0.52988 0.77735 0.0
H1047 H 0.88064 0.59781 0.73616 0.0
H1048 H 0.92442 0.62519 0.76428 0.0
H1049 H 0.87208 0.64786 0.7651 0.0
H1050 H 0.82247 0.65961 0.92422 0.0
H1051 H 0.89092 0.66547 0.96334 0.0
H1052 H 0.9562 0.61278 0.85222 0.0
C1053 C 0.80535 0.55535 0.78986 0.0
C1054 C 0.76375 0.54869 0.80519 0.0
C1055 C 0.74787 0.57493 0.83905 0.0
C1056 C 0.77398 0.60668 0.85899 0.0
C1057 C 0.81566 0.61192 0.84427 0.0
C1058 C 0.83123 0.58718 0.81014 0.0
C1059 C 0.87903 0.59352 0.80568 0.0
C1060 C 0.90233 0.55076 0.80554 0.0
C1061 C 0.88963 0.61752 0.76539 0.0
C1062 C 0.88854 0.62129 0.84565 0.0
C1063 C 0.85131 0.63335 0.8663 0.0
C1064 C 0.85183 0.65198 0.90771 0.0
C1065 C 0.89081 0.65541 0.92974 0.0
C1066 C 0.92845 0.64037 0.91014 0.0
C1067 C 0.92782 0.62602 0.86685 0.0
H1068 H 0.49123 0.75586 0.546 0.0
H1069 H 0.38322 0.83182 0.58624 0.0
H1070 H 0.383 0.86466 0.51568 0.0
H1071 H 0.54513 0.83279 0.4871 0.0
H1072 H 0.56268 0.79483 0.44626 0.0
H1073 H 0.55336 0.77825 0.49965 0.0
H1074 H 0.4998 0.71962 0.46949 0.0
H1075 H 0.5085 0.73649 0.41604 0.0
H1076 H 0.45514 0.73456 0.4374 0.0
H1077 H 0.40029 0.89261 0.44236 0.0
H1078 H 0.43082 0.91249 0.37317 0.0
H1079 H 0.52029 0.8095 0.37994 0.0
C1080 C 0.46766 0.77963 0.5402 0.0
C1081 C 0.43768 0.79189 0.57159 0.0
C1082 C 0.40669 0.82234 0.56249 0.0
C1083 C 0.40621 0.8409 0.52256 0.0
C1084 C 0.43634 0.82782 0.49217 0.0
C1085 C 0.46608 0.79748 0.50055 0.0
C1086 C 0.49489 0.78835 0.46292 0.0
C1087 C 0.54181 0.79916 0.47469 0.0
C1088 C 0.48922 0.74201 0.44543 0.0
C1089 C 0.4776 0.8191 0.43221 0.0
C1090 C 0.44412 0.84186 0.44948 0.0
C1091 C 0.42602 0.8748 0.42809 0.0
C1092 C 0.44364 0.88574 0.38879 0.0
C1093 C 0.47897 0.86354 0.37133 0.0
C1094 C 0.49436 0.8284 0.39267 0.0
H1095 H 0.40412 0.25072 0.76465 0.0
H1096 H 0.52262 0.25106 0.69345 0.0
H1097 H 0.48214 0.23804 0.62621 0.0
H1098 H 0.34035 0.1736 0.68923 0.0
H1099 H 0.2932 0.2047 0.69716 0.0
H1100 H 0.33181 0.20158 0.73993 0.0
H1101 H 0.33758 0.28377 0.74593 0.0
H1102 H 0.30084 0.2886 0.70261 0.0
H1103 H 0.35342 0.31225 0.69975 0.0
H1104 H 0.43002 0.23642 0.56702 0.0
H1105 H 0.37541 0.27004 0.5244 0.0
H1106 H 0.28914 0.27092 0.63144 0.0
C1107 C 0.42154 0.24717 0.73492 0.0
C1108 C 0.46645 0.25168 0.73429 0.0
C1109 C 0.48813 0.2479 0.69473 0.0
C1110 C 0.46543 0.23955 0.65642 0.0
C1111 C 0.42103 0.23502 0.65809 0.0
C1112 C 0.3993 0.23951 0.69637 0.0
C1113 C 0.35173 0.24265 0.68908 0.0
C1114 C 0.32782 0.20331 0.70481 0.0
C1115 C 0.33493 0.28422 0.71058 0.0
C1116 C 0.35028 0.24288 0.64076 0.0
C1117 C 0.39032 0.23577 0.62335 0.0
C1118 C 0.39846 0.24122 0.58018 0.0
C1119 C 0.36683 0.25955 0.55574 0.0
C1120 C 0.32885 0.27395 0.57546 0.0
C1121 C 0.3181 0.25994 0.61608 0.0
H1122 H 0.04205 0.18512 0.05537 0.0
H1123 H 0.96254 0.29301 0.08917 0.0
H1124 H 0.93652 0.29308 0.01545 0.0
H1125 H 0.06692 0.21252 0.94494 0.0
H1126 H 0.06122 0.15845 0.92352 0.0
H1127 H 0.07865 0.16894 0.97804 0.0
H1128 H 0.01578 0.12269 0.00602 0.0
H1129 H 0.00074 0.11015 0.95112 0.0
H1130 H 0.96217 0.13199 0.98831 0.0
H1131 H 0.91546 0.28096 0.94084 0.0
H1132 H 0.89237 0.24964 0.87082 0.0
H1133 H 0.97946 0.14598 0.88411 0.0
C1134 C 0.01922 0.20873 0.04696 0.0
C1135 C 0.00416 0.23883 0.07799 0.0
C1136 C 0.97403 0.26911 0.06615 0.0
C1137 C 0.9594 0.26991 0.02416 0.0
C1138 C 0.9748 0.24014 0.99422 0.0
C1139 C 0.00334 0.20952 0.005 0.0
C1140 C 0.01033 0.17813 0.96747 0.0
C1141 C 0.05706 0.17962 0.95262 0.0
C1142 C 0.99638 0.13302 0.97886 0.0
C1143 C 0.98069 0.19559 0.93445 0.0
C1144 C 0.96148 0.2321 0.95047 0.0
C1145 C 0.93069 0.25281 0.92759 0.0
C1146 C 0.91809 0.2351 0.88773 0.0
C1147 C 0.93507 0.19626 0.872 0.0
C1148 C 0.96744 0.17665 0.895 0.0
H1149 H 0.13116 0.82574 0.32437 0.0
H1150 H 0.07276 0.72478 0.39575 0.0
H1151 H 0.12236 0.67364 0.36244 0.0
H1152 H 0.14283 0.76433 0.22866 0.0
H1153 H 0.19316 0.78853 0.21441 0.0
H1154 H 0.15613 0.81825 0.24707 0.0
H1155 H 0.21546 0.83194 0.30392 0.0
H1156 H 0.25231 0.80081 0.27192 0.0
H1157 H 0.24172 0.78746 0.3259 0.0
H1158 H 0.16971 0.63238 0.31589 0.0
H1159 H 0.21929 0.6026 0.26266 0.0
H1160 H 0.24908 0.72943 0.22101 0.0
C1161 C 0.12929 0.79303 0.33356 0.0
C1162 C 0.09792 0.77915 0.36247 0.0
C1163 C 0.09636 0.73608 0.37353 0.0
C1164 C 0.12441 0.7068 0.35487 0.0
C1165 C 0.15397 0.72125 0.32558 0.0
C1166 C 0.15721 0.76334 0.31532 0.0
C1167 C 0.19016 0.76959 0.28067 0.0
C1168 C 0.16929 0.78611 0.24032 0.0
C1169 C 0.22706 0.79926 0.29663 0.0
C1170 C 0.20481 0.72431 0.27322 0.0
C1171 C 0.18301 0.69711 0.29923 0.0
C1172 C 0.1877 0.65336 0.29594 0.0
C1173 C 0.21595 0.63682 0.26561 0.0
C1174 C 0.23856 0.6638 0.23826 0.0
C1175 C 0.23336 0.70825 0.24251 0.0
H1176 H 0.53676 0.14296 0.9816 0.0
H1177 H 0.40282 0.14375 0.94586 0.0
H1178 H 0.3834 0.1158 0.01636 0.0
H1179 H 0.53972 0.05326 0.03798 0.0
H1180 H 0.57342 0.07428 0.08118 0.0
H1181 H 0.57768 0.09534 0.02903 0.0
H1182 H 0.56348 0.17136 0.05705 0.0
H1183 H 0.56148 0.15329 0.11069 0.0
H1184 H 0.51752 0.1822 0.08996 0.0
H1185 H 0.38057 0.08691 0.0925 0.0
H1186 H 0.39491 0.05806 0.16368 0.0
H1187 H 0.53027 0.08382 0.14721 0.0
C1188 C 0.50333 0.13645 0.98808 0.0
C1189 C 0.47131 0.14433 0.95812 0.0
C1190 C 0.42781 0.13708 0.96842 0.0
C1191 C 0.41656 0.12156 0.00835 0.0
C1192 C 0.44923 0.11503 0.03765 0.0
C1193 C 0.49165 0.12279 0.02785 0.0
C1194 C 0.521 0.11587 0.06484 0.0
C1195 C 0.55488 0.08268 0.05262 0.0
C1196 C 0.54209 0.15819 0.08161 0.0
C1197 C 0.48891 0.09995 0.09631 0.0
C1198 C 0.44749 0.10049 0.08084 0.0
C1199 C 0.41287 0.08646 0.10488 0.0
C1200 C 0.42117 0.07025 0.14511 0.0
C1201 C 0.46355 0.06936 0.16081 0.0
C1202 C 0.49746 0.0849 0.13621 0.0
H1203 H 0.14815 0.40094 0.23683 0.0
H1204 H 0.23574 0.29665 0.23502 0.0
H1205 H 0.28474 0.33957 0.2831 0.0
H1206 H 0.23101 0.49298 0.2598 0.0
H1207 H 0.19386 0.51928 0.29563 0.0
H1208 H 0.17465 0.48966 0.24834 0.0
H1209 H 0.12454 0.44404 0.29349 0.0
H1210 H 0.14191 0.47359 0.34065 0.0
H1211 H 0.1463 0.41645 0.33749 0.0
H1212 H 0.31294 0.38312 0.3451 0.0
H1213 H 0.31151 0.41589 0.41809 0.0
H1214 H 0.20109 0.48794 0.38324 0.0
C1215 C 0.17881 0.38803 0.24443 0.0
C1216 C 0.18888 0.34601 0.23113 0.0
C1217 C 0.22817 0.32927 0.24384 0.0
C1218 C 0.25612 0.35347 0.27109 0.0
C1219 C 0.24405 0.39408 0.28573 0.0
C1220 C 0.20611 0.41124 0.27255 0.0
C1221 C 0.19461 0.45008 0.3001 0.0
C1222 C 0.19883 0.4904 0.27448 0.0
C1223 C 0.14927 0.44566 0.31906 0.0
C1224 C 0.22913 0.44898 0.33399 0.0
C1225 C 0.25895 0.41834 0.32378 0.0
C1226 C 0.29018 0.40764 0.35307 0.0
C1227 C 0.28885 0.42617 0.39474 0.0
C1228 C 0.2556 0.45398 0.40717 0.0
C1229 C 0.2275 0.46756 0.3753 0.0
H1230 H 0.0494 0.94024 0.52215 0.0
H1231 H 0.92309 0.96096 0.47156 0.0
H1232 H 0.93017 0.03735 0.49306 0.0
H1233 H 0.03931 0.99404 0.61248 0.0
H1234 H 0.09228 0.01787 0.61712 0.0
H1235 H 0.08375 0.96977 0.58514 0.0
H1236 H 0.11773 0.0057 0.52162 0.0
H1237 H 0.12402 0.05619 0.55132 0.0
H1238 H 0.09488 0.0527 0.5015 0.0
H1239 H 0.94498 0.10668 0.52832 0.0
H1240 H 0.95049 0.15026 0.59424 0.0
H1241 H 0.06479 0.08531 0.62893 0.0
C1242 C 0.02392 0.96139 0.51458 0.0
C1243 C 0.98578 0.94522 0.49536 0.0
C1244 C 0.95249 0.97302 0.48648 0.0
C1245 C 0.95658 0.01648 0.49797 0.0
C1246 C 0.99448 0.03167 0.51751 0.0
C1247 C 0.0274 0.0048 0.5263 0.0
C1248 C 0.06036 0.02689 0.55568 0.0
C1249 C 0.06933 0.00066 0.59495 0.0
C1250 C 0.10171 0.0359 0.53107 0.0
C1251 C 0.03762 0.06807 0.567 0.0
C1252 C 0.00196 0.07179 0.54118 0.0
C1253 C 0.97286 0.10415 0.5485 0.0
C1254 C 0.97661 0.12931 0.5863 0.0
C1255 C 0.00621 0.11831 0.61797 0.0
C1256 C 0.04116 0.09295 0.60537 0.0
H1257 H 0.29934 0.66716 0.79589 0.0
H1258 H 0.36534 0.78933 0.79878 0.0
H1259 H 0.34115 0.8043 0.87218 0.0
H1260 H 0.21154 0.69763 0.88737 0.0
H1261 H 0.21694 0.64398 0.90324 0.0
H1262 H 0.21938 0.65512 0.84732 0.0
H1263 H 0.29281 0.6164 0.846 0.0
H1264 H 0.2903 0.60945 0.90203 0.0
H1265 H 0.33545 0.63753 0.88039 0.0
H1266 H 0.33759 0.79387 0.9484 0.0
H1267 H 0.35406 0.75891 0.01509 0.0
H1268 H 0.28561 0.64552 0.96767 0.0
C1269 C 0.30597 0.69819 0.81126 0.0
C1270 C 0.33438 0.7268 0.79221 0.0
C1271 C 0.34338 0.76696 0.81283 0.0
C1272 C 0.3296 0.77577 0.85472 0.0
C1273 C 0.30549 0.74481 0.8749 0.0
C1274 C 0.29241 0.70714 0.85323 0.0
C1275 C 0.27666 0.67467 0.884 0.0
C1276 C 0.22821 0.6674 0.88013 0.0
C1277 C 0.30029 0.63214 0.87775 0.0
C1278 C 0.28788 0.69779 0.92614 0.0
C1279 C 0.30281 0.73892 0.92055 0.0
C1280 C 0.32415 0.76256 0.95351 0.0
C1281 C 0.33326 0.74263 0.99153 0.0
C1282 C 0.32083 0.6997 0.99596 0.0
C1283 C 0.29457 0.67868 0.96471 0.0
H1284 H 0.60901 0.52672 0.93928 0.0
H1285 H 0.53442 0.44283 0.85288 0.0
H1286 H 0.46994 0.45755 0.89563 0.0
H1287 H 0.52843 0.50779 0.04517 0.0
H1288 H 0.54953 0.55963 0.06046 0.0
H1289 H 0.58301 0.52071 0.03389 0.0
H1290 H 0.59486 0.58883 0.98342 0.0
H1291 H 0.5515 0.61727 0.00764 0.0
H1292 H 0.54991 0.60315 0.95116 0.0
H1293 H 0.41177 0.49657 0.93493 0.0
H1294 H 0.36667 0.54903 0.97446 0.0
H1295 H 0.47953 0.60573 0.03639 0.0
C1296 C 0.57966 0.50923 0.93133 0.0
C1297 C 0.5766 0.48344 0.89318 0.0
C1298 C 0.53753 0.46207 0.88244 0.0
C1299 C 0.50068 0.47037 0.90653 0.0
C1300 C 0.50395 0.49873 0.94214 0.0
C1301 C 0.54295 0.5161 0.95602 0.0
C1302 C 0.53695 0.54965 0.99196 0.0
C1303 C 0.55053 0.53352 0.03531 0.0
C1304 C 0.55961 0.59222 0.98292 0.0
C1305 C 0.48908 0.55282 0.99143 0.0
C1306 C 0.4703 0.5219 0.96416 0.0
C1307 C 0.42619 0.51986 0.95748 0.0
C1308 C 0.4009 0.54973 0.97986 0.0
C1309 C 0.4199 0.58078 0.00866 0.0
C1310 C 0.46436 0.58184 0.01492 0.0
H1311 H 0.64601 0.25619 0.24254 0.0
H1312 H 0.76128 0.18348 0.22713 0.0
H1313 H 0.72731 0.12471 0.26485 0.0
H1314 H 0.60868 0.21027 0.34864 0.0
H1315 H 0.5541 0.20994 0.3303 0.0
H1316 H 0.59082 0.25122 0.31481 0.0
H1317 H 0.57274 0.23358 0.23636 0.0
H1318 H 0.53723 0.1905 0.24846 0.0
H1319 H 0.58157 0.1808 0.2134 0.0
H1320 H 0.67342 0.06695 0.278 0.0
H1321 H 0.60893 0.02091 0.27116 0.0
H1322 H 0.52995 0.1314 0.29133 0.0
C1323 C 0.66493 0.22886 0.24926 0.0
C1324 C 0.7062 0.2244 0.23189 0.0
C1325 C 0.72972 0.18783 0.2405 0.0
C1326 C 0.71057 0.15416 0.26191 0.0
C1327 C 0.66833 0.1581 0.27561 0.0
C1328 C 0.64634 0.1953 0.27088 0.0
C1329 C 0.59951 0.18945 0.28133 0.0
C1330 C 0.58762 0.21687 0.32119 0.0
C1331 C 0.57116 0.19917 0.24265 0.0
C1332 C 0.59777 0.14257 0.29007 0.0
C1333 C 0.63775 0.12481 0.28665 0.0
C1334 C 0.64228 0.08067 0.28272 0.0
C1335 C 0.60524 0.0545 0.27918 0.0
C1336 C 0.56414 0.07255 0.28013 0.0
C1337 C 0.56091 0.11667 0.29011 0.0
H1338 H 0.97802 0.43809 0.39121 0.0
H1339 H 0.97881 0.56671 0.34728 0.0
H1340 H 0.03213 0.58854 0.40259 0.0
H1341 H -0.00164 0.46616 0.50712 0.0
H1342 H 0.03566 0.42408 0.51375 0.0
H1343 H 0.99189 0.41609 0.47696 0.0
H1344 H 0.0384 0.39795 0.41274 0.0
H1345 H 0.08366 0.40046 0.44802 0.0
H1346 H 0.08362 0.43206 0.40157 0.0
H1347 H 0.09842 0.59109 0.44848 0.0
H1348 H 0.16669 0.57405 0.48353 0.0
H1349 H 0.11777 0.44634 0.50169 0.0
C1350 C 0.9879 0.4713 0.39443 0.0
C1351 C 0.97434 0.50057 0.36481 0.0
C1352 C 0.98865 0.54362 0.36965 0.0
C1353 C 0.01899 0.55639 0.40102 0.0
C1354 C 0.03388 0.526 0.42794 0.0
C1355 C 0.01784 0.48457 0.42576 0.0
C1356 C 0.04303 0.45661 0.45399 0.0
C1357 C 0.01554 0.43987 0.49018 0.0
C1358 C 0.06339 0.41967 0.4275 0.0
C1359 C 0.07635 0.48832 0.4713 0.0
C1360 C 0.07094 0.52822 0.45599 0.0
C1361 C 0.10227 0.56035 0.46185 0.0
C1362 C 0.1408 0.5506 0.48209 0.0
C1363 C 0.14724 0.50921 0.49635 0.0
C1364 C 0.11339 0.47885 0.49301 0.0
H1365 H 0.89001 0.83696 0.57104 0.0
H1366 H 0.81527 0.80033 0.68009 0.0
H1367 H 0.84164 0.86511 0.72126 0.0
H1368 H 0.98144 0.88675 0.62808 0.0
H1369 H 0.98572 0.92882 0.59134 0.0
H1370 H 0.96506 0.87702 0.57324 0.0
H1371 H 0.89645 0.91258 0.54593 0.0
H1372 H 0.91561 0.9644 0.56554 0.0
H1373 H 0.86489 0.94405 0.58296 0.0
H1374 H 0.87312 0.93804 0.74828 0.0
H1375 H 0.90345 0.0115 0.7567 0.0
H1376 H 0.9531 -0.00095 0.62756 0.0
C1377 C 0.87987 0.84197 0.60391 0.0
C1378 C 0.85095 0.81342 0.62253 0.0
C1379 C 0.83762 0.82177 0.66527 0.0
C1380 C 0.85256 0.85838 0.68893 0.0
C1381 C 0.88063 0.88631 0.66927 0.0
C1382 C 0.89391 0.8784 0.62761 0.0
C1383 C 0.92039 0.91504 0.61197 0.0
C1384 C 0.96584 0.90107 0.60043 0.0
C1385 C 0.89806 0.93514 0.57431 0.0
C1386 C 0.92051 0.94476 0.65124 0.0
C1387 C 0.89764 0.92789 0.68422 0.0
C1388 C 0.89146 0.95127 0.72271 0.0
C1389 C 0.90866 0.99304 0.72715 0.0
C1390 C 0.93146 0.01107 0.69316 0.0
C1391 C 0.93749 0.98608 0.65499 0.0
H1392 H 0.56966 0.45836 0.65697 0.0
H1393 H 0.51724 0.56719 0.72754 0.0
H1394 H 0.44743 0.55258 0.6923 0.0
H1395 H 0.50826 0.46974 0.55451 0.0
H1396 H 0.50255 0.41299 0.54671 0.0
H1397 H 0.54936 0.43616 0.57321 0.0
H1398 H 0.53467 0.38952 0.63737 0.0
H1399 H 0.48734 0.36715 0.61169 0.0
H1400 H 0.48394 0.39274 0.6643 0.0
H1401 H 0.38143 0.5164 0.66248 0.0
H1402 H 0.32563 0.46678 0.63283 0.0
H1403 H 0.4237 0.39065 0.5703 0.0
C1404 C 0.54419 0.48046 0.66335 0.0
C1405 C 0.54888 0.51417 0.69445 0.0
C1406 C 0.51434 0.54146 0.70333 0.0
C1407 C 0.47461 0.53339 0.68356 0.0
C1408 C 0.47076 0.49915 0.65374 0.0
C1409 C 0.50501 0.47392 0.64265 0.0
C1410 C 0.49175 0.43694 0.61256 0.0
C1411 C 0.51429 0.43914 0.56919 0.0
C1412 C 0.4999 0.3941 0.63271 0.0
C1413 C 0.44452 0.44498 0.60904 0.0
C1414 C 0.43282 0.48048 0.63361 0.0
C1415 C 0.39015 0.48947 0.64173 0.0
C1416 C 0.35867 0.46108 0.62472 0.0
C1417 C 0.37009 0.42491 0.59878 0.0
C1418 C 0.41364 0.41789 0.58991 0.0
H1419 H 0.75463 0.14017 0.03686 0.0
H1420 H 0.66578 0.22674 0.98395 0.0
H1421 H 0.66958 0.18815 0.91421 0.0
H1422 H 0.82381 0.14556 0.96556 0.0
H1423 H 0.84133 0.0913 0.96091 0.0
H1424 H 0.8167 0.1106 0.00909 0.0
H1425 H 0.75668 0.05042 0.00193 0.0
H1426 H 0.78618 0.0304 0.95599 0.0
H1427 H 0.73031 0.04112 0.9509 0.0
H1428 H 0.70263 0.16208 0.84895 0.0
H1429 H 0.76271 0.15606 0.79922 0.0
H1430 H 0.83014 0.08045 0.88808 0.0
C1431 C 0.7344 0.14938 0.01095 0.0
C1432 C 0.70924 0.18589 0.01589 0.0
C1433 C 0.68395 0.19798 0.98129 0.0
C1434 C 0.68612 0.17614 0.94136 0.0
C1435 C 0.71381 0.14212 0.93641 0.0
C1436 C 0.73695 0.12809 0.97065 0.0
C1437 C 0.7716 0.09808 0.95552 0.0
C1438 C 0.8159 0.11234 0.97378 0.0
C1439 C 0.76053 0.05227 0.96682 0.0
C1440 C 0.76846 0.10254 0.90767 0.0
C1441 C 0.73345 0.12617 0.89706 0.0
C1442 C 0.72927 0.14241 0.85656 0.0
C1443 C 0.76357 0.13854 0.82811 0.0
C1444 C 0.80133 0.11852 0.8405 0.0
C1445 C 0.80145 0.09606 0.87835 0.0
H1446 H 0.03486 0.52448 0.14866 0.0
H1447 H 0.0754 0.40248 0.19062 0.0
H1448 H 0.14731 0.41583 0.16089 0.0
H1449 H 0.10624 0.5275 0.04874 0.0
H1450 H 0.11112 0.58402 0.05887 0.0
H1451 H 0.06273 0.55619 0.07347 0.0
H1452 H 0.0757 0.59164 0.15118 0.0
H1453 H 0.12524 0.61505 0.13456 0.0
H1454 H 0.1246 0.58055 0.17878 0.0
H1455 H 0.2177 0.45094 0.14663 0.0
H1456 H 0.27735 0.5036 0.14593 0.0
H1457 H 0.1914 0.59741 0.10119 0.0
C1458 C 0.05862 0.50019 0.15098 0.0
C1459 C 0.04947 0.46223 0.17174 0.0
C1460 C 0.08163 0.43155 0.17448 0.0
C1461 C 0.12249 0.43884 0.15767 0.0
C1462 C 0.13073 0.47693 0.13809 0.0
C1463 C 0.09944 0.50686 0.13413 0.0
C1464 C 0.11732 0.54702 0.1158 0.0
C1465 C 0.09809 0.55408 0.07163 0.0
C1466 C 0.11034 0.5858 0.14694 0.0
C1467 C 0.16407 0.53597 0.11226 0.0
C1468 C 0.17132 0.4953 0.1252 0.0
C1469 C 0.21255 0.48196 0.13431 0.0
C1470 C 0.24655 0.51182 0.13319 0.0
C1471 C 0.23888 0.55407 0.12251 0.0
C1472 C 0.19807 0.56469 0.10766 0.0
H1473 H 0.7396 0.83642 0.45576 0.0
H1474 H 0.75784 0.71812 0.38217 0.0
H1475 H 0.72158 0.74777 0.32037 0.0
H1476 H 0.64046 0.84991 0.42244 0.0
H1477 H 0.6417 0.90679 0.4199 0.0
H1478 H 0.67721 0.88188 0.45568 0.0
H1479 H 0.74296 0.91692 0.42236 0.0
H1480 H 0.70907 0.94381 0.38614 0.0
H1481 H 0.75155 0.91104 0.36548 0.0
H1482 H 0.67367 0.7856 0.27167 0.0
H1483 H 0.61046 0.82334 0.24691 0.0
H1484 H 0.63015 0.9203 0.348 0.0
C1485 C 0.73776 0.81756 0.42588 0.0
C1486 C 0.75177 0.77533 0.42333 0.0
C1487 C 0.74796 0.75093 0.3843 0.0
C1488 C 0.72801 0.76773 0.34885 0.0
C1489 C 0.71418 0.80962 0.35232 0.0
C1490 C 0.71935 0.83434 0.38986 0.0
C1491 C 0.69574 0.87553 0.38815 0.0
C1492 C 0.66181 0.87867 0.42365 0.0
C1493 C 0.72673 0.9141 0.39069 0.0
C1494 C 0.67532 0.86982 0.3444 0.0
C1495 C 0.6867 0.83182 0.32378 0.0
C1496 C 0.6656 0.81605 0.28671 0.0
C1497 C 0.63002 0.83793 0.27244 0.0
C1498 C 0.61629 0.87499 0.29529 0.0
C1499 C 0.64125 0.89279 0.32937 0.0
H1500 H 0.88236 0.56583 0.59517 0.0
H1501 H 0.86917 0.60504 0.46492 0.0
H1502 H 0.88761 0.53249 0.43779 0.0
H1503 H 0.97044 0.49376 0.57649 0.0
H1504 H 0.94971 0.4562 0.61313 0.0
H1505 H 0.93927 0.51202 0.62176 0.0
H1506 H 0.83315 0.46619 0.57841 0.0
H1507 H 0.85806 0.49563 0.62304 0.0
H1508 H 0.86764 0.43971 0.61432 0.0
H1509 H 0.89819 0.45185 0.4257 0.0
H1510 H 0.90962 0.37397 0.43067 0.0
H1511 H 0.91624 0.39103 0.56856 0.0
C1512 C 0.88416 0.55963 0.56091 0.0
C1513 C 0.87429 0.59118 0.5322 0.0
C1514 C 0.87676 0.58139 0.48756 0.0
C1515 C 0.88693 0.54021 0.47184 0.0
C1516 C 0.89451 0.50932 0.5012 0.0
C1517 C 0.89384 0.5189 0.5448 0.0
C1518 C 0.90159 0.4802 0.56999 0.0
C1519 C 0.94271 0.48588 0.59689 0.0
C1520 C 0.8628 0.46984 0.59807 0.0
C1521 C 0.90641 0.44715 0.53389 0.0
C1522 C 0.90192 0.46412 0.4943 0.0
C1523 C 0.90258 0.43843 0.45651 0.0
C1524 C 0.9088 0.39443 0.45948 0.0
C1525 C 0.91414 0.37727 0.49993 0.0
C1526 C 0.91279 0.40391 0.5373 0.0
H1527 H 0.3675 0.9645 0.37674 0.0
H1528 H 0.34424 0.96902 0.51347 0.0
H1529 H 0.4014 0.02387 0.52396 0.0
H1530 H 0.48032 0.97823 0.38145 0.0
H1531 H 0.48828 0.01669 0.34154 0.0
H1532 H 0.44564 0.9775 0.33544 0.0
H1533 H 0.38387 0.02731 0.33296 0.0
H1534 H 0.42357 0.0688 0.32794 0.0
H1535 H 0.38317 0.07404 0.36865 0.0
H1536 H 0.45267 0.08529 0.51817 0.0
H1537 H 0.48925 0.15031 0.49605 0.0
H1538 H 0.48742 0.09998 0.36437 0.0
C1539 C 0.3749 0.97639 0.40903 0.0
C1540 C 0.3515 0.96225 0.4443 0.0
C1541 C 0.36173 0.97928 0.48591 0.0
C1542 C 0.3944 0.01022 0.49224 0.0
C1543 C 0.41699 0.02327 0.45676 0.0
C1544 C 0.40763 0.00688 0.41594 0.0
C1545 C 0.43361 0.02921 0.38277 0.0
C1546 C 0.46375 -0.00149 0.35894 0.0
C1547 C 0.40431 0.05115 0.35128 0.0
C1548 C 0.45827 0.06145 0.41118 0.0
C1549 C 0.44842 0.05748 0.45379 0.0
C1550 C 0.46164 0.08805 0.48507 0.0
C1551 C 0.48293 0.12491 0.47213 0.0
C1552 C 0.49103 0.13073 0.42823 0.0
C1553 C 0.48138 0.09689 0.39811 0.0
H1554 H 0.3023 0.05719 0.59 0.0
H1555 H 0.27451 0.06222 0.72558 0.0
H1556 H 0.21644 0.11255 0.71399 0.0
H1557 H 0.27639 0.17328 0.5756 0.0
H1558 H 0.2555 0.16044 0.5227 0.0
H1559 H 0.29879 0.13043 0.54322 0.0
H1560 H 0.25475 0.06077 0.52824 0.0
H1561 H 0.21119 0.09023 0.50846 0.0
H1562 H 0.20251 0.05512 0.55152 0.0
H1563 H 0.15383 0.15245 0.68519 0.0
H1564 H 0.09529 0.18096 0.64227 0.0
H1565 H 0.16805 0.15394 0.52675 0.0
C1566 C 0.2845 0.06961 0.61729 0.0
C1567 C 0.2924 0.05563 0.6585 0.0
C1568 C 0.26881 0.07264 0.69366 0.0
C1569 C 0.23589 0.10132 0.68742 0.0
C1570 C 0.22794 0.11356 0.64604 0.0
C1571 C 0.25239 0.09907 0.61178 0.0
C1572 C 0.23618 0.11516 0.57025 0.0
C1573 C 0.26864 0.14671 0.55187 0.0
C1574 C 0.22546 0.07809 0.53776 0.0
C1575 C 0.19658 0.1377 0.58587 0.0
C1576 C 0.19277 0.13744 0.62978 0.0
C1577 C 0.15693 0.15366 0.65087 0.0
C1578 C 0.12389 0.16987 0.62628 0.0
C1579 C 0.1269 0.16941 0.58114 0.0
C1580 C 0.16441 0.15423 0.56114 0.0
H1581 H 0.12245 0.98428 0.96913 0.0
H1582 H 0.17081 0.9585 0.09491 0.0
H1583 H 0.12322 0.89596 0.09703 0.0
H1584 H 0.03307 0.96547 0.94709 0.0
H1585 H 0.00731 0.9352 0.98755 0.0
H1586 H 0.00602 0.9156 0.93258 0.0
H1587 H 0.10216 0.93665 0.91071 0.0
H1588 H 0.07489 0.88732 0.89685 0.0
H1589 H 0.12368 0.88746 0.92762 0.0
H1590 H 0.0916 0.82695 0.07664 0.0
H1591 H 0.08086 0.75985 0.03473 0.0
H1592 H 0.03861 0.82939 0.92685 0.0
C1593 C 0.12194 0.96613 -0.00241 0.0
C1594 C 0.1506 0.97624 0.03167 0.0
C1595 C 0.14926 0.95158 0.06831 0.0
C1596 C 0.12181 0.91613 0.07008 0.0
C1597 C 0.09502 0.90594 0.03535 0.0
C1598 C 0.0941 0.93075 6e-05 0.0
C1599 C 0.06774 0.90911 0.96427 0.0
C1600 C 0.02607 0.9328 0.9575 0.0
C1601 C 0.09368 0.90486 0.92248 0.0
C1602 C 0.05865 0.86631 0.98299 0.0
C1603 C 0.07349 0.86559 0.02461 0.0
C1604 C 0.07821 0.82736 0.04476 0.0
C1605 C 0.07165 0.78902 0.02064 0.0
C1606 C 0.05999 0.78931 0.97695 0.0
C1607 C 0.0485 0.82828 0.95991 0.0
H1608 H 0.68953 0.35107 0.6462 0.0
H1609 H 0.74402 0.32127 0.76825 0.0
H1610 H 0.79246 0.27086 0.73153 0.0
H1611 H 0.70518 0.23768 0.59104 0.0
H1612 H 0.7164 0.26214 0.54152 0.0
H1613 H 0.67858 0.28573 0.57845 0.0
H1614 H 0.72211 0.35704 0.57751 0.0
H1615 H 0.76 0.33293 0.54165 0.0
H1616 H 0.77802 0.35777 0.59181 0.0
H1617 H 0.84818 0.244 0.68222 0.0
H1618 H 0.90204 0.23997 0.62599 0.0
H1619 H 0.80632 0.27305 0.53321 0.0
C1620 C 0.71038 0.33246 0.66523 0.0
C1621 C 0.71315 0.34017 0.71001 0.0
C1622 C 0.74116 0.31574 0.73394 0.0
C1623 C 0.76881 0.28694 0.71331 0.0
C1624 C 0.76711 0.28186 0.66884 0.0
C1625 C 0.7375 0.3028 0.6451 0.0
C1626 C 0.74555 0.29565 0.59758 0.0
C1627 C 0.70927 0.26869 0.57592 0.0
C1628 C 0.75182 0.33836 0.57594 0.0
C1629 C 0.78662 0.27094 0.5985 0.0
C1630 C 0.79817 0.2627 0.63987 0.0
C1631 C 0.83888 0.24864 0.64951 0.0
C1632 C 0.86948 0.24614 0.61688 0.0
C1633 C 0.85914 0.25724 0.57474 0.0
C1634 C 0.81587 0.26543 0.56512 0.0
H1635 H 0.70821 0.45212 0.05192 0.0
H1636 H 0.6286 0.39868 0.14916 0.0
H1637 H 0.59713 0.46946 0.16502 0.0
H1638 H 0.7259 0.55423 0.12008 0.0
H1639 H 0.73215 0.58463 0.07318 0.0
H1640 H 0.74869 0.5301 0.07229 0.0
H1641 H 0.70403 0.51747 0.00592 0.0
H1642 H 0.67907 0.56847 0.00755 0.0
H1643 H 0.64723 0.52011 0.00757 0.0
H1644 H 0.5736 0.54567 0.16817 0.0
H1645 H 0.56582 0.62316 0.16582 0.0
H1646 H 0.6595 0.62576 0.06376 0.0
C1647 C 0.68428 0.45558 0.07669 0.0
C1648 C 0.6697 0.42023 0.09889 0.0
C1649 C 0.63948 0.42569 0.13185 0.0
C1650 C 0.62155 0.4656 0.14085 0.0
C1651 C 0.63562 0.49975 0.11746 0.0
C1652 C 0.66738 0.49542 0.08707 0.0
C1653 C 0.67924 0.53773 0.06888 0.0
C1654 C 0.72413 0.55253 0.08455 0.0
C1655 C 0.67706 0.53592 0.01969 0.0
C1656 C 0.64545 0.56543 0.08983 0.0
C1657 C 0.62193 0.54341 0.11912 0.0
C1658 C 0.59173 0.56332 0.14533 0.0
C1659 C 0.58699 0.6074 0.14318 0.0
C1660 C 0.61196 0.63107 0.11458 0.0
C1661 C 0.64006 0.60903 0.08629 0.0
H1662 H 0.28079 0.90007 0.79043 0.0
H1663 H 0.31277 0.80546 0.6908 0.0
H1664 H 0.26184 0.7542 0.72217 0.0
H1665 H 0.26726 0.8307 0.87866 0.0
H1666 H 0.22377 0.86162 0.89901 0.0
H1667 H 0.26502 0.88642 0.86839 0.0
H1668 H 0.20322 0.91175 0.81951 0.0
H1669 H 0.16399 0.88279 0.84913 0.0
H1670 H 0.16872 0.87245 0.79227 0.0
H1671 H 0.2018 0.71539 0.76175 0.0
H1672 H 0.14633 0.69031 0.81134 0.0
H1673 H 0.16289 0.80886 0.88781 0.0
C1674 C 0.27718 0.86859 0.77505 0.0
C1675 C 0.3005 0.85686 0.73801 0.0
C1676 C 0.29479 0.81531 0.71892 0.0
C1677 C 0.26578 0.78611 0.73624 0.0
C1678 C 0.2427 0.79906 0.77239 0.0
C1679 C 0.2486 0.83922 0.79182 0.0
C1680 C 0.21995 0.84578 0.83014 0.0
C1681 C 0.24561 0.85675 0.87139 0.0
C1682 C 0.18703 0.88022 0.82226 0.0
C1683 C 0.19864 0.8023 0.83053 0.0
C1684 C 0.21081 0.7761 0.79634 0.0
C1685 C 0.19247 0.73552 0.78893 0.0
C1686 C 0.16108 0.72145 0.81745 0.0
C1687 C 0.14943 0.74744 0.85372 0.0
C1688 C 0.16931 0.78816 0.86008 0.0
H1689 H 0.25321 0.16221 0.28048 0.0
H1690 H 0.31381 0.13665 0.15793 0.0
H1691 H 0.37743 0.17927 0.18313 0.0
H1692 H 0.29841 0.2705 0.30311 0.0
H1693 H 0.30502 0.26193 0.35917 0.0
H1694 H 0.26198 0.23529 0.32929 0.0
H1695 H 0.28815 0.16165 0.35122 0.0
H1696 H 0.33012 0.18803 0.38221 0.0
H1697 H 0.343 0.14779 0.34159 0.0
H1698 H 0.43781 0.21766 0.22564 0.0
H1699 H 0.49041 0.23782 0.28297 0.0
H1700 H 0.38959 0.23782 0.37659 0.0
C1701 C 0.27944 0.16634 0.25852 0.0
C1702 C 0.27831 0.1466 0.21706 0.0
C1703 C 0.31371 0.15203 0.18965 0.0
C1704 C 0.34995 0.17625 0.2037 0.0
C1705 C 0.35006 0.19512 0.24508 0.0
C1706 C 0.31561 0.1902 0.27202 0.0
C1707 C 0.32511 0.20895 0.31652 0.0
C1708 C 0.29586 0.2464 0.32772 0.0
C1709 C 0.32141 0.17457 0.3498 0.0
C1710 C 0.37086 0.22412 0.31109 0.0
C1711 C 0.38456 0.21682 0.26943 0.0
C1712 C 0.42716 0.224 0.25812 0.0
C1713 C 0.45682 0.23585 0.2907 0.0
C1714 C 0.44375 0.23993 0.33384 0.0
C1715 C 0.39995 0.23653 0.34359 0.0
loop_
_geom_bond_atom_site_label_1
_geom_bond_atom_site_label_2
_geom_bond_distance
_geom_bond_site_symmetry_2
_ccdc_geom_bond_type
C0 O1 1.306 . S
C0 O3 1.160 . S
O1 C0 1.306 . S
O1 Cd2 2.228 . S
Cd2 O1 2.228 . S
Cd2 O6 2.273 . S
Cd2 O10 2.277 1_455 S
O3 C0 1.160 . S
O3 Cd4 2.203 1_455 S
Cd4 O3 2.203 1_655 S
Cd4 O6 2.411 1_655 S
Cd4 O7 2.333 . S
Cd4 O8 2.352 1_655 S
Cd4 O12 2.277 . S
Cd4 O13 2.356 . S
C5 O10 1.209 . S
C5 O12 1.226 . S
O6 Cd2 2.273 . S
O6 Cd4 2.411 1_455 S
O6 C9 1.333 . S
O7 Cd4 2.333 . S
O7 C9 1.198 1_655 S
O8 Cd4 2.352 1_455 S
O8 C11 1.258 1_455 S
C9 O6 1.333 . S
C9 O7 1.198 1_455 S
O10 Cd2 2.277 1_655 S
O10 C5 1.209 . S
C11 O8 1.258 1_655 S
C11 O13 1.282 . S
O12 Cd4 2.277 . S
O12 C5 1.226 . S
O13 Cd4 2.356 . S
O13 C11 1.282 . S
C14 O15 1.306 . S
C14 O17 1.160 . S
O15 C14 1.306 . S
O15 Cd16 2.228 . S
Cd16 O15 2.228 . S
Cd16 O20 2.273 . S
Cd16 O24 2.277 1_455 S
O17 C14 1.160 . S
O17 Cd18 2.203 1_455 S
Cd18 O17 2.203 1_655 S
Cd18 O20 2.411 1_655 S
Cd18 O21 2.333 . S
Cd18 O22 2.352 1_655 S
Cd18 O26 2.277 . S
Cd18 O27 2.356 . S
C19 O24 1.209 . S
C19 O26 1.226 . S
O20 Cd16 2.273 . S
O20 Cd18 2.411 1_455 S
O20 C23 1.320 . S
O21 Cd18 2.333 . S
O21 C23 1.214 1_655 S
O22 Cd18 2.352 1_455 S
O22 C25 1.258 1_455 S
C23 O20 1.320 . S
C23 O21 1.214 1_455 S
O24 Cd16 2.277 1_655 S
O24 C19 1.209 . S
C25 O22 1.258 1_655 S
C25 O27 1.282 . S
O26 Cd18 2.277 . S
O26 C19 1.226 . S
O27 Cd18 2.356 . S
O27 C25 1.282 . S
C28 O29 1.306 . S
C28 O31 1.160 . S
O29 C28 1.306 . S
O29 Cd30 2.228 . S
Cd30 O29 2.228 . S
Cd30 O34 2.273 . S
Cd30 O38 2.277 . S
O31 C28 1.160 . S
O31 Cd32 2.203 . S
Cd32 O31 2.203 . S
Cd32 O34 2.411 . S
Cd32 O35 2.333 . S
Cd32 O36 2.352 . S
Cd32 O40 2.277 . S
Cd32 O41 2.356 . S
C33 O38 1.209 . S
C33 O40 1.226 . S
O34 Cd30 2.273 . S
O34 Cd32 2.411 . S
O34 C37 1.320 . S
O35 Cd32 2.333 . S
O35 C37 1.214 . S
O36 Cd32 2.352 . S
O36 C39 1.258 . S
C37 O34 1.320 . S
C37 O35 1.214 . S
O38 Cd30 2.277 . S
O38 C33 1.209 . S
C39 O36 1.258 . S
C39 O41 1.282 . S
O40 Cd32 2.277 . S
O40 C33 1.226 . S
O41 Cd32 2.356 . S
O41 C39 1.282 . S
C42 O43 1.306 . S
C42 O45 1.160 . S
O43 C42 1.306 . S
O43 Cd44 2.228 . S
Cd44 O43 2.228 . S
Cd44 O48 2.273 . S
Cd44 O52 2.277 . S
O45 C42 1.160 . S
O45 Cd46 2.203 . S
Cd46 O45 2.203 . S
Cd46 O48 2.411 . S
Cd46 O49 2.333 . S
Cd46 O50 2.352 . S
Cd46 O54 2.277 . S
Cd46 O55 2.356 . S
C47 O52 1.209 . S
C47 O54 1.226 . S
O48 Cd44 2.273 . S
O48 Cd46 2.411 . S
O48 C51 1.320 . S
O49 Cd46 2.333 . S
O49 C51 1.214 . S
O50 Cd46 2.352 . S
O50 C53 1.258 . S
C51 O48 1.320 . S
C51 O49 1.214 . S
O52 Cd44 2.277 . S
O52 C47 1.209 . S
C53 O50 1.258 . S
C53 O55 1.282 . S
O54 Cd46 2.277 . S
O54 C47 1.226 . S
O55 Cd46 2.356 . S
O55 C53 1.282 . S
C56 O57 1.306 . S
C56 O59 1.160 1_545 S
O57 C56 1.306 . S
O57 Cd58 2.228 . S
Cd58 O57 2.228 . S
Cd58 O62 2.273 . S
Cd58 O66 2.277 . S
O59 C56 1.160 1_565 S
O59 Cd60 2.203 . S
Cd60 O59 2.203 . S
Cd60 O62 2.411 1_565 S
Cd60 O63 2.333 1_565 S
Cd60 O64 2.352 . S
Cd60 O68 2.277 . S
Cd60 O69 2.356 . S
C61 O66 1.209 . S
C61 O68 1.226 1_545 S
O62 Cd58 2.273 . S
O62 Cd60 2.411 1_545 S
O62 C65 1.320 . S
O63 Cd60 2.333 1_545 S
O63 C65 1.214 . S
O64 Cd60 2.352 . S
O64 C67 1.258 . S
C65 O62 1.320 . S
C65 O63 1.214 . S
O66 Cd58 2.277 . S
O66 C61 1.209 . S
C67 O64 1.258 . S
C67 O69 1.282 . S
O68 Cd60 2.277 . S
O68 C61 1.226 1_565 S
O69 Cd60 2.356 . S
O69 C67 1.282 . S
C70 O71 1.306 . S
C70 O73 1.160 . S
O71 C70 1.306 . S
O71 Cd72 2.228 . S
Cd72 O71 2.228 . S
Cd72 O76 2.273 . S
Cd72 O80 2.277 . S
O73 C70 1.160 . S
O73 Cd74 2.203 . S
Cd74 O73 2.203 . S
Cd74 O76 2.411 . S
Cd74 O77 2.333 . S
Cd74 O78 2.352 . S
Cd74 O82 2.277 . S
Cd74 O83 2.356 . S
C75 O80 1.209 . S
C75 O82 1.226 . S
O76 Cd72 2.273 . S
O76 Cd74 2.411 . S
O76 C79 1.320 . S
O77 Cd74 2.333 . S
O77 C79 1.214 . S
O78 Cd74 2.352 . S
O78 C81 1.258 . S
C79 O76 1.320 . S
C79 O77 1.214 . S
O80 Cd72 2.277 . S
O80 C75 1.209 . S
C81 O78 1.258 . S
C81 O83 1.282 . S
O82 Cd74 2.277 . S
O82 C75 1.226 . S
O83 Cd74 2.356 . S
O83 C81 1.282 . S
C84 O85 1.306 . S
C84 O87 1.160 1_565 S
O85 C84 1.306 . S
O85 Cd86 2.228 . S
Cd86 O85 2.228 . S
Cd86 O90 2.273 . S
Cd86 O94 2.277 . S
O87 C84 1.160 1_545 S
O87 Cd88 2.203 . S
Cd88 O87 2.203 . S
Cd88 O90 2.411 1_545 S
Cd88 O91 2.333 1_545 S
Cd88 O92 2.352 . S
Cd88 O96 2.277 . S
Cd88 O97 2.356 . S
C89 O94 1.209 1_545 S
C89 O96 1.226 . S
O90 Cd86 2.273 . S
O90 Cd88 2.411 1_565 S
O90 C93 1.320 . S
O91 Cd88 2.333 1_565 S
O91 C93 1.214 . S
O92 Cd88 2.352 . S
O92 C95 1.258 . S
C93 O90 1.320 . S
C93 O91 1.214 . S
O94 Cd86 2.277 . S
O94 C89 1.209 1_565 S
C95 O92 1.258 . S
C95 O97 1.282 . S
O96 Cd88 2.277 . S
O96 C89 1.226 . S
O97 Cd88 2.356 . S
O97 C95 1.282 . S
C98 O99 1.306 . S
C98 O101 1.160 1_554 S
O99 C98 1.306 . S
O99 Cd100 2.228 . S
Cd100 O99 2.228 . S
Cd100 O104 2.273 . S
Cd100 O108 2.277 . S
O101 C98 1.160 1_556 S
O101 Cd102 2.203 . S
Cd102 O101 2.203 . S
Cd102 O104 2.411 1_556 S
Cd102 O105 2.333 1_556 S
Cd102 O106 2.352 . S
Cd102 O110 2.277 . S
Cd102 O111 2.356 . S
C103 O108 1.209 1_556 S
C103 O110 1.226 . S
O104 Cd100 2.273 . S
O104 Cd102 2.411 1_554 S
O104 C107 1.320 . S
O105 Cd102 2.333 1_554 S
O105 C107 1.214 . S
O106 Cd102 2.352 . S
O106 C109 1.258 . S
C107 O104 1.320 . S
C107 O105 1.214 . S
O108 Cd100 2.277 . S
O108 C103 1.209 1_554 S
C109 O106 1.258 . S
C109 O111 1.282 . S
O110 Cd102 2.277 . S
O110 C103 1.226 . S
O111 Cd102 2.356 . S
O111 C109 1.282 . S
C112 O113 1.306 1_554 S
C112 O115 1.160 . S
O113 C112 1.306 1_556 S
O113 Cd114 2.228 . S
Cd114 O113 2.228 . S
Cd114 O118 2.273 . S
Cd114 O122 2.277 . S
O115 C112 1.160 . S
O115 Cd116 2.203 . S
Cd116 O115 2.203 . S
Cd116 O118 2.411 1_554 S
Cd116 O119 2.330 1_554 S
Cd116 O120 2.352 . S
Cd116 O124 2.277 . S
Cd116 O125 2.356 . S
C117 O122 1.209 1_554 S
C117 O124 1.226 . S
O118 Cd114 2.273 . S
O118 Cd116 2.411 1_556 S
O118 C121 1.320 . S
O119 Cd116 2.330 1_556 S
O119 C121 1.219 . S
O120 Cd116 2.352 . S
O120 C123 1.258 . S
C121 O118 1.320 . S
C121 O119 1.219 . S
O122 Cd114 2.277 . S
O122 C117 1.209 1_556 S
C123 O120 1.258 . S
C123 O125 1.282 . S
O124 Cd116 2.277 . S
O124 C117 1.226 . S
O125 Cd116 2.356 . S
O125 C123 1.282 . S
C126 O127 1.306 . S
C126 O129 1.160 . S
O127 C126 1.306 . S
O127 Cd128 2.228 . S
Cd128 O127 2.228 . S
Cd128 O132 2.273 . S
Cd128 O136 2.277 . S
O129 C126 1.160 . S
O129 Cd130 2.203 . S
Cd130 O129 2.203 . S
Cd130 O132 2.411 . S
Cd130 O133 2.333 . S
Cd130 O134 2.352 . S
Cd130 O138 2.277 . S
Cd130 O139 2.356 . S
C131 O136 1.209 . S
C131 O138 1.226 . S
O132 Cd128 2.273 . S
O132 Cd130 2.411 . S
O132 C135 1.320 . S
O133 Cd130 2.333 . S
O133 C135 1.214 . S
O134 Cd130 2.352 . S
O134 C137 1.258 . S
C135 O132 1.320 . S
C135 O133 1.214 . S
O136 Cd128 2.277 . S
O136 C131 1.209 . S
C137 O134 1.258 . S
C137 O139 1.282 . S
O138 Cd130 2.277 . S
O138 C131 1.226 . S
O139 Cd130 2.356 . S
O139 C137 1.282 . S
C140 O141 1.306 . S
C140 O143 1.160 . S
O141 C140 1.306 . S
O141 Cd142 2.228 . S
Cd142 O141 2.228 . S
Cd142 O146 2.273 . S
Cd142 O150 2.277 . S
O143 C140 1.160 . S
O143 Cd144 2.203 . S
Cd144 O143 2.203 . S
Cd144 O146 2.411 . S
Cd144 O147 2.333 . S
Cd144 O148 2.352 . S
Cd144 O152 2.277 . S
Cd144 O153 2.356 . S
C145 O150 1.209 . S
C145 O152 1.226 . S
O146 Cd142 2.273 . S
O146 Cd144 2.411 . S
O146 C149 1.320 . S
O147 Cd144 2.333 . S
O147 C149 1.214 . S
O148 Cd144 2.352 . S
O148 C151 1.258 . S
C149 O146 1.320 . S
C149 O147 1.214 . S
O150 Cd142 2.277 . S
O150 C145 1.209 . S
C151 O148 1.258 . S
C151 O153 1.282 . S
O152 Cd144 2.277 . S
O152 C145 1.226 . S
O153 Cd144 2.356 . S
O153 C151 1.282 . S
C154 O155 1.306 . S
C154 O157 1.160 . S
O155 C154 1.306 . S
O155 Cd156 2.228 . S
Cd156 O155 2.228 . S
Cd156 O160 2.273 . S
Cd156 O164 2.277 . S
O157 C154 1.160 . S
O157 Cd158 2.203 . S
Cd158 O157 2.203 . S
Cd158 O160 2.411 . S
Cd158 O161 2.333 . S
Cd158 O162 2.352 . S
Cd158 O166 2.277 . S
Cd158 O167 2.356 . S
C159 O164 1.209 . S
C159 O166 1.226 . S
O160 Cd156 2.273 . S
O160 Cd158 2.411 . S
O160 C163 1.320 . S
O161 Cd158 2.333 . S
O161 C163 1.214 . S
O162 Cd158 2.352 . S
O162 C165 1.258 . S
C163 O160 1.320 . S
C163 O161 1.214 . S
O164 Cd156 2.277 . S
O164 C159 1.209 . S
C165 O162 1.258 . S
C165 O167 1.282 . S
O166 Cd158 2.277 . S
O166 C159 1.226 . S
O167 Cd158 2.356 . S
O167 C165 1.282 . S
H168 C176 0.930 . S
H169 C179 0.930 . S
H170 C181 0.930 . S
H171 C182 0.970 . S
H172 C182 0.970 . S
H173 C184 0.930 1_455 S
H174 C186 0.930 . S
H175 C188 0.938 . S
C176 H168 0.930 . S
C176 C177 1.382 . S
C176 C178 1.426 . S
C177 C176 1.382 . S
C177 C181 1.389 . S
C178 C176 1.426 . S
C178 C179 1.375 . S
C178 C182 1.532 . S
C179 H169 0.930 . S
C179 C178 1.375 . S
C179 C180 1.416 . S
C180 C179 1.416 . S
C180 C181 1.371 . S
C181 H170 0.930 . S
C181 C177 1.389 . S
C181 C180 1.371 . S
C182 H171 0.970 . S
C182 H172 0.970 . S
C182 C178 1.532 . S
C182 C183 1.499 . S
C183 C182 1.499 . S
C183 C184 1.370 1_455 S
C183 C188 1.422 . S
C184 H173 0.930 1_655 S
C184 C183 1.370 1_655 S
C184 C185 1.407 . S
C185 C184 1.407 . S
C185 C186 1.365 . S
C186 H174 0.930 . S
C186 C185 1.365 . S
C186 C187 1.393 . S
C187 C186 1.393 . S
C187 C188 1.373 1_655 S
C188 H175 0.938 . S
C188 C183 1.422 . S
C188 C187 1.373 1_455 S
H189 C197 0.930 . S
H190 C200 0.930 1_554 S
H191 C202 0.930 . S
H192 C203 0.970 . S
H193 C203 0.970 . S
H194 C205 0.930 1_455 S
H195 C207 0.930 . S
H196 C209 0.930 1_554 S
C197 H189 0.930 . S
C197 C198 1.382 . S
C197 C199 1.426 . S
C198 C197 1.382 . S
C198 C202 1.389 . S
C199 C197 1.426 . S
C199 C200 1.375 . S
C199 C203 1.532 . S
C200 H190 0.930 1_556 S
C200 C199 1.375 . S
C200 C201 1.416 . S
C201 C200 1.416 . S
C201 C202 1.371 . S
C202 H191 0.930 . S
C202 C198 1.389 . S
C202 C201 1.371 . S
C203 H192 0.970 . S
C203 H193 0.970 . S
C203 C199 1.532 . S
C203 C204 1.499 . S
C204 C203 1.499 . S
C204 C205 1.370 1_455 S
C204 C209 1.415 . S
C205 H194 0.930 1_655 S
C205 C204 1.370 1_655 S
C205 C206 1.407 . S
C206 C205 1.407 . S
C206 C207 1.365 . S
C207 H195 0.930 . S
C207 C206 1.365 . S
C207 C208 1.393 . S
C208 C207 1.393 . S
C208 C209 1.387 1_655 S
C209 H196 0.930 1_556 S
C209 C204 1.415 . S
C209 C208 1.387 1_455 S
H210 C218 0.930 1_556 S
H211 C221 0.930 . S
H212 C223 0.930 . S
H213 C224 0.970 . S
H214 C224 0.970 . S
H215 C226 0.930 1_556 S
H216 C228 0.930 . S
H217 C230 0.930 . S
C218 H210 0.930 1_554 S
C218 C219 1.382 . S
C218 C220 1.426 . S
C219 C218 1.382 . S
C219 C223 1.389 . S
C220 C218 1.426 . S
C220 C221 1.375 . S
C220 C224 1.532 . S
C221 H211 0.930 . S
C221 C220 1.375 . S
C221 C222 1.416 . S
C222 C221 1.416 . S
C222 C223 1.371 . S
C223 H212 0.930 . S
C223 C219 1.389 . S
C223 C222 1.371 . S
C224 H213 0.970 . S
C224 H214 0.970 . S
C224 C220 1.532 . S
C224 C225 1.499 . S
C225 C224 1.499 . S
C225 C226 1.370 . S
C225 C230 1.415 . S
C226 H215 0.930 1_554 S
C226 C225 1.370 . S
C226 C227 1.407 . S
C227 C226 1.407 . S
C227 C228 1.365 . S
C228 H216 0.930 . S
C228 C227 1.365 . S
C228 C229 1.393 . S
C229 C228 1.393 . S
C229 C230 1.387 . S
C230 H217 0.930 . S
C230 C225 1.415 . S
C230 C229 1.387 . S
H231 C239 0.930 . S
H232 C242 0.930 . S
H233 C244 0.930 . S
H234 C245 0.970 . S
H235 C245 0.970 . S
H236 C247 0.930 . S
H237 C249 0.930 . S
H238 C251 0.930 . S
C239 H231 0.930 . S
C239 C240 1.382 . S
C239 C241 1.426 . S
C240 C239 1.382 . S
C240 C244 1.389 . S
C241 C239 1.426 . S
C241 C242 1.375 . S
C241 C245 1.532 . S
C242 H232 0.930 . S
C242 C241 1.375 . S
C242 C243 1.416 . S
C243 C242 1.416 . S
C243 C244 1.371 . S
C244 H233 0.930 . S
C244 C240 1.389 . S
C244 C243 1.371 . S
C245 H234 0.970 . S
C245 H235 0.970 . S
C245 C241 1.532 . S
C245 C246 1.499 . S
C246 C245 1.499 . S
C246 C247 1.370 . S
C246 C251 1.415 . S
C247 H236 0.930 . S
C247 C246 1.370 . S
C247 C248 1.407 . S
C248 C247 1.407 . S
C248 C249 1.365 . S
C249 H237 0.930 . S
C249 C248 1.365 . S
C249 C250 1.393 . S
C250 C249 1.393 . S
C250 C251 1.387 . S
C251 H238 0.930 . S
C251 C246 1.415 . S
C251 C250 1.387 . S
H252 C260 0.930 . S
H253 C263 0.930 . S
H254 C265 0.930 . S
H255 C266 0.970 . S
H256 C266 0.970 . S
H257 C268 0.930 . S
H258 C270 0.930 . S
H259 C272 0.930 . S
C260 H252 0.930 . S
C260 C261 1.382 . S
C260 C262 1.425 1_545 S
C261 C260 1.382 . S
C261 C265 1.389 . S
C262 C260 1.425 1_565 S
C262 C263 1.375 1_565 S
C262 C266 1.534 . S
C263 H253 0.930 . S
C263 C262 1.375 1_545 S
C263 C264 1.416 . S
C264 C263 1.416 . S
C264 C265 1.371 . S
C265 H254 0.930 . S
C265 C261 1.389 . S
C265 C264 1.371 . S
C266 H255 0.970 . S
C266 H256 0.970 . S
C266 C262 1.534 . S
C266 C267 1.499 . S
C267 C266 1.499 . S
C267 C268 1.370 . S
C267 C272 1.415 . S
C268 H257 0.930 . S
C268 C267 1.370 . S
C268 C269 1.407 . S
C269 C268 1.407 . S
C269 C270 1.365 . S
C270 H258 0.930 . S
C270 C269 1.365 . S
C270 C271 1.393 . S
C271 C270 1.393 . S
C271 C272 1.387 . S
C272 H259 0.930 . S
C272 C267 1.415 . S
C272 C271 1.387 . S
H273 C281 0.930 . S
H274 C284 0.930 . S
H275 C286 0.930 . S
H276 C287 0.970 . S
H277 C287 0.970 . S
H278 C289 0.930 . S
H279 C291 0.930 . S
H280 C293 0.930 . S
C281 H273 0.930 . S
C281 C282 1.382 . S
C281 C283 1.426 . S
C282 C281 1.382 . S
C282 C286 1.389 . S
C283 C281 1.426 . S
C283 C284 1.375 . S
C283 C287 1.532 . S
C284 H274 0.930 . S
C284 C283 1.375 . S
C284 C285 1.416 . S
C285 C284 1.416 . S
C285 C286 1.371 . S
C286 H275 0.930 . S
C286 C282 1.389 . S
C286 C285 1.371 . S
C287 H276 0.970 . S
C287 H277 0.970 . S
C287 C283 1.532 . S
C287 C288 1.499 . S
C288 C287 1.499 . S
C288 C289 1.370 . S
C288 C293 1.415 . S
C289 H278 0.930 . S
C289 C288 1.370 . S
C289 C290 1.407 . S
C290 C289 1.407 . S
C290 C291 1.365 . S
C291 H279 0.930 . S
C291 C290 1.365 . S
C291 C292 1.393 . S
C292 C291 1.393 . S
C292 C293 1.387 . S
C293 H280 0.930 . S
C293 C288 1.415 . S
C293 C292 1.387 . S
H294 C302 0.937 . S
H295 C305 0.930 . S
H296 C307 0.930 . S
H297 C308 0.970 . S
H298 C308 0.970 . S
H299 C310 0.930 . S
H300 C312 0.930 . S
H301 C314 0.930 . S
C302 H294 0.937 . S
C302 C303 1.382 . S
C302 C304 1.426 1_465 S
C303 C302 1.382 . S
C303 C307 1.389 1_455 S
C304 C302 1.426 1_645 S
C304 C305 1.375 1_545 S
C304 C308 1.532 . S
C305 H295 0.930 . S
C305 C304 1.375 1_565 S
C305 C306 1.416 . S
C306 C305 1.416 . S
C306 C307 1.371 . S
C307 H296 0.930 . S
C307 C303 1.389 1_655 S
C307 C306 1.371 . S
C308 H297 0.970 . S
C308 H298 0.970 . S
C308 C304 1.532 . S
C308 C309 1.499 . S
C309 C308 1.499 . S
C309 C310 1.370 1_655 S
C309 C314 1.415 . S
C310 H299 0.930 . S
C310 C309 1.370 1_455 S
C310 C311 1.407 . S
C311 C310 1.407 . S
C311 C312 1.365 1_455 S
C312 H300 0.930 . S
C312 C311 1.365 1_655 S
C312 C313 1.393 . S
C313 C312 1.393 . S
C313 C314 1.387 . S
C314 H301 0.930 . S
C314 C309 1.415 . S
C314 C313 1.387 . S
H315 C323 0.930 . S
H316 C326 0.930 . S
H317 C328 0.930 . S
H318 C329 0.970 . S
H319 C329 0.970 . S
H320 C331 0.930 1_554 S
H321 C333 0.930 . S
H322 C335 0.930 1_554 S
C323 H315 0.930 . S
C323 C324 1.382 . S
C323 C325 1.426 . S
C324 C323 1.382 . S
C324 C328 1.389 . S
C325 C323 1.426 . S
C325 C326 1.375 . S
C325 C329 1.532 . S
C326 H316 0.930 . S
C326 C325 1.375 . S
C326 C327 1.416 . S
C327 C326 1.416 . S
C327 C328 1.371 . S
C328 H317 0.930 . S
C328 C324 1.389 . S
C328 C327 1.371 . S
C329 H318 0.970 . S
C329 H319 0.970 . S
C329 C325 1.532 . S
C329 C330 1.499 . S
C330 C329 1.499 . S
C330 C331 1.370 1_554 S
C330 C335 1.415 1_554 S
C331 H320 0.930 1_556 S
C331 C330 1.370 1_556 S
C331 C332 1.407 . S
C332 C331 1.407 . S
C332 C333 1.365 . S
C333 H321 0.930 . S
C333 C332 1.365 . S
C333 C334 1.393 . S
C334 C333 1.393 . S
C334 C335 1.387 . S
C335 H322 0.930 1_556 S
C335 C330 1.415 1_556 S
C335 C334 1.387 . S
H336 C344 0.930 . S
H337 C347 0.930 1_545 S
H338 C349 0.930 . S
H339 C350 0.970 . S
H340 C350 0.970 . S
H341 C352 0.940 . S
H342 C354 0.930 . S
H343 C356 0.930 1_545 S
C344 H336 0.930 . S
C344 C345 1.382 . S
C344 C346 1.426 . S
C345 C344 1.382 . S
C345 C349 1.389 . S
C346 C344 1.426 . S
C346 C347 1.375 . S
C346 C350 1.532 . S
C347 H337 0.930 1_565 S
C347 C346 1.375 . S
C347 C348 1.416 . S
C348 C347 1.416 . S
C348 C349 1.371 . S
C349 H338 0.930 . S
C349 C345 1.389 . S
C349 C348 1.371 . S
C350 H339 0.970 . S
C350 H340 0.970 . S
C350 C346 1.532 . S
C350 C351 1.499 . S
C351 C350 1.499 . S
C351 C352 1.379 . S
C351 C356 1.415 . S
C352 H341 0.940 . S
C352 C351 1.379 . S
C352 C353 1.389 1_554 S
C353 C352 1.389 1_556 S
C353 C354 1.365 . S
C354 H342 0.930 . S
C354 C353 1.365 . S
C354 C355 1.393 . S
C355 C354 1.393 . S
C355 C356 1.387 1_556 S
C356 H343 0.930 1_565 S
C356 C351 1.415 . S
C356 C355 1.387 1_554 S
H357 C365 0.930 . S
H358 C368 0.930 . S
H359 C370 0.930 . S
H360 C371 0.970 . S
H361 C371 0.970 . S
H362 C373 0.930 . S
H363 C375 0.930 . S
H364 C377 0.930 . S
C365 H357 0.930 . S
C365 C366 1.382 . S
C365 C367 1.426 . S
C366 C365 1.382 . S
C366 C370 1.389 . S
C367 C365 1.426 . S
C367 C368 1.375 . S
C367 C371 1.532 . S
C368 H358 0.930 . S
C368 C367 1.375 . S
C368 C369 1.416 . S
C369 C368 1.416 . S
C369 C370 1.371 . S
C370 H359 0.930 . S
C370 C366 1.389 . S
C370 C369 1.371 . S
C371 H360 0.970 . S
C371 H361 0.970 . S
C371 C367 1.532 . S
C371 C372 1.499 . S
C372 C371 1.499 . S
C372 C373 1.370 . S
C372 C377 1.415 . S
C373 H362 0.930 . S
C373 C372 1.370 . S
C373 C374 1.407 . S
C374 C373 1.407 . S
C374 C375 1.365 . S
C375 H363 0.930 . S
C375 C374 1.365 . S
C375 C376 1.393 . S
C376 C375 1.393 . S
C376 C377 1.387 . S
C377 H364 0.930 . S
C377 C372 1.415 . S
C377 C376 1.387 . S
H378 C386 0.930 . S
H379 C389 0.930 . S
H380 C391 0.930 . S
H381 C392 0.970 . S
H382 C392 0.970 . S
H383 C394 0.930 . S
H384 C396 0.930 . S
H385 C398 0.930 . S
C386 H378 0.930 . S
C386 C387 1.382 . S
C386 C388 1.426 . S
C387 C386 1.382 . S
C387 C391 1.389 . S
C388 C386 1.426 . S
C388 C389 1.375 . S
C388 C392 1.532 . S
C389 H379 0.930 . S
C389 C388 1.375 . S
C389 C390 1.416 . S
C390 C389 1.416 . S
C390 C391 1.371 . S
C391 H380 0.930 . S
C391 C387 1.389 . S
C391 C390 1.371 . S
C392 H381 0.970 . S
C392 H382 0.970 . S
C392 C388 1.532 . S
C392 C393 1.499 . S
C393 C392 1.499 . S
C393 C394 1.370 . S
C393 C398 1.415 . S
C394 H383 0.930 . S
C394 C393 1.370 . S
C394 C395 1.407 . S
C395 C394 1.407 . S
C395 C396 1.365 . S
C396 H384 0.930 . S
C396 C395 1.365 . S
C396 C397 1.393 . S
C397 C396 1.393 . S
C397 C398 1.387 . S
C398 H385 0.930 . S
C398 C393 1.415 . S
C398 C397 1.387 . S
H399 C407 0.930 . S
H400 C410 0.930 . S
H401 C412 0.930 . S
H402 C413 0.970 . S
H403 C413 0.970 . S
H404 C415 0.930 . S
H405 C417 0.930 . S
H406 C419 0.930 . S
C407 H399 0.930 . S
C407 C408 1.382 . S
C407 C409 1.426 . S
C408 C407 1.382 . S
C408 C412 1.389 . S
C409 C407 1.426 . S
C409 C410 1.375 . S
C409 C413 1.532 . S
C410 H400 0.930 . S
C410 C409 1.375 . S
C410 C411 1.416 . S
C411 C410 1.416 . S
C411 C412 1.371 . S
C412 H401 0.930 . S
C412 C408 1.389 . S
C412 C411 1.371 . S
C413 H402 0.970 . S
C413 H403 0.970 . S
C413 C409 1.532 . S
C413 C414 1.499 . S
C414 C413 1.499 . S
C414 C415 1.370 . S
C414 C419 1.415 . S
C415 H404 0.930 . S
C415 C414 1.370 . S
C415 C416 1.407 . S
C416 C415 1.407 . S
C416 C417 1.365 . S
C417 H405 0.930 . S
C417 C416 1.365 . S
C417 C418 1.393 . S
C418 C417 1.393 . S
C418 C419 1.387 . S
C419 H406 0.930 . S
C419 C414 1.415 . S
C419 C418 1.387 . S
H420 C432 0.930 . S
H421 C434 0.930 . S
H422 C435 0.930 . S
H423 C439 0.959 . S
H424 C439 0.959 . S
H425 C439 0.961 . S
H426 C440 0.960 . S
H427 C440 0.961 . S
H428 C440 0.959 1_655 S
H429 C443 0.929 . S
H430 C444 0.931 . S
H431 C446 0.930 . S
C432 H420 0.930 . S
C432 C433 1.399 1_455 S
C432 C437 1.399 1_554 S
C433 C432 1.399 1_655 S
C433 C434 1.376 . S
C434 H421 0.930 . S
C434 C433 1.376 . S
C434 C435 1.388 . S
C435 H422 0.930 . S
C435 C434 1.388 . S
C435 C436 1.390 1_554 S
C436 C435 1.390 1_556 S
C436 C437 1.394 1_655 S
C436 C442 1.465 . S
C437 C432 1.399 1_556 S
C437 C436 1.394 1_455 S
C437 C438 1.516 . S
C438 C437 1.516 . S
C438 C439 1.502 . S
C438 C440 1.561 . S
C438 C441 1.526 . S
C439 H423 0.959 . S
C439 H424 0.959 . S
C439 H425 0.961 . S
C439 C438 1.502 . S
C440 H426 0.960 . S
C440 H427 0.961 . S
C440 H428 0.959 1_455 S
C440 C438 1.561 . S
C441 C438 1.526 . S
C441 C442 1.396 1_455 S
C441 C446 1.390 . S
C442 C436 1.465 . S
C442 C441 1.396 1_655 S
C442 C443 1.399 . S
C443 H429 0.929 . S
C443 C442 1.399 . S
C443 C444 1.385 . S
C444 H430 0.931 . S
C444 C443 1.385 . S
C444 C445 1.389 1_655 S
C445 C444 1.389 1_455 S
C445 C446 1.387 . S
C446 H431 0.930 . S
C446 C441 1.390 . S
C446 C445 1.387 . S
H447 C459 0.930 . S
H448 C461 0.930 . S
H449 C462 0.930 . S
H450 C466 0.959 . S
H451 C466 0.959 . S
H452 C466 0.961 . S
H453 C467 0.960 . S
H454 C467 0.961 . S
H455 C467 0.959 . S
H456 C470 0.929 . S
H457 C471 0.931 . S
H458 C473 0.930 . S
C459 H447 0.930 . S
C459 C460 1.399 . S
C459 C464 1.399 . S
C460 C459 1.399 . S
C460 C461 1.376 . S
C461 H448 0.930 . S
C461 C460 1.376 . S
C461 C462 1.388 . S
C462 H449 0.930 . S
C462 C461 1.388 . S
C462 C463 1.390 . S
C463 C462 1.390 . S
C463 C464 1.394 . S
C463 C469 1.465 . S
C464 C459 1.399 . S
C464 C463 1.394 . S
C464 C465 1.516 . S
C465 C464 1.516 . S
C465 C466 1.502 . S
C465 C467 1.561 . S
C465 C468 1.526 . S
C466 H450 0.959 . S
C466 H451 0.959 . S
C466 H452 0.961 . S
C466 C465 1.502 . S
C467 H453 0.960 . S
C467 H454 0.961 . S
C467 H455 0.959 . S
C467 C465 1.561 . S
C468 C465 1.526 . S
C468 C469 1.396 . S
C468 C473 1.390 . S
C469 C463 1.465 . S
C469 C468 1.396 . S
C469 C470 1.399 . S
C470 H456 0.929 . S
C470 C469 1.399 . S
C470 C471 1.385 . S
C471 H457 0.931 . S
C471 C470 1.385 . S
C471 C472 1.389 . S
C472 C471 1.389 . S
C472 C473 1.387 . S
C473 H458 0.930 . S
C473 C468 1.390 . S
C473 C472 1.387 . S
H474 C486 0.930 . S
H475 C488 0.930 . S
H476 C489 0.930 . S
H477 C493 0.959 . S
H478 C493 0.959 . S
H479 C493 0.961 . S
H480 C494 0.960 . S
H481 C494 0.961 . S
H482 C494 0.959 . S
H483 C497 0.929 . S
H484 C498 0.931 . S
H485 C500 0.930 . S
C486 H474 0.930 . S
C486 C487 1.399 . S
C486 C491 1.399 . S
C487 C486 1.399 . S
C487 C488 1.376 . S
C488 H475 0.930 . S
C488 C487 1.376 . S
C488 C489 1.388 . S
C489 H476 0.930 . S
C489 C488 1.388 . S
C489 C490 1.390 . S
C490 C489 1.390 . S
C490 C491 1.394 . S
C490 C496 1.465 . S
C491 C486 1.399 . S
C491 C490 1.394 . S
C491 C492 1.516 . S
C492 C491 1.516 . S
C492 C493 1.502 . S
C492 C494 1.561 . S
C492 C495 1.526 . S
C493 H477 0.959 . S
C493 H478 0.959 . S
C493 H479 0.961 . S
C493 C492 1.502 . S
C494 H480 0.960 . S
C494 H481 0.961 . S
C494 H482 0.959 . S
C494 C492 1.561 . S
C495 C492 1.526 . S
C495 C496 1.396 . S
C495 C500 1.390 . S
C496 C490 1.465 . S
C496 C495 1.396 . S
C496 C497 1.399 . S
C497 H483 0.929 . S
C497 C496 1.399 . S
C497 C498 1.385 . S
C498 H484 0.931 . S
C498 C497 1.385 . S
C498 C499 1.389 . S
C499 C498 1.389 . S
C499 C500 1.387 . S
C500 H485 0.930 . S
C500 C495 1.390 . S
C500 C499 1.387 . S
H501 C513 0.930 . S
H502 C515 0.930 . S
H503 C516 0.930 . S
H504 C520 0.959 . S
H505 C520 0.959 . S
H506 C520 0.961 . S
H507 C521 0.960 . S
H508 C521 0.961 . S
H509 C521 0.959 . S
H510 C524 0.929 . S
H511 C525 0.931 . S
H512 C527 0.930 . S
C513 H501 0.930 . S
C513 C514 1.399 . S
C513 C518 1.399 . S
C514 C513 1.399 . S
C514 C515 1.376 . S
C515 H502 0.930 . S
C515 C514 1.376 . S
C515 C516 1.388 . S
C516 H503 0.930 . S
C516 C515 1.388 . S
C516 C517 1.390 . S
C517 C516 1.390 . S
C517 C518 1.394 . S
C517 C523 1.465 . S
C518 C513 1.399 . S
C518 C517 1.394 . S
C518 C519 1.516 . S
C519 C518 1.516 . S
C519 C520 1.502 . S
C519 C521 1.561 . S
C519 C522 1.526 . S
C520 H504 0.959 . S
C520 H505 0.959 . S
C520 H506 0.961 . S
C520 C519 1.502 . S
C521 H507 0.960 . S
C521 H508 0.961 . S
C521 H509 0.959 . S
C521 C519 1.561 . S
C522 C519 1.526 . S
C522 C523 1.396 . S
C522 C527 1.390 . S
C523 C517 1.465 . S
C523 C522 1.396 . S
C523 C524 1.399 . S
C524 H510 0.929 . S
C524 C523 1.399 . S
C524 C525 1.385 . S
C525 H511 0.931 . S
C525 C524 1.385 . S
C525 C526 1.389 . S
C526 C525 1.389 . S
C526 C527 1.387 . S
C527 H512 0.930 . S
C527 C522 1.390 . S
C527 C526 1.387 . S
H528 C540 0.930 . S
H529 C542 0.930 . S
H530 C543 0.930 . S
H531 C547 0.959 1_655 S
H532 C547 0.959 . S
H533 C547 0.961 . S
H534 C548 0.960 . S
H535 C548 0.961 . S
H536 C548 0.959 . S
H537 C551 0.929 . S
H538 C552 0.931 . S
H539 C554 0.930 . S
C540 H528 0.930 . S
C540 C541 1.407 . S
C540 C545 1.399 . S
C541 C540 1.407 . S
C541 C542 1.370 1_455 S
C542 H529 0.930 . S
C542 C541 1.370 1_655 S
C542 C543 1.388 . S
C543 H530 0.930 . S
C543 C542 1.388 . S
C543 C544 1.390 1_655 S
C544 C543 1.390 1_455 S
C544 C545 1.394 . S
C544 C550 1.465 . S
C545 C540 1.399 . S
C545 C544 1.394 . S
C545 C546 1.516 . S
C546 C545 1.516 . S
C546 C547 1.502 . S
C546 C548 1.561 . S
C546 C549 1.526 . S
C547 H531 0.959 1_455 S
C547 H532 0.959 . S
C547 H533 0.961 . S
C547 C546 1.502 . S
C548 H534 0.960 . S
C548 H535 0.961 . S
C548 H536 0.959 . S
C548 C546 1.561 . S
C549 C546 1.526 . S
C549 C550 1.396 . S
C549 C554 1.390 . S
C550 C544 1.465 . S
C550 C549 1.396 . S
C550 C551 1.399 1_455 S
C551 H537 0.929 . S
C551 C550 1.399 1_655 S
C551 C552 1.385 . S
C552 H538 0.931 . S
C552 C551 1.385 . S
C552 C553 1.389 1_655 S
C553 C552 1.389 1_455 S
C553 C554 1.387 . S
C554 H539 0.930 . S
C554 C549 1.390 . S
C554 C553 1.387 . S
H555 C567 0.930 . S
H556 C569 0.930 . S
H557 C570 0.930 . S
H558 C574 0.959 . S
H559 C574 0.959 . S
H560 C574 0.961 . S
H561 C575 0.960 . S
H562 C575 0.961 . S
H563 C575 0.959 . S
H564 C578 0.929 . S
H565 C579 0.931 . S
H566 C581 0.930 . S
C567 H555 0.930 . S
C567 C568 1.399 . S
C567 C572 1.399 . S
C568 C567 1.399 . S
C568 C569 1.376 . S
C569 H556 0.930 . S
C569 C568 1.376 . S
C569 C570 1.388 . S
C570 H557 0.930 . S
C570 C569 1.388 . S
C570 C571 1.390 . S
C571 C570 1.390 . S
C571 C572 1.394 . S
C571 C577 1.465 . S
C572 C567 1.399 . S
C572 C571 1.394 . S
C572 C573 1.516 . S
C573 C572 1.516 . S
C573 C574 1.502 . S
C573 C575 1.561 . S
C573 C576 1.526 . S
C574 H558 0.959 . S
C574 H559 0.959 . S
C574 H560 0.961 . S
C574 C573 1.502 . S
C575 H561 0.960 . S
C575 H562 0.961 . S
C575 H563 0.959 . S
C575 C573 1.561 . S
C576 C573 1.526 . S
C576 C577 1.396 . S
C576 C581 1.390 . S
C577 C571 1.465 . S
C577 C576 1.396 . S
C577 C578 1.399 . S
C578 H564 0.929 . S
C578 C577 1.399 . S
C578 C579 1.385 . S
C579 H565 0.931 . S
C579 C578 1.385 . S
C579 C580 1.389 . S
C580 C579 1.389 . S
C580 C581 1.387 . S
C581 H566 0.930 . S
C581 C576 1.390 . S
C581 C580 1.387 . S
H582 C594 0.930 . S
H583 C596 0.930 . S
H584 C597 0.930 . S
H585 C601 0.959 . S
H586 C601 0.959 . S
H587 C601 0.961 . S
H588 C602 0.960 . S
H589 C602 0.961 . S
H590 C602 0.959 . S
H591 C605 0.929 . S
H592 C606 0.931 . S
H593 C608 0.930 . S
C594 H582 0.930 . S
C594 C595 1.399 . S
C594 C599 1.399 1_556 S
C595 C594 1.399 . S
C595 C596 1.376 . S
C596 H583 0.930 . S
C596 C595 1.376 . S
C596 C597 1.388 1_556 S
C597 H584 0.930 . S
C597 C596 1.388 1_554 S
C597 C598 1.390 . S
C598 C597 1.390 . S
C598 C599 1.394 . S
C598 C604 1.465 . S
C599 C594 1.399 1_554 S
C599 C598 1.394 . S
C599 C600 1.516 . S
C600 C599 1.516 . S
C600 C601 1.502 . S
C600 C602 1.561 . S
C600 C603 1.526 . S
C601 H585 0.959 . S
C601 H586 0.959 . S
C601 H587 0.961 . S
C601 C600 1.502 . S
C602 H588 0.960 . S
C602 H589 0.961 . S
C602 H590 0.959 . S
C602 C600 1.561 . S
C603 C600 1.526 . S
C603 C604 1.396 . S
C603 C608 1.390 . S
C604 C598 1.465 . S
C604 C603 1.396 . S
C604 C605 1.399 . S
C605 H591 0.929 . S
C605 C604 1.399 . S
C605 C606 1.385 . S
C606 H592 0.931 . S
C606 C605 1.385 . S
C606 C607 1.389 . S
C607 C606 1.389 . S
C607 C608 1.387 . S
C608 H593 0.930 . S
C608 C603 1.390 . S
C608 C607 1.387 . S
H609 C621 0.930 . S
H610 C623 0.930 . S
H611 C624 0.930 . S
H612 C628 0.959 . S
H613 C628 0.959 . S
H614 C628 0.961 . S
H615 C629 0.960 . S
H616 C629 0.961 . S
H617 C629 0.959 . S
H618 C632 0.929 . S
H619 C633 0.931 . S
H620 C635 0.930 . S
C621 H609 0.930 . S
C621 C622 1.399 . S
C621 C626 1.399 . S
C622 C621 1.399 . S
C622 C623 1.376 . S
C623 H610 0.930 . S
C623 C622 1.376 . S
C623 C624 1.388 . S
C624 H611 0.930 . S
C624 C623 1.388 . S
C624 C625 1.390 . S
C625 C624 1.390 . S
C625 C626 1.394 . S
C625 C631 1.465 . S
C626 C621 1.399 . S
C626 C625 1.394 . S
C626 C627 1.516 . S
C627 C626 1.516 . S
C627 C628 1.502 . S
C627 C629 1.561 . S
C627 C630 1.526 . S
C628 H612 0.959 . S
C628 H613 0.959 . S
C628 H614 0.961 . S
C628 C627 1.502 . S
C629 H615 0.960 . S
C629 H616 0.961 . S
C629 H617 0.959 . S
C629 C627 1.561 . S
C630 C627 1.526 . S
C630 C631 1.396 . S
C630 C635 1.390 . S
C631 C625 1.465 . S
C631 C630 1.396 . S
C631 C632 1.399 . S
C632 H618 0.929 . S
C632 C631 1.399 . S
C632 C633 1.385 . S
C633 H619 0.931 . S
C633 C632 1.385 . S
C633 C634 1.389 . S
C634 C633 1.389 . S
C634 C635 1.387 . S
C635 H620 0.930 . S
C635 C630 1.390 . S
C635 C634 1.387 . S
H636 C648 0.930 . S
H637 C650 0.930 . S
H638 C651 0.930 1_655 S
H639 C655 0.959 . S
H640 C655 0.959 . S
H641 C655 0.961 1_455 S
H642 C656 0.960 1_455 S
H643 C656 0.961 . S
H644 C656 0.959 1_545 S
H645 C659 0.929 . S
H646 C660 0.931 . S
H647 C662 0.930 . S
C648 H636 0.930 . S
C648 C649 1.399 1_565 S
C648 C653 1.399 . S
C649 C648 1.399 1_545 S
C649 C650 1.376 . S
C650 H637 0.930 . S
C650 C649 1.376 . S
C650 C651 1.388 . S
C651 H638 0.930 1_455 S
C651 C650 1.388 . S
C651 C652 1.390 1_455 S
C652 C651 1.390 1_655 S
C652 C653 1.394 1_645 S
C652 C658 1.465 . S
C653 C648 1.399 . S
C653 C652 1.394 1_465 S
C653 C654 1.516 1_455 S
C654 C653 1.516 1_655 S
C654 C655 1.502 . S
C654 C656 1.561 . S
C654 C657 1.526 . S
C655 H639 0.959 . S
C655 H640 0.959 . S
C655 H641 0.961 1_655 S
C655 C654 1.502 . S
C656 H642 0.960 1_655 S
C656 H643 0.961 . S
C656 H644 0.959 1_565 S
C656 C654 1.561 . S
C657 C654 1.526 . S
C657 C658 1.396 1_565 S
C657 C662 1.390 . S
C658 C652 1.465 . S
C658 C657 1.396 1_545 S
C658 C659 1.399 . S
C659 H645 0.929 . S
C659 C658 1.399 . S
C659 C660 1.385 . S
C660 H646 0.931 . S
C660 C659 1.385 . S
C660 C661 1.389 . S
C661 C660 1.389 . S
C661 C662 1.387 1_545 S
C662 H647 0.930 . S
C662 C657 1.390 . S
C662 C661 1.387 1_565 S
H663 C675 0.930 . S
H664 C677 0.930 . S
H665 C678 0.930 . S
H666 C682 0.959 . S
H667 C682 0.959 . S
H668 C682 0.961 . S
H669 C683 0.960 . S
H670 C683 0.961 . S
H671 C683 0.959 . S
H672 C686 0.929 . S
H673 C687 0.931 . S
H674 C689 0.930 . S
C675 H663 0.930 . S
C675 C676 1.399 . S
C675 C680 1.399 . S
C676 C675 1.399 . S
C676 C677 1.376 . S
C677 H664 0.930 . S
C677 C676 1.376 . S
C677 C678 1.388 . S
C678 H665 0.930 . S
C678 C677 1.388 . S
C678 C679 1.390 . S
C679 C678 1.390 . S
C679 C680 1.394 . S
C679 C685 1.465 . S
C680 C675 1.399 . S
C680 C679 1.394 . S
C680 C681 1.516 . S
C681 C680 1.516 . S
C681 C682 1.502 . S
C681 C683 1.561 . S
C681 C684 1.526 . S
C682 H666 0.959 . S
C682 H667 0.959 . S
C682 H668 0.961 . S
C682 C681 1.502 . S
C683 H669 0.960 . S
C683 H670 0.961 . S
C683 H671 0.959 . S
C683 C681 1.561 . S
C684 C681 1.526 . S
C684 C685 1.396 . S
C684 C689 1.390 . S
C685 C679 1.465 . S
C685 C684 1.396 . S
C685 C686 1.399 . S
C686 H672 0.929 . S
C686 C685 1.399 . S
C686 C687 1.385 . S
C687 H673 0.931 . S
C687 C686 1.385 . S
C687 C688 1.389 . S
C688 C687 1.389 . S
C688 C689 1.387 . S
C689 H674 0.930 . S
C689 C684 1.390 . S
C689 C688 1.387 . S
H690 C702 0.930 . S
H691 C704 0.930 . S
H692 C705 0.930 . S
H693 C709 0.959 1_545 S
H694 C709 0.959 . S
H695 C709 0.961 . S
H696 C710 0.960 . S
H697 C710 0.961 . S
H698 C710 0.959 . S
H699 C713 0.929 . S
H700 C714 0.931 . S
H701 C716 0.930 . S
C702 H690 0.930 . S
C702 C703 1.399 1_565 S
C702 C707 1.399 . S
C703 C702 1.399 1_545 S
C703 C704 1.376 . S
C704 H691 0.930 . S
C704 C703 1.376 . S
C704 C705 1.388 . S
C705 H692 0.930 . S
C705 C704 1.388 . S
C705 C706 1.390 . S
C706 C705 1.390 . S
C706 C707 1.394 1_545 S
C706 C712 1.465 . S
C707 C702 1.399 . S
C707 C706 1.394 1_565 S
C707 C708 1.516 . S
C708 C707 1.516 . S
C708 C709 1.502 . S
C708 C710 1.561 . S
C708 C711 1.526 . S
C709 H693 0.959 1_565 S
C709 H694 0.959 . S
C709 H695 0.961 . S
C709 C708 1.502 . S
C710 H696 0.960 . S
C710 H697 0.961 . S
C710 H698 0.959 . S
C710 C708 1.561 . S
C711 C708 1.526 . S
C711 C712 1.396 1_565 S
C711 C716 1.390 . S
C712 C706 1.465 . S
C712 C711 1.396 1_545 S
C712 C713 1.399 . S
C713 H699 0.929 . S
C713 C712 1.399 . S
C713 C714 1.385 . S
C714 H700 0.931 . S
C714 C713 1.385 . S
C714 C715 1.389 . S
C715 C714 1.389 . S
C715 C716 1.387 1_545 S
C716 H701 0.930 . S
C716 C711 1.390 . S
C716 C715 1.387 1_565 S
H717 C729 0.930 . S
H718 C731 0.930 . S
H719 C732 0.930 . S
H720 C736 0.959 . S
H721 C736 0.959 . S
H722 C736 0.961 . S
H723 C737 0.960 . S
H724 C737 0.961 . S
H725 C737 0.959 . S
H726 C740 0.929 . S
H727 C741 0.931 . S
H728 C743 0.930 . S
C729 H717 0.930 . S
C729 C730 1.399 . S
C729 C734 1.399 . S
C730 C729 1.399 . S
C730 C731 1.376 . S
C731 H718 0.930 . S
C731 C730 1.376 . S
C731 C732 1.388 . S
C732 H719 0.930 . S
C732 C731 1.388 . S
C732 C733 1.390 . S
C733 C732 1.390 . S
C733 C734 1.394 . S
C733 C739 1.465 . S
C734 C729 1.399 . S
C734 C733 1.394 . S
C734 C735 1.516 . S
C735 C734 1.516 . S
C735 C736 1.502 . S
C735 C737 1.561 . S
C735 C738 1.526 . S
C736 H720 0.959 . S
C736 H721 0.959 . S
C736 H722 0.961 . S
C736 C735 1.502 . S
C737 H723 0.960 . S
C737 H724 0.961 . S
C737 H725 0.959 . S
C737 C735 1.561 . S
C738 C735 1.526 . S
C738 C739 1.396 . S
C738 C743 1.390 . S
C739 C733 1.465 . S
C739 C738 1.396 . S
C739 C740 1.399 . S
C740 H726 0.929 . S
C740 C739 1.399 . S
C740 C741 1.385 . S
C741 H727 0.931 . S
C741 C740 1.385 . S
C741 C742 1.389 . S
C742 C741 1.389 . S
C742 C743 1.387 . S
C743 H728 0.930 . S
C743 C738 1.390 . S
C743 C742 1.387 . S
H744 C756 0.930 . S
H745 C758 0.930 . S
H746 C759 0.930 1_655 S
H747 C763 0.959 . S
H748 C763 0.959 . S
H749 C763 0.961 . S
H750 C764 0.960 . S
H751 C764 0.961 . S
H752 C764 0.959 . S
H753 C767 0.929 . S
H754 C768 0.931 . S
H755 C770 0.930 . S
C756 H744 0.930 . S
C756 C757 1.399 1_565 S
C756 C761 1.399 1_455 S
C757 C756 1.399 1_545 S
C757 C758 1.376 . S
C758 H745 0.930 . S
C758 C757 1.376 . S
C758 C759 1.388 . S
C759 H746 0.930 1_455 S
C759 C758 1.388 . S
C759 C760 1.390 1_455 S
C760 C759 1.390 1_655 S
C760 C761 1.394 1_545 S
C760 C766 1.465 . S
C761 C756 1.399 1_655 S
C761 C760 1.394 1_565 S
C761 C762 1.516 . S
C762 C761 1.516 . S
C762 C763 1.502 . S
C762 C764 1.561 . S
C762 C765 1.526 . S
C763 H747 0.959 . S
C763 H748 0.959 . S
C763 H749 0.961 . S
C763 C762 1.502 . S
C764 H750 0.960 . S
C764 H751 0.961 . S
C764 H752 0.959 . S
C764 C762 1.561 . S
C765 C762 1.526 . S
C765 C766 1.396 1_565 S
C765 C770 1.390 . S
C766 C760 1.465 . S
C766 C765 1.396 1_545 S
C766 C767 1.399 . S
C767 H753 0.929 . S
C767 C766 1.399 . S
C767 C768 1.385 . S
C768 H754 0.931 . S
C768 C767 1.385 . S
C768 C769 1.389 . S
C769 C768 1.389 . S
C769 C770 1.387 1_545 S
C770 H755 0.930 . S
C770 C765 1.390 . S
C770 C769 1.387 1_565 S
H771 C783 0.930 . S
H772 C785 0.930 . S
H773 C786 0.930 . S
H774 C790 0.959 . S
H775 C790 0.959 . S
H776 C790 0.961 . S
H777 C791 0.960 . S
H778 C791 0.961 . S
H779 C791 0.959 . S
H780 C794 0.929 . S
H781 C795 0.931 . S
H782 C797 0.930 . S
C783 H771 0.930 . S
C783 C784 1.399 . S
C783 C788 1.399 . S
C784 C783 1.399 . S
C784 C785 1.376 . S
C785 H772 0.930 . S
C785 C784 1.376 . S
C785 C786 1.388 . S
C786 H773 0.930 . S
C786 C785 1.388 . S
C786 C787 1.390 . S
C787 C786 1.390 . S
C787 C788 1.394 . S
C787 C793 1.465 . S
C788 C783 1.399 . S
C788 C787 1.394 . S
C788 C789 1.516 . S
C789 C788 1.516 . S
C789 C790 1.502 . S
C789 C791 1.561 . S
C789 C792 1.526 . S
C790 H774 0.959 . S
C790 H775 0.959 . S
C790 H776 0.961 . S
C790 C789 1.502 . S
C791 H777 0.960 . S
C791 H778 0.961 . S
C791 H779 0.959 . S
C791 C789 1.561 . S
C792 C789 1.526 . S
C792 C793 1.396 . S
C792 C797 1.390 . S
C793 C787 1.465 . S
C793 C792 1.396 . S
C793 C794 1.399 . S
C794 H780 0.929 . S
C794 C793 1.399 . S
C794 C795 1.385 . S
C795 H781 0.931 . S
C795 C794 1.385 . S
C795 C796 1.389 . S
C796 C795 1.389 . S
C796 C797 1.387 . S
C797 H782 0.930 . S
C797 C792 1.390 . S
C797 C796 1.387 . S
H798 C810 0.930 . S
H799 C812 0.930 . S
H800 C813 0.930 . S
H801 C817 0.959 . S
H802 C817 0.959 . S
H803 C817 0.961 . S
H804 C818 0.960 . S
H805 C818 0.961 . S
H806 C818 0.959 . S
H807 C821 0.929 . S
H808 C822 0.931 . S
H809 C824 0.930 . S
C810 H798 0.930 . S
C810 C811 1.418 . S
C810 C815 1.399 . S
C811 C810 1.418 . S
C811 C812 1.352 1_565 S
C812 H799 0.930 . S
C812 C811 1.352 1_545 S
C812 C813 1.388 . S
C813 H800 0.930 . S
C813 C812 1.388 . S
C813 C814 1.390 . S
C814 C813 1.390 . S
C814 C815 1.394 1_545 S
C814 C820 1.465 . S
C815 C810 1.399 . S
C815 C814 1.394 1_565 S
C815 C816 1.516 . S
C816 C815 1.516 . S
C816 C817 1.502 . S
C816 C818 1.561 . S
C816 C819 1.526 . S
C817 H801 0.959 . S
C817 H802 0.959 . S
C817 H803 0.961 . S
C817 C816 1.502 . S
C818 H804 0.960 . S
C818 H805 0.961 . S
C818 H806 0.959 . S
C818 C816 1.561 . S
C819 C816 1.526 . S
C819 C820 1.396 1_565 S
C819 C824 1.390 . S
C820 C814 1.465 . S
C820 C819 1.396 1_545 S
C820 C821 1.399 . S
C821 H807 0.929 . S
C821 C820 1.399 . S
C821 C822 1.385 . S
C822 H808 0.931 . S
C822 C821 1.385 . S
C822 C823 1.389 . S
C823 C822 1.389 . S
C823 C824 1.387 1_545 S
C824 H809 0.930 . S
C824 C819 1.390 . S
C824 C823 1.387 1_565 S
H825 C837 0.930 . S
H826 C839 0.930 . S
H827 C840 0.930 . S
H828 C844 0.959 . S
H829 C844 0.959 . S
H830 C844 0.961 . S
H831 C845 0.960 . S
H832 C845 0.961 . S
H833 C845 0.959 . S
H834 C848 0.929 . S
H835 C849 0.931 . S
H836 C851 0.930 . S
C837 H825 0.930 . S
C837 C838 1.399 . S
C837 C842 1.399 . S
C838 C837 1.399 . S
C838 C839 1.376 . S
C839 H826 0.930 . S
C839 C838 1.376 . S
C839 C840 1.388 . S
C840 H827 0.930 . S
C840 C839 1.388 . S
C840 C841 1.390 . S
C841 C840 1.390 . S
C841 C842 1.394 . S
C841 C847 1.465 . S
C842 C837 1.399 . S
C842 C841 1.394 . S
C842 C843 1.516 . S
C843 C842 1.516 . S
C843 C844 1.502 . S
C843 C845 1.561 . S
C843 C846 1.526 . S
C844 H828 0.959 . S
C844 H829 0.959 . S
C844 H830 0.961 . S
C844 C843 1.502 . S
C845 H831 0.960 . S
C845 H832 0.961 . S
C845 H833 0.959 . S
C845 C843 1.561 . S
C846 C843 1.526 . S
C846 C847 1.396 . S
C846 C851 1.390 . S
C847 C841 1.465 . S
C847 C846 1.396 . S
C847 C848 1.399 . S
C848 H834 0.929 . S
C848 C847 1.399 . S
C848 C849 1.385 . S
C849 H835 0.931 . S
C849 C848 1.385 . S
C849 C850 1.389 . S
C850 C849 1.389 . S
C850 C851 1.387 . S
C851 H836 0.930 . S
C851 C846 1.390 . S
C851 C850 1.387 . S
H852 C864 0.930 . S
H853 C866 0.930 . S
H854 C867 0.930 . S
H855 C871 0.959 . S
H856 C871 0.959 . S
H857 C871 0.961 . S
H858 C872 0.960 . S
H859 C872 0.961 . S
H860 C872 0.959 . S
H861 C875 0.929 . S
H862 C876 0.931 . S
H863 C878 0.930 . S
C864 H852 0.930 . S
C864 C865 1.399 1_554 S
C864 C869 1.399 1_545 S
C865 C864 1.399 1_556 S
C865 C866 1.376 . S
C866 H853 0.930 . S
C866 C865 1.376 . S
C866 C867 1.388 1_545 S
C867 H854 0.930 . S
C867 C866 1.388 1_565 S
C867 C868 1.390 . S
C868 C867 1.390 . S
C868 C869 1.394 1_556 S
C868 C874 1.465 . S
C869 C864 1.399 1_565 S
C869 C868 1.394 1_554 S
C869 C870 1.516 . S
C870 C869 1.516 . S
C870 C871 1.502 . S
C870 C872 1.561 . S
C870 C873 1.526 . S
C871 H855 0.959 . S
C871 H856 0.959 . S
C871 H857 0.961 . S
C871 C870 1.502 . S
C872 H858 0.960 . S
C872 H859 0.961 . S
C872 H860 0.959 . S
C872 C870 1.561 . S
C873 C870 1.526 . S
C873 C874 1.396 1_554 S
C873 C878 1.390 . S
C874 C868 1.465 . S
C874 C873 1.396 1_556 S
C874 C875 1.399 . S
C875 H861 0.929 . S
C875 C874 1.399 . S
C875 C876 1.385 . S
C876 H862 0.931 . S
C876 C875 1.385 . S
C876 C877 1.389 . S
C877 C876 1.389 . S
C877 C878 1.387 1_556 S
C878 H863 0.930 . S
C878 C873 1.390 . S
C878 C877 1.387 1_554 S
H879 C891 0.930 . S
H880 C893 0.930 . S
H881 C894 0.930 . S
H882 C898 0.959 . S
H883 C898 0.959 . S
H884 C898 0.961 . S
H885 C899 0.960 . S
H886 C899 0.961 . S
H887 C899 0.959 . S
H888 C902 0.929 . S
H889 C903 0.931 . S
H890 C905 0.930 . S
C891 H879 0.930 . S
C891 C892 1.399 . S
C891 C896 1.399 . S
C892 C891 1.399 . S
C892 C893 1.376 1_554 S
C893 H880 0.930 . S
C893 C892 1.376 1_556 S
C893 C894 1.388 . S
C894 H881 0.930 . S
C894 C893 1.388 . S
C894 C895 1.390 . S
C895 C894 1.390 . S
C895 C896 1.394 1_556 S
C895 C901 1.465 . S
C896 C891 1.399 . S
C896 C895 1.394 1_554 S
C896 C897 1.516 . S
C897 C896 1.516 . S
C897 C898 1.502 . S
C897 C899 1.561 . S
C897 C900 1.526 . S
C898 H882 0.959 . S
C898 H883 0.959 . S
C898 H884 0.961 . S
C898 C897 1.502 . S
C899 H885 0.960 . S
C899 H886 0.961 . S
C899 H887 0.959 . S
C899 C897 1.561 . S
C900 C897 1.526 . S
C900 C901 1.396 1_554 S
C900 C905 1.390 . S
C901 C895 1.465 . S
C901 C900 1.396 1_556 S
C901 C902 1.399 . S
C902 H888 0.929 . S
C902 C901 1.399 . S
C902 C903 1.385 . S
C903 H889 0.931 . S
C903 C902 1.385 . S
C903 C904 1.389 1_556 S
C904 C903 1.389 1_554 S
C904 C905 1.387 . S
C905 H890 0.930 . S
C905 C900 1.390 . S
C905 C904 1.387 . S
H906 C918 0.930 . S
H907 C920 0.930 . S
H908 C921 0.930 . S
H909 C925 0.959 . S
H910 C925 0.959 . S
H911 C925 0.961 . S
H912 C926 0.960 . S
H913 C926 0.961 . S
H914 C926 0.959 . S
H915 C929 0.929 . S
H916 C930 0.931 . S
H917 C932 0.930 . S
C918 H906 0.930 . S
C918 C919 1.399 . S
C918 C923 1.399 . S
C919 C918 1.399 . S
C919 C920 1.376 . S
C920 H907 0.930 . S
C920 C919 1.376 . S
C920 C921 1.388 . S
C921 H908 0.930 . S
C921 C920 1.388 . S
C921 C922 1.390 . S
C922 C921 1.390 . S
C922 C923 1.394 . S
C922 C928 1.465 . S
C923 C918 1.399 . S
C923 C922 1.394 . S
C923 C924 1.516 . S
C924 C923 1.516 . S
C924 C925 1.502 . S
C924 C926 1.561 . S
C924 C927 1.526 . S
C925 H909 0.959 . S
C925 H910 0.959 . S
C925 H911 0.961 . S
C925 C924 1.502 . S
C926 H912 0.960 . S
C926 H913 0.961 . S
C926 H914 0.959 . S
C926 C924 1.561 . S
C927 C924 1.526 . S
C927 C928 1.396 . S
C927 C932 1.390 . S
C928 C922 1.465 . S
C928 C927 1.396 . S
C928 C929 1.399 . S
C929 H915 0.929 . S
C929 C928 1.399 . S
C929 C930 1.385 . S
C930 H916 0.931 . S
C930 C929 1.385 . S
C930 C931 1.389 . S
C931 C930 1.389 . S
C931 C932 1.387 . S
C932 H917 0.930 . S
C932 C927 1.390 . S
C932 C931 1.387 . S
H933 C945 0.930 . S
H934 C947 0.930 . S
H935 C948 0.930 . S
H936 C952 0.959 . S
H937 C952 0.959 . S
H938 C952 0.961 . S
H939 C953 0.960 . S
H940 C953 0.961 . S
H941 C953 0.959 . S
H942 C956 0.929 . S
H943 C957 0.931 . S
H944 C959 0.930 . S
C945 H933 0.930 . S
C945 C946 1.399 . S
C945 C950 1.399 . S
C946 C945 1.399 . S
C946 C947 1.376 . S
C947 H934 0.930 . S
C947 C946 1.376 . S
C947 C948 1.388 . S
C948 H935 0.930 . S
C948 C947 1.388 . S
C948 C949 1.390 . S
C949 C948 1.390 . S
C949 C950 1.394 . S
C949 C955 1.465 . S
C950 C945 1.399 . S
C950 C949 1.394 . S
C950 C951 1.516 . S
C951 C950 1.516 . S
C951 C952 1.502 . S
C951 C953 1.561 . S
C951 C954 1.526 . S
C952 H936 0.959 . S
C952 H937 0.959 . S
C952 H938 0.961 . S
C952 C951 1.502 . S
C953 H939 0.960 . S
C953 H940 0.961 . S
C953 H941 0.959 . S
C953 C951 1.561 . S
C954 C951 1.526 . S
C954 C955 1.396 . S
C954 C959 1.390 . S
C955 C949 1.465 . S
C955 C954 1.396 . S
C955 C956 1.399 . S
C956 H942 0.929 . S
C956 C955 1.399 . S
C956 C957 1.385 . S
C957 H943 0.931 . S
C957 C956 1.385 . S
C957 C958 1.389 . S
C958 C957 1.389 . S
C958 C959 1.387 . S
C959 H944 0.930 . S
C959 C954 1.390 . S
C959 C958 1.387 . S
H960 C972 0.930 . S
H961 C974 0.930 . S
H962 C975 0.930 . S
H963 C979 0.959 . S
H964 C979 0.959 . S
H965 C979 0.961 . S
H966 C980 0.960 . S
H967 C980 0.961 . S
H968 C980 0.959 . S
H969 C983 0.929 . S
H970 C984 0.931 . S
H971 C986 0.930 . S
C972 H960 0.930 . S
C972 C973 1.399 . S
C972 C977 1.399 . S
C973 C972 1.399 . S
C973 C974 1.376 . S
C974 H961 0.930 . S
C974 C973 1.376 . S
C974 C975 1.388 . S
C975 H962 0.930 . S
C975 C974 1.388 . S
C975 C976 1.390 . S
C976 C975 1.390 . S
C976 C977 1.394 . S
C976 C982 1.465 . S
C977 C972 1.399 . S
C977 C976 1.394 . S
C977 C978 1.516 . S
C978 C977 1.516 . S
C978 C979 1.502 . S
C978 C980 1.561 . S
C978 C981 1.526 . S
C979 H963 0.959 . S
C979 H964 0.959 . S
C979 H965 0.961 . S
C979 C978 1.502 . S
C980 H966 0.960 . S
C980 H967 0.961 . S
C980 H968 0.959 . S
C980 C978 1.561 . S
C981 C978 1.526 . S
C981 C982 1.396 . S
C981 C986 1.390 . S
C982 C976 1.465 . S
C982 C981 1.396 . S
C982 C983 1.399 . S
C983 H969 0.929 . S
C983 C982 1.399 . S
C983 C984 1.385 . S
C984 H970 0.931 . S
C984 C983 1.385 . S
C984 C985 1.389 . S
C985 C984 1.389 . S
C985 C986 1.387 . S
C986 H971 0.930 . S
C986 C981 1.390 . S
C986 C985 1.387 . S
H987 C999 0.930 . S
H988 C1001 0.930 . S
H989 C1002 0.932 . S
H990 C1006 0.959 . S
H991 C1006 0.959 . S
H992 C1006 0.961 . S
H993 C1007 0.960 . S
H994 C1007 0.961 . S
H995 C1007 0.959 . S
H996 C1010 0.929 . S
H997 C1011 0.931 . S
H998 C1013 0.930 . S
C999 H987 0.930 . S
C999 C1000 1.399 . S
C999 C1004 1.399 1_565 S
C1000 C999 1.399 . S
C1000 C1001 1.376 . S
C1001 H988 0.930 . S
C1001 C1000 1.376 . S
C1001 C1002 1.379 1_565 S
C1002 H989 0.932 . S
C1002 C1001 1.379 1_545 S
C1002 C1003 1.397 . S
C1003 C1002 1.397 . S
C1003 C1004 1.394 . S
C1003 C1009 1.465 . S
C1004 C999 1.399 1_545 S
C1004 C1003 1.394 . S
C1004 C1005 1.516 . S
C1005 C1004 1.516 . S
C1005 C1006 1.502 . S
C1005 C1007 1.561 . S
C1005 C1008 1.526 . S
C1006 H990 0.959 . S
C1006 H991 0.959 . S
C1006 H992 0.961 . S
C1006 C1005 1.502 . S
C1007 H993 0.960 . S
C1007 H994 0.961 . S
C1007 H995 0.959 . S
C1007 C1005 1.561 . S
C1008 C1005 1.526 . S
C1008 C1009 1.396 . S
C1008 C1013 1.390 . S
C1009 C1003 1.465 . S
C1009 C1008 1.396 . S
C1009 C1010 1.399 . S
C1010 H996 0.929 . S
C1010 C1009 1.399 . S
C1010 C1011 1.385 . S
C1011 H997 0.931 . S
C1011 C1010 1.385 . S
C1011 C1012 1.389 . S
C1012 C1011 1.389 . S
C1012 C1013 1.387 . S
C1013 H998 0.930 . S
C1013 C1008 1.390 . S
C1013 C1012 1.387 . S
H1014 C1026 0.930 . S
H1015 C1028 0.930 . S
H1016 C1029 0.930 . S
H1017 C1033 0.959 . S
H1018 C1033 0.959 . S
H1019 C1033 0.961 . S
H1020 C1034 0.960 . S
H1021 C1034 0.961 . S
H1022 C1034 0.959 . S
H1023 C1037 0.929 . S
H1024 C1038 0.931 . S
H1025 C1040 0.930 . S
C1026 H1014 0.930 . S
C1026 C1027 1.399 . S
C1026 C1031 1.399 . S
C1027 C1026 1.399 . S
C1027 C1028 1.376 . S
C1028 H1015 0.930 . S
C1028 C1027 1.376 . S
C1028 C1029 1.388 . S
C1029 H1016 0.930 . S
C1029 C1028 1.388 . S
C1029 C1030 1.390 . S
C1030 C1029 1.390 . S
C1030 C1031 1.394 . S
C1030 C1036 1.465 . S
C1031 C1026 1.399 . S
C1031 C1030 1.394 . S
C1031 C1032 1.516 . S
C1032 C1031 1.516 . S
C1032 C1033 1.502 . S
C1032 C1034 1.561 . S
C1032 C1035 1.526 . S
C1033 H1017 0.959 . S
C1033 H1018 0.959 . S
C1033 H1019 0.961 . S
C1033 C1032 1.502 . S
C1034 H1020 0.960 . S
C1034 H1021 0.961 . S
C1034 H1022 0.959 . S
C1034 C1032 1.561 . S
C1035 C1032 1.526 . S
C1035 C1036 1.396 . S
C1035 C1040 1.390 . S
C1036 C1030 1.465 . S
C1036 C1035 1.396 . S
C1036 C1037 1.399 . S
C1037 H1023 0.929 . S
C1037 C1036 1.399 . S
C1037 C1038 1.385 . S
C1038 H1024 0.931 . S
C1038 C1037 1.385 . S
C1038 C1039 1.389 . S
C1039 C1038 1.389 . S
C1039 C1040 1.387 . S
C1040 H1025 0.930 . S
C1040 C1035 1.390 . S
C1040 C1039 1.387 . S
H1041 C1053 0.930 . S
H1042 C1055 0.930 . S
H1043 C1056 0.930 . S
H1044 C1060 0.959 . S
H1045 C1060 0.959 . S
H1046 C1060 0.961 . S
H1047 C1061 0.960 . S
H1048 C1061 0.961 . S
H1049 C1061 0.959 . S
H1050 C1064 0.929 . S
H1051 C1065 0.931 . S
H1052 C1067 0.930 . S
C1053 H1041 0.930 . S
C1053 C1054 1.399 . S
C1053 C1058 1.399 . S
C1054 C1053 1.399 . S
C1054 C1055 1.376 . S
C1055 H1042 0.930 . S
C1055 C1054 1.376 . S
C1055 C1056 1.388 . S
C1056 H1043 0.930 . S
C1056 C1055 1.388 . S
C1056 C1057 1.390 . S
C1057 C1056 1.390 . S
C1057 C1058 1.394 . S
C1057 C1063 1.465 . S
C1058 C1053 1.399 . S
C1058 C1057 1.394 . S
C1058 C1059 1.516 . S
C1059 C1058 1.516 . S
C1059 C1060 1.502 . S
C1059 C1061 1.561 . S
C1059 C1062 1.526 . S
C1060 H1044 0.959 . S
C1060 H1045 0.959 . S
C1060 H1046 0.961 . S
C1060 C1059 1.502 . S
C1061 H1047 0.960 . S
C1061 H1048 0.961 . S
C1061 H1049 0.959 . S
C1061 C1059 1.561 . S
C1062 C1059 1.526 . S
C1062 C1063 1.396 . S
C1062 C1067 1.390 . S
C1063 C1057 1.465 . S
C1063 C1062 1.396 . S
C1063 C1064 1.399 . S
C1064 H1050 0.929 . S
C1064 C1063 1.399 . S
C1064 C1065 1.385 . S
C1065 H1051 0.931 . S
C1065 C1064 1.385 . S
C1065 C1066 1.389 . S
C1066 C1065 1.389 . S
C1066 C1067 1.387 . S
C1067 H1052 0.930 . S
C1067 C1062 1.390 . S
C1067 C1066 1.387 . S
H1068 C1080 0.930 . S
H1069 C1082 0.930 . S
H1070 C1083 0.930 . S
H1071 C1087 0.959 . S
H1072 C1087 0.959 . S
H1073 C1087 0.961 . S
H1074 C1088 0.960 . S
H1075 C1088 0.961 . S
H1076 C1088 0.959 . S
H1077 C1091 0.929 . S
H1078 C1092 0.931 . S
H1079 C1094 0.930 . S
C1080 H1068 0.930 . S
C1080 C1081 1.399 . S
C1080 C1085 1.399 . S
C1081 C1080 1.399 . S
C1081 C1082 1.376 . S
C1082 H1069 0.930 . S
C1082 C1081 1.376 . S
C1082 C1083 1.388 . S
C1083 H1070 0.930 . S
C1083 C1082 1.388 . S
C1083 C1084 1.390 . S
C1084 C1083 1.390 . S
C1084 C1085 1.394 . S
C1084 C1090 1.465 . S
C1085 C1080 1.399 . S
C1085 C1084 1.394 . S
C1085 C1086 1.516 . S
C1086 C1085 1.516 . S
C1086 C1087 1.502 . S
C1086 C1088 1.561 . S
C1086 C1089 1.526 . S
C1087 H1071 0.959 . S
C1087 H1072 0.959 . S
C1087 H1073 0.961 . S
C1087 C1086 1.502 . S
C1088 H1074 0.960 . S
C1088 H1075 0.961 . S
C1088 H1076 0.959 . S
C1088 C1086 1.561 . S
C1089 C1086 1.526 . S
C1089 C1090 1.396 . S
C1089 C1094 1.390 . S
C1090 C1084 1.465 . S
C1090 C1089 1.396 . S
C1090 C1091 1.399 . S
C1091 H1077 0.929 . S
C1091 C1090 1.399 . S
C1091 C1092 1.385 . S
C1092 H1078 0.931 . S
C1092 C1091 1.385 . S
C1092 C1093 1.389 . S
C1093 C1092 1.389 . S
C1093 C1094 1.387 . S
C1094 H1079 0.930 . S
C1094 C1089 1.390 . S
C1094 C1093 1.387 . S
H1095 C1107 0.930 . S
H1096 C1109 0.930 . S
H1097 C1110 0.930 . S
H1098 C1114 0.959 . S
H1099 C1114 0.959 . S
H1100 C1114 0.961 . S
H1101 C1115 0.960 . S
H1102 C1115 0.961 . S
H1103 C1115 0.959 . S
H1104 C1118 0.929 . S
H1105 C1119 0.931 . S
H1106 C1121 0.930 . S
C1107 H1095 0.930 . S
C1107 C1108 1.399 . S
C1107 C1112 1.399 . S
C1108 C1107 1.399 . S
C1108 C1109 1.376 . S
C1109 H1096 0.930 . S
C1109 C1108 1.376 . S
C1109 C1110 1.388 . S
C1110 H1097 0.930 . S
C1110 C1109 1.388 . S
C1110 C1111 1.390 . S
C1111 C1110 1.390 . S
C1111 C1112 1.394 . S
C1111 C1117 1.465 . S
C1112 C1107 1.399 . S
C1112 C1111 1.394 . S
C1112 C1113 1.516 . S
C1113 C1112 1.516 . S
C1113 C1114 1.502 . S
C1113 C1115 1.561 . S
C1113 C1116 1.526 . S
C1114 H1098 0.959 . S
C1114 H1099 0.959 . S
C1114 H1100 0.961 . S
C1114 C1113 1.502 . S
C1115 H1101 0.960 . S
C1115 H1102 0.961 . S
C1115 H1103 0.959 . S
C1115 C1113 1.561 . S
C1116 C1113 1.526 . S
C1116 C1117 1.396 . S
C1116 C1121 1.390 . S
C1117 C1111 1.465 . S
C1117 C1116 1.396 . S
C1117 C1118 1.399 . S
C1118 H1104 0.929 . S
C1118 C1117 1.399 . S
C1118 C1119 1.385 . S
C1119 H1105 0.931 . S
C1119 C1118 1.385 . S
C1119 C1120 1.389 . S
C1120 C1119 1.389 . S
C1120 C1121 1.387 . S
C1121 H1106 0.930 . S
C1121 C1116 1.390 . S
C1121 C1120 1.387 . S
H1122 C1134 0.930 . S
H1123 C1136 0.930 . S
H1124 C1137 0.930 . S
H1125 C1141 0.959 . S
H1126 C1141 0.959 . S
H1127 C1141 0.961 1_554 S
H1128 C1142 0.960 1_554 S
H1129 C1142 0.961 . S
H1130 C1142 0.959 . S
H1131 C1145 0.929 . S
H1132 C1146 0.931 . S
H1133 C1148 0.930 . S
C1134 H1122 0.930 . S
C1134 C1135 1.405 . S
C1134 C1139 1.399 . S
C1135 C1134 1.405 . S
C1135 C1136 1.370 1_455 S
C1136 H1123 0.930 . S
C1136 C1135 1.370 1_655 S
C1136 C1137 1.388 1_554 S
C1137 H1124 0.930 . S
C1137 C1136 1.388 1_556 S
C1137 C1138 1.390 . S
C1138 C1137 1.390 . S
C1138 C1139 1.394 1_656 S
C1138 C1144 1.465 . S
C1139 C1134 1.399 . S
C1139 C1138 1.394 1_454 S
C1139 C1140 1.516 1_554 S
C1140 C1139 1.516 1_556 S
C1140 C1141 1.502 . S
C1140 C1142 1.561 . S
C1140 C1143 1.526 . S
C1141 H1125 0.959 . S
C1141 H1126 0.959 . S
C1141 H1127 0.961 1_556 S
C1141 C1140 1.502 . S
C1142 H1128 0.960 1_556 S
C1142 H1129 0.961 . S
C1142 H1130 0.959 . S
C1142 C1140 1.561 . S
C1143 C1140 1.526 . S
C1143 C1144 1.396 1_455 S
C1143 C1148 1.390 . S
C1144 C1138 1.465 . S
C1144 C1143 1.396 1_655 S
C1144 C1145 1.399 . S
C1145 H1131 0.929 . S
C1145 C1144 1.399 . S
C1145 C1146 1.385 . S
C1146 H1132 0.931 . S
C1146 C1145 1.385 . S
C1146 C1147 1.389 1_655 S
C1147 C1146 1.389 1_455 S
C1147 C1148 1.387 . S
C1148 H1133 0.930 . S
C1148 C1143 1.390 . S
C1148 C1147 1.387 . S
H1149 C1161 0.930 . S
H1150 C1163 0.930 . S
H1151 C1164 0.930 . S
H1152 C1168 0.959 . S
H1153 C1168 0.959 . S
H1154 C1168 0.961 . S
H1155 C1169 0.960 . S
H1156 C1169 0.961 . S
H1157 C1169 0.959 . S
H1158 C1172 0.929 . S
H1159 C1173 0.931 . S
H1160 C1175 0.930 . S
C1161 H1149 0.930 . S
C1161 C1162 1.399 . S
C1161 C1166 1.399 . S
C1162 C1161 1.399 . S
C1162 C1163 1.376 . S
C1163 H1150 0.930 . S
C1163 C1162 1.376 . S
C1163 C1164 1.388 . S
C1164 H1151 0.930 . S
C1164 C1163 1.388 . S
C1164 C1165 1.390 . S
C1165 C1164 1.390 . S
C1165 C1166 1.394 . S
C1165 C1171 1.465 . S
C1166 C1161 1.399 . S
C1166 C1165 1.394 . S
C1166 C1167 1.516 . S
C1167 C1166 1.516 . S
C1167 C1168 1.502 . S
C1167 C1169 1.561 . S
C1167 C1170 1.526 . S
C1168 H1152 0.959 . S
C1168 H1153 0.959 . S
C1168 H1154 0.961 . S
C1168 C1167 1.502 . S
C1169 H1155 0.960 . S
C1169 H1156 0.961 . S
C1169 H1157 0.959 . S
C1169 C1167 1.561 . S
C1170 C1167 1.526 . S
C1170 C1171 1.396 . S
C1170 C1175 1.390 . S
C1171 C1165 1.465 . S
C1171 C1170 1.396 . S
C1171 C1172 1.399 . S
C1172 H1158 0.929 . S
C1172 C1171 1.399 . S
C1172 C1173 1.385 . S
C1173 H1159 0.931 . S
C1173 C1172 1.385 . S
C1173 C1174 1.389 . S
C1174 C1173 1.389 . S
C1174 C1175 1.387 . S
C1175 H1160 0.930 . S
C1175 C1170 1.390 . S
C1175 C1174 1.387 . S
H1176 C1188 0.930 . S
H1177 C1190 0.930 . S
H1178 C1191 0.930 . S
H1179 C1195 0.959 . S
H1180 C1195 0.959 . S
H1181 C1195 0.961 . S
H1182 C1196 0.960 . S
H1183 C1196 0.961 . S
H1184 C1196 0.959 . S
H1185 C1199 0.929 . S
H1186 C1200 0.931 . S
H1187 C1202 0.930 . S
C1188 H1176 0.930 . S
C1188 C1189 1.399 1_554 S
C1188 C1193 1.399 . S
C1189 C1188 1.399 1_556 S
C1189 C1190 1.376 . S
C1190 H1177 0.930 . S
C1190 C1189 1.376 . S
C1190 C1191 1.388 1_556 S
C1191 H1178 0.930 . S
C1191 C1190 1.388 1_554 S
C1191 C1192 1.390 . S
C1192 C1191 1.390 . S
C1192 C1193 1.394 . S
C1192 C1198 1.465 . S
C1193 C1188 1.399 . S
C1193 C1192 1.394 . S
C1193 C1194 1.516 . S
C1194 C1193 1.516 . S
C1194 C1195 1.502 . S
C1194 C1196 1.561 . S
C1194 C1197 1.526 . S
C1195 H1179 0.959 . S
C1195 H1180 0.959 . S
C1195 H1181 0.961 . S
C1195 C1194 1.502 . S
C1196 H1182 0.960 . S
C1196 H1183 0.961 . S
C1196 H1184 0.959 . S
C1196 C1194 1.561 . S
C1197 C1194 1.526 . S
C1197 C1198 1.396 . S
C1197 C1202 1.390 . S
C1198 C1192 1.465 . S
C1198 C1197 1.396 . S
C1198 C1199 1.399 . S
C1199 H1185 0.929 . S
C1199 C1198 1.399 . S
C1199 C1200 1.385 . S
C1200 H1186 0.931 . S
C1200 C1199 1.385 . S
C1200 C1201 1.389 . S
C1201 C1200 1.389 . S
C1201 C1202 1.387 . S
C1202 H1187 0.930 . S
C1202 C1197 1.390 . S
C1202 C1201 1.387 . S
H1203 C1215 0.930 . S
H1204 C1217 0.930 . S
H1205 C1218 0.930 . S
H1206 C1222 0.959 . S
H1207 C1222 0.959 . S
H1208 C1222 0.961 . S
H1209 C1223 0.960 . S
H1210 C1223 0.961 . S
H1211 C1223 0.959 . S
H1212 C1226 0.929 . S
H1213 C1227 0.931 . S
H1214 C1229 0.930 . S
C1215 H1203 0.930 . S
C1215 C1216 1.399 . S
C1215 C1220 1.399 . S
C1216 C1215 1.399 . S
C1216 C1217 1.376 . S
C1217 H1204 0.930 . S
C1217 C1216 1.376 . S
C1217 C1218 1.388 . S
C1218 H1205 0.930 . S
C1218 C1217 1.388 . S
C1218 C1219 1.390 . S
C1219 C1218 1.390 . S
C1219 C1220 1.394 . S
C1219 C1225 1.465 . S
C1220 C1215 1.399 . S
C1220 C1219 1.394 . S
C1220 C1221 1.516 . S
C1221 C1220 1.516 . S
C1221 C1222 1.502 . S
C1221 C1223 1.561 . S
C1221 C1224 1.526 . S
C1222 H1206 0.959 . S
C1222 H1207 0.959 . S
C1222 H1208 0.961 . S
C1222 C1221 1.502 . S
C1223 H1209 0.960 . S
C1223 H1210 0.961 . S
C1223 H1211 0.959 . S
C1223 C1221 1.561 . S
C1224 C1221 1.526 . S
C1224 C1225 1.396 . S
C1224 C1229 1.390 . S
C1225 C1219 1.465 . S
C1225 C1224 1.396 . S
C1225 C1226 1.399 . S
C1226 H1212 0.929 . S
C1226 C1225 1.399 . S
C1226 C1227 1.385 . S
C1227 H1213 0.931 . S
C1227 C1226 1.385 . S
C1227 C1228 1.389 . S
C1228 C1227 1.389 . S
C1228 C1229 1.387 . S
C1229 H1214 0.930 . S
C1229 C1224 1.390 . S
C1229 C1228 1.387 . S
H1230 C1242 0.930 . S
H1231 C1244 0.930 . S
H1232 C1245 0.930 . S
H1233 C1249 0.959 . S
H1234 C1249 0.959 . S
H1235 C1249 0.961 . S
H1236 C1250 0.960 . S
H1237 C1250 0.961 . S
H1238 C1250 0.959 . S
H1239 C1253 0.929 . S
H1240 C1254 0.931 . S
H1241 C1256 0.930 . S
C1242 H1230 0.930 . S
C1242 C1243 1.399 . S
C1242 C1247 1.399 . S
C1243 C1242 1.399 . S
C1243 C1244 1.376 . S
C1244 H1231 0.930 . S
C1244 C1243 1.376 . S
C1244 C1245 1.388 . S
C1245 H1232 0.930 . S
C1245 C1244 1.388 . S
C1245 C1246 1.390 . S
C1246 C1245 1.390 . S
C1246 C1247 1.394 . S
C1246 C1252 1.465 . S
C1247 C1242 1.399 . S
C1247 C1246 1.394 . S
C1247 C1248 1.516 . S
C1248 C1247 1.516 . S
C1248 C1249 1.502 1_455 S
C1248 C1250 1.561 . S
C1248 C1251 1.526 . S
C1249 H1233 0.959 . S
C1249 H1234 0.959 . S
C1249 H1235 0.961 . S
C1249 C1248 1.502 1_655 S
C1250 H1236 0.960 . S
C1250 H1237 0.961 . S
C1250 H1238 0.959 . S
C1250 C1248 1.561 . S
C1251 C1248 1.526 . S
C1251 C1252 1.396 . S
C1251 C1256 1.390 . S
C1252 C1246 1.465 . S
C1252 C1251 1.396 . S
C1252 C1253 1.399 . S
C1253 H1239 0.929 . S
C1253 C1252 1.399 . S
C1253 C1254 1.385 . S
C1254 H1240 0.931 . S
C1254 C1253 1.385 . S
C1254 C1255 1.389 . S
C1255 C1254 1.389 . S
C1255 C1256 1.387 . S
C1256 H1241 0.930 . S
C1256 C1251 1.390 . S
C1256 C1255 1.387 . S
H1257 C1269 0.930 . S
H1258 C1271 0.930 . S
H1259 C1272 0.930 . S
H1260 C1276 0.959 . S
H1261 C1276 0.959 . S
H1262 C1276 0.961 . S
H1263 C1277 0.960 . S
H1264 C1277 0.961 . S
H1265 C1277 0.959 . S
H1266 C1280 0.929 . S
H1267 C1281 0.931 . S
H1268 C1283 0.930 . S
C1269 H1257 0.930 . S
C1269 C1270 1.399 . S
C1269 C1274 1.399 . S
C1270 C1269 1.399 . S
C1270 C1271 1.376 . S
C1271 H1258 0.930 . S
C1271 C1270 1.376 . S
C1271 C1272 1.388 . S
C1272 H1259 0.930 . S
C1272 C1271 1.388 . S
C1272 C1273 1.390 . S
C1273 C1272 1.390 . S
C1273 C1274 1.394 . S
C1273 C1279 1.465 . S
C1274 C1269 1.399 . S
C1274 C1273 1.394 . S
C1274 C1275 1.516 . S
C1275 C1274 1.516 . S
C1275 C1276 1.502 . S
C1275 C1277 1.561 . S
C1275 C1278 1.526 . S
C1276 H1260 0.959 . S
C1276 H1261 0.959 . S
C1276 H1262 0.961 . S
C1276 C1275 1.502 . S
C1277 H1263 0.960 . S
C1277 H1264 0.961 . S
C1277 H1265 0.959 . S
C1277 C1275 1.561 . S
C1278 C1275 1.526 . S
C1278 C1279 1.396 . S
C1278 C1283 1.390 . S
C1279 C1273 1.465 . S
C1279 C1278 1.396 . S
C1279 C1280 1.399 . S
C1280 H1266 0.929 . S
C1280 C1279 1.399 . S
C1280 C1281 1.385 . S
C1281 H1267 0.931 . S
C1281 C1280 1.385 . S
C1281 C1282 1.389 . S
C1282 C1281 1.389 . S
C1282 C1283 1.387 . S
C1283 H1268 0.930 . S
C1283 C1278 1.390 . S
C1283 C1282 1.387 . S
H1284 C1296 0.930 . S
H1285 C1298 0.930 . S
H1286 C1299 0.930 . S
H1287 C1303 0.959 . S
H1288 C1303 0.959 . S
H1289 C1303 0.961 . S
H1290 C1304 0.960 . S
H1291 C1304 0.961 . S
H1292 C1304 0.959 . S
H1293 C1307 0.929 . S
H1294 C1308 0.931 . S
H1295 C1310 0.930 . S
C1296 H1284 0.930 . S
C1296 C1297 1.399 . S
C1296 C1301 1.399 . S
C1297 C1296 1.399 . S
C1297 C1298 1.376 . S
C1298 H1285 0.930 . S
C1298 C1297 1.376 . S
C1298 C1299 1.388 . S
C1299 H1286 0.930 . S
C1299 C1298 1.388 . S
C1299 C1300 1.390 . S
C1300 C1299 1.390 . S
C1300 C1301 1.394 . S
C1300 C1306 1.465 . S
C1301 C1296 1.399 . S
C1301 C1300 1.394 . S
C1301 C1302 1.516 . S
C1302 C1301 1.516 . S
C1302 C1303 1.502 . S
C1302 C1304 1.561 . S
C1302 C1305 1.526 . S
C1303 H1287 0.959 . S
C1303 H1288 0.959 . S
C1303 H1289 0.961 . S
C1303 C1302 1.502 . S
C1304 H1290 0.960 . S
C1304 H1291 0.961 . S
C1304 H1292 0.959 . S
C1304 C1302 1.561 . S
C1305 C1302 1.526 . S
C1305 C1306 1.396 . S
C1305 C1310 1.390 . S
C1306 C1300 1.465 . S
C1306 C1305 1.396 . S
C1306 C1307 1.399 . S
C1307 H1293 0.929 . S
C1307 C1306 1.399 . S
C1307 C1308 1.385 . S
C1308 H1294 0.931 . S
C1308 C1307 1.385 . S
C1308 C1309 1.389 . S
C1309 C1308 1.389 . S
C1309 C1310 1.387 . S
C1310 H1295 0.930 . S
C1310 C1305 1.390 . S
C1310 C1309 1.387 . S
H1311 C1323 0.930 . S
H1312 C1325 0.930 . S
H1313 C1326 0.930 . S
H1314 C1330 0.959 . S
H1315 C1330 0.959 . S
H1316 C1330 0.961 . S
H1317 C1331 0.960 . S
H1318 C1331 0.961 . S
H1319 C1331 0.959 . S
H1320 C1334 0.929 . S
H1321 C1335 0.931 . S
H1322 C1337 0.930 . S
C1323 H1311 0.930 . S
C1323 C1324 1.399 . S
C1323 C1328 1.399 . S
C1324 C1323 1.399 . S
C1324 C1325 1.376 . S
C1325 H1312 0.930 . S
C1325 C1324 1.376 . S
C1325 C1326 1.388 . S
C1326 H1313 0.930 . S
C1326 C1325 1.388 . S
C1326 C1327 1.390 . S
C1327 C1326 1.390 . S
C1327 C1328 1.394 . S
C1327 C1333 1.465 . S
C1328 C1323 1.399 . S
C1328 C1327 1.394 . S
C1328 C1329 1.516 . S
C1329 C1328 1.516 . S
C1329 C1330 1.502 . S
C1329 C1331 1.561 . S
C1329 C1332 1.526 . S
C1330 H1314 0.959 . S
C1330 H1315 0.959 . S
C1330 H1316 0.961 . S
C1330 C1329 1.502 . S
C1331 H1317 0.960 . S
C1331 H1318 0.961 . S
C1331 H1319 0.959 . S
C1331 C1329 1.561 . S
C1332 C1329 1.526 . S
C1332 C1333 1.396 . S
C1332 C1337 1.390 . S
C1333 C1327 1.465 . S
C1333 C1332 1.396 . S
C1333 C1334 1.399 . S
C1334 H1320 0.929 . S
C1334 C1333 1.399 . S
C1334 C1335 1.385 . S
C1335 H1321 0.931 . S
C1335 C1334 1.385 . S
C1335 C1336 1.389 . S
C1336 C1335 1.389 . S
C1336 C1337 1.387 . S
C1337 H1322 0.930 . S
C1337 C1332 1.390 . S
C1337 C1336 1.387 . S
H1338 C1350 0.930 . S
H1339 C1352 0.933 . S
H1340 C1353 0.930 . S
H1341 C1357 0.959 . S
H1342 C1357 0.959 . S
H1343 C1357 0.961 . S
H1344 C1358 0.960 . S
H1345 C1358 0.961 . S
H1346 C1358 0.959 . S
H1347 C1361 0.929 . S
H1348 C1362 0.931 . S
H1349 C1364 0.930 . S
C1350 H1338 0.930 . S
C1350 C1351 1.399 . S
C1350 C1355 1.399 1_655 S
C1351 C1350 1.399 . S
C1351 C1352 1.381 . S
C1352 H1339 0.933 . S
C1352 C1351 1.381 . S
C1352 C1353 1.381 1_655 S
C1353 H1340 0.930 . S
C1353 C1352 1.381 1_455 S
C1353 C1354 1.390 . S
C1354 C1353 1.390 . S
C1354 C1355 1.394 . S
C1354 C1360 1.465 . S
C1355 C1350 1.399 1_455 S
C1355 C1354 1.394 . S
C1355 C1356 1.516 . S
C1356 C1355 1.516 . S
C1356 C1357 1.502 . S
C1356 C1358 1.561 . S
C1356 C1359 1.526 . S
C1357 H1341 0.959 . S
C1357 H1342 0.959 . S
C1357 H1343 0.961 . S
C1357 C1356 1.502 . S
C1358 H1344 0.960 . S
C1358 H1345 0.961 . S
C1358 H1346 0.959 . S
C1358 C1356 1.561 . S
C1359 C1356 1.526 . S
C1359 C1360 1.396 . S
C1359 C1364 1.390 . S
C1360 C1354 1.465 . S
C1360 C1359 1.396 . S
C1360 C1361 1.399 . S
C1361 H1347 0.929 . S
C1361 C1360 1.399 . S
C1361 C1362 1.385 . S
C1362 H1348 0.931 . S
C1362 C1361 1.385 . S
C1362 C1363 1.389 . S
C1363 C1362 1.389 . S
C1363 C1364 1.387 . S
C1364 H1349 0.930 . S
C1364 C1359 1.390 . S
C1364 C1363 1.387 . S
H1365 C1377 0.930 . S
H1366 C1379 0.930 . S
H1367 C1380 0.930 . S
H1368 C1384 0.959 . S
H1369 C1384 0.959 . S
H1370 C1384 0.961 . S
H1371 C1385 0.960 . S
H1372 C1385 0.961 . S
H1373 C1385 0.959 . S
H1374 C1388 0.929 . S
H1375 C1389 0.931 . S
H1376 C1391 0.930 . S
C1377 H1365 0.930 . S
C1377 C1378 1.399 . S
C1377 C1382 1.399 . S
C1378 C1377 1.399 . S
C1378 C1379 1.376 . S
C1379 H1366 0.930 . S
C1379 C1378 1.376 . S
C1379 C1380 1.388 . S
C1380 H1367 0.930 . S
C1380 C1379 1.388 . S
C1380 C1381 1.390 . S
C1381 C1380 1.390 . S
C1381 C1382 1.394 . S
C1381 C1387 1.465 . S
C1382 C1377 1.399 . S
C1382 C1381 1.394 . S
C1382 C1383 1.516 . S
C1383 C1382 1.516 . S
C1383 C1384 1.502 . S
C1383 C1385 1.561 . S
C1383 C1386 1.526 . S
C1384 H1368 0.959 . S
C1384 H1369 0.959 . S
C1384 H1370 0.961 . S
C1384 C1383 1.502 . S
C1385 H1371 0.960 . S
C1385 H1372 0.961 . S
C1385 H1373 0.959 . S
C1385 C1383 1.561 . S
C1386 C1383 1.526 . S
C1386 C1387 1.396 . S
C1386 C1391 1.390 . S
C1387 C1381 1.465 . S
C1387 C1386 1.396 . S
C1387 C1388 1.399 . S
C1388 H1374 0.929 . S
C1388 C1387 1.399 . S
C1388 C1389 1.385 . S
C1389 H1375 0.931 . S
C1389 C1388 1.385 . S
C1389 C1390 1.389 . S
C1390 C1389 1.389 . S
C1390 C1391 1.387 . S
C1391 H1376 0.930 . S
C1391 C1386 1.390 . S
C1391 C1390 1.387 . S
H1392 C1404 0.930 . S
H1393 C1406 0.930 . S
H1394 C1407 0.930 . S
H1395 C1411 0.959 . S
H1396 C1411 0.959 . S
H1397 C1411 0.961 . S
H1398 C1412 0.960 . S
H1399 C1412 0.961 . S
H1400 C1412 0.959 . S
H1401 C1415 0.929 . S
H1402 C1416 0.931 . S
H1403 C1418 0.930 . S
C1404 H1392 0.930 . S
C1404 C1405 1.399 . S
C1404 C1409 1.399 . S
C1405 C1404 1.399 . S
C1405 C1406 1.376 . S
C1406 H1393 0.930 . S
C1406 C1405 1.376 . S
C1406 C1407 1.388 . S
C1407 H1394 0.930 . S
C1407 C1406 1.388 . S
C1407 C1408 1.390 . S
C1408 C1407 1.390 . S
C1408 C1409 1.394 . S
C1408 C1414 1.465 . S
C1409 C1404 1.399 . S
C1409 C1408 1.394 . S
C1409 C1410 1.516 . S
C1410 C1409 1.516 . S
C1410 C1411 1.502 . S
C1410 C1412 1.561 . S
C1410 C1413 1.526 . S
C1411 H1395 0.959 . S
C1411 H1396 0.959 . S
C1411 H1397 0.961 . S
C1411 C1410 1.502 . S
C1412 H1398 0.960 . S
C1412 H1399 0.961 . S
C1412 H1400 0.959 . S
C1412 C1410 1.561 . S
C1413 C1410 1.526 . S
C1413 C1414 1.396 . S
C1413 C1418 1.390 . S
C1414 C1408 1.465 . S
C1414 C1413 1.396 . S
C1414 C1415 1.399 . S
C1415 H1401 0.929 . S
C1415 C1414 1.399 . S
C1415 C1416 1.385 . S
C1416 H1402 0.931 . S
C1416 C1415 1.385 . S
C1416 C1417 1.389 . S
C1417 C1416 1.389 . S
C1417 C1418 1.387 . S
C1418 H1403 0.930 . S
C1418 C1413 1.390 . S
C1418 C1417 1.387 . S
H1419 C1431 0.930 . S
H1420 C1433 0.930 . S
H1421 C1434 0.930 . S
H1422 C1438 0.959 . S
H1423 C1438 0.959 . S
H1424 C1438 0.961 . S
H1425 C1439 0.960 . S
H1426 C1439 0.961 . S
H1427 C1439 0.959 . S
H1428 C1442 0.929 . S
H1429 C1443 0.931 . S
H1430 C1445 0.930 . S
C1431 H1419 0.930 . S
C1431 C1432 1.399 . S
C1431 C1436 1.399 . S
C1432 C1431 1.399 . S
C1432 C1433 1.376 . S
C1433 H1420 0.930 . S
C1433 C1432 1.376 . S
C1433 C1434 1.388 . S
C1434 H1421 0.930 . S
C1434 C1433 1.388 . S
C1434 C1435 1.390 . S
C1435 C1434 1.390 . S
C1435 C1436 1.394 . S
C1435 C1441 1.465 . S
C1436 C1431 1.399 . S
C1436 C1435 1.394 . S
C1436 C1437 1.516 . S
C1437 C1436 1.516 . S
C1437 C1438 1.502 . S
C1437 C1439 1.561 . S
C1437 C1440 1.526 . S
C1438 H1422 0.959 . S
C1438 H1423 0.959 . S
C1438 H1424 0.961 . S
C1438 C1437 1.502 . S
C1439 H1425 0.960 . S
C1439 H1426 0.961 . S
C1439 H1427 0.959 . S
C1439 C1437 1.561 . S
C1440 C1437 1.526 . S
C1440 C1441 1.396 . S
C1440 C1445 1.390 . S
C1441 C1435 1.465 . S
C1441 C1440 1.396 . S
C1441 C1442 1.399 . S
C1442 H1428 0.929 . S
C1442 C1441 1.399 . S
C1442 C1443 1.385 . S
C1443 H1429 0.931 . S
C1443 C1442 1.385 . S
C1443 C1444 1.389 . S
C1444 C1443 1.389 . S
C1444 C1445 1.387 . S
C1445 H1430 0.930 . S
C1445 C1440 1.390 . S
C1445 C1444 1.387 . S
H1446 C1458 0.930 . S
H1447 C1460 0.930 . S
H1448 C1461 0.930 . S
H1449 C1465 0.959 . S
H1450 C1465 0.959 . S
H1451 C1465 0.961 . S
H1452 C1466 0.960 . S
H1453 C1466 0.961 . S
H1454 C1466 0.959 . S
H1455 C1469 0.929 . S
H1456 C1470 0.931 . S
H1457 C1472 0.930 . S
C1458 H1446 0.930 . S
C1458 C1459 1.399 . S
C1458 C1463 1.399 1_655 S
C1459 C1458 1.399 . S
C1459 C1460 1.376 . S
C1460 H1447 0.930 . S
C1460 C1459 1.376 . S
C1460 C1461 1.388 1_655 S
C1461 H1448 0.930 . S
C1461 C1460 1.388 1_455 S
C1461 C1462 1.390 . S
C1462 C1461 1.390 . S
C1462 C1463 1.394 . S
C1462 C1468 1.465 . S
C1463 C1458 1.399 1_455 S
C1463 C1462 1.394 . S
C1463 C1464 1.516 . S
C1464 C1463 1.516 . S
C1464 C1465 1.502 . S
C1464 C1466 1.561 . S
C1464 C1467 1.526 . S
C1465 H1449 0.959 . S
C1465 H1450 0.959 . S
C1465 H1451 0.961 . S
C1465 C1464 1.502 . S
C1466 H1452 0.960 . S
C1466 H1453 0.961 . S
C1466 H1454 0.959 . S
C1466 C1464 1.561 . S
C1467 C1464 1.526 . S
C1467 C1468 1.396 . S
C1467 C1472 1.390 . S
C1468 C1462 1.465 . S
C1468 C1467 1.396 . S
C1468 C1469 1.399 . S
C1469 H1455 0.929 . S
C1469 C1468 1.399 . S
C1469 C1470 1.385 . S
C1470 H1456 0.931 . S
C1470 C1469 1.385 . S
C1470 C1471 1.389 . S
C1471 C1470 1.389 . S
C1471 C1472 1.387 . S
C1472 H1457 0.930 . S
C1472 C1467 1.390 . S
C1472 C1471 1.387 . S
H1473 C1485 0.930 . S
H1474 C1487 0.930 . S
H1475 C1488 0.930 . S
H1476 C1492 0.959 . S
H1477 C1492 0.959 . S
H1478 C1492 0.961 . S
H1479 C1493 0.960 . S
H1480 C1493 0.961 . S
H1481 C1493 0.959 . S
H1482 C1496 0.929 . S
H1483 C1497 0.931 . S
H1484 C1499 0.930 . S
C1485 H1473 0.930 . S
C1485 C1486 1.399 . S
C1485 C1490 1.399 . S
C1486 C1485 1.399 . S
C1486 C1487 1.376 . S
C1487 H1474 0.930 . S
C1487 C1486 1.376 . S
C1487 C1488 1.388 . S
C1488 H1475 0.930 . S
C1488 C1487 1.388 . S
C1488 C1489 1.390 . S
C1489 C1488 1.390 . S
C1489 C1490 1.394 . S
C1489 C1495 1.465 . S
C1490 C1485 1.399 . S
C1490 C1489 1.394 . S
C1490 C1491 1.516 . S
C1491 C1490 1.516 . S
C1491 C1492 1.502 . S
C1491 C1493 1.561 . S
C1491 C1494 1.526 . S
C1492 H1476 0.959 . S
C1492 H1477 0.959 . S
C1492 H1478 0.961 . S
C1492 C1491 1.502 . S
C1493 H1479 0.960 . S
C1493 H1480 0.961 . S
C1493 H1481 0.959 . S
C1493 C1491 1.561 . S
C1494 C1491 1.526 . S
C1494 C1495 1.396 . S
C1494 C1499 1.390 . S
C1495 C1489 1.465 . S
C1495 C1494 1.396 . S
C1495 C1496 1.399 . S
C1496 H1482 0.929 . S
C1496 C1495 1.399 . S
C1496 C1497 1.385 . S
C1497 H1483 0.931 . S
C1497 C1496 1.385 . S
C1497 C1498 1.389 . S
C1498 C1497 1.389 . S
C1498 C1499 1.387 . S
C1499 H1484 0.930 . S
C1499 C1494 1.390 . S
C1499 C1498 1.387 . S
H1500 C1512 0.930 . S
H1501 C1514 0.930 . S
H1502 C1515 0.930 . S
H1503 C1519 0.959 . S
H1504 C1519 0.959 . S
H1505 C1519 0.961 . S
H1506 C1520 0.960 . S
H1507 C1520 0.961 . S
H1508 C1520 0.959 . S
H1509 C1523 0.929 . S
H1510 C1524 0.931 . S
H1511 C1526 0.930 . S
C1512 H1500 0.930 . S
C1512 C1513 1.399 . S
C1512 C1517 1.399 . S
C1513 C1512 1.399 . S
C1513 C1514 1.376 . S
C1514 H1501 0.930 . S
C1514 C1513 1.376 . S
C1514 C1515 1.388 . S
C1515 H1502 0.930 . S
C1515 C1514 1.388 . S
C1515 C1516 1.390 . S
C1516 C1515 1.390 . S
C1516 C1517 1.394 . S
C1516 C1522 1.465 . S
C1517 C1512 1.399 . S
C1517 C1516 1.394 . S
C1517 C1518 1.516 . S
C1518 C1517 1.516 . S
C1518 C1519 1.502 . S
C1518 C1520 1.561 . S
C1518 C1521 1.526 . S
C1519 H1503 0.959 . S
C1519 H1504 0.959 . S
C1519 H1505 0.961 . S
C1519 C1518 1.502 . S
C1520 H1506 0.960 . S
C1520 H1507 0.961 . S
C1520 H1508 0.959 . S
C1520 C1518 1.561 . S
C1521 C1518 1.526 . S
C1521 C1522 1.396 . S
C1521 C1526 1.390 . S
C1522 C1516 1.465 . S
C1522 C1521 1.396 . S
C1522 C1523 1.399 . S
C1523 H1509 0.929 . S
C1523 C1522 1.399 . S
C1523 C1524 1.385 . S
C1524 H1510 0.931 . S
C1524 C1523 1.385 . S
C1524 C1525 1.389 . S
C1525 C1524 1.389 . S
C1525 C1526 1.387 . S
C1526 H1511 0.930 . S
C1526 C1521 1.390 . S
C1526 C1525 1.387 . S
H1527 C1539 0.930 . S
H1528 C1541 0.930 . S
H1529 C1542 0.930 . S
H1530 C1546 0.959 . S
H1531 C1546 0.959 . S
H1532 C1546 0.961 . S
H1533 C1547 0.960 . S
H1534 C1547 0.961 . S
H1535 C1547 0.959 . S
H1536 C1550 0.929 . S
H1537 C1551 0.931 . S
H1538 C1553 0.930 . S
C1539 H1527 0.930 . S
C1539 C1540 1.399 . S
C1539 C1544 1.399 1_565 S
C1540 C1539 1.399 . S
C1540 C1541 1.376 . S
C1541 H1528 0.930 . S
C1541 C1540 1.376 . S
C1541 C1542 1.388 1_565 S
C1542 H1529 0.930 . S
C1542 C1541 1.388 1_545 S
C1542 C1543 1.390 . S
C1543 C1542 1.390 . S
C1543 C1544 1.394 . S
C1543 C1549 1.465 . S
C1544 C1539 1.399 1_545 S
C1544 C1543 1.394 . S
C1544 C1545 1.516 . S
C1545 C1544 1.516 . S
C1545 C1546 1.502 . S
C1545 C1547 1.561 . S
C1545 C1548 1.526 . S
C1546 H1530 0.959 . S
C1546 H1531 0.959 . S
C1546 H1532 0.961 . S
C1546 C1545 1.502 . S
C1547 H1533 0.960 . S
C1547 H1534 0.961 . S
C1547 H1535 0.959 . S
C1547 C1545 1.561 . S
C1548 C1545 1.526 . S
C1548 C1549 1.396 . S
C1548 C1553 1.390 . S
C1549 C1543 1.465 . S
C1549 C1548 1.396 . S
C1549 C1550 1.399 . S
C1550 H1536 0.929 . S
C1550 C1549 1.399 . S
C1550 C1551 1.385 . S
C1551 H1537 0.931 . S
C1551 C1550 1.385 . S
C1551 C1552 1.389 . S
C1552 C1551 1.389 . S
C1552 C1553 1.387 . S
C1553 H1538 0.930 . S
C1553 C1548 1.390 . S
C1553 C1552 1.387 . S
H1554 C1566 0.930 . S
H1555 C1568 0.930 . S
H1556 C1569 0.930 . S
H1557 C1573 0.959 . S
H1558 C1573 0.959 . S
H1559 C1573 0.961 . S
H1560 C1574 0.960 . S
H1561 C1574 0.961 . S
H1562 C1574 0.959 . S
H1563 C1577 0.929 . S
H1564 C1578 0.931 . S
H1565 C1580 0.930 . S
C1566 H1554 0.930 . S
C1566 C1567 1.399 . S
C1566 C1571 1.399 . S
C1567 C1566 1.399 . S
C1567 C1568 1.376 . S
C1568 H1555 0.930 . S
C1568 C1567 1.376 . S
C1568 C1569 1.388 . S
C1569 H1556 0.930 . S
C1569 C1568 1.388 . S
C1569 C1570 1.390 . S
C1570 C1569 1.390 . S
C1570 C1571 1.394 . S
C1570 C1576 1.465 . S
C1571 C1566 1.399 . S
C1571 C1570 1.394 . S
C1571 C1572 1.516 . S
C1572 C1571 1.516 . S
C1572 C1573 1.502 . S
C1572 C1574 1.561 . S
C1572 C1575 1.526 . S
C1573 H1557 0.959 . S
C1573 H1558 0.959 . S
C1573 H1559 0.961 . S
C1573 C1572 1.502 . S
C1574 H1560 0.960 . S
C1574 H1561 0.961 . S
C1574 H1562 0.959 . S
C1574 C1572 1.561 . S
C1575 C1572 1.526 . S
C1575 C1576 1.396 . S
C1575 C1580 1.390 . S
C1576 C1570 1.465 . S
C1576 C1575 1.396 . S
C1576 C1577 1.399 . S
C1577 H1563 0.929 . S
C1577 C1576 1.399 . S
C1577 C1578 1.385 . S
C1578 H1564 0.931 . S
C1578 C1577 1.385 . S
C1578 C1579 1.389 . S
C1579 C1578 1.389 . S
C1579 C1580 1.387 . S
C1580 H1565 0.930 . S
C1580 C1575 1.390 . S
C1580 C1579 1.387 . S
H1581 C1593 0.930 . S
H1582 C1595 0.930 . S
H1583 C1596 0.930 . S
H1584 C1600 0.959 . S
H1585 C1600 0.959 . S
H1586 C1600 0.961 . S
H1587 C1601 0.960 . S
H1588 C1601 0.961 . S
H1589 C1601 0.959 . S
H1590 C1604 0.929 . S
H1591 C1605 0.931 . S
H1592 C1607 0.930 . S
C1593 H1581 0.930 . S
C1593 C1594 1.399 1_556 S
C1593 C1598 1.399 1_545 S
C1594 C1593 1.399 1_554 S
C1594 C1595 1.376 . S
C1595 H1582 0.930 . S
C1595 C1594 1.376 . S
C1595 C1596 1.388 1_545 S
C1596 H1583 0.930 . S
C1596 C1595 1.388 1_565 S
C1596 C1597 1.390 . S
C1597 C1596 1.390 . S
C1597 C1598 1.394 1_554 S
C1597 C1603 1.465 . S
C1598 C1593 1.399 1_565 S
C1598 C1597 1.394 1_556 S
C1598 C1599 1.516 . S
C1599 C1598 1.516 . S
C1599 C1600 1.502 . S
C1599 C1601 1.561 . S
C1599 C1602 1.526 . S
C1600 H1584 0.959 . S
C1600 H1585 0.959 . S
C1600 H1586 0.961 . S
C1600 C1599 1.502 . S
C1601 H1587 0.960 . S
C1601 H1588 0.961 . S
C1601 H1589 0.959 . S
C1601 C1599 1.561 . S
C1602 C1599 1.526 . S
C1602 C1603 1.396 1_556 S
C1602 C1607 1.390 . S
C1603 C1597 1.465 . S
C1603 C1602 1.396 1_554 S
C1603 C1604 1.399 . S
C1604 H1590 0.929 . S
C1604 C1603 1.399 . S
C1604 C1605 1.385 . S
C1605 H1591 0.931 . S
C1605 C1604 1.385 . S
C1605 C1606 1.389 . S
C1606 C1605 1.389 . S
C1606 C1607 1.387 1_554 S
C1607 H1592 0.930 . S
C1607 C1602 1.390 . S
C1607 C1606 1.387 1_556 S
H1608 C1620 0.930 . S
H1609 C1622 0.930 . S
H1610 C1623 0.930 . S
H1611 C1627 0.959 . S
H1612 C1627 0.959 . S
H1613 C1627 0.961 . S
H1614 C1628 0.960 . S
H1615 C1628 0.961 . S
H1616 C1628 0.959 . S
H1617 C1631 0.929 . S
H1618 C1632 0.931 . S
H1619 C1634 0.930 . S
C1620 H1608 0.930 . S
C1620 C1621 1.399 . S
C1620 C1625 1.399 . S
C1621 C1620 1.399 . S
C1621 C1622 1.376 . S
C1622 H1609 0.930 . S
C1622 C1621 1.376 . S
C1622 C1623 1.388 . S
C1623 H1610 0.930 . S
C1623 C1622 1.388 . S
C1623 C1624 1.390 . S
C1624 C1623 1.390 . S
C1624 C1625 1.394 . S
C1624 C1630 1.465 . S
C1625 C1620 1.399 . S
C1625 C1624 1.394 . S
C1625 C1626 1.516 . S
C1626 C1625 1.516 . S
C1626 C1627 1.502 . S
C1626 C1628 1.561 . S
C1626 C1629 1.526 . S
C1627 H1611 0.959 . S
C1627 H1612 0.959 . S
C1627 H1613 0.961 . S
C1627 C1626 1.502 . S
C1628 H1614 0.960 . S
C1628 H1615 0.961 . S
C1628 H1616 0.959 . S
C1628 C1626 1.561 . S
C1629 C1626 1.526 . S
C1629 C1630 1.396 . S
C1629 C1634 1.390 . S
C1630 C1624 1.465 . S
C1630 C1629 1.396 . S
C1630 C1631 1.399 . S
C1631 H1617 0.929 . S
C1631 C1630 1.399 . S
C1631 C1632 1.385 . S
C1632 H1618 0.931 . S
C1632 C1631 1.385 . S
C1632 C1633 1.389 . S
C1633 C1632 1.389 . S
C1633 C1634 1.387 . S
C1634 H1619 0.930 . S
C1634 C1629 1.390 . S
C1634 C1633 1.387 . S
H1635 C1647 0.930 . S
H1636 C1649 0.930 . S
H1637 C1650 0.930 . S
H1638 C1654 0.959 . S
H1639 C1654 0.959 . S
H1640 C1654 0.961 . S
H1641 C1655 0.960 . S
H1642 C1655 0.961 . S
H1643 C1655 0.959 . S
H1644 C1658 0.929 . S
H1645 C1659 0.931 . S
H1646 C1661 0.930 . S
C1647 H1635 0.930 . S
C1647 C1648 1.399 1_556 S
C1647 C1652 1.399 . S
C1648 C1647 1.399 1_554 S
C1648 C1649 1.376 . S
C1649 H1636 0.930 . S
C1649 C1648 1.376 . S
C1649 C1650 1.388 . S
C1650 H1637 0.930 . S
C1650 C1649 1.388 . S
C1650 C1651 1.390 . S
C1651 C1650 1.390 . S
C1651 C1652 1.394 1_554 S
C1651 C1657 1.465 . S
C1652 C1647 1.399 . S
C1652 C1651 1.394 1_556 S
C1652 C1653 1.516 . S
C1653 C1652 1.516 . S
C1653 C1654 1.502 . S
C1653 C1655 1.561 . S
C1653 C1656 1.526 . S
C1654 H1638 0.959 . S
C1654 H1639 0.959 . S
C1654 H1640 0.961 . S
C1654 C1653 1.502 . S
C1655 H1641 0.960 . S
C1655 H1642 0.961 . S
C1655 H1643 0.959 . S
C1655 C1653 1.561 . S
C1656 C1653 1.526 . S
C1656 C1657 1.396 1_556 S
C1656 C1661 1.390 . S
C1657 C1651 1.465 . S
C1657 C1656 1.396 1_554 S
C1657 C1658 1.399 . S
C1658 H1644 0.929 . S
C1658 C1657 1.399 . S
C1658 C1659 1.385 . S
C1659 H1645 0.931 . S
C1659 C1658 1.385 . S
C1659 C1660 1.372 1_554 S
C1660 C1659 1.372 1_556 S
C1660 C1661 1.399 . S
C1661 H1646 0.930 . S
C1661 C1656 1.390 . S
C1661 C1660 1.399 . S
H1662 C1674 0.930 . S
H1663 C1676 0.930 . S
H1664 C1677 0.930 . S
H1665 C1681 0.959 . S
H1666 C1681 0.959 . S
H1667 C1681 0.961 . S
H1668 C1682 0.960 . S
H1669 C1682 0.961 . S
H1670 C1682 0.959 . S
H1671 C1685 0.929 . S
H1672 C1686 0.931 . S
H1673 C1688 0.930 . S
C1674 H1662 0.930 . S
C1674 C1675 1.399 . S
C1674 C1679 1.399 . S
C1675 C1674 1.399 . S
C1675 C1676 1.376 . S
C1676 H1663 0.930 . S
C1676 C1675 1.376 . S
C1676 C1677 1.388 . S
C1677 H1664 0.930 . S
C1677 C1676 1.388 . S
C1677 C1678 1.390 . S
C1678 C1677 1.390 . S
C1678 C1679 1.394 . S
C1678 C1684 1.465 . S
C1679 C1674 1.399 . S
C1679 C1678 1.394 . S
C1679 C1680 1.516 . S
C1680 C1679 1.516 . S
C1680 C1681 1.502 . S
C1680 C1682 1.561 . S
C1680 C1683 1.526 . S
C1681 H1665 0.959 . S
C1681 H1666 0.959 . S
C1681 H1667 0.961 . S
C1681 C1680 1.502 . S
C1682 H1668 0.960 . S
C1682 H1669 0.961 . S
C1682 H1670 0.959 . S
C1682 C1680 1.561 . S
C1683 C1680 1.526 . S
C1683 C1684 1.396 . S
C1683 C1688 1.390 . S
C1684 C1678 1.465 . S
C1684 C1683 1.396 . S
C1684 C1685 1.399 . S
C1685 H1671 0.929 . S
C1685 C1684 1.399 . S
C1685 C1686 1.385 . S
C1686 H1672 0.931 . S
C1686 C1685 1.385 . S
C1686 C1687 1.389 . S
C1687 C1686 1.389 . S
C1687 C1688 1.387 . S
C1688 H1673 0.930 . S
C1688 C1683 1.390 . S
C1688 C1687 1.387 . S
H1689 C1701 0.930 . S
H1690 C1703 0.930 . S
H1691 C1704 0.930 . S
H1692 C1708 0.959 . S
H1693 C1708 0.959 . S
H1694 C1708 0.961 . S
H1695 C1709 0.960 . S
H1696 C1709 0.961 . S
H1697 C1709 0.959 . S
H1698 C1712 0.929 . S
H1699 C1713 0.931 . S
H1700 C1715 0.930 . S
C1701 H1689 0.930 . S
C1701 C1702 1.399 . S
C1701 C1706 1.399 . S
C1702 C1701 1.399 . S
C1702 C1703 1.376 . S
C1703 H1690 0.930 . S
C1703 C1702 1.376 . S
C1703 C1704 1.388 . S
C1704 H1691 0.930 . S
C1704 C1703 1.388 . S
C1704 C1705 1.390 . S
C1705 C1704 1.390 . S
C1705 C1706 1.394 . S
C1705 C1711 1.465 . S
C1706 C1701 1.399 . S
C1706 C1705 1.394 . S
C1706 C1707 1.516 . S
C1707 C1706 1.516 . S
C1707 C1708 1.502 . S
C1707 C1709 1.561 . S
C1707 C1710 1.526 . S
C1708 H1692 0.959 . S
C1708 H1693 0.959 . S
C1708 H1694 0.961 . S
C1708 C1707 1.502 . S
C1709 H1695 0.960 . S
C1709 H1696 0.961 . S
C1709 H1697 0.959 . S
C1709 C1707 1.561 . S
C1710 C1707 1.526 . S
C1710 C1711 1.396 . S
C1710 C1715 1.390 . S
C1711 C1705 1.465 . S
C1711 C1710 1.396 . S
C1711 C1712 1.399 . S
C1712 H1698 0.929 . S
C1712 C1711 1.399 . S
C1712 C1713 1.385 . S
C1713 H1699 0.931 . S
C1713 C1712 1.385 . S
C1713 C1714 1.389 . S
C1714 C1713 1.389 . S
C1714 C1715 1.387 . S
C1715 H1700 0.930 . S
C1715 C1710 1.390 . S
C1715 C1714 1.387 . S
C445 C416 1.127 . S
C433 C11 1.181 . S
C460 C19 1.371 . S
C472 C345 1.204 . S
C487 C37 1.132 . S
C499 C374 0.996 . S
C526 C387 1.153 . S
C514 C42 1.313 . S
C541 C25 1.111 1_455 S
C553 C408 1.047 . S
C580 C353 1.169 . S
C568 C28 1.322 . S
C607 C366 1.067 . S
C595 C51 1.147 . S
C634 C395 1.263 . S
C622 C5 1.354 . S
C649 C61 1.147 . S
C661 C397 0.939 . S
C688 C411 1.338 . S
C676 C81 1.335 . S
C715 C355 1.105 1_545 S
C703 C89 1.180 . S
C742 C369 1.311 . S
C730 C107 1.309 . S
C757 C56 1.093 . S
C769 C348 1.123 1_545 S
C784 C79 1.292 . S
C796 C376 1.226 . S
C811 C84 1.220 . S
C823 C390 0.990 . S
C850 C418 1.291 . S
C838 C109 1.361 . S
C877 C227 1.189 1_556 S
C865 C103 1.241 . S
C904 C208 0.912 1_554 S
C892 C117 1.210 . S
C931 C222 1.204 . S
C919 C137 1.333 . S
C958 C243 0.919 . S
C946 C140 1.150 . S
C973 C67 1.255 . S
C985 C229 1.228 . S
C1000 C70 1.235 . S
C1012 C180 0.982 . S
C1027 C135 1.399 . S
C1039 C240 1.296 . S
C1054 C163 1.359 . S
C1066 C206 1.268 . S
C1093 C269 1.107 . S
C1081 C39 1.182 . S
C1120 C282 1.293 . S
C1108 C47 1.335 . S
C1135 C9 1.164 . S
C1147 C311 0.947 . S
C1162 C14 1.327 . S
C1174 C324 1.129 . S
C1201 C261 1.006 . S
C1189 C53 1.198 . S
C1228 C290 1.280 . S
C1216 C0 1.266 . S
C1243 C23 1.249 . S
C1255 C303 0.965 . S
C1282 C332 1.346 . S
C1270 C33 1.334 . S
C1297 C159 1.165 . S
C1309 C334 0.953 . S
C1324 C123 1.336 . S
C1336 C264 1.223 . S
C1363 C292 1.112 . S
C1351 C131 1.193 . S
C1378 C149 1.270 . S
C1390 C306 1.294 . S
C1417 C285 1.041 . S
C1405 C154 1.083 . S
C1432 C121 1.348 . S
C1444 C313 1.209 . S
C1471 C327 1.144 . S
C1459 C126 1.157 . S
C1498 C271 1.267 . S
C1486 C151 1.385 . S
C1525 C187 1.166 . S
C1513 C145 1.254 . S
C1552 C250 1.132 . S
C1540 C75 1.192 . S
C1567 C95 1.319 . S
C1579 C177 1.148 . S
C1606 C201 1.079 1_554 S
C1594 C98 1.086 . S
C1633 C185 1.173 . S
C1621 C165 1.270 . S
C1648 C112 1.244 . S
C1660 C219 0.867 1_556 S
C1675 C93 1.346 . S
C1687 C198 1.313 . S
C1702 C65 1.288 . S
C1714 C248 1.328 . S
