# Generated by pormake.
# Topology pyr, (3,6)-cn, num edge types: 1
# Building blocks:
#     Node 0, Type 0, BuildingBlock: MIDCAF_clean_linker_0, # of connection points: 3
#     Node 1, Type 0, BuildingBlock: MIDCAF_clean_linker_0, # of connection points: 3
#     Node 2, Type 0, BuildingBlock: MIDCAF_clean_linker_0, # of connection points: 3
#     Node 3, Type 0, BuildingBlock: MIDCAF_clean_linker_0, # of connection points: 3
#     Node 4, Type 0, BuildingBlock: MIDCAF_clean_linker_0, # of connection points: 3
#     Node 5, Type 0, BuildingBlock: MIDCAF_clean_linker_0, # of connection points: 3
#     Node 6, Type 0, BuildingBlock: MIDCAF_clean_linker_0, # of connection points: 3
#     Node 7, Type 0, BuildingBlock: MIDCAF_clean_linker_0, # of connection points: 3
#     Node 8, Type 1, BuildingBlock: LEVNOQ01_clean_sbu_1, # of connection points: 6
#     Node 9, Type 1, BuildingBlock: LEVNOQ01_clean_sbu_1, # of connection points: 6
#     Node 10, Type 1, BuildingBlock: LEVNOQ01_clean_sbu_1, # of connection points: 6
#     Node 11, Type 1, BuildingBlock: LEVNOQ01_clean_sbu_1, # of connection points: 6
#     Edge 12, Type (0, 1), BuildingBlock: EZIPEK_clean_linker_0, # of connection points: 2
#     Edge 13, Type (0, 1), BuildingBlock: EZIPEK_clean_linker_0, # of connection points: 2
#     Edge 14, Type (0, 1), BuildingBlock: EZIPEK_clean_linker_0, # of connection points: 2
#     Edge 15, Type (0, 1), BuildingBlock: EZIPEK_clean_linker_0, # of connection points: 2
#     Edge 16, Type (0, 1), BuildingBlock: EZIPEK_clean_linker_0, # of connection points: 2
#     Edge 17, Type (0, 1), BuildingBlock: EZIPEK_clean_linker_0, # of connection points: 2
#     Edge 18, Type (0, 1), BuildingBlock: EZIPEK_clean_linker_0, # of connection points: 2
#     Edge 19, Type (0, 1), BuildingBlock: EZIPEK_clean_linker_0, # of connection points: 2
#     Edge 20, Type (0, 1), BuildingBlock: EZIPEK_clean_linker_0, # of connection points: 2
#     Edge 21, Type (0, 1), BuildingBlock: EZIPEK_clean_linker_0, # of connection points: 2
#     Edge 22, Type (0, 1), BuildingBlock: EZIPEK_clean_linker_0, # of connection points: 2
#     Edge 23, Type (0, 1), BuildingBlock: EZIPEK_clean_linker_0, # of connection points: 2
#     Edge 24, Type (0, 1), BuildingBlock: EZIPEK_clean_linker_0, # of connection points: 2
#     Edge 25, Type (0, 1), BuildingBlock: EZIPEK_clean_linker_0, # of connection points: 2
#     Edge 26, Type (0, 1), BuildingBlock: EZIPEK_clean_linker_0, # of connection points: 2
#     Edge 27, Type (0, 1), BuildingBlock: EZIPEK_clean_linker_0, # of connection points: 2
#     Edge 28, Type (0, 1), BuildingBlock: EZIPEK_clean_linker_0, # of connection points: 2
#     Edge 29, Type (0, 1), BuildingBlock: EZIPEK_clean_linker_0, # of connection points: 2
#     Edge 30, Type (0, 1), BuildingBlock: EZIPEK_clean_linker_0, # of connection points: 2
#     Edge 31, Type (0, 1), BuildingBlock: EZIPEK_clean_linker_0, # of connection points: 2
#     Edge 32, Type (0, 1), BuildingBlock: EZIPEK_clean_linker_0, # of connection points: 2
#     Edge 33, Type (0, 1), BuildingBlock: EZIPEK_clean_linker_0, # of connection points: 2
#     Edge 34, Type (0, 1), BuildingBlock: EZIPEK_clean_linker_0, # of connection points: 2
#     Edge 35, Type (0, 1), BuildingBlock: EZIPEK_clean_linker_0, # of connection points: 2
# Relax obj value: 0.035
# Max RMSD: 0.110
# Mean RMSD: 0.047
data_MOF--net-pry--node1-LEVNOQ01_clean_sbu_1--node2-MIDCAF_clean_linker_0--edge1-EZIPEK_clean_linker_0
_symmetry_space_group_name_H-M    P1
_symmetry_Int_Tables_number       1
_symmetry_cell_setting            triclinic
loop_
_symmetry_equiv_pos_as_xyz
'x, y, z'
_cell_length_a     35.779345
_cell_length_b     34.410611
_cell_length_c     34.433263
_cell_angle_alpha  92.359354
_cell_angle_beta   91.238207
_cell_angle_gamma 93.945421
loop_
_atom_site_label
_atom_site_type_symbol
_atom_site_fract_x
_atom_site_fract_y
_atom_site_fract_z
_atom_type_partial_charge
C0 C 0.06272 0.10653 0.24844 0.0
C1 C 0.08108 0.07884 0.26916 0.0
C2 C 0.11507 0.06626 0.25539 0.0
C3 C 0.13051 0.08123 0.22155 0.0
H4 H 0.20023 0.05341 0.13161 0.0
H5 H 0.25668 0.02529 0.10787 0.0
H6 H 0.27871 0.12371 0.0364 0.0
H7 H 0.22186 0.15227 0.05978 0.0
H8 H 0.14838 0.20927 0.04912 0.0
H9 H 0.11996 0.2629 0.02117 0.0
H10 H 0.04972 0.27299 0.12112 0.0
H11 H 0.07907 0.21971 0.14925 0.0
H12 H 0.06333 0.14311 0.19958 0.0
H13 H 0.03637 0.11648 0.25846 0.0
H14 H 0.12969 0.04489 0.27093 0.0
H15 H 0.15686 0.071 0.21188 0.0
N16 N 0.15836 0.10933 0.14808 0.0
N17 N 0.1602 0.15648 0.10053 0.0
N18 N 0.11568 0.15796 0.14969 0.0
C19 C 0.17406 0.1242 0.11572 0.0
C20 C 0.13092 0.17357 0.11742 0.0
C21 C 0.12919 0.12592 0.16529 0.0
C22 C 0.20656 0.10553 0.09809 0.0
C23 C 0.2167 0.06906 0.11049 0.0
C24 C 0.24888 0.05267 0.09674 0.0
C25 C 0.27193 0.07236 0.07041 0.0
C26 C 0.26121 0.10792 0.05659 0.0
C27 C 0.22876 0.12429 0.07016 0.0
C28 C 0.11464 0.20823 0.10052 0.0
C29 C 0.12588 0.22214 0.06452 0.0
C30 C 0.10813 0.25274 0.04761 0.0
C31 C 0.07708 0.26941 0.06514 0.0
C32 C 0.06953 0.25828 0.10351 0.0
C33 C 0.0872 0.22785 0.12041 0.0
C34 C 0.11242 0.10938 0.20087 0.0
C35 C 0.07825 0.12174 0.21477 0.0
C36 C 0.25205 0.9527 0.5786 0.0
C37 C 0.22974 0.92667 0.55406 0.0
C38 C 0.24291 0.89081 0.54223 0.0
C39 C 0.27759 0.88038 0.55609 0.0
H40 H 0.3577 0.80204 0.53869 0.0
H41 H 0.3863 0.74666 0.51198 0.0
H42 H 0.46201 0.75003 0.61188 0.0
H43 H 0.43299 0.80551 0.63846 0.0
H44 H 0.44888 0.88778 0.684 0.0
H45 H 0.47307 0.91499 0.7468 0.0
H46 H 0.37984 0.98753 0.75516 0.0
H47 H 0.35508 0.96054 0.69209 0.0
H48 H 0.30278 0.96244 0.61252 0.0
H49 H 0.242 0.98046 0.58803 0.0
H50 H 0.22576 0.8704 0.52347 0.0
H51 H 0.28658 0.85197 0.54737 0.0
N52 N 0.34809 0.8591 0.58721 0.0
N53 N 0.39573 0.86681 0.63507 0.0
N54 N 0.35109 0.91328 0.63103 0.0
C55 C 0.37889 0.84596 0.6045 0.0
C56 C 0.38211 0.90052 0.64849 0.0
C57 C 0.33403 0.89272 0.60024 0.0
C58 C 0.39474 0.81002 0.58945 0.0
C59 C 0.38152 0.79179 0.55422 0.0
C60 C 0.39923 0.76033 0.53804 0.0
C61 C 0.43187 0.74716 0.55568 0.0
C62 C 0.44125 0.76231 0.59376 0.0
C63 C 0.42367 0.79382 0.60992 0.0
C64 C 0.39965 0.92148 0.68331 0.0
C65 C 0.43375 0.91003 0.69872 0.0
C66 C 0.44785 0.92575 0.73444 0.0
C67 C 0.42813 0.9531 0.75531 0.0
C68 C 0.39543 0.96657 0.73909 0.0
C69 C 0.3813 0.95094 0.7032 0.0
C70 C 0.29935 0.90556 0.58231 0.0
C71 C 0.2866 0.94222 0.5927 0.0
C72 C 0.60907 0.25128 0.92796 0.0
C73 C 0.57637 0.23226 0.91022 0.0
C74 C 0.56228 0.24919 0.87666 0.0
C75 C 0.57452 0.28688 0.86724 0.0
H76 H 0.56929 0.36074 0.78502 0.0
H77 H 0.55124 0.38141 0.72156 0.0
H78 H 0.61719 0.49032 0.74208 0.0
H79 H 0.63735 0.46914 0.80599 0.0
H80 H 0.68407 0.47919 0.90063 0.0
H81 H 0.74519 0.50454 0.92896 0.0
H82 H 0.77093 0.38758 0.95494 0.0
H83 H 0.71037 0.36245 0.9284 0.0
H84 H 0.64533 0.30275 0.93479 0.0
H85 H 0.62675 0.23778 0.9483 0.0
H86 H 0.54203 0.23363 0.85699 0.0
H87 H 0.56182 0.29945 0.84227 0.0
N88 N 0.60254 0.36399 0.84888 0.0
N89 N 0.64509 0.41849 0.8598 0.0
N90 N 0.64404 0.36675 0.90201 0.0
C91 C 0.61681 0.3993 0.8382 0.0
C92 C 0.65856 0.40219 0.89203 0.0
C93 C 0.616 0.34755 0.88062 0.0
C94 C 0.60474 0.41344 0.80068 0.0
C95 C 0.58053 0.38897 0.77622 0.0
C96 C 0.57046 0.4004 0.73968 0.0
C97 C 0.58332 0.43702 0.72742 0.0
C98 C 0.60755 0.46171 0.75133 0.0
C99 C 0.61852 0.44982 0.78784 0.0
C100 C 0.69264 0.41899 0.9124 0.0
C101 C 0.70255 0.4592 0.91325 0.0
C102 C 0.7371 0.47365 0.92956 0.0
C103 C 0.76222 0.44771 0.94386 0.0
C104 C 0.75165 0.4079 0.94432 0.0
C105 C 0.71705 0.39367 0.92902 0.0
C106 C 0.603 0.30767 0.88962 0.0
C107 C 0.62115 0.28886 0.919 0.0
C108 C 0.75636 0.58585 0.47799 0.0
C109 C 0.73926 0.54817 0.46888 0.0
C110 C 0.75464 0.52681 0.43773 0.0
C111 C 0.78783 0.54016 0.42039 0.0
H112 H 0.84859 0.52649 0.32062 0.0
H113 H 0.86288 0.50498 0.25428 0.0
H114 H 0.96311 0.58222 0.2588 0.0
H115 H 0.94916 0.60429 0.32478 0.0
H116 H 0.95177 0.67778 0.37991 0.0
H117 H 0.98202 0.73899 0.40105 0.0
H118 H 0.90786 0.74376 0.49867 0.0
H119 H 0.87785 0.68236 0.47696 0.0
H120 H 0.80179 0.62791 0.46945 0.0
H121 H 0.74425 0.60646 0.49745 0.0
H122 H 0.74089 0.5 0.42556 0.0
H123 H 0.79886 0.5223 0.39727 0.0
N124 N 0.85412 0.57177 0.38236 0.0
N125 N 0.90504 0.6182 0.38039 0.0
N126 N 0.86112 0.62318 0.42942 0.0
C127 C 0.88589 0.58548 0.36514 0.0
C128 C 0.89296 0.63723 0.41253 0.0
C129 C 0.84159 0.5904 0.41458 0.0
C130 C 0.89732 0.56774 0.32777 0.0
C131 C 0.87388 0.53868 0.30772 0.0
C132 C 0.88184 0.52644 0.2698 0.0
C133 C 0.91358 0.54265 0.25169 0.0
C134 C 0.93819 0.56986 0.27233 0.0
C135 C 0.93018 0.58231 0.31007 0.0
C136 C 0.91324 0.67407 0.42752 0.0
C137 C 0.94308 0.69112 0.40699 0.0
C138 C 0.96145 0.72648 0.42015 0.0
C139 C 0.95199 0.74558 0.45546 0.0
C140 C 0.9202 0.72915 0.47438 0.0
C141 C 0.90175 0.69376 0.46114 0.0
C142 C 0.8062 0.57608 0.43246 0.0
C143 C 0.78958 0.59908 0.46085 0.0
C144 C 0.76302 0.96519 0.91006 0.0
C145 C 0.74258 0.9482 0.94004 0.0
C146 C 0.75688 0.91673 0.95886 0.0
C147 C 0.7904 0.90152 0.94686 0.0
H148 H 0.85687 0.80536 0.9583 0.0
H149 H 0.87889 0.74459 0.98225 0.0
H150 H 0.97265 0.75361 0.90603 0.0
H151 H 0.95087 0.81413 0.88159 0.0
H152 H 0.9007 0.84513 0.78671 0.0
H153 H 0.91753 0.86362 0.72104 0.0
H154 H 0.91822 0.98514 0.75736 0.0
H155 H 0.899 0.96663 0.82259 0.0
H156 H 0.81073 0.9633 0.87399 0.0
H157 H 0.75239 0.98934 0.89503 0.0
H158 H 0.74141 0.90305 0.98194 0.0
H159 H 0.80005 0.87651 0.9612 0.0
N160 N 0.85781 0.86777 0.91647 0.0
N161 N 0.9001 0.86197 0.86561 0.0
N162 N 0.85799 0.91126 0.86564 0.0
C163 C 0.88656 0.84943 0.89991 0.0
C164 C 0.88609 0.89294 0.84847 0.0
C165 C 0.84344 0.89888 0.89952 0.0
C166 C 0.90176 0.81462 0.91761 0.0
C167 C 0.88248 0.79484 0.94697 0.0
C168 C 0.8951 0.76011 0.96085 0.0
C169 C 0.9275 0.74465 0.94606 0.0
C170 C 0.94774 0.76513 0.91804 0.0
C171 C 0.935 0.79965 0.90391 0.0
C172 C 0.89878 0.90446 0.80971 0.0
C173 C 0.90448 0.87577 0.78066 0.0
C174 C 0.91385 0.8863 0.7431 0.0
C175 C 0.91917 0.92577 0.73419 0.0
C176 C 0.91408 0.95453 0.76345 0.0
C177 C 0.90333 0.94396 0.8007 0.0
C178 C 0.81019 0.91742 0.91562 0.0
C179 C 0.79638 0.95001 0.89798 0.0
C180 C 0.61214 0.05779 0.2641 0.0
C181 C 0.57975 0.07134 0.24628 0.0
C182 C 0.56892 0.10816 0.26012 0.0
C183 C 0.58506 0.12672 0.29378 0.0
H184 H 0.55189 0.19288 0.38639 0.0
H185 H 0.52348 0.25143 0.40988 0.0
H186 H 0.61395 0.27547 0.49392 0.0
H187 H 0.64311 0.21688 0.47055 0.0
H188 H 0.69282 0.12129 0.47758 0.0
H189 H 0.75194 0.09794 0.50231 0.0
H190 H 0.79724 0.10368 0.38741 0.0
H191 H 0.73793 0.1249 0.36235 0.0
H192 H 0.65223 0.06408 0.31146 0.0
H193 H 0.62588 0.03316 0.2526 0.0
H194 H 0.54778 0.12326 0.24513 0.0
H195 H 0.57464 0.15404 0.30401 0.0
N196 N 0.60867 0.15412 0.37138 0.0
N197 N 0.65406 0.15982 0.42176 0.0
N198 N 0.66194 0.11852 0.36692 0.0
C199 C 0.62102 0.17001 0.40649 0.0
C200 C 0.67461 0.13422 0.40203 0.0
C201 C 0.6288 0.12823 0.35149 0.0
C202 C 0.60022 0.20062 0.42601 0.0
C203 C 0.56544 0.20997 0.4105 0.0
C204 C 0.54889 0.2432 0.4241 0.0
C205 C 0.5667 0.26746 0.45349 0.0
C206 C 0.59973 0.25664 0.47144 0.0
C207 C 0.61643 0.22334 0.45778 0.0
C208 C 0.71091 0.12422 0.41802 0.0
C209 C 0.71568 0.11796 0.45786 0.0
C210 C 0.74938 0.10498 0.47204 0.0
C211 C 0.77888 0.09937 0.44668 0.0
C212 C 0.77479 0.10808 0.40741 0.0
C213 C 0.74088 0.11979 0.39307 0.0
C214 C 0.61414 0.11032 0.31386 0.0
C215 C 0.62853 0.07652 0.29778 0.0
C216 C 0.25716 0.56653 0.08932 0.0
C217 C 0.24156 0.58825 0.06037 0.0
C218 C 0.26297 0.6186 0.04399 0.0
C219 C 0.29942 0.62838 0.05771 0.0
H220 H 0.34823 0.73345 0.12575 0.0
H221 H 0.3621 0.80241 0.11328 0.0
H222 H 0.47671 0.77954 0.08964 0.0
H223 H 0.4632 0.71047 0.10411 0.0
H224 H 0.45574 0.63376 0.20628 0.0
H225 H 0.46527 0.61311 0.2729 0.0
H226 H 0.35072 0.56484 0.27343 0.0
H227 H 0.34167 0.58309 0.20647 0.0
H228 H 0.30439 0.56013 0.12676 0.0
H229 H 0.24063 0.54303 0.10218 0.0
H230 H 0.25099 0.63548 0.02157 0.0
H231 H 0.31491 0.65294 0.0455 0.0
N232 N 0.36589 0.65854 0.09874 0.0
N233 N 0.40698 0.65896 0.15272 0.0
N234 N 0.36246 0.60645 0.14007 0.0
C235 C 0.39463 0.67609 0.12059 0.0
C236 C 0.39096 0.6239 0.16246 0.0
C237 C 0.35001 0.62339 0.10793 0.0
C238 C 0.40469 0.7172 0.11529 0.0
C239 C 0.37649 0.74343 0.1184 0.0
C240 C 0.38433 0.7826 0.11153 0.0
C241 C 0.42015 0.79563 0.10008 0.0
C242 C 0.44881 0.76967 0.09825 0.0
C243 C 0.44118 0.7305 0.1063 0.0
C244 C 0.39826 0.60937 0.20111 0.0
C245 C 0.43287 0.6182 0.22049 0.0
C246 C 0.43816 0.60682 0.2585 0.0
C247 C 0.40861 0.58744 0.27778 0.0
C248 C 0.37379 0.57961 0.25881 0.0
C249 C 0.3689 0.58967 0.22047 0.0
C250 C 0.31471 0.60812 0.08828 0.0
C251 C 0.29358 0.57632 0.10317 0.0
C252 C 0.07211 0.28209 0.52439 0.0
C253 C 0.04207 0.26341 0.54329 0.0
C254 C 0.02236 0.2845 0.57083 0.0
C255 C 0.03498 0.32274 0.58218 0.0
H256 H 0.04919 0.37933 0.68767 0.0
H257 H 0.03717 0.39397 0.75388 0.0
H258 H 0.11678 0.49398 0.75388 0.0
H259 H 0.12969 0.47833 0.68713 0.0
H260 H 0.19453 0.47055 0.62387 0.0
H261 H 0.25816 0.48477 0.60124 0.0
H262 H 0.23005 0.41971 0.49378 0.0
H263 H 0.16635 0.4052 0.51586 0.0
H264 H 0.10944 0.33295 0.5221 0.0
H265 H 0.08784 0.26601 0.50337 0.0
H266 H -0.0007 0.27029 0.58592 0.0
H267 H 0.02083 0.33743 0.60545 0.0
N268 N 0.07684 0.38886 0.62052 0.0
N269 N 0.12878 0.43445 0.62381 0.0
N270 N 0.11775 0.39289 0.56852 0.0
C271 C 0.09767 0.41806 0.64031 0.0
C272 C 0.13892 0.42213 0.58778 0.0
C273 C 0.08656 0.37622 0.5845 0.0
C274 C 0.08854 0.42915 0.68088 0.0
C275 C 0.06258 0.40589 0.7011 0.0
C276 C 0.05446 0.41553 0.73958 0.0
C277 C 0.06962 0.4506 0.75861 0.0
C278 C 0.09918 0.47084 0.7394 0.0
C279 C 0.10769 0.46106 0.70092 0.0
C280 C 0.17536 0.43624 0.57192 0.0
C281 C 0.20155 0.45978 0.59513 0.0
C282 C 0.23796 0.46792 0.58232 0.0
C283 C 0.24868 0.45286 0.54609 0.0
C284 C 0.22217 0.43132 0.52192 0.0
C285 C 0.18581 0.42309 0.53469 0.0
C286 C 0.06744 0.34032 0.56601 0.0
C287 C 0.08455 0.32035 0.53544 0.0
O288 O 0.00856 -0.00021 0.60274 0.0
Mg289 Mg 0.03522 0.03162 0.56038 0.0
O290 O 0.96801 0.98164 0.5561 0.0
Mg291 Mg -0.00048 0.00269 0.49955 0.0
O292 O 0.01619 0.06924 0.52052 0.0
O293 O 0.03317 0.08587 0.58241 0.0
O294 O 0.02677 0.02005 0.44127 0.0
O295 O 0.94388 0.03288 0.48278 0.0
Mg296 Mg 0.9526 0.96814 0.44655 0.0
O297 O 0.98565 0.93614 0.47869 0.0
O298 O 0.97807 0.00293 0.40256 0.0
O299 O 0.90518 0.98159 0.47767 0.0
O300 O 0.94757 0.91152 0.42921 0.0
C301 C 0.08786 0.98747 0.53126 0.0
C302 C 0.97807 0.98218 0.59185 0.0
C303 C 0.02466 0.09589 0.54793 0.0
C304 C 0.0109 0.01902 0.40768 0.0
C305 C 0.91032 0.01797 0.48144 0.0
C306 C 0.97057 0.90658 0.45761 0.0
O307 O 0.08983 0.01859 0.55191 0.0
O308 O 0.05694 0.97515 0.51437 0.0
O309 O 0.43889 0.07434 0.0425 0.0
Mg310 Mg 0.49551 0.09054 0.03479 0.0
O311 O 0.4405 0.01394 0.01745 0.0
Mg312 Mg 0.50458 0.00668 0.00102 0.0
O313 O 0.51332 0.06912 0.98377 0.0
O314 O 0.50829 0.1326 -0.00291 0.0
O315 O 0.56924 -0.0006 0.98467 0.0
O316 O 0.4855 0.9946 0.9369 0.0
Mg317 Mg 0.52355 0.91874 0.97111 0.0
O318 O 0.49382 0.94386 0.01314 0.0
O319 O 0.5797 0.93632 0.9818 0.0
O320 O 0.49924 0.93458 0.9179 0.0
O321 O 0.496 0.87983 0.00656 0.0
C322 C 0.53509 0.04682 0.08973 0.0
C323 C 0.42248 0.04151 0.03276 0.0
C324 C 0.51829 0.10484 0.97397 0.0
C325 C 0.59167 0.97178 0.98156 0.0
C326 C 0.48605 0.96703 0.91105 0.0
C327 C 0.48351 0.90977 0.02445 0.0
O328 O 0.53458 0.08139 0.07879 0.0
O329 O 0.52283 0.01798 0.06726 0.0
O330 O 0.45023 0.57876 0.55864 0.0
Mg331 Mg 0.46299 0.52169 0.56465 0.0
O332 O 0.48825 0.57421 0.5101 0.0
Mg333 Mg 0.49527 0.50764 0.49994 0.0
O334 O 0.51188 0.49351 0.56253 0.0
O335 O 0.49179 0.52605 0.61497 0.0
O336 O 0.50792 0.44229 0.48703 0.0
O337 O 0.55947 0.52321 0.4982 0.0
Mg338 Mg 0.52093 0.48785 0.42091 0.0
O339 O 0.48141 0.52363 0.43773 0.0
O340 O 0.49937 0.42987 0.4243 0.0
O341 O 0.57664 0.50383 0.43982 0.0
O342 O 0.50116 0.51678 0.37645 0.0
C343 C 0.40628 0.47866 0.52944 0.0
C344 C 0.46838 0.59441 0.53209 0.0
C345 C 0.51408 0.5025 0.59934 0.0
C346 C 0.50632 0.41819 0.45777 0.0
C347 C 0.58498 0.51782 0.47371 0.0
C348 C 0.47827 0.53047 0.40117 0.0
O349 O 0.4166 0.48328 0.5646 0.0
O350 O 0.42893 0.48861 0.50256 0.0
O351 O 0.03555 0.4344 0.07587 0.0
Mg352 Mg 0.03295 0.49444 0.07799 0.0
O353 O 0.01392 0.43955 0.01615 0.0
Mg354 Mg 0.0023 0.50732 0.00932 0.0
O355 O 0.98044 0.51628 0.07421 0.0
O356 O 0.01405 0.50907 0.12936 0.0
O357 O 0.98834 0.57384 0.00206 0.0
O358 O 0.93718 0.48948 0.00086 0.0
Mg359 Mg 0.97627 0.50661 0.94673 0.0
O360 O 0.03008 0.49462 0.94553 0.0
O361 O 0.95923 0.56383 0.94619 0.0
O362 O 0.93828 0.45744 0.94566 0.0
O363 O 0.99389 0.50364 0.89285 0.0
C364 C 0.0896 0.53758 0.0433 0.0
C365 C 0.02588 0.4187 0.04323 0.0
C366 C 0.98354 0.51732 0.11211 0.0
C367 C 0.96942 0.58703 0.97422 0.0
C368 C 0.92001 0.46811 0.97433 0.0
C369 C 0.02501 0.49445 0.90793 0.0
O370 O 0.0832 0.52658 0.0769 0.0
O371 O 0.06459 0.53187 0.01662 0.0
C372 C 0.06494 0.08722 0.33995 0.0
C373 C 0.06468 0.06312 0.3054 0.0
C374 C 0.03543 0.00869 0.34047 0.0
C375 C 0.03133 0.0341 0.37348 0.0
N376 N 0.03797 0.09909 0.40306 0.0
N377 N 0.0447 0.00249 0.27104 0.0
C378 C 0.04517 0.07378 0.37293 0.0
C379 C 0.0486 0.02423 0.3052 0.0
N380 N 0.08488 0.12261 0.34157 0.0
N381 N 0.02815 0.96937 0.34324 0.0
H382 H 0.05394 0.01275 0.24458 0.0
H383 H 0.0294 0.9756 0.26832 0.0
H384 H 0.01965 0.95663 0.36887 0.0
H385 H 0.03424 0.94904 0.32145 0.0
H386 H 0.08949 0.13974 0.36709 0.0
H387 H 0.0997 0.13338 0.31809 0.0
H388 H 0.04369 0.12914 0.40242 0.0
H389 H 0.02337 0.09057 0.42753 0.0
C390 C 0.42186 0.93966 0.82551 0.0
C391 C 0.43878 0.96258 0.79647 0.0
C392 C 0.48381 0.99405 0.84451 0.0
C393 C 0.46708 0.97057 0.87319 0.0
N394 N 0.41459 0.92988 0.89426 0.0
N395 N 0.48031 0.01654 0.77853 0.0
C396 C 0.4342 0.94625 0.86466 0.0
C397 C 0.46795 0.9916 0.80613 0.0
N398 N 0.39533 0.91022 0.8154 0.0
N399 N 0.51568 0.01717 0.85361 0.0
H400 H 0.46931 0.01493 0.75014 0.0
H401 H 0.4993 0.04047 0.78426 0.0
H402 H 0.52731 0.02023 0.8817 0.0
H403 H 0.53158 0.03199 0.83325 0.0
H404 H 0.38563 0.88936 0.83453 0.0
H405 H 0.38469 0.90481 0.78712 0.0
H406 H 0.38841 0.9149 0.89036 0.0
H407 H 0.42281 0.93458 0.92344 0.0
C408 C 0.58897 0.45781 0.65863 0.0
C409 C 0.56687 0.45101 0.6918 0.0
C410 C 0.51072 0.46157 0.6548 0.0
C411 C 0.53304 0.47766 0.62553 0.0
N412 N 0.59349 0.48936 0.59685 0.0
N413 N 0.50719 0.45433 0.72345 0.0
C414 C 0.57233 0.47488 0.62618 0.0
C415 C 0.52778 0.45488 0.69047 0.0
N416 N 0.62513 0.44745 0.65807 0.0
N417 N 0.47316 0.4531 0.64845 0.0
H418 H 0.51899 0.45189 0.75112 0.0
H419 H 0.4791 0.4607 0.72358 0.0
H420 H 0.46017 0.45624 0.62142 0.0
H421 H 0.45622 0.43882 0.66843 0.0
H422 H 0.64144 0.44855 0.63341 0.0
H423 H 0.63779 0.43473 0.68152 0.0
H424 H 0.62268 0.49126 0.59758 0.0
H425 H 0.58165 0.50106 0.5724 0.0
C426 C 0.91794 0.5608 0.18217 0.0
C427 C 0.92096 0.53226 0.21061 0.0
C428 C 0.94474 0.48791 0.16176 0.0
C429 C 0.95092 0.5195 0.13719 0.0
N430 N 0.94022 0.58494 0.12074 0.0
N431 N 0.93924 0.46882 0.22815 0.0
C432 C 0.93574 0.5555 0.14595 0.0
C433 C 0.93406 0.49539 0.20043 0.0
N434 N 0.89844 0.59283 0.19015 0.0
N435 N 0.95111 0.45113 0.14828 0.0
H436 H 0.93245 0.47345 0.25719 0.0
H437 H 0.95302 0.44349 0.22293 0.0
H438 H 0.95913 0.44556 0.11971 0.0
H439 H 0.94489 0.42629 0.16388 0.0
H440 H 0.89285 0.61325 0.16971 0.0
H441 H 0.88503 0.5971 0.21645 0.0
H442 H 0.93341 0.61339 0.12715 0.0
H443 H 0.95192 0.58076 0.09351 0.0
C444 C 0.33847 0.0618 0.08987 0.0
C445 C 0.30934 0.05797 0.06105 0.0
C446 C 0.35338 0.03241 0.01383 0.0
C447 C 0.38221 0.03636 0.04296 0.0
N448 N 0.39876 0.0413 0.11102 0.0
N449 N 0.28655 0.03143 -0.00154 0.0
C450 C 0.37338 0.04645 0.08181 0.0
C451 C 0.31598 0.0405 0.02388 0.0
N452 N 0.33365 0.08206 0.12419 0.0
N453 N 0.36202 0.02284 0.97637 0.0
H454 H 0.25911 0.03738 0.00494 0.0
H455 H 0.2888 0.01535 0.97244 0.0
H456 H 0.38868 0.01537 0.96855 0.0
H457 H 0.34332 0.02383 0.95291 0.0
H458 H 0.35545 0.08953 0.14424 0.0
H459 H 0.30881 0.09461 0.13115 0.0
H460 H 0.39307 0.04538 0.1404 0.0
H461 H 0.42394 0.02859 0.10572 0.0
C462 C 0.16333 0.92989 0.57345 0.0
C463 C 0.19079 0.93531 0.54461 0.0
C464 C 0.14547 0.96372 0.50175 0.0
C465 C 0.11991 0.96303 0.5325 0.0
N466 N 0.1003 0.94096 0.5947 0.0
N467 N 0.20932 0.95628 0.48151 0.0
C468 C 0.12752 0.94436 0.56745 0.0
C469 C 0.18204 0.95125 0.50843 0.0
N470 N 0.17207 0.91156 0.60669 0.0
N471 N 0.1346 0.97646 0.46643 0.0
H472 H 0.23618 0.94682 0.48532 0.0
H473 H 0.2062 0.97132 0.45619 0.0
H474 H 0.10793 0.98591 0.46114 0.0
H475 H 0.15057 0.975 0.4416 0.0
H476 H 0.15414 0.90706 0.62964 0.0
H477 H 0.19775 0.8997 0.61138 0.0
H478 H 0.1034 0.92867 0.62153 0.0
H479 H 0.07339 0.95002 0.59009 0.0
C480 C 0.82604 0.4714 0.92412 0.0
C481 C 0.80143 0.46051 0.95402 0.0
C482 C 0.85463 0.45607 -0.00083 0.0
C483 C 0.87898 0.4683 0.96946 0.0
N484 N 0.88582 0.50243 0.90936 0.0
N485 N 0.79083 0.45194 0.02204 0.0
C486 C 0.86408 0.4807 0.93374 0.0
C487 C 0.81531 0.4561 0.99237 0.0
N488 N 0.81389 0.47066 0.88613 0.0
N489 N 0.86883 0.44276 0.03288 0.0
H490 H 0.76188 0.45227 0.01768 0.0
H491 H 0.79928 0.45192 0.05117 0.0
H492 H 0.8975 0.44205 0.03865 0.0
H493 H 0.8522 0.42975 0.05386 0.0
H494 H 0.83215 0.47403 0.86312 0.0
H495 H 0.78632 0.46304 0.87701 0.0
H496 H 0.87494 0.51509 0.88494 0.0
H497 H 0.91351 0.51195 0.91585 0.0
C498 C 0.68698 0.49504 0.47954 0.0
C499 C 0.70317 0.53331 0.4876 0.0
C500 C 0.64229 0.5552 0.5053 0.0
C501 C 0.62512 0.52107 0.48612 0.0
N502 N 0.63006 0.45292 0.46883 0.0
N503 N 0.69826 0.57958 0.54115 0.0
C504 C 0.64722 0.48894 0.4778 0.0
C505 C 0.68176 0.55818 0.5105 0.0
N506 N 0.70953 0.46463 0.47818 0.0
N507 N 0.62178 0.58515 0.51749 0.0
H508 H 0.72611 0.57638 0.54947 0.0
H509 H 0.68311 0.59558 0.56094 0.0
H510 H 0.59273 0.5845 0.51432 0.0
H511 H 0.63434 0.61162 0.52874 0.0
H512 H 0.69983 0.43548 0.47452 0.0
H513 H 0.73822 0.46889 0.48459 0.0
H514 H 0.64383 0.42942 0.45762 0.0
H515 H 0.60156 0.44663 0.47325 0.0
C516 C 0.01978 0.31049 0.06226 0.0
C517 C 0.0545 0.30055 0.04664 0.0
C518 C 0.05906 0.36262 0.01398 0.0
C519 C 0.03016 0.37618 0.03743 0.0
N520 N 0.97915 0.36159 0.08027 0.0
N521 N 0.08175 0.30499 0.98345 0.0
C522 C 0.00892 0.34944 0.06004 0.0
C523 C 0.06763 0.32295 0.01531 0.0
N524 N -0.00428 0.28174 0.07544 0.0
N525 N 0.07927 0.38756 0.99132 0.0
H526 H 0.07879 0.27471 0.97924 0.0
H527 H 0.08936 0.31975 0.95867 0.0
H528 H 0.07346 0.41664 0.9887 0.0
H529 H 0.10313 0.37956 0.97698 0.0
H530 H 0.96868 0.28623 0.08441 0.0
H531 H 0.00155 0.25243 0.07288 0.0
H532 H 0.9656 0.34511 0.10118 0.0
H533 H 0.96889 0.38893 0.07686 0.0
C534 C 0.5253 0.17527 0.90821 0.0
C535 C 0.55979 0.19364 0.92394 0.0
C536 C 0.5745 0.13243 0.95113 0.0
C537 C 0.53911 0.11583 0.93972 0.0
N538 N 0.48767 0.11424 0.89473 0.0
N539 N 0.59313 0.19187 0.98554 0.0
C540 C 0.51757 0.13466 0.91271 0.0
C541 C 0.57944 0.17318 0.95199 0.0
N542 N 0.49711 0.1973 0.89665 0.0
N543 N 0.59906 0.11077 0.96988 0.0
H544 H 0.58718 0.22055 0.99273 0.0
H545 H 0.60468 0.1771 0.00829 0.0
H546 H 0.59351 0.08077 0.97236 0.0
H547 H 0.62524 0.12273 0.9801 0.0
H548 H 0.47067 0.18551 0.88737 0.0
H549 H 0.49833 0.22739 0.90225 0.0
H550 H 0.47172 0.12538 0.87264 0.0
H551 H 0.48149 0.08485 0.90016 0.0
C552 C 0.95816 0.80731 0.50051 0.0
C553 C 0.97134 0.78489 0.46888 0.0
C554 C 0.00028 0.8443 0.44278 0.0
C555 C 0.97746 0.86634 0.46706 0.0
N556 N 0.93729 0.8697 0.52249 0.0
N557 N 0.02905 0.78306 0.43457 0.0
C558 C 0.95778 0.84829 0.4976 0.0
C559 C -9e-05 0.80346 0.44692 0.0
N560 N 0.95088 0.79027 0.53481 0.0
N561 N 0.02128 0.86201 0.41505 0.0
H562 H 0.03152 0.75428 0.4423 0.0
H563 H 0.0524 0.79592 0.42127 0.0
H564 H 0.02337 0.89219 0.41242 0.0
H565 H 0.0351 0.84639 0.39383 0.0
H566 H 0.94415 0.80589 0.55998 0.0
H567 H 0.95658 0.76132 0.53889 0.0
H568 H 0.91913 0.85695 0.54236 0.0
H569 H 0.93706 0.89997 0.52184 0.0
C570 C 0.43917 0.69268 0.50395 0.0
C571 C 0.45325 0.71489 0.53725 0.0
C572 C 0.49098 0.66156 0.55455 0.0
C573 C 0.46808 0.63655 0.5288 0.0
N574 N 0.42098 0.62812 0.4772 0.0
N575 N 0.5125 0.72848 0.57113 0.0
C576 C 0.44274 0.65204 0.50243 0.0
C577 C 0.48552 0.70193 0.5559 0.0
N578 N 0.42789 0.71087 0.47178 0.0
N579 N 0.51652 0.64666 0.57887 0.0
H580 H 0.51054 0.75836 0.56806 0.0
H581 H 0.53811 0.72085 0.58241 0.0
H582 H 0.52218 0.61728 0.57766 0.0
H583 H 0.53055 0.66318 0.60143 0.0
H584 H 0.42027 0.69587 0.44555 0.0
H585 H 0.43152 0.74115 0.47021 0.0
H586 H 0.39947 0.63824 0.46026 0.0
H587 H 0.42333 0.59806 0.47475 0.0
C588 C 0.96526 0.92407 0.67978 0.0
C589 C 0.93116 0.9368 0.69452 0.0
C590 C 0.92325 0.97497 0.63632 0.0
C591 C 0.95648 0.96071 0.62136 0.0
N592 N 0.00173 0.91231 0.62258 0.0
N593 N 0.87306 0.96656 0.68213 0.0
C594 C 0.97483 0.93192 0.64104 0.0
C595 C 0.90863 0.95986 0.67129 0.0
N596 N 0.98989 0.90695 0.70346 0.0
N597 N 0.90663 0.00408 0.61815 0.0
H598 H 0.86109 0.95512 0.70693 0.0
H599 H 0.85427 0.98025 0.66467 0.0
H600 H 0.91588 0.01469 0.59182 0.0
H601 H 0.88506 0.01906 0.63023 0.0
H602 H 0.01669 0.90071 0.69496 0.0
H603 H 0.98534 0.90288 0.73285 0.0
H604 H 0.01399 0.88867 0.63433 0.0
H605 H 0.00851 0.91706 0.59373 0.0
C606 C 0.57468 0.0209 0.18821 0.0
C607 C 0.55918 0.05051 0.21136 0.0
C608 C 0.51605 0.06158 0.15777 0.0
C609 C 0.53989 0.04204 0.13199 0.0
N610 N 0.58933 -0.00168 0.12319 0.0
N611 N 0.49811 0.07202 0.22459 0.0
C612 C 0.56816 0.01972 0.14731 0.0
C613 C 0.52438 0.06287 0.1982 0.0
N614 N 0.58917 0.99018 0.20546 0.0
N615 N 0.48606 0.07968 0.1437 0.0
H616 H 0.50271 0.06897 0.25434 0.0
H617 H 0.47085 0.07807 0.21697 0.0
H618 H 0.4767 0.07654 0.1148 0.0
H619 H 0.47121 0.09888 0.16056 0.0
H620 H 0.5981 0.9661 0.18979 0.0
H621 H 0.586 0.98607 0.23512 0.0
H622 H 0.61265 0.9847 0.13315 0.0
H623 H 0.58467 -0.004 0.09316 0.0
C624 C 0.41202 0.53354 0.32436 0.0
C625 C 0.41494 0.57404 0.31736 0.0
C626 C 0.4466 0.58801 0.38032 0.0
C627 C 0.44533 0.54757 0.38549 0.0
N628 N 0.41318 0.48487 0.37312 0.0
N629 N 0.42223 0.64016 0.34421 0.0
C630 C 0.42208 0.52173 0.36157 0.0
C631 C 0.42764 0.60156 0.34751 0.0
N632 N 0.40397 0.50621 0.29489 0.0
N633 N 0.46809 0.61275 0.40499 0.0
H634 H 0.40793 0.65047 0.32041 0.0
H635 H 0.42867 0.66103 0.36658 0.0
H636 H 0.48157 0.60281 0.4295 0.0
H637 H 0.47327 0.64237 0.40049 0.0
H638 H 0.40557 0.47643 0.29846 0.0
H639 H 0.39959 0.51307 0.26606 0.0
H640 H 0.39456 0.46513 0.35748 0.0
H641 H 0.42177 0.47599 0.40038 0.0
C642 C 0.0719 0.50002 0.81755 0.0
C643 C 0.05807 0.46358 0.79938 0.0
C644 C 0.03683 0.44233 0.86254 0.0
C645 C 0.05109 0.47787 0.88048 0.0
N646 N 0.09027 0.5365 0.87776 0.0
N647 N 0.00209 0.42102 0.80494 0.0
C648 C 0.07201 0.50496 0.85878 0.0
C649 C 0.03386 0.43921 0.82163 0.0
N650 N 0.07744 0.53202 0.79571 0.0
N651 N 0.02137 0.41373 0.88461 0.0
H652 H 0.99304 0.42737 0.77702 0.0
H653 H 0.98198 0.40553 0.82083 0.0
H654 H 0.02205 0.41654 0.91497 0.0
H655 H 0.01115 0.38664 0.87253 0.0
H656 H 0.08456 0.55994 0.80762 0.0
H657 H 0.06906 0.53153 0.76646 0.0
H658 H 0.10853 0.55614 0.86401 0.0
H659 H 0.08961 0.54026 0.90801 0.0
C660 C 0.69823 0.98362 0.98325 0.0
C661 C 0.70439 0.96077 0.94888 0.0
C662 C 0.63791 0.9619 0.9306 0.0
C663 C 0.63062 0.97838 0.96783 0.0
N664 N 0.65313 0.00609 0.02974 0.0
N665 N 0.67912 0.92437 0.89163 0.0
C666 C 0.66069 0.99017 0.99406 0.0
C667 C 0.67403 0.94929 0.92275 0.0
N668 N 0.72824 -0.0008 0.00522 0.0
N669 N 0.60978 0.95787 0.90291 0.0
H670 H 0.70498 0.91391 0.88494 0.0
H671 H 0.65711 0.91132 0.87435 0.0
H672 H 0.58311 0.96731 0.90794 0.0
H673 H 0.61386 0.94905 0.8741 0.0
H674 H 0.72602 0.01889 0.02868 0.0
H675 H 0.75585 0.99461 -0.00189 0.0
H676 H 0.67308 0.01139 0.05213 0.0
H677 H 0.62613 0.01279 0.03721 0.0
C678 C 0.81734 0.04239 0.44026 0.0
C679 C 0.81191 0.07882 0.45897 0.0
C680 C 0.87099 0.07528 0.49579 0.0
C681 C 0.87827 0.04148 0.47287 0.0
N682 N 0.86364 0.00247 0.41356 0.0
N683 N 0.83606 0.13331 0.50068 0.0
C684 C 0.85299 0.02777 0.44224 0.0
C685 C 0.83945 0.09637 0.48577 0.0
N686 N 0.78837 0.02139 0.42092 0.0
N687 N 0.89321 0.08649 0.52759 0.0
H688 H 0.81329 0.14939 0.49397 0.0
H689 H 0.85718 0.14899 0.51718 0.0
H690 H 0.91613 0.07141 0.53604 0.0
H691 H 0.88713 0.10884 0.54728 0.0
H692 H 0.79067 0.99307 0.40968 0.0
H693 H 0.76114 0.03046 0.42 0.0
H694 H 0.84667 0.99416 0.38921 0.0
H695 H 0.89099 0.99408 0.41129 0.0
C696 C 0.1746 0.60037 0.07038 0.0
C697 C 0.20176 0.5808 0.04919 0.0
C698 C 0.15269 0.54001 0.01362 0.0
C699 C 0.12591 0.5582 0.03656 0.0
N700 N 0.10906 0.61291 0.07634 0.0
N701 N 0.21798 0.5382 0.99585 0.0
C702 C 0.13626 0.59103 0.06137 0.0
C703 C 0.19115 0.55282 0.01888 0.0
N704 N 0.18543 0.62626 0.1004 0.0
N705 N 0.14154 0.50924 0.98869 0.0
H706 H 0.24648 0.5463 -0.00012 0.0
H707 H 0.21216 0.52002 0.97128 0.0
H708 H 0.11348 0.50028 0.98304 0.0
H709 H 0.15985 0.49179 0.97422 0.0
H710 H 0.1668 0.63765 0.11995 0.0
H711 H 0.21342 0.6346 0.1074 0.0
H712 H 0.11467 0.63909 0.09232 0.0
H713 H 0.08067 0.60664 0.06932 0.0
C714 C 0.30281 0.49308 0.51981 0.0
C715 C 0.28846 0.45743 0.53471 0.0
C716 C 0.35058 0.4317 0.53095 0.0
C717 C 0.36585 0.46908 0.52161 0.0
N718 N 0.35756 0.53639 0.50879 0.0
N719 N 0.29837 0.39328 0.5571 0.0
C720 C 0.34217 0.49992 0.51573 0.0
C721 C 0.31216 0.42659 0.54051 0.0
N722 N 0.27874 0.52033 0.50963 0.0
N723 N 0.37316 0.40125 0.53078 0.0
H724 H 0.27033 0.38829 0.56431 0.0
H725 H 0.31508 0.37164 0.56622 0.0
H726 H 0.40138 0.40459 0.52365 0.0
H727 H 0.36339 0.37239 0.53402 0.0
H728 H 0.28691 0.54535 0.49511 0.0
H729 H 0.24983 0.51644 0.51297 0.0
H730 H 0.34255 0.56126 0.50947 0.0
H731 H 0.38605 0.54229 0.50422 0.0
C732 C 0.9171 0.67175 0.93927 0.0
C733 C 0.93768 0.70483 0.95644 0.0
C734 C 0.98003 0.66155 0.98822 0.0
C735 C 0.95734 0.62822 0.97335 0.0
N736 N 0.89585 0.6048 0.94763 0.0
N737 N 0.98332 0.73122 0.00454 0.0
C738 C 0.92333 0.63431 0.95273 0.0
C739 C 0.96739 0.69972 0.98336 0.0
N740 N 0.89197 0.67574 0.90948 0.0
N741 N 0.01445 0.65752 0.00491 0.0
H742 H 0.97508 0.75942 0.00117 0.0
H743 H 0.00211 0.7288 0.02771 0.0
H744 H 0.02595 0.63088 0.00798 0.0
H745 H 0.03328 0.68116 0.01262 0.0
H746 H 0.87941 0.65192 0.89324 0.0
H747 H 0.88644 0.70267 0.89861 0.0
H748 H 0.86975 0.60867 0.93488 0.0
H749 H 0.89706 0.57821 0.96093 0.0
C750 C 0.41033 0.84732 0.0524 0.0
C751 C 0.4272 0.8359 0.08759 0.0
C752 C 0.46825 0.89574 0.09096 0.0
C753 C 0.45501 0.90321 0.05351 0.0
N754 N 0.40342 0.89986 0.00832 0.0
N755 N 0.46418 0.85358 0.14589 0.0
C756 C 0.42164 0.88417 0.03845 0.0
C757 C 0.45325 0.86197 0.1091 0.0
N758 N 0.38684 0.82181 0.03035 0.0
N759 N 0.49705 0.91947 0.10714 0.0
H760 H 0.4532 0.82898 0.15961 0.0
H761 H 0.48223 0.87186 0.16363 0.0
H762 H 0.50712 0.94448 0.09341 0.0
H763 H 0.51078 0.91467 0.13325 0.0
H764 H 0.37715 0.82775 0.00262 0.0
H765 H 0.37945 0.79341 0.03806 0.0
H766 H 0.37749 0.88851 -0.00297 0.0
H767 H 0.4132 0.92656 -0.00244 0.0
C768 C 0.01157 0.19968 0.51505 0.0
C769 C 0.03763 0.22028 0.54134 0.0
C770 C 0.06153 0.15905 0.55981 0.0
C771 C 0.03076 0.13803 0.54 0.0
N772 N 0.97478 0.13901 0.49935 0.0
N773 N 0.08354 0.21903 0.59384 0.0
C774 C 0.00544 0.15838 0.51725 0.0
C775 C 0.06138 0.19981 0.56532 0.0
N776 N 0.99304 0.21948 0.48793 0.0
N777 N 0.09192 0.14027 0.57185 0.0
H778 H 0.08501 0.2492 0.59877 0.0
H779 H 0.09792 0.20447 0.61483 0.0
H780 H 0.09492 0.11084 0.56499 0.0
H781 H 0.11614 0.1549 0.58402 0.0
H782 H 0.9768 0.20567 0.46525 0.0
H783 H -0.00351 0.24973 0.48632 0.0
H784 H 0.95356 0.15308 0.48574 0.0
H785 H 0.96903 0.10905 0.50038 0.0
C786 C 0.52704 0.31563 0.48678 0.0
C787 C 0.55467 0.30745 0.45931 0.0
C788 C 0.55446 0.37332 0.43547 0.0
C789 C 0.52418 0.38071 0.46052 0.0
N790 N 0.48215 0.36043 0.51082 0.0
N791 N 0.60028 0.32933 0.41301 0.0
C792 C 0.51101 0.3525 0.48697 0.0
C793 C 0.56993 0.33656 0.43519 0.0
N794 N 0.51655 0.28801 0.51263 0.0
N795 N 0.56823 0.40139 0.41149 0.0
H796 H 0.61185 0.30237 0.41092 0.0
H797 H 0.61596 0.3504 0.39837 0.0
H798 H 0.56341 0.43074 0.41523 0.0
H799 H 0.58451 0.39596 0.38747 0.0
H800 H 0.49803 0.292 0.53503 0.0
H801 H 0.52809 0.26098 0.51291 0.0
H802 H 0.46972 0.34092 0.52971 0.0
H803 H 0.46926 0.38668 0.51097 0.0
loop_
_geom_bond_atom_site_label_1
_geom_bond_atom_site_label_2
_geom_bond_distance
_geom_bond_site_symmetry_2
_ccdc_geom_bond_type
C0 C1 1.384 . S
C0 H13 0.947 . S
C0 C35 1.382 . S
C1 C0 1.384 . S
C1 C2 1.378 . S
C2 C1 1.378 . S
C2 C3 1.378 . S
C2 H14 0.952 . S
C3 C2 1.378 . S
C3 H15 0.950 . S
C3 C34 1.383 . S
H4 C23 0.947 . S
H5 C24 0.946 . S
H6 C26 0.953 . S
H7 C27 0.945 . S
H8 C29 0.952 . S
H9 C30 0.949 . S
H10 C32 0.950 . S
H11 C33 0.948 . S
H12 C35 0.951 . S
H13 C0 0.947 . S
H14 C2 0.952 . S
H15 C3 0.950 . S
N16 C19 1.382 . S
N16 C21 1.363 . S
N17 C19 1.371 . S
N17 C20 1.372 . S
N18 C20 1.361 . S
N18 C21 1.377 . S
C19 N16 1.382 . S
C19 N17 1.371 . S
C19 C22 1.480 . S
C20 N17 1.372 . S
C20 N18 1.361 . S
C20 C28 1.457 . S
C21 N16 1.363 . S
C21 N18 1.377 . S
C21 C34 1.479 . S
C22 C19 1.480 . S
C22 C23 1.383 . S
C22 C27 1.385 . S
C23 H4 0.947 . S
C23 C22 1.383 . S
C23 C24 1.388 . S
C24 H5 0.946 . S
C24 C23 1.388 . S
C24 C25 1.384 . S
C25 C24 1.384 . S
C25 C26 1.377 . S
C26 H6 0.953 . S
C26 C25 1.377 . S
C26 C27 1.369 . S
C27 H7 0.945 . S
C27 C22 1.385 . S
C27 C26 1.369 . S
C28 C20 1.457 . S
C28 C29 1.372 . S
C28 C33 1.364 . S
C29 H8 0.952 . S
C29 C28 1.372 . S
C29 C30 1.389 . S
C30 H9 0.949 . S
C30 C29 1.389 . S
C30 C31 1.387 . S
C31 C30 1.387 . S
C31 C32 1.372 . S
C32 H10 0.950 . S
C32 C31 1.372 . S
C32 C33 1.379 . S
C33 H11 0.948 . S
C33 C28 1.364 . S
C33 C32 1.379 . S
C34 C3 1.383 . S
C34 C21 1.479 . S
C34 C35 1.398 . S
C35 C0 1.382 . S
C35 H12 0.951 . S
C35 C34 1.398 . S
C36 C37 1.384 . S
C36 H49 0.947 . S
C36 C71 1.382 . S
C37 C36 1.384 . S
C37 C38 1.378 . S
C38 C37 1.378 . S
C38 C39 1.378 . S
C38 H50 0.952 . S
C39 C38 1.378 . S
C39 H51 0.950 . S
C39 C70 1.383 . S
H40 C59 0.947 . S
H41 C60 0.946 . S
H42 C62 0.953 . S
H43 C63 0.945 . S
H44 C65 0.952 . S
H45 C66 0.949 . S
H46 C68 0.950 . S
H47 C69 0.948 . S
H48 C71 0.951 . S
H49 C36 0.947 . S
H50 C38 0.952 . S
H51 C39 0.950 . S
N52 C55 1.382 . S
N52 C57 1.363 . S
N53 C55 1.371 . S
N53 C56 1.372 . S
N54 C56 1.361 . S
N54 C57 1.377 . S
C55 N52 1.382 . S
C55 N53 1.371 . S
C55 C58 1.480 . S
C56 N53 1.372 . S
C56 N54 1.361 . S
C56 C64 1.457 . S
C57 N52 1.363 . S
C57 N54 1.377 . S
C57 C70 1.479 . S
C58 C55 1.480 . S
C58 C59 1.383 . S
C58 C63 1.385 . S
C59 H40 0.947 . S
C59 C58 1.383 . S
C59 C60 1.388 . S
C60 H41 0.946 . S
C60 C59 1.388 . S
C60 C61 1.384 . S
C61 C60 1.384 . S
C61 C62 1.377 . S
C62 H42 0.953 . S
C62 C61 1.377 . S
C62 C63 1.369 . S
C63 H43 0.945 . S
C63 C58 1.385 . S
C63 C62 1.369 . S
C64 C56 1.457 . S
C64 C65 1.372 . S
C64 C69 1.364 . S
C65 H44 0.952 . S
C65 C64 1.372 . S
C65 C66 1.389 . S
C66 H45 0.949 . S
C66 C65 1.389 . S
C66 C67 1.387 . S
C67 C66 1.387 . S
C67 C68 1.372 . S
C68 H46 0.950 . S
C68 C67 1.372 . S
C68 C69 1.379 . S
C69 H47 0.948 . S
C69 C64 1.364 . S
C69 C68 1.379 . S
C70 C39 1.383 . S
C70 C57 1.479 . S
C70 C71 1.398 . S
C71 C36 1.382 . S
C71 H48 0.951 . S
C71 C70 1.398 . S
C72 C73 1.384 . S
C72 H85 0.947 . S
C72 C107 1.382 . S
C73 C72 1.384 . S
C73 C74 1.378 . S
C74 C73 1.378 . S
C74 C75 1.378 . S
C74 H86 0.952 . S
C75 C74 1.378 . S
C75 H87 0.950 . S
C75 C106 1.383 . S
H76 C95 0.947 . S
H77 C96 0.946 . S
H78 C98 0.953 . S
H79 C99 0.945 . S
H80 C101 0.952 . S
H81 C102 0.949 . S
H82 C104 0.950 . S
H83 C105 0.948 . S
H84 C107 0.951 . S
H85 C72 0.947 . S
H86 C74 0.952 . S
H87 C75 0.950 . S
N88 C91 1.382 . S
N88 C93 1.363 . S
N89 C91 1.371 . S
N89 C92 1.372 . S
N90 C92 1.361 . S
N90 C93 1.377 . S
C91 N88 1.382 . S
C91 N89 1.371 . S
C91 C94 1.480 . S
C92 N89 1.372 . S
C92 N90 1.361 . S
C92 C100 1.457 . S
C93 N88 1.363 . S
C93 N90 1.377 . S
C93 C106 1.479 . S
C94 C91 1.480 . S
C94 C95 1.383 . S
C94 C99 1.385 . S
C95 H76 0.947 . S
C95 C94 1.383 . S
C95 C96 1.388 . S
C96 H77 0.946 . S
C96 C95 1.388 . S
C96 C97 1.384 . S
C97 C96 1.384 . S
C97 C98 1.377 . S
C98 H78 0.953 . S
C98 C97 1.377 . S
C98 C99 1.369 . S
C99 H79 0.945 . S
C99 C94 1.385 . S
C99 C98 1.369 . S
C100 C92 1.457 . S
C100 C101 1.372 . S
C100 C105 1.364 . S
C101 H80 0.952 . S
C101 C100 1.372 . S
C101 C102 1.389 . S
C102 H81 0.949 . S
C102 C101 1.389 . S
C102 C103 1.387 . S
C103 C102 1.387 . S
C103 C104 1.372 . S
C104 H82 0.950 . S
C104 C103 1.372 . S
C104 C105 1.379 . S
C105 H83 0.948 . S
C105 C100 1.364 . S
C105 C104 1.379 . S
C106 C75 1.383 . S
C106 C93 1.479 . S
C106 C107 1.398 . S
C107 C72 1.382 . S
C107 H84 0.951 . S
C107 C106 1.398 . S
C108 C109 1.384 . S
C108 H121 0.947 . S
C108 C143 1.382 . S
C109 C108 1.384 . S
C109 C110 1.378 . S
C110 C109 1.378 . S
C110 C111 1.378 . S
C110 H122 0.952 . S
C111 C110 1.378 . S
C111 H123 0.950 . S
C111 C142 1.383 . S
H112 C131 0.947 . S
H113 C132 0.946 . S
H114 C134 0.953 . S
H115 C135 0.945 . S
H116 C137 0.952 . S
H117 C138 0.949 . S
H118 C140 0.950 . S
H119 C141 0.948 . S
H120 C143 0.951 . S
H121 C108 0.947 . S
H122 C110 0.952 . S
H123 C111 0.950 . S
N124 C127 1.382 . S
N124 C129 1.363 . S
N125 C127 1.371 . S
N125 C128 1.372 . S
N126 C128 1.361 . S
N126 C129 1.377 . S
C127 N124 1.382 . S
C127 N125 1.371 . S
C127 C130 1.480 . S
C128 N125 1.372 . S
C128 N126 1.361 . S
C128 C136 1.457 . S
C129 N124 1.363 . S
C129 N126 1.377 . S
C129 C142 1.479 . S
C130 C127 1.480 . S
C130 C131 1.383 . S
C130 C135 1.385 . S
C131 H112 0.947 . S
C131 C130 1.383 . S
C131 C132 1.388 . S
C132 H113 0.946 . S
C132 C131 1.388 . S
C132 C133 1.384 . S
C133 C132 1.384 . S
C133 C134 1.377 . S
C134 H114 0.953 . S
C134 C133 1.377 . S
C134 C135 1.369 . S
C135 H115 0.945 . S
C135 C130 1.385 . S
C135 C134 1.369 . S
C136 C128 1.457 . S
C136 C137 1.372 . S
C136 C141 1.364 . S
C137 H116 0.952 . S
C137 C136 1.372 . S
C137 C138 1.389 . S
C138 H117 0.949 . S
C138 C137 1.389 . S
C138 C139 1.387 . S
C139 C138 1.387 . S
C139 C140 1.372 . S
C140 H118 0.950 . S
C140 C139 1.372 . S
C140 C141 1.379 . S
C141 H119 0.948 . S
C141 C136 1.364 . S
C141 C140 1.379 . S
C142 C111 1.383 . S
C142 C129 1.479 . S
C142 C143 1.398 . S
C143 C108 1.382 . S
C143 H120 0.951 . S
C143 C142 1.398 . S
C144 C145 1.384 . S
C144 H157 0.947 . S
C144 C179 1.382 . S
C145 C144 1.384 . S
C145 C146 1.378 . S
C146 C145 1.378 . S
C146 C147 1.378 . S
C146 H158 0.952 . S
C147 C146 1.378 . S
C147 H159 0.950 . S
C147 C178 1.383 . S
H148 C167 0.947 . S
H149 C168 0.946 . S
H150 C170 0.953 . S
H151 C171 0.945 . S
H152 C173 0.952 . S
H153 C174 0.949 . S
H154 C176 0.950 . S
H155 C177 0.948 . S
H156 C179 0.951 . S
H157 C144 0.947 . S
H158 C146 0.952 . S
H159 C147 0.950 . S
N160 C163 1.382 . S
N160 C165 1.363 . S
N161 C163 1.371 . S
N161 C164 1.372 . S
N162 C164 1.361 . S
N162 C165 1.377 . S
C163 N160 1.382 . S
C163 N161 1.371 . S
C163 C166 1.480 . S
C164 N161 1.372 . S
C164 N162 1.361 . S
C164 C172 1.457 . S
C165 N160 1.363 . S
C165 N162 1.377 . S
C165 C178 1.479 . S
C166 C163 1.480 . S
C166 C167 1.383 . S
C166 C171 1.385 . S
C167 H148 0.947 . S
C167 C166 1.383 . S
C167 C168 1.388 . S
C168 H149 0.946 . S
C168 C167 1.388 . S
C168 C169 1.384 . S
C169 C168 1.384 . S
C169 C170 1.377 . S
C170 H150 0.953 . S
C170 C169 1.377 . S
C170 C171 1.369 . S
C171 H151 0.945 . S
C171 C166 1.385 . S
C171 C170 1.369 . S
C172 C164 1.457 . S
C172 C173 1.372 . S
C172 C177 1.364 . S
C173 H152 0.952 . S
C173 C172 1.372 . S
C173 C174 1.389 . S
C174 H153 0.949 . S
C174 C173 1.389 . S
C174 C175 1.387 . S
C175 C174 1.387 . S
C175 C176 1.372 . S
C176 H154 0.950 . S
C176 C175 1.372 . S
C176 C177 1.379 . S
C177 H155 0.948 . S
C177 C172 1.364 . S
C177 C176 1.379 . S
C178 C147 1.383 . S
C178 C165 1.479 . S
C178 C179 1.398 . S
C179 C144 1.382 . S
C179 H156 0.951 . S
C179 C178 1.398 . S
C180 C181 1.384 . S
C180 H193 0.947 . S
C180 C215 1.382 . S
C181 C180 1.384 . S
C181 C182 1.378 . S
C182 C181 1.378 . S
C182 C183 1.378 . S
C182 H194 0.952 . S
C183 C182 1.378 . S
C183 H195 0.950 . S
C183 C214 1.383 . S
H184 C203 0.947 . S
H185 C204 0.946 . S
H186 C206 0.953 . S
H187 C207 0.945 . S
H188 C209 0.952 . S
H189 C210 0.949 . S
H190 C212 0.950 . S
H191 C213 0.948 . S
H192 C215 0.951 . S
H193 C180 0.947 . S
H194 C182 0.952 . S
H195 C183 0.950 . S
N196 C199 1.382 . S
N196 C201 1.363 . S
N197 C199 1.371 . S
N197 C200 1.372 . S
N198 C200 1.361 . S
N198 C201 1.377 . S
C199 N196 1.382 . S
C199 N197 1.371 . S
C199 C202 1.480 . S
C200 N197 1.372 . S
C200 N198 1.361 . S
C200 C208 1.457 . S
C201 N196 1.363 . S
C201 N198 1.377 . S
C201 C214 1.479 . S
C202 C199 1.480 . S
C202 C203 1.383 . S
C202 C207 1.385 . S
C203 H184 0.947 . S
C203 C202 1.383 . S
C203 C204 1.388 . S
C204 H185 0.946 . S
C204 C203 1.388 . S
C204 C205 1.384 . S
C205 C204 1.384 . S
C205 C206 1.377 . S
C206 H186 0.953 . S
C206 C205 1.377 . S
C206 C207 1.369 . S
C207 H187 0.945 . S
C207 C202 1.385 . S
C207 C206 1.369 . S
C208 C200 1.457 . S
C208 C209 1.372 . S
C208 C213 1.364 . S
C209 H188 0.952 . S
C209 C208 1.372 . S
C209 C210 1.389 . S
C210 H189 0.949 . S
C210 C209 1.389 . S
C210 C211 1.387 . S
C211 C210 1.387 . S
C211 C212 1.372 . S
C212 H190 0.950 . S
C212 C211 1.372 . S
C212 C213 1.379 . S
C213 H191 0.948 . S
C213 C208 1.364 . S
C213 C212 1.379 . S
C214 C183 1.383 . S
C214 C201 1.479 . S
C214 C215 1.398 . S
C215 C180 1.382 . S
C215 H192 0.951 . S
C215 C214 1.398 . S
C216 C217 1.384 . S
C216 H229 0.947 . S
C216 C251 1.382 . S
C217 C216 1.384 . S
C217 C218 1.378 . S
C218 C217 1.378 . S
C218 C219 1.378 . S
C218 H230 0.952 . S
C219 C218 1.378 . S
C219 H231 0.950 . S
C219 C250 1.383 . S
H220 C239 0.947 . S
H221 C240 0.946 . S
H222 C242 0.953 . S
H223 C243 0.945 . S
H224 C245 0.952 . S
H225 C246 0.949 . S
H226 C248 0.950 . S
H227 C249 0.948 . S
H228 C251 0.951 . S
H229 C216 0.947 . S
H230 C218 0.952 . S
H231 C219 0.950 . S
N232 C235 1.382 . S
N232 C237 1.363 . S
N233 C235 1.371 . S
N233 C236 1.372 . S
N234 C236 1.361 . S
N234 C237 1.377 . S
C235 N232 1.382 . S
C235 N233 1.371 . S
C235 C238 1.480 . S
C236 N233 1.372 . S
C236 N234 1.361 . S
C236 C244 1.457 . S
C237 N232 1.363 . S
C237 N234 1.377 . S
C237 C250 1.479 . S
C238 C235 1.480 . S
C238 C239 1.383 . S
C238 C243 1.385 . S
C239 H220 0.947 . S
C239 C238 1.383 . S
C239 C240 1.388 . S
C240 H221 0.946 . S
C240 C239 1.388 . S
C240 C241 1.384 . S
C241 C240 1.384 . S
C241 C242 1.377 . S
C242 H222 0.953 . S
C242 C241 1.377 . S
C242 C243 1.369 . S
C243 H223 0.945 . S
C243 C238 1.385 . S
C243 C242 1.369 . S
C244 C236 1.457 . S
C244 C245 1.372 . S
C244 C249 1.364 . S
C245 H224 0.952 . S
C245 C244 1.372 . S
C245 C246 1.389 . S
C246 H225 0.949 . S
C246 C245 1.389 . S
C246 C247 1.387 . S
C247 C246 1.387 . S
C247 C248 1.372 . S
C248 H226 0.950 . S
C248 C247 1.372 . S
C248 C249 1.379 . S
C249 H227 0.948 . S
C249 C244 1.364 . S
C249 C248 1.379 . S
C250 C219 1.383 . S
C250 C237 1.479 . S
C250 C251 1.398 . S
C251 C216 1.382 . S
C251 H228 0.951 . S
C251 C250 1.398 . S
C252 C253 1.384 . S
C252 H265 0.947 . S
C252 C287 1.382 . S
C253 C252 1.384 . S
C253 C254 1.378 . S
C254 C253 1.378 . S
C254 C255 1.378 . S
C254 H266 0.952 . S
C255 C254 1.378 . S
C255 H267 0.950 . S
C255 C286 1.383 . S
H256 C275 0.947 . S
H257 C276 0.946 . S
H258 C278 0.953 . S
H259 C279 0.945 . S
H260 C281 0.952 . S
H261 C282 0.949 . S
H262 C284 0.950 . S
H263 C285 0.948 . S
H264 C287 0.951 . S
H265 C252 0.947 . S
H266 C254 0.952 . S
H267 C255 0.950 . S
N268 C271 1.382 . S
N268 C273 1.363 . S
N269 C271 1.371 . S
N269 C272 1.372 . S
N270 C272 1.361 . S
N270 C273 1.377 . S
C271 N268 1.382 . S
C271 N269 1.371 . S
C271 C274 1.480 . S
C272 N269 1.372 . S
C272 N270 1.361 . S
C272 C280 1.457 . S
C273 N268 1.363 . S
C273 N270 1.377 . S
C273 C286 1.479 . S
C274 C271 1.480 . S
C274 C275 1.383 . S
C274 C279 1.385 . S
C275 H256 0.947 . S
C275 C274 1.383 . S
C275 C276 1.388 . S
C276 H257 0.946 . S
C276 C275 1.388 . S
C276 C277 1.384 . S
C277 C276 1.384 . S
C277 C278 1.377 . S
C278 H258 0.953 . S
C278 C277 1.377 . S
C278 C279 1.369 . S
C279 H259 0.945 . S
C279 C274 1.385 . S
C279 C278 1.369 . S
C280 C272 1.457 . S
C280 C281 1.372 . S
C280 C285 1.364 . S
C281 H260 0.952 . S
C281 C280 1.372 . S
C281 C282 1.389 . S
C282 H261 0.949 . S
C282 C281 1.389 . S
C282 C283 1.387 . S
C283 C282 1.387 . S
C283 C284 1.372 . S
C284 H262 0.950 . S
C284 C283 1.372 . S
C284 C285 1.379 . S
C285 H263 0.948 . S
C285 C280 1.364 . S
C285 C284 1.379 . S
C286 C255 1.383 . S
C286 C273 1.479 . S
C286 C287 1.398 . S
C287 C252 1.382 . S
C287 H264 0.951 . S
C287 C286 1.398 . S
O288 Mg289 1.990 . S
O288 C302 1.253 1_445 S
Mg289 O288 1.990 . S
Mg289 O292 2.180 . S
Mg289 O293 2.117 . S
Mg289 O307 2.030 1_545 S
O290 Mg291 2.072 1_665 S
O290 C302 1.260 . S
Mg291 O290 2.072 1_445 S
Mg291 O292 2.099 . S
Mg291 O294 2.079 . S
Mg291 O295 2.072 1_455 S
Mg291 O297 2.099 1_445 S
Mg291 O308 2.079 1_545 S
O292 Mg289 2.180 . S
O292 Mg291 2.099 . S
O292 C303 1.279 . S
O293 Mg289 2.117 . S
O293 C303 1.250 . S
O294 Mg291 2.079 . S
O294 C304 1.264 . S
O295 Mg291 2.072 1_655 S
O295 C305 1.260 . S
Mg296 O297 2.180 . S
Mg296 O298 2.030 1_565 S
Mg296 O299 1.990 1_565 S
Mg296 O300 2.117 . S
O297 Mg291 2.099 1_665 S
O297 Mg296 2.180 . S
O297 C306 1.279 . S
O298 Mg296 2.030 1_545 S
O298 C304 1.248 1_655 S
O299 Mg296 1.990 1_545 S
O299 C305 1.253 . S
O300 Mg296 2.117 . S
O300 C306 1.250 . S
C301 O307 1.248 . S
C301 O308 1.264 . S
C302 O288 1.253 1_665 S
C302 O290 1.260 . S
C303 O292 1.279 . S
C303 O293 1.250 . S
C304 O294 1.264 . S
C304 O298 1.248 1_455 S
C305 O295 1.260 . S
C305 O299 1.253 . S
C306 O297 1.279 . S
C306 O300 1.250 . S
O307 Mg289 2.030 1_565 S
O307 C301 1.248 . S
O308 Mg291 2.079 1_565 S
O308 C301 1.264 . S
O309 Mg310 1.990 . S
O309 C323 1.253 . S
Mg310 O309 1.990 . S
Mg310 O313 2.180 1_554 S
Mg310 O314 2.117 1_554 S
Mg310 O328 2.030 . S
O311 Mg312 2.072 . S
O311 C323 1.260 . S
Mg312 O311 2.072 . S
Mg312 O313 2.099 1_554 S
Mg312 O315 2.074 1_544 S
Mg312 O316 2.072 1_554 S
Mg312 O318 2.099 1_545 S
Mg312 O329 2.079 . S
O313 Mg310 2.180 1_556 S
O313 Mg312 2.099 1_556 S
O313 C324 1.279 . S
O314 Mg310 2.117 1_556 S
O314 C324 1.250 . S
O315 Mg312 2.074 1_566 S
O315 C325 1.274 . S
O316 Mg312 2.072 1_556 S
O316 C326 1.260 1_545 S
Mg317 O318 2.180 1_556 S
Mg317 O319 2.030 . S
Mg317 O320 1.990 . S
Mg317 O321 2.117 1_556 S
O318 Mg312 2.099 1_565 S
O318 Mg317 2.180 1_554 S
O318 C327 1.279 . S
O319 Mg317 2.030 . S
O319 C325 1.248 . S
O320 Mg317 1.990 . S
O320 C326 1.253 . S
O321 Mg317 2.117 1_554 S
O321 C327 1.250 . S
C322 O328 1.248 . S
C322 O329 1.264 . S
C323 O309 1.253 . S
C323 O311 1.260 . S
C324 O313 1.279 . S
C324 O314 1.250 . S
C325 O315 1.274 . S
C325 O319 1.248 . S
C326 O316 1.260 1_565 S
C326 O320 1.253 . S
C327 O318 1.279 . S
C327 O321 1.250 . S
O328 Mg310 2.030 . S
O328 C322 1.248 . S
O329 Mg312 2.079 . S
O329 C322 1.264 . S
O330 Mg331 1.990 . S
O330 C344 1.253 . S
Mg331 O330 1.990 . S
Mg331 O334 2.180 . S
Mg331 O335 2.117 . S
Mg331 O349 2.030 . S
O332 Mg333 2.072 . S
O332 C344 1.260 . S
Mg333 O332 2.072 . S
Mg333 O334 2.099 . S
Mg333 O336 2.079 . S
Mg333 O337 2.072 . S
Mg333 O339 2.099 . S
Mg333 O350 2.079 . S
O334 Mg331 2.180 . S
O334 Mg333 2.099 . S
O334 C345 1.279 . S
O335 Mg331 2.117 . S
O335 C345 1.250 . S
O336 Mg333 2.079 . S
O336 C346 1.264 . S
O337 Mg333 2.072 . S
O337 C347 1.260 . S
Mg338 O339 2.180 . S
Mg338 O340 2.030 . S
Mg338 O341 1.990 . S
Mg338 O342 2.117 . S
O339 Mg333 2.099 . S
O339 Mg338 2.180 . S
O339 C348 1.279 . S
O340 Mg338 2.030 . S
O340 C346 1.248 . S
O341 Mg338 1.990 . S
O341 C347 1.253 . S
O342 Mg338 2.117 . S
O342 C348 1.250 . S
C343 O349 1.248 . S
C343 O350 1.264 . S
C344 O330 1.253 . S
C344 O332 1.260 . S
C345 O334 1.279 . S
C345 O335 1.250 . S
C346 O336 1.264 . S
C346 O340 1.248 . S
C347 O337 1.260 . S
C347 O341 1.253 . S
C348 O339 1.279 . S
C348 O342 1.250 . S
O349 Mg331 2.030 . S
O349 C343 1.248 . S
O350 Mg333 2.079 . S
O350 C343 1.264 . S
O351 Mg352 1.990 . S
O351 C365 1.253 . S
Mg352 O351 1.990 . S
Mg352 O355 2.180 1_455 S
Mg352 O356 2.117 1_455 S
Mg352 O370 2.030 . S
O353 Mg354 2.072 . S
O353 C365 1.260 . S
Mg354 O353 2.072 . S
Mg354 O355 2.099 1_455 S
Mg354 O357 2.079 1_454 S
Mg354 O358 2.072 1_455 S
Mg354 O360 2.099 1_554 S
Mg354 O371 2.079 . S
O355 Mg352 2.180 1_655 S
O355 Mg354 2.099 1_655 S
O355 C366 1.279 . S
O356 Mg352 2.117 1_655 S
O356 C366 1.250 . S
O357 Mg354 2.079 1_656 S
O357 C367 1.264 . S
O358 Mg354 2.072 1_655 S
O358 C368 1.260 1_554 S
Mg359 O360 2.180 1_655 S
Mg359 O361 2.030 . S
Mg359 O362 1.990 . S
Mg359 O363 2.123 . S
O360 Mg354 2.099 1_556 S
O360 Mg359 2.180 1_455 S
O360 C369 1.279 . S
O361 Mg359 2.030 . S
O361 C367 1.248 . S
O362 Mg359 1.990 . S
O362 C368 1.253 . S
O363 Mg359 2.123 . S
O363 C369 1.245 1_655 S
C364 O370 1.248 . S
C364 O371 1.264 . S
C365 O351 1.253 . S
C365 O353 1.260 . S
C366 O355 1.279 . S
C366 O356 1.250 . S
C367 O357 1.264 . S
C367 O361 1.248 . S
C368 O358 1.260 1_556 S
C368 O362 1.253 . S
C369 O360 1.279 . S
C369 O363 1.245 1_455 S
O370 Mg352 2.030 . S
O370 C364 1.248 . S
O371 Mg354 2.079 . S
O371 C364 1.264 . S
C372 C373 1.363 . S
C372 C378 1.379 . S
C372 N380 1.356 . S
C373 C372 1.363 . S
C373 C379 1.363 . S
C374 C375 1.363 . S
C374 C379 1.379 . S
C374 N381 1.356 1_545 S
C375 C374 1.363 . S
C375 C378 1.363 . S
N376 C378 1.356 . S
N376 H388 0.984 . S
N376 H389 0.985 . S
N377 C379 1.356 . S
N377 H382 0.984 . S
N377 H383 0.985 1_545 S
C378 C372 1.379 . S
C378 C375 1.363 . S
C378 N376 1.356 . S
C379 C373 1.363 . S
C379 C374 1.379 . S
C379 N377 1.356 . S
N380 C372 1.356 . S
N380 H386 0.984 . S
N380 H387 0.984 . S
N381 C374 1.356 1_565 S
N381 H384 0.984 . S
N381 H385 0.985 . S
H382 N377 0.984 . S
H383 N377 0.985 1_565 S
H384 N381 0.984 . S
H385 N381 0.985 . S
H386 N380 0.984 . S
H387 N380 0.984 . S
H388 N376 0.984 . S
H389 N376 0.985 . S
C390 C391 1.363 . S
C390 C396 1.379 . S
C390 N398 1.356 . S
C391 C390 1.363 . S
C391 C397 1.363 . S
C392 C393 1.363 1_545 S
C392 C397 1.379 1_545 S
C392 N399 1.356 . S
C393 C392 1.363 1_565 S
C393 C396 1.363 . S
N394 C396 1.356 . S
N394 H406 0.984 . S
N394 H407 0.985 . S
N395 C397 1.356 1_545 S
N395 H400 0.984 1_545 S
N395 H401 0.985 . S
C396 C390 1.379 . S
C396 C393 1.363 . S
C396 N394 1.356 . S
C397 C391 1.363 . S
C397 C392 1.379 1_565 S
C397 N395 1.356 1_565 S
N398 C390 1.356 . S
N398 H404 0.984 . S
N398 H405 0.984 . S
N399 C392 1.356 . S
N399 H402 0.984 . S
N399 H403 0.985 . S
H400 N395 0.984 1_565 S
H401 N395 0.985 . S
H402 N399 0.984 . S
H403 N399 0.985 . S
H404 N398 0.984 . S
H405 N398 0.984 . S
H406 N394 0.984 . S
H407 N394 0.985 . S
C408 C409 1.363 . S
C408 C414 1.379 . S
C408 N416 1.356 . S
C409 C408 1.363 . S
C409 C415 1.363 . S
C410 C411 1.363 . S
C410 C415 1.379 . S
C410 N417 1.356 . S
C411 C410 1.363 . S
C411 C414 1.363 . S
N412 C414 1.356 . S
N412 H424 0.984 . S
N412 H425 0.985 . S
N413 C415 1.356 . S
N413 H418 0.984 . S
N413 H419 0.985 . S
C414 C408 1.379 . S
C414 C411 1.363 . S
C414 N412 1.356 . S
C415 C409 1.363 . S
C415 C410 1.379 . S
C415 N413 1.356 . S
N416 C408 1.356 . S
N416 H422 0.984 . S
N416 H423 0.984 . S
N417 C410 1.356 . S
N417 H420 0.984 . S
N417 H421 0.985 . S
H418 N413 0.984 . S
H419 N413 0.985 . S
H420 N417 0.984 . S
H421 N417 0.985 . S
H422 N416 0.984 . S
H423 N416 0.984 . S
H424 N412 0.984 . S
H425 N412 0.985 . S
C426 C427 1.363 . S
C426 C432 1.379 . S
C426 N434 1.356 . S
C427 C426 1.363 . S
C427 C433 1.363 . S
C428 C429 1.363 . S
C428 C433 1.379 . S
C428 N435 1.356 . S
C429 C428 1.363 . S
C429 C432 1.363 . S
N430 C432 1.356 . S
N430 H442 0.984 . S
N430 H443 0.985 . S
N431 C433 1.356 . S
N431 H436 0.984 . S
N431 H437 0.985 . S
C432 C426 1.379 . S
C432 C429 1.363 . S
C432 N430 1.356 . S
C433 C427 1.363 . S
C433 C428 1.379 . S
C433 N431 1.356 . S
N434 C426 1.356 . S
N434 H440 0.984 . S
N434 H441 0.984 . S
N435 C428 1.356 . S
N435 H438 0.984 . S
N435 H439 0.985 . S
H436 N431 0.984 . S
H437 N431 0.985 . S
H438 N435 0.984 . S
H439 N435 0.985 . S
H440 N434 0.984 . S
H441 N434 0.984 . S
H442 N430 0.984 . S
H443 N430 0.985 . S
C444 C445 1.363 . S
C444 C450 1.379 . S
C444 N452 1.356 . S
C445 C444 1.363 . S
C445 C451 1.363 . S
C446 C447 1.363 . S
C446 C451 1.379 . S
C446 N453 1.356 1_554 S
C447 C446 1.363 . S
C447 C450 1.363 . S
N448 C450 1.356 . S
N448 H460 0.984 . S
N448 H461 0.985 . S
N449 C451 1.356 . S
N449 H454 0.984 . S
N449 H455 0.985 1_554 S
C450 C444 1.379 . S
C450 C447 1.363 . S
C450 N448 1.356 . S
C451 C445 1.363 . S
C451 C446 1.379 . S
C451 N449 1.356 . S
N452 C444 1.356 . S
N452 H458 0.984 . S
N452 H459 0.984 . S
N453 C446 1.356 1_556 S
N453 H456 0.984 . S
N453 H457 0.985 . S
H454 N449 0.984 . S
H455 N449 0.985 1_556 S
H456 N453 0.984 . S
H457 N453 0.985 . S
H458 N452 0.984 . S
H459 N452 0.984 . S
H460 N448 0.984 . S
H461 N448 0.985 . S
C462 C463 1.363 . S
C462 C468 1.379 . S
C462 N470 1.356 . S
C463 C462 1.363 . S
C463 C469 1.363 . S
C464 C465 1.363 . S
C464 C469 1.379 . S
C464 N471 1.356 . S
C465 C464 1.363 . S
C465 C468 1.363 . S
N466 C468 1.356 . S
N466 H478 0.984 . S
N466 H479 0.985 . S
N467 C469 1.356 . S
N467 H472 0.984 . S
N467 H473 0.985 . S
C468 C462 1.379 . S
C468 C465 1.363 . S
C468 N466 1.356 . S
C469 C463 1.363 . S
C469 C464 1.379 . S
C469 N467 1.356 . S
N470 C462 1.356 . S
N470 H476 0.984 . S
N470 H477 0.984 . S
N471 C464 1.356 . S
N471 H474 0.984 . S
N471 H475 0.985 . S
H472 N467 0.984 . S
H473 N467 0.985 . S
H474 N471 0.984 . S
H475 N471 0.985 . S
H476 N470 0.984 . S
H477 N470 0.984 . S
H478 N466 0.984 . S
H479 N466 0.985 . S
C480 C481 1.363 . S
C480 C486 1.379 . S
C480 N488 1.356 . S
C481 C480 1.363 . S
C481 C487 1.363 . S
C482 C483 1.363 . S
C482 C487 1.379 . S
C482 N489 1.356 1_556 S
C483 C482 1.363 . S
C483 C486 1.363 . S
N484 C486 1.356 . S
N484 H496 0.984 . S
N484 H497 0.985 . S
N485 C487 1.356 . S
N485 H490 0.984 . S
N485 H491 0.985 1_556 S
C486 C480 1.379 . S
C486 C483 1.363 . S
C486 N484 1.356 . S
C487 C481 1.363 . S
C487 C482 1.379 . S
C487 N485 1.356 . S
N488 C480 1.356 . S
N488 H494 0.984 . S
N488 H495 0.984 . S
N489 C482 1.356 1_554 S
N489 H492 0.984 . S
N489 H493 0.985 . S
H490 N485 0.984 . S
H491 N485 0.985 1_554 S
H492 N489 0.984 . S
H493 N489 0.985 . S
H494 N488 0.984 . S
H495 N488 0.984 . S
H496 N484 0.984 . S
H497 N484 0.985 . S
C498 C499 1.363 . S
C498 C504 1.379 . S
C498 N506 1.356 . S
C499 C498 1.363 . S
C499 C505 1.363 . S
C500 C501 1.363 . S
C500 C505 1.379 . S
C500 N507 1.356 . S
C501 C500 1.363 . S
C501 C504 1.363 . S
N502 C504 1.356 . S
N502 H514 0.984 . S
N502 H515 0.985 . S
N503 C505 1.356 . S
N503 H508 0.984 . S
N503 H509 0.985 . S
C504 C498 1.379 . S
C504 C501 1.363 . S
C504 N502 1.356 . S
C505 C499 1.363 . S
C505 C500 1.379 . S
C505 N503 1.356 . S
N506 C498 1.356 . S
N506 H512 0.984 . S
N506 H513 0.984 . S
N507 C500 1.356 . S
N507 H510 0.984 . S
N507 H511 0.985 . S
H508 N503 0.984 . S
H509 N503 0.985 . S
H510 N507 0.984 . S
H511 N507 0.985 . S
H512 N506 0.984 . S
H513 N506 0.984 . S
H514 N502 0.984 . S
H515 N502 0.985 . S
C516 C517 1.363 . S
C516 C522 1.379 . S
C516 N524 1.356 . S
C517 C516 1.363 . S
C517 C523 1.363 . S
C518 C519 1.363 . S
C518 C523 1.379 . S
C518 N525 1.356 1_554 S
C519 C518 1.363 . S
C519 C522 1.363 . S
N520 C522 1.356 . S
N520 H532 0.984 1_455 S
N520 H533 0.985 . S
N521 C523 1.356 . S
N521 H526 0.984 . S
N521 H527 0.985 1_554 S
C522 C516 1.379 . S
C522 C519 1.363 . S
C522 N520 1.356 . S
C523 C517 1.363 . S
C523 C518 1.379 . S
C523 N521 1.356 . S
N524 C516 1.356 . S
N524 H530 0.984 . S
N524 H531 0.984 . S
N525 C518 1.356 1_556 S
N525 H528 0.984 . S
N525 H529 0.985 . S
H526 N521 0.984 . S
H527 N521 0.985 1_556 S
H528 N525 0.984 . S
H529 N525 0.985 . S
H530 N524 0.984 . S
H531 N524 0.984 . S
H532 N520 0.984 1_655 S
H533 N520 0.985 . S
C534 C535 1.363 . S
C534 C540 1.379 . S
C534 N542 1.356 . S
C535 C534 1.363 . S
C535 C541 1.363 . S
C536 C537 1.363 . S
C536 C541 1.379 . S
C536 N543 1.356 . S
C537 C536 1.363 . S
C537 C540 1.363 . S
N538 C540 1.356 . S
N538 H550 0.984 . S
N538 H551 0.985 . S
N539 C541 1.356 . S
N539 H544 0.984 . S
N539 H545 0.985 1_556 S
C540 C534 1.379 . S
C540 C537 1.363 . S
C540 N538 1.356 . S
C541 C535 1.363 . S
C541 C536 1.379 . S
C541 N539 1.356 . S
N542 C534 1.356 . S
N542 H548 0.984 . S
N542 H549 0.984 . S
N543 C536 1.356 . S
N543 H546 0.984 . S
N543 H547 0.985 1_556 S
H544 N539 0.984 . S
H545 N539 0.985 1_554 S
H546 N543 0.984 . S
H547 N543 0.985 1_554 S
H548 N542 0.984 . S
H549 N542 0.984 . S
H550 N538 0.984 . S
H551 N538 0.985 . S
C552 C553 1.363 . S
C552 C558 1.379 . S
C552 N560 1.356 . S
C553 C552 1.363 . S
C553 C559 1.363 . S
C554 C555 1.363 . S
C554 C559 1.379 . S
C554 N561 1.367 . S
C555 C554 1.363 . S
C555 C558 1.363 . S
N556 C558 1.356 . S
N556 H568 0.984 . S
N556 H569 0.985 . S
N557 C559 1.356 . S
N557 H562 0.984 . S
N557 H563 0.996 . S
C558 C552 1.379 . S
C558 C555 1.363 . S
C558 N556 1.356 . S
C559 C553 1.363 . S
C559 C554 1.379 . S
C559 N557 1.356 . S
N560 C552 1.356 . S
N560 H566 0.984 . S
N560 H567 0.984 . S
N561 C554 1.367 . S
N561 H564 0.987 . S
N561 H565 0.971 1_655 S
H562 N557 0.984 . S
H563 N557 0.996 . S
H564 N561 0.987 . S
H565 N561 0.971 1_455 S
H566 N560 0.984 . S
H567 N560 0.984 . S
H568 N556 0.984 . S
H569 N556 0.985 . S
C570 C571 1.363 . S
C570 C576 1.379 . S
C570 N578 1.356 . S
C571 C570 1.363 . S
C571 C577 1.363 . S
C572 C573 1.363 . S
C572 C577 1.379 . S
C572 N579 1.356 . S
C573 C572 1.363 . S
C573 C576 1.363 . S
N574 C576 1.356 . S
N574 H586 0.984 . S
N574 H587 0.985 . S
N575 C577 1.356 . S
N575 H580 0.984 . S
N575 H581 0.985 . S
C576 C570 1.379 . S
C576 C573 1.363 . S
C576 N574 1.356 . S
C577 C571 1.363 . S
C577 C572 1.379 . S
C577 N575 1.356 . S
N578 C570 1.356 . S
N578 H584 0.984 . S
N578 H585 0.984 . S
N579 C572 1.356 . S
N579 H582 0.984 . S
N579 H583 0.985 . S
H580 N575 0.984 . S
H581 N575 0.985 . S
H582 N579 0.984 . S
H583 N579 0.985 . S
H584 N578 0.984 . S
H585 N578 0.984 . S
H586 N574 0.984 . S
H587 N574 0.985 . S
C588 C589 1.363 . S
C588 C594 1.379 . S
C588 N596 1.356 . S
C589 C588 1.363 . S
C589 C595 1.363 . S
C590 C591 1.363 . S
C590 C595 1.379 . S
C590 N597 1.356 1_565 S
C591 C590 1.363 . S
C591 C594 1.363 . S
N592 C594 1.356 1_455 S
N592 H604 0.984 . S
N592 H605 0.985 . S
N593 C595 1.356 . S
N593 H598 0.984 . S
N593 H599 0.985 1_565 S
C594 C588 1.379 . S
C594 C591 1.363 . S
C594 N592 1.356 1_655 S
C595 C589 1.363 . S
C595 C590 1.379 . S
C595 N593 1.356 . S
N596 C588 1.356 . S
N596 H602 0.984 1_655 S
N596 H603 0.984 . S
N597 C590 1.356 1_545 S
N597 H600 0.984 . S
N597 H601 0.985 . S
H598 N593 0.984 . S
H599 N593 0.985 1_545 S
H600 N597 0.984 . S
H601 N597 0.985 . S
H602 N596 0.984 1_455 S
H603 N596 0.984 . S
H604 N592 0.984 . S
H605 N592 0.985 . S
C606 C607 1.363 . S
C606 C612 1.379 . S
C606 N614 1.356 . S
C607 C606 1.363 . S
C607 C613 1.363 . S
C608 C609 1.363 . S
C608 C613 1.379 . S
C608 N615 1.356 . S
C609 C608 1.363 . S
C609 C612 1.363 . S
N610 C612 1.375 . S
N610 H622 0.963 1_545 S
N610 H623 0.988 . S
N611 C613 1.356 . S
N611 H616 0.984 . S
N611 H617 0.985 . S
C612 C606 1.379 . S
C612 C609 1.363 . S
C612 N610 1.375 . S
C613 C607 1.363 . S
C613 C608 1.379 . S
C613 N611 1.356 . S
N614 C606 1.356 . S
N614 H620 0.984 1_545 S
N614 H621 0.984 . S
N615 C608 1.356 . S
N615 H618 0.984 . S
N615 H619 0.985 . S
H616 N611 0.984 . S
H617 N611 0.985 . S
H618 N615 0.984 . S
H619 N615 0.985 . S
H620 N614 0.984 1_565 S
H621 N614 0.984 . S
H622 N610 0.963 1_565 S
H623 N610 0.988 . S
C624 C625 1.363 . S
C624 C630 1.379 . S
C624 N632 1.356 . S
C625 C624 1.363 . S
C625 C631 1.363 . S
C626 C627 1.363 . S
C626 C631 1.379 . S
C626 N633 1.356 . S
C627 C626 1.363 . S
C627 C630 1.363 . S
N628 C630 1.356 . S
N628 H640 0.984 . S
N628 H641 0.985 . S
N629 C631 1.356 . S
N629 H634 0.984 . S
N629 H635 0.985 . S
C630 C624 1.379 . S
C630 C627 1.363 . S
C630 N628 1.356 . S
C631 C625 1.363 . S
C631 C626 1.379 . S
C631 N629 1.356 . S
N632 C624 1.356 . S
N632 H638 0.984 . S
N632 H639 0.984 . S
N633 C626 1.356 . S
N633 H636 0.984 . S
N633 H637 0.985 . S
H634 N629 0.984 . S
H635 N629 0.985 . S
H636 N633 0.984 . S
H637 N633 0.985 . S
H638 N632 0.984 . S
H639 N632 0.984 . S
H640 N628 0.984 . S
H641 N628 0.985 . S
C642 C643 1.363 . S
C642 C648 1.379 . S
C642 N650 1.356 . S
C643 C642 1.363 . S
C643 C649 1.363 . S
C644 C645 1.363 . S
C644 C649 1.379 . S
C644 N651 1.356 . S
C645 C644 1.363 . S
C645 C648 1.363 . S
N646 C648 1.356 . S
N646 H658 0.984 . S
N646 H659 0.985 . S
N647 C649 1.356 . S
N647 H652 0.984 . S
N647 H653 0.985 1_455 S
C648 C642 1.379 . S
C648 C645 1.363 . S
C648 N646 1.356 . S
C649 C643 1.363 . S
C649 C644 1.379 . S
C649 N647 1.356 . S
N650 C642 1.356 . S
N650 H656 0.984 . S
N650 H657 0.984 . S
N651 C644 1.356 . S
N651 H654 0.984 . S
N651 H655 0.985 1_455 S
H652 N647 0.984 . S
H653 N647 0.985 1_655 S
H654 N651 0.984 . S
H655 N651 0.985 1_655 S
H656 N650 0.984 . S
H657 N650 0.984 . S
H658 N646 0.984 . S
H659 N646 0.985 . S
C660 C661 1.363 . S
C660 C666 1.379 . S
C660 N668 1.360 . S
C661 C660 1.363 . S
C661 C667 1.363 . S
C662 C663 1.363 . S
C662 C667 1.379 . S
C662 N669 1.356 . S
C663 C662 1.363 . S
C663 C666 1.363 . S
N664 C666 1.356 1_544 S
N664 H676 0.984 . S
N664 H677 0.985 . S
N665 C667 1.356 . S
N665 H670 0.984 . S
N665 H671 0.985 . S
C666 C660 1.379 . S
C666 C663 1.363 . S
C666 N664 1.356 1_566 S
C667 C661 1.363 . S
C667 C662 1.379 . S
C667 N665 1.356 . S
N668 C660 1.360 . S
N668 H674 0.978 1_566 S
N668 H675 0.988 . S
N669 C662 1.356 . S
N669 H672 0.984 . S
N669 H673 0.985 . S
H670 N665 0.984 . S
H671 N665 0.985 . S
H672 N669 0.984 . S
H673 N669 0.985 . S
H674 N668 0.978 1_544 S
H675 N668 0.988 . S
H676 N664 0.984 . S
H677 N664 0.985 . S
C678 C679 1.363 . S
C678 C684 1.379 . S
C678 N686 1.356 . S
C679 C678 1.363 . S
C679 C685 1.363 . S
C680 C681 1.363 . S
C680 C685 1.379 . S
C680 N687 1.356 . S
C681 C680 1.363 . S
C681 C684 1.363 . S
N682 C684 1.356 . S
N682 H694 0.984 1_545 S
N682 H695 0.985 . S
N683 C685 1.356 . S
N683 H688 0.984 . S
N683 H689 0.985 . S
C684 C678 1.379 . S
C684 C681 1.363 . S
C684 N682 1.356 . S
C685 C679 1.363 . S
C685 C680 1.379 . S
C685 N683 1.356 . S
N686 C678 1.356 . S
N686 H692 0.984 . S
N686 H693 0.984 . S
N687 C680 1.356 . S
N687 H690 0.984 . S
N687 H691 0.985 . S
H688 N683 0.984 . S
H689 N683 0.985 . S
H690 N687 0.984 . S
H691 N687 0.985 . S
H692 N686 0.984 . S
H693 N686 0.984 . S
H694 N682 0.984 1_565 S
H695 N682 0.985 . S
C696 C697 1.363 . S
C696 C702 1.379 . S
C696 N704 1.356 . S
C697 C696 1.363 . S
C697 C703 1.363 . S
C698 C699 1.363 . S
C698 C703 1.379 . S
C698 N705 1.356 1_554 S
C699 C698 1.363 . S
C699 C702 1.363 . S
N700 C702 1.356 . S
N700 H712 0.984 . S
N700 H713 0.985 . S
N701 C703 1.356 . S
N701 H706 0.984 . S
N701 H707 0.985 . S
C702 C696 1.379 . S
C702 C699 1.363 . S
C702 N700 1.356 . S
C703 C697 1.363 . S
C703 C698 1.379 . S
C703 N701 1.356 . S
N704 C696 1.356 . S
N704 H710 0.984 . S
N704 H711 0.984 . S
N705 C698 1.356 1_556 S
N705 H708 0.984 . S
N705 H709 0.985 . S
H706 N701 0.984 . S
H707 N701 0.985 . S
H708 N705 0.984 . S
H709 N705 0.985 . S
H710 N704 0.984 . S
H711 N704 0.984 . S
H712 N700 0.984 . S
H713 N700 0.985 . S
C714 C715 1.363 . S
C714 C720 1.379 . S
C714 N722 1.356 . S
C715 C714 1.363 . S
C715 C721 1.363 . S
C716 C717 1.363 . S
C716 C721 1.379 . S
C716 N723 1.356 . S
C717 C716 1.363 . S
C717 C720 1.363 . S
N718 C720 1.356 . S
N718 H730 0.984 . S
N718 H731 0.985 . S
N719 C721 1.356 . S
N719 H724 0.984 . S
N719 H725 0.985 . S
C720 C714 1.379 . S
C720 C717 1.363 . S
C720 N718 1.356 . S
C721 C715 1.363 . S
C721 C716 1.379 . S
C721 N719 1.356 . S
N722 C714 1.356 . S
N722 H728 0.984 . S
N722 H729 0.984 . S
N723 C716 1.356 . S
N723 H726 0.984 . S
N723 H727 0.985 . S
H724 N719 0.984 . S
H725 N719 0.985 . S
H726 N723 0.984 . S
H727 N723 0.985 . S
H728 N722 0.984 . S
H729 N722 0.984 . S
H730 N718 0.984 . S
H731 N718 0.985 . S
C732 C733 1.363 . S
C732 C738 1.379 . S
C732 N740 1.356 . S
C733 C732 1.363 . S
C733 C739 1.363 . S
C734 C735 1.363 . S
C734 C739 1.379 . S
C734 N741 1.356 1_556 S
C735 C734 1.363 . S
C735 C738 1.363 . S
N736 C738 1.356 . S
N736 H748 0.984 . S
N736 H749 0.985 . S
N737 C739 1.364 . S
N737 H742 0.994 . S
N737 H743 0.968 1_556 S
C738 C732 1.379 . S
C738 C735 1.363 . S
C738 N736 1.356 . S
C739 C733 1.363 . S
C739 C734 1.379 . S
C739 N737 1.364 . S
N740 C732 1.356 . S
N740 H746 0.984 . S
N740 H747 0.984 . S
N741 C734 1.356 1_554 S
N741 H744 0.984 . S
N741 H745 0.985 1_655 S
H742 N737 0.994 . S
H743 N737 0.968 1_554 S
H744 N741 0.984 . S
H745 N741 0.985 1_455 S
H746 N740 0.984 . S
H747 N740 0.984 . S
H748 N736 0.984 . S
H749 N736 0.985 . S
C750 C751 1.363 . S
C750 C756 1.379 . S
C750 N758 1.356 . S
C751 C750 1.363 . S
C751 C757 1.363 . S
C752 C753 1.363 . S
C752 C757 1.379 . S
C752 N759 1.356 . S
C753 C752 1.363 . S
C753 C756 1.363 . S
N754 C756 1.356 . S
N754 H766 0.984 1_554 S
N754 H767 0.985 . S
N755 C757 1.356 . S
N755 H760 0.984 . S
N755 H761 0.985 . S
C756 C750 1.379 . S
C756 C753 1.363 . S
C756 N754 1.356 . S
C757 C751 1.363 . S
C757 C752 1.379 . S
C757 N755 1.356 . S
N758 C750 1.356 . S
N758 H764 0.984 . S
N758 H765 0.984 . S
N759 C752 1.356 . S
N759 H762 0.984 . S
N759 H763 0.985 . S
H760 N755 0.984 . S
H761 N755 0.985 . S
H762 N759 0.984 . S
H763 N759 0.985 . S
H764 N758 0.984 . S
H765 N758 0.984 . S
H766 N754 0.984 1_556 S
H767 N754 0.985 . S
C768 C769 1.363 . S
C768 C774 1.379 . S
C768 N776 1.356 . S
C769 C768 1.363 . S
C769 C775 1.363 . S
C770 C771 1.363 . S
C770 C775 1.379 . S
C770 N777 1.356 . S
C771 C770 1.363 . S
C771 C774 1.363 . S
N772 C774 1.356 1_655 S
N772 H784 0.984 . S
N772 H785 0.985 . S
N773 C775 1.356 . S
N773 H778 0.984 . S
N773 H779 0.985 . S
C774 C768 1.379 . S
C774 C771 1.363 . S
C774 N772 1.356 1_455 S
C775 C769 1.363 . S
C775 C770 1.379 . S
C775 N773 1.356 . S
N776 C768 1.356 . S
N776 H782 0.984 1_455 S
N776 H783 0.984 . S
N777 C770 1.356 . S
N777 H780 0.984 . S
N777 H781 0.985 . S
H778 N773 0.984 . S
H779 N773 0.985 . S
H780 N777 0.984 . S
H781 N777 0.985 . S
H782 N776 0.984 1_655 S
H783 N776 0.984 . S
H784 N772 0.984 . S
H785 N772 0.985 . S
C786 C787 1.363 . S
C786 C792 1.379 . S
C786 N794 1.356 . S
C787 C786 1.363 . S
C787 C793 1.363 . S
C788 C789 1.363 . S
C788 C793 1.379 . S
C788 N795 1.356 . S
C789 C788 1.363 . S
C789 C792 1.363 . S
N790 C792 1.356 . S
N790 H802 0.984 . S
N790 H803 0.985 . S
N791 C793 1.356 . S
N791 H796 0.984 . S
N791 H797 0.985 . S
C792 C786 1.379 . S
C792 C789 1.363 . S
C792 N790 1.356 . S
C793 C787 1.363 . S
C793 C788 1.379 . S
C793 N791 1.356 . S
N794 C786 1.356 . S
N794 H800 0.984 . S
N794 H801 0.984 . S
N795 C788 1.356 . S
N795 H798 0.984 . S
N795 H799 0.985 . S
H796 N791 0.984 . S
H797 N791 0.985 . S
H798 N795 0.984 . S
H799 N795 0.985 . S
H800 N794 0.984 . S
H801 N794 0.984 . S
H802 N790 0.984 . S
H803 N790 0.985 . S
C373 C1 1.574 . S
C375 C304 1.532 . S
C391 C67 1.493 . S
C393 C326 1.477 . S
C411 C345 1.198 . S
C409 C97 1.470 . S
C427 C133 1.865 . S
C429 C366 1.445 . S
C447 C323 1.738 . S
C445 C25 1.756 . S
C465 C301 1.668 . S
C463 C37 1.680 . S
C483 C368 1.362 . S
C481 C103 1.404 . S
C501 C347 1.524 . S
C499 C109 1.559 . S
C517 C31 1.686 . S
C519 C365 1.680 . S
C537 C324 1.278 . S
C535 C73 1.606 . S
C553 C139 1.718 . S
C555 C306 1.601 . S
C571 C61 1.511 . S
C573 C344 1.557 . S
C591 C302 1.538 . S
C589 C175 1.636 . S
C607 C181 1.347 . S
C609 C322 1.340 . S
C625 C247 1.558 . S
C627 C348 1.262 . S
C643 C277 1.798 . S
C645 C369 1.369 . S
C661 C145 1.711 . S
C663 C325 1.688 . S
C681 C305 1.708 . S
C679 C211 1.738 . S
C699 C364 1.255 . S
C697 C217 1.312 . S
C717 C343 1.577 . S
C715 C283 1.624 . S
C733 C169 1.565 . S
C735 C367 1.540 . S
C753 C327 1.254 . S
C751 C241 1.558 . S
C771 C303 1.450 . S
C769 C253 1.558 . S
C787 C205 1.475 . S
C789 C346 1.504 . S
