# Generated by pormake.
# Topology eea, (3,6)-cn, num edge types: 1
# Building blocks:
#     Node 0, Type 0, BuildingBlock: MIDCAF_clean_linker_0, # of connection points: 3
#     Node 1, Type 0, BuildingBlock: MIDCAF_clean_linker_0, # of connection points: 3
#     Node 2, Type 0, BuildingBlock: MIDCAF_clean_linker_0, # of connection points: 3
#     Node 3, Type 0, BuildingBlock: MIDCAF_clean_linker_0, # of connection points: 3
#     Node 4, Type 0, BuildingBlock: MIDCAF_clean_linker_0, # of connection points: 3
#     Node 5, Type 0, BuildingBlock: MIDCAF_clean_linker_0, # of connection points: 3
#     Node 6, Type 0, BuildingBlock: MIDCAF_clean_linker_0, # of connection points: 3
#     Node 7, Type 0, BuildingBlock: MIDCAF_clean_linker_0, # of connection points: 3
#     Node 8, Type 0, BuildingBlock: MIDCAF_clean_linker_0, # of connection points: 3
#     Node 9, Type 0, BuildingBlock: MIDCAF_clean_linker_0, # of connection points: 3
#     Node 10, Type 0, BuildingBlock: MIDCAF_clean_linker_0, # of connection points: 3
#     Node 11, Type 0, BuildingBlock: MIDCAF_clean_linker_0, # of connection points: 3
#     Node 12, Type 0, BuildingBlock: MIDCAF_clean_linker_0, # of connection points: 3
#     Node 13, Type 0, BuildingBlock: MIDCAF_clean_linker_0, # of connection points: 3
#     Node 14, Type 0, BuildingBlock: MIDCAF_clean_linker_0, # of connection points: 3
#     Node 15, Type 0, BuildingBlock: MIDCAF_clean_linker_0, # of connection points: 3
#     Node 16, Type 0, BuildingBlock: MIDCAF_clean_linker_0, # of connection points: 3
#     Node 17, Type 0, BuildingBlock: MIDCAF_clean_linker_0, # of connection points: 3
#     Node 18, Type 1, BuildingBlock: HISSIN_clean_sbu_0, # of connection points: 6
#     Node 19, Type 1, BuildingBlock: HISSIN_clean_sbu_0, # of connection points: 6
#     Node 20, Type 1, BuildingBlock: HISSIN_clean_sbu_0, # of connection points: 6
#     Node 21, Type 1, BuildingBlock: HISSIN_clean_sbu_0, # of connection points: 6
#     Node 22, Type 1, BuildingBlock: HISSIN_clean_sbu_0, # of connection points: 6
#     Node 23, Type 1, BuildingBlock: HISSIN_clean_sbu_0, # of connection points: 6
#     Node 24, Type 1, BuildingBlock: HISSIN_clean_sbu_0, # of connection points: 6
#     Node 25, Type 1, BuildingBlock: HISSIN_clean_sbu_0, # of connection points: 6
#     Node 26, Type 1, BuildingBlock: HISSIN_clean_sbu_0, # of connection points: 6
#     Edge 27, Type (0, 1), BuildingBlock: TEMPAE_clean_linker_10, # of connection points: 2
#     Edge 28, Type (0, 1), BuildingBlock: TEMPAE_clean_linker_10, # of connection points: 2
#     Edge 29, Type (0, 1), BuildingBlock: TEMPAE_clean_linker_10, # of connection points: 2
#     Edge 30, Type (0, 1), BuildingBlock: TEMPAE_clean_linker_10, # of connection points: 2
#     Edge 31, Type (0, 1), BuildingBlock: TEMPAE_clean_linker_10, # of connection points: 2
#     Edge 32, Type (0, 1), BuildingBlock: TEMPAE_clean_linker_10, # of connection points: 2
#     Edge 33, Type (0, 1), BuildingBlock: TEMPAE_clean_linker_10, # of connection points: 2
#     Edge 34, Type (0, 1), BuildingBlock: TEMPAE_clean_linker_10, # of connection points: 2
#     Edge 35, Type (0, 1), BuildingBlock: TEMPAE_clean_linker_10, # of connection points: 2
#     Edge 36, Type (0, 1), BuildingBlock: TEMPAE_clean_linker_10, # of connection points: 2
#     Edge 37, Type (0, 1), BuildingBlock: TEMPAE_clean_linker_10, # of connection points: 2
#     Edge 38, Type (0, 1), BuildingBlock: TEMPAE_clean_linker_10, # of connection points: 2
#     Edge 39, Type (0, 1), BuildingBlock: TEMPAE_clean_linker_10, # of connection points: 2
#     Edge 40, Type (0, 1), BuildingBlock: TEMPAE_clean_linker_10, # of connection points: 2
#     Edge 41, Type (0, 1), BuildingBlock: TEMPAE_clean_linker_10, # of connection points: 2
#     Edge 42, Type (0, 1), BuildingBlock: TEMPAE_clean_linker_10, # of connection points: 2
#     Edge 43, Type (0, 1), BuildingBlock: TEMPAE_clean_linker_10, # of connection points: 2
#     Edge 44, Type (0, 1), BuildingBlock: TEMPAE_clean_linker_10, # of connection points: 2
#     Edge 45, Type (0, 1), BuildingBlock: TEMPAE_clean_linker_10, # of connection points: 2
#     Edge 46, Type (0, 1), BuildingBlock: TEMPAE_clean_linker_10, # of connection points: 2
#     Edge 47, Type (0, 1), BuildingBlock: TEMPAE_clean_linker_10, # of connection points: 2
#     Edge 48, Type (0, 1), BuildingBlock: TEMPAE_clean_linker_10, # of connection points: 2
#     Edge 49, Type (0, 1), BuildingBlock: TEMPAE_clean_linker_10, # of connection points: 2
#     Edge 50, Type (0, 1), BuildingBlock: TEMPAE_clean_linker_10, # of connection points: 2
#     Edge 51, Type (0, 1), BuildingBlock: TEMPAE_clean_linker_10, # of connection points: 2
#     Edge 52, Type (0, 1), BuildingBlock: TEMPAE_clean_linker_10, # of connection points: 2
#     Edge 53, Type (0, 1), BuildingBlock: TEMPAE_clean_linker_10, # of connection points: 2
#     Edge 54, Type (0, 1), BuildingBlock: TEMPAE_clean_linker_10, # of connection points: 2
#     Edge 55, Type (0, 1), BuildingBlock: TEMPAE_clean_linker_10, # of connection points: 2
#     Edge 56, Type (0, 1), BuildingBlock: TEMPAE_clean_linker_10, # of connection points: 2
#     Edge 57, Type (0, 1), BuildingBlock: TEMPAE_clean_linker_10, # of connection points: 2
#     Edge 58, Type (0, 1), BuildingBlock: TEMPAE_clean_linker_10, # of connection points: 2
#     Edge 59, Type (0, 1), BuildingBlock: TEMPAE_clean_linker_10, # of connection points: 2
#     Edge 60, Type (0, 1), BuildingBlock: TEMPAE_clean_linker_10, # of connection points: 2
#     Edge 61, Type (0, 1), BuildingBlock: TEMPAE_clean_linker_10, # of connection points: 2
#     Edge 62, Type (0, 1), BuildingBlock: TEMPAE_clean_linker_10, # of connection points: 2
#     Edge 63, Type (0, 1), BuildingBlock: TEMPAE_clean_linker_10, # of connection points: 2
#     Edge 64, Type (0, 1), BuildingBlock: TEMPAE_clean_linker_10, # of connection points: 2
#     Edge 65, Type (0, 1), BuildingBlock: TEMPAE_clean_linker_10, # of connection points: 2
#     Edge 66, Type (0, 1), BuildingBlock: TEMPAE_clean_linker_10, # of connection points: 2
#     Edge 67, Type (0, 1), BuildingBlock: TEMPAE_clean_linker_10, # of connection points: 2
#     Edge 68, Type (0, 1), BuildingBlock: TEMPAE_clean_linker_10, # of connection points: 2
#     Edge 69, Type (0, 1), BuildingBlock: TEMPAE_clean_linker_10, # of connection points: 2
#     Edge 70, Type (0, 1), BuildingBlock: TEMPAE_clean_linker_10, # of connection points: 2
#     Edge 71, Type (0, 1), BuildingBlock: TEMPAE_clean_linker_10, # of connection points: 2
#     Edge 72, Type (0, 1), BuildingBlock: TEMPAE_clean_linker_10, # of connection points: 2
#     Edge 73, Type (0, 1), BuildingBlock: TEMPAE_clean_linker_10, # of connection points: 2
#     Edge 74, Type (0, 1), BuildingBlock: TEMPAE_clean_linker_10, # of connection points: 2
#     Edge 75, Type (0, 1), BuildingBlock: TEMPAE_clean_linker_10, # of connection points: 2
#     Edge 76, Type (0, 1), BuildingBlock: TEMPAE_clean_linker_10, # of connection points: 2
#     Edge 77, Type (0, 1), BuildingBlock: TEMPAE_clean_linker_10, # of connection points: 2
#     Edge 78, Type (0, 1), BuildingBlock: TEMPAE_clean_linker_10, # of connection points: 2
#     Edge 79, Type (0, 1), BuildingBlock: TEMPAE_clean_linker_10, # of connection points: 2
#     Edge 80, Type (0, 1), BuildingBlock: TEMPAE_clean_linker_10, # of connection points: 2
# Relax obj value: 0.035
# Max RMSD: 0.133
# Mean RMSD: 0.075
data_MOF--net-eea--node1-HISSIN_clean_sbu_0--node2-MIDCAF_clean_linker_0--edge1-TEMPAE_clean_linker_10
_symmetry_space_group_name_H-M    P1
_symmetry_Int_Tables_number       1
_symmetry_cell_setting            triclinic
loop_
_symmetry_equiv_pos_as_xyz
'x, y, z'
_cell_length_a     63.131024
_cell_length_b     63.191246
_cell_length_c     89.930489
_cell_angle_alpha  93.458478
_cell_angle_beta   93.622691
_cell_angle_gamma 119.78217
loop_
_atom_site_label
_atom_site_type_symbol
_atom_site_fract_x
_atom_site_fract_y
_atom_site_fract_z
_atom_type_partial_charge
C0 C 0.28559 0.07083 0.40289 0.0
C1 C 0.26365 0.05881 0.39327 0.0
C2 C 0.25106 0.07124 0.38981 0.0
C3 C 0.26003 0.09526 0.39609 0.0
H4 H 0.25813 0.1579 0.38949 0.0
H5 H 0.24066 0.18175 0.37994 0.0
H6 H 0.27774 0.23622 0.41808 0.0
H7 H 0.29558 0.21259 0.42764 0.0
H8 H 0.32305 0.2021 0.45409 0.0
H9 H 0.33812 0.21011 0.48058 0.0
H10 H 0.33503 0.14015 0.47877 0.0
H11 H 0.32059 0.13232 0.45226 0.0
H12 H 0.31096 0.10339 0.41714 0.0
H13 H 0.29551 0.06145 0.40571 0.0
H14 H 0.23412 0.06224 0.38237 0.0
H15 H 0.24965 0.10423 0.39343 0.0
N16 N 0.28195 0.14623 0.40807 0.0
N17 N 0.30078 0.17476 0.42933 0.0
N18 N 0.3026 0.13853 0.42768 0.0
C19 C 0.28769 0.16799 0.41561 0.0
C20 C 0.30833 0.16015 0.43545 0.0
C21 C 0.28947 0.13151 0.41397 0.0
C22 C 0.27821 0.18323 0.40939 0.0
C23 C 0.26273 0.17502 0.39584 0.0
C24 C 0.25256 0.18859 0.39039 0.0
C25 C 0.25769 0.21072 0.39833 0.0
C26 C 0.27359 0.21928 0.41169 0.0
C27 C 0.28372 0.20566 0.41718 0.0
C28 C 0.32033 0.16643 0.45103 0.0
C29 C 0.32589 0.18854 0.45927 0.0
C30 C 0.3344 0.1931 0.47449 0.0
C31 C 0.33751 0.17565 0.48182 0.0
C32 C 0.33304 0.15407 0.47344 0.0
C33 C 0.32461 0.14953 0.45822 0.0
C34 C 0.28148 0.10706 0.40621 0.0
C35 C 0.29433 0.09471 0.40943 0.0
C36 C 0.96639 0.20962 0.4194 0.0
C37 C 0.96717 0.20312 0.4043 0.0
C38 C 0.94638 0.18285 0.3964 0.0
C39 C 0.92542 0.16905 0.40351 0.0
H40 H 0.85533 0.1054 0.39707 0.0
H41 H 0.82589 0.06383 0.38562 0.0
H42 H 0.80814 0.04029 0.42945 0.0
H43 H 0.83714 0.08184 0.44096 0.0
H44 H 0.8485 0.12376 0.4664 0.0
H45 H 0.84221 0.13605 0.49096 0.0
H46 H 0.89865 0.21079 0.4877 0.0
H47 H 0.90552 0.19831 0.46302 0.0
H48 H 0.94543 0.20124 0.43819 0.0
H49 H 0.98208 0.22534 0.42571 0.0
H50 H 0.94651 0.17731 0.38478 0.0
H51 H 0.90987 0.15334 0.3971 0.0
N52 N 0.88589 0.13696 0.41976 0.0
N53 N 0.86416 0.12949 0.44078 0.0
N54 N 0.90027 0.16716 0.44029 0.0
C55 C 0.86651 0.1218 0.42692 0.0
C56 C 0.88078 0.15216 0.44753 0.0
C57 C 0.90293 0.15961 0.42638 0.0
C58 C 0.84853 0.09686 0.41991 0.0
C59 C 0.8451 0.09137 0.40426 0.0
C60 C 0.82822 0.06769 0.3977 0.0
C61 C 0.81489 0.04902 0.4067 0.0
C62 C 0.81833 0.05443 0.42232 0.0
C63 C 0.83482 0.0782 0.42886 0.0
C64 C 0.87747 0.16006 0.46265 0.0
C65 C 0.85961 0.14287 0.47082 0.0
C66 C 0.85584 0.14996 0.48492 0.0
C67 C 0.86967 0.17449 0.49123 0.0
C68 C 0.88775 0.19173 0.48317 0.0
C69 C 0.89164 0.18457 0.46902 0.0
C70 C 0.92469 0.17528 0.41868 0.0
C71 C 0.94532 0.19592 0.4265 0.0
C72 C 0.81278 0.76761 0.42466 0.0
C73 C 0.81455 0.77465 0.41006 0.0
C74 C 0.83385 0.77625 0.4023 0.0
C75 C 0.85109 0.77104 0.40902 0.0
H76 H 0.92287 0.78668 0.40786 0.0
H77 H 0.96079 0.79802 0.39678 0.0
H78 H 0.97819 0.75795 0.42782 0.0
H79 H 0.94009 0.74635 0.43893 0.0
H80 H 0.90752 0.72702 0.46648 0.0
H81 H 0.89888 0.70748 0.48967 0.0
H82 H 0.8317 0.70997 0.48916 0.0
H83 H 0.83993 0.72894 0.46595 0.0
H84 H 0.82788 0.75675 0.44259 0.0
H85 H 0.79799 0.76605 0.43086 0.0
H86 H 0.83579 0.78185 0.39108 0.0
H87 H 0.86575 0.77251 0.40272 0.0
N88 N 0.8885 0.76394 0.42457 0.0
N89 N 0.90055 0.74754 0.44391 0.0
N90 N 0.86315 0.74706 0.44356 0.0
C91 C 0.90519 0.75875 0.43108 0.0
C92 C 0.87953 0.74163 0.45022 0.0
C93 C 0.86742 0.75814 0.43073 0.0
C94 C 0.92833 0.76556 0.42432 0.0
C95 C 0.93469 0.78021 0.41236 0.0
C96 C 0.95654 0.78688 0.40605 0.0
C97 C 0.97251 0.77895 0.41146 0.0
C98 C 0.96615 0.7642 0.42335 0.0
C99 C 0.94436 0.75766 0.42975 0.0
C100 C 0.87445 0.72959 0.46428 0.0
C101 C 0.89087 0.72334 0.47128 0.0
C102 C 0.88598 0.71223 0.48462 0.0
C103 C 0.86456 0.70709 0.49125 0.0
C104 C 0.84816 0.71329 0.48423 0.0
C105 C 0.85301 0.72435 0.47093 0.0
C106 C 0.84927 0.76387 0.42361 0.0
C107 C 0.82986 0.76217 0.43133 0.0
C108 C 0.02456 0.22207 0.59762 0.0
C109 C 0.01936 0.20837 0.61 0.0
C110 C 0.03631 0.20172 0.61556 0.0
C111 C 0.05798 0.20869 0.60897 0.0
H112 H 0.11884 0.19938 0.61025 0.0
H113 H 0.1497 0.19081 0.62149 0.0
H114 H 0.20444 0.24535 0.5972 0.0
H115 H 0.17371 0.25389 0.58585 0.0
H116 H 0.1526 0.26372 0.5556 0.0
H117 H 0.16016 0.28236 0.53226 0.0
H118 H 0.09061 0.28017 0.53076 0.0
H119 H 0.08297 0.26164 0.55437 0.0
H120 H 0.0496 0.23952 0.58145 0.0
H121 H 0.01176 0.22728 0.59298 0.0
H122 H 0.03302 0.19144 0.6252 0.0
H123 H 0.0706 0.20331 0.61365 0.0
N124 N 0.10365 0.22535 0.59613 0.0
N125 N 0.12925 0.24414 0.57758 0.0
N126 N 0.09095 0.24178 0.57711 0.0
C127 C 0.1251 0.23242 0.59014 0.0
C128 C 0.11231 0.24884 0.57094 0.0
C129 C 0.0865 0.23004 0.58975 0.0
C130 C 0.14378 0.22731 0.59713 0.0
C131 C 0.13745 0.20958 0.60731 0.0
C132 C 0.15506 0.20455 0.61368 0.0
C133 C 0.17941 0.21741 0.61019 0.0
C134 C 0.18582 0.23527 0.60014 0.0
C135 C 0.16816 0.24006 0.5936 0.0
C136 C 0.11707 0.26101 0.5569 0.0
C137 C 0.13885 0.26721 0.55039 0.0
C138 C 0.14318 0.2778 0.53693 0.0
C139 C 0.1259 0.28254 0.52959 0.0
C140 C 0.10433 0.27684 0.5362 0.0
C141 C 0.09992 0.26612 0.54969 0.0
C142 C 0.06326 0.22244 0.59658 0.0
C143 C 0.04622 0.22897 0.59096 0.0
C144 C 0.72091 0.77388 0.61069 0.0
C145 C 0.73558 0.78264 0.62452 0.0
C146 C 0.73959 0.8046 0.63212 0.0
C147 C 0.72956 0.81781 0.62589 0.0
H148 H 0.72481 0.87941 0.63431 0.0
H149 H 0.73891 0.92068 0.64597 0.0
H150 H 0.70961 0.93669 0.60629 0.0
H151 H 0.69567 0.8956 0.59449 0.0
H152 H 0.66476 0.85242 0.56838 0.0
H153 H 0.65081 0.84501 0.54177 0.0
H154 H 0.67308 0.79068 0.53648 0.0
H155 H 0.68643 0.79756 0.5632 0.0
H156 H 0.70011 0.78009 0.59359 0.0
H157 H 0.71766 0.75708 0.60453 0.0
H158 H 0.75054 0.81161 0.6429 0.0
H159 H 0.73331 0.83481 0.632 0.0
N160 N 0.71021 0.84559 0.61225 0.0
N161 N 0.69177 0.85318 0.59143 0.0
N162 N 0.69494 0.81772 0.59056 0.0
C163 C 0.70303 0.8601 0.60566 0.0
C164 C 0.68758 0.83201 0.58381 0.0
C165 C 0.70616 0.82432 0.60482 0.0
C166 C 0.7093 0.88419 0.61338 0.0
C167 C 0.72114 0.8916 0.62809 0.0
C168 C 0.72912 0.91521 0.63483 0.0
C169 C 0.72554 0.93193 0.62698 0.0
C170 C 0.71293 0.92427 0.61251 0.0
C171 C 0.70484 0.90066 0.60579 0.0
C172 C 0.67695 0.82575 0.56793 0.0
C173 C 0.6665 0.83872 0.56159 0.0
C174 C 0.6586 0.83457 0.54631 0.0
C175 C 0.66112 0.81748 0.53696 0.0
C176 C 0.6707 0.80383 0.54338 0.0
C177 C 0.67845 0.80786 0.55871 0.0
C178 C 0.71538 0.80942 0.61186 0.0
C179 C 0.71096 0.78715 0.6044 0.0
C180 C 0.19393 0.94094 0.60982 0.0
C181 C 0.18929 0.94947 0.62332 0.0
C182 C 0.16743 0.93433 0.62945 0.0
C183 C 0.15029 0.91138 0.62206 0.0
H184 H 0.08763 0.84803 0.62735 0.0
H185 H 0.05002 0.82329 0.63861 0.0
H186 H 0.01545 0.78011 0.59603 0.0
H187 H 0.05312 0.80497 0.5846 0.0
H188 H 0.08558 0.81841 0.55615 0.0
H189 H 0.09131 0.80872 0.53058 0.0
H190 H 0.16949 0.85817 0.54021 0.0
H191 H 0.16367 0.86851 0.56549 0.0
H192 H 0.18069 0.91223 0.59184 0.0
H193 H 0.21055 0.9523 0.60477 0.0
H194 H 0.16352 0.94029 0.63995 0.0
H195 H 0.1335 0.90038 0.62704 0.0
N196 N 0.11443 0.86502 0.60598 0.0
N197 N 0.09953 0.83723 0.58425 0.0
N198 N 0.13856 0.87248 0.58609 0.0
C199 C 0.09637 0.84388 0.59824 0.0
C200 C 0.12068 0.85141 0.57814 0.0
C201 C 0.13555 0.87946 0.6 0.0
C202 C 0.07345 0.82852 0.60504 0.0
C203 C 0.07206 0.8333 0.62032 0.0
C204 C 0.05055 0.81905 0.62683 0.0
C205 C 0.02984 0.79978 0.6182 0.0
C206 C 0.0311 0.795 0.60291 0.0
C207 C 0.05273 0.80915 0.59641 0.0
C208 C 0.12413 0.84439 0.56284 0.0
C209 C 0.104 0.82714 0.55281 0.0
C210 C 0.1073 0.8215 0.53816 0.0
C211 C 0.13085 0.83279 0.53326 0.0
C212 C 0.15102 0.84954 0.54345 0.0
C213 C 0.14769 0.85538 0.55801 0.0
C214 C 0.15455 0.90308 0.60832 0.0
C215 C 0.17673 0.91802 0.60237 0.0
C216 C 0.9468 0.39425 0.73667 0.0
C217 C 0.93138 0.3855 0.72312 0.0
C218 C 0.92509 0.40122 0.71613 0.0
C219 C 0.93338 0.42493 0.72281 0.0
H220 H 0.93264 0.48913 0.71688 0.0
H221 H 0.91603 0.51334 0.70649 0.0
H222 H 0.93718 0.55842 0.74878 0.0
H223 H 0.95365 0.53432 0.75926 0.0
H224 H 0.98301 0.5264 0.78529 0.0
H225 H 0.99649 0.53431 0.81202 0.0
H226 H 0.99378 0.46457 0.81101 0.0
H227 H 0.98084 0.4568 0.78425 0.0
H228 H 0.96636 0.42378 0.75402 0.0
H229 H 0.95179 0.3825 0.74239 0.0
H230 H 0.91349 0.39506 0.70557 0.0
H231 H 0.92772 0.43634 0.71727 0.0
N232 N 0.94827 0.47262 0.73806 0.0
N233 N 0.96385 0.49996 0.75998 0.0
N234 N 0.96568 0.46381 0.75887 0.0
C235 C 0.95287 0.49396 0.74569 0.0
C236 C 0.97039 0.48505 0.76665 0.0
C237 C 0.95472 0.45749 0.74457 0.0
C238 C 0.94437 0.50964 0.73895 0.0
C239 C 0.9339 0.50428 0.72395 0.0
C240 C 0.92447 0.5182 0.71796 0.0
C241 C 0.92516 0.53761 0.72687 0.0
C242 C 0.9361 0.54332 0.74173 0.0
C243 C 0.94567 0.52956 0.74769 0.0
C244 C 0.98064 0.49086 0.7826 0.0
C245 C 0.98549 0.51282 0.79071 0.0
C246 C 0.9931 0.51733 0.80606 0.0
C247 C 0.99599 0.49998 0.81365 0.0
C248 C 0.99194 0.47841 0.80546 0.0
C249 C 0.98439 0.47392 0.79011 0.0
C250 C 0.94803 0.43337 0.73667 0.0
C251 C 0.95502 0.41791 0.74338 0.0
C252 C 0.63403 0.54458 0.75393 0.0
C253 C 0.63461 0.5446 0.73836 0.0
C254 C 0.61266 0.53137 0.72885 0.0
C255 C 0.59044 0.51768 0.7348 0.0
H256 H 0.53709 0.43787 0.73388 0.0
H257 H 0.50814 0.39667 0.72177 0.0
H258 H 0.44956 0.39767 0.74341 0.0
H259 H 0.47855 0.4387 0.7559 0.0
H260 H 0.50608 0.46291 0.79303 0.0
H261 H 0.49914 0.47225 0.81814 0.0
H262 H 0.55778 0.54722 0.81854 0.0
H263 H 0.56542 0.53755 0.79343 0.0
H264 H 0.61171 0.53135 0.77197 0.0
H265 H 0.65086 0.55474 0.76142 0.0
H266 H 0.6128 0.53116 0.7168 0.0
H267 H 0.57379 0.50722 0.7272 0.0
N268 N 0.54927 0.48042 0.74856 0.0
N269 N 0.52384 0.47195 0.76784 0.0
N270 N 0.56221 0.50809 0.77031 0.0
C271 C 0.52794 0.46542 0.75415 0.0
C272 C 0.54083 0.49323 0.776 0.0
C273 C 0.56641 0.50181 0.75653 0.0
C274 C 0.51007 0.44146 0.74587 0.0
C275 C 0.518 0.42943 0.73595 0.0
C276 C 0.50154 0.40588 0.72907 0.0
C277 C 0.47678 0.3942 0.73173 0.0
C278 C 0.46861 0.40647 0.7412 0.0
C279 C 0.48518 0.42982 0.74836 0.0
C280 C 0.53632 0.49948 0.79118 0.0
C281 C 0.51747 0.48145 0.79839 0.0
C282 C 0.51336 0.48687 0.81281 0.0
C283 C 0.52774 0.51056 0.82036 0.0
C284 C 0.54651 0.52871 0.81312 0.0
C285 C 0.55082 0.5232 0.7987 0.0
C286 C 0.58976 0.51745 0.75039 0.0
C287 C 0.6117 0.53134 0.75992 0.0
C288 C 0.47999 0.10496 0.75949 0.0
C289 C 0.48496 0.11815 0.7469 0.0
C290 C 0.5072 0.12522 0.7408 0.0
C291 C 0.52409 0.11925 0.74714 0.0
H292 H 0.58293 0.11012 0.73754 0.0
H293 H 0.61957 0.11946 0.72536 0.0
H294 H 0.65353 0.1117 0.76625 0.0
H295 H 0.6168 0.10222 0.77853 0.0
H296 H 0.57827 0.06962 0.80229 0.0
H297 H 0.57004 0.0502 0.82554 0.0
H298 H 0.50298 0.05284 0.82556 0.0
H299 H 0.51081 0.07171 0.8023 0.0
H300 H 0.49248 0.089 0.77562 0.0
H301 H 0.46311 0.09945 0.76453 0.0
H302 H 0.51142 0.13515 0.73098 0.0
H303 H 0.54102 0.125 0.74211 0.0
N304 N 0.55782 0.1051 0.76009 0.0
N305 N 0.57048 0.08925 0.77948 0.0
N306 N 0.53344 0.08944 0.77965 0.0
C307 C 0.57454 0.09978 0.76641 0.0
C308 C 0.5499 0.08395 0.78615 0.0
C309 C 0.53725 0.10004 0.76665 0.0
C310 C 0.59687 0.1054 0.75904 0.0
C311 C 0.59817 0.11041 0.74398 0.0
C312 C 0.61911 0.11564 0.73695 0.0
C313 C 0.63938 0.1163 0.74485 0.0
C314 C 0.63822 0.11148 0.75993 0.0
C315 C 0.61713 0.10591 0.76692 0.0
C316 C 0.54521 0.07225 0.80035 0.0
C317 C 0.56174 0.06603 0.80722 0.0
C318 C 0.55708 0.05498 0.8206 0.0
C319 C 0.5358 0.04987 0.82738 0.0
C320 C 0.51934 0.05612 0.82051 0.0
C321 C 0.52396 0.06714 0.80719 0.0
C322 C 0.5192 0.10616 0.75979 0.0
C323 C 0.49692 0.09909 0.76589 0.0
C324 C 0.68763 0.55331 0.92898 0.0
C325 C 0.68205 0.53912 0.94115 0.0
C326 C 0.69897 0.53252 0.94682 0.0
C327 C 0.72099 0.54002 0.94054 0.0
H328 H 0.78284 0.53262 0.94319 0.0
H329 H 0.81368 0.52439 0.95483 0.0
H330 H 0.86892 0.57956 0.93111 0.0
H331 H 0.83822 0.58779 0.91938 0.0
H332 H 0.81939 0.60089 0.89022 0.0
H333 H 0.82778 0.61952 0.86691 0.0
H334 H 0.75502 0.61009 0.8618 0.0
H335 H 0.74655 0.5916 0.8854 0.0
H336 H 0.71334 0.57167 0.9133 0.0
H337 H 0.67486 0.55851 0.92428 0.0
H338 H 0.69539 0.52188 0.9563 0.0
H339 H 0.73357 0.53464 0.94531 0.0
N340 N 0.76751 0.55808 0.92864 0.0
N341 N 0.79389 0.57769 0.91059 0.0
N342 N 0.75515 0.57446 0.90941 0.0
C343 C 0.78935 0.5657 0.92305 0.0
C344 C 0.77694 0.5821 0.90365 0.0
C345 C 0.75033 0.56246 0.92195 0.0
C346 C 0.80803 0.56086 0.93034 0.0
C347 C 0.80156 0.54305 0.94047 0.0
C348 C 0.81916 0.53821 0.94707 0.0
C349 C 0.84365 0.55133 0.94385 0.0
C350 C 0.85019 0.56928 0.93385 0.0
C351 C 0.83255 0.57389 0.92709 0.0
C352 C 0.78218 0.59452 0.88971 0.0
C353 C 0.8051 0.60277 0.88422 0.0
C354 C 0.80992 0.61338 0.87077 0.0
C355 C 0.79199 0.61605 0.86241 0.0
C356 C 0.76926 0.60839 0.86803 0.0
C357 C 0.76439 0.5977 0.88153 0.0
C358 C 0.72666 0.55426 0.92839 0.0
C359 C 0.70964 0.56073 0.92264 0.0
C360 C 0.38648 0.10166 0.94777 0.0
C361 C 0.40168 0.11192 0.96135 0.0
C362 C 0.40501 0.13401 0.96833 0.0
C363 C 0.39381 0.14589 0.96169 0.0
H364 H 0.38521 0.20569 0.96816 0.0
H365 H 0.39838 0.24729 0.97865 0.0
H366 H 0.36923 0.26005 0.93759 0.0
H367 H 0.35624 0.21852 0.92694 0.0
H368 H 0.32545 0.17277 0.90173 0.0
H369 H 0.31161 0.16272 0.87503 0.0
H370 H 0.33422 0.10847 0.87302 0.0
H371 H 0.3482 0.11848 0.89974 0.0
H372 H 0.36412 0.10537 0.93046 0.0
H373 H 0.38373 0.08474 0.94208 0.0
H374 H 0.41638 0.14216 0.97891 0.0
H375 H 0.39708 0.16307 0.96728 0.0
N376 N 0.37226 0.17106 0.94693 0.0
N377 N 0.35266 0.17604 0.92555 0.0
N378 N 0.35726 0.1415 0.92611 0.0
C379 C 0.3642 0.18439 0.93969 0.0
C380 C 0.34903 0.15457 0.9187 0.0
C381 C 0.3688 0.14955 0.94025 0.0
C382 C 0.36985 0.20876 0.94663 0.0
C383 C 0.38137 0.21722 0.96138 0.0
C384 C 0.38881 0.24104 0.96745 0.0
C385 C 0.38498 0.25696 0.9589 0.0
C386 C 0.37271 0.24827 0.94436 0.0
C387 C 0.36516 0.22441 0.93831 0.0
C388 C 0.33817 0.14661 0.90288 0.0
C389 C 0.32724 0.1585 0.89567 0.0
C390 C 0.31914 0.15263 0.88038 0.0
C391 C 0.32194 0.13488 0.87196 0.0
C392 C 0.33204 0.12237 0.87924 0.0
C393 C 0.33995 0.12807 0.89456 0.0
C394 C 0.37912 0.136 0.94787 0.0
C395 C 0.37534 0.11358 0.94108 0.0
C396 C 0.86558 0.27692 0.94595 0.0
C397 C 0.86065 0.28537 0.95936 0.0
C398 C 0.83892 0.26994 0.96553 0.0
C399 C 0.82224 0.24671 0.95829 0.0
H400 H 0.7616 0.18141 0.96412 0.0
H401 H 0.72413 0.15626 0.97539 0.0
H402 H 0.69008 0.11257 0.9329 0.0
H403 H 0.72766 0.13786 0.92146 0.0
H404 H 0.76437 0.14461 0.89554 0.0
H405 H 0.77122 0.13431 0.87035 0.0
H406 H 0.84063 0.20213 0.87439 0.0
H407 H 0.83419 0.21223 0.8995 0.0
H408 H 0.85309 0.24801 0.9282 0.0
H409 H 0.88208 0.28851 0.94085 0.0
H410 H 0.83478 0.27587 0.97596 0.0
H411 H 0.80555 0.23543 0.96329 0.0
N412 N 0.78772 0.19931 0.94259 0.0
N413 N 0.77391 0.17109 0.92107 0.0
N414 N 0.81182 0.20761 0.92266 0.0
C415 C 0.77036 0.17763 0.935 0.0
C416 C 0.79471 0.18601 0.91485 0.0
C417 C 0.80849 0.21441 0.93651 0.0
C418 C 0.74768 0.1617 0.94185 0.0
C419 C 0.74619 0.16645 0.95712 0.0
C420 C 0.72476 0.15196 0.96363 0.0
C421 C 0.70421 0.13248 0.95502 0.0
C422 C 0.70561 0.12762 0.93976 0.0
C423 C 0.72718 0.14201 0.93325 0.0
C424 C 0.79871 0.17926 0.89961 0.0
C425 C 0.78115 0.15728 0.89109 0.0
C426 C 0.785 0.15141 0.87662 0.0
C427 C 0.80651 0.16736 0.87038 0.0
C428 C 0.82406 0.18924 0.87894 0.0
C429 C 0.82024 0.19509 0.89335 0.0
C430 C 0.82685 0.23845 0.94465 0.0
C431 C 0.84886 0.25374 0.93866 0.0
C432 C 0.60657 0.7187 0.07082 0.0
C433 C 0.5905 0.70994 0.05753 0.0
C434 C 0.58386 0.72565 0.05088 0.0
C435 C 0.59263 0.74945 0.05756 0.0
H436 H 0.57694 0.80572 0.05851 0.0
H437 H 0.56129 0.83107 0.04865 0.0
H438 H 0.61903 0.89449 0.07615 0.0
H439 H 0.63463 0.86915 0.08626 0.0
H440 H 0.64853 0.8532 0.11885 0.0
H441 H 0.66477 0.86184 0.14517 0.0
H442 H 0.6657 0.79383 0.14282 0.0
H443 H 0.64998 0.78533 0.11649 0.0
H444 H 0.62729 0.74841 0.08793 0.0
H445 H 0.61184 0.70693 0.07628 0.0
H446 H 0.57175 0.71949 0.04052 0.0
H447 H 0.58684 0.76092 0.05223 0.0
N448 N 0.60928 0.79765 0.07251 0.0
N449 N 0.62864 0.82674 0.09352 0.0
N450 N 0.62906 0.78981 0.09253 0.0
C451 C 0.6156 0.81978 0.07977 0.0
C452 C 0.63542 0.81182 0.09999 0.0
C453 C 0.6161 0.78262 0.07876 0.0
C454 C 0.60701 0.83543 0.0732 0.0
C455 C 0.58644 0.82509 0.0624 0.0
C456 C 0.57737 0.83952 0.05681 0.0
C457 C 0.58896 0.86463 0.06169 0.0
C458 C 0.60987 0.87515 0.07219 0.0
C459 C 0.61869 0.86064 0.078 0.0
C460 C 0.64769 0.81844 0.11553 0.0
C461 C 0.65246 0.8402 0.12386 0.0
C462 C 0.66165 0.84511 0.13899 0.0
C463 C 0.66631 0.82842 0.1461 0.0
C464 C 0.6625 0.80718 0.13763 0.0
C465 C 0.65332 0.80225 0.12253 0.0
C466 C 0.60818 0.75802 0.0711 0.0
C467 C 0.6153 0.74246 0.07753 0.0
C468 C 0.30426 0.87855 0.08804 0.0
C469 C 0.30528 0.87998 0.07256 0.0
C470 C 0.28344 0.86834 0.06288 0.0
C471 C 0.2609 0.85486 0.06853 0.0
H472 H 0.20466 0.77573 0.065 0.0
H473 H 0.17501 0.73516 0.05239 0.0
H474 H 0.11725 0.7368 0.07468 0.0
H475 H 0.14691 0.77721 0.08764 0.0
H476 H 0.16791 0.80278 0.12232 0.0
H477 H 0.16019 0.81013 0.1476 0.0
H478 H 0.23222 0.87478 0.15556 0.0
H479 H 0.24034 0.86713 0.13017 0.0
H480 H 0.28127 0.86446 0.10572 0.0
H481 H 0.32097 0.88748 0.09568 0.0
H482 H 0.28388 0.8692 0.05089 0.0
H483 H 0.24434 0.84566 0.06076 0.0
N484 N 0.21835 0.81745 0.08113 0.0
N485 N 0.19225 0.80865 0.10004 0.0
N486 N 0.23166 0.8434 0.10368 0.0
C487 C 0.19646 0.80276 0.08623 0.0
C488 C 0.20968 0.8289 0.10886 0.0
C489 C 0.23596 0.83785 0.08974 0.0
C490 C 0.17811 0.77958 0.07736 0.0
C491 C 0.18559 0.76762 0.06707 0.0
C492 C 0.16872 0.74441 0.05991 0.0
C493 C 0.14401 0.73303 0.06265 0.0
C494 C 0.13625 0.74536 0.07239 0.0
C495 C 0.15322 0.76837 0.07982 0.0
C496 C 0.20482 0.83432 0.12415 0.0
C497 C 0.18217 0.81866 0.12936 0.0
C498 C 0.17762 0.82296 0.14388 0.0
C499 C 0.19554 0.8431 0.15359 0.0
C500 C 0.21812 0.85897 0.14838 0.0
C501 C 0.22271 0.85464 0.1338 0.0
C502 C 0.25978 0.85325 0.084 0.0
C503 C 0.28162 0.86553 0.09375 0.0
C504 C 0.14948 0.44618 0.09286 0.0
C505 C 0.15528 0.45983 0.08047 0.0
C506 C 0.17781 0.46684 0.07476 0.0
C507 C 0.19403 0.46005 0.08117 0.0
H508 H 0.26377 0.46855 0.07986 0.0
H509 H 0.30012 0.47624 0.0678 0.0
H510 H 0.30448 0.42054 0.09107 0.0
H511 H 0.26813 0.41282 0.10327 0.0
H512 H 0.23651 0.39542 0.13229 0.0
H513 H 0.22609 0.37448 0.15494 0.0
H514 H 0.16886 0.39244 0.15902 0.0
H515 H 0.17868 0.41262 0.13631 0.0
H516 H 0.1605 0.42887 0.10881 0.0
H517 H 0.13239 0.44076 0.09762 0.0
H518 H 0.18269 0.47718 0.06513 0.0
H519 H 0.21111 0.46556 0.07639 0.0
N520 N 0.22555 0.44284 0.09379 0.0
N521 N 0.23497 0.42292 0.1121 0.0
N522 N 0.19967 0.42629 0.11257 0.0
C523 C 0.24064 0.43515 0.09967 0.0
C524 C 0.21453 0.41854 0.11866 0.0
C525 C 0.20496 0.43838 0.10014 0.0
C526 C 0.26298 0.44003 0.09253 0.0
C527 C 0.27244 0.45792 0.08244 0.0
C528 C 0.29336 0.46246 0.07559 0.0
C529 C 0.3051 0.44899 0.07851 0.0
C530 C 0.29568 0.43108 0.08856 0.0
C531 C 0.27494 0.42677 0.09559 0.0
C532 C 0.20843 0.4057 0.13241 0.0
C533 C 0.22166 0.39484 0.138 0.0
C534 C 0.21576 0.38292 0.15103 0.0
C535 C 0.19656 0.38167 0.15879 0.0
C536 C 0.18342 0.39259 0.15319 0.0
C537 C 0.1892 0.40435 0.14017 0.0
C538 C 0.18813 0.44619 0.0935 0.0
C539 C 0.16571 0.43949 0.09932 0.0
C540 C 0.35715 0.88262 0.26348 0.0
C541 C 0.35538 0.87689 0.27837 0.0
C542 C 0.37531 0.877 0.28632 0.0
C543 C 0.39661 0.88283 0.27958 0.0
H544 H 0.45228 0.85839 0.27252 0.0
H545 H 0.48278 0.84887 0.28288 0.0
H546 H 0.54067 0.91867 0.27193 0.0
H547 H 0.50999 0.92704 0.26056 0.0
H548 H 0.49008 0.93317 0.22558 0.0
H549 H 0.49828 0.95157 0.2022 0.0
H550 H 0.42552 0.94215 0.19721 0.0
H551 H 0.41724 0.9239 0.2209 0.0
H552 H 0.3795 0.89336 0.24532 0.0
H553 H 0.3421 0.88281 0.25712 0.0
H554 H 0.37436 0.87243 0.29778 0.0
H555 H 0.41164 0.88284 0.2861 0.0
N556 N 0.43876 0.89137 0.26446 0.0
N557 N 0.46476 0.91024 0.24608 0.0
N558 N 0.42626 0.90752 0.24514 0.0
C559 C 0.46033 0.89851 0.25863 0.0
C560 C 0.44782 0.9147 0.23918 0.0
C561 C 0.42169 0.89598 0.25786 0.0
C562 C 0.4788 0.89338 0.26571 0.0
C563 C 0.47156 0.87163 0.27236 0.0
C564 C 0.48913 0.86629 0.27839 0.0
C565 C 0.51441 0.88294 0.27829 0.0
C566 C 0.5215 0.90502 0.2719 0.0
C567 C 0.50391 0.90999 0.2655 0.0
C568 C 0.45289 0.92684 0.22515 0.0
C569 C 0.47574 0.93499 0.21959 0.0
C570 C 0.48045 0.94547 0.2061 0.0
C571 C 0.46247 0.94808 0.19776 0.0
C572 C 0.43979 0.94048 0.20342 0.0
C573 C 0.43503 0.92994 0.21697 0.0
C574 C 0.39864 0.88899 0.26475 0.0
C575 C 0.37862 0.88878 0.25676 0.0
C576 C 0.06028 0.45048 0.27935 0.0
C577 C 0.07101 0.4569 0.29427 0.0
C578 C 0.07026 0.4757 0.30294 0.0
C579 C 0.05964 0.48837 0.29667 0.0
H580 H 0.06379 0.55455 0.30248 0.0
H581 H 0.07864 0.59611 0.31376 0.0
H582 H 0.0431 0.60949 0.27584 0.0
H583 H 0.02791 0.5678 0.26453 0.0
H584 H 0.01366 0.53282 0.23452 0.0
H585 H -0.00057 0.52284 0.20797 0.0
H586 H 0.98837 0.44995 0.21024 0.0
H587 H 0.00341 0.46018 0.23677 0.0
H588 H 0.04174 0.45785 0.26147 0.0
H589 H 0.06032 0.43582 0.27248 0.0
H590 H 0.0785 0.48105 0.31447 0.0
H591 H 0.05983 0.50312 0.30357 0.0
N592 N 0.0447 0.51877 0.28175 0.0
N593 N 0.02607 0.52609 0.26087 0.0
N594 N 0.0282 0.49007 0.26048 0.0
C595 C 0.03777 0.53335 0.27501 0.0
C596 C 0.02109 0.50439 0.25356 0.0
C597 C 0.03996 0.49709 0.27459 0.0
C598 C 0.04481 0.55783 0.2825 0.0
C599 C 0.05889 0.5662 0.29657 0.0
C600 C 0.06753 0.59007 0.30303 0.0
C601 C 0.06222 0.60609 0.29562 0.0
C602 C 0.04736 0.59749 0.28185 0.0
C603 C 0.03877 0.57361 0.27535 0.0
C604 C 0.00992 0.4974 0.23779 0.0
C605 C 0.00797 0.51456 0.22943 0.0
C606 C -0.00036 0.50878 0.21418 0.0
C607 C 0.99284 0.48561 0.20693 0.0
C608 C 0.99387 0.46811 0.21541 0.0
C609 C 0.00239 0.47396 0.23066 0.0
C610 C 0.04939 0.48237 0.28161 0.0
C611 C 0.04948 0.46301 0.27309 0.0
C612 C 0.50775 0.61144 0.26536 0.0
C613 C 0.51523 0.61653 0.28088 0.0
C614 C 0.50488 0.59709 0.28993 0.0
C615 C 0.48744 0.57341 0.28367 0.0
H616 H 0.39986 0.52093 0.27678 0.0
H617 H 0.36311 0.4966 0.28877 0.0
H618 H 0.36766 0.43165 0.27693 0.0
H619 H 0.4035 0.45604 0.26388 0.0
H620 H 0.42053 0.46829 0.22409 0.0
H621 H 0.42768 0.45533 0.19964 0.0
H622 H 0.49778 0.5222 0.20257 0.0
H623 H 0.49101 0.53496 0.22689 0.0
H624 H 0.48567 0.58422 0.24708 0.0
H625 H 0.51466 0.62585 0.25801 0.0
H626 H 0.51047 0.59996 0.30185 0.0
H627 H 0.47985 0.55882 0.29089 0.0
N628 N 0.44298 0.5287 0.26835 0.0
N629 N 0.43074 0.49688 0.24901 0.0
N630 N 0.46661 0.53472 0.2483 0.0
C631 C 0.42675 0.50551 0.26215 0.0
C632 C 0.45073 0.51149 0.24201 0.0
C633 C 0.46295 0.54333 0.26147 0.0
C634 C 0.40451 0.49035 0.26945 0.0
C635 C 0.39292 0.50142 0.27673 0.0
C636 C 0.37193 0.48743 0.28374 0.0
C637 C 0.36235 0.46204 0.28406 0.0
C638 C 0.37411 0.45101 0.27676 0.0
C639 C 0.39478 0.46497 0.26935 0.0
C640 C 0.45513 0.50273 0.22748 0.0
C641 C 0.43756 0.48012 0.21957 0.0
C642 C 0.44158 0.47273 0.20554 0.0
C643 C 0.46333 0.48771 0.1992 0.0
C644 C 0.48101 0.51005 0.20723 0.0
C645 C 0.47699 0.51745 0.22117 0.0
C646 C 0.48055 0.56845 0.26817 0.0
C647 C 0.49092 0.5876 0.25906 0.0
Eu648 Eu 0.49521 0.98148 0.99758 0.0
Eu649 Eu 0.51647 0.01693 0.02988 0.0
C650 C 0.48844 0.02738 1.00324 0.0
C651 C 0.48637 0.96607 0.95595 0.0
C652 C 0.50147 0.99114 0.95466 0.0
C653 C 0.48279 0.95758 0.92894 0.0
C654 C 0.50708 -0.00059 0.9406 0.0
C655 C 0.47712 0.94932 0.94304 0.0
C656 C 0.49775 0.98275 0.92756 0.0
C657 C 0.48049 0.95764 0.9708 0.0
O658 O 0.48415 0.98189 0.03477 0.0
O659 O 0.46295 0.96834 0.01129 0.0
C660 C 0.46369 0.96849 0.02596 0.0
O661 O 0.50354 0.95948 0.01312 0.0
O662 O 0.51137 0.03901 0.04731 0.0
O663 O 0.54353 0.03516 0.04951 0.0
O664 O 0.53169 0.99136 0.03019 0.0
C665 C 0.5214 0.96855 0.02411 0.0
O666 O 0.53589 0.00617 0.9974 0.0
O667 O 0.54247 0.03889 0.01351 0.0
O668 O 0.48949 0.0249 0.01758 0.0
O669 O 0.49868 0.95918 0.97946 0.0
O670 O 0.46808 0.96569 0.97793 0.0
O671 O 0.49649 0.01692 0.99397 0.0
C672 C 0.52402 0.03406 0.07115 0.0
C673 C 0.51173 0.00893 0.07287 0.0
C674 C 0.52142 0.04297 0.0974 0.0
C675 C 0.50417 0.00085 0.0867 0.0
C676 C 0.5289 0.05105 0.08348 0.0
C677 C 0.50877 0.01774 0.09912 0.0
C678 C 0.52999 0.04216 0.05624 0.0
C679 C 0.54918 0.0294 1.00264 0.0
H680 H 0.50891 0.00433 0.96455 0.0
H681 H 0.47516 0.94432 0.91909 0.0
H682 H 0.51893 0.01885 0.93995 0.0
H683 H 0.46545 0.9299 0.94387 0.0
H684 H 0.50773 0.99553 0.06344 0.0
H685 H 0.52506 0.05641 0.10672 0.0
H686 H 0.49481 0.98134 0.0877 0.0
H687 H 0.53814 0.0705 0.0823 0.0
Eu688 Eu 0.01794 0.51374 0.99696 0.0
Eu689 Eu 0.98719 0.50455 0.02659 0.0
C690 C 0.97407 0.46141 1.00119 0.0
C691 C 0.03768 0.51907 0.95743 0.0
C692 C 0.01362 0.50895 0.95058 0.0
C693 C 0.05294 0.52598 0.9331 0.0
C694 C 0.00923 0.50728 0.93501 0.0
C695 C 0.05729 0.52756 0.94865 0.0
C696 C 0.02887 0.51582 0.92612 0.0
C697 C 0.04264 0.52114 0.97373 0.0
O698 O 0.02274 0.5071 0.03517 0.0
O699 O 0.03302 0.49703 0.01286 0.0
C700 C 0.03557 0.49991 0.02759 0.0
O701 O 0.03985 0.54652 0.01388 0.0
O702 O 0.95678 0.4804 0.03886 0.0
O703 O 0.98159 0.51808 0.04791 0.0
O704 O 0.0075 0.5451 0.02467 0.0
C705 C 0.03027 0.55732 0.02154 0.0
O706 O 0.98988 0.52484 0.99086 0.0
O707 O 0.96257 0.50634 0.00817 0.0
O708 O 0.97934 0.46795 0.01568 0.0
O709 O 0.04056 0.53819 0.98126 0.0
O710 O 0.03283 0.50059 0.97985 0.0
O711 O 0.9828 0.47786 0.99165 0.0
C712 C 0.96486 0.48912 0.06516 0.0
C713 C 0.9867 0.49105 0.07153 0.0
C714 C 0.94666 0.47614 0.08827 0.0
C715 C 0.98871 0.48616 0.08633 0.0
C716 C 0.94472 0.48119 0.07349 0.0
C717 C 0.96886 0.47912 0.09493 0.0
C718 C 0.96338 0.49687 0.05028 0.0
C719 C 0.96853 0.51761 0.99599 0.0
H720 H -0.0017 0.50244 0.95727 0.0
H721 H 0.06838 0.53244 0.92653 0.0
H722 H 0.99053 0.49962 0.92994 0.0
H723 H 0.07596 0.53542 0.95383 0.0
H724 H 0.0024 0.49702 0.06519 0.0
H725 H 0.93115 0.47096 0.09467 0.0
H726 H 0.00594 0.48835 0.09115 0.0
H727 H 0.92775 0.47963 0.06872 0.0
Eu728 Eu 0.50226 0.47808 0.02386 0.0
Eu729 Eu 0.47787 0.48844 0.99367 0.0
C730 C 0.51298 0.53137 0.01883 0.0
C731 C 0.5137 0.47033 0.06406 0.0
C732 C 0.49958 0.48089 0.06802 0.0
C733 C 0.51554 0.4603 0.08956 0.0
C734 C 0.49351 0.4812 0.08265 0.0
C735 C 0.52163 0.46003 0.07488 0.0
C736 C 0.50141 0.4709 0.09359 0.0
C737 C 0.51902 0.46905 0.0485 0.0
O738 O 0.50919 0.48422 0.98634 0.0
O739 O 0.53274 0.49389 0.0089 0.0
C740 C 0.53032 0.49128 0.99417 0.0
O741 O 0.4882 0.44542 1.00667 0.0
O742 O 0.47068 0.51275 0.98064 0.0
O743 O 0.45774 0.47542 0.97143 0.0
O744 O 0.45597 0.44825 0.99643 0.0
C745 C 0.4663 0.43515 0.99925 0.0
O746 O 0.46427 0.46881 0.02889 0.0
O747 O 0.45429 0.48855 0.01142 0.0
O748 O 0.5093 0.5245 1.00441 0.0
O749 O 0.50072 0.45221 0.03932 0.0
O750 O 0.53035 0.48996 0.04284 0.0
O751 O 0.50576 0.51507 0.0285 0.0
C752 C 0.47192 0.50544 0.9548 0.0
C753 C 0.49487 0.50808 0.95255 0.0
C754 C 0.46794 0.5151 0.92944 0.0
C755 C 0.50398 0.51348 0.93869 0.0
C756 C 0.4587 0.50942 0.94329 0.0
C757 C 0.49039 0.5166 0.92692 0.0
C758 C 0.46115 0.49688 0.96875 0.0
C759 C 0.45038 0.47735 0.02368 0.0
H760 H 0.49307 0.48869 0.05973 0.0
H761 H 0.52206 0.45242 0.09778 0.0
H762 H 0.48231 0.48918 0.08536 0.0
H763 H 0.53242 0.45167 0.07196 0.0
H764 H 0.50539 0.50526 0.96138 0.0
H765 H 0.45704 0.51725 0.92051 0.0
H766 H 0.52142 0.51474 0.93707 0.0
H767 H 0.44095 0.50742 0.94487 0.0
Eu768 Eu 0.15563 0.31622 0.32912 0.0
Eu769 Eu 0.17555 0.35175 0.36114 0.0
C770 C 0.14856 0.36297 0.3344 0.0
C771 C 0.14546 0.29725 0.28721 0.0
C772 C 0.13558 0.31095 0.28124 0.0
C773 C 0.16384 0.29827 0.26409 0.0
C774 C 0.13992 0.31834 0.26686 0.0
C775 C 0.15931 0.29071 0.27841 0.0
C776 C 0.15441 0.31241 0.25818 0.0
C777 C 0.14288 0.29093 0.30281 0.0
O778 O 0.13491 0.32661 0.36103 0.0
O779 O 0.12924 0.29392 0.34527 0.0
C780 C 0.12195 0.30335 0.35584 0.0
O781 O 0.18083 0.30695 0.34236 0.0
O782 O 0.17166 0.37522 0.37826 0.0
O783 O 0.20161 0.36792 0.38128 0.0
O784 O 0.17392 0.31648 0.36572 0.0
C785 C 0.18147 0.30505 0.35679 0.0
O786 O 0.1875 0.35232 0.32473 0.0
O787 O 0.20836 0.36294 0.34818 0.0
O788 O 0.1675 0.37299 0.34471 0.0
O789 O 0.16332 0.29732 0.31101 0.0
O790 O 0.12791 0.29507 0.31018 0.0
O791 O 0.13822 0.3398 0.3291 0.0
C792 C 0.18178 0.36857 0.40237 0.0
C793 C 0.16621 0.3436 0.40372 0.0
C794 C 0.1828 0.3777 0.42911 0.0
C795 C 0.15905 0.3357 0.41766 0.0
C796 C 0.19 0.38559 0.41511 0.0
C797 C 0.16725 0.35263 0.43055 0.0
C798 C 0.18905 0.37658 0.38761 0.0
C799 C 0.20798 0.36448 0.33368 0.0
H800 H 0.12483 0.31633 0.28775 0.0
H801 H 0.17533 0.29362 0.25784 0.0
H802 H 0.13199 0.32882 0.26258 0.0
H803 H 0.1672 0.28023 0.28277 0.0
H804 H 0.15965 0.33018 0.39397 0.0
H805 H 0.18923 0.39124 0.43878 0.0
H806 H 0.1474 0.31625 0.41838 0.0
H807 H 0.20192 0.40495 0.41424 0.0
Eu808 Eu 0.68631 0.83901 0.32832 0.0
Eu809 Eu 0.65109 0.82636 0.35578 0.0
C810 C 0.63753 0.78762 0.32776 0.0
C811 C 0.70921 0.84498 0.28963 0.0
C812 C 0.68534 0.83267 0.28223 0.0
C813 C 0.72577 0.8525 0.26568 0.0
C814 C 0.6817 0.83043 0.26659 0.0
C815 C 0.72938 0.8547 0.2813 0.0
C816 C 0.7019 0.84055 0.25816 0.0
C817 C 0.71329 0.84897 0.30602 0.0
O818 O 0.67575 0.81054 0.36047 0.0
O819 O 0.70803 0.83606 0.348 0.0
C820 C 0.6989 0.82036 0.35795 0.0
O821 O 0.69941 0.8747 0.34252 0.0
O822 O 0.62421 0.79883 0.36838 0.0
O823 O 0.63503 0.83707 0.37349 0.0
O824 O 0.68603 0.86054 0.36497 0.0
C825 C 0.7 0.87824 0.35712 0.0
O826 O 0.65182 0.83816 0.31904 0.0
O827 O 0.6425 0.84953 0.34124 0.0
O828 O 0.62888 0.79876 0.336 0.0
O829 O 0.70685 0.86381 0.31219 0.0
O830 O 0.70663 0.82953 0.31307 0.0
O831 O 0.661 0.79803 0.3262 0.0
C832 C 0.6256 0.81275 0.39367 0.0
C833 C 0.61692 0.82384 0.40364 0.0
C834 C 0.63914 0.7983 0.41466 0.0
C835 C 0.61947 0.82235 0.41902 0.0
C836 C 0.63678 0.79999 0.39929 0.0
C837 C 0.6306 0.80954 0.42473 0.0
C838 C 0.62305 0.81496 0.37754 0.0
C839 C 0.64042 0.8472 0.32654 0.0
H840 H 0.66957 0.82521 0.28855 0.0
H841 H 0.74167 0.8602 0.25948 0.0
H842 H 0.6631 0.82136 0.26113 0.0
H843 H 0.74792 0.86429 0.28689 0.0
H844 H 0.60836 0.83388 0.39954 0.0
H845 H 0.64754 0.78806 0.41864 0.0
H846 H 0.61309 0.8316 0.42646 0.0
H847 H 0.64375 0.79134 0.39183 0.0
Eu848 Eu 0.1771 0.82756 0.35987 0.0
Eu849 Eu 0.15277 0.83789 0.32963 0.0
C850 C 0.18668 0.88075 0.35477 0.0
C851 C 0.18515 0.81429 0.39952 0.0
C852 C 0.20182 0.82233 0.41243 0.0
C853 C 0.15153 0.80085 0.41506 0.0
C854 C 0.19349 0.82003 0.4266 0.0
C855 C 0.15992 0.80334 0.40089 0.0
C856 C 0.16826 0.80954 0.42811 0.0
C857 C 0.1944 0.81981 0.38483 0.0
O858 O 0.19191 0.84988 0.32579 0.0
O859 O 0.20014 0.82722 0.34179 0.0
C860 C 0.20527 0.84038 0.33036 0.0
O861 O 0.14592 0.79148 0.34895 0.0
O862 O 0.1536 0.86339 0.3141 0.0
O863 O 0.12503 0.8252 0.31038 0.0
O864 O 0.15022 0.80133 0.32498 0.0
C865 C 0.14258 0.78483 0.33452 0.0
O866 O 0.1455 0.83097 0.36733 0.0
O867 O 0.12234 0.82213 0.34466 0.0
O868 O 0.16541 0.87039 0.34661 0.0
O869 O 0.18242 0.80288 0.37363 0.0
O870 O 0.19993 0.84151 0.38129 0.0
O871 O 0.19737 0.86816 0.35813 0.0
C872 C 0.14104 0.84566 0.28925 0.0
C873 C 0.15461 0.83473 0.2848 0.0
C874 C 0.14007 0.85781 0.26425 0.0
C875 C 0.16081 0.83526 0.27014 0.0
C876 C 0.13378 0.85716 0.27892 0.0
C877 C 0.15369 0.8469 0.25972 0.0
C878 C 0.13568 0.84627 0.30485 0.0
C879 C 0.12455 0.82427 0.35941 0.0
H880 H 0.22138 0.83117 0.41157 0.0
H881 H 0.13198 0.79245 0.41577 0.0
H882 H 0.20696 0.82737 0.43635 0.0
H883 H 0.14676 0.79729 0.39103 0.0
H884 H 0.16066 0.82606 0.29273 0.0
H885 H 0.13416 0.86671 0.25643 0.0
H886 H 0.17157 0.82699 0.26703 0.0
H887 H 0.12344 0.86583 0.28223 0.0
Eu888 Eu 0.82256 0.64576 0.66202 0.0
Eu889 Eu 0.84389 0.68235 0.69375 0.0
C890 C 0.81508 0.6915 0.66675 0.0
C891 C 0.81416 0.62793 0.62077 0.0
C892 C 0.82947 0.65283 0.6191 0.0
C893 C 0.81055 0.61823 0.59387 0.0
C894 C 0.83517 0.66041 0.60491 0.0
C895 C 0.80479 0.61065 0.60811 0.0
C896 C 0.8257 0.64323 0.59212 0.0
C897 C 0.80817 0.62028 0.63576 0.0
O898 O 0.81214 0.64712 0.699 0.0
O899 O 0.7904 0.63323 0.67572 0.0
C900 C 0.79147 0.63364 0.6904 0.0
O901 O 0.8315 0.62526 0.67847 0.0
O902 O 0.83899 0.70479 0.71105 0.0
O903 O 0.87089 0.70054 0.71341 0.0
O904 O 0.86174 0.65905 0.69312 0.0
C905 C 0.85105 0.63565 0.68828 0.0
O906 O 0.86292 0.67173 0.6612 0.0
O907 O 0.86897 0.70451 0.67708 0.0
O908 O 0.81683 0.69005 0.68122 0.0
O909 O 0.82643 0.62255 0.64472 0.0
O910 O 0.79548 0.62849 0.6424 0.0
O911 O 0.82251 0.68029 0.65757 0.0
C912 C 0.8515 0.70003 0.73502 0.0
C913 C 0.83905 0.67496 0.73691 0.0
C914 C 0.84944 0.70948 0.76129 0.0
C915 C 0.8317 0.66718 0.75084 0.0
C916 C 0.85671 0.71726 0.74728 0.0
C917 C 0.83668 0.68432 0.76318 0.0
C918 C 0.85751 0.70784 0.72005 0.0
C919 C 0.8757 0.69514 0.66617 0.0
H920 H 0.837 0.66641 0.6288 0.0
H921 H 0.80282 0.6046 0.58421 0.0
H922 H 0.84717 0.67973 0.60397 0.0
H923 H 0.79296 0.59136 0.60923 0.0
H924 H 0.83482 0.66137 0.72756 0.0
H925 H 0.85338 0.72312 0.77055 0.0
H926 H 0.82225 0.64771 0.75196 0.0
H927 H 0.86609 0.73667 0.74597 0.0
Eu928 Eu 0.3506 0.1758 0.6643 0.0
Eu929 Eu 0.31879 0.16671 0.69343 0.0
C930 C 0.3051 0.1238 0.66766 0.0
C931 C 0.37234 0.18277 0.62523 0.0
C932 C 0.34872 0.17375 0.61793 0.0
C933 C 0.38923 0.19162 0.60143 0.0
C934 C 0.34537 0.1736 0.60241 0.0
C935 C 0.39254 0.19168 0.61693 0.0
C936 C 0.36562 0.18259 0.59401 0.0
C937 C 0.37627 0.18346 0.6415 0.0
O938 O 0.35316 0.16714 0.70233 0.0
O939 O 0.36385 0.15742 0.68007 0.0
C940 C 0.36575 0.15957 0.69479 0.0
O941 O 0.37285 0.20769 0.68177 0.0
O942 O 0.28758 0.14363 0.70542 0.0
O943 O 0.31336 0.18104 0.71459 0.0
O944 O 0.34041 0.20729 0.69175 0.0
C945 C 0.36351 0.21892 0.68925 0.0
O946 O 0.32372 0.18832 0.658 0.0
O947 O 0.29535 0.16956 0.67471 0.0
O948 O 0.30951 0.12978 0.68222 0.0
O949 O 0.37491 0.20068 0.64938 0.0
O950 O 0.36509 0.16243 0.64703 0.0
O951 O 0.31496 0.14054 0.65839 0.0
C952 C 0.29402 0.15281 0.73183 0.0
C953 C 0.28559 0.16237 0.74293 0.0
C954 C 0.30473 0.13237 0.7504 0.0
C955 C 0.28706 0.15734 0.75772 0.0
C956 C 0.30346 0.13762 0.73558 0.0
C957 C 0.29691 0.14255 0.76163 0.0
C958 C 0.29423 0.16035 0.71672 0.0
C959 C 0.30215 0.18132 0.66277 0.0
H960 H 0.33295 0.16697 0.62425 0.0
H961 H 0.40512 0.19839 0.59523 0.0
H962 H 0.327 0.16679 0.59701 0.0
H963 H 0.41089 0.19872 0.62244 0.0
H964 H 0.27835 0.17419 0.74022 0.0
H965 H 0.31257 0.12107 0.75318 0.0
H966 H 0.28072 0.16522 0.76615 0.0
H967 H 0.3103 0.1303 0.72714 0.0
Eu968 Eu 0.84118 0.15254 0.69366 0.0
Eu969 Eu 0.81697 0.16223 0.66322 0.0
C970 C 0.85259 0.20563 0.68772 0.0
C971 C 0.85295 0.14662 0.73431 0.0
C972 C 0.83862 0.15704 0.73806 0.0
C973 C 0.85603 0.1384 0.76013 0.0
C974 C 0.83311 0.15823 0.75278 0.0
C975 C 0.86161 0.1373 0.74539 0.0
C976 C 0.84173 0.1489 0.76398 0.0
C977 C 0.85802 0.14469 0.71874 0.0
O978 O 0.84805 0.15755 0.65597 0.0
O979 O 0.87155 0.16706 0.67856 0.0
C980 C 0.86907 0.16423 0.66382 0.0
O981 O 0.8277 0.11961 0.6768 0.0
O982 O 0.81016 0.18651 0.64991 0.0
O983 O 0.79647 0.14887 0.64108 0.0
O984 O 0.79545 0.12202 0.66607 0.0
C985 C 0.80595 0.10914 0.66916 0.0
O986 O 0.80237 0.14162 0.69775 0.0
O987 O 0.79408 0.16349 0.68115 0.0
O988 O 0.84913 0.19813 0.67342 0.0
O989 O 0.83968 0.1275 0.70975 0.0
O990 O 0.86921 0.1653 0.71275 0.0
O991 O 0.84475 0.18972 0.69762 0.0
C992 C 0.81146 0.17843 0.62419 0.0
C993 C 0.83466 0.18134 0.62243 0.0
C994 C 0.80793 0.18668 0.59842 0.0
C995 C 0.84413 0.18616 0.60864 0.0
C996 C 0.79833 0.18156 0.61222 0.0
C997 C 0.83065 0.18843 0.59643 0.0
C998 C 0.80041 0.17041 0.63814 0.0
C999 C 0.78906 0.15099 0.69287 0.0
H1000 H 0.83156 0.16408 0.72958 0.0
H1001 H 0.8631 0.13128 0.76854 0.0
H1002 H 0.82179 0.16611 0.75535 0.0
H1003 H 0.87259 0.1291 0.74264 0.0
H1004 H 0.84512 0.17918 0.63161 0.0
H1005 H 0.79711 0.18818 0.58914 0.0
H1006 H 0.86176 0.18761 0.60742 0.0
H1007 H 0.78038 0.17934 0.6134 0.0
C1008 C 0.33428 0.9128 0.05808 0.0
C1009 C 0.32907 0.89305 0.06638 0.0
C1010 C 0.35648 0.92489 0.05171 0.0
C1011 C 0.37349 0.91652 0.05335 0.0
C1012 C 0.36817 0.89643 0.06166 0.0
C1013 C 0.34609 0.8851 0.06825 0.0
C1014 C 0.36177 0.94664 0.04326 0.0
C1015 C 0.38561 0.88667 0.06339 0.0
C1016 C 0.41983 0.93484 0.02476 0.0
C1017 C 0.44084 0.95424 0.033 0.0
C1018 C 0.39792 0.92192 0.03138 0.0
C1019 C 0.39692 0.92898 0.04646 0.0
C1020 C 0.41814 0.94847 0.05484 0.0
C1021 C 0.43988 0.96069 0.04806 0.0
C1022 C 0.37579 0.90084 0.0222 0.0
C1023 C 0.41774 0.95685 0.07087 0.0
H1024 H 0.32102 0.91888 0.0567 0.0
H1025 H 0.34182 0.86962 0.07456 0.0
H1026 H 0.37929 0.9629 0.04822 0.0
H1027 H 0.36396 0.94279 0.03143 0.0
H1028 H 0.34695 0.95128 0.04341 0.0
H1029 H 0.3785 0.87059 0.06994 0.0
H1030 H 0.38888 0.88122 0.05218 0.0
H1031 H 0.40362 0.90121 0.06907 0.0
H1032 H 0.42052 0.9297 0.01316 0.0
H1033 H 0.456 0.97581 0.05448 0.0
H1034 H 0.36084 0.90519 0.02076 0.0
H1035 H 0.36877 0.88412 0.02815 0.0
H1036 H 0.38 0.89673 0.01094 0.0
H1037 H 0.40422 0.96319 0.07133 0.0
H1038 H 0.43597 0.97203 0.07591 0.0
H1039 H 0.41182 0.94137 0.07784 0.0
C1040 C 0.11262 0.4487 0.07062 0.0
C1041 C 0.13766 0.4663 0.07337 0.0
C1042 C 0.09578 0.45432 0.06363 0.0
C1043 C 0.10417 0.47817 0.05932 0.0
C1044 C 0.12937 0.49613 0.06225 0.0
C1045 C 0.14583 0.48995 0.06919 0.0
C1046 C 0.06909 0.43461 0.0606 0.0
C1047 C 0.13898 0.52179 0.0579 0.0
C1048 C 0.06614 0.48564 0.02789 0.0
C1049 C 0.05322 0.49456 0.03579 0.0
C1050 C 0.08279 0.48029 0.03542 0.0
C1051 C 0.08672 0.48402 0.05126 0.0
C1052 C 0.07382 0.49309 0.05933 0.0
C1053 C 0.0572 0.49822 0.0515 0.0
C1054 C 0.09609 0.47052 0.02641 0.0
C1055 C 0.07757 0.49734 0.07622 0.0
H1056 H 0.10625 0.43031 0.07366 0.0
H1057 H 0.16511 0.50371 0.07146 0.0
H1058 H 0.05739 0.44095 0.0657 0.0
H1059 H 0.06348 0.43082 0.04835 0.0
H1060 H 0.06541 0.41723 0.06507 0.0
H1061 H 0.15893 0.53384 0.06142 0.0
H1062 H 0.13571 0.52118 0.04558 0.0
H1063 H 0.12896 0.53012 0.06307 0.0
H1064 H 0.06321 0.48269 0.01576 0.0
H1065 H 0.04734 0.50512 0.05772 0.0
H1066 H 0.09185 0.45229 0.0297 0.0
H1067 H 0.11622 0.4829 0.02881 0.0
H1068 H 0.09099 0.46868 0.01416 0.0
H1069 H 0.07288 0.47993 0.081 0.0
H1070 H 0.06619 0.50455 0.08083 0.0
H1071 H 0.09716 0.51055 0.08005 0.0
C1072 C 0.55476 0.66998 0.04614 0.0
C1073 C 0.57991 0.68416 0.05099 0.0
C1074 C 0.54418 0.64526 0.04057 0.0
C1075 C 0.55914 0.63447 0.03981 0.0
C1076 C 0.58461 0.64876 0.04447 0.0
C1077 C 0.5947 0.67345 0.05003 0.0
C1078 C 0.51692 0.63055 0.03577 0.0
C1079 C 0.60115 0.6379 0.04372 0.0
C1080 C 0.52775 0.56534 0.03953 0.0
C1081 C 0.5253 0.55777 0.02423 0.0
C1082 C 0.53894 0.59028 0.04477 0.0
C1083 C 0.54796 0.60806 0.03446 0.0
C1084 C 0.54582 0.60058 0.01902 0.0
C1085 C 0.53446 0.57551 0.01408 0.0
C1086 C 0.54085 0.59759 0.06132 0.0
C1087 C 0.55532 0.61905 1.00772 0.0
H1088 H 0.5432 0.67808 0.04706 0.0
H1089 H 0.6142 0.68443 0.05362 0.0
H1090 H 0.51348 0.62235 0.02399 0.0
H1091 H 0.50805 0.61523 0.0428 0.0
H1092 H 0.50799 0.64186 0.03671 0.0
H1093 H 0.62068 0.65167 0.04739 0.0
H1094 H 0.59516 0.62271 0.05093 0.0
H1095 H 0.59978 0.63002 0.0321 0.0
H1096 H 0.52072 0.55178 0.04745 0.0
H1097 H 0.53272 0.56983 1.00224 0.0
H1098 H 0.53077 0.60758 0.06317 0.0
H1099 H 0.56032 0.61023 0.06571 0.0
H1100 H 0.53328 0.58152 0.06789 0.0
H1101 H 0.54562 0.62965 1.00774 0.0
H1102 H 0.55283 0.61026 0.99617 0.0
H1103 H 0.57513 0.63233 0.01081 0.0
C1104 C 0.90311 0.31999 0.96798 0.0
C1105 C 0.87766 0.31058 0.96657 0.0
C1106 C 0.91939 0.3442 0.97415 0.0
C1107 C 0.90997 0.35936 0.97892 0.0
C1108 C 0.88429 0.34984 0.97774 0.0
C1109 C 0.86844 0.32554 0.9716 0.0
C1110 C 0.94667 0.35368 0.97535 0.0
C1111 C 0.87357 0.3655 0.98263 0.0
C1112 C 0.95004 0.4171 1.00544 0.0
C1113 C 0.95811 0.43523 0.99552 0.0
C1114 C 0.93459 0.39227 1.00018 0.0
C1115 C 0.92696 0.38545 0.98466 0.0
C1116 C 0.93515 0.40363 0.97458 0.0
C1117 C 0.95067 0.4283 0.98013 0.0
C1118 C 0.92629 0.37334 0.01124 0.0
C1119 C 0.92731 0.39706 0.95795 0.0
H1120 H 0.91028 0.30837 0.96426 0.0
H1121 H 0.8488 0.31844 0.97035 0.0
H1122 H 0.95559 0.36903 0.96834 0.0
H1123 H 0.95489 0.361 0.98709 0.0
H1124 H 0.95097 0.33925 0.9717 0.0
H1125 H 0.85318 0.35507 0.98144 0.0
H1126 H 0.88026 0.37319 0.9945 0.0
H1127 H 0.87972 0.38121 0.97582 0.0
H1128 H 0.95575 0.42229 0.01734 0.0
H1129 H 0.95679 0.44217 0.97238 0.0
H1130 H 0.93145 0.35937 0.00812 0.0
H1131 H 0.906 0.36364 0.01091 0.0
H1132 H 0.93441 0.38159 0.02289 0.0
H1133 H 0.93265 0.38382 0.95352 0.0
H1134 H 0.93557 0.41337 0.9516 0.0
H1135 H 0.90703 0.38801 0.95583 0.0
C1136 C 0.64513 0.50756 0.95215 0.0
C1137 C 0.65886 0.53146 0.9481 0.0
C1138 C 0.62376 0.50032 0.95927 0.0
C1139 C 0.61593 0.51741 0.96249 0.0
C1140 C 0.6295 0.54146 0.95825 0.0
C1141 C 0.65077 0.54817 0.95108 0.0
C1142 C 0.60969 0.47446 0.9635 0.0
C1143 C 0.6218 0.56023 0.96153 0.0
C1144 C 0.54978 0.49374 0.97037 0.0
C1145 C 0.5521 0.49715 0.98609 0.0
C1146 C 0.57035 0.50021 0.96254 0.0
C1147 C 0.59386 0.51029 0.97061 0.0
C1148 C 0.59633 0.51358 0.98647 0.0
C1149 C 0.57544 0.50697 0.99401 0.0
C1150 C 0.56694 0.49641 0.94562 0.0
C1151 C 0.62109 0.52431 0.99548 0.0
H1152 H 0.65109 0.49445 0.94969 0.0
H1153 H 0.66142 0.56674 0.94813 0.0
H1154 H 0.60931 0.47481 0.97582 0.0
H1155 H 0.59038 0.46538 0.95836 0.0
H1156 H 0.61786 0.46322 0.95987 0.0
H1157 H 0.63393 0.57792 0.95712 0.0
H1158 H 0.60268 0.55316 0.95652 0.0
H1159 H 0.62214 0.5637 0.97381 0.0
H1160 H 0.53186 0.48608 0.96411 0.0
H1161 H 0.57749 0.50975 1.00615 0.0
H1162 H 0.5737 0.48412 0.94161 0.0
H1163 H 0.57792 0.51416 0.94102 0.0
H1164 H 0.54742 0.48832 0.94103 0.0
H1165 H 0.62947 0.51288 0.99289 0.0
H1166 H 0.61989 0.52561 1.00774 0.0
H1167 H 0.63363 0.54292 0.99237 0.0
C1168 C 0.40225 0.07457 0.96863 0.0
C1169 C 0.41464 0.09999 0.96798 0.0
C1170 C 0.41449 0.06302 0.97454 0.0
C1171 C 0.43973 0.07726 0.97984 0.0
C1172 C 0.45232 0.10294 0.97927 0.0
C1173 C 0.43959 0.11401 0.97336 0.0
C1174 C 0.40044 0.0356 0.97507 0.0
C1175 C 0.47927 0.11867 0.98475 0.0
C1176 C 0.46605 0.05033 1.00694 0.0
C1177 C 0.47696 0.0411 0.99737 0.0
C1178 C 0.45403 0.06232 1.0014 0.0
C1179 C 0.45299 0.06522 0.98594 0.0
C1180 C 0.4643 0.05631 0.97626 0.0
C1181 C 0.47612 0.04431 0.98209 0.0
C1182 C 0.44212 0.07155 0.01204 0.0
C1183 C 0.46366 0.05919 0.95971 0.0
H1184 H 0.3829 0.06372 0.96462 0.0
H1185 H 0.44931 0.13363 0.97268 0.0
H1186 H 0.40887 0.02692 0.96844 0.0
H1187 H 0.4014 0.03128 0.98678 0.0
H1188 H 0.38083 0.02723 0.97062 0.0
H1189 H 0.48628 0.13842 0.98366 0.0
H1190 H 0.48251 0.11649 0.99669 0.0
H1191 H 0.49009 0.11265 0.9783 0.0
H1192 H 0.46657 0.04791 0.01875 0.0
H1193 H 0.48453 0.03727 0.97461 0.0
H1194 H 0.4221 0.06237 0.00858 0.0
H1195 H 0.44967 0.09152 0.01164 0.0
H1196 H 0.44495 0.06821 0.0238 0.0
H1197 H 0.44437 0.04955 0.9545 0.0
H1198 H 0.47387 0.05177 0.95377 0.0
H1199 H 0.4717 0.07885 0.958 0.0
C1200 C 0.65855 0.11197 0.95493 0.0
C1201 C 0.68139 0.11743 0.962 0.0
C1202 C 0.6369 0.09823 0.96161 0.0
C1203 C 0.63815 0.08958 0.97562 0.0
C1204 C 0.66115 0.09495 0.98277 0.0
C1205 C 0.68251 0.1089 0.9759 0.0
C1206 C 0.61271 0.09299 0.95369 0.0
C1207 C 0.66317 0.08576 0.99761 0.0
C1208 C 0.58509 0.07052 0.99942 0.0
C1209 C 0.57212 0.04498 0.99596 0.0
C1210 C 0.60655 0.08533 0.99281 0.0
C1211 C 0.61531 0.07428 0.9826 0.0
C1212 C 0.60238 0.04852 0.97913 0.0
C1213 C 0.58092 0.03421 0.98579 0.0
C1214 C 0.61979 0.11278 0.99668 0.0
C1215 C 0.61124 0.03604 0.96839 0.0
H1216 H 0.65768 0.11879 0.94426 0.0
H1217 H 0.70011 0.11289 0.98132 0.0
H1218 H 0.60028 0.07291 0.9512 0.0
H1219 H 0.60358 0.09995 0.96107 0.0
H1220 H 0.61496 0.10152 0.94303 0.0
H1221 H 0.68247 0.09179 1.00178 0.0
H1222 H 0.6553 0.09243 1.00614 0.0
H1223 H 0.65241 0.06543 0.99649 0.0
H1224 H 0.57836 0.079 1.0072 0.0
H1225 H 0.57108 0.01449 0.98304 0.0
H1226 H 0.62109 0.12193 0.98635 0.0
H1227 H 0.63881 0.11939 1.00169 0.0
H1228 H 0.61043 0.11853 1.00468 0.0
H1229 H 0.61213 0.04293 0.95725 0.0
H1230 H 0.59914 0.01579 0.96696 0.0
H1231 H 0.63008 0.04046 0.97249 0.0
C1232 C 0.88486 0.56574 0.95776 0.0
C1233 C 0.86237 0.54635 0.95093 0.0
C1234 C 0.90256 0.56129 0.96477 0.0
C1235 C 0.89778 0.53689 0.96474 0.0
C1236 C 0.87527 0.51728 0.95761 0.0
C1237 C 0.85774 0.52224 0.95089 0.0
C1238 C 0.92617 0.58265 0.97246 0.0
C1239 C 0.86965 0.49105 0.95716 0.0
C1240 C 0.95213 0.52729 0.97285 0.0
C1241 C 0.95047 0.52245 0.98788 0.0
C1242 C 0.93495 0.53176 0.96511 0.0
C1243 C 0.91595 0.53182 0.97266 0.0
C1244 C 0.91431 0.52711 0.98786 0.0
C1245 C 0.93146 0.52229 0.99524 0.0
C1246 C 0.93706 0.53633 0.94884 0.0
C1247 C 0.89455 0.52737 0.99636 0.0
H1248 H 0.88837 0.58438 0.9579 0.0
H1249 H 0.84047 0.50726 0.94546 0.0
H1250 H 0.9278 0.58055 0.98457 0.0
H1251 H 0.94214 0.58296 0.96777 0.0
H1252 H 0.92723 0.60053 0.97126 0.0
H1253 H 0.85179 0.47803 0.95058 0.0
H1254 H 0.88436 0.4892 0.95217 0.0
H1255 H 0.86917 0.48572 0.96872 0.0
H1256 H 0.96669 0.52727 0.96707 0.0
H1257 H 0.93016 0.51876 1.00689 0.0
H1258 H 0.93974 0.55478 0.94738 0.0
H1259 H 0.9198 0.52276 0.94192 0.0
H1260 H 0.95256 0.53512 0.9445 0.0
H1261 H 0.89569 0.54546 0.99624 0.0
H1262 H 0.89602 0.52369 0.0082 0.0
H1263 H 0.87617 0.51335 0.99085 0.0
C1264 C 0.39257 0.28906 0.97964 0.0
C1265 C 0.39499 0.28294 0.96484 0.0
C1266 C 0.40317 0.31365 0.98557 0.0
C1267 C 0.41662 0.33251 0.97651 0.0
C1268 C 0.41882 0.32643 0.9615 0.0
C1269 C 0.40793 0.30171 0.95584 0.0
C1270 C 0.40028 0.31947 1.00159 0.0
C1271 C 0.43315 0.34604 0.95153 0.0
C1272 C 0.4291 0.39708 0.98698 0.0
C1273 C 0.45334 0.40874 0.9938 0.0
C1274 C 0.41676 0.37216 0.98151 0.0
C1275 C 0.42902 0.35863 0.98282 0.0
C1276 C 0.45341 0.37022 0.9898 0.0
C1277 C 0.46526 0.39512 0.99525 0.0
C1278 C 0.39069 0.36037 0.9742 0.0
C1279 C 0.46712 0.35639 0.99133 0.0
H1280 H 0.38238 0.27458 0.98657 0.0
H1281 H 0.41015 0.29706 0.94446 0.0
H1282 H 0.41855 0.32964 0.00824 0.0
H1283 H 0.39212 0.33149 1.00204 0.0
H1284 H 0.3885 0.3027 1.00697 0.0
H1285 H 0.43251 0.33824 0.93999 0.0
H1286 H 0.42581 0.3587 0.95086 0.0
H1287 H 0.45262 0.3571 0.95637 0.0
H1288 H 0.41971 0.40744 0.98587 0.0
H1289 H 0.48399 0.40397 1.00049 0.0
H1290 H 0.37852 0.34417 0.97988 0.0
H1291 H 0.38977 0.35375 0.96234 0.0
H1292 H 0.38348 0.37322 0.97453 0.0
H1293 H 0.4568 0.34023 0.99752 0.0
H1294 H 0.48584 0.36798 0.99729 0.0
H1295 H 0.46871 0.34946 0.98007 0.0
C1296 C 0.10531 0.70213 0.04711 0.0
C1297 C 0.1267 0.70767 0.05611 0.0
C1298 C 0.08878 0.67797 0.04093 0.0
C1299 C 0.09356 0.65899 0.0442 0.0
C1300 C 0.11503 0.66456 0.05347 0.0
C1301 C 0.13151 0.68892 0.05917 0.0
C1302 C 0.06636 0.67277 0.0308 0.0
C1303 C 0.1205 0.64476 0.05747 0.0
C1304 C 0.04106 0.59312 0.04004 0.0
C1305 C 0.04558 0.58356 0.02694 0.0
C1306 C 0.0564 0.61777 0.04572 0.0
C1307 C 0.07627 0.63327 0.03788 0.0
C1308 C 0.08036 0.62387 0.02436 0.0
C1309 C 0.06514 0.59901 0.01915 0.0
C1310 C 0.05183 0.62702 0.06036 0.0
C1311 C 0.10102 0.63998 0.0155 0.0
H1312 H 0.10174 0.71677 0.04476 0.0
H1313 H 0.14799 0.69332 0.06628 0.0
H1314 H 0.06628 0.66403 0.0197 0.0
H1315 H 0.04948 0.65968 0.03558 0.0
H1316 H 0.06559 0.68966 0.02914 0.0
H1317 H 0.13759 0.65209 0.06523 0.0
H1318 H 0.10502 0.63057 0.06283 0.0
H1319 H 0.12244 0.63556 0.04718 0.0
H1320 H 0.026 0.58113 0.04611 0.0
H1321 H 0.06848 0.59168 0.00892 0.0
H1322 H 0.04959 0.64312 0.05887 0.0
H1323 H 0.06791 0.63315 0.06879 0.0
H1324 H 0.03523 0.61277 0.06488 0.0
H1325 H 0.10003 0.65656 0.01324 0.0
H1326 H 0.10056 0.63028 1.00466 0.0
H1327 H 0.11893 0.64628 0.02211 0.0
C1328 C 0.34641 0.4774 0.07055 0.0
C1329 C 0.32693 0.45344 0.0709 0.0
C1330 C 0.36699 0.4819 0.06318 0.0
C1331 C 0.36793 0.46199 0.0558 0.0
C1332 C 0.3483 0.43776 0.05613 0.0
C1333 C 0.32811 0.43377 0.06378 0.0
C1334 C 0.38774 0.50796 0.06331 0.0
C1335 C 0.34846 0.41607 0.04822 0.0
C1336 C 0.40967 0.47493 0.02475 0.0
C1337 C 0.42952 0.47398 0.03193 0.0
C1338 C 0.38949 0.47101 0.03238 0.0
C1339 C 0.38936 0.46649 0.04763 0.0
C1340 C 0.40957 0.46599 0.05501 0.0
C1341 C 0.42928 0.46951 0.04703 0.0
C1342 C 0.36814 0.47136 0.02407 0.0
C1343 C 0.41036 0.4617 0.07132 0.0
H1344 H 0.34562 0.49262 0.07617 0.0
H1345 H 0.31296 0.41525 0.06391 0.0
H1346 H 0.40518 0.50962 0.06814 0.0
H1347 H 0.39021 0.51299 0.05168 0.0
H1348 H 0.38446 0.52131 0.06989 0.0
H1349 H 0.3317 0.39842 0.04948 0.0
H1350 H 0.34983 0.41822 0.03611 0.0
H1351 H 0.36475 0.41522 0.05274 0.0
H1352 H 0.40968 0.47825 0.01307 0.0
H1353 H 0.44465 0.46897 0.05269 0.0
H1354 H 0.36515 0.48561 0.02972 0.0
H1355 H 0.3511 0.45346 0.02423 0.0
H1356 H 0.37105 0.47506 0.01223 0.0
H1357 H 0.40806 0.47542 0.07824 0.0
H1358 H 0.42786 0.46283 0.07556 0.0
H1359 H 0.39495 0.44333 0.07292 0.0
C1360 C 0.59392 0.90136 0.04987 0.0
C1361 C 0.57887 0.87969 0.0561 0.0
C1362 C 0.58447 0.9157 0.04444 0.0
C1363 C 0.55953 0.90838 0.0456 0.0
C1364 C 0.54434 0.8866 0.05203 0.0
C1365 C 0.55415 0.87236 0.05708 0.0
C1366 C 0.6011 0.93857 0.03739 0.0
C1367 C 0.5178 0.87848 0.05373 0.0
C1368 C 0.54199 0.95767 0.04436 0.0
C1369 C 0.53058 0.95279 0.02969 0.0
C1370 C 0.55117 0.94311 0.04976 0.0
C1371 C 0.54936 0.92358 0.04014 0.0
C1372 C 0.53792 0.91862 0.0253 0.0
C1373 C 0.5284 0.93314 0.0203 0.0
C1374 C 0.56277 0.94861 0.06576 0.0
C1375 C 0.53606 0.89822 0.01464 0.0
H1376 H 0.61301 0.90688 0.04904 0.0
H1377 H 0.54262 0.85568 0.06204 0.0
H1378 H 0.59321 0.93751 0.02581 0.0
H1379 H 0.60253 0.95488 0.0438 0.0
H1380 H 0.61986 0.94135 0.03701 0.0
H1381 H 0.50859 0.86128 0.05921 0.0
H1382 H 0.5166 0.89305 0.0605 0.0
H1383 H 0.50759 0.87549 0.04259 0.0
H1384 H 0.54351 0.97274 0.05168 0.0
H1385 H 0.51976 0.92945 0.00891 0.0
H1386 H 0.58226 0.95345 0.06597 0.0
H1387 H 0.55331 0.93208 0.07179 0.0
H1388 H 0.56199 0.96394 0.07193 0.0
H1389 H 0.55468 0.9012 0.01332 0.0
H1390 H 0.52687 0.89696 1.0034 0.0
H1391 H 0.52564 0.88039 0.01927 0.0
C1392 C 0.98821 0.22394 0.38243 0.0
C1393 C 0.98972 0.21713 0.39684 0.0
C1394 C 0.00938 0.23715 0.37522 0.0
C1395 C 0.03258 0.24354 0.38258 0.0
C1396 C 0.0342 0.23647 0.39706 0.0
C1397 C 0.01275 0.22343 0.40405 0.0
C1398 C 0.00696 0.24467 0.35987 0.0
C1399 C 0.05862 0.24285 0.40523 0.0
C1400 C 0.08635 0.26214 0.35938 0.0
C1401 C 0.09874 0.28776 0.36227 0.0
C1402 C 0.06476 0.24744 0.36593 0.0
C1403 C 0.05529 0.25868 0.37544 0.0
C1404 C 0.06757 0.28452 0.37824 0.0
C1405 C 0.08916 0.29871 0.37168 0.0
C1406 C 0.05223 0.2199 0.3628 0.0
C1407 C 0.05795 0.29722 0.38821 0.0
H1408 H 0.97046 0.21928 0.37688 0.0
H1409 H 0.01394 0.2179 0.4151 0.0
H1410 H 0.017 0.26497 0.36032 0.0
H1411 H 0.01539 0.23784 0.35184 0.0
H1412 H 0.98752 0.23761 0.3555 0.0
H1413 H 0.05661 0.23506 0.41615 0.0
H1414 H 0.06818 0.23592 0.39822 0.0
H1415 H 0.07054 0.26305 0.4073 0.0
H1416 H 0.09369 0.25354 0.35218 0.0
H1417 H 0.09852 0.31851 0.37395 0.0
H1418 H 0.03308 0.21246 0.35774 0.0
H1419 H 0.05132 0.21165 0.37346 0.0
H1420 H 0.0619 0.21401 0.35513 0.0
H1421 H 0.03889 0.29179 0.38389 0.0
H1422 H 0.0694 0.31751 0.38899 0.0
H1423 H 0.05738 0.29148 0.39967 0.0
C1424 C 0.78993 0.7958 0.41091 0.0
C1425 C 0.79642 0.78044 0.40298 0.0
C1426 C 0.77337 0.80204 0.40419 0.0
C1427 C 0.7629 0.79249 0.38923 0.0
C1428 C 0.76901 0.77657 0.38127 0.0
C1429 C 0.7858 0.77085 0.38822 0.0
C1430 C 0.76753 0.81929 0.41297 0.0
C1431 C 0.75802 0.76581 0.36536 0.0
C1432 C 0.70541 0.79341 0.37481 0.0
C1433 C 0.71517 0.81354 0.36638 0.0
C1434 C 0.72072 0.78639 0.38239 0.0
C1435 C 0.74639 0.79998 0.38164 0.0
C1436 C 0.75636 0.82058 0.3734 0.0
C1437 C 0.74064 0.82703 0.36582 0.0
C1438 C 0.70942 0.7642 0.39099 0.0
C1439 C 0.78367 0.83574 0.37248 0.0
H1440 H 0.79827 0.80342 0.42228 0.0
H1441 H 0.79055 0.75872 0.38213 0.0
H1442 H 0.77366 0.83625 0.40736 0.0
H1443 H 0.74742 0.81073 0.41329 0.0
H1444 H 0.77656 0.82443 0.42466 0.0
H1445 H 0.76379 0.75285 0.36098 0.0
H1446 H 0.73769 0.756 0.3647 0.0
H1447 H 0.76366 0.78073 0.35795 0.0
H1448 H 0.68575 0.78286 0.37529 0.0
H1449 H 0.74838 0.84274 0.35944 0.0
H1450 H 0.71756 0.76932 0.40284 0.0
H1451 H 0.71349 0.75016 0.38622 0.0
H1452 H 0.68919 0.75587 0.39069 0.0
H1453 H 0.79358 0.84257 0.38391 0.0
H1454 H 0.78855 0.85169 0.36601 0.0
H1455 H 0.79031 0.8242 0.36707 0.0
C1456 C 0.26634 0.02552 0.37868 0.0
C1457 C 0.25315 0.03288 0.38746 0.0
C1458 C 0.25621 0.00088 0.37296 0.0
C1459 C 0.23266 0.98329 0.37648 0.0
C1460 C 0.21948 0.99068 0.38558 0.0
C1461 C 0.2298 0.01549 0.39082 0.0
C1462 C 0.27053 0.99373 0.36303 0.0
C1463 C 0.19457 0.97237 0.38984 0.0
C1464 C 0.19428 0.92291 0.35211 0.0
C1465 C 0.19887 0.90703 0.36014 0.0
C1466 C 0.20574 0.94796 0.35709 0.0
C1467 C 0.22162 0.95713 0.37061 0.0
C1468 C 0.22628 0.94114 0.37877 0.0
C1469 C 0.21507 0.91629 0.37332 0.0
C1470 C 0.20078 0.96458 0.34791 0.0
C1471 C 0.24264 0.95016 0.39342 0.0
H1472 H 0.28438 0.03913 0.37609 0.0
H1473 H 0.21978 0.02131 0.39774 0.0
H1474 H 0.27403 0.98004 0.3681 0.0
H1475 H 0.25963 0.98499 0.352 0.0
H1476 H 0.2884 0.00972 0.36116 0.0
H1477 H 0.18715 0.98104 0.39743 0.0
H1478 H 0.18137 0.96334 0.37964 0.0
H1479 H 0.19575 0.9578 0.39549 0.0
H1480 H 0.18194 0.91579 0.34182 0.0
H1481 H 0.21851 0.90396 0.37958 0.0
H1482 H 0.21834 0.98018 0.3453 0.0
H1483 H 0.19146 0.97238 0.35444 0.0
H1484 H 0.18909 0.95482 0.33723 0.0
H1485 H 0.2612 0.96517 0.39175 0.0
H1486 H 0.24448 0.93537 0.39835 0.0
H1487 H 0.23508 0.9578 0.4016 0.0
C1488 C 0.53278 0.65035 0.30219 0.0
C1489 C 0.53375 0.64192 0.28756 0.0
C1490 C 0.55029 0.674 0.30868 0.0
C1491 C 0.56869 0.69005 0.30016 0.0
C1492 C 0.56962 0.68195 0.28534 0.0
C1493 C 0.55248 0.65787 0.27934 0.0
C1494 C 0.54908 0.68179 0.32467 0.0
C1495 C 0.58859 0.69878 0.27577 0.0
C1496 C 0.5978 0.75785 0.31311 0.0
C1497 C 0.6205 0.76304 0.32017 0.0
C1498 C 0.58106 0.73431 0.30611 0.0
C1499 C 0.58686 0.7154 0.30675 0.0
C1500 C 0.60979 0.72061 0.31397 0.0
C1501 C 0.62658 0.74457 0.32035 0.0
C1502 C 0.55719 0.7297 0.29805 0.0
C1503 C 0.61629 0.70075 0.31532 0.0
H1504 H 0.5182 0.63859 0.30861 0.0
H1505 H 0.55395 0.65159 0.26819 0.0
H1506 H 0.56703 0.68853 0.33137 0.0
H1507 H 0.54528 0.69715 0.325 0.0
H1508 H 0.53462 0.6666 0.33008 0.0
H1509 H 0.58609 0.69002 0.26421 0.0
H1510 H 0.58759 0.71574 0.27511 0.0
H1511 H 0.60728 0.70434 0.28093 0.0
H1512 H 0.5933 0.77231 0.3129 0.0
H1513 H 0.64412 0.74867 0.32596 0.0
H1514 H 0.54154 0.71649 0.30373 0.0
H1515 H 0.55483 0.72139 0.2864 0.0
H1516 H 0.55629 0.74678 0.29768 0.0
H1517 H 0.60253 0.68604 0.32135 0.0
H1518 H 0.63478 0.70782 0.32141 0.0
H1519 H 0.61578 0.69228 0.30404 0.0
C1520 C 0.30964 0.8542 0.27857 0.0
C1521 C 0.33301 0.87115 0.28574 0.0
C1522 C 0.28841 0.84838 0.28558 0.0
C1523 C 0.29061 0.86007 0.3 0.0
C1524 C 0.31417 0.87737 0.30722 0.0
C1525 C 0.33508 0.88257 0.30004 0.0
C1526 C 0.26364 0.82962 0.2776 0.0
C1527 C 0.31728 0.89054 0.32248 0.0
C1528 C 0.23571 0.86311 0.31249 0.0
C1529 C 0.22687 0.84504 0.32246 0.0
C1530 C 0.25635 0.8681 0.30508 0.0
C1531 C 0.2683 0.85449 0.30751 0.0
C1532 C 0.25927 0.83597 0.31736 0.0
C1533 C 0.23876 0.83158 0.3248 0.0
C1534 C 0.26558 0.8882 0.29479 0.0
C1535 C 0.27132 0.82085 0.32008 0.0
H1536 H 0.30802 0.84519 0.26756 0.0
H1537 H 0.35311 0.89589 0.30554 0.0
H1538 H 0.25405 0.8144 0.28461 0.0
H1539 H 0.25203 0.83806 0.27586 0.0
H1540 H 0.2651 0.82186 0.26655 0.0
H1541 H 0.33686 0.90361 0.32651 0.0
H1542 H 0.30724 0.9008 0.3221 0.0
H1543 H 0.30927 0.87706 0.33075 0.0
H1544 H 0.2267 0.87367 0.31063 0.0
H1545 H 0.23196 0.81747 0.33239 0.0
H1546 H 0.26582 0.88069 0.28337 0.0
H1547 H 0.28472 0.9025 0.29888 0.0
H1548 H 0.2541 0.89697 0.29403 0.0
H1549 H 0.27194 0.81179 0.30929 0.0
H1550 H 0.26154 0.80655 0.32765 0.0
H1551 H 0.29056 0.83291 0.32512 0.0
C1552 C 0.07894 0.43588 0.31479 0.0
C1553 C 0.08346 0.44435 0.30064 0.0
C1554 C 0.09025 0.42351 0.32077 0.0
C1555 C 0.10661 0.41976 0.31243 0.0
C1556 C 0.11163 0.42873 0.29827 0.0
C1557 C 0.0999 0.44085 0.29252 0.0
C1558 C 0.08428 0.41395 0.33584 0.0
C1559 C 0.12913 0.42525 0.28912 0.0
C1560 C 0.15023 0.40319 0.33259 0.0
C1561 C 0.13813 0.37775 0.32877 0.0
C1562 C 0.14022 0.41718 0.32733 0.0
C1563 C 0.11753 0.40537 0.31815 0.0
C1564 C 0.10522 0.37971 0.3143 0.0
C1565 C 0.11572 0.36623 0.3196 0.0
C1566 C 0.15394 0.44457 0.33153 0.0
C1567 C 0.08091 0.36644 0.30461 0.0
H1568 H 0.06611 0.43845 0.32104 0.0
H1569 H 0.1037 0.44773 0.28167 0.0
H1570 H 0.07531 0.39366 0.33453 0.0
H1571 H 0.10138 0.42106 0.34351 0.0
H1572 H 0.07189 0.41921 0.34114 0.0
H1573 H 0.13194 0.43438 0.27865 0.0
H1574 H 0.1472 0.4327 0.29581 0.0
H1575 H 0.12195 0.40541 0.28608 0.0
H1576 H 0.16758 0.41223 0.33963 0.0
H1577 H 0.10617 0.34656 0.31663 0.0
H1578 H 0.14234 0.45001 0.3376 0.0
H1579 H 0.15809 0.45419 0.32126 0.0
H1580 H 0.17143 0.45096 0.3387 0.0
H1581 H 0.06722 0.36973 0.30987 0.0
H1582 H 0.07356 0.34635 0.30282 0.0
H1583 H 0.08298 0.37366 0.29353 0.0
C1584 C 0.32311 0.42284 0.2866 0.0
C1585 C 0.3402 0.44732 0.29195 0.0
C1586 C 0.30205 0.40904 0.29381 0.0
C1587 C 0.29748 0.42018 0.30637 0.0
C1588 C 0.31452 0.44482 0.31183 0.0
C1589 C 0.33585 0.4579 0.30476 0.0
C1590 C 0.28458 0.38259 0.28788 0.0
C1591 C 0.31003 0.45752 0.32501 0.0
C1592 C 0.23113 0.39184 0.3147 0.0
C1593 C 0.23105 0.37953 0.32715 0.0
C1594 C 0.25276 0.40558 0.30803 0.0
C1595 C 0.27459 0.40624 0.31362 0.0
C1596 C 0.27452 0.39361 0.32613 0.0
C1597 C 0.2528 0.38073 0.33291 0.0
C1598 C 0.25227 0.41943 0.29502 0.0
C1599 C 0.2972 0.39323 0.33211 0.0
H1600 H 0.32589 0.41445 0.27662 0.0
H1601 H 0.34911 0.47651 0.30932 0.0
H1602 H 0.28112 0.37066 0.29706 0.0
H1603 H 0.26667 0.38032 0.28351 0.0
H1604 H 0.29173 0.37611 0.27876 0.0
H1605 H 0.32479 0.47697 0.32763 0.0
H1606 H 0.29227 0.45694 0.32262 0.0
H1607 H 0.30873 0.44784 0.33509 0.0
H1608 H 0.21428 0.39097 0.3103 0.0
H1609 H 0.25262 0.37091 0.34243 0.0
H1610 H 0.25672 0.41228 0.28485 0.0
H1611 H 0.26643 0.43911 0.29751 0.0
H1612 H 0.2341 0.41797 0.29251 0.0
H1613 H 0.30349 0.38558 0.32309 0.0
H1614 H 0.29394 0.3821 0.34171 0.0
H1615 H 0.31233 0.41215 0.33577 0.0
C1616 C 0.52901 0.86373 0.29714 0.0
C1617 C 0.53327 0.87735 0.28476 0.0
C1618 C 0.54654 0.85832 0.3033 0.0
C1619 C 0.56932 0.86745 0.2973 0.0
C1620 C 0.57391 0.88133 0.28492 0.0
C1621 C 0.5557 0.88573 0.27864 0.0
C1622 C 0.54073 0.84296 0.3163 0.0
C1623 C 0.5982 0.89186 0.27843 0.0
C1624 C 0.6217 0.87352 0.32383 0.0
C1625 C 0.62349 0.85329 0.31843 0.0
C1626 C 0.60472 0.87883 0.31672 0.0
C1627 C 0.58855 0.86296 0.30426 0.0
C1628 C 0.59033 0.84247 0.29876 0.0
C1629 C 0.60812 0.83812 0.30577 0.0
C1630 C 0.60393 0.90129 0.32263 0.0
C1631 C 0.57291 0.82469 0.28582 0.0
H1632 H 0.51207 0.85751 0.30222 0.0
H1633 H 0.55914 0.89572 0.26888 0.0
H1634 H 0.5437 0.82727 0.31378 0.0
H1635 H 0.55327 0.85408 0.32643 0.0
H1636 H 0.52152 0.83572 0.31892 0.0
H1637 H 0.5991 0.90277 0.26901 0.0
H1638 H 0.61337 0.90381 0.28727 0.0
H1639 H 0.60142 0.87689 0.27434 0.0
H1640 H 0.63372 0.88528 0.3336 0.0
H1641 H 0.60934 0.82228 0.30173 0.0
H1642 H 0.58611 0.89572 0.32707 0.0
H1643 H 0.60542 0.91272 0.31342 0.0
H1644 H 0.61893 0.91267 0.3317 0.0
H1645 H 0.55375 0.81641 0.28871 0.0
H1646 H 0.57681 0.80972 0.28287 0.0
H1647 H 0.57406 0.83445 0.27579 0.0
C1648 C 0.09811 0.64558 0.30735 0.0
C1649 C 0.07317 0.63204 0.30188 0.0
C1650 C 0.10909 0.67037 0.31284 0.0
C1651 C 0.09474 0.68187 0.3129 0.0
C1652 C 0.06949 0.66826 0.30754 0.0
C1653 C 0.05901 0.64348 0.30203 0.0
C1654 C 0.13612 0.68435 0.31837 0.0
C1655 C 0.05361 0.6799 0.30755 0.0
C1656 C 0.11943 0.74057 0.33887 0.0
C1657 C 0.12998 0.75849 0.32895 0.0
C1658 C 0.10755 0.71553 0.33375 0.0
C1659 C 0.10634 0.70827 0.31838 0.0
C1660 C 0.11682 0.72625 0.3083 0.0
C1661 C 0.12846 0.75115 0.3137 0.0
C1662 C 0.09648 0.69685 0.34481 0.0
C1663 C 0.116 0.71918 0.29184 0.0
H1664 H 0.10921 0.6369 0.30703 0.0
H1665 H 0.03967 0.633 0.29793 0.0
H1666 H 0.14596 0.69983 0.31159 0.0
H1667 H 0.13888 0.69229 0.33015 0.0
H1668 H 0.14458 0.67259 0.31776 0.0
H1669 H 0.03418 0.66665 0.30327 0.0
H1670 H 0.05419 0.68763 0.31908 0.0
H1671 H 0.06079 0.69532 0.30048 0.0
H1672 H 0.12042 0.74608 0.35066 0.0
H1673 H 0.13657 0.76488 0.30597 0.0
H1674 H 0.10557 0.6857 0.34521 0.0
H1675 H 0.07672 0.68411 0.34116 0.0
H1676 H 0.09831 0.70551 0.3563 0.0
H1677 H 0.12565 0.70867 0.29041 0.0
H1678 H 0.12463 0.73539 0.28544 0.0
H1679 H 0.0967 0.70708 0.28692 0.0
C1680 C 0.77876 0.01934 0.38886 0.0
C1681 C 0.79766 0.02381 0.39982 0.0
C1682 C 0.76228 0.99546 0.38225 0.0
C1683 C 0.76523 0.97577 0.38649 0.0
C1684 C 0.78441 0.98026 0.39753 0.0
C1685 C 0.80026 0.00425 0.40419 0.0
C1686 C 0.74174 0.99128 0.37074 0.0
C1687 C 0.78845 0.95982 0.40209 0.0
C1688 C 0.71165 0.91061 0.37838 0.0
C1689 C 0.71684 0.90294 0.36483 0.0
C1690 C 0.72715 0.93437 0.38552 0.0
C1691 C 0.7486 0.95055 0.37911 0.0
C1692 C 0.75415 0.9427 0.36558 0.0
C1693 C 0.73803 0.91907 0.35851 0.0
C1694 C 0.72041 0.9423 0.39978 0.0
C1695 C 0.77713 0.95925 0.35859 0.0
H1696 H 0.77672 0.03453 0.3856 0.0
H1697 H 0.81505 0.00784 0.41261 0.0
H1698 H 0.74381 0.98383 0.35979 0.0
H1699 H 0.7238 0.97751 0.37416 0.0
H1700 H 0.74135 0.0084 0.36919 0.0
H1701 H 0.80425 0.96642 0.41083 0.0
H1702 H 0.77176 0.94548 0.40645 0.0
H1703 H 0.79182 0.95101 0.39218 0.0
H1704 H 0.69517 0.89821 0.38323 0.0
H1705 H 0.7422 0.9131 0.34809 0.0
H1706 H 0.71853 0.9586 0.39825 0.0
H1707 H 0.7352 0.94772 0.40902 0.0
H1708 H 0.70294 0.92758 0.40321 0.0
H1709 H 0.77683 0.97589 0.35563 0.0
H1710 H 0.77918 0.95004 0.34832 0.0
H1711 H 0.79354 0.9654 0.36675 0.0
C1712 C 0.00245 0.76844 0.401 0.0
C1713 C 0.99564 0.78598 0.40461 0.0
C1714 C 0.02376 0.77467 0.39399 0.0
C1715 C 0.03871 0.79906 0.39062 0.0
C1716 C 0.03217 0.81695 0.39451 0.0
C1717 C 0.01068 0.81018 0.40141 0.0
C1718 C 0.03003 0.75504 0.38993 0.0
C1719 C 0.04777 0.84321 0.39125 0.0
C1720 C 0.10453 0.82006 0.38312 0.0
C1721 C 0.10269 0.81836 0.3674 0.0
C1722 C 0.0839 0.81388 0.39084 0.0
C1723 C 0.06082 0.80574 0.38265 0.0
C1724 C 0.05883 0.80401 0.36679 0.0
C1725 C 0.07977 0.81037 0.35936 0.0
C1726 C 0.0868 0.816 0.40776 0.0
C1727 C 0.03451 0.79529 0.35765 0.0
H1728 H 0.99077 0.74967 0.40332 0.0
H1729 H 0.00567 0.82388 0.40436 0.0
H1730 H 0.03001 0.7526 0.3776 0.0
H1731 H 0.04876 0.76066 0.39504 0.0
H1732 H 0.01687 0.73711 0.39368 0.0
H1733 H 0.04055 0.85505 0.3954 0.0
H1734 H 0.06684 0.85086 0.39654 0.0
H1735 H 0.04862 0.84398 0.379 0.0
H1736 H 0.12211 0.82613 0.38947 0.0
H1737 H 0.0781 0.8089 0.34723 0.0
H1738 H 0.07486 0.79788 0.41169 0.0
H1739 H 0.08088 0.8287 0.41233 0.0
H1740 H 0.10604 0.82277 0.41246 0.0
H1741 H 0.02095 0.77661 0.36018 0.0
H1742 H 0.03602 0.79484 0.34541 0.0
H1743 H 0.02718 0.8075 0.3607 0.0
C1744 C 0.26008 0.25008 0.39259 0.0
C1745 C 0.24612 0.2246 0.39276 0.0
C1746 C 0.24938 0.2633 0.38708 0.0
C1747 C 0.22414 0.2507 0.38168 0.0
C1748 C 0.20989 0.22503 0.38202 0.0
C1749 C 0.22107 0.21228 0.38754 0.0
C1750 C 0.26516 0.29067 0.38681 0.0
C1751 C 0.18288 0.21102 0.37644 0.0
C1752 C 0.19181 0.28756 0.37846 0.0
C1753 C 0.1917 0.29055 0.36313 0.0
C1754 C 0.20219 0.2745 0.38466 0.0
C1755 C 0.21276 0.26429 0.3753 0.0
C1756 C 0.21256 0.2671 0.35981 0.0
C1757 C 0.20198 0.28015 0.3539 0.0
C1758 C 0.20199 0.27175 0.40122 0.0
C1759 C 0.22371 0.25648 0.3495 0.0
H1760 H 0.27949 0.25962 0.3965 0.0
H1761 H 0.21015 0.19262 0.38788 0.0
H1762 H 0.26548 0.29532 0.37509 0.0
H1763 H 0.25727 0.30029 0.39309 0.0
H1764 H 0.28434 0.29777 0.39176 0.0
H1765 H 0.17428 0.19117 0.37782 0.0
H1766 H 0.17305 0.21865 0.38257 0.0
H1767 H 0.18029 0.21305 0.3644 0.0
H1768 H 0.18388 0.29552 0.38567 0.0
H1769 H 0.20202 0.2824 0.34205 0.0
H1770 H 0.22108 0.28013 0.40664 0.0
H1771 H 0.19246 0.25204 0.403 0.0
H1772 H 0.19273 0.28051 0.40691 0.0
H1773 H 0.24346 0.26428 0.35332 0.0
H1774 H 0.22196 0.26022 0.3377 0.0
H1775 H 0.21467 0.23635 0.34984 0.0
C1776 C 0.66269 0.57716 0.72341 0.0
C1777 C 0.65813 0.55781 0.73193 0.0
C1778 C 0.68471 0.58943 0.71686 0.0
C1779 C 0.70215 0.58163 0.71856 0.0
C1780 C 0.69747 0.56191 0.7271 0.0
C1781 C 0.67557 0.55041 0.73385 0.0
C1782 C 0.68933 0.61077 0.70817 0.0
C1783 C 0.71539 0.55275 0.7289 0.0
C1784 C 0.74787 0.59971 0.68963 0.0
C1785 C 0.76885 0.61949 0.69764 0.0
C1786 C 0.72617 0.58677 0.69643 0.0
C1787 C 0.72535 0.59422 0.71147 0.0
C1788 C 0.74653 0.61412 0.71962 0.0
C1789 C 0.76808 0.62635 0.71264 0.0
C1790 C 0.70409 0.56524 0.68752 0.0
C1791 C 0.7463 0.62291 0.73558 0.0
H1792 H 0.64908 0.58279 0.72199 0.0
H1793 H 0.67178 0.53524 0.74035 0.0
H1794 H 0.70675 0.62734 0.71293 0.0
H1795 H 0.69137 0.60669 0.69635 0.0
H1796 H 0.67424 0.61502 0.70832 0.0
H1797 H 0.70874 0.53691 0.73564 0.0
H1798 H 0.71861 0.54714 0.71772 0.0
H1799 H 0.73334 0.56766 0.73441 0.0
H1800 H 0.74844 0.59425 0.67806 0.0
H1801 H 0.78419 0.64178 0.71887 0.0
H1802 H 0.68885 0.56917 0.6861 0.0
H1803 H 0.69755 0.54875 0.69366 0.0
H1804 H 0.70816 0.56094 0.67626 0.0
H1805 H 0.73248 0.62885 0.73601 0.0
H1806 H 0.76446 0.63846 0.74041 0.0
H1807 H 0.74089 0.60774 0.74276 0.0
C1808 C 0.4749 0.14792 0.73576 0.0
C1809 C 0.46697 0.12441 0.7401 0.0
C1810 C 0.4582 0.15393 0.729 0.0
C1811 C 0.43297 0.13595 0.72644 0.0
C1812 C 0.4248 0.11227 0.73098 0.0
C1813 C 0.44189 0.1068 0.73778 0.0
C1814 C 0.46759 0.17943 0.72441 0.0
C1815 C 0.39808 0.09255 0.72834 0.0
C1816 C 0.38662 0.15685 0.71872 0.0
C1817 C 0.38259 0.15319 0.70301 0.0
C1818 C 0.40288 0.15122 0.72652 0.0
C1819 C 0.41532 0.14162 0.71843 0.0
C1820 C 0.41114 0.13766 0.70261 0.0
C1821 C 0.39489 0.14353 0.69509 0.0
C1822 C 0.40693 0.15574 0.74341 0.0
C1823 C 0.42394 0.12732 0.69358 0.0
H1824 H 0.49421 0.1617 0.73772 0.0
H1825 H 0.4357 0.08852 0.74098 0.0
H1826 H 0.46402 0.17849 0.71208 0.0
H1827 H 0.45769 0.18788 0.72958 0.0
H1828 H 0.4876 0.19157 0.72772 0.0
H1829 H 0.39456 0.07539 0.73307 0.0
H1830 H 0.38656 0.09912 0.73345 0.0
H1831 H 0.39208 0.08828 0.71614 0.0
H1832 H 0.37721 0.16428 0.72494 0.0
H1833 H 0.39187 0.14053 0.68297 0.0
H1834 H 0.42655 0.16906 0.74708 0.0
H1835 H 0.40244 0.13846 0.74829 0.0
H1836 H 0.39559 0.16297 0.74805 0.0
H1837 H 0.44411 0.13969 0.69562 0.0
H1838 H 0.41833 0.12491 0.68135 0.0
H1839 H 0.41984 0.10929 0.69717 0.0
C1840 C 0.8957 0.34552 0.71175 0.0
C1841 C 0.92078 0.35961 0.71681 0.0
C1842 C 0.88498 0.32058 0.70666 0.0
C1843 C 0.89972 0.3095 0.70661 0.0
C1844 C 0.92514 0.32373 0.71142 0.0
C1845 C 0.93538 0.34864 0.71649 0.0
C1846 C 0.85778 0.30597 0.70166 0.0
C1847 C 0.94145 0.31256 0.71141 0.0
C1848 C 0.86745 0.24058 0.70777 0.0
C1849 C 0.86522 0.23221 0.69264 0.0
C1850 C 0.87887 0.26573 0.71249 0.0
C1851 C 0.88835 0.28288 0.70184 0.0
C1852 C 0.88646 0.27457 0.68659 0.0
C1853 C 0.87487 0.24932 0.68216 0.0
C1854 C 0.88051 0.27395 0.72886 0.0
C1855 C 0.89644 0.29234 0.67492 0.0
H1856 H 0.88428 0.35383 0.71218 0.0
H1857 H 0.95482 0.35954 0.72025 0.0
H1858 H 0.85451 0.29707 0.69008 0.0
H1859 H 0.84857 0.29116 0.70899 0.0
H1860 H 0.84905 0.31751 0.70197 0.0
H1861 H 0.96099 0.32631 0.71505 0.0
H1862 H 0.93519 0.29788 0.71902 0.0
H1863 H 0.94016 0.30394 0.70002 0.0
H1864 H 0.86005 0.22749 0.71593 0.0
H1865 H 0.87331 0.24302 0.67045 0.0
H1866 H 0.87058 0.2842 0.73016 0.0
H1867 H 0.89996 0.2866 0.73331 0.0
H1868 H 0.87264 0.2583 0.73576 0.0
H1869 H 0.88692 0.30309 0.67436 0.0
H1870 H 0.89413 0.28292 0.6636 0.0
H1871 H 0.91624 0.30556 0.67808 0.0
C1872 C 0.19795 0.98976 0.63588 0.0
C1873 C 0.20671 0.97448 0.63068 0.0
C1874 C 0.21414 0.0138 0.64233 0.0
C1875 C 0.23972 0.02274 0.64368 0.0
C1876 C 0.24869 0.00728 0.63868 0.0
C1877 C 0.23206 0.98334 0.63218 0.0
C1878 C 0.20389 0.0298 0.64742 0.0
C1879 C 0.27585 0.01614 0.64004 0.0
C1880 C 0.28177 0.09166 0.64609 0.0
C1881 C 0.28877 0.09786 0.66156 0.0
C1882 C 0.26599 0.06725 0.64013 0.0
C1883 C 0.25709 0.04855 0.64985 0.0
C1884 C 0.2643 0.05462 0.66545 0.0
C1885 C 0.28 0.07923 0.67113 0.0
C1886 C 0.25858 0.0615 0.62343 0.0
C1887 C 0.25527 0.03514 0.67614 0.0
H1888 H 0.17839 0.9831 0.63456 0.0
H1889 H 0.23888 0.97148 0.62832 0.0
H1890 H 0.2103 0.03685 0.6594 0.0
H1891 H 0.21071 0.04592 0.64094 0.0
H1892 H 0.1835 0.01983 0.64599 0.0
H1893 H 0.27977 0.00155 0.63613 0.0
H1894 H 0.2853 0.03182 0.63335 0.0
H1895 H 0.28384 0.0228 0.65187 0.0
H1896 H 0.28842 0.10592 0.6386 0.0
H1897 H 0.28539 0.08384 0.68309 0.0
H1898 H 0.23837 0.05293 0.62112 0.0
H1899 H 0.26362 0.04812 0.61882 0.0
H1900 H 0.26741 0.07812 0.61738 0.0
H1901 H 0.23497 0.02581 0.67564 0.0
H1902 H 0.26319 0.04279 0.6879 0.0
H1903 H 0.26006 0.02097 0.6728 0.0
C1904 C 0.98871 0.2182 0.62011 0.0
C1905 C 0.99653 0.20123 0.61726 0.0
C1906 C 0.96768 0.21195 0.62744 0.0
C1907 C 0.95407 0.18812 0.63198 0.0
C1908 C 0.96165 0.17079 0.62894 0.0
C1909 C 0.98279 0.17756 0.62164 0.0
C1910 C 0.96025 0.23098 0.63053 0.0
C1911 C 0.94752 0.14514 0.63348 0.0
C1912 C 0.91404 0.17916 0.6636 0.0
C1913 C 0.89068 0.16945 0.65573 0.0
C1914 C 0.93479 0.18523 0.65601 0.0
C1915 C 0.93214 0.18146 0.64016 0.0
C1916 C 0.9086 0.17144 0.63215 0.0
C1917 C 0.88818 0.16554 0.64002 0.0
C1918 C 0.9596 0.19595 0.66496 0.0
C1919 C 0.90499 0.16711 0.61524 0.0
H1920 H -0.00062 0.2366 0.6169 0.0
H1921 H 0.98853 0.16425 0.61929 0.0
H1922 H 0.94114 0.22399 0.62553 0.0
H1923 H 0.96068 0.23475 0.64279 0.0
H1924 H 0.97247 0.2485 0.62598 0.0
H1925 H 0.95555 0.13369 0.63003 0.0
H1926 H 0.94724 0.1459 0.64582 0.0
H1927 H 0.92818 0.13603 0.62839 0.0
H1928 H 0.91622 0.18234 0.67572 0.0
H1929 H 0.87024 0.15795 0.6338 0.0
H1930 H 0.97222 0.21441 0.66167 0.0
H1931 H 0.9678 0.18432 0.66249 0.0
H1932 H 0.95854 0.19759 0.67722 0.0
H1933 H 0.91595 0.18467 0.61043 0.0
H1934 H 0.88545 0.15899 0.6107 0.0
H1935 H 0.91165 0.15465 0.61139 0.0
C1936 C 0.7337 0.74375 0.63092 0.0
C1937 C 0.74722 0.76928 0.63084 0.0
C1938 C 0.74462 0.73096 0.63681 0.0
C1939 C 0.76967 0.74402 0.64265 0.0
C1940 C 0.78342 0.76978 0.64256 0.0
C1941 C 0.77201 0.78211 0.63668 0.0
C1942 C 0.72934 0.70349 0.63683 0.0
C1943 C 0.81023 0.78429 0.64858 0.0
C1944 C 0.7929 0.71477 0.67 0.0
C1945 C 0.80393 0.70538 0.66066 0.0
C1946 C 0.78162 0.72734 0.66427 0.0
C1947 C 0.78153 0.73073 0.64886 0.0
C1948 C 0.79281 0.72149 0.63939 0.0
C1949 C 0.80382 0.70886 0.6454 0.0
C1950 C 0.76967 0.73686 0.67469 0.0
C1951 C 0.79321 0.72491 0.62291 0.0
H1952 H 0.71447 0.73383 0.62654 0.0
H1953 H 0.7826 0.80181 0.63644 0.0
H1954 H 0.73755 0.6944 0.63035 0.0
H1955 H 0.72919 0.69852 0.64846 0.0
H1956 H 0.71008 0.6961 0.63192 0.0
H1957 H 0.81831 0.80423 0.64768 0.0
H1958 H 0.8125 0.78157 0.66053 0.0
H1959 H 0.82078 0.77762 0.64236 0.0
H1960 H 0.79282 0.7121 0.68179 0.0
H1961 H 0.81234 0.70171 0.6381 0.0
H1962 H 0.74993 0.72868 0.6707 0.0
H1963 H 0.77823 0.75702 0.67471 0.0
H1964 H 0.77127 0.73263 0.68638 0.0
H1965 H 0.77416 0.71631 0.61739 0.0
H1966 H 0.80293 0.71678 0.61711 0.0
H1967 H 0.80237 0.74473 0.62144 0.0
C1968 C 0.98421 0.77939 0.61823 0.0
C1969 C 0.00706 0.78473 0.62521 0.0
C1970 C 0.96258 0.76544 0.62489 0.0
C1971 C 0.96387 0.75645 0.63876 0.0
C1972 C 0.9869 0.76175 0.64583 0.0
C1973 C 0.00823 0.77591 0.639 0.0
C1974 C 0.93836 0.76029 0.61707 0.0
C1975 C 0.98897 0.7522 0.66053 0.0
C1976 C 0.91105 0.73654 0.66282 0.0
C1977 C 0.89827 0.71102 0.65923 0.0
C1978 C 0.93232 0.75162 0.65612 0.0
C1979 C 0.94108 0.74088 0.6457 0.0
C1980 C 0.92826 0.71516 0.64203 0.0
C1981 C 0.90698 0.70057 0.64879 0.0
C1982 C 0.94544 0.77902 0.6602 0.0
C1983 C 0.93711 0.70301 0.63105 0.0
H1984 H 0.9833 0.78642 0.60766 0.0
H1985 H 0.02585 0.77979 0.64433 0.0
H1986 H 0.92599 0.74024 0.61439 0.0
H1987 H 0.92918 0.76698 0.6246 0.0
H1988 H 0.94058 0.76914 0.60653 0.0
H1989 H 0.0083 0.75824 0.66466 0.0
H1990 H 0.98104 0.75859 0.66918 0.0
H1991 H 0.9783 0.73186 0.65922 0.0
H1992 H 0.90439 0.74479 0.6708 0.0
H1993 H 0.89726 0.68087 0.64592 0.0
H1994 H 0.94677 0.7884 0.64997 0.0
H1995 H 0.96445 0.78562 0.66523 0.0
H1996 H 0.93598 0.78454 0.66826 0.0
H1997 H 0.93802 0.71027 0.62003 0.0
H1998 H 0.92499 0.68277 0.62939 0.0
H1999 H 0.95593 0.70731 0.63508 0.0
C2000 C 0.22074 0.23159 0.62385 0.0
C2001 C 0.19814 0.2123 0.61709 0.0
C2002 C 0.23835 0.22698 0.63085 0.0
C2003 C 0.23335 0.20252 0.63087 0.0
C2004 C 0.21077 0.18301 0.62374 0.0
C2005 C 0.19334 0.18812 0.61704 0.0
C2006 C 0.26202 0.24824 0.63855 0.0
C2007 C 0.20492 0.15671 0.62333 0.0
C2008 C 0.28694 0.19189 0.63953 0.0
C2009 C 0.28479 0.18692 0.65452 0.0
C2010 C 0.27022 0.19682 0.63162 0.0
C2011 C 0.25122 0.19723 0.63898 0.0
C2012 C 0.24917 0.19251 0.65416 0.0
C2013 C 0.26583 0.18722 0.6617 0.0
C2014 C 0.27275 0.20139 0.61537 0.0
C2015 C 0.2294 0.19316 0.66248 0.0
H2016 H 0.22439 0.25028 0.62399 0.0
H2017 H 0.17598 0.17322 0.61166 0.0
H2018 H 0.26341 0.2463 0.6507 0.0
H2019 H 0.27796 0.24822 0.63402 0.0
H2020 H 0.26338 0.26621 0.63716 0.0
H2021 H 0.18717 0.14382 0.61659 0.0
H2022 H 0.21969 0.15473 0.61854 0.0
H2023 H 0.20404 0.15132 0.63489 0.0
H2024 H 0.30146 0.19154 0.63389 0.0
H2025 H 0.26417 0.1836 0.67333 0.0
H2026 H 0.27557 0.21986 0.61383 0.0
H2027 H 0.25559 0.18787 0.60834 0.0
H2028 H 0.28832 0.20009 0.61123 0.0
H2029 H 0.23076 0.21132 0.66219 0.0
H2030 H 0.23066 0.18962 0.67436 0.0
H2031 H 0.21102 0.1792 0.65693 0.0
C2032 C 0.73376 0.96307 0.6485 0.0
C2033 C 0.73606 0.95767 0.63354 0.0
C2034 C 0.74437 0.98745 0.65488 0.0
C2035 C 0.75773 0.00679 0.6461 0.0
C2036 C 0.76002 0.00143 0.63098 0.0
C2037 C 0.7491 0.97693 0.62488 0.0
C2038 C 0.7414 0.99252 0.67101 0.0
C2039 C 0.7743 0.02157 0.62131 0.0
C2040 C 0.76898 0.07074 0.65708 0.0
C2041 C 0.79329 0.08272 0.6638 0.0
C2042 C 0.75697 0.04585 0.65157 0.0
C2043 C 0.76965 0.03271 0.65273 0.0
C2044 C 0.79407 0.04459 0.65968 0.0
C2045 C 0.80558 0.06945 0.66518 0.0
C2046 C 0.73085 0.03373 0.64431 0.0
C2047 C 0.80821 0.03118 0.66103 0.0
H2048 H 0.72352 0.94821 0.65518 0.0
H2049 H 0.75124 0.97282 0.61338 0.0
H2050 H 0.75967 0.00295 0.67764 0.0
H2051 H 0.73271 0.00404 0.67173 0.0
H2052 H 0.73004 0.97542 0.67621 0.0
H2053 H 0.77411 0.01428 0.60972 0.0
H2054 H 0.76652 0.03389 0.62075 0.0
H2055 H 0.79365 0.03287 0.62634 0.0
H2056 H 0.7593 0.08082 0.65604 0.0
H2057 H 0.82437 0.07856 0.67036 0.0
H2058 H 0.71897 0.01716 0.6498 0.0
H2059 H 0.73005 0.02764 0.63236 0.0
H2060 H 0.72319 0.0462 0.64494 0.0
H2061 H 0.79802 0.01466 0.66695 0.0
H2062 H 0.8268 0.04286 0.66716 0.0
H2063 H 0.8102 0.02483 0.6497 0.0
C2064 C 0.46441 0.35009 0.72864 0.0
C2065 C 0.45977 0.36879 0.72516 0.0
C2066 C 0.44824 0.32571 0.7228 0.0
C2067 C 0.4273 0.32011 0.71295 0.0
C2068 C 0.42273 0.33906 0.70926 0.0
C2069 C 0.43891 0.36322 0.7156 0.0
C2070 C 0.45343 0.30593 0.72726 0.0
C2071 C 0.40092 0.33385 0.69853 0.0
C2072 C 0.39969 0.26026 0.68778 0.0
C2073 C 0.3793 0.24495 0.69503 0.0
C2074 C 0.41507 0.28499 0.69325 0.0
C2075 C 0.41028 0.29438 0.70651 0.0
C2076 C 0.38969 0.27898 0.71387 0.0
C2077 C 0.37423 0.25449 0.70792 0.0
C2078 C 0.43651 0.30102 0.6849 0.0
C2079 C 0.38435 0.2882 0.72824 0.0
H2080 H 0.48051 0.35453 0.73616 0.0
H2081 H 0.4355 0.37783 0.71291 0.0
H2082 H 0.43755 0.29174 0.73234 0.0
H2083 H 0.45599 0.29673 0.71721 0.0
H2084 H 0.47009 0.31328 0.73541 0.0
H2085 H 0.40032 0.35074 0.69656 0.0
H2086 H 0.40153 0.32507 0.68762 0.0
H2087 H 0.38365 0.32079 0.70297 0.0
H2088 H 0.40348 0.25294 0.67773 0.0
H2089 H 0.35854 0.24261 0.71358 0.0
H2090 H 0.45399 0.30736 0.69204 0.0
H2091 H 0.43576 0.31758 0.68226 0.0
H2092 H 0.43682 0.29126 0.67429 0.0
H2093 H 0.40008 0.29447 0.73696 0.0
H2094 H 0.36752 0.27389 0.73252 0.0
H2095 H 0.38207 0.3042 0.72645 0.0
C2096 C 0.65934 0.10987 0.72321 0.0
C2097 C 0.66159 0.1219 0.73733 0.0
C2098 C 0.68014 0.11487 0.71595 0.0
C2099 C 0.70375 0.1326 0.7229 0.0
C2100 C 0.70611 0.14497 0.73711 0.0
C2101 C 0.685 0.13933 0.74421 0.0
C2102 C 0.67687 0.10099 0.70092 0.0
C2103 C 0.73093 0.1642 0.7448 0.0
C2104 C 0.75876 0.1292 0.711 0.0
C2105 C 0.76748 0.1467 0.70068 0.0
C2106 C 0.7381 0.12448 0.71831 0.0
C2107 C 0.72598 0.1378 0.71541 0.0
C2108 C 0.73487 0.15575 0.70518 0.0
C2109 C 0.75541 0.15987 0.69786 0.0
C2110 C 0.72904 0.10499 0.72901 0.0
C2111 C 0.72264 0.17057 0.70195 0.0
H2112 H 0.64127 0.0962 0.71793 0.0
H2113 H 0.68676 0.14884 0.75507 0.0
H2114 H 0.68477 0.11399 0.69239 0.0
H2115 H 0.68693 0.09077 0.70161 0.0
H2116 H 0.65727 0.08778 0.69704 0.0
H2117 H 0.72958 0.1726 0.75565 0.0
H2118 H 0.74264 0.15595 0.74689 0.0
H2119 H 0.74035 0.17891 0.73743 0.0
H2120 H 0.76789 0.11885 0.71324 0.0
H2121 H 0.7621 0.17354 0.68999 0.0
H2122 H 0.70987 0.09052 0.72511 0.0
H2123 H 0.72891 0.11305 0.74028 0.0
H2124 H 0.74055 0.09629 0.73006 0.0
H2125 H 0.70338 0.15822 0.69706 0.0
H2126 H 0.73226 0.18438 0.69408 0.0
H2127 H 0.7221 0.1802 0.71253 0.0
C2128 C 0.91851 0.56001 0.70671 0.0
C2129 C 0.91394 0.55152 0.72086 0.0
C2130 C 0.90821 0.5735 0.70105 0.0
C2131 C 0.89284 0.57837 0.7097 0.0
C2132 C 0.88794 0.56957 0.72391 0.0
C2133 C 0.89862 0.55632 0.72934 0.0
C2134 C 0.914 0.58278 0.6859 0.0
C2135 C 0.87145 0.57422 0.73339 0.0
C2136 C 0.8845 0.63242 0.70246 0.0
C2137 C 0.86166 0.62093 0.69374 0.0
C2138 C 0.89496 0.61879 0.70759 0.0
C2139 C 0.88219 0.59304 0.70403 0.0
C2140 C 0.85912 0.5813 0.69528 0.0
C2141 C 0.84916 0.5954 0.69019 0.0
C2142 C 0.91968 0.63196 0.71684 0.0
C2143 C 0.8449 0.55383 0.69137 0.0
H2144 H 0.93051 0.55647 0.7002 0.0
H2145 H 0.89478 0.54946 0.74019 0.0
H2146 H 0.89678 0.57578 0.67836 0.0
H2147 H 0.92324 0.60309 0.68708 0.0
H2148 H 0.92605 0.57715 0.68051 0.0
H2149 H 0.86911 0.56568 0.74406 0.0
H2150 H 0.8792 0.59423 0.73607 0.0
H2151 H 0.8531 0.56687 0.72708 0.0
H2152 H 0.89435 0.65214 0.70521 0.0
H2153 H 0.83148 0.58637 0.68349 0.0
H2154 H 0.93283 0.62805 0.71139 0.0
H2155 H 0.91802 0.62518 0.72804 0.0
H2156 H 0.92744 0.65213 0.71837 0.0
H2157 H 0.85603 0.54789 0.68518 0.0
H2158 H 0.82724 0.54754 0.68441 0.0
H2159 H 0.84098 0.54456 0.70177 0.0
C2160 C 0.47926 0.95102 0.17301 0.0
C2161 C 0.46745 0.95833 0.18309 0.0
C2162 C 0.48504 0.96109 0.15936 0.0
C2163 C 0.47881 0.9789 0.15563 0.0
C2164 C 0.46651 0.9861 0.16562 0.0
C2165 C 0.46094 0.9757 0.17924 0.0
C2166 C 0.49803 0.9528 0.14898 0.0
C2167 C 0.45958 0.00504 0.16202 0.0
C2168 C 0.51602 0.02037 0.12709 0.0
C2169 C 0.50042 0.00892 0.11377 0.0
C2170 C 0.5089 0.01124 0.14087 0.0
C2171 C 0.4856 0.99017 0.14136 0.0
C2172 C 0.46947 0.97899 0.12802 0.0
C2173 C 0.47708 0.98849 0.11439 0.0
C2174 C 0.52663 0.02364 0.15485 0.0
C2175 C 0.44445 0.95659 0.12807 0.0
H2176 H 0.48395 0.93728 0.17579 0.0
H2177 H 0.45198 0.98156 0.18702 0.0
H2178 H 0.487 0.94528 0.1379 0.0
H2179 H 0.51596 0.96867 0.14714 0.0
H2180 H 0.50132 0.93856 0.15347 0.0
H2181 H 0.44937 0.00806 0.17074 0.0
H2182 H 0.47637 0.02274 0.16097 0.0
H2183 H 0.44807 -0.00073 0.15109 0.0
H2184 H 0.53414 0.03603 0.12667 0.0
H2185 H 0.46476 0.97982 0.10417 0.0
H2186 H 0.53231 0.01098 0.15926 0.0
H2187 H 0.51762 0.02815 0.16371 0.0
H2188 H 0.54335 0.04075 0.15275 0.0
H2189 H 0.44649 0.94104 0.13143 0.0
H2190 H 0.43353 0.95101 0.11691 0.0
H2191 H 0.43403 0.9601 0.1364 0.0
C2192 C 0.97217 0.48923 0.18325 0.0
C2193 C 0.98612 0.48037 0.19044 0.0
C2194 C 0.96802 0.48679 0.16758 0.0
C2195 C 0.9778 0.47494 0.15889 0.0
C2196 C 0.99083 0.46486 0.16606 0.0
C2197 C 0.99497 0.46783 0.18175 0.0
C2198 C 0.95406 0.49783 0.16033 0.0
C2199 C 0.00133 0.4519 0.15715 0.0
C2200 C 0.95361 0.45713 0.11764 0.0
C2201 C 0.97184 0.47681 0.11112 0.0
C2202 C 0.95558 0.45586 0.13316 0.0
C2203 C 0.9761 0.4749 0.14234 0.0
C2204 C 0.99476 0.49458 0.13577 0.0
C2205 C 0.99244 0.49523 0.12023 0.0
C2206 C 0.93552 0.43443 0.13977 0.0
C2207 C 0.01682 0.51535 0.14519 0.0
H2208 H 0.96486 0.49851 0.18989 0.0
H2209 H 0.006 0.46115 0.18717 0.0
H2210 H 0.96645 0.51301 0.15401 0.0
H2211 H 0.93878 0.48393 0.15218 0.0
H2212 H 0.9464 0.50513 0.16866 0.0
H2213 H 0.00863 0.4428 0.16438 0.0
H2214 H 0.98713 0.4379 0.14851 0.0
H2215 H 0.01647 0.46531 0.15122 0.0
H2216 H 0.93776 0.44278 0.11058 0.0
H2217 H 0.00639 0.51066 0.11526 0.0
H2218 H 0.92625 0.44098 0.1473 0.0
H2219 H 0.9435 0.42558 0.14665 0.0
H2220 H 0.92153 0.42044 0.13101 0.0
H2221 H 0.01077 0.52496 0.15309 0.0
H2222 H 0.03001 0.52893 0.13829 0.0
H2223 H 0.02654 0.50808 0.15201 0.0
C2224 C 0.44858 0.47192 0.17212 0.0
C2225 C 0.46738 0.48085 0.18398 0.0
C2226 C 0.45305 0.46813 0.15737 0.0
C2227 C 0.47688 0.47345 0.15444 0.0
C2228 C 0.49563 0.48142 0.16645 0.0
C2229 C 0.49063 0.48497 0.18108 0.0
C2230 C 0.43256 0.4595 0.14485 0.0
C2231 C 0.52126 0.48718 0.1638 0.0
C2232 C 0.4868 0.45051 0.11691 0.0
C2233 C 0.49499 0.47136 0.10916 0.0
C2234 C 0.48059 0.45079 0.13162 0.0
C2235 C 0.48274 0.47247 0.13874 0.0
C2236 C 0.49099 0.49356 0.13096 0.0
C2237 C 0.49697 0.49273 0.11627 0.0
C2238 C 0.47172 0.42792 0.13953 0.0
C2239 C 0.49371 0.51709 0.13822 0.0
H2240 H 0.43062 0.46889 0.17426 0.0
H2241 H 0.50512 0.49147 0.19024 0.0
H2242 H 0.43678 0.47442 0.1376 0.0
H2243 H 0.43091 0.4437 0.13771 0.0
H2244 H 0.41459 0.454 0.14911 0.0
H2245 H 0.53326 0.49154 0.17444 0.0
H2246 H 0.52064 0.47146 0.15718 0.0
H2247 H 0.5297 0.50312 0.15719 0.0
H2248 H 0.48495 0.43386 0.11139 0.0
H2249 H 0.50358 0.50899 0.1104 0.0
H2250 H 0.45322 0.42213 0.143 0.0
H2251 H 0.48416 0.43175 0.14986 0.0
H2252 H 0.47079 0.41247 0.13236 0.0
H2253 H 0.47589 0.51375 0.14179 0.0
H2254 H 0.50007 0.53175 0.13057 0.0
H2255 H 0.50705 0.52378 0.14841 0.0
C2256 C 0.99054 0.51279 0.83933 0.0
C2257 C 0.00211 0.50381 0.83015 0.0
C2258 C 0.99519 0.51544 0.85498 0.0
C2259 C 0.01173 0.50884 0.8616 0.0
C2260 C 0.02371 0.50006 0.85241 0.0
C2261 C 0.01878 0.49768 0.83679 0.0
C2262 C 0.98208 0.52487 0.86443 0.0
C2263 C 0.04151 0.4929 0.8591 0.0
C2264 C 0.03915 0.53401 0.90182 0.0
C2265 C 0.02433 0.51412 0.9096 0.0
C2266 C 0.03525 0.53256 0.88618 0.0
C2267 C 0.01611 0.51068 0.87816 0.0
C2268 C 0.00106 0.49054 0.88595 0.0
C2269 C 0.00533 0.49252 0.9016 0.0
C2270 C 0.05154 0.55446 0.87824 0.0
C2271 C 0.98054 0.46686 0.87776 0.0
H2272 H 0.97735 0.5172 0.83429 0.0
H2273 H 0.02799 0.49102 0.82974 0.0
H2274 H 0.97027 0.51063 0.87149 0.0
H2275 H 0.99561 0.54115 0.87211 0.0
H2276 H 0.97045 0.53001 0.85753 0.0
H2277 H 0.04959 0.48677 0.85039 0.0
H2278 H 0.05661 0.50865 0.8664 0.0
H2279 H 0.03202 0.47784 0.86623 0.0
H2280 H 0.05366 0.55084 0.90799 0.0
H2281 H 0.99403 0.47701 0.90757 0.0
H2282 H 0.04026 0.56063 0.87194 0.0
H2283 H 0.06094 0.5493 0.86996 0.0
H2284 H 0.06567 0.57009 0.88612 0.0
H2285 H 0.96728 0.4704 0.87128 0.0
H2286 H 0.97051 0.45295 0.88549 0.0
H2287 H 0.98805 0.45911 0.86962 0.0
C2288 C 0.49944 0.50497 0.84002 0.0
C2289 C 0.52342 0.51586 0.83589 0.0
C2290 C 0.49509 0.50745 0.85494 0.0
C2291 C 0.51517 0.52161 0.86599 0.0
C2292 C 0.53933 0.53382 0.86179 0.0
C2293 C 0.5432 0.53063 0.84681 0.0
C2294 C 0.46903 0.49398 0.85897 0.0
C2295 C 0.56117 0.54943 0.87323 0.0
C2296 C 0.49883 0.5375 0.90339 0.0
C2297 C 0.4986 0.51938 0.91174 0.0
C2298 C 0.50518 0.53915 0.88864 0.0
C2299 C 0.51088 0.52191 0.88204 0.0
C2300 C 0.51107 0.50385 0.89055 0.0
C2301 C 0.50511 0.50294 0.90533 0.0
C2302 C 0.50531 0.55897 0.88001 0.0
C2303 C 0.51666 0.48488 0.88386 0.0
H2304 H 0.484 0.49405 0.83161 0.0
H2305 H 0.56181 0.539 0.84379 0.0
H2306 H 0.46699 0.48001 0.86655 0.0
H2307 H 0.46468 0.50688 0.86508 0.0
H2308 H 0.4554 0.48464 0.84895 0.0
H2309 H 0.57835 0.55999 0.86792 0.0
H2310 H 0.55796 0.56245 0.88021 0.0
H2311 H 0.5638 0.53757 0.88085 0.0
H2312 H 0.49397 0.55034 0.9084 0.0
H2313 H 0.50467 0.48873 0.91172 0.0
H2314 H 0.49052 0.55058 0.87055 0.0
H2315 H 0.52297 0.56918 0.87516 0.0
H2316 H 0.50252 0.57217 0.88715 0.0
H2317 H 0.50268 0.47352 0.87431 0.0
H2318 H 0.51681 0.47258 0.89213 0.0
H2319 H 0.53477 0.49398 0.87941 0.0
C2320 C 0.50691 0.02022 0.8438 0.0
C2321 C 0.53079 0.03838 0.84168 0.0
C2322 C 0.50156 0.01022 0.85752 0.0
C2323 C 0.52055 0.0185 0.86941 0.0
C2324 C 0.54482 0.03636 0.86724 0.0
C2325 C 0.54964 0.0461 0.8534 0.0
C2326 C 0.47546 0.99115 0.85937 0.0
C2327 C 0.56557 0.04564 0.87965 0.0
C2328 C 0.50263 0.01265 0.90913 0.0
C2329 C 0.50348 0.99172 0.91261 0.0
C2330 C 0.50819 0.02155 0.89514 0.0
C2331 C 0.5148 0.00926 0.88433 0.0
C2332 C 0.51568 0.9881 0.88774 0.0
C2333 C 0.50996 0.97955 0.90184 0.0
C2334 C 0.50686 0.04406 0.89189 0.0
C2335 C 0.52276 0.97457 0.87654 0.0
H2336 H 0.49232 0.01385 0.83471 0.0
H2337 H 0.56809 0.06029 0.85191 0.0
H2338 H 0.47481 0.97439 0.86301 0.0
H2339 H 0.46844 -0.00177 0.86824 0.0
H2340 H 0.46299 0.98602 0.84886 0.0
H2341 H 0.58361 0.05854 0.87591 0.0
H2342 H 0.56211 0.05518 0.88913 0.0
H2343 H 0.56658 0.03005 0.88396 0.0
H2344 H 0.49731 0.02193 0.91732 0.0
H2345 H 0.51092 0.96353 0.90452 0.0
H2346 H 0.49328 0.03956 0.88204 0.0
H2347 H 0.52491 0.05855 0.88905 0.0
H2348 H 0.50156 0.05157 0.90154 0.0
H2349 H 0.50993 0.96824 0.86612 0.0
H2350 H 0.52259 0.95844 0.88093 0.0
H2351 H 0.5414 0.9871 0.87345 0.0
C2352 C 0.13957 0.28414 0.50395 0.0
C2353 C 0.13041 0.29306 0.51499 0.0
C2354 C 0.14476 0.2943 0.49029 0.0
C2355 C 0.14072 0.31391 0.48757 0.0
C2356 C 0.13116 0.32282 0.49857 0.0
C2357 C 0.12605 0.31224 0.51215 0.0
C2358 C 0.15475 0.28413 0.4788 0.0
C2359 C 0.12669 0.34376 0.49608 0.0
C2360 C 0.17718 0.35374 0.45817 0.0
C2361 C 0.15995 0.34397 0.44542 0.0
C2362 C 0.17094 0.34465 0.47207 0.0
C2363 C 0.14691 0.32523 0.47325 0.0
C2364 C 0.12924 0.31572 0.46053 0.0
C2365 C 0.13595 0.32524 0.44679 0.0
C2366 C 0.19031 0.35529 0.48537 0.0
C2367 C 0.10341 0.29504 0.46134 0.0
H2368 H 0.1426 0.26906 0.50598 0.0
H2369 H 0.11915 0.31933 0.52069 0.0
H2370 H 0.14256 0.27777 0.46811 0.0
H2371 H 0.17309 0.29874 0.47644 0.0
H2372 H 0.15647 0.26858 0.48256 0.0
H2373 H 0.11858 0.34811 0.50558 0.0
H2374 H 0.14425 0.3604 0.49458 0.0
H2375 H 0.11418 0.33922 0.48568 0.0
H2376 H 0.19583 0.36802 0.45719 0.0
H2377 H 0.12239 0.31787 0.43707 0.0
H2378 H 0.19449 0.34112 0.48891 0.0
H2379 H 0.18343 0.36096 0.495 0.0
H2380 H 0.20761 0.37138 0.48285 0.0
H2381 H 0.10384 0.27839 0.46414 0.0
H2382 H 0.09155 0.2905 0.45062 0.0
H2383 H 0.09496 0.29995 0.47038 0.0
C2384 C 0.64337 0.79176 0.51213 0.0
C2385 C 0.65499 0.81489 0.52047 0.0
C2386 C 0.63842 0.78937 0.49649 0.0
C2387 C 0.64515 0.81058 0.48905 0.0
C2388 C 0.65661 0.83392 0.49741 0.0
C2389 C 0.66148 0.83579 0.513 0.0
C2390 C 0.62624 0.76419 0.4879 0.0
C2391 C 0.66402 0.85697 0.48988 0.0
C2392 C 0.65551 0.81074 0.44796 0.0
C2393 C 0.63374 0.80841 0.44113 0.0
C2394 C 0.65915 0.81071 0.4635 0.0
C2395 C 0.64068 0.80858 0.47247 0.0
C2396 C 0.6185 0.8058 0.46566 0.0
C2397 C 0.61524 0.80562 0.45006 0.0
C2398 C 0.68301 0.81358 0.47037 0.0
C2399 C 0.59844 0.80359 0.47487 0.0
H2400 H 0.63807 0.77551 0.51784 0.0
H2401 H 0.67088 0.85377 0.51931 0.0
H2402 H 0.60899 0.76037 0.48136 0.0
H2403 H 0.63843 0.76343 0.47978 0.0
H2404 H 0.6219 0.74951 0.49538 0.0
H2405 H 0.67207 0.87362 0.49805 0.0
H2406 H 0.6777 0.85935 0.48201 0.0
H2407 H 0.64785 0.85547 0.4832 0.0
H2408 H 0.67005 0.81324 0.4412 0.0
H2409 H 0.59818 0.80336 0.44486 0.0
H2410 H 0.67933 0.79861 0.47748 0.0
H2411 H 0.69333 0.83113 0.47772 0.0
H2412 H 0.69481 0.81341 0.46176 0.0
H2413 H 0.59298 0.78816 0.48185 0.0
H2414 H 0.58191 0.8006 0.46781 0.0
H2415 H 0.60536 0.82055 0.48262 0.0
C2416 C 0.15153 0.84655 0.50996 0.0
C2417 C 0.13445 0.82758 0.51753 0.0
C2418 C 0.15566 0.84201 0.49528 0.0
C2419 C 0.14212 0.81795 0.48784 0.0
C2420 C 0.12452 0.79877 0.49527 0.0
C2421 C 0.12099 0.80377 0.51006 0.0
C2422 C 0.17469 0.86296 0.48777 0.0
C2423 C 0.10956 0.77294 0.48762 0.0
C2424 C 0.14101 0.81447 0.44549 0.0
C2425 C 0.15972 0.80909 0.44322 0.0
C2426 C 0.13429 0.81628 0.45989 0.0
C2427 C 0.14681 0.81302 0.47236 0.0
C2428 C 0.16511 0.80679 0.47011 0.0
C2429 C 0.17121 0.80472 0.45557 0.0
C2430 C 0.11445 0.82266 0.4618 0.0
C2431 C 0.17897 0.80327 0.48314 0.0
H2432 H 0.16163 0.86509 0.51548 0.0
H2433 H 0.10794 0.78893 0.51584 0.0
H2434 H 0.18896 0.85876 0.48447 0.0
H2435 H 0.16602 0.86538 0.47739 0.0
H2436 H 0.18379 0.88055 0.49515 0.0
H2437 H 0.09595 0.76029 0.49473 0.0
H2438 H 0.09966 0.77283 0.47695 0.0
H2439 H 0.12187 0.76582 0.48479 0.0
H2440 H 0.13219 0.81819 0.43609 0.0
H2441 H 0.18532 0.80007 0.45391 0.0
H2442 H 0.12267 0.84138 0.46771 0.0
H2443 H 0.10078 0.80984 0.46879 0.0
H2444 H 0.10476 0.82206 0.45089 0.0
H2445 H 0.18982 0.82081 0.49046 0.0
H2446 H 0.19166 0.7971 0.47943 0.0
H2447 H 0.16596 0.7896 0.49004 0.0
C2448 C 0.69155 0.82715 0.16835 0.0
C2449 C 0.6737 0.83233 0.16249 0.0
C2450 C 0.69735 0.82908 0.18388 0.0
C2451 C 0.685 0.83637 0.19375 0.0
C2452 C 0.66738 0.84217 0.1879 0.0
C2453 C 0.66193 0.84005 0.17234 0.0
C2454 C 0.71635 0.82288 0.18973 0.0
C2455 C 0.65382 0.85 0.19808 0.0
C2456 C 0.68002 0.81749 0.23322 0.0
C2457 C 0.69807 0.83923 0.2416 0.0
C2458 C 0.67578 0.81623 0.2176 0.0
C2459 C 0.68993 0.83723 0.21021 0.0
C2460 C 0.70834 0.85916 0.21858 0.0
C2461 C 0.71219 0.8599 0.23419 0.0
C2462 C 0.65603 0.79248 0.20903 0.0
C2463 C 0.7237 0.88195 0.21109 0.0
H2464 H 0.70091 0.82145 0.16078 0.0
H2465 H 0.64786 0.84374 0.16789 0.0
H2466 H 0.73103 0.83853 0.19731 0.0
H2467 H 0.70775 0.80701 0.19638 0.0
H2468 H 0.72487 0.8183 0.18056 0.0
H2469 H 0.64144 0.85488 0.19175 0.0
H2470 H 0.64269 0.83495 0.20487 0.0
H2471 H 0.66707 0.86606 0.20601 0.0
H2472 H 0.66927 0.80138 0.23888 0.0
H2473 H 0.72594 0.87685 0.24063 0.0
H2474 H 0.66401 0.78621 0.20034 0.0
H2475 H 0.64185 0.79541 0.20316 0.0
H2476 H 0.64697 0.77771 0.21643 0.0
H2477 H 0.73304 0.87793 0.20224 0.0
H2478 H 0.7378 0.8973 0.21915 0.0
H2479 H 0.71171 0.88802 0.20556 0.0
C2480 C 0.2088 0.85312 0.18123 0.0
C2481 C 0.19072 0.84685 0.16923 0.0
C2482 C 0.20374 0.85468 0.19611 0.0
C2483 C 0.18002 0.84973 0.19904 0.0
C2484 C 0.16194 0.84413 0.18697 0.0
C2485 C 0.16754 0.84286 0.17222 0.0
C2486 C 0.22354 0.86085 0.2087 0.0
C2487 C 0.13644 0.83878 0.18964 0.0
C2488 C 0.15788 0.82666 0.2362 0.0
C2489 C 0.16058 0.84774 0.24421 0.0
C2490 C 0.16426 0.82712 0.22152 0.0
C2491 C 0.1737 0.84923 0.21471 0.0
C2492 C 0.17664 0.87063 0.22277 0.0
C2493 C 0.16996 0.86961 0.23742 0.0
C2494 C 0.16066 0.80386 0.21323 0.0
C2495 C 0.18683 0.89458 0.21592 0.0
H2496 H 0.22667 0.856 0.17902 0.0
H2497 H 0.15362 0.83844 0.16299 0.0
H2498 H 0.22589 0.87629 0.21653 0.0
H2499 H 0.21807 0.84486 0.21519 0.0
H2500 H 0.24149 0.86588 0.20455 0.0
H2501 H 0.1248 0.83569 0.17904 0.0
H2502 H 0.12734 0.82219 0.19567 0.0
H2503 H 0.13743 0.8542 0.19684 0.0
H2504 H 0.15039 0.80966 0.24135 0.0
H2505 H 0.17238 0.88602 0.24365 0.0
H2506 H 0.17835 0.80685 0.20964 0.0
H2507 H 0.14772 0.79874 0.20296 0.0
H2508 H 0.15335 0.78826 0.22019 0.0
H2509 H 0.2053 0.90002 0.21251 0.0
H2510 H 0.18831 0.90964 0.22376 0.0
H2511 H 0.1749 0.89237 0.20565 0.0
C2512 C 0.20901 0.37252 0.18362 0.0
C2513 C 0.19039 0.36947 0.17282 0.0
C2514 C 0.2034 0.36229 0.19727 0.0
C2515 C 0.1786 0.34886 0.20026 0.0
C2516 C 0.1597 0.34526 0.18929 0.0
C2517 C 0.16581 0.35548 0.17569 0.0
C2518 C 0.22406 0.36635 0.20864 0.0
C2519 C 0.13303 0.3311 0.19207 0.0
C2520 C 0.16137 0.30678 0.23133 0.0
C2521 C 0.1603 0.32155 0.24324 0.0
C2522 C 0.16751 0.31548 0.21732 0.0
C2523 C 0.17243 0.33942 0.21509 0.0
C2524 C 0.17124 0.35437 0.227 0.0
C2525 C 0.16535 0.34532 0.24093 0.0
C2526 C 0.16874 0.29906 0.20491 0.0
C2527 C 0.17623 0.37996 0.22504 0.0
H2528 H 0.22805 0.38349 0.18158 0.0
H2529 H 0.15126 0.3526 0.16731 0.0
H2530 H 0.22459 0.37749 0.21883 0.0
H2531 H 0.22092 0.34855 0.21211 0.0
H2532 H 0.24223 0.3759 0.20424 0.0
H2533 H 0.1205 0.32933 0.18222 0.0
H2534 H 0.12814 0.31247 0.19488 0.0
H2535 H 0.12987 0.34045 0.2018 0.0
H2536 H 0.15719 0.28829 0.23291 0.0
H2537 H 0.16506 0.35707 0.25011 0.0
H2538 H 0.1872 0.30821 0.2009 0.0
H2539 H 0.15525 0.29569 0.19524 0.0
H2540 H 0.16491 0.28111 0.20855 0.0
H2541 H 0.19511 0.39134 0.22194 0.0
H2542 H 0.17423 0.38911 0.23536 0.0
H2543 H 0.16339 0.3793 0.21577 0.0
C2544 C 0.8088 0.61897 0.83766 0.0
C2545 C 0.79701 0.62632 0.84775 0.0
C2546 C 0.81443 0.62891 0.82396 0.0
C2547 C 0.80811 0.64664 0.82019 0.0
C2548 C 0.79592 0.65394 0.83021 0.0
C2549 C 0.79048 0.64366 0.84387 0.0
C2550 C 0.8273 0.6205 0.81355 0.0
C2551 C 0.78893 0.67283 0.82657 0.0
C2552 C 0.84456 0.6875 0.79116 0.0
C2553 C 0.82868 0.67582 0.77797 0.0
C2554 C 0.83778 0.67865 0.80506 0.0
C2555 C 0.81457 0.65762 0.80579 0.0
C2556 C 0.79816 0.64619 0.79257 0.0
C2557 C 0.80541 0.65543 0.77883 0.0
C2558 C 0.85581 0.69133 0.8189 0.0
C2559 C 0.77321 0.6238 0.79288 0.0
H2560 H 0.81351 0.60527 0.84047 0.0
H2561 H 0.78155 0.64956 0.85166 0.0
H2562 H 0.81607 0.61274 0.80254 0.0
H2563 H 0.84512 0.63636 0.81154 0.0
H2564 H 0.83076 0.60641 0.81811 0.0
H2565 H 0.779 0.67609 0.83538 0.0
H2566 H 0.80566 0.69045 0.82529 0.0
H2567 H 0.77713 0.66683 0.81574 0.0
H2568 H 0.86264 0.70313 0.79056 0.0
H2569 H 0.79288 0.64657 0.76871 0.0
H2570 H 0.86164 0.67879 0.82332 0.0
H2571 H 0.84697 0.69597 0.82782 0.0
H2572 H 0.8724 0.7084 0.81662 0.0
H2573 H 0.77538 0.60837 0.79633 0.0
H2574 H 0.76207 0.61797 0.78179 0.0
H2575 H 0.76295 0.62748 0.80125 0.0
C2576 C 0.33326 0.13121 0.84622 0.0
C2577 C 0.31607 0.13091 0.85546 0.0
C2578 C 0.32944 0.13055 0.83063 0.0
C2579 C 0.30781 0.12939 0.82415 0.0
C2580 C 0.28979 0.12778 0.83337 0.0
C2581 C 0.29421 0.12871 0.84895 0.0
C2582 C 0.34918 0.13254 0.8212 0.0
C2583 C 0.26636 0.12621 0.82685 0.0
C2584 C 0.31112 0.15916 0.78842 0.0
C2585 C 0.30002 0.13887 0.77754 0.0
C2586 C 0.31395 0.15627 0.80359 0.0
C2587 C 0.30521 0.13245 0.80802 0.0
C2588 C 0.29408 0.11185 0.79707 0.0
C2589 C 0.29177 0.11533 0.7819 0.0
C2590 C 0.32626 0.17874 0.81489 0.0
C2591 C 0.28435 0.08618 0.80142 0.0
H2592 H 0.35029 0.13316 0.85124 0.0
H2593 H 0.28078 0.12821 0.85608 0.0
H2594 H 0.34116 0.11812 0.81155 0.0
H2595 H 0.35781 0.15054 0.81659 0.0
H2596 H 0.36374 0.13091 0.82773 0.0
H2597 H 0.25312 0.1224 0.83529 0.0
H2598 H 0.27065 0.14378 0.82245 0.0
H2599 H 0.25744 0.11161 0.81731 0.0
H2600 H 0.31781 0.1774 0.78501 0.0
H2601 H 0.28307 0.09964 0.77347 0.0
H2602 H 0.34239 0.17969 0.82128 0.0
H2603 H 0.31338 0.17759 0.82307 0.0
H2604 H 0.33249 0.19598 0.80955 0.0
H2605 H 0.29928 0.08469 0.80755 0.0
H2606 H 0.27636 0.07215 0.79154 0.0
H2607 H 0.27001 0.08202 0.80911 0.0
C2608 C 0.79149 0.15258 0.84319 0.0
C2609 C 0.81058 0.1617 0.85489 0.0
C2610 C 0.79565 0.14896 0.82834 0.0
C2611 C 0.81948 0.15467 0.82512 0.0
C2612 C 0.83864 0.16319 0.83693 0.0
C2613 C 0.83394 0.16654 0.85167 0.0
C2614 C 0.77474 0.13976 0.81604 0.0
C2615 C 0.86428 0.16941 0.83396 0.0
C2616 C 0.82831 0.12996 0.78785 0.0
C2617 C 0.83585 0.15022 0.77961 0.0
C2618 C 0.82265 0.13102 0.80263 0.0
C2619 C 0.82472 0.1529 0.80934 0.0
C2620 C 0.83229 0.1734 0.80107 0.0
C2621 C 0.83772 0.17179 0.78631 0.0
C2622 C 0.81449 0.10875 0.81107 0.0
C2623 C 0.8349 0.19713 0.80788 0.0
H2624 H 0.77346 0.14902 0.84557 0.0
H2625 H 0.84867 0.17318 0.86069 0.0
H2626 H 0.77869 0.15419 0.80845 0.0
H2627 H 0.77284 0.12358 0.8092 0.0
H2628 H 0.75698 0.1346 0.8205 0.0
H2629 H 0.87686 0.17485 0.84445 0.0
H2630 H 0.86384 0.15347 0.82775 0.0
H2631 H 0.87192 0.18473 0.82683 0.0
H2632 H 0.82654 0.11314 0.78266 0.0
H2633 H 0.84382 0.18759 0.78005 0.0
H2634 H 0.79615 0.10301 0.8148 0.0
H2635 H 0.8274 0.1133 0.82128 0.0
H2636 H 0.81348 0.09302 0.80418 0.0
H2637 H 0.8172 0.19378 0.81166 0.0
H2638 H 0.84066 0.21124 0.79987 0.0
H2639 H 0.84867 0.20454 0.81789 0.0
C2640 C 0.33236 0.18796 0.50771 0.0
C2641 C 0.34379 0.17912 0.49831 0.0
C2642 C 0.33661 0.18962 0.52334 0.0
C2643 C 0.35256 0.18212 0.52971 0.0
C2644 C 0.36458 0.17369 0.52031 0.0
C2645 C 0.36009 0.17233 0.50471 0.0
C2646 C 0.3235 0.19876 0.53302 0.0
C2647 C 0.38177 0.16558 0.52673 0.0
C2648 C 0.37792 0.20317 0.57059 0.0
C2649 C 0.36218 0.18255 0.57755 0.0
C2650 C 0.37502 0.20331 0.55501 0.0
C2651 C 0.35598 0.18229 0.54621 0.0
C2652 C 0.34004 0.16142 0.55317 0.0
C2653 C 0.3433 0.16183 0.56878 0.0
C2654 C 0.39223 0.22596 0.54798 0.0
C2655 C 0.31959 0.13862 0.54413 0.0
H2656 H 0.31945 0.19288 0.50286 0.0
H2657 H 0.36921 0.16578 0.4975 0.0
H2658 H 0.31082 0.18387 0.53941 0.0
H2659 H 0.33692 0.21411 0.5413 0.0
H2660 H 0.31274 0.20513 0.52633 0.0
H2661 H 0.39028 0.16025 0.5179 0.0
H2662 H 0.39657 0.18053 0.53465 0.0
H2663 H 0.37159 0.14968 0.53315 0.0
H2664 H 0.39235 0.21933 0.57737 0.0
H2665 H 0.3313 0.14576 0.57411 0.0
H2666 H 0.38163 0.23311 0.54194 0.0
H2667 H 0.40185 0.22131 0.53961 0.0
H2668 H 0.40618 0.24073 0.5564 0.0
H2669 H 0.30692 0.14312 0.53782 0.0
H2670 H 0.30885 0.12393 0.55126 0.0
H2671 H 0.3273 0.13142 0.53579 0.0
C2672 C 0.88495 0.19746 0.517 0.0
C2673 C 0.86527 0.18159 0.5063 0.0
C2674 C 0.88094 0.202 0.53175 0.0
C2675 C 0.85673 0.19016 0.53591 0.0
C2676 C 0.83674 0.17508 0.52498 0.0
C2677 C 0.84124 0.17117 0.51031 0.0
C2678 C 0.90268 0.21854 0.54304 0.0
C2679 C 0.81064 0.16204 0.52896 0.0
C2680 C 0.84615 0.17391 0.57567 0.0
C2681 C 0.83927 0.19049 0.58136 0.0
C2682 C 0.85249 0.17408 0.56101 0.0
C2683 C 0.85232 0.19151 0.55189 0.0
C2684 C 0.84629 0.20892 0.55778 0.0
C2685 C 0.83954 0.20802 0.57242 0.0
C2686 C 0.85839 0.15492 0.55509 0.0
C2687 C 0.84643 0.2281 0.54849 0.0
H2688 H 0.90357 0.20553 0.51403 0.0
H2689 H 0.82588 0.1594 0.50201 0.0
H2690 H 0.89922 0.23183 0.54952 0.0
H2691 H 0.90554 0.20739 0.55114 0.0
H2692 H 0.91981 0.22884 0.53764 0.0
H2693 H 0.79707 0.15216 0.51897 0.0
H2694 H 0.8085 0.14856 0.53695 0.0
H2695 H 0.80626 0.17529 0.53458 0.0
H2696 H 0.84567 0.16017 0.58252 0.0
H2697 H 0.83439 0.22095 0.57688 0.0
H2698 H 0.87655 0.16381 0.55071 0.0
H2699 H 0.84454 0.14292 0.54564 0.0
H2700 H 0.85859 0.14327 0.56381 0.0
H2701 H 0.86408 0.2379 0.54357 0.0
H2702 H 0.84364 0.24172 0.55517 0.0
H2703 H 0.83163 0.21915 0.53906 0.0
C2704 C 0.83552 0.67771 0.50771 0.0
C2705 C 0.85944 0.69578 0.5056 0.0
C2706 C 0.83002 0.66804 0.52151 0.0
C2707 C 0.84891 0.67657 0.53349 0.0
C2708 C 0.87323 0.69427 0.53132 0.0
C2709 C 0.8782 0.70369 0.5174 0.0
C2710 C 0.80387 0.64914 0.52338 0.0
C2711 C 0.89388 0.70379 0.54382 0.0
C2712 C 0.83072 0.67231 0.57311 0.0
C2713 C 0.83146 0.65151 0.57702 0.0
C2714 C 0.83638 0.68063 0.559 0.0
C2715 C 0.84297 0.66787 0.54851 0.0
C2716 C 0.84371 0.64683 0.55236 0.0
C2717 C 0.83788 0.63886 0.56656 0.0
C2718 C 0.8352 0.70305 0.55529 0.0
C2719 C 0.85077 0.63283 0.54149 0.0
H2720 H 0.821 0.67119 0.49857 0.0
H2721 H 0.89667 0.71782 0.51591 0.0
H2722 H 0.80312 0.63253 0.52736 0.0
H2723 H 0.79676 0.65656 0.53199 0.0
H2724 H 0.79152 0.64366 0.51278 0.0
H2725 H 0.912 0.71639 0.54005 0.0
H2726 H 0.89045 0.71376 0.55308 0.0
H2727 H 0.89469 0.6883 0.54846 0.0
H2728 H 0.82543 0.68196 0.58107 0.0
H2729 H 0.83873 0.62293 0.56959 0.0
H2730 H 0.82175 0.69829 0.54533 0.0
H2731 H 0.85333 0.71735 0.55242 0.0
H2732 H 0.82983 0.71092 0.56471 0.0
H2733 H 0.83806 0.62624 0.53102 0.0
H2734 H 0.85042 0.6168 0.54619 0.0
H2735 H 0.86949 0.64511 0.53842 0.0
loop_
_geom_bond_atom_site_label_1
_geom_bond_atom_site_label_2
_geom_bond_distance
_geom_bond_site_symmetry_2
_ccdc_geom_bond_type
C0 C1 1.384 . S
C0 H13 0.947 . S
C0 C35 1.382 . S
C1 C0 1.384 . S
C1 C2 1.378 . S
C2 C1 1.378 . S
C2 C3 1.378 . S
C2 H14 0.952 . S
C3 C2 1.378 . S
C3 H15 0.950 . S
C3 C34 1.383 . S
H4 C23 0.947 . S
H5 C24 0.946 . S
H6 C26 0.953 . S
H7 C27 0.945 . S
H8 C29 0.952 . S
H9 C30 0.949 . S
H10 C32 0.950 . S
H11 C33 0.948 . S
H12 C35 0.951 . S
H13 C0 0.947 . S
H14 C2 0.952 . S
H15 C3 0.950 . S
N16 C19 1.382 . S
N16 C21 1.363 . S
N17 C19 1.371 . S
N17 C20 1.372 . S
N18 C20 1.361 . S
N18 C21 1.377 . S
C19 N16 1.382 . S
C19 N17 1.371 . S
C19 C22 1.480 . S
C20 N17 1.372 . S
C20 N18 1.361 . S
C20 C28 1.457 . S
C21 N16 1.363 . S
C21 N18 1.377 . S
C21 C34 1.479 . S
C22 C19 1.480 . S
C22 C23 1.383 . S
C22 C27 1.385 . S
C23 H4 0.947 . S
C23 C22 1.383 . S
C23 C24 1.388 . S
C24 H5 0.946 . S
C24 C23 1.388 . S
C24 C25 1.384 . S
C25 C24 1.384 . S
C25 C26 1.377 . S
C26 H6 0.953 . S
C26 C25 1.377 . S
C26 C27 1.369 . S
C27 H7 0.945 . S
C27 C22 1.385 . S
C27 C26 1.369 . S
C28 C20 1.457 . S
C28 C29 1.372 . S
C28 C33 1.364 . S
C29 H8 0.952 . S
C29 C28 1.372 . S
C29 C30 1.389 . S
C30 H9 0.949 . S
C30 C29 1.389 . S
C30 C31 1.387 . S
C31 C30 1.387 . S
C31 C32 1.372 . S
C32 H10 0.950 . S
C32 C31 1.372 . S
C32 C33 1.379 . S
C33 H11 0.948 . S
C33 C28 1.364 . S
C33 C32 1.379 . S
C34 C3 1.383 . S
C34 C21 1.479 . S
C34 C35 1.398 . S
C35 C0 1.382 . S
C35 H12 0.951 . S
C35 C34 1.398 . S
C36 C37 1.384 . S
C36 H49 0.947 . S
C36 C71 1.382 . S
C37 C36 1.384 . S
C37 C38 1.378 . S
C38 C37 1.378 . S
C38 C39 1.378 . S
C38 H50 0.952 . S
C39 C38 1.378 . S
C39 H51 0.950 . S
C39 C70 1.383 . S
H40 C59 0.947 . S
H41 C60 0.946 . S
H42 C62 0.953 . S
H43 C63 0.945 . S
H44 C65 0.952 . S
H45 C66 0.949 . S
H46 C68 0.950 . S
H47 C69 0.948 . S
H48 C71 0.951 . S
H49 C36 0.947 . S
H50 C38 0.952 . S
H51 C39 0.950 . S
N52 C55 1.382 . S
N52 C57 1.363 . S
N53 C55 1.371 . S
N53 C56 1.372 . S
N54 C56 1.361 . S
N54 C57 1.377 . S
C55 N52 1.382 . S
C55 N53 1.371 . S
C55 C58 1.480 . S
C56 N53 1.372 . S
C56 N54 1.361 . S
C56 C64 1.457 . S
C57 N52 1.363 . S
C57 N54 1.377 . S
C57 C70 1.479 . S
C58 C55 1.480 . S
C58 C59 1.383 . S
C58 C63 1.385 . S
C59 H40 0.947 . S
C59 C58 1.383 . S
C59 C60 1.388 . S
C60 H41 0.946 . S
C60 C59 1.388 . S
C60 C61 1.384 . S
C61 C60 1.384 . S
C61 C62 1.377 . S
C62 H42 0.953 . S
C62 C61 1.377 . S
C62 C63 1.369 . S
C63 H43 0.945 . S
C63 C58 1.385 . S
C63 C62 1.369 . S
C64 C56 1.457 . S
C64 C65 1.372 . S
C64 C69 1.364 . S
C65 H44 0.952 . S
C65 C64 1.372 . S
C65 C66 1.389 . S
C66 H45 0.949 . S
C66 C65 1.389 . S
C66 C67 1.387 . S
C67 C66 1.387 . S
C67 C68 1.372 . S
C68 H46 0.950 . S
C68 C67 1.372 . S
C68 C69 1.379 . S
C69 H47 0.948 . S
C69 C64 1.364 . S
C69 C68 1.379 . S
C70 C39 1.383 . S
C70 C57 1.479 . S
C70 C71 1.398 . S
C71 C36 1.382 . S
C71 H48 0.951 . S
C71 C70 1.398 . S
C72 C73 1.384 . S
C72 H85 0.947 . S
C72 C107 1.382 . S
C73 C72 1.384 . S
C73 C74 1.378 . S
C74 C73 1.378 . S
C74 C75 1.378 . S
C74 H86 0.952 . S
C75 C74 1.378 . S
C75 H87 0.950 . S
C75 C106 1.383 . S
H76 C95 0.947 . S
H77 C96 0.946 . S
H78 C98 0.953 . S
H79 C99 0.945 . S
H80 C101 0.952 . S
H81 C102 0.949 . S
H82 C104 0.950 . S
H83 C105 0.948 . S
H84 C107 0.951 . S
H85 C72 0.947 . S
H86 C74 0.952 . S
H87 C75 0.950 . S
N88 C91 1.382 . S
N88 C93 1.363 . S
N89 C91 1.371 . S
N89 C92 1.372 . S
N90 C92 1.361 . S
N90 C93 1.377 . S
C91 N88 1.382 . S
C91 N89 1.371 . S
C91 C94 1.480 . S
C92 N89 1.372 . S
C92 N90 1.361 . S
C92 C100 1.457 . S
C93 N88 1.363 . S
C93 N90 1.377 . S
C93 C106 1.479 . S
C94 C91 1.480 . S
C94 C95 1.383 . S
C94 C99 1.385 . S
C95 H76 0.947 . S
C95 C94 1.383 . S
C95 C96 1.388 . S
C96 H77 0.946 . S
C96 C95 1.388 . S
C96 C97 1.384 . S
C97 C96 1.384 . S
C97 C98 1.377 . S
C98 H78 0.953 . S
C98 C97 1.377 . S
C98 C99 1.369 . S
C99 H79 0.945 . S
C99 C94 1.385 . S
C99 C98 1.369 . S
C100 C92 1.457 . S
C100 C101 1.372 . S
C100 C105 1.364 . S
C101 H80 0.952 . S
C101 C100 1.372 . S
C101 C102 1.389 . S
C102 H81 0.949 . S
C102 C101 1.389 . S
C102 C103 1.387 . S
C103 C102 1.387 . S
C103 C104 1.372 . S
C104 H82 0.950 . S
C104 C103 1.372 . S
C104 C105 1.379 . S
C105 H83 0.948 . S
C105 C100 1.364 . S
C105 C104 1.379 . S
C106 C75 1.383 . S
C106 C93 1.479 . S
C106 C107 1.398 . S
C107 C72 1.382 . S
C107 H84 0.951 . S
C107 C106 1.398 . S
C108 C109 1.384 . S
C108 H121 0.947 . S
C108 C143 1.382 . S
C109 C108 1.384 . S
C109 C110 1.378 . S
C110 C109 1.378 . S
C110 C111 1.378 . S
C110 H122 0.952 . S
C111 C110 1.378 . S
C111 H123 0.950 . S
C111 C142 1.383 . S
H112 C131 0.947 . S
H113 C132 0.946 . S
H114 C134 0.953 . S
H115 C135 0.945 . S
H116 C137 0.952 . S
H117 C138 0.949 . S
H118 C140 0.950 . S
H119 C141 0.948 . S
H120 C143 0.951 . S
H121 C108 0.947 . S
H122 C110 0.952 . S
H123 C111 0.950 . S
N124 C127 1.382 . S
N124 C129 1.363 . S
N125 C127 1.371 . S
N125 C128 1.372 . S
N126 C128 1.361 . S
N126 C129 1.377 . S
C127 N124 1.382 . S
C127 N125 1.371 . S
C127 C130 1.480 . S
C128 N125 1.372 . S
C128 N126 1.361 . S
C128 C136 1.457 . S
C129 N124 1.363 . S
C129 N126 1.377 . S
C129 C142 1.479 . S
C130 C127 1.480 . S
C130 C131 1.383 . S
C130 C135 1.385 . S
C131 H112 0.947 . S
C131 C130 1.383 . S
C131 C132 1.388 . S
C132 H113 0.946 . S
C132 C131 1.388 . S
C132 C133 1.384 . S
C133 C132 1.384 . S
C133 C134 1.377 . S
C134 H114 0.953 . S
C134 C133 1.377 . S
C134 C135 1.369 . S
C135 H115 0.945 . S
C135 C130 1.385 . S
C135 C134 1.369 . S
C136 C128 1.457 . S
C136 C137 1.372 . S
C136 C141 1.364 . S
C137 H116 0.952 . S
C137 C136 1.372 . S
C137 C138 1.389 . S
C138 H117 0.949 . S
C138 C137 1.389 . S
C138 C139 1.387 . S
C139 C138 1.387 . S
C139 C140 1.372 . S
C140 H118 0.950 . S
C140 C139 1.372 . S
C140 C141 1.379 . S
C141 H119 0.948 . S
C141 C136 1.364 . S
C141 C140 1.379 . S
C142 C111 1.383 . S
C142 C129 1.479 . S
C142 C143 1.398 . S
C143 C108 1.382 . S
C143 H120 0.951 . S
C143 C142 1.398 . S
C144 C145 1.384 . S
C144 H157 0.947 . S
C144 C179 1.382 . S
C145 C144 1.384 . S
C145 C146 1.378 . S
C146 C145 1.378 . S
C146 C147 1.378 . S
C146 H158 0.952 . S
C147 C146 1.378 . S
C147 H159 0.950 . S
C147 C178 1.383 . S
H148 C167 0.947 . S
H149 C168 0.946 . S
H150 C170 0.953 . S
H151 C171 0.945 . S
H152 C173 0.952 . S
H153 C174 0.949 . S
H154 C176 0.950 . S
H155 C177 0.948 . S
H156 C179 0.951 . S
H157 C144 0.947 . S
H158 C146 0.952 . S
H159 C147 0.950 . S
N160 C163 1.382 . S
N160 C165 1.363 . S
N161 C163 1.371 . S
N161 C164 1.372 . S
N162 C164 1.361 . S
N162 C165 1.377 . S
C163 N160 1.382 . S
C163 N161 1.371 . S
C163 C166 1.480 . S
C164 N161 1.372 . S
C164 N162 1.361 . S
C164 C172 1.457 . S
C165 N160 1.363 . S
C165 N162 1.377 . S
C165 C178 1.479 . S
C166 C163 1.480 . S
C166 C167 1.383 . S
C166 C171 1.385 . S
C167 H148 0.947 . S
C167 C166 1.383 . S
C167 C168 1.388 . S
C168 H149 0.946 . S
C168 C167 1.388 . S
C168 C169 1.384 . S
C169 C168 1.384 . S
C169 C170 1.377 . S
C170 H150 0.953 . S
C170 C169 1.377 . S
C170 C171 1.369 . S
C171 H151 0.945 . S
C171 C166 1.385 . S
C171 C170 1.369 . S
C172 C164 1.457 . S
C172 C173 1.372 . S
C172 C177 1.364 . S
C173 H152 0.952 . S
C173 C172 1.372 . S
C173 C174 1.389 . S
C174 H153 0.949 . S
C174 C173 1.389 . S
C174 C175 1.387 . S
C175 C174 1.387 . S
C175 C176 1.372 . S
C176 H154 0.950 . S
C176 C175 1.372 . S
C176 C177 1.379 . S
C177 H155 0.948 . S
C177 C172 1.364 . S
C177 C176 1.379 . S
C178 C147 1.383 . S
C178 C165 1.479 . S
C178 C179 1.398 . S
C179 C144 1.382 . S
C179 H156 0.951 . S
C179 C178 1.398 . S
C180 C181 1.384 . S
C180 H193 0.947 . S
C180 C215 1.382 . S
C181 C180 1.384 . S
C181 C182 1.378 . S
C182 C181 1.378 . S
C182 C183 1.378 . S
C182 H194 0.952 . S
C183 C182 1.378 . S
C183 H195 0.950 . S
C183 C214 1.383 . S
H184 C203 0.947 . S
H185 C204 0.946 . S
H186 C206 0.953 . S
H187 C207 0.945 . S
H188 C209 0.952 . S
H189 C210 0.949 . S
H190 C212 0.950 . S
H191 C213 0.948 . S
H192 C215 0.951 . S
H193 C180 0.947 . S
H194 C182 0.952 . S
H195 C183 0.950 . S
N196 C199 1.382 . S
N196 C201 1.363 . S
N197 C199 1.371 . S
N197 C200 1.372 . S
N198 C200 1.361 . S
N198 C201 1.377 . S
C199 N196 1.382 . S
C199 N197 1.371 . S
C199 C202 1.480 . S
C200 N197 1.372 . S
C200 N198 1.361 . S
C200 C208 1.457 . S
C201 N196 1.363 . S
C201 N198 1.377 . S
C201 C214 1.479 . S
C202 C199 1.480 . S
C202 C203 1.383 . S
C202 C207 1.385 . S
C203 H184 0.947 . S
C203 C202 1.383 . S
C203 C204 1.388 . S
C204 H185 0.946 . S
C204 C203 1.388 . S
C204 C205 1.384 . S
C205 C204 1.384 . S
C205 C206 1.377 . S
C206 H186 0.953 . S
C206 C205 1.377 . S
C206 C207 1.369 . S
C207 H187 0.945 . S
C207 C202 1.385 . S
C207 C206 1.369 . S
C208 C200 1.457 . S
C208 C209 1.372 . S
C208 C213 1.364 . S
C209 H188 0.952 . S
C209 C208 1.372 . S
C209 C210 1.389 . S
C210 H189 0.949 . S
C210 C209 1.389 . S
C210 C211 1.387 . S
C211 C210 1.387 . S
C211 C212 1.372 . S
C212 H190 0.950 . S
C212 C211 1.372 . S
C212 C213 1.379 . S
C213 H191 0.948 . S
C213 C208 1.364 . S
C213 C212 1.379 . S
C214 C183 1.383 . S
C214 C201 1.479 . S
C214 C215 1.398 . S
C215 C180 1.382 . S
C215 H192 0.951 . S
C215 C214 1.398 . S
C216 C217 1.384 . S
C216 H229 0.947 . S
C216 C251 1.382 . S
C217 C216 1.384 . S
C217 C218 1.378 . S
C218 C217 1.378 . S
C218 C219 1.378 . S
C218 H230 0.952 . S
C219 C218 1.378 . S
C219 H231 0.950 . S
C219 C250 1.383 . S
H220 C239 0.947 . S
H221 C240 0.946 . S
H222 C242 0.953 . S
H223 C243 0.945 . S
H224 C245 0.952 . S
H225 C246 0.949 . S
H226 C248 0.950 . S
H227 C249 0.948 . S
H228 C251 0.951 . S
H229 C216 0.947 . S
H230 C218 0.952 . S
H231 C219 0.950 . S
N232 C235 1.382 . S
N232 C237 1.363 . S
N233 C235 1.371 . S
N233 C236 1.372 . S
N234 C236 1.361 . S
N234 C237 1.377 . S
C235 N232 1.382 . S
C235 N233 1.371 . S
C235 C238 1.480 . S
C236 N233 1.372 . S
C236 N234 1.361 . S
C236 C244 1.457 . S
C237 N232 1.363 . S
C237 N234 1.377 . S
C237 C250 1.479 . S
C238 C235 1.480 . S
C238 C239 1.383 . S
C238 C243 1.385 . S
C239 H220 0.947 . S
C239 C238 1.383 . S
C239 C240 1.388 . S
C240 H221 0.946 . S
C240 C239 1.388 . S
C240 C241 1.384 . S
C241 C240 1.384 . S
C241 C242 1.377 . S
C242 H222 0.953 . S
C242 C241 1.377 . S
C242 C243 1.369 . S
C243 H223 0.945 . S
C243 C238 1.385 . S
C243 C242 1.369 . S
C244 C236 1.457 . S
C244 C245 1.372 . S
C244 C249 1.364 . S
C245 H224 0.952 . S
C245 C244 1.372 . S
C245 C246 1.389 . S
C246 H225 0.949 . S
C246 C245 1.389 . S
C246 C247 1.387 . S
C247 C246 1.387 . S
C247 C248 1.372 . S
C248 H226 0.950 . S
C248 C247 1.372 . S
C248 C249 1.379 . S
C249 H227 0.948 . S
C249 C244 1.364 . S
C249 C248 1.379 . S
C250 C219 1.383 . S
C250 C237 1.479 . S
C250 C251 1.398 . S
C251 C216 1.382 . S
C251 H228 0.951 . S
C251 C250 1.398 . S
C252 C253 1.384 . S
C252 H265 0.947 . S
C252 C287 1.382 . S
C253 C252 1.384 . S
C253 C254 1.378 . S
C254 C253 1.378 . S
C254 C255 1.378 . S
C254 H266 0.952 . S
C255 C254 1.378 . S
C255 H267 0.950 . S
C255 C286 1.383 . S
H256 C275 0.947 . S
H257 C276 0.946 . S
H258 C278 0.953 . S
H259 C279 0.945 . S
H260 C281 0.952 . S
H261 C282 0.949 . S
H262 C284 0.950 . S
H263 C285 0.948 . S
H264 C287 0.951 . S
H265 C252 0.947 . S
H266 C254 0.952 . S
H267 C255 0.950 . S
N268 C271 1.382 . S
N268 C273 1.363 . S
N269 C271 1.371 . S
N269 C272 1.372 . S
N270 C272 1.361 . S
N270 C273 1.377 . S
C271 N268 1.382 . S
C271 N269 1.371 . S
C271 C274 1.480 . S
C272 N269 1.372 . S
C272 N270 1.361 . S
C272 C280 1.457 . S
C273 N268 1.363 . S
C273 N270 1.377 . S
C273 C286 1.479 . S
C274 C271 1.480 . S
C274 C275 1.383 . S
C274 C279 1.385 . S
C275 H256 0.947 . S
C275 C274 1.383 . S
C275 C276 1.388 . S
C276 H257 0.946 . S
C276 C275 1.388 . S
C276 C277 1.384 . S
C277 C276 1.384 . S
C277 C278 1.377 . S
C278 H258 0.953 . S
C278 C277 1.377 . S
C278 C279 1.369 . S
C279 H259 0.945 . S
C279 C274 1.385 . S
C279 C278 1.369 . S
C280 C272 1.457 . S
C280 C281 1.372 . S
C280 C285 1.364 . S
C281 H260 0.952 . S
C281 C280 1.372 . S
C281 C282 1.389 . S
C282 H261 0.949 . S
C282 C281 1.389 . S
C282 C283 1.387 . S
C283 C282 1.387 . S
C283 C284 1.372 . S
C284 H262 0.950 . S
C284 C283 1.372 . S
C284 C285 1.379 . S
C285 H263 0.948 . S
C285 C280 1.364 . S
C285 C284 1.379 . S
C286 C255 1.383 . S
C286 C273 1.479 . S
C286 C287 1.398 . S
C287 C252 1.382 . S
C287 H264 0.951 . S
C287 C286 1.398 . S
C288 C289 1.384 . S
C288 H301 0.947 . S
C288 C323 1.382 . S
C289 C288 1.384 . S
C289 C290 1.378 . S
C290 C289 1.378 . S
C290 C291 1.378 . S
C290 H302 0.952 . S
C291 C290 1.378 . S
C291 H303 0.950 . S
C291 C322 1.383 . S
H292 C311 0.947 . S
H293 C312 0.946 . S
H294 C314 0.953 . S
H295 C315 0.945 . S
H296 C317 0.952 . S
H297 C318 0.949 . S
H298 C320 0.950 . S
H299 C321 0.948 . S
H300 C323 0.951 . S
H301 C288 0.947 . S
H302 C290 0.952 . S
H303 C291 0.950 . S
N304 C307 1.382 . S
N304 C309 1.363 . S
N305 C307 1.371 . S
N305 C308 1.372 . S
N306 C308 1.361 . S
N306 C309 1.377 . S
C307 N304 1.382 . S
C307 N305 1.371 . S
C307 C310 1.480 . S
C308 N305 1.372 . S
C308 N306 1.361 . S
C308 C316 1.457 . S
C309 N304 1.363 . S
C309 N306 1.377 . S
C309 C322 1.479 . S
C310 C307 1.480 . S
C310 C311 1.383 . S
C310 C315 1.385 . S
C311 H292 0.947 . S
C311 C310 1.383 . S
C311 C312 1.388 . S
C312 H293 0.946 . S
C312 C311 1.388 . S
C312 C313 1.384 . S
C313 C312 1.384 . S
C313 C314 1.377 . S
C314 H294 0.953 . S
C314 C313 1.377 . S
C314 C315 1.369 . S
C315 H295 0.945 . S
C315 C310 1.385 . S
C315 C314 1.369 . S
C316 C308 1.457 . S
C316 C317 1.372 . S
C316 C321 1.364 . S
C317 H296 0.952 . S
C317 C316 1.372 . S
C317 C318 1.389 . S
C318 H297 0.949 . S
C318 C317 1.389 . S
C318 C319 1.387 . S
C319 C318 1.387 . S
C319 C320 1.372 . S
C320 H298 0.950 . S
C320 C319 1.372 . S
C320 C321 1.379 . S
C321 H299 0.948 . S
C321 C316 1.364 . S
C321 C320 1.379 . S
C322 C291 1.383 . S
C322 C309 1.479 . S
C322 C323 1.398 . S
C323 C288 1.382 . S
C323 H300 0.951 . S
C323 C322 1.398 . S
C324 C325 1.384 . S
C324 H337 0.947 . S
C324 C359 1.382 . S
C325 C324 1.384 . S
C325 C326 1.378 . S
C326 C325 1.378 . S
C326 C327 1.378 . S
C326 H338 0.952 . S
C327 C326 1.378 . S
C327 H339 0.950 . S
C327 C358 1.383 . S
H328 C347 0.947 . S
H329 C348 0.946 . S
H330 C350 0.953 . S
H331 C351 0.945 . S
H332 C353 0.952 . S
H333 C354 0.949 . S
H334 C356 0.950 . S
H335 C357 0.948 . S
H336 C359 0.951 . S
H337 C324 0.947 . S
H338 C326 0.952 . S
H339 C327 0.950 . S
N340 C343 1.382 . S
N340 C345 1.363 . S
N341 C343 1.371 . S
N341 C344 1.372 . S
N342 C344 1.361 . S
N342 C345 1.377 . S
C343 N340 1.382 . S
C343 N341 1.371 . S
C343 C346 1.480 . S
C344 N341 1.372 . S
C344 N342 1.361 . S
C344 C352 1.457 . S
C345 N340 1.363 . S
C345 N342 1.377 . S
C345 C358 1.479 . S
C346 C343 1.480 . S
C346 C347 1.383 . S
C346 C351 1.385 . S
C347 H328 0.947 . S
C347 C346 1.383 . S
C347 C348 1.388 . S
C348 H329 0.946 . S
C348 C347 1.388 . S
C348 C349 1.384 . S
C349 C348 1.384 . S
C349 C350 1.377 . S
C350 H330 0.953 . S
C350 C349 1.377 . S
C350 C351 1.369 . S
C351 H331 0.945 . S
C351 C346 1.385 . S
C351 C350 1.369 . S
C352 C344 1.457 . S
C352 C353 1.372 . S
C352 C357 1.364 . S
C353 H332 0.952 . S
C353 C352 1.372 . S
C353 C354 1.389 . S
C354 H333 0.949 . S
C354 C353 1.389 . S
C354 C355 1.387 . S
C355 C354 1.387 . S
C355 C356 1.372 . S
C356 H334 0.950 . S
C356 C355 1.372 . S
C356 C357 1.379 . S
C357 H335 0.948 . S
C357 C352 1.364 . S
C357 C356 1.379 . S
C358 C327 1.383 . S
C358 C345 1.479 . S
C358 C359 1.398 . S
C359 C324 1.382 . S
C359 H336 0.951 . S
C359 C358 1.398 . S
C360 C361 1.384 . S
C360 H373 0.947 . S
C360 C395 1.382 . S
C361 C360 1.384 . S
C361 C362 1.378 . S
C362 C361 1.378 . S
C362 C363 1.378 . S
C362 H374 0.952 . S
C363 C362 1.378 . S
C363 H375 0.950 . S
C363 C394 1.383 . S
H364 C383 0.947 . S
H365 C384 0.946 . S
H366 C386 0.953 . S
H367 C387 0.945 . S
H368 C389 0.952 . S
H369 C390 0.949 . S
H370 C392 0.950 . S
H371 C393 0.948 . S
H372 C395 0.951 . S
H373 C360 0.947 . S
H374 C362 0.952 . S
H375 C363 0.950 . S
N376 C379 1.382 . S
N376 C381 1.363 . S
N377 C379 1.371 . S
N377 C380 1.372 . S
N378 C380 1.361 . S
N378 C381 1.377 . S
C379 N376 1.382 . S
C379 N377 1.371 . S
C379 C382 1.480 . S
C380 N377 1.372 . S
C380 N378 1.361 . S
C380 C388 1.457 . S
C381 N376 1.363 . S
C381 N378 1.377 . S
C381 C394 1.479 . S
C382 C379 1.480 . S
C382 C383 1.383 . S
C382 C387 1.385 . S
C383 H364 0.947 . S
C383 C382 1.383 . S
C383 C384 1.388 . S
C384 H365 0.946 . S
C384 C383 1.388 . S
C384 C385 1.384 . S
C385 C384 1.384 . S
C385 C386 1.377 . S
C386 H366 0.953 . S
C386 C385 1.377 . S
C386 C387 1.369 . S
C387 H367 0.945 . S
C387 C382 1.385 . S
C387 C386 1.369 . S
C388 C380 1.457 . S
C388 C389 1.372 . S
C388 C393 1.364 . S
C389 H368 0.952 . S
C389 C388 1.372 . S
C389 C390 1.389 . S
C390 H369 0.949 . S
C390 C389 1.389 . S
C390 C391 1.387 . S
C391 C390 1.387 . S
C391 C392 1.372 . S
C392 H370 0.950 . S
C392 C391 1.372 . S
C392 C393 1.379 . S
C393 H371 0.948 . S
C393 C388 1.364 . S
C393 C392 1.379 . S
C394 C363 1.383 . S
C394 C381 1.479 . S
C394 C395 1.398 . S
C395 C360 1.382 . S
C395 H372 0.951 . S
C395 C394 1.398 . S
C396 C397 1.384 . S
C396 H409 0.947 . S
C396 C431 1.382 . S
C397 C396 1.384 . S
C397 C398 1.378 . S
C398 C397 1.378 . S
C398 C399 1.378 . S
C398 H410 0.952 . S
C399 C398 1.378 . S
C399 H411 0.950 . S
C399 C430 1.383 . S
H400 C419 0.947 . S
H401 C420 0.946 . S
H402 C422 0.953 . S
H403 C423 0.945 . S
H404 C425 0.952 . S
H405 C426 0.949 . S
H406 C428 0.950 . S
H407 C429 0.948 . S
H408 C431 0.951 . S
H409 C396 0.947 . S
H410 C398 0.952 . S
H411 C399 0.950 . S
N412 C415 1.382 . S
N412 C417 1.363 . S
N413 C415 1.371 . S
N413 C416 1.372 . S
N414 C416 1.361 . S
N414 C417 1.377 . S
C415 N412 1.382 . S
C415 N413 1.371 . S
C415 C418 1.480 . S
C416 N413 1.372 . S
C416 N414 1.361 . S
C416 C424 1.457 . S
C417 N412 1.363 . S
C417 N414 1.377 . S
C417 C430 1.479 . S
C418 C415 1.480 . S
C418 C419 1.383 . S
C418 C423 1.385 . S
C419 H400 0.947 . S
C419 C418 1.383 . S
C419 C420 1.388 . S
C420 H401 0.946 . S
C420 C419 1.388 . S
C420 C421 1.384 . S
C421 C420 1.384 . S
C421 C422 1.377 . S
C422 H402 0.953 . S
C422 C421 1.377 . S
C422 C423 1.369 . S
C423 H403 0.945 . S
C423 C418 1.385 . S
C423 C422 1.369 . S
C424 C416 1.457 . S
C424 C425 1.372 . S
C424 C429 1.364 . S
C425 H404 0.952 . S
C425 C424 1.372 . S
C425 C426 1.389 . S
C426 H405 0.949 . S
C426 C425 1.389 . S
C426 C427 1.387 . S
C427 C426 1.387 . S
C427 C428 1.372 . S
C428 H406 0.950 . S
C428 C427 1.372 . S
C428 C429 1.379 . S
C429 H407 0.948 . S
C429 C424 1.364 . S
C429 C428 1.379 . S
C430 C399 1.383 . S
C430 C417 1.479 . S
C430 C431 1.398 . S
C431 C396 1.382 . S
C431 H408 0.951 . S
C431 C430 1.398 . S
C432 C433 1.384 . S
C432 H445 0.947 . S
C432 C467 1.382 . S
C433 C432 1.384 . S
C433 C434 1.378 . S
C434 C433 1.378 . S
C434 C435 1.378 . S
C434 H446 0.952 . S
C435 C434 1.378 . S
C435 H447 0.950 . S
C435 C466 1.383 . S
H436 C455 0.947 . S
H437 C456 0.946 . S
H438 C458 0.953 . S
H439 C459 0.945 . S
H440 C461 0.952 . S
H441 C462 0.949 . S
H442 C464 0.950 . S
H443 C465 0.948 . S
H444 C467 0.951 . S
H445 C432 0.947 . S
H446 C434 0.952 . S
H447 C435 0.950 . S
N448 C451 1.382 . S
N448 C453 1.363 . S
N449 C451 1.371 . S
N449 C452 1.372 . S
N450 C452 1.361 . S
N450 C453 1.377 . S
C451 N448 1.382 . S
C451 N449 1.371 . S
C451 C454 1.480 . S
C452 N449 1.372 . S
C452 N450 1.361 . S
C452 C460 1.457 . S
C453 N448 1.363 . S
C453 N450 1.377 . S
C453 C466 1.479 . S
C454 C451 1.480 . S
C454 C455 1.383 . S
C454 C459 1.385 . S
C455 H436 0.947 . S
C455 C454 1.383 . S
C455 C456 1.388 . S
C456 H437 0.946 . S
C456 C455 1.388 . S
C456 C457 1.384 . S
C457 C456 1.384 . S
C457 C458 1.377 . S
C458 H438 0.953 . S
C458 C457 1.377 . S
C458 C459 1.369 . S
C459 H439 0.945 . S
C459 C454 1.385 . S
C459 C458 1.369 . S
C460 C452 1.457 . S
C460 C461 1.372 . S
C460 C465 1.364 . S
C461 H440 0.952 . S
C461 C460 1.372 . S
C461 C462 1.389 . S
C462 H441 0.949 . S
C462 C461 1.389 . S
C462 C463 1.387 . S
C463 C462 1.387 . S
C463 C464 1.372 . S
C464 H442 0.950 . S
C464 C463 1.372 . S
C464 C465 1.379 . S
C465 H443 0.948 . S
C465 C460 1.364 . S
C465 C464 1.379 . S
C466 C435 1.383 . S
C466 C453 1.479 . S
C466 C467 1.398 . S
C467 C432 1.382 . S
C467 H444 0.951 . S
C467 C466 1.398 . S
C468 C469 1.384 . S
C468 H481 0.947 . S
C468 C503 1.382 . S
C469 C468 1.384 . S
C469 C470 1.378 . S
C470 C469 1.378 . S
C470 C471 1.378 . S
C470 H482 0.952 . S
C471 C470 1.378 . S
C471 H483 0.950 . S
C471 C502 1.383 . S
H472 C491 0.947 . S
H473 C492 0.946 . S
H474 C494 0.953 . S
H475 C495 0.945 . S
H476 C497 0.952 . S
H477 C498 0.949 . S
H478 C500 0.950 . S
H479 C501 0.948 . S
H480 C503 0.951 . S
H481 C468 0.947 . S
H482 C470 0.952 . S
H483 C471 0.950 . S
N484 C487 1.382 . S
N484 C489 1.363 . S
N485 C487 1.371 . S
N485 C488 1.372 . S
N486 C488 1.361 . S
N486 C489 1.377 . S
C487 N484 1.382 . S
C487 N485 1.371 . S
C487 C490 1.480 . S
C488 N485 1.372 . S
C488 N486 1.361 . S
C488 C496 1.457 . S
C489 N484 1.363 . S
C489 N486 1.377 . S
C489 C502 1.479 . S
C490 C487 1.480 . S
C490 C491 1.383 . S
C490 C495 1.385 . S
C491 H472 0.947 . S
C491 C490 1.383 . S
C491 C492 1.388 . S
C492 H473 0.946 . S
C492 C491 1.388 . S
C492 C493 1.384 . S
C493 C492 1.384 . S
C493 C494 1.377 . S
C494 H474 0.953 . S
C494 C493 1.377 . S
C494 C495 1.369 . S
C495 H475 0.945 . S
C495 C490 1.385 . S
C495 C494 1.369 . S
C496 C488 1.457 . S
C496 C497 1.372 . S
C496 C501 1.364 . S
C497 H476 0.952 . S
C497 C496 1.372 . S
C497 C498 1.389 . S
C498 H477 0.949 . S
C498 C497 1.389 . S
C498 C499 1.387 . S
C499 C498 1.387 . S
C499 C500 1.372 . S
C500 H478 0.950 . S
C500 C499 1.372 . S
C500 C501 1.379 . S
C501 H479 0.948 . S
C501 C496 1.364 . S
C501 C500 1.379 . S
C502 C471 1.383 . S
C502 C489 1.479 . S
C502 C503 1.398 . S
C503 C468 1.382 . S
C503 H480 0.951 . S
C503 C502 1.398 . S
C504 C505 1.384 . S
C504 H517 0.947 . S
C504 C539 1.382 . S
C505 C504 1.384 . S
C505 C506 1.378 . S
C506 C505 1.378 . S
C506 C507 1.378 . S
C506 H518 0.952 . S
C507 C506 1.378 . S
C507 H519 0.950 . S
C507 C538 1.383 . S
H508 C527 0.947 . S
H509 C528 0.946 . S
H510 C530 0.953 . S
H511 C531 0.945 . S
H512 C533 0.952 . S
H513 C534 0.949 . S
H514 C536 0.950 . S
H515 C537 0.948 . S
H516 C539 0.951 . S
H517 C504 0.947 . S
H518 C506 0.952 . S
H519 C507 0.950 . S
N520 C523 1.382 . S
N520 C525 1.363 . S
N521 C523 1.371 . S
N521 C524 1.372 . S
N522 C524 1.361 . S
N522 C525 1.377 . S
C523 N520 1.382 . S
C523 N521 1.371 . S
C523 C526 1.480 . S
C524 N521 1.372 . S
C524 N522 1.361 . S
C524 C532 1.457 . S
C525 N520 1.363 . S
C525 N522 1.377 . S
C525 C538 1.479 . S
C526 C523 1.480 . S
C526 C527 1.383 . S
C526 C531 1.385 . S
C527 H508 0.947 . S
C527 C526 1.383 . S
C527 C528 1.388 . S
C528 H509 0.946 . S
C528 C527 1.388 . S
C528 C529 1.384 . S
C529 C528 1.384 . S
C529 C530 1.377 . S
C530 H510 0.953 . S
C530 C529 1.377 . S
C530 C531 1.369 . S
C531 H511 0.945 . S
C531 C526 1.385 . S
C531 C530 1.369 . S
C532 C524 1.457 . S
C532 C533 1.372 . S
C532 C537 1.364 . S
C533 H512 0.952 . S
C533 C532 1.372 . S
C533 C534 1.389 . S
C534 H513 0.949 . S
C534 C533 1.389 . S
C534 C535 1.387 . S
C535 C534 1.387 . S
C535 C536 1.372 . S
C536 H514 0.950 . S
C536 C535 1.372 . S
C536 C537 1.379 . S
C537 H515 0.948 . S
C537 C532 1.364 . S
C537 C536 1.379 . S
C538 C507 1.383 . S
C538 C525 1.479 . S
C538 C539 1.398 . S
C539 C504 1.382 . S
C539 H516 0.951 . S
C539 C538 1.398 . S
C540 C541 1.384 . S
C540 H553 0.947 . S
C540 C575 1.382 . S
C541 C540 1.384 . S
C541 C542 1.378 . S
C542 C541 1.378 . S
C542 C543 1.378 . S
C542 H554 0.952 . S
C543 C542 1.378 . S
C543 H555 0.950 . S
C543 C574 1.383 . S
H544 C563 0.947 . S
H545 C564 0.946 . S
H546 C566 0.953 . S
H547 C567 0.945 . S
H548 C569 0.952 . S
H549 C570 0.949 . S
H550 C572 0.950 . S
H551 C573 0.948 . S
H552 C575 0.951 . S
H553 C540 0.947 . S
H554 C542 0.952 . S
H555 C543 0.950 . S
N556 C559 1.382 . S
N556 C561 1.363 . S
N557 C559 1.371 . S
N557 C560 1.372 . S
N558 C560 1.361 . S
N558 C561 1.377 . S
C559 N556 1.382 . S
C559 N557 1.371 . S
C559 C562 1.480 . S
C560 N557 1.372 . S
C560 N558 1.361 . S
C560 C568 1.457 . S
C561 N556 1.363 . S
C561 N558 1.377 . S
C561 C574 1.479 . S
C562 C559 1.480 . S
C562 C563 1.383 . S
C562 C567 1.385 . S
C563 H544 0.947 . S
C563 C562 1.383 . S
C563 C564 1.388 . S
C564 H545 0.946 . S
C564 C563 1.388 . S
C564 C565 1.384 . S
C565 C564 1.384 . S
C565 C566 1.377 . S
C566 H546 0.953 . S
C566 C565 1.377 . S
C566 C567 1.369 . S
C567 H547 0.945 . S
C567 C562 1.385 . S
C567 C566 1.369 . S
C568 C560 1.457 . S
C568 C569 1.372 . S
C568 C573 1.364 . S
C569 H548 0.952 . S
C569 C568 1.372 . S
C569 C570 1.389 . S
C570 H549 0.949 . S
C570 C569 1.389 . S
C570 C571 1.387 . S
C571 C570 1.387 . S
C571 C572 1.372 . S
C572 H550 0.950 . S
C572 C571 1.372 . S
C572 C573 1.379 . S
C573 H551 0.948 . S
C573 C568 1.364 . S
C573 C572 1.379 . S
C574 C543 1.383 . S
C574 C561 1.479 . S
C574 C575 1.398 . S
C575 C540 1.382 . S
C575 H552 0.951 . S
C575 C574 1.398 . S
C576 C577 1.384 . S
C576 H589 0.947 . S
C576 C611 1.382 . S
C577 C576 1.384 . S
C577 C578 1.378 . S
C578 C577 1.378 . S
C578 C579 1.378 . S
C578 H590 0.952 . S
C579 C578 1.378 . S
C579 H591 0.950 . S
C579 C610 1.383 . S
H580 C599 0.947 . S
H581 C600 0.946 . S
H582 C602 0.953 . S
H583 C603 0.945 . S
H584 C605 0.952 . S
H585 C606 0.949 . S
H586 C608 0.950 . S
H587 C609 0.948 . S
H588 C611 0.951 . S
H589 C576 0.947 . S
H590 C578 0.952 . S
H591 C579 0.950 . S
N592 C595 1.382 . S
N592 C597 1.363 . S
N593 C595 1.371 . S
N593 C596 1.372 . S
N594 C596 1.361 . S
N594 C597 1.377 . S
C595 N592 1.382 . S
C595 N593 1.371 . S
C595 C598 1.480 . S
C596 N593 1.372 . S
C596 N594 1.361 . S
C596 C604 1.457 . S
C597 N592 1.363 . S
C597 N594 1.377 . S
C597 C610 1.479 . S
C598 C595 1.480 . S
C598 C599 1.383 . S
C598 C603 1.385 . S
C599 H580 0.947 . S
C599 C598 1.383 . S
C599 C600 1.388 . S
C600 H581 0.946 . S
C600 C599 1.388 . S
C600 C601 1.384 . S
C601 C600 1.384 . S
C601 C602 1.377 . S
C602 H582 0.953 . S
C602 C601 1.377 . S
C602 C603 1.369 . S
C603 H583 0.945 . S
C603 C598 1.385 . S
C603 C602 1.369 . S
C604 C596 1.457 . S
C604 C605 1.372 . S
C604 C609 1.364 . S
C605 H584 0.952 . S
C605 C604 1.372 . S
C605 C606 1.389 . S
C606 H585 0.949 . S
C606 C605 1.389 . S
C606 C607 1.387 . S
C607 C606 1.387 . S
C607 C608 1.372 . S
C608 H586 0.950 . S
C608 C607 1.372 . S
C608 C609 1.379 . S
C609 H587 0.948 . S
C609 C604 1.364 . S
C609 C608 1.379 . S
C610 C579 1.383 . S
C610 C597 1.479 . S
C610 C611 1.398 . S
C611 C576 1.382 . S
C611 H588 0.951 . S
C611 C610 1.398 . S
C612 C613 1.384 . S
C612 H625 0.947 . S
C612 C647 1.382 . S
C613 C612 1.384 . S
C613 C614 1.378 . S
C614 C613 1.378 . S
C614 C615 1.378 . S
C614 H626 0.952 . S
C615 C614 1.378 . S
C615 H627 0.950 . S
C615 C646 1.383 . S
H616 C635 0.947 . S
H617 C636 0.946 . S
H618 C638 0.953 . S
H619 C639 0.945 . S
H620 C641 0.952 . S
H621 C642 0.949 . S
H622 C644 0.950 . S
H623 C645 0.948 . S
H624 C647 0.951 . S
H625 C612 0.947 . S
H626 C614 0.952 . S
H627 C615 0.950 . S
N628 C631 1.382 . S
N628 C633 1.363 . S
N629 C631 1.371 . S
N629 C632 1.372 . S
N630 C632 1.361 . S
N630 C633 1.377 . S
C631 N628 1.382 . S
C631 N629 1.371 . S
C631 C634 1.480 . S
C632 N629 1.372 . S
C632 N630 1.361 . S
C632 C640 1.457 . S
C633 N628 1.363 . S
C633 N630 1.377 . S
C633 C646 1.479 . S
C634 C631 1.480 . S
C634 C635 1.383 . S
C634 C639 1.385 . S
C635 H616 0.947 . S
C635 C634 1.383 . S
C635 C636 1.388 . S
C636 H617 0.946 . S
C636 C635 1.388 . S
C636 C637 1.384 . S
C637 C636 1.384 . S
C637 C638 1.377 . S
C638 H618 0.953 . S
C638 C637 1.377 . S
C638 C639 1.369 . S
C639 H619 0.945 . S
C639 C634 1.385 . S
C639 C638 1.369 . S
C640 C632 1.457 . S
C640 C641 1.372 . S
C640 C645 1.364 . S
C641 H620 0.952 . S
C641 C640 1.372 . S
C641 C642 1.389 . S
C642 H621 0.949 . S
C642 C641 1.389 . S
C642 C643 1.387 . S
C643 C642 1.387 . S
C643 C644 1.372 . S
C644 H622 0.950 . S
C644 C643 1.372 . S
C644 C645 1.379 . S
C645 H623 0.948 . S
C645 C640 1.364 . S
C645 C644 1.379 . S
C646 C615 1.383 . S
C646 C633 1.479 . S
C646 C647 1.398 . S
C647 C612 1.382 . S
C647 H624 0.951 . S
C647 C646 1.398 . S
Eu648 C657 2.828 . S
Eu648 O659 2.392 1_556 S
Eu648 O661 2.418 . S
Eu648 O666 2.373 1_565 S
Eu648 O669 2.488 . S
Eu648 O670 2.471 1_565 S
Eu648 O671 2.349 1_565 S
Eu649 O658 2.373 1_545 S
Eu649 O662 2.488 . S
Eu649 O663 2.456 1_545 S
Eu649 O664 2.349 1_545 S
Eu649 O667 2.392 . S
Eu649 O668 2.418 . S
Eu649 C678 2.828 . S
C650 O668 1.291 . S
C650 O671 1.248 1_554 S
C651 C652 1.379 1_565 S
C651 C655 1.373 . S
C651 C657 1.505 . S
C652 C651 1.379 1_545 S
C652 C654 1.369 . S
C652 H680 0.930 . S
C653 C655 1.383 . S
C653 C656 1.382 1_565 S
C653 H681 0.930 . S
C654 C652 1.369 . S
C654 C656 1.392 . S
C654 H682 0.930 . S
C655 C651 1.373 . S
C655 C653 1.383 . S
C655 H683 0.931 . S
C656 C653 1.382 1_545 S
C656 C654 1.392 . S
C657 Eu648 2.828 . S
C657 C651 1.505 . S
C657 O669 1.249 . S
C657 O670 1.244 1_565 S
O658 Eu649 2.373 1_565 S
O658 C660 1.258 . S
O659 Eu648 2.392 1_554 S
O659 C660 1.242 . S
C660 O658 1.258 . S
C660 O659 1.242 . S
O661 Eu648 2.418 . S
O661 C665 1.244 1_556 S
O662 Eu649 2.488 . S
O662 C678 1.249 . S
O663 Eu649 2.456 1_565 S
O663 C678 1.222 1_565 S
O664 Eu649 2.349 1_565 S
O664 C665 1.265 . S
C665 O661 1.244 1_554 S
C665 O664 1.265 . S
O666 Eu648 2.373 1_545 S
O666 C679 1.258 . S
O667 Eu649 2.392 . S
O667 C679 1.242 1_554 S
O668 Eu649 2.418 . S
O668 C650 1.291 . S
O669 Eu648 2.488 . S
O669 C657 1.249 . S
O670 Eu648 2.471 1_545 S
O670 C657 1.244 1_545 S
O671 Eu648 2.349 1_545 S
O671 C650 1.248 1_556 S
C672 C673 1.379 1_545 S
C672 C676 1.373 . S
C672 C678 1.505 . S
C673 C672 1.379 1_565 S
C673 C675 1.369 . S
C673 H684 0.930 . S
C674 C676 1.383 . S
C674 C677 1.382 1_545 S
C674 H685 0.930 . S
C675 C673 1.369 . S
C675 C677 1.392 . S
C675 H686 0.930 . S
C676 C672 1.373 . S
C676 C674 1.383 . S
C676 H687 0.931 . S
C677 C674 1.382 1_565 S
C677 C675 1.392 . S
C678 Eu649 2.828 . S
C678 O662 1.249 . S
C678 O663 1.222 1_545 S
C678 C672 1.505 . S
C679 O666 1.258 . S
C679 O667 1.242 1_556 S
H680 C652 0.930 . S
H681 C653 0.930 . S
H682 C654 0.930 . S
H683 C655 0.931 . S
H684 C673 0.930 . S
H685 C674 0.930 . S
H686 C675 0.930 . S
H687 C676 0.931 . S
Eu688 C697 2.828 . S
Eu688 O699 2.392 1_556 S
Eu688 O701 2.418 . S
Eu688 O706 2.373 1_455 S
Eu688 O709 2.488 . S
Eu688 O710 2.471 1_455 S
Eu688 O711 2.349 1_455 S
Eu689 O698 2.373 1_655 S
Eu689 O702 2.488 . S
Eu689 O703 2.471 1_655 S
Eu689 O704 2.349 1_655 S
Eu689 O707 2.392 . S
Eu689 O708 2.418 . S
Eu689 C718 2.828 . S
C690 O708 1.244 1_556 S
C690 O711 1.265 . S
C691 C692 1.379 1_455 S
C691 C695 1.373 . S
C691 C697 1.505 . S
C692 C691 1.379 1_655 S
C692 C694 1.369 . S
C692 H720 0.930 . S
C693 C695 1.383 . S
C693 C696 1.382 1_455 S
C693 H721 0.930 . S
C694 C692 1.369 . S
C694 C696 1.392 . S
C694 H722 0.930 . S
C695 C691 1.373 . S
C695 C693 1.383 . S
C695 H723 0.931 . S
C696 C693 1.382 1_655 S
C696 C694 1.392 . S
C697 Eu688 2.828 . S
C697 C691 1.505 . S
C697 O709 1.249 . S
C697 O710 1.244 1_455 S
O698 Eu689 2.373 1_455 S
O698 C700 1.258 . S
O699 Eu688 2.392 1_554 S
O699 C700 1.242 . S
C700 O698 1.258 . S
C700 O699 1.242 . S
O701 Eu688 2.418 . S
O701 C705 1.244 1_556 S
O702 Eu689 2.488 . S
O702 C718 1.249 . S
O703 Eu689 2.471 1_455 S
O703 C718 1.244 1_455 S
O704 Eu689 2.349 1_455 S
O704 C705 1.265 . S
C705 O701 1.244 1_554 S
C705 O704 1.265 . S
O706 Eu688 2.373 1_655 S
O706 C719 1.258 . S
O707 Eu689 2.392 . S
O707 C719 1.242 1_554 S
O708 Eu689 2.418 . S
O708 C690 1.244 1_554 S
O709 Eu688 2.488 . S
O709 C697 1.249 . S
O710 Eu688 2.471 1_655 S
O710 C697 1.244 1_655 S
O711 Eu688 2.349 1_655 S
O711 C690 1.265 . S
C712 C713 1.379 1_655 S
C712 C716 1.373 . S
C712 C718 1.505 . S
C713 C712 1.379 1_455 S
C713 C715 1.369 . S
C713 H724 0.930 . S
C714 C716 1.383 . S
C714 C717 1.382 1_655 S
C714 H725 0.930 . S
C715 C713 1.369 . S
C715 C717 1.392 . S
C715 H726 0.930 . S
C716 C712 1.373 . S
C716 C714 1.383 . S
C716 H727 0.931 . S
C717 C714 1.382 1_455 S
C717 C715 1.392 . S
C718 Eu689 2.828 . S
C718 O702 1.249 . S
C718 O703 1.244 1_655 S
C718 C712 1.505 . S
C719 O706 1.258 . S
C719 O707 1.242 1_556 S
H720 C692 0.930 . S
H721 C693 0.930 . S
H722 C694 0.930 . S
H723 C695 0.931 . S
H724 C713 0.930 . S
H725 C714 0.930 . S
H726 C715 0.930 . S
H727 C716 0.931 . S
Eu728 C737 2.828 . S
Eu728 O739 2.392 . S
Eu728 O741 2.418 . S
Eu728 O746 2.373 . S
Eu728 O749 2.488 . S
Eu728 O750 2.471 . S
Eu728 O751 2.349 . S
Eu729 O738 2.373 . S
Eu729 O742 2.488 . S
Eu729 O743 2.471 . S
Eu729 O744 2.349 . S
Eu729 O747 2.392 1_556 S
Eu729 O748 2.418 . S
Eu729 C758 2.828 . S
C730 O748 1.244 1_554 S
C730 O751 1.265 . S
C731 C732 1.379 . S
C731 C735 1.373 . S
C731 C737 1.505 . S
C732 C731 1.379 . S
C732 C734 1.369 . S
C732 H760 0.930 . S
C733 C735 1.383 . S
C733 C736 1.382 . S
C733 H761 0.930 . S
C734 C732 1.369 . S
C734 C736 1.392 . S
C734 H762 0.930 . S
C735 C731 1.373 . S
C735 C733 1.383 . S
C735 H763 0.931 . S
C736 C733 1.382 . S
C736 C734 1.392 . S
C737 Eu728 2.828 . S
C737 C731 1.505 . S
C737 O749 1.249 . S
C737 O750 1.244 . S
O738 Eu729 2.373 . S
O738 C740 1.258 . S
O739 Eu728 2.392 . S
O739 C740 1.242 1_554 S
C740 O738 1.258 . S
C740 O739 1.242 1_556 S
O741 Eu728 2.418 . S
O741 C745 1.171 1_554 S
O742 Eu729 2.488 . S
O742 C758 1.249 . S
O743 Eu729 2.471 . S
O743 C758 1.244 . S
O744 Eu729 2.349 . S
O744 C745 1.300 . S
C745 O741 1.171 1_556 S
C745 O744 1.300 . S
O746 Eu728 2.373 . S
O746 C759 1.258 . S
O747 Eu729 2.392 1_554 S
O747 C759 1.242 . S
O748 Eu729 2.418 . S
O748 C730 1.244 1_556 S
O749 Eu728 2.488 . S
O749 C737 1.249 . S
O750 Eu728 2.471 . S
O750 C737 1.244 . S
O751 Eu728 2.349 . S
O751 C730 1.265 . S
C752 C753 1.379 . S
C752 C756 1.373 . S
C752 C758 1.505 . S
C753 C752 1.379 . S
C753 C755 1.369 . S
C753 H764 0.930 . S
C754 C756 1.383 . S
C754 C757 1.382 . S
C754 H765 0.930 . S
C755 C753 1.369 . S
C755 C757 1.392 . S
C755 H766 0.930 . S
C756 C752 1.373 . S
C756 C754 1.383 . S
C756 H767 0.931 . S
C757 C754 1.382 . S
C757 C755 1.392 . S
C758 Eu729 2.828 . S
C758 O742 1.249 . S
C758 O743 1.244 . S
C758 C752 1.505 . S
C759 O746 1.258 . S
C759 O747 1.242 . S
H760 C732 0.930 . S
H761 C733 0.930 . S
H762 C734 0.930 . S
H763 C735 0.931 . S
H764 C753 0.930 . S
H765 C754 0.930 . S
H766 C755 0.930 . S
H767 C756 0.931 . S
Eu768 C777 2.828 . S
Eu768 O779 2.392 . S
Eu768 O781 2.418 . S
Eu768 O786 2.373 . S
Eu768 O789 2.488 . S
Eu768 O790 2.471 . S
Eu768 O791 2.349 . S
Eu769 O778 2.373 . S
Eu769 O782 2.488 . S
Eu769 O783 2.471 . S
Eu769 O784 2.349 . S
Eu769 O787 2.392 . S
Eu769 O788 2.418 . S
Eu769 C798 2.828 . S
C770 O788 1.244 . S
C770 O791 1.265 . S
C771 C772 1.379 . S
C771 C775 1.373 . S
C771 C777 1.505 . S
C772 C771 1.379 . S
C772 C774 1.369 . S
C772 H800 0.930 . S
C773 C775 1.383 . S
C773 C776 1.382 . S
C773 H801 0.930 . S
C774 C772 1.369 . S
C774 C776 1.392 . S
C774 H802 0.930 . S
C775 C771 1.373 . S
C775 C773 1.383 . S
C775 H803 0.931 . S
C776 C773 1.382 . S
C776 C774 1.392 . S
C777 Eu768 2.828 . S
C777 C771 1.505 . S
C777 O789 1.249 . S
C777 O790 1.244 . S
O778 Eu769 2.373 . S
O778 C780 1.258 . S
O779 Eu768 2.392 . S
O779 C780 1.242 . S
C780 O778 1.258 . S
C780 O779 1.242 . S
O781 Eu768 2.418 . S
O781 C785 1.244 . S
O782 Eu769 2.488 . S
O782 C798 1.249 . S
O783 Eu769 2.471 . S
O783 C798 1.244 . S
O784 Eu769 2.349 . S
O784 C785 1.265 . S
C785 O781 1.244 . S
C785 O784 1.265 . S
O786 Eu768 2.373 . S
O786 C799 1.258 . S
O787 Eu769 2.392 . S
O787 C799 1.242 . S
O788 Eu769 2.418 . S
O788 C770 1.244 . S
O789 Eu768 2.488 . S
O789 C777 1.249 . S
O790 Eu768 2.471 . S
O790 C777 1.244 . S
O791 Eu768 2.349 . S
O791 C770 1.265 . S
C792 C793 1.379 . S
C792 C796 1.373 . S
C792 C798 1.505 . S
C793 C792 1.379 . S
C793 C795 1.369 . S
C793 H804 0.930 . S
C794 C796 1.383 . S
C794 C797 1.382 . S
C794 H805 0.930 . S
C795 C793 1.369 . S
C795 C797 1.392 . S
C795 H806 0.930 . S
C796 C792 1.373 . S
C796 C794 1.383 . S
C796 H807 0.931 . S
C797 C794 1.382 . S
C797 C795 1.392 . S
C798 Eu769 2.828 . S
C798 O782 1.249 . S
C798 O783 1.244 . S
C798 C792 1.505 . S
C799 O786 1.258 . S
C799 O787 1.242 . S
H800 C772 0.930 . S
H801 C773 0.930 . S
H802 C774 0.930 . S
H803 C775 0.931 . S
H804 C793 0.930 . S
H805 C794 0.930 . S
H806 C795 0.930 . S
H807 C796 0.931 . S
Eu808 C817 2.828 . S
Eu808 O819 2.392 . S
Eu808 O821 2.418 . S
Eu808 O826 2.373 . S
Eu808 O829 2.488 . S
Eu808 O830 2.471 . S
Eu808 O831 2.349 . S
Eu809 O818 2.373 . S
Eu809 O822 2.488 . S
Eu809 O823 2.471 . S
Eu809 O824 2.349 . S
Eu809 O827 2.392 . S
Eu809 O828 2.418 . S
Eu809 C838 2.828 . S
C810 O828 1.244 . S
C810 O831 1.265 . S
C811 C812 1.379 . S
C811 C815 1.373 . S
C811 C817 1.505 . S
C812 C811 1.379 . S
C812 C814 1.369 . S
C812 H840 0.930 . S
C813 C815 1.383 . S
C813 C816 1.382 . S
C813 H841 0.930 . S
C814 C812 1.369 . S
C814 C816 1.392 . S
C814 H842 0.930 . S
C815 C811 1.373 . S
C815 C813 1.383 . S
C815 H843 0.931 . S
C816 C813 1.382 . S
C816 C814 1.392 . S
C817 Eu808 2.828 . S
C817 C811 1.505 . S
C817 O829 1.249 . S
C817 O830 1.244 . S
O818 Eu809 2.373 . S
O818 C820 1.258 . S
O819 Eu808 2.392 . S
O819 C820 1.242 . S
C820 O818 1.258 . S
C820 O819 1.242 . S
O821 Eu808 2.418 . S
O821 C825 1.244 . S
O822 Eu809 2.488 . S
O822 C838 1.249 . S
O823 Eu809 2.471 . S
O823 C838 1.244 . S
O824 Eu809 2.349 . S
O824 C825 1.265 . S
C825 O821 1.244 . S
C825 O824 1.265 . S
O826 Eu808 2.373 . S
O826 C839 1.258 . S
O827 Eu809 2.392 . S
O827 C839 1.242 . S
O828 Eu809 2.418 . S
O828 C810 1.244 . S
O829 Eu808 2.488 . S
O829 C817 1.249 . S
O830 Eu808 2.471 . S
O830 C817 1.244 . S
O831 Eu808 2.349 . S
O831 C810 1.265 . S
C832 C833 1.379 . S
C832 C836 1.373 . S
C832 C838 1.505 . S
C833 C832 1.379 . S
C833 C835 1.369 . S
C833 H844 0.930 . S
C834 C836 1.383 . S
C834 C837 1.382 . S
C834 H845 0.930 . S
C835 C833 1.369 . S
C835 C837 1.392 . S
C835 H846 0.930 . S
C836 C832 1.373 . S
C836 C834 1.383 . S
C836 H847 0.931 . S
C837 C834 1.382 . S
C837 C835 1.392 . S
C838 Eu809 2.828 . S
C838 O822 1.249 . S
C838 O823 1.244 . S
C838 C832 1.505 . S
C839 O826 1.258 . S
C839 O827 1.242 . S
H840 C812 0.930 . S
H841 C813 0.930 . S
H842 C814 0.930 . S
H843 C815 0.931 . S
H844 C833 0.930 . S
H845 C834 0.930 . S
H846 C835 0.930 . S
H847 C836 0.931 . S
Eu848 C857 2.828 . S
Eu848 O859 2.392 . S
Eu848 O861 2.418 . S
Eu848 O866 2.373 . S
Eu848 O869 2.488 . S
Eu848 O870 2.471 . S
Eu848 O871 2.349 . S
Eu849 O858 2.373 . S
Eu849 O862 2.488 . S
Eu849 O863 2.471 . S
Eu849 O864 2.349 . S
Eu849 O867 2.392 . S
Eu849 O868 2.418 . S
Eu849 C878 2.828 . S
C850 O868 1.244 . S
C850 O871 1.265 . S
C851 C852 1.379 . S
C851 C855 1.373 . S
C851 C857 1.505 . S
C852 C851 1.379 . S
C852 C854 1.369 . S
C852 H880 0.930 . S
C853 C855 1.383 . S
C853 C856 1.382 . S
C853 H881 0.930 . S
C854 C852 1.369 . S
C854 C856 1.392 . S
C854 H882 0.930 . S
C855 C851 1.373 . S
C855 C853 1.383 . S
C855 H883 0.931 . S
C856 C853 1.382 . S
C856 C854 1.392 . S
C857 Eu848 2.828 . S
C857 C851 1.505 . S
C857 O869 1.249 . S
C857 O870 1.244 . S
O858 Eu849 2.373 . S
O858 C860 1.258 . S
O859 Eu848 2.392 . S
O859 C860 1.242 . S
C860 O858 1.258 . S
C860 O859 1.242 . S
O861 Eu848 2.418 . S
O861 C865 1.244 . S
O862 Eu849 2.488 . S
O862 C878 1.249 . S
O863 Eu849 2.471 . S
O863 C878 1.244 . S
O864 Eu849 2.349 . S
O864 C865 1.265 . S
C865 O861 1.244 . S
C865 O864 1.265 . S
O866 Eu848 2.373 . S
O866 C879 1.258 . S
O867 Eu849 2.392 . S
O867 C879 1.242 . S
O868 Eu849 2.418 . S
O868 C850 1.244 . S
O869 Eu848 2.488 . S
O869 C857 1.249 . S
O870 Eu848 2.471 . S
O870 C857 1.244 . S
O871 Eu848 2.349 . S
O871 C850 1.265 . S
C872 C873 1.379 . S
C872 C876 1.373 . S
C872 C878 1.505 . S
C873 C872 1.379 . S
C873 C875 1.369 . S
C873 H884 0.930 . S
C874 C876 1.383 . S
C874 C877 1.382 . S
C874 H885 0.930 . S
C875 C873 1.369 . S
C875 C877 1.392 . S
C875 H886 0.930 . S
C876 C872 1.373 . S
C876 C874 1.383 . S
C876 H887 0.931 . S
C877 C874 1.382 . S
C877 C875 1.392 . S
C878 Eu849 2.828 . S
C878 O862 1.249 . S
C878 O863 1.244 . S
C878 C872 1.505 . S
C879 O866 1.258 . S
C879 O867 1.242 . S
H880 C852 0.930 . S
H881 C853 0.930 . S
H882 C854 0.930 . S
H883 C855 0.931 . S
H884 C873 0.930 . S
H885 C874 0.930 . S
H886 C875 0.930 . S
H887 C876 0.931 . S
Eu888 C897 2.828 . S
Eu888 O899 2.392 . S
Eu888 O901 2.418 . S
Eu888 O906 2.373 . S
Eu888 O909 2.488 . S
Eu888 O910 2.471 . S
Eu888 O911 2.349 . S
Eu889 O898 2.373 . S
Eu889 O902 2.488 . S
Eu889 O903 2.471 . S
Eu889 O904 2.349 . S
Eu889 O907 2.392 . S
Eu889 O908 2.418 . S
Eu889 C918 2.828 . S
C890 O908 1.244 . S
C890 O911 1.265 . S
C891 C892 1.379 . S
C891 C895 1.373 . S
C891 C897 1.505 . S
C892 C891 1.379 . S
C892 C894 1.369 . S
C892 H920 0.930 . S
C893 C895 1.383 . S
C893 C896 1.382 . S
C893 H921 0.930 . S
C894 C892 1.369 . S
C894 C896 1.392 . S
C894 H922 0.930 . S
C895 C891 1.373 . S
C895 C893 1.383 . S
C895 H923 0.931 . S
C896 C893 1.382 . S
C896 C894 1.392 . S
C897 Eu888 2.828 . S
C897 C891 1.505 . S
C897 O909 1.249 . S
C897 O910 1.244 . S
O898 Eu889 2.373 . S
O898 C900 1.258 . S
O899 Eu888 2.392 . S
O899 C900 1.242 . S
C900 O898 1.258 . S
C900 O899 1.242 . S
O901 Eu888 2.418 . S
O901 C905 1.244 . S
O902 Eu889 2.488 . S
O902 C918 1.249 . S
O903 Eu889 2.471 . S
O903 C918 1.244 . S
O904 Eu889 2.349 . S
O904 C905 1.265 . S
C905 O901 1.244 . S
C905 O904 1.265 . S
O906 Eu888 2.373 . S
O906 C919 1.258 . S
O907 Eu889 2.392 . S
O907 C919 1.242 . S
O908 Eu889 2.418 . S
O908 C890 1.244 . S
O909 Eu888 2.488 . S
O909 C897 1.249 . S
O910 Eu888 2.471 . S
O910 C897 1.244 . S
O911 Eu888 2.349 . S
O911 C890 1.265 . S
C912 C913 1.379 . S
C912 C916 1.373 . S
C912 C918 1.505 . S
C913 C912 1.379 . S
C913 C915 1.369 . S
C913 H924 0.930 . S
C914 C916 1.383 . S
C914 C917 1.382 . S
C914 H925 0.930 . S
C915 C913 1.369 . S
C915 C917 1.392 . S
C915 H926 0.930 . S
C916 C912 1.373 . S
C916 C914 1.383 . S
C916 H927 0.931 . S
C917 C914 1.382 . S
C917 C915 1.392 . S
C918 Eu889 2.828 . S
C918 O902 1.249 . S
C918 O903 1.244 . S
C918 C912 1.505 . S
C919 O906 1.258 . S
C919 O907 1.242 . S
H920 C892 0.930 . S
H921 C893 0.930 . S
H922 C894 0.930 . S
H923 C895 0.931 . S
H924 C913 0.930 . S
H925 C914 0.930 . S
H926 C915 0.930 . S
H927 C916 0.931 . S
Eu928 C937 2.828 . S
Eu928 O939 2.392 . S
Eu928 O941 2.418 . S
Eu928 O946 2.373 . S
Eu928 O949 2.488 . S
Eu928 O950 2.471 . S
Eu928 O951 2.349 . S
Eu929 O938 2.373 . S
Eu929 O942 2.488 . S
Eu929 O943 2.471 . S
Eu929 O944 2.349 . S
Eu929 O947 2.392 . S
Eu929 O948 2.418 . S
Eu929 C958 2.828 . S
C930 O948 1.244 . S
C930 O951 1.265 . S
C931 C932 1.379 . S
C931 C935 1.373 . S
C931 C937 1.505 . S
C932 C931 1.379 . S
C932 C934 1.369 . S
C932 H960 0.930 . S
C933 C935 1.383 . S
C933 C936 1.382 . S
C933 H961 0.930 . S
C934 C932 1.369 . S
C934 C936 1.392 . S
C934 H962 0.930 . S
C935 C931 1.373 . S
C935 C933 1.383 . S
C935 H963 0.931 . S
C936 C933 1.382 . S
C936 C934 1.392 . S
C937 Eu928 2.828 . S
C937 C931 1.505 . S
C937 O949 1.249 . S
C937 O950 1.244 . S
O938 Eu929 2.373 . S
O938 C940 1.258 . S
O939 Eu928 2.392 . S
O939 C940 1.242 . S
C940 O938 1.258 . S
C940 O939 1.242 . S
O941 Eu928 2.418 . S
O941 C945 1.244 . S
O942 Eu929 2.488 . S
O942 C958 1.249 . S
O943 Eu929 2.471 . S
O943 C958 1.244 . S
O944 Eu929 2.349 . S
O944 C945 1.265 . S
C945 O941 1.244 . S
C945 O944 1.265 . S
O946 Eu928 2.373 . S
O946 C959 1.258 . S
O947 Eu929 2.392 . S
O947 C959 1.242 . S
O948 Eu929 2.418 . S
O948 C930 1.244 . S
O949 Eu928 2.488 . S
O949 C937 1.249 . S
O950 Eu928 2.471 . S
O950 C937 1.244 . S
O951 Eu928 2.349 . S
O951 C930 1.265 . S
C952 C953 1.379 . S
C952 C956 1.373 . S
C952 C958 1.505 . S
C953 C952 1.379 . S
C953 C955 1.369 . S
C953 H964 0.930 . S
C954 C956 1.383 . S
C954 C957 1.382 . S
C954 H965 0.930 . S
C955 C953 1.369 . S
C955 C957 1.392 . S
C955 H966 0.930 . S
C956 C952 1.373 . S
C956 C954 1.383 . S
C956 H967 0.931 . S
C957 C954 1.382 . S
C957 C955 1.392 . S
C958 Eu929 2.828 . S
C958 O942 1.249 . S
C958 O943 1.244 . S
C958 C952 1.505 . S
C959 O946 1.258 . S
C959 O947 1.242 . S
H960 C932 0.930 . S
H961 C933 0.930 . S
H962 C934 0.930 . S
H963 C935 0.931 . S
H964 C953 0.930 . S
H965 C954 0.930 . S
H966 C955 0.930 . S
H967 C956 0.931 . S
Eu968 C977 2.828 . S
Eu968 O979 2.392 . S
Eu968 O981 2.418 . S
Eu968 O986 2.373 . S
Eu968 O989 2.488 . S
Eu968 O990 2.471 . S
Eu968 O991 2.349 . S
Eu969 O978 2.373 . S
Eu969 O982 2.488 . S
Eu969 O983 2.471 . S
Eu969 O984 2.349 . S
Eu969 O987 2.392 . S
Eu969 O988 2.418 . S
Eu969 C998 2.828 . S
C970 O988 1.244 . S
C970 O991 1.265 . S
C971 C972 1.379 . S
C971 C975 1.373 . S
C971 C977 1.505 . S
C972 C971 1.379 . S
C972 C974 1.369 . S
C972 H1000 0.930 . S
C973 C975 1.383 . S
C973 C976 1.382 . S
C973 H1001 0.930 . S
C974 C972 1.369 . S
C974 C976 1.392 . S
C974 H1002 0.930 . S
C975 C971 1.373 . S
C975 C973 1.383 . S
C975 H1003 0.931 . S
C976 C973 1.382 . S
C976 C974 1.392 . S
C977 Eu968 2.828 . S
C977 C971 1.505 . S
C977 O989 1.249 . S
C977 O990 1.244 . S
O978 Eu969 2.373 . S
O978 C980 1.258 . S
O979 Eu968 2.392 . S
O979 C980 1.242 . S
C980 O978 1.258 . S
C980 O979 1.242 . S
O981 Eu968 2.418 . S
O981 C985 1.244 . S
O982 Eu969 2.488 . S
O982 C998 1.249 . S
O983 Eu969 2.471 . S
O983 C998 1.244 . S
O984 Eu969 2.349 . S
O984 C985 1.265 . S
C985 O981 1.244 . S
C985 O984 1.265 . S
O986 Eu968 2.373 . S
O986 C999 1.258 . S
O987 Eu969 2.392 . S
O987 C999 1.242 . S
O988 Eu969 2.418 . S
O988 C970 1.244 . S
O989 Eu968 2.488 . S
O989 C977 1.249 . S
O990 Eu968 2.471 . S
O990 C977 1.244 . S
O991 Eu968 2.349 . S
O991 C970 1.265 . S
C992 C993 1.379 . S
C992 C996 1.373 . S
C992 C998 1.505 . S
C993 C992 1.379 . S
C993 C995 1.369 . S
C993 H1004 0.930 . S
C994 C996 1.383 . S
C994 C997 1.382 . S
C994 H1005 0.930 . S
C995 C993 1.369 . S
C995 C997 1.392 . S
C995 H1006 0.930 . S
C996 C992 1.373 . S
C996 C994 1.383 . S
C996 H1007 0.931 . S
C997 C994 1.382 . S
C997 C995 1.392 . S
C998 Eu969 2.828 . S
C998 O982 1.249 . S
C998 O983 1.244 . S
C998 C992 1.505 . S
C999 O986 1.258 . S
C999 O987 1.242 . S
H1000 C972 0.930 . S
H1001 C973 0.930 . S
H1002 C974 0.930 . S
H1003 C975 0.931 . S
H1004 C993 0.930 . S
H1005 C994 0.930 . S
H1006 C995 0.930 . S
H1007 C996 0.931 . S
C1008 C1009 1.391 . S
C1008 C1010 1.394 . S
C1008 H1024 0.931 . S
C1009 C1008 1.391 . S
C1009 C1013 1.376 . S
C1010 C1008 1.394 . S
C1010 C1011 1.369 . S
C1010 C1014 1.531 . S
C1011 C1010 1.369 . S
C1011 C1012 1.410 . S
C1011 C1019 1.503 . S
C1012 C1011 1.410 . S
C1012 C1013 1.392 . S
C1012 C1015 1.511 . S
C1013 C1009 1.376 . S
C1013 C1012 1.392 . S
C1013 H1025 0.929 . S
C1014 C1010 1.531 . S
C1014 H1026 0.960 . S
C1014 H1027 0.962 . S
C1014 H1028 0.960 . S
C1015 C1012 1.511 . S
C1015 H1029 0.961 . S
C1015 H1030 0.961 . S
C1015 H1031 0.961 . S
C1016 C1017 1.370 . S
C1016 C1018 1.363 . S
C1016 H1032 0.931 . S
C1017 C1016 1.370 . S
C1017 C1021 1.408 . S
C1018 C1016 1.363 . S
C1018 C1019 1.370 . S
C1018 C1022 1.524 . S
C1019 C1011 1.503 . S
C1019 C1018 1.370 . S
C1019 C1020 1.403 . S
C1020 C1019 1.403 . S
C1020 C1021 1.404 . S
C1020 C1023 1.539 . S
C1021 C1017 1.408 . S
C1021 C1020 1.404 . S
C1021 H1033 0.930 . S
C1022 C1018 1.524 . S
C1022 H1034 0.956 . S
C1022 H1035 0.961 . S
C1022 H1036 0.961 . S
C1023 C1020 1.539 . S
C1023 H1037 0.958 . S
C1023 H1038 0.961 . S
C1023 H1039 0.960 . S
H1024 C1008 0.931 . S
H1025 C1013 0.929 . S
H1026 C1014 0.960 . S
H1027 C1014 0.962 . S
H1028 C1014 0.960 . S
H1029 C1015 0.961 . S
H1030 C1015 0.961 . S
H1031 C1015 0.961 . S
H1032 C1016 0.931 . S
H1033 C1021 0.930 . S
H1034 C1022 0.956 . S
H1035 C1022 0.961 . S
H1036 C1022 0.961 . S
H1037 C1023 0.958 . S
H1038 C1023 0.961 . S
H1039 C1023 0.960 . S
C1040 C1041 1.391 . S
C1040 C1042 1.394 . S
C1040 H1056 0.931 . S
C1041 C1040 1.391 . S
C1041 C1045 1.376 . S
C1042 C1040 1.394 . S
C1042 C1043 1.369 . S
C1042 C1046 1.531 . S
C1043 C1042 1.369 . S
C1043 C1044 1.410 . S
C1043 C1051 1.503 . S
C1044 C1043 1.410 . S
C1044 C1045 1.392 . S
C1044 C1047 1.511 . S
C1045 C1041 1.376 . S
C1045 C1044 1.392 . S
C1045 H1057 0.929 . S
C1046 C1042 1.531 . S
C1046 H1058 0.960 . S
C1046 H1059 0.962 . S
C1046 H1060 0.960 . S
C1047 C1044 1.511 . S
C1047 H1061 0.961 . S
C1047 H1062 0.961 . S
C1047 H1063 0.961 . S
C1048 C1049 1.370 . S
C1048 C1050 1.363 . S
C1048 H1064 0.931 . S
C1049 C1048 1.370 . S
C1049 C1053 1.408 . S
C1050 C1048 1.363 . S
C1050 C1051 1.370 . S
C1050 C1054 1.524 . S
C1051 C1043 1.503 . S
C1051 C1050 1.370 . S
C1051 C1052 1.403 . S
C1052 C1051 1.403 . S
C1052 C1053 1.404 . S
C1052 C1055 1.539 . S
C1053 C1049 1.408 . S
C1053 C1052 1.404 . S
C1053 H1065 0.930 . S
C1054 C1050 1.524 . S
C1054 H1066 0.956 . S
C1054 H1067 0.961 . S
C1054 H1068 0.961 . S
C1055 C1052 1.539 . S
C1055 H1069 0.958 . S
C1055 H1070 0.961 . S
C1055 H1071 0.960 . S
H1056 C1040 0.931 . S
H1057 C1045 0.929 . S
H1058 C1046 0.960 . S
H1059 C1046 0.962 . S
H1060 C1046 0.960 . S
H1061 C1047 0.961 . S
H1062 C1047 0.961 . S
H1063 C1047 0.961 . S
H1064 C1048 0.931 . S
H1065 C1053 0.930 . S
H1066 C1054 0.956 . S
H1067 C1054 0.961 . S
H1068 C1054 0.961 . S
H1069 C1055 0.958 . S
H1070 C1055 0.961 . S
H1071 C1055 0.960 . S
C1072 C1073 1.391 . S
C1072 C1074 1.394 . S
C1072 H1088 0.931 . S
C1073 C1072 1.391 . S
C1073 C1077 1.376 . S
C1074 C1072 1.394 . S
C1074 C1075 1.369 . S
C1074 C1078 1.531 . S
C1075 C1074 1.369 . S
C1075 C1076 1.410 . S
C1075 C1083 1.503 . S
C1076 C1075 1.410 . S
C1076 C1077 1.392 . S
C1076 C1079 1.511 . S
C1077 C1073 1.376 . S
C1077 C1076 1.392 . S
C1077 H1089 0.929 . S
C1078 C1074 1.531 . S
C1078 H1090 0.960 1_554 S
C1078 H1091 0.962 . S
C1078 H1092 0.960 1_554 S
C1079 C1076 1.511 . S
C1079 H1093 0.961 . S
C1079 H1094 0.961 . S
C1079 H1095 0.961 . S
C1080 C1081 1.370 . S
C1080 C1082 1.363 . S
C1080 H1096 0.931 . S
C1081 C1080 1.370 . S
C1081 C1085 1.408 . S
C1082 C1080 1.363 . S
C1082 C1083 1.370 . S
C1082 C1086 1.524 . S
C1083 C1075 1.503 . S
C1083 C1082 1.370 . S
C1083 C1084 1.403 . S
C1084 C1083 1.403 . S
C1084 C1085 1.404 . S
C1084 C1087 1.539 1_554 S
C1085 C1081 1.408 . S
C1085 C1084 1.404 . S
C1085 H1097 0.930 1_554 S
C1086 C1082 1.524 . S
C1086 H1098 0.956 . S
C1086 H1099 0.961 . S
C1086 H1100 0.961 . S
C1087 C1084 1.539 1_556 S
C1087 H1101 0.958 . S
C1087 H1102 0.961 . S
C1087 H1103 0.960 1_556 S
H1088 C1072 0.931 . S
H1089 C1077 0.929 . S
H1090 C1078 0.960 1_556 S
H1091 C1078 0.962 . S
H1092 C1078 0.960 1_556 S
H1093 C1079 0.961 . S
H1094 C1079 0.961 . S
H1095 C1079 0.961 . S
H1096 C1080 0.931 . S
H1097 C1085 0.930 1_556 S
H1098 C1086 0.956 . S
H1099 C1086 0.961 . S
H1100 C1086 0.961 . S
H1101 C1087 0.958 . S
H1102 C1087 0.961 . S
H1103 C1087 0.960 1_554 S
C1104 C1105 1.391 . S
C1104 C1106 1.394 . S
C1104 H1120 0.931 . S
C1105 C1104 1.391 . S
C1105 C1109 1.376 . S
C1106 C1104 1.394 . S
C1106 C1107 1.369 . S
C1106 C1110 1.531 . S
C1107 C1106 1.369 . S
C1107 C1108 1.410 . S
C1107 C1115 1.503 . S
C1108 C1107 1.410 . S
C1108 C1109 1.392 . S
C1108 C1111 1.511 . S
C1109 C1105 1.376 . S
C1109 C1108 1.392 . S
C1109 H1121 0.929 . S
C1110 C1106 1.531 . S
C1110 H1122 0.960 . S
C1110 H1123 0.962 . S
C1110 H1124 0.960 . S
C1111 C1108 1.511 . S
C1111 H1125 0.999 . S
C1111 H1126 0.961 . S
C1111 H1127 0.961 . S
C1112 C1113 1.370 . S
C1112 C1114 1.363 . S
C1112 H1128 0.931 1_556 S
C1113 C1112 1.370 . S
C1113 C1117 1.408 . S
C1114 C1112 1.363 . S
C1114 C1115 1.370 . S
C1114 C1118 1.524 1_556 S
C1115 C1107 1.503 . S
C1115 C1114 1.370 . S
C1115 C1116 1.403 . S
C1116 C1115 1.403 . S
C1116 C1117 1.404 . S
C1116 C1119 1.539 . S
C1117 C1113 1.408 . S
C1117 C1116 1.404 . S
C1117 H1129 0.930 . S
C1118 C1114 1.524 1_554 S
C1118 H1130 0.956 1_554 S
C1118 H1131 0.961 . S
C1118 H1132 0.961 . S
C1119 C1116 1.539 . S
C1119 H1133 0.958 . S
C1119 H1134 0.961 . S
C1119 H1135 0.960 . S
H1120 C1104 0.931 . S
H1121 C1109 0.929 . S
H1122 C1110 0.960 . S
H1123 C1110 0.962 . S
H1124 C1110 0.960 . S
H1125 C1111 0.999 . S
H1126 C1111 0.961 . S
H1127 C1111 0.961 . S
H1128 C1112 0.931 1_554 S
H1129 C1117 0.930 . S
H1130 C1118 0.956 1_556 S
H1131 C1118 0.961 . S
H1132 C1118 0.961 . S
H1133 C1119 0.958 . S
H1134 C1119 0.961 . S
H1135 C1119 0.960 . S
C1136 C1137 1.391 . S
C1136 C1138 1.394 . S
C1136 H1152 0.931 . S
C1137 C1136 1.391 . S
C1137 C1141 1.376 . S
C1138 C1136 1.394 . S
C1138 C1139 1.369 . S
C1138 C1142 1.531 . S
C1139 C1138 1.369 . S
C1139 C1140 1.410 . S
C1139 C1147 1.503 . S
C1140 C1139 1.410 . S
C1140 C1141 1.392 . S
C1140 C1143 1.511 . S
C1141 C1137 1.376 . S
C1141 C1140 1.392 . S
C1141 H1153 0.929 . S
C1142 C1138 1.531 . S
C1142 H1154 0.960 . S
C1142 H1155 0.962 . S
C1142 H1156 0.960 . S
C1143 C1140 1.511 . S
C1143 H1157 0.961 . S
C1143 H1158 0.961 . S
C1143 H1159 0.961 . S
C1144 C1145 1.370 . S
C1144 C1146 1.363 . S
C1144 H1160 0.931 . S
C1145 C1144 1.370 . S
C1145 C1149 1.408 . S
C1146 C1144 1.363 . S
C1146 C1147 1.370 . S
C1146 C1150 1.524 . S
C1147 C1139 1.503 . S
C1147 C1146 1.370 . S
C1147 C1148 1.403 . S
C1148 C1147 1.403 . S
C1148 C1149 1.404 . S
C1148 C1151 1.539 . S
C1149 C1145 1.408 . S
C1149 C1148 1.404 . S
C1149 H1161 0.930 1_556 S
C1150 C1146 1.524 . S
C1150 H1162 0.956 . S
C1150 H1163 0.961 . S
C1150 H1164 0.961 . S
C1151 C1148 1.539 . S
C1151 H1165 0.958 1_556 S
C1151 H1166 0.931 1_556 S
C1151 H1167 0.960 . S
H1152 C1136 0.931 . S
H1153 C1141 0.929 . S
H1154 C1142 0.960 . S
H1155 C1142 0.962 . S
H1156 C1142 0.960 . S
H1157 C1143 0.961 . S
H1158 C1143 0.961 . S
H1159 C1143 0.961 . S
H1160 C1144 0.931 . S
H1161 C1149 0.930 1_554 S
H1162 C1150 0.956 . S
H1163 C1150 0.961 . S
H1164 C1150 0.961 . S
H1165 C1151 0.958 1_554 S
H1166 C1151 0.931 1_554 S
H1167 C1151 0.960 . S
C1168 C1169 1.391 . S
C1168 C1170 1.394 . S
C1168 H1184 0.931 . S
C1169 C1168 1.391 . S
C1169 C1173 1.376 . S
C1170 C1168 1.394 . S
C1170 C1171 1.369 . S
C1170 C1174 1.531 . S
C1171 C1170 1.369 . S
C1171 C1172 1.410 . S
C1171 C1179 1.503 . S
C1172 C1171 1.410 . S
C1172 C1173 1.392 . S
C1172 C1175 1.511 1_556 S
C1173 C1169 1.376 . S
C1173 C1172 1.392 . S
C1173 H1185 0.929 . S
C1174 C1170 1.531 . S
C1174 H1186 0.960 . S
C1174 H1187 0.962 . S
C1174 H1188 0.960 . S
C1175 C1172 1.511 1_554 S
C1175 H1189 0.961 . S
C1175 H1190 0.961 . S
C1175 H1191 0.961 . S
C1176 C1177 1.370 . S
C1176 C1178 1.363 . S
C1176 H1192 0.931 1_556 S
C1177 C1176 1.370 . S
C1177 C1181 1.408 . S
C1178 C1176 1.363 . S
C1178 C1179 1.370 . S
C1178 C1182 1.524 . S
C1179 C1171 1.503 . S
C1179 C1178 1.370 . S
C1179 C1180 1.403 . S
C1180 C1179 1.403 . S
C1180 C1181 1.404 . S
C1180 C1183 1.539 . S
C1181 C1177 1.408 . S
C1181 C1180 1.404 . S
C1181 H1193 0.930 . S
C1182 C1178 1.524 . S
C1182 H1194 0.956 . S
C1182 H1195 0.961 1_556 S
C1182 H1196 0.961 1_556 S
C1183 C1180 1.539 . S
C1183 H1197 0.958 . S
C1183 H1198 0.961 . S
C1183 H1199 0.960 . S
H1184 C1168 0.931 . S
H1185 C1173 0.929 . S
H1186 C1174 0.960 . S
H1187 C1174 0.962 . S
H1188 C1174 0.960 . S
H1189 C1175 0.961 . S
H1190 C1175 0.961 . S
H1191 C1175 0.961 . S
H1192 C1176 0.931 1_554 S
H1193 C1181 0.930 . S
H1194 C1182 0.956 . S
H1195 C1182 0.961 1_554 S
H1196 C1182 0.961 1_554 S
H1197 C1183 0.958 . S
H1198 C1183 0.961 . S
H1199 C1183 0.960 . S
C1200 C1201 1.391 . S
C1200 C1202 1.394 . S
C1200 H1216 0.931 . S
C1201 C1200 1.391 . S
C1201 C1205 1.376 . S
C1202 C1200 1.394 . S
C1202 C1203 1.369 . S
C1202 C1206 1.531 . S
C1203 C1202 1.369 . S
C1203 C1204 1.410 . S
C1203 C1211 1.503 . S
C1204 C1203 1.410 . S
C1204 C1205 1.392 . S
C1204 C1207 1.511 . S
C1205 C1201 1.376 . S
C1205 C1204 1.392 . S
C1205 H1217 0.929 . S
C1206 C1202 1.531 . S
C1206 H1218 0.960 . S
C1206 H1219 0.962 . S
C1206 H1220 0.960 . S
C1207 C1204 1.511 . S
C1207 H1221 0.961 1_556 S
C1207 H1222 0.961 1_556 S
C1207 H1223 0.972 . S
C1208 C1209 1.370 . S
C1208 C1210 1.363 . S
C1208 H1224 0.931 . S
C1209 C1208 1.370 . S
C1209 C1213 1.408 . S
C1210 C1208 1.363 . S
C1210 C1211 1.370 . S
C1210 C1214 1.524 . S
C1211 C1203 1.503 . S
C1211 C1210 1.370 . S
C1211 C1212 1.403 . S
C1212 C1211 1.403 . S
C1212 C1213 1.404 . S
C1212 C1215 1.539 . S
C1213 C1209 1.408 . S
C1213 C1212 1.404 . S
C1213 H1225 0.930 . S
C1214 C1210 1.524 . S
C1214 H1226 0.956 . S
C1214 H1227 0.961 . S
C1214 H1228 0.961 . S
C1215 C1212 1.539 . S
C1215 H1229 0.958 . S
C1215 H1230 0.961 . S
C1215 H1231 0.960 . S
H1216 C1200 0.931 . S
H1217 C1205 0.929 . S
H1218 C1206 0.960 . S
H1219 C1206 0.962 . S
H1220 C1206 0.960 . S
H1221 C1207 0.961 1_554 S
H1222 C1207 0.961 1_554 S
H1223 C1207 0.972 . S
H1224 C1208 0.931 . S
H1225 C1213 0.930 . S
H1226 C1214 0.956 . S
H1227 C1214 0.961 . S
H1228 C1214 0.961 . S
H1229 C1215 0.958 . S
H1230 C1215 0.961 . S
H1231 C1215 0.960 . S
C1232 C1233 1.391 . S
C1232 C1234 1.394 . S
C1232 H1248 0.931 . S
C1233 C1232 1.391 . S
C1233 C1237 1.376 . S
C1234 C1232 1.394 . S
C1234 C1235 1.369 . S
C1234 C1238 1.531 . S
C1235 C1234 1.369 . S
C1235 C1236 1.410 . S
C1235 C1243 1.503 . S
C1236 C1235 1.410 . S
C1236 C1237 1.392 . S
C1236 C1239 1.511 . S
C1237 C1233 1.376 . S
C1237 C1236 1.392 . S
C1237 H1249 0.929 . S
C1238 C1234 1.531 . S
C1238 H1250 0.960 . S
C1238 H1251 0.962 . S
C1238 H1252 0.960 . S
C1239 C1236 1.511 . S
C1239 H1253 0.961 . S
C1239 H1254 0.961 . S
C1239 H1255 0.961 . S
C1240 C1241 1.370 . S
C1240 C1242 1.363 . S
C1240 H1256 0.931 . S
C1241 C1240 1.370 . S
C1241 C1245 1.408 . S
C1242 C1240 1.363 . S
C1242 C1243 1.370 . S
C1242 C1246 1.524 . S
C1243 C1235 1.503 . S
C1243 C1242 1.370 . S
C1243 C1244 1.403 . S
C1244 C1243 1.403 . S
C1244 C1245 1.404 . S
C1244 C1247 1.539 1_556 S
C1245 C1241 1.408 . S
C1245 C1244 1.404 . S
C1245 H1257 0.930 1_556 S
C1246 C1242 1.524 . S
C1246 H1258 0.956 . S
C1246 H1259 0.961 . S
C1246 H1260 0.961 . S
C1247 C1244 1.539 1_554 S
C1247 H1261 0.958 . S
C1247 H1262 0.961 . S
C1247 H1263 0.960 1_554 S
H1248 C1232 0.931 . S
H1249 C1237 0.929 . S
H1250 C1238 0.960 . S
H1251 C1238 0.962 . S
H1252 C1238 0.960 . S
H1253 C1239 0.961 . S
H1254 C1239 0.961 . S
H1255 C1239 0.961 . S
H1256 C1240 0.931 . S
H1257 C1245 0.930 1_554 S
H1258 C1246 0.956 . S
H1259 C1246 0.961 . S
H1260 C1246 0.961 . S
H1261 C1247 0.958 . S
H1262 C1247 0.961 . S
H1263 C1247 0.960 1_556 S
C1264 C1265 1.391 . S
C1264 C1266 1.394 . S
C1264 H1280 0.890 1_556 S
C1265 C1264 1.391 . S
C1265 C1269 1.376 . S
C1266 C1264 1.394 . S
C1266 C1267 1.369 . S
C1266 C1270 1.531 1_556 S
C1267 C1266 1.369 . S
C1267 C1268 1.410 . S
C1267 C1275 1.503 . S
C1268 C1267 1.410 . S
C1268 C1269 1.392 . S
C1268 C1271 1.511 . S
C1269 C1265 1.376 . S
C1269 C1268 1.392 . S
C1269 H1281 0.929 . S
C1270 C1266 1.531 1_554 S
C1270 H1282 0.960 . S
C1270 H1283 0.962 . S
C1270 H1284 0.960 . S
C1271 C1268 1.511 . S
C1271 H1285 0.961 . S
C1271 H1286 0.961 . S
C1271 H1287 0.961 . S
C1272 C1273 1.370 . S
C1272 C1274 1.363 . S
C1272 H1288 0.931 . S
C1273 C1272 1.370 . S
C1273 C1277 1.408 . S
C1274 C1272 1.363 . S
C1274 C1275 1.370 . S
C1274 C1278 1.524 . S
C1275 C1267 1.503 . S
C1275 C1274 1.370 . S
C1275 C1276 1.403 . S
C1276 C1275 1.403 . S
C1276 C1277 1.404 . S
C1276 C1279 1.539 . S
C1277 C1273 1.408 . S
C1277 C1276 1.404 . S
C1277 H1289 0.930 . S
C1278 C1274 1.524 . S
C1278 H1290 0.956 . S
C1278 H1291 0.961 . S
C1278 H1292 0.961 . S
C1279 C1276 1.539 . S
C1279 H1293 0.958 . S
C1279 H1294 0.961 . S
C1279 H1295 0.960 . S
H1280 C1264 0.890 1_554 S
H1281 C1269 0.929 . S
H1282 C1270 0.960 . S
H1283 C1270 0.962 . S
H1284 C1270 0.960 . S
H1285 C1271 0.961 . S
H1286 C1271 0.961 . S
H1287 C1271 0.961 . S
H1288 C1272 0.931 . S
H1289 C1277 0.930 . S
H1290 C1278 0.956 . S
H1291 C1278 0.961 . S
H1292 C1278 0.961 . S
H1293 C1279 0.958 . S
H1294 C1279 0.961 . S
H1295 C1279 0.960 . S
C1296 C1297 1.391 . S
C1296 C1298 1.394 . S
C1296 H1312 0.931 . S
C1297 C1296 1.391 . S
C1297 C1301 1.376 . S
C1298 C1296 1.394 . S
C1298 C1299 1.369 . S
C1298 C1302 1.531 . S
C1299 C1298 1.369 . S
C1299 C1300 1.410 . S
C1299 C1307 1.503 . S
C1300 C1299 1.410 . S
C1300 C1301 1.392 . S
C1300 C1303 1.511 . S
C1301 C1297 1.376 . S
C1301 C1300 1.392 . S
C1301 H1313 0.929 . S
C1302 C1298 1.531 . S
C1302 H1314 0.960 . S
C1302 H1315 0.962 . S
C1302 H1316 0.960 . S
C1303 C1300 1.511 . S
C1303 H1317 0.961 . S
C1303 H1318 0.961 . S
C1303 H1319 0.961 . S
C1304 C1305 1.370 . S
C1304 C1306 1.363 . S
C1304 H1320 0.931 . S
C1305 C1304 1.370 . S
C1305 C1309 1.408 . S
C1306 C1304 1.363 . S
C1306 C1307 1.370 . S
C1306 C1310 1.524 . S
C1307 C1299 1.503 . S
C1307 C1306 1.370 . S
C1307 C1308 1.403 . S
C1308 C1307 1.403 . S
C1308 C1309 1.404 . S
C1308 C1311 1.539 1_554 S
C1309 C1305 1.408 . S
C1309 C1308 1.404 . S
C1309 H1321 0.930 1_554 S
C1310 C1306 1.524 . S
C1310 H1322 0.956 . S
C1310 H1323 0.961 . S
C1310 H1324 0.961 . S
C1311 C1308 1.539 1_556 S
C1311 H1325 0.958 . S
C1311 H1326 0.961 . S
C1311 H1327 0.959 1_556 S
H1312 C1296 0.931 . S
H1313 C1301 0.929 . S
H1314 C1302 0.960 . S
H1315 C1302 0.962 . S
H1316 C1302 0.960 . S
H1317 C1303 0.961 . S
H1318 C1303 0.961 . S
H1319 C1303 0.961 . S
H1320 C1304 0.931 . S
H1321 C1309 0.930 1_556 S
H1322 C1310 0.956 . S
H1323 C1310 0.961 . S
H1324 C1310 0.961 . S
H1325 C1311 0.958 . S
H1326 C1311 0.961 . S
H1327 C1311 0.959 1_554 S
C1328 C1329 1.391 . S
C1328 C1330 1.394 . S
C1328 H1344 0.931 . S
C1329 C1328 1.391 . S
C1329 C1333 1.376 . S
C1330 C1328 1.394 . S
C1330 C1331 1.369 . S
C1330 C1334 1.531 . S
C1331 C1330 1.369 . S
C1331 C1332 1.410 . S
C1331 C1339 1.503 . S
C1332 C1331 1.410 . S
C1332 C1333 1.392 . S
C1332 C1335 1.511 . S
C1333 C1329 1.376 . S
C1333 C1332 1.392 . S
C1333 H1345 0.929 . S
C1334 C1330 1.531 . S
C1334 H1346 0.960 . S
C1334 H1347 0.962 . S
C1334 H1348 0.960 . S
C1335 C1332 1.511 . S
C1335 H1349 0.961 . S
C1335 H1350 0.961 . S
C1335 H1351 0.961 . S
C1336 C1337 1.370 . S
C1336 C1338 1.363 . S
C1336 H1352 0.931 . S
C1337 C1336 1.370 . S
C1337 C1341 1.408 . S
C1338 C1336 1.363 . S
C1338 C1339 1.370 . S
C1338 C1342 1.524 . S
C1339 C1331 1.503 . S
C1339 C1338 1.370 . S
C1339 C1340 1.403 . S
C1340 C1339 1.403 . S
C1340 C1341 1.404 . S
C1340 C1343 1.539 . S
C1341 C1337 1.408 . S
C1341 C1340 1.404 . S
C1341 H1353 0.930 . S
C1342 C1338 1.524 . S
C1342 H1354 0.956 . S
C1342 H1355 0.961 . S
C1342 H1356 0.961 . S
C1343 C1340 1.539 . S
C1343 H1357 0.958 . S
C1343 H1358 0.961 . S
C1343 H1359 0.960 . S
H1344 C1328 0.931 . S
H1345 C1333 0.929 . S
H1346 C1334 0.960 . S
H1347 C1334 0.962 . S
H1348 C1334 0.960 . S
H1349 C1335 0.961 . S
H1350 C1335 0.961 . S
H1351 C1335 0.961 . S
H1352 C1336 0.931 . S
H1353 C1341 0.930 . S
H1354 C1342 0.956 . S
H1355 C1342 0.961 . S
H1356 C1342 0.961 . S
H1357 C1343 0.958 . S
H1358 C1343 0.961 . S
H1359 C1343 0.960 . S
C1360 C1361 1.391 . S
C1360 C1362 1.394 . S
C1360 H1376 0.931 . S
C1361 C1360 1.391 . S
C1361 C1365 1.376 . S
C1362 C1360 1.394 . S
C1362 C1363 1.369 . S
C1362 C1366 1.531 . S
C1363 C1362 1.369 . S
C1363 C1364 1.410 . S
C1363 C1371 1.503 . S
C1364 C1363 1.410 . S
C1364 C1365 1.392 . S
C1364 C1367 1.511 . S
C1365 C1361 1.376 . S
C1365 C1364 1.392 . S
C1365 H1377 0.929 . S
C1366 C1362 1.531 . S
C1366 H1378 0.960 . S
C1366 H1379 0.962 . S
C1366 H1380 0.960 . S
C1367 C1364 1.511 . S
C1367 H1381 0.961 . S
C1367 H1382 0.961 . S
C1367 H1383 0.961 . S
C1368 C1369 1.370 . S
C1368 C1370 1.363 . S
C1368 H1384 0.931 . S
C1369 C1368 1.370 . S
C1369 C1373 1.432 . S
C1370 C1368 1.363 . S
C1370 C1371 1.370 . S
C1370 C1374 1.524 . S
C1371 C1363 1.503 . S
C1371 C1370 1.370 . S
C1371 C1372 1.403 . S
C1372 C1371 1.403 . S
C1372 C1373 1.410 . S
C1372 C1375 1.539 1_554 S
C1373 C1369 1.432 . S
C1373 C1372 1.410 . S
C1373 H1385 0.902 1_554 S
C1374 C1370 1.524 . S
C1374 H1386 0.956 . S
C1374 H1387 0.961 . S
C1374 H1388 0.961 . S
C1375 C1372 1.539 1_556 S
C1375 H1389 0.958 . S
C1375 H1390 0.961 . S
C1375 H1391 0.960 . S
H1376 C1360 0.931 . S
H1377 C1365 0.929 . S
H1378 C1366 0.960 . S
H1379 C1366 0.962 . S
H1380 C1366 0.960 . S
H1381 C1367 0.961 . S
H1382 C1367 0.961 . S
H1383 C1367 0.961 . S
H1384 C1368 0.931 . S
H1385 C1373 0.902 1_556 S
H1386 C1374 0.956 . S
H1387 C1374 0.961 . S
H1388 C1374 0.961 . S
H1389 C1375 0.958 . S
H1390 C1375 0.961 . S
H1391 C1375 0.960 . S
C1392 C1393 1.391 . S
C1392 C1394 1.394 1_655 S
C1392 H1408 0.931 . S
C1393 C1392 1.391 . S
C1393 C1397 1.376 . S
C1394 C1392 1.394 1_455 S
C1394 C1395 1.369 . S
C1394 C1398 1.531 . S
C1395 C1394 1.369 . S
C1395 C1396 1.410 . S
C1395 C1403 1.503 . S
C1396 C1395 1.410 . S
C1396 C1397 1.392 1_455 S
C1396 C1399 1.511 . S
C1397 C1393 1.376 . S
C1397 C1396 1.392 1_655 S
C1397 H1409 0.929 . S
C1398 C1394 1.531 . S
C1398 H1410 0.960 . S
C1398 H1411 0.962 . S
C1398 H1412 0.960 1_455 S
C1399 C1396 1.511 . S
C1399 H1413 0.961 . S
C1399 H1414 0.961 . S
C1399 H1415 0.961 . S
C1400 C1401 1.370 . S
C1400 C1402 1.363 . S
C1400 H1416 0.931 . S
C1401 C1400 1.370 . S
C1401 C1405 1.408 . S
C1402 C1400 1.363 . S
C1402 C1403 1.370 . S
C1402 C1406 1.524 . S
C1403 C1395 1.503 . S
C1403 C1402 1.370 . S
C1403 C1404 1.403 . S
C1404 C1403 1.403 . S
C1404 C1405 1.404 . S
C1404 C1407 1.539 . S
C1405 C1401 1.408 . S
C1405 C1404 1.404 . S
C1405 H1417 0.930 . S
C1406 C1402 1.524 . S
C1406 H1418 0.956 . S
C1406 H1419 0.961 . S
C1406 H1420 0.961 . S
C1407 C1404 1.539 . S
C1407 H1421 0.958 . S
C1407 H1422 0.961 . S
C1407 H1423 0.960 . S
H1408 C1392 0.931 . S
H1409 C1397 0.929 . S
H1410 C1398 0.960 . S
H1411 C1398 0.962 . S
H1412 C1398 0.960 1_655 S
H1413 C1399 0.961 . S
H1414 C1399 0.961 . S
H1415 C1399 0.961 . S
H1416 C1400 0.931 . S
H1417 C1405 0.930 . S
H1418 C1406 0.956 . S
H1419 C1406 0.961 . S
H1420 C1406 0.961 . S
H1421 C1407 0.958 . S
H1422 C1407 0.961 . S
H1423 C1407 0.960 . S
C1424 C1425 1.391 . S
C1424 C1426 1.394 . S
C1424 H1440 0.931 . S
C1425 C1424 1.391 . S
C1425 C1429 1.376 . S
C1426 C1424 1.394 . S
C1426 C1427 1.369 . S
C1426 C1430 1.531 . S
C1427 C1426 1.369 . S
C1427 C1428 1.410 . S
C1427 C1435 1.503 . S
C1428 C1427 1.410 . S
C1428 C1429 1.392 . S
C1428 C1431 1.511 . S
C1429 C1425 1.376 . S
C1429 C1428 1.392 . S
C1429 H1441 0.929 . S
C1430 C1426 1.531 . S
C1430 H1442 0.960 . S
C1430 H1443 0.962 . S
C1430 H1444 0.960 . S
C1431 C1428 1.511 . S
C1431 H1445 0.961 . S
C1431 H1446 0.961 . S
C1431 H1447 0.961 . S
C1432 C1433 1.370 . S
C1432 C1434 1.363 . S
C1432 H1448 0.931 . S
C1433 C1432 1.370 . S
C1433 C1437 1.408 . S
C1434 C1432 1.363 . S
C1434 C1435 1.370 . S
C1434 C1438 1.524 . S
C1435 C1427 1.503 . S
C1435 C1434 1.370 . S
C1435 C1436 1.403 . S
C1436 C1435 1.403 . S
C1436 C1437 1.404 . S
C1436 C1439 1.539 . S
C1437 C1433 1.408 . S
C1437 C1436 1.404 . S
C1437 H1449 0.930 . S
C1438 C1434 1.524 . S
C1438 H1450 0.956 . S
C1438 H1451 0.961 . S
C1438 H1452 0.961 . S
C1439 C1436 1.539 . S
C1439 H1453 0.958 . S
C1439 H1454 0.961 . S
C1439 H1455 0.960 . S
H1440 C1424 0.931 . S
H1441 C1429 0.929 . S
H1442 C1430 0.960 . S
H1443 C1430 0.962 . S
H1444 C1430 0.960 . S
H1445 C1431 0.961 . S
H1446 C1431 0.961 . S
H1447 C1431 0.961 . S
H1448 C1432 0.931 . S
H1449 C1437 0.930 . S
H1450 C1438 0.956 . S
H1451 C1438 0.961 . S
H1452 C1438 0.961 . S
H1453 C1439 0.958 . S
H1454 C1439 0.961 . S
H1455 C1439 0.960 . S
C1456 C1457 1.391 . S
C1456 C1458 1.394 . S
C1456 H1472 0.931 . S
C1457 C1456 1.391 . S
C1457 C1461 1.376 . S
C1458 C1456 1.394 . S
C1458 C1459 1.369 1_545 S
C1458 C1462 1.531 1_545 S
C1459 C1458 1.369 1_565 S
C1459 C1460 1.410 1_565 S
C1459 C1467 1.503 . S
C1460 C1459 1.410 1_545 S
C1460 C1461 1.392 . S
C1460 C1463 1.511 1_545 S
C1461 C1457 1.376 . S
C1461 C1460 1.392 . S
C1461 H1473 0.929 . S
C1462 C1458 1.531 1_565 S
C1462 H1474 0.960 . S
C1462 H1475 0.962 . S
C1462 H1476 0.960 . S
C1463 C1460 1.511 1_565 S
C1463 H1477 0.949 1_565 S
C1463 H1478 0.961 . S
C1463 H1479 0.961 . S
C1464 C1465 1.370 . S
C1464 C1466 1.363 . S
C1464 H1480 0.931 . S
C1465 C1464 1.370 . S
C1465 C1469 1.408 . S
C1466 C1464 1.363 . S
C1466 C1467 1.370 . S
C1466 C1470 1.524 . S
C1467 C1459 1.503 . S
C1467 C1466 1.370 . S
C1467 C1468 1.403 . S
C1468 C1467 1.403 . S
C1468 C1469 1.404 . S
C1468 C1471 1.539 . S
C1469 C1465 1.408 . S
C1469 C1468 1.404 . S
C1469 H1481 0.930 . S
C1470 C1466 1.524 . S
C1470 H1482 0.956 . S
C1470 H1483 0.961 . S
C1470 H1484 0.961 . S
C1471 C1468 1.539 . S
C1471 H1485 0.958 . S
C1471 H1486 0.961 . S
C1471 H1487 0.960 . S
H1472 C1456 0.931 . S
H1473 C1461 0.929 . S
H1474 C1462 0.960 . S
H1475 C1462 0.962 . S
H1476 C1462 0.960 . S
H1477 C1463 0.949 1_545 S
H1478 C1463 0.961 . S
H1479 C1463 0.961 . S
H1480 C1464 0.931 . S
H1481 C1469 0.930 . S
H1482 C1470 0.956 . S
H1483 C1470 0.961 . S
H1484 C1470 0.961 . S
H1485 C1471 0.958 . S
H1486 C1471 0.961 . S
H1487 C1471 0.960 . S
C1488 C1489 1.391 . S
C1488 C1490 1.394 . S
C1488 H1504 0.931 . S
C1489 C1488 1.391 . S
C1489 C1493 1.376 . S
C1490 C1488 1.394 . S
C1490 C1491 1.369 . S
C1490 C1494 1.531 . S
C1491 C1490 1.369 . S
C1491 C1492 1.410 . S
C1491 C1499 1.503 . S
C1492 C1491 1.410 . S
C1492 C1493 1.392 . S
C1492 C1495 1.511 . S
C1493 C1489 1.376 . S
C1493 C1492 1.392 . S
C1493 H1505 0.929 . S
C1494 C1490 1.531 . S
C1494 H1506 0.960 . S
C1494 H1507 0.962 . S
C1494 H1508 0.960 . S
C1495 C1492 1.511 . S
C1495 H1509 0.961 . S
C1495 H1510 0.961 . S
C1495 H1511 0.961 . S
C1496 C1497 1.370 . S
C1496 C1498 1.363 . S
C1496 H1512 0.931 . S
C1497 C1496 1.370 . S
C1497 C1501 1.408 . S
C1498 C1496 1.363 . S
C1498 C1499 1.370 . S
C1498 C1502 1.524 . S
C1499 C1491 1.503 . S
C1499 C1498 1.370 . S
C1499 C1500 1.403 . S
C1500 C1499 1.403 . S
C1500 C1501 1.404 . S
C1500 C1503 1.539 . S
C1501 C1497 1.408 . S
C1501 C1500 1.404 . S
C1501 H1513 0.930 . S
C1502 C1498 1.524 . S
C1502 H1514 0.956 . S
C1502 H1515 0.961 . S
C1502 H1516 0.961 . S
C1503 C1500 1.539 . S
C1503 H1517 0.958 . S
C1503 H1518 0.961 . S
C1503 H1519 0.960 . S
H1504 C1488 0.931 . S
H1505 C1493 0.929 . S
H1506 C1494 0.960 . S
H1507 C1494 0.962 . S
H1508 C1494 0.960 . S
H1509 C1495 0.961 . S
H1510 C1495 0.961 . S
H1511 C1495 0.961 . S
H1512 C1496 0.931 . S
H1513 C1501 0.930 . S
H1514 C1502 0.956 . S
H1515 C1502 0.961 . S
H1516 C1502 0.961 . S
H1517 C1503 0.958 . S
H1518 C1503 0.961 . S
H1519 C1503 0.960 . S
C1520 C1521 1.391 . S
C1520 C1522 1.394 . S
C1520 H1536 0.931 . S
C1521 C1520 1.391 . S
C1521 C1525 1.376 . S
C1522 C1520 1.394 . S
C1522 C1523 1.369 . S
C1522 C1526 1.531 . S
C1523 C1522 1.369 . S
C1523 C1524 1.410 . S
C1523 C1531 1.503 . S
C1524 C1523 1.410 . S
C1524 C1525 1.392 . S
C1524 C1527 1.511 . S
C1525 C1521 1.376 . S
C1525 C1524 1.392 . S
C1525 H1537 0.929 . S
C1526 C1522 1.531 . S
C1526 H1538 0.960 . S
C1526 H1539 0.962 . S
C1526 H1540 0.960 . S
C1527 C1524 1.511 . S
C1527 H1541 0.961 . S
C1527 H1542 0.961 . S
C1527 H1543 0.961 . S
C1528 C1529 1.370 . S
C1528 C1530 1.363 . S
C1528 H1544 0.931 . S
C1529 C1528 1.370 . S
C1529 C1533 1.408 . S
C1530 C1528 1.363 . S
C1530 C1531 1.370 . S
C1530 C1534 1.524 . S
C1531 C1523 1.503 . S
C1531 C1530 1.370 . S
C1531 C1532 1.403 . S
C1532 C1531 1.403 . S
C1532 C1533 1.404 . S
C1532 C1535 1.539 . S
C1533 C1529 1.408 . S
C1533 C1532 1.404 . S
C1533 H1545 0.930 . S
C1534 C1530 1.524 . S
C1534 H1546 0.956 . S
C1534 H1547 0.961 . S
C1534 H1548 0.961 . S
C1535 C1532 1.539 . S
C1535 H1549 0.958 . S
C1535 H1550 0.961 . S
C1535 H1551 0.960 . S
H1536 C1520 0.931 . S
H1537 C1525 0.929 . S
H1538 C1526 0.960 . S
H1539 C1526 0.962 . S
H1540 C1526 0.960 . S
H1541 C1527 0.961 . S
H1542 C1527 0.961 . S
H1543 C1527 0.961 . S
H1544 C1528 0.931 . S
H1545 C1533 0.930 . S
H1546 C1534 0.956 . S
H1547 C1534 0.961 . S
H1548 C1534 0.961 . S
H1549 C1535 0.958 . S
H1550 C1535 0.961 . S
H1551 C1535 0.960 . S
C1552 C1553 1.391 . S
C1552 C1554 1.394 . S
C1552 H1568 0.931 . S
C1553 C1552 1.391 . S
C1553 C1557 1.376 . S
C1554 C1552 1.394 . S
C1554 C1555 1.369 . S
C1554 C1558 1.531 . S
C1555 C1554 1.369 . S
C1555 C1556 1.410 . S
C1555 C1563 1.503 . S
C1556 C1555 1.410 . S
C1556 C1557 1.392 . S
C1556 C1559 1.511 . S
C1557 C1553 1.376 . S
C1557 C1556 1.392 . S
C1557 H1569 0.929 . S
C1558 C1554 1.531 . S
C1558 H1570 0.960 . S
C1558 H1571 0.962 . S
C1558 H1572 0.960 . S
C1559 C1556 1.511 . S
C1559 H1573 0.961 . S
C1559 H1574 0.961 . S
C1559 H1575 0.961 . S
C1560 C1561 1.370 . S
C1560 C1562 1.363 . S
C1560 H1576 0.931 . S
C1561 C1560 1.370 . S
C1561 C1565 1.408 . S
C1562 C1560 1.363 . S
C1562 C1563 1.370 . S
C1562 C1566 1.524 . S
C1563 C1555 1.503 . S
C1563 C1562 1.370 . S
C1563 C1564 1.403 . S
C1564 C1563 1.403 . S
C1564 C1565 1.404 . S
C1564 C1567 1.539 . S
C1565 C1561 1.408 . S
C1565 C1564 1.404 . S
C1565 H1577 0.930 . S
C1566 C1562 1.524 . S
C1566 H1578 0.956 . S
C1566 H1579 0.961 . S
C1566 H1580 0.961 . S
C1567 C1564 1.539 . S
C1567 H1581 0.958 . S
C1567 H1582 0.961 . S
C1567 H1583 0.960 . S
H1568 C1552 0.931 . S
H1569 C1557 0.929 . S
H1570 C1558 0.960 . S
H1571 C1558 0.962 . S
H1572 C1558 0.960 . S
H1573 C1559 0.961 . S
H1574 C1559 0.961 . S
H1575 C1559 0.961 . S
H1576 C1560 0.931 . S
H1577 C1565 0.930 . S
H1578 C1566 0.956 . S
H1579 C1566 0.961 . S
H1580 C1566 0.961 . S
H1581 C1567 0.958 . S
H1582 C1567 0.961 . S
H1583 C1567 0.960 . S
C1584 C1585 1.391 . S
C1584 C1586 1.394 . S
C1584 H1600 0.931 . S
C1585 C1584 1.391 . S
C1585 C1589 1.376 . S
C1586 C1584 1.394 . S
C1586 C1587 1.369 . S
C1586 C1590 1.531 . S
C1587 C1586 1.369 . S
C1587 C1588 1.410 . S
C1587 C1595 1.503 . S
C1588 C1587 1.410 . S
C1588 C1589 1.392 . S
C1588 C1591 1.511 . S
C1589 C1585 1.376 . S
C1589 C1588 1.392 . S
C1589 H1601 0.929 . S
C1590 C1586 1.531 . S
C1590 H1602 0.960 . S
C1590 H1603 0.962 . S
C1590 H1604 0.960 . S
C1591 C1588 1.511 . S
C1591 H1605 0.961 . S
C1591 H1606 0.961 . S
C1591 H1607 0.961 . S
C1592 C1593 1.370 . S
C1592 C1594 1.363 . S
C1592 H1608 0.931 . S
C1593 C1592 1.370 . S
C1593 C1597 1.408 . S
C1594 C1592 1.363 . S
C1594 C1595 1.370 . S
C1594 C1598 1.524 . S
C1595 C1587 1.503 . S
C1595 C1594 1.370 . S
C1595 C1596 1.403 . S
C1596 C1595 1.403 . S
C1596 C1597 1.404 . S
C1596 C1599 1.539 . S
C1597 C1593 1.408 . S
C1597 C1596 1.404 . S
C1597 H1609 0.930 . S
C1598 C1594 1.524 . S
C1598 H1610 0.956 . S
C1598 H1611 0.961 . S
C1598 H1612 0.961 . S
C1599 C1596 1.539 . S
C1599 H1613 0.958 . S
C1599 H1614 0.961 . S
C1599 H1615 0.960 . S
H1600 C1584 0.931 . S
H1601 C1589 0.929 . S
H1602 C1590 0.960 . S
H1603 C1590 0.962 . S
H1604 C1590 0.960 . S
H1605 C1591 0.961 . S
H1606 C1591 0.961 . S
H1607 C1591 0.961 . S
H1608 C1592 0.931 . S
H1609 C1597 0.930 . S
H1610 C1598 0.956 . S
H1611 C1598 0.961 . S
H1612 C1598 0.961 . S
H1613 C1599 0.958 . S
H1614 C1599 0.961 . S
H1615 C1599 0.960 . S
C1616 C1617 1.391 . S
C1616 C1618 1.394 . S
C1616 H1632 0.931 . S
C1617 C1616 1.391 . S
C1617 C1621 1.376 . S
C1618 C1616 1.394 . S
C1618 C1619 1.369 . S
C1618 C1622 1.531 . S
C1619 C1618 1.369 . S
C1619 C1620 1.410 . S
C1619 C1627 1.503 . S
C1620 C1619 1.410 . S
C1620 C1621 1.392 . S
C1620 C1623 1.511 . S
C1621 C1617 1.376 . S
C1621 C1620 1.392 . S
C1621 H1633 0.929 . S
C1622 C1618 1.531 . S
C1622 H1634 0.960 . S
C1622 H1635 0.962 . S
C1622 H1636 0.960 . S
C1623 C1620 1.511 . S
C1623 H1637 0.961 . S
C1623 H1638 0.961 . S
C1623 H1639 0.961 . S
C1624 C1625 1.370 . S
C1624 C1626 1.363 . S
C1624 H1640 0.931 . S
C1625 C1624 1.370 . S
C1625 C1629 1.408 . S
C1626 C1624 1.363 . S
C1626 C1627 1.370 . S
C1626 C1630 1.524 . S
C1627 C1619 1.503 . S
C1627 C1626 1.370 . S
C1627 C1628 1.403 . S
C1628 C1627 1.403 . S
C1628 C1629 1.404 . S
C1628 C1631 1.539 . S
C1629 C1625 1.408 . S
C1629 C1628 1.404 . S
C1629 H1641 0.930 . S
C1630 C1626 1.524 . S
C1630 H1642 0.956 . S
C1630 H1643 0.961 . S
C1630 H1644 0.961 . S
C1631 C1628 1.539 . S
C1631 H1645 0.958 . S
C1631 H1646 0.961 . S
C1631 H1647 0.960 . S
H1632 C1616 0.931 . S
H1633 C1621 0.929 . S
H1634 C1622 0.960 . S
H1635 C1622 0.962 . S
H1636 C1622 0.960 . S
H1637 C1623 0.961 . S
H1638 C1623 0.961 . S
H1639 C1623 0.961 . S
H1640 C1624 0.931 . S
H1641 C1629 0.930 . S
H1642 C1630 0.956 . S
H1643 C1630 0.961 . S
H1644 C1630 0.961 . S
H1645 C1631 0.958 . S
H1646 C1631 0.961 . S
H1647 C1631 0.960 . S
C1648 C1649 1.391 . S
C1648 C1650 1.394 . S
C1648 H1664 0.931 . S
C1649 C1648 1.391 . S
C1649 C1653 1.376 . S
C1650 C1648 1.394 . S
C1650 C1651 1.369 . S
C1650 C1654 1.531 . S
C1651 C1650 1.369 . S
C1651 C1652 1.410 . S
C1651 C1659 1.503 . S
C1652 C1651 1.410 . S
C1652 C1653 1.392 . S
C1652 C1655 1.511 . S
C1653 C1649 1.376 . S
C1653 C1652 1.392 . S
C1653 H1665 0.929 . S
C1654 C1650 1.531 . S
C1654 H1666 0.960 . S
C1654 H1667 0.962 . S
C1654 H1668 0.960 . S
C1655 C1652 1.511 . S
C1655 H1669 0.961 . S
C1655 H1670 0.961 . S
C1655 H1671 0.961 . S
C1656 C1657 1.370 . S
C1656 C1658 1.363 . S
C1656 H1672 0.931 . S
C1657 C1656 1.370 . S
C1657 C1661 1.408 . S
C1658 C1656 1.363 . S
C1658 C1659 1.370 . S
C1658 C1662 1.524 . S
C1659 C1651 1.503 . S
C1659 C1658 1.370 . S
C1659 C1660 1.403 . S
C1660 C1659 1.403 . S
C1660 C1661 1.404 . S
C1660 C1663 1.539 . S
C1661 C1657 1.408 . S
C1661 C1660 1.404 . S
C1661 H1673 0.930 . S
C1662 C1658 1.524 . S
C1662 H1674 0.956 . S
C1662 H1675 0.961 . S
C1662 H1676 0.961 . S
C1663 C1660 1.539 . S
C1663 H1677 0.958 . S
C1663 H1678 0.961 . S
C1663 H1679 0.960 . S
H1664 C1648 0.931 . S
H1665 C1653 0.929 . S
H1666 C1654 0.960 . S
H1667 C1654 0.962 . S
H1668 C1654 0.960 . S
H1669 C1655 0.961 . S
H1670 C1655 0.961 . S
H1671 C1655 0.961 . S
H1672 C1656 0.931 . S
H1673 C1661 0.930 . S
H1674 C1662 0.956 . S
H1675 C1662 0.961 . S
H1676 C1662 0.961 . S
H1677 C1663 0.958 . S
H1678 C1663 0.961 . S
H1679 C1663 0.960 . S
C1680 C1681 1.391 . S
C1680 C1682 1.394 . S
C1680 H1696 0.931 . S
C1681 C1680 1.391 . S
C1681 C1685 1.376 . S
C1682 C1680 1.394 . S
C1682 C1683 1.369 1_545 S
C1682 C1686 1.531 1_545 S
C1683 C1682 1.369 1_565 S
C1683 C1684 1.410 . S
C1683 C1691 1.503 . S
C1684 C1683 1.410 . S
C1684 C1685 1.392 1_565 S
C1684 C1687 1.511 . S
C1685 C1681 1.376 . S
C1685 C1684 1.392 1_545 S
C1685 H1697 0.929 . S
C1686 C1682 1.531 1_565 S
C1686 H1698 0.960 . S
C1686 H1699 0.962 . S
C1686 H1700 0.960 1_565 S
C1687 C1684 1.511 . S
C1687 H1701 0.961 . S
C1687 H1702 0.961 . S
C1687 H1703 0.961 . S
C1688 C1689 1.370 . S
C1688 C1690 1.363 . S
C1688 H1704 0.931 . S
C1689 C1688 1.370 . S
C1689 C1693 1.408 . S
C1690 C1688 1.363 . S
C1690 C1691 1.370 . S
C1690 C1694 1.524 . S
C1691 C1683 1.503 . S
C1691 C1690 1.370 . S
C1691 C1692 1.403 . S
C1692 C1691 1.403 . S
C1692 C1693 1.404 . S
C1692 C1695 1.539 . S
C1693 C1689 1.408 . S
C1693 C1692 1.404 . S
C1693 H1705 0.930 . S
C1694 C1690 1.524 . S
C1694 H1706 0.956 . S
C1694 H1707 0.961 . S
C1694 H1708 0.961 . S
C1695 C1692 1.539 . S
C1695 H1709 0.958 . S
C1695 H1710 0.961 . S
C1695 H1711 0.960 . S
H1696 C1680 0.931 . S
H1697 C1685 0.929 . S
H1698 C1686 0.960 . S
H1699 C1686 0.962 . S
H1700 C1686 0.960 1_545 S
H1701 C1687 0.961 . S
H1702 C1687 0.961 . S
H1703 C1687 0.961 . S
H1704 C1688 0.931 . S
H1705 C1693 0.930 . S
H1706 C1694 0.956 . S
H1707 C1694 0.961 . S
H1708 C1694 0.961 . S
H1709 C1695 0.958 . S
H1710 C1695 0.961 . S
H1711 C1695 0.960 . S
C1712 C1713 1.391 1_455 S
C1712 C1714 1.394 . S
C1712 H1728 0.931 . S
C1713 C1712 1.391 1_655 S
C1713 C1717 1.376 . S
C1714 C1712 1.394 . S
C1714 C1715 1.369 . S
C1714 C1718 1.531 . S
C1715 C1714 1.369 . S
C1715 C1716 1.410 . S
C1715 C1723 1.503 . S
C1716 C1715 1.410 . S
C1716 C1717 1.392 1_455 S
C1716 C1719 1.511 . S
C1717 C1713 1.376 . S
C1717 C1716 1.392 1_655 S
C1717 H1729 0.929 . S
C1718 C1714 1.531 . S
C1718 H1730 0.960 . S
C1718 H1731 0.962 . S
C1718 H1732 0.960 . S
C1719 C1716 1.511 . S
C1719 H1733 0.961 . S
C1719 H1734 0.961 . S
C1719 H1735 0.961 . S
C1720 C1721 1.370 . S
C1720 C1722 1.363 . S
C1720 H1736 0.931 . S
C1721 C1720 1.370 . S
C1721 C1725 1.408 . S
C1722 C1720 1.363 . S
C1722 C1723 1.370 . S
C1722 C1726 1.524 . S
C1723 C1715 1.503 . S
C1723 C1722 1.370 . S
C1723 C1724 1.403 . S
C1724 C1723 1.403 . S
C1724 C1725 1.404 . S
C1724 C1727 1.539 . S
C1725 C1721 1.408 . S
C1725 C1724 1.404 . S
C1725 H1737 0.930 . S
C1726 C1722 1.524 . S
C1726 H1738 0.956 . S
C1726 H1739 0.961 . S
C1726 H1740 0.961 . S
C1727 C1724 1.539 . S
C1727 H1741 0.958 . S
C1727 H1742 0.961 . S
C1727 H1743 0.960 . S
H1728 C1712 0.931 . S
H1729 C1717 0.929 . S
H1730 C1718 0.960 . S
H1731 C1718 0.962 . S
H1732 C1718 0.960 . S
H1733 C1719 0.961 . S
H1734 C1719 0.961 . S
H1735 C1719 0.961 . S
H1736 C1720 0.931 . S
H1737 C1725 0.930 . S
H1738 C1726 0.956 . S
H1739 C1726 0.961 . S
H1740 C1726 0.961 . S
H1741 C1727 0.958 . S
H1742 C1727 0.961 . S
H1743 C1727 0.960 . S
C1744 C1745 1.391 . S
C1744 C1746 1.394 . S
C1744 H1760 0.931 . S
C1745 C1744 1.391 . S
C1745 C1749 1.376 . S
C1746 C1744 1.394 . S
C1746 C1747 1.369 . S
C1746 C1750 1.531 . S
C1747 C1746 1.369 . S
C1747 C1748 1.410 . S
C1747 C1755 1.503 . S
C1748 C1747 1.410 . S
C1748 C1749 1.392 . S
C1748 C1751 1.511 . S
C1749 C1745 1.376 . S
C1749 C1748 1.392 . S
C1749 H1761 0.929 . S
C1750 C1746 1.531 . S
C1750 H1762 0.960 . S
C1750 H1763 0.962 . S
C1750 H1764 0.960 . S
C1751 C1748 1.511 . S
C1751 H1765 0.961 . S
C1751 H1766 0.961 . S
C1751 H1767 0.961 . S
C1752 C1753 1.370 . S
C1752 C1754 1.363 . S
C1752 H1768 0.931 . S
C1753 C1752 1.370 . S
C1753 C1757 1.408 . S
C1754 C1752 1.363 . S
C1754 C1755 1.370 . S
C1754 C1758 1.524 . S
C1755 C1747 1.503 . S
C1755 C1754 1.370 . S
C1755 C1756 1.403 . S
C1756 C1755 1.403 . S
C1756 C1757 1.404 . S
C1756 C1759 1.539 . S
C1757 C1753 1.408 . S
C1757 C1756 1.404 . S
C1757 H1769 0.930 . S
C1758 C1754 1.524 . S
C1758 H1770 0.956 . S
C1758 H1771 0.961 . S
C1758 H1772 0.961 . S
C1759 C1756 1.539 . S
C1759 H1773 0.958 . S
C1759 H1774 0.961 . S
C1759 H1775 0.960 . S
H1760 C1744 0.931 . S
H1761 C1749 0.929 . S
H1762 C1750 0.960 . S
H1763 C1750 0.962 . S
H1764 C1750 0.960 . S
H1765 C1751 0.961 . S
H1766 C1751 0.961 . S
H1767 C1751 0.961 . S
H1768 C1752 0.931 . S
H1769 C1757 0.930 . S
H1770 C1758 0.956 . S
H1771 C1758 0.961 . S
H1772 C1758 0.961 . S
H1773 C1759 0.958 . S
H1774 C1759 0.961 . S
H1775 C1759 0.960 . S
C1776 C1777 1.391 . S
C1776 C1778 1.394 . S
C1776 H1792 0.931 . S
C1777 C1776 1.391 . S
C1777 C1781 1.376 . S
C1778 C1776 1.394 . S
C1778 C1779 1.369 . S
C1778 C1782 1.531 . S
C1779 C1778 1.369 . S
C1779 C1780 1.410 . S
C1779 C1787 1.503 . S
C1780 C1779 1.410 . S
C1780 C1781 1.392 . S
C1780 C1783 1.511 . S
C1781 C1777 1.376 . S
C1781 C1780 1.392 . S
C1781 H1793 0.929 . S
C1782 C1778 1.531 . S
C1782 H1794 0.960 . S
C1782 H1795 0.962 . S
C1782 H1796 0.960 . S
C1783 C1780 1.511 . S
C1783 H1797 0.961 . S
C1783 H1798 0.961 . S
C1783 H1799 0.961 . S
C1784 C1785 1.370 . S
C1784 C1786 1.363 . S
C1784 H1800 0.931 . S
C1785 C1784 1.370 . S
C1785 C1789 1.408 . S
C1786 C1784 1.363 . S
C1786 C1787 1.370 . S
C1786 C1790 1.524 . S
C1787 C1779 1.503 . S
C1787 C1786 1.370 . S
C1787 C1788 1.403 . S
C1788 C1787 1.403 . S
C1788 C1789 1.404 . S
C1788 C1791 1.539 . S
C1789 C1785 1.408 . S
C1789 C1788 1.404 . S
C1789 H1801 0.930 . S
C1790 C1786 1.524 . S
C1790 H1802 0.956 . S
C1790 H1803 0.961 . S
C1790 H1804 0.961 . S
C1791 C1788 1.539 . S
C1791 H1805 0.958 . S
C1791 H1806 0.961 . S
C1791 H1807 0.960 . S
H1792 C1776 0.931 . S
H1793 C1781 0.929 . S
H1794 C1782 0.960 . S
H1795 C1782 0.962 . S
H1796 C1782 0.960 . S
H1797 C1783 0.961 . S
H1798 C1783 0.961 . S
H1799 C1783 0.961 . S
H1800 C1784 0.931 . S
H1801 C1789 0.930 . S
H1802 C1790 0.956 . S
H1803 C1790 0.961 . S
H1804 C1790 0.961 . S
H1805 C1791 0.958 . S
H1806 C1791 0.961 . S
H1807 C1791 0.960 . S
C1808 C1809 1.391 . S
C1808 C1810 1.394 . S
C1808 H1824 0.931 . S
C1809 C1808 1.391 . S
C1809 C1813 1.376 . S
C1810 C1808 1.394 . S
C1810 C1811 1.369 . S
C1810 C1814 1.531 . S
C1811 C1810 1.369 . S
C1811 C1812 1.410 . S
C1811 C1819 1.503 . S
C1812 C1811 1.410 . S
C1812 C1813 1.392 . S
C1812 C1815 1.511 . S
C1813 C1809 1.376 . S
C1813 C1812 1.392 . S
C1813 H1825 0.929 . S
C1814 C1810 1.531 . S
C1814 H1826 0.960 . S
C1814 H1827 0.962 . S
C1814 H1828 0.960 . S
C1815 C1812 1.511 . S
C1815 H1829 0.961 . S
C1815 H1830 0.961 . S
C1815 H1831 0.961 . S
C1816 C1817 1.370 . S
C1816 C1818 1.363 . S
C1816 H1832 0.931 . S
C1817 C1816 1.370 . S
C1817 C1821 1.408 . S
C1818 C1816 1.363 . S
C1818 C1819 1.370 . S
C1818 C1822 1.524 . S
C1819 C1811 1.503 . S
C1819 C1818 1.370 . S
C1819 C1820 1.403 . S
C1820 C1819 1.403 . S
C1820 C1821 1.404 . S
C1820 C1823 1.539 . S
C1821 C1817 1.408 . S
C1821 C1820 1.404 . S
C1821 H1833 0.930 . S
C1822 C1818 1.524 . S
C1822 H1834 0.956 . S
C1822 H1835 0.961 . S
C1822 H1836 0.961 . S
C1823 C1820 1.539 . S
C1823 H1837 0.958 . S
C1823 H1838 0.961 . S
C1823 H1839 0.960 . S
H1824 C1808 0.931 . S
H1825 C1813 0.929 . S
H1826 C1814 0.960 . S
H1827 C1814 0.962 . S
H1828 C1814 0.960 . S
H1829 C1815 0.961 . S
H1830 C1815 0.961 . S
H1831 C1815 0.961 . S
H1832 C1816 0.931 . S
H1833 C1821 0.930 . S
H1834 C1822 0.956 . S
H1835 C1822 0.961 . S
H1836 C1822 0.961 . S
H1837 C1823 0.958 . S
H1838 C1823 0.961 . S
H1839 C1823 0.960 . S
C1840 C1841 1.391 . S
C1840 C1842 1.394 . S
C1840 H1856 0.931 . S
C1841 C1840 1.391 . S
C1841 C1845 1.376 . S
C1842 C1840 1.394 . S
C1842 C1843 1.369 . S
C1842 C1846 1.531 . S
C1843 C1842 1.369 . S
C1843 C1844 1.410 . S
C1843 C1851 1.503 . S
C1844 C1843 1.410 . S
C1844 C1845 1.392 . S
C1844 C1847 1.511 . S
C1845 C1841 1.376 . S
C1845 C1844 1.392 . S
C1845 H1857 0.929 . S
C1846 C1842 1.531 . S
C1846 H1858 0.960 . S
C1846 H1859 0.962 . S
C1846 H1860 0.960 . S
C1847 C1844 1.511 . S
C1847 H1861 0.961 . S
C1847 H1862 0.961 . S
C1847 H1863 0.961 . S
C1848 C1849 1.370 . S
C1848 C1850 1.363 . S
C1848 H1864 0.931 . S
C1849 C1848 1.370 . S
C1849 C1853 1.408 . S
C1850 C1848 1.363 . S
C1850 C1851 1.370 . S
C1850 C1854 1.524 . S
C1851 C1843 1.503 . S
C1851 C1850 1.370 . S
C1851 C1852 1.403 . S
C1852 C1851 1.403 . S
C1852 C1853 1.404 . S
C1852 C1855 1.539 . S
C1853 C1849 1.408 . S
C1853 C1852 1.404 . S
C1853 H1865 0.930 . S
C1854 C1850 1.524 . S
C1854 H1866 0.956 . S
C1854 H1867 0.961 . S
C1854 H1868 0.961 . S
C1855 C1852 1.539 . S
C1855 H1869 0.958 . S
C1855 H1870 0.961 . S
C1855 H1871 0.960 . S
H1856 C1840 0.931 . S
H1857 C1845 0.929 . S
H1858 C1846 0.960 . S
H1859 C1846 0.962 . S
H1860 C1846 0.960 . S
H1861 C1847 0.961 . S
H1862 C1847 0.961 . S
H1863 C1847 0.961 . S
H1864 C1848 0.931 . S
H1865 C1853 0.930 . S
H1866 C1854 0.956 . S
H1867 C1854 0.961 . S
H1868 C1854 0.961 . S
H1869 C1855 0.958 . S
H1870 C1855 0.961 . S
H1871 C1855 0.960 . S
C1872 C1873 1.391 . S
C1872 C1874 1.432 . S
C1872 H1888 0.931 . S
C1873 C1872 1.391 . S
C1873 C1877 1.376 . S
C1874 C1872 1.432 . S
C1874 C1875 1.361 1_565 S
C1874 C1878 1.501 1_565 S
C1875 C1874 1.361 1_545 S
C1875 C1876 1.410 . S
C1875 C1883 1.503 . S
C1876 C1875 1.410 . S
C1876 C1877 1.392 1_545 S
C1876 C1879 1.511 . S
C1877 C1873 1.376 . S
C1877 C1876 1.392 1_565 S
C1877 H1889 0.929 . S
C1878 C1874 1.501 1_545 S
C1878 H1890 0.960 . S
C1878 H1891 0.962 . S
C1878 H1892 0.960 1_545 S
C1879 C1876 1.511 . S
C1879 H1893 0.961 . S
C1879 H1894 0.961 . S
C1879 H1895 0.961 . S
C1880 C1881 1.370 . S
C1880 C1882 1.363 . S
C1880 H1896 0.931 . S
C1881 C1880 1.370 . S
C1881 C1885 1.408 . S
C1882 C1880 1.363 . S
C1882 C1883 1.370 . S
C1882 C1886 1.524 . S
C1883 C1875 1.503 . S
C1883 C1882 1.370 . S
C1883 C1884 1.403 . S
C1884 C1883 1.403 . S
C1884 C1885 1.404 . S
C1884 C1887 1.539 . S
C1885 C1881 1.408 . S
C1885 C1884 1.404 . S
C1885 H1897 0.930 . S
C1886 C1882 1.524 . S
C1886 H1898 0.956 . S
C1886 H1899 0.961 . S
C1886 H1900 0.961 . S
C1887 C1884 1.539 . S
C1887 H1901 0.958 . S
C1887 H1902 0.961 . S
C1887 H1903 0.960 . S
H1888 C1872 0.931 . S
H1889 C1877 0.929 . S
H1890 C1878 0.960 . S
H1891 C1878 0.962 . S
H1892 C1878 0.960 1_565 S
H1893 C1879 0.961 . S
H1894 C1879 0.961 . S
H1895 C1879 0.961 . S
H1896 C1880 0.931 . S
H1897 C1885 0.930 . S
H1898 C1886 0.956 . S
H1899 C1886 0.961 . S
H1900 C1886 0.961 . S
H1901 C1887 0.958 . S
H1902 C1887 0.961 . S
H1903 C1887 0.960 . S
C1904 C1905 1.391 1_655 S
C1904 C1906 1.394 . S
C1904 H1920 0.931 . S
C1905 C1904 1.391 1_455 S
C1905 C1909 1.376 . S
C1906 C1904 1.394 . S
C1906 C1907 1.369 . S
C1906 C1910 1.531 . S
C1907 C1906 1.369 . S
C1907 C1908 1.410 . S
C1907 C1915 1.503 . S
C1908 C1907 1.410 . S
C1908 C1909 1.392 1_655 S
C1908 C1911 1.511 . S
C1909 C1905 1.376 . S
C1909 C1908 1.392 1_455 S
C1909 H1921 0.929 . S
C1910 C1906 1.531 . S
C1910 H1922 0.960 . S
C1910 H1923 0.962 . S
C1910 H1924 0.960 . S
C1911 C1908 1.511 . S
C1911 H1925 0.942 1_655 S
C1911 H1926 0.961 . S
C1911 H1927 0.961 . S
C1912 C1913 1.370 . S
C1912 C1914 1.363 . S
C1912 H1928 0.931 . S
C1913 C1912 1.370 . S
C1913 C1917 1.408 . S
C1914 C1912 1.363 . S
C1914 C1915 1.370 . S
C1914 C1918 1.524 . S
C1915 C1907 1.503 . S
C1915 C1914 1.370 . S
C1915 C1916 1.403 . S
C1916 C1915 1.403 . S
C1916 C1917 1.404 . S
C1916 C1919 1.539 . S
C1917 C1913 1.408 . S
C1917 C1916 1.404 . S
C1917 H1929 0.930 . S
C1918 C1914 1.524 . S
C1918 H1930 0.956 . S
C1918 H1931 0.961 . S
C1918 H1932 0.961 . S
C1919 C1916 1.539 . S
C1919 H1933 0.958 . S
C1919 H1934 0.961 . S
C1919 H1935 0.960 . S
H1920 C1904 0.931 . S
H1921 C1909 0.929 . S
H1922 C1910 0.960 . S
H1923 C1910 0.962 . S
H1924 C1910 0.960 . S
H1925 C1911 0.942 1_455 S
H1926 C1911 0.961 . S
H1927 C1911 0.961 . S
H1928 C1912 0.931 . S
H1929 C1917 0.930 . S
H1930 C1918 0.956 . S
H1931 C1918 0.961 . S
H1932 C1918 0.961 . S
H1933 C1919 0.958 . S
H1934 C1919 0.961 . S
H1935 C1919 0.960 . S
C1936 C1937 1.391 . S
C1936 C1938 1.394 . S
C1936 H1952 0.931 . S
C1937 C1936 1.391 . S
C1937 C1941 1.376 . S
C1938 C1936 1.394 . S
C1938 C1939 1.369 . S
C1938 C1942 1.531 . S
C1939 C1938 1.369 . S
C1939 C1940 1.410 . S
C1939 C1947 1.503 . S
C1940 C1939 1.410 . S
C1940 C1941 1.392 . S
C1940 C1943 1.511 . S
C1941 C1937 1.376 . S
C1941 C1940 1.392 . S
C1941 H1953 0.929 . S
C1942 C1938 1.531 . S
C1942 H1954 0.960 . S
C1942 H1955 0.962 . S
C1942 H1956 0.960 . S
C1943 C1940 1.511 . S
C1943 H1957 0.961 . S
C1943 H1958 0.961 . S
C1943 H1959 0.961 . S
C1944 C1945 1.370 . S
C1944 C1946 1.363 . S
C1944 H1960 0.931 . S
C1945 C1944 1.370 . S
C1945 C1949 1.408 . S
C1946 C1944 1.363 . S
C1946 C1947 1.370 . S
C1946 C1950 1.524 . S
C1947 C1939 1.503 . S
C1947 C1946 1.370 . S
C1947 C1948 1.403 . S
C1948 C1947 1.403 . S
C1948 C1949 1.404 . S
C1948 C1951 1.539 . S
C1949 C1945 1.408 . S
C1949 C1948 1.404 . S
C1949 H1961 0.930 . S
C1950 C1946 1.524 . S
C1950 H1962 0.956 . S
C1950 H1963 0.961 . S
C1950 H1964 0.961 . S
C1951 C1948 1.539 . S
C1951 H1965 0.958 . S
C1951 H1966 0.961 . S
C1951 H1967 0.960 . S
H1952 C1936 0.931 . S
H1953 C1941 0.929 . S
H1954 C1942 0.960 . S
H1955 C1942 0.962 . S
H1956 C1942 0.960 . S
H1957 C1943 0.961 . S
H1958 C1943 0.961 . S
H1959 C1943 0.961 . S
H1960 C1944 0.931 . S
H1961 C1949 0.930 . S
H1962 C1950 0.956 . S
H1963 C1950 0.961 . S
H1964 C1950 0.961 . S
H1965 C1951 0.958 . S
H1966 C1951 0.961 . S
H1967 C1951 0.960 . S
C1968 C1969 1.391 . S
C1968 C1970 1.394 1_455 S
C1968 H1984 0.931 . S
C1969 C1968 1.391 . S
C1969 C1973 1.376 . S
C1970 C1968 1.394 1_655 S
C1970 C1971 1.369 . S
C1970 C1974 1.531 . S
C1971 C1970 1.369 . S
C1971 C1972 1.410 . S
C1971 C1979 1.503 . S
C1972 C1971 1.410 . S
C1972 C1973 1.392 1_655 S
C1972 C1975 1.511 . S
C1973 C1969 1.376 . S
C1973 C1972 1.392 1_455 S
C1973 H1985 0.929 . S
C1974 C1970 1.531 . S
C1974 H1986 0.960 . S
C1974 H1987 0.962 . S
C1974 H1988 0.960 . S
C1975 C1972 1.511 . S
C1975 H1989 0.961 1_655 S
C1975 H1990 0.961 . S
C1975 H1991 0.961 . S
C1976 C1977 1.370 . S
C1976 C1978 1.363 . S
C1976 H1992 0.931 . S
C1977 C1976 1.370 . S
C1977 C1981 1.408 . S
C1978 C1976 1.363 . S
C1978 C1979 1.370 . S
C1978 C1982 1.524 . S
C1979 C1971 1.503 . S
C1979 C1978 1.370 . S
C1979 C1980 1.403 . S
C1980 C1979 1.403 . S
C1980 C1981 1.404 . S
C1980 C1983 1.539 . S
C1981 C1977 1.408 . S
C1981 C1980 1.404 . S
C1981 H1993 0.930 . S
C1982 C1978 1.524 . S
C1982 H1994 0.956 . S
C1982 H1995 0.961 . S
C1982 H1996 0.961 . S
C1983 C1980 1.539 . S
C1983 H1997 0.958 . S
C1983 H1998 0.961 . S
C1983 H1999 0.960 . S
H1984 C1968 0.931 . S
H1985 C1973 0.929 . S
H1986 C1974 0.960 . S
H1987 C1974 0.962 . S
H1988 C1974 0.960 . S
H1989 C1975 0.961 1_455 S
H1990 C1975 0.961 . S
H1991 C1975 0.961 . S
H1992 C1976 0.931 . S
H1993 C1981 0.930 . S
H1994 C1982 0.956 . S
H1995 C1982 0.961 . S
H1996 C1982 0.961 . S
H1997 C1983 0.958 . S
H1998 C1983 0.961 . S
H1999 C1983 0.960 . S
C2000 C2001 1.391 . S
C2000 C2002 1.394 . S
C2000 H2016 0.931 . S
C2001 C2000 1.391 . S
C2001 C2005 1.376 . S
C2002 C2000 1.394 . S
C2002 C2003 1.369 . S
C2002 C2006 1.531 . S
C2003 C2002 1.369 . S
C2003 C2004 1.410 . S
C2003 C2011 1.503 . S
C2004 C2003 1.410 . S
C2004 C2005 1.392 . S
C2004 C2007 1.511 . S
C2005 C2001 1.376 . S
C2005 C2004 1.392 . S
C2005 H2017 0.929 . S
C2006 C2002 1.531 . S
C2006 H2018 0.960 . S
C2006 H2019 0.962 . S
C2006 H2020 0.960 . S
C2007 C2004 1.511 . S
C2007 H2021 0.961 . S
C2007 H2022 0.961 . S
C2007 H2023 0.961 . S
C2008 C2009 1.370 . S
C2008 C2010 1.363 . S
C2008 H2024 0.931 . S
C2009 C2008 1.370 . S
C2009 C2013 1.408 . S
C2010 C2008 1.363 . S
C2010 C2011 1.370 . S
C2010 C2014 1.524 . S
C2011 C2003 1.503 . S
C2011 C2010 1.370 . S
C2011 C2012 1.403 . S
C2012 C2011 1.403 . S
C2012 C2013 1.404 . S
C2012 C2015 1.539 . S
C2013 C2009 1.408 . S
C2013 C2012 1.404 . S
C2013 H2025 0.930 . S
C2014 C2010 1.524 . S
C2014 H2026 0.956 . S
C2014 H2027 0.961 . S
C2014 H2028 0.961 . S
C2015 C2012 1.539 . S
C2015 H2029 0.958 . S
C2015 H2030 0.961 . S
C2015 H2031 0.960 . S
H2016 C2000 0.931 . S
H2017 C2005 0.929 . S
H2018 C2006 0.960 . S
H2019 C2006 0.962 . S
H2020 C2006 0.960 . S
H2021 C2007 0.961 . S
H2022 C2007 0.961 . S
H2023 C2007 0.961 . S
H2024 C2008 0.931 . S
H2025 C2013 0.930 . S
H2026 C2014 0.956 . S
H2027 C2014 0.961 . S
H2028 C2014 0.961 . S
H2029 C2015 0.958 . S
H2030 C2015 0.961 . S
H2031 C2015 0.960 . S
C2032 C2033 1.391 . S
C2032 C2034 1.394 . S
C2032 H2048 0.931 . S
C2033 C2032 1.391 . S
C2033 C2037 1.376 . S
C2034 C2032 1.394 . S
C2034 C2035 1.369 1_565 S
C2034 C2038 1.531 1_565 S
C2035 C2034 1.369 1_545 S
C2035 C2036 1.410 1_545 S
C2035 C2043 1.503 . S
C2036 C2035 1.410 1_565 S
C2036 C2037 1.392 . S
C2036 C2039 1.511 1_565 S
C2037 C2033 1.376 . S
C2037 C2036 1.392 . S
C2037 H2049 0.929 . S
C2038 C2034 1.531 1_545 S
C2038 H2050 0.960 . S
C2038 H2051 0.962 . S
C2038 H2052 0.960 1_545 S
C2039 C2036 1.511 1_545 S
C2039 H2053 0.961 . S
C2039 H2054 0.961 . S
C2039 H2055 0.961 . S
C2040 C2041 1.370 . S
C2040 C2042 1.363 . S
C2040 H2056 0.931 . S
C2041 C2040 1.370 . S
C2041 C2045 1.408 . S
C2042 C2040 1.363 . S
C2042 C2043 1.370 . S
C2042 C2046 1.524 . S
C2043 C2035 1.503 . S
C2043 C2042 1.370 . S
C2043 C2044 1.403 . S
C2044 C2043 1.403 . S
C2044 C2045 1.404 . S
C2044 C2047 1.539 . S
C2045 C2041 1.408 . S
C2045 C2044 1.404 . S
C2045 H2057 0.930 . S
C2046 C2042 1.524 . S
C2046 H2058 0.956 . S
C2046 H2059 0.961 . S
C2046 H2060 0.961 . S
C2047 C2044 1.539 . S
C2047 H2061 0.958 . S
C2047 H2062 0.961 . S
C2047 H2063 0.960 . S
H2048 C2032 0.931 . S
H2049 C2037 0.929 . S
H2050 C2038 0.960 . S
H2051 C2038 0.962 . S
H2052 C2038 0.960 1_565 S
H2053 C2039 0.961 . S
H2054 C2039 0.961 . S
H2055 C2039 0.961 . S
H2056 C2040 0.931 . S
H2057 C2045 0.930 . S
H2058 C2046 0.956 . S
H2059 C2046 0.961 . S
H2060 C2046 0.961 . S
H2061 C2047 0.958 . S
H2062 C2047 0.961 . S
H2063 C2047 0.960 . S
C2064 C2065 1.391 . S
C2064 C2066 1.394 . S
C2064 H2080 0.931 . S
C2065 C2064 1.391 . S
C2065 C2069 1.376 . S
C2066 C2064 1.394 . S
C2066 C2067 1.369 . S
C2066 C2070 1.531 . S
C2067 C2066 1.369 . S
C2067 C2068 1.410 . S
C2067 C2075 1.503 . S
C2068 C2067 1.410 . S
C2068 C2069 1.392 . S
C2068 C2071 1.511 . S
C2069 C2065 1.376 . S
C2069 C2068 1.392 . S
C2069 H2081 0.929 . S
C2070 C2066 1.531 . S
C2070 H2082 0.960 . S
C2070 H2083 0.962 . S
C2070 H2084 0.960 . S
C2071 C2068 1.511 . S
C2071 H2085 0.961 . S
C2071 H2086 0.961 . S
C2071 H2087 0.961 . S
C2072 C2073 1.370 . S
C2072 C2074 1.363 . S
C2072 H2088 0.931 . S
C2073 C2072 1.370 . S
C2073 C2077 1.408 . S
C2074 C2072 1.363 . S
C2074 C2075 1.370 . S
C2074 C2078 1.524 . S
C2075 C2067 1.503 . S
C2075 C2074 1.370 . S
C2075 C2076 1.403 . S
C2076 C2075 1.403 . S
C2076 C2077 1.404 . S
C2076 C2079 1.539 . S
C2077 C2073 1.408 . S
C2077 C2076 1.404 . S
C2077 H2089 0.930 . S
C2078 C2074 1.524 . S
C2078 H2090 0.956 . S
C2078 H2091 0.961 . S
C2078 H2092 0.961 . S
C2079 C2076 1.539 . S
C2079 H2093 0.958 . S
C2079 H2094 0.961 . S
C2079 H2095 0.960 . S
H2080 C2064 0.931 . S
H2081 C2069 0.929 . S
H2082 C2070 0.960 . S
H2083 C2070 0.962 . S
H2084 C2070 0.960 . S
H2085 C2071 0.961 . S
H2086 C2071 0.961 . S
H2087 C2071 0.961 . S
H2088 C2072 0.931 . S
H2089 C2077 0.930 . S
H2090 C2078 0.956 . S
H2091 C2078 0.961 . S
H2092 C2078 0.961 . S
H2093 C2079 0.958 . S
H2094 C2079 0.961 . S
H2095 C2079 0.960 . S
C2096 C2097 1.391 . S
C2096 C2098 1.394 . S
C2096 H2112 0.931 . S
C2097 C2096 1.391 . S
C2097 C2101 1.376 . S
C2098 C2096 1.394 . S
C2098 C2099 1.369 . S
C2098 C2102 1.531 . S
C2099 C2098 1.369 . S
C2099 C2100 1.410 . S
C2099 C2107 1.503 . S
C2100 C2099 1.410 . S
C2100 C2101 1.392 . S
C2100 C2103 1.511 . S
C2101 C2097 1.376 . S
C2101 C2100 1.392 . S
C2101 H2113 0.929 . S
C2102 C2098 1.531 . S
C2102 H2114 0.960 . S
C2102 H2115 0.962 . S
C2102 H2116 0.960 . S
C2103 C2100 1.511 . S
C2103 H2117 0.961 . S
C2103 H2118 0.961 . S
C2103 H2119 0.961 . S
C2104 C2105 1.370 . S
C2104 C2106 1.363 . S
C2104 H2120 0.931 . S
C2105 C2104 1.370 . S
C2105 C2109 1.408 . S
C2106 C2104 1.363 . S
C2106 C2107 1.370 . S
C2106 C2110 1.524 . S
C2107 C2099 1.503 . S
C2107 C2106 1.370 . S
C2107 C2108 1.403 . S
C2108 C2107 1.403 . S
C2108 C2109 1.404 . S
C2108 C2111 1.539 . S
C2109 C2105 1.408 . S
C2109 C2108 1.404 . S
C2109 H2121 0.930 . S
C2110 C2106 1.524 . S
C2110 H2122 0.956 . S
C2110 H2123 0.961 . S
C2110 H2124 0.961 . S
C2111 C2108 1.539 . S
C2111 H2125 0.958 . S
C2111 H2126 0.961 . S
C2111 H2127 0.960 . S
H2112 C2096 0.931 . S
H2113 C2101 0.929 . S
H2114 C2102 0.960 . S
H2115 C2102 0.962 . S
H2116 C2102 0.960 . S
H2117 C2103 0.961 . S
H2118 C2103 0.961 . S
H2119 C2103 0.961 . S
H2120 C2104 0.931 . S
H2121 C2109 0.930 . S
H2122 C2110 0.956 . S
H2123 C2110 0.961 . S
H2124 C2110 0.961 . S
H2125 C2111 0.958 . S
H2126 C2111 0.961 . S
H2127 C2111 0.960 . S
C2128 C2129 1.391 . S
C2128 C2130 1.394 . S
C2128 H2144 0.931 . S
C2129 C2128 1.391 . S
C2129 C2133 1.376 . S
C2130 C2128 1.394 . S
C2130 C2131 1.369 . S
C2130 C2134 1.531 . S
C2131 C2130 1.369 . S
C2131 C2132 1.410 . S
C2131 C2139 1.503 . S
C2132 C2131 1.410 . S
C2132 C2133 1.392 . S
C2132 C2135 1.511 . S
C2133 C2129 1.376 . S
C2133 C2132 1.392 . S
C2133 H2145 0.929 . S
C2134 C2130 1.531 . S
C2134 H2146 0.960 . S
C2134 H2147 0.962 . S
C2134 H2148 0.960 . S
C2135 C2132 1.511 . S
C2135 H2149 0.961 . S
C2135 H2150 0.961 . S
C2135 H2151 0.961 . S
C2136 C2137 1.370 . S
C2136 C2138 1.363 . S
C2136 H2152 0.931 . S
C2137 C2136 1.370 . S
C2137 C2141 1.408 . S
C2138 C2136 1.363 . S
C2138 C2139 1.370 . S
C2138 C2142 1.524 . S
C2139 C2131 1.503 . S
C2139 C2138 1.370 . S
C2139 C2140 1.403 . S
C2140 C2139 1.403 . S
C2140 C2141 1.404 . S
C2140 C2143 1.539 . S
C2141 C2137 1.408 . S
C2141 C2140 1.404 . S
C2141 H2153 0.930 . S
C2142 C2138 1.524 . S
C2142 H2154 0.956 . S
C2142 H2155 0.961 . S
C2142 H2156 0.961 . S
C2143 C2140 1.539 . S
C2143 H2157 0.958 . S
C2143 H2158 0.961 . S
C2143 H2159 0.960 . S
H2144 C2128 0.931 . S
H2145 C2133 0.929 . S
H2146 C2134 0.960 . S
H2147 C2134 0.962 . S
H2148 C2134 0.960 . S
H2149 C2135 0.961 . S
H2150 C2135 0.961 . S
H2151 C2135 0.961 . S
H2152 C2136 0.931 . S
H2153 C2141 0.930 . S
H2154 C2142 0.956 . S
H2155 C2142 0.961 . S
H2156 C2142 0.961 . S
H2157 C2143 0.958 . S
H2158 C2143 0.961 . S
H2159 C2143 0.960 . S
C2160 C2161 1.391 . S
C2160 C2162 1.394 . S
C2160 H2176 0.931 . S
C2161 C2160 1.391 . S
C2161 C2165 1.376 . S
C2162 C2160 1.394 . S
C2162 C2163 1.369 . S
C2162 C2166 1.531 . S
C2163 C2162 1.369 . S
C2163 C2164 1.410 . S
C2163 C2171 1.503 . S
C2164 C2163 1.410 . S
C2164 C2165 1.392 . S
C2164 C2167 1.511 . S
C2165 C2161 1.376 . S
C2165 C2164 1.392 . S
C2165 H2177 0.929 . S
C2166 C2162 1.531 . S
C2166 H2178 0.960 . S
C2166 H2179 0.962 . S
C2166 H2180 0.960 . S
C2167 C2164 1.511 . S
C2167 H2181 0.961 1_565 S
C2167 H2182 0.961 1_565 S
C2167 H2183 0.961 . S
C2168 C2169 1.370 1_545 S
C2168 C2170 1.363 1_545 S
C2168 H2184 0.931 . S
C2169 C2168 1.370 1_565 S
C2169 C2173 1.408 . S
C2170 C2168 1.363 1_565 S
C2170 C2171 1.370 . S
C2170 C2174 1.524 1_565 S
C2171 C2163 1.503 . S
C2171 C2170 1.370 . S
C2171 C2172 1.403 . S
C2172 C2171 1.403 . S
C2172 C2173 1.404 . S
C2172 C2175 1.539 . S
C2173 C2169 1.408 . S
C2173 C2172 1.404 . S
C2173 H2185 0.930 . S
C2174 C2170 1.524 1_545 S
C2174 H2186 0.956 . S
C2174 H2187 0.961 . S
C2174 H2188 0.961 . S
C2175 C2172 1.539 . S
C2175 H2189 0.958 . S
C2175 H2190 0.961 . S
C2175 H2191 0.960 . S
H2176 C2160 0.931 . S
H2177 C2165 0.929 . S
H2178 C2166 0.960 . S
H2179 C2166 0.962 . S
H2180 C2166 0.960 . S
H2181 C2167 0.961 1_545 S
H2182 C2167 0.961 1_545 S
H2183 C2167 0.961 . S
H2184 C2168 0.931 . S
H2185 C2173 0.930 . S
H2186 C2174 0.956 . S
H2187 C2174 0.961 . S
H2188 C2174 0.961 . S
H2189 C2175 0.958 . S
H2190 C2175 0.961 . S
H2191 C2175 0.960 . S
C2192 C2193 1.391 1_655 S
C2192 C2194 1.394 . S
C2192 H2208 0.931 . S
C2193 C2192 1.391 1_455 S
C2193 C2197 1.376 . S
C2194 C2192 1.394 . S
C2194 C2195 1.369 1_655 S
C2194 C2198 1.531 . S
C2195 C2194 1.369 1_455 S
C2195 C2196 1.410 . S
C2195 C2203 1.503 . S
C2196 C2195 1.410 . S
C2196 C2197 1.392 . S
C2196 C2199 1.511 . S
C2197 C2193 1.376 . S
C2197 C2196 1.392 . S
C2197 H2209 0.929 . S
C2198 C2194 1.531 . S
C2198 H2210 0.960 . S
C2198 H2211 0.962 . S
C2198 H2212 0.960 . S
C2199 C2196 1.511 . S
C2199 H2213 0.961 . S
C2199 H2214 0.961 . S
C2199 H2215 0.961 . S
C2200 C2201 1.370 1_655 S
C2200 C2202 1.363 . S
C2200 H2216 0.931 . S
C2201 C2200 1.370 1_455 S
C2201 C2205 1.408 . S
C2202 C2200 1.363 . S
C2202 C2203 1.370 1_655 S
C2202 C2206 1.524 . S
C2203 C2195 1.503 . S
C2203 C2202 1.370 1_455 S
C2203 C2204 1.403 . S
C2204 C2203 1.403 . S
C2204 C2205 1.404 . S
C2204 C2207 1.539 . S
C2205 C2201 1.408 . S
C2205 C2204 1.404 . S
C2205 H2217 0.930 . S
C2206 C2202 1.524 . S
C2206 H2218 0.956 . S
C2206 H2219 0.961 . S
C2206 H2220 0.961 . S
C2207 C2204 1.539 . S
C2207 H2221 0.958 . S
C2207 H2222 0.961 . S
C2207 H2223 0.960 . S
H2208 C2192 0.931 . S
H2209 C2197 0.929 . S
H2210 C2198 0.960 . S
H2211 C2198 0.962 . S
H2212 C2198 0.960 . S
H2213 C2199 0.961 . S
H2214 C2199 0.961 . S
H2215 C2199 0.961 . S
H2216 C2200 0.931 . S
H2217 C2205 0.930 . S
H2218 C2206 0.956 . S
H2219 C2206 0.961 . S
H2220 C2206 0.961 . S
H2221 C2207 0.958 . S
H2222 C2207 0.961 . S
H2223 C2207 0.960 . S
C2224 C2225 1.391 . S
C2224 C2226 1.394 . S
C2224 H2240 0.931 . S
C2225 C2224 1.391 . S
C2225 C2229 1.376 . S
C2226 C2224 1.394 . S
C2226 C2227 1.369 . S
C2226 C2230 1.531 . S
C2227 C2226 1.369 . S
C2227 C2228 1.410 . S
C2227 C2235 1.503 . S
C2228 C2227 1.410 . S
C2228 C2229 1.392 . S
C2228 C2231 1.511 . S
C2229 C2225 1.376 . S
C2229 C2228 1.392 . S
C2229 H2241 0.929 . S
C2230 C2226 1.531 . S
C2230 H2242 0.960 . S
C2230 H2243 0.962 . S
C2230 H2244 0.960 . S
C2231 C2228 1.511 . S
C2231 H2245 0.961 . S
C2231 H2246 0.961 . S
C2231 H2247 0.961 . S
C2232 C2233 1.370 . S
C2232 C2234 1.363 . S
C2232 H2248 0.931 . S
C2233 C2232 1.370 . S
C2233 C2237 1.408 . S
C2234 C2232 1.363 . S
C2234 C2235 1.370 . S
C2234 C2238 1.524 . S
C2235 C2227 1.503 . S
C2235 C2234 1.370 . S
C2235 C2236 1.403 . S
C2236 C2235 1.403 . S
C2236 C2237 1.404 . S
C2236 C2239 1.539 . S
C2237 C2233 1.408 . S
C2237 C2236 1.404 . S
C2237 H2249 0.930 . S
C2238 C2234 1.524 . S
C2238 H2250 0.956 . S
C2238 H2251 0.961 . S
C2238 H2252 0.961 . S
C2239 C2236 1.539 . S
C2239 H2253 0.958 . S
C2239 H2254 0.961 . S
C2239 H2255 0.960 . S
H2240 C2224 0.931 . S
H2241 C2229 0.929 . S
H2242 C2230 0.960 . S
H2243 C2230 0.962 . S
H2244 C2230 0.960 . S
H2245 C2231 0.961 . S
H2246 C2231 0.961 . S
H2247 C2231 0.961 . S
H2248 C2232 0.931 . S
H2249 C2237 0.930 . S
H2250 C2238 0.956 . S
H2251 C2238 0.961 . S
H2252 C2238 0.961 . S
H2253 C2239 0.958 . S
H2254 C2239 0.961 . S
H2255 C2239 0.960 . S
C2256 C2257 1.391 . S
C2256 C2258 1.394 . S
C2256 H2272 0.931 . S
C2257 C2256 1.391 . S
C2257 C2261 1.376 1_655 S
C2258 C2256 1.394 . S
C2258 C2259 1.369 . S
C2258 C2262 1.531 . S
C2259 C2258 1.369 . S
C2259 C2260 1.410 1_655 S
C2259 C2267 1.503 . S
C2260 C2259 1.410 1_455 S
C2260 C2261 1.392 . S
C2260 C2263 1.511 . S
C2261 C2257 1.376 1_455 S
C2261 C2260 1.392 . S
C2261 H2273 0.929 . S
C2262 C2258 1.531 . S
C2262 H2274 0.960 . S
C2262 H2275 0.962 . S
C2262 H2276 0.960 . S
C2263 C2260 1.511 . S
C2263 H2277 0.961 . S
C2263 H2278 0.961 . S
C2263 H2279 0.961 . S
C2264 C2265 1.370 . S
C2264 C2266 1.363 . S
C2264 H2280 0.931 . S
C2265 C2264 1.370 . S
C2265 C2269 1.408 . S
C2266 C2264 1.363 . S
C2266 C2267 1.370 . S
C2266 C2270 1.524 . S
C2267 C2259 1.503 . S
C2267 C2266 1.370 . S
C2267 C2268 1.403 . S
C2268 C2267 1.403 . S
C2268 C2269 1.404 . S
C2268 C2271 1.539 . S
C2269 C2265 1.408 . S
C2269 C2268 1.404 . S
C2269 H2281 0.930 . S
C2270 C2266 1.524 . S
C2270 H2282 0.956 . S
C2270 H2283 0.961 1_655 S
C2270 H2284 0.961 . S
C2271 C2268 1.539 . S
C2271 H2285 0.958 . S
C2271 H2286 0.961 . S
C2271 H2287 0.960 . S
H2272 C2256 0.931 . S
H2273 C2261 0.929 . S
H2274 C2262 0.960 . S
H2275 C2262 0.962 . S
H2276 C2262 0.960 . S
H2277 C2263 0.961 . S
H2278 C2263 0.961 . S
H2279 C2263 0.961 . S
H2280 C2264 0.931 . S
H2281 C2269 0.930 . S
H2282 C2270 0.956 . S
H2283 C2270 0.961 1_455 S
H2284 C2270 0.961 . S
H2285 C2271 0.958 . S
H2286 C2271 0.961 . S
H2287 C2271 0.960 . S
C2288 C2289 1.391 . S
C2288 C2290 1.394 . S
C2288 H2304 0.931 . S
C2289 C2288 1.391 . S
C2289 C2293 1.376 . S
C2290 C2288 1.394 . S
C2290 C2291 1.369 . S
C2290 C2294 1.531 . S
C2291 C2290 1.369 . S
C2291 C2292 1.410 . S
C2291 C2299 1.503 . S
C2292 C2291 1.410 . S
C2292 C2293 1.392 . S
C2292 C2295 1.511 . S
C2293 C2289 1.376 . S
C2293 C2292 1.392 . S
C2293 H2305 0.929 . S
C2294 C2290 1.531 . S
C2294 H2306 0.960 . S
C2294 H2307 0.962 . S
C2294 H2308 0.960 . S
C2295 C2292 1.511 . S
C2295 H2309 0.961 . S
C2295 H2310 0.961 . S
C2295 H2311 0.961 . S
C2296 C2297 1.370 . S
C2296 C2298 1.363 . S
C2296 H2312 0.931 . S
C2297 C2296 1.370 . S
C2297 C2301 1.408 . S
C2298 C2296 1.363 . S
C2298 C2299 1.370 . S
C2298 C2302 1.524 . S
C2299 C2291 1.503 . S
C2299 C2298 1.370 . S
C2299 C2300 1.403 . S
C2300 C2299 1.403 . S
C2300 C2301 1.404 . S
C2300 C2303 1.539 . S
C2301 C2297 1.408 . S
C2301 C2300 1.404 . S
C2301 H2313 0.930 . S
C2302 C2298 1.524 . S
C2302 H2314 0.956 . S
C2302 H2315 0.961 . S
C2302 H2316 0.961 . S
C2303 C2300 1.539 . S
C2303 H2317 0.958 . S
C2303 H2318 0.961 . S
C2303 H2319 0.960 . S
H2304 C2288 0.931 . S
H2305 C2293 0.929 . S
H2306 C2294 0.960 . S
H2307 C2294 0.962 . S
H2308 C2294 0.960 . S
H2309 C2295 0.961 . S
H2310 C2295 0.961 . S
H2311 C2295 0.961 . S
H2312 C2296 0.931 . S
H2313 C2301 0.930 . S
H2314 C2302 0.956 . S
H2315 C2302 0.961 . S
H2316 C2302 0.961 . S
H2317 C2303 0.958 . S
H2318 C2303 0.961 . S
H2319 C2303 0.960 . S
C2320 C2321 1.391 . S
C2320 C2322 1.394 . S
C2320 H2336 0.931 . S
C2321 C2320 1.391 . S
C2321 C2325 1.376 . S
C2322 C2320 1.394 . S
C2322 C2323 1.369 . S
C2322 C2326 1.531 1_545 S
C2323 C2322 1.369 . S
C2323 C2324 1.410 . S
C2323 C2331 1.503 . S
C2324 C2323 1.410 . S
C2324 C2325 1.392 . S
C2324 C2327 1.511 . S
C2325 C2321 1.376 . S
C2325 C2324 1.392 . S
C2325 H2337 0.929 . S
C2326 C2322 1.531 1_565 S
C2326 H2338 0.960 . S
C2326 H2339 0.962 . S
C2326 H2340 0.960 . S
C2327 C2324 1.511 . S
C2327 H2341 0.961 . S
C2327 H2342 0.961 . S
C2327 H2343 0.961 . S
C2328 C2329 1.370 . S
C2328 C2330 1.363 . S
C2328 H2344 0.931 . S
C2329 C2328 1.370 . S
C2329 C2333 1.408 . S
C2330 C2328 1.363 . S
C2330 C2331 1.370 . S
C2330 C2334 1.524 . S
C2331 C2323 1.503 . S
C2331 C2330 1.370 . S
C2331 C2332 1.403 . S
C2332 C2331 1.403 . S
C2332 C2333 1.404 . S
C2332 C2335 1.539 . S
C2333 C2329 1.408 . S
C2333 C2332 1.404 . S
C2333 H2345 0.930 1_545 S
C2334 C2330 1.524 . S
C2334 H2346 0.956 . S
C2334 H2347 0.961 . S
C2334 H2348 0.961 . S
C2335 C2332 1.539 . S
C2335 H2349 0.958 1_545 S
C2335 H2350 0.961 . S
C2335 H2351 0.960 . S
H2336 C2320 0.931 . S
H2337 C2325 0.929 . S
H2338 C2326 0.960 . S
H2339 C2326 0.962 . S
H2340 C2326 0.960 . S
H2341 C2327 0.961 . S
H2342 C2327 0.961 . S
H2343 C2327 0.961 . S
H2344 C2328 0.931 . S
H2345 C2333 0.930 1_565 S
H2346 C2334 0.956 . S
H2347 C2334 0.961 . S
H2348 C2334 0.961 . S
H2349 C2335 0.958 1_565 S
H2350 C2335 0.961 . S
H2351 C2335 0.960 . S
C2352 C2353 1.391 . S
C2352 C2354 1.394 . S
C2352 H2368 0.931 . S
C2353 C2352 1.391 . S
C2353 C2357 1.376 . S
C2354 C2352 1.394 . S
C2354 C2355 1.369 . S
C2354 C2358 1.531 . S
C2355 C2354 1.369 . S
C2355 C2356 1.410 . S
C2355 C2363 1.503 . S
C2356 C2355 1.410 . S
C2356 C2357 1.392 . S
C2356 C2359 1.511 . S
C2357 C2353 1.376 . S
C2357 C2356 1.392 . S
C2357 H2369 0.929 . S
C2358 C2354 1.531 . S
C2358 H2370 0.960 . S
C2358 H2371 0.962 . S
C2358 H2372 0.960 . S
C2359 C2356 1.511 . S
C2359 H2373 0.961 . S
C2359 H2374 0.961 . S
C2359 H2375 0.961 . S
C2360 C2361 1.370 . S
C2360 C2362 1.363 . S
C2360 H2376 0.931 . S
C2361 C2360 1.370 . S
C2361 C2365 1.408 . S
C2362 C2360 1.363 . S
C2362 C2363 1.370 . S
C2362 C2366 1.524 . S
C2363 C2355 1.503 . S
C2363 C2362 1.370 . S
C2363 C2364 1.403 . S
C2364 C2363 1.403 . S
C2364 C2365 1.404 . S
C2364 C2367 1.539 . S
C2365 C2361 1.408 . S
C2365 C2364 1.404 . S
C2365 H2377 0.930 . S
C2366 C2362 1.524 . S
C2366 H2378 0.956 . S
C2366 H2379 0.961 . S
C2366 H2380 0.961 . S
C2367 C2364 1.539 . S
C2367 H2381 0.958 . S
C2367 H2382 0.961 . S
C2367 H2383 0.960 . S
H2368 C2352 0.931 . S
H2369 C2357 0.929 . S
H2370 C2358 0.960 . S
H2371 C2358 0.962 . S
H2372 C2358 0.960 . S
H2373 C2359 0.961 . S
H2374 C2359 0.961 . S
H2375 C2359 0.961 . S
H2376 C2360 0.931 . S
H2377 C2365 0.930 . S
H2378 C2366 0.956 . S
H2379 C2366 0.961 . S
H2380 C2366 0.961 . S
H2381 C2367 0.958 . S
H2382 C2367 0.961 . S
H2383 C2367 0.960 . S
C2384 C2385 1.391 . S
C2384 C2386 1.394 . S
C2384 H2400 0.931 . S
C2385 C2384 1.391 . S
C2385 C2389 1.376 . S
C2386 C2384 1.394 . S
C2386 C2387 1.369 . S
C2386 C2390 1.531 . S
C2387 C2386 1.369 . S
C2387 C2388 1.410 . S
C2387 C2395 1.503 . S
C2388 C2387 1.410 . S
C2388 C2389 1.392 . S
C2388 C2391 1.511 . S
C2389 C2385 1.376 . S
C2389 C2388 1.392 . S
C2389 H2401 0.929 . S
C2390 C2386 1.531 . S
C2390 H2402 0.960 . S
C2390 H2403 0.962 . S
C2390 H2404 0.960 . S
C2391 C2388 1.511 . S
C2391 H2405 0.961 . S
C2391 H2406 0.961 . S
C2391 H2407 0.961 . S
C2392 C2393 1.370 . S
C2392 C2394 1.363 . S
C2392 H2408 0.931 . S
C2393 C2392 1.370 . S
C2393 C2397 1.408 . S
C2394 C2392 1.363 . S
C2394 C2395 1.370 . S
C2394 C2398 1.524 . S
C2395 C2387 1.503 . S
C2395 C2394 1.370 . S
C2395 C2396 1.403 . S
C2396 C2395 1.403 . S
C2396 C2397 1.404 . S
C2396 C2399 1.539 . S
C2397 C2393 1.408 . S
C2397 C2396 1.404 . S
C2397 H2409 0.930 . S
C2398 C2394 1.524 . S
C2398 H2410 0.956 . S
C2398 H2411 0.961 . S
C2398 H2412 0.961 . S
C2399 C2396 1.539 . S
C2399 H2413 0.958 . S
C2399 H2414 0.961 . S
C2399 H2415 0.960 . S
H2400 C2384 0.931 . S
H2401 C2389 0.929 . S
H2402 C2390 0.960 . S
H2403 C2390 0.962 . S
H2404 C2390 0.960 . S
H2405 C2391 0.961 . S
H2406 C2391 0.961 . S
H2407 C2391 0.961 . S
H2408 C2392 0.931 . S
H2409 C2397 0.930 . S
H2410 C2398 0.956 . S
H2411 C2398 0.961 . S
H2412 C2398 0.961 . S
H2413 C2399 0.958 . S
H2414 C2399 0.961 . S
H2415 C2399 0.960 . S
C2416 C2417 1.391 . S
C2416 C2418 1.394 . S
C2416 H2432 0.931 . S
C2417 C2416 1.391 . S
C2417 C2421 1.376 . S
C2418 C2416 1.394 . S
C2418 C2419 1.369 . S
C2418 C2422 1.531 . S
C2419 C2418 1.369 . S
C2419 C2420 1.410 . S
C2419 C2427 1.503 . S
C2420 C2419 1.410 . S
C2420 C2421 1.392 . S
C2420 C2423 1.511 . S
C2421 C2417 1.376 . S
C2421 C2420 1.392 . S
C2421 H2433 0.929 . S
C2422 C2418 1.531 . S
C2422 H2434 0.960 . S
C2422 H2435 0.962 . S
C2422 H2436 0.960 . S
C2423 C2420 1.511 . S
C2423 H2437 0.961 . S
C2423 H2438 0.961 . S
C2423 H2439 0.961 . S
C2424 C2425 1.370 . S
C2424 C2426 1.363 . S
C2424 H2440 0.931 . S
C2425 C2424 1.370 . S
C2425 C2429 1.408 . S
C2426 C2424 1.363 . S
C2426 C2427 1.370 . S
C2426 C2430 1.524 . S
C2427 C2419 1.503 . S
C2427 C2426 1.370 . S
C2427 C2428 1.403 . S
C2428 C2427 1.403 . S
C2428 C2429 1.404 . S
C2428 C2431 1.539 . S
C2429 C2425 1.408 . S
C2429 C2428 1.404 . S
C2429 H2441 0.930 . S
C2430 C2426 1.524 . S
C2430 H2442 0.956 . S
C2430 H2443 0.961 . S
C2430 H2444 0.961 . S
C2431 C2428 1.539 . S
C2431 H2445 0.958 . S
C2431 H2446 0.961 . S
C2431 H2447 0.960 . S
H2432 C2416 0.931 . S
H2433 C2421 0.929 . S
H2434 C2422 0.960 . S
H2435 C2422 0.962 . S
H2436 C2422 0.960 . S
H2437 C2423 0.961 . S
H2438 C2423 0.961 . S
H2439 C2423 0.961 . S
H2440 C2424 0.931 . S
H2441 C2429 0.930 . S
H2442 C2430 0.956 . S
H2443 C2430 0.961 . S
H2444 C2430 0.961 . S
H2445 C2431 0.958 . S
H2446 C2431 0.961 . S
H2447 C2431 0.960 . S
C2448 C2449 1.391 . S
C2448 C2450 1.394 . S
C2448 H2464 0.931 . S
C2449 C2448 1.391 . S
C2449 C2453 1.376 . S
C2450 C2448 1.394 . S
C2450 C2451 1.369 . S
C2450 C2454 1.531 . S
C2451 C2450 1.369 . S
C2451 C2452 1.410 . S
C2451 C2459 1.503 . S
C2452 C2451 1.410 . S
C2452 C2453 1.392 . S
C2452 C2455 1.511 . S
C2453 C2449 1.376 . S
C2453 C2452 1.392 . S
C2453 H2465 0.929 . S
C2454 C2450 1.531 . S
C2454 H2466 0.960 . S
C2454 H2467 0.962 . S
C2454 H2468 0.960 . S
C2455 C2452 1.511 . S
C2455 H2469 0.961 . S
C2455 H2470 0.961 . S
C2455 H2471 0.961 . S
C2456 C2457 1.370 . S
C2456 C2458 1.363 . S
C2456 H2472 0.931 . S
C2457 C2456 1.370 . S
C2457 C2461 1.408 . S
C2458 C2456 1.363 . S
C2458 C2459 1.370 . S
C2458 C2462 1.524 . S
C2459 C2451 1.503 . S
C2459 C2458 1.370 . S
C2459 C2460 1.403 . S
C2460 C2459 1.403 . S
C2460 C2461 1.404 . S
C2460 C2463 1.539 . S
C2461 C2457 1.408 . S
C2461 C2460 1.404 . S
C2461 H2473 0.930 . S
C2462 C2458 1.524 . S
C2462 H2474 0.956 . S
C2462 H2475 0.961 . S
C2462 H2476 0.961 . S
C2463 C2460 1.539 . S
C2463 H2477 0.958 . S
C2463 H2478 0.961 . S
C2463 H2479 0.960 . S
H2464 C2448 0.931 . S
H2465 C2453 0.929 . S
H2466 C2454 0.960 . S
H2467 C2454 0.962 . S
H2468 C2454 0.960 . S
H2469 C2455 0.961 . S
H2470 C2455 0.961 . S
H2471 C2455 0.961 . S
H2472 C2456 0.931 . S
H2473 C2461 0.930 . S
H2474 C2462 0.956 . S
H2475 C2462 0.961 . S
H2476 C2462 0.961 . S
H2477 C2463 0.958 . S
H2478 C2463 0.961 . S
H2479 C2463 0.960 . S
C2480 C2481 1.391 . S
C2480 C2482 1.394 . S
C2480 H2496 0.931 . S
C2481 C2480 1.391 . S
C2481 C2485 1.376 . S
C2482 C2480 1.394 . S
C2482 C2483 1.369 . S
C2482 C2486 1.531 . S
C2483 C2482 1.369 . S
C2483 C2484 1.410 . S
C2483 C2491 1.503 . S
C2484 C2483 1.410 . S
C2484 C2485 1.392 . S
C2484 C2487 1.511 . S
C2485 C2481 1.376 . S
C2485 C2484 1.392 . S
C2485 H2497 0.929 . S
C2486 C2482 1.531 . S
C2486 H2498 0.960 . S
C2486 H2499 0.962 . S
C2486 H2500 0.960 . S
C2487 C2484 1.511 . S
C2487 H2501 0.961 . S
C2487 H2502 0.961 . S
C2487 H2503 0.961 . S
C2488 C2489 1.370 . S
C2488 C2490 1.363 . S
C2488 H2504 0.931 . S
C2489 C2488 1.370 . S
C2489 C2493 1.408 . S
C2490 C2488 1.363 . S
C2490 C2491 1.370 . S
C2490 C2494 1.524 . S
C2491 C2483 1.503 . S
C2491 C2490 1.370 . S
C2491 C2492 1.403 . S
C2492 C2491 1.403 . S
C2492 C2493 1.404 . S
C2492 C2495 1.539 . S
C2493 C2489 1.408 . S
C2493 C2492 1.404 . S
C2493 H2505 0.930 . S
C2494 C2490 1.524 . S
C2494 H2506 0.956 . S
C2494 H2507 0.961 . S
C2494 H2508 0.961 . S
C2495 C2492 1.539 . S
C2495 H2509 0.958 . S
C2495 H2510 0.961 . S
C2495 H2511 0.960 . S
H2496 C2480 0.931 . S
H2497 C2485 0.929 . S
H2498 C2486 0.960 . S
H2499 C2486 0.962 . S
H2500 C2486 0.960 . S
H2501 C2487 0.961 . S
H2502 C2487 0.961 . S
H2503 C2487 0.961 . S
H2504 C2488 0.931 . S
H2505 C2493 0.930 . S
H2506 C2494 0.956 . S
H2507 C2494 0.961 . S
H2508 C2494 0.961 . S
H2509 C2495 0.958 . S
H2510 C2495 0.961 . S
H2511 C2495 0.960 . S
C2512 C2513 1.391 . S
C2512 C2514 1.394 . S
C2512 H2528 0.931 . S
C2513 C2512 1.391 . S
C2513 C2517 1.376 . S
C2514 C2512 1.394 . S
C2514 C2515 1.369 . S
C2514 C2518 1.531 . S
C2515 C2514 1.369 . S
C2515 C2516 1.410 . S
C2515 C2523 1.503 . S
C2516 C2515 1.410 . S
C2516 C2517 1.392 . S
C2516 C2519 1.511 . S
C2517 C2513 1.376 . S
C2517 C2516 1.392 . S
C2517 H2529 0.929 . S
C2518 C2514 1.531 . S
C2518 H2530 0.960 . S
C2518 H2531 0.962 . S
C2518 H2532 0.960 . S
C2519 C2516 1.511 . S
C2519 H2533 0.961 . S
C2519 H2534 0.961 . S
C2519 H2535 0.961 . S
C2520 C2521 1.370 . S
C2520 C2522 1.363 . S
C2520 H2536 0.931 . S
C2521 C2520 1.370 . S
C2521 C2525 1.408 . S
C2522 C2520 1.363 . S
C2522 C2523 1.370 . S
C2522 C2526 1.524 . S
C2523 C2515 1.503 . S
C2523 C2522 1.370 . S
C2523 C2524 1.403 . S
C2524 C2523 1.403 . S
C2524 C2525 1.404 . S
C2524 C2527 1.539 . S
C2525 C2521 1.408 . S
C2525 C2524 1.404 . S
C2525 H2537 0.930 . S
C2526 C2522 1.524 . S
C2526 H2538 0.956 . S
C2526 H2539 0.961 . S
C2526 H2540 0.961 . S
C2527 C2524 1.539 . S
C2527 H2541 0.958 . S
C2527 H2542 0.961 . S
C2527 H2543 0.960 . S
H2528 C2512 0.931 . S
H2529 C2517 0.929 . S
H2530 C2518 0.960 . S
H2531 C2518 0.962 . S
H2532 C2518 0.960 . S
H2533 C2519 0.961 . S
H2534 C2519 0.961 . S
H2535 C2519 0.961 . S
H2536 C2520 0.931 . S
H2537 C2525 0.930 . S
H2538 C2526 0.956 . S
H2539 C2526 0.961 . S
H2540 C2526 0.961 . S
H2541 C2527 0.958 . S
H2542 C2527 0.961 . S
H2543 C2527 0.960 . S
C2544 C2545 1.391 . S
C2544 C2546 1.394 . S
C2544 H2560 0.931 . S
C2545 C2544 1.391 . S
C2545 C2549 1.376 . S
C2546 C2544 1.394 . S
C2546 C2547 1.369 . S
C2546 C2550 1.531 . S
C2547 C2546 1.369 . S
C2547 C2548 1.410 . S
C2547 C2555 1.503 . S
C2548 C2547 1.410 . S
C2548 C2549 1.392 . S
C2548 C2551 1.511 . S
C2549 C2545 1.376 . S
C2549 C2548 1.392 . S
C2549 H2561 0.929 . S
C2550 C2546 1.531 . S
C2550 H2562 0.960 . S
C2550 H2563 0.962 . S
C2550 H2564 0.960 . S
C2551 C2548 1.511 . S
C2551 H2565 0.961 . S
C2551 H2566 0.961 . S
C2551 H2567 0.961 . S
C2552 C2553 1.370 . S
C2552 C2554 1.363 . S
C2552 H2568 0.931 . S
C2553 C2552 1.370 . S
C2553 C2557 1.408 . S
C2554 C2552 1.363 . S
C2554 C2555 1.370 . S
C2554 C2558 1.524 . S
C2555 C2547 1.503 . S
C2555 C2554 1.370 . S
C2555 C2556 1.403 . S
C2556 C2555 1.403 . S
C2556 C2557 1.404 . S
C2556 C2559 1.539 . S
C2557 C2553 1.408 . S
C2557 C2556 1.404 . S
C2557 H2569 0.930 . S
C2558 C2554 1.524 . S
C2558 H2570 0.956 . S
C2558 H2571 0.961 . S
C2558 H2572 0.961 . S
C2559 C2556 1.539 . S
C2559 H2573 0.958 . S
C2559 H2574 0.961 . S
C2559 H2575 0.960 . S
H2560 C2544 0.931 . S
H2561 C2549 0.929 . S
H2562 C2550 0.960 . S
H2563 C2550 0.962 . S
H2564 C2550 0.960 . S
H2565 C2551 0.961 . S
H2566 C2551 0.961 . S
H2567 C2551 0.961 . S
H2568 C2552 0.931 . S
H2569 C2557 0.930 . S
H2570 C2558 0.956 . S
H2571 C2558 0.961 . S
H2572 C2558 0.961 . S
H2573 C2559 0.958 . S
H2574 C2559 0.961 . S
H2575 C2559 0.960 . S
C2576 C2577 1.391 . S
C2576 C2578 1.394 . S
C2576 H2592 0.931 . S
C2577 C2576 1.391 . S
C2577 C2581 1.376 . S
C2578 C2576 1.394 . S
C2578 C2579 1.369 . S
C2578 C2582 1.531 . S
C2579 C2578 1.369 . S
C2579 C2580 1.410 . S
C2579 C2587 1.503 . S
C2580 C2579 1.410 . S
C2580 C2581 1.392 . S
C2580 C2583 1.511 . S
C2581 C2577 1.376 . S
C2581 C2580 1.392 . S
C2581 H2593 0.929 . S
C2582 C2578 1.531 . S
C2582 H2594 0.960 . S
C2582 H2595 0.962 . S
C2582 H2596 0.960 . S
C2583 C2580 1.511 . S
C2583 H2597 0.961 . S
C2583 H2598 0.961 . S
C2583 H2599 0.961 . S
C2584 C2585 1.370 . S
C2584 C2586 1.363 . S
C2584 H2600 0.931 . S
C2585 C2584 1.370 . S
C2585 C2589 1.408 . S
C2586 C2584 1.363 . S
C2586 C2587 1.370 . S
C2586 C2590 1.524 . S
C2587 C2579 1.503 . S
C2587 C2586 1.370 . S
C2587 C2588 1.403 . S
C2588 C2587 1.403 . S
C2588 C2589 1.404 . S
C2588 C2591 1.539 . S
C2589 C2585 1.408 . S
C2589 C2588 1.404 . S
C2589 H2601 0.930 . S
C2590 C2586 1.524 . S
C2590 H2602 0.956 . S
C2590 H2603 0.961 . S
C2590 H2604 0.961 . S
C2591 C2588 1.539 . S
C2591 H2605 0.958 . S
C2591 H2606 0.961 . S
C2591 H2607 0.960 . S
H2592 C2576 0.931 . S
H2593 C2581 0.929 . S
H2594 C2582 0.960 . S
H2595 C2582 0.962 . S
H2596 C2582 0.960 . S
H2597 C2583 0.961 . S
H2598 C2583 0.961 . S
H2599 C2583 0.961 . S
H2600 C2584 0.931 . S
H2601 C2589 0.930 . S
H2602 C2590 0.956 . S
H2603 C2590 0.961 . S
H2604 C2590 0.961 . S
H2605 C2591 0.958 . S
H2606 C2591 0.961 . S
H2607 C2591 0.960 . S
C2608 C2609 1.391 . S
C2608 C2610 1.394 . S
C2608 H2624 0.931 . S
C2609 C2608 1.391 . S
C2609 C2613 1.376 . S
C2610 C2608 1.394 . S
C2610 C2611 1.369 . S
C2610 C2614 1.531 . S
C2611 C2610 1.369 . S
C2611 C2612 1.410 . S
C2611 C2619 1.503 . S
C2612 C2611 1.410 . S
C2612 C2613 1.392 . S
C2612 C2615 1.511 . S
C2613 C2609 1.376 . S
C2613 C2612 1.392 . S
C2613 H2625 0.929 . S
C2614 C2610 1.531 . S
C2614 H2626 0.960 . S
C2614 H2627 0.962 . S
C2614 H2628 0.960 . S
C2615 C2612 1.511 . S
C2615 H2629 0.961 . S
C2615 H2630 0.961 . S
C2615 H2631 0.961 . S
C2616 C2617 1.370 . S
C2616 C2618 1.363 . S
C2616 H2632 0.931 . S
C2617 C2616 1.370 . S
C2617 C2621 1.408 . S
C2618 C2616 1.363 . S
C2618 C2619 1.370 . S
C2618 C2622 1.524 . S
C2619 C2611 1.503 . S
C2619 C2618 1.370 . S
C2619 C2620 1.403 . S
C2620 C2619 1.403 . S
C2620 C2621 1.404 . S
C2620 C2623 1.539 . S
C2621 C2617 1.408 . S
C2621 C2620 1.404 . S
C2621 H2633 0.930 . S
C2622 C2618 1.524 . S
C2622 H2634 0.956 . S
C2622 H2635 0.961 . S
C2622 H2636 0.961 . S
C2623 C2620 1.539 . S
C2623 H2637 0.958 . S
C2623 H2638 0.961 . S
C2623 H2639 0.960 . S
H2624 C2608 0.931 . S
H2625 C2613 0.929 . S
H2626 C2614 0.960 . S
H2627 C2614 0.962 . S
H2628 C2614 0.960 . S
H2629 C2615 0.961 . S
H2630 C2615 0.961 . S
H2631 C2615 0.961 . S
H2632 C2616 0.931 . S
H2633 C2621 0.930 . S
H2634 C2622 0.956 . S
H2635 C2622 0.961 . S
H2636 C2622 0.961 . S
H2637 C2623 0.958 . S
H2638 C2623 0.961 . S
H2639 C2623 0.960 . S
C2640 C2641 1.391 . S
C2640 C2642 1.394 . S
C2640 H2656 0.931 . S
C2641 C2640 1.391 . S
C2641 C2645 1.376 . S
C2642 C2640 1.394 . S
C2642 C2643 1.369 . S
C2642 C2646 1.531 . S
C2643 C2642 1.369 . S
C2643 C2644 1.410 . S
C2643 C2651 1.503 . S
C2644 C2643 1.410 . S
C2644 C2645 1.392 . S
C2644 C2647 1.511 . S
C2645 C2641 1.376 . S
C2645 C2644 1.392 . S
C2645 H2657 0.929 . S
C2646 C2642 1.531 . S
C2646 H2658 0.960 . S
C2646 H2659 0.962 . S
C2646 H2660 0.960 . S
C2647 C2644 1.511 . S
C2647 H2661 0.961 . S
C2647 H2662 0.961 . S
C2647 H2663 0.961 . S
C2648 C2649 1.370 . S
C2648 C2650 1.363 . S
C2648 H2664 0.931 . S
C2649 C2648 1.370 . S
C2649 C2653 1.408 . S
C2650 C2648 1.363 . S
C2650 C2651 1.370 . S
C2650 C2654 1.524 . S
C2651 C2643 1.503 . S
C2651 C2650 1.370 . S
C2651 C2652 1.403 . S
C2652 C2651 1.403 . S
C2652 C2653 1.404 . S
C2652 C2655 1.539 . S
C2653 C2649 1.408 . S
C2653 C2652 1.404 . S
C2653 H2665 0.930 . S
C2654 C2650 1.524 . S
C2654 H2666 0.956 . S
C2654 H2667 0.961 . S
C2654 H2668 0.961 . S
C2655 C2652 1.539 . S
C2655 H2669 0.958 . S
C2655 H2670 0.961 . S
C2655 H2671 0.960 . S
H2656 C2640 0.931 . S
H2657 C2645 0.929 . S
H2658 C2646 0.960 . S
H2659 C2646 0.962 . S
H2660 C2646 0.960 . S
H2661 C2647 0.961 . S
H2662 C2647 0.961 . S
H2663 C2647 0.961 . S
H2664 C2648 0.931 . S
H2665 C2653 0.930 . S
H2666 C2654 0.956 . S
H2667 C2654 0.961 . S
H2668 C2654 0.961 . S
H2669 C2655 0.958 . S
H2670 C2655 0.961 . S
H2671 C2655 0.960 . S
C2672 C2673 1.391 . S
C2672 C2674 1.394 . S
C2672 H2688 0.931 . S
C2673 C2672 1.391 . S
C2673 C2677 1.376 . S
C2674 C2672 1.394 . S
C2674 C2675 1.369 . S
C2674 C2678 1.531 . S
C2675 C2674 1.369 . S
C2675 C2676 1.410 . S
C2675 C2683 1.503 . S
C2676 C2675 1.410 . S
C2676 C2677 1.392 . S
C2676 C2679 1.511 . S
C2677 C2673 1.376 . S
C2677 C2676 1.392 . S
C2677 H2689 0.929 . S
C2678 C2674 1.531 . S
C2678 H2690 0.960 . S
C2678 H2691 0.962 . S
C2678 H2692 0.960 . S
C2679 C2676 1.511 . S
C2679 H2693 0.961 . S
C2679 H2694 0.961 . S
C2679 H2695 0.961 . S
C2680 C2681 1.370 . S
C2680 C2682 1.363 . S
C2680 H2696 0.931 . S
C2681 C2680 1.370 . S
C2681 C2685 1.408 . S
C2682 C2680 1.363 . S
C2682 C2683 1.370 . S
C2682 C2686 1.524 . S
C2683 C2675 1.503 . S
C2683 C2682 1.370 . S
C2683 C2684 1.403 . S
C2684 C2683 1.403 . S
C2684 C2685 1.404 . S
C2684 C2687 1.539 . S
C2685 C2681 1.408 . S
C2685 C2684 1.404 . S
C2685 H2697 0.930 . S
C2686 C2682 1.524 . S
C2686 H2698 0.956 . S
C2686 H2699 0.961 . S
C2686 H2700 0.961 . S
C2687 C2684 1.539 . S
C2687 H2701 0.958 . S
C2687 H2702 0.961 . S
C2687 H2703 0.960 . S
H2688 C2672 0.931 . S
H2689 C2677 0.929 . S
H2690 C2678 0.960 . S
H2691 C2678 0.962 . S
H2692 C2678 0.960 . S
H2693 C2679 0.961 . S
H2694 C2679 0.961 . S
H2695 C2679 0.961 . S
H2696 C2680 0.931 . S
H2697 C2685 0.930 . S
H2698 C2686 0.956 . S
H2699 C2686 0.961 . S
H2700 C2686 0.961 . S
H2701 C2687 0.958 . S
H2702 C2687 0.961 . S
H2703 C2687 0.960 . S
C2704 C2705 1.391 . S
C2704 C2706 1.394 . S
C2704 H2720 0.931 . S
C2705 C2704 1.391 . S
C2705 C2709 1.376 . S
C2706 C2704 1.394 . S
C2706 C2707 1.369 . S
C2706 C2710 1.531 . S
C2707 C2706 1.369 . S
C2707 C2708 1.410 . S
C2707 C2715 1.503 . S
C2708 C2707 1.410 . S
C2708 C2709 1.392 . S
C2708 C2711 1.511 . S
C2709 C2705 1.376 . S
C2709 C2708 1.392 . S
C2709 H2721 0.929 . S
C2710 C2706 1.531 . S
C2710 H2722 0.960 . S
C2710 H2723 0.962 . S
C2710 H2724 0.960 . S
C2711 C2708 1.511 . S
C2711 H2725 0.961 . S
C2711 H2726 0.961 . S
C2711 H2727 0.961 . S
C2712 C2713 1.370 . S
C2712 C2714 1.363 . S
C2712 H2728 0.931 . S
C2713 C2712 1.370 . S
C2713 C2717 1.408 . S
C2714 C2712 1.363 . S
C2714 C2715 1.370 . S
C2714 C2718 1.524 . S
C2715 C2707 1.503 . S
C2715 C2714 1.370 . S
C2715 C2716 1.403 . S
C2716 C2715 1.403 . S
C2716 C2717 1.404 . S
C2716 C2719 1.539 . S
C2717 C2713 1.408 . S
C2717 C2716 1.404 . S
C2717 H2729 0.930 . S
C2718 C2714 1.524 . S
C2718 H2730 0.956 . S
C2718 H2731 0.961 . S
C2718 H2732 0.961 . S
C2719 C2716 1.539 . S
C2719 H2733 0.958 . S
C2719 H2734 0.961 . S
C2719 H2735 0.960 . S
H2720 C2704 0.931 . S
H2721 C2709 0.929 . S
H2722 C2710 0.960 . S
H2723 C2710 0.962 . S
H2724 C2710 0.960 . S
H2725 C2711 0.961 . S
H2726 C2711 0.961 . S
H2727 C2711 0.961 . S
H2728 C2712 0.931 . S
H2729 C2717 0.930 . S
H2730 C2718 0.956 . S
H2731 C2718 0.961 . S
H2732 C2718 0.961 . S
H2733 C2719 0.958 . S
H2734 C2719 0.961 . S
H2735 C2719 0.960 . S
C1009 C469 1.692 . S
C1017 C660 1.691 . S
C1041 C505 1.789 . S
C1049 C700 1.799 . S
C1073 C433 1.778 . S
C1081 C730 1.744 . S
C1105 C397 1.565 . S
C1113 C690 1.572 . S
C1145 C740 1.472 . S
C1137 C325 1.471 . S
C1169 C361 1.406 . S
C1177 C650 1.425 1_556 S
C1209 C679 1.687 . S
C1201 C421 1.700 . S
C1241 C719 1.792 . S
C1233 C349 1.803 . S
C1265 C385 1.740 . S
C1273 C745 1.776 . S
C1297 C493 1.593 . S
C1305 C705 1.558 . S
C1329 C529 1.470 . S
C1337 C759 1.477 . S
C1369 C665 1.434 . S
C1361 C457 1.448 . S
C1401 C780 1.687 . S
C1393 C37 1.700 . S
C1425 C73 1.792 . S
C1433 C820 1.796 . S
C1457 C1 1.747 . S
C1465 C850 1.760 . S
C1489 C613 1.598 . S
C1497 C810 1.565 . S
C1521 C541 1.454 . S
C1529 C860 1.481 . S
C1553 C577 1.454 . S
C1561 C770 1.439 . S
C1585 C637 1.703 . S
C1593 C799 1.686 . S
C1617 C565 1.789 . S
C1625 C839 1.799 . S
C1657 C865 1.761 . S
C1649 C601 1.731 . S
C1681 C61 1.587 . S
C1689 C825 1.560 . S
C1721 C879 1.472 . S
C1713 C97 1.482 . S
C1745 C25 1.459 . S
C1753 C785 1.434 . S
C1785 C900 1.690 . S
C1777 C253 1.693 . S
C1809 C289 1.804 . S
C1817 C940 1.793 . S
C1849 C970 1.743 . S
C1841 C217 1.777 . S
C1881 C930 1.561 . S
C1873 C181 1.598 . S
C1913 C980 1.481 . S
C1905 C109 1.457 . S
C1937 C145 1.409 . S
C1945 C890 1.449 . S
C1969 C205 1.698 . S
C1977 C919 1.688 . S
C2001 C133 1.803 . S
C2009 C959 1.791 . S
C2041 C985 1.745 . S
C2033 C169 1.761 . S
C2065 C277 1.560 . S
C2073 C945 1.578 . S
C2097 C313 1.471 . S
C2105 C999 1.478 . S
C2129 C241 1.437 . S
C2137 C905 1.438 . S
C2161 C571 1.323 . S
C2169 C677 1.320 . S
C2201 C717 1.856 . S
C2193 C607 1.868 . S
C2225 C643 1.566 . S
C2233 C736 1.574 . S
C2257 C247 1.870 . S
C2265 C696 1.847 . S
C2289 C283 1.574 . S
C2297 C757 1.579 . S
C2329 C656 1.321 . S
C2321 C319 1.321 . S
C2353 C139 1.323 . S
C2361 C797 1.321 . S
C2385 C175 1.877 . S
C2393 C837 1.849 . S
C2417 C211 1.570 . S
C2425 C856 1.572 . S
C2449 C463 1.874 . S
C2457 C816 1.858 . S
C2489 C877 1.579 . S
C2481 C499 1.583 . S
C2513 C535 1.324 . S
C2521 C776 1.312 . S
C2545 C355 1.323 . S
C2553 C917 1.320 . S
C2577 C391 1.882 . S
C2585 C957 1.848 . S
C2617 C976 1.574 . S
C2609 C427 1.567 . S
C2641 C31 1.869 . S
C2649 C936 1.848 . S
C2673 C67 1.582 . S
C2681 C997 1.579 . S
C2705 C103 1.318 . S
C2713 C896 1.319 . S
