# Generated by pormake.
# Topology pyr, (3,6)-cn, num edge types: 1
# Building blocks:
#     Node 0, Type 0, BuildingBlock: MIDCAF_clean_linker_0, # of connection points: 3
#     Node 1, Type 0, BuildingBlock: MIDCAF_clean_linker_0, # of connection points: 3
#     Node 2, Type 0, BuildingBlock: MIDCAF_clean_linker_0, # of connection points: 3
#     Node 3, Type 0, BuildingBlock: MIDCAF_clean_linker_0, # of connection points: 3
#     Node 4, Type 0, BuildingBlock: MIDCAF_clean_linker_0, # of connection points: 3
#     Node 5, Type 0, BuildingBlock: MIDCAF_clean_linker_0, # of connection points: 3
#     Node 6, Type 0, BuildingBlock: MIDCAF_clean_linker_0, # of connection points: 3
#     Node 7, Type 0, BuildingBlock: MIDCAF_clean_linker_0, # of connection points: 3
#     Node 8, Type 1, BuildingBlock: BETDAH_clean_sbu_0, # of connection points: 6
#     Node 9, Type 1, BuildingBlock: BETDAH_clean_sbu_0, # of connection points: 6
#     Node 10, Type 1, BuildingBlock: BETDAH_clean_sbu_0, # of connection points: 6
#     Node 11, Type 1, BuildingBlock: BETDAH_clean_sbu_0, # of connection points: 6
#     Edge 12, Type (0, 1), BuildingBlock: TEMPAE_clean_linker_10, # of connection points: 2
#     Edge 13, Type (0, 1), BuildingBlock: TEMPAE_clean_linker_10, # of connection points: 2
#     Edge 14, Type (0, 1), BuildingBlock: TEMPAE_clean_linker_10, # of connection points: 2
#     Edge 15, Type (0, 1), BuildingBlock: TEMPAE_clean_linker_10, # of connection points: 2
#     Edge 16, Type (0, 1), BuildingBlock: TEMPAE_clean_linker_10, # of connection points: 2
#     Edge 17, Type (0, 1), BuildingBlock: TEMPAE_clean_linker_10, # of connection points: 2
#     Edge 18, Type (0, 1), BuildingBlock: TEMPAE_clean_linker_10, # of connection points: 2
#     Edge 19, Type (0, 1), BuildingBlock: TEMPAE_clean_linker_10, # of connection points: 2
#     Edge 20, Type (0, 1), BuildingBlock: TEMPAE_clean_linker_10, # of connection points: 2
#     Edge 21, Type (0, 1), BuildingBlock: TEMPAE_clean_linker_10, # of connection points: 2
#     Edge 22, Type (0, 1), BuildingBlock: TEMPAE_clean_linker_10, # of connection points: 2
#     Edge 23, Type (0, 1), BuildingBlock: TEMPAE_clean_linker_10, # of connection points: 2
#     Edge 24, Type (0, 1), BuildingBlock: TEMPAE_clean_linker_10, # of connection points: 2
#     Edge 25, Type (0, 1), BuildingBlock: TEMPAE_clean_linker_10, # of connection points: 2
#     Edge 26, Type (0, 1), BuildingBlock: TEMPAE_clean_linker_10, # of connection points: 2
#     Edge 27, Type (0, 1), BuildingBlock: TEMPAE_clean_linker_10, # of connection points: 2
#     Edge 28, Type (0, 1), BuildingBlock: TEMPAE_clean_linker_10, # of connection points: 2
#     Edge 29, Type (0, 1), BuildingBlock: TEMPAE_clean_linker_10, # of connection points: 2
#     Edge 30, Type (0, 1), BuildingBlock: TEMPAE_clean_linker_10, # of connection points: 2
#     Edge 31, Type (0, 1), BuildingBlock: TEMPAE_clean_linker_10, # of connection points: 2
#     Edge 32, Type (0, 1), BuildingBlock: TEMPAE_clean_linker_10, # of connection points: 2
#     Edge 33, Type (0, 1), BuildingBlock: TEMPAE_clean_linker_10, # of connection points: 2
#     Edge 34, Type (0, 1), BuildingBlock: TEMPAE_clean_linker_10, # of connection points: 2
#     Edge 35, Type (0, 1), BuildingBlock: TEMPAE_clean_linker_10, # of connection points: 2
# Relax obj value: 0.095
# Max RMSD: 0.125
# Mean RMSD: 0.059
data_MOF--net-pyr--node1-BETDAH_clean_sbu_0--node2-MIDCAF_clean_linker_0--edge1-TEMPAE_clean_linker_10
_symmetry_space_group_name_H-M    P1
_symmetry_Int_Tables_number       1
_symmetry_cell_setting            triclinic
loop_
_symmetry_equiv_pos_as_xyz
'x, y, z'
_cell_length_a     46.233932
_cell_length_b     49.531866
_cell_length_c     45.347182
_cell_angle_alpha  91.196222
_cell_angle_beta   88.995468
_cell_angle_gamma 100.10732
loop_
_atom_site_label
_atom_site_type_symbol
_atom_site_fract_x
_atom_site_fract_y
_atom_site_fract_z
_atom_type_partial_charge
C0 C 0.29065 0.28213 0.32325 0.0
C1 C 0.29075 0.25567 0.33387 0.0
C2 C 0.31016 0.23988 0.32075 0.0
C3 C 0.32725 0.24936 0.2962 0.0
H4 H 0.36871 0.2184 0.23011 0.0
H5 H 0.39527 0.18583 0.20634 0.0
H6 H 0.42354 0.24345 0.13689 0.0
H7 H 0.39556 0.27584 0.16024 0.0
H8 H 0.31852 0.30099 0.15286 0.0
H9 H 0.28543 0.32729 0.12975 0.0
H10 H 0.29107 0.38143 0.20627 0.0
H11 H 0.3229 0.35425 0.2298 0.0
H12 H 0.30572 0.31139 0.28987 0.0
H13 H 0.27647 0.29509 0.33325 0.0
H14 H 0.31071 0.2193 0.32803 0.0
H15 H 0.34062 0.23589 0.28575 0.0
N16 N 0.35467 0.26544 0.24047 0.0
N17 N 0.35353 0.28922 0.19638 0.0
N18 N 0.32893 0.30194 0.23885 0.0
C19 C 0.36295 0.26913 0.21175 0.0
C20 C 0.3367 0.30588 0.21004 0.0
C21 C 0.33776 0.28176 0.25424 0.0
C22 C 0.38003 0.24982 0.19712 0.0
C23 C 0.38067 0.22429 0.20984 0.0
C24 C 0.39615 0.20558 0.19626 0.0
C25 C 0.41187 0.21198 0.16977 0.0
C26 C 0.41142 0.23764 0.15709 0.0
C27 C 0.3955 0.25629 0.17053 0.0
C28 C 0.32298 0.32541 0.19324 0.0
C29 C 0.31324 0.31893 0.16437 0.0
C30 C 0.29425 0.33406 0.15114 0.0
C31 C 0.28502 0.35621 0.16637 0.0
C32 C 0.29694 0.36402 0.19424 0.0
C33 C 0.31544 0.34862 0.20763 0.0
C34 C 0.32508 0.27472 0.28391 0.0
C35 C 0.30755 0.29152 0.29845 0.0
C36 C 0.15519 0.84842 0.6474 0.0
C37 C 0.15228 0.85842 0.61901 0.0
C38 C 0.17198 0.85295 0.59658 0.0
C39 C 0.19501 0.83929 0.60275 0.0
H40 H 0.25602 0.78044 0.57251 0.0
H41 H 0.28922 0.76302 0.53694 0.0
H42 H 0.36376 0.80272 0.5871 0.0
H43 H 0.33084 0.81952 0.62285 0.0
H44 H 0.31361 0.8057 0.69644 0.0
H45 H 0.33416 0.81784 0.74505 0.0
H46 H 0.25687 0.85106 0.77036 0.0
H47 H 0.23623 0.83917 0.72181 0.0
H48 H 0.18094 0.8287 0.67609 0.0
H49 H 0.14004 0.85172 0.66504 0.0
H50 H 0.17079 0.86064 0.57454 0.0
H51 H 0.21053 0.83666 0.58521 0.0
N52 N 0.24443 0.81402 0.61753 0.0
N53 N 0.28022 0.81041 0.65254 0.0
N54 N 0.23586 0.82341 0.66752 0.0
C55 C 0.27123 0.80839 0.62412 0.0
C56 C 0.26257 0.8177 0.67443 0.0
C57 C 0.22662 0.82159 0.63917 0.0
C58 C 0.29092 0.80089 0.60063 0.0
C59 C 0.27952 0.78586 0.57554 0.0
C60 C 0.29843 0.77604 0.55516 0.0
C61 C 0.32894 0.78178 0.55924 0.0
C62 C 0.34033 0.7984 0.58323 0.0
C63 C 0.32148 0.80766 0.60389 0.0
C64 C 0.27342 0.82181 0.70501 0.0
C65 C 0.30077 0.81528 0.71245 0.0
C66 C 0.31251 0.82204 0.74036 0.0
C67 C 0.2972 0.83559 0.76131 0.0
C68 C 0.26927 0.84091 0.75443 0.0
C69 C 0.25744 0.83401 0.72662 0.0
C70 C 0.19921 0.83117 0.63162 0.0
C71 C 0.17854 0.83509 0.65369 0.0
C72 C 0.6448 0.26645 0.90106 0.0
C73 C 0.61756 0.25178 0.8915 0.0
C74 C 0.60369 0.26331 0.86848 0.0
C75 C 0.61647 0.28861 0.85585 0.0
H76 H 0.61351 0.34511 0.78179 0.0
H77 H 0.59458 0.36642 0.73974 0.0
H78 H 0.65728 0.44051 0.75603 0.0
H79 H 0.6767 0.41895 0.79707 0.0
H80 H 0.73513 0.41513 0.8365 0.0
H81 H 0.78024 0.43833 0.86006 0.0
H82 H 0.76605 0.37998 0.93041 0.0
H83 H 0.72111 0.35689 0.90708 0.0
H84 H 0.67841 0.30186 0.89694 0.0
H85 H 0.65676 0.25836 0.91815 0.0
H86 H 0.58261 0.25303 0.86048 0.0
H87 H 0.60491 0.29673 0.83846 0.0
N88 N 0.64608 0.34209 0.82976 0.0
N89 N 0.68458 0.38026 0.83199 0.0
N90 N 0.68271 0.34465 0.86561 0.0
C91 C 0.65941 0.36699 0.81895 0.0
C92 C 0.69644 0.36931 0.85533 0.0
C93 C 0.65765 0.33071 0.85321 0.0
C94 C 0.64691 0.38002 0.79317 0.0
C95 C 0.62333 0.36594 0.77641 0.0
C96 C 0.61228 0.37837 0.75219 0.0
C97 C 0.62424 0.40546 0.74381 0.0
C98 C 0.64762 0.41952 0.76087 0.0
C99 C 0.65875 0.40707 0.78486 0.0
C100 C 0.72414 0.38397 0.8697 0.0
C101 C 0.74154 0.40722 0.85702 0.0
C102 C 0.76762 0.42049 0.8705 0.0
C103 C 0.77703 0.41118 0.8973 0.0
C104 C 0.75953 0.38806 0.91003 0.0
C105 C 0.73368 0.37465 0.89644 0.0
C106 C 0.64357 0.30333 0.86579 0.0
C107 C 0.65746 0.29162 0.88857 0.0
C108 C 0.77447 0.66085 0.40765 0.0
C109 C 0.75957 0.63523 0.39731 0.0
C110 C 0.77189 0.62299 0.37287 0.0
C111 C 0.79806 0.63607 0.35913 0.0
H112 H 0.85172 0.63466 0.2829 0.0
H113 H 0.87197 0.61334 0.24039 0.0
H114 H 0.95328 0.67094 0.24886 0.0
H115 H 0.93241 0.693 0.29078 0.0
H116 H 0.9135 0.75891 0.32624 0.0
H117 H 0.93384 0.80386 0.34843 0.0
H118 H 0.89922 0.77565 0.43338 0.0
H119 H 0.87831 0.73125 0.4113 0.0
H120 H 0.81115 0.69351 0.40292 0.0
H121 H 0.76614 0.67084 0.42665 0.0
H122 H 0.76105 0.60341 0.36402 0.0
H123 H 0.80663 0.62601 0.34032 0.0
N124 N 0.85235 0.6653 0.33053 0.0
N125 N 0.8911 0.70321 0.32896 0.0
N126 N 0.85479 0.70051 0.36628 0.0
C127 C 0.87758 0.67853 0.31732 0.0
C128 C 0.8798 0.71432 0.35355 0.0
C129 C 0.84073 0.67612 0.35501 0.0
C130 C 0.89027 0.66573 0.29065 0.0
C131 C 0.87392 0.64293 0.27575 0.0
C132 C 0.88575 0.63045 0.25126 0.0
C133 C 0.91459 0.64001 0.24077 0.0
C134 C 0.9309 0.66296 0.25562 0.0
C135 C 0.91892 0.67564 0.27999 0.0
C136 C 0.89417 0.7413 0.36688 0.0
C137 C 0.91037 0.76224 0.34968 0.0
C138 C 0.92188 0.78808 0.36237 0.0
C139 C 0.9182 0.79345 0.39275 0.0
C140 C 0.90264 0.77227 0.41 0.0
C141 C 0.89055 0.74678 0.39724 0.0
C142 C 0.81285 0.66176 0.36948 0.0
C143 C 0.80059 0.67384 0.39404 0.0
C144 C 0.6184 0.83455 0.84361 0.0
C145 C 0.61954 0.8404 0.87409 0.0
C146 C 0.63586 0.82577 0.89188 0.0
C147 C 0.65141 0.80647 0.87936 0.0
H148 H 0.7085 0.75253 0.89881 0.0
H149 H 0.73945 0.72751 0.92714 0.0
H150 H 0.75952 0.68422 0.84789 0.0
H151 H 0.72876 0.70907 0.81958 0.0
H152 H 0.73732 0.7477 0.76156 0.0
H153 H 0.76683 0.76622 0.71924 0.0
H154 H 0.71856 0.83328 0.71662 0.0
H155 H 0.68866 0.81461 0.75843 0.0
H156 H 0.63338 0.81204 0.80741 0.0
H157 H 0.60555 0.84493 0.82931 0.0
H158 H 0.63758 0.82993 0.91538 0.0
H159 H 0.66448 0.79624 0.89359 0.0
N160 N 0.68228 0.76579 0.85132 0.0
N161 N 0.70935 0.75453 0.81004 0.0
N162 N 0.67884 0.78725 0.80616 0.0
C163 C 0.70142 0.7508 0.83883 0.0
C164 C 0.69826 0.77274 0.79353 0.0
C165 C 0.67054 0.78378 0.83492 0.0
C166 C 0.71636 0.73295 0.85689 0.0
C167 C 0.71905 0.73729 0.88754 0.0
C168 C 0.7369 0.72312 0.90373 0.0
C169 C 0.752 0.70405 0.88967 0.0
C170 C 0.748 0.69865 0.85936 0.0
C171 C 0.7305 0.71303 0.84312 0.0
C172 C 0.71108 0.78004 0.76394 0.0
C173 C 0.73247 0.76603 0.75155 0.0
C174 C 0.74947 0.77666 0.72732 0.0
C175 C 0.74545 0.80151 0.71498 0.0
C176 C 0.7222 0.81406 0.72555 0.0
C177 C 0.70513 0.8034 0.74973 0.0
C178 C 0.65131 0.80162 0.84872 0.0
C179 C 0.63423 0.81553 0.83107 0.0
C180 C 0.74304 0.19441 0.32007 0.0
C181 C 0.71415 0.19762 0.31413 0.0
C182 C 0.69794 0.20926 0.33589 0.0
C183 C 0.71002 0.21653 0.36356 0.0
H184 H 0.68363 0.21651 0.45205 0.0
H185 H 0.65138 0.23556 0.48623 0.0
H186 H 0.72616 0.2725 0.53786 0.0
H187 H 0.7588 0.25344 0.50321 0.0
H188 H 0.81073 0.20381 0.48456 0.0
H189 H 0.85587 0.18619 0.49095 0.0
H190 H 0.88184 0.20676 0.40094 0.0
H191 H 0.83578 0.22322 0.39419 0.0
H192 H 0.77733 0.19854 0.3516 0.0
H193 H 0.75609 0.18576 0.3035 0.0
H194 H 0.67556 0.21181 0.33187 0.0
H195 H 0.69668 0.2248 0.38014 0.0
N196 N 0.73297 0.22351 0.42259 0.0
N197 N 0.7717 0.22508 0.45569 0.0
N198 N 0.77886 0.21594 0.40534 0.0
C199 C 0.74332 0.22716 0.45049 0.0
C200 C 0.78959 0.21949 0.43309 0.0
C201 C 0.75059 0.21796 0.39989 0.0
C202 C 0.7238 0.23408 0.47454 0.0
C203 C 0.69322 0.22819 0.47102 0.0
C204 C 0.67464 0.23879 0.49092 0.0
C205 C 0.68625 0.2557 0.51465 0.0
C206 C 0.71666 0.25965 0.51963 0.0
C207 C 0.73531 0.24878 0.49979 0.0
C208 C 0.81948 0.2144 0.43873 0.0
C209 C 0.82635 0.20514 0.46633 0.0
C210 C 0.85244 0.19518 0.47002 0.0
C211 C 0.87244 0.19469 0.4463 0.0
C212 C 0.86663 0.20619 0.41943 0.0
C213 C 0.8403 0.21574 0.41561 0.0
C214 C 0.73863 0.21247 0.36988 0.0
C215 C 0.7552 0.20185 0.34761 0.0
C216 C 0.2769 0.63655 0.17385 0.0
C217 C 0.26721 0.64594 0.1472 0.0
C218 C 0.28417 0.66954 0.13485 0.0
C219 C 0.30977 0.6833 0.1486 0.0
H220 H 0.36432 0.75589 0.14745 0.0
H221 H 0.38528 0.79934 0.12581 0.0
H222 H 0.45949 0.80638 0.18363 0.0
H223 H 0.43787 0.76267 0.2061 0.0
H224 H 0.43289 0.71242 0.26027 0.0
H225 H 0.45205 0.69148 0.30253 0.0
H226 H 0.38295 0.62103 0.2935 0.0
H227 H 0.36354 0.6421 0.25207 0.0
H228 H 0.30937 0.6422 0.20788 0.0
H229 H 0.26472 0.61835 0.18401 0.0
H230 H 0.27741 0.67774 0.11464 0.0
H231 H 0.3219 0.70141 0.13821 0.0
N232 N 0.36061 0.71357 0.17919 0.0
N233 N 0.39715 0.71679 0.21521 0.0
N234 N 0.35893 0.67834 0.21322 0.0
C235 C 0.38551 0.72784 0.19156 0.0
C236 C 0.38396 0.69192 0.22627 0.0
C237 C 0.34707 0.68893 0.18964 0.0
C238 C 0.39925 0.75522 0.17873 0.0
C239 C 0.38515 0.76649 0.15577 0.0
C240 C 0.39741 0.79164 0.14301 0.0
C241 C 0.42446 0.80678 0.15247 0.0
C242 C 0.43854 0.79573 0.17569 0.0
C243 C 0.42617 0.77042 0.18858 0.0
C244 C 0.39642 0.67924 0.25236 0.0
C245 C 0.4217 0.69248 0.26728 0.0
C246 C 0.43286 0.68027 0.29161 0.0
C247 C 0.41921 0.65433 0.30203 0.0
C248 C 0.39403 0.64115 0.28694 0.0
C249 C 0.3829 0.65331 0.26274 0.0
C250 C 0.31959 0.6739 0.17516 0.0
C251 C 0.30273 0.6502 0.18751 0.0
C252 C 0.13813 0.28547 0.63534 0.0
C253 C 0.1225 0.26463 0.65298 0.0
C254 C 0.11923 0.27038 0.68333 0.0
C255 C 0.13116 0.29629 0.69561 0.0
H256 H 0.11158 0.36368 0.75654 0.0
H257 H 0.09142 0.38588 0.79898 0.0
H258 H 0.16835 0.44937 0.79935 0.0
H259 H 0.18858 0.42718 0.75733 0.0
H260 H 0.23519 0.43222 0.70338 0.0
H261 H 0.28084 0.45467 0.67983 0.0
H262 H 0.27588 0.38713 0.61737 0.0
H263 H 0.23071 0.36454 0.64102 0.0
H264 H 0.16291 0.3263 0.63336 0.0
H265 H 0.14123 0.28179 0.61197 0.0
H266 H 0.10724 0.25486 0.69755 0.0
H267 H 0.12828 0.29993 0.71902 0.0
N268 N 0.15082 0.35542 0.7154 0.0
N269 N 0.18954 0.39328 0.71317 0.0
N270 N 0.18697 0.35763 0.67793 0.0
C271 C 0.16439 0.38025 0.72664 0.0
C272 C 0.20109 0.38215 0.68885 0.0
C273 C 0.16198 0.344 0.69092 0.0
C274 C 0.15188 0.39343 0.75316 0.0
C275 C 0.12431 0.38232 0.76567 0.0
C276 C 0.1126 0.39522 0.79004 0.0
C277 C 0.12813 0.41957 0.80294 0.0
C278 C 0.15576 0.43052 0.79052 0.0
C279 C 0.16735 0.41777 0.7661 0.0
C280 C 0.22898 0.39639 0.67431 0.0
C281 C 0.24378 0.42209 0.68463 0.0
C282 C 0.27001 0.4351 0.67097 0.0
C283 C 0.28239 0.4228 0.64662 0.0
C284 C 0.26749 0.39716 0.6363 0.0
C285 C 0.24129 0.38422 0.64985 0.0
C286 C 0.1474 0.3169 0.67802 0.0
C287 C 0.15066 0.31102 0.6477 0.0
Ho288 Ho 0.0416 0.03619 0.4997 0.0
Ho289 Ho 0.99604 1.02175 0.54796 0.0
C290 C 0.04455 0.07906 0.55365 0.0
C291 C 0.07008 0.04969 0.45128 0.0
C292 C 0.09043 0.07391 0.44097 0.0
C293 C 0.08649 0.10062 0.44884 0.0
C294 C 0.107 0.12324 0.43978 0.0
C295 C 0.1319 0.11948 0.42295 0.0
C296 C 0.13573 0.09262 0.41536 0.0
C297 C 0.11513 0.0701 0.42418 0.0
C298 C 0.05873 1.00851 0.54474 0.0
C299 C 0.99327 0.97876 0.49396 0.0
C300 C 0.96684 1.00817 0.59601 0.0
C301 C 0.94485 0.98452 0.60475 0.0
C302 C 0.9396 0.97905 0.63468 0.0
C303 C 0.91794 0.95722 0.64331 0.0
C304 C 0.90105 0.94057 0.62209 0.0
C305 C 0.9069 0.94579 0.59201 0.0
C306 C 0.9287 0.96757 0.58341 0.0
C307 C 0.97891 0.04917 0.50266 0.0
O308 O 0.0527 0.07561 0.52589 0.0
O309 O 0.02518 0.06006 0.56714 0.0
O310 O 0.0801 0.03613 0.47208 0.0
O311 O 0.04265 0.0524 0.45574 0.0
O312 O 0.07601 0.0278 0.5309 0.0
O313 O 0.03386 1.00414 0.533 0.0
O314 O 0.98454 0.98246 0.52148 0.0
O315 O 1.0131 0.99751 0.48071 0.0
O316 O 0.95843 1.0238 0.57615 0.0
O317 O 0.99342 1.00331 0.59103 0.0
O318 O 0.96188 0.02952 0.51625 0.0
O319 O 1.00367 0.05378 0.51464 0.0
H320 H 0.0677 0.10401 0.46212 0.0
H321 H 0.10326 0.14364 0.44578 0.0
H322 H 0.15493 0.08891 0.40298 0.0
H323 H 0.11871 0.04963 0.41825 0.0
H324 H 0.95209 0.99181 0.6514 0.0
H325 H 0.91441 0.95339 0.66664 0.0
H326 H 0.8942 0.9335 0.57513 0.0
H327 H 0.93261 0.97145 0.56012 0.0
Ho328 Ho 0.54874 0.03483 0.03179 0.0
Ho329 Ho 0.48983 1.02317 1.00859 0.0
C330 C 0.49773 0.0631 0.06345 0.0
C331 C 0.59901 0.05761 0.05267 0.0
C332 C 0.60841 0.07532 0.07854 0.0
C333 C 0.62288 0.10238 0.07444 0.0
C334 C 0.63168 0.11952 0.0987 0.0
C335 C 0.62636 0.10981 0.12755 0.0
C336 C 0.61181 0.08271 0.13159 0.0
C337 C 0.60285 0.06567 0.10737 0.0
C338 C 0.51741 0.98634 0.05146 0.0
C339 C 0.54078 0.99479 0.97785 0.0
C340 C 0.43844 1.00238 0.98844 0.0
C341 C 0.42487 0.97832 0.97117 0.0
C342 C 0.44127 0.95855 0.96126 0.0
C343 C 0.4285 0.93694 0.9428 0.0
C344 C 0.39903 0.93467 0.93441 0.0
C345 C 0.38243 0.954 0.94536 0.0
C346 C 0.39531 0.97571 0.96353 0.0
C347 C 0.52153 0.07183 0.98971 0.0
O348 O 0.52613 0.06396 0.05893 0.0
O349 O 0.47819 0.04572 0.04873 0.0
O350 O 0.58683 0.03228 0.05779 0.0
O351 O 0.5855 0.06858 0.03225 0.0
O352 O 0.54495 0.99044 0.04391 0.0
O353 O 0.50768 1.00863 0.04908 0.0
O354 O 0.51255 0.99202 0.98471 0.0
O355 O 0.55992 1.01437 0.99015 0.0
O356 O 0.4575 1.02028 0.9743 0.0
O357 O 0.44721 0.99767 1.01473 0.0
O358 O 0.49414 0.068 0.9978 0.0
O359 O 0.53087 0.04931 0.9914 0.0
H360 H 0.62733 0.11031 0.05242 0.0
H361 H 0.64259 0.14036 0.09486 0.0
H362 H 0.60786 0.07442 0.15349 0.0
H363 H 0.59172 0.04491 0.11133 0.0
H364 H 0.46399 0.96011 0.96737 0.0
H365 H 0.44171 0.92222 0.93479 0.0
H366 H 0.3598 0.95296 0.93892 0.0
H367 H 0.38238 0.99084 0.97105 0.0
Ho368 Ho 0.52046 0.50581 0.50365 0.0
Ho369 Ho 0.52228 0.5529 0.54181 0.0
C370 C 0.54533 0.50324 0.57114 0.0
C371 C 0.53233 0.4635 0.47482 0.0
C372 C 0.54325 0.439 0.48442 0.0
C373 C 0.56615 0.44135 0.50478 0.0
C374 C 0.57543 0.418 0.51497 0.0
C375 C 0.56205 0.39186 0.50502 0.0
C376 C 0.53925 0.38946 0.48452 0.0
C377 C 0.52983 0.4129 0.47439 0.0
C378 C 0.46914 0.5054 0.53399 0.0
C379 C 0.49749 0.55576 0.47438 0.0
C380 C 0.51015 0.59436 0.57202 0.0
C381 C 0.49978 0.61967 0.56478 0.0
C382 C 0.48155 0.6305 0.58502 0.0
C383 C 0.46889 0.65291 0.57761 0.0
C384 C 0.47442 0.66509 0.54981 0.0
C385 C 0.49328 0.65449 0.52974 0.0
C386 C 0.5058 0.63184 0.53714 0.0
C387 C 0.57355 0.55328 0.51136 0.0
O388 O 0.5449 0.49342 0.54364 0.0
O389 O 0.53449 0.52572 0.57702 0.0
O390 O 0.50591 0.46555 0.48407 0.0
O391 O 0.55066 0.48675 0.47694 0.0
O392 O 0.47108 0.49919 0.5062 0.0
O393 O 0.49473 0.51185 0.54435 0.0
O394 O 0.49855 0.56593 0.50176 0.0
O395 O 0.5076 0.53285 0.46851 0.0
O396 O 0.5367 0.59229 0.56313 0.0
O397 O 0.49122 0.57188 0.56739 0.0
O398 O 0.57168 0.55969 0.53911 0.0
O399 O 0.54794 0.54685 0.50105 0.0
H400 H 0.57698 0.46123 0.51284 0.0
H401 H 0.59361 0.42043 0.53008 0.0
H402 H 0.52873 0.36948 0.47641 0.0
H403 H 0.51201 0.41068 0.45883 0.0
H404 H 0.47637 0.62108 0.60627 0.0
H405 H 0.4539 0.66004 0.59335 0.0
H406 H 0.49811 0.66347 0.50826 0.0
H407 H 0.51965 0.62352 0.52109 0.0
Ho408 Ho 0.0261 0.50098 0.03666 0.0
Ho409 Ho 0.01732 0.5575 1.01015 0.0
C410 C 0.07731 0.5538 0.04599 0.0
C411 C 0.03641 0.45245 0.04676 0.0
C412 C 0.05909 0.44179 0.06296 0.0
C413 C 0.06745 0.41719 0.05337 0.0
C414 C 0.09165 0.40849 0.0657 0.0
C415 C 0.10795 0.42423 0.08796 0.0
C416 C 0.09899 0.44862 0.09801 0.0
C417 C 0.07489 0.45741 0.08547 0.0
C418 C 1.00616 0.53684 0.07494 0.0
C419 C 0.96736 0.50383 0.99738 0.0
C420 C 0.99953 0.60361 1.00382 0.0
C421 C 0.97204 0.6115 0.99374 0.0
C422 C 0.95807 0.62917 1.01132 0.0
C423 C 0.93234 0.63729 1.00179 0.0
C424 C 0.92029 0.62805 0.97438 0.0
C425 C 0.93401 0.60998 0.95705 0.0
C426 C 0.95953 0.60165 0.96669 0.0
C427 C 0.04547 0.52809 0.96992 0.0
O428 O 0.07097 0.52661 0.04393 0.0
O429 O 0.05882 0.56963 0.03699 0.0
O430 O 0.01748 0.46388 0.0623 0.0
O431 O 0.04635 0.46657 0.02359 0.0
O432 O 0.02373 0.52028 0.08194 0.0
O433 O 0.99887 0.53246 0.04817 0.0
O434 O 0.97499 0.5309 0.99585 0.0
O435 O 0.98378 0.48842 1.01094 0.0
O436 O 0.0152 0.59293 0.98393 0.0
O437 O 0.99807 0.59098 0.02898 0.0
O438 O 0.03941 0.55224 0.96524 0.0
O439 O 0.03676 0.52225 0.99589 0.0
H440 H 0.05585 0.40516 0.03561 0.0
H441 H 0.09816 0.38989 0.05702 0.0
H442 H 0.11076 0.46108 0.11535 0.0
H443 H 0.06904 0.47673 0.09284 0.0
H444 H 0.96722 0.63688 0.03233 0.0
H445 H 0.92226 0.65134 1.01551 0.0
H446 H 0.92495 0.60225 0.93602 0.0
H447 H 0.96954 0.58765 0.95284 0.0
C448 C 0.27444 0.22366 0.37553 0.0
C449 C 0.26804 0.24288 0.35543 0.0
C450 C 0.25189 0.20653 0.39068 0.0
C451 C 0.22231 0.20908 0.38603 0.0
C452 C 0.21593 0.23037 0.36826 0.0
C453 C 0.23884 0.24686 0.35296 0.0
C454 C 0.25963 0.18409 0.40948 0.0
C455 C 0.1847 0.23417 0.36327 0.0
C456 C 0.167 0.14299 0.38516 0.0
C457 C 0.154 0.14329 0.41331 0.0
C458 C 0.18915 0.16435 0.37614 0.0
C459 C 0.19822 0.18691 0.39552 0.0
C460 C 0.18461 0.18786 0.42362 0.0
C461 C 0.16277 0.16591 0.43229 0.0
C462 C 0.20311 0.16253 0.34594 0.0
C463 C 0.19341 0.21182 0.44462 0.0
H464 H 0.29699 0.22092 0.37819 0.0
H465 H 0.23348 0.26151 0.33743 0.0
H466 H 0.24715 0.18283 0.43065 0.0
H467 H 0.2535 0.16407 0.39775 0.0
H468 H 0.28348 0.18727 0.41426 0.0
H469 H 0.18376 0.25446 0.3537 0.0
H470 H 0.17399 0.21798 0.34778 0.0
H471 H 0.1718 0.23218 0.38421 0.0
H472 H 0.15989 0.12594 0.3701 0.0
H473 H 0.15302 0.16621 0.45418 0.0
H474 H 0.22712 0.16329 0.34805 0.0
H475 H 0.2 0.18031 0.33262 0.0
H476 H 0.19375 0.1434 0.33372 0.0
H477 H 0.21648 0.2127 0.45143 0.0
H478 H 0.17918 0.2104 0.46473 0.0
H479 H 0.1923 0.23135 0.43352 0.0
C480 C 0.31144 0.8737 0.79769 0.0
C481 C 0.31141 0.84634 0.78918 0.0
C482 C 0.32628 0.88506 0.82288 0.0
C483 C 0.34127 0.86858 0.84015 0.0
C484 C 0.34086 0.84076 0.83204 0.0
C485 C 0.32607 0.82999 0.80644 0.0
C486 C 0.32647 0.91492 0.8306 0.0
C487 C 0.3563 0.82255 0.85018 0.0
C488 C 0.40123 0.91056 0.88581 0.0
C489 C 0.38611 0.91377 0.91235 0.0
C490 C 0.38743 0.89441 0.86259 0.0
C491 C 0.35793 0.88104 0.86618 0.0
C492 C 0.34331 0.88263 0.89368 0.0
C493 C 0.35754 0.89914 0.91642 0.0
C494 C 0.4037 0.89337 0.83354 0.0
C495 C 0.31201 0.86831 0.89848 0.0
H496 H 0.30054 0.8865 0.78409 0.0
H497 H 0.32593 0.80879 0.79991 0.0
H498 H 0.31735 0.91691 0.85318 0.0
H499 H 0.34939 0.92632 0.83046 0.0
H500 H 0.31348 0.9248 0.81499 0.0
H501 H 0.3527 0.80105 0.84166 0.0
H502 H 0.38026 0.83057 0.85018 0.0
H503 H 0.34846 0.82265 0.87344 0.0
H504 H 0.42325 0.92201 0.88254 0.0
H505 H 0.34599 0.90135 0.93711 0.0
H506 H 0.39401 0.90522 0.81698 0.0
H507 H 0.40146 0.87195 0.82506 0.0
H508 H 0.42744 0.9021 0.83541 0.0
H509 H 0.297 0.87882 0.88589 0.0
H510 H 0.30531 0.86836 0.92212 0.0
H511 H 0.30913 0.84678 0.89021 0.0
C512 C 0.58277 0.41313 0.70976 0.0
C513 C 0.61262 0.41907 0.71766 0.0
C514 C 0.57176 0.42606 0.68577 0.0
C515 C 0.59073 0.44586 0.66895 0.0
C516 C 0.62087 0.45179 0.67656 0.0
C517 C 0.63136 0.4384 0.70046 0.0
C518 C 0.53962 0.41856 0.67844 0.0
C519 C 0.64223 0.47229 0.65925 0.0
C520 C 0.56791 0.46382 0.591 0.0
C521 C 0.55728 0.48852 0.59596 0.0
C522 C 0.57891 0.4499 0.61424 0.0
C523 C 0.57914 0.46051 0.64364 0.0
C524 C 0.56846 0.48542 0.64876 0.0
C525 C 0.55778 0.49899 0.62511 0.0
C526 C 0.58976 0.42347 0.60719 0.0
C527 C 0.56835 0.49788 0.67941 0.0
H528 H 0.56768 0.39862 0.72265 0.0
H529 H 0.65455 0.44298 0.70538 0.0
H530 H 0.52913 0.43704 0.68016 0.0
H531 H 0.53723 0.41078 0.65533 0.0
H532 H 0.52763 0.40267 0.69326 0.0
H533 H 0.66491 0.47496 0.66789 0.0
H534 H 0.64262 0.4655 0.63578 0.0
H535 H 0.63497 0.49249 0.65986 0.0
H536 H 0.56756 0.45518 0.56887 0.0
H537 H 0.54972 0.51794 0.6296 0.0
H538 H 0.60931 0.42158 0.62031 0.0
H539 H 0.59557 0.42181 0.58347 0.0
H540 H 0.57217 0.40593 0.61266 0.0
H541 H 0.55495 0.48318 0.69452 0.0
H542 H 0.55943 0.5173 0.67996 0.0
H543 H 0.59104 0.5021 0.68804 0.0
C544 C 0.91966 0.59744 0.20975 0.0
C545 C 0.92755 0.62594 0.21485 0.0
C546 C 0.93162 0.58395 0.18587 0.0
C547 C 0.95251 0.59898 0.16637 0.0
C548 C 0.96055 0.62771 0.17122 0.0
C549 C 0.94798 0.64076 0.19509 0.0
C550 C 0.92216 0.55337 0.18181 0.0
C551 C 0.98281 0.64471 0.15132 0.0
C552 C 1.00517 0.55858 0.12547 0.0
C553 C 0.99302 0.55428 0.09719 0.0
C554 C 0.99264 0.57345 0.14772 0.0
C555 C 0.96695 0.58437 0.14198 0.0
C556 C 0.95482 0.58051 0.11325 0.0
C557 C 0.96796 0.5656 0.09128 0.0
C558 C 1.00677 0.57713 0.17763 0.0
C559 C 0.92749 0.5916 0.1059 0.0
H560 H 0.90446 0.58535 0.22481 0.0
H561 H 0.95413 0.66275 0.19808 0.0
H562 H 0.91411 0.54853 0.15906 0.0
H563 H 0.94124 0.54294 0.18475 0.0
H564 H 0.90454 0.54478 0.19768 0.0
H565 H 0.98632 0.66687 0.15743 0.0
H566 H 1.00415 0.63747 0.1524 0.0
H567 H 0.97554 0.64218 0.12809 0.0
H568 H 0.02456 0.55005 0.13036 0.0
H569 H 0.9582 0.56229 0.06966 0.0
H570 H 0.99126 0.56693 0.1946 0.0
H571 H 1.01189 0.59924 0.18376 0.0
H572 H 0.02734 0.56847 0.1783 0.0
H573 H 0.90875 0.5813 0.11952 0.0
H574 H 0.92174 0.58841 0.08225 0.0
H575 H 0.93049 0.61385 0.11129 0.0
C576 C 0.42818 0.1882 0.12445 0.0
C577 C 0.4279 0.19152 0.15527 0.0
C578 C 0.44152 0.16776 0.11072 0.0
C579 C 0.45446 0.14985 0.12821 0.0
C580 C 0.45484 0.15341 0.15923 0.0
C581 C 0.44187 0.17435 0.17234 0.0
C582 C 0.44109 0.16488 0.0775 0.0
C583 C 0.46822 0.1346 0.17864 0.0
C584 C 0.45824 0.08045 0.09267 0.0
C585 C 0.4876 0.08396 0.08298 0.0
C586 C 0.44747 0.10141 0.10835 0.0
C587 C 0.46638 0.12666 0.11403 0.0
C588 C 0.49627 0.13003 0.10507 0.0
C589 C 0.50659 0.10854 0.08986 0.0
C590 C 0.41561 0.09679 0.11811 0.0
C591 C 0.51705 0.15674 0.1104 0.0
H592 H 0.41722 0.20104 0.11101 0.0
H593 H 0.44244 0.17709 0.1961 0.0
H594 H 0.46363 0.16484 0.0687 0.0
H595 H 0.42745 0.145 0.07097 0.0
H596 H 0.43211 0.18165 0.06699 0.0
H597 H 0.46752 0.14061 0.20235 0.0
H598 H 0.45623 0.11325 0.17591 0.0
H599 H 0.49141 0.13459 0.17196 0.0
H600 H 0.4435 0.06144 0.08758 0.0
H601 H 0.52927 0.11148 0.08226 0.0
H602 H 0.40381 0.11084 0.10624 0.0
H603 H 0.41385 0.10152 0.14203 0.0
H604 H 0.40438 0.07537 0.11383 0.0
H605 H 0.50989 0.17318 0.09759 0.0
H606 H 0.54004 0.15543 0.10384 0.0
H607 H 0.5166 0.16294 0.13402 0.0
C608 C 0.11809 0.87694 0.58562 0.0
C609 C 0.13114 0.87706 0.61333 0.0
C610 C 0.10318 0.89796 0.57781 0.0
C611 C 0.10051 0.91917 0.59854 0.0
C612 C 0.11115 0.91805 0.62743 0.0
C613 C 0.12669 0.89719 0.6344 0.0
C614 C 0.09218 0.89849 0.54668 0.0
C615 C 0.10783 0.93984 0.65041 0.0
C616 C 0.09961 0.98806 0.56453 0.0
C617 C 0.06943 0.98791 0.56253 0.0
C618 C 0.11005 0.96613 0.57718 0.0
C619 C 0.08974 0.94396 0.58877 0.0
C620 C 0.0593 0.94468 0.58866 0.0
C621 C 0.04945 0.9665 0.57509 0.0
C622 C 0.1427 0.96596 0.57657 0.0
C623 C 0.03707 0.92186 0.60163 0.0
H624 H 0.12068 0.86104 0.5695 0.0
H625 H 0.13676 0.89768 0.65584 0.0
H626 H 0.06882 0.901 0.54689 0.0
H627 H 0.10496 0.91633 0.53507 0.0
H628 H 0.09425 0.87954 0.53388 0.0
H629 H 0.11252 0.93346 0.67293 0.0
H630 H 0.12333 0.95897 0.64529 0.0
H631 H 0.08528 0.94466 0.65028 0.0
H632 H 0.11507 1.00461 0.55481 0.0
H633 H 0.02607 0.96634 0.57351 0.0
H634 H 0.14737 0.94854 0.56255 0.0
H635 H 0.15047 0.96298 0.59907 0.0
H636 H 0.15557 0.98525 0.56778 0.0
H637 H 0.0349 0.9035 0.58688 0.0
H638 H 0.01507 0.92777 0.60439 0.0
H639 H 0.04437 0.91594 0.62338 0.0
C640 C 0.80606 0.42942 0.94274 0.0
C641 C 0.80491 0.42534 0.91195 0.0
C642 C 0.83205 0.4423 0.95684 0.0
C643 C 0.85799 0.45125 0.93999 0.0
C644 C 0.857 0.4472 0.9089 0.0
C645 C 0.83061 0.43453 0.89533 0.0
C646 C 0.83169 0.44641 0.98991 0.0
C647 C 0.88399 0.45604 0.88991 0.0
C648 C 0.91908 0.50599 0.97261 0.0
C649 C 0.9392 0.49026 0.98307 0.0
C650 C 0.89272 0.49366 0.9588 0.0
C651 C 0.88607 0.46474 0.95486 0.0
C652 C 0.90632 0.44875 0.96526 0.0
C653 C 0.93238 0.46159 0.97929 0.0
C654 C 0.87189 0.51168 0.94848 0.0
C655 C 0.90053 0.41794 0.96138 0.0
H656 H 0.78641 0.42284 0.95592 0.0
H657 H 0.83029 0.4313 0.87162 0.0
H658 H 0.84806 0.43564 0.99999 0.0
H659 H 0.83804 0.46853 0.99559 0.0
H660 H 0.80977 0.4387 0.99991 0.0
H661 H 0.8798 0.45146 0.86613 0.0
H662 H 0.89188 0.4784 0.89282 0.0
H663 H 0.90195 0.44548 0.89688 0.0
H664 H 0.92383 0.52811 0.97533 0.0
H665 H 0.94763 0.44909 0.98702 0.0
H666 H 0.85008 0.50563 0.95932 0.0
H667 H 0.86865 0.50888 0.92436 0.0
H668 H 0.88 0.53376 0.95335 0.0
H669 H 0.87965 0.40913 0.97271 0.0
H670 H 0.91847 0.40837 0.97029 0.0
H671 H 0.898 0.41235 0.93763 0.0
C672 C 0.71049 0.63712 0.42235 0.0
C673 C 0.73144 0.62157 0.41208 0.0
C674 C 0.68456 0.62492 0.43722 0.0
C675 C 0.67908 0.59628 0.44219 0.0
C676 C 0.69984 0.58034 0.43146 0.0
C677 C 0.72561 0.59309 0.41657 0.0
C678 C 0.66313 0.64282 0.44798 0.0
C679 C 0.69513 0.54982 0.43627 0.0
C680 C 0.62768 0.57165 0.50713 0.0
C681 C 0.6008 0.56214 0.49324 0.0
C682 C 0.6533 0.58214 0.49079 0.0
C683 C 0.65226 0.58336 0.45961 0.0
C684 C 0.62529 0.57317 0.44539 0.0
C685 C 0.59998 0.56265 0.46231 0.0
C686 C 0.6814 0.59253 0.50705 0.0
C687 C 0.62299 0.57401 0.41229 0.0
H688 H 0.7143 0.65901 0.41865 0.0
H689 H 0.74159 0.58077 0.40909 0.0
H690 H 0.64102 0.63505 0.43895 0.0
H691 H 0.66109 0.64204 0.47238 0.0
H692 H 0.67 0.66455 0.44156 0.0
H693 H 0.71254 0.54006 0.42549 0.0
H694 H 0.69483 0.54575 0.46025 0.0
H695 H 0.6735 0.53992 0.42752 0.0
H696 H 0.62864 0.57129 0.53098 0.0
H697 H 0.57936 0.5554 0.45133 0.0
H698 H 0.68825 0.61484 0.50347 0.0
H699 H 0.6993 0.58224 0.4983 0.0
H700 H 0.67901 0.58903 0.53115 0.0
H701 H 0.62744 0.59562 0.40503 0.0
H702 H 0.60094 0.56421 0.40441 0.0
H703 H 0.63978 0.56347 0.40155 0.0
C704 C 0.23932 0.3765 0.17386 0.0
C705 C 0.26106 0.36938 0.15463 0.0
C706 C 0.21535 0.38704 0.16322 0.0
C707 C 0.21265 0.39016 0.13252 0.0
C708 C 0.23469 0.38354 0.11297 0.0
C709 C 0.25871 0.37337 0.12426 0.0
C710 C 0.19244 0.39407 0.18483 0.0
C711 C 0.23247 0.38645 0.08005 0.0
C712 C 0.13536 0.38777 0.10434 0.0
C713 C 0.13469 0.41561 0.09988 0.0
C714 C 0.16072 0.37923 0.11453 0.0
C715 C 0.18597 0.39902 0.12087 0.0
C716 C 0.18542 0.42716 0.11672 0.0
C717 C 0.15987 0.43511 0.10611 0.0
C718 C 0.16046 0.349 0.11859 0.0
C719 C 0.2118 0.44889 0.12355 0.0
H720 H 0.24045 0.37301 0.19728 0.0
H721 H 0.27552 0.36829 0.10924 0.0
H722 H 0.18862 0.41525 0.18129 0.0
H723 H 0.17126 0.38005 0.18118 0.0
H724 H 0.19887 0.3924 0.20813 0.0
H725 H 0.25201 0.38148 0.06792 0.0
H726 H 0.21263 0.37257 0.07188 0.0
H727 H 0.22998 0.40769 0.0748 0.0
H728 H 0.11593 0.37257 0.10005 0.0
H729 H 0.1598 0.45662 0.10228 0.0
H730 H 0.16418 0.34499 0.14208 0.0
H731 H 0.17859 0.34243 0.1055 0.0
H732 H 0.13937 0.33617 0.11177 0.0
H733 H 0.21781 0.44779 0.14702 0.0
H734 H 0.20776 0.46991 0.11929 0.0
H735 H 0.23097 0.44518 0.10999 0.0
C736 C 0.5877 0.20312 0.88915 0.0
C737 C 0.60395 0.22484 0.90567 0.0
C738 C 0.57525 0.17787 0.90222 0.0
C739 C 0.57891 0.17378 0.93276 0.0
C740 C 0.59533 0.19553 0.94954 0.0
C741 C 0.60744 0.22055 0.93596 0.0
C742 C 0.55797 0.15553 0.88326 0.0
C743 C 0.59985 0.1925 0.98211 0.0
C744 C 0.52248 0.12031 0.97338 0.0
C745 C 0.53697 0.09771 0.97539 0.0
C746 C 0.53575 0.14485 0.95965 0.0
C747 C 0.56454 0.14735 0.94742 0.0
C748 C 0.57944 0.12465 0.94957 0.0
C749 C 0.56556 0.10021 0.96345 0.0
C750 C 0.51881 0.1682 0.95821 0.0
C751 C 0.61014 0.12617 0.93713 0.0
H752 H 0.58498 0.20565 0.86575 0.0
H753 H 0.61934 0.23702 0.9494 0.0
H754 H 0.56762 0.13659 0.88438 0.0
H755 H 0.53504 0.15049 0.89173 0.0
H756 H 0.55753 0.16149 0.85982 0.0
H757 H 0.6141 0.21074 0.99195 0.0
H758 H 0.57832 0.18936 0.9939 0.0
H759 H 0.60994 0.17416 0.9859 0.0
H760 H 0.50046 0.11882 0.98255 0.0
H761 H 0.57707 0.08303 0.96487 0.0
H762 H 0.51624 0.17356 0.93488 0.0
H763 H 0.53113 0.1867 0.96945 0.0
H764 H 0.49665 0.16315 0.96866 0.0
H765 H 0.61034 0.13026 0.91316 0.0
H766 H 0.61886 0.10695 0.94046 0.0
H767 H 0.62512 0.14346 0.94774 0.0
C768 C 0.92393 0.84529 0.39455 0.0
C769 C 0.93004 0.821 0.40655 0.0
C770 C 0.93362 0.87116 0.40824 0.0
C771 C 0.95059 0.87313 0.43426 0.0
C772 C 0.95732 0.84868 0.44608 0.0
C773 C 0.94668 0.82304 0.4324 0.0
C774 C 0.92519 0.89638 0.39512 0.0
C775 C 0.97592 0.84959 0.47323 0.0
C776 C 0.9979 0.9427 0.45462 0.0
C777 C 0.98185 0.95219 0.47808 0.0
C778 C 0.98815 0.91712 0.44039 0.0
C779 C 0.9612 0.90064 0.44915 0.0
C780 C 0.94462 0.91038 0.47247 0.0
C781 C 0.95528 0.93571 0.48682 0.0
C782 C 1.00707 0.90747 0.41631 0.0
C783 C 0.9155 0.89404 0.48226 0.0
H784 H 0.91084 0.84397 0.3748 0.0
H785 H 0.9517 0.80447 0.44178 0.0
H786 H 0.91278 0.90675 0.41171 0.0
H787 H 0.94521 0.91116 0.38906 0.0
H788 H 0.91151 0.89147 0.37517 0.0
H789 H 0.98028 0.829 0.47901 0.0
H790 H 0.99725 0.86346 0.46969 0.0
H791 H 0.96478 0.858 0.49228 0.0
H792 H 0.01859 0.955 0.44779 0.0
H793 H 0.94258 0.94275 0.50481 0.0
H794 H 0.99466 0.90402 0.39546 0.0
H795 H 1.01301 0.88756 0.42234 0.0
H796 H 0.02759 0.92239 0.41225 0.0
H797 H 0.90057 0.88978 0.46318 0.0
H798 H 0.90463 0.90487 0.49978 0.0
H799 H 0.91871 0.87396 0.49078 0.0
C800 C 0.3753 0.78028 0.53055 0.0
C801 C 0.34868 0.76657 0.5424 0.0
C802 C 0.39781 0.76578 0.52252 0.0
C803 C 0.39379 0.73728 0.52769 0.0
C804 C 0.36583 0.72307 0.53671 0.0
C805 C 0.34345 0.73793 0.54363 0.0
C806 C 0.42671 0.78135 0.51119 0.0
C807 C 0.36055 0.69268 0.54261 0.0
C808 C 0.44646 0.68789 0.51356 0.0
C809 C 0.45883 0.68754 0.54159 0.0
C810 C 0.42726 0.70605 0.5075 0.0
C811 C 0.4196 0.72349 0.53033 0.0
C812 C 0.43381 0.72469 0.55788 0.0
C813 C 0.45365 0.70706 0.56293 0.0
C814 C 0.41379 0.7051 0.47735 0.0
C815 C 0.4263 0.74296 0.58296 0.0
H816 H 0.37916 0.80247 0.52931 0.0
H817 H 0.32286 0.72738 0.55289 0.0
H818 H 0.44205 0.78652 0.52982 0.0
H819 H 0.43699 0.76879 0.49488 0.0
H820 H 0.42385 0.80081 0.50079 0.0
H821 H 0.33696 0.68437 0.54681 0.0
H822 H 0.36832 0.68123 0.52369 0.0
H823 H 0.37317 0.68882 0.56223 0.0
H824 H 0.45035 0.67296 0.49685 0.0
H825 H 0.46396 0.70755 0.58426 0.0
H826 H 0.40933 0.72552 0.47114 0.0
H827 H 0.39265 0.69051 0.4774 0.0
H828 H 0.42835 0.69789 0.46027 0.0
H829 H 0.42935 0.76457 0.57589 0.0
H830 H 0.44001 0.74199 0.60266 0.0
H831 H 0.40287 0.73671 0.58952 0.0
C832 C 0.75967 0.83131 0.67104 0.0
C833 C 0.76787 0.81644 0.69455 0.0
C834 C 0.78079 0.84941 0.65514 0.0
C835 C 0.8107 0.85282 0.66316 0.0
C836 C 0.81927 0.83655 0.68558 0.0
C837 C 0.79777 0.81855 0.70098 0.0
C838 C 0.77088 0.86612 0.63104 0.0
C839 C 0.85092 0.83963 0.69489 0.0
C840 C 0.87234 0.8927 0.61672 0.0
C841 C 0.87701 0.91827 0.63147 0.0
C842 C 0.85016 0.87136 0.62611 0.0
C843 C 0.83247 0.87567 0.65096 0.0
C844 C 0.83667 0.9016 0.6655 0.0
C845 C 0.85876 0.92259 0.65549 0.0
C846 C 0.84614 0.84403 0.60996 0.0
C847 C 0.81827 0.90704 0.69212 0.0
H848 H 0.73663 0.8295 0.66576 0.0
H849 H 0.8043 0.80745 0.71936 0.0
H850 H 0.77245 0.88772 0.63879 0.0
H851 H 0.78533 0.86615 0.61124 0.0
H852 H 0.74782 0.85826 0.62459 0.0
H853 H 0.8544 0.82339 0.71029 0.0
H854 H 0.86559 0.83897 0.67537 0.0
H855 H 0.85759 0.85988 0.70604 0.0
H856 H 0.88646 0.88915 0.59824 0.0
H857 H 0.86177 0.94247 0.66656 0.0
H858 H 0.82277 0.83735 0.60403 0.0
H859 H 0.85215 0.82825 0.62456 0.0
H860 H 0.85987 0.84475 0.58954 0.0
H861 H 0.79461 0.90265 0.6866 0.0
H862 H 0.82381 0.92856 0.70039 0.0
H863 H 0.82161 0.89318 0.71019 0.0
C864 C 0.70265 0.16085 0.27573 0.0
C865 C 0.70045 0.18731 0.28592 0.0
C866 C 0.68944 0.15031 0.24942 0.0
C867 C 0.67385 0.16675 0.23276 0.0
C868 C 0.67159 0.19354 0.24287 0.0
C869 C 0.68481 0.20348 0.26951 0.0
C870 C 0.69201 0.12149 0.23955 0.0
C871 C 0.65537 0.21168 0.22548 0.0
C872 C 0.66513 0.14356 0.15291 0.0
C873 C 0.63704 0.12731 0.15345 0.0
C874 C 0.67678 0.15786 0.17824 0.0
C875 C 0.66004 0.15559 0.20478 0.0
C876 C 0.63115 0.14032 0.20512 0.0
C877 C 0.61993 0.12647 0.17939 0.0
C878 C 0.70758 0.17418 0.17699 0.0
C879 C 0.61266 0.1374 0.23304 0.0
H880 H 0.71434 0.14818 0.28867 0.0
H881 H 0.68324 0.224 0.27737 0.0
H882 H 0.6698 0.10887 0.23725 0.0
H883 H 0.70302 0.12185 0.21759 0.0
H884 H 0.70466 0.11133 0.25525 0.0
H885 H 0.65566 0.23202 0.23639 0.0
H886 H 0.66542 0.21487 0.20314 0.0
H887 H 0.6322 0.20159 0.22254 0.0
H888 H 0.67859 0.14416 0.13305 0.0
H889 H 0.59796 0.11444 0.17977 0.0
H890 H 0.72242 0.1637 0.18984 0.0
H891 H 0.70817 0.19485 0.18711 0.0
H892 H 0.71629 0.17655 0.15402 0.0
H893 H 0.6226 0.12531 0.24918 0.0
H894 H 0.58975 0.12695 0.22898 0.0
H895 H 0.61208 0.15781 0.24334 0.0
C896 C 0.46131 0.64417 0.33372 0.0
C897 C 0.43095 0.64096 0.32826 0.0
C898 C 0.47241 0.6312 0.35764 0.0
C899 C 0.45294 0.61429 0.377 0.0
C900 C 0.42232 0.61126 0.37191 0.0
C901 C 0.4118 0.6245 0.34791 0.0
C902 C 0.50515 0.63558 0.36218 0.0
C903 C 0.4005 0.59388 0.39189 0.0
C904 C 0.482 0.55897 0.42115 0.0
C905 C 0.48581 0.57077 0.44966 0.0
C906 C 0.47141 0.57278 0.39764 0.0
C907 C 0.46456 0.59944 0.40216 0.0
C908 C 0.46862 0.6116 0.43083 0.0
C909 C 0.47882 0.59713 0.45409 0.0
C910 C 0.46744 0.55867 0.3678 0.0
C911 C 0.4619 0.63987 0.43727 0.0
H912 H 0.47664 0.65646 0.31891 0.0
H913 H 0.38832 0.62209 0.34476 0.0
H914 H 0.51038 0.6441 0.38467 0.0
H915 H 0.51295 0.61566 0.36045 0.0
H916 H 0.51748 0.64976 0.34582 0.0
H917 H 0.37744 0.59321 0.38501 0.0
H918 H 0.40504 0.57261 0.39205 0.0
H919 H 0.40286 0.60209 0.41484 0.0
H920 H 0.48719 0.5387 0.41714 0.0
H921 H 0.48154 0.6067 0.47581 0.0
H922 H 0.48103 0.57129 0.351 0.0
H923 H 0.44418 0.55655 0.36106 0.0
H924 H 0.47363 0.53799 0.36766 0.0
H925 H 0.46873 0.65384 0.41864 0.0
H926 H 0.47305 0.6491 0.45749 0.0
H927 H 0.43786 0.63845 0.44065 0.0
C928 C 0.13384 0.44604 0.85183 0.0
C929 C 0.11564 0.4337 0.82894 0.0
C930 C 0.12273 0.46013 0.87575 0.0
C931 C 0.09253 0.46232 0.87712 0.0
C932 C 0.07393 0.4496 0.85434 0.0
C933 C 0.08559 0.43547 0.83075 0.0
C934 C 0.14349 0.47301 0.89947 0.0
C935 C 0.04169 0.45145 0.8545 0.0
C936 C 0.05767 0.48267 0.95043 0.0
C937 C 0.05826 0.51088 0.94714 0.0
C938 C 0.06894 0.46669 0.92816 0.0
C939 C 0.08077 0.479 0.90151 0.0
C940 C 0.08121 0.50748 0.89808 0.0
C941 C 0.07008 0.52292 0.92077 0.0
C942 C 0.06789 0.4365 0.93306 0.0
C943 C 0.0933 0.5217 0.87022 0.0
H944 H 0.15695 0.44456 0.85119 0.0
H945 H 0.0712 0.42641 0.81324 0.0
H946 H 0.14465 0.49557 0.89988 0.0
H947 H 0.13517 0.46542 0.92142 0.0
H948 H 0.16604 0.46853 0.89604 0.0
H949 H 0.02983 0.43957 0.83598 0.0
H950 H 0.03119 0.44371 0.87558 0.0
H951 H 0.03908 0.47321 0.85286 0.0
H952 H 0.0478 0.47291 0.97008 0.0
H953 H 0.07049 0.54463 0.91773 0.0
H954 H 0.0902 0.43135 0.93025 0.0
H955 H 0.05368 0.42432 0.91633 0.0
H956 H 0.05931 0.4302 0.95537 0.0
H957 H 0.11657 0.51942 0.86677 0.0
H958 H 0.09209 0.54391 0.87082 0.0
H959 H 0.08089 0.51199 0.8509 0.0
C960 C 0.60556 0.88708 0.87175 0.0
C961 C 0.60507 0.86263 0.88705 0.0
C962 C 0.59357 0.90887 0.88431 0.0
C963 C 0.58119 0.90638 0.91308 0.0
C964 C 0.58005 0.88161 0.92844 0.0
C965 C 0.59182 0.85998 0.91517 0.0
C966 C 0.59497 0.93488 0.86713 0.0
C967 C 0.56714 0.87822 0.95924 0.0
C968 C 0.58109 0.97093 0.95961 0.0
C969 C 0.55146 0.97377 0.95894 0.0
C970 C 0.59108 0.94929 0.94444 0.0
C971 C 0.57104 0.93022 0.92786 0.0
C972 C 0.54132 0.93354 0.92618 0.0
C973 C 0.53185 0.95522 0.94188 0.0
C974 C 0.62292 0.94635 0.94696 0.0
C975 C 0.5194 0.91389 0.90833 0.0
H976 H 0.61612 0.88959 0.85022 0.0
H977 H 0.59085 0.84104 0.92698 0.0
H978 H 0.57295 0.94082 0.86655 0.0
H979 H 0.60992 0.95189 0.87822 0.0
H980 H 0.603 0.9327 0.84412 0.0
H981 H 0.56698 0.85733 0.96779 0.0
H982 H 0.58005 0.89339 0.97445 0.0
H983 H 0.5443 0.88229 0.95961 0.0
H984 H 0.59638 0.98507 0.97287 0.0
H985 H 0.50901 0.95746 0.94099 0.0
H986 H 0.63319 0.94587 0.92472 0.0
H987 H 0.62436 0.92665 0.95757 0.0
H988 H 0.63583 0.96333 0.96011 0.0
H989 H 0.52758 0.9124 0.88531 0.0
H990 H 0.49751 0.92023 0.90794 0.0
H991 H 0.5167 0.89308 0.91771 0.0
C992 C 0.91123 0.17818 0.47555 0.0
C993 C 0.89693 0.17902 0.44866 0.0
C994 C 0.92905 0.15858 0.48024 0.0
C995 C 0.93324 0.13986 0.45719 0.0
C996 C 0.92165 0.14264 0.42901 0.0
C997 C 0.9033 0.16197 0.42515 0.0
C998 C 0.94115 0.15634 0.51064 0.0
C999 C 0.92656 0.12371 0.40361 0.0
C1000 C 0.98673 0.09285 0.47502 0.0
C1001 C 0.96749 0.07014 0.48608 0.0
C1002 C 0.97592 0.1152 0.46364 0.0
C1003 C 0.94526 0.11491 0.4641 0.0
C1004 C 0.92575 0.09131 0.47373 0.0
C1005 C 0.93714 0.06905 0.48428 0.0
C1006 C 0.99737 0.13957 0.45262 0.0
C1007 C 0.89287 0.09022 0.4747 0.0
H1008 H 0.90718 0.19185 0.49354 0.0
H1009 H 0.89241 0.1623 0.40423 0.0
H1010 H 0.92954 0.13729 0.52104 0.0
H1011 H 0.96481 0.15495 0.50925 0.0
H1012 H 0.93843 0.17406 0.52521 0.0
H1013 H 0.92156 0.13205 0.38209 0.0
H1014 H 0.94959 0.12012 0.403 0.0
H1015 H 0.91204 0.10356 0.40645 0.0
H1016 H 1.01026 0.09362 0.47625 0.0
H1017 H 0.92224 0.05143 0.49269 0.0
H1018 H 1.00004 0.1561 0.46974 0.0
H1019 H 0.98914 0.14785 0.43246 0.0
H1020 H 0.01933 0.13422 0.44768 0.0
H1021 H 0.88738 0.10622 0.49028 0.0
H1022 H 0.88075 0.06997 0.48182 0.0
H1023 H 0.88493 0.09456 0.45266 0.0
C1024 C 0.21412 0.62115 0.14882 0.0
C1025 C 0.23961 0.63141 0.13233 0.0
C1026 C 0.18793 0.60826 0.13503 0.0
C1027 C 0.18691 0.60514 0.10384 0.0
C1028 C 0.21267 0.6151 0.08711 0.0
C1029 C 0.23847 0.6281 0.10144 0.0
C1030 C 0.16113 0.59828 0.15389 0.0
C1031 C 0.21299 0.61206 0.05393 0.0
C1032 C 0.12626 0.5511 0.06927 0.0
C1033 C 0.10576 0.567 0.06005 0.0
C1034 C 0.1526 0.56314 0.08336 0.0
C1035 C 0.15889 0.59191 0.08869 0.0
C1036 C 0.13832 0.60806 0.07943 0.0
C1037 C 0.11223 0.59551 0.06526 0.0
C1038 C 0.17372 0.54496 0.0926 0.0
C1039 C 0.14376 0.63871 0.08468 0.0
H1040 H 0.2144 0.62375 0.1726 0.0
H1041 H 0.25797 0.63548 0.08834 0.0
H1042 H 0.14295 0.60894 0.1478 0.0
H1043 H 0.15349 0.57602 0.14988 0.0
H1044 H 0.16544 0.60184 0.17781 0.0
H1045 H 0.23482 0.62033 0.04405 0.0
H1046 H 0.2069 0.59011 0.04742 0.0
H1047 H 0.19641 0.62297 0.04444 0.0
H1048 H 0.12173 0.52909 0.06558 0.0
H1049 H 0.09671 0.60816 0.05851 0.0
H1050 H 0.17713 0.54697 0.11676 0.0
H1051 H 0.19542 0.55156 0.08173 0.0
H1052 H 0.16578 0.52301 0.08693 0.0
H1053 H 0.14623 0.64339 0.10864 0.0
H1054 H 0.12568 0.64845 0.07637 0.0
H1055 H 0.16458 0.64814 0.07364 0.0
C1056 C 0.31651 0.46496 0.62764 0.0
C1057 C 0.31059 0.43646 0.63197 0.0
C1058 C 0.34241 0.47776 0.61301 0.0
C1059 C 0.36323 0.46185 0.60238 0.0
C1060 C 0.35765 0.43318 0.60716 0.0
C1061 C 0.33158 0.42092 0.62178 0.0
C1062 C 0.34721 0.50832 0.6084 0.0
C1063 C 0.37913 0.4153 0.59647 0.0
C1064 C 0.41502 0.48692 0.53789 0.0
C1065 C 0.44182 0.49638 0.55197 0.0
C1066 C 0.38933 0.47627 0.55402 0.0
C1067 C 0.39019 0.47485 0.5852 0.0
C1068 C 0.41706 0.48497 0.59962 0.0
C1069 C 0.44246 0.49565 0.58289 0.0
C1070 C 0.36135 0.46595 0.53755 0.0
C1071 C 0.41915 0.48393 0.63272 0.0
H1072 H 0.3005 0.47727 0.63505 0.0
H1073 H 0.32772 0.39901 0.62536 0.0
H1074 H 0.36878 0.51814 0.61735 0.0
H1075 H 0.34771 0.51252 0.58444 0.0
H1076 H 0.32974 0.51805 0.61911 0.0
H1077 H 0.37219 0.39354 0.60275 0.0
H1078 H 0.38137 0.41622 0.5721 0.0
H1079 H 0.40117 0.423 0.60571 0.0
H1080 H 0.4142 0.48745 0.51404 0.0
H1081 H 0.46302 0.50286 0.59402 0.0
H1082 H 0.34339 0.47622 0.54622 0.0
H1083 H 0.35445 0.44362 0.54101 0.0
H1084 H 0.36389 0.46955 0.51347 0.0
H1085 H 0.40233 0.49445 0.64343 0.0
H1086 H 0.44117 0.49365 0.64077 0.0
H1087 H 0.41461 0.46228 0.63983 0.0
C1088 C 0.77462 0.66341 0.90235 0.0
C1089 C 0.77375 0.69146 0.90581 0.0
C1090 C 0.79699 0.65189 0.91512 0.0
C1091 C 0.8192 0.66893 0.93136 0.0
C1092 C 0.81796 0.69711 0.93558 0.0
C1093 C 0.79515 0.708 0.92288 0.0
C1094 C 0.79736 0.62168 0.91046 0.0
C1095 C 0.84143 0.71602 0.95243 0.0
C1096 C 0.86919 0.63782 0.98153 0.0
C1097 C 0.89405 0.63792 0.96336 0.0
C1098 C 0.84441 0.64742 0.97127 0.0
C1099 C 0.84475 0.65772 0.94235 0.0
C1100 C 0.86984 0.65785 0.92394 0.0
C1101 C 0.8941 0.6478 0.93462 0.0
C1102 C 0.8179 0.6466 0.99137 0.0
C1103 C 0.87123 0.66899 0.89309 0.0
H1104 H 0.75798 0.65055 0.88932 0.0
H1105 H 0.79477 0.72976 0.92526 0.0
H1106 H 0.81675 0.61892 0.89672 0.0
H1107 H 0.79938 0.61185 0.93191 0.0
H1108 H 0.77725 0.61087 0.89938 0.0
H1109 H 0.83641 0.73708 0.95507 0.0
H1110 H 0.84399 0.7078 0.97461 0.0
H1111 H 0.86285 0.71727 0.94064 0.0
H1112 H 0.86903 0.62996 1.00368 0.0
H1113 H 0.91345 0.64818 0.92065 0.0
H1114 H 0.79817 0.63473 0.98061 0.0
H1115 H 0.81357 0.66769 0.99549 0.0
H1116 H 0.82081 0.63721 1.01291 0.0
H1117 H 0.85298 0.65758 0.87982 0.0
H1118 H 0.89234 0.66755 0.8816 0.0
H1119 H 0.86851 0.69081 0.89394 0.0
C1120 C 0.43402 0.83756 0.1076 0.0
C1121 C 0.43762 0.83369 0.13796 0.0
C1122 C 0.44565 0.86255 0.09369 0.0
C1123 C 0.46167 0.88472 0.1102 0.0
C1124 C 0.46546 0.88105 0.14081 0.0
C1125 C 0.4535 0.85582 0.15421 0.0
C1126 C 0.44104 0.86508 0.06106 0.0
C1127 C 0.48234 0.90384 0.15949 0.0
C1128 C 0.51727 0.93832 0.06879 0.0
C1129 C 0.50233 0.96057 0.06627 0.0
C1130 C 0.50442 0.91387 0.08296 0.0
C1131 C 0.4756 0.91111 0.09516 0.0
C1132 C 0.46025 0.93346 0.09253 0.0
C1133 C 0.47371 0.9578 0.07818 0.0
C1134 C 0.52185 0.8909 0.08486 0.0
C1135 C 0.42951 0.93165 0.10494 0.0
H1136 H 0.42242 0.82078 0.09435 0.0
H1137 H 0.45631 0.85362 0.17765 0.0
H1138 H 0.43058 0.88315 0.05698 0.0
H1139 H 0.46257 0.86841 0.04928 0.0
H1140 H 0.42707 0.84655 0.05146 0.0
H1141 H 0.48286 0.89822 0.18304 0.0
H1142 H 0.50527 0.90911 0.15104 0.0
H1143 H 0.47233 0.92255 0.15804 0.0
H1144 H 0.53932 0.94 0.05965 0.0
H1145 H 0.46185 0.97472 0.0764 0.0
H1146 H 0.50985 0.87212 0.07388 0.0
H1147 H 0.52449 0.88593 0.10829 0.0
H1148 H 0.54399 0.89615 0.07442 0.0
H1149 H 0.41477 0.91405 0.09457 0.0
H1150 H 0.42044 0.95062 0.1013 0.0
H1151 H 0.4294 0.92788 0.12898 0.0
C1152 C 0.09282 0.23489 0.61422 0.0
C1153 C 0.11012 0.23702 0.63962 0.0
C1154 C 0.08163 0.20918 0.60094 0.0
C1155 C 0.08848 0.18475 0.61271 0.0
C1156 C 0.10609 0.18682 0.63829 0.0
C1157 C 0.1163 0.21276 0.65161 0.0
C1158 C 0.06237 0.20819 0.57427 0.0
C1159 C 0.1147 0.16163 0.65129 0.0
C1160 C 0.04072 0.11509 0.59331 0.0
C1161 C 0.05627 0.10558 0.56949 0.0
C1162 C 0.05076 0.14071 0.60737 0.0
C1163 C 0.07753 0.15719 0.59806 0.0
C1164 C 0.09362 0.1474 0.57439 0.0
C1165 C 0.08266 0.12206 0.56022 0.0
C1166 C 0.03235 0.15043 0.63185 0.0
C1167 C 0.12254 0.16371 0.564 0.0
H1168 H 0.08774 0.25345 0.60486 0.0
H1169 H 0.12988 0.21415 0.67101 0.0
H1170 H 0.07308 0.19976 0.55495 0.0
H1171 H 0.04115 0.19429 0.5783 0.0
H1172 H 0.05783 0.22875 0.56865 0.0
H1173 H 0.12877 0.16659 0.67097 0.0
H1174 H 0.09478 0.1469 0.65773 0.0
H1175 H 0.12679 0.15116 0.63449 0.0
H1176 H 0.02018 0.1028 0.60054 0.0
H1177 H 0.09498 0.115 0.54194 0.0
H1178 H 0.02623 0.17029 0.62594 0.0
H1179 H 0.0452 0.15398 0.65241 0.0
H1180 H 1.01194 0.13549 0.63636 0.0
H1181 H 0.11912 0.18371 0.55545 0.0
H1182 H 0.13311 0.15279 0.54634 0.0
H1183 H 0.13783 0.16813 0.58278 0.0
C1184 C 0.63802 0.2628 0.53667 0.0
C1185 C 0.66747 0.27329 0.52964 0.0
C1186 C 0.61757 0.28042 0.54092 0.0
C1187 C 0.62691 0.30897 0.53768 0.0
C1188 C 0.65723 0.31975 0.53462 0.0
C1189 C 0.67721 0.30173 0.53073 0.0
C1190 C 0.58559 0.26827 0.54558 0.0
C1191 C 0.6682 0.35014 0.53154 0.0
C1192 C 0.582 0.34948 0.49301 0.0
C1193 C 0.57374 0.36753 0.51436 0.0
C1194 C 0.59783 0.32914 0.50076 0.0
C1195 C 0.60531 0.3267 0.53068 0.0
C1196 C 0.59501 0.34351 0.55265 0.0
C1197 C 0.57947 0.36393 0.54416 0.0
C1198 C 0.60834 0.31158 0.47658 0.0
C1199 C 0.60181 0.34118 0.58482 0.0
H1200 H 0.63054 0.24079 0.5365 0.0
H1201 H 0.69994 0.31002 0.52537 0.0
H1202 H 0.57475 0.28136 0.56082 0.0
H1203 H 0.57416 0.26702 0.52416 0.0
H1204 H 0.58286 0.24727 0.55458 0.0
H1205 H 0.69246 0.35545 0.53358 0.0
H1206 H 0.66211 0.35669 0.50957 0.0
H1207 H 0.65788 0.36198 0.54848 0.0
H1208 H 0.57765 0.35234 0.46997 0.0
H1209 H 0.57251 0.37761 0.56072 0.0
H1210 H 0.60202 0.28954 0.48181 0.0
H1211 H 0.63268 0.31626 0.47486 0.0
H1212 H 0.59919 0.31502 0.45475 0.0
H1213 H 0.60185 0.31957 0.59076 0.0
H1214 H 0.58573 0.34957 0.59929 0.0
H1215 H 0.62395 0.35313 0.58937 0.0
loop_
_geom_bond_atom_site_label_1
_geom_bond_atom_site_label_2
_geom_bond_distance
_geom_bond_site_symmetry_2
_ccdc_geom_bond_type
C0 C1 1.384 . S
C0 H13 0.947 . S
C0 C35 1.382 . S
C1 C0 1.384 . S
C1 C2 1.378 . S
C2 C1 1.378 . S
C2 C3 1.378 . S
C2 H14 0.952 . S
C3 C2 1.378 . S
C3 H15 0.950 . S
C3 C34 1.383 . S
H4 C23 0.947 . S
H5 C24 0.946 . S
H6 C26 0.953 . S
H7 C27 0.945 . S
H8 C29 0.952 . S
H9 C30 0.949 . S
H10 C32 0.950 . S
H11 C33 0.948 . S
H12 C35 0.951 . S
H13 C0 0.947 . S
H14 C2 0.952 . S
H15 C3 0.950 . S
N16 C19 1.382 . S
N16 C21 1.363 . S
N17 C19 1.371 . S
N17 C20 1.372 . S
N18 C20 1.361 . S
N18 C21 1.377 . S
C19 N16 1.382 . S
C19 N17 1.371 . S
C19 C22 1.480 . S
C20 N17 1.372 . S
C20 N18 1.361 . S
C20 C28 1.457 . S
C21 N16 1.363 . S
C21 N18 1.377 . S
C21 C34 1.479 . S
C22 C19 1.480 . S
C22 C23 1.383 . S
C22 C27 1.385 . S
C23 H4 0.947 . S
C23 C22 1.383 . S
C23 C24 1.388 . S
C24 H5 0.946 . S
C24 C23 1.388 . S
C24 C25 1.384 . S
C25 C24 1.384 . S
C25 C26 1.377 . S
C26 H6 0.953 . S
C26 C25 1.377 . S
C26 C27 1.369 . S
C27 H7 0.945 . S
C27 C22 1.385 . S
C27 C26 1.369 . S
C28 C20 1.457 . S
C28 C29 1.372 . S
C28 C33 1.364 . S
C29 H8 0.952 . S
C29 C28 1.372 . S
C29 C30 1.389 . S
C30 H9 0.949 . S
C30 C29 1.389 . S
C30 C31 1.387 . S
C31 C30 1.387 . S
C31 C32 1.372 . S
C32 H10 0.950 . S
C32 C31 1.372 . S
C32 C33 1.379 . S
C33 H11 0.948 . S
C33 C28 1.364 . S
C33 C32 1.379 . S
C34 C3 1.383 . S
C34 C21 1.479 . S
C34 C35 1.398 . S
C35 C0 1.382 . S
C35 H12 0.951 . S
C35 C34 1.398 . S
C36 C37 1.384 . S
C36 H49 0.947 . S
C36 C71 1.382 . S
C37 C36 1.384 . S
C37 C38 1.378 . S
C38 C37 1.378 . S
C38 C39 1.378 . S
C38 H50 0.952 . S
C39 C38 1.378 . S
C39 H51 0.950 . S
C39 C70 1.383 . S
H40 C59 0.947 . S
H41 C60 0.946 . S
H42 C62 0.953 . S
H43 C63 0.945 . S
H44 C65 0.952 . S
H45 C66 0.949 . S
H46 C68 0.950 . S
H47 C69 0.948 . S
H48 C71 0.951 . S
H49 C36 0.947 . S
H50 C38 0.952 . S
H51 C39 0.950 . S
N52 C55 1.382 . S
N52 C57 1.363 . S
N53 C55 1.371 . S
N53 C56 1.372 . S
N54 C56 1.361 . S
N54 C57 1.377 . S
C55 N52 1.382 . S
C55 N53 1.371 . S
C55 C58 1.480 . S
C56 N53 1.372 . S
C56 N54 1.361 . S
C56 C64 1.457 . S
C57 N52 1.363 . S
C57 N54 1.377 . S
C57 C70 1.479 . S
C58 C55 1.480 . S
C58 C59 1.383 . S
C58 C63 1.385 . S
C59 H40 0.947 . S
C59 C58 1.383 . S
C59 C60 1.388 . S
C60 H41 0.946 . S
C60 C59 1.388 . S
C60 C61 1.384 . S
C61 C60 1.384 . S
C61 C62 1.377 . S
C62 H42 0.953 . S
C62 C61 1.377 . S
C62 C63 1.369 . S
C63 H43 0.945 . S
C63 C58 1.385 . S
C63 C62 1.369 . S
C64 C56 1.457 . S
C64 C65 1.372 . S
C64 C69 1.364 . S
C65 H44 0.952 . S
C65 C64 1.372 . S
C65 C66 1.389 . S
C66 H45 0.949 . S
C66 C65 1.389 . S
C66 C67 1.387 . S
C67 C66 1.387 . S
C67 C68 1.372 . S
C68 H46 0.950 . S
C68 C67 1.372 . S
C68 C69 1.379 . S
C69 H47 0.948 . S
C69 C64 1.364 . S
C69 C68 1.379 . S
C70 C39 1.383 . S
C70 C57 1.479 . S
C70 C71 1.398 . S
C71 C36 1.382 . S
C71 H48 0.951 . S
C71 C70 1.398 . S
C72 C73 1.384 . S
C72 H85 0.947 . S
C72 C107 1.382 . S
C73 C72 1.384 . S
C73 C74 1.378 . S
C74 C73 1.378 . S
C74 C75 1.378 . S
C74 H86 0.952 . S
C75 C74 1.378 . S
C75 H87 0.950 . S
C75 C106 1.383 . S
H76 C95 0.947 . S
H77 C96 0.946 . S
H78 C98 0.953 . S
H79 C99 0.945 . S
H80 C101 0.952 . S
H81 C102 0.949 . S
H82 C104 0.950 . S
H83 C105 0.948 . S
H84 C107 0.951 . S
H85 C72 0.947 . S
H86 C74 0.952 . S
H87 C75 0.950 . S
N88 C91 1.382 . S
N88 C93 1.363 . S
N89 C91 1.371 . S
N89 C92 1.372 . S
N90 C92 1.361 . S
N90 C93 1.377 . S
C91 N88 1.382 . S
C91 N89 1.371 . S
C91 C94 1.480 . S
C92 N89 1.372 . S
C92 N90 1.361 . S
C92 C100 1.457 . S
C93 N88 1.363 . S
C93 N90 1.377 . S
C93 C106 1.479 . S
C94 C91 1.480 . S
C94 C95 1.383 . S
C94 C99 1.385 . S
C95 H76 0.947 . S
C95 C94 1.383 . S
C95 C96 1.388 . S
C96 H77 0.946 . S
C96 C95 1.388 . S
C96 C97 1.384 . S
C97 C96 1.384 . S
C97 C98 1.377 . S
C98 H78 0.953 . S
C98 C97 1.377 . S
C98 C99 1.369 . S
C99 H79 0.945 . S
C99 C94 1.385 . S
C99 C98 1.369 . S
C100 C92 1.457 . S
C100 C101 1.372 . S
C100 C105 1.364 . S
C101 H80 0.952 . S
C101 C100 1.372 . S
C101 C102 1.389 . S
C102 H81 0.949 . S
C102 C101 1.389 . S
C102 C103 1.387 . S
C103 C102 1.387 . S
C103 C104 1.372 . S
C104 H82 0.950 . S
C104 C103 1.372 . S
C104 C105 1.379 . S
C105 H83 0.948 . S
C105 C100 1.364 . S
C105 C104 1.379 . S
C106 C75 1.383 . S
C106 C93 1.479 . S
C106 C107 1.398 . S
C107 C72 1.382 . S
C107 H84 0.951 . S
C107 C106 1.398 . S
C108 C109 1.384 . S
C108 H121 0.947 . S
C108 C143 1.382 . S
C109 C108 1.384 . S
C109 C110 1.378 . S
C110 C109 1.378 . S
C110 C111 1.378 . S
C110 H122 0.952 . S
C111 C110 1.378 . S
C111 H123 0.950 . S
C111 C142 1.383 . S
H112 C131 0.947 . S
H113 C132 0.946 . S
H114 C134 0.953 . S
H115 C135 0.945 . S
H116 C137 0.952 . S
H117 C138 0.949 . S
H118 C140 0.950 . S
H119 C141 0.948 . S
H120 C143 0.951 . S
H121 C108 0.947 . S
H122 C110 0.952 . S
H123 C111 0.950 . S
N124 C127 1.382 . S
N124 C129 1.363 . S
N125 C127 1.371 . S
N125 C128 1.372 . S
N126 C128 1.361 . S
N126 C129 1.377 . S
C127 N124 1.382 . S
C127 N125 1.371 . S
C127 C130 1.480 . S
C128 N125 1.372 . S
C128 N126 1.361 . S
C128 C136 1.457 . S
C129 N124 1.363 . S
C129 N126 1.377 . S
C129 C142 1.479 . S
C130 C127 1.480 . S
C130 C131 1.383 . S
C130 C135 1.385 . S
C131 H112 0.947 . S
C131 C130 1.383 . S
C131 C132 1.388 . S
C132 H113 0.946 . S
C132 C131 1.388 . S
C132 C133 1.384 . S
C133 C132 1.384 . S
C133 C134 1.377 . S
C134 H114 0.953 . S
C134 C133 1.377 . S
C134 C135 1.369 . S
C135 H115 0.945 . S
C135 C130 1.385 . S
C135 C134 1.369 . S
C136 C128 1.457 . S
C136 C137 1.372 . S
C136 C141 1.364 . S
C137 H116 0.952 . S
C137 C136 1.372 . S
C137 C138 1.389 . S
C138 H117 0.949 . S
C138 C137 1.389 . S
C138 C139 1.387 . S
C139 C138 1.387 . S
C139 C140 1.372 . S
C140 H118 0.950 . S
C140 C139 1.372 . S
C140 C141 1.379 . S
C141 H119 0.948 . S
C141 C136 1.364 . S
C141 C140 1.379 . S
C142 C111 1.383 . S
C142 C129 1.479 . S
C142 C143 1.398 . S
C143 C108 1.382 . S
C143 H120 0.951 . S
C143 C142 1.398 . S
C144 C145 1.384 . S
C144 H157 0.947 . S
C144 C179 1.382 . S
C145 C144 1.384 . S
C145 C146 1.378 . S
C146 C145 1.378 . S
C146 C147 1.378 . S
C146 H158 0.952 . S
C147 C146 1.378 . S
C147 H159 0.950 . S
C147 C178 1.383 . S
H148 C167 0.947 . S
H149 C168 0.946 . S
H150 C170 0.953 . S
H151 C171 0.945 . S
H152 C173 0.952 . S
H153 C174 0.949 . S
H154 C176 0.950 . S
H155 C177 0.948 . S
H156 C179 0.951 . S
H157 C144 0.947 . S
H158 C146 0.952 . S
H159 C147 0.950 . S
N160 C163 1.382 . S
N160 C165 1.363 . S
N161 C163 1.371 . S
N161 C164 1.372 . S
N162 C164 1.361 . S
N162 C165 1.377 . S
C163 N160 1.382 . S
C163 N161 1.371 . S
C163 C166 1.480 . S
C164 N161 1.372 . S
C164 N162 1.361 . S
C164 C172 1.457 . S
C165 N160 1.363 . S
C165 N162 1.377 . S
C165 C178 1.479 . S
C166 C163 1.480 . S
C166 C167 1.383 . S
C166 C171 1.385 . S
C167 H148 0.947 . S
C167 C166 1.383 . S
C167 C168 1.388 . S
C168 H149 0.946 . S
C168 C167 1.388 . S
C168 C169 1.384 . S
C169 C168 1.384 . S
C169 C170 1.377 . S
C170 H150 0.953 . S
C170 C169 1.377 . S
C170 C171 1.369 . S
C171 H151 0.945 . S
C171 C166 1.385 . S
C171 C170 1.369 . S
C172 C164 1.457 . S
C172 C173 1.372 . S
C172 C177 1.364 . S
C173 H152 0.952 . S
C173 C172 1.372 . S
C173 C174 1.389 . S
C174 H153 0.949 . S
C174 C173 1.389 . S
C174 C175 1.387 . S
C175 C174 1.387 . S
C175 C176 1.372 . S
C176 H154 0.950 . S
C176 C175 1.372 . S
C176 C177 1.379 . S
C177 H155 0.948 . S
C177 C172 1.364 . S
C177 C176 1.379 . S
C178 C147 1.383 . S
C178 C165 1.479 . S
C178 C179 1.398 . S
C179 C144 1.382 . S
C179 H156 0.951 . S
C179 C178 1.398 . S
C180 C181 1.384 . S
C180 H193 0.947 . S
C180 C215 1.382 . S
C181 C180 1.384 . S
C181 C182 1.378 . S
C182 C181 1.378 . S
C182 C183 1.378 . S
C182 H194 0.952 . S
C183 C182 1.378 . S
C183 H195 0.950 . S
C183 C214 1.383 . S
H184 C203 0.947 . S
H185 C204 0.946 . S
H186 C206 0.953 . S
H187 C207 0.945 . S
H188 C209 0.952 . S
H189 C210 0.949 . S
H190 C212 0.950 . S
H191 C213 0.948 . S
H192 C215 0.951 . S
H193 C180 0.947 . S
H194 C182 0.952 . S
H195 C183 0.950 . S
N196 C199 1.382 . S
N196 C201 1.363 . S
N197 C199 1.371 . S
N197 C200 1.372 . S
N198 C200 1.361 . S
N198 C201 1.377 . S
C199 N196 1.382 . S
C199 N197 1.371 . S
C199 C202 1.480 . S
C200 N197 1.372 . S
C200 N198 1.361 . S
C200 C208 1.457 . S
C201 N196 1.363 . S
C201 N198 1.377 . S
C201 C214 1.479 . S
C202 C199 1.480 . S
C202 C203 1.383 . S
C202 C207 1.385 . S
C203 H184 0.947 . S
C203 C202 1.383 . S
C203 C204 1.388 . S
C204 H185 0.946 . S
C204 C203 1.388 . S
C204 C205 1.384 . S
C205 C204 1.384 . S
C205 C206 1.377 . S
C206 H186 0.953 . S
C206 C205 1.377 . S
C206 C207 1.369 . S
C207 H187 0.945 . S
C207 C202 1.385 . S
C207 C206 1.369 . S
C208 C200 1.457 . S
C208 C209 1.372 . S
C208 C213 1.364 . S
C209 H188 0.952 . S
C209 C208 1.372 . S
C209 C210 1.389 . S
C210 H189 0.949 . S
C210 C209 1.389 . S
C210 C211 1.387 . S
C211 C210 1.387 . S
C211 C212 1.372 . S
C212 H190 0.950 . S
C212 C211 1.372 . S
C212 C213 1.379 . S
C213 H191 0.948 . S
C213 C208 1.364 . S
C213 C212 1.379 . S
C214 C183 1.383 . S
C214 C201 1.479 . S
C214 C215 1.398 . S
C215 C180 1.382 . S
C215 H192 0.951 . S
C215 C214 1.398 . S
C216 C217 1.384 . S
C216 H229 0.947 . S
C216 C251 1.382 . S
C217 C216 1.384 . S
C217 C218 1.378 . S
C218 C217 1.378 . S
C218 C219 1.378 . S
C218 H230 0.952 . S
C219 C218 1.378 . S
C219 H231 0.950 . S
C219 C250 1.383 . S
H220 C239 0.947 . S
H221 C240 0.946 . S
H222 C242 0.953 . S
H223 C243 0.945 . S
H224 C245 0.952 . S
H225 C246 0.949 . S
H226 C248 0.950 . S
H227 C249 0.948 . S
H228 C251 0.951 . S
H229 C216 0.947 . S
H230 C218 0.952 . S
H231 C219 0.950 . S
N232 C235 1.382 . S
N232 C237 1.363 . S
N233 C235 1.371 . S
N233 C236 1.372 . S
N234 C236 1.361 . S
N234 C237 1.377 . S
C235 N232 1.382 . S
C235 N233 1.371 . S
C235 C238 1.480 . S
C236 N233 1.372 . S
C236 N234 1.361 . S
C236 C244 1.457 . S
C237 N232 1.363 . S
C237 N234 1.377 . S
C237 C250 1.479 . S
C238 C235 1.480 . S
C238 C239 1.383 . S
C238 C243 1.385 . S
C239 H220 0.947 . S
C239 C238 1.383 . S
C239 C240 1.388 . S
C240 H221 0.946 . S
C240 C239 1.388 . S
C240 C241 1.384 . S
C241 C240 1.384 . S
C241 C242 1.377 . S
C242 H222 0.953 . S
C242 C241 1.377 . S
C242 C243 1.369 . S
C243 H223 0.945 . S
C243 C238 1.385 . S
C243 C242 1.369 . S
C244 C236 1.457 . S
C244 C245 1.372 . S
C244 C249 1.364 . S
C245 H224 0.952 . S
C245 C244 1.372 . S
C245 C246 1.389 . S
C246 H225 0.949 . S
C246 C245 1.389 . S
C246 C247 1.387 . S
C247 C246 1.387 . S
C247 C248 1.372 . S
C248 H226 0.950 . S
C248 C247 1.372 . S
C248 C249 1.379 . S
C249 H227 0.948 . S
C249 C244 1.364 . S
C249 C248 1.379 . S
C250 C219 1.383 . S
C250 C237 1.479 . S
C250 C251 1.398 . S
C251 C216 1.382 . S
C251 H228 0.951 . S
C251 C250 1.398 . S
C252 C253 1.384 . S
C252 H265 0.947 . S
C252 C287 1.382 . S
C253 C252 1.384 . S
C253 C254 1.378 . S
C254 C253 1.378 . S
C254 C255 1.378 . S
C254 H266 0.952 . S
C255 C254 1.378 . S
C255 H267 0.950 . S
C255 C286 1.383 . S
H256 C275 0.947 . S
H257 C276 0.946 . S
H258 C278 0.953 . S
H259 C279 0.945 . S
H260 C281 0.952 . S
H261 C282 0.949 . S
H262 C284 0.950 . S
H263 C285 0.948 . S
H264 C287 0.951 . S
H265 C252 0.947 . S
H266 C254 0.952 . S
H267 C255 0.950 . S
N268 C271 1.382 . S
N268 C273 1.363 . S
N269 C271 1.371 . S
N269 C272 1.372 . S
N270 C272 1.361 . S
N270 C273 1.377 . S
C271 N268 1.382 . S
C271 N269 1.371 . S
C271 C274 1.480 . S
C272 N269 1.372 . S
C272 N270 1.361 . S
C272 C280 1.457 . S
C273 N268 1.363 . S
C273 N270 1.377 . S
C273 C286 1.479 . S
C274 C271 1.480 . S
C274 C275 1.383 . S
C274 C279 1.385 . S
C275 H256 0.947 . S
C275 C274 1.383 . S
C275 C276 1.388 . S
C276 H257 0.946 . S
C276 C275 1.388 . S
C276 C277 1.384 . S
C277 C276 1.384 . S
C277 C278 1.377 . S
C278 H258 0.953 . S
C278 C277 1.377 . S
C278 C279 1.369 . S
C279 H259 0.945 . S
C279 C274 1.385 . S
C279 C278 1.369 . S
C280 C272 1.457 . S
C280 C281 1.372 . S
C280 C285 1.364 . S
C281 H260 0.952 . S
C281 C280 1.372 . S
C281 C282 1.389 . S
C282 H261 0.949 . S
C282 C281 1.389 . S
C282 C283 1.387 . S
C283 C282 1.387 . S
C283 C284 1.372 . S
C284 H262 0.950 . S
C284 C283 1.372 . S
C284 C285 1.379 . S
C285 H263 0.948 . S
C285 C280 1.364 . S
C285 C284 1.379 . S
C286 C255 1.383 . S
C286 C273 1.479 . S
C286 C287 1.398 . S
C287 C252 1.382 . S
C287 H264 0.951 . S
C287 C286 1.398 . S
Ho288 C291 2.811 . S
Ho288 O308 2.322 . S
Ho288 O310 2.378 . S
Ho288 O311 2.524 . S
Ho288 O312 2.381 1_545 S
Ho288 O313 2.669 1_545 S
Ho288 O315 2.346 1_445 S
Ho288 O319 2.305 1_455 S
Ho289 C300 2.811 . S
Ho289 O309 2.346 1_665 S
Ho289 O313 2.305 1_655 S
Ho289 O314 2.322 . S
Ho289 O316 2.378 . S
Ho289 O317 2.524 . S
Ho289 O318 2.381 1_565 S
Ho289 O319 2.669 1_565 S
C290 O308 1.259 . S
C290 O309 1.268 . S
C291 Ho288 2.811 . S
C291 C292 1.488 . S
C291 O310 1.215 . S
C291 O311 1.289 . S
C292 C291 1.488 . S
C292 C293 1.348 . S
C292 C297 1.413 . S
C293 C292 1.348 . S
C293 C294 1.442 . S
C293 H320 0.930 . S
C294 C293 1.442 . S
C294 C295 1.381 . S
C294 H321 0.931 . S
C295 C294 1.381 . S
C295 C296 1.321 . S
C296 C295 1.321 . S
C296 C297 1.403 . S
C296 H322 0.934 . S
C297 C292 1.413 . S
C297 C296 1.403 . S
C297 H323 0.930 . S
C298 O312 1.275 . S
C298 O313 1.256 . S
C299 O314 1.259 . S
C299 O315 1.268 . S
C300 Ho289 2.811 . S
C300 C301 1.488 . S
C300 O316 1.215 . S
C300 O317 1.289 . S
C301 C300 1.488 . S
C301 C302 1.348 . S
C301 C306 1.413 . S
C302 C301 1.348 . S
C302 C303 1.442 . S
C302 H324 0.930 . S
C303 C302 1.442 . S
C303 C304 1.381 . S
C303 H325 0.931 . S
C304 C303 1.381 . S
C304 C305 1.321 . S
C305 C304 1.321 . S
C305 C306 1.403 . S
C305 H326 0.934 . S
C306 C301 1.413 . S
C306 C305 1.403 . S
C306 H327 0.930 . S
C307 O318 1.275 . S
C307 O319 1.256 . S
O308 Ho288 2.322 . S
O308 C290 1.259 . S
O309 Ho289 2.346 1_445 S
O309 C290 1.268 . S
O310 Ho288 2.378 . S
O310 C291 1.215 . S
O311 Ho288 2.524 . S
O311 C291 1.289 . S
O312 Ho288 2.381 1_565 S
O312 C298 1.275 . S
O313 Ho288 2.669 1_565 S
O313 Ho289 2.305 1_455 S
O313 C298 1.256 . S
O314 Ho289 2.322 . S
O314 C299 1.259 . S
O315 Ho288 2.346 1_665 S
O315 C299 1.268 . S
O316 Ho289 2.378 . S
O316 C300 1.215 . S
O317 Ho289 2.524 . S
O317 C300 1.289 . S
O318 Ho289 2.381 1_545 S
O318 C307 1.275 . S
O319 Ho288 2.305 1_655 S
O319 Ho289 2.669 1_545 S
O319 C307 1.256 . S
H320 C293 0.930 . S
H321 C294 0.931 . S
H322 C296 0.934 . S
H323 C297 0.930 . S
H324 C302 0.930 . S
H325 C303 0.931 . S
H326 C305 0.934 . S
H327 C306 0.930 . S
Ho328 C331 2.812 1_565 S
Ho328 O348 2.323 1_565 S
Ho328 O350 2.378 1_565 S
Ho328 O351 2.526 1_565 S
Ho328 O352 2.379 . S
Ho328 O353 2.668 . S
Ho328 O355 2.344 1_554 S
Ho328 O359 2.306 1_564 S
Ho329 C340 2.811 1_545 S
Ho329 O349 2.346 1_556 S
Ho329 O353 2.305 1_546 S
Ho329 O354 2.322 1_545 S
Ho329 O356 2.378 1_545 S
Ho329 O357 2.524 1_545 S
Ho329 O358 2.381 . S
Ho329 O359 2.669 . S
C330 O348 1.259 . S
C330 O349 1.268 . S
C331 Ho328 2.812 1_545 S
C331 C332 1.488 . S
C331 O350 1.215 . S
C331 O351 1.289 . S
C332 C331 1.488 . S
C332 C333 1.348 . S
C332 C337 1.413 . S
C333 C332 1.348 . S
C333 C334 1.442 . S
C333 H360 0.930 . S
C334 C333 1.442 . S
C334 C335 1.381 . S
C334 H361 0.931 . S
C335 C334 1.381 . S
C335 C336 1.321 . S
C336 C335 1.321 . S
C336 C337 1.403 . S
C336 H362 0.934 . S
C337 C332 1.413 . S
C337 C336 1.403 . S
C337 H363 0.930 . S
C338 O352 1.275 . S
C338 O353 1.256 . S
C339 O354 1.259 . S
C339 O355 1.268 . S
C340 Ho329 2.811 1_565 S
C340 C341 1.488 . S
C340 O356 1.215 . S
C340 O357 1.289 . S
C341 C340 1.488 . S
C341 C342 1.348 . S
C341 C346 1.413 . S
C342 C341 1.348 . S
C342 C343 1.442 . S
C342 H364 0.930 . S
C343 C342 1.442 . S
C343 C344 1.381 . S
C343 H365 0.931 . S
C344 C343 1.381 . S
C344 C345 1.321 . S
C345 C344 1.321 . S
C345 C346 1.403 . S
C345 H366 0.934 . S
C346 C341 1.413 . S
C346 C345 1.403 . S
C346 H367 0.930 . S
C347 O358 1.275 . S
C347 O359 1.256 . S
O348 Ho328 2.323 1_545 S
O348 C330 1.259 . S
O349 Ho329 2.346 1_554 S
O349 C330 1.268 . S
O350 Ho328 2.378 1_545 S
O350 C331 1.215 . S
O351 Ho328 2.526 1_545 S
O351 C331 1.289 . S
O352 Ho328 2.379 . S
O352 C338 1.275 . S
O353 Ho328 2.668 . S
O353 Ho329 2.305 1_564 S
O353 C338 1.256 . S
O354 Ho329 2.322 1_565 S
O354 C339 1.259 . S
O355 Ho328 2.344 1_556 S
O355 C339 1.268 . S
O356 Ho329 2.378 1_565 S
O356 C340 1.215 . S
O357 Ho329 2.524 1_565 S
O357 C340 1.289 . S
O358 Ho329 2.381 . S
O358 C347 1.275 . S
O359 Ho328 2.306 1_546 S
O359 Ho329 2.669 . S
O359 C347 1.256 . S
H360 C333 0.930 . S
H361 C334 0.931 . S
H362 C336 0.934 . S
H363 C337 0.930 . S
H364 C342 0.930 . S
H365 C343 0.931 . S
H366 C345 0.934 . S
H367 C346 0.930 . S
Ho368 C371 2.811 . S
Ho368 O388 2.322 . S
Ho368 O390 2.378 . S
Ho368 O391 2.524 . S
Ho368 O392 2.381 . S
Ho368 O393 2.669 . S
Ho368 O395 2.346 . S
Ho368 O399 2.305 . S
Ho369 C380 2.811 . S
Ho369 O389 2.346 . S
Ho369 O393 2.305 . S
Ho369 O394 2.322 . S
Ho369 O396 2.378 . S
Ho369 O397 2.524 . S
Ho369 O398 2.381 . S
Ho369 O399 2.669 . S
C370 O388 1.259 . S
C370 O389 1.268 . S
C371 Ho368 2.811 . S
C371 C372 1.488 . S
C371 O390 1.215 . S
C371 O391 1.289 . S
C372 C371 1.488 . S
C372 C373 1.348 . S
C372 C377 1.413 . S
C373 C372 1.348 . S
C373 C374 1.442 . S
C373 H400 0.930 . S
C374 C373 1.442 . S
C374 C375 1.381 . S
C374 H401 0.931 . S
C375 C374 1.381 . S
C375 C376 1.321 . S
C376 C375 1.321 . S
C376 C377 1.403 . S
C376 H402 0.934 . S
C377 C372 1.413 . S
C377 C376 1.403 . S
C377 H403 0.930 . S
C378 O392 1.275 . S
C378 O393 1.256 . S
C379 O394 1.259 . S
C379 O395 1.268 . S
C380 Ho369 2.811 . S
C380 C381 1.488 . S
C380 O396 1.215 . S
C380 O397 1.289 . S
C381 C380 1.488 . S
C381 C382 1.348 . S
C381 C386 1.413 . S
C382 C381 1.348 . S
C382 C383 1.442 . S
C382 H404 0.930 . S
C383 C382 1.442 . S
C383 C384 1.381 . S
C383 H405 0.931 . S
C384 C383 1.381 . S
C384 C385 1.321 . S
C385 C384 1.321 . S
C385 C386 1.403 . S
C385 H406 0.934 . S
C386 C381 1.413 . S
C386 C385 1.403 . S
C386 H407 0.930 . S
C387 O398 1.275 . S
C387 O399 1.256 . S
O388 Ho368 2.322 . S
O388 C370 1.259 . S
O389 Ho369 2.346 . S
O389 C370 1.268 . S
O390 Ho368 2.378 . S
O390 C371 1.215 . S
O391 Ho368 2.524 . S
O391 C371 1.289 . S
O392 Ho368 2.381 . S
O392 C378 1.275 . S
O393 Ho368 2.669 . S
O393 Ho369 2.305 . S
O393 C378 1.256 . S
O394 Ho369 2.322 . S
O394 C379 1.259 . S
O395 Ho368 2.346 . S
O395 C379 1.268 . S
O396 Ho369 2.378 . S
O396 C380 1.215 . S
O397 Ho369 2.524 . S
O397 C380 1.289 . S
O398 Ho369 2.381 . S
O398 C387 1.275 . S
O399 Ho368 2.305 . S
O399 Ho369 2.669 . S
O399 C387 1.256 . S
H400 C373 0.930 . S
H401 C374 0.931 . S
H402 C376 0.934 . S
H403 C377 0.930 . S
H404 C382 0.930 . S
H405 C383 0.931 . S
H406 C385 0.934 . S
H407 C386 0.930 . S
Ho408 C411 2.811 . S
Ho408 O428 2.322 . S
Ho408 O430 2.378 . S
Ho408 O431 2.524 . S
Ho408 O432 2.381 1_455 S
Ho408 O433 2.669 1_455 S
Ho408 O435 2.340 1_454 S
Ho408 O439 2.305 1_554 S
Ho409 C420 2.812 . S
Ho409 O429 2.344 1_656 S
Ho409 O433 2.305 1_556 S
Ho409 O434 2.323 . S
Ho409 O436 2.379 . S
Ho409 O437 2.525 . S
Ho409 O438 2.380 1_655 S
Ho409 O439 2.668 1_655 S
C410 O428 1.259 . S
C410 O429 1.268 . S
C411 Ho408 2.811 . S
C411 C412 1.488 . S
C411 O430 1.215 . S
C411 O431 1.289 . S
C412 C411 1.488 . S
C412 C413 1.348 . S
C412 C417 1.413 . S
C413 C412 1.348 . S
C413 C414 1.442 . S
C413 H440 0.930 . S
C414 C413 1.442 . S
C414 C415 1.381 . S
C414 H441 0.931 . S
C415 C414 1.381 . S
C415 C416 1.321 . S
C416 C415 1.321 . S
C416 C417 1.403 . S
C416 H442 0.934 . S
C417 C412 1.413 . S
C417 C416 1.403 . S
C417 H443 0.930 . S
C418 O432 1.275 . S
C418 O433 1.256 . S
C419 O434 1.259 . S
C419 O435 1.276 . S
C420 Ho409 2.812 . S
C420 C421 1.488 . S
C420 O436 1.215 . S
C420 O437 1.289 . S
C421 C420 1.488 . S
C421 C422 1.348 . S
C421 C426 1.413 . S
C422 C421 1.348 . S
C422 C423 1.442 . S
C422 H444 0.930 . S
C423 C422 1.442 . S
C423 C424 1.381 . S
C423 H445 0.931 . S
C424 C423 1.381 . S
C424 C425 1.321 . S
C425 C424 1.321 . S
C425 C426 1.403 . S
C425 H446 0.934 . S
C426 C421 1.413 . S
C426 C425 1.403 . S
C426 H447 0.930 . S
C427 O438 1.275 . S
C427 O439 1.256 . S
O428 Ho408 2.322 . S
O428 C410 1.259 . S
O429 Ho409 2.344 1_454 S
O429 C410 1.268 . S
O430 Ho408 2.378 . S
O430 C411 1.215 . S
O431 Ho408 2.524 . S
O431 C411 1.289 . S
O432 Ho408 2.381 1_655 S
O432 C418 1.275 . S
O433 Ho408 2.669 1_655 S
O433 Ho409 2.305 1_554 S
O433 C418 1.256 . S
O434 Ho409 2.323 . S
O434 C419 1.259 . S
O435 Ho408 2.340 1_656 S
O435 C419 1.276 . S
O436 Ho409 2.379 . S
O436 C420 1.215 . S
O437 Ho409 2.525 . S
O437 C420 1.289 . S
O438 Ho409 2.380 1_455 S
O438 C427 1.275 . S
O439 Ho408 2.305 1_556 S
O439 Ho409 2.668 1_455 S
O439 C427 1.256 . S
H440 C413 0.930 . S
H441 C414 0.931 . S
H442 C416 0.934 . S
H443 C417 0.930 . S
H444 C422 0.930 . S
H445 C423 0.931 . S
H446 C425 0.934 . S
H447 C426 0.930 . S
C448 C449 1.391 . S
C448 C450 1.394 . S
C448 H464 0.931 . S
C449 C448 1.391 . S
C449 C453 1.376 . S
C450 C448 1.394 . S
C450 C451 1.369 . S
C450 C454 1.531 . S
C451 C450 1.369 . S
C451 C452 1.410 . S
C451 C459 1.503 . S
C452 C451 1.410 . S
C452 C453 1.392 . S
C452 C455 1.511 . S
C453 C449 1.376 . S
C453 C452 1.392 . S
C453 H465 0.929 . S
C454 C450 1.531 . S
C454 H466 0.960 . S
C454 H467 0.962 . S
C454 H468 0.960 . S
C455 C452 1.511 . S
C455 H469 0.961 . S
C455 H470 0.961 . S
C455 H471 0.961 . S
C456 C457 1.370 . S
C456 C458 1.363 . S
C456 H472 0.931 . S
C457 C456 1.370 . S
C457 C461 1.408 . S
C458 C456 1.363 . S
C458 C459 1.370 . S
C458 C462 1.524 . S
C459 C451 1.503 . S
C459 C458 1.370 . S
C459 C460 1.403 . S
C460 C459 1.403 . S
C460 C461 1.404 . S
C460 C463 1.539 . S
C461 C457 1.408 . S
C461 C460 1.404 . S
C461 H473 0.930 . S
C462 C458 1.524 . S
C462 H474 0.956 . S
C462 H475 0.961 . S
C462 H476 0.961 . S
C463 C460 1.539 . S
C463 H477 0.958 . S
C463 H478 0.961 . S
C463 H479 0.960 . S
H464 C448 0.931 . S
H465 C453 0.929 . S
H466 C454 0.960 . S
H467 C454 0.962 . S
H468 C454 0.960 . S
H469 C455 0.961 . S
H470 C455 0.961 . S
H471 C455 0.961 . S
H472 C456 0.931 . S
H473 C461 0.930 . S
H474 C462 0.956 . S
H475 C462 0.961 . S
H476 C462 0.961 . S
H477 C463 0.958 . S
H478 C463 0.961 . S
H479 C463 0.960 . S
C480 C481 1.391 . S
C480 C482 1.394 . S
C480 H496 0.931 . S
C481 C480 1.391 . S
C481 C485 1.376 . S
C482 C480 1.394 . S
C482 C483 1.369 . S
C482 C486 1.531 . S
C483 C482 1.369 . S
C483 C484 1.410 . S
C483 C491 1.503 . S
C484 C483 1.410 . S
C484 C485 1.392 . S
C484 C487 1.511 . S
C485 C481 1.376 . S
C485 C484 1.392 . S
C485 H497 0.929 . S
C486 C482 1.531 . S
C486 H498 0.960 . S
C486 H499 0.962 . S
C486 H500 0.960 . S
C487 C484 1.511 . S
C487 H501 0.961 . S
C487 H502 0.961 . S
C487 H503 0.961 . S
C488 C489 1.370 . S
C488 C490 1.363 . S
C488 H504 0.931 . S
C489 C488 1.370 . S
C489 C493 1.408 . S
C490 C488 1.363 . S
C490 C491 1.370 . S
C490 C494 1.524 . S
C491 C483 1.503 . S
C491 C490 1.370 . S
C491 C492 1.403 . S
C492 C491 1.403 . S
C492 C493 1.404 . S
C492 C495 1.539 . S
C493 C489 1.408 . S
C493 C492 1.404 . S
C493 H505 0.930 . S
C494 C490 1.524 . S
C494 H506 0.956 . S
C494 H507 0.961 . S
C494 H508 0.961 . S
C495 C492 1.539 . S
C495 H509 0.958 . S
C495 H510 0.961 . S
C495 H511 0.960 . S
H496 C480 0.931 . S
H497 C485 0.929 . S
H498 C486 0.960 . S
H499 C486 0.962 . S
H500 C486 0.960 . S
H501 C487 0.961 . S
H502 C487 0.961 . S
H503 C487 0.961 . S
H504 C488 0.931 . S
H505 C493 0.930 . S
H506 C494 0.956 . S
H507 C494 0.961 . S
H508 C494 0.961 . S
H509 C495 0.958 . S
H510 C495 0.961 . S
H511 C495 0.960 . S
C512 C513 1.391 . S
C512 C514 1.394 . S
C512 H528 0.931 . S
C513 C512 1.391 . S
C513 C517 1.376 . S
C514 C512 1.394 . S
C514 C515 1.369 . S
C514 C518 1.531 . S
C515 C514 1.369 . S
C515 C516 1.410 . S
C515 C523 1.503 . S
C516 C515 1.410 . S
C516 C517 1.392 . S
C516 C519 1.511 . S
C517 C513 1.376 . S
C517 C516 1.392 . S
C517 H529 0.929 . S
C518 C514 1.531 . S
C518 H530 0.960 . S
C518 H531 0.962 . S
C518 H532 0.960 . S
C519 C516 1.511 . S
C519 H533 0.961 . S
C519 H534 0.961 . S
C519 H535 0.961 . S
C520 C521 1.370 . S
C520 C522 1.363 . S
C520 H536 0.931 . S
C521 C520 1.370 . S
C521 C525 1.408 . S
C522 C520 1.363 . S
C522 C523 1.370 . S
C522 C526 1.524 . S
C523 C515 1.503 . S
C523 C522 1.370 . S
C523 C524 1.403 . S
C524 C523 1.403 . S
C524 C525 1.404 . S
C524 C527 1.539 . S
C525 C521 1.408 . S
C525 C524 1.404 . S
C525 H537 0.930 . S
C526 C522 1.524 . S
C526 H538 0.956 . S
C526 H539 0.961 . S
C526 H540 0.961 . S
C527 C524 1.539 . S
C527 H541 0.958 . S
C527 H542 0.961 . S
C527 H543 0.960 . S
H528 C512 0.931 . S
H529 C517 0.929 . S
H530 C518 0.960 . S
H531 C518 0.962 . S
H532 C518 0.960 . S
H533 C519 0.961 . S
H534 C519 0.961 . S
H535 C519 0.961 . S
H536 C520 0.931 . S
H537 C525 0.930 . S
H538 C526 0.956 . S
H539 C526 0.961 . S
H540 C526 0.961 . S
H541 C527 0.958 . S
H542 C527 0.961 . S
H543 C527 0.960 . S
C544 C545 1.391 . S
C544 C546 1.394 . S
C544 H560 0.931 . S
C545 C544 1.391 . S
C545 C549 1.376 . S
C546 C544 1.394 . S
C546 C547 1.369 . S
C546 C550 1.531 . S
C547 C546 1.369 . S
C547 C548 1.410 . S
C547 C555 1.503 . S
C548 C547 1.410 . S
C548 C549 1.392 . S
C548 C551 1.511 . S
C549 C545 1.376 . S
C549 C548 1.392 . S
C549 H561 0.929 . S
C550 C546 1.531 . S
C550 H562 0.960 . S
C550 H563 0.962 . S
C550 H564 0.960 . S
C551 C548 1.511 . S
C551 H565 0.961 . S
C551 H566 0.961 . S
C551 H567 0.961 . S
C552 C553 1.370 . S
C552 C554 1.363 . S
C552 H568 0.931 . S
C553 C552 1.370 . S
C553 C557 1.408 . S
C554 C552 1.363 . S
C554 C555 1.370 . S
C554 C558 1.524 . S
C555 C547 1.503 . S
C555 C554 1.370 . S
C555 C556 1.403 . S
C556 C555 1.403 . S
C556 C557 1.404 . S
C556 C559 1.539 . S
C557 C553 1.408 . S
C557 C556 1.404 . S
C557 H569 0.930 . S
C558 C554 1.524 . S
C558 H570 0.956 . S
C558 H571 0.961 . S
C558 H572 0.947 1_655 S
C559 C556 1.539 . S
C559 H573 0.958 . S
C559 H574 0.961 . S
C559 H575 0.960 . S
H560 C544 0.931 . S
H561 C549 0.929 . S
H562 C550 0.960 . S
H563 C550 0.962 . S
H564 C550 0.960 . S
H565 C551 0.961 . S
H566 C551 0.961 . S
H567 C551 0.961 . S
H568 C552 0.931 . S
H569 C557 0.930 . S
H570 C558 0.956 . S
H571 C558 0.961 . S
H572 C558 0.947 1_455 S
H573 C559 0.958 . S
H574 C559 0.961 . S
H575 C559 0.960 . S
C576 C577 1.391 . S
C576 C578 1.394 . S
C576 H592 0.931 . S
C577 C576 1.391 . S
C577 C581 1.376 . S
C578 C576 1.394 . S
C578 C579 1.369 . S
C578 C582 1.531 . S
C579 C578 1.369 . S
C579 C580 1.410 . S
C579 C587 1.503 . S
C580 C579 1.410 . S
C580 C581 1.392 . S
C580 C583 1.511 . S
C581 C577 1.376 . S
C581 C580 1.392 . S
C581 H593 0.929 . S
C582 C578 1.531 . S
C582 H594 0.960 . S
C582 H595 0.962 . S
C582 H596 0.960 . S
C583 C580 1.511 . S
C583 H597 0.961 . S
C583 H598 0.961 . S
C583 H599 0.961 . S
C584 C585 1.370 . S
C584 C586 1.363 . S
C584 H600 0.931 . S
C585 C584 1.370 . S
C585 C589 1.408 . S
C586 C584 1.363 . S
C586 C587 1.370 . S
C586 C590 1.524 . S
C587 C579 1.503 . S
C587 C586 1.370 . S
C587 C588 1.403 . S
C588 C587 1.403 . S
C588 C589 1.404 . S
C588 C591 1.539 . S
C589 C585 1.408 . S
C589 C588 1.404 . S
C589 H601 0.930 . S
C590 C586 1.524 . S
C590 H602 0.956 . S
C590 H603 0.961 . S
C590 H604 0.961 . S
C591 C588 1.539 . S
C591 H605 0.958 . S
C591 H606 0.961 . S
C591 H607 0.960 . S
H592 C576 0.931 . S
H593 C581 0.929 . S
H594 C582 0.960 . S
H595 C582 0.962 . S
H596 C582 0.960 . S
H597 C583 0.961 . S
H598 C583 0.961 . S
H599 C583 0.961 . S
H600 C584 0.931 . S
H601 C589 0.930 . S
H602 C590 0.956 . S
H603 C590 0.961 . S
H604 C590 0.961 . S
H605 C591 0.958 . S
H606 C591 0.961 . S
H607 C591 0.960 . S
C608 C609 1.391 . S
C608 C610 1.394 . S
C608 H624 0.931 . S
C609 C608 1.391 . S
C609 C613 1.376 . S
C610 C608 1.394 . S
C610 C611 1.369 . S
C610 C614 1.531 . S
C611 C610 1.369 . S
C611 C612 1.410 . S
C611 C619 1.503 . S
C612 C611 1.410 . S
C612 C613 1.392 . S
C612 C615 1.511 . S
C613 C609 1.376 . S
C613 C612 1.392 . S
C613 H625 0.929 . S
C614 C610 1.531 . S
C614 H626 0.960 . S
C614 H627 0.962 . S
C614 H628 0.960 . S
C615 C612 1.511 . S
C615 H629 0.961 . S
C615 H630 0.961 . S
C615 H631 0.961 . S
C616 C617 1.370 . S
C616 C618 1.363 . S
C616 H632 0.931 . S
C617 C616 1.370 . S
C617 C621 1.408 . S
C618 C616 1.363 . S
C618 C619 1.370 . S
C618 C622 1.524 . S
C619 C611 1.503 . S
C619 C618 1.370 . S
C619 C620 1.403 . S
C620 C619 1.403 . S
C620 C621 1.404 . S
C620 C623 1.539 . S
C621 C617 1.408 . S
C621 C620 1.404 . S
C621 H633 0.930 . S
C622 C618 1.524 . S
C622 H634 0.956 . S
C622 H635 0.961 . S
C622 H636 0.961 . S
C623 C620 1.539 . S
C623 H637 0.958 . S
C623 H638 0.961 . S
C623 H639 0.960 . S
H624 C608 0.931 . S
H625 C613 0.929 . S
H626 C614 0.960 . S
H627 C614 0.962 . S
H628 C614 0.960 . S
H629 C615 0.961 . S
H630 C615 0.961 . S
H631 C615 0.961 . S
H632 C616 0.931 . S
H633 C621 0.930 . S
H634 C622 0.956 . S
H635 C622 0.961 . S
H636 C622 0.961 . S
H637 C623 0.958 . S
H638 C623 0.961 . S
H639 C623 0.960 . S
C640 C641 1.391 . S
C640 C642 1.394 . S
C640 H656 0.931 . S
C641 C640 1.391 . S
C641 C645 1.376 . S
C642 C640 1.394 . S
C642 C643 1.369 . S
C642 C646 1.531 . S
C643 C642 1.369 . S
C643 C644 1.410 . S
C643 C651 1.503 . S
C644 C643 1.410 . S
C644 C645 1.392 . S
C644 C647 1.511 . S
C645 C641 1.376 . S
C645 C644 1.392 . S
C645 H657 0.929 . S
C646 C642 1.531 . S
C646 H658 0.960 . S
C646 H659 0.962 . S
C646 H660 0.960 . S
C647 C644 1.511 . S
C647 H661 0.961 . S
C647 H662 0.961 . S
C647 H663 0.961 . S
C648 C649 1.370 . S
C648 C650 1.363 . S
C648 H664 0.931 . S
C649 C648 1.370 . S
C649 C653 1.408 . S
C650 C648 1.363 . S
C650 C651 1.370 . S
C650 C654 1.524 . S
C651 C643 1.503 . S
C651 C650 1.370 . S
C651 C652 1.403 . S
C652 C651 1.403 . S
C652 C653 1.404 . S
C652 C655 1.539 . S
C653 C649 1.408 . S
C653 C652 1.404 . S
C653 H665 0.930 . S
C654 C650 1.524 . S
C654 H666 0.956 . S
C654 H667 0.961 . S
C654 H668 0.961 . S
C655 C652 1.539 . S
C655 H669 0.958 . S
C655 H670 0.961 . S
C655 H671 0.960 . S
H656 C640 0.931 . S
H657 C645 0.929 . S
H658 C646 0.960 . S
H659 C646 0.962 . S
H660 C646 0.960 . S
H661 C647 0.961 . S
H662 C647 0.961 . S
H663 C647 0.961 . S
H664 C648 0.931 . S
H665 C653 0.930 . S
H666 C654 0.956 . S
H667 C654 0.961 . S
H668 C654 0.961 . S
H669 C655 0.958 . S
H670 C655 0.961 . S
H671 C655 0.960 . S
C672 C673 1.391 . S
C672 C674 1.394 . S
C672 H688 0.931 . S
C673 C672 1.391 . S
C673 C677 1.376 . S
C674 C672 1.394 . S
C674 C675 1.369 . S
C674 C678 1.531 . S
C675 C674 1.369 . S
C675 C676 1.410 . S
C675 C683 1.503 . S
C676 C675 1.410 . S
C676 C677 1.392 . S
C676 C679 1.511 . S
C677 C673 1.376 . S
C677 C676 1.392 . S
C677 H689 0.929 . S
C678 C674 1.531 . S
C678 H690 0.960 . S
C678 H691 0.962 . S
C678 H692 0.960 . S
C679 C676 1.511 . S
C679 H693 0.961 . S
C679 H694 0.961 . S
C679 H695 0.961 . S
C680 C681 1.370 . S
C680 C682 1.363 . S
C680 H696 0.931 . S
C681 C680 1.370 . S
C681 C685 1.408 . S
C682 C680 1.363 . S
C682 C683 1.370 . S
C682 C686 1.524 . S
C683 C675 1.503 . S
C683 C682 1.370 . S
C683 C684 1.403 . S
C684 C683 1.403 . S
C684 C685 1.404 . S
C684 C687 1.539 . S
C685 C681 1.408 . S
C685 C684 1.404 . S
C685 H697 0.930 . S
C686 C682 1.524 . S
C686 H698 0.956 . S
C686 H699 0.961 . S
C686 H700 0.961 . S
C687 C684 1.539 . S
C687 H701 0.958 . S
C687 H702 0.961 . S
C687 H703 0.960 . S
H688 C672 0.931 . S
H689 C677 0.929 . S
H690 C678 0.960 . S
H691 C678 0.962 . S
H692 C678 0.960 . S
H693 C679 0.961 . S
H694 C679 0.961 . S
H695 C679 0.961 . S
H696 C680 0.931 . S
H697 C685 0.930 . S
H698 C686 0.956 . S
H699 C686 0.961 . S
H700 C686 0.961 . S
H701 C687 0.958 . S
H702 C687 0.961 . S
H703 C687 0.960 . S
C704 C705 1.391 . S
C704 C706 1.394 . S
C704 H720 0.931 . S
C705 C704 1.391 . S
C705 C709 1.376 . S
C706 C704 1.394 . S
C706 C707 1.369 . S
C706 C710 1.531 . S
C707 C706 1.369 . S
C707 C708 1.410 . S
C707 C715 1.503 . S
C708 C707 1.410 . S
C708 C709 1.392 . S
C708 C711 1.511 . S
C709 C705 1.376 . S
C709 C708 1.392 . S
C709 H721 0.929 . S
C710 C706 1.531 . S
C710 H722 0.960 . S
C710 H723 0.962 . S
C710 H724 0.960 . S
C711 C708 1.511 . S
C711 H725 0.961 . S
C711 H726 0.961 . S
C711 H727 0.961 . S
C712 C713 1.370 . S
C712 C714 1.363 . S
C712 H728 0.931 . S
C713 C712 1.370 . S
C713 C717 1.408 . S
C714 C712 1.363 . S
C714 C715 1.370 . S
C714 C718 1.524 . S
C715 C707 1.503 . S
C715 C714 1.370 . S
C715 C716 1.403 . S
C716 C715 1.403 . S
C716 C717 1.404 . S
C716 C719 1.539 . S
C717 C713 1.408 . S
C717 C716 1.404 . S
C717 H729 0.930 . S
C718 C714 1.524 . S
C718 H730 0.956 . S
C718 H731 0.961 . S
C718 H732 0.961 . S
C719 C716 1.539 . S
C719 H733 0.958 . S
C719 H734 0.961 . S
C719 H735 0.960 . S
H720 C704 0.931 . S
H721 C709 0.929 . S
H722 C710 0.960 . S
H723 C710 0.962 . S
H724 C710 0.960 . S
H725 C711 0.961 . S
H726 C711 0.961 . S
H727 C711 0.961 . S
H728 C712 0.931 . S
H729 C717 0.930 . S
H730 C718 0.956 . S
H731 C718 0.961 . S
H732 C718 0.961 . S
H733 C719 0.958 . S
H734 C719 0.961 . S
H735 C719 0.960 . S
C736 C737 1.391 . S
C736 C738 1.394 . S
C736 H752 0.931 . S
C737 C736 1.391 . S
C737 C741 1.376 . S
C738 C736 1.394 . S
C738 C739 1.369 . S
C738 C742 1.531 . S
C739 C738 1.369 . S
C739 C740 1.410 . S
C739 C747 1.503 . S
C740 C739 1.410 . S
C740 C741 1.392 . S
C740 C743 1.511 . S
C741 C737 1.376 . S
C741 C740 1.392 . S
C741 H753 0.929 . S
C742 C738 1.531 . S
C742 H754 0.960 . S
C742 H755 0.962 . S
C742 H756 0.960 . S
C743 C740 1.511 . S
C743 H757 0.961 . S
C743 H758 0.961 . S
C743 H759 0.961 . S
C744 C745 1.370 . S
C744 C746 1.363 . S
C744 H760 0.931 . S
C745 C744 1.370 . S
C745 C749 1.408 . S
C746 C744 1.363 . S
C746 C747 1.370 . S
C746 C750 1.524 . S
C747 C739 1.503 . S
C747 C746 1.370 . S
C747 C748 1.403 . S
C748 C747 1.403 . S
C748 C749 1.404 . S
C748 C751 1.539 . S
C749 C745 1.408 . S
C749 C748 1.404 . S
C749 H761 0.930 . S
C750 C746 1.524 . S
C750 H762 0.956 . S
C750 H763 0.961 . S
C750 H764 0.961 . S
C751 C748 1.539 . S
C751 H765 0.958 . S
C751 H766 0.961 . S
C751 H767 0.960 . S
H752 C736 0.931 . S
H753 C741 0.929 . S
H754 C742 0.960 . S
H755 C742 0.962 . S
H756 C742 0.960 . S
H757 C743 0.961 . S
H758 C743 0.961 . S
H759 C743 0.961 . S
H760 C744 0.931 . S
H761 C749 0.930 . S
H762 C750 0.956 . S
H763 C750 0.961 . S
H764 C750 0.961 . S
H765 C751 0.958 . S
H766 C751 0.961 . S
H767 C751 0.960 . S
C768 C769 1.391 . S
C768 C770 1.394 . S
C768 H784 0.931 . S
C769 C768 1.391 . S
C769 C773 1.376 . S
C770 C768 1.394 . S
C770 C771 1.369 . S
C770 C774 1.531 . S
C771 C770 1.369 . S
C771 C772 1.410 . S
C771 C779 1.503 . S
C772 C771 1.410 . S
C772 C773 1.392 . S
C772 C775 1.511 . S
C773 C769 1.376 . S
C773 C772 1.392 . S
C773 H785 0.929 . S
C774 C770 1.531 . S
C774 H786 0.960 . S
C774 H787 0.962 . S
C774 H788 0.960 . S
C775 C772 1.511 . S
C775 H789 0.961 . S
C775 H790 0.961 . S
C775 H791 0.961 . S
C776 C777 1.370 . S
C776 C778 1.363 . S
C776 H792 0.931 . S
C777 C776 1.370 . S
C777 C781 1.408 . S
C778 C776 1.363 . S
C778 C779 1.370 . S
C778 C782 1.524 . S
C779 C771 1.503 . S
C779 C778 1.370 . S
C779 C780 1.403 . S
C780 C779 1.403 . S
C780 C781 1.404 . S
C780 C783 1.539 . S
C781 C777 1.408 . S
C781 C780 1.404 . S
C781 H793 0.930 . S
C782 C778 1.524 . S
C782 H794 0.956 . S
C782 H795 0.961 . S
C782 H796 0.961 . S
C783 C780 1.539 . S
C783 H797 0.958 . S
C783 H798 0.961 . S
C783 H799 0.960 . S
H784 C768 0.931 . S
H785 C773 0.929 . S
H786 C774 0.960 . S
H787 C774 0.962 . S
H788 C774 0.960 . S
H789 C775 0.961 . S
H790 C775 0.961 . S
H791 C775 0.961 . S
H792 C776 0.931 . S
H793 C781 0.930 . S
H794 C782 0.956 . S
H795 C782 0.961 . S
H796 C782 0.961 . S
H797 C783 0.958 . S
H798 C783 0.961 . S
H799 C783 0.960 . S
C800 C801 1.391 . S
C800 C802 1.394 . S
C800 H816 0.931 . S
C801 C800 1.391 . S
C801 C805 1.376 . S
C802 C800 1.394 . S
C802 C803 1.369 . S
C802 C806 1.531 . S
C803 C802 1.369 . S
C803 C804 1.410 . S
C803 C811 1.503 . S
C804 C803 1.410 . S
C804 C805 1.392 . S
C804 C807 1.511 . S
C805 C801 1.376 . S
C805 C804 1.392 . S
C805 H817 0.929 . S
C806 C802 1.531 . S
C806 H818 0.960 . S
C806 H819 0.962 . S
C806 H820 0.960 . S
C807 C804 1.511 . S
C807 H821 0.961 . S
C807 H822 0.961 . S
C807 H823 0.961 . S
C808 C809 1.370 . S
C808 C810 1.363 . S
C808 H824 0.931 . S
C809 C808 1.370 . S
C809 C813 1.408 . S
C810 C808 1.363 . S
C810 C811 1.370 . S
C810 C814 1.524 . S
C811 C803 1.503 . S
C811 C810 1.370 . S
C811 C812 1.403 . S
C812 C811 1.403 . S
C812 C813 1.404 . S
C812 C815 1.539 . S
C813 C809 1.408 . S
C813 C812 1.404 . S
C813 H825 0.930 . S
C814 C810 1.524 . S
C814 H826 0.956 . S
C814 H827 0.961 . S
C814 H828 0.961 . S
C815 C812 1.539 . S
C815 H829 0.958 . S
C815 H830 0.961 . S
C815 H831 0.960 . S
H816 C800 0.931 . S
H817 C805 0.929 . S
H818 C806 0.960 . S
H819 C806 0.962 . S
H820 C806 0.960 . S
H821 C807 0.961 . S
H822 C807 0.961 . S
H823 C807 0.961 . S
H824 C808 0.931 . S
H825 C813 0.930 . S
H826 C814 0.956 . S
H827 C814 0.961 . S
H828 C814 0.961 . S
H829 C815 0.958 . S
H830 C815 0.961 . S
H831 C815 0.960 . S
C832 C833 1.391 . S
C832 C834 1.394 . S
C832 H848 0.931 . S
C833 C832 1.391 . S
C833 C837 1.376 . S
C834 C832 1.394 . S
C834 C835 1.369 . S
C834 C838 1.531 . S
C835 C834 1.369 . S
C835 C836 1.410 . S
C835 C843 1.503 . S
C836 C835 1.410 . S
C836 C837 1.392 . S
C836 C839 1.511 . S
C837 C833 1.376 . S
C837 C836 1.392 . S
C837 H849 0.929 . S
C838 C834 1.531 . S
C838 H850 0.960 . S
C838 H851 0.962 . S
C838 H852 0.960 . S
C839 C836 1.511 . S
C839 H853 0.961 . S
C839 H854 0.961 . S
C839 H855 0.961 . S
C840 C841 1.370 . S
C840 C842 1.363 . S
C840 H856 0.931 . S
C841 C840 1.370 . S
C841 C845 1.408 . S
C842 C840 1.363 . S
C842 C843 1.370 . S
C842 C846 1.524 . S
C843 C835 1.503 . S
C843 C842 1.370 . S
C843 C844 1.403 . S
C844 C843 1.403 . S
C844 C845 1.404 . S
C844 C847 1.539 . S
C845 C841 1.408 . S
C845 C844 1.404 . S
C845 H857 0.930 . S
C846 C842 1.524 . S
C846 H858 0.956 . S
C846 H859 0.961 . S
C846 H860 0.961 . S
C847 C844 1.539 . S
C847 H861 0.958 . S
C847 H862 0.961 . S
C847 H863 0.960 . S
H848 C832 0.931 . S
H849 C837 0.929 . S
H850 C838 0.960 . S
H851 C838 0.962 . S
H852 C838 0.960 . S
H853 C839 0.961 . S
H854 C839 0.961 . S
H855 C839 0.961 . S
H856 C840 0.931 . S
H857 C845 0.930 . S
H858 C846 0.956 . S
H859 C846 0.961 . S
H860 C846 0.961 . S
H861 C847 0.958 . S
H862 C847 0.961 . S
H863 C847 0.960 . S
C864 C865 1.391 . S
C864 C866 1.394 . S
C864 H880 0.931 . S
C865 C864 1.391 . S
C865 C869 1.376 . S
C866 C864 1.394 . S
C866 C867 1.369 . S
C866 C870 1.531 . S
C867 C866 1.369 . S
C867 C868 1.410 . S
C867 C875 1.503 . S
C868 C867 1.410 . S
C868 C869 1.392 . S
C868 C871 1.511 . S
C869 C865 1.376 . S
C869 C868 1.392 . S
C869 H881 0.929 . S
C870 C866 1.531 . S
C870 H882 0.960 . S
C870 H883 0.962 . S
C870 H884 0.960 . S
C871 C868 1.511 . S
C871 H885 0.961 . S
C871 H886 0.961 . S
C871 H887 0.961 . S
C872 C873 1.370 . S
C872 C874 1.363 . S
C872 H888 0.931 . S
C873 C872 1.370 . S
C873 C877 1.408 . S
C874 C872 1.363 . S
C874 C875 1.370 . S
C874 C878 1.524 . S
C875 C867 1.503 . S
C875 C874 1.370 . S
C875 C876 1.403 . S
C876 C875 1.403 . S
C876 C877 1.404 . S
C876 C879 1.539 . S
C877 C873 1.408 . S
C877 C876 1.404 . S
C877 H889 0.930 . S
C878 C874 1.524 . S
C878 H890 0.956 . S
C878 H891 0.961 . S
C878 H892 0.961 . S
C879 C876 1.539 . S
C879 H893 0.958 . S
C879 H894 0.961 . S
C879 H895 0.960 . S
H880 C864 0.931 . S
H881 C869 0.929 . S
H882 C870 0.960 . S
H883 C870 0.962 . S
H884 C870 0.960 . S
H885 C871 0.961 . S
H886 C871 0.961 . S
H887 C871 0.961 . S
H888 C872 0.931 . S
H889 C877 0.930 . S
H890 C878 0.956 . S
H891 C878 0.961 . S
H892 C878 0.961 . S
H893 C879 0.958 . S
H894 C879 0.961 . S
H895 C879 0.960 . S
C896 C897 1.391 . S
C896 C898 1.394 . S
C896 H912 0.931 . S
C897 C896 1.391 . S
C897 C901 1.376 . S
C898 C896 1.394 . S
C898 C899 1.369 . S
C898 C902 1.531 . S
C899 C898 1.369 . S
C899 C900 1.410 . S
C899 C907 1.503 . S
C900 C899 1.410 . S
C900 C901 1.392 . S
C900 C903 1.511 . S
C901 C897 1.376 . S
C901 C900 1.392 . S
C901 H913 0.929 . S
C902 C898 1.531 . S
C902 H914 0.960 . S
C902 H915 0.962 . S
C902 H916 0.960 . S
C903 C900 1.511 . S
C903 H917 0.961 . S
C903 H918 0.961 . S
C903 H919 0.961 . S
C904 C905 1.370 . S
C904 C906 1.363 . S
C904 H920 0.931 . S
C905 C904 1.370 . S
C905 C909 1.408 . S
C906 C904 1.363 . S
C906 C907 1.370 . S
C906 C910 1.524 . S
C907 C899 1.503 . S
C907 C906 1.370 . S
C907 C908 1.403 . S
C908 C907 1.403 . S
C908 C909 1.404 . S
C908 C911 1.539 . S
C909 C905 1.408 . S
C909 C908 1.404 . S
C909 H921 0.930 . S
C910 C906 1.524 . S
C910 H922 0.956 . S
C910 H923 0.961 . S
C910 H924 0.961 . S
C911 C908 1.539 . S
C911 H925 0.958 . S
C911 H926 0.961 . S
C911 H927 0.960 . S
H912 C896 0.931 . S
H913 C901 0.929 . S
H914 C902 0.960 . S
H915 C902 0.962 . S
H916 C902 0.960 . S
H917 C903 0.961 . S
H918 C903 0.961 . S
H919 C903 0.961 . S
H920 C904 0.931 . S
H921 C909 0.930 . S
H922 C910 0.956 . S
H923 C910 0.961 . S
H924 C910 0.961 . S
H925 C911 0.958 . S
H926 C911 0.961 . S
H927 C911 0.960 . S
C928 C929 1.391 . S
C928 C930 1.394 . S
C928 H944 0.931 . S
C929 C928 1.391 . S
C929 C933 1.376 . S
C930 C928 1.394 . S
C930 C931 1.369 . S
C930 C934 1.531 . S
C931 C930 1.369 . S
C931 C932 1.410 . S
C931 C939 1.503 . S
C932 C931 1.410 . S
C932 C933 1.392 . S
C932 C935 1.511 . S
C933 C929 1.376 . S
C933 C932 1.392 . S
C933 H945 0.929 . S
C934 C930 1.531 . S
C934 H946 0.960 . S
C934 H947 0.962 . S
C934 H948 0.960 . S
C935 C932 1.511 . S
C935 H949 0.961 . S
C935 H950 0.961 . S
C935 H951 0.961 . S
C936 C937 1.370 . S
C936 C938 1.363 . S
C936 H952 0.931 . S
C937 C936 1.370 . S
C937 C941 1.408 . S
C938 C936 1.363 . S
C938 C939 1.370 . S
C938 C942 1.524 . S
C939 C931 1.503 . S
C939 C938 1.370 . S
C939 C940 1.403 . S
C940 C939 1.403 . S
C940 C941 1.404 . S
C940 C943 1.539 . S
C941 C937 1.408 . S
C941 C940 1.404 . S
C941 H953 0.930 . S
C942 C938 1.524 . S
C942 H954 0.956 . S
C942 H955 0.961 . S
C942 H956 0.961 . S
C943 C940 1.539 . S
C943 H957 0.958 . S
C943 H958 0.961 . S
C943 H959 0.960 . S
H944 C928 0.931 . S
H945 C933 0.929 . S
H946 C934 0.960 . S
H947 C934 0.962 . S
H948 C934 0.960 . S
H949 C935 0.961 . S
H950 C935 0.961 . S
H951 C935 0.961 . S
H952 C936 0.931 . S
H953 C941 0.930 . S
H954 C942 0.956 . S
H955 C942 0.961 . S
H956 C942 0.961 . S
H957 C943 0.958 . S
H958 C943 0.961 . S
H959 C943 0.960 . S
C960 C961 1.391 . S
C960 C962 1.394 . S
C960 H976 0.931 . S
C961 C960 1.391 . S
C961 C965 1.376 . S
C962 C960 1.394 . S
C962 C963 1.369 . S
C962 C966 1.531 . S
C963 C962 1.369 . S
C963 C964 1.410 . S
C963 C971 1.503 . S
C964 C963 1.410 . S
C964 C965 1.392 . S
C964 C967 1.511 . S
C965 C961 1.376 . S
C965 C964 1.392 . S
C965 H977 0.929 . S
C966 C962 1.531 . S
C966 H978 0.960 . S
C966 H979 0.962 . S
C966 H980 0.960 . S
C967 C964 1.511 . S
C967 H981 0.961 . S
C967 H982 0.961 . S
C967 H983 0.961 . S
C968 C969 1.370 . S
C968 C970 1.363 . S
C968 H984 0.931 . S
C969 C968 1.370 . S
C969 C973 1.408 . S
C970 C968 1.363 . S
C970 C971 1.370 . S
C970 C974 1.524 . S
C971 C963 1.503 . S
C971 C970 1.370 . S
C971 C972 1.403 . S
C972 C971 1.403 . S
C972 C973 1.404 . S
C972 C975 1.539 . S
C973 C969 1.408 . S
C973 C972 1.404 . S
C973 H985 0.930 . S
C974 C970 1.524 . S
C974 H986 0.956 . S
C974 H987 0.961 . S
C974 H988 0.961 . S
C975 C972 1.539 . S
C975 H989 0.958 . S
C975 H990 0.961 . S
C975 H991 0.960 . S
H976 C960 0.931 . S
H977 C965 0.929 . S
H978 C966 0.960 . S
H979 C966 0.962 . S
H980 C966 0.960 . S
H981 C967 0.961 . S
H982 C967 0.961 . S
H983 C967 0.961 . S
H984 C968 0.931 . S
H985 C973 0.930 . S
H986 C974 0.956 . S
H987 C974 0.961 . S
H988 C974 0.961 . S
H989 C975 0.958 . S
H990 C975 0.961 . S
H991 C975 0.960 . S
C992 C993 1.391 . S
C992 C994 1.394 . S
C992 H1008 0.931 . S
C993 C992 1.391 . S
C993 C997 1.376 . S
C994 C992 1.394 . S
C994 C995 1.369 . S
C994 C998 1.531 . S
C995 C994 1.369 . S
C995 C996 1.410 . S
C995 C1003 1.503 . S
C996 C995 1.410 . S
C996 C997 1.392 . S
C996 C999 1.511 . S
C997 C993 1.376 . S
C997 C996 1.392 . S
C997 H1009 0.929 . S
C998 C994 1.531 . S
C998 H1010 0.960 . S
C998 H1011 0.962 . S
C998 H1012 0.960 . S
C999 C996 1.511 . S
C999 H1013 0.961 . S
C999 H1014 0.961 . S
C999 H1015 0.961 . S
C1000 C1001 1.370 . S
C1000 C1002 1.363 . S
C1000 H1016 0.931 . S
C1001 C1000 1.370 . S
C1001 C1005 1.408 . S
C1002 C1000 1.363 . S
C1002 C1003 1.370 . S
C1002 C1006 1.524 . S
C1003 C995 1.503 . S
C1003 C1002 1.370 . S
C1003 C1004 1.403 . S
C1004 C1003 1.403 . S
C1004 C1005 1.404 . S
C1004 C1007 1.539 . S
C1005 C1001 1.408 . S
C1005 C1004 1.404 . S
C1005 H1017 0.930 . S
C1006 C1002 1.524 . S
C1006 H1018 0.956 . S
C1006 H1019 0.961 . S
C1006 H1020 0.961 . S
C1007 C1004 1.539 . S
C1007 H1021 0.958 . S
C1007 H1022 0.961 . S
C1007 H1023 0.960 . S
H1008 C992 0.931 . S
H1009 C997 0.929 . S
H1010 C998 0.960 . S
H1011 C998 0.962 . S
H1012 C998 0.960 . S
H1013 C999 0.961 . S
H1014 C999 0.961 . S
H1015 C999 0.961 . S
H1016 C1000 0.931 . S
H1017 C1005 0.930 . S
H1018 C1006 0.956 . S
H1019 C1006 0.961 . S
H1020 C1006 0.961 . S
H1021 C1007 0.958 . S
H1022 C1007 0.961 . S
H1023 C1007 0.960 . S
C1024 C1025 1.391 . S
C1024 C1026 1.394 . S
C1024 H1040 0.931 . S
C1025 C1024 1.391 . S
C1025 C1029 1.376 . S
C1026 C1024 1.394 . S
C1026 C1027 1.369 . S
C1026 C1030 1.531 . S
C1027 C1026 1.369 . S
C1027 C1028 1.410 . S
C1027 C1035 1.503 . S
C1028 C1027 1.410 . S
C1028 C1029 1.392 . S
C1028 C1031 1.511 . S
C1029 C1025 1.376 . S
C1029 C1028 1.392 . S
C1029 H1041 0.929 . S
C1030 C1026 1.531 . S
C1030 H1042 0.960 . S
C1030 H1043 0.962 . S
C1030 H1044 0.960 . S
C1031 C1028 1.511 . S
C1031 H1045 0.961 . S
C1031 H1046 0.961 . S
C1031 H1047 0.961 . S
C1032 C1033 1.370 . S
C1032 C1034 1.363 . S
C1032 H1048 0.931 . S
C1033 C1032 1.370 . S
C1033 C1037 1.408 . S
C1034 C1032 1.363 . S
C1034 C1035 1.370 . S
C1034 C1038 1.524 . S
C1035 C1027 1.503 . S
C1035 C1034 1.370 . S
C1035 C1036 1.403 . S
C1036 C1035 1.403 . S
C1036 C1037 1.404 . S
C1036 C1039 1.539 . S
C1037 C1033 1.408 . S
C1037 C1036 1.404 . S
C1037 H1049 0.930 . S
C1038 C1034 1.524 . S
C1038 H1050 0.956 . S
C1038 H1051 0.961 . S
C1038 H1052 0.961 . S
C1039 C1036 1.539 . S
C1039 H1053 0.958 . S
C1039 H1054 0.961 . S
C1039 H1055 0.960 . S
H1040 C1024 0.931 . S
H1041 C1029 0.929 . S
H1042 C1030 0.960 . S
H1043 C1030 0.962 . S
H1044 C1030 0.960 . S
H1045 C1031 0.961 . S
H1046 C1031 0.961 . S
H1047 C1031 0.961 . S
H1048 C1032 0.931 . S
H1049 C1037 0.930 . S
H1050 C1038 0.956 . S
H1051 C1038 0.961 . S
H1052 C1038 0.961 . S
H1053 C1039 0.958 . S
H1054 C1039 0.961 . S
H1055 C1039 0.960 . S
C1056 C1057 1.391 . S
C1056 C1058 1.394 . S
C1056 H1072 0.931 . S
C1057 C1056 1.391 . S
C1057 C1061 1.376 . S
C1058 C1056 1.394 . S
C1058 C1059 1.369 . S
C1058 C1062 1.531 . S
C1059 C1058 1.369 . S
C1059 C1060 1.410 . S
C1059 C1067 1.503 . S
C1060 C1059 1.410 . S
C1060 C1061 1.392 . S
C1060 C1063 1.511 . S
C1061 C1057 1.376 . S
C1061 C1060 1.392 . S
C1061 H1073 0.929 . S
C1062 C1058 1.531 . S
C1062 H1074 0.960 . S
C1062 H1075 0.962 . S
C1062 H1076 0.960 . S
C1063 C1060 1.511 . S
C1063 H1077 0.961 . S
C1063 H1078 0.961 . S
C1063 H1079 0.961 . S
C1064 C1065 1.370 . S
C1064 C1066 1.363 . S
C1064 H1080 0.931 . S
C1065 C1064 1.370 . S
C1065 C1069 1.408 . S
C1066 C1064 1.363 . S
C1066 C1067 1.370 . S
C1066 C1070 1.524 . S
C1067 C1059 1.503 . S
C1067 C1066 1.370 . S
C1067 C1068 1.403 . S
C1068 C1067 1.403 . S
C1068 C1069 1.404 . S
C1068 C1071 1.539 . S
C1069 C1065 1.408 . S
C1069 C1068 1.404 . S
C1069 H1081 0.930 . S
C1070 C1066 1.524 . S
C1070 H1082 0.956 . S
C1070 H1083 0.961 . S
C1070 H1084 0.961 . S
C1071 C1068 1.539 . S
C1071 H1085 0.958 . S
C1071 H1086 0.961 . S
C1071 H1087 0.960 . S
H1072 C1056 0.931 . S
H1073 C1061 0.929 . S
H1074 C1062 0.960 . S
H1075 C1062 0.962 . S
H1076 C1062 0.960 . S
H1077 C1063 0.961 . S
H1078 C1063 0.961 . S
H1079 C1063 0.961 . S
H1080 C1064 0.931 . S
H1081 C1069 0.930 . S
H1082 C1070 0.956 . S
H1083 C1070 0.961 . S
H1084 C1070 0.961 . S
H1085 C1071 0.958 . S
H1086 C1071 0.961 . S
H1087 C1071 0.960 . S
C1088 C1089 1.391 . S
C1088 C1090 1.394 . S
C1088 H1104 0.931 . S
C1089 C1088 1.391 . S
C1089 C1093 1.376 . S
C1090 C1088 1.394 . S
C1090 C1091 1.369 . S
C1090 C1094 1.531 . S
C1091 C1090 1.369 . S
C1091 C1092 1.410 . S
C1091 C1099 1.503 . S
C1092 C1091 1.410 . S
C1092 C1093 1.392 . S
C1092 C1095 1.511 . S
C1093 C1089 1.376 . S
C1093 C1092 1.392 . S
C1093 H1105 0.929 . S
C1094 C1090 1.531 . S
C1094 H1106 0.960 . S
C1094 H1107 0.962 . S
C1094 H1108 0.960 . S
C1095 C1092 1.511 . S
C1095 H1109 0.961 . S
C1095 H1110 0.961 . S
C1095 H1111 0.961 . S
C1096 C1097 1.370 . S
C1096 C1098 1.363 . S
C1096 H1112 0.931 . S
C1097 C1096 1.370 . S
C1097 C1101 1.408 . S
C1098 C1096 1.363 . S
C1098 C1099 1.370 . S
C1098 C1102 1.524 . S
C1099 C1091 1.503 . S
C1099 C1098 1.370 . S
C1099 C1100 1.403 . S
C1100 C1099 1.403 . S
C1100 C1101 1.404 . S
C1100 C1103 1.539 . S
C1101 C1097 1.408 . S
C1101 C1100 1.404 . S
C1101 H1113 0.930 . S
C1102 C1098 1.524 . S
C1102 H1114 0.956 . S
C1102 H1115 0.961 . S
C1102 H1116 0.961 . S
C1103 C1100 1.539 . S
C1103 H1117 0.958 . S
C1103 H1118 0.961 . S
C1103 H1119 0.960 . S
H1104 C1088 0.931 . S
H1105 C1093 0.929 . S
H1106 C1094 0.960 . S
H1107 C1094 0.962 . S
H1108 C1094 0.960 . S
H1109 C1095 0.961 . S
H1110 C1095 0.961 . S
H1111 C1095 0.961 . S
H1112 C1096 0.931 . S
H1113 C1101 0.930 . S
H1114 C1102 0.956 . S
H1115 C1102 0.961 . S
H1116 C1102 0.961 . S
H1117 C1103 0.958 . S
H1118 C1103 0.961 . S
H1119 C1103 0.960 . S
C1120 C1121 1.391 . S
C1120 C1122 1.394 . S
C1120 H1136 0.931 . S
C1121 C1120 1.391 . S
C1121 C1125 1.376 . S
C1122 C1120 1.394 . S
C1122 C1123 1.369 . S
C1122 C1126 1.531 . S
C1123 C1122 1.369 . S
C1123 C1124 1.410 . S
C1123 C1131 1.503 . S
C1124 C1123 1.410 . S
C1124 C1125 1.392 . S
C1124 C1127 1.511 . S
C1125 C1121 1.376 . S
C1125 C1124 1.392 . S
C1125 H1137 0.929 . S
C1126 C1122 1.531 . S
C1126 H1138 0.960 . S
C1126 H1139 0.962 . S
C1126 H1140 0.960 . S
C1127 C1124 1.511 . S
C1127 H1141 0.961 . S
C1127 H1142 0.961 . S
C1127 H1143 0.961 . S
C1128 C1129 1.370 . S
C1128 C1130 1.363 . S
C1128 H1144 0.931 . S
C1129 C1128 1.370 . S
C1129 C1133 1.408 . S
C1130 C1128 1.363 . S
C1130 C1131 1.370 . S
C1130 C1134 1.524 . S
C1131 C1123 1.503 . S
C1131 C1130 1.370 . S
C1131 C1132 1.403 . S
C1132 C1131 1.403 . S
C1132 C1133 1.404 . S
C1132 C1135 1.539 . S
C1133 C1129 1.408 . S
C1133 C1132 1.404 . S
C1133 H1145 0.930 . S
C1134 C1130 1.524 . S
C1134 H1146 0.956 . S
C1134 H1147 0.961 . S
C1134 H1148 0.961 . S
C1135 C1132 1.539 . S
C1135 H1149 0.958 . S
C1135 H1150 0.961 . S
C1135 H1151 0.960 . S
H1136 C1120 0.931 . S
H1137 C1125 0.929 . S
H1138 C1126 0.960 . S
H1139 C1126 0.962 . S
H1140 C1126 0.960 . S
H1141 C1127 0.961 . S
H1142 C1127 0.961 . S
H1143 C1127 0.961 . S
H1144 C1128 0.931 . S
H1145 C1133 0.930 . S
H1146 C1134 0.956 . S
H1147 C1134 0.961 . S
H1148 C1134 0.961 . S
H1149 C1135 0.958 . S
H1150 C1135 0.961 . S
H1151 C1135 0.960 . S
C1152 C1153 1.391 . S
C1152 C1154 1.394 . S
C1152 H1168 0.931 . S
C1153 C1152 1.391 . S
C1153 C1157 1.376 . S
C1154 C1152 1.394 . S
C1154 C1155 1.369 . S
C1154 C1158 1.531 . S
C1155 C1154 1.369 . S
C1155 C1156 1.410 . S
C1155 C1163 1.503 . S
C1156 C1155 1.410 . S
C1156 C1157 1.392 . S
C1156 C1159 1.511 . S
C1157 C1153 1.376 . S
C1157 C1156 1.392 . S
C1157 H1169 0.929 . S
C1158 C1154 1.531 . S
C1158 H1170 0.960 . S
C1158 H1171 0.962 . S
C1158 H1172 0.960 . S
C1159 C1156 1.511 . S
C1159 H1173 0.961 . S
C1159 H1174 0.961 . S
C1159 H1175 0.961 . S
C1160 C1161 1.370 . S
C1160 C1162 1.363 . S
C1160 H1176 0.931 . S
C1161 C1160 1.370 . S
C1161 C1165 1.408 . S
C1162 C1160 1.363 . S
C1162 C1163 1.370 . S
C1162 C1166 1.524 . S
C1163 C1155 1.503 . S
C1163 C1162 1.370 . S
C1163 C1164 1.403 . S
C1164 C1163 1.403 . S
C1164 C1165 1.404 . S
C1164 C1167 1.539 . S
C1165 C1161 1.408 . S
C1165 C1164 1.404 . S
C1165 H1177 0.930 . S
C1166 C1162 1.524 . S
C1166 H1178 0.956 . S
C1166 H1179 0.961 . S
C1166 H1180 0.961 . S
C1167 C1164 1.539 . S
C1167 H1181 0.958 . S
C1167 H1182 0.961 . S
C1167 H1183 0.960 . S
H1168 C1152 0.931 . S
H1169 C1157 0.929 . S
H1170 C1158 0.960 . S
H1171 C1158 0.962 . S
H1172 C1158 0.960 . S
H1173 C1159 0.961 . S
H1174 C1159 0.961 . S
H1175 C1159 0.961 . S
H1176 C1160 0.931 . S
H1177 C1165 0.930 . S
H1178 C1166 0.956 . S
H1179 C1166 0.961 . S
H1180 C1166 0.961 . S
H1181 C1167 0.958 . S
H1182 C1167 0.961 . S
H1183 C1167 0.960 . S
C1184 C1185 1.391 . S
C1184 C1186 1.394 . S
C1184 H1200 0.931 . S
C1185 C1184 1.391 . S
C1185 C1189 1.376 . S
C1186 C1184 1.394 . S
C1186 C1187 1.369 . S
C1186 C1190 1.531 . S
C1187 C1186 1.369 . S
C1187 C1188 1.410 . S
C1187 C1195 1.503 . S
C1188 C1187 1.410 . S
C1188 C1189 1.392 . S
C1188 C1191 1.511 . S
C1189 C1185 1.376 . S
C1189 C1188 1.392 . S
C1189 H1201 0.929 . S
C1190 C1186 1.531 . S
C1190 H1202 0.960 . S
C1190 H1203 0.962 . S
C1190 H1204 0.960 . S
C1191 C1188 1.511 . S
C1191 H1205 0.961 . S
C1191 H1206 0.961 . S
C1191 H1207 0.961 . S
C1192 C1193 1.370 . S
C1192 C1194 1.363 . S
C1192 H1208 0.931 . S
C1193 C1192 1.370 . S
C1193 C1197 1.408 . S
C1194 C1192 1.363 . S
C1194 C1195 1.370 . S
C1194 C1198 1.524 . S
C1195 C1187 1.503 . S
C1195 C1194 1.370 . S
C1195 C1196 1.403 . S
C1196 C1195 1.403 . S
C1196 C1197 1.404 . S
C1196 C1199 1.539 . S
C1197 C1193 1.408 . S
C1197 C1196 1.404 . S
C1197 H1209 0.930 . S
C1198 C1194 1.524 . S
C1198 H1210 0.956 . S
C1198 H1211 0.961 . S
C1198 H1212 0.961 . S
C1199 C1196 1.539 . S
C1199 H1213 0.958 . S
C1199 H1214 0.961 . S
C1199 H1215 0.960 . S
H1200 C1184 0.931 . S
H1201 C1189 0.929 . S
H1202 C1190 0.960 . S
H1203 C1190 0.962 . S
H1204 C1190 0.960 . S
H1205 C1191 0.961 . S
H1206 C1191 0.961 . S
H1207 C1191 0.961 . S
H1208 C1192 0.931 . S
H1209 C1197 0.930 . S
H1210 C1198 0.956 . S
H1211 C1198 0.961 . S
H1212 C1198 0.961 . S
H1213 C1199 0.958 . S
H1214 C1199 0.961 . S
H1215 C1199 0.960 . S
C449 C1 1.274 . S
C457 C295 1.291 . S
C481 C67 1.006 . S
C489 C344 0.969 . S
C521 C370 2.452 . S
C513 C97 2.473 . S
C545 C133 2.393 . S
C553 C418 2.347 . S
C585 C330 2.510 . S
C577 C25 2.437 . S
C617 C298 0.877 . S
C609 C37 0.839 . S
C649 C419 1.889 . S
C641 C103 1.936 . S
C681 C387 1.589 . S
C673 C109 1.617 . S
C705 C31 1.701 . S
C713 C415 1.755 . S
C745 C347 2.324 . S
C737 C73 2.380 . S
C769 C139 2.350 . S
C777 C299 2.353 . S
C801 C61 0.833 . S
C809 C384 0.841 . S
C841 C304 1.294 . S
C833 C175 1.163 . S
C865 C181 0.949 . S
C873 C335 0.974 . S
C897 C247 2.507 . S
C905 C379 2.477 . S
C929 C277 2.374 . S
C937 C427 2.322 . S
C961 C145 2.360 . S
C969 C339 2.500 . S
C1001 C307 0.831 . S
C993 C211 0.904 . S
C1033 C410 1.877 . S
C1025 C217 1.924 . S
C1065 C378 1.606 . S
C1057 C283 1.630 . S
C1089 C169 1.592 . S
C1097 C424 1.751 . S
C1129 C338 2.332 . S
C1121 C241 2.387 . S
C1161 C290 2.336 . S
C1153 C253 2.343 . S
C1185 C205 0.893 . S
C1193 C375 0.857 . S
