# Generated by pormake.
# Topology eea, (3,6)-cn, num edge types: 1
# Building blocks:
#     Node 0, Type 0, BuildingBlock: QEWDON_clean_linker_0, # of connection points: 3
#     Node 1, Type 0, BuildingBlock: QEWDON_clean_linker_0, # of connection points: 3
#     Node 2, Type 0, BuildingBlock: QEWDON_clean_linker_0, # of connection points: 3
#     Node 3, Type 0, BuildingBlock: QEWDON_clean_linker_0, # of connection points: 3
#     Node 4, Type 0, BuildingBlock: QEWDON_clean_linker_0, # of connection points: 3
#     Node 5, Type 0, BuildingBlock: QEWDON_clean_linker_0, # of connection points: 3
#     Node 6, Type 0, BuildingBlock: QEWDON_clean_linker_0, # of connection points: 3
#     Node 7, Type 0, BuildingBlock: QEWDON_clean_linker_0, # of connection points: 3
#     Node 8, Type 0, BuildingBlock: QEWDON_clean_linker_0, # of connection points: 3
#     Node 9, Type 0, BuildingBlock: QEWDON_clean_linker_0, # of connection points: 3
#     Node 10, Type 0, BuildingBlock: QEWDON_clean_linker_0, # of connection points: 3
#     Node 11, Type 0, BuildingBlock: QEWDON_clean_linker_0, # of connection points: 3
#     Node 12, Type 0, BuildingBlock: QEWDON_clean_linker_0, # of connection points: 3
#     Node 13, Type 0, BuildingBlock: QEWDON_clean_linker_0, # of connection points: 3
#     Node 14, Type 0, BuildingBlock: QEWDON_clean_linker_0, # of connection points: 3
#     Node 15, Type 0, BuildingBlock: QEWDON_clean_linker_0, # of connection points: 3
#     Node 16, Type 0, BuildingBlock: QEWDON_clean_linker_0, # of connection points: 3
#     Node 17, Type 0, BuildingBlock: QEWDON_clean_linker_0, # of connection points: 3
#     Node 18, Type 1, BuildingBlock: KUMBUR_clean_sbu_0, # of connection points: 6
#     Node 19, Type 1, BuildingBlock: KUMBUR_clean_sbu_0, # of connection points: 6
#     Node 20, Type 1, BuildingBlock: KUMBUR_clean_sbu_0, # of connection points: 6
#     Node 21, Type 1, BuildingBlock: KUMBUR_clean_sbu_0, # of connection points: 6
#     Node 22, Type 1, BuildingBlock: KUMBUR_clean_sbu_0, # of connection points: 6
#     Node 23, Type 1, BuildingBlock: KUMBUR_clean_sbu_0, # of connection points: 6
#     Node 24, Type 1, BuildingBlock: KUMBUR_clean_sbu_0, # of connection points: 6
#     Node 25, Type 1, BuildingBlock: KUMBUR_clean_sbu_0, # of connection points: 6
#     Node 26, Type 1, BuildingBlock: KUMBUR_clean_sbu_0, # of connection points: 6
#     Edge 27, Type (0, 1), BuildingBlock: EZIPEK_clean_linker_0, # of connection points: 2
#     Edge 28, Type (0, 1), BuildingBlock: EZIPEK_clean_linker_0, # of connection points: 2
#     Edge 29, Type (0, 1), BuildingBlock: EZIPEK_clean_linker_0, # of connection points: 2
#     Edge 30, Type (0, 1), BuildingBlock: EZIPEK_clean_linker_0, # of connection points: 2
#     Edge 31, Type (0, 1), BuildingBlock: EZIPEK_clean_linker_0, # of connection points: 2
#     Edge 32, Type (0, 1), BuildingBlock: EZIPEK_clean_linker_0, # of connection points: 2
#     Edge 33, Type (0, 1), BuildingBlock: EZIPEK_clean_linker_0, # of connection points: 2
#     Edge 34, Type (0, 1), BuildingBlock: EZIPEK_clean_linker_0, # of connection points: 2
#     Edge 35, Type (0, 1), BuildingBlock: EZIPEK_clean_linker_0, # of connection points: 2
#     Edge 36, Type (0, 1), BuildingBlock: EZIPEK_clean_linker_0, # of connection points: 2
#     Edge 37, Type (0, 1), BuildingBlock: EZIPEK_clean_linker_0, # of connection points: 2
#     Edge 38, Type (0, 1), BuildingBlock: EZIPEK_clean_linker_0, # of connection points: 2
#     Edge 39, Type (0, 1), BuildingBlock: EZIPEK_clean_linker_0, # of connection points: 2
#     Edge 40, Type (0, 1), BuildingBlock: EZIPEK_clean_linker_0, # of connection points: 2
#     Edge 41, Type (0, 1), BuildingBlock: EZIPEK_clean_linker_0, # of connection points: 2
#     Edge 42, Type (0, 1), BuildingBlock: EZIPEK_clean_linker_0, # of connection points: 2
#     Edge 43, Type (0, 1), BuildingBlock: EZIPEK_clean_linker_0, # of connection points: 2
#     Edge 44, Type (0, 1), BuildingBlock: EZIPEK_clean_linker_0, # of connection points: 2
#     Edge 45, Type (0, 1), BuildingBlock: EZIPEK_clean_linker_0, # of connection points: 2
#     Edge 46, Type (0, 1), BuildingBlock: EZIPEK_clean_linker_0, # of connection points: 2
#     Edge 47, Type (0, 1), BuildingBlock: EZIPEK_clean_linker_0, # of connection points: 2
#     Edge 48, Type (0, 1), BuildingBlock: EZIPEK_clean_linker_0, # of connection points: 2
#     Edge 49, Type (0, 1), BuildingBlock: EZIPEK_clean_linker_0, # of connection points: 2
#     Edge 50, Type (0, 1), BuildingBlock: EZIPEK_clean_linker_0, # of connection points: 2
#     Edge 51, Type (0, 1), BuildingBlock: EZIPEK_clean_linker_0, # of connection points: 2
#     Edge 52, Type (0, 1), BuildingBlock: EZIPEK_clean_linker_0, # of connection points: 2
#     Edge 53, Type (0, 1), BuildingBlock: EZIPEK_clean_linker_0, # of connection points: 2
#     Edge 54, Type (0, 1), BuildingBlock: EZIPEK_clean_linker_0, # of connection points: 2
#     Edge 55, Type (0, 1), BuildingBlock: EZIPEK_clean_linker_0, # of connection points: 2
#     Edge 56, Type (0, 1), BuildingBlock: EZIPEK_clean_linker_0, # of connection points: 2
#     Edge 57, Type (0, 1), BuildingBlock: EZIPEK_clean_linker_0, # of connection points: 2
#     Edge 58, Type (0, 1), BuildingBlock: EZIPEK_clean_linker_0, # of connection points: 2
#     Edge 59, Type (0, 1), BuildingBlock: EZIPEK_clean_linker_0, # of connection points: 2
#     Edge 60, Type (0, 1), BuildingBlock: EZIPEK_clean_linker_0, # of connection points: 2
#     Edge 61, Type (0, 1), BuildingBlock: EZIPEK_clean_linker_0, # of connection points: 2
#     Edge 62, Type (0, 1), BuildingBlock: EZIPEK_clean_linker_0, # of connection points: 2
#     Edge 63, Type (0, 1), BuildingBlock: EZIPEK_clean_linker_0, # of connection points: 2
#     Edge 64, Type (0, 1), BuildingBlock: EZIPEK_clean_linker_0, # of connection points: 2
#     Edge 65, Type (0, 1), BuildingBlock: EZIPEK_clean_linker_0, # of connection points: 2
#     Edge 66, Type (0, 1), BuildingBlock: EZIPEK_clean_linker_0, # of connection points: 2
#     Edge 67, Type (0, 1), BuildingBlock: EZIPEK_clean_linker_0, # of connection points: 2
#     Edge 68, Type (0, 1), BuildingBlock: EZIPEK_clean_linker_0, # of connection points: 2
#     Edge 69, Type (0, 1), BuildingBlock: EZIPEK_clean_linker_0, # of connection points: 2
#     Edge 70, Type (0, 1), BuildingBlock: EZIPEK_clean_linker_0, # of connection points: 2
#     Edge 71, Type (0, 1), BuildingBlock: EZIPEK_clean_linker_0, # of connection points: 2
#     Edge 72, Type (0, 1), BuildingBlock: EZIPEK_clean_linker_0, # of connection points: 2
#     Edge 73, Type (0, 1), BuildingBlock: EZIPEK_clean_linker_0, # of connection points: 2
#     Edge 74, Type (0, 1), BuildingBlock: EZIPEK_clean_linker_0, # of connection points: 2
#     Edge 75, Type (0, 1), BuildingBlock: EZIPEK_clean_linker_0, # of connection points: 2
#     Edge 76, Type (0, 1), BuildingBlock: EZIPEK_clean_linker_0, # of connection points: 2
#     Edge 77, Type (0, 1), BuildingBlock: EZIPEK_clean_linker_0, # of connection points: 2
#     Edge 78, Type (0, 1), BuildingBlock: EZIPEK_clean_linker_0, # of connection points: 2
#     Edge 79, Type (0, 1), BuildingBlock: EZIPEK_clean_linker_0, # of connection points: 2
#     Edge 80, Type (0, 1), BuildingBlock: EZIPEK_clean_linker_0, # of connection points: 2
# Relax obj value: 0.047
# Max RMSD: 0.224
# Mean RMSD: 0.160
data_MOF--net-eea--node1-KUMBUR_clean_sbu_0--node2-QEWDON_clean_linker_0--edge1-EZIPEK_clean_linker_0
_symmetry_space_group_name_H-M    P1
_symmetry_Int_Tables_number       1
_symmetry_cell_setting            triclinic
loop_
_symmetry_equiv_pos_as_xyz
'x, y, z'
_cell_length_a     42.466754
_cell_length_b     43.682522
_cell_length_c     50.381233
_cell_angle_alpha  90.182888
_cell_angle_beta   89.76322
_cell_angle_gamma 119.91903
loop_
_atom_site_label
_atom_site_type_symbol
_atom_site_fract_x
_atom_site_fract_y
_atom_site_fract_z
_atom_type_partial_charge
H0 H 0.23234 0.13206 0.43598 0.0
C1 C 0.2313 0.10966 0.42582 0.0
C2 C 0.25004 0.09356 0.43652 0.0
C3 C 0.21048 0.09618 0.40259 0.0
H4 H 0.26033 0.05008 0.43309 0.0
C5 C 0.24695 0.06325 0.42436 0.0
C6 C 0.22628 0.04944 0.40129 0.0
C7 C 0.20922 0.06673 0.39003 0.0
C8 C 0.18763 0.11064 0.39243 0.0
H9 H 0.19372 0.05622 0.37195 0.0
C10 C 0.20046 0.14733 0.39156 0.0
C11 C 0.17804 0.15995 0.3817 0.0
C12 C 0.15204 0.08713 0.38371 0.0
H13 H 0.14097 0.05882 0.38471 0.0
C14 C 0.12997 0.09974 0.374 0.0
H15 H 0.22769 0.16595 0.39821 0.0
C16 C 0.14286 0.13591 0.37295 0.0
H17 H 0.12528 0.14525 0.36541 0.0
H18 H 0.10268 0.08137 0.36739 0.0
H19 H 0.88927 0.10205 0.42401 0.0
C20 C 0.91024 0.12548 0.41431 0.0
C21 C 0.92431 0.15809 0.42775 0.0
C22 C 0.92259 0.12339 0.38866 0.0
H23 H 0.96538 0.21344 0.42695 0.0
C24 C 0.95338 0.18851 0.41636 0.0
C25 C 0.96767 0.18667 0.39167 0.0
C26 C 0.95104 0.15479 0.37748 0.0
C27 C 0.90663 0.08892 0.37359 0.0
H28 H 0.96127 0.15503 0.35775 0.0
C29 C 0.87124 0.06011 0.37894 0.0
C30 C 0.85699 0.02862 0.3639 0.0
C31 C 0.92722 0.08445 0.3534 0.0
H32 H 0.95512 0.10415 0.34943 0.0
C33 C 0.91255 0.05397 0.33796 0.0
H34 H 0.85459 0.06169 0.39458 0.0
C35 C 0.87765 0.02645 0.34294 0.0
H36 H 0.86721 0.00264 0.33105 0.0
H37 H 0.92868 0.05138 0.32236 0.0
H38 H 0.91955 0.78215 0.42664 0.0
C39 C 0.89737 0.78483 0.41884 0.0
C40 C 0.86508 0.77136 0.43402 0.0
C41 C 0.90099 0.80196 0.39423 0.0
H42 H 0.81196 0.76636 0.43664 0.0
C43 C 0.83652 0.77602 0.42486 0.0
C44 C 0.83858 0.7915 0.40017 0.0
C45 C 0.87029 0.80361 0.38479 0.0
C46 C 0.93647 0.81902 0.37865 0.0
H47 H 0.87044 0.8142 0.36539 0.0
C48 C 0.96411 0.80976 0.38199 0.0
C49 C 0.99693 0.82693 0.36706 0.0
C50 C 0.94355 0.84631 0.36045 0.0
H51 H 0.9251 0.85637 0.358 0.0
C52 C 0.97524 0.86226 0.34528 0.0
H53 H 0.96059 0.78955 0.39595 0.0
C54 C 1.00157 0.85257 0.34841 0.0
H55 H 0.02636 0.86604 0.33685 0.0
H56 H 0.97977 0.88289 0.33135 0.0
H57 H 0.13842 0.21802 0.60297 0.0
C58 C 0.11605 0.21895 0.61254 0.0
C59 C 0.10025 0.23647 0.59946 0.0
C60 C 0.10298 0.20275 0.63751 0.0
H61 H 0.0571 0.24893 0.60046 0.0
C62 C 0.06993 0.23631 0.6108 0.0
C63 C 0.05529 0.21923 0.63494 0.0
C64 C 0.0725 0.20355 0.64859 0.0
C65 C 0.12001 0.184 0.65155 0.0
H66 H 0.06157 0.1918 0.66772 0.0
C67 C 0.15705 0.19333 0.64776 0.0
C68 C 0.17211 0.17538 0.66158 0.0
C69 C 0.09871 0.15577 0.66891 0.0
H70 H 0.07003 0.14621 0.67165 0.0
C71 C 0.11371 0.13858 0.68279 0.0
H72 H 0.17443 0.2146 0.6345 0.0
C73 C 0.15004 0.14838 0.67932 0.0
H74 H 0.16084 0.1342 0.69004 0.0
H75 H 0.09686 0.11712 0.69612 0.0
H76 H 0.80009 0.91686 0.60268 0.0
C77 C 0.79799 0.89363 0.61201 0.0
C78 C 0.77251 0.86017 0.60215 0.0
C79 C 0.8205 0.89689 0.63353 0.0
H80 H 0.74792 0.80394 0.60739 0.0
C81 C 0.76895 0.82962 0.61421 0.0
C82 C 0.79383 0.83208 0.63356 0.0
C83 C 0.81969 0.86594 0.64266 0.0
C84 C 0.8431 0.93156 0.64766 0.0
H85 H 0.83837 0.86763 0.65775 0.0
C86 C 0.8337 0.95855 0.64734 0.0
C87 C 0.85193 0.98854 0.66382 0.0
C88 C 0.87287 0.93699 0.66347 0.0
H89 H 0.88343 0.91905 0.66309 0.0
C90 C 0.88975 0.96579 0.68054 0.0
H91 H 0.81212 0.95642 0.63476 0.0
C92 C 0.87879 0.99086 0.68125 0.0
H93 H 0.89282 0.01335 0.69441 0.0
H94 H 0.91181 0.9689 0.69308 0.0
H95 H 0.09392 0.87443 0.60493 0.0
C96 C 0.11736 0.89689 0.61363 0.0
C97 C 0.15079 0.91266 0.59966 0.0
C98 C 0.11434 0.91056 0.63842 0.0
H99 H 0.2059 0.95647 0.59883 0.0
C100 C 0.18067 0.94331 0.60997 0.0
C101 C 0.17813 0.95749 0.6343 0.0
C102 C 0.14566 0.94007 0.64886 0.0
C103 C 0.07877 0.89609 0.65314 0.0
H104 H 0.14482 0.9507 0.66813 0.0
C105 C 0.05155 0.85989 0.6524 0.0
C106 C 0.01926 0.84743 0.66761 0.0
C107 C 0.07193 0.91929 0.66849 0.0
H108 H 0.09071 0.94745 0.66864 0.0
C109 C 0.04055 0.90683 0.68383 0.0
H110 H 0.05536 0.84137 0.6404 0.0
C111 C 0.01461 0.87115 0.68367 0.0
H112 H 0.99019 0.8621 0.69552 0.0
H113 H 0.03615 0.92506 0.6957 0.0
H114 H 0.90647 0.466 0.77186 0.0
C115 C 0.90664 0.4445 0.76119 0.0
C116 C 0.92482 0.42795 0.77205 0.0
C117 C 0.88794 0.43258 0.73701 0.0
H118 H 0.93513 0.38447 0.76832 0.0
C119 C 0.9227 0.39833 0.75928 0.0
C120 C 0.90459 0.38655 0.73494 0.0
C121 C 0.88892 0.40497 0.72342 0.0
C122 C 0.86449 0.4462 0.72684 0.0
H123 H 0.87551 0.3963 0.70437 0.0
C124 C 0.87621 0.48259 0.72649 0.0
C125 C 0.8533 0.49439 0.71633 0.0
C126 C 0.82948 0.42207 0.71738 0.0
H127 H 0.81936 0.39388 0.71792 0.0
C128 C 0.80688 0.43389 0.70744 0.0
H129 H 0.90297 0.50161 0.73371 0.0
C130 C 0.8187 0.46986 0.70685 0.0
H131 H 0.80078 0.47866 0.69908 0.0
H132 H 0.78006 0.41508 0.70024 0.0
H133 H 0.55618 0.43622 0.76505 0.0
C134 C 0.57821 0.45832 0.75474 0.0
C135 C 0.59309 0.49242 0.76568 0.0
C136 C 0.59204 0.45255 0.731 0.0
H137 H 0.63497 0.54709 0.76165 0.0
C138 C 0.62281 0.5209 0.75298 0.0
C139 C 0.63772 0.51553 0.72968 0.0
C140 C 0.62154 0.48155 0.71843 0.0
C141 C 0.57759 0.41601 0.72038 0.0
H142 H 0.63282 0.47766 0.70024 0.0
C143 C 0.53993 0.39111 0.72037 0.0
C144 C 0.52725 0.35657 0.71071 0.0
C145 C 0.60196 0.40556 0.71071 0.0
H146 H 0.631 0.42363 0.71094 0.0
C147 C 0.58931 0.37142 0.70113 0.0
H148 H 0.52057 0.3985 0.72759 0.0
C149 C 0.55223 0.34705 0.70112 0.0
H150 H 0.54293 0.32064 0.6936 0.0
H151 H 0.60838 0.36375 0.6938 0.0
H152 H 0.5778 0.10189 0.75719 0.0
C153 C 0.55719 0.10609 0.74803 0.0
C154 C 0.52282 0.09177 0.76013 0.0
C155 C 0.56688 0.12974 0.72667 0.0
H156 H 0.47051 0.0885 0.75873 0.0
C157 C 0.49685 0.09907 0.74921 0.0
C158 C 0.50457 0.12026 0.72642 0.0
C159 C 0.54004 0.136 0.71543 0.0
C160 C 0.60639 0.15543 0.72314 0.0
H161 H 0.54732 0.15463 0.69925 0.0
C162 C 0.6319 0.14587 0.71347 0.0
C163 C 0.6699 0.16861 0.71762 0.0
C164 C 0.61927 0.18842 0.73535 0.0
H165 H 0.60044 0.19618 0.74315 0.0
C166 C 0.65616 0.21044 0.73981 0.0
H167 H 0.62217 0.12075 0.70352 0.0
C168 C 0.68097 0.20023 0.73187 0.0
H169 H 0.70934 0.21769 0.73657 0.0
H170 H 0.66553 0.2352 0.75023 0.0
H171 H 0.8071 0.56265 0.94314 0.0
C172 C 0.78305 0.56064 0.95227 0.0
C173 C 0.76408 0.57451 0.93846 0.0
C174 C 0.77058 0.54364 0.97707 0.0
H175 H 0.71645 0.58029 0.9385 0.0
C176 C 0.73162 0.57047 0.9493 0.0
C177 C 0.71911 0.55482 0.97426 0.0
C178 C 0.73909 0.54233 0.98823 0.0
C179 C 0.78905 0.52597 0.99083 0.0
H180 H 0.72947 0.53137 0.00776 0.0
C181 C 0.82609 0.53567 0.98621 0.0
C182 C 0.84198 0.51805 0.99947 0.0
C183 C 0.76873 0.4977 0.00846 0.0
H184 H 0.74005 0.48758 0.01177 0.0
C185 C 0.78458 0.48095 0.02181 0.0
H186 H 0.84281 0.55682 0.97267 0.0
C187 C 0.82081 0.49108 0.01749 0.0
H188 H 0.83218 0.47705 0.02768 0.0
H189 H 0.76842 0.45946 0.03531 0.0
H190 H 0.454 0.25018 0.92656 0.0
C191 C 0.4569 0.22919 0.93555 0.0
C192 C 0.43383 0.1942 0.92789 0.0
C193 C 0.48469 0.23737 0.9538 0.0
H194 H 0.418 0.14053 0.93425 0.0
C195 C 0.43857 0.16724 0.93876 0.0
C196 C 0.47004 0.175 0.95341 0.0
C197 C 0.49071 0.21022 0.96302 0.0
C198 C 0.51105 0.27505 0.95932 0.0
H199 H 0.51204 0.21727 0.97742 0.0
C200 C 0.49965 0.29853 0.96872 0.0
C201 C 0.52469 0.33509 0.97057 0.0
C202 C 0.54764 0.28834 0.9524 0.0
H203 H 0.55689 0.27089 0.94487 0.0
C204 C 0.5723 0.32442 0.95393 0.0
H205 H 0.47157 0.28845 0.9745 0.0
C206 C 0.56091 0.34766 0.96264 0.0
H207 H 0.58066 0.3756 0.96372 0.0
H208 H 0.60034 0.33446 0.94816 0.0
H209 H 0.76793 0.21241 0.9378 0.0
C210 C 0.78941 0.23662 0.94629 0.0
C211 C 0.82244 0.25586 0.93208 0.0
C212 C 0.7841 0.24911 0.97093 0.0
H213 H 0.8748 0.30374 0.93133 0.0
C214 C 0.84979 0.2883 0.94238 0.0
C215 C 0.84578 0.30026 0.9673 0.0
C216 C 0.81357 0.28009 0.98166 0.0
C217 C 0.74803 0.23162 0.98533 0.0
H218 H 0.81164 0.28932 1.00124 0.0
C219 C 0.7224 0.19497 0.98323 0.0
C220 C 0.68917 0.18005 0.99751 0.0
C221 C 0.73868 0.25255 1.00136 0.0
H222 H 0.75593 0.28091 1.00254 0.0
C223 C 0.70646 0.23759 0.01589 0.0
H224 H 0.72794 0.17802 0.97071 0.0
C225 C 0.68201 0.20163 0.01417 0.0
H226 H 0.65666 0.19073 0.02508 0.0
H227 H 0.70009 0.25416 0.02819 0.0
H228 H 0.56419 0.7996 0.1055 0.0
C229 C 0.56383 0.7779 0.09475 0.0
C230 C 0.58318 0.76209 0.10486 0.0
C231 C 0.5428 0.76466 0.07156 0.0
H232 H 0.59541 0.72003 0.09983 0.0
C233 C 0.5814 0.73292 0.09169 0.0
C234 C 0.56024 0.71914 0.06887 0.0
C235 C 0.5416 0.7354 0.05859 0.0
C236 C 0.51951 0.77905 0.0621 0.0
H237 H 0.52521 0.72441 0.04094 0.0
C238 C 0.53216 0.81576 0.06142 0.0
C239 C 0.50937 0.82834 0.05215 0.0
C240 C 0.4837 0.75548 0.05389 0.0
H241 H 0.47279 0.72719 0.05475 0.0
C242 C 0.46122 0.768 0.04489 0.0
H243 H 0.5596 0.83444 0.06763 0.0
C244 C 0.47394 0.80415 0.04396 0.0
H245 H 0.45606 0.81337 0.03683 0.0
H246 H 0.43376 0.74955 0.03865 0.0
H247 H 0.22412 0.77898 0.09627 0.0
C248 C 0.24577 0.80117 0.08576 0.0
C249 C 0.26009 0.83531 0.09648 0.0
C250 C 0.25967 0.79545 0.06206 0.0
H251 H 0.30098 0.89026 0.09211 0.0
C252 C 0.28927 0.86402 0.08357 0.0
C253 C 0.30428 0.85881 0.06028 0.0
C254 C 0.28879 0.82466 0.04931 0.0
C255 C 0.24566 0.75877 0.0518 0.0
H256 H 0.30025 0.82086 0.03118 0.0
C257 C 0.20818 0.7332 0.05255 0.0
C258 C 0.19594 0.69841 0.0436 0.0
C259 C 0.27028 0.74875 0.04193 0.0
H260 H 0.29921 0.76731 0.04159 0.0
C261 C 0.25807 0.71439 0.033 0.0
H262 H 0.18859 0.74023 0.05987 0.0
C263 C 0.22119 0.68936 0.03384 0.0
H264 H 0.21225 0.66281 0.02679 0.0
H265 H 0.27734 0.70707 0.02554 0.0
H266 H 0.23738 0.42595 0.08348 0.0
C267 C 0.21929 0.43535 0.07726 0.0
C268 C 0.19126 0.43134 0.09453 0.0
C269 C 0.22248 0.44907 0.05147 0.0
H270 H 0.14487 0.43861 0.09912 0.0
C271 C 0.1668 0.44219 0.08605 0.0
C272 C 0.1688 0.45531 0.06029 0.0
C273 C 0.19689 0.459 0.04321 0.0
C274 C 0.24921 0.44848 0.0321 0.0
H275 H 0.19811 0.4687 0.02325 0.0
C276 C 0.28565 0.45879 0.03908 0.0
C277 C 0.30921 0.45589 0.02039 0.0
C278 C 0.23722 0.43539 1.00635 0.0
H279 H 0.20951 0.42657 1.00039 0.0
C280 C 0.26025 0.43219 0.98816 0.0
H281 H 0.29567 0.46909 0.05872 0.0
C282 C 0.29578 0.44209 0.99515 0.0
H283 H 0.31288 0.43888 0.98076 0.0
H284 H 0.25035 0.42162 0.96857 0.0
H285 H 0.47462 0.89789 0.26514 0.0
C286 C 0.4521 0.89699 0.27607 0.0
C287 C 0.43119 0.90972 0.26394 0.0
C288 C 0.44072 0.87796 0.29994 0.0
H289 H 0.38421 0.91611 0.2678 0.0
C290 C 0.40063 0.90667 0.2773 0.0
C291 C 0.38975 0.88959 0.30204 0.0
C292 C 0.40973 0.87479 0.31311 0.0
C293 C 0.45352 0.85246 0.30504 0.0
H294 H 0.39987 0.85899 0.33098 0.0
C295 C 0.4887 0.86263 0.31484 0.0
C296 C 0.50233 0.83882 0.31334 0.0
C297 C 0.43191 0.81827 0.29486 0.0
H298 H 0.40516 0.81011 0.28694 0.0
C299 C 0.44532 0.79511 0.293 0.0
H300 H 0.50539 0.88883 0.32304 0.0
C301 C 0.48034 0.80548 0.30155 0.0
H302 H 0.49009 0.7869 0.2995 0.0
H303 H 0.42871 0.76915 0.28441 0.0
H304 H 0.12429 0.58313 0.2625 0.0
C305 C 0.12553 0.5615 0.27196 0.0
C306 C 0.09988 0.52672 0.26521 0.0
C307 C 0.15336 0.56849 0.29003 0.0
H308 H 0.07963 0.47177 0.27343 0.0
C309 C 0.1008 0.49852 0.27779 0.0
C310 C 0.13017 0.5046 0.29421 0.0
C311 C 0.15676 0.53999 0.29968 0.0
C312 C 0.17881 0.60552 0.29861 0.0
H313 H 0.17966 0.54532 0.31211 0.0
C314 C 0.16606 0.62942 0.30335 0.0
C315 C 0.19003 0.66419 0.31174 0.0
C316 C 0.21594 0.61721 0.30238 0.0
H317 H 0.22685 0.59991 0.29846 0.0
C318 C 0.23966 0.65167 0.31081 0.0
H319 H 0.13758 0.62109 0.30075 0.0
C320 C 0.22686 0.67506 0.31546 0.0
H321 H 0.24574 0.7018 0.32178 0.0
H322 H 0.26817 0.66038 0.31358 0.0
H323 H 0.42639 0.54191 0.27514 0.0
C324 C 0.45025 0.56304 0.28455 0.0
C325 C 0.48406 0.57719 0.27133 0.0
C326 C 0.44735 0.57679 0.30938 0.0
H327 H 0.54079 0.61721 0.2724 0.0
C328 C 0.51498 0.60558 0.28282 0.0
C329 C 0.51245 0.62059 0.30678 0.0
C330 C 0.47908 0.60551 0.3202 0.0
C331 C 0.41169 0.56243 0.324 0.0
H332 H 0.47832 0.61677 0.33918 0.0
C333 C 0.3837 0.52668 0.32178 0.0
C334 C 0.35165 0.5136 0.33726 0.0
C335 C 0.4057 0.58474 0.34111 0.0
H336 H 0.42492 0.61271 0.34245 0.0
C337 C 0.37462 0.57154 0.3569 0.0
H338 H 0.38678 0.50877 0.30855 0.0
C339 C 0.34807 0.53611 0.35537 0.0
H340 H 0.32394 0.52645 0.36763 0.0
H341 H 0.37096 0.589 0.37023 0.0
Tb342 Tb 0.49598 0.99191 0.98014 0.0
C343 C 0.55172 0.10783 0.06295 0.0
C344 C 0.61365 0.12212 0.07094 0.0
C345 C 0.59716 0.16776 0.07513 0.0
C346 C 0.57772 0.09773 0.06327 0.0
C347 C 0.56091 0.14277 0.06939 0.0
C348 C 0.62348 0.15741 0.07604 0.0
C349 C 0.49727 0.12489 0.06653 0.0
N350 N 0.51698 0.08289 0.0575 0.0
C351 C 0.48944 0.09053 0.06055 0.0
C352 C 0.53323 0.15127 0.0706 0.0
Tb353 Tb 0.50728 0.02754 0.04672 0.0
N354 N 0.56715 0.06336 0.05826 0.0
C355 C 0.59047 0.05105 0.06345 0.0
C356 C 0.63811 0.10995 0.07465 0.0
C357 C 0.62614 0.07407 0.07164 0.0
H358 H 0.46155 0.0703 0.05716 0.0
H359 H 0.64454 0.06414 0.07525 0.0
H360 H 0.65108 0.17661 0.08151 0.0
H361 H 0.47555 0.13099 0.06802 0.0
H362 H 0.58225 0.02357 0.06127 0.0
H363 H 0.35088 0.93142 0.96609 0.0
H364 H 0.66585 0.12774 0.08074 0.0
H365 H 0.55168 0.96414 0.95866 0.0
H366 H 0.4132 0.9804 0.97328 0.0
H367 H 0.54791 0.90779 0.94604 0.0
H368 H 0.60487 0.19484 0.0798 0.0
H369 H 0.33979 0.87061 0.95975 0.0
H370 H 0.36592 0.83035 0.95353 0.0
H371 H 0.53921 0.17783 0.07539 0.0
H372 H 0.42 0.82385 0.94817 0.0
N373 N 0.43722 0.94796 0.97225 0.0
C374 C 0.40881 0.95418 0.97057 0.0
C375 C 0.36721 0.89212 0.96294 0.0
C376 C 0.39678 0.88637 0.96237 0.0
C377 C 0.37338 0.92638 0.96643 0.0
C378 C 0.43185 0.91534 0.9667 0.0
H379 H 0.48822 0.85279 0.94494 0.0
N380 N 0.49493 0.94105 0.96634 0.0
C381 C 0.52348 0.9084 0.95126 0.0
C382 C 0.46192 0.91167 0.9638 0.0
C383 C 0.52551 0.94029 0.9585 0.0
C384 C 0.48977 0.87741 0.95073 0.0
C385 C 0.4583 0.87895 0.95632 0.0
O386 O 0.52864 0.01022 0.9458 0.0
O387 O 0.5309 0.03307 0.00762 0.0
O388 O 0.50729 0.06629 0.01946 0.0
O389 O 0.47708 0.03113 0.98331 0.0
O390 O 0.55554 0.01773 0.98067 0.0
O391 O 0.47617 0.00595 0.94656 0.0
O392 O 0.47622 0.02438 0.08011 0.0
O393 O 0.47181 0.98497 0.01972 0.0
O394 O 0.50926 0.95869 1.00451 0.0
O395 O 0.52349 0.98657 0.04616 0.0
O396 O 0.44857 0.00551 0.04343 0.0
O397 O 0.51395 0.00535 0.08225 0.0
C398 C 0.56211 0.03933 1.00002 0.0
C399 C 0.4981 0.99929 0.90469 0.0
C400 C 0.49944 0.00955 0.85673 0.0
C401 C 0.5012 0.02125 0.88318 0.0
C402 C 0.49375 0.97537 0.85228 0.0
C403 C 0.49127 0.96494 0.89955 0.0
C404 C 0.48913 0.95311 0.87353 0.0
C405 C 0.48982 0.06127 0.99686 0.0
C406 C 0.50449 0.01333 0.9321 0.0
C407 C 0.42343 0.84936 0.95356 0.0
C408 C 0.39265 0.85307 0.9566 0.0
C409 C 0.44107 0.98088 0.02641 0.0
C410 C 0.46148 0.97822 0.11053 0.0
C411 C 0.46832 0.9735 0.13717 0.0
C412 C 0.44054 0.94686 0.15285 0.0
C413 C 0.40648 0.9245 0.14143 0.0
C414 C 0.4269 0.95572 0.09991 0.0
C415 C 0.3998 0.92887 0.11511 0.0
C416 C 0.52006 0.96146 0.02946 0.0
C417 C 0.4889 0.00865 0.09484 0.0
H418 H 0.50604 0.04771 0.88695 0.0
H419 H 0.49263 0.9658 0.83224 0.0
H420 H 0.48818 0.94737 0.91554 0.0
H421 H 0.48434 0.92671 0.86982 0.0
H422 H 0.49461 0.99098 0.1459 0.0
H423 H 0.3849 0.90381 0.15307 0.0
H424 H 0.42042 0.95946 0.08007 0.0
H425 H 0.37327 0.91184 0.10663 0.0
Tb426 Tb 0.0322 0.50741 0.9874 0.0
C427 C 0.91173 0.44809 0.07015 0.0
C428 C 0.88516 0.48573 0.07095 0.0
C429 C 0.84771 0.42318 0.08078 0.0
C430 C 0.91498 0.48068 0.06604 0.0
C431 C 0.87828 0.41902 0.07798 0.0
C432 C 0.8512 0.45658 0.07744 0.0
C433 C 0.90878 0.38518 0.08262 0.0
N434 N 0.94218 0.44549 0.06778 0.0
C435 C 0.94147 0.41494 0.07516 0.0
C436 C 0.87693 0.38707 0.08368 0.0
Tb437 Tb 0.99424 0.49543 0.0539 0.0
N438 N 0.94842 0.50819 0.06024 0.0
C439 C 0.95458 0.54195 0.062 0.0
C440 C 0.89093 0.52014 0.07093 0.0
C441 C 0.92606 0.54843 0.06737 0.0
H442 H 0.96578 0.41299 0.07433 0.0
H443 H 0.93122 0.57527 0.06858 0.0
H444 H 0.82783 0.45984 0.08087 0.0
H445 H 0.9082 0.36083 0.08762 0.0
H446 H 0.98161 0.56412 0.05943 0.0
H447 H 0.08427 0.41691 0.98258 0.0
H448 H 0.86885 0.52524 0.07487 0.0
H449 H 0.06723 0.58529 0.95754 0.0
H450 H 0.03717 0.43388 0.98482 0.0
H451 H 0.128 0.63409 0.94514 0.0
H452 H 0.82164 0.40111 0.08654 0.0
H453 H 0.14905 0.46303 0.97904 0.0
H454 H 0.19528 0.52739 0.97227 0.0
H455 H 0.85172 0.36406 0.08969 0.0
H456 H 0.20738 0.58746 0.96197 0.0
N457 N 0.07432 0.48903 0.98396 0.0
C458 C 0.06507 0.45426 0.98364 0.0
C459 C 0.12835 0.47058 0.98013 0.0
C460 C 0.1374 0.50595 0.97805 0.0
C461 C 0.09184 0.44451 0.98207 0.0
C462 C 0.10928 0.51418 0.97955 0.0
H463 H 0.18216 0.62748 0.95107 0.0
N464 N 0.08699 0.55232 0.97204 0.0
C465 C 0.12509 0.60995 0.95336 0.0
C466 C 0.11596 0.54739 0.97347 0.0
C467 C 0.0907 0.58228 0.96047 0.0
C468 C 0.1556 0.60618 0.95684 0.0
C469 C 0.1511 0.57411 0.96618 0.0
O470 O 0.01904 0.51907 0.94986 0.0
O471 O 0.99045 0.5068 0.01263 0.0
O472 O 0.95525 0.45078 0.02993 0.0
O473 O 0.99129 0.45109 0.99495 0.0
O474 O 1.00668 0.54024 0.98158 0.0
O475 O 0.01075 0.46741 0.95848 0.0
O476 O 0.01284 0.48581 0.08984 0.0
O477 O 0.03723 0.4973 0.02886 0.0
O478 O 0.06769 0.55568 0.00934 0.0
O479 O 0.03181 0.55265 0.04594 0.0
O480 O 0.02204 0.46533 0.06086 0.0
O481 O 1.00725 0.53179 0.08533 0.0
C482 C 0.98455 0.52944 1.00136 0.0
C483 C 0.02394 0.48659 0.91419 0.0
C484 C 0.01349 0.47358 0.86694 0.0
C485 C 1.00109 0.47723 0.89201 0.0
C486 C 0.04921 0.47998 0.86421 0.0
C487 C 0.05963 0.49314 0.91115 0.0
C488 C 0.07218 0.48991 0.88621 0.0
C489 C 0.96049 0.43576 0.00888 0.0
C490 C 0.00951 0.48795 0.9404 0.0
C491 C 0.18002 0.56716 0.96708 0.0
C492 C 0.17314 0.53299 0.97296 0.0
C493 C 0.04408 0.47577 0.04113 0.0
C494 C 0.99762 0.50626 0.12823 0.0
C495 C 0.01963 0.51306 0.15064 0.0
C496 C 1.00402 0.50277 0.17608 0.0
C497 C 0.9661 0.48616 0.17887 0.0
C498 C 0.95991 0.49068 0.13152 0.0
C499 C 0.94427 0.48071 0.15671 0.0
C500 C 0.06105 0.56981 0.03043 0.0
C501 C 0.01433 0.513 0.10166 0.0
H502 H 0.97347 0.47214 0.89427 0.0
H503 H 0.05922 0.47726 0.84504 0.0
H504 H 0.0776 0.50037 0.92801 0.0
H505 H 0.09968 0.49484 0.88397 0.0
H506 H 0.04883 0.52524 0.14823 0.0
H507 H 0.9535 0.47758 0.1982 0.0
H508 H 0.9425 0.48577 0.11473 0.0
H509 H 0.91509 0.46826 0.15901 0.0
Tb510 Tb 0.52929 0.51267 0.0524 0.0
C511 C 0.47596 0.56862 0.96419 0.0
C512 C 0.41219 0.52638 0.95919 0.0
C513 C 0.43442 0.5884 0.94994 0.0
C514 C 0.4476 0.53464 0.96647 0.0
C515 C 0.47003 0.59579 0.95501 0.0
C516 C 0.4055 0.55362 0.95187 0.0
C517 C 0.53502 0.63323 0.9513 0.0
N518 N 0.50993 0.57404 0.96794 0.0
C519 C 0.53931 0.60504 0.9597 0.0
C520 C 0.5002 0.62884 0.94953 0.0
Tb521 Tb 0.51482 0.527 0.9832 0.0
N522 N 0.45542 0.50916 0.97324 0.0
C523 C 0.42932 0.47443 0.97114 0.0
C524 C 0.38503 0.49089 0.95824 0.0
C525 C 0.39375 0.46475 0.96393 0.0
H526 H 0.56617 0.60823 0.95994 0.0
H527 H 0.37311 0.43714 0.96279 0.0
H528 H 0.37835 0.54788 0.9467 0.0
H529 H 0.55851 0.6581 0.94578 0.0
H530 H 0.43575 0.45413 0.97537 0.0
H531 H 0.67444 0.5811 0.06611 0.0
H532 H 0.35764 0.48346 0.95235 0.0
H533 H 0.46506 0.43332 0.07265 0.0
H534 H 0.61481 0.57545 0.05616 0.0
H535 H 0.46142 0.37978 0.09185 0.0
H536 H 0.42919 0.60897 0.9432 0.0
H537 H 0.67776 0.5286 0.08036 0.0
H538 H 0.64443 0.46437 0.09366 0.0
H539 H 0.49686 0.65046 0.94249 0.0
H540 H 0.5862 0.40972 0.10144 0.0
N541 N 0.58533 0.5201 0.06203 0.0
C542 C 0.61622 0.55226 0.06127 0.0
C543 C 0.65169 0.52596 0.07551 0.0
C544 C 0.61952 0.49366 0.0785 0.0
C545 C 0.64993 0.55561 0.06742 0.0
C546 C 0.5864 0.49182 0.07191 0.0
H547 H 0.51769 0.37804 0.10116 0.0
N548 N 0.52291 0.46167 0.07068 0.0
C549 C 0.48765 0.40258 0.0876 0.0
C550 C 0.55394 0.46155 0.07677 0.0
C551 C 0.48983 0.43306 0.0768 0.0
C552 C 0.51947 0.40168 0.09282 0.0
C553 C 0.55321 0.43156 0.08766 0.0
O554 O 0.50099 0.50689 0.08828 0.0
O555 O 0.49207 0.51108 0.02234 0.0
O556 O 0.52068 0.57183 0.00701 0.0
O557 O 0.55323 0.56925 0.04336 0.0
O558 O 0.47012 0.48952 0.05775 0.0
O559 O 0.55316 0.55307 0.08101 0.0
O560 O 0.54992 0.54065 0.95019 0.0
O561 O 0.55173 0.52425 0.01187 0.0
O562 O 0.52213 0.46639 0.03111 0.0
O563 O 0.49925 0.47037 0.9898 0.0
O564 O 0.57371 0.562 0.9834 0.0
O565 O 0.49832 0.493 0.94989 0.0
C566 C 0.46212 0.4966 0.035 0.0
C567 C 0.53755 0.53513 0.12595 0.0
C568 C 0.52968 0.54133 0.17354 0.0
C569 C 0.51844 0.54 0.14701 0.0
C570 C 0.55957 0.53679 0.1787 0.0
C571 C 0.5673 0.53066 0.13172 0.0
C572 C 0.57806 0.5313 0.15794 0.0
C573 C 0.53998 0.58548 0.02892 0.0
C574 C 0.52701 0.5362 0.09818 0.0
C575 C 0.58611 0.43256 0.09323 0.0
C576 C 0.61925 0.46362 0.0887 0.0
C577 C 0.58219 0.54853 1.00282 0.0
C578 C 0.52193 0.52136 0.90856 0.0
C579 C 0.53655 0.51136 0.88728 0.0
C580 C 0.53449 0.52153 0.86106 0.0
C581 C 0.51746 0.54156 0.85648 0.0
C582 C 0.50412 0.54039 0.90327 0.0
C583 C 0.50204 0.55054 0.87743 0.0
C584 C 0.50901 0.45365 0.00734 0.0
C585 C 0.52724 0.51363 0.93616 0.0
H586 H 0.49547 0.54359 0.14278 0.0
H587 H 0.56873 0.5377 0.19888 0.0
H588 H 0.58259 0.52716 0.11603 0.0
H589 H 0.60113 0.52794 0.16216 0.0
H590 H 0.55 0.49627 0.89111 0.0
H591 H 0.51573 0.54987 0.83656 0.0
H592 H 0.4921 0.54774 0.91906 0.0
H593 H 0.48856 0.56557 0.87364 0.0
Tb594 Tb 0.16072 0.3235 0.31424 0.0
C595 C 0.20426 0.43204 0.4043 0.0
C596 C 0.2687 0.45533 0.40995 0.0
C597 C 0.24224 0.49206 0.4204 0.0
C598 C 0.23421 0.42793 0.40203 0.0
C599 C 0.20765 0.46379 0.41418 0.0
C600 C 0.27277 0.48783 0.41828 0.0
C601 C 0.14228 0.4363 0.41294 0.0
N602 N 0.17137 0.40403 0.39819 0.0
C603 C 0.1403 0.40527 0.40344 0.0
C604 C 0.17612 0.46584 0.41806 0.0
Tb605 Tb 0.17086 0.35426 0.38257 0.0
N606 N 0.22897 0.39598 0.39424 0.0
C607 C 0.25656 0.38861 0.39671 0.0
C608 C 0.29758 0.44859 0.41069 0.0
C609 C 0.29117 0.41473 0.40484 0.0
H610 H 0.11393 0.38266 0.39963 0.0
H611 H 0.31298 0.40879 0.4063 0.0
H612 H 0.29914 0.50937 0.42406 0.0
H613 H 0.11767 0.43738 0.41637 0.0
H614 H 0.25229 0.36267 0.39229 0.0
H615 H 0.01502 0.25257 0.30084 0.0
H616 H 0.32446 0.46884 0.41678 0.0
H617 H 0.22183 0.30436 0.28973 0.0
H618 H 0.07516 0.3046 0.30899 0.0
H619 H 0.22371 0.2517 0.27436 0.0
H620 H 0.24551 0.51686 0.42764 0.0
H621 H 0.00983 0.19447 0.29189 0.0
H622 H 0.04145 0.15955 0.2831 0.0
H623 H 0.17756 0.4898 0.42552 0.0
H624 H 0.09876 0.15929 0.27593 0.0
N625 N 0.10379 0.27666 0.30554 0.0
C626 C 0.07334 0.27969 0.30486 0.0
C627 C 0.0363 0.21736 0.29541 0.0
C628 C 0.06789 0.21498 0.29388 0.0
C629 C 0.03914 0.2501 0.30033 0.0
C630 C 0.10157 0.24562 0.29873 0.0
H631 H 0.16709 0.19381 0.27217 0.0
N632 N 0.16492 0.2764 0.29776 0.0
C633 C 0.19812 0.24946 0.28029 0.0
C634 C 0.13343 0.24542 0.29474 0.0
C635 C 0.19693 0.27929 0.28911 0.0
C636 C 0.16613 0.21682 0.27915 0.0
C637 C 0.13307 0.21468 0.28573 0.0
O638 O 0.19372 0.34827 0.28086 0.0
O639 O 0.19395 0.3629 0.34318 0.0
O640 O 0.16569 0.39283 0.3583 0.0
O641 O 0.13865 0.35977 0.3203 0.0
O642 O 0.22038 0.35215 0.31447 0.0
O643 O 0.13829 0.33623 0.28156 0.0
O644 O 0.13385 0.33153 0.4143 0.0
O645 O 0.13659 0.31351 0.35399 0.0
O646 O 0.17399 0.28904 0.33686 0.0
O647 O 0.19336 0.31841 0.37773 0.0
O648 O 0.11219 0.33055 0.38032 0.0
O649 O 0.18695 0.33732 0.41654 0.0
C650 C 0.22559 0.37162 0.33498 0.0
C651 C 0.16423 0.33737 0.23942 0.0
C652 C 0.16918 0.35111 0.19187 0.0
C653 C 0.17019 0.36137 0.21865 0.0
C654 C 0.16206 0.31669 0.18629 0.0
C655 C 0.15629 0.30296 0.23313 0.0
C656 C 0.15538 0.29278 0.20676 0.0
C657 C 0.1486 0.38827 0.33543 0.0
C658 C 0.1679 0.34881 0.26747 0.0
C659 C 0.09967 0.18336 0.2825 0.0
C660 C 0.06706 0.18351 0.28658 0.0
C661 C 0.1056 0.30823 0.36156 0.0
C662 C 0.15881 0.33812 0.45714 0.0
C663 C 0.14888 0.31271 0.47743 0.0
C664 C 0.14827 0.32207 0.5042 0.0
C665 C 0.15831 0.35717 0.51036 0.0
C666 C 0.16921 0.37304 0.46394 0.0
C667 C 0.16897 0.38247 0.49037 0.0
C668 C 0.18769 0.29262 0.36096 0.0
C669 C 0.15653 0.32747 0.42906 0.0
H670 H 0.17586 0.3879 0.22324 0.0
H671 H 0.16118 0.30818 0.16595 0.0
H672 H 0.15102 0.28394 0.24852 0.0
H673 H 0.14951 0.26623 0.20218 0.0
H674 H 0.141 0.28567 0.47241 0.0
H675 H 0.15801 0.36499 0.53075 0.0
H676 H 0.17715 0.393 0.44888 0.0
H677 H 0.17682 0.40946 0.49537 0.0
Tb678 Tb 0.69268 0.82856 0.32083 0.0
C679 C 0.57903 0.77722 0.40963 0.0
C680 C 0.55662 0.81833 0.40953 0.0
C681 C 0.51812 0.75866 0.42593 0.0
C682 C 0.58401 0.81001 0.40368 0.0
C683 C 0.54635 0.75131 0.4214 0.0
C684 C 0.52337 0.79226 0.42022 0.0
C685 C 0.57433 0.71554 0.42787 0.0
N686 N 0.60782 0.77217 0.40656 0.0
C687 C 0.60653 0.74261 0.41697 0.0
C688 C 0.54387 0.71967 0.42974 0.0
Tb689 Tb 0.65992 0.81793 0.38854 0.0
N690 N 0.6169 0.83464 0.39416 0.0
C691 C 0.62473 0.86884 0.39149 0.0
C692 C 0.56389 0.85286 0.40522 0.0
C693 C 0.59827 0.87833 0.39639 0.0
H694 H 0.63023 0.7396 0.41647 0.0
H695 H 0.60456 0.90535 0.39355 0.0
H696 H 0.50186 0.79803 0.42459 0.0
H697 H 0.57324 0.69178 0.43524 0.0
H698 H 0.65124 0.88882 0.38528 0.0
H699 H 0.76663 0.75811 0.31142 0.0
H700 H 0.54352 0.8603 0.40927 0.0
H701 H 0.71288 0.90757 0.29662 0.0
H702 H 0.71256 0.76439 0.31794 0.0
H703 H 0.76694 0.96104 0.28022 0.0
H704 H 0.49273 0.73905 0.43481 0.0
H705 H 0.82621 0.81075 0.30174 0.0
H706 H 0.86158 0.87562 0.2907 0.0
H707 H 0.51919 0.69902 0.43877 0.0
H708 H 0.86139 0.93087 0.28135 0.0
N709 N 0.74137 0.82019 0.31399 0.0
C710 C 0.73848 0.78766 0.31449 0.0
C711 C 0.80259 0.81367 0.3049 0.0
C712 C 0.8047 0.84646 0.30197 0.0
C713 C 0.76903 0.78393 0.31037 0.0
C714 C 0.77304 0.84864 0.30618 0.0
H715 H 0.82599 0.96283 0.27695 0.0
N716 N 0.74089 0.87907 0.30319 0.0
C717 C 0.76897 0.93819 0.28584 0.0
C718 C 0.77272 0.87915 0.30016 0.0
C719 C 0.73826 0.90766 0.29504 0.0
C720 C 0.80227 0.93914 0.28407 0.0
C721 C 0.80433 0.90917 0.29086 0.0
O722 O 0.67211 0.83423 0.28428 0.0
O723 O 0.65016 0.82507 0.34745 0.0
O724 O 0.62474 0.76792 0.36765 0.0
O725 O 0.65991 0.77198 0.33041 0.0
O726 O 0.66085 0.8551 0.31484 0.0
O727 O 0.67769 0.7887 0.29206 0.0
O728 O 0.68001 0.80938 0.42424 0.0
O729 O 0.70199 0.82055 0.36231 0.0
O730 O 0.73157 0.87556 0.34148 0.0
O731 O 0.70045 0.87485 0.37988 0.0
O732 O 0.68524 0.78531 0.39275 0.0
O733 O 0.67709 0.85658 0.41866 0.0
C734 C 0.64007 0.84425 0.33528 0.0
C735 C 0.6833 0.80747 0.24738 0.0
C736 C 0.67168 0.80057 0.19971 0.0
C737 C 0.65992 0.80098 0.2258 0.0
C738 C 0.70737 0.80758 0.19541 0.0
C739 C 0.71891 0.81456 0.24269 0.0
C740 C 0.73088 0.81476 0.2168 0.0
C741 C 0.63099 0.75445 0.34585 0.0
C742 C 0.66948 0.80544 0.27453 0.0
C743 C 0.83667 0.908 0.28824 0.0
C744 C 0.83682 0.87661 0.2937 0.0
C745 C 0.70768 0.79736 0.37322 0.0
C746 C 0.67039 0.8346 0.46252 0.0
C747 C 0.69441 0.84359 0.48399 0.0
C748 C 0.68111 0.8366 0.51024 0.0
C749 C 0.64355 0.8211 0.51472 0.0
C750 C 0.63319 0.82042 0.46753 0.0
C751 C 0.61985 0.81362 0.49347 0.0
C752 C 0.72836 0.8908 0.36298 0.0
C753 C 0.68439 0.83819 0.43523 0.0
H754 H 0.63233 0.79541 0.22928 0.0
H755 H 0.71693 0.80733 0.17548 0.0
H756 H 0.73733 0.81951 0.25895 0.0
H757 H 0.75833 0.82011 0.21333 0.0
H758 H 0.72329 0.85501 0.48029 0.0
H759 H 0.63266 0.81511 0.53471 0.0
H760 H 0.61439 0.81433 0.45152 0.0
H761 H 0.591 0.80218 0.49708 0.0
Tb762 Tb 0.19868 0.84144 0.38303 0.0
C763 C 0.14575 0.90237 0.29852 0.0
C764 C 0.08103 0.86266 0.29547 0.0
C765 C 0.10592 0.92537 0.28723 0.0
C766 C 0.11624 0.86893 0.30118 0.0
C767 C 0.14115 0.9309 0.29091 0.0
C768 C 0.07587 0.89123 0.2894 0.0
C769 C 0.20648 0.96698 0.28805 0.0
N770 N 0.17932 0.90635 0.3018 0.0
C771 C 0.20963 0.93774 0.29529 0.0
C772 C 0.17211 0.96371 0.28626 0.0
Tb773 Tb 0.18155 0.85717 0.31546 0.0
N774 N 0.12253 0.84206 0.30671 0.0
C775 C 0.09517 0.80789 0.304 0.0
C776 C 0.05249 0.82774 0.29446 0.0
C777 C 0.05985 0.80024 0.29785 0.0
H778 H 0.23634 0.94065 0.29675 0.0
H779 H 0.03827 0.77309 0.29604 0.0
H780 H 0.04895 0.88701 0.28536 0.0
H781 H 0.23056 0.99201 0.28379 0.0
H782 H 0.10037 0.78632 0.30662 0.0
H783 H 0.34374 0.92896 0.39139 0.0
H784 H 0.02506 0.82173 0.28995 0.0
H785 H 0.14833 0.76202 0.40983 0.0
H786 H 0.27991 0.91359 0.38675 0.0
H787 H 0.15636 0.71265 0.42483 0.0
H788 H 0.10172 0.94701 0.28167 0.0
H789 H 0.35891 0.88182 0.39894 0.0
H790 H 0.33665 0.8175 0.40846 0.0
H791 H 0.16976 0.98634 0.28043 0.0
H792 H 0.28514 0.75812 0.41792 0.0
N793 N 0.25882 0.85837 0.38969 0.0
C794 C 0.28599 0.89282 0.38952 0.0
C795 C 0.33079 0.875 0.39666 0.0
C796 C 0.30263 0.84009 0.39933 0.0
C797 C 0.32233 0.90164 0.39245 0.0
C798 C 0.26658 0.8328 0.39612 0.0
H799 H 0.21757 0.71882 0.42463 0.0
N800 N 0.2042 0.79549 0.40015 0.0
C801 C 0.17961 0.73701 0.41818 0.0
C802 C 0.23802 0.79991 0.40154 0.0
C803 C 0.17519 0.76513 0.4097 0.0
C804 C 0.21415 0.74053 0.41794 0.0
C805 C 0.24408 0.77263 0.41016 0.0
O806 O 0.16851 0.82923 0.41873 0.0
O807 O 0.16075 0.84399 0.35572 0.0
O808 O 0.18554 0.90043 0.33946 0.0
O809 O 0.21725 0.89831 0.3762 0.0
O810 O 0.13938 0.80747 0.38483 0.0
O811 O 0.21574 0.88009 0.41303 0.0
O812 O 0.21526 0.87051 0.28171 0.0
O813 O 0.21946 0.85249 0.34231 0.0
O814 O 0.18562 0.7935 0.36099 0.0
O815 O 0.16135 0.80007 0.32103 0.0
O816 O 0.24061 0.88969 0.3137 0.0
O817 O 0.16224 0.82441 0.28154 0.0
C818 C 0.13054 0.81995 0.36499 0.0
C819 C 0.20111 0.85953 0.45718 0.0
C820 C 0.19536 0.8694 0.5044 0.0
C821 C 0.18357 0.86698 0.47795 0.0
C822 C 0.22433 0.86346 0.50978 0.0
C823 C 0.22978 0.85347 0.46306 0.0
C824 C 0.24121 0.85533 0.48926 0.0
C825 C 0.20419 0.91452 0.36129 0.0
C826 C 0.19019 0.85966 0.42948 0.0
C827 C 0.27984 0.77883 0.41168 0.0
C828 C 0.30915 0.81261 0.40627 0.0
C829 C 0.2498 0.87619 0.33264 0.0
C830 C 0.18551 0.85409 0.24052 0.0
C831 C 0.20124 0.84672 0.21853 0.0
C832 C 0.19901 0.85862 0.19297 0.0
C833 C 0.18086 0.87786 0.18976 0.0
C834 C 0.16649 0.87227 0.23659 0.0
C835 C 0.16436 0.88424 0.2114 0.0
C836 C 0.17033 0.78193 0.33748 0.0
C837 C 0.19105 0.84463 0.26751 0.0
H838 H 0.16134 0.87164 0.47352 0.0
H839 H 0.23392 0.86519 0.52992 0.0
H840 H 0.24357 0.8477 0.44741 0.0
H841 H 0.26347 0.85079 0.49366 0.0
H842 H 0.2156 0.83227 0.2213 0.0
H843 H 0.17901 0.88747 0.17036 0.0
H844 H 0.15351 0.87749 0.25292 0.0
H845 H 0.14995 0.89861 0.20867 0.0
Tb846 Tb 0.82923 0.65512 0.65133 0.0
C847 C 0.87262 0.76169 0.74341 0.0
C848 C 0.93755 0.78677 0.74684 0.0
C849 C 0.90982 0.82136 0.7604 0.0
C850 C 0.9031 0.75899 0.73922 0.0
C851 C 0.87538 0.79258 0.7546 0.0
C852 C 0.94092 0.81845 0.75654 0.0
C853 C 0.80985 0.76329 0.75511 0.0
N854 N 0.83997 0.73322 0.7377 0.0
C855 C 0.80857 0.73321 0.74419 0.0
C856 C 0.84342 0.79325 0.76014 0.0
Tb857 Tb 0.84024 0.6848 0.71999 0.0
N858 N 0.89847 0.72769 0.73032 0.0
C859 C 0.92671 0.72112 0.73168 0.0
C860 C 0.96708 0.78101 0.74616 0.0
C861 C 0.96135 0.74764 0.73942 0.0
H862 H 0.78243 0.71027 0.74035 0.0
H863 H 0.98364 0.74231 0.73999 0.0
H864 H 0.96722 0.84028 0.76212 0.0
H865 H 0.78494 0.76334 0.75964 0.0
H866 H 0.92298 0.69553 0.72673 0.0
H867 H 0.68355 0.5789 0.63864 0.0
H868 H 0.99396 0.80153 0.75203 0.0
H869 H 0.89283 0.63989 0.62579 0.0
H870 H 0.74238 0.63226 0.64728 0.0
H871 H 0.89733 0.58909 0.60944 0.0
H872 H 0.91259 0.84551 0.76868 0.0
H873 H 0.68132 0.52244 0.62823 0.0
H874 H 0.7155 0.49032 0.61821 0.0
H875 H 0.84435 0.81649 0.76867 0.0
H876 H 0.77417 0.49308 0.61037 0.0
N877 N 0.77332 0.6068 0.64251 0.0
C878 C 0.74191 0.60815 0.64243 0.0
C879 C 0.70724 0.54595 0.63194 0.0
C880 C 0.73974 0.54529 0.6299 0.0
C881 C 0.70842 0.57777 0.63766 0.0
C882 C 0.77267 0.57668 0.635 0.0
H883 H 0.84231 0.53005 0.60665 0.0
N884 N 0.83599 0.60978 0.63401 0.0
C885 C 0.87127 0.58553 0.61562 0.0
C886 C 0.8053 0.57816 0.63062 0.0
C887 C 0.86859 0.61431 0.62508 0.0
C888 C 0.84019 0.55224 0.61412 0.0
C889 C 0.80647 0.54842 0.62099 0.0
O890 O 0.86213 0.6836 0.6188 0.0
O891 O 0.86235 0.69567 0.68004 0.0
O892 O 0.83008 0.72113 0.69666 0.0
O893 O 0.80365 0.68799 0.65859 0.0
O894 O 0.8887 0.68457 0.65138 0.0
O895 O 0.80514 0.66515 0.61824 0.0
O896 O 0.80781 0.6658 0.75472 0.0
O897 O 0.80599 0.64427 0.69138 0.0
O898 O 0.84367 0.62098 0.67313 0.0
O899 O 0.86411 0.65044 0.71383 0.0
O900 O 0.78118 0.65807 0.7198 0.0
O901 O 0.85677 0.66328 0.75044 0.0
C902 C 0.89401 0.70469 0.67147 0.0
C903 C 0.83454 0.67115 0.57664 0.0
C904 C 0.84312 0.68693 0.52934 0.0
C905 C 0.84051 0.69549 0.55609 0.0
C906 C 0.8398 0.65391 0.52364 0.0
C907 C 0.82987 0.63794 0.57005 0.0
C908 C 0.83277 0.62952 0.54379 0.0
C909 C 0.81206 0.71578 0.67409 0.0
C910 C 0.83537 0.68124 0.60486 0.0
C911 C 0.77388 0.51638 0.61745 0.0
C912 C 0.7405 0.51482 0.62191 0.0
C913 C 0.77486 0.63715 0.70013 0.0
C914 C 0.83991 0.66882 0.79423 0.0
C915 C 0.81874 0.64642 0.81517 0.0
C916 C 0.8302 0.65511 0.84183 0.0
C917 C 0.86264 0.68669 0.84712 0.0
C918 C 0.87184 0.70041 0.80027 0.0
C919 C 0.88302 0.70926 0.82653 0.0
C920 C 0.85836 0.62488 0.69686 0.0
C921 C 0.83012 0.65782 0.76625 0.0
H922 H 0.84344 0.72099 0.56087 0.0
H923 H 0.84191 0.64673 0.50337 0.0
H924 H 0.8243 0.61852 0.58514 0.0
H925 H 0.82958 0.60394 0.53903 0.0
H926 H 0.79398 0.622 0.81075 0.0
H927 H 0.87212 0.69396 0.86734 0.0
H928 H 0.88863 0.71794 0.78469 0.0
H929 H 0.90786 0.73355 0.83092 0.0
Tb930 Tb 0.36448 0.16864 0.64996 0.0
C931 C 0.24486 0.10443 0.73263 0.0
C932 C 0.21592 0.13999 0.73322 0.0
C933 C 0.18041 0.07714 0.74259 0.0
C934 C 0.24671 0.13643 0.72857 0.0
C935 C 0.21192 0.07448 0.74014 0.0
C936 C 0.18245 0.10993 0.73928 0.0
C937 C 0.24466 0.0428 0.74505 0.0
N938 N 0.27614 0.10328 0.73048 0.0
C939 C 0.27677 0.07338 0.73785 0.0
C940 C 0.21198 0.04319 0.74583 0.0
Tb941 Tb 0.32708 0.15435 0.71664 0.0
N942 N 0.27969 0.16482 0.72308 0.0
C943 C 0.28445 0.19805 0.72513 0.0
C944 C 0.22026 0.17387 0.73342 0.0
C945 C 0.25494 0.20308 0.73035 0.0
H946 H 0.30174 0.07257 0.73716 0.0
H947 H 0.25897 0.22951 0.73175 0.0
H948 H 0.15834 0.11203 0.74246 0.0
H949 H 0.24515 0.01896 0.75003 0.0
H950 H 0.31109 0.2209 0.72281 0.0
H951 H 0.42249 0.08318 0.64354 0.0
H952 H 0.19741 0.17785 0.7372 0.0
H953 H 0.39604 0.24681 0.62099 0.0
H954 H 0.37337 0.0974 0.64638 0.0
H955 H 0.45557 0.29733 0.60838 0.0
H956 H 0.1547 0.05435 0.74807 0.0
H957 H 0.48641 0.13133 0.63993 0.0
H958 H 0.53031 0.19633 0.63323 0.0
H959 H 0.18721 0.01953 0.7516 0.0
H960 H 0.53942 0.25548 0.62338 0.0
N961 N 0.40854 0.15289 0.64577 0.0
C962 C 0.40087 0.11859 0.64516 0.0
C963 C 0.46481 0.13765 0.6413 0.0
C964 C 0.47221 0.17254 0.63944 0.0
C965 C 0.42879 0.11044 0.64326 0.0
C966 C 0.44298 0.17914 0.64125 0.0
H967 H 0.5114 0.29335 0.61333 0.0
N968 N 0.41806 0.21522 0.63442 0.0
C969 C 0.45391 0.27352 0.61618 0.0
C970 C 0.44799 0.21183 0.6354 0.0
C971 C 0.4202 0.24481 0.62335 0.0
C972 C 0.48537 0.27123 0.61912 0.0
C973 C 0.48251 0.23966 0.62805 0.0
O974 O 0.34913 0.17996 0.61316 0.0
O975 O 0.32187 0.16569 0.67556 0.0
O976 O 0.28931 0.10915 0.6928 0.0
O977 O 0.32496 0.1116 0.65682 0.0
O978 O 0.3379 0.20056 0.64532 0.0
O979 O 0.345 0.12959 0.62029 0.0
O980 O 0.3456 0.14503 0.75272 0.0
O981 O 0.37081 0.1585 0.69122 0.0
O982 O 0.39869 0.21708 0.672 0.0
O983 O 0.36325 0.21186 0.70944 0.0
O984 O 0.35686 0.12596 0.72283 0.0
O985 O 0.33931 0.19062 0.74799 0.0
C986 C 0.31553 0.18842 0.66491 0.0
C987 C 0.35545 0.15021 0.57623 0.0
C988 C 0.34364 0.13949 0.52886 0.0
C989 C 0.33189 0.14162 0.55455 0.0
C990 C 0.37954 0.14685 0.525 0.0
C991 C 0.39131 0.15777 0.5721 0.0
C992 C 0.40328 0.1562 0.54652 0.0
C993 C 0.29472 0.09503 0.67133 0.0
C994 C 0.34147 0.14968 0.60298 0.0
C995 C 0.51251 0.23431 0.62856 0.0
C996 C 0.50734 0.20067 0.6342 0.0
C997 C 0.37887 0.13755 0.7031 0.0
C998 C 0.32964 0.16535 0.79089 0.0
C999 C 0.35179 0.17403 0.81338 0.0
C1000 C 0.33631 0.16402 0.83886 0.0
C1001 C 0.29833 0.14593 0.84163 0.0
C1002 C 0.29182 0.14822 0.7941 0.0
C1003 C 0.27627 0.13862 0.81935 0.0
C1004 C 0.39209 0.22999 0.6938 0.0
C1005 C 0.34656 0.17207 0.76443 0.0
H1006 H 0.30414 0.13575 0.5577 0.0
H1007 H 0.38908 0.14526 0.50535 0.0
H1008 H 0.40983 0.16447 0.5886 0.0
H1009 H 0.43091 0.16187 0.54341 0.0
H1010 H 0.38108 0.18739 0.81103 0.0
H1011 H 0.28587 0.13754 0.86103 0.0
H1012 H 0.27426 0.14183 0.77722 0.0
H1013 H 0.24702 0.12498 0.82159 0.0
Tb1014 Tb 0.87025 0.18108 0.71528 0.0
C1015 C 0.80234 0.22203 0.62658 0.0
C1016 C 0.73901 0.17722 0.62948 0.0
C1017 C 0.75583 0.23554 0.61274 0.0
C1018 C 0.77606 0.18845 0.63351 0.0
C1019 C 0.79271 0.24573 0.61532 0.0
C1020 C 0.72898 0.20128 0.61984 0.0
C1021 C 0.85649 0.2861 0.60742 0.0
N1022 N 0.83757 0.23052 0.62895 0.0
C1023 C 0.86461 0.26152 0.61849 0.0
C1024 C 0.82041 0.27839 0.60615 0.0
Tb1025 Tb 0.84843 0.18866 0.64722 0.0
N1026 N 0.78703 0.1659 0.64204 0.0
C1027 C 0.7623 0.13079 0.64465 0.0
C1028 C 0.71336 0.1418 0.63414 0.0
C1029 C 0.72516 0.11831 0.64122 0.0
H1030 H 0.89259 0.26774 0.61938 0.0
H1031 H 0.70569 0.0906 0.64407 0.0
H1032 H 0.70064 0.19331 0.61695 0.0
H1033 H 0.87806 0.31093 0.59981 0.0
H1034 H 0.77101 0.11239 0.64979 0.0
H1035 H 0.01688 0.25345 0.719 0.0
H1036 H 0.68462 0.13209 0.63139 0.0
H1037 H 0.8113 0.10321 0.74412 0.0
H1038 H 0.95567 0.24539 0.7129 0.0
H1039 H 0.81274 0.0522 0.76255 0.0
H1040 H 0.74783 0.25351 0.60449 0.0
H1041 H 0.02385 0.20259 0.73194 0.0
H1042 H 0.99421 0.13912 0.74646 0.0
H1043 H 0.81418 0.29736 0.59738 0.0
H1044 H 0.93843 0.0843 0.75869 0.0
N1045 N 0.92814 0.19078 0.72127 0.0
C1046 C 0.95835 0.22312 0.71821 0.0
C1047 C 0.99693 0.19902 0.72922 0.0
C1048 C 0.96587 0.16647 0.73422 0.0
C1049 C 0.9931 0.22774 0.72188 0.0
C1050 C 0.93151 0.16341 0.73049 0.0
H1051 H 0.87065 0.05184 0.76511 0.0
N1052 N 0.8681 0.13201 0.73476 0.0
C1053 C 0.83758 0.07463 0.75538 0.0
C1054 C 0.90041 0.13293 0.73765 0.0
C1055 C 0.83696 0.10387 0.74475 0.0
C1056 C 0.87031 0.07451 0.7568 0.0
C1057 C 0.90238 0.10415 0.74833 0.0
O1058 O 0.83965 0.18281 0.74775 0.0
O1059 O 0.83076 0.18134 0.68814 0.0
O1060 O 0.85766 0.23685 0.66822 0.0
O1061 O 0.89164 0.23733 0.70456 0.0
O1062 O 0.81107 0.14827 0.71949 0.0
O1063 O 0.8973 0.21578 0.74737 0.0
O1064 O 0.87981 0.20071 0.6123 0.0
O1065 O 0.88919 0.18937 0.67372 0.0
O1066 O 0.86106 0.1328 0.69667 0.0
O1067 O 0.83576 0.13317 0.65561 0.0
O1068 O 0.9066 0.22533 0.64381 0.0
O1069 O 0.82946 0.15188 0.61558 0.0
C1070 C 0.80112 0.15875 0.6991 0.0
C1071 C 0.86812 0.19618 0.78945 0.0
C1072 C 0.85508 0.20064 0.83644 0.0
C1073 C 0.85839 0.21231 0.80983 0.0
C1074 C 0.86114 0.17249 0.8421 0.0
C1075 C 0.87592 0.16956 0.79618 0.0
C1076 C 0.87201 0.15752 0.82221 0.0
C1077 C 0.87944 0.25341 0.6886 0.0
C1078 C 0.86772 0.20538 0.76118 0.0
C1079 C 0.93635 0.10625 0.75077 0.0
C1080 C 0.96808 0.13742 0.74375 0.0
C1081 C 0.91811 0.21386 0.66274 0.0
C1082 C 0.84853 0.17669 0.57242 0.0
C1083 C 0.86531 0.16905 0.55121 0.0
C1084 C 0.86121 0.17742 0.52485 0.0
C1085 C 0.84005 0.1934 0.52015 0.0
C1086 C 0.82626 0.19109 0.56692 0.0
C1087 C 0.8223 0.19965 0.541 0.0
C1088 C 0.84599 0.11792 0.67399 0.0
C1089 C 0.85664 0.17201 0.6001 0.0
H1090 H 0.85322 0.23358 0.80505 0.0
H1091 H 0.85847 0.16277 0.86222 0.0
H1092 H 0.8848 0.15778 0.78138 0.0
H1093 H 0.87753 0.13651 0.82699 0.0
H1094 H 0.88199 0.15722 0.5552 0.0
H1095 H 0.8367 0.2004 0.50016 0.0
H1096 H 0.81217 0.19606 0.5826 0.0
H1097 H 0.80549 0.21129 0.53706 0.0
C1098 C 0.33839 0.91846 0.03759 0.0
C1099 C 0.33827 0.88863 0.04865 0.0
C1100 C 0.40213 0.91385 0.03579 0.0
C1101 C 0.40465 0.94678 0.02912 0.0
N1102 N 0.37342 0.98037 0.02631 0.0
N1103 N 0.37284 0.86176 0.06333 0.0
C1104 C 0.37215 0.94895 0.03073 0.0
C1105 C 0.37088 0.88736 0.0491 0.0
N1106 N 0.30619 0.91748 0.03312 0.0
N1107 N 0.42881 0.90691 0.02895 0.0
H1108 H 0.35106 0.84239 0.07416 0.0
H1109 H 0.39723 0.86213 0.06674 0.0
H1110 H 0.45041 0.92416 0.01759 0.0
H1111 H 0.42661 0.88217 0.03104 0.0
H1112 H 0.30422 0.93689 0.02251 0.0
H1113 H 0.2811 0.89558 0.0378 0.0
H1114 H 0.35182 0.98458 0.03047 0.0
H1115 H 0.39678 0.00298 0.02009 0.0
C1116 C 0.14405 0.49631 0.04959 0.0
C1117 C 0.13891 0.4617 0.05088 0.0
C1118 C 0.07307 0.43716 0.04551 0.0
C1119 C 0.07775 0.47171 0.04209 0.0
N1120 N 0.11927 0.5346 0.0413 0.0
N1121 N 0.10008 0.39971 0.04275 0.0
C1122 C 0.11383 0.50136 0.04389 0.0
C1123 C 0.10389 0.43239 0.04652 0.0
N1124 N 0.17751 0.52439 0.05535 0.0
N1125 N 0.03918 0.40859 0.04901 0.0
H1126 H 0.12211 0.39536 0.0429 0.0
H1127 H 0.0759 0.37787 0.03655 0.0
H1128 H 0.01547 0.40997 0.04897 0.0
H1129 H 0.03476 0.38382 0.05464 0.0
H1130 H 0.18269 0.55012 0.05802 0.0
H1131 H 0.20016 0.52168 0.059 0.0
H1132 H 0.14449 0.55693 0.03802 0.0
H1133 H 0.09798 0.53953 0.04188 0.0
C1134 C 0.57823 0.68516 0.03766 0.0
C1135 C 0.55454 0.6852 0.05757 0.0
C1136 C 0.52377 0.62055 0.06016 0.0
C1137 C 0.54556 0.62007 0.03882 0.0
N1138 N 0.5932 0.65144 0.00682 0.0
N1139 N 0.50162 0.65338 0.08534 0.0
C1140 C 0.57263 0.65231 0.02737 0.0
C1141 C 0.52643 0.653 0.06811 0.0
N1142 N 0.60669 0.71659 0.02922 0.0
N1143 N 0.50125 0.59008 0.07348 0.0
H1144 H 0.50311 0.67659 0.09228 0.0
H1145 H 0.47791 0.63077 0.09118 0.0
H1146 H 0.4972 0.5655 0.06772 0.0
H1147 H 0.48847 0.58933 0.09134 0.0
H1148 H 0.62738 0.71881 0.01683 0.0
H1149 H 0.61081 0.74099 0.0358 0.0
H1150 H 0.61047 0.67324 0.99535 0.0
H1151 H 0.59177 0.62813 1.00042 0.0
C1152 C 0.90871 0.33813 0.98649 0.0
C1153 C 0.87507 0.33452 0.97847 0.0
C1154 C 0.89416 0.39376 0.9961 0.0
C1155 C 0.93015 0.39988 1.00029 0.0
N1156 N 0.971 0.37644 0.99968 0.0
N1157 N 0.83815 0.36135 0.97142 0.0
C1158 C 0.93721 0.37167 0.99529 0.0
C1159 C 0.86845 0.36296 0.98222 0.0
N1160 N 0.91278 0.309 0.98713 0.0
N1161 N 0.88363 0.41659 1.00564 0.0
H1162 H 0.81898 0.33971 0.96057 0.0
H1163 H 0.83388 0.38284 0.97094 0.0
H1164 H 0.90085 0.44059 0.01459 0.0
H1165 H 0.85653 0.41031 1.00644 0.0
H1166 H 0.93509 0.30883 0.99544 0.0
H1167 H 0.8922 0.28392 0.98162 0.0
H1168 H 0.97964 0.35935 0.99274 0.0
H1169 H 0.99077 0.39825 0.00973 0.0
C1170 C 0.65106 0.51994 0.98083 0.0
C1171 C 0.68448 0.55128 0.98533 0.0
C1172 C 0.6511 0.57908 1.00435 0.0
C1173 C 0.61721 0.54758 0.99968 0.0
N1174 N 0.58698 0.4944 0.97314 0.0
N1175 N 0.71723 0.60866 1.00544 0.0
C1176 C 0.61769 0.51949 0.98542 0.0
C1177 C 0.6847 0.58029 0.99823 0.0
N1178 N 0.65101 0.49031 0.97197 0.0
N1179 N 0.65114 0.60878 0.01302 0.0
H1180 H 0.74213 0.61046 1.00102 0.0
H1181 H 0.7197 0.62901 0.01764 0.0
H1182 H 0.62756 0.60887 0.01857 0.0
H1183 H 0.6741 0.63379 0.0134 0.0
H1184 H 0.62764 0.46551 0.97148 0.0
H1185 H 0.67473 0.48981 0.96743 0.0
H1186 H 0.58656 0.47588 0.95986 0.0
H1187 H 0.56261 0.49435 0.97392 0.0
C1188 C 0.45742 0.11068 0.95243 0.0
C1189 C 0.48013 0.14654 0.95952 0.0
C1190 C 0.51561 0.12774 0.98673 0.0
C1191 C 0.48686 0.09153 0.98489 0.0
N1192 N 0.42572 0.05189 0.96928 0.0
N1193 N 0.54407 0.18515 0.9657 0.0
C1194 C 0.45653 0.08401 0.96863 0.0
C1195 C 0.51317 0.15447 0.97208 0.0
N1196 N 0.44215 0.10181 0.92786 0.0
N1197 N 0.54566 0.13737 1.00191 0.0
H1198 H 0.54446 0.20154 0.95052 0.0
H1199 H 0.56991 0.19166 0.97223 0.0
H1200 H 0.5532 0.12004 0.00955 0.0
H1201 H 0.56332 0.16351 0.00736 0.0
H1202 H 0.4276 0.07566 0.92132 0.0
H1203 H 0.44927 0.12072 0.91297 0.0
H1204 H 0.40266 0.04645 0.95835 0.0
H1205 H 0.42167 0.03307 0.98341 0.0
C1206 C 0.66099 0.11467 0.00699 0.0
C1207 C 0.65954 0.14261 0.99392 0.0
C1208 C 0.59596 0.10177 0.98166 0.0
C1209 C 0.59572 0.07516 0.99813 0.0
N1210 N 0.63259 0.0517 0.01468 0.0
N1211 N 0.62684 0.16288 0.96709 0.0
C1212 C 0.62971 0.08019 0.00715 0.0
C1213 C 0.62744 0.13598 0.98049 0.0
N1214 N 0.6916 0.12142 0.02056 0.0
N1215 N 0.56719 0.09357 0.96538 0.0
H1216 H 0.65009 0.18729 0.96382 0.0
H1217 H 0.60327 0.16163 0.95997 0.0
H1218 H 0.54387 0.06903 0.96531 0.0
H1219 H 0.56727 0.10994 0.9504 0.0
H1220 H 0.69284 0.10324 0.0332 0.0
H1221 H 0.71519 0.14607 0.02049 0.0
H1222 H 0.65731 0.05288 0.01825 0.0
H1223 H 0.61026 0.02634 0.01579 0.0
C1224 C 0.9105 0.55614 1.00456 0.0
C1225 C 0.88009 0.52538 0.99423 0.0
C1226 C 0.91973 0.5004 0.98421 0.0
C1227 C 0.94849 0.52821 0.99878 0.0
N1228 N 0.97556 0.58915 0.0122 0.0
N1229 N 0.85618 0.46997 0.97115 0.0
C1230 C 0.94527 0.55833 1.00528 0.0
C1231 C 0.8851 0.49831 0.9828 0.0
N1232 N 0.90569 0.58218 0.01555 0.0
N1233 N 0.92629 0.47743 0.97003 0.0
H1234 H 0.83152 0.4691 0.96771 0.0
H1235 H 0.85607 0.44701 0.96549 0.0
H1236 H 0.9508 0.47759 0.97079 0.0
H1237 H 0.90842 0.45956 0.95618 0.0
H1238 H 0.92563 0.60342 0.0262 0.0
H1239 H 0.88089 0.58163 0.01538 0.0
H1240 H 0.97635 0.6133 0.01369 0.0
H1241 H 1.00047 0.59074 0.01551 0.0
C1242 C 0.53584 0.38187 1.00388 0.0
C1243 C 0.51495 0.36086 0.98235 0.0
C1244 C 0.4831 0.3949 0.98201 0.0
C1245 C 0.50975 0.42067 0.9992 0.0
N1246 N 0.56901 0.44128 0.01963 0.0
N1247 N 0.47092 0.35072 0.94823 0.0
C1248 C 0.53808 0.41481 0.00852 0.0
C1249 C 0.48902 0.36816 0.97062 0.0
N1250 N 0.55424 0.37078 0.0197 0.0
N1251 N 0.45134 0.39459 0.97759 0.0
H1252 H 0.47488 0.3315 0.93903 0.0
H1253 H 0.45437 0.35765 0.93763 0.0
H1254 H 0.44453 0.411 0.98806 0.0
H1255 H 0.43003 0.3749 0.96666 0.0
H1256 H 0.56762 0.38426 0.03692 0.0
H1257 H 0.55251 0.34625 0.01722 0.0
H1258 H 0.59115 0.43826 0.02455 0.0
H1259 H 0.57498 0.46735 0.02057 0.0
C1260 C 0.14273 0.64646 0.06504 0.0
C1261 C 0.15672 0.6707 0.04369 0.0
C1262 C 0.10085 0.63397 0.01858 0.0
C1263 C 0.09005 0.60653 0.03759 0.0
N1264 N 0.1016 0.58649 0.07922 0.0
N1265 N 0.14954 0.6883 0.99997 0.0
C1266 C 0.11077 0.613 0.06125 0.0
C1267 C 0.13559 0.66495 0.02059 0.0
N1268 N 0.16039 0.65541 0.08886 0.0
N1269 N 0.0776 0.63056 0.99871 0.0
H1270 H 0.17414 0.712 1.00123 0.0
H1271 H 0.13773 0.68341 0.98124 0.0
H1272 H 0.05263 0.60776 0.99614 0.0
H1273 H 0.08191 0.65101 0.98594 0.0
H1274 H 0.14991 0.64059 0.1061 0.0
H1275 H 0.18405 0.67954 0.09197 0.0
H1276 H 0.11806 0.58812 0.09503 0.0
H1277 H 0.07873 0.56164 0.07731 0.0
C1278 C 0.37559 0.5031 0.02324 0.0
C1279 C 0.34827 0.46722 0.02624 0.0
C1280 C 0.39595 0.45081 0.03003 0.0
C1281 C 0.42356 0.48701 0.02835 0.0
N1282 N 0.43847 0.54798 0.02874 0.0
N1283 N 0.33208 0.4075 0.0367 0.0
C1284 C 0.41297 0.51322 0.02652 0.0
C1285 C 0.35844 0.44127 0.03086 0.0
N1286 N 0.36596 0.52753 0.01623 0.0
N1287 N 0.40569 0.42533 0.02991 0.0
H1288 H 0.30454 0.39977 0.0375 0.0
H1289 H 0.33747 0.38792 0.04301 0.0
H1290 H 0.43268 0.43121 0.0292 0.0
H1291 H 0.38728 0.39844 0.02811 0.0
H1292 H 0.38461 0.55319 0.01042 0.0
H1293 H 0.339 0.52148 0.01438 0.0
H1294 H 0.43242 0.56818 0.0311 0.0
H1295 H 0.46583 0.55627 0.02977 0.0
C1296 C 0.54195 0.88718 0.02881 0.0
C1297 C 0.52137 0.86671 0.05078 0.0
C1298 C 0.50435 0.91125 0.06182 0.0
C1299 C 0.52495 0.93197 0.0397 0.0
N1300 N 0.57216 0.94454 0.00769 0.0
N1301 N 0.49268 0.86401 0.09258 0.0
C1302 C 0.54665 0.92148 0.02502 0.0
C1303 C 0.50614 0.88063 0.06888 0.0
N1304 N 0.55537 0.87319 0.01075 0.0
N1305 N 0.48064 0.91872 0.07477 0.0
H1306 H 0.49352 0.84139 0.09804 0.0
H1307 H 0.48427 0.87459 0.10776 0.0
H1308 H 0.47623 0.93918 0.06933 0.0
H1309 H 0.46234 0.90234 0.08914 0.0
H1310 H 0.56657 0.88508 0.9926 0.0
H1311 H 0.55327 0.84853 0.01318 0.0
H1312 H 0.59124 0.93981 0.99833 0.0
H1313 H 0.5761 0.96973 1.00446 0.0
C1314 C 1.00312 0.24743 0.37082 0.0
C1315 C 1.00229 0.21708 0.38151 0.0
C1316 C 0.06634 0.24143 0.36925 0.0
C1317 C 0.06928 0.27444 0.36272 0.0
N1318 N 0.03939 0.3089 0.35792 0.0
N1319 N 0.035 0.18778 0.395 0.0
C1320 C 0.03719 0.27731 0.36362 0.0
C1321 C 0.03441 0.2148 0.38179 0.0
N1322 N 0.97128 0.24743 0.36702 0.0
N1323 N 0.09321 0.23456 0.36266 0.0
H1324 H 0.01243 0.16781 0.40479 0.0
H1325 H 0.05885 0.18713 0.39847 0.0
H1326 H 0.1156 0.25226 0.35201 0.0
H1327 H 0.09086 0.20973 0.36444 0.0
H1328 H 0.96953 0.26713 0.35668 0.0
H1329 H 0.94606 0.22616 0.37234 0.0
H1330 H 0.01838 0.31414 0.36155 0.0
H1331 H 0.06292 0.33055 0.35054 0.0
C1332 C 0.77768 0.76593 0.37723 0.0
C1333 C 0.8068 0.79459 0.39063 0.0
C1334 C 0.77148 0.82529 0.39228 0.0
C1335 C 0.74334 0.79812 0.37674 0.0
N1336 N 0.71461 0.73683 0.36364 0.0
N1337 N 0.8338 0.85385 0.40768 0.0
C1338 C 0.74507 0.76677 0.37185 0.0
C1339 C 0.80436 0.82491 0.39713 0.0
N1340 N 0.78161 0.73821 0.36888 0.0
N1341 N 0.76538 0.84949 0.40503 0.0
H1342 H 0.85805 0.85441 0.4121 0.0
H1343 H 0.83517 0.87821 0.40995 0.0
H1344 H 0.74249 0.85175 0.40178 0.0
H1345 H 0.78224 0.86625 0.41987 0.0
H1346 H 0.76343 0.71848 0.3562 0.0
H1347 H 0.80474 0.73642 0.37285 0.0
H1348 H 0.7123 0.71196 0.36321 0.0
H1349 H 0.69065 0.73643 0.35867 0.0
C1350 C 0.25109 0.01263 0.38134 0.0
C1351 C 0.22088 0.01565 0.38972 0.0
C1352 C 0.18012 0.95581 0.3733 0.0
C1353 C 0.21018 0.95015 0.36958 0.0
N1354 N 0.27519 0.9743 0.37137 0.0
N1355 N 0.15656 0.98649 0.39922 0.0
C1356 C 0.24592 0.97887 0.37421 0.0
C1357 C 0.18537 0.9863 0.38717 0.0
N1358 N 0.2845 0.04225 0.37897 0.0
N1359 N 0.14652 0.93288 0.36344 0.0
H1360 H 0.15922 0.00737 0.41094 0.0
H1361 H 0.13071 0.96426 0.40005 0.0
H1362 H 0.1399 0.90948 0.35376 0.0
H1363 H 0.1256 0.93883 0.36297 0.0
H1364 H 0.30681 0.04219 0.37036 0.0
H1365 H 0.28904 0.06756 0.38305 0.0
H1366 H 0.30121 0.99261 0.3778 0.0
H1367 H 0.27288 0.9513 0.36373 0.0
C1368 C 0.55423 0.68618 0.30232 0.0
C1369 C 0.54382 0.65451 0.31659 0.0
C1370 C 0.59208 0.68787 0.34942 0.0
C1371 C 0.60151 0.7197 0.33572 0.0
N1372 N 0.58997 0.74993 0.30022 0.0
N1373 N 0.55114 0.62456 0.35408 0.0
C1374 C 0.58248 0.71895 0.31225 0.0
C1375 C 0.56229 0.65522 0.34029 0.0
N1376 N 0.53668 0.68498 0.27927 0.0
N1377 N 0.61265 0.68878 0.37051 0.0
H1378 H 0.53146 0.59992 0.34697 0.0
H1379 H 0.56013 0.62333 0.373 0.0
H1380 H 0.63434 0.71216 0.37764 0.0
H1381 H 0.60996 0.66655 0.38009 0.0
H1382 H 0.54644 0.7053 0.26542 0.0
H1383 H 0.51257 0.66295 0.27328 0.0
H1384 H 0.57446 0.75206 0.2852 0.0
H1385 H 0.61043 0.77457 0.30646 0.0
C1386 C 0.32355 0.85137 0.31586 0.0
C1387 C 0.35539 0.88494 0.31463 0.0
C1388 C 0.31883 0.91231 0.32668 0.0
C1389 C 0.28701 0.87842 0.33066 0.0
N1390 N 0.26465 0.81571 0.33525 0.0
N1391 N 0.38472 0.94645 0.32626 0.0
C1392 C 0.29113 0.84801 0.32729 0.0
C1393 C 0.35342 0.91501 0.32261 0.0
N1394 N 0.32337 0.82263 0.30486 0.0
N1395 N 0.31632 0.94223 0.32532 0.0
H1396 H 0.41042 0.94929 0.32349 0.0
H1397 H 0.38513 0.96846 0.33471 0.0
H1398 H 0.2921 0.94244 0.327 0.0
H1399 H 0.33797 0.96664 0.31964 0.0
H1400 H 0.29968 0.7984 0.30229 0.0
H1401 H 0.34612 0.82378 0.29594 0.0
H1402 H 0.26764 0.79343 0.33575 0.0
H1403 H 0.24191 0.81256 0.34475 0.0
C1404 C 0.14773 0.47571 0.33091 0.0
C1405 C 0.13359 0.47418 0.30514 0.0
C1406 C 0.12038 0.41296 0.30289 0.0
C1407 C 0.14252 0.41765 0.32543 0.0
N1408 N 0.19091 0.46416 0.35194 0.0
N1409 N 0.11957 0.44254 0.26309 0.0
C1410 C 0.16015 0.452 0.33722 0.0
C1411 C 0.12378 0.44318 0.2899 0.0
N1412 N 0.14901 0.4989 0.34962 0.0
N1413 N 0.09463 0.38038 0.29448 0.0
H1414 H 0.12675 0.46527 0.25218 0.0
H1415 H 0.11405 0.42041 0.25169 0.0
H1416 H 0.08581 0.35829 0.30642 0.0
H1417 H 0.07779 0.37684 0.27835 0.0
H1418 H 0.15834 0.49923 0.36882 0.0
H1419 H 0.13671 0.5142 0.3469 0.0
H1420 H 0.20444 0.48986 0.35949 0.0
H1421 H 0.20616 0.45155 0.35255 0.0
C1422 C 0.28691 0.47134 0.32434 0.0
C1423 C 0.32062 0.47673 0.33419 0.0
C1424 C 0.29292 0.41283 0.3418 0.0
C1425 C 0.25819 0.40806 0.33521 0.0
N1426 N 0.22682 0.43007 0.30845 0.0
N1427 N 0.35523 0.4532 0.35469 0.0
C1428 C 0.2563 0.43664 0.3234 0.0
C1429 C 0.32369 0.44755 0.34312 0.0
N1430 N 0.28404 0.49955 0.31583 0.0
N1431 N 0.2967 0.38402 0.34632 0.0
H1432 H 0.37821 0.47813 0.35644 0.0
H1433 H 0.35783 0.43366 0.36453 0.0
H1434 H 0.27465 0.35847 0.3471 0.0
H1435 H 0.32173 0.38519 0.34777 0.0
H1436 H 0.25927 0.49847 0.31272 0.0
H1437 H 0.30645 0.52466 0.31299 0.0
H1438 H 0.22516 0.44897 0.29695 0.0
H1439 H 0.20549 0.40477 0.30494 0.0
C1440 C 0.57226 0.87428 0.31584 0.0
C1441 C 0.53834 0.84615 0.32472 0.0
C1442 C 0.5698 0.81627 0.34187 0.0
C1443 C 0.60463 0.84555 0.33539 0.0
N1444 N 0.6374 0.90711 0.32239 0.0
N1445 N 0.50768 0.79705 0.35462 0.0
C1446 C 0.60527 0.87614 0.32456 0.0
C1447 C 0.5384 0.81987 0.341 0.0
N1448 N 0.57338 0.89792 0.29768 0.0
N1449 N 0.56547 0.7839 0.34648 0.0
H1450 H 0.4848 0.80007 0.3553 0.0
H1451 H 0.50628 0.77746 0.36712 0.0
H1452 H 0.5868 0.7795 0.34449 0.0
H1453 H 0.54028 0.76106 0.34867 0.0
H1454 H 0.59734 0.91651 0.28843 0.0
H1455 H 0.55017 0.89693 0.28999 0.0
H1456 H 0.6389 0.93081 0.31696 0.0
H1457 H 0.66203 0.9099 0.32865 0.0
C1458 C 0.1588 0.69002 0.33912 0.0
C1459 C 0.17758 0.69032 0.31567 0.0
C1460 C 0.18792 0.74917 0.30465 0.0
C1461 C 0.16817 0.74866 0.32774 0.0
N1462 N 0.12674 0.71473 0.36274 0.0
N1463 N 0.20028 0.7151 0.27249 0.0
C1464 C 0.15098 0.71776 0.34363 0.0
C1465 C 0.18864 0.71816 0.29717 0.0
N1466 N 0.14997 0.66423 0.35767 0.0
N1467 N 0.20874 0.77991 0.29109 0.0
H1468 H 0.20121 0.69268 0.26646 0.0
H1469 H 0.20535 0.73308 0.25726 0.0
H1470 H 0.21159 0.80404 0.29682 0.0
H1471 H 0.22666 0.7824 0.27597 0.0
H1472 H 0.14025 0.66503 0.37653 0.0
H1473 H 0.15473 0.64321 0.35488 0.0
H1474 H 0.11079 0.6916 0.37338 0.0
H1475 H 0.1203 0.7345 0.36623 0.0
C1476 C 0.78779 0.99198 0.36579 0.0
C1477 C 0.82238 0.99575 0.37095 0.0
C1478 C 0.79543 0.93173 0.37143 0.0
C1479 C 0.75988 0.92705 0.36849 0.0
N1480 N 0.7223 0.95399 0.36608 0.0
N1481 N 0.85605 0.96938 0.38813 0.0
C1482 C 0.75604 0.95765 0.36718 0.0
C1483 C 0.82488 0.9656 0.3773 0.0
N1484 N 0.78544 0.02065 0.3579 0.0
N1485 N 0.80233 0.90488 0.36652 0.0
H1486 H 0.87813 0.99409 0.39283 0.0
H1487 H 0.85818 0.94797 0.39498 0.0
H1488 H 0.78276 0.87977 0.36057 0.0
H1489 H 0.8286 0.90872 0.36559 0.0
H1490 H 0.76166 0.019 0.35077 0.0
H1491 H 0.80796 0.04599 0.35691 0.0
H1492 H 0.71747 0.97506 0.36789 0.0
H1493 H 0.69897 0.92946 0.36496 0.0
C1494 C 0.02883 0.7913 0.36045 0.0
C1495 C 0.02855 0.82107 0.37153 0.0
C1496 C 0.09379 0.8476 0.38177 0.0
C1497 C 0.0954 0.82065 0.36686 0.0
N1498 N 0.06161 0.75962 0.35325 0.0
N1499 N 0.05989 0.87655 0.39472 0.0
C1500 C 0.06192 0.79012 0.35989 0.0
C1501 C 0.06074 0.84864 0.38308 0.0
N1502 N 0.998 0.76512 0.34893 0.0
N1503 N 0.12299 0.87051 0.39663 0.0
H1504 H 0.03578 0.87686 0.39803 0.0
H1505 H 0.08299 0.89985 0.40031 0.0
H1506 H 0.14786 0.87145 0.39581 0.0
H1507 H 0.1221 0.88724 0.41101 0.0
H1508 H 0.99733 0.74482 0.33761 0.0
H1509 H 0.97328 0.76477 0.34941 0.0
H1510 H 0.03792 0.73538 0.35101 0.0
H1511 H 0.08526 0.75813 0.35154 0.0
C1512 C 0.21039 0.21903 0.35883 0.0
C1513 C 0.19003 0.19825 0.38075 0.0
C1514 C 0.17281 0.24229 0.39257 0.0
C1515 C 0.19314 0.26332 0.37053 0.0
N1516 N 0.23991 0.27663 0.33803 0.0
N1517 N 0.16163 0.19478 0.42284 0.0
C1518 C 0.21478 0.25325 0.3554 0.0
C1519 C 0.17486 0.21175 0.39922 0.0
N1520 N 0.2239 0.20541 0.34054 0.0
N1521 N 0.14903 0.24942 0.40578 0.0
H1522 H 0.16262 0.17215 0.428 0.0
H1523 H 0.15325 0.20509 0.43822 0.0
H1524 H 0.14448 0.26987 0.40054 0.0
H1525 H 0.13077 0.23274 0.42006 0.0
H1526 H 0.23495 0.21753 0.32242 0.0
H1527 H 0.2221 0.18086 0.34282 0.0
H1528 H 0.25894 0.2722 0.32827 0.0
H1529 H 0.24356 0.30178 0.33516 0.0
C1530 C 0.67254 0.57533 0.7074 0.0
C1531 C 0.67196 0.54506 0.71811 0.0
C1532 C 0.73612 0.57015 0.70582 0.0
C1533 C 0.7388 0.60319 0.69996 0.0
N1534 N 0.70846 0.63725 0.69569 0.0
N1535 N 0.7055 0.51644 0.7315 0.0
C1536 C 0.70653 0.60565 0.70081 0.0
C1537 C 0.70431 0.54311 0.71824 0.0
N1538 N 0.64057 0.57483 0.70298 0.0
N1539 N 0.76331 0.56386 0.699 0.0
H1540 H 0.68334 0.49662 0.74172 0.0
H1541 H 0.72956 0.5161 0.73466 0.0
H1542 H 0.78589 0.58226 0.68883 0.0
H1543 H 0.76118 0.53908 0.70032 0.0
H1544 H 0.6389 0.59465 0.69276 0.0
H1545 H 0.61531 0.55296 0.70735 0.0
H1546 H 0.68712 0.64202 0.69933 0.0
H1547 H 0.73206 0.65931 0.68882 0.0
C1548 C 0.47839 0.16049 0.71609 0.0
C1549 C 0.47515 0.12654 0.71551 0.0
C1550 C 0.40988 0.1006 0.70618 0.0
C1551 C 0.41335 0.13478 0.70378 0.0
N1552 N 0.45434 0.19789 0.70338 0.0
N1553 N 0.4396 0.06568 0.7023 0.0
C1554 C 0.44876 0.16486 0.70741 0.0
C1555 C 0.44147 0.09715 0.70798 0.0
N1556 N 0.50867 0.18836 0.72686 0.0
N1557 N 0.37638 0.07106 0.70792 0.0
H1558 H 0.46231 0.06241 0.70286 0.0
H1559 H 0.41657 0.04425 0.6942 0.0
H1560 H 0.35223 0.07165 0.70766 0.0
H1561 H 0.37267 0.0462 0.71239 0.0
H1562 H 0.51077 0.21272 0.73087 0.0
H1563 H 0.53044 0.18635 0.73423 0.0
H1564 H 0.48 0.22032 0.70215 0.0
H1565 H 0.43329 0.20227 0.69916 0.0
C1566 C 0.86479 0.3274 0.71377 0.0
C1567 C 0.89977 0.35365 0.72201 0.0
C1568 C 0.92345 0.31581 0.7064 0.0
C1569 C 0.88864 0.29086 0.6958 0.0
N1570 N 0.83319 0.28721 0.6787 0.0
N1571 N 0.96442 0.3769 0.71842 0.0
C1572 C 0.86141 0.30089 0.69602 0.0
C1573 C 0.92981 0.34911 0.71613 0.0
N1574 N 0.83434 0.32683 0.7233 0.0
N1575 N 0.95094 0.30842 0.70677 0.0
H1576 H 0.97013 0.40214 0.72405 0.0
H1577 H 0.9872 0.37588 0.71192 0.0
H1578 H 0.94909 0.28691 0.6969 0.0
H1579 H 0.97486 0.32317 0.71747 0.0
H1580 H 0.80821 0.30658 0.71868 0.0
H1581 H 0.83518 0.344 0.73808 0.0
H1582 H 0.81526 0.29694 0.67717 0.0
H1583 H 0.82971 0.26918 0.66422 0.0
C1584 C 0.24263 0.9966 0.65064 0.0
C1585 C 0.20836 0.99236 0.64373 0.0
C1586 C 0.22836 0.05254 0.65943 0.0
C1587 C 0.2646 0.05901 0.66282 0.0
N1588 N 0.30593 0.03614 0.6605 0.0
N1589 N 0.17186 0.01944 0.63561 0.0
C1590 C 0.27165 0.03077 0.65781 0.0
C1591 C 0.20217 0.02119 0.6465 0.0
N1592 N 0.24697 0.96765 0.6517 0.0
N1593 N 0.21802 0.0756 0.66877 0.0
H1594 H 0.15259 0.99763 0.62497 0.0
H1595 H 0.16787 0.0411 0.63462 0.0
H1596 H 0.23549 0.10002 0.67702 0.0
H1597 H 0.19088 0.06913 0.67007 0.0
H1598 H 0.26994 0.96818 0.65942 0.0
H1599 H 0.22622 0.94223 0.64708 0.0
H1600 H 0.31399 0.0186 0.65358 0.0
H1601 H 0.32668 0.05893 0.66882 0.0
C1602 C 0.98674 0.18608 0.63749 0.0
C1603 C 0.02028 0.21612 0.64454 0.0
C1604 C 0.98712 0.24566 0.6596 0.0
C1605 C 0.95322 0.2137 0.65713 0.0
N1606 N 0.92204 0.16067 0.63083 0.0
N1607 N 0.05234 0.27333 0.66516 0.0
C1608 C 0.95332 0.18566 0.64255 0.0
C1609 C 0.02037 0.24543 0.65662 0.0
N1610 N 0.9868 0.15773 0.62595 0.0
N1611 N 0.98779 0.27713 0.6614 0.0
H1612 H 0.07723 0.2742 0.66304 0.0
H1613 H 0.05352 0.29388 0.67651 0.0
H1614 H 0.96462 0.27906 0.65837 0.0
H1615 H 0.01169 0.30151 0.66136 0.0
H1616 H 0.96343 0.1338 0.62222 0.0
H1617 H 0.01053 0.1573 0.62133 0.0
H1618 H 0.92087 0.14295 0.61647 0.0
H1619 H 0.8971 0.15873 0.63443 0.0
C1620 C 0.78768 0.77065 0.6281 0.0
C1621 C 0.7937 0.7998 0.64438 0.0
C1622 C 0.81723 0.77688 0.67797 0.0
C1623 C 0.80379 0.74394 0.66448 0.0
N1624 N 0.76137 0.7078 0.62987 0.0
N1625 N 0.79918 0.819 0.69031 0.0
C1626 C 0.78435 0.74003 0.64046 0.0
C1627 C 0.80296 0.79884 0.67127 0.0
N1628 N 0.78737 0.77223 0.60111 0.0
N1629 N 0.84687 0.79037 0.694 0.0
H1630 H 0.78615 0.83345 0.6866 0.0
H1631 H 0.80557 0.81779 0.71014 0.0
H1632 H 0.865 0.78092 0.69385 0.0
H1633 H 0.85708 0.81511 0.70296 0.0
H1634 H 0.78476 0.7515 0.58919 0.0
H1635 H 0.79488 0.79552 0.5909 0.0
H1636 H 0.74666 0.70489 0.61258 0.0
H1637 H 0.75199 0.68487 0.64087 0.0
C1638 C 0.99194 0.78199 0.67673 0.0
C1639 C 0.98856 0.81014 0.66602 0.0
C1640 C 0.9233 0.76951 0.65844 0.0
C1641 C 0.92631 0.74149 0.67034 0.0
N1642 N 0.96633 0.71883 0.68075 0.0
N1643 N 0.95367 0.8293 0.64068 0.0
C1644 C 0.96159 0.74704 0.67613 0.0
C1645 C 0.95484 0.8035 0.6553 0.0
N1646 N 0.02358 0.78874 0.68873 0.0
N1647 N 0.89077 0.7631 0.64848 0.0
H1648 H 0.97662 0.85375 0.6369 0.0
H1649 H 0.93103 0.82598 0.63037 0.0
H1650 H 0.86962 0.73775 0.64487 0.0
H1651 H 0.8847 0.78266 0.64346 0.0
H1652 H 0.02634 0.76986 0.69945 0.0
H1653 H 0.04632 0.81393 0.68986 0.0
H1654 H 0.99178 0.72082 0.68186 0.0
H1655 H 0.94475 0.69306 0.68184 0.0
C1656 C 0.24037 0.21354 0.66799 0.0
C1657 C 0.21038 0.18274 0.65728 0.0
C1658 C 0.25084 0.15866 0.64743 0.0
C1659 C 0.27915 0.18647 0.6623 0.0
N1660 N 0.3053 0.24722 0.67603 0.0
N1661 N 0.18741 0.12741 0.63417 0.0
C1662 C 0.27535 0.21623 0.66889 0.0
C1663 C 0.21596 0.15599 0.64591 0.0
N1664 N 0.23495 0.23912 0.67916 0.0
N1665 N 0.25805 0.13631 0.63301 0.0
H1666 H 0.16256 0.12605 0.6306 0.0
H1667 H 0.18782 0.10464 0.62867 0.0
H1668 H 0.28266 0.13669 0.63398 0.0
H1669 H 0.24056 0.11869 0.61886 0.0
H1670 H 0.25454 0.26025 0.69011 0.0
H1671 H 0.20997 0.2382 0.67893 0.0
H1672 H 0.30564 0.27115 0.67766 0.0
H1673 H 0.33043 0.24924 0.67925 0.0
C1674 C 0.81359 0.01877 0.66766 0.0
C1675 C 0.84689 0.02 0.66145 0.0
C1676 C 0.87874 0.08408 0.66526 0.0
C1677 C 0.84532 0.08395 0.66811 0.0
N1678 N 0.77991 0.0502 0.6696 0.0
N1679 N 0.90821 0.05478 0.64524 0.0
C1680 C 0.8123 0.05094 0.66809 0.0
C1681 C 0.87832 0.05303 0.65701 0.0
N1682 N 0.78396 0.98754 0.6749 0.0
N1683 N 0.91106 0.1128 0.67211 0.0
H1684 H 0.9083 0.03251 0.63775 0.0
H1685 H 0.9313 0.0786 0.6405 0.0
H1686 H 0.91357 0.13634 0.67894 0.0
H1687 H 0.93519 0.11203 0.67314 0.0
H1688 H 0.76014 0.98564 0.68235 0.0
H1689 H 0.78417 0.9638 0.67552 0.0
H1690 H 0.75492 0.02733 0.66693 0.0
H1691 H 0.77838 0.07304 0.67193 0.0
C1692 C 0.47339 0.30388 0.73053 0.0
C1693 C 0.48788 0.32947 0.71011 0.0
C1694 C 0.43243 0.2947 0.68407 0.0
C1695 C 0.42121 0.26605 0.70202 0.0
N1696 N 0.43288 0.24272 0.74197 0.0
N1697 N 0.48181 0.34988 0.66717 0.0
C1698 C 0.44171 0.27069 0.72552 0.0
C1699 C 0.46727 0.32535 0.68698 0.0
N1700 N 0.49043 0.31118 0.75457 0.0
N1701 N 0.4096 0.29267 0.66432 0.0
H1702 H 0.50654 0.37333 0.66913 0.0
H1703 H 0.47036 0.34622 0.64837 0.0
H1704 H 0.38449 0.27021 0.6612 0.0
H1705 H 0.41435 0.31392 0.6523 0.0
H1706 H 0.47946 0.29514 0.77119 0.0
H1707 H 0.51392 0.33514 0.75854 0.0
H1708 H 0.44927 0.24342 0.75754 0.0
H1709 H 0.41087 0.21764 0.73872 0.0
C1710 C 0.73167 0.19025 0.69718 0.0
C1711 C 0.69956 0.16144 0.70776 0.0
C1712 C 0.73212 0.12756 0.70655 0.0
C1713 C 0.76551 0.15891 0.70041 0.0
N1714 N 0.79451 0.22137 0.70795 0.0
N1715 N 0.67315 0.10352 0.72799 0.0
C1716 C 0.76499 0.19088 0.70011 0.0
C1717 C 0.7005 0.12992 0.71366 0.0
N1718 N 0.73119 0.21827 0.68581 0.0
N1719 N 0.73067 0.09567 0.70633 0.0
H1720 H 0.65107 0.10505 0.73537 0.0
H1721 H 0.67439 0.08172 0.73498 0.0
H1722 H 0.75338 0.09318 0.70243 0.0
H1723 H 0.7064 0.07175 0.70796 0.0
H1724 H 0.75469 0.23945 0.67786 0.0
H1725 H 0.707 0.21827 0.68214 0.0
H1726 H 0.79222 0.24349 0.71251 0.0
H1727 H 0.81786 0.2221 0.71501 0.0
C1728 C 0.88429 0.55367 0.69401 0.0
C1729 C 0.86422 0.53233 0.71578 0.0
C1730 C 0.84476 0.57452 0.72788 0.0
C1731 C 0.8648 0.59614 0.70599 0.0
N1732 N 0.91209 0.61143 0.67356 0.0
N1733 N 0.83525 0.52732 0.75788 0.0
C1734 C 0.88737 0.58736 0.69078 0.0
C1735 C 0.84815 0.54472 0.73436 0.0
N1736 N 0.89876 0.54105 0.67567 0.0
N1737 N 0.81999 0.58029 0.74101 0.0
H1738 H 0.83718 0.50515 0.7629 0.0
H1739 H 0.82621 0.53694 0.77332 0.0
H1740 H 0.81423 0.59993 0.73567 0.0
H1741 H 0.80206 0.56312 0.75523 0.0
H1742 H 0.90966 0.55354 0.65763 0.0
H1743 H 0.89797 0.51694 0.67785 0.0
H1744 H 0.93172 0.60795 0.66375 0.0
H1745 H 0.91473 0.63621 0.67084 0.0
C1746 C 0.43453 0.89702 0.21537 0.0
C1747 C 0.43809 0.9214 0.23557 0.0
C1748 C 0.44708 0.96498 0.20128 0.0
C1749 C 0.44581 0.94129 0.18135 0.0
N1750 N 0.44844 0.88902 0.17008 0.0
N1751 N 0.45576 0.98118 0.24794 0.0
C1752 C 0.44306 0.90877 0.18871 0.0
C1753 C 0.44696 0.95627 0.22857 0.0
N1754 N 0.42061 0.86205 0.22123 0.0
N1755 N 0.44645 0.99486 0.19429 0.0
H1756 H 0.45617 0.97571 0.26804 0.0
H1757 H 0.46584 0.00785 0.24391 0.0
H1758 H 0.44667 1.00229 0.17462 0.0
H1759 H 0.44302 0.01091 0.20795 0.0
H1760 H 0.41409 0.84274 0.20675 0.0
H1761 H 0.41183 0.85159 0.24014 0.0
H1762 H 0.45008 0.86664 0.17478 0.0
H1763 H 0.45507 0.89716 0.15038 0.0
C1764 C 0.04777 0.5305 0.24466 0.0
C1765 C 0.07433 0.51994 0.24291 0.0
C1766 C 0.05057 0.4933 0.19957 0.0
C1767 C 0.02741 0.50802 0.19958 0.0
N1768 N 0.0098 0.54731 0.22024 0.0
N1769 N 0.10772 0.50093 0.21492 0.0
C1770 C 0.0275 0.52846 0.22165 0.0
C1771 C 0.07766 0.504 0.2193 0.0
N1772 N 0.04144 0.54187 0.26831 0.0
N1773 N 0.04622 0.4684 0.18121 0.0
H1774 H 0.11263 0.4921 0.19696 0.0
H1775 H 0.12976 0.51132 0.22787 0.0
H1776 H 0.02553 0.4585 0.16711 0.0
H1777 H 0.06061 0.45484 0.18198 0.0
H1778 H 0.01998 0.54667 0.27126 0.0
H1779 H 0.05552 0.5433 0.28562 0.0
H1780 H 0.01198 0.56524 0.23482 0.0
H1781 H 0.99599 0.54784 0.20335 0.0
C1782 C 0.49771 0.58761 0.22254 0.0
C1783 C 0.48776 0.56433 0.24453 0.0
C1784 C 0.49431 0.52179 0.21641 0.0
C1785 C 0.51105 0.54791 0.19635 0.0
N1786 N 0.53224 0.60775 0.18171 0.0
N1787 N 0.47879 0.50967 0.26304 0.0
C1788 C 0.51332 0.58129 0.1996 0.0
C1789 C 0.48617 0.53126 0.24157 0.0
N1790 N 0.49187 0.61563 0.22355 0.0
N1791 N 0.48587 0.48781 0.21126 0.0
H1792 H 0.47253 0.51552 0.28173 0.0
H1793 H 0.48145 0.48723 0.26279 0.0
H1794 H 0.49094 0.47997 0.1929 0.0
H1795 H 0.47067 0.46689 0.22415 0.0
H1796 H 0.49571 0.6319 0.20734 0.0
H1797 H 0.47926 0.62008 0.23974 0.0
H1798 H 0.53817 0.63369 0.18474 0.0
H1799 H 0.54477 0.60467 0.16489 0.0
C1800 C 0.97814 0.47441 0.79781 0.0
C1801 C 0.94575 0.44105 0.79717 0.0
C1802 C 0.95821 0.42839 0.84207 0.0
C1803 C 0.98908 0.46281 0.84344 0.0
N1804 N 0.0233 0.52146 0.8251 0.0
N1805 N 0.9005 0.38998 0.82087 0.0
C1806 C 0.99746 0.48673 0.82205 0.0
C1807 C 0.93439 0.41917 0.82002 0.0
N1808 N 0.99147 0.49363 0.77503 0.0
N1809 N 0.95248 0.40395 0.86114 0.0
H1810 H 0.88206 0.38281 0.80526 0.0
H1811 H 0.8894 0.37498 0.83797 0.0
H1812 H 0.96966 0.40932 0.87736 0.0
H1813 H 0.93261 0.37742 0.85962 0.0
H1814 H 0.01699 0.51623 0.77383 0.0
H1815 H 0.97859 0.48538 0.7567 0.0
H1816 H 0.02793 0.54079 0.81111 0.0
H1817 H 0.03761 0.5316 0.84273 0.0
C1818 C 0.54083 0.48924 0.79215 0.0
C1819 C 0.57786 0.49815 0.79085 0.0
C1820 C 0.58719 0.52316 0.8358 0.0
C1821 C 0.54942 0.51116 0.83796 0.0
N1822 N 0.48907 0.47403 0.8206 0.0
N1823 N 0.6337 0.51512 0.81436 0.0
C1824 C 0.52585 0.49141 0.81687 0.0
C1825 C 0.60031 0.51255 0.81358 0.0
N1826 N 0.52028 0.48034 0.76963 0.0
N1827 N 0.6109 0.54603 0.85418 0.0
H1828 H 0.64374 0.50644 0.79891 0.0
H1829 H 0.64966 0.52233 0.8314 0.0
H1830 H 0.60272 0.55538 0.87032 0.0
H1831 H 0.63901 0.55832 0.85196 0.0
H1832 H 0.49422 0.477 0.76921 0.0
H1833 H 0.53052 0.47997 0.75086 0.0
H1834 H 0.47081 0.45663 0.80665 0.0
H1835 H 0.47709 0.47398 0.83873 0.0
C1836 C 0.48503 0.03701 0.78811 0.0
C1837 C 0.51528 0.07168 0.78569 0.0
C1838 C 0.53596 0.06581 0.82989 0.0
C1839 C 0.50388 0.03258 0.83334 0.0
N1840 N 0.44303 0.99201 0.81827 0.0
N1841 N 0.56284 0.1227 0.80826 0.0
C1842 C 0.47685 0.01991 0.81323 0.0
C1843 C 0.53871 0.08724 0.80782 0.0
N1844 N 0.46503 0.0196 0.76629 0.0
N1845 N 0.56472 0.07632 0.84669 0.0
H1846 H 0.5644 0.13971 0.79318 0.0
H1847 H 0.57822 0.13566 0.82495 0.0
H1848 H 0.56486 0.06081 0.86231 0.0
H1849 H 0.58986 0.09881 0.84334 0.0
H1850 H 0.44487 0.99308 0.76668 0.0
H1851 H 0.47105 0.03041 0.74727 0.0
H1852 H 0.42146 0.98375 0.80506 0.0
H1853 H 0.43553 0.97978 0.8368 0.0
C1854 C 0.09154 0.24434 0.55093 0.0
C1855 C 0.11472 0.25482 0.57344 0.0
C1856 C 0.16286 0.30209 0.54683 0.0
C1857 C 0.13751 0.29587 0.52632 0.0
N1858 N 0.07567 0.26308 0.51044 0.0
N1859 N 0.17144 0.29746 0.59375 0.0
C1860 C 0.10133 0.26727 0.52862 0.0
C1861 C 0.15031 0.28451 0.5716 0.0
N1862 N 0.06036 0.21225 0.55075 0.0
N1863 N 0.19903 0.32466 0.54256 0.0
H1864 H 0.16305 0.28636 0.61253 0.0
H1865 H 0.19597 0.32126 0.59393 0.0
H1866 H 0.20918 0.3374 0.52444 0.0
H1867 H 0.21909 0.32775 0.55591 0.0
H1868 H 0.04408 0.20186 0.534 0.0
H1869 H 0.05287 0.19445 0.56649 0.0
H1870 H 0.04809 0.24506 0.51285 0.0
H1871 H 0.08131 0.27962 0.49412 0.0
C1872 C 0.7254 0.86886 0.57799 0.0
C1873 C 0.75083 0.8568 0.57803 0.0
C1874 C 0.72909 0.82965 0.53448 0.0
C1875 C 0.7062 0.84466 0.53316 0.0
N1876 N 0.69036 0.88669 0.55096 0.0
N1877 N 0.7847 0.83609 0.55241 0.0
C1878 C 0.70668 0.86677 0.55412 0.0
C1879 C 0.7551 0.84036 0.55506 0.0
N1880 N 0.71807 0.88111 0.60082 0.0
N1881 N 0.72502 0.80396 0.51699 0.0
H1882 H 0.80561 0.84581 0.56634 0.0
H1883 H 0.79046 0.8268 0.53502 0.0
H1884 H 0.7049 0.7937 0.50248 0.0
H1885 H 0.73906 0.79016 0.51885 0.0
H1886 H 0.69712 0.88691 0.60235 0.0
H1887 H 0.7306 0.88233 0.61886 0.0
H1888 H 0.69279 0.90559 0.56474 0.0
H1889 H 0.67778 0.88711 0.53334 0.0
C1890 C 0.16559 0.92025 0.55079 0.0
C1891 C 0.15525 0.89838 0.57368 0.0
C1892 C 0.16111 0.85366 0.54783 0.0
C1893 C 0.17797 0.87827 0.52684 0.0
N1894 N 0.20038 0.93733 0.50995 0.0
N1895 N 0.14735 0.84539 0.59481 0.0
C1896 C 0.18098 0.91212 0.52858 0.0
C1897 C 0.1537 0.86515 0.57237 0.0
N1898 N 0.16045 0.94872 0.55025 0.0
N1899 N 0.15181 0.81916 0.54418 0.0
H1900 H 0.14246 0.85293 0.61331 0.0
H1901 H 0.15003 0.82297 0.59552 0.0
H1902 H 0.15624 0.80976 0.5263 0.0
H1903 H 0.13641 0.79933 0.55783 0.0
H1904 H 0.16442 0.96382 0.53328 0.0
H1905 H 0.14857 0.95494 0.566 0.0
H1906 H 0.20679 0.96357 0.51188 0.0
H1907 H 0.21292 0.93297 0.49371 0.0
C1908 C 0.63545 0.80757 0.13231 0.0
C1909 C 0.60344 0.77407 0.13039 0.0
C1910 C 0.6158 0.75779 0.17407 0.0
C1911 C 0.64661 0.79207 0.17673 0.0
N1912 N 0.6803 0.85229 0.16133 0.0
N1913 N 0.55807 0.72125 0.15235 0.0
C1914 C 0.65471 0.81784 0.15674 0.0
C1915 C 0.59199 0.75044 0.15225 0.0
N1916 N 0.64851 0.82891 0.11052 0.0
N1917 N 0.61022 0.73164 0.19154 0.0
H1918 H 0.53956 0.71547 0.13696 0.0
H1919 H 0.547 0.70488 0.16881 0.0
H1920 H 0.62745 0.7355 0.20743 0.0
H1921 H 0.59041 0.70529 0.18881 0.0
H1922 H 0.67384 0.85182 0.11004 0.0
H1923 H 0.63551 0.82226 0.09217 0.0
H1924 H 0.68485 0.8728 0.14854 0.0
H1925 H 0.69445 0.86086 0.17919 0.0
C1926 C 0.20739 0.83093 0.12285 0.0
C1927 C 0.24465 0.84069 0.12162 0.0
C1928 C 0.25286 0.86392 0.16706 0.0
C1929 C 0.21485 0.85068 0.16917 0.0
N1930 N 0.15497 0.81326 0.1511 0.0
N1931 N 0.30073 0.85861 0.1451 0.0
C1932 C 0.1918 0.8316 0.14766 0.0
C1933 C 0.26683 0.85488 0.14449 0.0
N1934 N 0.18713 0.82245 0.10019 0.0
N1935 N 0.27592 0.88637 0.18592 0.0
H1936 H 0.31158 0.85127 0.12935 0.0
H1937 H 0.31647 0.86549 0.16225 0.0
H1938 H 0.26703 0.89454 0.20237 0.0
H1939 H 0.3041 0.89955 0.18385 0.0
H1940 H 0.16083 0.8185 0.09977 0.0
H1941 H 0.19781 0.82305 0.08139 0.0
H1942 H 0.13716 0.79626 0.13675 0.0
H1943 H 0.14251 0.812 0.16927 0.0
C1944 C 0.15234 0.38034 0.12516 0.0
C1945 C 0.18524 0.41253 0.12058 0.0
C1946 C 0.20814 0.40565 0.16371 0.0
C1947 C 0.17402 0.3751 0.16906 0.0
N1948 N 0.11067 0.33961 0.1578 0.0
N1949 N 0.24122 0.45978 0.13829 0.0
C1950 C 0.14517 0.36455 0.1507 0.0
C1951 C 0.21219 0.42643 0.14074 0.0
N1952 N 0.12877 0.36356 0.10475 0.0
N1953 N 0.23718 0.41398 0.17976 0.0
H1954 H 0.24475 0.4759 0.12202 0.0
H1955 H 0.25982 0.4726 0.1535 0.0
H1956 H 0.23551 0.39939 0.19657 0.0
H1957 H 0.26357 0.43362 0.17517 0.0
H1958 H 0.10621 0.33835 0.10652 0.0
H1959 H 0.13383 0.37291 0.08531 0.0
H1960 H 0.08804 0.3333 0.14609 0.0
H1961 H 0.10425 0.32807 0.1766 0.0
C1962 C 0.78436 0.57706 0.89054 0.0
C1963 C 0.77853 0.59393 0.91269 0.0
C1964 C 0.79706 0.64659 0.88517 0.0
C1965 C 0.80882 0.63208 0.86476 0.0
N1966 N 0.81859 0.5847 0.85012 0.0
N1967 N 0.78665 0.64805 0.93223 0.0
C1968 C 0.80364 0.59751 0.86791 0.0
C1969 C 0.78672 0.62959 0.9103 0.0
N1970 N 0.77064 0.54136 0.89075 0.0
N1971 N 0.79521 0.67643 0.88045 0.0
H1972 H 0.78119 0.63742 0.9513 0.0
H1973 H 0.79587 0.67507 0.93188 0.0
H1974 H 0.80151 0.68899 0.86202 0.0
H1975 H 0.78368 0.68631 0.89382 0.0
H1976 H 0.77111 0.52727 0.87416 0.0
H1977 H 0.75544 0.52537 0.90655 0.0
H1978 H 0.81887 0.56124 0.85306 0.0
H1979 H 0.83364 0.59896 0.83366 0.0
C1980 C 0.38004 0.19486 0.90714 0.0
C1981 C 0.40798 0.1861 0.90556 0.0
C1982 C 0.38451 0.15768 0.86266 0.0
C1983 C 0.36003 0.17086 0.86238 0.0
N1984 N 0.34 0.20867 0.88239 0.0
N1985 N 0.4429 0.16849 0.87775 0.0
C1986 C 0.35922 0.19131 0.88411 0.0
C1987 C 0.41201 0.17014 0.88216 0.0
N1988 N 0.37277 0.20573 0.93066 0.0
N1989 N 0.38101 0.13252 0.84485 0.0
H1990 H 0.4651 0.17964 0.89055 0.0
H1991 H 0.44811 0.15976 0.85986 0.0
H1992 H 0.36006 0.1213 0.83098 0.0
H1993 H 0.39647 0.12006 0.84591 0.0
H1994 H 0.35046 0.20926 0.93342 0.0
H1995 H 0.38694 0.20786 0.94807 0.0
H1996 H 0.34142 0.22659 0.8967 0.0
H1997 H 0.32561 0.20799 0.86547 0.0
C1998 C 0.86093 0.23766 0.90554 0.0
C1999 C 0.82985 0.24181 0.90695 0.0
C2000 C 0.81403 0.21842 0.86138 0.0
C2001 C 0.84738 0.21828 0.85921 0.0
N2002 N 0.90718 0.23831 0.87712 0.0
N2003 N 0.78122 0.2435 0.88354 0.0
C2004 C 0.87231 0.23134 0.88063 0.0
C2005 C 0.80762 0.23435 0.88406 0.0
N2006 N 0.87869 0.23792 0.92816 0.0
N2007 N 0.78778 0.20208 0.84254 0.0
H2008 H 0.77644 0.25612 0.89935 0.0
H2009 H 0.76661 0.24173 0.86648 0.0
H2010 H 0.79102 0.18952 0.82599 0.0
H2011 H 0.76165 0.1983 0.8446 0.0
H2012 H 0.89963 0.232 0.92828 0.0
H2013 H 0.86964 0.23972 0.94705 0.0
H2014 H 0.92721 0.25071 0.89153 0.0
H2015 H 0.917 0.23539 0.85882 0.0
C2016 C 0.262 0.0854 0.484 0.0
C2017 C 0.27204 0.10726 0.46115 0.0
C2018 C 0.32517 0.15286 0.48489 0.0
C2019 C 0.31813 0.1288 0.506 0.0
N2020 N 0.28281 0.06962 0.52348 0.0
N2021 N 0.31647 0.15991 0.43835 0.0
C2022 C 0.28723 0.09437 0.50505 0.0
C2023 C 0.30444 0.14062 0.4612 0.0
N2024 N 0.22806 0.05641 0.48578 0.0
N2025 N 0.35104 0.18761 0.48771 0.0
H2026 H 0.30254 0.15171 0.4204 0.0
H2027 H 0.34191 0.18252 0.43663 0.0
H2028 H 0.36629 0.1977 0.50499 0.0
H2029 H 0.3548 0.20698 0.47402 0.0
H2030 H 0.21809 0.04139 0.503 0.0
H2031 H 0.20853 0.04952 0.47098 0.0
H2032 H 0.2628 0.04312 0.52205 0.0
H2033 H 0.3012 0.07466 0.53881 0.0
C2034 C 0.93029 0.17512 0.47649 0.0
C2035 C 0.9081 0.16047 0.45366 0.0
C2036 C 0.85487 0.14831 0.48054 0.0
C2037 C 0.87774 0.16891 0.50166 0.0
N2038 N 0.93886 0.20718 0.51757 0.0
N2039 N 0.84952 0.14025 0.43308 0.0
C2040 C 0.91597 0.18365 0.49917 0.0
C2041 C 0.87037 0.14884 0.45544 0.0
N2042 N 0.96468 0.18005 0.47687 0.0
N2043 N 0.8183 0.12776 0.48453 0.0
H2044 H 0.86 0.14253 0.41399 0.0
H2045 H 0.82265 0.13477 0.43335 0.0
H2046 H 0.80609 0.12558 0.50298 0.0
H2047 H 0.80092 0.10997 0.47035 0.0
H2048 H 0.98077 0.18774 0.49386 0.0
H2049 H 0.97555 0.17275 0.4611 0.0
H2050 H 0.96699 0.2212 0.51516 0.0
H2051 H 0.92977 0.21532 0.53391 0.0
C2052 C 0.88334 0.76605 0.48124 0.0
C2053 C 0.8599 0.75072 0.45908 0.0
C2054 C 0.82146 0.69831 0.48607 0.0
C2055 C 0.84778 0.71106 0.50661 0.0
N2056 N 0.90733 0.75541 0.52158 0.0
N2057 N 0.81108 0.69816 0.43898 0.0
C2058 C 0.87971 0.74459 0.50369 0.0
C2059 C 0.83014 0.71568 0.46111 0.0
N2060 N 0.90824 0.8013 0.48133 0.0
N2061 N 0.78775 0.6699 0.49053 0.0
H2062 H 0.81774 0.70901 0.41998 0.0
H2063 H 0.79134 0.67148 0.43911 0.0
H2064 H 0.77989 0.65727 0.5089 0.0
H2065 H 0.76653 0.66153 0.47699 0.0
H2066 H 0.92354 0.81447 0.49799 0.0
H2067 H 0.91101 0.81804 0.46569 0.0
H2068 H 0.93265 0.77789 0.51884 0.0
H2069 H 0.90616 0.74032 0.53794 0.0
loop_
_geom_bond_atom_site_label_1
_geom_bond_atom_site_label_2
_geom_bond_distance
_geom_bond_site_symmetry_2
_ccdc_geom_bond_type
H0 C1 0.949 . S
C1 H0 0.949 . S
C1 C2 1.395 . S
C1 C3 1.391 . S
C2 C1 1.395 . S
C2 C5 1.390 . S
C3 C1 1.391 . S
C3 C7 1.387 . S
C3 C8 1.491 . S
H4 C5 0.950 . S
C5 C2 1.390 . S
C5 H4 0.950 . S
C5 C6 1.378 . S
C6 C5 1.378 . S
C6 C7 1.409 . S
C7 C3 1.387 . S
C7 C6 1.409 . S
C7 H9 0.951 . S
C8 C3 1.491 . S
C8 C10 1.382 . S
C8 C12 1.404 . S
H9 C7 0.951 . S
C10 C8 1.382 . S
C10 C11 1.390 . S
C10 H15 0.949 . S
C11 C10 1.390 . S
C11 C16 1.399 . S
C12 C8 1.404 . S
C12 H13 0.950 . S
C12 C14 1.375 . S
H13 C12 0.950 . S
C14 C12 1.375 . S
C14 C16 1.382 . S
C14 H18 0.950 . S
H15 C10 0.949 . S
C16 C11 1.399 . S
C16 C14 1.382 . S
C16 H17 0.952 . S
H17 C16 0.952 . S
H18 C14 0.950 . S
H19 C20 0.949 . S
C20 H19 0.949 . S
C20 C21 1.395 . S
C20 C22 1.391 . S
C21 C20 1.395 . S
C21 C24 1.390 . S
C22 C20 1.391 . S
C22 C26 1.387 . S
C22 C27 1.491 . S
H23 C24 0.950 . S
C24 C21 1.390 . S
C24 H23 0.950 . S
C24 C25 1.378 . S
C25 C24 1.378 . S
C25 C26 1.409 . S
C26 C22 1.387 . S
C26 C25 1.409 . S
C26 H28 0.951 . S
C27 C22 1.491 . S
C27 C29 1.382 . S
C27 C31 1.404 . S
H28 C26 0.951 . S
C29 C27 1.382 . S
C29 C30 1.390 1_545 S
C29 H34 0.949 . S
C30 C29 1.390 1_565 S
C30 C35 1.399 . S
C31 C27 1.404 . S
C31 H32 0.950 . S
C31 C33 1.375 . S
H32 C31 0.950 . S
C33 C31 1.375 . S
C33 C35 1.382 1_545 S
C33 H37 0.950 . S
H34 C29 0.949 . S
C35 C30 1.399 . S
C35 C33 1.382 1_565 S
C35 H36 0.952 . S
H36 C35 0.952 . S
H37 C33 0.950 . S
H38 C39 0.949 . S
C39 H38 0.949 . S
C39 C40 1.395 . S
C39 C41 1.391 . S
C40 C39 1.395 . S
C40 C43 1.390 . S
C41 C39 1.391 . S
C41 C45 1.387 . S
C41 C46 1.491 . S
H42 C43 0.950 . S
C43 C40 1.390 . S
C43 H42 0.950 . S
C43 C44 1.378 . S
C44 C43 1.378 . S
C44 C45 1.409 . S
C45 C41 1.387 . S
C45 C44 1.409 . S
C45 H47 0.951 . S
C46 C41 1.491 . S
C46 C48 1.382 . S
C46 C50 1.404 . S
H47 C45 0.951 . S
C48 C46 1.382 . S
C48 C49 1.390 1_655 S
C48 H53 0.949 . S
C49 C48 1.390 1_455 S
C49 C54 1.399 . S
C50 C46 1.404 . S
C50 H51 0.950 . S
C50 C52 1.375 1_655 S
H51 C50 0.950 . S
C52 C50 1.375 1_455 S
C52 C54 1.382 . S
C52 H56 0.950 . S
H53 C48 0.949 . S
C54 C49 1.399 . S
C54 C52 1.382 . S
C54 H55 0.952 . S
H55 C54 0.952 . S
H56 C52 0.950 . S
H57 C58 0.949 . S
C58 H57 0.949 . S
C58 C59 1.395 . S
C58 C60 1.391 . S
C59 C58 1.395 . S
C59 C62 1.390 . S
C60 C58 1.391 . S
C60 C64 1.387 . S
C60 C65 1.491 . S
H61 C62 0.950 . S
C62 C59 1.390 . S
C62 H61 0.950 . S
C62 C63 1.378 . S
C63 C62 1.378 . S
C63 C64 1.409 . S
C64 C60 1.387 . S
C64 C63 1.409 . S
C64 H66 0.951 . S
C65 C60 1.491 . S
C65 C67 1.382 . S
C65 C69 1.404 . S
H66 C64 0.951 . S
C67 C65 1.382 . S
C67 C68 1.390 . S
C67 H72 0.949 . S
C68 C67 1.390 . S
C68 C73 1.399 . S
C69 C65 1.404 . S
C69 H70 0.950 . S
C69 C71 1.375 . S
H70 C69 0.950 . S
C71 C69 1.375 . S
C71 C73 1.382 . S
C71 H75 0.950 . S
H72 C67 0.949 . S
C73 C68 1.399 . S
C73 C71 1.382 . S
C73 H74 0.952 . S
H74 C73 0.952 . S
H75 C71 0.950 . S
H76 C77 0.949 . S
C77 H76 0.949 . S
C77 C78 1.395 . S
C77 C79 1.391 . S
C78 C77 1.395 . S
C78 C81 1.390 . S
C79 C77 1.391 . S
C79 C83 1.387 . S
C79 C84 1.491 . S
H80 C81 0.950 . S
C81 C78 1.390 . S
C81 H80 0.950 . S
C81 C82 1.378 . S
C82 C81 1.378 . S
C82 C83 1.409 . S
C83 C79 1.387 . S
C83 C82 1.409 . S
C83 H85 0.951 . S
C84 C79 1.491 . S
C84 C86 1.382 . S
C84 C88 1.404 . S
H85 C83 0.951 . S
C86 C84 1.382 . S
C86 C87 1.390 1_565 S
C86 H91 0.949 . S
C87 C86 1.390 1_545 S
C87 C92 1.399 . S
C88 C84 1.404 . S
C88 H89 0.950 . S
C88 C90 1.375 . S
H89 C88 0.950 . S
C90 C88 1.375 . S
C90 C92 1.382 1_565 S
C90 H94 0.950 1_565 S
H91 C86 0.949 . S
C92 C87 1.399 . S
C92 C90 1.382 1_545 S
C92 H93 0.952 . S
H93 C92 0.952 . S
H94 C90 0.950 1_545 S
H95 C96 0.949 . S
C96 H95 0.949 . S
C96 C97 1.395 . S
C96 C98 1.391 . S
C97 C96 1.395 . S
C97 C100 1.390 . S
C98 C96 1.391 . S
C98 C102 1.387 . S
C98 C103 1.491 . S
H99 C100 0.950 . S
C100 C97 1.390 . S
C100 H99 0.950 . S
C100 C101 1.378 . S
C101 C100 1.378 . S
C101 C102 1.409 . S
C102 C98 1.387 . S
C102 C101 1.409 . S
C102 H104 0.951 . S
C103 C98 1.491 . S
C103 C105 1.382 . S
C103 C107 1.404 . S
H104 C102 0.951 . S
C105 C103 1.382 . S
C105 C106 1.390 1_455 S
C105 H110 0.949 . S
C106 C105 1.390 1_655 S
C106 C111 1.399 . S
C107 C103 1.404 . S
C107 H108 0.950 . S
C107 C109 1.381 . S
H108 C107 0.950 . S
C109 C107 1.381 . S
C109 C111 1.381 1_455 S
C109 H113 0.944 1_455 S
H110 C105 0.949 . S
C111 C106 1.399 . S
C111 C109 1.381 1_655 S
C111 H112 0.952 . S
H112 C111 0.952 . S
H113 C109 0.944 1_655 S
H114 C115 0.949 . S
C115 H114 0.949 . S
C115 C116 1.395 . S
C115 C117 1.391 . S
C116 C115 1.395 . S
C116 C119 1.390 . S
C117 C115 1.391 . S
C117 C121 1.387 . S
C117 C122 1.491 . S
H118 C119 0.950 . S
C119 C116 1.390 . S
C119 H118 0.950 . S
C119 C120 1.378 . S
C120 C119 1.378 . S
C120 C121 1.409 . S
C121 C117 1.387 . S
C121 C120 1.409 . S
C121 H123 0.951 . S
C122 C117 1.491 . S
C122 C124 1.382 . S
C122 C126 1.404 . S
H123 C121 0.951 . S
C124 C122 1.382 . S
C124 C125 1.390 . S
C124 H129 0.949 . S
C125 C124 1.390 . S
C125 C130 1.399 . S
C126 C122 1.404 . S
C126 H127 0.950 . S
C126 C128 1.375 . S
H127 C126 0.950 . S
C128 C126 1.375 . S
C128 C130 1.382 . S
C128 H132 0.950 . S
H129 C124 0.949 . S
C130 C125 1.399 . S
C130 C128 1.382 . S
C130 H131 0.952 . S
H131 C130 0.952 . S
H132 C128 0.950 . S
H133 C134 0.949 . S
C134 H133 0.949 . S
C134 C135 1.395 . S
C134 C136 1.391 . S
C135 C134 1.395 . S
C135 C138 1.390 . S
C136 C134 1.391 . S
C136 C140 1.387 . S
C136 C141 1.491 . S
H137 C138 0.950 . S
C138 C135 1.390 . S
C138 H137 0.950 . S
C138 C139 1.378 . S
C139 C138 1.378 . S
C139 C140 1.409 . S
C140 C136 1.387 . S
C140 C139 1.409 . S
C140 H142 0.951 . S
C141 C136 1.491 . S
C141 C143 1.382 . S
C141 C145 1.404 . S
H142 C140 0.951 . S
C143 C141 1.382 . S
C143 C144 1.390 . S
C143 H148 0.949 . S
C144 C143 1.390 . S
C144 C149 1.399 . S
C145 C141 1.404 . S
C145 H146 0.950 . S
C145 C147 1.375 . S
H146 C145 0.950 . S
C147 C145 1.375 . S
C147 C149 1.382 . S
C147 H151 0.950 . S
H148 C143 0.949 . S
C149 C144 1.399 . S
C149 C147 1.382 . S
C149 H150 0.952 . S
H150 C149 0.952 . S
H151 C147 0.950 . S
H152 C153 0.949 . S
C153 H152 0.949 . S
C153 C154 1.395 . S
C153 C155 1.391 . S
C154 C153 1.395 . S
C154 C157 1.390 . S
C155 C153 1.391 . S
C155 C159 1.387 . S
C155 C160 1.491 . S
H156 C157 0.950 . S
C157 C154 1.390 . S
C157 H156 0.950 . S
C157 C158 1.378 . S
C158 C157 1.378 . S
C158 C159 1.409 . S
C159 C155 1.387 . S
C159 C158 1.409 . S
C159 H161 0.951 . S
C160 C155 1.491 . S
C160 C162 1.382 . S
C160 C164 1.404 . S
H161 C159 0.951 . S
C162 C160 1.382 . S
C162 C163 1.390 . S
C162 H167 0.949 . S
C163 C162 1.390 . S
C163 C168 1.399 . S
C164 C160 1.404 . S
C164 H165 0.950 . S
C164 C166 1.375 . S
H165 C164 0.950 . S
C166 C164 1.375 . S
C166 C168 1.382 . S
C166 H170 0.950 . S
H167 C162 0.949 . S
C168 C163 1.399 . S
C168 C166 1.382 . S
C168 H169 0.952 . S
H169 C168 0.952 . S
H170 C166 0.950 . S
H171 C172 0.949 . S
C172 H171 0.949 . S
C172 C173 1.395 . S
C172 C174 1.391 . S
C173 C172 1.395 . S
C173 C176 1.390 . S
C174 C172 1.391 . S
C174 C178 1.387 . S
C174 C179 1.491 . S
H175 C176 0.950 . S
C176 C173 1.390 . S
C176 H175 0.950 . S
C176 C177 1.378 . S
C177 C176 1.378 . S
C177 C178 1.409 . S
C178 C174 1.387 . S
C178 C177 1.409 . S
C178 H180 0.951 . S
C179 C174 1.491 . S
C179 C181 1.382 . S
C179 C183 1.404 . S
H180 C178 0.951 . S
C181 C179 1.382 . S
C181 C182 1.390 . S
C181 H186 0.949 . S
C182 C181 1.390 . S
C182 C187 1.399 . S
C183 C179 1.404 . S
C183 H184 0.950 . S
C183 C185 1.375 . S
H184 C183 0.950 . S
C185 C183 1.375 . S
C185 C187 1.382 . S
C185 H189 0.950 1_556 S
H186 C181 0.949 . S
C187 C182 1.399 . S
C187 C185 1.382 . S
C187 H188 0.952 1_556 S
H188 C187 0.952 1_554 S
H189 C185 0.950 1_554 S
H190 C191 0.949 . S
C191 H190 0.949 . S
C191 C192 1.395 . S
C191 C193 1.391 . S
C192 C191 1.395 . S
C192 C195 1.390 . S
C193 C191 1.391 . S
C193 C197 1.387 . S
C193 C198 1.491 . S
H194 C195 0.950 . S
C195 C192 1.390 . S
C195 H194 0.950 . S
C195 C196 1.378 . S
C196 C195 1.378 . S
C196 C197 1.409 . S
C197 C193 1.387 . S
C197 C196 1.409 . S
C197 H199 0.981 . S
C198 C193 1.491 . S
C198 C200 1.382 . S
C198 C202 1.404 . S
H199 C197 0.981 . S
C200 C198 1.382 . S
C200 C201 1.390 . S
C200 H205 0.949 . S
C201 C200 1.390 . S
C201 C206 1.399 1_556 S
C202 C198 1.404 . S
C202 H203 0.956 . S
C202 C204 1.375 1_556 S
H203 C202 0.956 . S
C204 C202 1.375 1_554 S
C204 C206 1.382 . S
C204 H208 0.950 . S
H205 C200 0.949 . S
C206 C201 1.399 1_554 S
C206 C204 1.382 . S
C206 H207 0.952 . S
H207 C206 0.952 . S
H208 C204 0.950 . S
H209 C210 0.949 . S
C210 H209 0.949 . S
C210 C211 1.395 . S
C210 C212 1.391 . S
C211 C210 1.395 . S
C211 C214 1.390 . S
C212 C210 1.391 . S
C212 C216 1.387 . S
C212 C217 1.491 . S
H213 C214 0.950 . S
C214 C211 1.390 . S
C214 H213 0.950 . S
C214 C215 1.378 . S
C215 C214 1.378 . S
C215 C216 1.409 . S
C216 C212 1.387 . S
C216 C215 1.409 . S
C216 H218 0.951 . S
C217 C212 1.491 . S
C217 C219 1.382 . S
C217 C221 1.404 . S
H218 C216 0.951 . S
C219 C217 1.382 . S
C219 C220 1.390 . S
C219 H224 0.949 . S
C220 C219 1.390 . S
C220 C225 1.394 1_556 S
C221 C217 1.404 . S
C221 H222 0.950 . S
C221 C223 1.375 1_556 S
H222 C221 0.950 . S
C223 C221 1.375 1_554 S
C223 C225 1.383 . S
C223 H227 0.950 . S
H224 C219 0.949 . S
C225 C220 1.394 1_554 S
C225 C223 1.383 . S
C225 H226 0.956 . S
H226 C225 0.956 . S
H227 C223 0.950 . S
H228 C229 0.949 . S
C229 H228 0.949 . S
C229 C230 1.395 . S
C229 C231 1.391 . S
C230 C229 1.395 . S
C230 C233 1.390 . S
C231 C229 1.391 . S
C231 C235 1.387 . S
C231 C236 1.491 . S
H232 C233 0.950 . S
C233 C230 1.390 . S
C233 H232 0.950 . S
C233 C234 1.378 . S
C234 C233 1.378 . S
C234 C235 1.409 . S
C235 C231 1.387 . S
C235 C234 1.409 . S
C235 H237 0.951 . S
C236 C231 1.491 . S
C236 C238 1.382 . S
C236 C240 1.404 . S
H237 C235 0.951 . S
C238 C236 1.382 . S
C238 C239 1.390 . S
C238 H243 0.949 . S
C239 C238 1.390 . S
C239 C244 1.399 . S
C240 C236 1.404 . S
C240 H241 0.950 . S
C240 C242 1.375 . S
H241 C240 0.950 . S
C242 C240 1.375 . S
C242 C244 1.382 . S
C242 H246 0.950 . S
H243 C238 0.949 . S
C244 C239 1.399 . S
C244 C242 1.382 . S
C244 H245 0.952 . S
H245 C244 0.952 . S
H246 C242 0.950 . S
H247 C248 0.949 . S
C248 H247 0.949 . S
C248 C249 1.395 . S
C248 C250 1.391 . S
C249 C248 1.395 . S
C249 C252 1.390 . S
C250 C248 1.391 . S
C250 C254 1.387 . S
C250 C255 1.491 . S
H251 C252 0.950 . S
C252 C249 1.390 . S
C252 H251 0.950 . S
C252 C253 1.378 . S
C253 C252 1.378 . S
C253 C254 1.409 . S
C254 C250 1.387 . S
C254 C253 1.409 . S
C254 H256 0.951 . S
C255 C250 1.491 . S
C255 C257 1.382 . S
C255 C259 1.404 . S
H256 C254 0.951 . S
C257 C255 1.382 . S
C257 C258 1.390 . S
C257 H262 0.949 . S
C258 C257 1.390 . S
C258 C263 1.399 . S
C259 C255 1.404 . S
C259 H260 0.950 . S
C259 C261 1.375 . S
H260 C259 0.950 . S
C261 C259 1.375 . S
C261 C263 1.382 . S
C261 H265 0.950 . S
H262 C257 0.949 . S
C263 C258 1.399 . S
C263 C261 1.382 . S
C263 H264 0.952 . S
H264 C263 0.952 . S
H265 C261 0.950 . S
H266 C267 0.949 . S
C267 H266 0.949 . S
C267 C268 1.395 . S
C267 C269 1.391 . S
C268 C267 1.395 . S
C268 C271 1.390 . S
C269 C267 1.391 . S
C269 C273 1.387 . S
C269 C274 1.491 . S
H270 C271 0.950 . S
C271 C268 1.390 . S
C271 H270 0.950 . S
C271 C272 1.378 . S
C272 C271 1.378 . S
C272 C273 1.409 . S
C273 C269 1.387 . S
C273 C272 1.409 . S
C273 H275 0.951 . S
C274 C269 1.491 . S
C274 C276 1.382 . S
C274 C278 1.404 . S
H275 C273 0.951 . S
C276 C274 1.382 . S
C276 C277 1.390 . S
C276 H281 0.949 . S
C277 C276 1.390 . S
C277 C282 1.399 . S
C278 C274 1.404 . S
C278 H279 0.950 . S
C278 C280 1.375 . S
H279 C278 0.950 . S
C280 C278 1.375 . S
C280 C282 1.382 . S
C280 H284 0.950 . S
H281 C276 0.949 . S
C282 C277 1.399 . S
C282 C280 1.382 . S
C282 H283 0.952 . S
H283 C282 0.952 . S
H284 C280 0.950 . S
H285 C286 0.949 . S
C286 H285 0.949 . S
C286 C287 1.395 . S
C286 C288 1.391 . S
C287 C286 1.395 . S
C287 C290 1.390 . S
C288 C286 1.391 . S
C288 C292 1.387 . S
C288 C293 1.491 . S
H289 C290 0.950 . S
C290 C287 1.390 . S
C290 H289 0.950 . S
C290 C291 1.378 . S
C291 C290 1.378 . S
C291 C292 1.409 . S
C292 C288 1.387 . S
C292 C291 1.409 . S
C292 H294 0.951 . S
C293 C288 1.491 . S
C293 C295 1.382 . S
C293 C297 1.404 . S
H294 C292 0.951 . S
C295 C293 1.382 . S
C295 C296 1.390 . S
C295 H300 0.949 . S
C296 C295 1.390 . S
C296 C301 1.399 . S
C297 C293 1.404 . S
C297 H298 0.950 . S
C297 C299 1.375 . S
H298 C297 0.950 . S
C299 C297 1.375 . S
C299 C301 1.382 . S
C299 H303 0.950 . S
H300 C295 0.949 . S
C301 C296 1.399 . S
C301 C299 1.382 . S
C301 H302 0.952 . S
H302 C301 0.952 . S
H303 C299 0.950 . S
H304 C305 0.949 . S
C305 H304 0.949 . S
C305 C306 1.395 . S
C305 C307 1.391 . S
C306 C305 1.395 . S
C306 C309 1.390 . S
C307 C305 1.391 . S
C307 C311 1.387 . S
C307 C312 1.491 . S
H308 C309 0.950 . S
C309 C306 1.390 . S
C309 H308 0.950 . S
C309 C310 1.378 . S
C310 C309 1.378 . S
C310 C311 1.409 . S
C311 C307 1.387 . S
C311 C310 1.409 . S
C311 H313 0.951 . S
C312 C307 1.491 . S
C312 C314 1.382 . S
C312 C316 1.404 . S
H313 C311 0.951 . S
C314 C312 1.382 . S
C314 C315 1.390 . S
C314 H319 0.949 . S
C315 C314 1.390 . S
C315 C320 1.399 . S
C316 C312 1.404 . S
C316 H317 0.950 . S
C316 C318 1.375 . S
H317 C316 0.950 . S
C318 C316 1.375 . S
C318 C320 1.382 . S
C318 H322 0.950 . S
H319 C314 0.949 . S
C320 C315 1.399 . S
C320 C318 1.382 . S
C320 H321 0.952 . S
H321 C320 0.952 . S
H322 C318 0.950 . S
H323 C324 0.949 . S
C324 H323 0.949 . S
C324 C325 1.395 . S
C324 C326 1.391 . S
C325 C324 1.395 . S
C325 C328 1.390 . S
C326 C324 1.391 . S
C326 C330 1.387 . S
C326 C331 1.491 . S
H327 C328 0.950 . S
C328 C325 1.390 . S
C328 H327 0.950 . S
C328 C329 1.378 . S
C329 C328 1.378 . S
C329 C330 1.409 . S
C330 C326 1.387 . S
C330 C329 1.409 . S
C330 H332 0.951 . S
C331 C326 1.491 . S
C331 C333 1.382 . S
C331 C335 1.404 . S
H332 C330 0.951 . S
C333 C331 1.382 . S
C333 C334 1.390 . S
C333 H338 0.949 . S
C334 C333 1.390 . S
C334 C339 1.399 . S
C335 C331 1.404 . S
C335 H336 0.950 . S
C335 C337 1.375 . S
H336 C335 0.950 . S
C337 C335 1.375 . S
C337 C339 1.382 . S
C337 H341 0.950 . S
H338 C333 0.949 . S
C339 C334 1.399 . S
C339 C337 1.382 . S
C339 H340 0.952 . S
H340 C339 0.952 . S
H341 C337 0.950 . S
Tb342 N373 2.660 . S
Tb342 N380 2.600 . S
Tb342 O386 2.546 . S
Tb342 O387 2.610 1_566 S
Tb342 O389 2.320 1_565 S
Tb342 O390 2.552 1_565 S
Tb342 O391 2.413 1_565 S
Tb342 O393 2.362 1_556 S
Tb342 O394 2.421 . S
Tb342 C406 2.833 1_565 S
C343 C346 1.432 . S
C343 C347 1.414 . S
C343 N350 1.359 . S
C344 C346 1.417 . S
C344 C348 1.432 . S
C344 C356 1.410 . S
C345 C347 1.444 . S
C345 C348 1.317 . S
C345 H368 0.929 . S
C346 C343 1.432 . S
C346 C344 1.417 . S
C346 N354 1.360 . S
C347 C343 1.414 . S
C347 C345 1.444 . S
C347 C352 1.385 . S
C348 C344 1.432 . S
C348 C345 1.317 . S
C348 H360 0.930 . S
C349 C351 1.392 . S
C349 C352 1.370 . S
C349 H361 0.931 . S
N350 C343 1.359 . S
N350 C351 1.327 . S
N350 Tb353 2.600 . S
C351 C349 1.392 . S
C351 N350 1.327 . S
C351 H358 0.930 . S
C352 C347 1.385 . S
C352 C349 1.370 . S
C352 H371 0.930 . S
Tb353 N350 2.600 . S
Tb353 N354 2.660 . S
Tb353 O387 2.362 . S
Tb353 O388 2.421 . S
Tb353 O392 2.546 . S
Tb353 O393 2.610 1_545 S
Tb353 O395 2.320 1_545 S
Tb353 O396 2.552 1_545 S
Tb353 O397 2.413 1_545 S
Tb353 C417 2.833 1_545 S
N354 C346 1.360 . S
N354 Tb353 2.660 . S
N354 C355 1.305 . S
C355 N354 1.305 . S
C355 C357 1.407 . S
C355 H362 0.930 . S
C356 C344 1.410 . S
C356 C357 1.345 . S
C356 H364 0.930 . S
C357 C355 1.407 . S
C357 C356 1.345 . S
C357 H359 0.930 . S
H358 C351 0.930 . S
H359 C357 0.930 . S
H360 C348 0.930 . S
H361 C349 0.931 . S
H362 C355 0.930 . S
H363 C377 0.930 . S
H364 C356 0.930 . S
H365 C383 0.930 . S
H366 C374 0.930 . S
H367 C381 0.931 . S
H368 C345 0.929 . S
H369 C375 0.930 . S
H370 C408 0.930 . S
H371 C352 0.930 . S
H372 C407 0.929 . S
N373 Tb342 2.660 . S
N373 C374 1.305 . S
N373 C378 1.360 . S
C374 H366 0.930 . S
C374 N373 1.305 . S
C374 C377 1.407 . S
C375 H369 0.930 . S
C375 C376 1.410 . S
C375 C377 1.345 . S
C376 C375 1.410 . S
C376 C378 1.417 . S
C376 C408 1.432 . S
C377 H363 0.930 . S
C377 C374 1.407 . S
C377 C375 1.345 . S
C378 N373 1.360 . S
C378 C376 1.417 . S
C378 C382 1.432 . S
H379 C384 0.930 . S
N380 Tb342 2.600 . S
N380 C382 1.359 . S
N380 C383 1.327 . S
C381 H367 0.931 . S
C381 C383 1.392 . S
C381 C384 1.370 . S
C382 C378 1.432 . S
C382 N380 1.359 . S
C382 C385 1.414 . S
C383 H365 0.930 . S
C383 N380 1.327 . S
C383 C381 1.392 . S
C384 H379 0.930 . S
C384 C381 1.370 . S
C384 C385 1.385 . S
C385 C382 1.414 . S
C385 C384 1.385 . S
C385 C407 1.444 . S
O386 Tb342 2.546 . S
O386 C406 1.251 1_565 S
O387 Tb342 2.610 1_544 S
O387 Tb353 2.362 . S
O387 C398 1.283 1_554 S
O388 Tb353 2.421 . S
O388 C405 1.262 . S
O389 Tb342 2.320 1_545 S
O389 C405 1.260 1_556 S
O390 Tb342 2.552 1_545 S
O390 C398 1.243 . S
O391 Tb342 2.413 1_545 S
O391 C406 1.256 . S
O392 Tb353 2.546 . S
O392 C417 1.251 1_545 S
O393 Tb342 2.362 1_554 S
O393 Tb353 2.610 1_565 S
O393 C409 1.283 . S
O394 Tb342 2.421 . S
O394 C416 1.262 1_556 S
O395 Tb353 2.320 1_565 S
O395 C416 1.260 . S
O396 Tb353 2.552 1_565 S
O396 C409 1.243 . S
O397 Tb353 2.413 1_565 S
O397 C417 1.256 . S
C398 O387 1.283 1_556 S
C398 O390 1.243 . S
C399 C401 1.382 . S
C399 C403 1.393 1_545 S
C399 C406 1.500 . S
C400 C401 1.400 . S
C400 C402 1.384 . S
C401 C399 1.382 . S
C401 C400 1.400 . S
C401 H418 0.930 . S
C402 C400 1.384 . S
C402 C404 1.392 . S
C402 H419 0.931 . S
C403 C399 1.393 1_565 S
C403 C404 1.401 1_565 S
C403 H420 0.930 . S
C404 C402 1.392 . S
C404 C403 1.401 1_545 S
C404 H421 0.930 1_545 S
C405 O388 1.262 . S
C405 O389 1.260 1_554 S
C406 Tb342 2.833 1_545 S
C406 O386 1.251 1_545 S
C406 O391 1.256 . S
C406 C399 1.500 . S
C407 H372 0.929 . S
C407 C385 1.444 . S
C407 C408 1.317 . S
C408 H370 0.930 . S
C408 C376 1.432 . S
C408 C407 1.317 . S
C409 O393 1.283 . S
C409 O396 1.243 . S
C410 C411 1.382 . S
C410 C414 1.393 1_565 S
C410 C417 1.500 . S
C411 C410 1.382 . S
C411 C412 1.400 . S
C411 H422 0.930 . S
C412 C411 1.400 . S
C412 C413 1.384 . S
C413 C412 1.384 . S
C413 C415 1.392 . S
C413 H423 0.931 . S
C414 C410 1.393 1_545 S
C414 C415 1.401 1_545 S
C414 H424 0.930 . S
C415 C413 1.392 . S
C415 C414 1.401 1_565 S
C415 H425 0.930 1_565 S
C416 O394 1.262 1_554 S
C416 O395 1.260 . S
C417 Tb353 2.833 1_565 S
C417 O392 1.251 1_565 S
C417 O397 1.256 . S
C417 C410 1.500 . S
H418 C401 0.930 . S
H419 C402 0.931 . S
H420 C403 0.930 . S
H421 C404 0.930 1_565 S
H422 C411 0.930 . S
H423 C413 0.931 . S
H424 C414 0.930 . S
H425 C415 0.930 1_545 S
Tb426 N457 2.660 . S
Tb426 N464 2.600 . S
Tb426 O470 2.546 . S
Tb426 O471 2.610 1_456 S
Tb426 O473 2.320 1_455 S
Tb426 O474 2.552 1_455 S
Tb426 O475 2.413 1_455 S
Tb426 O477 2.362 1_556 S
Tb426 O478 2.421 . S
Tb426 C490 2.833 . S
C427 C430 1.432 . S
C427 C431 1.414 . S
C427 N434 1.359 . S
C428 C430 1.417 . S
C428 C432 1.432 . S
C428 C440 1.410 . S
C429 C431 1.444 . S
C429 C432 1.317 . S
C429 H452 0.929 . S
C430 C427 1.432 . S
C430 C428 1.417 . S
C430 N438 1.360 . S
C431 C427 1.414 . S
C431 C429 1.444 . S
C431 C436 1.385 . S
C432 C428 1.432 . S
C432 C429 1.317 . S
C432 H444 0.930 . S
C433 C435 1.392 . S
C433 C436 1.370 . S
C433 H445 0.931 . S
N434 C427 1.359 . S
N434 C435 1.327 . S
N434 Tb437 2.600 . S
C435 C433 1.392 . S
C435 N434 1.327 . S
C435 H442 0.930 . S
C436 C431 1.385 . S
C436 C433 1.370 . S
C436 H455 0.930 . S
Tb437 N434 2.600 . S
Tb437 N438 2.660 . S
Tb437 O471 2.362 . S
Tb437 O472 2.421 . S
Tb437 O476 2.546 . S
Tb437 O477 2.610 1_655 S
Tb437 O479 2.320 1_655 S
Tb437 O480 2.552 1_655 S
Tb437 O481 2.413 1_655 S
Tb437 C501 2.833 1_655 S
N438 C430 1.360 . S
N438 Tb437 2.660 . S
N438 C439 1.305 . S
C439 N438 1.305 . S
C439 C441 1.407 . S
C439 H446 0.930 . S
C440 C428 1.410 . S
C440 C441 1.345 . S
C440 H448 0.930 . S
C441 C439 1.407 . S
C441 C440 1.345 . S
C441 H443 0.930 . S
H442 C435 0.930 . S
H443 C441 0.930 . S
H444 C432 0.930 . S
H445 C433 0.931 . S
H446 C439 0.930 . S
H447 C461 0.930 . S
H448 C440 0.930 . S
H449 C467 0.930 . S
H450 C458 0.930 . S
H451 C465 0.931 . S
H452 C429 0.929 . S
H453 C459 0.930 . S
H454 C492 0.930 . S
H455 C436 0.930 . S
H456 C491 0.929 . S
N457 Tb426 2.660 . S
N457 C458 1.305 . S
N457 C462 1.360 . S
C458 H450 0.930 . S
C458 N457 1.305 . S
C458 C461 1.407 . S
C459 H453 0.930 . S
C459 C460 1.410 . S
C459 C461 1.345 . S
C460 C459 1.410 . S
C460 C462 1.417 . S
C460 C492 1.432 . S
C461 H447 0.930 . S
C461 C458 1.407 . S
C461 C459 1.345 . S
C462 N457 1.360 . S
C462 C460 1.417 . S
C462 C466 1.432 . S
H463 C468 0.930 . S
N464 Tb426 2.600 . S
N464 C466 1.359 . S
N464 C467 1.327 . S
C465 H451 0.931 . S
C465 C467 1.392 . S
C465 C468 1.370 . S
C466 C462 1.432 . S
C466 N464 1.359 . S
C466 C469 1.414 . S
C467 H449 0.930 . S
C467 N464 1.327 . S
C467 C465 1.392 . S
C468 H463 0.930 . S
C468 C465 1.370 . S
C468 C469 1.385 . S
C469 C466 1.414 . S
C469 C468 1.385 . S
C469 C491 1.444 . S
O470 Tb426 2.546 . S
O470 C490 1.251 . S
O471 Tb426 2.610 1_654 S
O471 Tb437 2.362 . S
O471 C482 1.283 1_554 S
O472 Tb437 2.421 . S
O472 C489 1.256 1_554 S
O473 Tb426 2.320 1_655 S
O473 C489 1.264 . S
O474 Tb426 2.552 1_655 S
O474 C482 1.243 . S
O475 Tb426 2.413 1_655 S
O475 C490 1.256 1_655 S
O476 Tb437 2.546 . S
O476 C501 1.251 1_655 S
O477 Tb426 2.362 1_554 S
O477 Tb437 2.610 1_455 S
O477 C493 1.283 . S
O478 Tb426 2.421 . S
O478 C500 1.262 1_556 S
O479 Tb437 2.320 1_455 S
O479 C500 1.260 . S
O480 Tb437 2.552 1_455 S
O480 C493 1.243 . S
O481 Tb437 2.413 1_455 S
O481 C501 1.256 . S
C482 O471 1.283 1_556 S
C482 O474 1.243 . S
C483 C485 1.382 . S
C483 C487 1.393 1_655 S
C483 C490 1.500 1_655 S
C484 C485 1.400 . S
C484 C486 1.384 . S
C485 C483 1.382 . S
C485 C484 1.400 . S
C485 H502 0.930 . S
C486 C484 1.384 . S
C486 C488 1.392 1_655 S
C486 H503 0.931 . S
C487 C483 1.393 1_455 S
C487 C488 1.401 . S
C487 H504 0.930 . S
C488 C486 1.392 1_455 S
C488 C487 1.401 . S
C488 H505 0.930 . S
C489 O472 1.256 1_556 S
C489 O473 1.264 . S
C490 Tb426 2.833 . S
C490 O470 1.251 . S
C490 O475 1.256 1_455 S
C490 C483 1.500 1_455 S
C491 H456 0.929 . S
C491 C469 1.444 . S
C491 C492 1.317 . S
C492 H454 0.930 . S
C492 C460 1.432 . S
C492 C491 1.317 . S
C493 O477 1.283 . S
C493 O480 1.243 . S
C494 C495 1.382 . S
C494 C498 1.393 1_455 S
C494 C501 1.500 . S
C495 C494 1.382 . S
C495 C496 1.400 . S
C495 H506 0.930 . S
C496 C495 1.400 . S
C496 C497 1.384 . S
C497 C496 1.384 . S
C497 C499 1.392 . S
C497 H507 0.931 . S
C498 C494 1.393 1_655 S
C498 C499 1.401 1_655 S
C498 H508 0.930 . S
C499 C497 1.392 . S
C499 C498 1.401 1_455 S
C499 H509 0.930 1_455 S
C500 O478 1.262 1_554 S
C500 O479 1.260 . S
C501 Tb437 2.833 1_455 S
C501 O476 1.251 1_455 S
C501 O481 1.256 . S
C501 C494 1.500 . S
H502 C485 0.930 . S
H503 C486 0.931 . S
H504 C487 0.930 . S
H505 C488 0.930 . S
H506 C495 0.930 . S
H507 C497 0.931 . S
H508 C498 0.930 . S
H509 C499 0.930 1_655 S
Tb510 N541 2.660 . S
Tb510 N548 2.600 . S
Tb510 O554 2.546 . S
Tb510 O555 2.610 . S
Tb510 O557 2.320 . S
Tb510 O558 2.552 . S
Tb510 O559 2.413 . S
Tb510 O561 2.362 . S
Tb510 O562 2.421 . S
Tb510 C574 2.833 . S
C511 C514 1.432 . S
C511 C515 1.414 . S
C511 N518 1.359 . S
C512 C514 1.417 . S
C512 C516 1.432 . S
C512 C524 1.410 . S
C513 C515 1.444 . S
C513 C516 1.317 . S
C513 H536 0.929 . S
C514 C511 1.432 . S
C514 C512 1.417 . S
C514 N522 1.360 . S
C515 C511 1.414 . S
C515 C513 1.444 . S
C515 C520 1.385 . S
C516 C512 1.432 . S
C516 C513 1.317 . S
C516 H528 0.930 . S
C517 C519 1.392 . S
C517 C520 1.370 . S
C517 H529 0.931 . S
N518 C511 1.359 . S
N518 C519 1.327 . S
N518 Tb521 2.600 . S
C519 C517 1.392 . S
C519 N518 1.327 . S
C519 H526 0.930 . S
C520 C515 1.385 . S
C520 C517 1.370 . S
C520 H539 0.930 . S
Tb521 N518 2.600 . S
Tb521 N522 2.660 . S
Tb521 O555 2.362 1_556 S
Tb521 O556 2.421 . S
Tb521 O560 2.546 . S
Tb521 O561 2.610 1_556 S
Tb521 O563 2.320 . S
Tb521 O564 2.552 . S
Tb521 O565 2.413 . S
Tb521 C585 2.833 . S
N522 C514 1.360 . S
N522 Tb521 2.660 . S
N522 C523 1.305 . S
C523 N522 1.305 . S
C523 C525 1.407 . S
C523 H530 0.930 . S
C524 C512 1.410 . S
C524 C525 1.345 . S
C524 H532 0.930 . S
C525 C523 1.407 . S
C525 C524 1.345 . S
C525 H527 0.930 . S
H526 C519 0.930 . S
H527 C525 0.930 . S
H528 C516 0.930 . S
H529 C517 0.931 . S
H530 C523 0.930 . S
H531 C545 0.930 . S
H532 C524 0.930 . S
H533 C551 0.930 . S
H534 C542 0.930 . S
H535 C549 0.931 . S
H536 C513 0.929 . S
H537 C543 0.930 . S
H538 C576 0.930 . S
H539 C520 0.930 . S
H540 C575 0.929 . S
N541 Tb510 2.660 . S
N541 C542 1.305 . S
N541 C546 1.360 . S
C542 H534 0.930 . S
C542 N541 1.305 . S
C542 C545 1.407 . S
C543 H537 0.930 . S
C543 C544 1.410 . S
C543 C545 1.345 . S
C544 C543 1.410 . S
C544 C546 1.417 . S
C544 C576 1.432 . S
C545 H531 0.930 . S
C545 C542 1.407 . S
C545 C543 1.345 . S
C546 N541 1.360 . S
C546 C544 1.417 . S
C546 C550 1.432 . S
H547 C552 0.930 . S
N548 Tb510 2.600 . S
N548 C550 1.359 . S
N548 C551 1.327 . S
C549 H535 0.931 . S
C549 C551 1.392 . S
C549 C552 1.370 . S
C550 C546 1.432 . S
C550 N548 1.359 . S
C550 C553 1.414 . S
C551 H533 0.930 . S
C551 N548 1.327 . S
C551 C549 1.392 . S
C552 H547 0.930 . S
C552 C549 1.370 . S
C552 C553 1.385 . S
C553 C550 1.414 . S
C553 C552 1.385 . S
C553 C575 1.444 . S
O554 Tb510 2.546 . S
O554 C574 1.251 . S
O555 Tb510 2.610 . S
O555 Tb521 2.362 1_554 S
O555 C566 1.283 . S
O556 Tb521 2.421 . S
O556 C573 1.262 1_556 S
O557 Tb510 2.320 . S
O557 C573 1.260 . S
O558 Tb510 2.552 . S
O558 C566 1.243 . S
O559 Tb510 2.413 . S
O559 C574 1.256 . S
O560 Tb521 2.546 . S
O560 C585 1.251 . S
O561 Tb510 2.362 . S
O561 Tb521 2.610 1_554 S
O561 C577 1.283 1_554 S
O562 Tb510 2.421 . S
O562 C584 1.262 . S
O563 Tb521 2.320 . S
O563 C584 1.260 1_556 S
O564 Tb521 2.552 . S
O564 C577 1.243 . S
O565 Tb521 2.413 . S
O565 C585 1.256 . S
C566 O555 1.283 . S
C566 O558 1.243 . S
C567 C569 1.382 . S
C567 C571 1.393 . S
C567 C574 1.500 . S
C568 C569 1.400 . S
C568 C570 1.384 . S
C569 C567 1.382 . S
C569 C568 1.400 . S
C569 H586 0.930 . S
C570 C568 1.384 . S
C570 C572 1.392 . S
C570 H587 0.931 . S
C571 C567 1.393 . S
C571 C572 1.401 . S
C571 H588 0.930 . S
C572 C570 1.392 . S
C572 C571 1.401 . S
C572 H589 0.930 . S
C573 O556 1.262 1_554 S
C573 O557 1.260 . S
C574 Tb510 2.833 . S
C574 O554 1.251 . S
C574 O559 1.256 . S
C574 C567 1.500 . S
C575 H540 0.929 . S
C575 C553 1.444 . S
C575 C576 1.317 . S
C576 H538 0.930 . S
C576 C544 1.432 . S
C576 C575 1.317 . S
C577 O561 1.283 1_556 S
C577 O564 1.243 . S
C578 C579 1.382 . S
C578 C582 1.393 . S
C578 C585 1.500 . S
C579 C578 1.382 . S
C579 C580 1.400 . S
C579 H590 0.930 . S
C580 C579 1.400 . S
C580 C581 1.384 . S
C581 C580 1.384 . S
C581 C583 1.392 . S
C581 H591 0.931 . S
C582 C578 1.393 . S
C582 C583 1.401 . S
C582 H592 0.930 . S
C583 C581 1.392 . S
C583 C582 1.401 . S
C583 H593 0.930 . S
C584 O562 1.262 . S
C584 O563 1.260 1_554 S
C585 Tb521 2.833 . S
C585 O560 1.251 . S
C585 O565 1.256 . S
C585 C578 1.500 . S
H586 C569 0.930 . S
H587 C570 0.931 . S
H588 C571 0.930 . S
H589 C572 0.930 . S
H590 C579 0.930 . S
H591 C581 0.931 . S
H592 C582 0.930 . S
H593 C583 0.930 . S
Tb594 N625 2.660 . S
Tb594 N632 2.600 . S
Tb594 O638 2.546 . S
Tb594 O639 2.610 . S
Tb594 O641 2.320 . S
Tb594 O642 2.552 . S
Tb594 O643 2.413 . S
Tb594 O645 2.362 . S
Tb594 O646 2.421 . S
Tb594 C658 2.833 . S
C595 C598 1.432 . S
C595 C599 1.414 . S
C595 N602 1.359 . S
C596 C598 1.417 . S
C596 C600 1.432 . S
C596 C608 1.410 . S
C597 C599 1.444 . S
C597 C600 1.317 . S
C597 H620 0.929 . S
C598 C595 1.432 . S
C598 C596 1.417 . S
C598 N606 1.360 . S
C599 C595 1.414 . S
C599 C597 1.444 . S
C599 C604 1.385 . S
C600 C596 1.432 . S
C600 C597 1.317 . S
C600 H612 0.930 . S
C601 C603 1.392 . S
C601 C604 1.370 . S
C601 H613 0.931 . S
N602 C595 1.359 . S
N602 C603 1.327 . S
N602 Tb605 2.600 . S
C603 C601 1.392 . S
C603 N602 1.327 . S
C603 H610 0.930 . S
C604 C599 1.385 . S
C604 C601 1.370 . S
C604 H623 0.930 . S
Tb605 N602 2.600 . S
Tb605 N606 2.660 . S
Tb605 O639 2.362 . S
Tb605 O640 2.421 . S
Tb605 O644 2.546 . S
Tb605 O645 2.610 . S
Tb605 O647 2.320 . S
Tb605 O648 2.552 . S
Tb605 O649 2.413 . S
Tb605 C669 2.833 . S
N606 C598 1.360 . S
N606 Tb605 2.660 . S
N606 C607 1.305 . S
C607 N606 1.305 . S
C607 C609 1.407 . S
C607 H614 0.930 . S
C608 C596 1.410 . S
C608 C609 1.345 . S
C608 H616 0.930 . S
C609 C607 1.407 . S
C609 C608 1.345 . S
C609 H611 0.930 . S
H610 C603 0.930 . S
H611 C609 0.930 . S
H612 C600 0.930 . S
H613 C601 0.931 . S
H614 C607 0.930 . S
H615 C629 0.930 . S
H616 C608 0.930 . S
H617 C635 0.930 . S
H618 C626 0.930 . S
H619 C633 0.931 . S
H620 C597 0.929 . S
H621 C627 0.930 . S
H622 C660 0.930 . S
H623 C604 0.930 . S
H624 C659 0.929 . S
N625 Tb594 2.660 . S
N625 C626 1.305 . S
N625 C630 1.360 . S
C626 H618 0.930 . S
C626 N625 1.305 . S
C626 C629 1.407 1_455 S
C627 H621 0.930 . S
C627 C628 1.410 . S
C627 C629 1.345 . S
C628 C627 1.410 . S
C628 C630 1.417 1_655 S
C628 C660 1.432 . S
C629 H615 0.930 . S
C629 C626 1.407 1_655 S
C629 C627 1.345 . S
C630 N625 1.360 . S
C630 C628 1.417 1_455 S
C630 C634 1.432 . S
H631 C636 0.930 . S
N632 Tb594 2.600 . S
N632 C634 1.359 . S
N632 C635 1.327 . S
C633 H619 0.931 . S
C633 C635 1.392 . S
C633 C636 1.370 . S
C634 C630 1.432 . S
C634 N632 1.359 . S
C634 C637 1.414 . S
C635 H617 0.930 . S
C635 N632 1.327 . S
C635 C633 1.392 . S
C636 H631 0.930 . S
C636 C633 1.370 . S
C636 C637 1.385 . S
C637 C634 1.414 . S
C637 C636 1.385 . S
C637 C659 1.444 1_455 S
O638 Tb594 2.546 . S
O638 C658 1.251 . S
O639 Tb594 2.610 . S
O639 Tb605 2.362 . S
O639 C650 1.283 . S
O640 Tb605 2.421 . S
O640 C657 1.262 . S
O641 Tb594 2.320 . S
O641 C657 1.260 . S
O642 Tb594 2.552 . S
O642 C650 1.243 . S
O643 Tb594 2.413 . S
O643 C658 1.256 . S
O644 Tb605 2.546 . S
O644 C669 1.251 . S
O645 Tb594 2.362 . S
O645 Tb605 2.610 . S
O645 C661 1.283 . S
O646 Tb594 2.421 . S
O646 C668 1.262 . S
O647 Tb605 2.320 . S
O647 C668 1.260 . S
O648 Tb605 2.552 . S
O648 C661 1.243 . S
O649 Tb605 2.413 . S
O649 C669 1.256 . S
C650 O639 1.283 . S
C650 O642 1.243 . S
C651 C653 1.382 . S
C651 C655 1.393 . S
C651 C658 1.500 . S
C652 C653 1.400 . S
C652 C654 1.384 . S
C653 C651 1.382 . S
C653 C652 1.400 . S
C653 H670 0.930 . S
C654 C652 1.384 . S
C654 C656 1.392 . S
C654 H671 0.931 . S
C655 C651 1.393 . S
C655 C656 1.401 . S
C655 H672 0.930 . S
C656 C654 1.392 . S
C656 C655 1.401 . S
C656 H673 0.930 . S
C657 O640 1.262 . S
C657 O641 1.260 . S
C658 Tb594 2.833 . S
C658 O638 1.251 . S
C658 O643 1.256 . S
C658 C651 1.500 . S
C659 H624 0.929 . S
C659 C637 1.444 1_655 S
C659 C660 1.317 . S
C660 H622 0.930 . S
C660 C628 1.432 . S
C660 C659 1.317 . S
C661 O645 1.283 . S
C661 O648 1.243 . S
C662 C663 1.382 . S
C662 C666 1.393 . S
C662 C669 1.500 . S
C663 C662 1.382 . S
C663 C664 1.400 . S
C663 H674 0.930 . S
C664 C663 1.400 . S
C664 C665 1.384 . S
C665 C664 1.384 . S
C665 C667 1.392 . S
C665 H675 0.931 . S
C666 C662 1.393 . S
C666 C667 1.401 . S
C666 H676 0.930 . S
C667 C665 1.392 . S
C667 C666 1.401 . S
C667 H677 0.930 . S
C668 O646 1.262 . S
C668 O647 1.260 . S
C669 Tb605 2.833 . S
C669 O644 1.251 . S
C669 O649 1.256 . S
C669 C662 1.500 . S
H670 C653 0.930 . S
H671 C654 0.931 . S
H672 C655 0.930 . S
H673 C656 0.930 . S
H674 C663 0.930 . S
H675 C665 0.931 . S
H676 C666 0.930 . S
H677 C667 0.930 . S
Tb678 N709 2.660 . S
Tb678 N716 2.600 . S
Tb678 O722 2.546 . S
Tb678 O723 2.610 . S
Tb678 O725 2.320 . S
Tb678 O726 2.552 . S
Tb678 O727 2.413 . S
Tb678 O729 2.362 . S
Tb678 O730 2.421 . S
Tb678 C742 2.833 . S
C679 C682 1.432 . S
C679 C683 1.414 . S
C679 N686 1.359 . S
C680 C682 1.417 . S
C680 C684 1.432 . S
C680 C692 1.410 . S
C681 C683 1.444 . S
C681 C684 1.317 . S
C681 H704 0.929 . S
C682 C679 1.432 . S
C682 C680 1.417 . S
C682 N690 1.360 . S
C683 C679 1.414 . S
C683 C681 1.444 . S
C683 C688 1.385 . S
C684 C680 1.432 . S
C684 C681 1.317 . S
C684 H696 0.930 . S
C685 C687 1.392 . S
C685 C688 1.370 . S
C685 H697 0.931 . S
N686 C679 1.359 . S
N686 C687 1.327 . S
N686 Tb689 2.600 . S
C687 C685 1.392 . S
C687 N686 1.327 . S
C687 H694 0.930 . S
C688 C683 1.385 . S
C688 C685 1.370 . S
C688 H707 0.930 . S
Tb689 N686 2.600 . S
Tb689 N690 2.660 . S
Tb689 O723 2.362 . S
Tb689 O724 2.421 . S
Tb689 O728 2.546 . S
Tb689 O729 2.610 . S
Tb689 O731 2.320 . S
Tb689 O732 2.552 . S
Tb689 O733 2.413 . S
Tb689 C753 2.833 . S
N690 C682 1.360 . S
N690 Tb689 2.660 . S
N690 C691 1.305 . S
C691 N690 1.305 . S
C691 C693 1.407 . S
C691 H698 0.930 . S
C692 C680 1.410 . S
C692 C693 1.345 . S
C692 H700 0.930 . S
C693 C691 1.407 . S
C693 C692 1.345 . S
C693 H695 0.930 . S
H694 C687 0.930 . S
H695 C693 0.930 . S
H696 C684 0.930 . S
H697 C685 0.931 . S
H698 C691 0.930 . S
H699 C713 0.930 . S
H700 C692 0.930 . S
H701 C719 0.930 . S
H702 C710 0.930 . S
H703 C717 0.931 . S
H704 C681 0.929 . S
H705 C711 0.930 . S
H706 C744 0.930 . S
H707 C688 0.930 . S
H708 C743 0.929 . S
N709 Tb678 2.660 . S
N709 C710 1.305 . S
N709 C714 1.360 . S
C710 H702 0.930 . S
C710 N709 1.305 . S
C710 C713 1.407 . S
C711 H705 0.930 . S
C711 C712 1.410 . S
C711 C713 1.345 . S
C712 C711 1.410 . S
C712 C714 1.417 . S
C712 C744 1.432 . S
C713 H699 0.930 . S
C713 C710 1.407 . S
C713 C711 1.345 . S
C714 N709 1.360 . S
C714 C712 1.417 . S
C714 C718 1.432 . S
H715 C720 0.930 . S
N716 Tb678 2.600 . S
N716 C718 1.359 . S
N716 C719 1.327 . S
C717 H703 0.931 . S
C717 C719 1.392 . S
C717 C720 1.370 . S
C718 C714 1.432 . S
C718 N716 1.359 . S
C718 C721 1.414 . S
C719 H701 0.930 . S
C719 N716 1.327 . S
C719 C717 1.392 . S
C720 H715 0.930 . S
C720 C717 1.370 . S
C720 C721 1.385 . S
C721 C718 1.414 . S
C721 C720 1.385 . S
C721 C743 1.444 . S
O722 Tb678 2.546 . S
O722 C742 1.251 . S
O723 Tb678 2.610 . S
O723 Tb689 2.362 . S
O723 C734 1.283 . S
O724 Tb689 2.421 . S
O724 C741 1.262 . S
O725 Tb678 2.320 . S
O725 C741 1.260 . S
O726 Tb678 2.552 . S
O726 C734 1.243 . S
O727 Tb678 2.413 . S
O727 C742 1.256 . S
O728 Tb689 2.546 . S
O728 C753 1.251 . S
O729 Tb678 2.362 . S
O729 Tb689 2.610 . S
O729 C745 1.283 . S
O730 Tb678 2.421 . S
O730 C752 1.262 . S
O731 Tb689 2.320 . S
O731 C752 1.260 . S
O732 Tb689 2.552 . S
O732 C745 1.243 . S
O733 Tb689 2.413 . S
O733 C753 1.256 . S
C734 O723 1.283 . S
C734 O726 1.243 . S
C735 C737 1.382 . S
C735 C739 1.393 . S
C735 C742 1.500 . S
C736 C737 1.400 . S
C736 C738 1.384 . S
C737 C735 1.382 . S
C737 C736 1.400 . S
C737 H754 0.930 . S
C738 C736 1.384 . S
C738 C740 1.392 . S
C738 H755 0.931 . S
C739 C735 1.393 . S
C739 C740 1.401 . S
C739 H756 0.930 . S
C740 C738 1.392 . S
C740 C739 1.401 . S
C740 H757 0.930 . S
C741 O724 1.262 . S
C741 O725 1.260 . S
C742 Tb678 2.833 . S
C742 O722 1.251 . S
C742 O727 1.256 . S
C742 C735 1.500 . S
C743 H708 0.929 . S
C743 C721 1.444 . S
C743 C744 1.317 . S
C744 H706 0.930 . S
C744 C712 1.432 . S
C744 C743 1.317 . S
C745 O729 1.283 . S
C745 O732 1.243 . S
C746 C747 1.382 . S
C746 C750 1.393 . S
C746 C753 1.500 . S
C747 C746 1.382 . S
C747 C748 1.400 . S
C747 H758 0.930 . S
C748 C747 1.400 . S
C748 C749 1.384 . S
C749 C748 1.384 . S
C749 C751 1.392 . S
C749 H759 0.931 . S
C750 C746 1.393 . S
C750 C751 1.401 . S
C750 H760 0.930 . S
C751 C749 1.392 . S
C751 C750 1.401 . S
C751 H761 0.930 . S
C752 O730 1.262 . S
C752 O731 1.260 . S
C753 Tb689 2.833 . S
C753 O728 1.251 . S
C753 O733 1.256 . S
C753 C746 1.500 . S
H754 C737 0.930 . S
H755 C738 0.931 . S
H756 C739 0.930 . S
H757 C740 0.930 . S
H758 C747 0.930 . S
H759 C749 0.931 . S
H760 C750 0.930 . S
H761 C751 0.930 . S
Tb762 N793 2.660 . S
Tb762 N800 2.600 . S
Tb762 O806 2.546 . S
Tb762 O807 2.610 . S
Tb762 O809 2.320 . S
Tb762 O810 2.552 . S
Tb762 O811 2.413 . S
Tb762 O813 2.362 . S
Tb762 O814 2.421 . S
Tb762 C826 2.833 . S
C763 C766 1.432 . S
C763 C767 1.414 . S
C763 N770 1.359 . S
C764 C766 1.417 . S
C764 C768 1.432 . S
C764 C776 1.410 . S
C765 C767 1.444 . S
C765 C768 1.317 . S
C765 H788 0.929 . S
C766 C763 1.432 . S
C766 C764 1.417 . S
C766 N774 1.360 . S
C767 C763 1.414 . S
C767 C765 1.444 . S
C767 C772 1.385 . S
C768 C764 1.432 . S
C768 C765 1.317 . S
C768 H780 0.930 . S
C769 C771 1.392 . S
C769 C772 1.370 . S
C769 H781 0.950 . S
N770 C763 1.359 . S
N770 C771 1.327 . S
N770 Tb773 2.600 . S
C771 C769 1.392 . S
C771 N770 1.327 . S
C771 H778 0.930 . S
C772 C767 1.385 . S
C772 C769 1.370 . S
C772 H791 0.930 . S
Tb773 N770 2.600 . S
Tb773 N774 2.660 . S
Tb773 O807 2.362 . S
Tb773 O808 2.421 . S
Tb773 O812 2.546 . S
Tb773 O813 2.610 . S
Tb773 O815 2.320 . S
Tb773 O816 2.552 . S
Tb773 O817 2.413 . S
Tb773 C837 2.833 . S
N774 C766 1.360 . S
N774 Tb773 2.660 . S
N774 C775 1.305 . S
C775 N774 1.305 . S
C775 C777 1.407 . S
C775 H782 0.930 . S
C776 C764 1.410 . S
C776 C777 1.345 . S
C776 H784 0.930 . S
C777 C775 1.407 . S
C777 C776 1.345 . S
C777 H779 0.930 . S
H778 C771 0.930 . S
H779 C777 0.930 . S
H780 C768 0.930 . S
H781 C769 0.950 . S
H782 C775 0.930 . S
H783 C797 0.930 . S
H784 C776 0.930 . S
H785 C803 0.930 . S
H786 C794 0.930 . S
H787 C801 0.931 . S
H788 C765 0.929 . S
H789 C795 0.930 . S
H790 C828 0.930 . S
H791 C772 0.930 . S
H792 C827 0.929 . S
N793 Tb762 2.660 . S
N793 C794 1.305 . S
N793 C798 1.360 . S
C794 H786 0.930 . S
C794 N793 1.305 . S
C794 C797 1.407 . S
C795 H789 0.930 . S
C795 C796 1.410 . S
C795 C797 1.345 . S
C796 C795 1.410 . S
C796 C798 1.417 . S
C796 C828 1.432 . S
C797 H783 0.930 . S
C797 C794 1.407 . S
C797 C795 1.345 . S
C798 N793 1.360 . S
C798 C796 1.417 . S
C798 C802 1.432 . S
H799 C804 0.930 . S
N800 Tb762 2.600 . S
N800 C802 1.359 . S
N800 C803 1.327 . S
C801 H787 0.931 . S
C801 C803 1.392 . S
C801 C804 1.370 . S
C802 C798 1.432 . S
C802 N800 1.359 . S
C802 C805 1.414 . S
C803 H785 0.930 . S
C803 N800 1.327 . S
C803 C801 1.392 . S
C804 H799 0.930 . S
C804 C801 1.370 . S
C804 C805 1.385 . S
C805 C802 1.414 . S
C805 C804 1.385 . S
C805 C827 1.444 . S
O806 Tb762 2.546 . S
O806 C826 1.251 . S
O807 Tb762 2.610 . S
O807 Tb773 2.362 . S
O807 C818 1.283 . S
O808 Tb773 2.421 . S
O808 C825 1.262 . S
O809 Tb762 2.320 . S
O809 C825 1.260 . S
O810 Tb762 2.552 . S
O810 C818 1.243 . S
O811 Tb762 2.413 . S
O811 C826 1.256 . S
O812 Tb773 2.546 . S
O812 C837 1.251 . S
O813 Tb762 2.362 . S
O813 Tb773 2.610 . S
O813 C829 1.283 . S
O814 Tb762 2.421 . S
O814 C836 1.262 . S
O815 Tb773 2.320 . S
O815 C836 1.260 . S
O816 Tb773 2.552 . S
O816 C829 1.243 . S
O817 Tb773 2.413 . S
O817 C837 1.256 . S
C818 O807 1.283 . S
C818 O810 1.243 . S
C819 C821 1.382 . S
C819 C823 1.393 . S
C819 C826 1.500 . S
C820 C821 1.400 . S
C820 C822 1.384 . S
C821 C819 1.382 . S
C821 C820 1.400 . S
C821 H838 0.930 . S
C822 C820 1.384 . S
C822 C824 1.392 . S
C822 H839 0.931 . S
C823 C819 1.393 . S
C823 C824 1.401 . S
C823 H840 0.930 . S
C824 C822 1.392 . S
C824 C823 1.401 . S
C824 H841 0.930 . S
C825 O808 1.262 . S
C825 O809 1.260 . S
C826 Tb762 2.833 . S
C826 O806 1.251 . S
C826 O811 1.256 . S
C826 C819 1.500 . S
C827 H792 0.929 . S
C827 C805 1.444 . S
C827 C828 1.317 . S
C828 H790 0.930 . S
C828 C796 1.432 . S
C828 C827 1.317 . S
C829 O813 1.283 . S
C829 O816 1.243 . S
C830 C831 1.382 . S
C830 C834 1.393 . S
C830 C837 1.500 . S
C831 C830 1.382 . S
C831 C832 1.400 . S
C831 H842 0.930 . S
C832 C831 1.400 . S
C832 C833 1.384 . S
C833 C832 1.384 . S
C833 C835 1.392 . S
C833 H843 0.931 . S
C834 C830 1.393 . S
C834 C835 1.401 . S
C834 H844 0.930 . S
C835 C833 1.392 . S
C835 C834 1.401 . S
C835 H845 0.930 . S
C836 O814 1.262 . S
C836 O815 1.260 . S
C837 Tb773 2.833 . S
C837 O812 1.251 . S
C837 O817 1.256 . S
C837 C830 1.500 . S
H838 C821 0.930 . S
H839 C822 0.931 . S
H840 C823 0.930 . S
H841 C824 0.930 . S
H842 C831 0.930 . S
H843 C833 0.931 . S
H844 C834 0.930 . S
H845 C835 0.930 . S
Tb846 N877 2.660 . S
Tb846 N884 2.600 . S
Tb846 O890 2.546 . S
Tb846 O891 2.610 . S
Tb846 O893 2.320 . S
Tb846 O894 2.552 . S
Tb846 O895 2.413 . S
Tb846 O897 2.362 . S
Tb846 O898 2.421 . S
Tb846 C910 2.833 . S
C847 C850 1.432 . S
C847 C851 1.414 . S
C847 N854 1.359 . S
C848 C850 1.417 . S
C848 C852 1.432 . S
C848 C860 1.410 . S
C849 C851 1.444 . S
C849 C852 1.317 . S
C849 H872 0.929 . S
C850 C847 1.432 . S
C850 C848 1.417 . S
C850 N858 1.360 . S
C851 C847 1.414 . S
C851 C849 1.444 . S
C851 C856 1.385 . S
C852 C848 1.432 . S
C852 C849 1.317 . S
C852 H864 0.930 . S
C853 C855 1.392 . S
C853 C856 1.370 . S
C853 H865 0.931 . S
N854 C847 1.359 . S
N854 C855 1.327 . S
N854 Tb857 2.600 . S
C855 C853 1.392 . S
C855 N854 1.327 . S
C855 H862 0.930 . S
C856 C851 1.385 . S
C856 C853 1.370 . S
C856 H875 0.930 . S
Tb857 N854 2.600 . S
Tb857 N858 2.660 . S
Tb857 O891 2.362 . S
Tb857 O892 2.421 . S
Tb857 O896 2.546 . S
Tb857 O897 2.610 . S
Tb857 O899 2.320 . S
Tb857 O900 2.552 . S
Tb857 O901 2.413 . S
Tb857 C921 2.833 . S
N858 C850 1.360 . S
N858 Tb857 2.660 . S
N858 C859 1.305 . S
C859 N858 1.305 . S
C859 C861 1.407 . S
C859 H866 0.930 . S
C860 C848 1.410 . S
C860 C861 1.345 . S
C860 H868 0.930 . S
C861 C859 1.407 . S
C861 C860 1.345 . S
C861 H863 0.930 . S
H862 C855 0.930 . S
H863 C861 0.930 . S
H864 C852 0.930 . S
H865 C853 0.931 . S
H866 C859 0.930 . S
H867 C881 0.930 . S
H868 C860 0.930 . S
H869 C887 0.930 . S
H870 C878 0.930 . S
H871 C885 0.931 . S
H872 C849 0.929 . S
H873 C879 0.930 . S
H874 C912 0.930 . S
H875 C856 0.930 . S
H876 C911 0.929 . S
N877 Tb846 2.660 . S
N877 C878 1.305 . S
N877 C882 1.360 . S
C878 H870 0.930 . S
C878 N877 1.305 . S
C878 C881 1.407 . S
C879 H873 0.930 . S
C879 C880 1.410 . S
C879 C881 1.345 . S
C880 C879 1.410 . S
C880 C882 1.417 . S
C880 C912 1.432 . S
C881 H867 0.930 . S
C881 C878 1.407 . S
C881 C879 1.345 . S
C882 N877 1.360 . S
C882 C880 1.417 . S
C882 C886 1.432 . S
H883 C888 0.930 . S
N884 Tb846 2.600 . S
N884 C886 1.359 . S
N884 C887 1.327 . S
C885 H871 0.931 . S
C885 C887 1.392 . S
C885 C888 1.370 . S
C886 C882 1.432 . S
C886 N884 1.359 . S
C886 C889 1.414 . S
C887 H869 0.930 . S
C887 N884 1.327 . S
C887 C885 1.392 . S
C888 H883 0.930 . S
C888 C885 1.370 . S
C888 C889 1.385 . S
C889 C886 1.414 . S
C889 C888 1.385 . S
C889 C911 1.444 . S
O890 Tb846 2.546 . S
O890 C910 1.251 . S
O891 Tb846 2.610 . S
O891 Tb857 2.362 . S
O891 C902 1.283 . S
O892 Tb857 2.421 . S
O892 C909 1.262 . S
O893 Tb846 2.320 . S
O893 C909 1.260 . S
O894 Tb846 2.552 . S
O894 C902 1.243 . S
O895 Tb846 2.413 . S
O895 C910 1.256 . S
O896 Tb857 2.546 . S
O896 C921 1.251 . S
O897 Tb846 2.362 . S
O897 Tb857 2.610 . S
O897 C913 1.283 . S
O898 Tb846 2.421 . S
O898 C920 1.262 . S
O899 Tb857 2.320 . S
O899 C920 1.260 . S
O900 Tb857 2.552 . S
O900 C913 1.243 . S
O901 Tb857 2.413 . S
O901 C921 1.256 . S
C902 O891 1.283 . S
C902 O894 1.243 . S
C903 C905 1.382 . S
C903 C907 1.393 . S
C903 C910 1.500 . S
C904 C905 1.400 . S
C904 C906 1.384 . S
C905 C903 1.382 . S
C905 C904 1.400 . S
C905 H922 0.930 . S
C906 C904 1.384 . S
C906 C908 1.392 . S
C906 H923 0.931 . S
C907 C903 1.393 . S
C907 C908 1.401 . S
C907 H924 0.930 . S
C908 C906 1.392 . S
C908 C907 1.401 . S
C908 H925 0.930 . S
C909 O892 1.262 . S
C909 O893 1.260 . S
C910 Tb846 2.833 . S
C910 O890 1.251 . S
C910 O895 1.256 . S
C910 C903 1.500 . S
C911 H876 0.929 . S
C911 C889 1.444 . S
C911 C912 1.317 . S
C912 H874 0.930 . S
C912 C880 1.432 . S
C912 C911 1.317 . S
C913 O897 1.283 . S
C913 O900 1.243 . S
C914 C915 1.382 . S
C914 C918 1.393 . S
C914 C921 1.500 . S
C915 C914 1.382 . S
C915 C916 1.400 . S
C915 H926 0.930 . S
C916 C915 1.400 . S
C916 C917 1.384 . S
C917 C916 1.384 . S
C917 C919 1.392 . S
C917 H927 0.931 . S
C918 C914 1.393 . S
C918 C919 1.401 . S
C918 H928 0.930 . S
C919 C917 1.392 . S
C919 C918 1.401 . S
C919 H929 0.930 . S
C920 O898 1.262 . S
C920 O899 1.260 . S
C921 Tb857 2.833 . S
C921 O896 1.251 . S
C921 O901 1.256 . S
C921 C914 1.500 . S
H922 C905 0.930 . S
H923 C906 0.931 . S
H924 C907 0.930 . S
H925 C908 0.930 . S
H926 C915 0.930 . S
H927 C917 0.931 . S
H928 C918 0.930 . S
H929 C919 0.930 . S
Tb930 N961 2.660 . S
Tb930 N968 2.600 . S
Tb930 O974 2.546 . S
Tb930 O975 2.610 . S
Tb930 O977 2.320 . S
Tb930 O978 2.552 . S
Tb930 O979 2.413 . S
Tb930 O981 2.362 . S
Tb930 O982 2.421 . S
Tb930 C994 2.833 . S
C931 C934 1.432 . S
C931 C935 1.414 . S
C931 N938 1.359 . S
C932 C934 1.417 . S
C932 C936 1.432 . S
C932 C944 1.410 . S
C933 C935 1.444 . S
C933 C936 1.317 . S
C933 H956 0.929 . S
C934 C931 1.432 . S
C934 C932 1.417 . S
C934 N942 1.360 . S
C935 C931 1.414 . S
C935 C933 1.444 . S
C935 C940 1.385 . S
C936 C932 1.432 . S
C936 C933 1.317 . S
C936 H948 0.930 . S
C937 C939 1.392 . S
C937 C940 1.370 . S
C937 H949 0.931 . S
N938 C931 1.359 . S
N938 C939 1.327 . S
N938 Tb941 2.600 . S
C939 C937 1.392 . S
C939 N938 1.327 . S
C939 H946 0.930 . S
C940 C935 1.385 . S
C940 C937 1.370 . S
C940 H959 0.930 . S
Tb941 N938 2.600 . S
Tb941 N942 2.660 . S
Tb941 O975 2.362 . S
Tb941 O976 2.421 . S
Tb941 O980 2.546 . S
Tb941 O981 2.610 . S
Tb941 O983 2.320 . S
Tb941 O984 2.552 . S
Tb941 O985 2.413 . S
Tb941 C1005 2.833 . S
N942 C934 1.360 . S
N942 Tb941 2.660 . S
N942 C943 1.305 . S
C943 N942 1.305 . S
C943 C945 1.407 . S
C943 H950 0.930 . S
C944 C932 1.410 . S
C944 C945 1.345 . S
C944 H952 0.930 . S
C945 C943 1.407 . S
C945 C944 1.345 . S
C945 H947 0.930 . S
H946 C939 0.930 . S
H947 C945 0.930 . S
H948 C936 0.930 . S
H949 C937 0.931 . S
H950 C943 0.930 . S
H951 C965 0.930 . S
H952 C944 0.930 . S
H953 C971 0.930 . S
H954 C962 0.930 . S
H955 C969 0.931 . S
H956 C933 0.929 . S
H957 C963 0.930 . S
H958 C996 0.930 . S
H959 C940 0.930 . S
H960 C995 0.929 . S
N961 Tb930 2.660 . S
N961 C962 1.305 . S
N961 C966 1.360 . S
C962 H954 0.930 . S
C962 N961 1.305 . S
C962 C965 1.407 . S
C963 H957 0.930 . S
C963 C964 1.410 . S
C963 C965 1.345 . S
C964 C963 1.410 . S
C964 C966 1.417 . S
C964 C996 1.432 . S
C965 H951 0.930 . S
C965 C962 1.407 . S
C965 C963 1.345 . S
C966 N961 1.360 . S
C966 C964 1.417 . S
C966 C970 1.432 . S
H967 C972 0.930 . S
N968 Tb930 2.600 . S
N968 C970 1.359 . S
N968 C971 1.327 . S
C969 H955 0.931 . S
C969 C971 1.392 . S
C969 C972 1.370 . S
C970 C966 1.432 . S
C970 N968 1.359 . S
C970 C973 1.414 . S
C971 H953 0.930 . S
C971 N968 1.327 . S
C971 C969 1.392 . S
C972 H967 0.930 . S
C972 C969 1.370 . S
C972 C973 1.385 . S
C973 C970 1.414 . S
C973 C972 1.385 . S
C973 C995 1.444 . S
O974 Tb930 2.546 . S
O974 C994 1.251 . S
O975 Tb930 2.610 . S
O975 Tb941 2.362 . S
O975 C986 1.283 . S
O976 Tb941 2.421 . S
O976 C993 1.262 . S
O977 Tb930 2.320 . S
O977 C993 1.260 . S
O978 Tb930 2.552 . S
O978 C986 1.243 . S
O979 Tb930 2.413 . S
O979 C994 1.256 . S
O980 Tb941 2.546 . S
O980 C1005 1.251 . S
O981 Tb930 2.362 . S
O981 Tb941 2.610 . S
O981 C997 1.283 . S
O982 Tb930 2.421 . S
O982 C1004 1.262 . S
O983 Tb941 2.320 . S
O983 C1004 1.260 . S
O984 Tb941 2.552 . S
O984 C997 1.243 . S
O985 Tb941 2.413 . S
O985 C1005 1.256 . S
C986 O975 1.283 . S
C986 O978 1.243 . S
C987 C989 1.382 . S
C987 C991 1.393 . S
C987 C994 1.500 . S
C988 C989 1.400 . S
C988 C990 1.384 . S
C989 C987 1.382 . S
C989 C988 1.400 . S
C989 H1006 0.930 . S
C990 C988 1.384 . S
C990 C992 1.392 . S
C990 H1007 0.931 . S
C991 C987 1.393 . S
C991 C992 1.401 . S
C991 H1008 0.930 . S
C992 C990 1.392 . S
C992 C991 1.401 . S
C992 H1009 0.930 . S
C993 O976 1.262 . S
C993 O977 1.260 . S
C994 Tb930 2.833 . S
C994 O974 1.251 . S
C994 O979 1.256 . S
C994 C987 1.500 . S
C995 H960 0.929 . S
C995 C973 1.444 . S
C995 C996 1.317 . S
C996 H958 0.930 . S
C996 C964 1.432 . S
C996 C995 1.317 . S
C997 O981 1.283 . S
C997 O984 1.243 . S
C998 C999 1.382 . S
C998 C1002 1.393 . S
C998 C1005 1.500 . S
C999 C998 1.382 . S
C999 C1000 1.400 . S
C999 H1010 0.930 . S
C1000 C999 1.400 . S
C1000 C1001 1.384 . S
C1001 C1000 1.384 . S
C1001 C1003 1.392 . S
C1001 H1011 0.931 . S
C1002 C998 1.393 . S
C1002 C1003 1.401 . S
C1002 H1012 0.930 . S
C1003 C1001 1.392 . S
C1003 C1002 1.401 . S
C1003 H1013 0.930 . S
C1004 O982 1.262 . S
C1004 O983 1.260 . S
C1005 Tb941 2.833 . S
C1005 O980 1.251 . S
C1005 O985 1.256 . S
C1005 C998 1.500 . S
H1006 C989 0.930 . S
H1007 C990 0.931 . S
H1008 C991 0.930 . S
H1009 C992 0.930 . S
H1010 C999 0.930 . S
H1011 C1001 0.931 . S
H1012 C1002 0.930 . S
H1013 C1003 0.930 . S
Tb1014 N1045 2.660 . S
Tb1014 N1052 2.600 . S
Tb1014 O1058 2.546 . S
Tb1014 O1059 2.610 . S
Tb1014 O1061 2.320 . S
Tb1014 O1062 2.552 . S
Tb1014 O1063 2.413 . S
Tb1014 O1065 2.362 . S
Tb1014 O1066 2.421 . S
Tb1014 C1078 2.833 . S
C1015 C1018 1.432 . S
C1015 C1019 1.414 . S
C1015 N1022 1.359 . S
C1016 C1018 1.417 . S
C1016 C1020 1.432 . S
C1016 C1028 1.410 . S
C1017 C1019 1.444 . S
C1017 C1020 1.317 . S
C1017 H1040 0.929 . S
C1018 C1015 1.432 . S
C1018 C1016 1.417 . S
C1018 N1026 1.360 . S
C1019 C1015 1.414 . S
C1019 C1017 1.444 . S
C1019 C1024 1.385 . S
C1020 C1016 1.432 . S
C1020 C1017 1.317 . S
C1020 H1032 0.930 . S
C1021 C1023 1.392 . S
C1021 C1024 1.370 . S
C1021 H1033 0.931 . S
N1022 C1015 1.359 . S
N1022 C1023 1.327 . S
N1022 Tb1025 2.600 . S
C1023 C1021 1.392 . S
C1023 N1022 1.327 . S
C1023 H1030 0.930 . S
C1024 C1019 1.385 . S
C1024 C1021 1.370 . S
C1024 H1043 0.930 . S
Tb1025 N1022 2.600 . S
Tb1025 N1026 2.660 . S
Tb1025 O1059 2.362 . S
Tb1025 O1060 2.421 . S
Tb1025 O1064 2.546 . S
Tb1025 O1065 2.610 . S
Tb1025 O1067 2.320 . S
Tb1025 O1068 2.552 . S
Tb1025 O1069 2.413 . S
Tb1025 C1089 2.833 . S
N1026 C1018 1.360 . S
N1026 Tb1025 2.660 . S
N1026 C1027 1.305 . S
C1027 N1026 1.305 . S
C1027 C1029 1.407 . S
C1027 H1034 0.930 . S
C1028 C1016 1.410 . S
C1028 C1029 1.345 . S
C1028 H1036 0.930 . S
C1029 C1027 1.407 . S
C1029 C1028 1.345 . S
C1029 H1031 0.930 . S
H1030 C1023 0.930 . S
H1031 C1029 0.930 . S
H1032 C1020 0.930 . S
H1033 C1021 0.931 . S
H1034 C1027 0.930 . S
H1035 C1049 0.930 . S
H1036 C1028 0.930 . S
H1037 C1055 0.930 . S
H1038 C1046 0.930 . S
H1039 C1053 0.931 . S
H1040 C1017 0.929 . S
H1041 C1047 0.930 . S
H1042 C1080 0.930 . S
H1043 C1024 0.930 . S
H1044 C1079 0.929 . S
N1045 Tb1014 2.660 . S
N1045 C1046 1.305 . S
N1045 C1050 1.360 . S
C1046 H1038 0.930 . S
C1046 N1045 1.305 . S
C1046 C1049 1.407 1_655 S
C1047 H1041 0.930 . S
C1047 C1048 1.410 . S
C1047 C1049 1.345 . S
C1048 C1047 1.410 . S
C1048 C1050 1.417 1_455 S
C1048 C1080 1.432 . S
C1049 H1035 0.930 . S
C1049 C1046 1.407 1_455 S
C1049 C1047 1.345 . S
C1050 N1045 1.360 . S
C1050 C1048 1.417 1_655 S
C1050 C1054 1.432 . S
H1051 C1056 0.930 . S
N1052 Tb1014 2.600 . S
N1052 C1054 1.359 . S
N1052 C1055 1.327 . S
C1053 H1039 0.931 . S
C1053 C1055 1.392 . S
C1053 C1056 1.370 . S
C1054 C1050 1.432 . S
C1054 N1052 1.359 . S
C1054 C1057 1.414 . S
C1055 H1037 0.930 . S
C1055 N1052 1.327 . S
C1055 C1053 1.392 . S
C1056 H1051 0.930 . S
C1056 C1053 1.370 . S
C1056 C1057 1.385 . S
C1057 C1054 1.414 . S
C1057 C1056 1.385 . S
C1057 C1079 1.444 1_655 S
O1058 Tb1014 2.546 . S
O1058 C1078 1.251 . S
O1059 Tb1014 2.610 . S
O1059 Tb1025 2.362 . S
O1059 C1070 1.283 . S
O1060 Tb1025 2.421 . S
O1060 C1077 1.262 . S
O1061 Tb1014 2.320 . S
O1061 C1077 1.260 . S
O1062 Tb1014 2.552 . S
O1062 C1070 1.243 . S
O1063 Tb1014 2.413 . S
O1063 C1078 1.256 . S
O1064 Tb1025 2.546 . S
O1064 C1089 1.251 . S
O1065 Tb1014 2.362 . S
O1065 Tb1025 2.610 . S
O1065 C1081 1.283 . S
O1066 Tb1014 2.421 . S
O1066 C1088 1.262 . S
O1067 Tb1025 2.320 . S
O1067 C1088 1.260 . S
O1068 Tb1025 2.552 . S
O1068 C1081 1.243 . S
O1069 Tb1025 2.413 . S
O1069 C1089 1.256 . S
C1070 O1059 1.283 . S
C1070 O1062 1.243 . S
C1071 C1073 1.382 . S
C1071 C1075 1.393 . S
C1071 C1078 1.500 . S
C1072 C1073 1.400 . S
C1072 C1074 1.384 . S
C1073 C1071 1.382 . S
C1073 C1072 1.400 . S
C1073 H1090 0.930 . S
C1074 C1072 1.384 . S
C1074 C1076 1.392 . S
C1074 H1091 0.931 . S
C1075 C1071 1.393 . S
C1075 C1076 1.401 . S
C1075 H1092 0.930 . S
C1076 C1074 1.392 . S
C1076 C1075 1.401 . S
C1076 H1093 0.930 . S
C1077 O1060 1.262 . S
C1077 O1061 1.260 . S
C1078 Tb1014 2.833 . S
C1078 O1058 1.251 . S
C1078 O1063 1.256 . S
C1078 C1071 1.500 . S
C1079 H1044 0.929 . S
C1079 C1057 1.444 1_455 S
C1079 C1080 1.317 . S
C1080 H1042 0.930 . S
C1080 C1048 1.432 . S
C1080 C1079 1.317 . S
C1081 O1065 1.283 . S
C1081 O1068 1.243 . S
C1082 C1083 1.382 . S
C1082 C1086 1.393 . S
C1082 C1089 1.500 . S
C1083 C1082 1.382 . S
C1083 C1084 1.400 . S
C1083 H1094 0.930 . S
C1084 C1083 1.400 . S
C1084 C1085 1.384 . S
C1085 C1084 1.384 . S
C1085 C1087 1.392 . S
C1085 H1095 0.931 . S
C1086 C1082 1.393 . S
C1086 C1087 1.401 . S
C1086 H1096 0.930 . S
C1087 C1085 1.392 . S
C1087 C1086 1.401 . S
C1087 H1097 0.930 . S
C1088 O1066 1.262 . S
C1088 O1067 1.260 . S
C1089 Tb1025 2.833 . S
C1089 O1064 1.251 . S
C1089 O1069 1.256 . S
C1089 C1082 1.500 . S
H1090 C1073 0.930 . S
H1091 C1074 0.931 . S
H1092 C1075 0.930 . S
H1093 C1076 0.930 . S
H1094 C1083 0.930 . S
H1095 C1085 0.931 . S
H1096 C1086 0.930 . S
H1097 C1087 0.930 . S
C1098 C1099 1.363 . S
C1098 C1104 1.379 . S
C1098 N1106 1.356 . S
C1099 C1098 1.363 . S
C1099 C1105 1.363 . S
C1100 C1101 1.363 . S
C1100 C1105 1.379 . S
C1100 N1107 1.356 1_554 S
C1101 C1100 1.363 . S
C1101 C1104 1.363 . S
N1102 C1104 1.356 . S
N1102 H1114 0.984 . S
N1102 H1115 0.985 . S
N1103 C1105 1.356 . S
N1103 H1108 0.984 . S
N1103 H1109 0.975 1_554 S
C1104 C1098 1.379 . S
C1104 C1101 1.363 . S
C1104 N1102 1.356 . S
C1105 C1099 1.363 . S
C1105 C1100 1.379 . S
C1105 N1103 1.356 . S
N1106 C1098 1.356 . S
N1106 H1112 0.984 . S
N1106 H1113 0.984 . S
N1107 C1100 1.356 1_556 S
N1107 H1110 0.984 . S
N1107 H1111 0.985 . S
H1108 N1103 0.984 . S
H1109 N1103 0.975 1_556 S
H1110 N1107 0.984 . S
H1111 N1107 0.985 . S
H1112 N1106 0.984 . S
H1113 N1106 0.984 . S
H1114 N1102 0.984 . S
H1115 N1102 0.985 . S
C1116 C1117 1.363 . S
C1116 C1122 1.379 . S
C1116 N1124 1.356 . S
C1117 C1116 1.363 . S
C1117 C1123 1.363 . S
C1118 C1119 1.363 . S
C1118 C1123 1.379 . S
C1118 N1125 1.356 . S
C1119 C1118 1.363 . S
C1119 C1122 1.363 . S
N1120 C1122 1.356 . S
N1120 H1132 0.984 . S
N1120 H1133 0.985 . S
N1121 C1123 1.356 . S
N1121 H1126 0.984 . S
N1121 H1127 0.985 . S
C1122 C1116 1.379 . S
C1122 C1119 1.363 . S
C1122 N1120 1.356 . S
C1123 C1117 1.363 . S
C1123 C1118 1.379 . S
C1123 N1121 1.356 . S
N1124 C1116 1.356 . S
N1124 H1130 0.984 . S
N1124 H1131 0.984 . S
N1125 C1118 1.356 . S
N1125 H1128 0.984 . S
N1125 H1129 0.985 . S
H1126 N1121 0.984 . S
H1127 N1121 0.985 . S
H1128 N1125 0.984 . S
H1129 N1125 0.985 . S
H1130 N1124 0.984 . S
H1131 N1124 0.984 . S
H1132 N1120 0.984 . S
H1133 N1120 0.985 . S
C1134 C1135 1.363 . S
C1134 C1140 1.379 . S
C1134 N1142 1.356 . S
C1135 C1134 1.363 . S
C1135 C1141 1.363 . S
C1136 C1137 1.363 . S
C1136 C1141 1.379 . S
C1136 N1143 1.356 . S
C1137 C1136 1.363 . S
C1137 C1140 1.363 . S
N1138 C1140 1.356 1_556 S
N1138 H1150 0.984 . S
N1138 H1151 0.985 . S
N1139 C1141 1.356 . S
N1139 H1144 0.984 . S
N1139 H1145 0.985 . S
C1140 C1134 1.379 . S
C1140 C1137 1.363 . S
C1140 N1138 1.356 1_554 S
C1141 C1135 1.363 . S
C1141 C1136 1.379 . S
C1141 N1139 1.356 . S
N1142 C1134 1.356 . S
N1142 H1148 0.984 1_554 S
N1142 H1149 0.984 . S
N1143 C1136 1.356 . S
N1143 H1146 0.984 . S
N1143 H1147 0.985 . S
H1144 N1139 0.984 . S
H1145 N1139 0.985 . S
H1146 N1143 0.984 . S
H1147 N1143 0.985 . S
H1148 N1142 0.984 1_556 S
H1149 N1142 0.984 . S
H1150 N1138 0.984 . S
H1151 N1138 0.985 . S
C1152 C1153 1.363 . S
C1152 C1158 1.379 . S
C1152 N1160 1.356 . S
C1153 C1152 1.363 . S
C1153 C1159 1.366 . S
C1154 C1155 1.363 1_554 S
C1154 C1159 1.378 1_554 S
C1154 N1161 1.356 . S
C1155 C1154 1.363 1_556 S
C1155 C1158 1.363 . S
N1156 C1158 1.356 . S
N1156 H1168 0.984 . S
N1156 H1169 0.985 . S
N1157 C1159 1.355 1_554 S
N1157 H1162 0.991 . S
N1157 H1163 0.985 . S
C1158 C1152 1.379 . S
C1158 C1155 1.363 . S
C1158 N1156 1.356 . S
C1159 C1153 1.366 . S
C1159 C1154 1.378 1_556 S
C1159 N1157 1.355 1_556 S
N1160 C1152 1.356 . S
N1160 H1166 0.984 . S
N1160 H1167 0.984 . S
N1161 C1154 1.356 . S
N1161 H1164 0.984 . S
N1161 H1165 0.985 . S
H1162 N1157 0.991 . S
H1163 N1157 0.985 . S
H1164 N1161 0.984 . S
H1165 N1161 0.985 . S
H1166 N1160 0.984 . S
H1167 N1160 0.984 . S
H1168 N1156 0.984 . S
H1169 N1156 0.985 . S
C1170 C1171 1.363 . S
C1170 C1176 1.379 . S
C1170 N1178 1.356 . S
C1171 C1170 1.363 . S
C1171 C1177 1.363 . S
C1172 C1173 1.363 . S
C1172 C1177 1.379 . S
C1172 N1179 1.356 1_556 S
C1173 C1172 1.363 . S
C1173 C1176 1.363 . S
N1174 C1176 1.356 . S
N1174 H1186 0.984 . S
N1174 H1187 0.985 . S
N1175 C1177 1.356 . S
N1175 H1180 0.984 . S
N1175 H1181 0.985 1_556 S
C1176 C1170 1.379 . S
C1176 C1173 1.363 . S
C1176 N1174 1.356 . S
C1177 C1171 1.363 . S
C1177 C1172 1.379 . S
C1177 N1175 1.356 . S
N1178 C1170 1.356 . S
N1178 H1184 0.984 . S
N1178 H1185 0.984 . S
N1179 C1172 1.356 1_554 S
N1179 H1182 0.984 . S
N1179 H1183 0.985 . S
H1180 N1175 0.984 . S
H1181 N1175 0.985 1_554 S
H1182 N1179 0.984 . S
H1183 N1179 0.985 . S
H1184 N1178 0.984 . S
H1185 N1178 0.984 . S
H1186 N1174 0.984 . S
H1187 N1174 0.985 . S
C1188 C1189 1.363 . S
C1188 C1194 1.379 . S
C1188 N1196 1.356 . S
C1189 C1188 1.363 . S
C1189 C1195 1.363 1_556 S
C1190 C1191 1.363 1_554 S
C1190 C1195 1.379 . S
C1190 N1197 1.356 . S
C1191 C1190 1.363 1_556 S
C1191 C1194 1.363 . S
N1192 C1194 1.356 . S
N1192 H1204 0.984 . S
N1192 H1205 0.985 . S
N1193 C1195 1.356 . S
N1193 H1198 0.984 . S
N1193 H1199 0.985 . S
C1194 C1188 1.379 . S
C1194 C1191 1.363 . S
C1194 N1192 1.356 . S
C1195 C1189 1.363 1_554 S
C1195 C1190 1.379 . S
C1195 N1193 1.356 . S
N1196 C1188 1.356 . S
N1196 H1202 0.984 . S
N1196 H1203 0.984 . S
N1197 C1190 1.356 . S
N1197 H1200 0.984 . S
N1197 H1201 0.985 . S
H1198 N1193 0.984 . S
H1199 N1193 0.985 . S
H1200 N1197 0.984 . S
H1201 N1197 0.985 . S
H1202 N1196 0.984 . S
H1203 N1196 0.984 . S
H1204 N1192 0.984 . S
H1205 N1192 0.985 . S
C1206 C1207 1.363 1_554 S
C1206 C1212 1.379 . S
C1206 N1214 1.356 . S
C1207 C1206 1.363 1_556 S
C1207 C1213 1.363 . S
C1208 C1209 1.363 . S
C1208 C1213 1.379 . S
C1208 N1215 1.356 . S
C1209 C1208 1.363 . S
C1209 C1212 1.363 1_556 S
N1210 C1212 1.356 . S
N1210 H1222 0.984 . S
N1210 H1223 0.985 . S
N1211 C1213 1.356 . S
N1211 H1216 0.984 . S
N1211 H1217 0.985 . S
C1212 C1206 1.379 . S
C1212 C1209 1.363 1_554 S
C1212 N1210 1.356 . S
C1213 C1207 1.363 . S
C1213 C1208 1.379 . S
C1213 N1211 1.356 . S
N1214 C1206 1.356 . S
N1214 H1220 0.984 . S
N1214 H1221 0.984 . S
N1215 C1208 1.356 . S
N1215 H1218 0.984 . S
N1215 H1219 0.985 . S
H1216 N1211 0.984 . S
H1217 N1211 0.985 . S
H1218 N1215 0.984 . S
H1219 N1215 0.985 . S
H1220 N1214 0.984 . S
H1221 N1214 0.984 . S
H1222 N1210 0.984 . S
H1223 N1210 0.985 . S
C1224 C1225 1.363 1_554 S
C1224 C1230 1.379 . S
C1224 N1232 1.356 . S
C1225 C1224 1.363 1_556 S
C1225 C1231 1.363 . S
C1226 C1227 1.363 . S
C1226 C1231 1.379 . S
C1226 N1233 1.356 . S
C1227 C1226 1.363 . S
C1227 C1230 1.363 1_556 S
N1228 C1230 1.356 . S
N1228 H1240 0.984 . S
N1228 H1241 0.985 . S
N1229 C1231 1.356 . S
N1229 H1234 0.984 . S
N1229 H1235 0.985 . S
C1230 C1224 1.379 . S
C1230 C1227 1.363 1_554 S
C1230 N1228 1.356 . S
C1231 C1225 1.363 . S
C1231 C1226 1.379 . S
C1231 N1229 1.356 . S
N1232 C1224 1.356 . S
N1232 H1238 0.984 . S
N1232 H1239 0.984 . S
N1233 C1226 1.356 . S
N1233 H1236 0.984 . S
N1233 H1237 0.985 . S
H1234 N1229 0.984 . S
H1235 N1229 0.985 . S
H1236 N1233 0.984 . S
H1237 N1233 0.985 . S
H1238 N1232 0.984 . S
H1239 N1232 0.984 . S
H1240 N1228 0.984 . S
H1241 N1228 0.985 . S
C1242 C1243 1.363 1_554 S
C1242 C1248 1.379 . S
C1242 N1250 1.356 . S
C1243 C1242 1.363 1_556 S
C1243 C1249 1.363 . S
C1244 C1245 1.363 . S
C1244 C1249 1.379 . S
C1244 N1251 1.356 . S
C1245 C1244 1.363 . S
C1245 C1248 1.363 1_556 S
N1246 C1248 1.356 . S
N1246 H1258 0.984 . S
N1246 H1259 0.985 . S
N1247 C1249 1.356 . S
N1247 H1252 0.984 . S
N1247 H1253 0.985 . S
C1248 C1242 1.379 . S
C1248 C1245 1.363 1_554 S
C1248 N1246 1.356 . S
C1249 C1243 1.363 . S
C1249 C1244 1.379 . S
C1249 N1247 1.356 . S
N1250 C1242 1.356 . S
N1250 H1256 0.984 . S
N1250 H1257 0.984 . S
N1251 C1244 1.356 . S
N1251 H1254 0.984 . S
N1251 H1255 0.985 . S
H1252 N1247 0.984 . S
H1253 N1247 0.985 . S
H1254 N1251 0.984 . S
H1255 N1251 0.985 . S
H1256 N1250 0.984 . S
H1257 N1250 0.984 . S
H1258 N1246 0.984 . S
H1259 N1246 0.985 . S
C1260 C1261 1.363 . S
C1260 C1266 1.379 . S
C1260 N1268 1.356 . S
C1261 C1260 1.363 . S
C1261 C1267 1.363 . S
C1262 C1263 1.363 . S
C1262 C1267 1.379 . S
C1262 N1269 1.356 1_554 S
C1263 C1262 1.363 . S
C1263 C1266 1.363 . S
N1264 C1266 1.356 . S
N1264 H1276 0.984 . S
N1264 H1277 0.985 . S
N1265 C1267 1.346 1_556 S
N1265 H1270 0.977 1_556 S
N1265 H1271 1.003 . S
C1266 C1260 1.379 . S
C1266 C1263 1.363 . S
C1266 N1264 1.356 . S
C1267 C1261 1.363 . S
C1267 C1262 1.379 . S
C1267 N1265 1.346 1_554 S
N1268 C1260 1.356 . S
N1268 H1274 0.984 . S
N1268 H1275 0.984 . S
N1269 C1262 1.356 1_556 S
N1269 H1272 0.984 . S
N1269 H1273 0.985 . S
H1270 N1265 0.977 1_554 S
H1271 N1265 1.003 . S
H1272 N1269 0.984 . S
H1273 N1269 0.985 . S
H1274 N1268 0.984 . S
H1275 N1268 0.984 . S
H1276 N1264 0.984 . S
H1277 N1264 0.985 . S
C1278 C1279 1.363 . S
C1278 C1284 1.379 . S
C1278 N1286 1.356 . S
C1279 C1278 1.363 . S
C1279 C1285 1.363 . S
C1280 C1281 1.363 . S
C1280 C1285 1.379 . S
C1280 N1287 1.356 . S
C1281 C1280 1.363 . S
C1281 C1284 1.363 . S
N1282 C1284 1.356 . S
N1282 H1294 0.984 . S
N1282 H1295 0.985 . S
N1283 C1285 1.356 . S
N1283 H1288 0.984 . S
N1283 H1289 0.985 . S
C1284 C1278 1.379 . S
C1284 C1281 1.363 . S
C1284 N1282 1.356 . S
C1285 C1279 1.363 . S
C1285 C1280 1.379 . S
C1285 N1283 1.356 . S
N1286 C1278 1.356 . S
N1286 H1292 0.984 . S
N1286 H1293 0.984 . S
N1287 C1280 1.356 . S
N1287 H1290 0.984 . S
N1287 H1291 0.985 . S
H1288 N1283 0.984 . S
H1289 N1283 0.985 . S
H1290 N1287 0.984 . S
H1291 N1287 0.985 . S
H1292 N1286 0.984 . S
H1293 N1286 0.984 . S
H1294 N1282 0.984 . S
H1295 N1282 0.985 . S
C1296 C1297 1.363 . S
C1296 C1302 1.379 . S
C1296 N1304 1.356 1_554 S
C1297 C1296 1.363 . S
C1297 C1303 1.363 . S
C1298 C1299 1.363 . S
C1298 C1303 1.379 . S
C1298 N1305 1.356 . S
C1299 C1298 1.363 . S
C1299 C1302 1.363 . S
N1300 C1302 1.356 1_556 S
N1300 H1312 0.984 . S
N1300 H1313 0.985 . S
N1301 C1303 1.356 . S
N1301 H1306 0.984 . S
N1301 H1307 0.985 . S
C1302 C1296 1.379 . S
C1302 C1299 1.363 . S
C1302 N1300 1.356 1_554 S
C1303 C1297 1.363 . S
C1303 C1298 1.379 . S
C1303 N1301 1.356 . S
N1304 C1296 1.356 1_556 S
N1304 H1310 0.984 . S
N1304 H1311 0.984 1_556 S
N1305 C1298 1.356 . S
N1305 H1308 0.984 . S
N1305 H1309 0.985 . S
H1306 N1301 0.984 . S
H1307 N1301 0.985 . S
H1308 N1305 0.984 . S
H1309 N1305 0.985 . S
H1310 N1304 0.984 . S
H1311 N1304 0.984 1_554 S
H1312 N1300 0.984 . S
H1313 N1300 0.985 . S
C1314 C1315 1.363 . S
C1314 C1320 1.379 1_655 S
C1314 N1322 1.356 . S
C1315 C1314 1.363 . S
C1315 C1321 1.363 . S
C1316 C1317 1.363 . S
C1316 C1321 1.379 1_455 S
C1316 N1323 1.356 . S
C1317 C1316 1.363 . S
C1317 C1320 1.363 . S
N1318 C1320 1.356 . S
N1318 H1330 0.984 . S
N1318 H1331 0.985 . S
N1319 C1321 1.356 . S
N1319 H1324 0.984 . S
N1319 H1325 0.985 . S
C1320 C1314 1.379 1_455 S
C1320 C1317 1.363 . S
C1320 N1318 1.356 . S
C1321 C1315 1.363 . S
C1321 C1316 1.379 1_655 S
C1321 N1319 1.356 . S
N1322 C1314 1.356 . S
N1322 H1328 0.984 . S
N1322 H1329 0.984 . S
N1323 C1316 1.356 . S
N1323 H1326 0.984 . S
N1323 H1327 0.985 . S
H1324 N1319 0.984 . S
H1325 N1319 0.985 . S
H1326 N1323 0.984 . S
H1327 N1323 0.985 . S
H1328 N1322 0.984 . S
H1329 N1322 0.984 . S
H1330 N1318 0.984 . S
H1331 N1318 0.985 . S
C1332 C1333 1.363 . S
C1332 C1338 1.379 . S
C1332 N1340 1.356 . S
C1333 C1332 1.363 . S
C1333 C1339 1.363 . S
C1334 C1335 1.363 . S
C1334 C1339 1.379 . S
C1334 N1341 1.356 . S
C1335 C1334 1.363 . S
C1335 C1338 1.363 . S
N1336 C1338 1.356 . S
N1336 H1348 0.984 . S
N1336 H1349 0.985 . S
N1337 C1339 1.356 . S
N1337 H1342 0.984 . S
N1337 H1343 0.985 . S
C1338 C1332 1.379 . S
C1338 C1335 1.363 . S
C1338 N1336 1.356 . S
C1339 C1333 1.363 . S
C1339 C1334 1.379 . S
C1339 N1337 1.356 . S
N1340 C1332 1.356 . S
N1340 H1346 0.984 . S
N1340 H1347 0.984 . S
N1341 C1334 1.356 . S
N1341 H1344 0.984 . S
N1341 H1345 0.985 . S
H1342 N1337 0.984 . S
H1343 N1337 0.985 . S
H1344 N1341 0.984 . S
H1345 N1341 0.985 . S
H1346 N1340 0.984 . S
H1347 N1340 0.984 . S
H1348 N1336 0.984 . S
H1349 N1336 0.985 . S
C1350 C1351 1.363 . S
C1350 C1356 1.379 . S
C1350 N1358 1.356 . S
C1351 C1350 1.363 . S
C1351 C1357 1.363 . S
C1352 C1353 1.363 . S
C1352 C1357 1.379 1_565 S
C1352 N1359 1.356 . S
C1353 C1352 1.363 . S
C1353 C1356 1.363 1_565 S
N1354 C1356 1.356 . S
N1354 H1366 0.984 . S
N1354 H1367 0.985 1_545 S
N1355 C1357 1.356 . S
N1355 H1360 0.984 . S
N1355 H1361 0.985 1_545 S
C1356 C1350 1.379 . S
C1356 C1353 1.363 1_545 S
C1356 N1354 1.356 . S
C1357 C1351 1.363 . S
C1357 C1352 1.379 1_545 S
C1357 N1355 1.356 . S
N1358 C1350 1.356 . S
N1358 H1364 0.984 . S
N1358 H1365 0.984 . S
N1359 C1352 1.356 . S
N1359 H1362 0.984 . S
N1359 H1363 0.985 . S
H1360 N1355 0.984 . S
H1361 N1355 0.985 1_565 S
H1362 N1359 0.984 . S
H1363 N1359 0.985 . S
H1364 N1358 0.984 . S
H1365 N1358 0.984 . S
H1366 N1354 0.984 . S
H1367 N1354 0.985 1_565 S
C1368 C1369 1.363 . S
C1368 C1374 1.379 . S
C1368 N1376 1.356 . S
C1369 C1368 1.363 . S
C1369 C1375 1.363 . S
C1370 C1371 1.363 . S
C1370 C1375 1.379 . S
C1370 N1377 1.356 . S
C1371 C1370 1.363 . S
C1371 C1374 1.363 . S
N1372 C1374 1.356 . S
N1372 H1384 0.984 . S
N1372 H1385 0.985 . S
N1373 C1375 1.356 . S
N1373 H1378 0.984 . S
N1373 H1379 0.985 . S
C1374 C1368 1.379 . S
C1374 C1371 1.363 . S
C1374 N1372 1.356 . S
C1375 C1369 1.363 . S
C1375 C1370 1.379 . S
C1375 N1373 1.356 . S
N1376 C1368 1.356 . S
N1376 H1382 0.984 . S
N1376 H1383 0.984 . S
N1377 C1370 1.356 . S
N1377 H1380 0.984 . S
N1377 H1381 0.985 . S
H1378 N1373 0.984 . S
H1379 N1373 0.985 . S
H1380 N1377 0.984 . S
H1381 N1377 0.985 . S
H1382 N1376 0.984 . S
H1383 N1376 0.984 . S
H1384 N1372 0.984 . S
H1385 N1372 0.985 . S
C1386 C1387 1.363 . S
C1386 C1392 1.379 . S
C1386 N1394 1.356 . S
C1387 C1386 1.363 . S
C1387 C1393 1.363 . S
C1388 C1389 1.363 . S
C1388 C1393 1.379 . S
C1388 N1395 1.356 . S
C1389 C1388 1.363 . S
C1389 C1392 1.363 . S
N1390 C1392 1.356 . S
N1390 H1402 0.984 . S
N1390 H1403 0.985 . S
N1391 C1393 1.356 . S
N1391 H1396 0.984 . S
N1391 H1397 0.985 . S
C1392 C1386 1.379 . S
C1392 C1389 1.363 . S
C1392 N1390 1.356 . S
C1393 C1387 1.363 . S
C1393 C1388 1.379 . S
C1393 N1391 1.356 . S
N1394 C1386 1.356 . S
N1394 H1400 0.984 . S
N1394 H1401 0.984 . S
N1395 C1388 1.356 . S
N1395 H1398 0.984 . S
N1395 H1399 0.985 . S
H1396 N1391 0.984 . S
H1397 N1391 0.985 . S
H1398 N1395 0.984 . S
H1399 N1395 0.985 . S
H1400 N1394 0.984 . S
H1401 N1394 0.984 . S
H1402 N1390 0.984 . S
H1403 N1390 0.985 . S
C1404 C1405 1.363 . S
C1404 C1410 1.379 . S
C1404 N1412 1.356 . S
C1405 C1404 1.363 . S
C1405 C1411 1.363 . S
C1406 C1407 1.363 . S
C1406 C1411 1.379 . S
C1406 N1413 1.356 . S
C1407 C1406 1.363 . S
C1407 C1410 1.363 . S
N1408 C1410 1.356 . S
N1408 H1420 0.984 . S
N1408 H1421 0.985 . S
N1409 C1411 1.356 . S
N1409 H1414 0.984 . S
N1409 H1415 0.985 . S
C1410 C1404 1.379 . S
C1410 C1407 1.363 . S
C1410 N1408 1.356 . S
C1411 C1405 1.363 . S
C1411 C1406 1.379 . S
C1411 N1409 1.356 . S
N1412 C1404 1.356 . S
N1412 H1418 0.984 . S
N1412 H1419 0.984 . S
N1413 C1406 1.356 . S
N1413 H1416 0.984 . S
N1413 H1417 0.985 . S
H1414 N1409 0.984 . S
H1415 N1409 0.985 . S
H1416 N1413 0.984 . S
H1417 N1413 0.985 . S
H1418 N1412 0.984 . S
H1419 N1412 0.984 . S
H1420 N1408 0.984 . S
H1421 N1408 0.985 . S
C1422 C1423 1.363 . S
C1422 C1428 1.379 . S
C1422 N1430 1.356 . S
C1423 C1422 1.363 . S
C1423 C1429 1.363 . S
C1424 C1425 1.363 . S
C1424 C1429 1.379 . S
C1424 N1431 1.356 . S
C1425 C1424 1.363 . S
C1425 C1428 1.363 . S
N1426 C1428 1.356 . S
N1426 H1438 0.984 . S
N1426 H1439 0.985 . S
N1427 C1429 1.356 . S
N1427 H1432 0.984 . S
N1427 H1433 0.985 . S
C1428 C1422 1.379 . S
C1428 C1425 1.363 . S
C1428 N1426 1.356 . S
C1429 C1423 1.363 . S
C1429 C1424 1.379 . S
C1429 N1427 1.356 . S
N1430 C1422 1.356 . S
N1430 H1436 0.984 . S
N1430 H1437 0.984 . S
N1431 C1424 1.356 . S
N1431 H1434 0.984 . S
N1431 H1435 0.985 . S
H1432 N1427 0.984 . S
H1433 N1427 0.985 . S
H1434 N1431 0.984 . S
H1435 N1431 0.985 . S
H1436 N1430 0.984 . S
H1437 N1430 0.984 . S
H1438 N1426 0.984 . S
H1439 N1426 0.985 . S
C1440 C1441 1.363 . S
C1440 C1446 1.379 . S
C1440 N1448 1.356 . S
C1441 C1440 1.363 . S
C1441 C1447 1.363 . S
C1442 C1443 1.363 . S
C1442 C1447 1.379 . S
C1442 N1449 1.356 . S
C1443 C1442 1.363 . S
C1443 C1446 1.363 . S
N1444 C1446 1.356 . S
N1444 H1456 0.984 . S
N1444 H1457 0.985 . S
N1445 C1447 1.356 . S
N1445 H1450 0.984 . S
N1445 H1451 0.985 . S
C1446 C1440 1.379 . S
C1446 C1443 1.363 . S
C1446 N1444 1.356 . S
C1447 C1441 1.363 . S
C1447 C1442 1.379 . S
C1447 N1445 1.356 . S
N1448 C1440 1.356 . S
N1448 H1454 0.984 . S
N1448 H1455 0.984 . S
N1449 C1442 1.356 . S
N1449 H1452 0.984 . S
N1449 H1453 0.985 . S
H1450 N1445 0.984 . S
H1451 N1445 0.985 . S
H1452 N1449 0.984 . S
H1453 N1449 0.985 . S
H1454 N1448 0.984 . S
H1455 N1448 0.984 . S
H1456 N1444 0.984 . S
H1457 N1444 0.985 . S
C1458 C1459 1.363 . S
C1458 C1464 1.379 . S
C1458 N1466 1.356 . S
C1459 C1458 1.363 . S
C1459 C1465 1.363 . S
C1460 C1461 1.363 . S
C1460 C1465 1.379 . S
C1460 N1467 1.356 . S
C1461 C1460 1.363 . S
C1461 C1464 1.363 . S
N1462 C1464 1.356 . S
N1462 H1474 0.984 . S
N1462 H1475 0.985 . S
N1463 C1465 1.356 . S
N1463 H1468 0.984 . S
N1463 H1469 0.985 . S
C1464 C1458 1.379 . S
C1464 C1461 1.363 . S
C1464 N1462 1.356 . S
C1465 C1459 1.363 . S
C1465 C1460 1.379 . S
C1465 N1463 1.356 . S
N1466 C1458 1.356 . S
N1466 H1472 0.984 . S
N1466 H1473 0.984 . S
N1467 C1460 1.356 . S
N1467 H1470 0.984 . S
N1467 H1471 0.985 . S
H1468 N1463 0.984 . S
H1469 N1463 0.985 . S
H1470 N1467 0.984 . S
H1471 N1467 0.985 . S
H1472 N1466 0.984 . S
H1473 N1466 0.984 . S
H1474 N1462 0.984 . S
H1475 N1462 0.985 . S
C1476 C1477 1.363 . S
C1476 C1482 1.379 . S
C1476 N1484 1.356 . S
C1477 C1476 1.363 . S
C1477 C1483 1.363 . S
C1478 C1479 1.363 . S
C1478 C1483 1.379 . S
C1478 N1485 1.356 . S
C1479 C1478 1.363 . S
C1479 C1482 1.363 . S
N1480 C1482 1.356 . S
N1480 H1492 0.984 . S
N1480 H1493 0.985 . S
N1481 C1483 1.356 . S
N1481 H1486 0.984 . S
N1481 H1487 0.985 . S
C1482 C1476 1.379 . S
C1482 C1479 1.363 . S
C1482 N1480 1.356 . S
C1483 C1477 1.363 . S
C1483 C1478 1.379 . S
C1483 N1481 1.356 . S
N1484 C1476 1.356 . S
N1484 H1490 0.984 . S
N1484 H1491 0.994 . S
N1485 C1478 1.356 . S
N1485 H1488 0.984 . S
N1485 H1489 0.985 . S
H1486 N1481 0.984 . S
H1487 N1481 0.985 . S
H1488 N1485 0.984 . S
H1489 N1485 0.985 . S
H1490 N1484 0.984 . S
H1491 N1484 0.994 . S
H1492 N1480 0.984 . S
H1493 N1480 0.985 . S
C1494 C1495 1.363 . S
C1494 C1500 1.379 . S
C1494 N1502 1.356 . S
C1495 C1494 1.363 . S
C1495 C1501 1.363 . S
C1496 C1497 1.363 . S
C1496 C1501 1.379 . S
C1496 N1503 1.356 . S
C1497 C1496 1.363 . S
C1497 C1500 1.363 . S
N1498 C1500 1.356 . S
N1498 H1510 0.984 . S
N1498 H1511 0.985 . S
N1499 C1501 1.356 . S
N1499 H1504 0.984 . S
N1499 H1505 0.985 . S
C1500 C1494 1.379 . S
C1500 C1497 1.363 . S
C1500 N1498 1.356 . S
C1501 C1495 1.363 . S
C1501 C1496 1.379 . S
C1501 N1499 1.356 . S
N1502 C1494 1.356 . S
N1502 H1508 0.984 . S
N1502 H1509 0.984 . S
N1503 C1496 1.356 . S
N1503 H1506 0.984 . S
N1503 H1507 0.985 . S
H1504 N1499 0.984 . S
H1505 N1499 0.985 . S
H1506 N1503 0.984 . S
H1507 N1503 0.985 . S
H1508 N1502 0.984 . S
H1509 N1502 0.984 . S
H1510 N1498 0.984 . S
H1511 N1498 0.985 . S
C1512 C1513 1.363 . S
C1512 C1518 1.379 . S
C1512 N1520 1.356 . S
C1513 C1512 1.363 . S
C1513 C1519 1.363 . S
C1514 C1515 1.363 . S
C1514 C1519 1.379 . S
C1514 N1521 1.356 . S
C1515 C1514 1.363 . S
C1515 C1518 1.363 . S
N1516 C1518 1.356 . S
N1516 H1528 0.984 . S
N1516 H1529 0.985 . S
N1517 C1519 1.356 . S
N1517 H1522 0.984 . S
N1517 H1523 0.985 . S
C1518 C1512 1.379 . S
C1518 C1515 1.363 . S
C1518 N1516 1.356 . S
C1519 C1513 1.363 . S
C1519 C1514 1.379 . S
C1519 N1517 1.356 . S
N1520 C1512 1.356 . S
N1520 H1526 0.984 . S
N1520 H1527 0.984 . S
N1521 C1514 1.356 . S
N1521 H1524 0.984 . S
N1521 H1525 0.985 . S
H1522 N1517 0.984 . S
H1523 N1517 0.985 . S
H1524 N1521 0.984 . S
H1525 N1521 0.985 . S
H1526 N1520 0.984 . S
H1527 N1520 0.984 . S
H1528 N1516 0.984 . S
H1529 N1516 0.985 . S
C1530 C1531 1.363 . S
C1530 C1536 1.379 . S
C1530 N1538 1.356 . S
C1531 C1530 1.363 . S
C1531 C1537 1.363 . S
C1532 C1533 1.363 . S
C1532 C1537 1.379 . S
C1532 N1539 1.356 . S
C1533 C1532 1.363 . S
C1533 C1536 1.363 . S
N1534 C1536 1.356 . S
N1534 H1546 0.984 . S
N1534 H1547 0.985 . S
N1535 C1537 1.356 . S
N1535 H1540 0.984 . S
N1535 H1541 0.985 . S
C1536 C1530 1.379 . S
C1536 C1533 1.363 . S
C1536 N1534 1.356 . S
C1537 C1531 1.363 . S
C1537 C1532 1.379 . S
C1537 N1535 1.356 . S
N1538 C1530 1.356 . S
N1538 H1544 0.984 . S
N1538 H1545 0.984 . S
N1539 C1532 1.356 . S
N1539 H1542 0.984 . S
N1539 H1543 0.985 . S
H1540 N1535 0.984 . S
H1541 N1535 0.985 . S
H1542 N1539 0.984 . S
H1543 N1539 0.985 . S
H1544 N1538 0.984 . S
H1545 N1538 0.984 . S
H1546 N1534 0.984 . S
H1547 N1534 0.985 . S
C1548 C1549 1.363 . S
C1548 C1554 1.379 . S
C1548 N1556 1.356 . S
C1549 C1548 1.363 . S
C1549 C1555 1.363 . S
C1550 C1551 1.363 . S
C1550 C1555 1.379 . S
C1550 N1557 1.356 . S
C1551 C1550 1.363 . S
C1551 C1554 1.363 . S
N1552 C1554 1.356 . S
N1552 H1564 0.984 . S
N1552 H1565 0.985 . S
N1553 C1555 1.356 . S
N1553 H1558 0.984 . S
N1553 H1559 0.985 . S
C1554 C1548 1.379 . S
C1554 C1551 1.363 . S
C1554 N1552 1.356 . S
C1555 C1549 1.363 . S
C1555 C1550 1.379 . S
C1555 N1553 1.356 . S
N1556 C1548 1.356 . S
N1556 H1562 0.984 . S
N1556 H1563 0.984 . S
N1557 C1550 1.356 . S
N1557 H1560 0.984 . S
N1557 H1561 0.985 . S
H1558 N1553 0.984 . S
H1559 N1553 0.985 . S
H1560 N1557 0.984 . S
H1561 N1557 0.985 . S
H1562 N1556 0.984 . S
H1563 N1556 0.984 . S
H1564 N1552 0.984 . S
H1565 N1552 0.985 . S
C1566 C1567 1.363 . S
C1566 C1572 1.379 . S
C1566 N1574 1.356 . S
C1567 C1566 1.363 . S
C1567 C1573 1.363 . S
C1568 C1569 1.363 . S
C1568 C1573 1.379 . S
C1568 N1575 1.356 . S
C1569 C1568 1.363 . S
C1569 C1572 1.363 . S
N1570 C1572 1.356 . S
N1570 H1582 0.984 . S
N1570 H1583 0.985 . S
N1571 C1573 1.356 . S
N1571 H1576 0.984 . S
N1571 H1577 0.985 . S
C1572 C1566 1.379 . S
C1572 C1569 1.363 . S
C1572 N1570 1.356 . S
C1573 C1567 1.363 . S
C1573 C1568 1.379 . S
C1573 N1571 1.356 . S
N1574 C1566 1.356 . S
N1574 H1580 0.984 . S
N1574 H1581 0.984 . S
N1575 C1568 1.356 . S
N1575 H1578 0.984 . S
N1575 H1579 0.985 . S
H1576 N1571 0.984 . S
H1577 N1571 0.985 . S
H1578 N1575 0.984 . S
H1579 N1575 0.985 . S
H1580 N1574 0.984 . S
H1581 N1574 0.984 . S
H1582 N1570 0.984 . S
H1583 N1570 0.985 . S
C1584 C1585 1.363 . S
C1584 C1590 1.373 1_565 S
C1584 N1592 1.356 . S
C1585 C1584 1.363 . S
C1585 C1591 1.363 . S
C1586 C1587 1.363 . S
C1586 C1591 1.379 1_545 S
C1586 N1593 1.356 . S
C1587 C1586 1.363 . S
C1587 C1590 1.377 . S
N1588 C1590 1.352 . S
N1588 H1600 0.982 1_545 S
N1588 H1601 0.985 . S
N1589 C1591 1.356 . S
N1589 H1594 0.984 . S
N1589 H1595 0.985 . S
C1590 C1584 1.373 1_545 S
C1590 C1587 1.377 . S
C1590 N1588 1.352 . S
C1591 C1585 1.363 . S
C1591 C1586 1.379 1_565 S
C1591 N1589 1.356 . S
N1592 C1584 1.356 . S
N1592 H1598 0.984 . S
N1592 H1599 0.984 . S
N1593 C1586 1.356 . S
N1593 H1596 0.984 . S
N1593 H1597 0.985 . S
H1594 N1589 0.984 . S
H1595 N1589 0.985 . S
H1596 N1593 0.984 . S
H1597 N1593 0.985 . S
H1598 N1592 0.984 . S
H1599 N1592 0.984 . S
H1600 N1588 0.982 1_565 S
H1601 N1588 0.985 . S
C1602 C1603 1.363 1_655 S
C1602 C1608 1.379 . S
C1602 N1610 1.356 . S
C1603 C1602 1.363 1_455 S
C1603 C1609 1.363 . S
C1604 C1605 1.363 1_455 S
C1604 C1609 1.379 . S
C1604 N1611 1.356 . S
C1605 C1604 1.363 1_655 S
C1605 C1608 1.363 . S
N1606 C1608 1.356 . S
N1606 H1618 0.984 . S
N1606 H1619 0.985 . S
N1607 C1609 1.356 . S
N1607 H1612 0.984 . S
N1607 H1613 0.985 . S
C1608 C1602 1.379 . S
C1608 C1605 1.363 . S
C1608 N1606 1.356 . S
C1609 C1603 1.363 . S
C1609 C1604 1.379 . S
C1609 N1607 1.356 . S
N1610 C1602 1.356 . S
N1610 H1616 0.984 . S
N1610 H1617 0.984 1_655 S
N1611 C1604 1.356 . S
N1611 H1614 0.984 1_455 S
N1611 H1615 0.985 . S
H1612 N1607 0.984 . S
H1613 N1607 0.985 . S
H1614 N1611 0.984 1_655 S
H1615 N1611 0.985 . S
H1616 N1610 0.984 . S
H1617 N1610 0.984 1_455 S
H1618 N1606 0.984 . S
H1619 N1606 0.985 . S
C1620 C1621 1.363 . S
C1620 C1626 1.379 . S
C1620 N1628 1.356 . S
C1621 C1620 1.363 . S
C1621 C1627 1.363 . S
C1622 C1623 1.363 . S
C1622 C1627 1.379 . S
C1622 N1629 1.356 . S
C1623 C1622 1.363 . S
C1623 C1626 1.363 . S
N1624 C1626 1.356 . S
N1624 H1636 0.984 . S
N1624 H1637 0.985 . S
N1625 C1627 1.356 . S
N1625 H1630 0.984 . S
N1625 H1631 0.985 . S
C1626 C1620 1.379 . S
C1626 C1623 1.363 . S
C1626 N1624 1.356 . S
C1627 C1621 1.363 . S
C1627 C1622 1.379 . S
C1627 N1625 1.356 . S
N1628 C1620 1.356 . S
N1628 H1634 0.984 . S
N1628 H1635 0.984 . S
N1629 C1622 1.356 . S
N1629 H1632 0.984 . S
N1629 H1633 0.985 . S
H1630 N1625 0.984 . S
H1631 N1625 0.985 . S
H1632 N1629 0.984 . S
H1633 N1629 0.985 . S
H1634 N1628 0.984 . S
H1635 N1628 0.984 . S
H1636 N1624 0.984 . S
H1637 N1624 0.985 . S
C1638 C1639 1.363 . S
C1638 C1644 1.379 . S
C1638 N1646 1.356 . S
C1639 C1638 1.363 . S
C1639 C1645 1.363 . S
C1640 C1641 1.363 . S
C1640 C1645 1.379 . S
C1640 N1647 1.356 . S
C1641 C1640 1.363 . S
C1641 C1644 1.363 . S
N1642 C1644 1.356 . S
N1642 H1654 0.984 . S
N1642 H1655 0.985 . S
N1643 C1645 1.356 . S
N1643 H1648 0.984 . S
N1643 H1649 0.985 . S
C1644 C1638 1.379 . S
C1644 C1641 1.363 . S
C1644 N1642 1.356 . S
C1645 C1639 1.363 . S
C1645 C1640 1.379 . S
C1645 N1643 1.356 . S
N1646 C1638 1.356 . S
N1646 H1652 0.984 . S
N1646 H1653 0.984 . S
N1647 C1640 1.356 . S
N1647 H1650 0.984 . S
N1647 H1651 0.985 . S
H1648 N1643 0.984 . S
H1649 N1643 0.985 . S
H1650 N1647 0.984 . S
H1651 N1647 0.985 . S
H1652 N1646 0.984 . S
H1653 N1646 0.984 . S
H1654 N1642 0.984 . S
H1655 N1642 0.985 . S
C1656 C1657 1.363 . S
C1656 C1662 1.379 . S
C1656 N1664 1.356 . S
C1657 C1656 1.363 . S
C1657 C1663 1.363 . S
C1658 C1659 1.363 . S
C1658 C1663 1.379 . S
C1658 N1665 1.356 . S
C1659 C1658 1.363 . S
C1659 C1662 1.363 . S
N1660 C1662 1.356 . S
N1660 H1672 0.984 . S
N1660 H1673 0.985 . S
N1661 C1663 1.356 . S
N1661 H1666 0.984 . S
N1661 H1667 0.985 . S
C1662 C1656 1.379 . S
C1662 C1659 1.363 . S
C1662 N1660 1.356 . S
C1663 C1657 1.363 . S
C1663 C1658 1.379 . S
C1663 N1661 1.356 . S
N1664 C1656 1.356 . S
N1664 H1670 0.984 . S
N1664 H1671 0.984 . S
N1665 C1658 1.356 . S
N1665 H1668 0.984 . S
N1665 H1669 0.985 . S
H1666 N1661 0.984 . S
H1667 N1661 0.985 . S
H1668 N1665 0.984 . S
H1669 N1665 0.985 . S
H1670 N1664 0.984 . S
H1671 N1664 0.984 . S
H1672 N1660 0.984 . S
H1673 N1660 0.985 . S
C1674 C1675 1.363 . S
C1674 C1680 1.379 . S
C1674 N1682 1.356 . S
C1675 C1674 1.363 . S
C1675 C1681 1.363 . S
C1676 C1677 1.363 . S
C1676 C1681 1.379 . S
C1676 N1683 1.356 . S
C1677 C1676 1.363 . S
C1677 C1680 1.363 . S
N1678 C1680 1.356 . S
N1678 H1690 0.984 . S
N1678 H1691 0.985 . S
N1679 C1681 1.356 . S
N1679 H1684 0.984 . S
N1679 H1685 0.985 . S
C1680 C1674 1.379 . S
C1680 C1677 1.363 . S
C1680 N1678 1.356 . S
C1681 C1675 1.363 . S
C1681 C1676 1.379 . S
C1681 N1679 1.356 . S
N1682 C1674 1.356 . S
N1682 H1688 0.984 . S
N1682 H1689 0.984 . S
N1683 C1676 1.356 . S
N1683 H1686 0.984 . S
N1683 H1687 0.985 . S
H1684 N1679 0.984 . S
H1685 N1679 0.985 . S
H1686 N1683 0.984 . S
H1687 N1683 0.985 . S
H1688 N1682 0.984 . S
H1689 N1682 0.984 . S
H1690 N1678 0.984 . S
H1691 N1678 0.985 . S
C1692 C1693 1.363 . S
C1692 C1698 1.379 . S
C1692 N1700 1.356 . S
C1693 C1692 1.363 . S
C1693 C1699 1.363 . S
C1694 C1695 1.363 . S
C1694 C1699 1.379 . S
C1694 N1701 1.356 . S
C1695 C1694 1.363 . S
C1695 C1698 1.363 . S
N1696 C1698 1.356 . S
N1696 H1708 0.984 . S
N1696 H1709 0.985 . S
N1697 C1699 1.356 . S
N1697 H1702 0.984 . S
N1697 H1703 0.985 . S
C1698 C1692 1.379 . S
C1698 C1695 1.363 . S
C1698 N1696 1.356 . S
C1699 C1693 1.363 . S
C1699 C1694 1.379 . S
C1699 N1697 1.356 . S
N1700 C1692 1.356 . S
N1700 H1706 0.984 . S
N1700 H1707 0.984 . S
N1701 C1694 1.356 . S
N1701 H1704 0.984 . S
N1701 H1705 0.985 . S
H1702 N1697 0.984 . S
H1703 N1697 0.985 . S
H1704 N1701 0.984 . S
H1705 N1701 0.985 . S
H1706 N1700 0.984 . S
H1707 N1700 0.984 . S
H1708 N1696 0.984 . S
H1709 N1696 0.985 . S
C1710 C1711 1.363 . S
C1710 C1716 1.379 . S
C1710 N1718 1.356 . S
C1711 C1710 1.363 . S
C1711 C1717 1.363 . S
C1712 C1713 1.363 . S
C1712 C1717 1.379 . S
C1712 N1719 1.356 . S
C1713 C1712 1.363 . S
C1713 C1716 1.363 . S
N1714 C1716 1.356 . S
N1714 H1726 0.984 . S
N1714 H1727 0.985 . S
N1715 C1717 1.356 . S
N1715 H1720 0.984 . S
N1715 H1721 0.985 . S
C1716 C1710 1.379 . S
C1716 C1713 1.363 . S
C1716 N1714 1.356 . S
C1717 C1711 1.363 . S
C1717 C1712 1.379 . S
C1717 N1715 1.356 . S
N1718 C1710 1.356 . S
N1718 H1724 0.984 . S
N1718 H1725 0.984 . S
N1719 C1712 1.356 . S
N1719 H1722 0.984 . S
N1719 H1723 0.985 . S
H1720 N1715 0.984 . S
H1721 N1715 0.985 . S
H1722 N1719 0.984 . S
H1723 N1719 0.985 . S
H1724 N1718 0.984 . S
H1725 N1718 0.984 . S
H1726 N1714 0.984 . S
H1727 N1714 0.985 . S
C1728 C1729 1.363 . S
C1728 C1734 1.379 . S
C1728 N1736 1.356 . S
C1729 C1728 1.363 . S
C1729 C1735 1.363 . S
C1730 C1731 1.363 . S
C1730 C1735 1.379 . S
C1730 N1737 1.356 . S
C1731 C1730 1.363 . S
C1731 C1734 1.363 . S
N1732 C1734 1.356 . S
N1732 H1744 0.984 . S
N1732 H1745 0.985 . S
N1733 C1735 1.356 . S
N1733 H1738 0.984 . S
N1733 H1739 0.985 . S
C1734 C1728 1.379 . S
C1734 C1731 1.363 . S
C1734 N1732 1.356 . S
C1735 C1729 1.363 . S
C1735 C1730 1.379 . S
C1735 N1733 1.356 . S
N1736 C1728 1.356 . S
N1736 H1742 0.984 . S
N1736 H1743 0.984 . S
N1737 C1730 1.356 . S
N1737 H1740 0.984 . S
N1737 H1741 0.985 . S
H1738 N1733 0.984 . S
H1739 N1733 0.985 . S
H1740 N1737 0.984 . S
H1741 N1737 0.985 . S
H1742 N1736 0.984 . S
H1743 N1736 0.984 . S
H1744 N1732 0.984 . S
H1745 N1732 0.985 . S
C1746 C1747 1.363 . S
C1746 C1752 1.379 . S
C1746 N1754 1.356 . S
C1747 C1746 1.363 . S
C1747 C1753 1.363 . S
C1748 C1749 1.363 . S
C1748 C1753 1.379 . S
C1748 N1755 1.356 . S
C1749 C1748 1.363 . S
C1749 C1752 1.363 . S
N1750 C1752 1.356 . S
N1750 H1762 0.984 . S
N1750 H1763 0.985 . S
N1751 C1753 1.356 . S
N1751 H1756 0.984 . S
N1751 H1757 0.985 . S
C1752 C1746 1.379 . S
C1752 C1749 1.363 . S
C1752 N1750 1.356 . S
C1753 C1747 1.363 . S
C1753 C1748 1.379 . S
C1753 N1751 1.356 . S
N1754 C1746 1.356 . S
N1754 H1760 0.984 . S
N1754 H1761 0.984 . S
N1755 C1748 1.356 . S
N1755 H1758 0.984 . S
N1755 H1759 0.985 . S
H1756 N1751 0.984 . S
H1757 N1751 0.985 . S
H1758 N1755 0.984 . S
H1759 N1755 0.985 . S
H1760 N1754 0.984 . S
H1761 N1754 0.984 . S
H1762 N1750 0.984 . S
H1763 N1750 0.985 . S
C1764 C1765 1.363 . S
C1764 C1770 1.379 . S
C1764 N1772 1.356 . S
C1765 C1764 1.363 . S
C1765 C1771 1.363 . S
C1766 C1767 1.363 . S
C1766 C1771 1.379 . S
C1766 N1773 1.356 . S
C1767 C1766 1.363 . S
C1767 C1770 1.363 . S
N1768 C1770 1.356 . S
N1768 H1780 0.984 . S
N1768 H1781 0.985 . S
N1769 C1771 1.356 . S
N1769 H1774 0.984 . S
N1769 H1775 0.985 . S
C1770 C1764 1.379 . S
C1770 C1767 1.363 . S
C1770 N1768 1.356 . S
C1771 C1765 1.363 . S
C1771 C1766 1.379 . S
C1771 N1769 1.356 . S
N1772 C1764 1.356 . S
N1772 H1778 0.984 . S
N1772 H1779 0.984 . S
N1773 C1766 1.356 . S
N1773 H1776 0.984 . S
N1773 H1777 0.985 . S
H1774 N1769 0.984 . S
H1775 N1769 0.985 . S
H1776 N1773 0.984 . S
H1777 N1773 0.985 . S
H1778 N1772 0.984 . S
H1779 N1772 0.984 . S
H1780 N1768 0.984 . S
H1781 N1768 0.985 . S
C1782 C1783 1.363 . S
C1782 C1788 1.379 . S
C1782 N1790 1.356 . S
C1783 C1782 1.363 . S
C1783 C1789 1.363 . S
C1784 C1785 1.363 . S
C1784 C1789 1.379 . S
C1784 N1791 1.356 . S
C1785 C1784 1.363 . S
C1785 C1788 1.363 . S
N1786 C1788 1.356 . S
N1786 H1798 0.984 . S
N1786 H1799 0.985 . S
N1787 C1789 1.356 . S
N1787 H1792 0.984 . S
N1787 H1793 0.985 . S
C1788 C1782 1.379 . S
C1788 C1785 1.363 . S
C1788 N1786 1.356 . S
C1789 C1783 1.363 . S
C1789 C1784 1.379 . S
C1789 N1787 1.356 . S
N1790 C1782 1.356 . S
N1790 H1796 0.984 . S
N1790 H1797 0.984 . S
N1791 C1784 1.356 . S
N1791 H1794 0.984 . S
N1791 H1795 0.985 . S
H1792 N1787 0.984 . S
H1793 N1787 0.985 . S
H1794 N1791 0.984 . S
H1795 N1791 0.985 . S
H1796 N1790 0.984 . S
H1797 N1790 0.984 . S
H1798 N1786 0.984 . S
H1799 N1786 0.985 . S
C1800 C1801 1.363 . S
C1800 C1806 1.379 . S
C1800 N1808 1.356 . S
C1801 C1800 1.363 . S
C1801 C1807 1.363 . S
C1802 C1803 1.363 . S
C1802 C1807 1.379 . S
C1802 N1809 1.356 . S
C1803 C1802 1.363 . S
C1803 C1806 1.363 . S
N1804 C1806 1.356 . S
N1804 H1816 0.984 . S
N1804 H1817 0.985 . S
N1805 C1807 1.356 . S
N1805 H1810 0.984 . S
N1805 H1811 0.985 . S
C1806 C1800 1.379 . S
C1806 C1803 1.363 . S
C1806 N1804 1.356 . S
C1807 C1801 1.363 . S
C1807 C1802 1.379 . S
C1807 N1805 1.356 . S
N1808 C1800 1.356 . S
N1808 H1814 0.984 . S
N1808 H1815 0.984 . S
N1809 C1802 1.356 . S
N1809 H1812 0.984 . S
N1809 H1813 0.985 . S
H1810 N1805 0.984 . S
H1811 N1805 0.985 . S
H1812 N1809 0.984 . S
H1813 N1809 0.985 . S
H1814 N1808 0.984 . S
H1815 N1808 0.984 . S
H1816 N1804 0.984 . S
H1817 N1804 0.985 . S
C1818 C1819 1.363 . S
C1818 C1824 1.379 . S
C1818 N1826 1.356 . S
C1819 C1818 1.363 . S
C1819 C1825 1.363 . S
C1820 C1821 1.363 . S
C1820 C1825 1.379 . S
C1820 N1827 1.356 . S
C1821 C1820 1.363 . S
C1821 C1824 1.363 . S
N1822 C1824 1.356 . S
N1822 H1834 0.984 . S
N1822 H1835 0.985 . S
N1823 C1825 1.356 . S
N1823 H1828 0.984 . S
N1823 H1829 0.985 . S
C1824 C1818 1.379 . S
C1824 C1821 1.363 . S
C1824 N1822 1.356 . S
C1825 C1819 1.363 . S
C1825 C1820 1.379 . S
C1825 N1823 1.356 . S
N1826 C1818 1.356 . S
N1826 H1832 0.984 . S
N1826 H1833 0.984 . S
N1827 C1820 1.356 . S
N1827 H1830 0.984 . S
N1827 H1831 0.985 . S
H1828 N1823 0.984 . S
H1829 N1823 0.985 . S
H1830 N1827 0.984 . S
H1831 N1827 0.985 . S
H1832 N1826 0.984 . S
H1833 N1826 0.984 . S
H1834 N1822 0.984 . S
H1835 N1822 0.985 . S
C1836 C1837 1.363 . S
C1836 C1842 1.379 . S
C1836 N1844 1.356 . S
C1837 C1836 1.363 . S
C1837 C1843 1.363 . S
C1838 C1839 1.363 . S
C1838 C1843 1.379 . S
C1838 N1845 1.356 . S
C1839 C1838 1.363 . S
C1839 C1842 1.363 . S
N1840 C1842 1.356 . S
N1840 H1852 0.984 . S
N1840 H1853 0.985 . S
N1841 C1843 1.356 . S
N1841 H1846 0.984 . S
N1841 H1847 0.985 . S
C1842 C1836 1.379 . S
C1842 C1839 1.363 . S
C1842 N1840 1.356 . S
C1843 C1837 1.363 . S
C1843 C1838 1.379 . S
C1843 N1841 1.356 . S
N1844 C1836 1.356 . S
N1844 H1850 0.984 . S
N1844 H1851 0.984 . S
N1845 C1838 1.356 . S
N1845 H1848 0.984 . S
N1845 H1849 0.985 . S
H1846 N1841 0.984 . S
H1847 N1841 0.985 . S
H1848 N1845 0.984 . S
H1849 N1845 0.985 . S
H1850 N1844 0.984 . S
H1851 N1844 0.984 . S
H1852 N1840 0.984 . S
H1853 N1840 0.985 . S
C1854 C1855 1.363 . S
C1854 C1860 1.379 . S
C1854 N1862 1.356 . S
C1855 C1854 1.363 . S
C1855 C1861 1.363 . S
C1856 C1857 1.363 . S
C1856 C1861 1.379 . S
C1856 N1863 1.356 . S
C1857 C1856 1.363 . S
C1857 C1860 1.363 . S
N1858 C1860 1.356 . S
N1858 H1870 0.984 . S
N1858 H1871 0.985 . S
N1859 C1861 1.356 . S
N1859 H1864 0.984 . S
N1859 H1865 0.985 . S
C1860 C1854 1.379 . S
C1860 C1857 1.363 . S
C1860 N1858 1.356 . S
C1861 C1855 1.363 . S
C1861 C1856 1.379 . S
C1861 N1859 1.356 . S
N1862 C1854 1.356 . S
N1862 H1868 0.984 . S
N1862 H1869 0.984 . S
N1863 C1856 1.356 . S
N1863 H1866 0.984 . S
N1863 H1867 0.985 . S
H1864 N1859 0.984 . S
H1865 N1859 0.985 . S
H1866 N1863 0.984 . S
H1867 N1863 0.985 . S
H1868 N1862 0.984 . S
H1869 N1862 0.984 . S
H1870 N1858 0.984 . S
H1871 N1858 0.985 . S
C1872 C1873 1.363 . S
C1872 C1878 1.379 . S
C1872 N1880 1.356 . S
C1873 C1872 1.363 . S
C1873 C1879 1.363 . S
C1874 C1875 1.363 . S
C1874 C1879 1.379 . S
C1874 N1881 1.356 . S
C1875 C1874 1.363 . S
C1875 C1878 1.363 . S
N1876 C1878 1.356 . S
N1876 H1888 0.984 . S
N1876 H1889 0.985 . S
N1877 C1879 1.356 . S
N1877 H1882 0.984 . S
N1877 H1883 0.985 . S
C1878 C1872 1.379 . S
C1878 C1875 1.363 . S
C1878 N1876 1.356 . S
C1879 C1873 1.363 . S
C1879 C1874 1.379 . S
C1879 N1877 1.356 . S
N1880 C1872 1.356 . S
N1880 H1886 0.984 . S
N1880 H1887 0.984 . S
N1881 C1874 1.356 . S
N1881 H1884 0.984 . S
N1881 H1885 0.985 . S
H1882 N1877 0.984 . S
H1883 N1877 0.985 . S
H1884 N1881 0.984 . S
H1885 N1881 0.985 . S
H1886 N1880 0.984 . S
H1887 N1880 0.984 . S
H1888 N1876 0.984 . S
H1889 N1876 0.985 . S
C1890 C1891 1.363 . S
C1890 C1896 1.379 . S
C1890 N1898 1.356 . S
C1891 C1890 1.363 . S
C1891 C1897 1.363 . S
C1892 C1893 1.363 . S
C1892 C1897 1.379 . S
C1892 N1899 1.356 . S
C1893 C1892 1.363 . S
C1893 C1896 1.363 . S
N1894 C1896 1.356 . S
N1894 H1906 0.984 . S
N1894 H1907 0.985 . S
N1895 C1897 1.356 . S
N1895 H1900 0.984 . S
N1895 H1901 0.985 . S
C1896 C1890 1.379 . S
C1896 C1893 1.363 . S
C1896 N1894 1.356 . S
C1897 C1891 1.363 . S
C1897 C1892 1.379 . S
C1897 N1895 1.356 . S
N1898 C1890 1.356 . S
N1898 H1904 0.984 . S
N1898 H1905 0.984 . S
N1899 C1892 1.356 . S
N1899 H1902 0.984 . S
N1899 H1903 0.985 . S
H1900 N1895 0.984 . S
H1901 N1895 0.985 . S
H1902 N1899 0.984 . S
H1903 N1899 0.985 . S
H1904 N1898 0.984 . S
H1905 N1898 0.984 . S
H1906 N1894 0.984 . S
H1907 N1894 0.985 . S
C1908 C1909 1.363 . S
C1908 C1914 1.379 . S
C1908 N1916 1.356 . S
C1909 C1908 1.363 . S
C1909 C1915 1.363 . S
C1910 C1911 1.363 . S
C1910 C1915 1.379 . S
C1910 N1917 1.356 . S
C1911 C1910 1.363 . S
C1911 C1914 1.363 . S
N1912 C1914 1.356 . S
N1912 H1924 0.984 . S
N1912 H1925 0.985 . S
N1913 C1915 1.356 . S
N1913 H1918 0.984 . S
N1913 H1919 0.985 . S
C1914 C1908 1.379 . S
C1914 C1911 1.363 . S
C1914 N1912 1.356 . S
C1915 C1909 1.363 . S
C1915 C1910 1.379 . S
C1915 N1913 1.356 . S
N1916 C1908 1.356 . S
N1916 H1922 0.984 . S
N1916 H1923 0.984 . S
N1917 C1910 1.356 . S
N1917 H1920 0.984 . S
N1917 H1921 0.985 . S
H1918 N1913 0.984 . S
H1919 N1913 0.985 . S
H1920 N1917 0.984 . S
H1921 N1917 0.985 . S
H1922 N1916 0.984 . S
H1923 N1916 0.984 . S
H1924 N1912 0.984 . S
H1925 N1912 0.985 . S
C1926 C1927 1.363 . S
C1926 C1932 1.379 . S
C1926 N1934 1.356 . S
C1927 C1926 1.363 . S
C1927 C1933 1.363 . S
C1928 C1929 1.363 . S
C1928 C1933 1.379 . S
C1928 N1935 1.356 . S
C1929 C1928 1.363 . S
C1929 C1932 1.363 . S
N1930 C1932 1.356 . S
N1930 H1942 0.984 . S
N1930 H1943 0.985 . S
N1931 C1933 1.356 . S
N1931 H1936 0.984 . S
N1931 H1937 0.985 . S
C1932 C1926 1.379 . S
C1932 C1929 1.363 . S
C1932 N1930 1.356 . S
C1933 C1927 1.363 . S
C1933 C1928 1.379 . S
C1933 N1931 1.356 . S
N1934 C1926 1.356 . S
N1934 H1940 0.984 . S
N1934 H1941 0.984 . S
N1935 C1928 1.356 . S
N1935 H1938 0.984 . S
N1935 H1939 0.985 . S
H1936 N1931 0.984 . S
H1937 N1931 0.985 . S
H1938 N1935 0.984 . S
H1939 N1935 0.985 . S
H1940 N1934 0.984 . S
H1941 N1934 0.984 . S
H1942 N1930 0.984 . S
H1943 N1930 0.985 . S
C1944 C1945 1.363 . S
C1944 C1950 1.379 . S
C1944 N1952 1.356 . S
C1945 C1944 1.363 . S
C1945 C1951 1.363 . S
C1946 C1947 1.363 . S
C1946 C1951 1.379 . S
C1946 N1953 1.356 . S
C1947 C1946 1.363 . S
C1947 C1950 1.363 . S
N1948 C1950 1.356 . S
N1948 H1960 0.984 . S
N1948 H1961 0.985 . S
N1949 C1951 1.356 . S
N1949 H1954 0.984 . S
N1949 H1955 0.985 . S
C1950 C1944 1.379 . S
C1950 C1947 1.363 . S
C1950 N1948 1.356 . S
C1951 C1945 1.363 . S
C1951 C1946 1.379 . S
C1951 N1949 1.356 . S
N1952 C1944 1.356 . S
N1952 H1958 0.984 . S
N1952 H1959 0.984 . S
N1953 C1946 1.356 . S
N1953 H1956 0.984 . S
N1953 H1957 0.985 . S
H1954 N1949 0.984 . S
H1955 N1949 0.985 . S
H1956 N1953 0.984 . S
H1957 N1953 0.985 . S
H1958 N1952 0.984 . S
H1959 N1952 0.984 . S
H1960 N1948 0.984 . S
H1961 N1948 0.985 . S
C1962 C1963 1.363 . S
C1962 C1968 1.379 . S
C1962 N1970 1.356 . S
C1963 C1962 1.363 . S
C1963 C1969 1.363 . S
C1964 C1965 1.363 . S
C1964 C1969 1.379 . S
C1964 N1971 1.356 . S
C1965 C1964 1.363 . S
C1965 C1968 1.363 . S
N1966 C1968 1.356 . S
N1966 H1978 0.984 . S
N1966 H1979 0.985 . S
N1967 C1969 1.356 . S
N1967 H1972 0.984 . S
N1967 H1973 0.985 . S
C1968 C1962 1.379 . S
C1968 C1965 1.363 . S
C1968 N1966 1.356 . S
C1969 C1963 1.363 . S
C1969 C1964 1.379 . S
C1969 N1967 1.356 . S
N1970 C1962 1.356 . S
N1970 H1976 0.984 . S
N1970 H1977 0.984 . S
N1971 C1964 1.356 . S
N1971 H1974 0.984 . S
N1971 H1975 0.985 . S
H1972 N1967 0.984 . S
H1973 N1967 0.985 . S
H1974 N1971 0.984 . S
H1975 N1971 0.985 . S
H1976 N1970 0.984 . S
H1977 N1970 0.984 . S
H1978 N1966 0.984 . S
H1979 N1966 0.985 . S
C1980 C1981 1.363 . S
C1980 C1986 1.379 . S
C1980 N1988 1.356 . S
C1981 C1980 1.363 . S
C1981 C1987 1.363 . S
C1982 C1983 1.363 . S
C1982 C1987 1.379 . S
C1982 N1989 1.356 . S
C1983 C1982 1.363 . S
C1983 C1986 1.363 . S
N1984 C1986 1.356 . S
N1984 H1996 0.984 . S
N1984 H1997 0.985 . S
N1985 C1987 1.356 . S
N1985 H1990 0.984 . S
N1985 H1991 0.985 . S
C1986 C1980 1.379 . S
C1986 C1983 1.363 . S
C1986 N1984 1.356 . S
C1987 C1981 1.363 . S
C1987 C1982 1.379 . S
C1987 N1985 1.356 . S
N1988 C1980 1.356 . S
N1988 H1994 0.984 . S
N1988 H1995 0.984 . S
N1989 C1982 1.356 . S
N1989 H1992 0.984 . S
N1989 H1993 0.985 . S
H1990 N1985 0.984 . S
H1991 N1985 0.985 . S
H1992 N1989 0.984 . S
H1993 N1989 0.985 . S
H1994 N1988 0.984 . S
H1995 N1988 0.984 . S
H1996 N1984 0.984 . S
H1997 N1984 0.985 . S
C1998 C1999 1.363 . S
C1998 C2004 1.379 . S
C1998 N2006 1.356 . S
C1999 C1998 1.363 . S
C1999 C2005 1.363 . S
C2000 C2001 1.363 . S
C2000 C2005 1.379 . S
C2000 N2007 1.356 . S
C2001 C2000 1.363 . S
C2001 C2004 1.363 . S
N2002 C2004 1.356 . S
N2002 H2014 0.984 . S
N2002 H2015 0.985 . S
N2003 C2005 1.356 . S
N2003 H2008 0.984 . S
N2003 H2009 0.985 . S
C2004 C1998 1.379 . S
C2004 C2001 1.363 . S
C2004 N2002 1.356 . S
C2005 C1999 1.363 . S
C2005 C2000 1.379 . S
C2005 N2003 1.356 . S
N2006 C1998 1.356 . S
N2006 H2012 0.984 . S
N2006 H2013 0.984 . S
N2007 C2000 1.356 . S
N2007 H2010 0.984 . S
N2007 H2011 0.985 . S
H2008 N2003 0.984 . S
H2009 N2003 0.985 . S
H2010 N2007 0.984 . S
H2011 N2007 0.985 . S
H2012 N2006 0.984 . S
H2013 N2006 0.984 . S
H2014 N2002 0.984 . S
H2015 N2002 0.985 . S
C2016 C2017 1.363 . S
C2016 C2022 1.379 . S
C2016 N2024 1.356 . S
C2017 C2016 1.363 . S
C2017 C2023 1.363 . S
C2018 C2019 1.363 . S
C2018 C2023 1.379 . S
C2018 N2025 1.356 . S
C2019 C2018 1.363 . S
C2019 C2022 1.363 . S
N2020 C2022 1.356 . S
N2020 H2032 0.984 . S
N2020 H2033 0.985 . S
N2021 C2023 1.356 . S
N2021 H2026 0.984 . S
N2021 H2027 0.985 . S
C2022 C2016 1.379 . S
C2022 C2019 1.363 . S
C2022 N2020 1.356 . S
C2023 C2017 1.363 . S
C2023 C2018 1.379 . S
C2023 N2021 1.356 . S
N2024 C2016 1.356 . S
N2024 H2030 0.984 . S
N2024 H2031 0.984 . S
N2025 C2018 1.356 . S
N2025 H2028 0.984 . S
N2025 H2029 0.985 . S
H2026 N2021 0.984 . S
H2027 N2021 0.985 . S
H2028 N2025 0.984 . S
H2029 N2025 0.985 . S
H2030 N2024 0.984 . S
H2031 N2024 0.984 . S
H2032 N2020 0.984 . S
H2033 N2020 0.985 . S
C2034 C2035 1.363 . S
C2034 C2040 1.379 . S
C2034 N2042 1.356 . S
C2035 C2034 1.363 . S
C2035 C2041 1.363 . S
C2036 C2037 1.363 . S
C2036 C2041 1.379 . S
C2036 N2043 1.356 . S
C2037 C2036 1.363 . S
C2037 C2040 1.363 . S
N2038 C2040 1.356 . S
N2038 H2050 0.984 . S
N2038 H2051 0.985 . S
N2039 C2041 1.356 . S
N2039 H2044 0.984 . S
N2039 H2045 0.985 . S
C2040 C2034 1.379 . S
C2040 C2037 1.363 . S
C2040 N2038 1.356 . S
C2041 C2035 1.363 . S
C2041 C2036 1.379 . S
C2041 N2039 1.356 . S
N2042 C2034 1.356 . S
N2042 H2048 0.984 . S
N2042 H2049 0.984 . S
N2043 C2036 1.356 . S
N2043 H2046 0.984 . S
N2043 H2047 0.985 . S
H2044 N2039 0.984 . S
H2045 N2039 0.985 . S
H2046 N2043 0.984 . S
H2047 N2043 0.985 . S
H2048 N2042 0.984 . S
H2049 N2042 0.984 . S
H2050 N2038 0.984 . S
H2051 N2038 0.985 . S
C2052 C2053 1.363 . S
C2052 C2058 1.379 . S
C2052 N2060 1.356 . S
C2053 C2052 1.363 . S
C2053 C2059 1.363 . S
C2054 C2055 1.363 . S
C2054 C2059 1.379 . S
C2054 N2061 1.356 . S
C2055 C2054 1.363 . S
C2055 C2058 1.363 . S
N2056 C2058 1.356 . S
N2056 H2068 0.984 . S
N2056 H2069 0.985 . S
N2057 C2059 1.356 . S
N2057 H2062 0.984 . S
N2057 H2063 0.985 . S
C2058 C2052 1.379 . S
C2058 C2055 1.363 . S
C2058 N2056 1.356 . S
C2059 C2053 1.363 . S
C2059 C2054 1.379 . S
C2059 N2057 1.356 . S
N2060 C2052 1.356 . S
N2060 H2066 0.984 . S
N2060 H2067 0.984 . S
N2061 C2054 1.356 . S
N2061 H2064 0.984 . S
N2061 H2065 0.985 . S
H2062 N2057 0.984 . S
H2063 N2057 0.985 . S
H2064 N2061 0.984 . S
H2065 N2061 0.985 . S
H2066 N2060 0.984 . S
H2067 N2060 0.984 . S
H2068 N2056 0.984 . S
H2069 N2056 0.985 . S
C1099 C253 1.504 . S
C1101 C409 1.442 . S
C1117 C272 1.540 . S
C1119 C493 1.479 . S
C1135 C234 1.494 . S
C1137 C573 1.507 . S
C1153 C215 1.496 . S
C1155 C489 1.512 . S
C1173 C577 1.441 . S
C1171 C177 1.511 . S
C1189 C196 1.465 . S
C1191 C405 1.477 1_556 S
C1209 C398 1.502 . S
C1207 C220 1.469 . S
C1227 C482 1.525 . S
C1225 C182 1.495 . S
C1243 C201 1.477 . S
C1245 C584 1.509 1_556 S
C1261 C258 1.457 . S
C1263 C500 1.487 . S
C1279 C277 1.452 . S
C1281 C566 1.479 . S
C1299 C416 1.468 . S
C1297 C239 1.435 . S
C1317 C661 1.441 . S
C1315 C25 1.504 . S
C1333 C44 1.540 . S
C1335 C745 1.479 . S
C1351 C6 1.494 . S
C1353 C825 1.507 . S
C1369 C329 1.496 . S
C1371 C741 1.511 . S
C1387 C291 1.511 . S
C1389 C829 1.441 . S
C1405 C310 1.465 . S
C1407 C657 1.477 . S
C1423 C334 1.469 . S
C1425 C650 1.502 . S
C1441 C296 1.495 . S
C1443 C734 1.525 . S
C1461 C836 1.509 . S
C1459 C315 1.477 . S
C1477 C30 1.457 . S
C1479 C752 1.486 . S
C1497 C818 1.479 . S
C1495 C49 1.452 . S
C1513 C11 1.435 . S
C1515 C668 1.469 . S
C1533 C913 1.442 . S
C1531 C139 1.504 . S
C1549 C158 1.540 . S
C1551 C997 1.479 . S
C1569 C1077 1.507 . S
C1567 C120 1.494 . S
C1587 C993 1.510 . S
C1585 C101 1.496 . S
C1605 C1081 1.441 . S
C1603 C63 1.511 . S
C1621 C82 1.465 . S
C1623 C909 1.477 . S
C1639 C106 1.469 . S
C1641 C902 1.502 . S
C1657 C68 1.495 . S
C1659 C986 1.525 . S
C1677 C1088 1.509 . S
C1675 C87 1.477 . S
C1693 C144 1.457 . S
C1695 C1004 1.487 . S
C1711 C163 1.452 . S
C1713 C1070 1.479 . S
C1729 C125 1.435 . S
C1731 C920 1.469 . S
C1747 C287 1.658 . S
C1749 C412 1.562 . S
C1767 C496 1.578 . S
C1765 C306 1.708 . S
C1783 C325 1.653 . S
C1785 C568 1.444 . S
C1801 C116 1.665 . S
C1803 C484 1.436 . S
C1819 C135 1.667 . S
C1821 C580 1.545 . S
C1839 C400 1.425 . S
C1837 C154 1.614 . S
C1855 C59 1.658 . S
C1857 C664 1.562 . S
C1873 C78 1.709 . S
C1875 C748 1.579 . S
C1891 C97 1.653 . S
C1893 C820 1.444 . S
C1909 C230 1.665 . S
C1911 C736 1.437 . S
C1929 C832 1.545 . S
C1927 C249 1.667 . S
C1945 C268 1.614 . S
C1947 C652 1.425 . S
C1963 C173 1.658 . S
C1965 C916 1.562 . S
C1981 C192 1.708 . S
C1983 C1000 1.579 . S
C2001 C1072 1.444 . S
C1999 C211 1.653 . S
C2017 C2 1.665 . S
C2019 C988 1.436 . S
C2035 C21 1.667 . S
C2037 C1084 1.545 . S
C2053 C40 1.614 . S
C2055 C904 1.425 . S
