# Generated by pormake.
# Topology pth, (4,4)-cn, num edge types: 1
# Building blocks:
#     Node 0, Type 0, BuildingBlock: GALJAG_clean_sbu_0, # of connection points: 4
#     Node 1, Type 0, BuildingBlock: GALJAG_clean_sbu_0, # of connection points: 4
#     Node 2, Type 0, BuildingBlock: GALJAG_clean_sbu_0, # of connection points: 4
#     Node 3, Type 1, BuildingBlock: MIFKUJ_clean_linker_1, # of connection points: 4
#     Node 4, Type 1, BuildingBlock: MIFKUJ_clean_linker_1, # of connection points: 4
#     Node 5, Type 1, BuildingBlock: MIFKUJ_clean_linker_1, # of connection points: 4
#     Edge 6, Type (0, 1), BuildingBlock: FUNLAD_clean_linker_0, # of connection points: 2
#     Edge 7, Type (0, 1), BuildingBlock: FUNLAD_clean_linker_0, # of connection points: 2
#     Edge 8, Type (0, 1), BuildingBlock: FUNLAD_clean_linker_0, # of connection points: 2
#     Edge 9, Type (0, 1), BuildingBlock: FUNLAD_clean_linker_0, # of connection points: 2
#     Edge 10, Type (0, 1), BuildingBlock: FUNLAD_clean_linker_0, # of connection points: 2
#     Edge 11, Type (0, 1), BuildingBlock: FUNLAD_clean_linker_0, # of connection points: 2
#     Edge 12, Type (0, 1), BuildingBlock: FUNLAD_clean_linker_0, # of connection points: 2
#     Edge 13, Type (0, 1), BuildingBlock: FUNLAD_clean_linker_0, # of connection points: 2
#     Edge 14, Type (0, 1), BuildingBlock: FUNLAD_clean_linker_0, # of connection points: 2
#     Edge 15, Type (0, 1), BuildingBlock: FUNLAD_clean_linker_0, # of connection points: 2
#     Edge 16, Type (0, 1), BuildingBlock: FUNLAD_clean_linker_0, # of connection points: 2
#     Edge 17, Type (0, 1), BuildingBlock: FUNLAD_clean_linker_0, # of connection points: 2
# Relax obj value: 0.002
# Max RMSD: 0.043
# Mean RMSD: 0.028
data_MOF--net-pth--node1-GALJAG_clean_sbu_0--node2-MIFKUJ_clean_linker_1--edge1-FUNLAD_clean_linker_0
_symmetry_space_group_name_H-M    P1
_symmetry_Int_Tables_number       1
_symmetry_cell_setting            triclinic
loop_
_symmetry_equiv_pos_as_xyz
'x, y, z'
_cell_length_a     34.204342
_cell_length_b     34.190967
_cell_length_c     70.658708
_cell_angle_alpha  90.23088
_cell_angle_beta   90.052476
_cell_angle_gamma 120.00027
loop_
_atom_site_label
_atom_site_type_symbol
_atom_site_fract_x
_atom_site_fract_y
_atom_site_fract_z
_atom_type_partial_charge
In0 In 0.00411 0.00515 0.03902 0.0
O1 O 0.96059 0.03207 0.05186 0.0
O2 O 0.03081 0.06701 0.05805 0.0
C3 C 0.94291 0.94175 0.01543 0.0
C4 C 0.06997 0.0616 0.01532 0.0
C5 C 0.01114 0.95289 0.0658 0.0
O6 O 0.9374 0.9725 0.02263 0.0
O7 O 0.97941 0.94344 0.01993 0.0
O8 O 0.04114 0.97317 0.05342 0.0
O9 O 0.97791 0.95918 0.06469 0.0
C10 C 0.99314 0.0646 0.06037 0.0
O11 O 0.07741 0.04314 0.02921 0.0
O12 O 0.0292 0.05101 0.0132 0.0
In13 In 0.00733 0.01346 0.37083 0.0
O14 O 0.03888 0.08565 0.3599 0.0
O15 O 0.97877 0.03537 0.34657 0.0
C16 C 0.07382 0.02174 0.39402 0.0
C17 C 0.94373 0.00807 0.39495 0.0
C18 C 0.00342 0.94923 0.34731 0.0
O19 O 0.08054 0.04998 0.38119 0.0
O20 O 0.03367 0.98967 0.39519 0.0
O21 O 0.97233 0.94141 0.35893 0.0
O22 O 0.03588 0.98933 0.34746 0.0
C23 C 0.00901 0.07643 0.34743 0.0
O24 O 0.93667 0.97594 0.38395 0.0
O25 O 0.98266 0.04222 0.39383 0.0
In26 In 0.00094 -0.001 0.70462 0.0
O27 O 0.9667 0.92708 0.71615 0.0
O28 O 0.9488 0.97279 0.72831 0.0
C29 C 0.05978 0.99261 0.68118 0.0
C30 C 0.94435 0.00606 0.67998 0.0
C31 C 0.05761 0.06322 0.72919 0.0
O32 O 0.03604 0.9623 0.69295 0.0
O33 O 0.05354 0.026 0.6811 0.0
O34 O 0.02623 0.0655 0.7208 0.0
O35 O 0.06017 0.02858 0.72526 0.0
C36 C 0.94301 0.93337 0.7281 0.0
O37 O 0.97333 0.03924 0.68952 0.0
O38 O 0.94423 0.96961 0.68276 0.0
H39 H 0.06584 0.47935 0.17069 0.0
H40 H 0.06625 0.42177 0.15029 0.0
H41 H 0.93023 0.32644 0.16797 0.0
H42 H 0.93074 0.384 0.18878 0.0
H43 H 0.01117 0.51544 0.16985 0.0
H44 H 0.05056 0.43522 0.21207 0.0
H45 H 0.04693 0.37118 0.22882 0.0
H46 H 0.92182 0.34434 0.25488 0.0
H47 H 0.92481 0.40783 0.23762 0.0
H48 H 0.92293 0.52681 0.23698 0.0
H49 H 0.91805 0.58324 0.25664 0.0
H50 H 0.05258 0.68346 0.23935 0.0
H51 H 0.05775 0.62649 0.22022 0.0
H52 H 0.98085 0.4941 0.23877 0.0
H53 H 0.9454 0.57859 0.19342 0.0
H54 H 0.9562 0.64452 0.17562 0.0
H55 H 0.08632 0.66798 0.15678 0.0
H56 H 0.07535 0.60213 0.17458 0.0
C57 C -0.00163 0.43586 0.18129 0.0
C58 C 0.03616 0.44601 0.17015 0.0
C59 C 0.0362 0.41308 0.15842 0.0
C60 C -0.00183 0.36944 0.15739 0.0
C61 C 0.96032 0.35944 0.1686 0.0
C62 C 0.96047 0.39233 0.18045 0.0
C63 C -0.00175 0.47116 0.19349 0.0
C64 C 0.00507 0.51102 0.18497 0.0
C65 C 0.99005 0.46514 0.21318 0.0
C66 C 0.98753 0.42594 0.2233 0.0
C67 C 0.02184 0.41508 0.22108 0.0
C68 C 0.01984 0.37856 0.2307 0.0
C69 C 0.98399 0.35271 0.24306 0.0
C70 C 0.94994 0.36387 0.24549 0.0
C71 C 0.95163 0.40009 0.23565 0.0
C72 C 0.99052 0.57254 0.227 0.0
C73 C 0.95143 0.56091 0.2375 0.0
C74 C 0.94854 0.59329 0.24859 0.0
C75 C 0.98484 0.63792 0.24949 0.0
C76 C 0.02417 0.64932 0.2391 0.0
C77 C 0.02702 0.61691 0.22802 0.0
C78 C 0.99302 0.53809 0.21506 0.0
C79 C 0.98675 0.49838 0.22364 0.0
C80 C 0.00275 0.54466 0.19549 0.0
C81 C 0.0097 0.58562 0.18542 0.0
C82 C 0.9765 0.59831 0.18566 0.0
C83 C 0.98273 0.636 0.1755 0.0
C84 C 0.02208 0.66138 0.16477 0.0
C85 C 0.0554 0.64878 0.16471 0.0
C86 C 0.04923 0.61125 0.17491 0.0
H87 H 0.59229 0.05274 0.50225 0.0
H88 H 0.65063 0.04758 0.48423 0.0
H89 H 0.61224 0.91968 0.51068 0.0
H90 H 0.55348 0.92475 0.52847 0.0
H91 H 0.50054 0.99629 0.50226 0.0
H92 H 0.62258 0.05114 0.54687 0.0
H93 H 0.68192 0.04926 0.56546 0.0
H94 H 0.58132 0.92814 0.59328 0.0
H95 H 0.5223 0.92947 0.57421 0.0
H96 H 0.40605 0.935 0.57322 0.0
H97 H 0.34611 0.93791 0.59088 0.0
H98 H 0.37881 0.063 0.56311 0.0
H99 H 0.43863 0.05981 0.54547 0.0
H100 H 0.4956 0.99116 0.57243 0.0
H101 H 0.37401 0.93477 0.5275 0.0
H102 H 0.31411 0.93584 0.50902 0.0
H103 H 0.41316 0.0589 0.48189 0.0
H104 H 0.47282 0.05826 0.50082 0.0
C105 C 0.56884 0.98932 0.51679 0.0
C106 C 0.59642 0.02358 0.50413 0.0
C107 C 0.6299 0.02072 0.49396 0.0
C108 C 0.63609 0.98329 0.49611 0.0
C109 C 0.60806 0.94876 0.50865 0.0
C110 C 0.57475 0.95178 0.51891 0.0
C111 C 0.53353 0.99264 0.52762 0.0
C112 C 0.49979 0.9958 0.51761 0.0
C113 C 0.53205 0.991 0.54762 0.0
C114 C 0.56807 0.99014 0.559 0.0
C115 C 0.61338 0.02394 0.55684 0.0
C116 C 0.64721 0.02307 0.56761 0.0
C117 C 0.63635 0.98849 0.58082 0.0
C118 C 0.59088 0.95487 0.58304 0.0
C119 C 0.55707 0.95578 0.57227 0.0
C120 C 0.42652 0.99694 0.5579 0.0
C121 C 0.40039 0.96313 0.571 0.0
C122 C 0.36623 0.9649 0.5811 0.0
C123 C 0.35763 0.00064 0.57836 0.0
C124 C 0.3841 0.03465 0.56532 0.0
C125 C 0.41835 0.03292 0.55526 0.0
C126 C 0.46245 0.99461 0.54708 0.0
C127 C 0.49635 0.99168 0.55708 0.0
C128 C 0.46403 0.99636 0.52707 0.0
C129 C 0.4278 0.99669 0.51566 0.0
C130 C 0.38276 0.96215 0.51767 0.0
C131 C 0.34863 0.96259 0.50698 0.0
C132 C 0.35891 0.99748 0.494 0.0
C133 C 0.40411 0.03189 0.49194 0.0
C134 C 0.43825 0.03137 0.50262 0.0
H135 H 0.47552 0.41112 0.83675 0.0
H136 H 0.4177 0.35069 0.81729 0.0
H137 H 0.31835 0.38252 0.83869 0.0
H138 H 0.37627 0.44195 0.85859 0.0
H139 H 0.50465 0.50254 0.83655 0.0
H140 H 0.43592 0.37813 0.8788 0.0
H141 H 0.37444 0.3156 0.89585 0.0
H142 H 0.34473 0.40963 0.92438 0.0
H143 H 0.40573 0.4721 0.90699 0.0
H144 H 0.52291 0.59338 0.90809 0.0
H145 H 0.58171 0.65469 0.92699 0.0
H146 H 0.68222 0.63091 0.90082 0.0
H147 H 0.62307 0.56845 0.88266 0.0
H148 H 0.49373 0.50458 0.90653 0.0
H149 H 0.56227 0.629 0.86303 0.0
H150 H 0.62432 0.69041 0.84571 0.0
H151 H 0.6558 0.59461 0.81998 0.0
H152 H 0.59368 0.53337 0.83733 0.0
C153 C 0.4301 0.43079 0.84916 0.0
C154 C 0.44124 0.405 0.83722 0.0
C155 C 0.40814 0.37062 0.82603 0.0
C156 C 0.36327 0.36174 0.82634 0.0
C157 C 0.35233 0.38789 0.83829 0.0
C158 C 0.38542 0.42203 0.84962 0.0
C159 C 0.46544 0.46725 0.86096 0.0
C160 C 0.50255 0.50277 0.85187 0.0
C161 C 0.46212 0.4678 0.88091 0.0
C162 C 0.42503 0.4298 0.89138 0.0
C163 C 0.41578 0.38528 0.88851 0.0
C164 C 0.38071 0.34956 0.89828 0.0
C165 C 0.35472 0.35775 0.91139 0.0
C166 C 0.36443 0.40238 0.91447 0.0
C167 C 0.39922 0.43805 0.90453 0.0
C168 C 0.56863 0.57664 0.89381 0.0
C169 C 0.55759 0.60119 0.90656 0.0
C170 C 0.59132 0.63653 0.9172 0.0
C171 C 0.63677 0.64795 0.91535 0.0
C172 C 0.64757 0.62281 0.90275 0.0
C173 C 0.61382 0.58736 0.8922 0.0
C174 C 0.53293 0.54004 0.88211 0.0
C175 C 0.49574 0.50446 0.89121 0.0
C176 C 0.53619 0.5393 0.86215 0.0
C177 C 0.57361 0.57665 0.8516 0.0
C178 C 0.58277 0.6213 0.85377 0.0
C179 C 0.61829 0.65637 0.8439 0.0
C180 C 0.64505 0.64738 0.83151 0.0
C181 C 0.63551 0.60257 0.82925 0.0
C182 C 0.6001 0.56756 0.83918 0.0
C183 C 0.02629 0.13562 0.07946 0.0
C184 C 0.98793 0.0973 0.07226 0.0
C185 C 0.02186 0.16666 0.09081 0.0
C186 C 0.97886 0.16 0.09522 0.0
C187 C 0.94047 0.12131 0.08828 0.0
C188 C 0.94493 0.0904 0.07675 0.0
C189 C 0.97331 0.19212 0.10756 0.0
C190 C 0.00356 0.23664 0.10791 0.0
C191 C -0.00038 0.26933 0.12049 0.0
C192 C 0.0199 0.31464 0.11493 0.0
C193 C 0.01879 0.34689 0.12674 0.0
C194 C -0.00198 0.3347 0.14459 0.0
H195 H 0.96364 0.22249 0.14325 0.0
C196 C 0.97772 0.28924 0.15017 0.0
C197 C 0.97845 0.25687 0.13825 0.0
H198 H 0.9622 0.27879 0.16396 0.0
H199 H 0.05987 0.14166 0.07636 0.0
H200 H 0.05217 0.19535 0.09639 0.0
H201 H 0.90698 0.11519 0.09165 0.0
H202 H 0.91477 0.06096 0.07149 0.0
H203 H 0.94269 0.17896 0.11591 0.0
H204 H 0.03169 0.25022 0.09808 0.0
H205 H 0.03658 0.32514 0.10134 0.0
H206 H 0.03411 0.38139 0.12182 0.0
C207 C 0.86632 0.96792 0.40927 0.0
C208 C 0.90908 0.00679 0.4078 0.0
C209 C 0.83336 0.96772 0.42108 0.0
C210 C 0.84269 0.0065 0.43164 0.0
C211 C 0.88546 0.0452 0.4301 0.0
C212 C 0.91836 0.0453 0.41843 0.0
C213 C 0.80846 0.00904 0.44371 0.0
C214 C 0.77283 0.97287 0.4515 0.0
C215 C 0.7388 0.97623 0.46347 0.0
C216 C 0.69582 0.93794 0.46551 0.0
C217 C 0.66257 0.93998 0.47626 0.0
C218 C 0.67167 0.98042 0.48524 0.0
H219 H 0.78139 0.04611 0.47258 0.0
C220 C 0.71497 0.0184 0.48364 0.0
C221 C 0.74827 0.01632 0.47301 0.0
H222 H 0.72328 0.04971 0.49081 0.0
H223 H 0.85816 0.93785 0.40114 0.0
H224 H 0.80044 0.9376 0.42145 0.0
H225 H 0.89349 0.07561 0.43797 0.0
H226 H 0.95094 0.07585 0.41755 0.0
H227 H 0.81356 0.04256 0.4463 0.0
H228 H 0.76761 0.93931 0.4488 0.0
H229 H 0.68767 0.90649 0.45851 0.0
H230 H 0.62944 0.91016 0.4772 0.0
C231 C 0.88319 0.90557 0.75296 0.0
C232 C 0.91006 0.89714 0.74046 0.0
C233 C 0.85073 0.87093 0.76413 0.0
C234 C 0.84471 0.82709 0.76314 0.0
C235 C 0.87174 0.81885 0.75065 0.0
C236 C 0.90418 0.8535 0.73947 0.0
C237 C 0.80917 0.78868 0.77407 0.0
C238 C 0.7901 0.79373 0.78989 0.0
C239 C 0.75334 0.75522 0.80032 0.0
C240 C 0.74624 0.76116 0.81944 0.0
C241 C 0.7113 0.72618 0.8296 0.0
C242 C 0.68245 0.6845 0.82081 0.0
H243 H 0.72727 0.70809 0.77661 0.0
C244 C 0.68927 0.67864 0.80164 0.0
C245 C 0.72415 0.71361 0.79148 0.0
H246 H 0.66699 0.64727 0.79436 0.0
H247 H 0.88671 0.93882 0.7539 0.0
H248 H 0.82976 0.87857 0.77308 0.0
H249 H 0.86762 0.78538 0.74946 0.0
H250 H 0.9243 0.84595 0.72991 0.0
H251 H 0.79946 0.75494 0.76908 0.0
H252 H 0.80272 0.82716 0.79593 0.0
H253 H 0.76795 0.79293 0.82657 0.0
H254 H 0.70714 0.73164 0.8444 0.0
C255 C 0.05151 0.91695 0.08095 0.0
C256 C 0.01386 0.92301 0.08013 0.0
C257 C 0.05312 0.88724 0.09406 0.0
C258 C 0.0168 0.86265 0.10649 0.0
C259 C 0.97984 0.86985 0.10598 0.0
C260 C 0.97829 0.89957 0.09291 0.0
C261 C 0.01595 0.82925 0.12015 0.0
C262 C 0.03988 0.80803 0.11782 0.0
C263 C 0.03604 0.77166 0.13051 0.0
C264 C 0.0488 0.74122 0.12349 0.0
C265 C 0.0446 0.70572 0.13465 0.0
C266 C 0.02775 0.69997 0.15317 0.0
H267 H 0.01154 0.7902 0.15548 0.0
C268 C 0.01589 0.73097 0.1604 0.0
C269 C 0.02021 0.76661 0.14925 0.0
H270 H 0.00368 0.72793 0.17476 0.0
H271 H 0.07968 0.935 0.07141 0.0
H272 H 0.08297 0.88398 0.09441 0.0
H273 H 0.95161 0.85176 0.11549 0.0
H274 H 0.94891 0.90375 0.09269 0.0
H275 H 0.99204 0.81947 0.13171 0.0
H276 H 0.06075 0.81496 0.10533 0.0
H277 H 0.06134 0.74439 0.10917 0.0
H278 H 0.05367 0.68219 0.1286 0.0
C279 C 0.10028 0.9932 0.42077 0.0
C280 C 0.11015 0.02516 0.40646 0.0
C281 C 0.13464 0.99537 0.43221 0.0
C282 C 0.1798 0.02939 0.42944 0.0
C283 C 0.18942 0.06201 0.41544 0.0
C284 C 0.15499 0.05986 0.40401 0.0
C285 C 0.21747 0.03228 0.44104 0.0
C286 C 0.2157 0.99616 0.44951 0.0
C287 C 0.25334 0.99802 0.46079 0.0
C288 C 0.25396 0.95775 0.46376 0.0
C289 C 0.28822 0.9576 0.47446 0.0
C290 C 0.32261 0.99776 0.48256 0.0
H291 H 0.28761 0.06974 0.46767 0.0
C292 C 0.3219 0.03807 0.47974 0.0
C293 C 0.28755 0.03823 0.46905 0.0
H294 H 0.34745 0.0694 0.48611 0.0
H295 H 0.06594 0.96637 0.42315 0.0
H296 H 0.12546 0.97058 0.44329 0.0
H297 H 0.22379 0.08888 0.41314 0.0
H298 H 0.16357 0.08512 0.39315 0.0
H299 H 0.2484 0.06473 0.44163 0.0
H300 H 0.18623 0.96302 0.44737 0.0
H301 H 0.22796 0.92624 0.45767 0.0
H302 H 0.28804 0.92605 0.47621 0.0
C303 C 0.12772 0.09766 0.74889 0.0
C304 C 0.08946 0.0986 0.7423 0.0
C305 C 0.15864 0.13164 0.7609 0.0
C306 C 0.15182 0.16724 0.76661 0.0
C307 C 0.11295 0.16751 0.76043 0.0
C308 C 0.08223 0.13374 0.74823 0.0
C309 C 0.18429 0.20393 0.77926 0.0
C310 C 0.22897 0.21914 0.77876 0.0
C311 C 0.26217 0.25623 0.79104 0.0
C312 C 0.30646 0.28318 0.78451 0.0
C313 C 0.33902 0.3177 0.79584 0.0
C314 C 0.32822 0.32555 0.81415 0.0
H315 H 0.21762 0.243 0.81502 0.0
C316 C 0.28384 0.29826 0.82074 0.0
C317 C 0.25112 0.26401 0.80931 0.0
H318 H 0.27453 0.30268 0.8349 0.0
H319 H 0.13401 0.07081 0.74467 0.0
H320 H 0.18754 0.12963 0.76585 0.0
H321 H 0.10671 0.19432 0.76479 0.0
H322 H 0.05285 0.13514 0.74347 0.0
H323 H 0.17131 0.2205 0.78836 0.0
H324 H 0.24223 0.20559 0.76824 0.0
H325 H 0.31586 0.27776 0.77052 0.0
H326 H 0.37259 0.33844 0.79014 0.0
C327 C 0.88032 0.97085 0.65691 0.0
C328 C 0.91227 0.00919 0.66692 0.0
C329 C 0.84895 0.97322 0.645 0.0
C330 C 0.84865 0.01402 0.64297 0.0
C331 C 0.8814 0.05259 0.65262 0.0
C332 C 0.91277 0.0502 0.66455 0.0
C333 C 0.81535 0.01785 0.63072 0.0
C334 C 0.77422 0.98257 0.62657 0.0
C335 C 0.74009 0.9857 0.61458 0.0
C336 C 0.70482 0.9458 0.60672 0.0
C337 C 0.67138 0.94671 0.59569 0.0
C338 C 0.67225 0.98762 0.59234 0.0
H339 H 0.7664 0.05806 0.61759 0.0
C340 C 0.70738 0.02759 0.60027 0.0
C341 C 0.74084 0.02669 0.61133 0.0
H342 H 0.70849 0.05952 0.59828 0.0
H343 H 0.87945 0.93888 0.65829 0.0
H344 H 0.82549 0.9431 0.63729 0.0
H345 H 0.88229 0.08456 0.65116 0.0
H346 H 0.93717 0.08038 0.67202 0.0
H347 H 0.82508 0.05119 0.62539 0.0
H348 H 0.76467 0.94944 0.63212 0.0
H349 H 0.70319 0.91371 0.60904 0.0
H350 H 0.64503 0.91537 0.58964 0.0
C351 C 0.86889 0.9053 0.99816 0.0
C352 C 0.90879 0.90563 0.00319 0.0
C353 C 0.83596 0.8701 0.98715 0.0
C354 C 0.84242 0.83455 0.98092 0.0
C355 C 0.88233 0.83502 0.98601 0.0
C356 C 0.91528 0.87027 0.99692 0.0
C357 C 0.80767 0.79537 0.96991 0.0
C358 C 0.77668 0.79725 0.95873 0.0
C359 C 0.74144 0.75813 0.94771 0.0
C360 C 0.70561 0.76165 0.93983 0.0
C361 C 0.67167 0.72602 0.92938 0.0
C362 C 0.67278 0.68588 0.9265 0.0
H363 H 0.77006 0.71381 0.94991 0.0
C364 C 0.70878 0.68239 0.93423 0.0
C365 C 0.7428 0.71806 0.94462 0.0
H366 H 0.71054 0.65185 0.9324 0.0
H367 H 0.86283 0.93195 0.00293 0.0
H368 H 0.80513 0.87037 0.98403 0.0
H369 H 0.88806 0.80794 0.98154 0.0
H370 H 0.9456 0.86946 0.00065 0.0
H371 H 0.80862 0.76427 0.97106 0.0
H372 H 0.77672 0.82892 0.95755 0.0
H373 H 0.70375 0.79213 0.94178 0.0
H374 H 0.64488 0.7302 0.92335 0.0
C375 C 0.96713 0.86928 0.33557 0.0
C376 C 0.00286 0.9141 0.33486 0.0
C377 C 0.96778 0.83588 0.32428 0.0
C378 C 0.00417 0.84682 0.31196 0.0
C379 C 0.03971 0.8917 0.31128 0.0
C380 C 0.03903 0.925 0.32254 0.0
C381 C 0.00757 0.81237 0.30027 0.0
C382 C 0.97194 0.77221 0.29529 0.0
C383 C 0.97626 0.73829 0.2836 0.0
C384 C 0.93901 0.7069 0.27291 0.0
C385 C 0.94177 0.67443 0.26181 0.0
C386 C 0.9818 0.67238 0.26129 0.0
H387 H 0.04504 0.75822 0.29189 0.0
C388 C 0.01887 0.70335 0.27222 0.0
C389 C 0.01613 0.73581 0.28331 0.0
H390 H 0.04984 0.702 0.27249 0.0
H391 H 0.93898 0.85984 0.34506 0.0
H392 H 0.94031 0.80153 0.32566 0.0
H393 H 0.0683 0.90108 0.30204 0.0
H394 H 0.06715 0.95924 0.32171 0.0
H395 H 0.04082 0.82154 0.29493 0.0
H396 H 0.93808 0.76451 0.29906 0.0
H397 H 0.90779 0.7078 0.27297 0.0
H398 H 0.91269 0.6513 0.25343 0.0
C399 C 0.1204 0.0254 0.65663 0.0
C400 C 0.09334 0.9899 0.66893 0.0
C401 C 0.15343 0.02366 0.64561 0.0
C402 C 0.15983 0.98608 0.64658 0.0
C403 C 0.1326 0.95062 0.65887 0.0
C404 C 0.09962 0.95239 0.66988 0.0
C405 C 0.19582 0.9835 0.6358 0.0
C406 C 0.21533 0.00767 0.6201 0.0
C407 C 0.25185 0.00523 0.6097 0.0
C408 C 0.25849 0.01685 0.59047 0.0
C409 C 0.29273 0.01535 0.58027 0.0
C410 C 0.32135 0.0025 0.58916 0.0
H411 H 0.27821 0.98558 0.63363 0.0
C412 C 0.31518 0.99156 0.60848 0.0
C413 C 0.28098 0.99308 0.61867 0.0
H414 H 0.33734 0.98256 0.61584 0.0
H415 H 0.11658 0.05494 0.65573 0.0
H416 H 0.17448 0.05235 0.63678 0.0
H417 H 0.13697 0.92144 0.66003 0.0
H418 H 0.07937 0.92457 0.67929 0.0
H419 H 0.20534 0.95938 0.64074 0.0
H420 H 0.20302 0.02863 0.61405 0.0
H421 H 0.23683 0.02672 0.58324 0.0
H422 H 0.2964 0.02369 0.56537 0.0
C423 C 0.09614 0.11296 0.98731 0.0
C424 C 0.10639 0.09485 0.00311 0.0
C425 C 0.13067 0.14635 0.97639 0.0
C426 C 0.17622 0.16231 0.98106 0.0
C427 C 0.18635 0.14397 0.99679 0.0
C428 C 0.15183 0.11036 0.00763 0.0
C429 C 0.21384 0.19977 0.97057 0.0
C430 C 0.21084 0.20905 0.95229 0.0
C431 C 0.24834 0.24738 0.94215 0.0
C432 C 0.25241 0.24416 0.92252 0.0
C433 C 0.28708 0.27985 0.91254 0.0
C434 C 0.31791 0.31985 0.92196 0.0
H435 H 0.27613 0.29181 0.96659 0.0
C436 C 0.31338 0.32343 0.94155 0.0
C437 C 0.279 0.28758 0.95156 0.0
H438 H 0.33671 0.35384 0.94918 0.0
H439 H 0.06141 0.10188 0.98357 0.0
H440 H 0.12145 0.16049 0.96469 0.0
H441 H 0.22112 0.15589 0.00079 0.0
H442 H 0.16077 0.09721 0.01978 0.0
H443 H 0.24565 0.21938 0.97807 0.0
H444 H 0.18074 0.1868 0.94418 0.0
H445 H 0.2289 0.21379 0.9149 0.0
H446 H 0.28942 0.27639 0.89739 0.0
C447 C 0.9763 0.09879 0.32073 0.0
C448 C 0.00827 0.11122 0.33536 0.0
C449 C 0.97423 0.13176 0.30985 0.0
C450 C 0.0041 0.17789 0.31343 0.0
C451 C 0.03597 0.19022 0.32807 0.0
C452 C 0.03831 0.15725 0.33883 0.0
C453 C 0.00154 0.21392 0.30281 0.0
C454 C 0.98665 0.20885 0.28482 0.0
C455 C 0.98489 0.24546 0.27434 0.0
C456 C 0.99178 0.2487 0.2547 0.0
C457 C 0.99127 0.28339 0.24451 0.0
C458 C 0.98292 0.31497 0.25373 0.0
H459 H 0.96895 0.27426 0.29856 0.0
C460 C 0.97462 0.31091 0.27329 0.0
C461 C 0.9757 0.27657 0.28352 0.0
H462 H 0.96814 0.33483 0.28075 0.0
H463 H 0.95249 0.06355 0.31783 0.0
H464 H 0.9484 0.12096 0.29904 0.0
H465 H 0.05913 0.22551 0.33121 0.0
H466 H 0.06313 0.16785 0.35009 0.0
H467 H 0.01446 0.24648 0.3098 0.0
H468 H 0.97807 0.17803 0.2771 0.0
H469 H -0.00163 0.22481 0.24728 0.0
H470 H 0.99724 0.28545 0.2294 0.0
loop_
_geom_bond_atom_site_label_1
_geom_bond_atom_site_label_2
_geom_bond_distance
_geom_bond_site_symmetry_2
_ccdc_geom_bond_type
In0 O1 2.294 1_455 S
In0 O2 2.326 . S
In0 O6 2.266 1_445 S
In0 O7 2.326 1_445 S
In0 O8 2.266 1_545 S
In0 O9 2.326 1_445 S
In0 O11 2.294 . S
In0 O12 2.326 . S
O1 In0 2.294 1_655 S
O1 C10 1.240 1_655 S
O2 In0 2.326 . S
O2 C10 1.252 . S
C3 O6 1.252 . S
C3 O7 1.260 . S
C4 O11 1.240 . S
C4 O12 1.252 . S
C5 O8 1.240 1_655 S
C5 O9 1.280 . S
O6 In0 2.266 1_665 S
O6 C3 1.252 . S
O7 In0 2.326 1_665 S
O7 C3 1.260 . S
O8 In0 2.266 1_565 S
O8 C5 1.240 1_455 S
O9 In0 2.326 1_665 S
O9 C5 1.280 . S
C10 O1 1.240 1_455 S
C10 O2 1.252 . S
O11 In0 2.294 . S
O11 C4 1.240 . S
O12 In0 2.326 . S
O12 C4 1.252 . S
In13 O14 2.291 . S
In13 O15 2.305 1_455 S
In13 O19 2.291 . S
In13 O20 2.343 1_545 S
In13 O21 2.269 1_445 S
In13 O22 2.347 1_545 S
In13 O24 2.269 1_445 S
In13 O25 2.308 1_455 S
O14 In13 2.291 . S
O14 C23 1.240 1_455 S
O15 In13 2.305 1_655 S
O15 C23 1.252 . S
C16 O19 1.252 1_565 S
C16 O20 1.260 . S
C17 O24 1.240 1_545 S
C17 O25 1.252 . S
C18 O21 1.252 1_455 S
C18 O22 1.260 . S
O19 In13 2.291 . S
O19 C16 1.252 1_545 S
O20 In13 2.343 1_565 S
O20 C16 1.260 . S
O21 In13 2.269 1_665 S
O21 C18 1.252 1_655 S
O22 In13 2.347 1_565 S
O22 C18 1.260 . S
C23 O14 1.240 1_655 S
C23 O15 1.252 . S
O24 In13 2.269 1_665 S
O24 C17 1.240 1_565 S
O25 In13 2.308 1_655 S
O25 C17 1.252 . S
In26 O27 2.282 1_445 S
In26 O28 2.328 1_445 S
In26 O32 2.254 1_545 S
In26 O33 2.328 . S
In26 O34 2.278 . S
In26 O35 2.324 . S
In26 O37 2.306 1_455 S
In26 O38 2.325 1_445 S
O27 In26 2.282 1_665 S
O27 C36 1.240 . S
O28 In26 2.328 1_665 S
O28 C36 1.252 . S
C29 O32 1.252 1_545 S
C29 O33 1.260 . S
C30 O37 1.240 1_565 S
C30 O38 1.252 . S
C31 O34 1.252 . S
C31 O35 1.260 . S
O32 In26 2.254 1_565 S
O32 C29 1.252 1_565 S
O33 In26 2.328 . S
O33 C29 1.260 . S
O34 In26 2.278 . S
O34 C31 1.252 . S
O35 In26 2.324 . S
O35 C31 1.260 . S
C36 O27 1.240 . S
C36 O28 1.252 . S
O37 In26 2.306 1_655 S
O37 C30 1.240 1_545 S
O38 In26 2.325 1_665 S
O38 C30 1.252 . S
H39 C58 0.949 . S
H40 C59 0.950 . S
H41 C61 0.950 . S
H42 C62 0.950 . S
H43 C64 0.950 . S
H44 C67 0.950 . S
H45 C68 0.950 . S
H46 C70 0.951 . S
H47 C71 0.949 . S
H48 C73 0.949 . S
H49 C74 0.950 . S
H50 C76 0.950 . S
H51 C77 0.950 . S
H52 C79 0.950 . S
H53 C82 0.950 . S
H54 C83 0.950 . S
H55 C85 0.951 . S
H56 C86 0.949 . S
C57 C58 1.376 . S
C57 C62 1.386 1_455 S
C57 C63 1.483 . S
C58 H39 0.949 . S
C58 C57 1.376 . S
C58 C59 1.397 . S
C59 H40 0.950 . S
C59 C58 1.397 . S
C59 C60 1.391 . S
C60 C59 1.391 . S
C60 C61 1.405 1_455 S
C61 H41 0.950 . S
C61 C60 1.405 1_655 S
C61 C62 1.367 . S
C62 H42 0.950 . S
C62 C57 1.386 1_655 S
C62 C61 1.367 . S
C63 C57 1.483 . S
C63 C64 1.382 . S
C63 C65 1.403 1_455 S
C64 H43 0.950 . S
C64 C63 1.382 . S
C64 C80 1.411 . S
C65 C63 1.403 1_655 S
C65 C66 1.489 . S
C65 C79 1.411 . S
C66 C65 1.489 . S
C66 C67 1.383 1_655 S
C66 C71 1.382 . S
C67 H44 0.950 . S
C67 C66 1.383 1_455 S
C67 C68 1.395 . S
C68 H45 0.950 . S
C68 C67 1.395 . S
C68 C69 1.288 1_455 S
C69 C68 1.288 1_655 S
C69 C70 1.392 . S
C70 H46 0.951 . S
C70 C69 1.392 . S
C70 C71 1.392 . S
C71 H47 0.949 . S
C71 C66 1.382 . S
C71 C70 1.392 . S
C72 C73 1.376 . S
C72 C77 1.386 1_655 S
C72 C78 1.496 . S
C73 H48 0.949 . S
C73 C72 1.376 . S
C73 C74 1.397 . S
C74 H49 0.950 . S
C74 C73 1.397 . S
C74 C75 1.386 1_655 S
C75 C74 1.386 1_455 S
C75 C76 1.416 . S
C76 H50 0.950 . S
C76 C75 1.416 . S
C76 C77 1.367 . S
C77 H51 0.950 . S
C77 C72 1.386 1_455 S
C77 C76 1.367 . S
C78 C72 1.496 . S
C78 C79 1.371 . S
C78 C80 1.399 1_655 S
C79 H52 0.950 . S
C79 C65 1.411 . S
C79 C78 1.371 . S
C80 C64 1.411 . S
C80 C78 1.399 1_455 S
C80 C81 1.489 . S
C81 C80 1.489 . S
C81 C82 1.383 1_455 S
C81 C86 1.382 . S
C82 H53 0.950 . S
C82 C81 1.383 1_655 S
C82 C83 1.395 . S
C83 H54 0.950 . S
C83 C82 1.395 . S
C83 C84 1.288 1_655 S
C84 C83 1.288 1_455 S
C84 C85 1.392 . S
C85 H55 0.951 . S
C85 C84 1.392 . S
C85 C86 1.392 . S
C86 H56 0.949 . S
C86 C81 1.382 . S
C86 C85 1.392 . S
H87 C106 0.949 . S
H88 C107 0.950 . S
H89 C109 0.950 . S
H90 C110 0.950 . S
H91 C112 0.950 . S
H92 C115 0.950 . S
H93 C116 0.950 . S
H94 C118 0.951 . S
H95 C119 0.949 . S
H96 C121 0.949 . S
H97 C122 0.950 . S
H98 C124 0.950 . S
H99 C125 0.950 . S
H100 C127 0.950 . S
H101 C130 0.950 . S
H102 C131 0.950 . S
H103 C133 0.951 . S
H104 C134 0.949 . S
C105 C106 1.376 . S
C105 C110 1.386 1_545 S
C105 C111 1.483 . S
C106 H87 0.949 . S
C106 C105 1.376 . S
C106 C107 1.397 . S
C107 H88 0.950 . S
C107 C106 1.397 . S
C107 C108 1.391 . S
C108 C107 1.391 . S
C108 C109 1.405 1_545 S
C109 H89 0.950 . S
C109 C108 1.405 1_565 S
C109 C110 1.367 . S
C110 H90 0.950 . S
C110 C105 1.386 1_565 S
C110 C109 1.367 . S
C111 C105 1.483 . S
C111 C112 1.382 . S
C111 C113 1.403 1_545 S
C112 H91 0.950 . S
C112 C111 1.382 . S
C112 C128 1.411 . S
C113 C111 1.403 1_565 S
C113 C114 1.489 . S
C113 C127 1.411 . S
C114 C113 1.489 . S
C114 C115 1.383 1_565 S
C114 C119 1.382 . S
C115 H92 0.950 . S
C115 C114 1.383 1_545 S
C115 C116 1.395 . S
C116 H93 0.950 . S
C116 C115 1.395 . S
C116 C117 1.288 1_545 S
C117 C116 1.288 1_565 S
C117 C118 1.392 . S
C118 H94 0.951 . S
C118 C117 1.392 . S
C118 C119 1.392 . S
C119 H95 0.949 . S
C119 C114 1.382 . S
C119 C118 1.392 . S
C120 C121 1.376 . S
C120 C125 1.386 1_565 S
C120 C126 1.483 . S
C121 H96 0.949 . S
C121 C120 1.376 . S
C121 C122 1.397 . S
C122 H97 0.950 . S
C122 C121 1.397 . S
C122 C123 1.388 1_565 S
C123 C122 1.388 1_545 S
C123 C124 1.407 . S
C124 H98 0.950 . S
C124 C123 1.407 . S
C124 C125 1.367 . S
C125 H99 0.950 . S
C125 C120 1.386 1_545 S
C125 C124 1.367 . S
C126 C120 1.483 . S
C126 C127 1.382 . S
C126 C128 1.403 1_565 S
C127 H100 0.950 . S
C127 C113 1.411 . S
C127 C126 1.382 . S
C128 C112 1.411 . S
C128 C126 1.403 1_545 S
C128 C129 1.489 . S
C129 C128 1.489 . S
C129 C130 1.383 1_545 S
C129 C134 1.382 . S
C130 H101 0.950 . S
C130 C129 1.383 1_565 S
C130 C131 1.395 . S
C131 H102 0.950 . S
C131 C130 1.395 . S
C131 C132 1.288 1_565 S
C132 C131 1.288 1_545 S
C132 C133 1.392 . S
C133 H103 0.951 . S
C133 C132 1.392 . S
C133 C134 1.392 . S
C134 H104 0.949 . S
C134 C129 1.382 . S
C134 C133 1.392 . S
H135 C154 0.949 . S
H136 C155 0.950 . S
H137 C157 0.950 . S
H138 C158 0.950 . S
H139 C160 0.950 . S
H140 C163 0.950 . S
H141 C164 0.950 . S
H142 C166 0.951 . S
H143 C167 0.949 . S
H144 C169 0.949 . S
H145 C170 0.950 . S
H146 C172 0.950 . S
H147 C173 0.950 . S
H148 C175 0.950 . S
H149 C178 0.950 . S
H150 C179 0.950 . S
H151 C181 0.951 . S
H152 C182 0.949 . S
C153 C154 1.376 . S
C153 C158 1.386 . S
C153 C159 1.483 . S
C154 H135 0.949 . S
C154 C153 1.376 . S
C154 C155 1.397 . S
C155 H136 0.950 . S
C155 C154 1.397 . S
C155 C156 1.391 . S
C156 C155 1.391 . S
C156 C157 1.405 . S
C157 H137 0.950 . S
C157 C156 1.405 . S
C157 C158 1.367 . S
C158 H138 0.950 . S
C158 C153 1.386 . S
C158 C157 1.367 . S
C159 C153 1.483 . S
C159 C160 1.382 . S
C159 C161 1.403 . S
C160 H139 0.950 . S
C160 C159 1.382 . S
C160 C176 1.411 . S
C161 C159 1.403 . S
C161 C162 1.489 . S
C161 C175 1.411 . S
C162 C161 1.489 . S
C162 C163 1.383 . S
C162 C167 1.382 . S
C163 H140 0.950 . S
C163 C162 1.383 . S
C163 C164 1.395 . S
C164 H141 0.950 . S
C164 C163 1.395 . S
C164 C165 1.288 . S
C165 C164 1.288 . S
C165 C166 1.392 . S
C166 H142 0.951 . S
C166 C165 1.392 . S
C166 C167 1.392 . S
C167 H143 0.949 . S
C167 C162 1.382 . S
C167 C166 1.392 . S
C168 C169 1.376 . S
C168 C173 1.386 . S
C168 C174 1.483 . S
C169 H144 0.949 . S
C169 C168 1.376 . S
C169 C170 1.397 . S
C170 H145 0.950 . S
C170 C169 1.397 . S
C170 C171 1.391 . S
C171 C170 1.391 . S
C171 C172 1.405 . S
C172 H146 0.950 . S
C172 C171 1.405 . S
C172 C173 1.367 . S
C173 H147 0.950 . S
C173 C168 1.386 . S
C173 C172 1.367 . S
C174 C168 1.483 . S
C174 C175 1.382 . S
C174 C176 1.403 . S
C175 H148 0.950 . S
C175 C161 1.411 . S
C175 C174 1.382 . S
C176 C160 1.411 . S
C176 C174 1.403 . S
C176 C177 1.489 . S
C177 C176 1.489 . S
C177 C178 1.383 . S
C177 C182 1.382 . S
C178 H149 0.950 . S
C178 C177 1.383 . S
C178 C179 1.395 . S
C179 H150 0.950 . S
C179 C178 1.395 . S
C179 C180 1.288 . S
C180 C179 1.288 . S
C180 C181 1.392 . S
C181 H151 0.951 . S
C181 C180 1.392 . S
C181 C182 1.392 . S
C182 H152 0.949 . S
C182 C177 1.382 . S
C182 C181 1.392 . S
C183 C184 1.386 . S
C183 C185 1.383 . S
C183 H199 0.951 . S
C184 C183 1.386 . S
C184 C188 1.383 1_455 S
C185 C183 1.383 . S
C185 C186 1.402 1_455 S
C185 H200 0.951 . S
C186 C185 1.402 1_655 S
C186 C187 1.375 . S
C186 C189 1.481 . S
C187 C186 1.375 . S
C187 C188 1.367 . S
C187 H201 0.951 . S
C188 C184 1.383 1_655 S
C188 C187 1.367 . S
C188 H202 0.950 . S
C189 C186 1.481 . S
C189 C190 1.297 1_655 S
C189 H203 0.950 . S
C190 C189 1.297 1_455 S
C190 C191 1.479 1_455 S
C190 H204 0.950 . S
C191 C190 1.479 1_655 S
C191 C192 1.375 1_655 S
C191 C197 1.404 . S
C192 C191 1.375 1_455 S
C192 C193 1.369 . S
C192 H205 0.950 . S
C193 C192 1.369 . S
C193 C194 1.393 . S
C193 H206 0.951 . S
C194 C193 1.393 . S
C194 C196 1.384 1_455 S
H195 C197 0.949 . S
C196 C194 1.384 1_655 S
C196 C197 1.385 . S
C196 H198 0.950 . S
C197 C191 1.404 . S
C197 H195 0.949 . S
C197 C196 1.385 . S
H198 C196 0.950 . S
H199 C183 0.951 . S
H200 C185 0.951 . S
H201 C187 0.951 . S
H202 C188 0.950 . S
H203 C189 0.950 . S
H204 C190 0.950 . S
H205 C192 0.950 . S
H206 C193 0.951 . S
C207 C208 1.386 1_565 S
C207 C209 1.383 . S
C207 H223 0.951 . S
C208 C207 1.386 1_545 S
C208 C212 1.383 . S
C209 C207 1.383 . S
C209 C210 1.402 1_565 S
C209 H224 0.951 . S
C210 C209 1.402 1_545 S
C210 C211 1.375 . S
C210 C213 1.481 . S
C211 C210 1.375 . S
C211 C212 1.367 . S
C211 H225 0.951 . S
C212 C208 1.383 . S
C212 C211 1.367 . S
C212 H226 0.950 . S
C213 C210 1.481 . S
C213 C214 1.297 1_545 S
C213 H227 0.950 . S
C214 C213 1.297 1_565 S
C214 C215 1.479 . S
C214 H228 0.950 . S
C215 C214 1.479 . S
C215 C216 1.375 . S
C215 C221 1.404 1_565 S
C216 C215 1.375 . S
C216 C217 1.369 . S
C216 H229 0.950 . S
C217 C216 1.369 . S
C217 C218 1.392 . S
C217 H230 0.951 . S
C218 C217 1.392 . S
C218 C220 1.384 1_565 S
H219 C221 0.949 . S
C220 C218 1.384 1_545 S
C220 C221 1.385 . S
C220 H222 0.950 . S
C221 C215 1.404 1_545 S
C221 H219 0.949 . S
C221 C220 1.385 . S
H222 C220 0.950 . S
H223 C207 0.951 . S
H224 C209 0.951 . S
H225 C211 0.951 . S
H226 C212 0.950 . S
H227 C213 0.950 . S
H228 C214 0.950 . S
H229 C216 0.950 . S
H230 C217 0.951 . S
C231 C232 1.386 . S
C231 C233 1.383 . S
C231 H247 0.951 . S
C232 C231 1.386 . S
C232 C236 1.383 . S
C233 C231 1.383 . S
C233 C234 1.402 . S
C233 H248 0.951 . S
C234 C233 1.402 . S
C234 C235 1.375 . S
C234 C237 1.481 . S
C235 C234 1.375 . S
C235 C236 1.367 . S
C235 H249 0.951 . S
C236 C232 1.383 . S
C236 C235 1.367 . S
C236 H250 0.950 . S
C237 C234 1.481 . S
C237 C238 1.297 . S
C237 H251 0.950 . S
C238 C237 1.297 . S
C238 C239 1.479 . S
C238 H252 0.950 . S
C239 C238 1.479 . S
C239 C240 1.375 . S
C239 C245 1.404 . S
C240 C239 1.375 . S
C240 C241 1.369 . S
C240 H253 0.950 . S
C241 C240 1.369 . S
C241 C242 1.392 . S
C241 H254 0.951 . S
C242 C241 1.392 . S
C242 C244 1.384 . S
H243 C245 0.949 . S
C244 C242 1.384 . S
C244 C245 1.385 . S
C244 H246 0.950 . S
C245 C239 1.404 . S
C245 H243 0.949 . S
C245 C244 1.385 . S
H246 C244 0.950 . S
H247 C231 0.951 . S
H248 C233 0.951 . S
H249 C235 0.951 . S
H250 C236 0.950 . S
H251 C237 0.950 . S
H252 C238 0.950 . S
H253 C240 0.950 . S
H254 C241 0.951 . S
C255 C256 1.386 . S
C255 C257 1.383 . S
C255 H271 0.951 1_455 S
C256 C255 1.386 . S
C256 C260 1.383 . S
C257 C255 1.383 . S
C257 C258 1.402 . S
C257 H272 0.951 . S
C258 C257 1.402 . S
C258 C259 1.375 . S
C258 C261 1.481 . S
C259 C258 1.375 . S
C259 C260 1.367 . S
C259 H273 0.951 . S
C260 C256 1.383 . S
C260 C259 1.367 . S
C260 H274 0.950 . S
C261 C258 1.481 . S
C261 C262 1.297 . S
C261 H275 0.950 . S
C262 C261 1.297 . S
C262 C263 1.479 . S
C262 H276 0.950 . S
C263 C262 1.479 . S
C263 C264 1.375 . S
C263 C269 1.404 . S
C264 C263 1.375 . S
C264 C265 1.369 . S
C264 H277 0.950 . S
C265 C264 1.369 . S
C265 C266 1.392 . S
C265 H278 0.951 1_455 S
C266 C265 1.392 . S
C266 C268 1.384 . S
H267 C269 0.949 . S
C268 C266 1.384 . S
C268 C269 1.385 . S
C268 H270 0.950 . S
C269 C263 1.404 . S
C269 H267 0.949 . S
C269 C268 1.385 . S
H270 C268 0.950 . S
H271 C255 0.951 1_655 S
H272 C257 0.951 . S
H273 C259 0.951 . S
H274 C260 0.950 . S
H275 C261 0.950 . S
H276 C262 0.950 . S
H277 C264 0.950 . S
H278 C265 0.951 1_655 S
C279 C280 1.386 1_565 S
C279 C281 1.383 . S
C279 H295 0.951 . S
C280 C279 1.386 1_545 S
C280 C284 1.383 . S
C281 C279 1.383 . S
C281 C282 1.402 1_565 S
C281 H296 0.951 . S
C282 C281 1.402 1_545 S
C282 C283 1.375 . S
C282 C285 1.481 . S
C283 C282 1.375 . S
C283 C284 1.367 . S
C283 H297 0.951 . S
C284 C280 1.383 . S
C284 C283 1.367 . S
C284 H298 0.950 . S
C285 C282 1.481 . S
C285 C286 1.297 1_545 S
C285 H299 0.950 . S
C286 C285 1.297 1_565 S
C286 C287 1.479 . S
C286 H300 0.950 . S
C287 C286 1.479 . S
C287 C288 1.375 . S
C287 C293 1.404 1_565 S
C288 C287 1.375 . S
C288 C289 1.369 . S
C288 H301 0.950 . S
C289 C288 1.369 . S
C289 C290 1.402 . S
C289 H302 0.951 . S
C290 C289 1.402 . S
C290 C292 1.369 1_565 S
H291 C293 0.949 . S
C292 C290 1.369 1_545 S
C292 C293 1.385 . S
C292 H294 0.950 . S
C293 C287 1.404 1_545 S
C293 H291 0.949 . S
C293 C292 1.385 . S
H294 C292 0.950 . S
H295 C279 0.951 . S
H296 C281 0.951 . S
H297 C283 0.951 . S
H298 C284 0.950 . S
H299 C285 0.950 . S
H300 C286 0.950 . S
H301 C288 0.950 . S
H302 C289 0.951 . S
C303 C304 1.386 . S
C303 C305 1.383 . S
C303 H319 0.951 . S
C304 C303 1.386 . S
C304 C308 1.383 . S
C305 C303 1.383 . S
C305 C306 1.402 . S
C305 H320 0.951 . S
C306 C305 1.402 . S
C306 C307 1.375 . S
C306 C309 1.481 . S
C307 C306 1.375 . S
C307 C308 1.367 . S
C307 H321 0.951 . S
C308 C304 1.383 . S
C308 C307 1.367 . S
C308 H322 0.950 . S
C309 C306 1.481 . S
C309 C310 1.297 . S
C309 H323 0.950 . S
C310 C309 1.297 . S
C310 C311 1.479 . S
C310 H324 0.950 . S
C311 C310 1.479 . S
C311 C312 1.375 . S
C311 C317 1.404 . S
C312 C311 1.375 . S
C312 C313 1.369 . S
C312 H325 0.950 . S
C313 C312 1.369 . S
C313 C314 1.392 . S
C313 H326 0.951 . S
C314 C313 1.392 . S
C314 C316 1.384 . S
H315 C317 0.949 . S
C316 C314 1.384 . S
C316 C317 1.385 . S
C316 H318 0.950 . S
C317 C311 1.404 . S
C317 H315 0.949 . S
C317 C316 1.385 . S
H318 C316 0.950 . S
H319 C303 0.951 . S
H320 C305 0.951 . S
H321 C307 0.951 . S
H322 C308 0.950 . S
H323 C309 0.950 . S
H324 C310 0.950 . S
H325 C312 0.950 . S
H326 C313 0.951 . S
C327 C328 1.385 1_565 S
C327 C329 1.383 . S
C327 H343 0.951 . S
C328 C327 1.385 1_545 S
C328 C332 1.384 . S
C329 C327 1.383 . S
C329 C330 1.402 1_565 S
C329 H344 0.951 . S
C330 C329 1.402 1_545 S
C330 C331 1.375 . S
C330 C333 1.481 . S
C331 C330 1.375 . S
C331 C332 1.367 . S
C331 H345 0.951 . S
C332 C328 1.384 . S
C332 C331 1.367 . S
C332 H346 0.950 . S
C333 C330 1.481 . S
C333 C334 1.297 1_545 S
C333 H347 0.950 . S
C334 C333 1.297 1_565 S
C334 C335 1.479 . S
C334 H348 0.950 . S
C335 C334 1.479 . S
C335 C336 1.375 . S
C335 C341 1.404 1_565 S
C336 C335 1.375 . S
C336 C337 1.369 . S
C336 H349 0.950 . S
C337 C336 1.369 . S
C337 C338 1.392 1_565 S
C337 H350 0.951 . S
C338 C337 1.392 1_545 S
C338 C340 1.384 . S
H339 C341 0.949 . S
C340 C338 1.384 . S
C340 C341 1.385 . S
C340 H342 0.950 . S
C341 C335 1.404 1_545 S
C341 H339 0.949 . S
C341 C340 1.385 . S
H342 C340 0.950 . S
H343 C327 0.951 . S
H344 C329 0.951 . S
H345 C331 0.951 . S
H346 C332 0.950 . S
H347 C333 0.950 . S
H348 C334 0.950 . S
H349 C336 0.950 . S
H350 C337 0.951 . S
C351 C352 1.386 1_556 S
C351 C353 1.383 . S
C351 H367 0.951 1_556 S
C352 C351 1.386 1_554 S
C352 C356 1.383 1_554 S
C353 C351 1.383 . S
C353 C354 1.402 . S
C353 H368 0.951 . S
C354 C353 1.402 . S
C354 C355 1.375 . S
C354 C357 1.481 . S
C355 C354 1.375 . S
C355 C356 1.367 . S
C355 H369 0.951 . S
C356 C352 1.383 1_556 S
C356 C355 1.367 . S
C356 H370 0.950 . S
C357 C354 1.481 . S
C357 C358 1.297 . S
C357 H371 0.950 . S
C358 C357 1.297 . S
C358 C359 1.479 . S
C358 H372 0.950 . S
C359 C358 1.479 . S
C359 C360 1.375 . S
C359 C365 1.404 . S
C360 C359 1.375 . S
C360 C361 1.369 . S
C360 H373 0.950 . S
C361 C360 1.369 . S
C361 C362 1.392 . S
C361 H374 0.951 . S
C362 C361 1.392 . S
C362 C364 1.384 . S
H363 C365 0.949 . S
C364 C362 1.384 . S
C364 C365 1.385 . S
C364 H366 0.950 . S
C365 C359 1.404 . S
C365 H363 0.949 . S
C365 C364 1.385 . S
H366 C364 0.950 . S
H367 C351 0.951 1_554 S
H368 C353 0.951 . S
H369 C355 0.951 . S
H370 C356 0.950 . S
H371 C357 0.950 . S
H372 C358 0.950 . S
H373 C360 0.950 . S
H374 C361 0.951 . S
C375 C376 1.386 1_655 S
C375 C377 1.383 . S
C375 H391 0.951 . S
C376 C375 1.386 1_455 S
C376 C380 1.383 . S
C377 C375 1.383 . S
C377 C378 1.402 1_655 S
C377 H392 0.951 . S
C378 C377 1.402 1_455 S
C378 C379 1.375 . S
C378 C381 1.481 . S
C379 C378 1.375 . S
C379 C380 1.367 . S
C379 H393 0.951 . S
C380 C376 1.383 . S
C380 C379 1.367 . S
C380 H394 0.950 . S
C381 C378 1.481 . S
C381 C382 1.297 . S
C381 H395 0.950 . S
C382 C381 1.297 . S
C382 C383 1.479 . S
C382 H396 0.950 1_455 S
C383 C382 1.479 . S
C383 C384 1.375 1_455 S
C383 C389 1.404 . S
C384 C383 1.375 1_655 S
C384 C385 1.369 . S
C384 H397 0.950 . S
C385 C384 1.369 . S
C385 C386 1.392 1_655 S
C385 H398 0.951 . S
C386 C385 1.392 1_455 S
C386 C388 1.384 . S
H387 C389 0.949 . S
C388 C386 1.384 . S
C388 C389 1.385 . S
C388 H390 0.950 . S
C389 C383 1.404 . S
C389 H387 0.949 . S
C389 C388 1.385 . S
H390 C388 0.950 . S
H391 C375 0.951 . S
H392 C377 0.951 . S
H393 C379 0.951 . S
H394 C380 0.950 . S
H395 C381 0.950 . S
H396 C382 0.950 1_655 S
H397 C384 0.950 . S
H398 C385 0.951 . S
C399 C400 1.386 . S
C399 C401 1.383 . S
C399 H415 0.951 . S
C400 C399 1.386 . S
C400 C404 1.383 1_545 S
C401 C399 1.383 . S
C401 C402 1.402 . S
C401 H416 0.951 . S
C402 C401 1.402 . S
C402 C403 1.375 1_545 S
C402 C405 1.481 . S
C403 C402 1.375 1_565 S
C403 C404 1.367 . S
C403 H417 0.951 . S
C404 C400 1.383 1_565 S
C404 C403 1.367 . S
C404 H418 0.950 . S
C405 C402 1.481 . S
C405 C406 1.297 . S
C405 H419 0.950 1_545 S
C406 C405 1.297 . S
C406 C407 1.479 . S
C406 H420 0.950 . S
C407 C406 1.479 . S
C407 C408 1.375 . S
C407 C413 1.404 1_545 S
C408 C407 1.375 . S
C408 C409 1.369 . S
C408 H421 0.950 . S
C409 C408 1.369 . S
C409 C410 1.392 . S
C409 H422 0.951 . S
C410 C409 1.392 . S
C410 C412 1.384 1_545 S
H411 C413 0.949 . S
C412 C410 1.384 1_565 S
C412 C413 1.385 . S
C412 H414 0.950 . S
C413 C407 1.404 1_565 S
C413 H411 0.949 . S
C413 C412 1.385 . S
H414 C412 0.950 . S
H415 C399 0.951 . S
H416 C401 0.951 . S
H417 C403 0.951 . S
H418 C404 0.950 . S
H419 C405 0.950 1_565 S
H420 C406 0.950 . S
H421 C408 0.950 . S
H422 C409 0.951 . S
C423 C424 1.386 1_556 S
C423 C425 1.383 . S
C423 H439 0.951 . S
C424 C423 1.386 1_554 S
C424 C428 1.383 . S
C425 C423 1.383 . S
C425 C426 1.402 . S
C425 H440 0.951 . S
C426 C425 1.402 . S
C426 C427 1.375 1_556 S
C426 C429 1.481 . S
C427 C426 1.375 1_554 S
C427 C428 1.367 . S
C427 H441 0.951 . S
C428 C424 1.383 . S
C428 C427 1.367 . S
C428 H442 0.950 . S
C429 C426 1.481 . S
C429 C430 1.297 . S
C429 H443 0.950 . S
C430 C429 1.297 . S
C430 C431 1.479 . S
C430 H444 0.950 . S
C431 C430 1.479 . S
C431 C432 1.375 . S
C431 C437 1.404 . S
C432 C431 1.375 . S
C432 C433 1.369 . S
C432 H445 0.950 . S
C433 C432 1.369 . S
C433 C434 1.392 . S
C433 H446 0.951 . S
C434 C433 1.392 . S
C434 C436 1.384 . S
H435 C437 0.949 . S
C436 C434 1.384 . S
C436 C437 1.385 . S
C436 H438 0.950 . S
C437 C431 1.404 . S
C437 H435 0.949 . S
C437 C436 1.385 . S
H438 C436 0.950 . S
H439 C423 0.951 . S
H440 C425 0.951 . S
H441 C427 0.951 . S
H442 C428 0.950 . S
H443 C429 0.950 . S
H444 C430 0.950 . S
H445 C432 0.950 . S
H446 C433 0.951 . S
C447 C448 1.386 . S
C447 C449 1.383 . S
C447 H463 0.951 . S
C448 C447 1.386 . S
C448 C452 1.383 1_655 S
C449 C447 1.383 . S
C449 C450 1.402 . S
C449 H464 0.951 . S
C450 C449 1.402 . S
C450 C451 1.375 . S
C450 C453 1.481 . S
C451 C450 1.375 . S
C451 C452 1.366 1_655 S
C451 H465 0.951 1_655 S
C452 C448 1.383 1_455 S
C452 C451 1.366 1_455 S
C452 H466 0.950 . S
C453 C450 1.481 . S
C453 C454 1.297 . S
C453 H467 0.950 . S
C454 C453 1.297 . S
C454 C455 1.479 . S
C454 H468 0.950 . S
C455 C454 1.479 . S
C455 C456 1.375 . S
C455 C461 1.404 . S
C456 C455 1.375 . S
C456 C457 1.369 . S
C456 H469 0.950 . S
C457 C456 1.369 . S
C457 C458 1.392 . S
C457 H470 0.951 . S
C458 C457 1.392 . S
C458 C460 1.384 . S
H459 C461 0.949 . S
C460 C458 1.384 . S
C460 C461 1.385 . S
C460 H462 0.948 . S
C461 C455 1.404 . S
C461 H459 0.949 . S
C461 C460 1.385 . S
H462 C460 0.948 . S
H463 C447 0.951 . S
H464 C449 0.951 . S
H465 C451 0.951 1_455 S
H466 C452 0.950 . S
H467 C453 0.950 . S
H468 C454 0.950 . S
H469 C456 0.950 . S
H470 C457 0.951 . S
C194 C60 1.534 . S
C184 C10 1.534 . S
C208 C17 1.538 . S
C218 C108 1.527 1_565 S
C232 C36 1.532 . S
C242 C180 1.534 . S
C256 C5 1.528 1_455 S
C266 C84 1.509 . S
C290 C132 1.532 1_565 S
C280 C16 1.535 1_545 S
C304 C31 1.535 . S
C314 C156 1.533 . S
C338 C117 1.518 1_545 S
C328 C30 1.531 1_545 S
C352 C3 1.536 . S
C362 C171 1.519 . S
C386 C75 1.521 . S
C376 C18 1.536 . S
C410 C123 1.536 . S
C400 C29 1.535 . S
C434 C165 1.505 . S
C424 C4 1.533 . S
C448 C23 1.531 . S
C458 C69 1.505 . S
