# Generated by pormake.
# Topology eea, (3,6)-cn, num edge types: 1
# Building blocks:
#     Node 0, Type 0, BuildingBlock: VETTIZ_charged_linker_0, # of connection points: 3
#     Node 1, Type 0, BuildingBlock: VETTIZ_charged_linker_0, # of connection points: 3
#     Node 2, Type 0, BuildingBlock: VETTIZ_charged_linker_0, # of connection points: 3
#     Node 3, Type 0, BuildingBlock: VETTIZ_charged_linker_0, # of connection points: 3
#     Node 4, Type 0, BuildingBlock: VETTIZ_charged_linker_0, # of connection points: 3
#     Node 5, Type 0, BuildingBlock: VETTIZ_charged_linker_0, # of connection points: 3
#     Node 6, Type 0, BuildingBlock: VETTIZ_charged_linker_0, # of connection points: 3
#     Node 7, Type 0, BuildingBlock: VETTIZ_charged_linker_0, # of connection points: 3
#     Node 8, Type 0, BuildingBlock: VETTIZ_charged_linker_0, # of connection points: 3
#     Node 9, Type 0, BuildingBlock: VETTIZ_charged_linker_0, # of connection points: 3
#     Node 10, Type 0, BuildingBlock: VETTIZ_charged_linker_0, # of connection points: 3
#     Node 11, Type 0, BuildingBlock: VETTIZ_charged_linker_0, # of connection points: 3
#     Node 12, Type 0, BuildingBlock: VETTIZ_charged_linker_0, # of connection points: 3
#     Node 13, Type 0, BuildingBlock: VETTIZ_charged_linker_0, # of connection points: 3
#     Node 14, Type 0, BuildingBlock: VETTIZ_charged_linker_0, # of connection points: 3
#     Node 15, Type 0, BuildingBlock: VETTIZ_charged_linker_0, # of connection points: 3
#     Node 16, Type 0, BuildingBlock: VETTIZ_charged_linker_0, # of connection points: 3
#     Node 17, Type 0, BuildingBlock: VETTIZ_charged_linker_0, # of connection points: 3
#     Node 18, Type 1, BuildingBlock: NUHQIS_clean_sbu_0, # of connection points: 6
#     Node 19, Type 1, BuildingBlock: NUHQIS_clean_sbu_0, # of connection points: 6
#     Node 20, Type 1, BuildingBlock: NUHQIS_clean_sbu_0, # of connection points: 6
#     Node 21, Type 1, BuildingBlock: NUHQIS_clean_sbu_0, # of connection points: 6
#     Node 22, Type 1, BuildingBlock: NUHQIS_clean_sbu_0, # of connection points: 6
#     Node 23, Type 1, BuildingBlock: NUHQIS_clean_sbu_0, # of connection points: 6
#     Node 24, Type 1, BuildingBlock: NUHQIS_clean_sbu_0, # of connection points: 6
#     Node 25, Type 1, BuildingBlock: NUHQIS_clean_sbu_0, # of connection points: 6
#     Node 26, Type 1, BuildingBlock: NUHQIS_clean_sbu_0, # of connection points: 6
#     Edge 27, Type (0, 1), BuildingBlock: MIFKUJ_clean_linker_0, # of connection points: 2
#     Edge 28, Type (0, 1), BuildingBlock: MIFKUJ_clean_linker_0, # of connection points: 2
#     Edge 29, Type (0, 1), BuildingBlock: MIFKUJ_clean_linker_0, # of connection points: 2
#     Edge 30, Type (0, 1), BuildingBlock: MIFKUJ_clean_linker_0, # of connection points: 2
#     Edge 31, Type (0, 1), BuildingBlock: MIFKUJ_clean_linker_0, # of connection points: 2
#     Edge 32, Type (0, 1), BuildingBlock: MIFKUJ_clean_linker_0, # of connection points: 2
#     Edge 33, Type (0, 1), BuildingBlock: MIFKUJ_clean_linker_0, # of connection points: 2
#     Edge 34, Type (0, 1), BuildingBlock: MIFKUJ_clean_linker_0, # of connection points: 2
#     Edge 35, Type (0, 1), BuildingBlock: MIFKUJ_clean_linker_0, # of connection points: 2
#     Edge 36, Type (0, 1), BuildingBlock: MIFKUJ_clean_linker_0, # of connection points: 2
#     Edge 37, Type (0, 1), BuildingBlock: MIFKUJ_clean_linker_0, # of connection points: 2
#     Edge 38, Type (0, 1), BuildingBlock: MIFKUJ_clean_linker_0, # of connection points: 2
#     Edge 39, Type (0, 1), BuildingBlock: MIFKUJ_clean_linker_0, # of connection points: 2
#     Edge 40, Type (0, 1), BuildingBlock: MIFKUJ_clean_linker_0, # of connection points: 2
#     Edge 41, Type (0, 1), BuildingBlock: MIFKUJ_clean_linker_0, # of connection points: 2
#     Edge 42, Type (0, 1), BuildingBlock: MIFKUJ_clean_linker_0, # of connection points: 2
#     Edge 43, Type (0, 1), BuildingBlock: MIFKUJ_clean_linker_0, # of connection points: 2
#     Edge 44, Type (0, 1), BuildingBlock: MIFKUJ_clean_linker_0, # of connection points: 2
#     Edge 45, Type (0, 1), BuildingBlock: MIFKUJ_clean_linker_0, # of connection points: 2
#     Edge 46, Type (0, 1), BuildingBlock: MIFKUJ_clean_linker_0, # of connection points: 2
#     Edge 47, Type (0, 1), BuildingBlock: MIFKUJ_clean_linker_0, # of connection points: 2
#     Edge 48, Type (0, 1), BuildingBlock: MIFKUJ_clean_linker_0, # of connection points: 2
#     Edge 49, Type (0, 1), BuildingBlock: MIFKUJ_clean_linker_0, # of connection points: 2
#     Edge 50, Type (0, 1), BuildingBlock: MIFKUJ_clean_linker_0, # of connection points: 2
#     Edge 51, Type (0, 1), BuildingBlock: MIFKUJ_clean_linker_0, # of connection points: 2
#     Edge 52, Type (0, 1), BuildingBlock: MIFKUJ_clean_linker_0, # of connection points: 2
#     Edge 53, Type (0, 1), BuildingBlock: MIFKUJ_clean_linker_0, # of connection points: 2
#     Edge 54, Type (0, 1), BuildingBlock: MIFKUJ_clean_linker_0, # of connection points: 2
#     Edge 55, Type (0, 1), BuildingBlock: MIFKUJ_clean_linker_0, # of connection points: 2
#     Edge 56, Type (0, 1), BuildingBlock: MIFKUJ_clean_linker_0, # of connection points: 2
#     Edge 57, Type (0, 1), BuildingBlock: MIFKUJ_clean_linker_0, # of connection points: 2
#     Edge 58, Type (0, 1), BuildingBlock: MIFKUJ_clean_linker_0, # of connection points: 2
#     Edge 59, Type (0, 1), BuildingBlock: MIFKUJ_clean_linker_0, # of connection points: 2
#     Edge 60, Type (0, 1), BuildingBlock: MIFKUJ_clean_linker_0, # of connection points: 2
#     Edge 61, Type (0, 1), BuildingBlock: MIFKUJ_clean_linker_0, # of connection points: 2
#     Edge 62, Type (0, 1), BuildingBlock: MIFKUJ_clean_linker_0, # of connection points: 2
#     Edge 63, Type (0, 1), BuildingBlock: MIFKUJ_clean_linker_0, # of connection points: 2
#     Edge 64, Type (0, 1), BuildingBlock: MIFKUJ_clean_linker_0, # of connection points: 2
#     Edge 65, Type (0, 1), BuildingBlock: MIFKUJ_clean_linker_0, # of connection points: 2
#     Edge 66, Type (0, 1), BuildingBlock: MIFKUJ_clean_linker_0, # of connection points: 2
#     Edge 67, Type (0, 1), BuildingBlock: MIFKUJ_clean_linker_0, # of connection points: 2
#     Edge 68, Type (0, 1), BuildingBlock: MIFKUJ_clean_linker_0, # of connection points: 2
#     Edge 69, Type (0, 1), BuildingBlock: MIFKUJ_clean_linker_0, # of connection points: 2
#     Edge 70, Type (0, 1), BuildingBlock: MIFKUJ_clean_linker_0, # of connection points: 2
#     Edge 71, Type (0, 1), BuildingBlock: MIFKUJ_clean_linker_0, # of connection points: 2
#     Edge 72, Type (0, 1), BuildingBlock: MIFKUJ_clean_linker_0, # of connection points: 2
#     Edge 73, Type (0, 1), BuildingBlock: MIFKUJ_clean_linker_0, # of connection points: 2
#     Edge 74, Type (0, 1), BuildingBlock: MIFKUJ_clean_linker_0, # of connection points: 2
#     Edge 75, Type (0, 1), BuildingBlock: MIFKUJ_clean_linker_0, # of connection points: 2
#     Edge 76, Type (0, 1), BuildingBlock: MIFKUJ_clean_linker_0, # of connection points: 2
#     Edge 77, Type (0, 1), BuildingBlock: MIFKUJ_clean_linker_0, # of connection points: 2
#     Edge 78, Type (0, 1), BuildingBlock: MIFKUJ_clean_linker_0, # of connection points: 2
#     Edge 79, Type (0, 1), BuildingBlock: MIFKUJ_clean_linker_0, # of connection points: 2
#     Edge 80, Type (0, 1), BuildingBlock: MIFKUJ_clean_linker_0, # of connection points: 2
# Relax obj value: 0.035
# Max RMSD: 0.135
# Mean RMSD: 0.067
data_MOF--net-eea--node1-NUHQIS_clean_sbu_0--node2-VETTIZ_charged_linker_0--edge1-MIFKUJ_clean_linker_0
_symmetry_space_group_name_H-M    P1
_symmetry_Int_Tables_number       1
_symmetry_cell_setting            triclinic
loop_
_symmetry_equiv_pos_as_xyz
'x, y, z'
_cell_length_a     77.390622
_cell_length_b     77.670178
_cell_length_c     108.88573
_cell_angle_alpha  93.456707
_cell_angle_beta   93.454993
_cell_angle_gamma 119.78623
loop_
_atom_site_label
_atom_site_type_symbol
_atom_site_fract_x
_atom_site_fract_y
_atom_site_fract_z
_atom_type_partial_charge
C0 C 0.26525 0.18733 0.39187 0.0
C1 C 0.26639 0.20459 0.39764 0.0
C2 C 0.27397 0.21053 0.41022 0.0
C3 C 0.27815 0.1817 0.41116 0.0
C4 C 0.27118 0.17618 0.39876 0.0
C5 C 0.27022 0.15709 0.3941 0.0
H6 H 0.28173 0.07879 0.40579 0.0
C7 C 0.28232 0.16647 0.41571 0.0
C8 C 0.27784 0.1521 0.40574 0.0
H9 H 0.25765 0.08877 0.37174 0.0
H10 H 0.26452 0.12068 0.38093 0.0
H11 H 0.3186 0.12476 0.41332 0.0
H12 H 0.25796 0.09122 0.42237 0.0
H13 H 0.27226 0.10635 0.43586 0.0
H14 H 0.27758 0.08785 0.42925 0.0
H15 H 0.3106 0.10517 0.42329 0.0
H16 H 0.31879 0.13053 0.42922 0.0
C17 C 0.28463 0.1617 0.38393 0.0
C18 C 0.24803 0.14142 0.38974 0.0
C19 C 0.30288 0.16996 0.46141 0.0
C20 C 0.3067 0.15733 0.46839 0.0
C21 C 0.30675 0.14087 0.46221 0.0
C22 C 0.30246 0.13669 0.44935 0.0
C23 C 0.2979 0.14899 0.44255 0.0
C24 C 0.29851 0.1655 0.44855 0.0
C25 C 0.29327 0.17687 0.4398 0.0
C26 C 0.28897 0.16418 0.42762 0.0
C27 C 0.29163 0.14784 0.42931 0.0
C28 C 0.31183 0.19793 0.43987 0.0
C29 C 0.27433 0.17682 0.44376 0.0
C30 C 0.27788 0.08777 0.40028 0.0
C31 C 0.2691 0.08104 0.38797 0.0
C32 C 0.26472 0.09355 0.38115 0.0
C33 C 0.26849 0.11206 0.38657 0.0
C34 C 0.27647 0.11813 0.39901 0.0
C35 C 0.28114 0.10611 0.40562 0.0
C36 C 0.28836 0.11439 0.41894 0.0
C37 C 0.28727 0.13339 0.41921 0.0
C38 C 0.2804 0.13552 0.40749 0.0
C39 C 0.31019 0.11887 0.42145 0.0
C40 C 0.27346 0.09924 0.42712 0.0
H41 H 0.28526 0.20435 0.42656 0.0
H42 H 0.25975 0.18249 0.38218 0.0
H43 H 0.23764 0.14419 0.39503 0.0
H44 H 0.24422 0.12607 0.39135 0.0
H45 H 0.2443 0.14182 0.37979 0.0
H46 H 0.29862 0.17628 0.38647 0.0
H47 H 0.27763 0.16253 0.37494 0.0
H48 H 0.28963 0.15071 0.38262 0.0
H49 H 0.30264 0.18267 0.46587 0.0
H50 H 0.31004 0.13115 0.46735 0.0
H51 H 0.30255 0.12385 0.44522 0.0
H52 H 0.32594 0.19749 0.44138 0.0
H53 H 0.31211 0.20846 0.44735 0.0
H54 H 0.31268 0.20419 0.43093 0.0
H55 H 0.2636 0.1621 0.44676 0.0
H56 H 0.26584 0.17914 0.43618 0.0
H57 H 0.27825 0.18836 0.45162 0.0
H58 H 0.27482 0.22366 0.41492 0.0
C59 C 0.27989 0.19921 0.41699 0.0
C60 C 0.94338 0.18072 0.40163 0.0
C61 C 0.96013 0.19782 0.40783 0.0
C62 C 0.95995 0.20303 0.42043 0.0
C63 C 0.92692 0.17407 0.4205 0.0
C64 C 0.92709 0.16906 0.40812 0.0
C65 C 0.9086 0.14988 0.40303 0.0
H66 H 0.82325 0.06764 0.41361 0.0
C67 C 0.90808 0.15838 0.42461 0.0
C68 C 0.89734 0.14411 0.4144 0.0
H69 H 0.84845 0.08271 0.37874 0.0
H70 H 0.87516 0.11416 0.3887 0.0
H71 H 0.86391 0.08429 0.43095 0.0
H72 H 0.82744 0.10937 0.42044 0.0
H73 H 0.83782 0.12 0.43561 0.0
H74 H 0.82163 0.09331 0.43256 0.0
H75 H 0.83976 0.07651 0.43614 0.0
H76 H 0.86224 0.09689 0.44439 0.0
C77 C 0.9151 0.13477 0.39869 0.0
C78 C 0.89727 0.1545 0.39272 0.0
C79 C 0.89261 0.1626 0.46924 0.0
C80 C 0.87649 0.14973 0.4756 0.0
C81 C 0.86083 0.13193 0.46916 0.0
C82 C 0.86122 0.1269 0.45669 0.0
C83 C 0.87742 0.13976 0.45047 0.0
C84 C 0.89277 0.1573 0.4567 0.0
C85 C 0.9088 0.16894 0.44848 0.0
C86 C 0.90025 0.15566 0.43628 0.0
C87 C 0.88193 0.13859 0.43758 0.0
C88 C 0.92852 0.17031 0.45382 0.0
C89 C 0.91014 0.18937 0.44758 0.0
C90 C 0.83429 0.07773 0.408 0.0
C91 C 0.83369 0.07239 0.39534 0.0
C92 C 0.84868 0.08611 0.38856 0.0
C93 C 0.86416 0.10448 0.39434 0.0
C94 C 0.86469 0.10933 0.40706 0.0
C95 C 0.84967 0.0962 0.41359 0.0
C96 C 0.85203 0.10414 0.42687 0.0
C97 C 0.87128 0.12401 0.42735 0.0
C98 C 0.87878 0.12689 0.41577 0.0
C99 C 0.85449 0.08974 0.43511 0.0
C100 C 0.8338 0.10677 0.4291 0.0
H101 H 0.94418 0.19605 0.43635 0.0
H102 H 0.94318 0.17616 0.39199 0.0
H103 H 0.89919 0.1696 0.39478 0.0
H104 H 0.8809 0.14424 0.39189 0.0
H105 H 0.90289 0.15406 0.38363 0.0
H106 H 0.92724 0.13594 0.40532 0.0
H107 H 0.92085 0.13765 0.38948 0.0
H108 H 0.903 0.1191 0.39823 0.0
H109 H 0.90492 0.17633 0.47394 0.0
H110 H 0.84805 0.12194 0.47375 0.0
H111 H 0.84884 0.11312 0.45239 0.0
H112 H 0.92545 0.15674 0.45834 0.0
H113 H 0.93704 0.18339 0.46086 0.0
H114 H 0.93826 0.17105 0.44662 0.0
H115 H 0.89492 0.18757 0.44661 0.0
H116 H 0.91718 0.19656 0.43941 0.0
H117 H 0.91854 0.19973 0.45603 0.0
H118 H 0.97262 0.21623 0.42538 0.0
C119 C 0.94341 0.19131 0.42678 0.0
C120 C 0.94661 0.77647 0.40735 0.0
C121 C 0.96315 0.77595 0.41306 0.0
C122 C 0.96228 0.77062 0.4253 0.0
C123 C 0.92915 0.76669 0.42577 0.0
C124 C 0.93006 0.77209 0.41386 0.0
C125 C 0.91198 0.77321 0.40925 0.0
H126 H 0.82416 0.76751 0.41987 0.0
C127 C 0.90988 0.76333 0.42992 0.0
C128 C 0.8999 0.76735 0.42027 0.0
H129 H 0.85502 0.78336 0.38694 0.0
H130 H 0.88084 0.77806 0.39614 0.0
H131 H 0.8294 0.73016 0.42293 0.0
H132 H 0.86308 0.79068 0.43975 0.0
H133 H 0.85969 0.77493 0.45145 0.0
H134 H 0.83812 0.77331 0.44298 0.0
H135 H 0.82123 0.73875 0.43577 0.0
H136 H 0.83782 0.72884 0.43797 0.0
C137 C 0.90116 0.75768 0.39779 0.0
C138 C 0.91904 0.79507 0.40675 0.0
C139 C 0.88948 0.73883 0.4721 0.0
C140 C 0.87207 0.73372 0.478 0.0
C141 C 0.85685 0.73613 0.47201 0.0
C142 C 0.85873 0.74324 0.46038 0.0
C143 C 0.87602 0.74803 0.45453 0.0
C144 C 0.89106 0.74581 0.46035 0.0
C145 C 0.90821 0.75145 0.45254 0.0
C146 C 0.90077 0.75708 0.44104 0.0
C147 C 0.88196 0.75518 0.44235 0.0
C148 C 0.91028 0.73284 0.44966 0.0
C149 C 0.92717 0.76954 0.45955 0.0
C150 C 0.83636 0.76968 0.41458 0.0
C151 C 0.83755 0.77613 0.40268 0.0
C152 C 0.85386 0.77885 0.39621 0.0
C153 C 0.86884 0.77565 0.40156 0.0
C154 C 0.86763 0.76963 0.41354 0.0
C155 C 0.85145 0.7665 0.41978 0.0
C156 C 0.85242 0.75965 0.43231 0.0
C157 C 0.87213 0.75973 0.4327 0.0
C158 C 0.88099 0.76564 0.4217 0.0
C159 C 0.83427 0.73832 0.43238 0.0
C160 C 0.85325 0.7753 0.44221 0.0
H161 H 0.94574 0.76204 0.4409 0.0
H162 H 0.94639 0.78019 0.39794 0.0
H163 H 0.9321 0.80577 0.41338 0.0
H164 H 0.9076 0.79937 0.40807 0.0
H165 H 0.92366 0.79777 0.39726 0.0
H166 H 0.90183 0.74388 0.39899 0.0
H167 H 0.90823 0.76365 0.38929 0.0
H168 H 0.88504 0.75263 0.39629 0.0
H169 H 0.90142 0.73708 0.47642 0.0
H170 H 0.84345 0.73265 0.47641 0.0
H171 H 0.84659 0.74473 0.45639 0.0
H172 H 0.89528 0.71931 0.44725 0.0
H173 H 0.9177 0.7302 0.45779 0.0
H174 H 0.91866 0.73386 0.44164 0.0
H175 H 0.92326 0.77961 0.46485 0.0
H176 H 0.9379 0.77904 0.45329 0.0
H177 H 0.93486 0.76464 0.46623 0.0
H178 H 0.97481 0.77041 0.43013 0.0
C179 C 0.9454 0.76591 0.43163 0.0
C180 C 0.15553 0.21691 0.59389 0.0
C181 C 0.1717 0.21756 0.58819 0.0
C182 C 0.17428 0.22313 0.57603 0.0
C183 C 0.14523 0.22738 0.5756 0.0
C184 C 0.1425 0.2217 0.58744 0.0
C185 C 0.12428 0.2211 0.59205 0.0
H186 H 0.04167 0.22928 0.58128 0.0
C187 C 0.12907 0.23141 0.57152 0.0
C188 C 0.11667 0.22764 0.5811 0.0
H189 H 0.06167 0.2128 0.61422 0.0
H190 H 0.09101 0.21762 0.60508 0.0
H191 H 0.08483 0.26659 0.57867 0.0
H192 H 0.05479 0.20648 0.56077 0.0
H193 H 0.06479 0.22346 0.54957 0.0
H194 H 0.04621 0.22385 0.55854 0.0
H195 H 0.06585 0.25867 0.56592 0.0
H196 H 0.0918 0.26796 0.56357 0.0
C197 C 0.13116 0.23639 0.60366 0.0
C198 C 0.10941 0.19927 0.5943 0.0
C199 C 0.12783 0.25601 0.52939 0.0
C200 C 0.11557 0.26219 0.52334 0.0
C201 C 0.09944 0.26127 0.52922 0.0
C202 C 0.09548 0.25419 0.54089 0.0
C203 C 0.10792 0.24814 0.54685 0.0
C204 C 0.12388 0.24929 0.54113 0.0
C205 C 0.13606 0.24309 0.54904 0.0
C206 C 0.12482 0.23806 0.56046 0.0
C207 C 0.10819 0.24081 0.55909 0.0
C208 C 0.15751 0.26125 0.55192 0.0
C209 C 0.13499 0.22448 0.54215 0.0
C210 C 0.0524 0.22682 0.58658 0.0
C211 C 0.04891 0.22018 0.59845 0.0
C212 C 0.06347 0.21727 0.60494 0.0
C213 C 0.08067 0.22023 0.59964 0.0
C214 C 0.08363 0.2263 0.58769 0.0
C215 C 0.06981 0.22985 0.58143 0.0
C216 C 0.07599 0.23708 0.56901 0.0
C217 C 0.09533 0.23649 0.56867 0.0
C218 C 0.09965 0.23008 0.57964 0.0
C219 C 0.07971 0.25863 0.56918 0.0
C220 C 0.05961 0.22207 0.55887 0.0
H221 H 0.16406 0.23215 0.56054 0.0
H222 H 0.15308 0.21293 0.60324 0.0
H223 H 0.10996 0.18855 0.5873 0.0
H224 H 0.09365 0.19563 0.59336 0.0
H225 H 0.11306 0.19598 0.60358 0.0
H226 H 0.1459 0.24977 0.60277 0.0
H227 H 0.13281 0.22982 0.61213 0.0
H228 H 0.12096 0.24227 0.60504 0.0
H229 H 0.14052 0.25683 0.52519 0.0
H230 H 0.08975 0.26588 0.52472 0.0
H231 H 0.0829 0.25372 0.54484 0.0
H232 H 0.1571 0.27534 0.55343 0.0
H233 H 0.16665 0.26269 0.54415 0.0
H234 H 0.16544 0.26067 0.56052 0.0
H235 H 0.12009 0.21484 0.5368 0.0
H236 H 0.13666 0.2147 0.54849 0.0
H237 H 0.14649 0.22882 0.53554 0.0
H238 H 0.18627 0.22341 0.57125 0.0
C239 C 0.16123 0.22807 0.56975 0.0
C240 C 0.73856 0.82162 0.6138 0.0
C241 C 0.73767 0.80457 0.60788 0.0
C242 C 0.72907 0.79814 0.5955 0.0
C243 C 0.72353 0.8262 0.59498 0.0
C244 C 0.73147 0.83215 0.6072 0.0
C245 C 0.73212 0.85102 0.61202 0.0
H246 H 0.72159 0.92994 0.60073 0.0
C247 C 0.71848 0.84099 0.59067 0.0
C248 C 0.72337 0.8555 0.60064 0.0
H249 H 0.74396 0.91866 0.63489 0.0
H250 H 0.73615 0.88636 0.62568 0.0
H251 H 0.74302 0.91441 0.58327 0.0
H252 H 0.68326 0.88501 0.59421 0.0
H253 H 0.68142 0.87684 0.57854 0.0
H254 H 0.69082 0.90296 0.58313 0.0
H255 H 0.72435 0.92026 0.57787 0.0
H256 H 0.72662 0.9005 0.57004 0.0
C257 C 0.75435 0.86711 0.61579 0.0
C258 C 0.7185 0.84627 0.62267 0.0
C259 C 0.69335 0.83538 0.54559 0.0
C260 C 0.68852 0.84748 0.53874 0.0
C261 C 0.68936 0.8644 0.54494 0.0
C262 C 0.6953 0.86942 0.55766 0.0
C263 C 0.70061 0.85749 0.5643 0.0
C264 C 0.69934 0.84065 0.55829 0.0
C265 C 0.70558 0.82976 0.56684 0.0
C266 C 0.71093 0.84292 0.57894 0.0
C267 C 0.70811 0.8592 0.57737 0.0
C268 C 0.72408 0.82976 0.56209 0.0
C269 C 0.68733 0.80873 0.56745 0.0
C270 C 0.72477 0.92049 0.60623 0.0
C271 C 0.73354 0.92698 0.61855 0.0
C272 C 0.73705 0.91402 0.62544 0.0
C273 C 0.73271 0.89531 0.62002 0.0
C274 C 0.72494 0.8895 0.60753 0.0
C275 C 0.72068 0.90181 0.60092 0.0
C276 C 0.71261 0.89323 0.58772 0.0
C277 C 0.71311 0.87391 0.58744 0.0
C278 C 0.72047 0.87191 0.59905 0.0
C279 C 0.72723 0.9078 0.57919 0.0
C280 C 0.69095 0.88938 0.58567 0.0
H281 H 0.71583 0.80333 0.5796 0.0
H282 H 0.74477 0.82678 0.62336 0.0
H283 H 0.70543 0.83086 0.62096 0.0
H284 H 0.71187 0.85597 0.62354 0.0
H285 H 0.72679 0.84743 0.63166 0.0
H286 H 0.76426 0.86549 0.60939 0.0
H287 H 0.75939 0.86581 0.62528 0.0
H288 H 0.75735 0.88247 0.61525 0.0
H289 H 0.69258 0.82211 0.54117 0.0
H290 H 0.68592 0.87411 0.53988 0.0
H291 H 0.69586 0.88261 0.56178 0.0
H292 H 0.73403 0.8441 0.55837 0.0
H293 H 0.71949 0.81757 0.55455 0.0
H294 H 0.73369 0.82845 0.56944 0.0
H295 H 0.67316 0.80918 0.56688 0.0
H296 H 0.68777 0.80261 0.57629 0.0
H297 H 0.68606 0.79809 0.55968 0.0
H298 H 0.72832 0.78512 0.5907 0.0
C299 C 0.72196 0.80883 0.58904 0.0
C300 C 0.05852 0.81634 0.60161 0.0
C301 C 0.04257 0.79786 0.59627 0.0
C302 C 0.04341 0.79066 0.58424 0.0
C303 C 0.07565 0.82022 0.58312 0.0
C304 C 0.07477 0.82721 0.59491 0.0
C305 C 0.09261 0.84734 0.59919 0.0
H306 H 0.17974 0.92631 0.58726 0.0
C307 C 0.0945 0.83532 0.57867 0.0
C308 C 0.10446 0.85123 0.58808 0.0
H309 H 0.1495 0.91872 0.62036 0.0
H310 H 0.12354 0.88594 0.61165 0.0
H311 H 0.1742 0.88295 0.58441 0.0
H312 H 0.14066 0.90781 0.56811 0.0
H313 H 0.14252 0.89256 0.5563 0.0
H314 H 0.16499 0.91365 0.56405 0.0
H315 H 0.1824 0.89794 0.57177 0.0
H316 H 0.16589 0.87124 0.56925 0.0
C317 C 0.10382 0.84525 0.61077 0.0
C318 C 0.08514 0.86236 0.60136 0.0
C319 C 0.11241 0.82409 0.53574 0.0
C320 C 0.12922 0.83546 0.52943 0.0
C321 C 0.1448 0.85384 0.5353 0.0
C322 C 0.14374 0.86083 0.5472 0.0
C323 C 0.12693 0.84937 0.5534 0.0
C324 C 0.11166 0.83127 0.54773 0.0
C325 C 0.0952 0.82103 0.55595 0.0
C326 C 0.10312 0.83606 0.56741 0.0
C327 C 0.12165 0.85266 0.56578 0.0
C328 C 0.09387 0.80108 0.55865 0.0
C329 C 0.07569 0.81875 0.54948 0.0
C330 C 0.16766 0.91751 0.59271 0.0
C331 C 0.16667 0.9252 0.6045 0.0
C332 C 0.15049 0.91329 0.61118 0.0
C333 C 0.13546 0.89421 0.60612 0.0
C334 C 0.13652 0.88688 0.59424 0.0
C335 C 0.15251 0.89844 0.58779 0.0
C336 C 0.15119 0.88828 0.57529 0.0
C337 C 0.13162 0.86879 0.57523 0.0
C338 C 0.1231 0.86806 0.58633 0.0
C339 C 0.16937 0.88499 0.57503 0.0
C340 C 0.1499 0.90119 0.56534 0.0
H341 H 0.05963 0.79543 0.56855 0.0
H342 H 0.05819 0.82248 0.61073 0.0
H343 H 0.07204 0.85859 0.59463 0.0
H344 H 0.09639 0.87777 0.5999 0.0
H345 H 0.08043 0.86226 0.6108 0.0
H346 H 0.10341 0.8307 0.6099 0.0
H347 H 0.09688 0.84601 0.61927 0.0
H348 H 0.1199 0.8566 0.61207 0.0
H349 H 0.10028 0.80984 0.53151 0.0
H350 H 0.15775 0.86303 0.53058 0.0
H351 H 0.15607 0.87497 0.55108 0.0
H352 H 0.10903 0.80275 0.55973 0.0
H353 H 0.08487 0.7892 0.55097 0.0
H354 H 0.08755 0.79589 0.5674 0.0
H355 H 0.07891 0.83213 0.54468 0.0
H356 H 0.06488 0.81756 0.55601 0.0
H357 H 0.06832 0.80556 0.54244 0.0
H358 H 0.03138 0.77639 0.57995 0.0
C359 C 0.05987 0.8017 0.57766 0.0
C360 C 0.93507 0.52569 0.7256 0.0
C361 C 0.93675 0.54302 0.73168 0.0
C362 C 0.94493 0.54871 0.74417 0.0
C363 C 0.94794 0.51914 0.74455 0.0
C364 C 0.94071 0.51404 0.73218 0.0
C365 C 0.93883 0.49463 0.72723 0.0
H366 H 0.94075 0.41099 0.73818 0.0
C367 C 0.95092 0.50304 0.74888 0.0
C368 C 0.94576 0.48873 0.73874 0.0
H369 H 0.92558 0.42683 0.70338 0.0
H370 H 0.9336 0.45893 0.71322 0.0
H371 H 0.98066 0.45458 0.74663 0.0
H372 H 0.91926 0.42735 0.75448 0.0
H373 H 0.93409 0.44044 0.76834 0.0
H374 H 0.93628 0.42021 0.7611 0.0
H375 H 0.97022 0.43527 0.75676 0.0
H376 H 0.98087 0.46124 0.76237 0.0
C377 C 0.95325 0.4989 0.71708 0.0
C378 C 0.91647 0.47987 0.72275 0.0
C379 C 0.97036 0.50435 0.79449 0.0
C380 C 0.97256 0.49068 0.80137 0.0
C381 C 0.97029 0.47312 0.79513 0.0
C382 C 0.9656 0.46908 0.78229 0.0
C383 C 0.96297 0.48264 0.77557 0.0
C384 C 0.96552 0.50001 0.78166 0.0
C385 C 0.96174 0.51247 0.77303 0.0
C386 C 0.95656 0.49974 0.76077 0.0
C387 C 0.95724 0.48226 0.76233 0.0
C388 C 0.98138 0.5327 0.77319 0.0
C389 C 0.94374 0.51418 0.7771 0.0
C390 C 0.93948 0.4215 0.73263 0.0
C391 C 0.93239 0.41632 0.72 0.0
C392 C 0.93072 0.43036 0.71317 0.0
C393 C 0.93544 0.44902 0.7189 0.0
C394 C 0.94177 0.45368 0.73163 0.0
C395 C 0.94406 0.44018 0.73823 0.0
C396 C 0.95085 0.44767 0.75168 0.0
C397 C 0.95213 0.46784 0.75207 0.0
C398 C 0.94664 0.47118 0.74032 0.0
C399 C 0.97167 0.44972 0.75464 0.0
C400 C 0.93444 0.4332 0.7594 0.0
H401 H 0.95642 0.54186 0.76014 0.0
H402 H 0.92867 0.52077 0.71606 0.0
H403 H 0.90659 0.48174 0.72906 0.0
H404 H 0.91234 0.46409 0.72273 0.0
H405 H 0.91249 0.48243 0.71333 0.0
H406 H 0.96676 0.51399 0.71906 0.0
H407 H 0.94585 0.49826 0.70786 0.0
H408 H 0.9592 0.48858 0.71655 0.0
H409 H 0.97184 0.51788 0.79903 0.0
H410 H 0.9722 0.46251 0.80022 0.0
H411 H 0.96398 0.45543 0.77811 0.0
H412 H 0.99467 0.53075 0.77427 0.0
H413 H 0.98289 0.54342 0.78099 0.0
H414 H 0.98259 0.53954 0.76444 0.0
H415 H 0.93233 0.49996 0.78033 0.0
H416 H 0.93561 0.51692 0.76951 0.0
H417 H 0.9486 0.52614 0.78483 0.0
H418 H 0.94673 0.56219 0.74901 0.0
C419 C 0.95058 0.5369 0.75061 0.0
C420 C 0.60961 0.50581 0.73529 0.0
C421 C 0.62457 0.52522 0.74001 0.0
C422 C 0.62239 0.5335 0.75132 0.0
C423 C 0.59084 0.50333 0.75284 0.0
C424 C 0.59294 0.49531 0.74173 0.0
C425 C 0.57549 0.47487 0.73764 0.0
H426 H 0.48521 0.39843 0.74749 0.0
C427 C 0.57162 0.48853 0.75706 0.0
C428 C 0.56252 0.47191 0.7481 0.0
H429 H 0.51995 0.4027 0.717 0.0
H430 H 0.54594 0.43543 0.7258 0.0
H431 H 0.52135 0.41529 0.76809 0.0
H432 H 0.49368 0.44372 0.74908 0.0
H433 H 0.49883 0.45348 0.76469 0.0
H434 H 0.48208 0.42711 0.76059 0.0
H435 H 0.49795 0.41265 0.77182 0.0
H436 H 0.52158 0.43283 0.7791 0.0
C437 C 0.58326 0.45992 0.73711 0.0
C438 C 0.56532 0.47577 0.72517 0.0
C439 C 0.55106 0.50156 0.79869 0.0
C440 C 0.53402 0.49029 0.80484 0.0
C441 C 0.5185 0.47195 0.7989 0.0
C442 C 0.51996 0.46477 0.78715 0.0
C443 C 0.53716 0.47597 0.7812 0.0
C444 C 0.55227 0.49416 0.78687 0.0
C445 C 0.56922 0.50409 0.77894 0.0
C446 C 0.56201 0.48855 0.76779 0.0
C447 C 0.54324 0.47213 0.76923 0.0
C448 C 0.58851 0.50693 0.78608 0.0
C449 C 0.57053 0.52374 0.77549 0.0
C450 C 0.49833 0.40654 0.74265 0.0
C451 C 0.50054 0.39805 0.73152 0.0
C452 C 0.518 0.4089 0.72563 0.0
C453 C 0.53303 0.42794 0.73074 0.0
C454 C 0.53065 0.43622 0.74191 0.0
C455 C 0.51356 0.42551 0.74769 0.0
C456 C 0.51392 0.43635 0.7597 0.0
C457 C 0.53394 0.45547 0.76009 0.0
C458 C 0.5436 0.45533 0.74963 0.0
C459 C 0.51355 0.42369 0.77029 0.0
C460 C 0.49617 0.44033 0.75859 0.0
H461 H 0.60487 0.52979 0.76628 0.0
H462 H 0.61082 0.49876 0.72675 0.0
H463 H 0.56573 0.49028 0.72498 0.0
H464 H 0.54927 0.4644 0.72355 0.0
H465 H 0.57304 0.47418 0.71728 0.0
H466 H 0.59587 0.46447 0.74441 0.0
H467 H 0.58879 0.45909 0.72804 0.0
H468 H 0.57187 0.44476 0.73893 0.0
H469 H 0.56315 0.51581 0.80295 0.0
H470 H 0.50534 0.46284 0.80348 0.0
H471 H 0.50769 0.45062 0.78323 0.0
H472 H 0.58533 0.49332 0.79059 0.0
H473 H 0.59465 0.51965 0.79343 0.0
H474 H 0.60031 0.50937 0.78006 0.0
H475 H 0.55547 0.52234 0.77462 0.0
H476 H 0.57611 0.52775 0.76639 0.0
H477 H 0.58017 0.53632 0.78266 0.0
H478 H 0.63345 0.54852 0.75512 0.0
C479 C 0.60567 0.52266 0.75776 0.0
C480 C 0.6167 0.11411 0.74182 0.0
C481 C 0.63193 0.11106 0.74703 0.0
C482 C 0.62949 0.1026 0.75836 0.0
C483 C 0.59735 0.10085 0.75918 0.0
C484 C 0.59963 0.10885 0.74798 0.0
C485 C 0.58199 0.11086 0.74354 0.0
H486 H 0.49277 0.1026 0.75345 0.0
C487 C 0.57792 0.09725 0.76318 0.0
C488 C 0.56884 0.10302 0.75398 0.0
H489 H 0.52549 0.1221 0.72145 0.0
H490 H 0.55128 0.11673 0.73062 0.0
H491 H 0.49866 0.06521 0.75546 0.0
H492 H 0.53087 0.12479 0.77393 0.0
H493 H 0.52794 0.10841 0.78511 0.0
H494 H 0.50607 0.10672 0.77699 0.0
H495 H 0.48908 0.07312 0.76784 0.0
H496 H 0.50538 0.06308 0.77073 0.0
C497 C 0.57207 0.09736 0.73119 0.0
C498 C 0.5895 0.13328 0.74264 0.0
C499 C 0.55645 0.07076 0.80475 0.0
C500 C 0.53942 0.06642 0.8109 0.0
C501 C 0.5243 0.06903 0.80495 0.0
C502 C 0.52616 0.07611 0.7933 0.0
C503 C 0.54333 0.08064 0.78737 0.0
C504 C 0.55807 0.07782 0.79303 0.0
C505 C 0.57515 0.08327 0.78519 0.0
C506 C 0.56823 0.08993 0.77397 0.0
C507 C 0.54959 0.08838 0.77535 0.0
C508 C 0.57636 0.06428 0.78179 0.0
C509 C 0.59439 0.10063 0.79245 0.0
C510 C 0.50537 0.10555 0.74833 0.0
C511 C 0.50703 0.11297 0.7367 0.0
C512 C 0.5239 0.11677 0.73051 0.0
C513 C 0.53886 0.11349 0.73582 0.0
C514 C 0.53704 0.10625 0.74747 0.0
C515 C 0.52041 0.10225 0.75347 0.0
C516 C 0.52079 0.09425 0.76568 0.0
C517 C 0.54043 0.0942 0.76603 0.0
C518 C 0.54994 0.10137 0.75538 0.0
C519 C 0.50251 0.07286 0.76503 0.0
C520 C 0.52131 0.10914 0.77603 0.0
H521 H 0.61147 0.0913 0.77309 0.0
H522 H 0.61792 0.12025 0.73304 0.0
H523 H 0.60081 0.14262 0.75055 0.0
H524 H 0.57756 0.13706 0.74309 0.0
H525 H 0.59666 0.1381 0.73398 0.0
H526 H 0.57375 0.08393 0.73095 0.0
H527 H 0.57898 0.10545 0.72316 0.0
H528 H 0.55573 0.09135 0.72984 0.0
H529 H 0.56843 0.06903 0.80902 0.0
H530 H 0.51081 0.06541 0.80927 0.0
H531 H 0.51411 0.07778 0.78936 0.0
H532 H 0.56114 0.05083 0.7803 0.0
H533 H 0.58506 0.06185 0.78929 0.0
H534 H 0.58293 0.06463 0.77302 0.0
H535 H 0.59111 0.11156 0.79729 0.0
H536 H 0.60604 0.10932 0.78645 0.0
H537 H 0.60075 0.09506 0.79956 0.0
H538 H 0.64103 0.10018 0.7626 0.0
C539 C 0.61235 0.09754 0.76446 0.0
C540 C 0.82374 0.55241 0.92938 0.0
C541 C 0.84058 0.55425 0.92396 0.0
C542 C 0.84375 0.56082 0.91205 0.0
C543 C 0.81377 0.56351 0.91128 0.0
C544 C 0.81058 0.55699 0.92289 0.0
C545 C 0.79176 0.55532 0.92724 0.0
H546 H 0.70744 0.56018 0.91568 0.0
C547 C 0.7972 0.56683 0.90703 0.0
C548 C 0.78421 0.56197 0.91633 0.0
H549 H 0.72765 0.544 0.94867 0.0
H550 H 0.75762 0.55013 0.93985 0.0
H551 H 0.75077 0.59878 0.91342 0.0
H552 H 0.72194 0.53869 0.89549 0.0
H553 H 0.73233 0.55556 0.88432 0.0
H554 H 0.71306 0.55568 0.89272 0.0
H555 H 0.73085 0.59 0.90117 0.0
H556 H 0.7566 0.60019 0.89805 0.0
C557 C 0.79763 0.56996 0.93909 0.0
C558 C 0.77737 0.53314 0.929 0.0
C559 C 0.79642 0.59231 0.86519 0.0
C560 C 0.78338 0.59719 0.85875 0.0
C561 C 0.76631 0.5947 0.86421 0.0
C562 C 0.76226 0.58741 0.87582 0.0
C563 C 0.77546 0.58262 0.88213 0.0
C564 C 0.79225 0.58518 0.8768 0.0
C565 C 0.80483 0.57967 0.88488 0.0
C566 C 0.79294 0.57351 0.89599 0.0
C567 C 0.77566 0.57513 0.89433 0.0
C568 C 0.82566 0.59855 0.88828 0.0
C569 C 0.8053 0.56193 0.87791 0.0
C570 C 0.71836 0.55808 0.92106 0.0
C571 C 0.71478 0.55116 0.93285 0.0
C572 C 0.72956 0.5487 0.93945 0.0
C573 C 0.74712 0.55243 0.93433 0.0
C574 C 0.75021 0.55882 0.92246 0.0
C575 C 0.73613 0.56187 0.91609 0.0
C576 C 0.74245 0.56947 0.90376 0.0
C577 C 0.7623 0.56986 0.90367 0.0
C578 C 0.76667 0.56349 0.91464 0.0
C579 C 0.74522 0.59066 0.90398 0.0
C580 C 0.72663 0.5542 0.89346 0.0
H581 H 0.8338 0.57036 0.89671 0.0
H582 H 0.82087 0.54765 0.93855 0.0
H583 H 0.77841 0.52309 0.92173 0.0
H584 H 0.76146 0.529 0.92809 0.0
H585 H 0.78111 0.52946 0.93812 0.0
H586 H 0.81246 0.58355 0.93874 0.0
H587 H 0.79863 0.56294 0.94749 0.0
H588 H 0.78719 0.57564 0.94021 0.0
H589 H 0.80982 0.5943 0.86137 0.0
H590 H 0.75592 0.59818 0.85942 0.0
H591 H 0.74897 0.58575 0.87943 0.0
H592 H 0.82423 0.61205 0.88991 0.0
H593 H 0.8354 0.601 0.88072 0.0
H594 H 0.83348 0.59807 0.89696 0.0
H595 H 0.79092 0.55199 0.87208 0.0
H596 H 0.80702 0.55211 0.88419 0.0
H597 H 0.81745 0.56724 0.87172 0.0
H598 H 0.85633 0.56208 0.90751 0.0
C599 C 0.83052 0.56549 0.90573 0.0
C600 C 0.39656 0.14369 0.947 0.0
C601 C 0.39518 0.12658 0.94081 0.0
C602 C 0.38727 0.12105 0.92829 0.0
C603 C 0.38414 0.15057 0.92802 0.0
C604 C 0.39094 0.15539 0.94046 0.0
C605 C 0.39221 0.17446 0.94555 0.0
H606 H 0.393 0.25925 0.9346 0.0
C607 C 0.38123 0.16673 0.92374 0.0
C608 C 0.38577 0.18068 0.93399 0.0
H609 H 0.40162 0.24048 0.97 0.0
H610 H 0.39446 0.20885 0.95988 0.0
H611 H 0.41487 0.2415 0.91893 0.0
H612 H 0.35323 0.21814 0.92532 0.0
H613 H 0.35296 0.20934 0.91004 0.0
H614 H 0.36468 0.23587 0.91437 0.0
H615 H 0.39967 0.25106 0.91272 0.0
H616 H 0.40025 0.23046 0.90467 0.0
C617 C 0.41429 0.18935 0.95054 0.0
C618 C 0.37716 0.16955 0.95538 0.0
C619 C 0.36429 0.16705 0.87792 0.0
C620 C 0.36238 0.18094 0.8711 0.0
C621 C 0.36466 0.19844 0.87743 0.0
C622 C 0.36901 0.20218 0.8903 0.0
C623 C 0.37121 0.18834 0.89696 0.0
C624 C 0.36873 0.17106 0.89079 0.0
C625 C 0.37191 0.15822 0.8994 0.0
C626 C 0.37646 0.17054 0.91177 0.0
C627 C 0.37615 0.18821 0.91025 0.0
C628 C 0.39014 0.15662 0.89571 0.0
C629 C 0.35217 0.13797 0.89877 0.0
C630 C 0.39305 0.24829 0.94027 0.0
C631 C 0.39821 0.25265 0.95315 0.0
C632 C 0.39821 0.23782 0.96004 0.0
C633 C 0.39393 0.21937 0.95416 0.0
C634 C 0.38954 0.21561 0.94124 0.0
C635 C 0.38859 0.22973 0.93457 0.0
C636 C 0.38275 0.22279 0.921 0.0
C637 C 0.38074 0.20231 0.9206 0.0
C638 C 0.38511 0.19836 0.93244 0.0
C639 C 0.40014 0.23718 0.91386 0.0
C640 C 0.36244 0.22155 0.91738 0.0
H641 H 0.3762 0.12821 0.91228 0.0
H642 H 0.40226 0.14807 0.95668 0.0
H643 H 0.36454 0.15389 0.95363 0.0
H644 H 0.36991 0.17875 0.95519 0.0
H645 H 0.38452 0.17145 0.96484 0.0
H646 H 0.42458 0.18913 0.94391 0.0
H647 H 0.41825 0.18541 0.95951 0.0
H648 H 0.41773 0.20495 0.95182 0.0
H649 H 0.36281 0.15355 0.87332 0.0
H650 H 0.36296 0.20922 0.87241 0.0
H651 H 0.37064 0.2158 0.89454 0.0
H652 H 0.40189 0.17103 0.89288 0.0
H653 H 0.38569 0.14504 0.88779 0.0
H654 H 0.39771 0.15339 0.90337 0.0
H655 H 0.33894 0.13998 0.89738 0.0
H656 H 0.35036 0.13085 0.90745 0.0
H657 H 0.3511 0.12747 0.89098 0.0
H658 H 0.3861 0.10793 0.92335 0.0
C659 C 0.38171 0.13295 0.92187 0.0
C660 C 0.7241 0.15888 0.93325 0.0
C661 C 0.70685 0.14133 0.92795 0.0
C662 C 0.70626 0.13425 0.91558 0.0
C663 C 0.73945 0.16216 0.91407 0.0
C664 C 0.74003 0.16903 0.92618 0.0
C665 C 0.759 0.18829 0.93037 0.0
H666 H 0.84742 0.26403 0.91726 0.0
C667 C 0.75834 0.17645 0.90927 0.0
C668 C 0.7698 0.19182 0.91881 0.0
H669 H 0.81961 0.2574 0.9513 0.0
H670 H 0.79224 0.22535 0.94275 0.0
H671 H 0.83818 0.21921 0.91276 0.0
H672 H 0.80741 0.24872 0.89934 0.0
H673 H 0.80691 0.23309 0.88681 0.0
H674 H 0.83065 0.2529 0.89416 0.0
H675 H 0.84669 0.23519 0.90061 0.0
H676 H 0.82869 0.20889 0.89742 0.0
C677 C 0.77027 0.18464 0.94123 0.0
C678 C 0.75338 0.20451 0.93359 0.0
C679 C 0.77126 0.16519 0.86492 0.0
C680 C 0.78738 0.17631 0.85803 0.0
C681 C 0.80418 0.19388 0.86386 0.0
C682 C 0.80482 0.20051 0.87619 0.0
C683 C 0.78849 0.18953 0.88287 0.0
C684 C 0.77213 0.17209 0.87729 0.0
C685 C 0.75624 0.16243 0.88596 0.0
C686 C 0.76581 0.17698 0.8976 0.0
C687 C 0.78467 0.19284 0.89567 0.0
C688 C 0.7536 0.14172 0.88791 0.0
C689 C 0.737 0.16181 0.88043 0.0
C690 C 0.83539 0.25572 0.92286 0.0
C691 C 0.83572 0.26333 0.93498 0.0
C692 C 0.81989 0.25182 0.94199 0.0
C693 C 0.80389 0.23325 0.93697 0.0
C694 C 0.80356 0.22607 0.92475 0.0
C695 C 0.81923 0.23717 0.91796 0.0
C696 C 0.8163 0.22723 0.90511 0.0
C697 C 0.79614 0.20846 0.90527 0.0
C698 C 0.78876 0.20789 0.91678 0.0
C699 C 0.83336 0.22244 0.90378 0.0
C700 C 0.81538 0.24114 0.89578 0.0
H701 H 0.72102 0.13842 0.89929 0.0
H702 H 0.72527 0.16467 0.94276 0.0
H703 H 0.73985 0.20172 0.92765 0.0
H704 H 0.76507 0.2196 0.93188 0.0
H705 H 0.7501 0.20475 0.94337 0.0
H706 H 0.76868 0.1696 0.93969 0.0
H707 H 0.76425 0.18547 0.95011 0.0
H708 H 0.78657 0.19516 0.94223 0.0
H709 H 0.75811 0.15166 0.86071 0.0
H710 H 0.81699 0.20249 0.85888 0.0
H711 H 0.81803 0.21402 0.88002 0.0
H712 H 0.76835 0.14241 0.88864 0.0
H713 H 0.74406 0.13051 0.88003 0.0
H714 H 0.74719 0.13619 0.89658 0.0
H715 H 0.74075 0.17535 0.87568 0.0
H716 H 0.7274 0.1618 0.88753 0.0
H717 H 0.7281 0.1486 0.87353 0.0
H718 H 0.6931 0.12094 0.91116 0.0
C719 C 0.72245 0.14451 0.90865 0.0
C720 C 0.59499 0.84978 0.06035 0.0
C721 C 0.59695 0.86727 0.06635 0.0
C722 C 0.60603 0.87354 0.07864 0.0
C723 C 0.60994 0.84446 0.07891 0.0
C724 C 0.60156 0.83869 0.06676 0.0
C725 C 0.60002 0.81948 0.06176 0.0
H726 H 0.60762 0.73865 0.07211 0.0
C727 C 0.61437 0.82914 0.08301 0.0
C728 C 0.60872 0.81456 0.07295 0.0
H729 H 0.58655 0.75149 0.03809 0.0
H730 H 0.59456 0.78372 0.04771 0.0
H731 H 0.64679 0.78213 0.0783 0.0
H732 H 0.58765 0.75536 0.09003 0.0
H733 H 0.60463 0.76865 0.10316 0.0
H734 H 0.60568 0.74841 0.09497 0.0
H735 H 0.63928 0.76509 0.08992 0.0
H736 H 0.64973 0.79157 0.09381 0.0
C737 C 0.61319 0.82375 0.0509 0.0
C738 C 0.57754 0.80399 0.05823 0.0
C739 C 0.64021 0.8333 0.12781 0.0
C740 C 0.64483 0.82073 0.1343 0.0
C741 C 0.6433 0.80368 0.12781 0.0
C742 C 0.63692 0.79899 0.11515 0.0
C743 C 0.63188 0.8114 0.10886 0.0
C744 C 0.63383 0.82838 0.11512 0.0
C745 C 0.62798 0.83987 0.10683 0.0
C746 C 0.62199 0.82682 0.09461 0.0
C747 C 0.62416 0.8101 0.09591 0.0
C748 C 0.64664 0.86062 0.10622 0.0
C749 C 0.60999 0.84052 0.11185 0.0
C750 C 0.60504 0.74853 0.06667 0.0
C751 C 0.59627 0.74244 0.05435 0.0
C752 C 0.59296 0.7557 0.04765 0.0
C753 C 0.59768 0.77443 0.05325 0.0
C754 C 0.60567 0.77996 0.06572 0.0
C755 C 0.6096 0.76727 0.07213 0.0
C756 C 0.61813 0.77564 0.08529 0.0
C757 C 0.61839 0.79534 0.08577 0.0
C758 C 0.61093 0.79769 0.07432 0.0
C759 C 0.63954 0.77869 0.08704 0.0
C760 C 0.60344 0.76132 0.0939 0.0
H761 H 0.6191 0.86763 0.09433 0.0
H762 H 0.5884 0.84475 0.05084 0.0
H763 H 0.56819 0.80578 0.065 0.0
H764 H 0.57409 0.78842 0.05839 0.0
H765 H 0.57228 0.80583 0.04895 0.0
H766 H 0.62647 0.83906 0.0524 0.0
H767 H 0.60467 0.82254 0.042 0.0
H768 H 0.61953 0.8138 0.04996 0.0
H769 H 0.64148 0.84664 0.13249 0.0
H770 H 0.64653 0.79361 0.13261 0.0
H771 H 0.63584 0.78568 0.11081 0.0
H772 H 0.66055 0.8597 0.10676 0.0
H773 H 0.64825 0.8714 0.11402 0.0
H774 H 0.6464 0.86686 0.0974 0.0
H775 H 0.59941 0.82596 0.11511 0.0
H776 H 0.60095 0.84312 0.10479 0.0
H777 H 0.61506 0.85218 0.1198 0.0
H778 H 0.60765 0.88695 0.08347 0.0
C779 C 0.61255 0.86224 0.08495 0.0
C780 C 0.27536 0.84821 0.06672 0.0
C781 C 0.29123 0.86639 0.07252 0.0
C782 C 0.29032 0.87243 0.08484 0.0
C783 C 0.2584 0.84219 0.0854 0.0
C784 C 0.25923 0.83643 0.07329 0.0
C785 C 0.24152 0.81648 0.06851 0.0
H786 H 0.15625 0.73418 0.07922 0.0
C787 C 0.23987 0.82621 0.08965 0.0
C788 C 0.22994 0.81112 0.07975 0.0
H789 H 0.18448 0.74669 0.04523 0.0
H790 H 0.21031 0.77894 0.05483 0.0
H791 H 0.19544 0.75088 0.09712 0.0
H792 H 0.16107 0.7774 0.08491 0.0
H793 H 0.16918 0.78626 0.10058 0.0
H794 H 0.15322 0.75982 0.09622 0.0
H795 H 0.17203 0.74499 0.10279 0.0
H796 H 0.19547 0.76547 0.11006 0.0
C797 C 0.24927 0.802 0.06517 0.0
C798 C 0.22987 0.81949 0.05756 0.0
C799 C 0.2233 0.83151 0.13392 0.0
C800 C 0.20754 0.81832 0.1404 0.0
C801 C 0.19233 0.80011 0.13412 0.0
C802 C 0.19286 0.79493 0.1217 0.0
C803 C 0.20881 0.80802 0.11539 0.0
C804 C 0.22368 0.826 0.12145 0.0
C805 C 0.23957 0.83776 0.11318 0.0
C806 C 0.23166 0.82388 0.10119 0.0
C807 C 0.21365 0.80651 0.10262 0.0
C808 C 0.25968 0.8404 0.11886 0.0
C809 C 0.23983 0.85758 0.11171 0.0
C810 C 0.16782 0.74394 0.07376 0.0
C811 C 0.1683 0.73778 0.06144 0.0
C812 C 0.18388 0.75091 0.05479 0.0
C813 C 0.19883 0.7697 0.06037 0.0
C814 C 0.19828 0.77547 0.07276 0.0
C815 C 0.18283 0.76273 0.07918 0.0
C816 C 0.18455 0.7713 0.09223 0.0
C817 C 0.20367 0.79127 0.09263 0.0
C818 C 0.2117 0.79362 0.08124 0.0
C819 C 0.18686 0.75749 0.10109 0.0
C820 C 0.16604 0.77375 0.09369 0.0
H821 H 0.2742 0.86586 0.10063 0.0
H822 H 0.27569 0.84295 0.05735 0.0
H823 H 0.23052 0.8341 0.05908 0.0
H824 H 0.21374 0.8083 0.05644 0.0
H825 H 0.23628 0.81921 0.04874 0.0
H826 H 0.26208 0.80489 0.07188 0.0
H827 H 0.25451 0.8038 0.05581 0.0
H828 H 0.23801 0.7862 0.06562 0.0
H829 H 0.23525 0.84557 0.13852 0.0
H830 H 0.17985 0.78986 0.13883 0.0
H831 H 0.18082 0.78083 0.11753 0.0
H832 H 0.25727 0.82678 0.12309 0.0
H833 H 0.26704 0.85313 0.12621 0.0
H834 H 0.27022 0.84253 0.11193 0.0
H835 H 0.22435 0.85512 0.11091 0.0
H836 H 0.2461 0.86417 0.10321 0.0
H837 H 0.24839 0.86869 0.11982 0.0
H838 H 0.30224 0.88646 0.08949 0.0
C839 C 0.27399 0.86047 0.09129 0.0
C840 C 0.28225 0.44479 0.07516 0.0
C841 C 0.29846 0.44358 0.08077 0.0
C842 C 0.29723 0.43754 0.09283 0.0
C843 C 0.26444 0.43435 0.09338 0.0
C844 C 0.26567 0.4404 0.08164 0.0
C845 C 0.24789 0.44218 0.0772 0.0
H846 H 0.15944 0.43524 0.08776 0.0
C847 C 0.24537 0.43134 0.09762 0.0
C848 C 0.23574 0.43613 0.0882 0.0
H849 H 0.19188 0.45439 0.05563 0.0
H850 H 0.21758 0.4488 0.06467 0.0
H851 H 0.16749 0.39831 0.09126 0.0
H852 H 0.19699 0.45928 0.10746 0.0
H853 H 0.19744 0.44502 0.11924 0.0
H854 H 0.17369 0.44055 0.11212 0.0
H855 H 0.15651 0.40744 0.10204 0.0
H856 H 0.17288 0.39845 0.10719 0.0
C857 C 0.2369 0.42711 0.06558 0.0
C858 C 0.25543 0.46426 0.07505 0.0
C859 C 0.22494 0.40576 0.13944 0.0
C860 C 0.2085 0.40235 0.14593 0.0
C861 C 0.19387 0.40611 0.14051 0.0
C862 C 0.19542 0.41298 0.12879 0.0
C863 C 0.21189 0.41633 0.12241 0.0
C864 C 0.22641 0.4129 0.12778 0.0
C865 C 0.2433 0.41821 0.11982 0.0
C866 C 0.23623 0.42485 0.10868 0.0
C867 C 0.21776 0.42362 0.11024 0.0
C868 C 0.24429 0.39913 0.11636 0.0
C869 C 0.26277 0.43554 0.12696 0.0
C870 C 0.17215 0.43838 0.08269 0.0
C871 C 0.1735 0.44524 0.07091 0.0
C872 C 0.19021 0.44882 0.06462 0.0
C873 C 0.20527 0.44572 0.06994 0.0
C874 C 0.20377 0.43903 0.08175 0.0
C875 C 0.18738 0.43543 0.08791 0.0
C876 C 0.18838 0.42849 0.10041 0.0
C877 C 0.20814 0.42868 0.10076 0.0
C878 C 0.21705 0.43484 0.0898 0.0
C879 C 0.17036 0.40711 0.10036 0.0
C880 C 0.18902 0.44396 0.11039 0.0
H881 H 0.28038 0.42838 0.10824 0.0
H882 H 0.28232 0.44906 0.06587 0.0
H883 H 0.26886 0.47456 0.08155 0.0
H884 H 0.24439 0.46894 0.07684 0.0
H885 H 0.25964 0.46711 0.0655 0.0
H886 H 0.23677 0.41289 0.06665 0.0
H887 H 0.2444 0.43312 0.0572 0.0
H888 H 0.22098 0.4228 0.06391 0.0
H889 H 0.23656 0.40328 0.14347 0.0
H890 H 0.18103 0.40347 0.14529 0.0
H891 H 0.18372 0.41544 0.12518 0.0
H892 H 0.229 0.38619 0.11362 0.0
H893 H 0.25106 0.39543 0.12432 0.0
H894 H 0.2528 0.4003 0.10837 0.0
H895 H 0.25949 0.44511 0.13329 0.0
H896 H 0.27302 0.44584 0.12078 0.0
H897 H 0.27082 0.42981 0.13266 0.0
H898 H 0.30949 0.43678 0.09758 0.0
C899 C 0.28033 0.43283 0.09911 0.0
C900 C 0.49016 0.88799 0.2629 0.0
C901 C 0.50666 0.88907 0.25739 0.0
C902 C 0.50924 0.89448 0.24518 0.0
C903 C 0.47973 0.89796 0.24444 0.0
C904 C 0.47688 0.89223 0.25625 0.0
C905 C 0.45812 0.89076 0.26057 0.0
H906 H 0.37682 0.90119 0.25022 0.0
C907 C 0.46331 0.90148 0.24016 0.0
C908 C 0.45049 0.89708 0.24952 0.0
H909 H 0.3933 0.87829 0.28137 0.0
H910 H 0.4229 0.88361 0.27244 0.0
H911 H 0.42175 0.93722 0.24732 0.0
H912 H 0.38762 0.87711 0.22937 0.0
H913 H 0.39932 0.89336 0.21813 0.0
H914 H 0.3812 0.89588 0.22653 0.0
H915 H 0.40064 0.92953 0.23608 0.0
H916 H 0.42539 0.93788 0.23154 0.0
C917 C 0.46417 0.90581 0.27221 0.0
C918 C 0.44365 0.86871 0.26267 0.0
C919 C 0.46353 0.92777 0.1985 0.0
C920 C 0.45101 0.93338 0.19214 0.0
C921 C 0.43417 0.93145 0.19768 0.0
C922 C 0.42996 0.92418 0.20929 0.0
C923 C 0.4427 0.91874 0.21552 0.0
C924 C 0.45918 0.92064 0.2101 0.0
C925 C 0.47125 0.91439 0.21806 0.0
C926 C 0.45937 0.90849 0.22917 0.0
C927 C 0.44258 0.91098 0.22765 0.0
C928 C 0.49241 0.93279 0.22147 0.0
C929 C 0.47099 0.89633 0.21097 0.0
C930 C 0.38671 0.89717 0.25509 0.0
C931 C 0.38261 0.88947 0.26665 0.0
C932 C 0.39614 0.88467 0.27264 0.0
C933 C 0.41331 0.88757 0.26736 0.0
C934 C 0.41713 0.89518 0.25584 0.0
C935 C 0.40393 0.8998 0.24986 0.0
C936 C 0.41034 0.90733 0.23753 0.0
C937 C 0.42938 0.9062 0.23708 0.0
C938 C 0.43331 0.89921 0.2479 0.0
C939 C 0.41466 0.92909 0.23801 0.0
C940 C 0.39379 0.89283 0.22728 0.0
H941 H 0.49887 0.90302 0.22952 0.0
H942 H 0.48758 0.88403 0.27225 0.0
H943 H 0.44654 0.85826 0.2569 0.0
H944 H 0.4278 0.86392 0.25987 0.0
H945 H 0.44528 0.86611 0.27248 0.0
H946 H 0.47775 0.92019 0.27098 0.0
H947 H 0.46765 0.89999 0.28051 0.0
H948 H 0.4526 0.90968 0.27413 0.0
H949 H 0.47642 0.92871 0.19451 0.0
H950 H 0.42438 0.93587 0.19312 0.0
H951 H 0.41699 0.92317 0.213 0.0
H952 H 0.49149 0.9465 0.22354 0.0
H953 H 0.50182 0.93529 0.21372 0.0
H954 H 0.50033 0.93168 0.22988 0.0
H955 H 0.45675 0.8871 0.20487 0.0
H956 H 0.47169 0.88591 0.21719 0.0
H957 H 0.48347 0.90128 0.20503 0.0
H958 H 0.52137 0.89496 0.24047 0.0
C959 C 0.49599 0.899 0.23874 0.0
C960 C 0.0623 0.47985 0.28074 0.0
C961 C 0.06027 0.46234 0.27468 0.0
C962 C 0.05206 0.45673 0.2622 0.0
C963 C 0.04971 0.48667 0.26178 0.0
C964 C 0.05704 0.49176 0.27414 0.0
C965 C 0.0596 0.5115 0.27902 0.0
H966 H 0.05867 0.59562 0.26775 0.0
C967 C 0.04716 0.50301 0.25742 0.0
C968 C 0.05285 0.51755 0.26751 0.0
H969 H 0.07699 0.58142 0.30222 0.0
H970 H 0.06718 0.54854 0.29281 0.0
H971 H 0.07954 0.57996 0.25156 0.0
H972 H 0.01842 0.55162 0.25988 0.0
H973 H 0.01805 0.54573 0.24398 0.0
H974 H 0.0288 0.57147 0.25012 0.0
H975 H 0.06165 0.58519 0.24405 0.0
H976 H 0.06521 0.56515 0.23799 0.0
C977 C 0.0821 0.52581 0.28339 0.0
C978 C 0.04542 0.50783 0.28924 0.0
C979 C 0.02705 0.50171 0.21184 0.0
C980 C 0.02556 0.51581 0.20502 0.0
C981 C 0.0284 0.53356 0.21128 0.0
C982 C 0.03301 0.53744 0.22412 0.0
C983 C 0.03509 0.52354 0.2308 0.0
C984 C 0.03198 0.50595 0.22469 0.0
C985 C 0.03559 0.49333 0.23329 0.0
C986 C 0.04135 0.50627 0.24555 0.0
C987 C 0.04103 0.52391 0.24399 0.0
C988 C 0.05313 0.49099 0.22904 0.0
C989 C 0.0157 0.47342 0.23334 0.0
C990 C 0.06059 0.58545 0.2733 0.0
C991 C 0.06878 0.59126 0.28573 0.0
C992 C 0.07059 0.57734 0.29265 0.0
C993 C 0.06507 0.55829 0.28713 0.0
C994 C 0.05783 0.55312 0.27452 0.0
C995 C 0.05541 0.56651 0.26789 0.0
C996 C 0.04812 0.55878 0.25452 0.0
C997 C 0.04664 0.53854 0.25419 0.0
C998 C 0.05237 0.53531 0.26591 0.0
C999 C 0.06428 0.57296 0.24653 0.0
C1000 C 0.02732 0.55687 0.25186 0.0
H1001 H 0.0409 0.46386 0.24621 0.0
H1002 H 0.06827 0.48446 0.29037 0.0
H1003 H 0.03109 0.4935 0.28689 0.0
H1004 H 0.041 0.51929 0.29034 0.0
H1005 H 0.05231 0.50702 0.29828 0.0
H1006 H 0.09173 0.52292 0.2774 0.0
H1007 H 0.08584 0.52386 0.29303 0.0
H1008 H 0.08685 0.54165 0.28279 0.0
H1009 H 0.0251 0.48801 0.20722 0.0
H1010 H 0.0271 0.54451 0.20619 0.0
H1011 H 0.03511 0.55128 0.22831 0.0
H1012 H 0.06449 0.50485 0.22543 0.0
H1013 H 0.04776 0.47859 0.22154 0.0
H1014 H 0.06151 0.48853 0.23662 0.0
H1015 H 0.00272 0.47592 0.23281 0.0
H1016 H 0.01481 0.4663 0.24194 0.0
H1017 H 0.0134 0.46274 0.2253 0.0
H1018 H 0.05048 0.44341 0.25726 0.0
C1019 C 0.0467 0.46874 0.25574 0.0
C1020 C 0.39063 0.49139 0.26646 0.0
C1021 C 0.37503 0.47227 0.26174 0.0
C1022 C 0.37668 0.4637 0.25036 0.0
C1023 C 0.40891 0.49305 0.24877 0.0
C1024 C 0.40736 0.50133 0.25995 0.0
C1025 C 0.42537 0.52141 0.26404 0.0
H1026 H 0.51773 0.59439 0.25459 0.0
C1027 C 0.42833 0.50732 0.24448 0.0
C1028 C 0.43807 0.52387 0.25349 0.0
H1029 H 0.48258 0.59277 0.28445 0.0
H1030 H 0.45591 0.56063 0.27569 0.0
H1031 H 0.50553 0.54762 0.25222 0.0
H1032 H 0.483 0.58116 0.23413 0.0
H1033 H 0.47938 0.56223 0.22289 0.0
H1034 H 0.50446 0.58042 0.22947 0.0
H1035 H 0.51885 0.56539 0.24161 0.0
H1036 H 0.50117 0.53967 0.23629 0.0
C1037 C 0.43533 0.51995 0.27641 0.0
C1038 C 0.41853 0.5371 0.26474 0.0
C1039 C 0.44758 0.49331 0.20254 0.0
C1040 C 0.46466 0.50418 0.19631 0.0
C1041 C 0.48055 0.52232 0.20226 0.0
C1042 C 0.47952 0.52958 0.21409 0.0
C1043 C 0.46236 0.51873 0.22013 0.0
C1044 C 0.44678 0.50084 0.21444 0.0
C1045 C 0.42984 0.4914 0.22245 0.0
C1046 C 0.43764 0.50691 0.23367 0.0
C1047 C 0.45673 0.52283 0.23221 0.0
C1048 C 0.42772 0.47137 0.22577 0.0
C1049 C 0.41082 0.48936 0.21544 0.0
C1050 C 0.50429 0.58724 0.25926 0.0
C1051 C 0.50257 0.59625 0.27038 0.0
C1052 C 0.48471 0.58612 0.27608 0.0
C1053 C 0.46906 0.56745 0.27089 0.0
C1054 C 0.47105 0.55873 0.25978 0.0
C1055 C 0.48836 0.56871 0.2541 0.0
C1056 C 0.48735 0.55773 0.24197 0.0
C1057 C 0.46672 0.53933 0.24145 0.0
C1058 C 0.45734 0.53992 0.25196 0.0
C1059 C 0.50414 0.55236 0.24294 0.0
C1060 C 0.48874 0.57099 0.23152 0.0
H1061 H 0.39382 0.46667 0.23528 0.0
H1062 H 0.38986 0.49869 0.27504 0.0
H1063 H 0.40555 0.5328 0.25778 0.0
H1064 H 0.43016 0.55192 0.26254 0.0
H1065 H 0.41389 0.53867 0.27401 0.0
H1066 H 0.43478 0.50534 0.27632 0.0
H1067 H 0.42752 0.52126 0.28434 0.0
H1068 H 0.45138 0.53123 0.2782 0.0
H1069 H 0.43518 0.47924 0.1983 0.0
H1070 H 0.49373 0.53122 0.19764 0.0
H1071 H 0.49212 0.5435 0.21802 0.0
H1072 H 0.44254 0.47226 0.22671 0.0
H1073 H 0.41795 0.45904 0.21849 0.0
H1074 H 0.42186 0.46732 0.2348 0.0
H1075 H 0.41447 0.50316 0.21102 0.0
H1076 H 0.39922 0.4873 0.22154 0.0
H1077 H 0.40424 0.47669 0.20803 0.0
H1078 H 0.36511 0.44889 0.24654 0.0
C1079 C 0.39347 0.47399 0.24386 0.0
Tb1080 Tb 0.49354 0.98601 0.9874 0.0
Eu1081 Eu 0.50834 0.01245 0.01485 0.0
C1082 C 0.51699 0.9771 0.0078 0.0
C1083 C 0.46741 0.97159 0.00973 0.0
C1084 C 0.4881 0.97607 0.95337 0.0
C1085 C 0.49232 0.97065 0.93178 0.0
C1086 C 0.48758 0.96355 0.94336 0.0
C1087 C 0.49343 0.99582 0.95166 0.0
C1088 C 0.49801 0.00287 0.94009 0.0
C1089 C 0.49762 0.99042 0.92999 0.0
C1090 C 0.48359 0.96866 0.96562 0.0
O1091 O 0.49332 0.01348 0.98528 0.0
O1092 O 0.48583 0.01819 0.00466 0.0
O1093 O 0.52964 0.03282 0.00214 0.0
O1094 O 0.52526 0.0077 0.9877 0.0
C1095 C 0.48558 0.02081 0.9929 0.0
O1096 O 0.50184 0.02747 0.02992 0.0
O1097 O 0.52886 0.02572 0.03182 0.0
O1098 O 0.52472 0.99552 0.01284 0.0
O1099 O 0.50133 0.96899 0.99946 0.0
O1100 O 0.46734 0.97385 0.99784 0.0
O1101 O 0.48379 0.98179 0.01731 0.0
C1102 C 0.53545 0.02637 0.99267 0.0
O1103 O 0.49876 0.97073 0.97278 0.0
O1104 O 0.47251 0.97375 0.97168 0.0
C1105 C 0.51167 0.0224 0.04984 0.0
C1106 C 0.50122 0.00768 0.07309 0.0
C1107 C 0.49037 0.01505 0.06666 0.0
C1108 C 0.49557 0.02238 0.05521 0.0
C1109 C 0.52263 0.01517 0.05632 0.0
C1110 C 0.51745 0.00791 0.0678 0.0
C1111 C 0.51667 0.0297 0.0375 0.0
H1112 H 0.49165 0.96057 0.9242 0.0
H1113 H 0.48356 0.94829 0.94449 0.0
H1114 H 0.49415 0.00584 0.9593 0.0
H1115 H 0.5022 0.01822 0.93914 0.0
H1116 H 0.47799 0.0154 0.07056 0.0
H1117 H 0.4869 0.02799 0.05054 0.0
H1118 H 0.53513 0.01496 0.0525 0.0
H1119 H 0.52599 0.00219 0.07246 0.0
Tb1120 Tb 0.01578 0.5033 0.98981 0.0
Eu1121 Eu 0.98969 0.49274 0.01375 0.0
C1122 C 0.02794 0.53552 0.01218 0.0
C1123 C 0.02894 0.48937 0.01349 0.0
C1124 C 0.02956 0.51111 0.95793 0.0
C1125 C 0.03934 0.51851 0.93731 0.0
C1126 C 0.04444 0.51856 0.94984 0.0
C1127 C 0.0095 0.50364 0.95341 0.0
C1128 C 0.00437 0.50352 0.94087 0.0
C1129 C 0.01925 0.51097 0.93269 0.0
C1130 C 0.03506 0.5115 0.97108 0.0
O1131 O 0.98783 0.47604 0.98358 0.0
O1132 O 0.98111 0.464 0.00238 0.0
O1133 O 0.97017 0.49432 0.99822 0.0
O1134 O 0.99539 0.51485 0.98705 0.0
C1135 C 0.97874 0.46114 0.99027 0.0
O1136 O 0.97492 0.47217 0.02741 0.0
O1137 O 0.97347 0.49931 0.02726 0.0
O1138 O 0.0096 0.52611 0.01531 0.0
O1139 O 0.03432 0.5268 0.00448 0.0
O1140 O 0.02629 0.4876 1.00132 0.0
O1141 O 0.0191 0.49539 0.02027 0.0
C1142 C 0.97673 0.50669 0.98969 0.0
O1143 O 0.03382 0.52466 0.9784 0.0
O1144 O 0.02727 0.4942 0.97542 0.0
C1145 C 0.97418 0.48705 0.04674 0.0
C1146 C 0.98271 0.49209 0.07273 0.0
C1147 C 0.97263 0.47292 0.06623 0.0
C1148 C 0.96832 0.47044 0.05341 0.0
C1149 C 0.98427 0.50626 0.05317 0.0
C1150 C 0.98844 0.50874 0.06604 0.0
C1151 C 0.96976 0.48387 0.03315 0.0
H1152 H 0.05109 0.52412 0.9312 0.0
H1153 H 0.06 0.5244 0.95322 0.0
H1154 H 0.99784 0.49796 0.95959 0.0
H1155 H 0.9888 0.49784 0.93761 0.0
H1156 H 0.96829 0.45977 0.07103 0.0
H1157 H 0.96054 0.45549 0.04866 0.0
H1158 H 0.98898 0.51937 0.04828 0.0
H1159 H 0.99599 0.52371 0.07074 0.0
Tb1160 Tb 0.51284 0.4961 0.01489 0.0
Eu1161 Eu 0.49232 0.50201 0.98903 0.0
C1162 C 0.48646 0.46015 0.99494 0.0
C1163 C 0.53628 0.50644 0.9913 0.0
C1164 C 0.51832 0.48824 0.04762 0.0
C1165 C 0.51863 0.47717 0.06798 0.0
C1166 C 0.52579 0.48039 0.05634 0.0
C1167 C 0.50321 0.49233 0.05056 0.0
C1168 C 0.49603 0.48911 0.06216 0.0
C1169 C 0.50385 0.48175 0.0711 0.0
C1170 C 0.52678 0.49283 0.03567 0.0
O1171 O 0.52728 0.52765 0.0123 0.0
O1172 O 0.50018 0.5277 0.00307 0.0
O1173 O 0.46727 0.48928 1.00126 0.0
O1174 O 0.48612 0.49611 0.02005 0.0
C1175 C 0.51749 0.53698 0.0098 0.0
O1176 O 0.49174 0.52208 0.97612 0.0
O1177 O 0.47128 0.49026 0.97223 0.0
O1178 O 0.49084 0.47245 0.9864 0.0
O1179 O 0.49001 0.46653 0.00675 0.0
O1180 O 0.53208 0.49622 1.001 0.0
O1181 O 0.52483 0.51311 0.98678 0.0
C1182 C 0.46903 0.49044 0.01342 0.0
O1183 O 0.51856 0.47849 0.02666 0.0
O1184 O 0.5298 0.50965 0.03198 0.0
C1185 C 0.48462 0.50841 0.95512 0.0
C1186 C 0.49503 0.50921 0.93061 0.0
C1187 C 0.5092 0.52235 0.94031 0.0
C1188 C 0.5041 0.5219 0.95243 0.0
C1189 C 0.4704 0.49537 0.94547 0.0
C1190 C 0.47555 0.49569 0.93335 0.0
C1191 C 0.47902 0.50762 0.96791 0.0
H1192 H 0.52479 0.47125 0.07459 0.0
H1193 H 0.53739 0.47706 0.05423 0.0
H1194 H 0.4973 0.49853 0.04401 0.0
H1195 H 0.48487 0.49307 0.06428 0.0
H1196 H 0.52425 0.53317 0.93855 0.0
H1197 H 0.51546 0.53214 0.95967 0.0
H1198 H 0.45531 0.48478 0.94731 0.0
H1199 H 0.46432 0.48513 0.92617 0.0
Tb1200 Tb 0.15918 0.32151 0.3211 0.0
Eu1201 Eu 0.1747 0.34884 0.34834 0.0
C1202 C 0.18462 0.31443 0.34135 0.0
C1203 C 0.13424 0.30751 0.34378 0.0
C1204 C 0.15295 0.30961 0.28717 0.0
C1205 C 0.17013 0.31192 0.26878 0.0
C1206 C 0.16508 0.30485 0.28031 0.0
C1207 C 0.14562 0.32128 0.28213 0.0
C1208 C 0.15055 0.32823 0.27056 0.0
C1209 C 0.16303 0.32381 0.26377 0.0
C1210 C 0.14877 0.30297 0.2997 0.0
O1211 O 0.15771 0.34814 0.31839 0.0
O1212 O 0.15276 0.35535 0.33808 0.0
O1213 O 0.19586 0.36912 0.33556 0.0
O1214 O 0.19003 0.34461 0.32004 0.0
C1215 C 0.15118 0.35661 0.32615 0.0
O1216 O 0.16723 0.36255 0.36367 0.0
O1217 O 0.19569 0.3635 0.36501 0.0
O1218 O 0.19194 0.33282 0.34631 0.0
O1219 O 0.16866 0.30579 0.33324 0.0
O1220 O 0.1335 0.30983 0.33194 0.0
O1221 O 0.15092 0.31789 0.35107 0.0
C1222 C 0.2005 0.36305 0.32537 0.0
O1223 O 0.16406 0.30534 0.30688 0.0
O1224 O 0.13757 0.30799 0.30571 0.0
C1225 C 0.17886 0.35871 0.38321 0.0
C1226 C 0.16776 0.34256 0.40604 0.0
C1227 C 0.16568 0.35885 0.40293 0.0
C1228 C 0.17117 0.3668 0.39167 0.0
C1229 C 0.1812 0.34262 0.38628 0.0
C1230 C 0.17585 0.33474 0.39758 0.0
C1231 C 0.18295 0.36626 0.37094 0.0
H1232 H 0.17997 0.30839 0.26392 0.0
H1233 H 0.17097 0.2959 0.28397 0.0
H1234 H 0.1362 0.32522 0.28714 0.0
H1235 H 0.14448 0.33702 0.26694 0.0
H1236 H 0.15928 0.3652 0.40902 0.0
H1237 H 0.16899 0.37905 0.38944 0.0
H1238 H 0.18693 0.33594 0.37988 0.0
H1239 H 0.17814 0.32253 0.39967 0.0
Tb1240 Tb 0.68139 0.83778 0.32385 0.0
Eu1241 Eu 0.65492 0.82769 0.34793 0.0
C1242 C 0.69315 0.87023 0.34651 0.0
C1243 C 0.69412 0.82362 0.34734 0.0
C1244 C 0.69625 0.84145 0.29194 0.0
C1245 C 0.70696 0.84587 0.27133 0.0
C1246 C 0.71158 0.84846 0.28415 0.0
C1247 C 0.6762 0.83153 0.28682 0.0
C1248 C 0.67156 0.82897 0.274 0.0
C1249 C 0.68691 0.83628 0.26612 0.0
C1250 C 0.70132 0.84556 0.30537 0.0
O1251 O 0.66109 0.80559 0.32155 0.0
O1252 O 0.63606 0.80318 0.33292 0.0
O1253 O 0.64352 0.84257 0.33526 0.0
O1254 O 0.65383 0.83656 0.31691 0.0
C1255 C 0.64273 0.7956 0.32466 0.0
O1256 O 0.6369 0.80659 0.36056 0.0
O1257 O 0.64199 0.83673 0.36246 0.0
O1258 O 0.68343 0.8565 0.35384 0.0
O1259 O 0.69081 0.86617 0.33445 0.0
O1260 O 0.70017 0.83632 0.33896 0.0
O1261 O 0.6758 0.81551 0.3505 0.0
C1262 C 0.64287 0.84183 0.32314 0.0
O1263 O 0.69607 0.85743 0.31075 0.0
O1264 O 0.69695 0.8302 0.31144 0.0
C1265 C 0.63895 0.82093 0.3806 0.0
C1266 C 0.64679 0.82316 0.4064 0.0
C1267 C 0.62705 0.81501 0.40086 0.0
C1268 C 0.62318 0.81392 0.38806 0.0
C1269 C 0.65866 0.82897 0.38602 0.0
C1270 C 0.66256 0.83009 0.39883 0.0
C1271 C 0.63464 0.81974 0.36719 0.0
H1272 H 0.71911 0.85188 0.26553 0.0
H1273 H 0.72712 0.85626 0.28799 0.0
H1274 H 0.66419 0.82605 0.29275 0.0
H1275 H 0.65598 0.82132 0.27025 0.0
H1276 H 0.61456 0.8093 0.40641 0.0
H1277 H 0.60787 0.80758 0.38398 0.0
H1278 H 0.671 0.83446 0.38034 0.0
H1279 H 0.67794 0.83665 0.40282 0.0
Tb1280 Tb 0.18017 0.83438 0.34871 0.0
Eu1281 Eu 0.15977 0.83938 0.3224 0.0
C1282 C 0.15453 0.79826 0.32897 0.0
C1283 C 0.20383 0.84379 0.32496 0.0
C1284 C 0.1846 0.82475 0.38117 0.0
C1285 C 0.18361 0.81105 0.40076 0.0
C1286 C 0.19114 0.81532 0.38927 0.0
C1287 C 0.16997 0.82929 0.38454 0.0
C1288 C 0.16249 0.82511 0.396 0.0
C1289 C 0.16943 0.81621 0.40435 0.0
C1290 C 0.19352 0.83047 0.36946 0.0
O1291 O 0.19503 0.8659 0.34619 0.0
O1292 O 0.16921 0.8667 0.33539 0.0
O1293 O 0.13486 0.82731 0.33482 0.0
O1294 O 0.15369 0.83502 0.3537 0.0
C1295 C 0.18607 0.87559 0.34261 0.0
O1296 O 0.15996 0.85831 0.30837 0.0
O1297 O 0.13753 0.8269 0.30625 0.0
O1298 O 0.15971 0.81046 0.32036 0.0
O1299 O 0.15678 0.80496 0.34064 0.0
O1300 O 0.2004 0.8352 0.33532 0.0
O1301 O 0.19179 0.84917 0.31965 0.0
C1302 C 0.13659 0.82899 0.34699 0.0
O1303 O 0.1862 0.81661 0.36016 0.0
O1304 O 0.19599 0.84731 0.36615 0.0
C1305 C 0.15098 0.84183 0.28834 0.0
C1306 C 0.16242 0.84058 0.26435 0.0
C1307 C 0.14963 0.84811 0.26683 0.0
C1308 C 0.14396 0.84872 0.27874 0.0
C1309 C 0.16372 0.8343 0.28593 0.0
C1310 C 0.16936 0.83364 0.27404 0.0
C1311 C 0.1459 0.84343 0.30098 0.0
H1312 H 0.18905 0.8039 0.40687 0.0
H1313 H 0.20232 0.81158 0.3868 0.0
H1314 H 0.16469 0.8366 0.37844 0.0
H1315 H 0.15184 0.82956 0.39849 0.0
H1316 H 0.14387 0.85336 0.25954 0.0
H1317 H 0.13421 0.85469 0.28048 0.0
H1318 H 0.16947 0.82913 0.29329 0.0
H1319 H 0.17943 0.82801 0.27248 0.0
Tb1320 Tb 0.82511 0.65717 0.65578 0.0
Eu1321 Eu 0.84186 0.68306 0.68356 0.0
C1322 C 0.84489 0.64459 0.67685 0.0
C1323 C 0.79836 0.64339 0.67773 0.0
C1324 C 0.81917 0.64842 0.62158 0.0
C1325 C 0.81796 0.64251 0.59928 0.0
C1326 C 0.81335 0.63522 0.61081 0.0
C1327 C 0.82952 0.66905 0.62068 0.0
C1328 C 0.83426 0.67637 0.60918 0.0
C1329 C 0.82862 0.66319 0.59832 0.0
C1330 C 0.8154 0.64064 0.63375 0.0
O1331 O 0.81118 0.67539 0.65787 0.0
O1332 O 0.83498 0.7016 0.67129 0.0
O1333 O 0.86831 0.69324 0.67244 0.0
O1334 O 0.85048 0.68609 0.65348 0.0
C1335 C 0.81959 0.69398 0.6628 0.0
O1336 O 0.83894 0.70042 0.69899 0.0
O1337 O 0.86317 0.694 0.70016 0.0
O1338 O 0.83976 0.65357 0.68519 0.0
O1339 O 0.84412 0.64755 0.66513 0.0
O1340 O 0.80362 0.63751 0.66773 0.0
O1341 O 0.80902 0.66153 0.68341 0.0
C1342 C 0.86755 0.69513 0.66054 0.0
O1343 O 0.83122 0.64376 0.64063 0.0
O1344 O 0.80379 0.64449 0.64013 0.0
C1345 C 0.84774 0.69317 0.71859 0.0
C1346 C 0.83689 0.67802 0.7417 0.0
C1347 C 0.82562 0.6847 0.73502 0.0
C1348 C 0.83098 0.6922 0.72362 0.0
C1349 C 0.85925 0.68687 0.72539 0.0
C1350 C 0.85386 0.67934 0.73678 0.0
C1351 C 0.85297 0.7003 0.70623 0.0
H1352 H 0.81359 0.63195 0.59115 0.0
H1353 H 0.80548 0.61926 0.61132 0.0
H1354 H 0.8341 0.67949 0.6289 0.0
H1355 H 0.84224 0.69236 0.60877 0.0
H1356 H 0.81237 0.68376 0.73847 0.0
H1357 H 0.82182 0.69702 0.71869 0.0
H1358 H 0.87237 0.6876 0.72188 0.0
H1359 H 0.86309 0.67466 0.74177 0.0
Tb1360 Tb 0.34545 0.16771 0.65656 0.0
Eu1361 Eu 0.31927 0.15602 0.68055 0.0
C1362 C 0.35591 0.19899 0.67934 0.0
C1363 C 0.35925 0.15328 0.67942 0.0
C1364 C 0.35781 0.17618 0.62465 0.0
C1365 C 0.3656 0.18716 0.60431 0.0
C1366 C 0.37188 0.18692 0.61657 0.0
C1367 C 0.33736 0.16564 0.62038 0.0
C1368 C 0.33105 0.16583 0.60812 0.0
C1369 C 0.34511 0.17666 0.59996 0.0
C1370 C 0.36439 0.17702 0.63769 0.0
O1371 O 0.3263 0.13527 0.65447 0.0
O1372 O 0.30052 0.13229 0.66515 0.0
O1373 O 0.30667 0.17051 0.66831 0.0
O1374 O 0.31764 0.16596 0.64984 0.0
C1375 C 0.30761 0.12507 0.65698 0.0
O1376 O 0.30232 0.13446 0.69326 0.0
O1377 O 0.3062 0.16417 0.69538 0.0
O1378 O 0.3479 0.18463 0.68649 0.0
O1379 O 0.35213 0.19527 0.66727 0.0
O1380 O 0.36497 0.16623 0.67117 0.0
O1381 O 0.34083 0.14446 0.68249 0.0
C1382 C 0.30631 0.17048 0.65621 0.0
O1383 O 0.36249 0.18957 0.64513 0.0
O1384 O 0.35803 0.15995 0.64216 0.0
C1385 C 0.3056 0.14897 0.71344 0.0
C1386 C 0.31631 0.15268 0.73902 0.0
C1387 C 0.29604 0.14265 0.73421 0.0
C1388 C 0.29074 0.14084 0.7215 0.0
C1389 C 0.32584 0.1588 0.71815 0.0
C1390 C 0.33116 0.16068 0.73085 0.0
C1391 C 0.29993 0.1473 0.70016 0.0
H1392 H 0.3768 0.19539 0.5982 0.0
H1393 H 0.38771 0.19523 0.61976 0.0
H1394 H 0.32626 0.15743 0.62655 0.0
H1395 H 0.31518 0.15773 0.60509 0.0
H1396 H 0.28428 0.13654 0.74028 0.0
H1397 H 0.27505 0.13323 0.71799 0.0
H1398 H 0.33749 0.16508 0.71199 0.0
H1399 H 0.34689 0.16827 0.73426 0.0
Tb1400 Tb 0.8503 0.17058 0.68279 0.0
Eu1401 Eu 0.82847 0.17377 0.65692 0.0
C1402 C 0.82516 0.13364 0.66371 0.0
C1403 C 0.87319 0.18039 0.65883 0.0
C1404 C 0.85746 0.16265 0.71536 0.0
C1405 C 0.82912 0.14535 0.72724 0.0
C1406 C 0.83709 0.14885 0.71585 0.0
C1407 C 0.86979 0.17255 0.72637 0.0
C1408 C 0.86179 0.16924 0.73773 0.0
C1409 C 0.84132 0.15585 0.73825 0.0
C1410 C 0.86551 0.16863 0.70347 0.0
O1411 O 0.8643 0.20174 0.67932 0.0
O1412 O 0.83658 0.20059 0.67007 0.0
O1413 O 0.80389 0.16002 0.66947 0.0
O1414 O 0.82369 0.1709 0.68806 0.0
C1415 C 0.85418 0.21061 0.67645 0.0
O1416 O 0.82573 0.19196 0.64334 0.0
O1417 O 0.80678 0.15979 0.64049 0.0
O1418 O 0.83009 0.14575 0.65505 0.0
O1419 O 0.82745 0.14051 0.67535 0.0
O1420 O 0.86979 0.17111 0.66892 0.0
O1421 O 0.86092 0.18588 0.65401 0.0
C1422 C 0.80607 0.16321 0.68162 0.0
O1423 O 0.85894 0.15469 0.69424 0.0
O1424 O 0.86592 0.18463 0.70017 0.0
C1425 C 0.81889 0.17656 0.62279 0.0
C1426 C 0.82954 0.17495 0.59858 0.0
C1427 C 0.8435 0.18925 0.60791 0.0
C1428 C 0.83828 0.18999 0.61991 0.0
C1429 C 0.80483 0.16246 0.61343 0.0
C1430 C 0.81012 0.1616 0.60145 0.0
C1431 C 0.81339 0.17658 0.63556 0.0
H1432 H 0.81325 0.13513 0.72739 0.0
H1433 H 0.82723 0.1413 0.70743 0.0
H1434 H 0.88549 0.18339 0.72615 0.0
H1435 H 0.87153 0.17744 0.74609 0.0
H1436 H 0.85863 0.19956 0.60599 0.0
H1437 H 0.84955 0.20091 0.62694 0.0
H1438 H 0.78981 0.15196 0.61543 0.0
H1439 H 0.79902 0.15051 0.59441 0.0
H1440 H 0.29158 0.8745 0.04837 0.0
H1441 H 0.3207 0.89245 0.03699 0.0
H1442 H 0.3599 0.90374 0.07008 0.0
H1443 H 0.33085 0.88574 0.0815 0.0
H1444 H 0.37324 0.9364 0.05763 0.0
H1445 H 0.35003 0.86653 0.0478 0.0
H1446 H 0.32503 0.83162 0.04041 0.0
H1447 H 0.31692 0.84914 0.00484 0.0
H1448 H 0.34168 0.88423 0.01208 0.0
H1449 H 0.4633 0.96095 0.03323 0.0
H1450 H 0.43247 0.94294 0.0429 0.0
H1451 H 0.39787 0.93506 0.00832 0.0
H1452 H 0.42885 0.95303 0.99844 0.0
H1453 H 0.38118 0.90149 0.02058 0.0
H1454 H 0.40636 0.97113 0.02997 0.0
H1455 H 0.43157 0.00596 0.03733 0.0
H1456 H 0.43566 0.98927 0.0738 0.0
H1457 H 0.411 0.95418 0.06657 0.0
C1458 C 0.3064 0.88078 0.05322 0.0
C1459 C 0.30889 0.87857 0.06583 0.0
C1460 C 0.32303 0.89105 0.04671 0.0
C1461 C 0.34248 0.89919 0.05264 0.0
C1462 C 0.34503 0.89757 0.06531 0.0
C1463 C 0.3284 0.88734 0.07184 0.0
C1464 C 0.36018 0.90901 0.0456 0.0
C1465 C 0.37509 0.92871 0.04962 0.0
C1466 C 0.36232 0.89913 0.03493 0.0
C1467 C 0.34755 0.87803 0.03053 0.0
C1468 C 0.3428 0.86296 0.03843 0.0
C1469 C 0.32869 0.84314 0.03426 0.0
C1470 C 0.31935 0.83817 0.02217 0.0
C1471 C 0.32415 0.85302 0.01421 0.0
C1472 C 0.33822 0.87287 0.01834 0.0
C1473 C 0.44917 0.95526 0.0276 0.0
C1474 C 0.44856 0.95861 0.01506 0.0
C1475 C 0.43154 0.94501 0.03318 0.0
C1476 C 0.4129 0.93802 0.0264 0.0
C1477 C 0.41213 0.94046 0.01374 0.0
C1478 C 0.42984 0.95071 0.00811 0.0
C1479 C 0.39436 0.92879 0.03272 0.0
C1480 C 0.37929 0.90923 0.02856 0.0
C1481 C 0.39208 0.93881 0.04327 0.0
C1482 C 0.40694 0.95994 0.04768 0.0
C1483 C 0.4128 0.97482 0.03953 0.0
C1484 C 0.42702 0.99461 0.04367 0.0
C1485 C 0.4353 -0.0002 0.05601 0.0
C1486 C 0.42935 0.9852 0.06422 0.0
C1487 C 0.41526 0.96534 0.0601 0.0
H1488 H 0.44626 0.01514 0.05921 0.0
H1489 H 0.30843 0.82282 0.01896 0.0
H1490 H 0.15339 0.46143 0.08234 0.0
H1491 H 0.12817 0.46815 0.07289 0.0
H1492 H 0.13305 0.44468 0.03718 0.0
H1493 H 0.15798 0.43753 0.04657 0.0
H1494 H 0.13422 0.4803 0.03629 0.0
H1495 H 0.09304 0.41785 0.05243 0.0
H1496 H 0.08154 0.39465 0.06851 0.0
H1497 H 0.06752 0.43378 0.08962 0.0
H1498 H 0.07922 0.45737 0.07374 0.0
H1499 H 0.04986 0.47376 0.00264 0.0
H1500 H 0.07382 0.46601 0.01273 0.0
H1501 H 0.06504 0.48637 0.0483 0.0
H1502 H 0.0407 0.49381 0.03829 0.0
H1503 H 0.06604 0.45279 0.04963 0.0
H1504 H 0.10696 0.51523 0.03391 0.0
H1505 H 0.11869 0.539 0.01816 0.0
H1506 H 0.13371 0.50091 0.99677 0.0
H1507 H 0.1218 0.47676 0.01232 0.0
C1508 C 0.1489 0.45741 0.07251 0.0
C1509 C 0.15776 0.44892 0.06523 0.0
C1510 C 0.13452 0.46134 0.06711 0.0
C1511 C 0.12864 0.45683 0.05433 0.0
C1512 C 0.13741 0.44835 0.04705 0.0
C1513 C 0.15173 0.44435 0.05244 0.0
C1514 C 0.11365 0.46131 0.0485 0.0
C1515 C 0.11922 0.47407 0.03909 0.0
C1516 C 0.09428 0.45365 0.05241 0.0
C1517 C 0.08721 0.43947 0.06196 0.0
C1518 C 0.08767 0.42159 0.06055 0.0
C1519 C 0.08108 0.40836 0.06962 0.0
C1520 C 0.07385 0.41277 0.0801 0.0
C1521 C 0.07315 0.4304 0.08151 0.0
C1522 C 0.07975 0.4437 0.07248 0.0
C1523 C 0.053 0.47661 0.01261 0.0
C1524 C 0.04339 0.48451 0.01964 0.0
C1525 C 0.06679 0.47223 0.01837 0.0
C1526 C 0.07148 0.47587 0.03127 0.0
C1527 C 0.06171 0.48347 0.03833 0.0
C1528 C 0.04782 0.48777 0.03258 0.0
C1529 C 0.08656 0.47171 0.03736 0.0
C1530 C 0.08104 0.45904 0.04683 0.0
C1531 C 0.10604 0.47956 0.03357 0.0
C1532 C 0.11331 0.4941 0.02423 0.0
C1533 C 0.11262 0.51185 0.0258 0.0
C1534 C 0.11932 0.5254 0.01692 0.0
C1535 C 0.12689 0.52144 0.00646 0.0
C1536 C 0.12782 0.50394 0.00488 0.0
C1537 C 0.12111 0.49032 0.01373 0.0
H1538 H 0.13207 0.53196 0.99959 0.0
H1539 H 0.06875 0.4025 0.08711 0.0
H1540 H 0.61582 0.72128 0.05621 0.0
H1541 H 0.60329 0.68651 0.04834 0.0
H1542 H 0.54911 0.6826 0.03199 0.0
H1543 H 0.56123 0.7171 0.04016 0.0
H1544 H 0.54115 0.65135 0.04479 0.0
H1545 H 0.58497 0.68568 0.0142 0.0
H1546 H 0.61688 0.70969 0.00675 0.0
H1547 H 0.64539 0.67966 0.02263 0.0
H1548 H 0.61371 0.65563 0.03033 0.0
H1549 H 0.50121 0.56073 0.00653 0.0
H1550 H 0.51579 0.59591 0.01397 0.0
H1551 H 0.56826 0.59666 0.03052 0.0
H1552 H 0.55388 0.56146 0.02301 0.0
H1553 H 0.57777 0.62932 0.01809 0.0
H1554 H 0.53424 0.59484 0.04845 0.0
H1555 H 0.50243 0.57047 0.05582 0.0
H1556 H 0.47359 0.60062 0.04057 0.0
H1557 H 0.50518 0.62502 0.03294 0.0
C1558 C 0.60125 0.713 0.05093 0.0
C1559 C 0.58952 0.72193 0.04879 0.0
C1560 C 0.59418 0.69321 0.04636 0.0
C1561 C 0.57533 0.68205 0.03952 0.0
C1562 C 0.56371 0.69099 0.03724 0.0
C1563 C 0.57075 0.71075 0.0418 0.0
C1564 C 0.56737 0.66082 0.03508 0.0
C1565 C 0.54902 0.64656 0.03881 0.0
C1566 C 0.57797 0.65456 0.02759 0.0
C1567 C 0.59702 0.66898 0.02295 0.0
C1568 C 0.59809 0.6843 0.01619 0.0
C1569 C 0.61612 0.69789 0.01191 0.0
C1570 C 0.63316 0.69623 0.01424 0.0
C1571 C 0.63219 0.68094 0.02084 0.0
C1572 C 0.61419 0.66732 0.02516 0.0
C1573 C 0.51586 0.56835 0.01174 0.0
C1574 C 0.52636 0.55829 0.01422 0.0
C1575 C 0.52413 0.58844 0.01601 0.0
C1576 C 0.54299 0.59879 0.0229 0.0
C1577 C 0.55366 0.58889 0.02523 0.0
C1578 C 0.54539 0.56877 0.02097 0.0
C1579 C 0.55149 0.61993 0.0277 0.0
C1580 C 0.56993 0.63415 0.02407 0.0
C1581 C 0.54102 0.62616 0.03532 0.0
C1582 C 0.52205 0.61166 0.04003 0.0
C1583 C 0.52108 0.59619 0.04659 0.0
C1584 C 0.50309 0.58238 0.05083 0.0
C1585 C 0.48598 0.58396 0.04864 0.0
C1586 C 0.48685 0.5994 0.04225 0.0
C1587 C 0.5048 0.61324 0.03798 0.0
H1588 H 0.47206 0.57324 0.05191 0.0
H1589 H 0.64711 0.70677 0.01091 0.0
H1590 H 0.85488 0.27499 0.9585 0.0
H1591 H 0.88024 0.30862 0.96734 0.0
H1592 H 0.87912 0.33078 0.9321 0.0
H1593 H 0.85355 0.29726 0.92321 0.0
H1594 H 0.91753 0.34657 0.94343 0.0
H1595 H 0.85424 0.33736 0.95394 0.0
H1596 H 0.82173 0.32003 0.96251 0.0
H1597 H 0.85177 0.32625 0.99836 0.0
H1598 H 0.88446 0.34336 0.98996 0.0
H1599 H 0.96565 0.44978 0.96561 0.0
H1600 H 0.9424 0.41612 0.95573 0.0
H1601 H 0.93827 0.39284 0.9911 0.0
H1602 H 0.96105 0.4264 1.00107 0.0
H1603 H 0.90242 0.37767 0.97924 0.0
H1604 H 0.9657 0.38672 0.96895 0.0
H1605 H 0.99834 0.40384 0.96051 0.0
H1606 H 0.96878 0.39783 0.92453 0.0
H1607 H 0.93596 0.3809 0.9328 0.0
C1608 C 0.85998 0.28703 0.95263 0.0
C1609 C 0.85208 0.28346 0.94017 0.0
C1610 C 0.87451 0.30621 0.95769 0.0
C1611 C 0.88137 0.32221 0.9504 0.0
C1612 C 0.87403 0.31862 0.93787 0.0
C1613 C 0.85946 0.29944 0.9328 0.0
C1614 C 0.89571 0.3428 0.95597 0.0
C1615 C 0.91417 0.35349 0.95117 0.0
C1616 C 0.89141 0.35163 0.9662 0.0
C1617 C 0.87178 0.34147 0.97129 0.0
C1618 C 0.8539 0.33489 0.96363 0.0
C1619 C 0.83545 0.32513 0.96846 0.0
C1620 C 0.83468 0.322 0.98097 0.0
C1621 C 0.85238 0.32866 0.98868 0.0
C1622 C 0.87088 0.33841 0.98389 0.0
C1623 C 0.95985 0.43748 0.97128 0.0
C1624 C 0.96519 0.44078 0.98413 0.0
C1625 C 0.94663 0.41824 0.96561 0.0
C1626 C 0.93874 0.40192 0.97266 0.0
C1627 C 0.94414 0.40519 0.98548 0.0
C1628 C 0.95721 0.42441 0.99116 0.0
C1629 C 0.92441 0.38147 0.9668 0.0
C1630 C 0.90586 0.37079 0.97152 0.0
C1631 C 0.92868 0.37265 0.95653 0.0
C1632 C 0.94839 0.38272 0.95152 0.0
C1633 C 0.96617 0.38918 0.95926 0.0
C1634 C 0.9847 0.39882 0.95451 0.0
C1635 C 0.98563 0.40196 0.942 0.0
C1636 C 0.96803 0.39541 0.93422 0.0
C1637 C 0.94946 0.38577 0.93893 0.0
H1638 H 0.99999 0.40944 0.93834 0.0
H1639 H 0.82038 0.31444 0.98469 0.0
H1640 H 0.6934 0.52091 0.94706 0.0
H1641 H 0.66336 0.51377 0.95675 0.0
H1642 H 0.66201 0.56225 0.94024 0.0
H1643 H 0.69296 0.57036 0.93112 0.0
H1644 H 0.65372 0.56287 0.96296 0.0
H1645 H 0.62927 0.51174 0.92925 0.0
H1646 H 0.62776 0.48413 0.9159 0.0
H1647 H 0.61577 0.44914 0.94666 0.0
H1648 H 0.61748 0.47665 0.96025 0.0
H1649 H 0.55291 0.53196 0.97369 0.0
H1650 H 0.58294 0.53943 0.96372 0.0
H1651 H 0.59118 0.49854 0.985 0.0
H1652 H 0.5611 0.49099 0.99513 0.0
H1653 H 0.59541 0.49414 0.9596 0.0
H1654 H 0.61999 0.54661 0.99311 0.0
H1655 H 0.62034 0.57434 0.00563 0.0
H1656 H 0.63068 0.60699 0.97383 0.0
H1657 H 0.63009 0.57932 0.96107 0.0
C1658 C 0.68694 0.53027 0.94558 0.0
C1659 C 0.69579 0.54631 0.93831 0.0
C1660 C 0.6695 0.52595 0.951 0.0
C1661 C 0.66013 0.53724 0.9491 0.0
C1662 C 0.66887 0.55324 0.94183 0.0
C1663 C 0.68648 0.55773 0.93649 0.0
C1664 C 0.6415 0.53255 0.9549 0.0
C1665 C 0.64088 0.54788 0.96204 0.0
C1666 C 0.62477 0.51294 0.95394 0.0
C1667 C 0.62369 0.49633 0.94579 0.0
C1668 C 0.62646 0.49821 0.93319 0.0
C1669 C 0.62555 0.48257 0.92558 0.0
C1670 C 0.62172 0.46491 0.93043 0.0
C1671 C 0.61876 0.46283 0.94291 0.0
C1672 C 0.61967 0.47844 0.95057 0.0
C1673 C 0.56107 0.52452 0.97629 0.0
C1674 C 0.55458 0.51089 0.98526 0.0
C1675 C 0.5783 0.52888 0.97059 0.0
C1676 C 0.58939 0.51966 0.97367 0.0
C1677 C 0.58285 0.50585 0.9825 0.0
C1678 C 0.56569 0.50161 0.98831 0.0
C1679 C 0.60777 0.52442 0.96764 0.0
C1680 C 0.60829 0.5091 0.96046 0.0
C1681 C 0.62427 0.54408 0.96843 0.0
C1682 C 0.6248 0.5608 0.97611 0.0
C1683 C 0.62218 0.55964 0.98877 0.0
C1684 C 0.62245 0.57536 0.99591 0.0
C1685 C 0.62548 0.5924 0.99053 0.0
C1686 C 0.62831 0.59377 0.97799 0.0
C1687 C 0.62803 0.57808 0.9708 0.0
H1688 H 0.62568 0.60455 0.99607 0.0
H1689 H 0.62102 0.45282 0.92452 0.0
H1690 H 0.43112 0.14184 0.95452 0.0
H1691 H 0.44578 0.1236 0.96387 0.0
H1692 H 0.39221 0.06788 0.95091 0.0
H1693 H 0.37769 0.08616 0.94123 0.0
H1694 H 0.43734 0.10014 0.98105 0.0
H1695 H 0.40408 0.03228 0.94372 0.0
H1696 H 0.39246 0.02422 0.92142 0.0
H1697 H 0.43074 0.08548 0.91544 0.0
H1698 H 0.44279 0.09384 0.93766 0.0
H1699 H 0.45798 0.02765 0.00318 0.0
H1700 H 0.44178 0.04517 0.99477 0.0
H1701 H 0.47662 0.05734 0.96359 0.0
H1702 H 0.49213 0.03902 0.97167 0.0
H1703 H 0.44102 0.04714 0.95556 0.0
H1704 H 0.48719 0.09356 0.98878 0.0
H1705 H 0.50325 0.10504 0.0102 0.0
H1706 H 0.44719 0.09292 0.02289 0.0
H1707 H 0.43073 0.08113 0.00154 0.0
C1708 C 0.4224 0.1257 0.95378 0.0
C1709 C 0.4033 0.11538 0.94714 0.0
C1710 C 0.43078 0.11529 0.95911 0.0
C1711 C 0.42021 0.09437 0.95797 0.0
C1712 C 0.40082 0.08402 0.95169 0.0
C1713 C 0.39252 0.09444 0.9462 0.0
C1714 C 0.42977 0.08349 0.9631 0.0
C1715 C 0.4381 0.08851 0.97549 0.0
C1716 C 0.43115 0.06861 0.95578 0.0
C1717 C 0.42414 0.0637 0.94237 0.0
C1718 C 0.41005 0.04401 0.93763 0.0
C1719 C 0.40339 0.03939 0.92501 0.0
C1720 C 0.4108 0.05434 0.91703 0.0
C1721 C 0.42495 0.07393 0.92164 0.0
C1722 C 0.43169 0.07861 0.93425 0.0
C1723 C 0.46223 0.03415 0.99456 0.0
C1724 C 0.47636 0.03206 0.9881 0.0
C1725 C 0.45301 0.04422 0.98978 0.0
C1726 C 0.45817 0.05285 0.97862 0.0
C1727 C 0.47235 0.05079 0.97219 0.0
C1728 C 0.48126 0.04038 0.97684 0.0
C1729 C 0.44864 0.0638 0.97354 0.0
C1730 C 0.44022 0.05872 0.96116 0.0
C1731 C 0.44782 0.07913 0.98075 0.0
C1732 C 0.45769 0.08628 0.99358 0.0
C1733 C 0.47826 0.09322 0.99615 0.0
C1734 C 0.48744 0.0998 0.00827 0.0
C1735 C 0.47624 0.09966 0.0179 0.0
C1736 C 0.45584 0.09299 0.01542 0.0
C1737 C 0.44658 0.08638 0.00331 0.0
H1738 H 0.48337 0.10476 0.02729 0.0
H1739 H 0.40561 0.05074 0.90726 0.0
H1740 H 0.69216 0.15751 0.94457 0.0
H1741 H 0.66392 0.13996 0.95664 0.0
H1742 H 0.6535 0.08355 0.9397 0.0
H1743 H 0.68213 0.10092 0.92786 0.0
H1744 H 0.619 0.08656 0.93954 0.0
H1745 H 0.67463 0.09873 0.96849 0.0
H1746 H 0.70722 0.11969 0.98088 0.0
H1747 H 0.684 0.15293 0.99953 0.0
H1748 H 0.65132 0.13233 0.98712 0.0
H1749 H 0.55374 0.01639 0.97536 0.0
H1750 H 0.58304 0.03833 0.96547 0.0
H1751 H 0.58872 0.08936 0.98738 0.0
H1752 H 0.55919 0.06724 0.99761 0.0
H1753 H 0.62521 0.09214 0.98544 0.0
H1754 H 0.5704 0.08127 0.95735 0.0
H1755 H 0.53785 0.06234 0.94461 0.0
H1756 H 0.55917 0.02865 0.92444 0.0
H1757 H 0.59189 0.04738 0.93708 0.0
C1758 C 0.6841 0.14136 0.94353 0.0
C1759 C 0.68952 0.13065 0.93524 0.0
C1760 C 0.66789 0.13137 0.95041 0.0
C1761 C 0.65672 0.11047 0.94912 0.0
C1762 C 0.66194 0.09971 0.94081 0.0
C1763 C 0.67824 0.10968 0.93399 0.0
C1764 C 0.63926 0.09977 0.95619 0.0
C1765 C 0.6204 0.08761 0.94957 0.0
C1766 C 0.64098 0.10179 0.96929 0.0
C1767 C 0.6606 0.11413 0.97678 0.0
C1768 C 0.67652 0.11062 0.97515 0.0
C1769 C 0.695 0.12242 0.9822 0.0
C1770 C 0.6977 0.13767 0.99096 0.0
C1771 C 0.6819 0.14113 0.99273 0.0
C1772 C 0.66339 0.12939 0.98569 0.0
C1773 C 0.56114 0.03226 0.97816 0.0
C1774 C 0.55396 0.04005 0.98723 0.0
C1775 C 0.57791 0.04482 0.97243 0.0
C1776 C 0.58785 0.06552 0.97551 0.0
C1777 C 0.58117 0.07342 0.98482 0.0
C1778 C 0.56431 0.06077 0.99064 0.0
C1779 C 0.60502 0.07862 0.96877 0.0
C1780 C 0.6238 0.09123 0.97542 0.0
C1781 C 0.60324 0.07725 0.95568 0.0
C1782 C 0.58354 0.06566 0.94819 0.0
C1783 C 0.56809 0.06971 0.95027 0.0
C1784 C 0.54965 0.05905 0.94306 0.0
C1785 C 0.5465 0.04431 0.93377 0.0
C1786 C 0.56168 0.04005 0.93169 0.0
C1787 C 0.5802 0.05076 0.93882 0.0
H1788 H 0.53242 0.03648 0.92802 0.0
H1789 H 0.71202 0.14678 0.99641 0.0
H1790 H 0.88154 0.57303 0.92432 0.0
H1791 H 0.90447 0.56449 0.93505 0.0
H1792 H 0.85483 0.516 0.94971 0.0
H1793 H 0.83167 0.52401 0.93873 0.0
H1794 H 0.88671 0.53916 0.96753 0.0
H1795 H 0.87593 0.50563 0.92669 0.0
H1796 H 0.8749 0.5033 0.90394 0.0
H1797 H 0.93738 0.54729 0.90672 0.0
H1798 H 0.93877 0.54992 0.9295 0.0
H1799 H 0.9364 0.49043 0.99095 0.0
H1800 H 0.91356 0.49845 0.97962 0.0
H1801 H 0.96257 0.5422 0.96172 0.0
H1802 H 0.98544 0.5339 0.97278 0.0
H1803 H 0.93114 0.52183 0.94545 0.0
H1804 H 0.94275 0.55561 0.98587 0.0
H1805 H 0.94453 0.55906 0.00864 0.0
H1806 H 0.88165 0.51675 0.00683 0.0
H1807 H 0.87955 0.51283 0.98404 0.0
C1808 C 0.8754 0.56036 0.92967 0.0
C1809 C 0.85467 0.5492 0.9306 0.0
C1810 C 0.88858 0.55555 0.93585 0.0
C1811 C 0.88135 0.53952 0.94311 0.0
C1812 C 0.86074 0.52846 0.94418 0.0
C1813 C 0.84753 0.53316 0.93793 0.0
C1814 C 0.89532 0.53445 0.94976 0.0
C1815 C 0.89624 0.5351 0.9627 0.0
C1816 C 0.90817 0.52974 0.94348 0.0
C1817 C 0.9074 0.52811 0.92979 0.0
C1818 C 0.88942 0.5149 0.92245 0.0
C1819 C 0.88878 0.51348 0.90955 0.0
C1820 C 0.90606 0.52517 0.90389 0.0
C1821 C 0.92402 0.53825 0.91112 0.0
C1822 C 0.92475 0.53966 0.92402 0.0
C1823 C 0.94237 0.50179 0.98462 0.0
C1824 C 0.96282 0.51161 0.98285 0.0
C1825 C 0.92927 0.50643 0.97817 0.0
C1826 C 0.93636 0.52117 0.96994 0.0
C1827 C 0.95672 0.53081 0.96804 0.0
C1828 C 0.96981 0.52609 0.97442 0.0
C1829 C 0.92253 0.52645 0.96327 0.0
C1830 C 0.92164 0.52588 0.95031 0.0
C1831 C 0.90984 0.53143 0.96955 0.0
C1832 C 0.91104 0.53378 0.98325 0.0
C1833 C 0.92933 0.54692 0.99033 0.0
C1834 C 0.93039 0.54898 0.00324 0.0
C1835 C 0.91322 0.53809 0.00918 0.0
C1836 C 0.89494 0.52515 0.00222 0.0
C1837 C 0.8938 0.52302 0.98931 0.0
H1838 H 0.91408 0.53971 0.01918 0.0
H1839 H 0.90555 0.52405 0.8939 0.0
H1840 H 0.38379 0.27752 0.94746 0.0
H1841 H 0.39742 0.31231 0.95559 0.0
H1842 H 0.43977 0.3083 0.98107 0.0
H1843 H 0.42717 0.27389 0.97256 0.0
H1844 H 0.41698 0.3296 0.99027 0.0
H1845 H 0.45913 0.32713 0.95931 0.0
H1846 H 0.46396 0.31659 0.93859 0.0
H1847 H 0.4357 0.34627 0.92188 0.0
H1848 H 0.43041 0.35669 0.94252 0.0
H1849 H 0.48653 0.43151 0.00821 0.0
H1850 H 0.47007 0.3957 0.00193 0.0
H1851 H 0.44679 0.40419 0.96719 0.0
H1852 H 0.4641 0.44011 0.97318 0.0
H1853 H 0.4586 0.3797 0.96272 0.0
H1854 H 0.41747 0.38414 0.99221 0.0
H1855 H 0.40963 0.39397 0.01214 0.0
H1856 H 0.43165 0.36044 0.03079 0.0
H1857 H 0.43988 0.35063 0.01098 0.0
C1858 C 0.39605 0.28398 0.95476 0.0
C1859 C 0.40453 0.27288 0.95921 0.0
C1860 C 0.40365 0.3038 0.95948 0.0
C1861 C 0.41957 0.31275 0.96888 0.0
C1862 C 0.42736 0.3015 0.97385 0.0
C1863 C 0.42004 0.28179 0.96899 0.0
C1864 C 0.4292 0.3343 0.97276 0.0
C1865 C 0.42627 0.34065 0.98436 0.0
C1866 C 0.44073 0.34851 0.96482 0.0
C1867 C 0.44417 0.34249 0.95243 0.0
C1868 C 0.45378 0.33124 0.95121 0.0
C1869 C 0.45663 0.32532 0.93948 0.0
C1870 C 0.45009 0.3307 0.92892 0.0
C1871 C 0.44073 0.34208 0.93007 0.0
C1872 C 0.43781 0.34801 0.94177 0.0
C1873 C 0.47789 0.4257 0.99923 0.0
C1874 C 0.47656 0.43855 0.99118 0.0
C1875 C 0.46837 0.40522 0.99568 0.0
C1876 C 0.45684 0.39714 0.98417 0.0
C1877 C 0.45557 0.41003 0.97611 0.0
C1878 C 0.46546 0.43055 0.97955 0.0
C1879 C 0.44652 0.37535 0.98036 0.0
C1880 C 0.44929 0.36884 0.96872 0.0
C1881 C 0.43449 0.36103 0.9882 0.0
C1882 C 0.42947 0.36681 1.00012 0.0
C1883 C 0.42077 0.37898 1.00057 0.0
C1884 C 0.41624 0.38453 0.01185 0.0
C1885 C 0.42019 0.37787 0.02273 0.0
C1886 C 0.42863 0.3656 0.02236 0.0
C1887 C 0.43321 0.36003 0.01111 0.0
H1888 H 0.41667 0.38219 0.03145 0.0
H1889 H 0.45231 0.3261 0.91985 0.0
H1890 H 0.17377 0.71184 0.04628 0.0
H1891 H 0.14873 0.67804 0.0376 0.0
H1892 H 0.10314 0.68381 0.05519 0.0
H1893 H 0.12804 0.71779 0.06376 0.0
H1894 H 0.10173 0.64865 0.05888 0.0
H1895 H 0.10448 0.68558 0.02467 0.0
H1896 H 0.12073 0.70921 0.00931 0.0
H1897 H 0.14362 0.67283 0.99464 0.0
H1898 H 0.12773 0.64911 0.01004 0.0
H1899 H 0.01983 0.5596 0.02728 0.0
H1900 H 0.04273 0.59431 0.03547 0.0
H1901 H 0.09031 0.59322 0.01738 0.0
H1902 H 0.06749 0.5587 0.00897 0.0
H1903 H 0.08947 0.62649 0.01393 0.0
H1904 H 0.08793 0.59029 0.04856 0.0
H1905 H 0.07168 0.5665 0.06385 0.0
H1906 H 0.04672 0.60142 0.07773 0.0
H1907 H 0.0626 0.62529 0.06239 0.0
C1908 C 0.15837 0.70607 0.04814 0.0
C1909 C 0.15292 0.71755 0.05571 0.0
C1910 C 0.14408 0.68671 0.04321 0.0
C1911 C 0.12406 0.67847 0.0457 0.0
C1912 C 0.11853 0.68988 0.0532 0.0
C1913 C 0.1328 0.70927 0.05811 0.0
C1914 C 0.10901 0.65776 0.0407 0.0
C1915 C 0.09881 0.64386 0.04904 0.0
C1916 C 0.10553 0.65145 0.02789 0.0
C1917 C 0.11506 0.66566 0.01859 0.0
C1918 C 0.11312 0.6827 0.01824 0.0
C1919 C 0.12224 0.69609 0.00951 0.0
C1920 C 0.13324 0.69255 1.00102 0.0
C1921 C 0.13511 0.67557 1.00123 0.0
C1922 C 0.12603 0.66213 0.00995 0.0
C1923 C 0.03518 0.56671 0.02508 0.0
C1924 C 0.04183 0.55634 0.01749 0.0
C1925 C 0.04827 0.58654 0.02979 0.0
C1926 C 0.06828 0.5963 0.02712 0.0
C1927 C 0.07493 0.58599 0.01954 0.0
C1928 C 0.06186 0.56622 0.01478 0.0
C1929 C 0.08232 0.61732 0.03211 0.0
C1930 C 0.09233 0.63129 0.02377 0.0
C1931 C 0.08565 0.62367 0.04492 0.0
C1932 C 0.07628 0.60947 0.05424 0.0
C1933 C 0.07886 0.59282 0.05482 0.0
C1934 C 0.06973 0.57933 0.0635 0.0
C1935 C 0.05813 0.58241 0.07173 0.0
C1936 C 0.05569 0.59904 0.07133 0.0
C1937 C 0.06476 0.61256 0.06265 0.0
H1938 H 0.05106 0.57194 0.07843 0.0
H1939 H 0.14029 0.70293 0.99427 0.0
H1940 H 0.31522 0.4718 0.06435 0.0
H1941 H 0.34393 0.47933 0.05295 0.0
H1942 H 0.3527 0.43615 0.07116 0.0
H1943 H 0.32317 0.42742 0.08206 0.0
H1944 H 0.38907 0.47877 0.06996 0.0
H1945 H 0.33453 0.42031 0.04547 0.0
H1946 H 0.30079 0.40133 0.03413 0.0
H1947 H 0.3162 0.44771 0.01019 0.0
H1948 H 0.34996 0.46712 0.02152 0.0
H1949 H 0.46103 0.47443 0.03531 0.0
H1950 H 0.4323 0.46662 0.04672 0.0
H1951 H 0.40855 0.48799 0.01834 0.0
H1952 H 0.43694 0.49488 0.00656 0.0
H1953 H 0.37948 0.45715 0.02504 0.0
H1954 H 0.43359 0.51534 0.04771 0.0
H1955 H 0.46722 0.53664 0.05881 0.0
H1956 H 0.45321 0.49534 0.08616 0.0
H1957 H 0.41967 0.47345 0.07503 0.0
C1958 C 0.32293 0.46356 0.06583 0.0
C1959 C 0.31657 0.44881 0.07413 0.0
C1960 C 0.33952 0.4681 0.05938 0.0
C1961 C 0.3504 0.45831 0.06124 0.0
C1962 C 0.34453 0.44395 0.06968 0.0
C1963 C 0.32767 0.43908 0.07596 0.0
C1964 C 0.36763 0.46276 0.05412 0.0
C1965 C 0.38707 0.47386 0.06017 0.0
C1966 C 0.36491 0.45696 0.04128 0.0
C1967 C 0.34467 0.44526 0.03443 0.0
C1968 C 0.33065 0.42655 0.03787 0.0
C1969 C 0.31155 0.41569 0.03143 0.0
C1970 C 0.30634 0.42334 0.02147 0.0
C1971 C 0.32025 0.44183 0.01792 0.0
C1972 C 0.33937 0.45275 0.02434 0.0
C1973 C 0.44971 0.47752 0.03152 0.0
C1974 C 0.45132 0.48546 0.02011 0.0
C1975 C 0.4333 0.47313 0.03809 0.0
C1976 C 0.4184 0.47716 0.0336 0.0
C1977 C 0.41984 0.48481 0.02207 0.0
C1978 C 0.43607 0.48877 0.01534 0.0
C1979 C 0.40125 0.47315 0.04084 0.0
C1980 C 0.3817 0.46216 0.03482 0.0
C1981 C 0.40396 0.47946 0.05368 0.0
C1982 C 0.42414 0.49263 0.06044 0.0
C1983 C 0.43773 0.51068 0.05602 0.0
C1984 C 0.4568 0.52285 0.06232 0.0
C1985 C 0.4624 0.51727 0.07315 0.0
C1986 C 0.4489 0.49955 0.07772 0.0
C1987 C 0.42986 0.48724 0.07142 0.0
H1988 H 0.47716 0.52672 0.07802 0.0
H1989 H 0.29154 0.41491 0.0165 0.0
H1990 H 0.56109 0.85229 0.05242 0.0
H1991 H 0.54798 0.87071 0.04161 0.0
H1992 H 0.6017 0.92608 0.05485 0.0
H1993 H 0.61486 0.90768 0.06578 0.0
H1994 H 0.56937 0.92907 0.05742 0.0
H1995 H 0.5935 0.90532 0.02478 0.0
H1996 H 0.5968 0.88018 0.01181 0.0
H1997 H 0.53376 0.84934 1.00009 0.0
H1998 H 0.53003 0.87415 0.01313 0.0
H1999 H 0.55419 0.99111 0.01952 0.0
H2000 H 0.56803 0.97195 0.02843 0.0
H2001 H 0.51354 0.91723 0.01533 0.0
H2002 H 0.49973 0.9364 0.00603 0.0
H2003 H 0.54594 0.91359 0.01258 0.0
H2004 H 0.52248 0.93847 0.04546 0.0
H2005 H 0.52028 0.96443 0.05835 0.0
H2006 H 0.58342 0.99395 0.06952 0.0
H2007 H 0.58608 0.96839 0.05656 0.0
C2008 C 0.57019 0.86838 0.05293 0.0
C2009 C 0.58906 0.87856 0.05988 0.0
C2010 C 0.56268 0.87888 0.04675 0.0
C2011 C 0.57399 0.89974 0.04727 0.0
C2012 C 0.59275 0.90997 0.05431 0.0
C2013 C 0.60023 0.89947 0.06056 0.0
C2014 C 0.56603 0.91091 0.04071 0.0
C2015 C 0.5645 0.92587 0.04758 0.0
C2016 C 0.55924 0.90639 0.02793 0.0
C2017 C 0.56146 0.89149 0.02003 0.0
C2018 C 0.58031 0.89309 0.01951 0.0
C2019 C 0.58227 0.87892 0.01214 0.0
C2020 C 0.56549 0.86315 0.00515 0.0
C2021 C 0.54674 0.86155 0.00551 0.0
C2022 C 0.5447 0.87568 0.01289 0.0
C2023 C 0.54517 0.97499 0.01846 0.0
C2024 C 0.52577 0.96524 0.0122 0.0
C2025 C 0.55308 0.96406 0.0236 0.0
C2026 C 0.54162 0.9432 0.02281 0.0
C2027 C 0.52257 0.93334 0.01612 0.0
C2028 C 0.5147 0.94429 0.01082 0.0
C2029 C 0.54938 0.9318 0.02928 0.0
C2030 C 0.5508 0.91676 0.02242 0.0
C2031 C 0.55618 0.93631 0.04207 0.0
C2032 C 0.5545 0.95158 0.04996 0.0
C2033 C 0.53592 0.95057 0.0506 0.0
C2034 C 0.53459 0.96521 0.05793 0.0
C2035 C 0.55171 0.98083 0.06473 0.0
C2036 C 0.57018 0.98184 0.06424 0.0
C2037 C 0.57161 0.96728 0.05691 0.0
H2038 H 0.5507 0.99214 0.07042 0.0
H2039 H 0.56704 0.85218 0.99945 0.0
H2040 H 0.96113 0.21038 0.38482 0.0
H2041 H 0.99044 0.22865 0.37364 0.0
H2042 H 0.02862 0.22988 0.40466 0.0
H2043 H 0.99938 0.21198 0.41597 0.0
H2044 H 0.04551 0.2645 0.3959 0.0
H2045 H 0.01471 0.19664 0.37799 0.0
H2046 H 0.98715 0.16449 0.36793 0.0
H2047 H 0.9816 0.19333 0.33673 0.0
H2048 H 0.00894 0.22572 0.34669 0.0
H2049 H 0.13193 0.29218 0.36585 0.0
H2050 H 0.10207 0.27271 0.37618 0.0
H2051 H 0.06523 0.27349 0.34509 0.0
H2052 H 0.09516 0.29252 0.33448 0.0
H2053 H 0.04757 0.23801 0.35372 0.0
H2054 H 0.07828 0.30618 0.37228 0.0
H2055 H 0.106 0.33802 0.38263 0.0
H2056 H 0.1125 0.30773 0.41271 0.0
H2057 H 0.08478 0.27571 0.40257 0.0
C2058 C 0.97579 0.21456 0.38924 0.0
C2059 C 0.97797 0.2097 0.40125 0.0
C2060 C 0.99252 0.22494 0.38283 0.0
C2061 C 0.01173 0.23034 0.38821 0.0
C2062 C 0.01397 0.22586 0.40031 0.0
C2063 C 0.99726 0.21567 0.40677 0.0
C2064 C 0.02951 0.24063 0.38124 0.0
C2065 C 0.04602 0.25856 0.38674 0.0
C2066 C 0.03011 0.23312 0.36918 0.0
C2067 C 0.01374 0.21363 0.36314 0.0
C2068 C 0.00751 0.19615 0.36902 0.0
C2069 C 0.99195 0.17788 0.36333 0.0
C2070 C 0.98259 0.17687 0.35171 0.0
C2071 C 0.98883 0.19413 0.34574 0.0
C2072 C 0.00438 0.21245 0.3514 0.0
C2073 C 0.11746 0.28807 0.36114 0.0
C2074 C 0.1159 0.29402 0.34938 0.0
C2075 C 0.1004 0.27703 0.3671 0.0
C2076 C 0.08143 0.27207 0.36156 0.0
C2077 C 0.07973 0.27728 0.34959 0.0
C2078 C 0.09682 0.28812 0.34352 0.0
C2079 C 0.06351 0.26184 0.36839 0.0
C2080 C 0.04699 0.24394 0.36287 0.0
C2081 C 0.06294 0.2693 0.38047 0.0
C2082 C 0.07951 0.28855 0.38664 0.0
C2083 C 0.08566 0.30631 0.38109 0.0
C2084 C 0.10133 0.32438 0.38693 0.0
C2085 C 0.11093 0.32488 0.39835 0.0
C2086 C 0.10497 0.30731 0.40391 0.0
C2087 C 0.08923 0.28921 0.39814 0.0
H2088 H 0.12291 0.3389 0.40291 0.0
H2089 H 0.97054 0.16272 0.34732 0.0
H2090 H 0.84325 0.8063 0.3886 0.0
H2091 H 0.81819 0.81337 0.3795 0.0
H2092 H 0.77197 0.76348 0.39542 0.0
H2093 H 0.79688 0.75566 0.40407 0.0
H2094 H 0.75917 0.76449 0.37253 0.0
H2095 H 0.79071 0.81212 0.40816 0.0
H2096 H 0.81887 0.83862 0.42217 0.0
H2097 H 0.83615 0.87721 0.39314 0.0
H2098 H 0.80824 0.85082 0.37889 0.0
H2099 H 0.68643 0.79502 0.36316 0.0
H2100 H 0.71008 0.78637 0.37286 0.0
H2101 H 0.75776 0.83191 0.35509 0.0
H2102 H 0.7343 0.84068 0.34536 0.0
H2103 H 0.76878 0.83254 0.37965 0.0
H2104 H 0.73703 0.78402 0.34399 0.0
H2105 H 0.70833 0.75737 0.33036 0.0
H2106 H 0.69072 0.72029 0.36015 0.0
H2107 H 0.71914 0.74685 0.37402 0.0
C2108 C 0.82773 0.79662 0.39005 0.0
C2109 C 0.82215 0.78039 0.39711 0.0
C2110 C 0.81342 0.80086 0.38496 0.0
C2111 C 0.79319 0.78917 0.38694 0.0
C2112 C 0.78749 0.77279 0.39382 0.0
C2113 C 0.8018 0.76845 0.39886 0.0
C2114 C 0.77807 0.79408 0.3818 0.0
C2115 C 0.76113 0.77929 0.37425 0.0
C2116 C 0.78072 0.81348 0.38386 0.0
C2117 C 0.79748 0.82942 0.39242 0.0
C2118 C 0.8006 0.8262 0.40473 0.0
C2119 C 0.8165 0.84121 0.41272 0.0
C2120 C 0.82931 0.85957 0.40854 0.0
C2121 C 0.82622 0.86297 0.39636 0.0
C2122 C 0.81035 0.848 0.38833 0.0
C2123 C 0.70195 0.80323 0.36132 0.0
C2124 C 0.70843 0.81852 0.35344 0.0
C2125 C 0.71543 0.7982 0.36684 0.0
C2126 C 0.73566 0.80839 0.36462 0.0
C2127 C 0.74222 0.82384 0.35692 0.0
C2128 C 0.72875 0.82879 0.35133 0.0
C2129 C 0.75004 0.80301 0.37032 0.0
C2130 C 0.76681 0.81773 0.37799 0.0
C2131 C 0.74715 0.78352 0.36843 0.0
C2132 C 0.7301 0.76751 0.36008 0.0
C2133 C 0.72694 0.77025 0.34766 0.0
C2134 C 0.71074 0.75515 0.33989 0.0
C2135 C 0.69769 0.73717 0.34439 0.0
C2136 C 0.70083 0.73424 0.35668 0.0
C2137 C 0.71699 0.74931 0.3645 0.0
H2138 H 0.68517 0.72549 0.33836 0.0
H2139 H 0.84162 0.87118 0.41474 0.0
H2140 H 0.25536 0.04705 0.39976 0.0
H2141 H 0.24414 0.01327 0.39069 0.0
H2142 H 0.25656 0.03415 0.35473 0.0
H2143 H 0.26919 0.06839 0.36379 0.0
H2144 H 0.21258 0.99781 0.36149 0.0
H2145 H 0.28419 0.02296 0.35974 0.0
H2146 H 0.31918 0.04034 0.36921 0.0
H2147 H 0.30296 0.99888 0.39661 0.0
H2148 H 0.26779 0.98144 0.3874 0.0
H2149 H 0.18424 0.90392 0.32996 0.0
H2150 H 0.20047 0.93968 0.33638 0.0
H2151 H 0.22459 0.93112 0.3708 0.0
H2152 H 0.20941 0.89558 0.36402 0.0
H2153 H 0.25144 0.9628 0.36373 0.0
H2154 H 0.18188 0.93787 0.36759 0.0
H2155 H 0.14568 0.9202 0.36085 0.0
H2156 H 0.15566 0.96011 0.333 0.0
H2157 H 0.19198 0.97788 0.33947 0.0
C2158 C 0.25632 0.04471 0.38998 0.0
C2159 C 0.26328 0.06061 0.38253 0.0
C2160 C 0.24969 0.02531 0.38481 0.0
C2161 C 0.24959 0.02137 0.37209 0.0
C2162 C 0.25658 0.03704 0.36459 0.0
C2163 C 0.26362 0.05655 0.36979 0.0
C2164 C 0.2412 0.00063 0.36664 0.0
C2165 C 0.22109 0.99015 0.36172 0.0
C2166 C 0.25221 0.99067 0.36749 0.0
C2167 C 0.27334 0.00106 0.37297 0.0
C2168 C 0.28805 0.01769 0.36786 0.0
C2169 C 0.30792 0.02752 0.37316 0.0
C2170 C 0.31328 0.02076 0.38353 0.0
C2171 C 0.29878 0.00412 0.38859 0.0
C2172 C 0.27889 0.99425 0.38333 0.0
C2173 C 0.19301 0.90973 0.33889 0.0
C2174 C 0.19553 0.89706 0.34654 0.0
C2175 C 0.20221 0.93014 0.34259 0.0
C2176 C 0.21346 0.93811 0.35419 0.0
C2177 C 0.21602 0.92539 0.3618 0.0
C2178 C 0.20729 0.90508 0.35795 0.0
C2179 C 0.22258 0.95965 0.35845 0.0
C2180 C 0.24283 0.97034 0.36328 0.0
C2181 C 0.21149 0.96969 0.35783 0.0
C2182 C 0.18966 0.95906 0.35393 0.0
C2183 C 0.17637 0.94279 0.35997 0.0
C2184 C 0.15583 0.93277 0.3562 0.0
C2185 C 0.14838 0.93899 0.34648 0.0
C2186 C 0.16146 0.95529 0.34052 0.0
C2187 C 0.18202 0.96535 0.34423 0.0
H2188 H 0.13247 0.93122 0.34358 0.0
H2189 H 0.32867 0.02838 0.38762 0.0
H2190 H 0.51435 0.61036 0.29499 0.0
H2191 H 0.53935 0.64408 0.30381 0.0
H2192 H 0.55395 0.66119 0.26728 0.0
H2193 H 0.52812 0.62794 0.25823 0.0
H2194 H 0.58837 0.67283 0.28929 0.0
H2195 H 0.52883 0.67637 0.27542 0.0
H2196 H 0.49263 0.66434 0.27451 0.0
H2197 H 0.49712 0.67318 0.31414 0.0
H2198 H 0.53331 0.68496 0.31529 0.0
H2199 H 0.64534 0.77812 0.3028 0.0
H2200 H 0.6227 0.74401 0.29336 0.0
H2201 H 0.58759 0.73231 0.32438 0.0
H2202 H 0.60963 0.76654 0.33356 0.0
H2203 H 0.56358 0.71713 0.30485 0.0
H2204 H 0.62107 0.71452 0.32012 0.0
H2205 H 0.65683 0.72473 0.32315 0.0
H2206 H 0.65656 0.71205 0.28418 0.0
H2207 H 0.62083 0.70207 0.28089 0.0
C2208 C 0.52267 0.62127 0.28877 0.0
C2209 C 0.51896 0.61633 0.27585 0.0
C2210 C 0.53713 0.64047 0.29386 0.0
C2211 C 0.54843 0.655 0.28617 0.0
C2212 C 0.54542 0.65005 0.27334 0.0
C2213 C 0.53069 0.63096 0.26821 0.0
C2214 C 0.56246 0.67571 0.29152 0.0
C2215 C 0.58308 0.6827 0.29256 0.0
C2216 C 0.55538 0.68817 0.29614 0.0
C2217 C 0.5337 0.68133 0.29544 0.0
C2218 C 0.52205 0.67556 0.28394 0.0
C2219 C 0.50155 0.66883 0.28338 0.0
C2220 C 0.49257 0.66794 0.29426 0.0
C2221 C 0.50409 0.67384 0.30573 0.0
C2222 C 0.52459 0.68056 0.30633 0.0
C2223 C 0.6328 0.76824 0.3076 0.0
C2224 C 0.62925 0.77499 0.31891 0.0
C2225 C 0.61992 0.74871 0.30223 0.0
C2226 C 0.60356 0.73544 0.30824 0.0
C2227 C 0.60005 0.74223 0.31954 0.0
C2228 C 0.61269 0.76182 0.32479 0.0
C2229 C 0.5898 0.7146 0.30266 0.0
C2230 C 0.5691 0.70747 0.30159 0.0
C2231 C 0.59686 0.70188 0.29831 0.0
C2232 C 0.61832 0.70775 0.30024 0.0
C2233 C 0.62867 0.71405 0.31218 0.0
C2234 C 0.64893 0.71978 0.31395 0.0
C2235 C 0.65898 0.71908 0.30386 0.0
C2236 C 0.64876 0.71261 0.29198 0.0
C2237 C 0.6285 0.70691 0.29016 0.0
H2238 H 0.67466 0.72352 0.30525 0.0
H2239 H 0.47669 0.66272 0.29381 0.0
H2240 H 0.34487 0.87674 0.25521 0.0
H2241 H 0.31464 0.86963 0.26495 0.0
H2242 H 0.34813 0.88635 0.30093 0.0
H2243 H 0.37856 0.89432 0.29133 0.0
H2244 H 0.31179 0.84899 0.29875 0.0
H2245 H 0.33566 0.91708 0.29016 0.0
H2246 H 0.34686 0.94439 0.27675 0.0
H2247 H 0.29045 0.91257 0.25423 0.0
H2248 H 0.27901 0.88492 0.26741 0.0
H2249 H 0.23924 0.84887 0.33568 0.0
H2250 H 0.26951 0.85691 0.32572 0.0
H2251 H 0.23924 0.85477 0.29054 0.0
H2252 H 0.20939 0.84776 0.30057 0.0
H2253 H 0.27413 0.88446 0.29194 0.0
H2254 H 0.2495 0.81648 0.2993 0.0
H2255 H 0.23734 0.7876 0.31146 0.0
H2256 H 0.29328 0.81643 0.33451 0.0
H2257 H 0.30569 0.8456 0.32259 0.0
C2258 C 0.34595 0.87928 0.26518 0.0
C2259 C 0.36426 0.88602 0.27245 0.0
C2260 C 0.32859 0.87507 0.27074 0.0
C2261 C 0.32913 0.87739 0.28367 0.0
C2262 C 0.34734 0.88428 0.29094 0.0
C2263 C 0.36473 0.88873 0.28541 0.0
C2264 C 0.31066 0.87232 0.28968 0.0
C2265 C 0.30364 0.85687 0.29739 0.0
C2266 C 0.29973 0.88219 0.28758 0.0
C2267 C 0.30656 0.89884 0.27969 0.0
C2268 C 0.32571 0.91583 0.28228 0.0
C2269 C 0.33209 0.93138 0.27474 0.0
C2270 C 0.3194 0.93019 0.26463 0.0
C2271 C 0.30028 0.91346 0.26206 0.0
C2272 C 0.29383 0.89785 0.26957 0.0
C2273 C 0.23904 0.85001 0.32581 0.0
C2274 C 0.22192 0.84766 0.31892 0.0
C2275 C 0.25634 0.85452 0.32009 0.0
C2276 C 0.25669 0.85618 0.30729 0.0
C2277 C 0.23948 0.85365 0.30041 0.0
C2278 C 0.22236 0.84957 0.30616 0.0
C2279 C 0.27505 0.861 0.30109 0.0
C2280 C 0.28213 0.87644 0.29332 0.0
C2281 C 0.28583 0.85084 0.30295 0.0
C2282 C 0.27844 0.83331 0.31012 0.0
C2283 C 0.25915 0.81672 0.30702 0.0
C2284 C 0.25223 0.80029 0.31386 0.0
C2285 C 0.26451 0.8002 0.32377 0.0
C2286 C 0.28377 0.81653 0.32684 0.0
C2287 C 0.29077 0.83301 0.32004 0.0
H2288 H 0.25912 0.78746 0.32906 0.0
H2289 H 0.32436 0.94226 0.2588 0.0
H2290 H 0.09475 0.4769 0.29013 0.0
H2291 H 0.10868 0.45818 0.29959 0.0
H2292 H 0.05794 0.40302 0.28277 0.0
H2293 H 0.04344 0.42165 0.2736 0.0
H2294 H 0.06898 0.39957 0.30627 0.0
H2295 H 0.1008 0.42309 0.26955 0.0
H2296 H 0.11912 0.44822 0.25537 0.0
H2297 H 0.16877 0.48002 0.28342 0.0
H2298 H 0.15063 0.45522 0.29783 0.0
H2299 H 0.14421 0.36094 0.30196 0.0
H2300 H 0.12749 0.37798 0.2937 0.0
H2301 H 0.1199 0.39425 0.33074 0.0
H2302 H 0.13637 0.37691 0.33912 0.0
H2303 H 0.13692 0.41579 0.29642 0.0
H2304 H 0.07584 0.39487 0.33 0.0
H2305 H 0.05642 0.3677 0.34273 0.0
H2306 H 0.06312 0.32653 0.31815 0.0
H2307 H 0.08232 0.35338 0.30518 0.0
C2308 C 0.08631 0.46077 0.28863 0.0
C2309 C 0.06799 0.45077 0.28107 0.0
C2310 C 0.0944 0.4501 0.29396 0.0
C2311 C 0.08448 0.42924 0.29174 0.0
C2312 C 0.06587 0.41913 0.28456 0.0
C2313 C 0.0577 0.4298 0.27924 0.0
C2314 C 0.09403 0.41813 0.29644 0.0
C2315 C 0.08384 0.40311 0.30414 0.0
C2316 C 0.11327 0.42253 0.29348 0.0
C2317 C 0.12428 0.4374 0.2848 0.0
C2318 C 0.11557 0.43552 0.27272 0.0
C2319 C 0.12593 0.4497 0.26464 0.0
C2320 C 0.14508 0.46573 0.2685 0.0
C2321 C 0.15393 0.4676 0.28044 0.0
C2322 C 0.14362 0.45348 0.28857 0.0
C2323 C 0.13902 0.36814 0.30839 0.0
C2324 C 0.1416 0.36752 0.32122 0.0
C2325 C 0.12949 0.37792 0.30363 0.0
C2326 C 0.12229 0.38722 0.31159 0.0
C2327 C 0.12507 0.38689 0.32442 0.0
C2328 C 0.13458 0.37706 0.3292 0.0
C2329 C 0.11202 0.39739 0.30641 0.0
C2330 C 0.12208 0.41226 0.2986 0.0
C2331 C 0.09252 0.39254 0.30908 0.0
C2332 C 0.08069 0.3762 0.3167 0.0
C2333 C 0.07309 0.38 0.32729 0.0
C2334 C 0.06213 0.36466 0.33455 0.0
C2335 C 0.0586 0.34542 0.33128 0.0
C2336 C 0.06593 0.34146 0.32071 0.0
C2337 C 0.07687 0.35674 0.3134 0.0
H2338 H 0.05013 0.33357 0.33692 0.0
H2339 H 0.15307 0.47669 0.26223 0.0
H2340 H 0.33567 0.44758 0.25238 0.0
H2341 H 0.30662 0.43056 0.26384 0.0
H2342 H 0.34455 0.45633 0.29827 0.0
H2343 H 0.37385 0.4722 0.28692 0.0
H2344 H 0.31854 0.42008 0.30063 0.0
H2345 H 0.31396 0.47445 0.28552 0.0
H2346 H 0.31303 0.49572 0.26986 0.0
H2347 H 0.26016 0.44569 0.25056 0.0
H2348 H 0.26091 0.42406 0.26603 0.0
H2349 H 0.23549 0.3954 0.33632 0.0
H2350 H 0.26573 0.41625 0.32625 0.0
H2351 H 0.23536 0.38302 0.29102 0.0
H2352 H 0.20542 0.36208 0.30097 0.0
H2353 H 0.25805 0.42521 0.29029 0.0
H2354 H 0.26441 0.37089 0.30511 0.0
H2355 H 0.26536 0.35015 0.32113 0.0
H2356 H 0.31534 0.40165 0.34158 0.0
H2357 H 0.31448 0.42277 0.32577 0.0
C2358 C 0.33794 0.44941 0.26239 0.0
C2359 C 0.3572 0.46147 0.26868 0.0
C2360 C 0.32121 0.43989 0.26895 0.0
C2361 C 0.32327 0.44252 0.28195 0.0
C2362 C 0.3425 0.45419 0.28826 0.0
C2363 C 0.35926 0.46347 0.28171 0.0
C2364 C 0.30543 0.43299 0.28899 0.0
C2365 C 0.30548 0.42153 0.29849 0.0
C2366 C 0.28819 0.4346 0.28614 0.0
C2367 C 0.28759 0.4476 0.27688 0.0
C2368 C 0.3022 0.46796 0.2779 0.0
C2369 C 0.3017 0.48008 0.26906 0.0
C2370 C 0.28657 0.47205 0.25921 0.0
C2371 C 0.27187 0.45189 0.2582 0.0
C2372 C 0.27232 0.43969 0.267 0.0
C2373 C 0.23525 0.39275 0.32642 0.0
C2374 C 0.21819 0.37705 0.31944 0.0
C2375 C 0.2525 0.40459 0.32069 0.0
C2376 C 0.25277 0.40107 0.3079 0.0
C2377 C 0.23545 0.38597 0.30088 0.0
C2378 C 0.21841 0.37396 0.3066 0.0
C2379 C 0.27127 0.41237 0.30181 0.0
C2380 C 0.27127 0.42406 0.29249 0.0
C2381 C 0.28861 0.41113 0.30488 0.0
C2382 C 0.28922 0.39844 0.31434 0.0
C2383 C 0.27548 0.37782 0.31308 0.0
C2384 C 0.27602 0.36599 0.32211 0.0
C2385 C 0.29036 0.37459 0.33239 0.0
C2386 C 0.30422 0.39502 0.33363 0.0
C2387 C 0.30371 0.40693 0.32464 0.0
H2388 H 0.29076 0.3654 0.33936 0.0
H2389 H 0.28621 0.48146 0.25238 0.0
H2390 H 0.54723 0.90563 0.25592 0.0
H2391 H 0.5703 0.89736 0.26675 0.0
H2392 H 0.52243 0.85499 0.28589 0.0
H2393 H 0.49883 0.86199 0.27453 0.0
H2394 H 0.565 0.88878 0.30029 0.0
H2395 H 0.53026 0.83265 0.26784 0.0
H2396 H 0.51861 0.81874 0.24604 0.0
H2397 H 0.57912 0.85042 0.2367 0.0
H2398 H 0.59107 0.86477 0.25844 0.0
H2399 H 0.60938 0.84072 0.33074 0.0
H2400 H 0.58667 0.84893 0.31944 0.0
H2401 H 0.62299 0.86331 0.28893 0.0
H2402 H 0.64517 0.85409 0.29997 0.0
H2403 H 0.58687 0.84504 0.27982 0.0
H2404 H 0.62329 0.89995 0.31062 0.0
H2405 H 0.63772 0.91737 0.33152 0.0
H2406 H 0.57873 0.89343 0.34312 0.0
H2407 H 0.56394 0.87564 0.32233 0.0
C2408 C 0.5414 0.89426 0.26224 0.0
C2409 C 0.52098 0.88447 0.26424 0.0
C2410 C 0.55472 0.88973 0.26852 0.0
C2411 C 0.54802 0.8756 0.2771 0.0
C2412 C 0.52785 0.86603 0.27933 0.0
C2413 C 0.51442 0.87021 0.27287 0.0
C2414 C 0.56208 0.87073 0.28368 0.0
C2415 C 0.56964 0.87902 0.29592 0.0
C2416 C 0.56868 0.85869 0.27775 0.0
C2417 C 0.56151 0.84997 0.26472 0.0
C2418 C 0.54104 0.83682 0.26111 0.0
C2419 C 0.53439 0.82881 0.24878 0.0
C2420 C 0.54811 0.83374 0.23998 0.0
C2421 C 0.56851 0.84664 0.24352 0.0
C2422 C 0.57522 0.85471 0.25584 0.0
C2423 C 0.61254 0.84565 0.32163 0.0
C2424 C 0.62913 0.84686 0.31627 0.0
C2425 C 0.5996 0.85048 0.31519 0.0
C2426 C 0.60328 0.8572 0.3034 0.0
C2427 C 0.61978 0.85822 0.298 0.0
C2428 C 0.6325 0.85298 0.30434 0.0
C2429 C 0.58978 0.86285 0.29666 0.0
C2430 C 0.58235 0.85481 0.28431 0.0
C2431 C 0.58371 0.87559 0.30242 0.0
C2432 C 0.59252 0.88631 0.31494 0.0
C2433 C 0.6134 0.89828 0.31765 0.0
C2434 C 0.62164 0.90824 0.32948 0.0
C2435 C 0.60915 0.90647 0.33866 0.0
C2436 C 0.58839 0.89477 0.33601 0.0
C2437 C 0.58006 0.88476 0.3242 0.0
H2438 H 0.61556 0.91419 0.34781 0.0
H2439 H 0.54293 0.82753 0.23043 0.0
H2440 H 0.08907 0.6253 0.2745 0.0
H2441 H 0.10283 0.65961 0.28335 0.0
H2442 H 0.08139 0.63922 0.31829 0.0
H2443 H 0.06657 0.60455 0.30927 0.0
H2444 H 0.07542 0.66923 0.31303 0.0
H2445 H 0.13055 0.65797 0.31417 0.0
H2446 H 0.15305 0.64709 0.30608 0.0
H2447 H 0.17007 0.6902 0.27969 0.0
H2448 H 0.14744 0.70115 0.2875 0.0
H2449 H 0.13778 0.76806 0.34383 0.0
H2450 H 0.1228 0.73226 0.33787 0.0
H2451 H 0.13592 0.74376 0.3003 0.0
H2452 H 0.15095 0.77953 0.30615 0.0
H2453 H 0.14677 0.71753 0.30916 0.0
H2454 H 0.08945 0.72714 0.3079 0.0
H2455 H 0.06728 0.73784 0.31676 0.0
H2456 H 0.0552 0.69762 0.34464 0.0
H2457 H 0.07756 0.6869 0.33607 0.0
C2458 C 0.08692 0.62801 0.28401 0.0
C2459 C 0.07665 0.61212 0.29117 0.0
C2460 C 0.09505 0.64769 0.2891 0.0
C2461 C 0.09346 0.65198 0.30154 0.0
C2462 C 0.0829 0.63622 0.30869 0.0
C2463 C 0.07459 0.61644 0.30355 0.0
C2464 C 0.103 0.67301 0.30699 0.0
C2465 C 0.0911 0.67973 0.31238 0.0
C2466 C 0.12344 0.68673 0.30606 0.0
C2467 C 0.13717 0.68027 0.30136 0.0
C2468 C 0.13898 0.66504 0.30658 0.0
C2469 C 0.15177 0.65887 0.30205 0.0
C2470 C 0.16295 0.66792 0.29236 0.0
C2471 C 0.16139 0.68319 0.28719 0.0
C2472 C 0.1486 0.6894 0.29168 0.0
C2473 C 0.13748 0.76298 0.3343 0.0
C2474 C 0.14552 0.77663 0.32545 0.0
C2475 C 0.12886 0.74252 0.33091 0.0
C2476 C 0.12815 0.7354 0.31863 0.0
C2477 C 0.13632 0.74899 0.30982 0.0
C2478 C 0.14485 0.76941 0.31318 0.0
C2479 C 0.11909 0.71379 0.31491 0.0
C2480 C 0.13113 0.70698 0.30989 0.0
C2481 C 0.09887 0.7 0.31632 0.0
C2482 C 0.08535 0.70638 0.32142 0.0
C2483 C 0.08221 0.7207 0.31599 0.0
C2484 C 0.06958 0.72675 0.32094 0.0
C2485 C 0.05988 0.71845 0.33127 0.0
C2486 C 0.06275 0.70406 0.33665 0.0
C2487 C 0.07539 0.69798 0.33174 0.0
H2488 H 0.05009 0.72312 0.33509 0.0
H2489 H 0.17285 0.66313 0.28887 0.0
H2490 H 0.79439 0.05071 0.40019 0.0
H2491 H 0.76956 0.01663 0.39191 0.0
H2492 H 0.81143 0.01491 0.36824 0.0
H2493 H 0.8369 0.04851 0.37698 0.0
H2494 H 0.76762 -6e-05 0.35738 0.0
H2495 H 0.80928 0.9935 0.39027 0.0
H2496 H 0.82519 0.00065 0.41168 0.0
H2497 H 0.76753 0.97592 0.42534 0.0
H2498 H 0.75131 0.96893 0.40399 0.0
H2499 H 0.72464 0.89884 0.33623 0.0
H2500 H 0.74716 0.93339 0.34458 0.0
H2501 H 0.71498 0.9235 0.37687 0.0
H2502 H 0.69291 0.88848 0.36877 0.0
H2503 H 0.75228 0.94529 0.3839 0.0
H2504 H 0.70944 0.94926 0.35256 0.0
H2505 H 0.69131 0.94302 0.33189 0.0
H2506 H 0.74714 0.97323 0.3161 0.0
H2507 H 0.76562 0.97941 0.33665 0.0
C2508 C 0.79849 0.04309 0.39332 0.0
C2509 C 0.81784 0.05241 0.38939 0.0
C2510 C 0.78417 0.02368 0.38852 0.0
C2511 C 0.78876 0.01334 0.37952 0.0
C2512 C 0.80765 0.02277 0.37516 0.0
C2513 C 0.82214 0.04204 0.38013 0.0
C2514 C 0.77412 0.99236 0.37506 0.0
C2515 C 0.76436 0.9879 0.36308 0.0
C2516 C 0.76939 0.97691 0.38274 0.0
C2517 C 0.77912 0.98092 0.39555 0.0
C2518 C 0.80002 0.98978 0.39784 0.0
C2519 C 0.80909 0.99376 0.40997 0.0
C2520 C 0.79738 0.9888 0.41987 0.0
C2521 C 0.77658 0.97979 0.41767 0.0
C2522 C 0.76745 0.97581 0.40556 0.0
C2523 C 0.72235 0.90402 0.34511 0.0
C2524 C 0.70693 0.89101 0.35181 0.0
C2525 C 0.73517 0.92383 0.34985 0.0
C2526 C 0.7325 0.93125 0.36122 0.0
C2527 C 0.71729 0.91818 0.36804 0.0
C2528 C 0.70469 0.89818 0.36341 0.0
C2529 C 0.74581 0.95257 0.36602 0.0
C2530 C 0.75534 0.9572 0.37812 0.0
C2531 C 0.74995 0.96824 0.35852 0.0
C2532 C 0.73891 0.96465 0.34614 0.0
C2533 C 0.71786 0.95446 0.34466 0.0
C2534 C 0.70752 0.95094 0.33297 0.0
C2535 C 0.71807 0.95768 0.32268 0.0
C2536 C 0.73899 0.968 0.32407 0.0
C2537 C 0.7494 0.97153 0.33575 0.0
H2538 H 0.71004 0.95495 0.31364 0.0
H2539 H 0.80443 0.99189 0.42925 0.0
H2540 H 0.98878 0.76083 0.4148 0.0
H2541 H 0.01833 0.76982 0.40385 0.0
H2542 H 0.00768 0.81107 0.38463 0.0
H2543 H 0.97893 0.80326 0.39602 0.0
H2544 H 0.01495 0.78194 0.36934 0.0
H2545 H 0.04184 0.83077 0.4057 0.0
H2546 H 0.04836 0.84084 0.42816 0.0
H2547 H 0.07938 0.80824 0.43245 0.0
H2548 H 0.07272 0.79767 0.41002 0.0
H2549 H 0.10377 0.83222 0.33997 0.0
H2550 H 0.07442 0.82315 0.3512 0.0
H2551 H 0.09907 0.80277 0.3797 0.0
H2552 H 0.12879 0.81288 0.36886 0.0
H2553 H 0.08395 0.82017 0.39054 0.0
H2554 H 0.05878 0.7706 0.35612 0.0
H2555 H 0.05206 0.75706 0.33419 0.0
H2556 H 0.01728 0.78511 0.32672 0.0
H2557 H 0.02411 0.79916 0.34856 0.0
C2558 C 0.99282 0.77207 0.40841 0.0
C2559 C 0.98123 0.78122 0.40635 0.0
C2560 C 0.00966 0.77704 0.40207 0.0
C2561 C 0.01512 0.79104 0.3934 0.0
C2562 C 0.0036 0.80009 0.39121 0.0
C2563 C 0.98702 0.79544 0.3977 0.0
C2564 C 0.03294 0.79641 0.38664 0.0
C2565 C 0.03008 0.79048 0.3739 0.0
C2566 C 0.05258 0.80686 0.39272 0.0
C2567 C 0.05655 0.81322 0.4062 0.0
C2568 C 0.04984 0.82555 0.41145 0.0
C2569 C 0.05361 0.83139 0.42417 0.0
C2570 C 0.06421 0.82512 0.43174 0.0
C2571 C 0.07112 0.81304 0.42659 0.0
C2572 C 0.06736 0.80713 0.41387 0.0
C2573 C 0.10288 0.82582 0.34864 0.0
C2574 C 0.1186 0.82334 0.35356 0.0
C2575 C 0.08602 0.82048 0.35503 0.0
C2576 C 0.08422 0.81189 0.36626 0.0
C2577 C 0.09999 0.8094 0.37112 0.0
C2578 C 0.11702 0.81519 0.3649 0.0
C2579 C 0.06616 0.80579 0.37307 0.0
C2580 C 0.0689 0.81156 0.38587 0.0
C2581 C 0.04636 0.7946 0.3671 0.0
C2582 C 0.04213 0.7861 0.35396 0.0
C2583 C 0.04982 0.77401 0.34978 0.0
C2584 C 0.04597 0.76622 0.33737 0.0
C2585 C 0.03427 0.77024 0.32907 0.0
C2586 C 0.02636 0.78203 0.33316 0.0
C2587 C 0.03021 0.78991 0.34556 0.0
H2588 H 0.03131 0.76419 0.31947 0.0
H2589 H 0.06713 0.82968 0.44158 0.0
H2590 H 0.28349 0.24512 0.39815 0.0
H2591 H 0.27035 0.26367 0.38743 0.0
H2592 H 0.21969 0.20834 0.37072 0.0
H2593 H 0.23261 0.18969 0.38148 0.0
H2594 H 0.23476 0.23612 0.35416 0.0
H2595 H 0.21462 0.23269 0.39529 0.0
H2596 H 0.21984 0.23689 0.41809 0.0
H2597 H 0.25873 0.29994 0.41769 0.0
H2598 H 0.25397 0.29607 0.39487 0.0
H2599 H 0.1706 0.27431 0.3368 0.0
H2600 H 0.18551 0.25554 0.34517 0.0
H2601 H 0.23495 0.31011 0.36375 0.0
H2602 H 0.22005 0.32887 0.35565 0.0
H2603 H 0.22045 0.28232 0.37911 0.0
H2604 H 0.24029 0.28602 0.33797 0.0
H2605 H 0.23513 0.28188 0.31518 0.0
H2606 H 0.19695 0.2187 0.31547 0.0
H2607 H 0.20167 0.22249 0.33829 0.0
C2608 C 0.26952 0.23691 0.39222 0.0
C2609 C 0.25904 0.21595 0.39071 0.0
C2610 C 0.26208 0.24752 0.38608 0.0
C2611 C 0.24395 0.23734 0.37839 0.0
C2612 C 0.23373 0.21645 0.37659 0.0
C2613 C 0.24116 0.20584 0.38273 0.0
C2614 C 0.23531 0.24847 0.37253 0.0
C2615 C 0.23141 0.24607 0.3596 0.0
C2616 C 0.2313 0.26168 0.37965 0.0
C2617 C 0.2341 0.26406 0.39337 0.0
C2618 C 0.22441 0.24743 0.40006 0.0
C2619 C 0.22726 0.24975 0.41299 0.0
C2620 C 0.23965 0.26867 0.41933 0.0
C2621 C 0.24916 0.2853 0.41276 0.0
C2622 C 0.24638 0.28305 0.39983 0.0
C2623 C 0.18473 0.28232 0.34258 0.0
C2624 C 0.19409 0.30306 0.34561 0.0
C2625 C 0.19327 0.27159 0.34732 0.0
C2626 C 0.2114 0.28146 0.35503 0.0
C2627 C 0.22093 0.3022 0.35785 0.0
C2628 C 0.21238 0.31289 0.35319 0.0
C2629 C 0.22003 0.27016 0.36069 0.0
C2630 C 0.22385 0.27245 0.37363 0.0
C2631 C 0.22398 0.25689 0.35357 0.0
C2632 C 0.22117 0.25457 0.33985 0.0
C2633 C 0.23066 0.27126 0.33318 0.0
C2634 C 0.22784 0.26897 0.32025 0.0
C2635 C 0.21568 0.25004 0.31388 0.0
C2636 C 0.20635 0.23335 0.32042 0.0
C2637 C 0.20911 0.23556 0.33335 0.0
H2638 H 0.21352 0.2483 0.30387 0.0
H2639 H 0.24183 0.27044 0.42934 0.0
H2640 H 0.66359 0.5511 0.74944 0.0
H2641 H 0.69236 0.57006 0.738 0.0
H2642 H 0.65473 0.54385 0.70354 0.0
H2643 H 0.62569 0.52548 0.71484 0.0
H2644 H 0.69221 0.54398 0.70452 0.0
H2645 H 0.66644 0.58833 0.71229 0.0
H2646 H 0.65504 0.60709 0.72528 0.0
H2647 H 0.71279 0.6388 0.7463 0.0
H2648 H 0.72443 0.61991 0.73361 0.0
H2649 H 0.76385 0.61079 0.66639 0.0
H2650 H 0.73351 0.58929 0.67611 0.0
H2651 H 0.76274 0.62246 0.71161 0.0
H2652 H 0.79245 0.64425 0.70193 0.0
H2653 H 0.72781 0.61794 0.70913 0.0
H2654 H 0.75412 0.57409 0.70263 0.0
H2655 H 0.76654 0.55545 0.69048 0.0
H2656 H 0.70975 0.52275 0.66843 0.0
H2657 H 0.69711 0.5415 0.68029 0.0
C2658 C 0.66132 0.54953 0.73944 0.0
C2659 C 0.64223 0.53673 0.7331 0.0
C2660 C 0.67783 0.56026 0.73292 0.0
C2661 C 0.67563 0.55831 0.71994 0.0
C2662 C 0.65674 0.54542 0.71356 0.0
C2663 C 0.64017 0.53487 0.72006 0.0
C2664 C 0.69299 0.57014 0.71303 0.0
C2665 C 0.6999 0.56016 0.70538 0.0
C2666 C 0.70319 0.5912 0.7144 0.0
C2667 C 0.69623 0.60255 0.72207 0.0
C2668 C 0.67665 0.59915 0.71977 0.0
C2669 C 0.67015 0.60982 0.72707 0.0
C2670 C 0.68316 0.62406 0.73664 0.0
C2671 C 0.70271 0.6277 0.73892 0.0
C2672 C 0.70927 0.61702 0.73167 0.0
C2673 C 0.76374 0.61334 0.67627 0.0
C2674 C 0.7804 0.62927 0.68338 0.0
C2675 C 0.74646 0.60103 0.68183 0.0
C2676 C 0.74582 0.60419 0.69463 0.0
C2677 C 0.76273 0.6198 0.70172 0.0
C2678 C 0.77975 0.63225 0.69616 0.0
C2679 C 0.72746 0.59188 0.70072 0.0
C2680 C 0.72022 0.60177 0.70822 0.0
C2681 C 0.71721 0.57075 0.69936 0.0
C2682 C 0.72474 0.55936 0.69226 0.0
C2683 C 0.74433 0.56304 0.69513 0.0
C2684 C 0.7514 0.55243 0.68831 0.0
C2685 C 0.73896 0.53794 0.67868 0.0
C2686 C 0.71939 0.534 0.67588 0.0
C2687 C 0.71226 0.54462 0.68264 0.0
H2688 H 0.74446 0.52974 0.67342 0.0
H2689 H 0.67812 0.63234 0.74227 0.0
H2690 H 0.51221 0.14363 0.72317 0.0
H2691 H 0.48664 0.14973 0.71374 0.0
H2692 H 0.4408 0.09799 0.72847 0.0
H2693 H 0.46623 0.09111 0.73737 0.0
H2694 H 0.4286 0.09894 0.70573 0.0
H2695 H 0.4573 0.14655 0.74148 0.0
H2696 H 0.48431 0.17368 0.75581 0.0
H2697 H 0.50112 0.2125 0.7269 0.0
H2698 H 0.47436 0.18551 0.71233 0.0
H2699 H 0.35254 0.12475 0.69514 0.0
H2700 H 0.37708 0.11756 0.70517 0.0
H2701 H 0.42398 0.16452 0.68774 0.0
H2702 H 0.39961 0.17184 0.67768 0.0
H2703 H 0.43475 0.16559 0.71248 0.0
H2704 H 0.40574 0.11689 0.67674 0.0
H2705 H 0.37803 0.08953 0.6629 0.0
H2706 H 0.36088 0.05249 0.69273 0.0
H2707 H 0.38834 0.07974 0.70679 0.0
C2708 C 0.49669 0.13336 0.7243 0.0
C2709 C 0.49137 0.11686 0.73107 0.0
C2710 C 0.48206 0.13704 0.71902 0.0
C2711 C 0.46177 0.12453 0.72055 0.0
C2712 C 0.45636 0.10794 0.72721 0.0
C2713 C 0.47097 0.10415 0.73241 0.0
C2714 C 0.44621 0.12865 0.71509 0.0
C2715 C 0.42982 0.11344 0.70737 0.0
C2716 C 0.44787 0.14764 0.71704 0.0
C2717 C 0.46394 0.16394 0.72579 0.0
C2718 C 0.46685 0.16082 0.73815 0.0
C2719 C 0.4821 0.17619 0.74632 0.0
C2720 C 0.49445 0.19479 0.74226 0.0
C2721 C 0.49155 0.19808 0.73003 0.0
C2722 C 0.47633 0.18276 0.72181 0.0
C2723 C 0.36807 0.13356 0.69342 0.0
C2724 C 0.37406 0.14884 0.68555 0.0
C2725 C 0.38207 0.12938 0.69915 0.0
C2726 C 0.40235 0.14041 0.69714 0.0
C2727 C 0.40842 0.15581 0.68942 0.0
C2728 C 0.39442 0.15992 0.68363 0.0
C2729 C 0.4173 0.13595 0.70309 0.0
C2730 C 0.43355 0.15109 0.7109 0.0
C2731 C 0.41541 0.11686 0.70131 0.0
C2732 C 0.39897 0.10043 0.69285 0.0
C2733 C 0.39596 0.10297 0.68037 0.0
C2734 C 0.38032 0.08747 0.67248 0.0
C2735 C 0.36767 0.0693 0.67694 0.0
C2736 C 0.37067 0.06658 0.68929 0.0
C2737 C 0.38628 0.08204 0.69722 0.0
H2738 H 0.35556 0.05732 0.67082 0.0
H2739 H 0.50625 0.20666 0.7486 0.0
H2740 H 0.95072 0.39416 0.7227 0.0
H2741 H 0.93815 0.35962 0.71424 0.0
H2742 H 0.88648 0.35807 0.69566 0.0
H2743 H 0.89868 0.39237 0.70433 0.0
H2744 H 0.87615 0.32598 0.70825 0.0
H2745 H 0.92325 0.36047 0.67943 0.0
H2746 H 0.95611 0.38426 0.67297 0.0
H2747 H 0.98224 0.35286 0.68991 0.0
H2748 H 0.94958 0.32903 0.69663 0.0
H2749 H 0.838 0.23403 0.67148 0.0
H2750 H 0.85225 0.2695 0.678 0.0
H2751 H 0.90415 0.27136 0.69647 0.0
H2752 H 0.89015 0.23592 0.68985 0.0
H2753 H 0.91451 0.30339 0.68366 0.0
H2754 H 0.8679 0.26948 0.7129 0.0
H2755 H 0.83516 0.24551 0.71942 0.0
H2756 H 0.80832 0.27588 0.70193 0.0
H2757 H 0.84086 0.29987 0.69515 0.0
C2758 C 0.93671 0.38645 0.71679 0.0
C2759 C 0.9257 0.39597 0.71416 0.0
C2760 C 0.92963 0.3668 0.71189 0.0
C2761 C 0.91145 0.35636 0.70426 0.0
C2762 C 0.90057 0.3659 0.70151 0.0
C2763 C 0.90765 0.38555 0.70637 0.0
C2764 C 0.90331 0.33518 0.69961 0.0
C2765 C 0.8844 0.32107 0.70272 0.0
C2766 C 0.91435 0.32878 0.69268 0.0
C2767 C 0.93401 0.34308 0.68864 0.0
C2768 C 0.93604 0.35874 0.68188 0.0
C2769 C 0.95462 0.37221 0.67815 0.0
C2770 C 0.97126 0.37011 0.68106 0.0
C2771 C 0.96934 0.35449 0.68768 0.0
C2772 C 0.9508 0.34099 0.69144 0.0
C2773 C 0.85246 0.24197 0.67691 0.0
C2774 C 0.8629 0.23213 0.68021 0.0
C2775 C 0.86056 0.26223 0.68065 0.0
C2776 C 0.87914 0.27297 0.68783 0.0
C2777 C 0.88977 0.2633 0.69094 0.0
C2778 C 0.88171 0.24304 0.68718 0.0
C2779 C 0.88733 0.29424 0.69227 0.0
C2780 C 0.90625 0.30834 0.68917 0.0
C2781 C 0.87634 0.30065 0.69924 0.0
C2782 C 0.85678 0.28635 0.70341 0.0
C2783 C 0.85499 0.27096 0.71036 0.0
C2784 C 0.83647 0.25738 0.71412 0.0
C2785 C 0.81966 0.25914 0.71106 0.0
C2786 C 0.82135 0.27452 0.70428 0.0
C2787 C 0.83983 0.28812 0.70048 0.0
H2788 H 0.80533 0.24861 0.71397 0.0
H2789 H 0.98563 0.38055 0.67816 0.0
H2790 H 0.20723 0.94359 0.60349 0.0
H2791 H 0.23247 0.9778 0.61138 0.0
H2792 H 0.18651 0.98726 0.62533 0.0
H2793 H 0.16112 0.95332 0.61709 0.0
H2794 H 0.21158 0.01818 0.61364 0.0
H2795 H 0.2178 0.97927 0.64458 0.0
H2796 H 0.22278 0.95272 0.65235 0.0
H2797 H 0.28063 0.97863 0.63888 0.0
H2798 H 0.27586 0.0052 0.63087 0.0
H2799 H 0.26718 0.10236 0.65712 0.0
H2800 H 0.245 0.06877 0.64702 0.0
H2801 H 0.29526 0.06809 0.63242 0.0
H2802 H 0.31773 0.10189 0.64255 0.0
H2803 H 0.27005 0.03329 0.64305 0.0
H2804 H 0.26459 0.07342 0.61325 0.0
H2805 H 0.25982 0.10039 0.60604 0.0
H2806 H 0.20067 0.07243 0.6177 0.0
H2807 H 0.20519 0.04539 0.62514 0.0
C2808 C 0.20248 0.95299 0.60817 0.0
C2809 C 0.18216 0.94571 0.60969 0.0
C2810 C 0.21695 0.97248 0.61277 0.0
C2811 C 0.21139 0.98502 0.61904 0.0
C2812 C 0.19113 0.97782 0.62054 0.0
C2813 C 0.17666 0.95835 0.61594 0.0
C2814 C 0.22663 0.00573 0.62395 0.0
C2815 C 0.22425 0.02146 0.62016 0.0
C2816 C 0.24349 0.01005 0.63218 0.0
C2817 C 0.24638 0.99409 0.637 0.0
C2818 C 0.23151 0.97921 0.64318 0.0
C2819 C 0.23431 0.96418 0.64764 0.0
C2820 C 0.25198 0.96395 0.64608 0.0
C2821 C 0.26692 0.9788 0.64006 0.0
C2822 C 0.26419 0.99386 0.63557 0.0
C2823 C 0.27358 0.09513 0.65176 0.0
C2824 C 0.29424 0.10481 0.65064 0.0
C2825 C 0.26085 0.07595 0.64595 0.0
C2826 C 0.26848 0.06604 0.63891 0.0
C2827 C 0.2891 0.07555 0.63781 0.0
C2828 C 0.30188 0.09486 0.64356 0.0
C2829 C 0.2548 0.04562 0.63286 0.0
C2830 C 0.25747 0.02998 0.63643 0.0
C2831 C 0.23819 0.04136 0.62444 0.0
C2832 C 0.23529 0.05746 0.61984 0.0
C2833 C 0.25061 0.07309 0.61436 0.0
C2834 C 0.24795 0.08838 0.61022 0.0
C2835 C 0.22997 0.08816 0.61144 0.0
C2836 C 0.2146 0.0726 0.61677 0.0
C2837 C 0.21719 0.05726 0.62093 0.0
H2838 H 0.22794 0.10003 0.60824 0.0
H2839 H 0.25413 0.95231 0.64955 0.0
H2840 H 0.02737 0.19073 0.61314 0.0
H2841 H 0.99779 0.18468 0.62301 0.0
H2842 H 0.9973 0.23312 0.6059 0.0
H2843 H 0.02786 0.2402 0.59662 0.0
H2844 H 0.98927 0.23475 0.62851 0.0
H2845 H 0.96342 0.18237 0.59559 0.0
H2846 H 0.96107 0.15407 0.58254 0.0
H2847 H 0.94946 0.12027 0.61386 0.0
H2848 H 0.952 0.14848 0.62714 0.0
H2849 H 0.88879 0.2049 0.64057 0.0
H2850 H 0.91832 0.21184 0.63011 0.0
H2851 H 0.92799 0.17254 0.65216 0.0
H2852 H 0.89851 0.1656 0.66279 0.0
H2853 H 0.93052 0.16649 0.62647 0.0
H2854 H 0.95687 0.22058 0.65918 0.0
H2855 H 0.95792 0.24905 0.67125 0.0
H2856 H 0.96691 0.27979 0.63867 0.0
H2857 H 0.96562 0.25136 0.62636 0.0
C2858 C 0.02122 0.20034 0.61157 0.0
C2859 C 0.03022 0.21605 0.60408 0.0
C2860 C 0.00402 0.19662 0.6171 0.0
C2861 C 0.99499 0.20819 0.61507 0.0
C2862 C 0.00387 0.22389 0.60759 0.0
C2863 C 0.02128 0.22779 0.60216 0.0
C2864 C 0.97656 0.20411 0.62097 0.0
C2865 C 0.97633 0.21986 0.62787 0.0
C2866 C 0.95967 0.18464 0.62034 0.0
C2867 C 0.95808 0.16761 0.61238 0.0
C2868 C 0.96051 0.16896 0.59971 0.0
C2869 C 0.95912 0.15292 0.59227 0.0
C2870 C 0.95517 0.1354 0.59737 0.0
C2871 C 0.95254 0.13386 0.60992 0.0
C2872 C 0.95393 0.14986 0.61741 0.0
C2873 C 0.89719 0.19773 0.64324 0.0
C2874 C 0.89127 0.18472 0.65257 0.0
C2875 C 0.91411 0.20177 0.63726 0.0
C2876 C 0.92543 0.1928 0.6404 0.0
C2877 C 0.91948 0.17964 0.64961 0.0
C2878 C 0.90267 0.17576 0.65571 0.0
C2879 C 0.9434 0.19707 0.63403 0.0
C2880 C 0.94349 0.18136 0.62703 0.0
C2881 C 0.96001 0.2166 0.63441 0.0
C2882 C 0.96095 0.23376 0.64182 0.0
C2883 C 0.95891 0.23334 0.65456 0.0
C2884 C 0.95958 0.24948 0.66146 0.0
C2885 C 0.96243 0.26619 0.65573 0.0
C2886 C 0.96468 0.26682 0.6431 0.0
C2887 C 0.964 0.25071 0.63616 0.0
H2888 H 0.96294 0.27867 0.66108 0.0
H2889 H 0.9541 0.123 0.5916 0.0
H2890 H 0.72203 0.76425 0.6077 0.0
H2891 H 0.73658 0.74689 0.61839 0.0
H2892 H 0.78689 0.80341 0.6339 0.0
H2893 H 0.77278 0.82087 0.62291 0.0
H2894 H 0.79896 0.7785 0.62515 0.0
H2895 H 0.75049 0.77526 0.65162 0.0
H2896 H 0.7172 0.76822 0.65686 0.0
H2897 H 0.69269 0.70618 0.6446 0.0
H2898 H 0.72579 0.71289 0.63911 0.0
H2899 H 0.83572 0.73444 0.66753 0.0
H2900 H 0.82217 0.7547 0.65964 0.0
H2901 H 0.77126 0.70173 0.64067 0.0
H2902 H 0.78455 0.68143 0.64848 0.0
H2903 H 0.76059 0.72678 0.65269 0.0
H2904 H 0.80833 0.73047 0.62493 0.0
H2905 H 0.84155 0.73726 0.61969 0.0
H2906 H 0.86733 0.79846 0.63449 0.0
H2907 H 0.83428 0.79195 0.64 0.0
C2908 C 0.73625 0.77297 0.61332 0.0
C2909 C 0.74622 0.79392 0.6145 0.0
C2910 C 0.74445 0.76305 0.61952 0.0
C2911 C 0.76269 0.77388 0.62706 0.0
C2912 C 0.77275 0.79478 0.62817 0.0
C2913 C 0.76458 0.80472 0.62198 0.0
C2914 C 0.77144 0.76338 0.63361 0.0
C2915 C 0.79071 0.76744 0.63134 0.0
C2916 C 0.76052 0.74872 0.64153 0.0
C2917 C 0.7406 0.74461 0.64486 0.0
C2918 C 0.73797 0.76014 0.64995 0.0
C2919 C 0.71914 0.7562 0.65298 0.0
C2920 C 0.70283 0.73677 0.65104 0.0
C2921 C 0.70533 0.72123 0.64609 0.0
C2922 C 0.72413 0.72508 0.64303 0.0
C2923 C 0.82158 0.72711 0.66175 0.0
C2924 C 0.81127 0.70635 0.65858 0.0
C2925 C 0.8139 0.73869 0.65723 0.0
C2926 C 0.79579 0.72968 0.64952 0.0
C2927 C 0.78524 0.70894 0.64662 0.0
C2928 C 0.79295 0.69739 0.65105 0.0
C2929 C 0.78797 0.74179 0.64412 0.0
C2930 C 0.76889 0.73801 0.6466 0.0
C2931 C 0.79904 0.75669 0.6364 0.0
C2932 C 0.81888 0.76067 0.633 0.0
C2933 C 0.82111 0.74534 0.62716 0.0
C2934 C 0.83991 0.74914 0.62413 0.0
C2935 C 0.85655 0.76826 0.62679 0.0
C2936 C 0.85443 0.78364 0.63246 0.0
C2937 C 0.83567 0.77991 0.63553 0.0
H2938 H 0.87109 0.77118 0.62444 0.0
H2939 H 0.68826 0.73375 0.65339 0.0
H2940 H 0.00295 0.77872 0.58739 0.0
H2941 H 0.97396 0.76165 0.59902 0.0
H2942 H 0.01328 0.77465 0.63233 0.0
H2943 H 0.04236 0.79138 0.62069 0.0
H2944 H 0.98143 0.73644 0.63005 0.0
H2945 H 0.99222 0.80247 0.62762 0.0
H2946 H 0.99715 0.83163 0.61715 0.0
H2947 H 0.93951 0.79621 0.59634 0.0
H2948 H 0.93436 0.76674 0.60656 0.0
H2949 H 0.9064 0.71346 0.67121 0.0
H2950 H 0.93694 0.73176 0.66104 0.0
H2951 H 0.90127 0.72246 0.62665 0.0
H2952 H 0.87083 0.7045 0.63671 0.0
H2953 H 0.93233 0.75986 0.63039 0.0
H2954 H 0.92192 0.69365 0.63206 0.0
H2955 H 0.91671 0.66422 0.64231 0.0
H2956 H 0.97329 0.69959 0.66428 0.0
H2957 H 0.9787 0.72933 0.65429 0.0
C2958 C 0.00542 0.7777 0.59715 0.0
C2959 C 0.02494 0.78648 0.60314 0.0
C2960 C 0.98885 0.76809 0.60381 0.0
C2961 C 0.99148 0.76713 0.61657 0.0
C2962 C 0.01092 0.77532 0.6225 0.0
C2963 C 0.02751 0.78499 0.61586 0.0
C2964 C 0.97395 0.75793 0.62378 0.0
C2965 C 0.97084 0.74173 0.63028 0.0
C2966 C 0.95997 0.76464 0.6239 0.0
C2967 C 0.96299 0.78236 0.61777 0.0
C2968 C 0.98066 0.80086 0.62074 0.0
C2969 C 0.98349 0.81745 0.61486 0.0
C2970 C 0.96868 0.81576 0.60606 0.0
C2971 C 0.95098 0.79749 0.60315 0.0
C2972 C 0.94809 0.78084 0.60899 0.0
C2973 C 0.90507 0.71547 0.66151 0.0
C2974 C 0.88615 0.70742 0.65477 0.0
C2975 C 0.92253 0.72583 0.6557 0.0
C2976 C 0.92137 0.72825 0.64304 0.0
C2977 C 0.90253 0.72075 0.63641 0.0
C2978 C 0.88511 0.7104 0.64219 0.0
C2979 C 0.93969 0.73824 0.63658 0.0
C2980 C 0.94296 0.75462 0.63022 0.0
C2981 C 0.95377 0.73165 0.63656 0.0
C2982 C 0.95061 0.71376 0.64252 0.0
C2983 C 0.93318 0.69519 0.63915 0.0
C2984 C 0.9302 0.67845 0.6449 0.0
C2985 C 0.94463 0.68005 0.65397 0.0
C2986 C 0.9621 0.69838 0.65728 0.0
C2987 C 0.96514 0.71519 0.65156 0.0
H2988 H 0.94229 0.66707 0.65841 0.0
H2989 H 0.97089 0.82862 0.60152 0.0
H2990 H 0.16305 0.18907 0.60434 0.0
H2991 H 0.18621 0.18147 0.61569 0.0
H2992 H 0.23519 0.22591 0.59821 0.0
H2993 H 0.21233 0.23428 0.58718 0.0
H2994 H 0.23473 0.18885 0.59868 0.0
H2995 H 0.23125 0.23761 0.62631 0.0
H2996 H 0.21402 0.25155 0.63813 0.0
H2997 H 0.18798 0.19984 0.65806 0.0
H2998 H 0.20483 0.18544 0.64621 0.0
H2999 H 0.31358 0.19145 0.63626 0.0
H3000 H 0.29136 0.20012 0.62484 0.0
H3001 H 0.2455 0.16841 0.64877 0.0
H3002 H 0.26848 0.16118 0.66085 0.0
H3003 H 0.24432 0.1992 0.64456 0.0
H3004 H 0.24432 0.14856 0.61604 0.0
H3005 H 0.26104 0.13368 0.6045 0.0
H3006 H 0.29315 0.18734 0.587 0.0
H3007 H 0.2762 0.20236 0.59818 0.0
C3008 C 0.17876 0.19746 0.60299 0.0
C3009 C 0.18574 0.21242 0.59485 0.0
C3010 C 0.19197 0.19295 0.60943 0.0
C3011 C 0.21243 0.20317 0.60782 0.0
C3012 C 0.21943 0.21778 0.59953 0.0
C3013 C 0.20628 0.22247 0.59319 0.0
C3014 C 0.22656 0.19892 0.61503 0.0
C3015 C 0.23698 0.19127 0.6087 0.0
C3016 C 0.22919 0.20168 0.62811 0.0
C3017 C 0.21914 0.21036 0.63528 0.0
C3018 C 0.22171 0.22913 0.63314 0.0
C3019 C 0.21204 0.23713 0.63985 0.0
C3020 C 0.19987 0.22656 0.64882 0.0
C3021 C 0.19739 0.20799 0.6511 0.0
C3022 C 0.207 0.19991 0.64439 0.0
C3023 C 0.29875 0.18637 0.63908 0.0
C3024 C 0.29267 0.17558 0.64939 0.0
C3025 C 0.28593 0.19113 0.63245 0.0
C3026 C 0.2664 0.1844 0.63563 0.0
C3027 C 0.26041 0.17373 0.64604 0.0
C3028 C 0.27351 0.16956 0.65294 0.0
C3029 C 0.25238 0.1888 0.62826 0.0
C3030 C 0.24201 0.19658 0.63454 0.0
C3031 C 0.24959 0.18589 0.61514 0.0
C3032 C 0.25901 0.17656 0.60794 0.0
C3033 C 0.25483 0.15711 0.60966 0.0
C3034 C 0.26429 0.14864 0.60315 0.0
C3035 C 0.27803 0.1595 0.59496 0.0
C3036 C 0.28233 0.17887 0.59325 0.0
C3037 C 0.27268 0.1873 0.59958 0.0
H3038 H 0.28535 0.15293 0.58995 0.0
H3039 H 0.1924 0.23278 0.65401 0.0
H3040 H 0.75196 0.96093 0.60702 0.0
H3041 H 0.76637 0.99527 0.61612 0.0
H3042 H 0.74667 0.97464 0.65132 0.0
H3043 H 0.73145 0.94002 0.64214 0.0
H3044 H 0.74178 0.00619 0.64655 0.0
H3045 H 0.79419 0.99064 0.64641 0.0
H3046 H 0.81481 0.97806 0.63744 0.0
H3047 H 0.83363 0.02239 0.6118 0.0
H3048 H 0.81287 0.03506 0.62049 0.0
H3049 H 0.80794 0.10329 0.67847 0.0
H3050 H 0.79179 0.06741 0.67219 0.0
H3051 H 0.80558 0.07932 0.63476 0.0
H3052 H 0.82177 0.11507 0.64091 0.0
H3053 H 0.81397 0.05125 0.64284 0.0
H3054 H 0.75957 0.06516 0.64235 0.0
H3055 H 0.7391 0.07772 0.6516 0.0
H3056 H 0.72451 0.0364 0.679 0.0
H3057 H 0.74515 0.02379 0.67002 0.0
C3058 C 0.75026 0.96362 0.61662 0.0
C3059 C 0.7406 0.94771 0.62386 0.0
C3060 C 0.75872 0.98328 0.62185 0.0
C3061 C 0.75792 0.98748 0.63444 0.0
C3062 C 0.74758 0.97169 0.6416 0.0
C3063 C 0.73903 0.95195 0.63636 0.0
C3064 C 0.76856 0.0084 0.64016 0.0
C3065 C 0.75763 0.01597 0.64592 0.0
C3066 C 0.78921 0.02117 0.63924 0.0
C3067 C 0.80184 0.0137 0.63404 0.0
C3068 C 0.80261 0.99762 0.6388 0.0
C3069 C 0.81434 0.99049 0.63377 0.0
C3070 C 0.82549 0.9994 0.62404 0.0
C3071 C 0.82497 0.0155 0.61933 0.0
C3072 C 0.81324 0.02267 0.62432 0.0
C3073 C 0.80761 0.09826 0.66891 0.0
C3074 C 0.81606 0.11201 0.66017 0.0
C3075 C 0.79832 0.07777 0.66535 0.0
C3076 C 0.79737 0.07076 0.653 0.0
C3077 C 0.80616 0.08446 0.64433 0.0
C3078 C 0.81534 0.10489 0.64786 0.0
C3079 C 0.78712 0.04913 0.64897 0.0
C3080 C 0.79816 0.04141 0.64356 0.0
C3081 C 0.76663 0.03625 0.65027 0.0
C3082 C 0.75408 0.04369 0.6556 0.0
C3083 C 0.75213 0.05887 0.65041 0.0
C3084 C 0.74048 0.06598 0.65559 0.0
C3085 C 0.73056 0.05791 0.6659 0.0
C3086 C 0.73223 0.04266 0.67103 0.0
C3087 C 0.74389 0.03552 0.66589 0.0
H3088 H 0.72156 0.06343 0.6699 0.0
H3089 H 0.83457 0.99385 0.62016 0.0
H3090 H 0.50551 0.36739 0.72263 0.0
H3091 H 0.47959 0.33402 0.71374 0.0
H3092 H 0.43424 0.34984 0.71925 0.0
H3093 H 0.46015 0.38313 0.72841 0.0
H3094 H 0.42184 0.31398 0.72541 0.0
H3095 H 0.44992 0.34775 0.69037 0.0
H3096 H 0.47665 0.36778 0.67749 0.0
H3097 H 0.4933 0.32264 0.67507 0.0
H3098 H 0.46683 0.30245 0.68808 0.0
H3099 H 0.36745 0.23306 0.66823 0.0
H3100 H 0.39014 0.26735 0.67714 0.0
H3101 H 0.3981 0.24611 0.71157 0.0
H3102 H 0.37478 0.21178 0.70284 0.0
H3103 H 0.42741 0.28588 0.68468 0.0
H3104 H 0.40867 0.28012 0.73568 0.0
H3105 H 0.37959 0.26147 0.7473 0.0
H3106 H 0.33974 0.25329 0.71546 0.0
H3107 H 0.36857 0.2721 0.7037 0.0
C3108 C 0.49001 0.36376 0.72187 0.0
C3109 C 0.48482 0.37786 0.72613 0.0
C3110 C 0.47522 0.34471 0.71679 0.0
C3111 C 0.45498 0.33951 0.71566 0.0
C3112 C 0.44975 0.35351 0.72004 0.0
C3113 C 0.46454 0.37251 0.72525 0.0
C3114 C 0.43931 0.31946 0.70991 0.0
C3115 C 0.42303 0.30784 0.71649 0.0
C3116 C 0.4406 0.3116 0.69815 0.0
C3117 C 0.4565 0.32367 0.69029 0.0
C3118 C 0.45938 0.34216 0.68716 0.0
C3119 C 0.47447 0.35353 0.67983 0.0
C3120 C 0.4867 0.34651 0.67549 0.0
C3121 C 0.48383 0.32807 0.67845 0.0
C3122 C 0.46877 0.31665 0.6858 0.0
C3123 C 0.37393 0.23569 0.67773 0.0
C3124 C 0.36929 0.21973 0.68485 0.0
C3125 C 0.38694 0.25531 0.6828 0.0
C3126 C 0.39571 0.25937 0.69506 0.0
C3127 C 0.39119 0.24342 0.70218 0.0
C3128 C 0.37793 0.22379 0.69716 0.0
C3129 C 0.41006 0.28024 0.70024 0.0
C3130 C 0.42615 0.29201 0.69357 0.0
C3131 C 0.40823 0.28844 0.71173 0.0
C3132 C 0.39079 0.27736 0.71878 0.0
C3133 C 0.3937 0.27442 0.73118 0.0
C3134 C 0.37726 0.2638 0.73778 0.0
C3135 C 0.35783 0.25615 0.73211 0.0
C3136 C 0.3548 0.25916 0.71983 0.0
C3137 C 0.37118 0.26978 0.71319 0.0
H3138 H 0.34513 0.24791 0.73723 0.0
H3139 H 0.49837 0.35534 0.66981 0.0
H3140 H 0.65088 0.0896 0.74321 0.0
H3141 H 0.6806 0.09879 0.73237 0.0
H3142 H 0.68435 0.15474 0.72581 0.0
H3143 H 0.6544 0.14539 0.73639 0.0
H3144 H 0.69115 0.14104 0.706 0.0
H3145 H 0.71697 0.15103 0.74814 0.0
H3146 H 0.72006 0.14331 0.76952 0.0
H3147 H 0.72973 0.09591 0.75624 0.0
H3148 H 0.72645 0.10318 0.73475 0.0
H3149 H 0.80534 0.1755 0.70557 0.0
H3150 H 0.77615 0.1673 0.71667 0.0
H3151 H 0.73729 0.13027 0.68432 0.0
H3152 H 0.76645 0.13912 0.67301 0.0
H3153 H 0.74859 0.13581 0.72393 0.0
H3154 H 0.69278 0.12805 0.68301 0.0
H3155 H 0.69329 0.14198 0.66317 0.0
H3156 H 0.74844 0.1951 0.67676 0.0
H3157 H 0.74814 0.1816 0.69672 0.0
C3158 C 0.65814 0.10392 0.73954 0.0
C3159 C 0.65028 0.11677 0.74068 0.0
C3160 C 0.67518 0.1092 0.73335 0.0
C3161 C 0.68496 0.1276 0.72836 0.0
C3162 C 0.67711 0.14044 0.72951 0.0
C3163 C 0.65996 0.13507 0.73557 0.0
C3164 C 0.70314 0.13335 0.72176 0.0
C3165 C 0.70371 0.13991 0.70996 0.0
C3166 C 0.71981 0.13232 0.72695 0.0
C3167 C 0.72119 0.12748 0.73982 0.0
C3168 C 0.71947 0.13877 0.74976 0.0
C3169 C 0.72131 0.13452 0.76191 0.0
C3170 C 0.72497 0.11906 0.76423 0.0
C3171 C 0.72681 0.10782 0.75442 0.0
C3172 C 0.72497 0.11201 0.74225 0.0
C3173 C 0.79057 0.1657 0.70078 0.0
C3174 C 0.78825 0.15815 0.68834 0.0
C3175 C 0.77385 0.16094 0.70717 0.0
C3176 C 0.75438 0.14835 0.70133 0.0
C3177 C 0.75206 0.14042 0.68898 0.0
C3178 C 0.76878 0.14544 0.68252 0.0
C3179 C 0.73661 0.14352 0.7082 0.0
C3180 C 0.73606 0.137 0.72001 0.0
C3181 C 0.72032 0.14536 0.70323 0.0
C3182 C 0.72053 0.15371 0.69131 0.0
C3183 C 0.70498 0.14273 0.68178 0.0
C3184 C 0.70524 0.15054 0.67051 0.0
C3185 C 0.72092 0.16938 0.66869 0.0
C3186 C 0.73634 0.18048 0.67816 0.0
C3187 C 0.73614 0.17275 0.68945 0.0
H3188 H 0.7211 0.1754 0.65996 0.0
H3189 H 0.7265 0.11585 0.77364 0.0
H3190 H 0.93983 0.55235 0.7077 0.0
H3191 H 0.92379 0.56816 0.69674 0.0
H3192 H 0.89969 0.5751 0.73019 0.0
H3193 H 0.91502 0.55868 0.74107 0.0
H3194 H 0.87152 0.55991 0.71092 0.0
H3195 H 0.93934 0.61459 0.71945 0.0
H3196 H 0.97596 0.63163 0.71905 0.0
H3197 H 0.96847 0.62429 0.67933 0.0
H3198 H 0.93177 0.60695 0.67949 0.0
H3199 H 0.845 0.63235 0.69977 0.0
H3200 H 0.85989 0.61316 0.70708 0.0
H3201 H 0.87758 0.60859 0.67076 0.0
H3202 H 0.86279 0.62806 0.66332 0.0
H3203 H 0.90817 0.62022 0.68906 0.0
H3204 H 0.83997 0.56833 0.6808 0.0
H3205 H 0.80346 0.55202 0.68158 0.0
H3206 H 0.81166 0.5546 0.72114 0.0
H3207 H 0.84824 0.57123 0.72063 0.0
C3208 C 0.93112 0.55725 0.71272 0.0
C3209 C 0.92872 0.55428 0.72526 0.0
C3210 C 0.92209 0.56641 0.70647 0.0
C3211 C 0.91063 0.57288 0.71267 0.0
C3212 C 0.90848 0.57021 0.72523 0.0
C3213 C 0.91744 0.56103 0.73147 0.0
C3214 C 0.90034 0.58192 0.70606 0.0
C3215 C 0.87955 0.5732 0.70624 0.0
C3216 C 0.91075 0.59886 0.6996 0.0
C3217 C 0.93281 0.60925 0.69949 0.0
C3218 C 0.9455 0.61644 0.71063 0.0
C3219 C 0.96627 0.62619 0.71045 0.0
C3220 C 0.97454 0.62898 0.69917 0.0
C3221 C 0.96205 0.62208 0.68806 0.0
C3222 C 0.94126 0.6123 0.68819 0.0
C3223 C 0.8519 0.62716 0.69328 0.0
C3224 C 0.85272 0.63175 0.68096 0.0
C3225 C 0.86033 0.6161 0.69747 0.0
C3226 C 0.86966 0.6093 0.68943 0.0
C3227 C 0.87037 0.61366 0.67708 0.0
C3228 C 0.86185 0.62471 0.67285 0.0
C3229 C 0.87944 0.59845 0.69418 0.0
C3230 C 0.90011 0.60679 0.69362 0.0
C3231 C 0.86893 0.58119 0.70034 0.0
C3232 C 0.84689 0.57115 0.70068 0.0
C3233 C 0.83401 0.56557 0.68968 0.0
C3234 C 0.81329 0.55624 0.69007 0.0
C3235 C 0.80525 0.55229 0.7014 0.0
C3236 C 0.81791 0.55767 0.71237 0.0
C3237 C 0.83864 0.56702 0.71203 0.0
H3238 H 0.78921 0.54501 0.70169 0.0
H3239 H 0.99062 0.63654 0.69905 0.0
H3240 H 0.48781 0.95841 0.18461 0.0
H3241 H 0.49545 0.97065 0.1644 0.0
H3242 H 0.43245 0.93933 0.15168 0.0
H3243 H 0.42471 0.92625 0.17175 0.0
H3244 H 0.45277 0.93455 0.13439 0.0
H3245 H 0.4591 0.99055 0.15944 0.0
H3246 H 0.47128 0.01586 0.17748 0.0
H3247 H 0.53181 0.0386 0.16892 0.0
H3248 H 0.52002 0.01325 0.15092 0.0
H3249 H 0.46365 0.98386 0.07992 0.0
H3250 H 0.45448 0.97162 0.10004 0.0
H3251 H 0.51697 0.00076 0.11385 0.0
H3252 H 0.52618 0.01372 0.09389 0.0
H3253 H 0.49591 0.00672 0.13049 0.0
H3254 H 0.4892 0.94994 0.10559 0.0
H3255 H 0.47661 0.92489 0.08738 0.0
H3256 H 0.41616 0.90388 0.09558 0.0
H3257 H 0.42839 0.929 0.11375 0.0
C3258 C 0.47555 0.95393 0.1775 0.0
C3259 C 0.45561 0.9413 0.17986 0.0
C3260 C 0.47994 0.96116 0.16596 0.0
C3261 C 0.46453 0.95616 0.15653 0.0
C3262 C 0.44462 0.94348 0.15881 0.0
C3263 C 0.4402 0.93617 0.17035 0.0
C3264 C 0.46924 0.96396 0.14425 0.0
C3265 C 0.46196 0.95036 0.13354 0.0
C3266 C 0.48155 0.98457 0.14309 0.0
C3267 C 0.48869 -0.00012 0.15389 0.0
C3268 C 0.47502 0.00085 0.16145 0.0
C3269 C 0.48186 0.01522 0.17166 0.0
C3270 C 0.50231 0.0288 0.17436 0.0
C3271 C 0.51598 0.02806 0.16683 0.0
C3272 C 0.50922 0.01371 0.15662 0.0
C3273 C 0.47543 0.98787 0.08728 0.0
C3274 C 0.49564 -0.00015 0.08529 0.0
C3275 C 0.47018 0.98066 0.09875 0.0
C3276 C 0.48503 0.98508 0.10846 0.0
C3277 C 0.50523 0.9971 0.10651 0.0
C3278 C 0.51048 0.00436 0.09505 0.0
C3279 C 0.47957 0.9773 0.12067 0.0
C3280 C 0.48669 0.99091 0.13136 0.0
C3281 C 0.46706 0.95672 0.1218 0.0
C3282 C 0.4597 0.94147 0.11096 0.0
C3283 C 0.47322 0.94006 0.10346 0.0
C3284 C 0.46615 0.92584 0.09316 0.0
C3285 C 0.4456 0.91283 0.09031 0.0
C3286 C 0.43208 0.91398 0.09779 0.0
C3287 C 0.43907 0.92819 0.1081 0.0
H3288 H 0.44016 0.90184 0.08232 0.0
H3289 H 0.50757 0.03991 0.18227 0.0
H3290 H 0.04697 0.54111 0.18856 0.0
H3291 H 0.04012 0.53647 0.16604 0.0
H3292 H 0.98835 0.47867 0.16825 0.0
H3293 H 0.99568 0.48303 0.19084 0.0
H3294 H 0.0069 0.47668 0.1495 0.0
H3295 H 0.98468 0.52117 0.16385 0.0
H3296 H 0.98754 0.55092 0.17541 0.0
H3297 H 0.03509 0.58885 0.15452 0.0
H3298 H 0.03271 0.55931 0.14295 0.0
H3299 H 0.95918 0.46883 0.08966 0.0
H3300 H 0.96718 0.47236 0.11204 0.0
H3301 H 0.02412 0.52486 0.10929 0.0
H3302 H 0.01659 0.52111 0.08683 0.0
H3303 H 0.00265 0.5293 0.1281 0.0
H3304 H 0.02377 0.48358 0.11357 0.0
H3305 H 0.01947 0.45322 0.10196 0.0
H3306 H 0.97166 0.41681 0.12316 0.0
H3307 H 0.97549 0.44698 0.13479 0.0
C3308 C 0.03414 0.52742 0.18421 0.0
C3309 C 0.02171 0.5125 0.19139 0.0
C3310 C 0.0302 0.5248 0.17136 0.0
C3311 C 0.01344 0.50742 0.16546 0.0
C3312 C 0.00131 0.49225 0.17261 0.0
C3313 C 0.00546 0.49473 0.18548 0.0
C3314 C 0.00852 0.50522 0.15185 0.0
C3315 C 0.0057 0.48807 0.14485 0.0
C3316 C 0.00727 0.52022 0.14574 0.0
C3317 C 0.00863 0.53802 0.15261 0.0
C3318 C 0.99584 0.53585 0.16178 0.0
C3319 C 0.99736 0.55268 0.16832 0.0
C3320 C 0.01152 0.57176 0.16572 0.0
C3321 C 0.02415 0.57406 0.15654 0.0
C3322 C 0.0227 0.55728 0.14998 0.0
C3323 C 0.97353 0.481 0.09377 0.0
C3324 C 0.98729 0.49462 0.0864 0.0
C3325 C 0.97802 0.48303 0.10657 0.0
C3326 C 0.99629 0.49877 0.11227 0.0
C3327 C 0.00992 0.51262 0.10503 0.0
C3328 C 0.00553 0.5105 0.0922 0.0
C3329 C 0.0011 0.50084 0.12583 0.0
C3330 C 0.00386 0.51795 0.13279 0.0
C3331 C 0.00205 0.48571 0.13191 0.0
C3332 C 0.99979 0.46755 0.12497 0.0
C3333 C 0.01223 0.46911 0.11569 0.0
C3334 C 0.0099 0.45193 0.10911 0.0
C3335 C 0.99527 0.4331 0.11179 0.0
C3336 C 0.98297 0.43141 0.12108 0.0
C3337 C 0.98523 0.44854 0.12767 0.0
H3338 H 0.99348 0.41982 0.1067 0.0
H3339 H 0.01268 0.58477 0.1708 0.0
H3340 H 0.4353 0.48746 0.17669 0.0
H3341 H 0.43905 0.47989 0.15514 0.0
H3342 H 0.50091 0.49823 0.16547 0.0
H3343 H 0.4972 0.50539 0.18696 0.0
H3344 H 0.49573 0.51717 0.14602 0.0
H3345 H 0.46735 0.45005 0.15792 0.0
H3346 H 0.44162 0.41985 0.16608 0.0
H3347 H 0.39784 0.41368 0.13733 0.0
H3348 H 0.42326 0.44401 0.12909 0.0
H3349 H 0.52742 0.49171 0.09301 0.0
H3350 H 0.51771 0.49178 0.1139 0.0
H3351 H 0.45649 0.469 0.09905 0.0
H3352 H 0.46599 0.46832 0.07803 0.0
H3353 H 0.45848 0.45216 0.12006 0.0
H3354 H 0.48503 0.51741 0.10764 0.0
H3355 H 0.50925 0.54791 0.09902 0.0
H3356 H 0.55422 0.55858 0.12831 0.0
H3357 H 0.53034 0.52794 0.137 0.0
C3358 C 0.44957 0.48945 0.17441 0.0
C3359 C 0.46601 0.49725 0.18353 0.0
C3360 C 0.45171 0.48519 0.16209 0.0
C3361 C 0.4703 0.48861 0.1587 0.0
C3362 C 0.48648 0.49565 0.16786 0.0
C3363 C 0.48434 0.49981 0.18014 0.0
C3364 C 0.47343 0.48611 0.14554 0.0
C3365 C 0.48775 0.50289 0.14039 0.0
C3366 C 0.46241 0.46769 0.13805 0.0
C3367 C 0.44716 0.44942 0.14297 0.0
C3368 C 0.4522 0.44235 0.1534 0.0
C3369 C 0.43768 0.42519 0.15803 0.0
C3370 C 0.4181 0.41488 0.15225 0.0
C3371 C 0.41301 0.42169 0.14181 0.0
C3372 C 0.42747 0.43886 0.13715 0.0
C3373 C 0.5118 0.48631 0.09416 0.0
C3374 C 0.49751 0.48011 0.08382 0.0
C3375 C 0.5063 0.48653 0.10612 0.0
C3376 C 0.48644 0.48072 0.10803 0.0
C3377 C 0.47193 0.47367 0.09779 0.0
C3378 C 0.47742 0.47345 0.08578 0.0
C3379 C 0.48121 0.48311 0.12069 0.0
C3380 C 0.46642 0.46642 0.12569 0.0
C3381 C 0.49155 0.50172 0.12803 0.0
C3382 C 0.50594 0.52027 0.12291 0.0
C3383 C 0.50013 0.52618 0.11219 0.0
C3384 C 0.51379 0.5435 0.1073 0.0
C3385 C 0.53328 0.55516 0.1131 0.0
C3386 C 0.53912 0.54953 0.12382 0.0
C3387 C 0.52552 0.53219 0.12874 0.0
H3388 H 0.54384 0.56857 0.1093 0.0
H3389 H 0.40688 0.4016 0.15585 0.0
H3390 H 0.99982 0.52547 0.81519 0.0
H3391 H 0.00717 0.53132 0.83775 0.0
H3392 H 0.96232 0.47031 0.84084 0.0
H3393 H 0.95473 0.46443 0.81833 0.0
H3394 H 0.96096 0.49753 0.85818 0.0
H3395 H 0.00977 0.48246 0.84263 0.0
H3396 H 0.03658 0.48722 0.82969 0.0
H3397 H 0.07341 0.54728 0.84675 0.0
H3398 H 0.04668 0.54295 0.85968 0.0
H3399 H 0.9881 0.48078 0.91756 0.0
H3400 H 0.9797 0.48001 0.89547 0.0
H3401 H 0.02973 0.53965 0.89557 0.0
H3402 H 0.03825 0.5405 0.9177 0.0
H3403 H 0.0289 0.51605 0.87665 0.0
H3404 H 0.98193 0.53064 0.89367 0.0
H3405 H 0.95558 0.52639 0.90684 0.0
H3406 H 0.91542 0.46888 0.88721 0.0
H3407 H 0.94173 0.47255 0.87411 0.0
C3408 C 0.99142 0.51337 0.8207 0.0
C3409 C 0.97681 0.49445 0.81501 0.0
C3410 C 0.99568 0.51671 0.83356 0.0
C3411 C 0.98537 0.5012 0.84093 0.0
C3412 C 0.97044 0.48245 0.8353 0.0
C3413 C 0.96627 0.47907 0.82245 0.0
C3414 C 0.99058 0.50424 0.85449 0.0
C3415 C 0.97575 0.50142 0.86225 0.0
C3416 C 0.01004 0.50988 0.85974 0.0
C3417 C 0.02614 0.51246 0.85202 0.0
C3418 C 0.02352 0.49674 0.84354 0.0
C3419 C 0.03871 0.49935 0.83623 0.0
C3420 C 0.05666 0.51756 0.83737 0.0
C3421 C 0.05948 0.53319 0.84586 0.0
C3422 C 0.04432 0.53066 0.85319 0.0
C3423 C 0.99716 0.49383 0.91291 0.0
C3424 C 0.01382 0.51071 0.91936 0.0
C3425 C 0.99234 0.49337 0.90029 0.0
C3426 C 0.00397 0.50986 0.8939 0.0
C3427 C 0.02057 0.52677 0.90032 0.0
C3428 C 0.02545 0.5272 0.91294 0.0
C3429 C 0.99922 0.50912 0.88042 0.0
C3430 C 0.01414 0.51236 0.87264 0.0
C3431 C 0.97987 0.50401 0.87518 0.0
C3432 C 0.9639 0.5018 0.88297 0.0
C3433 C 0.96754 0.517 0.89222 0.0
C3434 C 0.95259 0.51471 0.89967 0.0
C3435 C 0.93383 0.49738 0.89787 0.0
C3436 C 0.92997 0.4823 0.8886 0.0
C3437 C 0.94491 0.48447 0.88116 0.0
H3438 H 0.92228 0.49563 0.90366 0.0
H3439 H 0.06841 0.51955 0.83169 0.0
H3440 H 0.56299 0.50613 0.82454 0.0
H3441 H 0.55906 0.51337 0.84607 0.0
H3442 H 0.49754 0.49615 0.83554 0.0
H3443 H 0.5015 0.48938 0.81399 0.0
H3444 H 0.51554 0.52856 0.85276 0.0
H3445 H 0.50913 0.4633 0.84704 0.0
H3446 H 0.52048 0.43968 0.84111 0.0
H3447 H 0.57188 0.47142 0.86798 0.0
H3448 H 0.56096 0.4954 0.87394 0.0
H3449 H 0.4721 0.50404 0.90895 0.0
H3450 H 0.48105 0.50392 0.88786 0.0
H3451 H 0.53978 0.51605 0.90189 0.0
H3452 H 0.53055 0.51502 0.92298 0.0
H3453 H 0.52596 0.48873 0.88322 0.0
H3454 H 0.5313 0.55264 0.89017 0.0
H3455 H 0.52016 0.57642 0.89613 0.0
H3456 H 0.47156 0.54805 0.86718 0.0
H3457 H 0.48224 0.52392 0.86116 0.0
C3458 C 0.54876 0.5043 0.82677 0.0
C3459 C 0.53249 0.49699 0.81759 0.0
C3460 C 0.54649 0.50828 0.83909 0.0
C3461 C 0.52791 0.50499 0.84243 0.0
C3462 C 0.51197 0.49871 0.83318 0.0
C3463 C 0.51422 0.4947 0.82089 0.0
C3464 C 0.52461 0.50689 0.85562 0.0
C3465 C 0.51769 0.51978 0.85942 0.0
C3466 C 0.52785 0.49576 0.86436 0.0
C3467 C 0.53434 0.48126 0.86084 0.0
C3468 C 0.52293 0.46533 0.85162 0.0
C3469 C 0.52927 0.45186 0.84826 0.0
C3470 C 0.54692 0.45408 0.85414 0.0
C3471 C 0.55823 0.46974 0.86341 0.0
C3472 C 0.55197 0.48327 0.86679 0.0
C3473 C 0.48686 0.50648 0.90757 0.0
C3474 C 0.5006 0.50957 0.91772 0.0
C3475 C 0.49207 0.5067 0.89549 0.0
C3476 C 0.51124 0.51034 0.89327 0.0
C3477 C 0.52495 0.51335 0.90336 0.0
C3478 C 0.5197 0.51294 0.91544 0.0
C3479 C 0.51674 0.51034 0.88041 0.0
C3480 C 0.52402 0.49774 0.87664 0.0
C3481 C 0.5139 0.52181 0.87172 0.0
C3482 C 0.50749 0.53637 0.87528 0.0
C3483 C 0.51816 0.55139 0.88513 0.0
C3484 C 0.51194 0.56494 0.88851 0.0
C3485 C 0.49514 0.56372 0.88206 0.0
C3486 C 0.48456 0.54897 0.87218 0.0
C3487 C 0.4907 0.53536 0.86877 0.0
H3488 H 0.49035 0.57423 0.88469 0.0
H3489 H 0.55181 0.44364 0.85153 0.0
H3490 H 0.5498 0.04011 0.82006 0.0
H3491 H 0.54494 0.02768 0.84044 0.0
H3492 H 0.51856 0.06348 0.85036 0.0
H3493 H 0.5242 0.07662 0.83031 0.0
H3494 H 0.54217 0.06542 0.86921 0.0
H3495 H 0.48995 0.01221 0.84124 0.0
H3496 H 0.4758 0.98736 0.8229 0.0
H3497 H 0.50849 0.9597 0.83618 0.0
H3498 H 0.52305 0.98457 0.85453 0.0
H3499 H 0.48749 0.015 0.9183 0.0
H3500 H 0.4974 0.02869 0.89862 0.0
H3501 H 0.52935 0.99682 0.89399 0.0
H3502 H 0.51999 0.98347 0.91387 0.0
H3503 H 0.50482 0.99266 0.87277 0.0
H3504 H 0.55944 0.04817 0.89954 0.0
H3505 H 0.57462 0.07424 0.91728 0.0
H3506 H 0.53556 0.09629 0.90644 0.0
H3507 H 0.52071 0.07086 0.88835 0.0
C3508 C 0.54321 0.04555 0.82664 0.0
C3509 C 0.53723 0.05925 0.82345 0.0
C3510 C 0.54022 0.03824 0.83825 0.0
C3511 C 0.53105 0.04436 0.84691 0.0
C3512 C 0.52555 0.05841 0.84386 0.0
C3513 C 0.52861 0.06577 0.8323 0.0
C3514 C 0.52703 0.03614 0.85912 0.0
C3515 C 0.53383 0.04949 0.86993 0.0
C3516 C 0.51651 0.01535 0.86019 0.0
C3517 C 0.50777 0.00038 0.84918 0.0
C3518 C 0.49425 0.00093 0.8402 0.0
C3519 C 0.48613 0.98682 0.82981 0.0
C3520 C 0.49129 0.972 0.82836 0.0
C3521 C 0.50454 0.97122 0.83731 0.0
C3522 C 0.51272 0.9853 0.8477 0.0
C3523 C 0.49678 0.01101 0.91317 0.0
C3524 C 0.50296 0.99813 0.91772 0.0
C3525 C 0.50246 0.0189 0.90191 0.0
C3526 C 0.51431 0.01396 0.89488 0.0
C3527 C 0.52024 0.00086 0.89927 0.0
C3528 C 0.51473 0.99311 0.9106 0.0
C3529 C 0.51985 0.02196 0.88276 0.0
C3530 C 0.51328 0.00856 0.87199 0.0
C3531 C 0.53045 0.04267 0.88169 0.0
C3532 C 0.53888 0.05755 0.8927 0.0
C3533 C 0.55405 0.05854 0.90098 0.0
C3534 C 0.56267 0.07326 0.91104 0.0
C3535 C 0.5559 0.08675 0.91306 0.0
C3536 C 0.54073 0.08578 0.9049 0.0
C3537 C 0.53234 0.07134 0.89468 0.0
H3538 H 0.56249 0.09802 0.92092 0.0
H3539 H 0.48499 0.96109 0.82032 0.0
H3540 H 0.12228 0.24509 0.50289 0.0
H3541 H 0.12981 0.25787 0.48273 0.0
H3542 H 0.12677 0.30971 0.49601 0.0
H3543 H 0.11837 0.29646 0.51601 0.0
H3544 H 0.11039 0.29919 0.47381 0.0
H3545 H 0.17258 0.3098 0.49288 0.0
H3546 H 0.19572 0.30087 0.50339 0.0
H3547 H 0.18573 0.25941 0.47214 0.0
H3548 H 0.16231 0.2679 0.46151 0.0
H3549 H 0.16893 0.36152 0.42863 0.0
H3550 H 0.15808 0.34681 0.44788 0.0
H3551 H 0.14207 0.28901 0.4302 0.0
H3552 H 0.15172 0.30322 0.41065 0.0
H3553 H 0.16803 0.30249 0.45417 0.0
H3554 H 0.10476 0.29286 0.43566 0.0
H3555 H 0.08269 0.30373 0.42584 0.0
H3556 H 0.098 0.34724 0.45691 0.0
H3557 H 0.12005 0.33653 0.46695 0.0
C3558 C 0.12323 0.25921 0.50148 0.0
C3559 C 0.11982 0.26982 0.51103 0.0
C3560 C 0.12764 0.26658 0.48997 0.0
C3561 C 0.12931 0.28502 0.48785 0.0
C3562 C 0.12562 0.29548 0.49735 0.0
C3563 C 0.12082 0.28791 0.5088 0.0
C3564 C 0.13488 0.29338 0.47575 0.0
C3565 C 0.12316 0.3001 0.46964 0.0
C3566 C 0.1514 0.29444 0.47011 0.0
C3567 C 0.16553 0.28934 0.47645 0.0
C3568 C 0.17521 0.29868 0.48829 0.0
C3569 C 0.18839 0.2937 0.49426 0.0
C3570 C 0.19215 0.27954 0.48845 0.0
C3571 C 0.18278 0.27035 0.47664 0.0
C3572 C 0.16956 0.27525 0.47063 0.0
C3573 C 0.16277 0.34561 0.42868 0.0
C3574 C 0.16132 0.33366 0.41794 0.0
C3575 C 0.15668 0.33725 0.43977 0.0
C3576 C 0.14928 0.31683 0.44046 0.0
C3577 C 0.14785 0.30483 0.42986 0.0
C3578 C 0.1536 0.31309 0.4187 0.0
C3579 C 0.14352 0.30815 0.45235 0.0
C3580 C 0.15525 0.30146 0.45841 0.0
C3581 C 0.12729 0.30749 0.45805 0.0
C3582 C 0.11418 0.31403 0.45199 0.0
C3583 C 0.10353 0.30484 0.44035 0.0
C3584 C 0.09099 0.31094 0.43476 0.0
C3585 C 0.08906 0.32625 0.44071 0.0
C3586 C 0.09955 0.33541 0.4523 0.0
C3587 C 0.112 0.32929 0.45796 0.0
H3588 H 0.07937 0.33097 0.43635 0.0
H3589 H 0.20236 0.27571 0.49309 0.0
H3590 H 0.65948 0.85004 0.52466 0.0
H3591 H 0.65219 0.84421 0.50216 0.0
H3592 H 0.698 0.82828 0.49957 0.0
H3593 H 0.70591 0.83483 0.52203 0.0
H3594 H 0.70095 0.85319 0.48304 0.0
H3595 H 0.64833 0.79268 0.49528 0.0
H3596 H 0.61995 0.7719 0.50687 0.0
H3597 H 0.58629 0.79674 0.49076 0.0
H3598 H 0.61458 0.81789 0.47919 0.0
H3599 H 0.67309 0.81533 0.4194 0.0
H3600 H 0.67993 0.81797 0.44188 0.0
H3601 H 0.63651 0.83659 0.44667 0.0
H3602 H 0.6297 0.83415 0.42424 0.0
H3603 H 0.63253 0.80882 0.462 0.0
H3604 H 0.68603 0.87031 0.45046 0.0
H3605 H 0.71449 0.89083 0.43884 0.0
H3606 H 0.74656 0.8635 0.45367 0.0
H3607 H 0.71816 0.84261 0.46525 0.0
C3608 C 0.66806 0.84537 0.5193 0.0
C3609 C 0.68328 0.8429 0.52514 0.0
C3610 C 0.66373 0.84184 0.50645 0.0
C3611 C 0.6744 0.83559 0.4992 0.0
C3612 C 0.68953 0.83301 0.505 0.0
C3613 C 0.6939 0.83659 0.51784 0.0
C3614 C 0.67024 0.83243 0.48553 0.0
C3615 C 0.68605 0.84323 0.47843 0.0
C3616 C 0.65073 0.81974 0.47953 0.0
C3617 C 0.63366 0.80701 0.48645 0.0
C3618 C 0.63494 0.79383 0.49428 0.0
C3619 C 0.61885 0.78196 0.50083 0.0
C3620 C 0.60135 0.78303 0.49957 0.0
C3621 C 0.59987 0.79594 0.49173 0.0
C3622 C 0.61592 0.80786 0.48517 0.0
C3623 C 0.66512 0.82014 0.42524 0.0
C3624 C 0.65089 0.82458 0.42003 0.0
C3625 C 0.669 0.82159 0.43808 0.0
C3626 C 0.65883 0.82762 0.44593 0.0
C3627 C 0.64447 0.83184 0.44077 0.0
C3628 C 0.64057 0.83039 0.42795 0.0
C3629 C 0.6632 0.82967 0.45955 0.0
C3630 C 0.64744 0.81868 0.46663 0.0
C3631 C 0.68277 0.84213 0.46552 0.0
C3632 C 0.69989 0.85475 0.45862 0.0
C3633 C 0.69909 0.86857 0.45117 0.0
C3634 C 0.71522 0.88028 0.4446 0.0
C3635 C 0.7323 0.87843 0.44549 0.0
C3636 C 0.73331 0.8649 0.45298 0.0
C3637 C 0.71721 0.85313 0.45955 0.0
H3638 H 0.74477 0.88752 0.4404 0.0
H3639 H 0.58891 0.77383 0.50465 0.0
H3640 H 0.10041 0.81994 0.50962 0.0
H3641 H 0.10456 0.81266 0.48811 0.0
H3642 H 0.16557 0.82849 0.49914 0.0
H3643 H 0.16153 0.83582 0.52054 0.0
H3644 H 0.16342 0.84807 0.48027 0.0
H3645 H 0.12872 0.77994 0.49026 0.0
H3646 H 0.10087 0.75023 0.49753 0.0
H3647 H 0.06019 0.74959 0.46864 0.0
H3648 H 0.08777 0.77948 0.4613 0.0
H3649 H 0.19222 0.82215 0.4261 0.0
H3650 H 0.18256 0.82127 0.44704 0.0
H3651 H 0.12268 0.80483 0.4325 0.0
H3652 H 0.13198 0.80476 0.41141 0.0
H3653 H 0.12219 0.7854 0.45256 0.0
H3654 H 0.1557 0.85266 0.44245 0.0
H3655 H 0.18271 0.88279 0.43498 0.0
H3656 H 0.22446 0.88582 0.46406 0.0
H3657 H 0.19775 0.85552 0.47159 0.0
C3658 C 0.11456 0.82147 0.50747 0.0
C3659 C 0.13071 0.82863 0.51672 0.0
C3660 C 0.11692 0.81732 0.49518 0.0
C3661 C 0.1354 0.82006 0.49201 0.0
C3662 C 0.15124 0.82641 0.50135 0.0
C3663 C 0.14892 0.83062 0.51357 0.0
C3664 C 0.13888 0.81781 0.4789 0.0
C3665 C 0.15457 0.83425 0.47428 0.0
C3666 C 0.12683 0.80006 0.47093 0.0
C3667 C 0.11027 0.78206 0.47532 0.0
C3668 C 0.11381 0.77356 0.48553 0.0
C3669 C 0.09808 0.75667 0.48964 0.0
C3670 C 0.07876 0.74806 0.48357 0.0
C3671 C 0.07515 0.75629 0.47335 0.0
C3672 C 0.09083 0.7732 0.4692 0.0
C3673 C 0.17685 0.81785 0.4273 0.0
C3674 C 0.16293 0.81367 0.41704 0.0
C3675 C 0.17141 0.81757 0.4393 0.0
C3676 C 0.15201 0.81337 0.44134 0.0
C3677 C 0.13777 0.80824 0.43114 0.0
C3678 C 0.14318 0.8084 0.4191 0.0
C3679 C 0.14707 0.81549 0.4541 0.0
C3680 C 0.13104 0.79916 0.4586 0.0
C3681 C 0.15867 0.83342 0.46198 0.0
C3682 C 0.17476 0.85171 0.45751 0.0
C3683 C 0.17068 0.85966 0.44719 0.0
C3684 C 0.18593 0.87678 0.44296 0.0
C3685 C 0.2053 0.88619 0.44902 0.0
C3686 C 0.20945 0.87851 0.45936 0.0
C3687 C 0.19426 0.86137 0.46362 0.0
H3688 H 0.21709 0.89944 0.44573 0.0
H3689 H 0.06661 0.73498 0.48678 0.0
H3690 H 0.67429 0.81774 0.14744 0.0
H3691 H 0.68144 0.82132 0.16991 0.0
H3692 H 0.63536 0.8364 0.1743 0.0
H3693 H 0.62803 0.83274 0.15181 0.0
H3694 H 0.66868 0.8598 0.19045 0.0
H3695 H 0.6256 0.7901 0.17777 0.0
H3696 H 0.61473 0.75802 0.16551 0.0
H3697 H 0.66826 0.75909 0.17973 0.0
H3698 H 0.6796 0.79135 0.19194 0.0
H3699 H 0.65898 0.84239 0.25367 0.0
H3700 H 0.65179 0.84035 0.23128 0.0
H3701 H 0.69714 0.82469 0.22552 0.0
H3702 H 0.70402 0.82613 0.24789 0.0
H3703 H 0.66338 0.80155 0.2101 0.0
H3704 H 0.70646 0.87166 0.22271 0.0
H3705 H 0.71696 0.90366 0.23495 0.0
H3706 H 0.66281 0.90159 0.22096 0.0
H3707 H 0.65186 0.86941 0.20876 0.0
C3708 C 0.66569 0.82183 0.15319 0.0
C3709 C 0.65047 0.82477 0.14786 0.0
C3710 C 0.6698 0.8239 0.16601 0.0
C3711 C 0.6587 0.82881 0.17376 0.0
C3712 C 0.64406 0.83257 0.16848 0.0
C3713 C 0.63995 0.83053 0.15563 0.0
C3714 C 0.66192 0.82934 0.18735 0.0
C3715 C 0.66727 0.847 0.19477 0.0
C3716 C 0.66037 0.8127 0.19294 0.0
C3717 C 0.65354 0.79324 0.18567 0.0
C3718 C 0.63513 0.78357 0.17821 0.0
C3719 C 0.62887 0.76535 0.17128 0.0
C3720 C 0.64082 0.75655 0.17182 0.0
C3721 C 0.65904 0.76594 0.17931 0.0
C3722 C 0.66538 0.78419 0.18624 0.0
C3723 C 0.66725 0.83827 0.24763 0.0
C3724 C 0.6821 0.83446 0.25254 0.0
C3725 C 0.66327 0.83732 0.23485 0.0
C3726 C 0.67412 0.83263 0.22675 0.0
C3727 C 0.68867 0.82843 0.23161 0.0
C3728 C 0.69268 0.8294 0.24439 0.0
C3729 C 0.67032 0.83207 0.2132 0.0
C3730 C 0.66479 0.81437 0.20578 0.0
C3731 C 0.67165 0.84864 0.20763 0.0
C3732 C 0.67825 0.86803 0.21492 0.0
C3733 C 0.69672 0.87795 0.22232 0.0
C3734 C 0.70277 0.89613 0.22924 0.0
C3735 C 0.69054 0.90463 0.22876 0.0
C3736 C 0.67226 0.89498 0.22133 0.0
C3737 C 0.66613 0.87678 0.21441 0.0
H3738 H 0.69525 0.91871 0.23412 0.0
H3739 H 0.63595 0.74243 0.16645 0.0
H3740 H 0.21321 0.8534 0.15194 0.0
H3741 H 0.20779 0.8596 0.17335 0.0
H3742 H 0.19433 0.8002 0.18005 0.0
H3743 H 0.19959 0.79395 0.15875 0.0
H3744 H 0.16609 0.80717 0.18727 0.0
H3745 H 0.23812 0.84197 0.19254 0.0
H3746 H 0.2721 0.86667 0.18811 0.0
H3747 H 0.26018 0.91413 0.19703 0.0
H3748 H 0.22601 0.88967 0.20135 0.0
H3749 H 0.16474 0.81031 0.25187 0.0
H3750 H 0.17443 0.80899 0.23104 0.0
H3751 H 0.18311 0.86766 0.22728 0.0
H3752 H 0.17385 0.86929 0.24828 0.0
H3753 H 0.21337 0.86299 0.21834 0.0
H3754 H 0.14171 0.82822 0.21359 0.0
H3755 H 0.10781 0.80352 0.21813 0.0
H3756 H 0.11913 0.75597 0.20813 0.0
H3757 H 0.15322 0.78042 0.2037 0.0
C3758 C 0.20944 0.84183 0.15807 0.0
C3759 C 0.20663 0.82313 0.15366 0.0
C3760 C 0.20634 0.84537 0.17028 0.0
C3761 C 0.20061 0.83034 0.1783 0.0
C3762 C 0.19857 0.81196 0.17401 0.0
C3763 C 0.20156 0.80839 0.16183 0.0
C3764 C 0.19553 0.83313 0.19093 0.0
C3765 C 0.17655 0.81925 0.1941 0.0
C3766 C 0.2089 0.84925 0.19973 0.0
C3767 C 0.22943 0.86397 0.19713 0.0
C3768 C 0.24268 0.85766 0.19345 0.0
C3769 C 0.26199 0.87162 0.19098 0.0
C3770 C 0.26828 0.89195 0.19225 0.0
C3771 C 0.25528 0.89837 0.19603 0.0
C3772 C 0.23594 0.88447 0.19849 0.0
C3773 C 0.1689 0.82303 0.24667 0.0
C3774 C 0.16845 0.83988 0.25171 0.0
C3775 C 0.1743 0.82219 0.23474 0.0
C3776 C 0.17929 0.83815 0.22757 0.0
C3777 C 0.17925 0.85517 0.23264 0.0
C3778 C 0.17378 0.85599 0.24459 0.0
C3779 C 0.18413 0.83679 0.2147 0.0
C3780 C 0.20295 0.85096 0.21147 0.0
C3781 C 0.17063 0.82093 0.20582 0.0
C3782 C 0.15009 0.80617 0.20842 0.0
C3783 C 0.13703 0.81251 0.21245 0.0
C3784 C 0.11777 0.79855 0.21499 0.0
C3785 C 0.11134 0.77819 0.21345 0.0
C3786 C 0.12414 0.77175 0.20933 0.0
C3787 C 0.14343 0.78565 0.2068 0.0
H3788 H 0.09641 0.76741 0.21542 0.0
H3789 H 0.28323 0.90274 0.19035 0.0
H3790 H 0.20079 0.41726 0.16689 0.0
H3791 H 0.19543 0.40387 0.18701 0.0
H3792 H 0.20561 0.35691 0.17295 0.0
H3793 H 0.21124 0.37043 0.15281 0.0
H3794 H 0.17001 0.34376 0.18519 0.0
H3795 H 0.24011 0.39154 0.19209 0.0
H3796 H 0.27045 0.42455 0.19261 0.0
H3797 H 0.2471 0.44925 0.21872 0.0
H3798 H 0.21643 0.41646 0.21818 0.0
H3799 H 0.16774 0.3053 0.24293 0.0
H3800 H 0.17755 0.3186 0.22318 0.0
H3801 H 0.1803 0.37325 0.23697 0.0
H3802 H 0.17162 0.36052 0.25698 0.0
H3803 H 0.21072 0.38184 0.22452 0.0
H3804 H 0.14014 0.33611 0.21678 0.0
H3805 H 0.10884 0.30387 0.21627 0.0
H3806 H 0.1317 0.27632 0.19183 0.0
H3807 H 0.16326 0.30836 0.19232 0.0
C3808 C 0.20199 0.40415 0.16812 0.0
C3809 C 0.20642 0.39487 0.1583 0.0
C3810 C 0.19901 0.39657 0.17962 0.0
C3811 C 0.20018 0.37943 0.18148 0.0
C3812 C 0.20468 0.37017 0.17171 0.0
C3813 C 0.208 0.37795 0.16025 0.0
C3814 C 0.19595 0.37084 0.1935 0.0
C3815 C 0.17909 0.35192 0.19378 0.0
C3816 C 0.20748 0.38177 0.20472 0.0
C3817 C 0.22585 0.40157 0.20499 0.0
C3818 C 0.24133 0.40405 0.19784 0.0
C3819 C 0.25861 0.42272 0.19816 0.0
C3820 C 0.26068 0.439 0.20567 0.0
C3821 C 0.24546 0.43664 0.21289 0.0
C3822 C 0.22812 0.41801 0.21258 0.0
C3823 C 0.17066 0.32025 0.24185 0.0
C3824 C 0.16877 0.33176 0.2516 0.0
C3825 C 0.17604 0.32776 0.23046 0.0
C3826 C 0.17938 0.34684 0.22848 0.0
C3827 C 0.17773 0.35845 0.23823 0.0
C3828 C 0.17252 0.35103 0.24965 0.0
C3829 C 0.18462 0.35476 0.21628 0.0
C3830 C 0.20166 0.37359 0.21595 0.0
C3831 C 0.17309 0.34386 0.20501 0.0
C3832 C 0.15414 0.32458 0.2047 0.0
C3833 C 0.13855 0.32314 0.21137 0.0
C3834 C 0.12076 0.30491 0.21108 0.0
C3835 C 0.11831 0.28804 0.20405 0.0
C3836 C 0.13363 0.28939 0.19728 0.0
C3837 C 0.15147 0.30758 0.19756 0.0
H3838 H 0.10452 0.27394 0.20383 0.0
H3839 H 0.27408 0.45344 0.20591 0.0
H3840 H 0.79625 0.5838 0.83947 0.0
H3841 H 0.80454 0.59727 0.81958 0.0
H3842 H 0.7888 0.6417 0.83025 0.0
H3843 H 0.78028 0.62813 0.85015 0.0
H3844 H 0.775 0.62714 0.8068 0.0
H3845 H 0.83821 0.65299 0.83115 0.0
H3846 H 0.86413 0.65105 0.84431 0.0
H3847 H 0.86901 0.61448 0.81512 0.0
H3848 H 0.8429 0.61597 0.80183 0.0
H3849 H 0.82296 0.69126 0.76055 0.0
H3850 H 0.81302 0.6772 0.78015 0.0
H3851 H 0.82735 0.63165 0.7697 0.0
H3852 H 0.83724 0.64557 0.75007 0.0
H3853 H 0.84182 0.64709 0.79309 0.0
H3854 H 0.77852 0.62139 0.76872 0.0
H3855 H 0.75257 0.62345 0.75565 0.0
H3856 H 0.7481 0.66015 0.78494 0.0
H3857 H 0.7742 0.65852 0.79813 0.0
C3858 C 0.79463 0.5965 0.83761 0.0
C3859 C 0.78773 0.60497 0.84645 0.0
C3860 C 0.79939 0.6042 0.82622 0.0
C3861 C 0.79763 0.62074 0.82346 0.0
C3862 C 0.79031 0.62896 0.83215 0.0
C3863 C 0.78541 0.62116 0.84352 0.0
C3864 C 0.8036 0.62956 0.81156 0.0
C3865 C 0.78971 0.63175 0.80389 0.0
C3866 C 0.82266 0.63523 0.8076 0.0
C3867 C 0.83847 0.63444 0.81554 0.0
C3868 C 0.84471 0.64442 0.82756 0.0
C3869 C 0.85945 0.64342 0.83504 0.0
C3870 C 0.86818 0.63261 0.83056 0.0
C3871 C 0.86222 0.62283 0.81858 0.0
C3872 C 0.84747 0.62376 0.81107 0.0
C3873 C 0.82382 0.67813 0.76236 0.0
C3874 C 0.83089 0.66954 0.7537 0.0
C3875 C 0.81813 0.67011 0.77359 0.0
C3876 C 0.81922 0.65322 0.77637 0.0
C3877 C 0.8264 0.6447 0.76779 0.0
C3878 C 0.83212 0.65273 0.75657 0.0
C3879 C 0.8132 0.6446 0.78831 0.0
C3880 C 0.82711 0.64247 0.796 0.0
C3881 C 0.79419 0.63903 0.79229 0.0
C3882 C 0.77845 0.63998 0.78437 0.0
C3883 C 0.77211 0.63002 0.77234 0.0
C3884 C 0.75736 0.63109 0.76491 0.0
C3885 C 0.74874 0.64197 0.76945 0.0
C3886 C 0.75481 0.65175 0.78143 0.0
C3887 C 0.76956 0.65075 0.78889 0.0
H3888 H 0.73732 0.64278 0.7637 0.0
H3889 H 0.87958 0.63185 0.83637 0.0
H3890 H 0.38005 0.20767 0.85435 0.0
H3891 H 0.37269 0.20221 0.83186 0.0
H3892 H 0.32824 0.14085 0.83445 0.0
H3893 H 0.3356 0.14621 0.857 0.0
H3894 H 0.35068 0.14398 0.81577 0.0
H3895 H 0.31438 0.17533 0.8298 0.0
H3896 H 0.3101 0.20114 0.84122 0.0
H3897 H 0.35218 0.2456 0.82021 0.0
H3898 H 0.35692 0.22009 0.80879 0.0
H3899 H 0.3 0.12474 0.75536 0.0
H3900 H 0.30859 0.12914 0.77776 0.0
H3901 H 0.35404 0.19026 0.77558 0.0
H3902 H 0.34519 0.18611 0.75322 0.0
H3903 H 0.33097 0.18694 0.79404 0.0
H3904 H 0.36701 0.15539 0.77987 0.0
H3905 H 0.37114 0.12948 0.76846 0.0
H3906 H 0.3292 0.08521 0.78963 0.0
H3907 H 0.32461 0.11083 0.80106 0.0
C3908 C 0.36862 0.19304 0.85013 0.0
C3909 C 0.35827 0.17741 0.85744 0.0
C3910 C 0.36446 0.18994 0.83729 0.0
C3911 C 0.34971 0.1712 0.8315 0.0
C3912 C 0.33966 0.15543 0.83874 0.0
C3913 C 0.34389 0.1585 0.8516 0.0
C3914 C 0.34463 0.16818 0.81791 0.0
C3915 C 0.3461 0.15319 0.81102 0.0
C3916 C 0.33907 0.18048 0.81172 0.0
C3917 C 0.33614 0.19583 0.81852 0.0
C3918 C 0.32283 0.19063 0.82768 0.0
C3919 C 0.32031 0.2052 0.83414 0.0
C3920 C 0.3309 0.225 0.83146 0.0
C3921 C 0.344 0.23026 0.82229 0.0
C3922 C 0.3466 0.21575 0.81581 0.0
C3923 C 0.31177 0.13913 0.75967 0.0
C3924 C 0.32193 0.15508 0.75254 0.0
C3925 C 0.31678 0.14157 0.77244 0.0
C3926 C 0.33207 0.15998 0.7783 0.0
C3927 C 0.34224 0.17592 0.77121 0.0
C3928 C 0.33727 0.17348 0.75844 0.0
C3929 C 0.33709 0.16279 0.79188 0.0
C3930 C 0.33555 0.17774 0.79878 0.0
C3931 C 0.34255 0.15042 0.79807 0.0
C3932 C 0.34532 0.135 0.79123 0.0
C3933 C 0.35854 0.1401 0.78202 0.0
C3934 C 0.36099 0.12548 0.77557 0.0
C3935 C 0.3504 0.1057 0.7783 0.0
C3936 C 0.33738 0.10053 0.78751 0.0
C3937 C 0.33486 0.1151 0.79399 0.0
H3938 H 0.35232 0.0944 0.77329 0.0
H3939 H 0.32892 0.23626 0.83648 0.0
H3940 H 0.77476 0.13856 0.84713 0.0
H3941 H 0.7773 0.12901 0.82571 0.0
H3942 H 0.80225 0.19023 0.81791 0.0
H3943 H 0.79909 0.19966 0.83905 0.0
H3944 H 0.77762 0.16595 0.7987 0.0
H3945 H 0.83202 0.17018 0.82589 0.0
H3946 H 0.84641 0.16097 0.8434 0.0
H3947 H 0.81621 0.10012 0.82718 0.0
H3948 H 0.80145 0.10895 0.80965 0.0
H3949 H 0.84617 0.18596 0.75473 0.0
H3950 H 0.83102 0.18338 0.7741 0.0
H3951 H 0.80142 0.11922 0.76805 0.0
H3952 H 0.81645 0.12172 0.74847 0.0
H3953 H 0.82181 0.13739 0.79296 0.0
H3954 H 0.77528 0.13761 0.76268 0.0
H3955 H 0.76532 0.15 0.74493 0.0
H3956 H 0.78205 0.20469 0.76696 0.0
H3957 H 0.79343 0.19322 0.78468 0.0
C3958 C 0.78041 0.14988 0.84076 0.0
C3959 C 0.787 0.16992 0.84483 0.0
C3960 C 0.78199 0.14444 0.82856 0.0
C3961 C 0.79025 0.15896 0.82024 0.0
C3962 C 0.79589 0.17876 0.82414 0.0
C3963 C 0.79428 0.18418 0.83628 0.0
C3964 C 0.79438 0.15411 0.80774 0.0
C3965 C 0.78728 0.1597 0.79743 0.0
C3966 C 0.80657 0.14547 0.80603 0.0
C3967 C 0.81543 0.14016 0.81656 0.0
C3968 C 0.82833 0.15481 0.82611 0.0
C3969 C 0.83657 0.14967 0.83603 0.0
C3970 C 0.83217 0.12996 0.83643 0.0
C3971 C 0.81956 0.11536 0.82688 0.0
C3972 C 0.81126 0.12043 0.81695 0.0
C3973 C 0.83655 0.1713 0.75757 0.0
C3974 C 0.83251 0.15403 0.75014 0.0
C3975 C 0.82784 0.16986 0.76858 0.0
C3976 C 0.81504 0.15112 0.77244 0.0
C3977 C 0.81124 0.1338 0.76519 0.0
C3978 C 0.81974 0.13524 0.75403 0.0
C3979 C 0.80565 0.14992 0.78405 0.0
C3980 C 0.81176 0.14318 0.79416 0.0
C3981 C 0.79278 0.15778 0.78558 0.0
C3982 C 0.78543 0.16458 0.77503 0.0
C3983 C 0.77714 0.15241 0.76373 0.0
C3984 C 0.77125 0.15928 0.75365 0.0
C3985 C 0.77293 0.17806 0.75482 0.0
C3986 C 0.78072 0.19011 0.76607 0.0
C3987 C 0.78702 0.18347 0.77612 0.0
H3988 H 0.76818 0.18327 0.74701 0.0
H3989 H 0.83857 0.12601 0.84411 0.0
H3990 H 0.32938 0.19288 0.48283 0.0
H3991 H 0.33429 0.19842 0.50546 0.0
H3992 H 0.29638 0.13529 0.50745 0.0
H3993 H 0.291 0.12971 0.48488 0.0
H3994 H 0.28793 0.15732 0.52384 0.0
H3995 H 0.34648 0.15638 0.51181 0.0
H3996 H 0.37635 0.16712 0.50058 0.0
H3997 H 0.40178 0.22678 0.51821 0.0
H3998 H 0.37191 0.21644 0.52942 0.0
H3999 H 0.3168 0.14504 0.58421 0.0
H4000 H 0.30817 0.14452 0.5622 0.0
H4001 H 0.34995 0.20771 0.5641 0.0
H4002 H 0.35868 0.20833 0.58615 0.0
H4003 H 0.35627 0.18835 0.5458 0.0
H4004 H 0.298 0.19013 0.55744 0.0
H4005 H 0.26764 0.18021 0.56807 0.0
H4006 H 0.24239 0.11985 0.55177 0.0
H4007 H 0.27236 0.12955 0.54073 0.0
C4008 C 0.32199 0.18021 0.4881 0.0
C4009 C 0.30993 0.16084 0.48208 0.0
C4010 C 0.3249 0.18338 0.50101 0.0
C4011 C 0.31583 0.16723 0.50811 0.0
C4012 C 0.30354 0.14794 0.50213 0.0
C4013 C 0.30066 0.14476 0.48924 0.0
C4014 C 0.31938 0.17032 0.52179 0.0
C4015 C 0.30286 0.16397 0.52865 0.0
C4016 C 0.33889 0.17947 0.52805 0.0
C4017 C 0.35687 0.18569 0.52134 0.0
C4018 C 0.35837 0.17183 0.51321 0.0
C4019 C 0.37531 0.17784 0.50687 0.0
C4020 C 0.39092 0.19764 0.50865 0.0
C4021 C 0.38965 0.21146 0.51682 0.0
C4022 C 0.37273 0.20553 0.52317 0.0
C4023 C 0.32386 0.15891 0.58 0.0
C4024 C 0.33854 0.1767 0.58689 0.0
C4025 C 0.31885 0.15861 0.56742 0.0
C4026 C 0.32831 0.17611 0.56151 0.0
C4027 C 0.3425 0.19403 0.56846 0.0
C4028 C 0.34754 0.19433 0.58104 0.0
C4029 C 0.32481 0.17529 0.54789 0.0
C4030 C 0.34135 0.18196 0.54102 0.0
C4031 C 0.30535 0.16651 0.54163 0.0
C4032 C 0.28746 0.16052 0.54836 0.0
C4033 C 0.28601 0.17473 0.55617 0.0
C4034 C 0.26884 0.16916 0.56222 0.0
C4035 C 0.2532 0.14938 0.5607 0.0
C4036 C 0.25455 0.13516 0.55297 0.0
C4037 C 0.27154 0.14071 0.54674 0.0
H4038 H 0.24 0.14509 0.56547 0.0
H4039 H 0.40403 0.20226 0.50374 0.0
H4040 H 0.86556 0.12468 0.49375 0.0
H4041 H 0.85974 0.13135 0.51484 0.0
H4042 H 0.87951 0.19244 0.50868 0.0
H4043 H 0.88518 0.18579 0.48741 0.0
H4044 H 0.89314 0.18776 0.53252 0.0
H4045 H 0.83163 0.16171 0.50605 0.0
H4046 H 0.80485 0.13772 0.49023 0.0
H4047 H 0.79052 0.09069 0.51353 0.0
H4048 H 0.81744 0.11435 0.52941 0.0
H4049 H 0.84989 0.20543 0.58445 0.0
H4050 H 0.85976 0.20319 0.56373 0.0
H4051 H 0.83267 0.13939 0.56374 0.0
H4052 H 0.82242 0.14155 0.58432 0.0
H4053 H 0.82306 0.1475 0.54249 0.0
H4054 H 0.88471 0.17217 0.56857 0.0
H4055 H 0.91207 0.19519 0.58441 0.0
H4056 H 0.92663 0.24362 0.56227 0.0
H4057 H 0.89918 0.22093 0.54636 0.0
C4058 C 0.86874 0.13956 0.49688 0.0
C4059 C 0.87552 0.15463 0.48885 0.0
C4060 C 0.86548 0.14337 0.50894 0.0
C4061 C 0.86888 0.16229 0.51323 0.0
C4062 C 0.87674 0.17771 0.50551 0.0
C4063 C 0.88001 0.1739 0.49338 0.0
C4064 C 0.86302 0.16546 0.52551 0.0
C4065 C 0.87778 0.1792 0.53469 0.0
C4066 C 0.84305 0.15398 0.52835 0.0
C4067 C 0.82666 0.13978 0.51888 0.0
C4068 C 0.82286 0.14623 0.50776 0.0
C4069 C 0.80764 0.13269 0.49879 0.0
C4070 C 0.79601 0.11269 0.50086 0.0
C4071 C 0.79955 0.10619 0.51193 0.0
C4072 C 0.81477 0.11966 0.52093 0.0
C4073 C 0.84613 0.19096 0.58003 0.0
C4074 C 0.83539 0.17366 0.58598 0.0
C4075 C 0.85183 0.18969 0.56821 0.0
C4076 C 0.8472 0.17115 0.56222 0.0
C4077 C 0.83639 0.15386 0.56816 0.0
C4078 C 0.8305 0.15509 0.5799 0.0
C4079 C 0.85323 0.16959 0.54968 0.0
C4080 C 0.83844 0.15616 0.54038 0.0
C4081 C 0.87321 0.18124 0.5468 0.0
C4082 C 0.88976 0.19489 0.55633 0.0
C4083 C 0.89365 0.18776 0.56712 0.0
C4084 C 0.90919 0.20074 0.57611 0.0
C4085 C 0.92105 0.22087 0.57437 0.0
C4086 C 0.91742 0.22804 0.56362 0.0
C4087 C 0.90188 0.21512 0.55461 0.0
H4088 H 0.93307 0.23089 0.58133 0.0
H4089 H 0.78424 0.10223 0.4939 0.0
H4090 H 0.83873 0.70223 0.48517 0.0
H4091 H 0.8331 0.69091 0.50574 0.0
H4092 H 0.89356 0.73592 0.51937 0.0
H4093 H 0.89936 0.74725 0.49866 0.0
H4094 H 0.88332 0.70155 0.52923 0.0
H4095 H 0.85424 0.7428 0.52471 0.0
H4096 H 0.83315 0.75446 0.51456 0.0
H4097 H 0.78069 0.69779 0.51695 0.0
H4098 H 0.80151 0.68567 0.52697 0.0
H4099 H 0.86415 0.69432 0.59281 0.0
H4100 H 0.87293 0.70679 0.57266 0.0
H4101 H 0.81428 0.66187 0.55594 0.0
H4102 H 0.80525 0.6496 0.57609 0.0
H4103 H 0.8251 0.69809 0.5482 0.0
H4104 H 0.85497 0.65685 0.55236 0.0
H4105 H 0.87649 0.64581 0.56268 0.0
H4106 H 0.92804 0.70361 0.56141 0.0
H4107 H 0.90678 0.71508 0.55122 0.0
C4108 C 0.85086 0.70974 0.49254 0.0
C4109 C 0.86942 0.72583 0.49031 0.0
C4110 C 0.84761 0.70325 0.50431 0.0
C4111 C 0.86275 0.71283 0.51421 0.0
C4112 C 0.8816 0.72835 0.51191 0.0
C4113 C 0.88492 0.7348 0.50007 0.0
C4114 C 0.8586 0.70688 0.52695 0.0
C4115 C 0.87077 0.70109 0.53345 0.0
C4116 C 0.84206 0.706 0.53243 0.0
C4117 C 0.82946 0.71327 0.52649 0.0
C4118 C 0.83822 0.73277 0.523 0.0
C4119 C 0.82631 0.73947 0.51728 0.0
C4120 C 0.8056 0.72686 0.51509 0.0
C4121 C 0.79674 0.70753 0.51864 0.0
C4122 C 0.80858 0.70075 0.52435 0.0
C4123 C 0.85306 0.68719 0.58486 0.0
C4124 C 0.83399 0.67092 0.58608 0.0
C4125 C 0.85817 0.69422 0.57332 0.0
C4126 C 0.84434 0.68514 0.56274 0.0
C4127 C 0.82523 0.66907 0.56395 0.0
C4128 C 0.82014 0.66198 0.57547 0.0
C4129 C 0.84963 0.69248 0.55041 0.0
C4130 C 0.83769 0.69861 0.544 0.0
C4131 C 0.86644 0.69378 0.54507 0.0
C4132 C 0.87925 0.68688 0.55115 0.0
C4133 C 0.87087 0.66725 0.55437 0.0
C4134 C 0.88303 0.66091 0.56018 0.0
C4135 C 0.90361 0.67401 0.56274 0.0
C4136 C 0.91209 0.69348 0.55945 0.0
C4137 C 0.9 0.69991 0.55364 0.0
H4138 H 0.91299 0.66907 0.56723 0.0
H4139 H 0.7964 0.73207 0.51065 0.0
loop_
_geom_bond_atom_site_label_1
_geom_bond_atom_site_label_2
_geom_bond_distance
_geom_bond_site_symmetry_2
_ccdc_geom_bond_type
C0 C1 1.391 . S
C0 C4 1.391 . S
C0 H42 0.948 . S
C1 C0 1.391 . S
C1 C2 1.391 . S
C2 C1 1.391 . S
C2 H58 0.947 . S
C2 C59 1.392 . S
C3 C4 1.391 . S
C3 C7 1.397 . S
C3 C59 1.419 . S
C4 C0 1.391 . S
C4 C3 1.391 . S
C4 C5 1.399 . S
C5 C4 1.399 . S
C5 C8 1.396 . S
C5 C17 1.453 . S
C5 C18 1.684 . S
H6 C30 0.948 . S
C7 C3 1.397 . S
C7 C8 1.394 . S
C7 C26 1.723 . S
C8 C5 1.396 . S
C8 C7 1.394 . S
C8 C38 1.723 . S
H9 C32 0.947 . S
H10 C33 0.948 . S
H11 C39 0.982 . S
H12 C40 0.979 . S
H13 C40 0.980 . S
H14 C40 0.983 . S
H15 C39 0.979 . S
H16 C39 0.977 . S
C17 C5 1.453 . S
C17 H46 0.982 . S
C17 H47 0.979 . S
C17 H48 0.977 . S
C18 C5 1.684 . S
C18 H43 0.979 . S
C18 H44 0.980 . S
C18 H45 0.983 . S
C19 C20 1.391 . S
C19 C24 1.391 . S
C19 H49 0.948 . S
C20 C19 1.391 . S
C20 C21 1.391 . S
C21 C20 1.391 . S
C21 C22 1.392 . S
C21 H50 0.947 . S
C22 C21 1.392 . S
C22 C23 1.419 . S
C22 H51 0.948 . S
C23 C22 1.419 . S
C23 C24 1.391 . S
C23 C27 1.397 . S
C24 C19 1.391 . S
C24 C23 1.391 . S
C24 C25 1.399 . S
C25 C24 1.399 . S
C25 C26 1.396 . S
C25 C28 1.453 . S
C25 C29 1.684 . S
C26 C7 1.723 . S
C26 C25 1.396 . S
C26 C27 1.394 . S
C27 C23 1.397 . S
C27 C26 1.394 . S
C27 C37 1.723 . S
C28 C25 1.453 . S
C28 H52 0.982 . S
C28 H53 0.979 . S
C28 H54 0.977 . S
C29 C25 1.684 . S
C29 H55 0.979 . S
C29 H56 0.980 . S
C29 H57 0.983 . S
C30 H6 0.948 . S
C30 C31 1.391 . S
C30 C35 1.391 . S
C31 C30 1.391 . S
C31 C32 1.391 . S
C32 H9 0.947 . S
C32 C31 1.391 . S
C32 C33 1.392 . S
C33 H10 0.948 . S
C33 C32 1.392 . S
C33 C34 1.419 . S
C34 C33 1.419 . S
C34 C35 1.391 . S
C34 C38 1.397 . S
C35 C30 1.391 . S
C35 C34 1.391 . S
C35 C36 1.399 . S
C36 C35 1.399 . S
C36 C37 1.396 . S
C36 C39 1.453 . S
C36 C40 1.684 . S
C37 C27 1.723 . S
C37 C36 1.396 . S
C37 C38 1.394 . S
C38 C8 1.723 . S
C38 C34 1.397 . S
C38 C37 1.394 . S
C39 H11 0.982 . S
C39 H15 0.979 . S
C39 H16 0.977 . S
C39 C36 1.453 . S
C40 H12 0.979 . S
C40 H13 0.980 . S
C40 H14 0.983 . S
C40 C36 1.684 . S
H41 C59 0.948 . S
H42 C0 0.948 . S
H43 C18 0.979 . S
H44 C18 0.980 . S
H45 C18 0.983 . S
H46 C17 0.982 . S
H47 C17 0.979 . S
H48 C17 0.977 . S
H49 C19 0.948 . S
H50 C21 0.947 . S
H51 C22 0.948 . S
H52 C28 0.982 . S
H53 C28 0.979 . S
H54 C28 0.977 . S
H55 C29 0.979 . S
H56 C29 0.980 . S
H57 C29 0.983 . S
H58 C2 0.947 . S
C59 C2 1.392 . S
C59 C3 1.419 . S
C59 H41 0.948 . S
C60 C61 1.391 . S
C60 C64 1.391 . S
C60 H102 0.948 . S
C61 C60 1.391 . S
C61 C62 1.391 . S
C62 C61 1.391 . S
C62 H118 0.947 . S
C62 C119 1.392 . S
C63 C64 1.391 . S
C63 C67 1.397 . S
C63 C119 1.419 . S
C64 C60 1.391 . S
C64 C63 1.391 . S
C64 C65 1.399 . S
C65 C64 1.399 . S
C65 C68 1.396 . S
C65 C77 1.453 . S
C65 C78 1.684 . S
H66 C90 0.948 . S
C67 C63 1.397 . S
C67 C68 1.394 . S
C67 C86 1.723 . S
C68 C65 1.396 . S
C68 C67 1.394 . S
C68 C98 1.723 . S
H69 C92 0.947 . S
H70 C93 0.948 . S
H71 C99 0.982 . S
H72 C100 0.979 . S
H73 C100 0.980 . S
H74 C100 0.983 . S
H75 C99 0.979 . S
H76 C99 0.977 . S
C77 C65 1.453 . S
C77 H106 0.982 . S
C77 H107 0.979 . S
C77 H108 0.977 . S
C78 C65 1.684 . S
C78 H103 0.979 . S
C78 H104 0.980 . S
C78 H105 0.983 . S
C79 C80 1.391 . S
C79 C84 1.391 . S
C79 H109 0.948 . S
C80 C79 1.391 . S
C80 C81 1.391 . S
C81 C80 1.391 . S
C81 C82 1.392 . S
C81 H110 0.947 . S
C82 C81 1.392 . S
C82 C83 1.419 . S
C82 H111 0.948 . S
C83 C82 1.419 . S
C83 C84 1.391 . S
C83 C87 1.397 . S
C84 C79 1.391 . S
C84 C83 1.391 . S
C84 C85 1.399 . S
C85 C84 1.399 . S
C85 C86 1.396 . S
C85 C88 1.453 . S
C85 C89 1.684 . S
C86 C67 1.723 . S
C86 C85 1.396 . S
C86 C87 1.394 . S
C87 C83 1.397 . S
C87 C86 1.394 . S
C87 C97 1.723 . S
C88 C85 1.453 . S
C88 H112 0.982 . S
C88 H113 0.979 . S
C88 H114 0.977 . S
C89 C85 1.684 . S
C89 H115 0.979 . S
C89 H116 0.980 . S
C89 H117 0.983 . S
C90 H66 0.948 . S
C90 C91 1.391 . S
C90 C95 1.391 . S
C91 C90 1.391 . S
C91 C92 1.391 . S
C92 H69 0.947 . S
C92 C91 1.391 . S
C92 C93 1.392 . S
C93 H70 0.948 . S
C93 C92 1.392 . S
C93 C94 1.419 . S
C94 C93 1.419 . S
C94 C95 1.391 . S
C94 C98 1.397 . S
C95 C90 1.391 . S
C95 C94 1.391 . S
C95 C96 1.399 . S
C96 C95 1.399 . S
C96 C97 1.396 . S
C96 C99 1.453 . S
C96 C100 1.684 . S
C97 C87 1.723 . S
C97 C96 1.396 . S
C97 C98 1.394 . S
C98 C68 1.723 . S
C98 C94 1.397 . S
C98 C97 1.394 . S
C99 H71 0.982 . S
C99 H75 0.979 . S
C99 H76 0.977 . S
C99 C96 1.453 . S
C100 H72 0.979 . S
C100 H73 0.980 . S
C100 H74 0.983 . S
C100 C96 1.684 . S
H101 C119 0.948 . S
H102 C60 0.948 . S
H103 C78 0.979 . S
H104 C78 0.980 . S
H105 C78 0.983 . S
H106 C77 0.982 . S
H107 C77 0.979 . S
H108 C77 0.977 . S
H109 C79 0.948 . S
H110 C81 0.947 . S
H111 C82 0.948 . S
H112 C88 0.982 . S
H113 C88 0.979 . S
H114 C88 0.977 . S
H115 C89 0.979 . S
H116 C89 0.980 . S
H117 C89 0.983 . S
H118 C62 0.947 . S
C119 C62 1.392 . S
C119 C63 1.419 . S
C119 H101 0.948 . S
C120 C121 1.391 . S
C120 C124 1.391 . S
C120 H162 0.948 . S
C121 C120 1.391 . S
C121 C122 1.391 . S
C122 C121 1.391 . S
C122 H178 0.947 . S
C122 C179 1.392 . S
C123 C124 1.391 . S
C123 C127 1.397 . S
C123 C179 1.419 . S
C124 C120 1.391 . S
C124 C123 1.391 . S
C124 C125 1.399 . S
C125 C124 1.399 . S
C125 C128 1.396 . S
C125 C137 1.453 . S
C125 C138 1.684 . S
H126 C150 0.948 . S
C127 C123 1.397 . S
C127 C128 1.394 . S
C127 C146 1.723 . S
C128 C125 1.396 . S
C128 C127 1.394 . S
C128 C158 1.723 . S
H129 C152 0.947 . S
H130 C153 0.948 . S
H131 C159 0.982 . S
H132 C160 0.979 . S
H133 C160 0.980 . S
H134 C160 0.983 . S
H135 C159 0.979 . S
H136 C159 0.977 . S
C137 C125 1.453 . S
C137 H166 0.982 . S
C137 H167 0.979 . S
C137 H168 0.977 . S
C138 C125 1.684 . S
C138 H163 0.979 . S
C138 H164 0.980 . S
C138 H165 0.983 . S
C139 C140 1.391 . S
C139 C144 1.391 . S
C139 H169 0.948 . S
C140 C139 1.391 . S
C140 C141 1.391 . S
C141 C140 1.391 . S
C141 C142 1.392 . S
C141 H170 0.947 . S
C142 C141 1.392 . S
C142 C143 1.419 . S
C142 H171 0.948 . S
C143 C142 1.419 . S
C143 C144 1.391 . S
C143 C147 1.397 . S
C144 C139 1.391 . S
C144 C143 1.391 . S
C144 C145 1.399 . S
C145 C144 1.399 . S
C145 C146 1.396 . S
C145 C148 1.453 . S
C145 C149 1.684 . S
C146 C127 1.723 . S
C146 C145 1.396 . S
C146 C147 1.394 . S
C147 C143 1.397 . S
C147 C146 1.394 . S
C147 C157 1.723 . S
C148 C145 1.453 . S
C148 H172 0.982 . S
C148 H173 0.979 . S
C148 H174 0.977 . S
C149 C145 1.684 . S
C149 H175 0.979 . S
C149 H176 0.980 . S
C149 H177 0.983 . S
C150 H126 0.948 . S
C150 C151 1.391 . S
C150 C155 1.391 . S
C151 C150 1.391 . S
C151 C152 1.391 . S
C152 H129 0.947 . S
C152 C151 1.391 . S
C152 C153 1.392 . S
C153 H130 0.948 . S
C153 C152 1.392 . S
C153 C154 1.419 . S
C154 C153 1.419 . S
C154 C155 1.391 . S
C154 C158 1.397 . S
C155 C150 1.391 . S
C155 C154 1.391 . S
C155 C156 1.399 . S
C156 C155 1.399 . S
C156 C157 1.396 . S
C156 C159 1.453 . S
C156 C160 1.684 . S
C157 C147 1.723 . S
C157 C156 1.396 . S
C157 C158 1.394 . S
C158 C128 1.723 . S
C158 C154 1.397 . S
C158 C157 1.394 . S
C159 H131 0.982 . S
C159 H135 0.979 . S
C159 H136 0.977 . S
C159 C156 1.453 . S
C160 H132 0.979 . S
C160 H133 0.980 . S
C160 H134 0.983 . S
C160 C156 1.684 . S
H161 C179 0.948 . S
H162 C120 0.948 . S
H163 C138 0.979 . S
H164 C138 0.980 . S
H165 C138 0.983 . S
H166 C137 0.982 . S
H167 C137 0.979 . S
H168 C137 0.977 . S
H169 C139 0.948 . S
H170 C141 0.947 . S
H171 C142 0.948 . S
H172 C148 0.982 . S
H173 C148 0.979 . S
H174 C148 0.977 . S
H175 C149 0.979 . S
H176 C149 0.980 . S
H177 C149 0.983 . S
H178 C122 0.947 . S
C179 C122 1.392 . S
C179 C123 1.419 . S
C179 H161 0.948 . S
C180 C181 1.391 . S
C180 C184 1.391 . S
C180 H222 0.948 . S
C181 C180 1.391 . S
C181 C182 1.391 . S
C182 C181 1.391 . S
C182 H238 0.947 . S
C182 C239 1.392 . S
C183 C184 1.391 . S
C183 C187 1.397 . S
C183 C239 1.419 . S
C184 C180 1.391 . S
C184 C183 1.391 . S
C184 C185 1.399 . S
C185 C184 1.399 . S
C185 C188 1.396 . S
C185 C197 1.453 . S
C185 C198 1.684 . S
H186 C210 0.948 . S
C187 C183 1.397 . S
C187 C188 1.394 . S
C187 C206 1.723 . S
C188 C185 1.396 . S
C188 C187 1.394 . S
C188 C218 1.723 . S
H189 C212 0.947 . S
H190 C213 0.948 . S
H191 C219 0.982 . S
H192 C220 0.979 . S
H193 C220 0.980 . S
H194 C220 0.983 . S
H195 C219 0.979 . S
H196 C219 0.977 . S
C197 C185 1.453 . S
C197 H226 0.982 . S
C197 H227 0.979 . S
C197 H228 0.977 . S
C198 C185 1.684 . S
C198 H223 0.979 . S
C198 H224 0.980 . S
C198 H225 0.983 . S
C199 C200 1.391 . S
C199 C204 1.391 . S
C199 H229 0.948 . S
C200 C199 1.391 . S
C200 C201 1.391 . S
C201 C200 1.391 . S
C201 C202 1.392 . S
C201 H230 0.947 . S
C202 C201 1.392 . S
C202 C203 1.419 . S
C202 H231 0.948 . S
C203 C202 1.419 . S
C203 C204 1.391 . S
C203 C207 1.397 . S
C204 C199 1.391 . S
C204 C203 1.391 . S
C204 C205 1.399 . S
C205 C204 1.399 . S
C205 C206 1.396 . S
C205 C208 1.453 . S
C205 C209 1.684 . S
C206 C187 1.723 . S
C206 C205 1.396 . S
C206 C207 1.394 . S
C207 C203 1.397 . S
C207 C206 1.394 . S
C207 C217 1.723 . S
C208 C205 1.453 . S
C208 H232 0.982 . S
C208 H233 0.979 . S
C208 H234 0.977 . S
C209 C205 1.684 . S
C209 H235 0.979 . S
C209 H236 0.980 . S
C209 H237 0.983 . S
C210 H186 0.948 . S
C210 C211 1.391 . S
C210 C215 1.391 . S
C211 C210 1.391 . S
C211 C212 1.391 . S
C212 H189 0.947 . S
C212 C211 1.391 . S
C212 C213 1.392 . S
C213 H190 0.948 . S
C213 C212 1.392 . S
C213 C214 1.419 . S
C214 C213 1.419 . S
C214 C215 1.391 . S
C214 C218 1.397 . S
C215 C210 1.391 . S
C215 C214 1.391 . S
C215 C216 1.399 . S
C216 C215 1.399 . S
C216 C217 1.396 . S
C216 C219 1.453 . S
C216 C220 1.684 . S
C217 C207 1.723 . S
C217 C216 1.396 . S
C217 C218 1.394 . S
C218 C188 1.723 . S
C218 C214 1.397 . S
C218 C217 1.394 . S
C219 H191 0.982 . S
C219 H195 0.979 . S
C219 H196 0.977 . S
C219 C216 1.453 . S
C220 H192 0.979 . S
C220 H193 0.980 . S
C220 H194 0.983 . S
C220 C216 1.684 . S
H221 C239 0.948 . S
H222 C180 0.948 . S
H223 C198 0.979 . S
H224 C198 0.980 . S
H225 C198 0.983 . S
H226 C197 0.982 . S
H227 C197 0.979 . S
H228 C197 0.977 . S
H229 C199 0.948 . S
H230 C201 0.947 . S
H231 C202 0.948 . S
H232 C208 0.982 . S
H233 C208 0.979 . S
H234 C208 0.977 . S
H235 C209 0.979 . S
H236 C209 0.980 . S
H237 C209 0.983 . S
H238 C182 0.947 . S
C239 C182 1.392 . S
C239 C183 1.419 . S
C239 H221 0.948 . S
C240 C241 1.391 . S
C240 C244 1.391 . S
C240 H282 0.948 . S
C241 C240 1.391 . S
C241 C242 1.391 . S
C242 C241 1.391 . S
C242 H298 0.947 . S
C242 C299 1.392 . S
C243 C244 1.391 . S
C243 C247 1.397 . S
C243 C299 1.419 . S
C244 C240 1.391 . S
C244 C243 1.391 . S
C244 C245 1.399 . S
C245 C244 1.399 . S
C245 C248 1.396 . S
C245 C257 1.453 . S
C245 C258 1.684 . S
H246 C270 0.948 . S
C247 C243 1.397 . S
C247 C248 1.394 . S
C247 C266 1.723 . S
C248 C245 1.396 . S
C248 C247 1.394 . S
C248 C278 1.723 . S
H249 C272 0.947 . S
H250 C273 0.948 . S
H251 C279 0.982 . S
H252 C280 0.979 . S
H253 C280 0.980 . S
H254 C280 0.983 . S
H255 C279 0.979 . S
H256 C279 0.977 . S
C257 C245 1.453 . S
C257 H286 0.982 . S
C257 H287 0.979 . S
C257 H288 0.977 . S
C258 C245 1.684 . S
C258 H283 0.979 . S
C258 H284 0.980 . S
C258 H285 0.983 . S
C259 C260 1.391 . S
C259 C264 1.391 . S
C259 H289 0.948 . S
C260 C259 1.391 . S
C260 C261 1.391 . S
C261 C260 1.391 . S
C261 C262 1.392 . S
C261 H290 0.947 . S
C262 C261 1.392 . S
C262 C263 1.419 . S
C262 H291 0.948 . S
C263 C262 1.419 . S
C263 C264 1.391 . S
C263 C267 1.397 . S
C264 C259 1.391 . S
C264 C263 1.391 . S
C264 C265 1.399 . S
C265 C264 1.399 . S
C265 C266 1.396 . S
C265 C268 1.453 . S
C265 C269 1.684 . S
C266 C247 1.723 . S
C266 C265 1.396 . S
C266 C267 1.394 . S
C267 C263 1.397 . S
C267 C266 1.394 . S
C267 C277 1.723 . S
C268 C265 1.453 . S
C268 H292 0.982 . S
C268 H293 0.979 . S
C268 H294 0.977 . S
C269 C265 1.684 . S
C269 H295 0.979 . S
C269 H296 0.980 . S
C269 H297 0.983 . S
C270 H246 0.948 . S
C270 C271 1.391 . S
C270 C275 1.391 . S
C271 C270 1.391 . S
C271 C272 1.391 . S
C272 H249 0.947 . S
C272 C271 1.391 . S
C272 C273 1.392 . S
C273 H250 0.948 . S
C273 C272 1.392 . S
C273 C274 1.419 . S
C274 C273 1.419 . S
C274 C275 1.391 . S
C274 C278 1.397 . S
C275 C270 1.391 . S
C275 C274 1.391 . S
C275 C276 1.399 . S
C276 C275 1.399 . S
C276 C277 1.396 . S
C276 C279 1.453 . S
C276 C280 1.684 . S
C277 C267 1.723 . S
C277 C276 1.396 . S
C277 C278 1.394 . S
C278 C248 1.723 . S
C278 C274 1.397 . S
C278 C277 1.394 . S
C279 H251 0.982 . S
C279 H255 0.979 . S
C279 H256 0.977 . S
C279 C276 1.453 . S
C280 H252 0.979 . S
C280 H253 0.980 . S
C280 H254 0.983 . S
C280 C276 1.684 . S
H281 C299 0.948 . S
H282 C240 0.948 . S
H283 C258 0.979 . S
H284 C258 0.980 . S
H285 C258 0.983 . S
H286 C257 0.982 . S
H287 C257 0.979 . S
H288 C257 0.977 . S
H289 C259 0.948 . S
H290 C261 0.947 . S
H291 C262 0.948 . S
H292 C268 0.982 . S
H293 C268 0.979 . S
H294 C268 0.977 . S
H295 C269 0.979 . S
H296 C269 0.980 . S
H297 C269 0.983 . S
H298 C242 0.947 . S
C299 C242 1.392 . S
C299 C243 1.419 . S
C299 H281 0.948 . S
C300 C301 1.391 . S
C300 C304 1.391 . S
C300 H342 0.948 . S
C301 C300 1.391 . S
C301 C302 1.391 . S
C302 C301 1.391 . S
C302 H358 0.947 . S
C302 C359 1.392 . S
C303 C304 1.391 . S
C303 C307 1.397 . S
C303 C359 1.419 . S
C304 C300 1.391 . S
C304 C303 1.391 . S
C304 C305 1.399 . S
C305 C304 1.399 . S
C305 C308 1.396 . S
C305 C317 1.453 . S
C305 C318 1.684 . S
H306 C330 0.948 . S
C307 C303 1.397 . S
C307 C308 1.394 . S
C307 C326 1.723 . S
C308 C305 1.396 . S
C308 C307 1.394 . S
C308 C338 1.723 . S
H309 C332 0.947 . S
H310 C333 0.948 . S
H311 C339 0.982 . S
H312 C340 0.979 . S
H313 C340 0.980 . S
H314 C340 0.983 . S
H315 C339 0.979 . S
H316 C339 0.977 . S
C317 C305 1.453 . S
C317 H346 0.982 . S
C317 H347 0.979 . S
C317 H348 0.977 . S
C318 C305 1.684 . S
C318 H343 0.979 . S
C318 H344 0.980 . S
C318 H345 0.983 . S
C319 C320 1.391 . S
C319 C324 1.391 . S
C319 H349 0.948 . S
C320 C319 1.391 . S
C320 C321 1.391 . S
C321 C320 1.391 . S
C321 C322 1.392 . S
C321 H350 0.947 . S
C322 C321 1.392 . S
C322 C323 1.419 . S
C322 H351 0.948 . S
C323 C322 1.419 . S
C323 C324 1.391 . S
C323 C327 1.397 . S
C324 C319 1.391 . S
C324 C323 1.391 . S
C324 C325 1.399 . S
C325 C324 1.399 . S
C325 C326 1.396 . S
C325 C328 1.453 . S
C325 C329 1.684 . S
C326 C307 1.723 . S
C326 C325 1.396 . S
C326 C327 1.394 . S
C327 C323 1.397 . S
C327 C326 1.394 . S
C327 C337 1.723 . S
C328 C325 1.453 . S
C328 H352 0.982 . S
C328 H353 0.979 . S
C328 H354 0.977 . S
C329 C325 1.684 . S
C329 H355 0.979 . S
C329 H356 0.980 . S
C329 H357 0.983 . S
C330 H306 0.948 . S
C330 C331 1.391 . S
C330 C335 1.391 . S
C331 C330 1.391 . S
C331 C332 1.391 . S
C332 H309 0.947 . S
C332 C331 1.391 . S
C332 C333 1.392 . S
C333 H310 0.948 . S
C333 C332 1.392 . S
C333 C334 1.419 . S
C334 C333 1.419 . S
C334 C335 1.391 . S
C334 C338 1.397 . S
C335 C330 1.391 . S
C335 C334 1.391 . S
C335 C336 1.399 . S
C336 C335 1.399 . S
C336 C337 1.396 . S
C336 C339 1.453 . S
C336 C340 1.684 . S
C337 C327 1.723 . S
C337 C336 1.396 . S
C337 C338 1.394 . S
C338 C308 1.723 . S
C338 C334 1.397 . S
C338 C337 1.394 . S
C339 H311 0.982 . S
C339 H315 0.979 . S
C339 H316 0.977 . S
C339 C336 1.453 . S
C340 H312 0.979 . S
C340 H313 0.980 . S
C340 H314 0.983 . S
C340 C336 1.684 . S
H341 C359 0.948 . S
H342 C300 0.948 . S
H343 C318 0.979 . S
H344 C318 0.980 . S
H345 C318 0.983 . S
H346 C317 0.982 . S
H347 C317 0.979 . S
H348 C317 0.977 . S
H349 C319 0.948 . S
H350 C321 0.947 . S
H351 C322 0.948 . S
H352 C328 0.982 . S
H353 C328 0.979 . S
H354 C328 0.977 . S
H355 C329 0.979 . S
H356 C329 0.980 . S
H357 C329 0.983 . S
H358 C302 0.947 . S
C359 C302 1.392 . S
C359 C303 1.419 . S
C359 H341 0.948 . S
C360 C361 1.391 . S
C360 C364 1.391 . S
C360 H402 0.948 . S
C361 C360 1.391 . S
C361 C362 1.391 . S
C362 C361 1.391 . S
C362 H418 0.947 . S
C362 C419 1.392 . S
C363 C364 1.391 . S
C363 C367 1.397 . S
C363 C419 1.419 . S
C364 C360 1.391 . S
C364 C363 1.391 . S
C364 C365 1.399 . S
C365 C364 1.399 . S
C365 C368 1.396 . S
C365 C377 1.453 . S
C365 C378 1.684 . S
H366 C390 0.948 . S
C367 C363 1.397 . S
C367 C368 1.394 . S
C367 C386 1.723 . S
C368 C365 1.396 . S
C368 C367 1.394 . S
C368 C398 1.723 . S
H369 C392 0.947 . S
H370 C393 0.948 . S
H371 C399 0.982 . S
H372 C400 0.979 . S
H373 C400 0.980 . S
H374 C400 0.983 . S
H375 C399 0.979 . S
H376 C399 0.977 . S
C377 C365 1.453 . S
C377 H406 0.982 . S
C377 H407 0.979 . S
C377 H408 0.977 . S
C378 C365 1.684 . S
C378 H403 0.979 . S
C378 H404 0.980 . S
C378 H405 0.983 . S
C379 C380 1.391 . S
C379 C384 1.391 . S
C379 H409 0.948 . S
C380 C379 1.391 . S
C380 C381 1.391 . S
C381 C380 1.391 . S
C381 C382 1.392 . S
C381 H410 0.947 . S
C382 C381 1.392 . S
C382 C383 1.419 . S
C382 H411 0.948 . S
C383 C382 1.419 . S
C383 C384 1.391 . S
C383 C387 1.397 . S
C384 C379 1.391 . S
C384 C383 1.391 . S
C384 C385 1.399 . S
C385 C384 1.399 . S
C385 C386 1.396 . S
C385 C388 1.453 . S
C385 C389 1.684 . S
C386 C367 1.723 . S
C386 C385 1.396 . S
C386 C387 1.394 . S
C387 C383 1.397 . S
C387 C386 1.394 . S
C387 C397 1.723 . S
C388 C385 1.453 . S
C388 H412 0.982 . S
C388 H413 0.979 . S
C388 H414 0.977 . S
C389 C385 1.684 . S
C389 H415 0.979 . S
C389 H416 0.980 . S
C389 H417 0.983 . S
C390 H366 0.948 . S
C390 C391 1.391 . S
C390 C395 1.391 . S
C391 C390 1.391 . S
C391 C392 1.391 . S
C392 H369 0.947 . S
C392 C391 1.391 . S
C392 C393 1.392 . S
C393 H370 0.948 . S
C393 C392 1.392 . S
C393 C394 1.419 . S
C394 C393 1.419 . S
C394 C395 1.391 . S
C394 C398 1.397 . S
C395 C390 1.391 . S
C395 C394 1.391 . S
C395 C396 1.399 . S
C396 C395 1.399 . S
C396 C397 1.396 . S
C396 C399 1.453 . S
C396 C400 1.684 . S
C397 C387 1.723 . S
C397 C396 1.396 . S
C397 C398 1.394 . S
C398 C368 1.723 . S
C398 C394 1.397 . S
C398 C397 1.394 . S
C399 H371 0.982 . S
C399 H375 0.979 . S
C399 H376 0.977 . S
C399 C396 1.453 . S
C400 H372 0.979 . S
C400 H373 0.980 . S
C400 H374 0.983 . S
C400 C396 1.684 . S
H401 C419 0.948 . S
H402 C360 0.948 . S
H403 C378 0.979 . S
H404 C378 0.980 . S
H405 C378 0.983 . S
H406 C377 0.982 . S
H407 C377 0.979 . S
H408 C377 0.977 . S
H409 C379 0.948 . S
H410 C381 0.947 . S
H411 C382 0.948 . S
H412 C388 0.982 . S
H413 C388 0.979 . S
H414 C388 0.977 . S
H415 C389 0.979 . S
H416 C389 0.980 . S
H417 C389 0.983 . S
H418 C362 0.947 . S
C419 C362 1.392 . S
C419 C363 1.419 . S
C419 H401 0.948 . S
C420 C421 1.391 . S
C420 C424 1.391 . S
C420 H462 0.948 . S
C421 C420 1.391 . S
C421 C422 1.391 . S
C422 C421 1.391 . S
C422 H478 0.947 . S
C422 C479 1.392 . S
C423 C424 1.391 . S
C423 C427 1.397 . S
C423 C479 1.419 . S
C424 C420 1.391 . S
C424 C423 1.391 . S
C424 C425 1.399 . S
C425 C424 1.399 . S
C425 C428 1.396 . S
C425 C437 1.453 . S
C425 C438 1.684 . S
H426 C450 0.948 . S
C427 C423 1.397 . S
C427 C428 1.394 . S
C427 C446 1.723 . S
C428 C425 1.396 . S
C428 C427 1.394 . S
C428 C458 1.723 . S
H429 C452 0.947 . S
H430 C453 0.948 . S
H431 C459 0.982 . S
H432 C460 0.979 . S
H433 C460 0.980 . S
H434 C460 0.983 . S
H435 C459 0.979 . S
H436 C459 0.977 . S
C437 C425 1.453 . S
C437 H466 0.982 . S
C437 H467 0.979 . S
C437 H468 0.977 . S
C438 C425 1.684 . S
C438 H463 0.979 . S
C438 H464 0.980 . S
C438 H465 0.983 . S
C439 C440 1.391 . S
C439 C444 1.391 . S
C439 H469 0.948 . S
C440 C439 1.391 . S
C440 C441 1.391 . S
C441 C440 1.391 . S
C441 C442 1.392 . S
C441 H470 0.947 . S
C442 C441 1.392 . S
C442 C443 1.419 . S
C442 H471 0.948 . S
C443 C442 1.419 . S
C443 C444 1.391 . S
C443 C447 1.397 . S
C444 C439 1.391 . S
C444 C443 1.391 . S
C444 C445 1.399 . S
C445 C444 1.399 . S
C445 C446 1.396 . S
C445 C448 1.453 . S
C445 C449 1.684 . S
C446 C427 1.723 . S
C446 C445 1.396 . S
C446 C447 1.394 . S
C447 C443 1.397 . S
C447 C446 1.394 . S
C447 C457 1.723 . S
C448 C445 1.453 . S
C448 H472 0.982 . S
C448 H473 0.979 . S
C448 H474 0.977 . S
C449 C445 1.684 . S
C449 H475 0.979 . S
C449 H476 0.980 . S
C449 H477 0.983 . S
C450 H426 0.948 . S
C450 C451 1.391 . S
C450 C455 1.391 . S
C451 C450 1.391 . S
C451 C452 1.391 . S
C452 H429 0.947 . S
C452 C451 1.391 . S
C452 C453 1.392 . S
C453 H430 0.948 . S
C453 C452 1.392 . S
C453 C454 1.419 . S
C454 C453 1.419 . S
C454 C455 1.391 . S
C454 C458 1.397 . S
C455 C450 1.391 . S
C455 C454 1.391 . S
C455 C456 1.399 . S
C456 C455 1.399 . S
C456 C457 1.396 . S
C456 C459 1.453 . S
C456 C460 1.684 . S
C457 C447 1.723 . S
C457 C456 1.396 . S
C457 C458 1.394 . S
C458 C428 1.723 . S
C458 C454 1.397 . S
C458 C457 1.394 . S
C459 H431 0.982 . S
C459 H435 0.979 . S
C459 H436 0.977 . S
C459 C456 1.453 . S
C460 H432 0.979 . S
C460 H433 0.980 . S
C460 H434 0.983 . S
C460 C456 1.684 . S
H461 C479 0.948 . S
H462 C420 0.948 . S
H463 C438 0.979 . S
H464 C438 0.980 . S
H465 C438 0.983 . S
H466 C437 0.982 . S
H467 C437 0.979 . S
H468 C437 0.977 . S
H469 C439 0.948 . S
H470 C441 0.947 . S
H471 C442 0.948 . S
H472 C448 0.982 . S
H473 C448 0.979 . S
H474 C448 0.977 . S
H475 C449 0.979 . S
H476 C449 0.980 . S
H477 C449 0.983 . S
H478 C422 0.947 . S
C479 C422 1.392 . S
C479 C423 1.419 . S
C479 H461 0.948 . S
C480 C481 1.391 . S
C480 C484 1.391 . S
C480 H522 0.948 . S
C481 C480 1.391 . S
C481 C482 1.391 . S
C482 C481 1.391 . S
C482 H538 0.947 . S
C482 C539 1.392 . S
C483 C484 1.391 . S
C483 C487 1.397 . S
C483 C539 1.419 . S
C484 C480 1.391 . S
C484 C483 1.391 . S
C484 C485 1.399 . S
C485 C484 1.399 . S
C485 C488 1.396 . S
C485 C497 1.453 . S
C485 C498 1.684 . S
H486 C510 0.948 . S
C487 C483 1.397 . S
C487 C488 1.394 . S
C487 C506 1.723 . S
C488 C485 1.396 . S
C488 C487 1.394 . S
C488 C518 1.723 . S
H489 C512 0.947 . S
H490 C513 0.948 . S
H491 C519 0.982 . S
H492 C520 0.979 . S
H493 C520 0.980 . S
H494 C520 0.983 . S
H495 C519 0.979 . S
H496 C519 0.977 . S
C497 C485 1.453 . S
C497 H526 0.982 . S
C497 H527 0.979 . S
C497 H528 0.977 . S
C498 C485 1.684 . S
C498 H523 0.979 . S
C498 H524 0.980 . S
C498 H525 0.983 . S
C499 C500 1.391 . S
C499 C504 1.391 . S
C499 H529 0.948 . S
C500 C499 1.391 . S
C500 C501 1.391 . S
C501 C500 1.391 . S
C501 C502 1.392 . S
C501 H530 0.947 . S
C502 C501 1.392 . S
C502 C503 1.419 . S
C502 H531 0.948 . S
C503 C502 1.419 . S
C503 C504 1.391 . S
C503 C507 1.397 . S
C504 C499 1.391 . S
C504 C503 1.391 . S
C504 C505 1.399 . S
C505 C504 1.399 . S
C505 C506 1.396 . S
C505 C508 1.453 . S
C505 C509 1.684 . S
C506 C487 1.723 . S
C506 C505 1.396 . S
C506 C507 1.394 . S
C507 C503 1.397 . S
C507 C506 1.394 . S
C507 C517 1.723 . S
C508 C505 1.453 . S
C508 H532 0.982 . S
C508 H533 0.979 . S
C508 H534 0.977 . S
C509 C505 1.684 . S
C509 H535 0.979 . S
C509 H536 0.980 . S
C509 H537 0.983 . S
C510 H486 0.948 . S
C510 C511 1.391 . S
C510 C515 1.391 . S
C511 C510 1.391 . S
C511 C512 1.391 . S
C512 H489 0.947 . S
C512 C511 1.391 . S
C512 C513 1.392 . S
C513 H490 0.948 . S
C513 C512 1.392 . S
C513 C514 1.419 . S
C514 C513 1.419 . S
C514 C515 1.391 . S
C514 C518 1.397 . S
C515 C510 1.391 . S
C515 C514 1.391 . S
C515 C516 1.399 . S
C516 C515 1.399 . S
C516 C517 1.396 . S
C516 C519 1.453 . S
C516 C520 1.684 . S
C517 C507 1.723 . S
C517 C516 1.396 . S
C517 C518 1.394 . S
C518 C488 1.723 . S
C518 C514 1.397 . S
C518 C517 1.394 . S
C519 H491 0.982 . S
C519 H495 0.979 . S
C519 H496 0.977 . S
C519 C516 1.453 . S
C520 H492 0.979 . S
C520 H493 0.980 . S
C520 H494 0.983 . S
C520 C516 1.684 . S
H521 C539 0.948 . S
H522 C480 0.948 . S
H523 C498 0.979 . S
H524 C498 0.980 . S
H525 C498 0.983 . S
H526 C497 0.982 . S
H527 C497 0.979 . S
H528 C497 0.977 . S
H529 C499 0.948 . S
H530 C501 0.947 . S
H531 C502 0.948 . S
H532 C508 0.982 . S
H533 C508 0.979 . S
H534 C508 0.977 . S
H535 C509 0.979 . S
H536 C509 0.980 . S
H537 C509 0.983 . S
H538 C482 0.947 . S
C539 C482 1.392 . S
C539 C483 1.419 . S
C539 H521 0.948 . S
C540 C541 1.391 . S
C540 C544 1.391 . S
C540 H582 0.948 . S
C541 C540 1.391 . S
C541 C542 1.391 . S
C542 C541 1.391 . S
C542 H598 0.947 . S
C542 C599 1.392 . S
C543 C544 1.391 . S
C543 C547 1.397 . S
C543 C599 1.419 . S
C544 C540 1.391 . S
C544 C543 1.391 . S
C544 C545 1.399 . S
C545 C544 1.399 . S
C545 C548 1.396 . S
C545 C557 1.453 . S
C545 C558 1.684 . S
H546 C570 0.948 . S
C547 C543 1.397 . S
C547 C548 1.394 . S
C547 C566 1.723 . S
C548 C545 1.396 . S
C548 C547 1.394 . S
C548 C578 1.723 . S
H549 C572 0.947 . S
H550 C573 0.948 . S
H551 C579 0.982 . S
H552 C580 0.979 . S
H553 C580 0.980 . S
H554 C580 0.983 . S
H555 C579 0.979 . S
H556 C579 0.977 . S
C557 C545 1.453 . S
C557 H586 0.982 . S
C557 H587 0.979 . S
C557 H588 0.977 . S
C558 C545 1.684 . S
C558 H583 0.979 . S
C558 H584 0.980 . S
C558 H585 0.983 . S
C559 C560 1.391 . S
C559 C564 1.391 . S
C559 H589 0.948 . S
C560 C559 1.391 . S
C560 C561 1.391 . S
C561 C560 1.391 . S
C561 C562 1.392 . S
C561 H590 0.947 . S
C562 C561 1.392 . S
C562 C563 1.419 . S
C562 H591 0.948 . S
C563 C562 1.419 . S
C563 C564 1.391 . S
C563 C567 1.397 . S
C564 C559 1.391 . S
C564 C563 1.391 . S
C564 C565 1.399 . S
C565 C564 1.399 . S
C565 C566 1.396 . S
C565 C568 1.453 . S
C565 C569 1.684 . S
C566 C547 1.723 . S
C566 C565 1.396 . S
C566 C567 1.394 . S
C567 C563 1.397 . S
C567 C566 1.394 . S
C567 C577 1.723 . S
C568 C565 1.453 . S
C568 H592 0.982 . S
C568 H593 0.979 . S
C568 H594 0.977 . S
C569 C565 1.684 . S
C569 H595 0.979 . S
C569 H596 0.980 . S
C569 H597 0.983 . S
C570 H546 0.948 . S
C570 C571 1.391 . S
C570 C575 1.391 . S
C571 C570 1.391 . S
C571 C572 1.391 . S
C572 H549 0.947 . S
C572 C571 1.391 . S
C572 C573 1.392 . S
C573 H550 0.948 . S
C573 C572 1.392 . S
C573 C574 1.419 . S
C574 C573 1.419 . S
C574 C575 1.391 . S
C574 C578 1.397 . S
C575 C570 1.391 . S
C575 C574 1.391 . S
C575 C576 1.399 . S
C576 C575 1.399 . S
C576 C577 1.396 . S
C576 C579 1.453 . S
C576 C580 1.684 . S
C577 C567 1.723 . S
C577 C576 1.396 . S
C577 C578 1.394 . S
C578 C548 1.723 . S
C578 C574 1.397 . S
C578 C577 1.394 . S
C579 H551 0.982 . S
C579 H555 0.979 . S
C579 H556 0.977 . S
C579 C576 1.453 . S
C580 H552 0.979 . S
C580 H553 0.980 . S
C580 H554 0.983 . S
C580 C576 1.684 . S
H581 C599 0.948 . S
H582 C540 0.948 . S
H583 C558 0.979 . S
H584 C558 0.980 . S
H585 C558 0.983 . S
H586 C557 0.982 . S
H587 C557 0.979 . S
H588 C557 0.977 . S
H589 C559 0.948 . S
H590 C561 0.947 . S
H591 C562 0.948 . S
H592 C568 0.982 . S
H593 C568 0.979 . S
H594 C568 0.977 . S
H595 C569 0.979 . S
H596 C569 0.980 . S
H597 C569 0.983 . S
H598 C542 0.947 . S
C599 C542 1.392 . S
C599 C543 1.419 . S
C599 H581 0.948 . S
C600 C601 1.391 . S
C600 C604 1.391 . S
C600 H642 0.948 . S
C601 C600 1.391 . S
C601 C602 1.391 . S
C602 C601 1.391 . S
C602 H658 0.947 . S
C602 C659 1.392 . S
C603 C604 1.391 . S
C603 C607 1.397 . S
C603 C659 1.419 . S
C604 C600 1.391 . S
C604 C603 1.391 . S
C604 C605 1.399 . S
C605 C604 1.399 . S
C605 C608 1.396 . S
C605 C617 1.453 . S
C605 C618 1.684 . S
H606 C630 0.948 . S
C607 C603 1.397 . S
C607 C608 1.394 . S
C607 C626 1.723 . S
C608 C605 1.396 . S
C608 C607 1.394 . S
C608 C638 1.723 . S
H609 C632 0.947 . S
H610 C633 0.948 . S
H611 C639 0.982 . S
H612 C640 0.979 . S
H613 C640 0.980 . S
H614 C640 0.983 . S
H615 C639 0.979 . S
H616 C639 0.977 . S
C617 C605 1.453 . S
C617 H646 0.982 . S
C617 H647 0.979 . S
C617 H648 0.977 . S
C618 C605 1.684 . S
C618 H643 0.979 . S
C618 H644 0.980 . S
C618 H645 0.983 . S
C619 C620 1.391 . S
C619 C624 1.391 . S
C619 H649 0.948 . S
C620 C619 1.391 . S
C620 C621 1.391 . S
C621 C620 1.391 . S
C621 C622 1.392 . S
C621 H650 0.947 . S
C622 C621 1.392 . S
C622 C623 1.419 . S
C622 H651 0.948 . S
C623 C622 1.419 . S
C623 C624 1.391 . S
C623 C627 1.397 . S
C624 C619 1.391 . S
C624 C623 1.391 . S
C624 C625 1.399 . S
C625 C624 1.399 . S
C625 C626 1.396 . S
C625 C628 1.453 . S
C625 C629 1.684 . S
C626 C607 1.723 . S
C626 C625 1.396 . S
C626 C627 1.394 . S
C627 C623 1.397 . S
C627 C626 1.394 . S
C627 C637 1.723 . S
C628 C625 1.453 . S
C628 H652 0.982 . S
C628 H653 0.979 . S
C628 H654 0.977 . S
C629 C625 1.684 . S
C629 H655 0.979 . S
C629 H656 0.980 . S
C629 H657 0.983 . S
C630 H606 0.948 . S
C630 C631 1.391 . S
C630 C635 1.391 . S
C631 C630 1.391 . S
C631 C632 1.391 . S
C632 H609 0.947 . S
C632 C631 1.391 . S
C632 C633 1.392 . S
C633 H610 0.948 . S
C633 C632 1.392 . S
C633 C634 1.419 . S
C634 C633 1.419 . S
C634 C635 1.391 . S
C634 C638 1.397 . S
C635 C630 1.391 . S
C635 C634 1.391 . S
C635 C636 1.399 . S
C636 C635 1.399 . S
C636 C637 1.396 . S
C636 C639 1.453 . S
C636 C640 1.684 . S
C637 C627 1.723 . S
C637 C636 1.396 . S
C637 C638 1.394 . S
C638 C608 1.723 . S
C638 C634 1.397 . S
C638 C637 1.394 . S
C639 H611 0.982 . S
C639 H615 0.979 . S
C639 H616 0.977 . S
C639 C636 1.453 . S
C640 H612 0.979 . S
C640 H613 0.980 . S
C640 H614 0.983 . S
C640 C636 1.684 . S
H641 C659 0.948 . S
H642 C600 0.948 . S
H643 C618 0.979 . S
H644 C618 0.980 . S
H645 C618 0.983 . S
H646 C617 0.982 . S
H647 C617 0.979 . S
H648 C617 0.977 . S
H649 C619 0.948 . S
H650 C621 0.947 . S
H651 C622 0.948 . S
H652 C628 0.982 . S
H653 C628 0.979 . S
H654 C628 0.977 . S
H655 C629 0.979 . S
H656 C629 0.980 . S
H657 C629 0.983 . S
H658 C602 0.947 . S
C659 C602 1.392 . S
C659 C603 1.419 . S
C659 H641 0.948 . S
C660 C661 1.391 . S
C660 C664 1.391 . S
C660 H702 0.948 . S
C661 C660 1.391 . S
C661 C662 1.391 . S
C662 C661 1.391 . S
C662 H718 0.947 . S
C662 C719 1.392 . S
C663 C664 1.391 . S
C663 C667 1.397 . S
C663 C719 1.419 . S
C664 C660 1.391 . S
C664 C663 1.391 . S
C664 C665 1.399 . S
C665 C664 1.399 . S
C665 C668 1.396 . S
C665 C677 1.453 . S
C665 C678 1.684 . S
H666 C690 0.948 . S
C667 C663 1.397 . S
C667 C668 1.394 . S
C667 C686 1.723 . S
C668 C665 1.396 . S
C668 C667 1.394 . S
C668 C698 1.723 . S
H669 C692 0.947 . S
H670 C693 0.948 . S
H671 C699 0.982 . S
H672 C700 0.979 . S
H673 C700 0.980 . S
H674 C700 0.983 . S
H675 C699 0.979 . S
H676 C699 0.977 . S
C677 C665 1.453 . S
C677 H706 0.982 . S
C677 H707 0.979 . S
C677 H708 0.977 . S
C678 C665 1.684 . S
C678 H703 0.979 . S
C678 H704 0.980 . S
C678 H705 0.983 . S
C679 C680 1.391 . S
C679 C684 1.391 . S
C679 H709 0.948 . S
C680 C679 1.391 . S
C680 C681 1.391 . S
C681 C680 1.391 . S
C681 C682 1.392 . S
C681 H710 0.947 . S
C682 C681 1.392 . S
C682 C683 1.419 . S
C682 H711 0.948 . S
C683 C682 1.419 . S
C683 C684 1.391 . S
C683 C687 1.397 . S
C684 C679 1.391 . S
C684 C683 1.391 . S
C684 C685 1.399 . S
C685 C684 1.399 . S
C685 C686 1.396 . S
C685 C688 1.453 . S
C685 C689 1.684 . S
C686 C667 1.723 . S
C686 C685 1.396 . S
C686 C687 1.394 . S
C687 C683 1.397 . S
C687 C686 1.394 . S
C687 C697 1.723 . S
C688 C685 1.453 . S
C688 H712 0.982 . S
C688 H713 0.979 . S
C688 H714 0.977 . S
C689 C685 1.684 . S
C689 H715 0.979 . S
C689 H716 0.980 . S
C689 H717 0.983 . S
C690 H666 0.948 . S
C690 C691 1.391 . S
C690 C695 1.391 . S
C691 C690 1.391 . S
C691 C692 1.391 . S
C692 H669 0.947 . S
C692 C691 1.391 . S
C692 C693 1.392 . S
C693 H670 0.948 . S
C693 C692 1.392 . S
C693 C694 1.419 . S
C694 C693 1.419 . S
C694 C695 1.391 . S
C694 C698 1.397 . S
C695 C690 1.391 . S
C695 C694 1.391 . S
C695 C696 1.399 . S
C696 C695 1.399 . S
C696 C697 1.396 . S
C696 C699 1.453 . S
C696 C700 1.684 . S
C697 C687 1.723 . S
C697 C696 1.396 . S
C697 C698 1.394 . S
C698 C668 1.723 . S
C698 C694 1.397 . S
C698 C697 1.394 . S
C699 H671 0.982 . S
C699 H675 0.979 . S
C699 H676 0.977 . S
C699 C696 1.453 . S
C700 H672 0.979 . S
C700 H673 0.980 . S
C700 H674 0.983 . S
C700 C696 1.684 . S
H701 C719 0.948 . S
H702 C660 0.948 . S
H703 C678 0.979 . S
H704 C678 0.980 . S
H705 C678 0.983 . S
H706 C677 0.982 . S
H707 C677 0.979 . S
H708 C677 0.977 . S
H709 C679 0.948 . S
H710 C681 0.947 . S
H711 C682 0.948 . S
H712 C688 0.982 . S
H713 C688 0.979 . S
H714 C688 0.977 . S
H715 C689 0.979 . S
H716 C689 0.980 . S
H717 C689 0.983 . S
H718 C662 0.947 . S
C719 C662 1.392 . S
C719 C663 1.419 . S
C719 H701 0.948 . S
C720 C721 1.391 . S
C720 C724 1.391 . S
C720 H762 0.948 . S
C721 C720 1.391 . S
C721 C722 1.391 . S
C722 C721 1.391 . S
C722 H778 0.947 . S
C722 C779 1.392 . S
C723 C724 1.391 . S
C723 C727 1.397 . S
C723 C779 1.419 . S
C724 C720 1.391 . S
C724 C723 1.391 . S
C724 C725 1.399 . S
C725 C724 1.399 . S
C725 C728 1.396 . S
C725 C737 1.453 . S
C725 C738 1.684 . S
H726 C750 0.948 . S
C727 C723 1.397 . S
C727 C728 1.394 . S
C727 C746 1.723 . S
C728 C725 1.396 . S
C728 C727 1.394 . S
C728 C758 1.723 . S
H729 C752 0.947 . S
H730 C753 0.948 . S
H731 C759 0.982 . S
H732 C760 0.979 . S
H733 C760 0.980 . S
H734 C760 0.983 . S
H735 C759 0.979 . S
H736 C759 0.977 . S
C737 C725 1.453 . S
C737 H766 0.982 . S
C737 H767 0.979 . S
C737 H768 0.977 . S
C738 C725 1.684 . S
C738 H763 0.979 . S
C738 H764 0.980 . S
C738 H765 0.983 . S
C739 C740 1.391 . S
C739 C744 1.391 . S
C739 H769 0.948 . S
C740 C739 1.391 . S
C740 C741 1.391 . S
C741 C740 1.391 . S
C741 C742 1.392 . S
C741 H770 0.947 . S
C742 C741 1.392 . S
C742 C743 1.419 . S
C742 H771 0.948 . S
C743 C742 1.419 . S
C743 C744 1.391 . S
C743 C747 1.397 . S
C744 C739 1.391 . S
C744 C743 1.391 . S
C744 C745 1.399 . S
C745 C744 1.399 . S
C745 C746 1.396 . S
C745 C748 1.453 . S
C745 C749 1.684 . S
C746 C727 1.723 . S
C746 C745 1.396 . S
C746 C747 1.394 . S
C747 C743 1.397 . S
C747 C746 1.394 . S
C747 C757 1.723 . S
C748 C745 1.453 . S
C748 H772 0.982 . S
C748 H773 0.979 . S
C748 H774 0.977 . S
C749 C745 1.684 . S
C749 H775 0.979 . S
C749 H776 0.980 . S
C749 H777 0.983 . S
C750 H726 0.948 . S
C750 C751 1.391 . S
C750 C755 1.391 . S
C751 C750 1.391 . S
C751 C752 1.391 . S
C752 H729 0.947 . S
C752 C751 1.391 . S
C752 C753 1.392 . S
C753 H730 0.948 . S
C753 C752 1.392 . S
C753 C754 1.419 . S
C754 C753 1.419 . S
C754 C755 1.391 . S
C754 C758 1.397 . S
C755 C750 1.391 . S
C755 C754 1.391 . S
C755 C756 1.399 . S
C756 C755 1.399 . S
C756 C757 1.396 . S
C756 C759 1.453 . S
C756 C760 1.684 . S
C757 C747 1.723 . S
C757 C756 1.396 . S
C757 C758 1.394 . S
C758 C728 1.723 . S
C758 C754 1.397 . S
C758 C757 1.394 . S
C759 H731 0.982 . S
C759 H735 0.979 . S
C759 H736 0.977 . S
C759 C756 1.453 . S
C760 H732 0.979 . S
C760 H733 0.980 . S
C760 H734 0.983 . S
C760 C756 1.684 . S
H761 C779 0.948 . S
H762 C720 0.948 . S
H763 C738 0.979 . S
H764 C738 0.980 . S
H765 C738 0.983 . S
H766 C737 0.982 . S
H767 C737 0.979 . S
H768 C737 0.977 . S
H769 C739 0.948 . S
H770 C741 0.947 . S
H771 C742 0.948 . S
H772 C748 0.982 . S
H773 C748 0.979 . S
H774 C748 0.977 . S
H775 C749 0.979 . S
H776 C749 0.980 . S
H777 C749 0.983 . S
H778 C722 0.947 . S
C779 C722 1.392 . S
C779 C723 1.419 . S
C779 H761 0.948 . S
C780 C781 1.391 . S
C780 C784 1.391 . S
C780 H822 0.948 . S
C781 C780 1.391 . S
C781 C782 1.391 . S
C782 C781 1.391 . S
C782 H838 0.947 . S
C782 C839 1.392 . S
C783 C784 1.391 . S
C783 C787 1.397 . S
C783 C839 1.419 . S
C784 C780 1.391 . S
C784 C783 1.391 . S
C784 C785 1.399 . S
C785 C784 1.399 . S
C785 C788 1.396 . S
C785 C797 1.453 . S
C785 C798 1.684 . S
H786 C810 0.948 . S
C787 C783 1.397 . S
C787 C788 1.394 . S
C787 C806 1.723 . S
C788 C785 1.396 . S
C788 C787 1.394 . S
C788 C818 1.723 . S
H789 C812 0.947 . S
H790 C813 0.948 . S
H791 C819 0.982 . S
H792 C820 0.979 . S
H793 C820 0.980 . S
H794 C820 0.983 . S
H795 C819 0.979 . S
H796 C819 0.977 . S
C797 C785 1.453 . S
C797 H826 0.982 . S
C797 H827 0.979 . S
C797 H828 0.977 . S
C798 C785 1.684 . S
C798 H823 0.979 . S
C798 H824 0.980 . S
C798 H825 0.983 . S
C799 C800 1.391 . S
C799 C804 1.391 . S
C799 H829 0.948 . S
C800 C799 1.391 . S
C800 C801 1.391 . S
C801 C800 1.391 . S
C801 C802 1.392 . S
C801 H830 0.947 . S
C802 C801 1.392 . S
C802 C803 1.419 . S
C802 H831 0.948 . S
C803 C802 1.419 . S
C803 C804 1.391 . S
C803 C807 1.397 . S
C804 C799 1.391 . S
C804 C803 1.391 . S
C804 C805 1.399 . S
C805 C804 1.399 . S
C805 C806 1.396 . S
C805 C808 1.453 . S
C805 C809 1.684 . S
C806 C787 1.723 . S
C806 C805 1.396 . S
C806 C807 1.394 . S
C807 C803 1.397 . S
C807 C806 1.394 . S
C807 C817 1.723 . S
C808 C805 1.453 . S
C808 H832 0.982 . S
C808 H833 0.979 . S
C808 H834 0.977 . S
C809 C805 1.684 . S
C809 H835 0.979 . S
C809 H836 0.980 . S
C809 H837 0.983 . S
C810 H786 0.948 . S
C810 C811 1.391 . S
C810 C815 1.391 . S
C811 C810 1.391 . S
C811 C812 1.391 . S
C812 H789 0.947 . S
C812 C811 1.391 . S
C812 C813 1.392 . S
C813 H790 0.948 . S
C813 C812 1.392 . S
C813 C814 1.419 . S
C814 C813 1.419 . S
C814 C815 1.391 . S
C814 C818 1.397 . S
C815 C810 1.391 . S
C815 C814 1.391 . S
C815 C816 1.399 . S
C816 C815 1.399 . S
C816 C817 1.396 . S
C816 C819 1.453 . S
C816 C820 1.684 . S
C817 C807 1.723 . S
C817 C816 1.396 . S
C817 C818 1.394 . S
C818 C788 1.723 . S
C818 C814 1.397 . S
C818 C817 1.394 . S
C819 H791 0.982 . S
C819 H795 0.979 . S
C819 H796 0.977 . S
C819 C816 1.453 . S
C820 H792 0.979 . S
C820 H793 0.980 . S
C820 H794 0.983 . S
C820 C816 1.684 . S
H821 C839 0.948 . S
H822 C780 0.948 . S
H823 C798 0.979 . S
H824 C798 0.980 . S
H825 C798 0.983 . S
H826 C797 0.982 . S
H827 C797 0.979 . S
H828 C797 0.977 . S
H829 C799 0.948 . S
H830 C801 0.947 . S
H831 C802 0.948 . S
H832 C808 0.982 . S
H833 C808 0.979 . S
H834 C808 0.977 . S
H835 C809 0.979 . S
H836 C809 0.980 . S
H837 C809 0.983 . S
H838 C782 0.947 . S
C839 C782 1.392 . S
C839 C783 1.419 . S
C839 H821 0.948 . S
C840 C841 1.391 . S
C840 C844 1.391 . S
C840 H882 0.948 . S
C841 C840 1.391 . S
C841 C842 1.391 . S
C842 C841 1.391 . S
C842 H898 0.947 . S
C842 C899 1.392 . S
C843 C844 1.391 . S
C843 C847 1.397 . S
C843 C899 1.419 . S
C844 C840 1.391 . S
C844 C843 1.391 . S
C844 C845 1.399 . S
C845 C844 1.399 . S
C845 C848 1.396 . S
C845 C857 1.453 . S
C845 C858 1.684 . S
H846 C870 0.948 . S
C847 C843 1.397 . S
C847 C848 1.394 . S
C847 C866 1.723 . S
C848 C845 1.396 . S
C848 C847 1.394 . S
C848 C878 1.723 . S
H849 C872 0.947 . S
H850 C873 0.948 . S
H851 C879 0.982 . S
H852 C880 0.979 . S
H853 C880 0.980 . S
H854 C880 0.983 . S
H855 C879 0.979 . S
H856 C879 0.977 . S
C857 C845 1.453 . S
C857 H886 0.982 . S
C857 H887 0.979 . S
C857 H888 0.977 . S
C858 C845 1.684 . S
C858 H883 0.979 . S
C858 H884 0.980 . S
C858 H885 0.983 . S
C859 C860 1.391 . S
C859 C864 1.391 . S
C859 H889 0.948 . S
C860 C859 1.391 . S
C860 C861 1.391 . S
C861 C860 1.391 . S
C861 C862 1.392 . S
C861 H890 0.947 . S
C862 C861 1.392 . S
C862 C863 1.419 . S
C862 H891 0.948 . S
C863 C862 1.419 . S
C863 C864 1.391 . S
C863 C867 1.397 . S
C864 C859 1.391 . S
C864 C863 1.391 . S
C864 C865 1.399 . S
C865 C864 1.399 . S
C865 C866 1.396 . S
C865 C868 1.453 . S
C865 C869 1.684 . S
C866 C847 1.723 . S
C866 C865 1.396 . S
C866 C867 1.394 . S
C867 C863 1.397 . S
C867 C866 1.394 . S
C867 C877 1.723 . S
C868 C865 1.453 . S
C868 H892 0.982 . S
C868 H893 0.979 . S
C868 H894 0.977 . S
C869 C865 1.684 . S
C869 H895 0.979 . S
C869 H896 0.980 . S
C869 H897 0.983 . S
C870 H846 0.948 . S
C870 C871 1.391 . S
C870 C875 1.391 . S
C871 C870 1.391 . S
C871 C872 1.391 . S
C872 H849 0.947 . S
C872 C871 1.391 . S
C872 C873 1.392 . S
C873 H850 0.948 . S
C873 C872 1.392 . S
C873 C874 1.419 . S
C874 C873 1.419 . S
C874 C875 1.391 . S
C874 C878 1.397 . S
C875 C870 1.391 . S
C875 C874 1.391 . S
C875 C876 1.399 . S
C876 C875 1.399 . S
C876 C877 1.396 . S
C876 C879 1.453 . S
C876 C880 1.684 . S
C877 C867 1.723 . S
C877 C876 1.396 . S
C877 C878 1.394 . S
C878 C848 1.723 . S
C878 C874 1.397 . S
C878 C877 1.394 . S
C879 H851 0.982 . S
C879 H855 0.979 . S
C879 H856 0.977 . S
C879 C876 1.453 . S
C880 H852 0.979 . S
C880 H853 0.980 . S
C880 H854 0.983 . S
C880 C876 1.684 . S
H881 C899 0.948 . S
H882 C840 0.948 . S
H883 C858 0.979 . S
H884 C858 0.980 . S
H885 C858 0.983 . S
H886 C857 0.982 . S
H887 C857 0.979 . S
H888 C857 0.977 . S
H889 C859 0.948 . S
H890 C861 0.947 . S
H891 C862 0.948 . S
H892 C868 0.982 . S
H893 C868 0.979 . S
H894 C868 0.977 . S
H895 C869 0.979 . S
H896 C869 0.980 . S
H897 C869 0.983 . S
H898 C842 0.947 . S
C899 C842 1.392 . S
C899 C843 1.419 . S
C899 H881 0.948 . S
C900 C901 1.391 . S
C900 C904 1.391 . S
C900 H942 0.948 . S
C901 C900 1.391 . S
C901 C902 1.391 . S
C902 C901 1.391 . S
C902 H958 0.947 . S
C902 C959 1.392 . S
C903 C904 1.391 . S
C903 C907 1.397 . S
C903 C959 1.419 . S
C904 C900 1.391 . S
C904 C903 1.391 . S
C904 C905 1.399 . S
C905 C904 1.399 . S
C905 C908 1.396 . S
C905 C917 1.453 . S
C905 C918 1.684 . S
H906 C930 0.948 . S
C907 C903 1.397 . S
C907 C908 1.394 . S
C907 C926 1.723 . S
C908 C905 1.396 . S
C908 C907 1.394 . S
C908 C938 1.723 . S
H909 C932 0.947 . S
H910 C933 0.948 . S
H911 C939 0.982 . S
H912 C940 0.979 . S
H913 C940 0.980 . S
H914 C940 0.983 . S
H915 C939 0.979 . S
H916 C939 0.977 . S
C917 C905 1.453 . S
C917 H946 0.982 . S
C917 H947 0.979 . S
C917 H948 0.977 . S
C918 C905 1.684 . S
C918 H943 0.979 . S
C918 H944 0.980 . S
C918 H945 0.983 . S
C919 C920 1.391 . S
C919 C924 1.391 . S
C919 H949 0.948 . S
C920 C919 1.391 . S
C920 C921 1.391 . S
C921 C920 1.391 . S
C921 C922 1.392 . S
C921 H950 0.947 . S
C922 C921 1.392 . S
C922 C923 1.419 . S
C922 H951 0.948 . S
C923 C922 1.419 . S
C923 C924 1.391 . S
C923 C927 1.397 . S
C924 C919 1.391 . S
C924 C923 1.391 . S
C924 C925 1.399 . S
C925 C924 1.399 . S
C925 C926 1.396 . S
C925 C928 1.453 . S
C925 C929 1.684 . S
C926 C907 1.723 . S
C926 C925 1.396 . S
C926 C927 1.394 . S
C927 C923 1.397 . S
C927 C926 1.394 . S
C927 C937 1.723 . S
C928 C925 1.453 . S
C928 H952 0.982 . S
C928 H953 0.979 . S
C928 H954 0.977 . S
C929 C925 1.684 . S
C929 H955 0.979 . S
C929 H956 0.980 . S
C929 H957 0.983 . S
C930 H906 0.948 . S
C930 C931 1.391 . S
C930 C935 1.391 . S
C931 C930 1.391 . S
C931 C932 1.391 . S
C932 H909 0.947 . S
C932 C931 1.391 . S
C932 C933 1.392 . S
C933 H910 0.948 . S
C933 C932 1.392 . S
C933 C934 1.419 . S
C934 C933 1.419 . S
C934 C935 1.391 . S
C934 C938 1.397 . S
C935 C930 1.391 . S
C935 C934 1.391 . S
C935 C936 1.399 . S
C936 C935 1.399 . S
C936 C937 1.396 . S
C936 C939 1.453 . S
C936 C940 1.684 . S
C937 C927 1.723 . S
C937 C936 1.396 . S
C937 C938 1.394 . S
C938 C908 1.723 . S
C938 C934 1.397 . S
C938 C937 1.394 . S
C939 H911 0.982 . S
C939 H915 0.979 . S
C939 H916 0.977 . S
C939 C936 1.453 . S
C940 H912 0.979 . S
C940 H913 0.980 . S
C940 H914 0.983 . S
C940 C936 1.684 . S
H941 C959 0.948 . S
H942 C900 0.948 . S
H943 C918 0.979 . S
H944 C918 0.980 . S
H945 C918 0.983 . S
H946 C917 0.982 . S
H947 C917 0.979 . S
H948 C917 0.977 . S
H949 C919 0.948 . S
H950 C921 0.947 . S
H951 C922 0.948 . S
H952 C928 0.982 . S
H953 C928 0.979 . S
H954 C928 0.977 . S
H955 C929 0.979 . S
H956 C929 0.980 . S
H957 C929 0.983 . S
H958 C902 0.947 . S
C959 C902 1.392 . S
C959 C903 1.419 . S
C959 H941 0.948 . S
C960 C961 1.391 . S
C960 C964 1.391 . S
C960 H1002 0.948 . S
C961 C960 1.391 . S
C961 C962 1.391 . S
C962 C961 1.391 . S
C962 H1018 0.947 . S
C962 C1019 1.392 . S
C963 C964 1.391 . S
C963 C967 1.397 . S
C963 C1019 1.419 . S
C964 C960 1.391 . S
C964 C963 1.391 . S
C964 C965 1.399 . S
C965 C964 1.399 . S
C965 C968 1.396 . S
C965 C977 1.453 . S
C965 C978 1.684 . S
H966 C990 0.948 . S
C967 C963 1.397 . S
C967 C968 1.394 . S
C967 C986 1.723 . S
C968 C965 1.396 . S
C968 C967 1.394 . S
C968 C998 1.723 . S
H969 C992 0.947 . S
H970 C993 0.948 . S
H971 C999 0.982 . S
H972 C1000 0.979 . S
H973 C1000 0.980 . S
H974 C1000 0.983 . S
H975 C999 0.979 . S
H976 C999 0.977 . S
C977 C965 1.453 . S
C977 H1006 0.982 . S
C977 H1007 0.979 . S
C977 H1008 0.977 . S
C978 C965 1.684 . S
C978 H1003 0.979 . S
C978 H1004 0.980 . S
C978 H1005 0.983 . S
C979 C980 1.391 . S
C979 C984 1.391 . S
C979 H1009 0.948 . S
C980 C979 1.391 . S
C980 C981 1.391 . S
C981 C980 1.391 . S
C981 C982 1.392 . S
C981 H1010 0.947 . S
C982 C981 1.392 . S
C982 C983 1.419 . S
C982 H1011 0.948 . S
C983 C982 1.419 . S
C983 C984 1.391 . S
C983 C987 1.397 . S
C984 C979 1.391 . S
C984 C983 1.391 . S
C984 C985 1.399 . S
C985 C984 1.399 . S
C985 C986 1.396 . S
C985 C988 1.453 . S
C985 C989 1.684 . S
C986 C967 1.723 . S
C986 C985 1.396 . S
C986 C987 1.394 . S
C987 C983 1.397 . S
C987 C986 1.394 . S
C987 C997 1.723 . S
C988 C985 1.453 . S
C988 H1012 0.982 . S
C988 H1013 0.979 . S
C988 H1014 0.977 . S
C989 C985 1.684 . S
C989 H1015 0.979 1_455 S
C989 H1016 0.980 . S
C989 H1017 0.983 . S
C990 H966 0.948 . S
C990 C991 1.391 . S
C990 C995 1.391 . S
C991 C990 1.391 . S
C991 C992 1.391 . S
C992 H969 0.947 . S
C992 C991 1.391 . S
C992 C993 1.392 . S
C993 H970 0.948 . S
C993 C992 1.392 . S
C993 C994 1.419 . S
C994 C993 1.419 . S
C994 C995 1.391 . S
C994 C998 1.397 . S
C995 C990 1.391 . S
C995 C994 1.391 . S
C995 C996 1.399 . S
C996 C995 1.399 . S
C996 C997 1.396 . S
C996 C999 1.453 . S
C996 C1000 1.684 . S
C997 C987 1.723 . S
C997 C996 1.396 . S
C997 C998 1.394 . S
C998 C968 1.723 . S
C998 C994 1.397 . S
C998 C997 1.394 . S
C999 H971 0.982 . S
C999 H975 0.979 . S
C999 H976 0.977 . S
C999 C996 1.453 . S
C1000 H972 0.979 . S
C1000 H973 0.980 . S
C1000 H974 0.983 . S
C1000 C996 1.684 . S
H1001 C1019 0.948 . S
H1002 C960 0.948 . S
H1003 C978 0.979 . S
H1004 C978 0.980 . S
H1005 C978 0.983 . S
H1006 C977 0.982 . S
H1007 C977 0.979 . S
H1008 C977 0.977 . S
H1009 C979 0.948 . S
H1010 C981 0.947 . S
H1011 C982 0.948 . S
H1012 C988 0.982 . S
H1013 C988 0.979 . S
H1014 C988 0.977 . S
H1015 C989 0.979 1_655 S
H1016 C989 0.980 . S
H1017 C989 0.983 . S
H1018 C962 0.947 . S
C1019 C962 1.392 . S
C1019 C963 1.419 . S
C1019 H1001 0.948 . S
C1020 C1021 1.391 . S
C1020 C1024 1.391 . S
C1020 H1062 0.948 . S
C1021 C1020 1.391 . S
C1021 C1022 1.391 . S
C1022 C1021 1.391 . S
C1022 H1078 0.947 . S
C1022 C1079 1.392 . S
C1023 C1024 1.391 . S
C1023 C1027 1.397 . S
C1023 C1079 1.419 . S
C1024 C1020 1.391 . S
C1024 C1023 1.391 . S
C1024 C1025 1.399 . S
C1025 C1024 1.399 . S
C1025 C1028 1.396 . S
C1025 C1037 1.453 . S
C1025 C1038 1.684 . S
H1026 C1050 0.948 . S
C1027 C1023 1.397 . S
C1027 C1028 1.394 . S
C1027 C1046 1.723 . S
C1028 C1025 1.396 . S
C1028 C1027 1.394 . S
C1028 C1058 1.723 . S
H1029 C1052 0.947 . S
H1030 C1053 0.948 . S
H1031 C1059 0.982 . S
H1032 C1060 0.979 . S
H1033 C1060 0.980 . S
H1034 C1060 0.983 . S
H1035 C1059 0.979 . S
H1036 C1059 0.977 . S
C1037 C1025 1.453 . S
C1037 H1066 0.982 . S
C1037 H1067 0.979 . S
C1037 H1068 0.977 . S
C1038 C1025 1.684 . S
C1038 H1063 0.979 . S
C1038 H1064 0.980 . S
C1038 H1065 0.983 . S
C1039 C1040 1.391 . S
C1039 C1044 1.391 . S
C1039 H1069 0.948 . S
C1040 C1039 1.391 . S
C1040 C1041 1.391 . S
C1041 C1040 1.391 . S
C1041 C1042 1.392 . S
C1041 H1070 0.947 . S
C1042 C1041 1.392 . S
C1042 C1043 1.419 . S
C1042 H1071 0.948 . S
C1043 C1042 1.419 . S
C1043 C1044 1.391 . S
C1043 C1047 1.397 . S
C1044 C1039 1.391 . S
C1044 C1043 1.391 . S
C1044 C1045 1.399 . S
C1045 C1044 1.399 . S
C1045 C1046 1.396 . S
C1045 C1048 1.453 . S
C1045 C1049 1.684 . S
C1046 C1027 1.723 . S
C1046 C1045 1.396 . S
C1046 C1047 1.394 . S
C1047 C1043 1.397 . S
C1047 C1046 1.394 . S
C1047 C1057 1.723 . S
C1048 C1045 1.453 . S
C1048 H1072 0.982 . S
C1048 H1073 0.979 . S
C1048 H1074 0.977 . S
C1049 C1045 1.684 . S
C1049 H1075 0.979 . S
C1049 H1076 0.980 . S
C1049 H1077 0.983 . S
C1050 H1026 0.948 . S
C1050 C1051 1.391 . S
C1050 C1055 1.391 . S
C1051 C1050 1.391 . S
C1051 C1052 1.391 . S
C1052 H1029 0.947 . S
C1052 C1051 1.391 . S
C1052 C1053 1.392 . S
C1053 H1030 0.948 . S
C1053 C1052 1.392 . S
C1053 C1054 1.419 . S
C1054 C1053 1.419 . S
C1054 C1055 1.391 . S
C1054 C1058 1.397 . S
C1055 C1050 1.391 . S
C1055 C1054 1.391 . S
C1055 C1056 1.399 . S
C1056 C1055 1.399 . S
C1056 C1057 1.396 . S
C1056 C1059 1.453 . S
C1056 C1060 1.684 . S
C1057 C1047 1.723 . S
C1057 C1056 1.396 . S
C1057 C1058 1.394 . S
C1058 C1028 1.723 . S
C1058 C1054 1.397 . S
C1058 C1057 1.394 . S
C1059 H1031 0.982 . S
C1059 H1035 0.979 . S
C1059 H1036 0.977 . S
C1059 C1056 1.453 . S
C1060 H1032 0.979 . S
C1060 H1033 0.980 . S
C1060 H1034 0.983 . S
C1060 C1056 1.684 . S
H1061 C1079 0.948 . S
H1062 C1020 0.948 . S
H1063 C1038 0.979 . S
H1064 C1038 0.980 . S
H1065 C1038 0.983 . S
H1066 C1037 0.982 . S
H1067 C1037 0.979 . S
H1068 C1037 0.977 . S
H1069 C1039 0.948 . S
H1070 C1041 0.947 . S
H1071 C1042 0.948 . S
H1072 C1048 0.982 . S
H1073 C1048 0.979 . S
H1074 C1048 0.977 . S
H1075 C1049 0.979 . S
H1076 C1049 0.980 . S
H1077 C1049 0.983 . S
H1078 C1022 0.947 . S
C1079 C1022 1.392 . S
C1079 C1023 1.419 . S
C1079 H1061 0.948 . S
Tb1080 C1090 2.825 . S
Tb1080 O1091 2.347 1_565 S
Tb1080 O1094 2.366 1_565 S
Tb1080 O1099 2.418 . S
Tb1080 O1100 2.384 . S
Tb1080 O1103 2.479 . S
Tb1080 O1104 2.441 1_565 S
Eu1081 O1092 2.418 . S
Eu1081 O1093 2.384 . S
Eu1081 O1096 2.479 . S
Eu1081 O1097 2.449 1_545 S
Eu1081 O1098 2.347 1_545 S
Eu1081 O1101 2.366 1_545 S
Eu1081 C1111 2.825 . S
C1082 O1098 1.259 . S
C1082 O1099 1.265 1_554 S
C1083 O1100 1.255 1_554 S
C1083 O1101 1.265 . S
C1084 C1086 1.380 . S
C1084 C1087 1.374 1_565 S
C1084 C1090 1.507 . S
C1085 C1086 1.384 . S
C1085 C1089 1.387 1_565 S
C1085 H1112 0.930 . S
C1086 C1084 1.380 . S
C1086 C1085 1.384 . S
C1086 H1113 0.931 . S
C1087 C1084 1.374 1_545 S
C1087 C1088 1.390 . S
C1087 H1114 0.930 . S
C1088 C1087 1.390 . S
C1088 C1089 1.391 . S
C1088 H1115 0.930 . S
C1089 C1085 1.387 1_545 S
C1089 C1088 1.391 . S
C1090 Tb1080 2.825 . S
C1090 C1084 1.507 . S
C1090 O1103 1.238 . S
C1090 O1104 1.202 1_565 S
O1091 Tb1080 2.347 1_545 S
O1091 C1095 1.259 . S
O1092 Eu1081 2.418 . S
O1092 C1095 1.265 1_554 S
O1093 Eu1081 2.384 . S
O1093 C1102 1.255 1_554 S
O1094 Tb1080 2.366 1_545 S
O1094 C1102 1.265 . S
C1095 O1091 1.259 . S
C1095 O1092 1.265 1_556 S
O1096 Eu1081 2.479 . S
O1096 C1111 1.238 . S
O1097 Eu1081 2.449 1_565 S
O1097 C1111 1.214 1_565 S
O1098 Eu1081 2.347 1_565 S
O1098 C1082 1.259 . S
O1099 Tb1080 2.418 . S
O1099 C1082 1.265 1_556 S
O1100 Tb1080 2.384 . S
O1100 C1083 1.255 1_556 S
O1101 Eu1081 2.366 1_565 S
O1101 C1083 1.265 . S
C1102 O1093 1.255 1_556 S
C1102 O1094 1.265 . S
O1103 Tb1080 2.479 . S
O1103 C1090 1.238 . S
O1104 Tb1080 2.441 1_545 S
O1104 C1090 1.202 1_545 S
C1105 C1108 1.380 . S
C1105 C1109 1.374 1_545 S
C1105 C1111 1.507 . S
C1106 C1107 1.387 1_565 S
C1106 C1110 1.391 . S
C1107 C1106 1.387 1_545 S
C1107 C1108 1.384 . S
C1107 H1116 0.930 . S
C1108 C1105 1.380 . S
C1108 C1107 1.384 . S
C1108 H1117 0.931 . S
C1109 C1105 1.374 1_565 S
C1109 C1110 1.390 . S
C1109 H1118 0.930 . S
C1110 C1106 1.391 . S
C1110 C1109 1.390 . S
C1110 H1119 0.930 . S
C1111 Eu1081 2.825 . S
C1111 O1096 1.238 . S
C1111 O1097 1.214 1_545 S
C1111 C1105 1.507 . S
H1112 C1085 0.930 . S
H1113 C1086 0.931 . S
H1114 C1087 0.930 . S
H1115 C1088 0.930 . S
H1116 C1107 0.930 . S
H1117 C1108 0.931 . S
H1118 C1109 0.930 . S
H1119 C1110 0.930 . S
Tb1120 C1130 2.825 . S
Tb1120 O1131 2.347 1_455 S
Tb1120 O1134 2.366 1_455 S
Tb1120 O1139 2.418 . S
Tb1120 O1140 2.384 1_556 S
Tb1120 O1143 2.479 . S
Tb1120 O1144 2.471 1_455 S
Eu1121 O1132 2.418 . S
Eu1121 O1133 2.384 1_554 S
Eu1121 O1136 2.479 . S
Eu1121 O1137 2.471 1_655 S
Eu1121 O1138 2.347 1_655 S
Eu1121 O1141 2.366 1_655 S
Eu1121 C1151 2.825 . S
C1122 O1138 1.259 . S
C1122 O1139 1.265 1_554 S
C1123 O1140 1.255 . S
C1123 O1141 1.265 . S
C1124 C1126 1.380 . S
C1124 C1127 1.374 1_455 S
C1124 C1130 1.507 . S
C1125 C1126 1.384 . S
C1125 C1129 1.387 1_455 S
C1125 H1152 0.930 . S
C1126 C1124 1.380 . S
C1126 C1125 1.384 . S
C1126 H1153 0.931 . S
C1127 C1124 1.374 1_655 S
C1127 C1128 1.390 . S
C1127 H1154 0.930 . S
C1128 C1127 1.390 . S
C1128 C1129 1.391 . S
C1128 H1155 0.930 . S
C1129 C1125 1.387 1_655 S
C1129 C1128 1.391 . S
C1130 Tb1120 2.825 . S
C1130 C1124 1.507 . S
C1130 O1143 1.238 . S
C1130 O1144 1.247 1_455 S
O1131 Tb1120 2.347 1_655 S
O1131 C1135 1.259 . S
O1132 Eu1121 2.418 . S
O1132 C1135 1.265 1_554 S
O1133 Eu1121 2.384 1_556 S
O1133 C1142 1.255 . S
O1134 Tb1120 2.366 1_655 S
O1134 C1142 1.265 . S
C1135 O1131 1.259 . S
C1135 O1132 1.265 1_556 S
O1136 Eu1121 2.479 . S
O1136 C1151 1.238 . S
O1137 Eu1121 2.471 1_455 S
O1137 C1151 1.247 1_455 S
O1138 Eu1121 2.347 1_455 S
O1138 C1122 1.259 . S
O1139 Tb1120 2.418 . S
O1139 C1122 1.265 1_556 S
O1140 Tb1120 2.384 1_554 S
O1140 C1123 1.255 . S
O1141 Eu1121 2.366 1_455 S
O1141 C1123 1.265 . S
C1142 O1133 1.255 . S
C1142 O1134 1.265 . S
O1143 Tb1120 2.479 . S
O1143 C1130 1.238 . S
O1144 Tb1120 2.471 1_655 S
O1144 C1130 1.247 1_655 S
C1145 C1148 1.380 . S
C1145 C1149 1.374 1_655 S
C1145 C1151 1.507 . S
C1146 C1147 1.387 1_455 S
C1146 C1150 1.391 . S
C1147 C1146 1.387 1_655 S
C1147 C1148 1.384 . S
C1147 H1156 0.930 . S
C1148 C1145 1.380 . S
C1148 C1147 1.384 . S
C1148 H1157 0.931 . S
C1149 C1145 1.374 1_455 S
C1149 C1150 1.390 . S
C1149 H1158 0.930 . S
C1150 C1146 1.391 . S
C1150 C1149 1.390 . S
C1150 H1159 0.930 . S
C1151 Eu1121 2.825 . S
C1151 O1136 1.238 . S
C1151 O1137 1.247 1_655 S
C1151 C1145 1.507 . S
H1152 C1125 0.930 . S
H1153 C1126 0.931 . S
H1154 C1127 0.930 . S
H1155 C1128 0.930 . S
H1156 C1147 0.930 . S
H1157 C1148 0.931 . S
H1158 C1149 0.930 . S
H1159 C1150 0.930 . S
Tb1160 C1170 2.825 . S
Tb1160 O1171 2.347 . S
Tb1160 O1174 2.366 . S
Tb1160 O1179 2.418 . S
Tb1160 O1180 2.389 . S
Tb1160 O1183 2.479 . S
Tb1160 O1184 2.471 . S
Eu1161 O1172 2.418 . S
Eu1161 O1173 2.347 1_556 S
Eu1161 O1176 2.479 . S
Eu1161 O1177 2.471 . S
Eu1161 O1178 2.347 . S
Eu1161 O1181 2.366 . S
Eu1161 C1191 2.825 . S
C1162 O1178 1.259 . S
C1162 O1179 1.265 1_556 S
C1163 O1180 1.250 1_556 S
C1163 O1181 1.265 . S
C1164 C1166 1.380 . S
C1164 C1167 1.374 . S
C1164 C1170 1.507 . S
C1165 C1166 1.384 . S
C1165 C1169 1.387 . S
C1165 H1192 0.930 . S
C1166 C1164 1.380 . S
C1166 C1165 1.384 . S
C1166 H1193 0.931 . S
C1167 C1164 1.374 . S
C1167 C1168 1.390 . S
C1167 H1194 0.930 . S
C1168 C1167 1.390 . S
C1168 C1169 1.391 . S
C1168 H1195 0.930 . S
C1169 C1165 1.387 . S
C1169 C1168 1.391 . S
C1170 Tb1160 2.825 . S
C1170 C1164 1.507 . S
C1170 O1183 1.238 . S
C1170 O1184 1.247 . S
O1171 Tb1160 2.347 . S
O1171 C1175 1.259 . S
O1172 Eu1161 2.418 . S
O1172 C1175 1.265 1_556 S
O1173 Eu1161 2.347 1_554 S
O1173 C1182 1.298 . S
O1174 Tb1160 2.366 . S
O1174 C1182 1.265 . S
C1175 O1171 1.259 . S
C1175 O1172 1.265 1_554 S
O1176 Eu1161 2.479 . S
O1176 C1191 1.238 . S
O1177 Eu1161 2.471 . S
O1177 C1191 1.247 . S
O1178 Eu1161 2.347 . S
O1178 C1162 1.259 . S
O1179 Tb1160 2.418 . S
O1179 C1162 1.265 1_554 S
O1180 Tb1160 2.389 . S
O1180 C1163 1.250 1_554 S
O1181 Eu1161 2.366 . S
O1181 C1163 1.265 . S
C1182 O1173 1.298 . S
C1182 O1174 1.265 . S
O1183 Tb1160 2.479 . S
O1183 C1170 1.238 . S
O1184 Tb1160 2.471 . S
O1184 C1170 1.247 . S
C1185 C1188 1.380 . S
C1185 C1189 1.374 . S
C1185 C1191 1.507 . S
C1186 C1187 1.387 . S
C1186 C1190 1.391 . S
C1187 C1186 1.387 . S
C1187 C1188 1.384 . S
C1187 H1196 0.930 . S
C1188 C1185 1.380 . S
C1188 C1187 1.384 . S
C1188 H1197 0.931 . S
C1189 C1185 1.374 . S
C1189 C1190 1.390 . S
C1189 H1198 0.930 . S
C1190 C1186 1.391 . S
C1190 C1189 1.390 . S
C1190 H1199 0.930 . S
C1191 Eu1161 2.825 . S
C1191 O1176 1.238 . S
C1191 O1177 1.247 . S
C1191 C1185 1.507 . S
H1192 C1165 0.930 . S
H1193 C1166 0.931 . S
H1194 C1167 0.930 . S
H1195 C1168 0.930 . S
H1196 C1187 0.930 . S
H1197 C1188 0.931 . S
H1198 C1189 0.930 . S
H1199 C1190 0.930 . S
Tb1200 C1210 2.825 . S
Tb1200 O1211 2.347 . S
Tb1200 O1214 2.366 . S
Tb1200 O1219 2.418 . S
Tb1200 O1220 2.384 . S
Tb1200 O1223 2.479 . S
Tb1200 O1224 2.471 . S
Eu1201 O1212 2.418 . S
Eu1201 O1213 2.384 . S
Eu1201 O1216 2.479 . S
Eu1201 O1217 2.471 . S
Eu1201 O1218 2.347 . S
Eu1201 O1221 2.366 . S
Eu1201 C1231 2.825 . S
C1202 O1218 1.259 . S
C1202 O1219 1.265 . S
C1203 O1220 1.255 . S
C1203 O1221 1.265 . S
C1204 C1206 1.380 . S
C1204 C1207 1.374 . S
C1204 C1210 1.507 . S
C1205 C1206 1.384 . S
C1205 C1209 1.387 . S
C1205 H1232 0.930 . S
C1206 C1204 1.380 . S
C1206 C1205 1.384 . S
C1206 H1233 0.931 . S
C1207 C1204 1.374 . S
C1207 C1208 1.390 . S
C1207 H1234 0.930 . S
C1208 C1207 1.390 . S
C1208 C1209 1.391 . S
C1208 H1235 0.930 . S
C1209 C1205 1.387 . S
C1209 C1208 1.391 . S
C1210 Tb1200 2.825 . S
C1210 C1204 1.507 . S
C1210 O1223 1.238 . S
C1210 O1224 1.247 . S
O1211 Tb1200 2.347 . S
O1211 C1215 1.259 . S
O1212 Eu1201 2.418 . S
O1212 C1215 1.265 . S
O1213 Eu1201 2.384 . S
O1213 C1222 1.255 . S
O1214 Tb1200 2.366 . S
O1214 C1222 1.265 . S
C1215 O1211 1.259 . S
C1215 O1212 1.265 . S
O1216 Eu1201 2.479 . S
O1216 C1231 1.238 . S
O1217 Eu1201 2.471 . S
O1217 C1231 1.247 . S
O1218 Eu1201 2.347 . S
O1218 C1202 1.259 . S
O1219 Tb1200 2.418 . S
O1219 C1202 1.265 . S
O1220 Tb1200 2.384 . S
O1220 C1203 1.255 . S
O1221 Eu1201 2.366 . S
O1221 C1203 1.265 . S
C1222 O1213 1.255 . S
C1222 O1214 1.265 . S
O1223 Tb1200 2.479 . S
O1223 C1210 1.238 . S
O1224 Tb1200 2.471 . S
O1224 C1210 1.247 . S
C1225 C1228 1.380 . S
C1225 C1229 1.374 . S
C1225 C1231 1.507 . S
C1226 C1227 1.387 . S
C1226 C1230 1.391 . S
C1227 C1226 1.387 . S
C1227 C1228 1.384 . S
C1227 H1236 0.930 . S
C1228 C1225 1.380 . S
C1228 C1227 1.384 . S
C1228 H1237 0.931 . S
C1229 C1225 1.374 . S
C1229 C1230 1.390 . S
C1229 H1238 0.930 . S
C1230 C1226 1.391 . S
C1230 C1229 1.390 . S
C1230 H1239 0.930 . S
C1231 Eu1201 2.825 . S
C1231 O1216 1.238 . S
C1231 O1217 1.247 . S
C1231 C1225 1.507 . S
H1232 C1205 0.930 . S
H1233 C1206 0.931 . S
H1234 C1207 0.930 . S
H1235 C1208 0.930 . S
H1236 C1227 0.930 . S
H1237 C1228 0.931 . S
H1238 C1229 0.930 . S
H1239 C1230 0.930 . S
Tb1240 C1250 2.825 . S
Tb1240 O1251 2.347 . S
Tb1240 O1254 2.366 . S
Tb1240 O1259 2.418 . S
Tb1240 O1260 2.384 . S
Tb1240 O1263 2.479 . S
Tb1240 O1264 2.471 . S
Eu1241 O1252 2.418 . S
Eu1241 O1253 2.384 . S
Eu1241 O1256 2.479 . S
Eu1241 O1257 2.471 . S
Eu1241 O1258 2.347 . S
Eu1241 O1261 2.366 . S
Eu1241 C1271 2.825 . S
C1242 O1258 1.259 . S
C1242 O1259 1.265 . S
C1243 O1260 1.255 . S
C1243 O1261 1.265 . S
C1244 C1246 1.380 . S
C1244 C1247 1.374 . S
C1244 C1250 1.507 . S
C1245 C1246 1.384 . S
C1245 C1249 1.387 . S
C1245 H1272 0.930 . S
C1246 C1244 1.380 . S
C1246 C1245 1.384 . S
C1246 H1273 0.931 . S
C1247 C1244 1.374 . S
C1247 C1248 1.390 . S
C1247 H1274 0.930 . S
C1248 C1247 1.390 . S
C1248 C1249 1.391 . S
C1248 H1275 0.930 . S
C1249 C1245 1.387 . S
C1249 C1248 1.391 . S
C1250 Tb1240 2.825 . S
C1250 C1244 1.507 . S
C1250 O1263 1.238 . S
C1250 O1264 1.247 . S
O1251 Tb1240 2.347 . S
O1251 C1255 1.259 . S
O1252 Eu1241 2.418 . S
O1252 C1255 1.265 . S
O1253 Eu1241 2.384 . S
O1253 C1262 1.255 . S
O1254 Tb1240 2.366 . S
O1254 C1262 1.265 . S
C1255 O1251 1.259 . S
C1255 O1252 1.265 . S
O1256 Eu1241 2.479 . S
O1256 C1271 1.238 . S
O1257 Eu1241 2.471 . S
O1257 C1271 1.247 . S
O1258 Eu1241 2.347 . S
O1258 C1242 1.259 . S
O1259 Tb1240 2.418 . S
O1259 C1242 1.265 . S
O1260 Tb1240 2.384 . S
O1260 C1243 1.255 . S
O1261 Eu1241 2.366 . S
O1261 C1243 1.265 . S
C1262 O1253 1.255 . S
C1262 O1254 1.265 . S
O1263 Tb1240 2.479 . S
O1263 C1250 1.238 . S
O1264 Tb1240 2.471 . S
O1264 C1250 1.247 . S
C1265 C1268 1.380 . S
C1265 C1269 1.374 . S
C1265 C1271 1.507 . S
C1266 C1267 1.387 . S
C1266 C1270 1.391 . S
C1267 C1266 1.387 . S
C1267 C1268 1.384 . S
C1267 H1276 0.930 . S
C1268 C1265 1.380 . S
C1268 C1267 1.384 . S
C1268 H1277 0.931 . S
C1269 C1265 1.374 . S
C1269 C1270 1.390 . S
C1269 H1278 0.930 . S
C1270 C1266 1.391 . S
C1270 C1269 1.390 . S
C1270 H1279 0.930 . S
C1271 Eu1241 2.825 . S
C1271 O1256 1.238 . S
C1271 O1257 1.247 . S
C1271 C1265 1.507 . S
H1272 C1245 0.930 . S
H1273 C1246 0.931 . S
H1274 C1247 0.930 . S
H1275 C1248 0.930 . S
H1276 C1267 0.930 . S
H1277 C1268 0.931 . S
H1278 C1269 0.930 . S
H1279 C1270 0.930 . S
Tb1280 C1290 2.825 . S
Tb1280 O1291 2.347 . S
Tb1280 O1294 2.366 . S
Tb1280 O1299 2.418 . S
Tb1280 O1300 2.384 . S
Tb1280 O1303 2.479 . S
Tb1280 O1304 2.471 . S
Eu1281 O1292 2.418 . S
Eu1281 O1293 2.384 . S
Eu1281 O1296 2.479 . S
Eu1281 O1297 2.471 . S
Eu1281 O1298 2.347 . S
Eu1281 O1301 2.366 . S
Eu1281 C1311 2.825 . S
C1282 O1298 1.259 . S
C1282 O1299 1.265 . S
C1283 O1300 1.255 . S
C1283 O1301 1.265 . S
C1284 C1286 1.380 . S
C1284 C1287 1.374 . S
C1284 C1290 1.507 . S
C1285 C1286 1.384 . S
C1285 C1289 1.387 . S
C1285 H1312 0.930 . S
C1286 C1284 1.380 . S
C1286 C1285 1.384 . S
C1286 H1313 0.931 . S
C1287 C1284 1.374 . S
C1287 C1288 1.390 . S
C1287 H1314 0.930 . S
C1288 C1287 1.390 . S
C1288 C1289 1.391 . S
C1288 H1315 0.930 . S
C1289 C1285 1.387 . S
C1289 C1288 1.391 . S
C1290 Tb1280 2.825 . S
C1290 C1284 1.507 . S
C1290 O1303 1.238 . S
C1290 O1304 1.247 . S
O1291 Tb1280 2.347 . S
O1291 C1295 1.259 . S
O1292 Eu1281 2.418 . S
O1292 C1295 1.265 . S
O1293 Eu1281 2.384 . S
O1293 C1302 1.255 . S
O1294 Tb1280 2.366 . S
O1294 C1302 1.265 . S
C1295 O1291 1.259 . S
C1295 O1292 1.265 . S
O1296 Eu1281 2.479 . S
O1296 C1311 1.238 . S
O1297 Eu1281 2.471 . S
O1297 C1311 1.247 . S
O1298 Eu1281 2.347 . S
O1298 C1282 1.259 . S
O1299 Tb1280 2.418 . S
O1299 C1282 1.265 . S
O1300 Tb1280 2.384 . S
O1300 C1283 1.255 . S
O1301 Eu1281 2.366 . S
O1301 C1283 1.265 . S
C1302 O1293 1.255 . S
C1302 O1294 1.265 . S
O1303 Tb1280 2.479 . S
O1303 C1290 1.238 . S
O1304 Tb1280 2.471 . S
O1304 C1290 1.247 . S
C1305 C1308 1.380 . S
C1305 C1309 1.374 . S
C1305 C1311 1.507 . S
C1306 C1307 1.387 . S
C1306 C1310 1.391 . S
C1307 C1306 1.387 . S
C1307 C1308 1.384 . S
C1307 H1316 0.930 . S
C1308 C1305 1.380 . S
C1308 C1307 1.384 . S
C1308 H1317 0.931 . S
C1309 C1305 1.374 . S
C1309 C1310 1.390 . S
C1309 H1318 0.930 . S
C1310 C1306 1.391 . S
C1310 C1309 1.390 . S
C1310 H1319 0.930 . S
C1311 Eu1281 2.825 . S
C1311 O1296 1.238 . S
C1311 O1297 1.247 . S
C1311 C1305 1.507 . S
H1312 C1285 0.930 . S
H1313 C1286 0.931 . S
H1314 C1287 0.930 . S
H1315 C1288 0.930 . S
H1316 C1307 0.930 . S
H1317 C1308 0.931 . S
H1318 C1309 0.930 . S
H1319 C1310 0.930 . S
Tb1320 C1330 2.825 . S
Tb1320 O1331 2.347 . S
Tb1320 O1334 2.366 . S
Tb1320 O1339 2.418 . S
Tb1320 O1340 2.384 . S
Tb1320 O1343 2.479 . S
Tb1320 O1344 2.471 . S
Eu1321 O1332 2.418 . S
Eu1321 O1333 2.384 . S
Eu1321 O1336 2.479 . S
Eu1321 O1337 2.471 . S
Eu1321 O1338 2.347 . S
Eu1321 O1341 2.366 . S
Eu1321 C1351 2.825 . S
C1322 O1338 1.259 . S
C1322 O1339 1.265 . S
C1323 O1340 1.255 . S
C1323 O1341 1.265 . S
C1324 C1326 1.380 . S
C1324 C1327 1.374 . S
C1324 C1330 1.507 . S
C1325 C1326 1.384 . S
C1325 C1329 1.387 . S
C1325 H1352 0.930 . S
C1326 C1324 1.380 . S
C1326 C1325 1.384 . S
C1326 H1353 0.931 . S
C1327 C1324 1.374 . S
C1327 C1328 1.390 . S
C1327 H1354 0.930 . S
C1328 C1327 1.390 . S
C1328 C1329 1.391 . S
C1328 H1355 0.930 . S
C1329 C1325 1.387 . S
C1329 C1328 1.391 . S
C1330 Tb1320 2.825 . S
C1330 C1324 1.507 . S
C1330 O1343 1.238 . S
C1330 O1344 1.247 . S
O1331 Tb1320 2.347 . S
O1331 C1335 1.259 . S
O1332 Eu1321 2.418 . S
O1332 C1335 1.265 . S
O1333 Eu1321 2.384 . S
O1333 C1342 1.255 . S
O1334 Tb1320 2.366 . S
O1334 C1342 1.265 . S
C1335 O1331 1.259 . S
C1335 O1332 1.265 . S
O1336 Eu1321 2.479 . S
O1336 C1351 1.238 . S
O1337 Eu1321 2.471 . S
O1337 C1351 1.247 . S
O1338 Eu1321 2.347 . S
O1338 C1322 1.259 . S
O1339 Tb1320 2.418 . S
O1339 C1322 1.265 . S
O1340 Tb1320 2.384 . S
O1340 C1323 1.255 . S
O1341 Eu1321 2.366 . S
O1341 C1323 1.265 . S
C1342 O1333 1.255 . S
C1342 O1334 1.265 . S
O1343 Tb1320 2.479 . S
O1343 C1330 1.238 . S
O1344 Tb1320 2.471 . S
O1344 C1330 1.247 . S
C1345 C1348 1.380 . S
C1345 C1349 1.374 . S
C1345 C1351 1.507 . S
C1346 C1347 1.387 . S
C1346 C1350 1.391 . S
C1347 C1346 1.387 . S
C1347 C1348 1.384 . S
C1347 H1356 0.930 . S
C1348 C1345 1.380 . S
C1348 C1347 1.384 . S
C1348 H1357 0.931 . S
C1349 C1345 1.374 . S
C1349 C1350 1.390 . S
C1349 H1358 0.930 . S
C1350 C1346 1.391 . S
C1350 C1349 1.390 . S
C1350 H1359 0.930 . S
C1351 Eu1321 2.825 . S
C1351 O1336 1.238 . S
C1351 O1337 1.247 . S
C1351 C1345 1.507 . S
H1352 C1325 0.930 . S
H1353 C1326 0.931 . S
H1354 C1327 0.930 . S
H1355 C1328 0.930 . S
H1356 C1347 0.930 . S
H1357 C1348 0.931 . S
H1358 C1349 0.930 . S
H1359 C1350 0.930 . S
Tb1360 C1370 2.825 . S
Tb1360 O1371 2.347 . S
Tb1360 O1374 2.366 . S
Tb1360 O1379 2.418 . S
Tb1360 O1380 2.384 . S
Tb1360 O1383 2.479 . S
Tb1360 O1384 2.471 . S
Eu1361 O1372 2.418 . S
Eu1361 O1373 2.384 . S
Eu1361 O1376 2.479 . S
Eu1361 O1377 2.471 . S
Eu1361 O1378 2.347 . S
Eu1361 O1381 2.366 . S
Eu1361 C1391 2.825 . S
C1362 O1378 1.259 . S
C1362 O1379 1.265 . S
C1363 O1380 1.255 . S
C1363 O1381 1.265 . S
C1364 C1366 1.380 . S
C1364 C1367 1.374 . S
C1364 C1370 1.507 . S
C1365 C1366 1.384 . S
C1365 C1369 1.387 . S
C1365 H1392 0.930 . S
C1366 C1364 1.380 . S
C1366 C1365 1.384 . S
C1366 H1393 0.931 . S
C1367 C1364 1.374 . S
C1367 C1368 1.390 . S
C1367 H1394 0.930 . S
C1368 C1367 1.390 . S
C1368 C1369 1.391 . S
C1368 H1395 0.930 . S
C1369 C1365 1.387 . S
C1369 C1368 1.391 . S
C1370 Tb1360 2.825 . S
C1370 C1364 1.507 . S
C1370 O1383 1.238 . S
C1370 O1384 1.247 . S
O1371 Tb1360 2.347 . S
O1371 C1375 1.259 . S
O1372 Eu1361 2.418 . S
O1372 C1375 1.265 . S
O1373 Eu1361 2.384 . S
O1373 C1382 1.255 . S
O1374 Tb1360 2.366 . S
O1374 C1382 1.265 . S
C1375 O1371 1.259 . S
C1375 O1372 1.265 . S
O1376 Eu1361 2.479 . S
O1376 C1391 1.238 . S
O1377 Eu1361 2.471 . S
O1377 C1391 1.247 . S
O1378 Eu1361 2.347 . S
O1378 C1362 1.259 . S
O1379 Tb1360 2.418 . S
O1379 C1362 1.265 . S
O1380 Tb1360 2.384 . S
O1380 C1363 1.255 . S
O1381 Eu1361 2.366 . S
O1381 C1363 1.265 . S
C1382 O1373 1.255 . S
C1382 O1374 1.265 . S
O1383 Tb1360 2.479 . S
O1383 C1370 1.238 . S
O1384 Tb1360 2.471 . S
O1384 C1370 1.247 . S
C1385 C1388 1.380 . S
C1385 C1389 1.374 . S
C1385 C1391 1.507 . S
C1386 C1387 1.387 . S
C1386 C1390 1.391 . S
C1387 C1386 1.387 . S
C1387 C1388 1.384 . S
C1387 H1396 0.930 . S
C1388 C1385 1.380 . S
C1388 C1387 1.384 . S
C1388 H1397 0.931 . S
C1389 C1385 1.374 . S
C1389 C1390 1.390 . S
C1389 H1398 0.930 . S
C1390 C1386 1.391 . S
C1390 C1389 1.390 . S
C1390 H1399 0.930 . S
C1391 Eu1361 2.825 . S
C1391 O1376 1.238 . S
C1391 O1377 1.247 . S
C1391 C1385 1.507 . S
H1392 C1365 0.930 . S
H1393 C1366 0.931 . S
H1394 C1367 0.930 . S
H1395 C1368 0.930 . S
H1396 C1387 0.930 . S
H1397 C1388 0.931 . S
H1398 C1389 0.930 . S
H1399 C1390 0.930 . S
Tb1400 C1410 2.825 . S
Tb1400 O1411 2.347 . S
Tb1400 O1414 2.366 . S
Tb1400 O1419 2.418 . S
Tb1400 O1420 2.384 . S
Tb1400 O1423 2.479 . S
Tb1400 O1424 2.471 . S
Eu1401 O1412 2.418 . S
Eu1401 O1413 2.384 . S
Eu1401 O1416 2.479 . S
Eu1401 O1417 2.471 . S
Eu1401 O1418 2.347 . S
Eu1401 O1421 2.366 . S
Eu1401 C1431 2.825 . S
C1402 O1418 1.259 . S
C1402 O1419 1.265 . S
C1403 O1420 1.255 . S
C1403 O1421 1.265 . S
C1404 C1406 1.380 . S
C1404 C1407 1.374 . S
C1404 C1410 1.507 . S
C1405 C1406 1.384 . S
C1405 C1409 1.387 . S
C1405 H1432 0.930 . S
C1406 C1404 1.380 . S
C1406 C1405 1.384 . S
C1406 H1433 0.931 . S
C1407 C1404 1.374 . S
C1407 C1408 1.390 . S
C1407 H1434 0.930 . S
C1408 C1407 1.390 . S
C1408 C1409 1.391 . S
C1408 H1435 0.930 . S
C1409 C1405 1.387 . S
C1409 C1408 1.391 . S
C1410 Tb1400 2.825 . S
C1410 C1404 1.507 . S
C1410 O1423 1.238 . S
C1410 O1424 1.247 . S
O1411 Tb1400 2.347 . S
O1411 C1415 1.259 . S
O1412 Eu1401 2.418 . S
O1412 C1415 1.265 . S
O1413 Eu1401 2.384 . S
O1413 C1422 1.255 . S
O1414 Tb1400 2.366 . S
O1414 C1422 1.265 . S
C1415 O1411 1.259 . S
C1415 O1412 1.265 . S
O1416 Eu1401 2.479 . S
O1416 C1431 1.238 . S
O1417 Eu1401 2.471 . S
O1417 C1431 1.247 . S
O1418 Eu1401 2.347 . S
O1418 C1402 1.259 . S
O1419 Tb1400 2.418 . S
O1419 C1402 1.265 . S
O1420 Tb1400 2.384 . S
O1420 C1403 1.255 . S
O1421 Eu1401 2.366 . S
O1421 C1403 1.265 . S
C1422 O1413 1.255 . S
C1422 O1414 1.265 . S
O1423 Tb1400 2.479 . S
O1423 C1410 1.238 . S
O1424 Tb1400 2.471 . S
O1424 C1410 1.247 . S
C1425 C1428 1.380 . S
C1425 C1429 1.374 . S
C1425 C1431 1.507 . S
C1426 C1427 1.387 . S
C1426 C1430 1.391 . S
C1427 C1426 1.387 . S
C1427 C1428 1.384 . S
C1427 H1436 0.930 . S
C1428 C1425 1.380 . S
C1428 C1427 1.384 . S
C1428 H1437 0.931 . S
C1429 C1425 1.374 . S
C1429 C1430 1.390 . S
C1429 H1438 0.930 . S
C1430 C1426 1.391 . S
C1430 C1429 1.390 . S
C1430 H1439 0.930 . S
C1431 Eu1401 2.825 . S
C1431 O1416 1.238 . S
C1431 O1417 1.247 . S
C1431 C1425 1.507 . S
H1432 C1405 0.930 . S
H1433 C1406 0.931 . S
H1434 C1407 0.930 . S
H1435 C1408 0.930 . S
H1436 C1427 0.930 . S
H1437 C1428 0.931 . S
H1438 C1429 0.930 . S
H1439 C1430 0.930 . S
H1440 C1458 0.951 . S
H1441 C1460 0.951 . S
H1442 C1462 0.950 . S
H1443 C1463 0.950 . S
H1444 C1465 0.950 . S
H1445 C1468 0.950 . S
H1446 C1469 0.950 . S
H1447 C1471 0.950 1_556 S
H1448 C1472 0.950 . S
H1449 C1473 0.951 . S
H1450 C1475 0.951 . S
H1451 C1477 0.950 . S
H1452 C1478 0.950 1_556 S
H1453 C1480 0.950 . S
H1454 C1483 0.950 . S
H1455 C1484 0.950 1_545 S
H1456 C1486 0.950 . S
H1457 C1487 0.950 . S
C1458 H1440 0.951 . S
C1458 C1459 1.366 . S
C1458 C1460 1.388 . S
C1459 C1458 1.366 . S
C1459 C1463 1.385 . S
C1460 H1441 0.951 . S
C1460 C1458 1.388 . S
C1460 C1461 1.366 . S
C1461 C1460 1.366 . S
C1461 C1462 1.414 . S
C1461 C1464 1.499 . S
C1462 H1442 0.950 . S
C1462 C1461 1.414 . S
C1462 C1463 1.374 . S
C1463 H1443 0.950 . S
C1463 C1459 1.385 . S
C1463 C1462 1.374 . S
C1464 C1461 1.499 . S
C1464 C1465 1.373 . S
C1464 C1466 1.389 . S
C1465 H1444 0.950 . S
C1465 C1464 1.373 . S
C1465 C1481 1.377 . S
C1466 C1464 1.389 . S
C1466 C1467 1.524 . S
C1466 C1480 1.377 . S
C1467 C1466 1.524 . S
C1467 C1468 1.397 . S
C1467 C1472 1.363 . S
C1468 H1445 0.950 . S
C1468 C1467 1.397 . S
C1468 C1469 1.334 . S
C1469 H1446 0.950 . S
C1469 C1468 1.334 . S
C1469 C1470 1.287 . S
C1470 C1469 1.287 . S
C1470 C1471 1.524 . S
C1470 H1489 0.913 . S
C1471 H1447 0.950 1_554 S
C1471 C1470 1.524 . S
C1471 C1472 1.415 . S
C1472 H1448 0.950 . S
C1472 C1467 1.363 . S
C1472 C1471 1.415 . S
C1473 H1449 0.951 . S
C1473 C1474 1.366 . S
C1473 C1475 1.388 . S
C1474 C1473 1.366 . S
C1474 C1478 1.385 . S
C1475 H1450 0.951 . S
C1475 C1473 1.388 . S
C1475 C1476 1.366 . S
C1476 C1475 1.366 . S
C1476 C1477 1.414 . S
C1476 C1479 1.499 . S
C1477 H1451 0.950 . S
C1477 C1476 1.414 . S
C1477 C1478 1.374 . S
C1478 H1452 0.950 1_554 S
C1478 C1474 1.385 . S
C1478 C1477 1.374 . S
C1479 C1476 1.499 . S
C1479 C1480 1.373 . S
C1479 C1481 1.389 . S
C1480 H1453 0.950 . S
C1480 C1466 1.377 . S
C1480 C1479 1.373 . S
C1481 C1465 1.377 . S
C1481 C1479 1.389 . S
C1481 C1482 1.524 . S
C1482 C1481 1.524 . S
C1482 C1483 1.397 . S
C1482 C1487 1.363 . S
C1483 H1454 0.950 . S
C1483 C1482 1.397 . S
C1483 C1484 1.334 . S
C1484 H1455 0.950 1_565 S
C1484 C1483 1.334 . S
C1484 C1485 1.287 1_565 S
C1485 C1484 1.287 1_545 S
C1485 C1486 1.524 1_545 S
C1485 H1488 0.999 . S
C1486 H1456 0.950 . S
C1486 C1485 1.524 1_565 S
C1486 C1487 1.415 . S
C1487 H1457 0.950 . S
C1487 C1482 1.363 . S
C1487 C1486 1.415 . S
H1488 C1485 0.999 . S
H1489 C1470 0.913 . S
H1490 C1508 0.951 . S
H1491 C1510 0.951 . S
H1492 C1512 0.950 . S
H1493 C1513 0.950 . S
H1494 C1515 0.950 . S
H1495 C1518 0.950 . S
H1496 C1519 0.950 . S
H1497 C1521 0.950 . S
H1498 C1522 0.950 . S
H1499 C1523 0.951 . S
H1500 C1525 0.951 . S
H1501 C1527 0.950 . S
H1502 C1528 0.950 . S
H1503 C1530 0.950 . S
H1504 C1533 0.950 . S
H1505 C1534 0.950 . S
H1506 C1536 0.950 . S
H1507 C1537 0.950 . S
C1508 H1490 0.951 . S
C1508 C1509 1.366 . S
C1508 C1510 1.388 . S
C1509 C1508 1.366 . S
C1509 C1513 1.385 . S
C1510 H1491 0.951 . S
C1510 C1508 1.388 . S
C1510 C1511 1.366 . S
C1511 C1510 1.366 . S
C1511 C1512 1.414 . S
C1511 C1514 1.499 . S
C1512 H1492 0.950 . S
C1512 C1511 1.414 . S
C1512 C1513 1.374 . S
C1513 H1493 0.950 . S
C1513 C1509 1.385 . S
C1513 C1512 1.374 . S
C1514 C1511 1.499 . S
C1514 C1515 1.373 . S
C1514 C1516 1.389 . S
C1515 H1494 0.950 . S
C1515 C1514 1.373 . S
C1515 C1531 1.377 . S
C1516 C1514 1.389 . S
C1516 C1517 1.524 . S
C1516 C1530 1.377 . S
C1517 C1516 1.524 . S
C1517 C1518 1.397 . S
C1517 C1522 1.363 . S
C1518 H1495 0.950 . S
C1518 C1517 1.397 . S
C1518 C1519 1.334 . S
C1519 H1496 0.950 . S
C1519 C1518 1.334 . S
C1519 C1520 1.287 . S
C1520 C1519 1.287 . S
C1520 C1521 1.524 . S
C1520 H1539 0.913 . S
C1521 H1497 0.950 . S
C1521 C1520 1.524 . S
C1521 C1522 1.415 . S
C1522 H1498 0.950 . S
C1522 C1517 1.363 . S
C1522 C1521 1.415 . S
C1523 H1499 0.951 . S
C1523 C1524 1.366 . S
C1523 C1525 1.388 . S
C1524 C1523 1.366 . S
C1524 C1528 1.385 . S
C1525 H1500 0.951 . S
C1525 C1523 1.388 . S
C1525 C1526 1.366 . S
C1526 C1525 1.366 . S
C1526 C1527 1.414 . S
C1526 C1529 1.499 . S
C1527 H1501 0.950 . S
C1527 C1526 1.414 . S
C1527 C1528 1.374 . S
C1528 H1502 0.950 . S
C1528 C1524 1.385 . S
C1528 C1527 1.374 . S
C1529 C1526 1.499 . S
C1529 C1530 1.373 . S
C1529 C1531 1.389 . S
C1530 H1503 0.950 . S
C1530 C1516 1.377 . S
C1530 C1529 1.373 . S
C1531 C1515 1.377 . S
C1531 C1529 1.389 . S
C1531 C1532 1.524 . S
C1532 C1531 1.524 . S
C1532 C1533 1.397 . S
C1532 C1537 1.363 . S
C1533 H1504 0.950 . S
C1533 C1532 1.397 . S
C1533 C1534 1.334 . S
C1534 H1505 0.950 . S
C1534 C1533 1.334 . S
C1534 C1535 1.287 . S
C1535 C1534 1.287 . S
C1535 C1536 1.524 . S
C1535 H1538 0.999 . S
C1536 H1506 0.950 . S
C1536 C1535 1.524 . S
C1536 C1537 1.415 . S
C1537 H1507 0.950 . S
C1537 C1532 1.363 . S
C1537 C1536 1.415 . S
H1538 C1535 0.999 . S
H1539 C1520 0.913 . S
H1540 C1558 0.951 . S
H1541 C1560 0.951 . S
H1542 C1562 0.950 . S
H1543 C1563 0.950 . S
H1544 C1565 0.950 . S
H1545 C1568 0.950 . S
H1546 C1569 0.950 . S
H1547 C1571 0.950 . S
H1548 C1572 0.950 . S
H1549 C1573 0.951 1_556 S
H1550 C1575 0.971 . S
H1551 C1577 0.950 . S
H1552 C1578 0.950 . S
H1553 C1580 0.950 . S
H1554 C1583 0.950 . S
H1555 C1584 0.950 . S
H1556 C1586 0.991 . S
H1557 C1587 0.950 . S
C1558 H1540 0.951 . S
C1558 C1559 1.366 . S
C1558 C1560 1.388 . S
C1559 C1558 1.366 . S
C1559 C1563 1.385 . S
C1560 H1541 0.951 . S
C1560 C1558 1.388 . S
C1560 C1561 1.366 . S
C1561 C1560 1.366 . S
C1561 C1562 1.414 . S
C1561 C1564 1.499 . S
C1562 H1542 0.950 . S
C1562 C1561 1.414 . S
C1562 C1563 1.374 . S
C1563 H1543 0.950 . S
C1563 C1559 1.385 . S
C1563 C1562 1.374 . S
C1564 C1561 1.499 . S
C1564 C1565 1.373 . S
C1564 C1566 1.389 . S
C1565 H1544 0.950 . S
C1565 C1564 1.373 . S
C1565 C1581 1.377 . S
C1566 C1564 1.389 . S
C1566 C1567 1.524 . S
C1566 C1580 1.377 . S
C1567 C1566 1.524 . S
C1567 C1568 1.397 . S
C1567 C1572 1.363 . S
C1568 H1545 0.950 . S
C1568 C1567 1.397 . S
C1568 C1569 1.334 . S
C1569 H1546 0.950 . S
C1569 C1568 1.334 . S
C1569 C1570 1.287 . S
C1570 C1569 1.287 . S
C1570 C1571 1.524 . S
C1570 H1589 0.913 . S
C1571 H1547 0.950 . S
C1571 C1570 1.524 . S
C1571 C1572 1.415 . S
C1572 H1548 0.950 . S
C1572 C1567 1.363 . S
C1572 C1571 1.415 . S
C1573 H1549 0.951 1_554 S
C1573 C1574 1.366 . S
C1573 C1575 1.388 . S
C1574 C1573 1.366 . S
C1574 C1578 1.385 . S
C1575 H1550 0.971 . S
C1575 C1573 1.388 . S
C1575 C1576 1.366 . S
C1576 C1575 1.366 . S
C1576 C1577 1.414 . S
C1576 C1579 1.499 . S
C1577 H1551 0.950 . S
C1577 C1576 1.414 . S
C1577 C1578 1.374 . S
C1578 H1552 0.950 . S
C1578 C1574 1.385 . S
C1578 C1577 1.374 . S
C1579 C1576 1.499 . S
C1579 C1580 1.373 . S
C1579 C1581 1.389 . S
C1580 H1553 0.950 . S
C1580 C1566 1.377 . S
C1580 C1579 1.373 . S
C1581 C1565 1.377 . S
C1581 C1579 1.389 . S
C1581 C1582 1.524 . S
C1582 C1581 1.524 . S
C1582 C1583 1.397 . S
C1582 C1587 1.363 . S
C1583 H1554 0.950 . S
C1583 C1582 1.397 . S
C1583 C1584 1.334 . S
C1584 H1555 0.950 . S
C1584 C1583 1.334 . S
C1584 C1585 1.287 . S
C1585 C1584 1.287 . S
C1585 C1586 1.524 . S
C1585 H1588 0.999 . S
C1586 H1556 0.991 . S
C1586 C1585 1.524 . S
C1586 C1587 1.415 . S
C1587 H1557 0.950 . S
C1587 C1582 1.363 . S
C1587 C1586 1.415 . S
H1588 C1585 0.999 . S
H1589 C1570 0.913 . S
H1590 C1608 0.951 . S
H1591 C1610 0.951 . S
H1592 C1612 0.950 . S
H1593 C1613 0.950 . S
H1594 C1615 0.950 . S
H1595 C1618 0.950 . S
H1596 C1619 0.950 . S
H1597 C1621 0.950 . S
H1598 C1622 0.950 . S
H1599 C1623 0.951 . S
H1600 C1625 0.951 . S
H1601 C1627 0.982 . S
H1602 C1628 0.950 1_554 S
H1603 C1630 0.950 . S
H1604 C1633 0.950 . S
H1605 C1634 0.950 1_455 S
H1606 C1636 0.950 . S
H1607 C1637 0.950 . S
C1608 H1590 0.951 . S
C1608 C1609 1.366 . S
C1608 C1610 1.388 . S
C1609 C1608 1.366 . S
C1609 C1613 1.385 . S
C1610 H1591 0.951 . S
C1610 C1608 1.388 . S
C1610 C1611 1.366 . S
C1611 C1610 1.366 . S
C1611 C1612 1.414 . S
C1611 C1614 1.499 . S
C1612 H1592 0.950 . S
C1612 C1611 1.414 . S
C1612 C1613 1.374 . S
C1613 H1593 0.950 . S
C1613 C1609 1.385 . S
C1613 C1612 1.374 . S
C1614 C1611 1.499 . S
C1614 C1615 1.373 . S
C1614 C1616 1.389 . S
C1615 H1594 0.950 . S
C1615 C1614 1.373 . S
C1615 C1631 1.377 . S
C1616 C1614 1.389 . S
C1616 C1617 1.524 . S
C1616 C1630 1.377 . S
C1617 C1616 1.524 . S
C1617 C1618 1.397 . S
C1617 C1622 1.363 . S
C1618 H1595 0.950 . S
C1618 C1617 1.397 . S
C1618 C1619 1.334 . S
C1619 H1596 0.950 . S
C1619 C1618 1.334 . S
C1619 C1620 1.287 . S
C1620 C1619 1.287 . S
C1620 C1621 1.524 . S
C1620 H1639 0.913 . S
C1621 H1597 0.950 . S
C1621 C1620 1.524 . S
C1621 C1622 1.415 . S
C1622 H1598 0.950 . S
C1622 C1617 1.363 . S
C1622 C1621 1.415 . S
C1623 H1599 0.951 . S
C1623 C1624 1.366 . S
C1623 C1625 1.388 . S
C1624 C1623 1.366 . S
C1624 C1628 1.385 . S
C1625 H1600 0.951 . S
C1625 C1623 1.388 . S
C1625 C1626 1.366 . S
C1626 C1625 1.366 . S
C1626 C1627 1.414 . S
C1626 C1629 1.499 . S
C1627 H1601 0.982 . S
C1627 C1626 1.414 . S
C1627 C1628 1.374 . S
C1628 H1602 0.950 1_556 S
C1628 C1624 1.385 . S
C1628 C1627 1.374 . S
C1629 C1626 1.499 . S
C1629 C1630 1.373 . S
C1629 C1631 1.389 . S
C1630 H1603 0.950 . S
C1630 C1616 1.377 . S
C1630 C1629 1.373 . S
C1631 C1615 1.377 . S
C1631 C1629 1.389 . S
C1631 C1632 1.524 . S
C1632 C1631 1.524 . S
C1632 C1633 1.397 . S
C1632 C1637 1.363 . S
C1633 H1604 0.950 . S
C1633 C1632 1.397 . S
C1633 C1634 1.334 . S
C1634 H1605 0.950 1_655 S
C1634 C1633 1.334 . S
C1634 C1635 1.287 . S
C1635 C1634 1.287 . S
C1635 C1636 1.524 . S
C1635 H1638 0.999 1_655 S
C1636 H1606 0.950 . S
C1636 C1635 1.524 . S
C1636 C1637 1.415 . S
C1637 H1607 0.950 . S
C1637 C1632 1.363 . S
C1637 C1636 1.415 . S
H1638 C1635 0.999 1_455 S
H1639 C1620 0.913 . S
H1640 C1658 0.951 . S
H1641 C1660 0.951 . S
H1642 C1662 0.950 . S
H1643 C1663 0.950 . S
H1644 C1665 0.950 . S
H1645 C1668 0.950 . S
H1646 C1669 0.950 . S
H1647 C1671 0.950 . S
H1648 C1672 0.950 . S
H1649 C1673 0.951 . S
H1650 C1675 0.951 . S
H1651 C1677 0.950 . S
H1652 C1678 0.950 . S
H1653 C1680 0.950 . S
H1654 C1683 0.950 . S
H1655 C1684 0.950 . S
H1656 C1686 0.950 . S
H1657 C1687 0.950 . S
C1658 H1640 0.951 . S
C1658 C1659 1.366 . S
C1658 C1660 1.388 . S
C1659 C1658 1.366 . S
C1659 C1663 1.385 . S
C1660 H1641 0.951 . S
C1660 C1658 1.388 . S
C1660 C1661 1.366 . S
C1661 C1660 1.366 . S
C1661 C1662 1.414 . S
C1661 C1664 1.499 . S
C1662 H1642 0.950 . S
C1662 C1661 1.414 . S
C1662 C1663 1.374 . S
C1663 H1643 0.950 . S
C1663 C1659 1.385 . S
C1663 C1662 1.374 . S
C1664 C1661 1.499 . S
C1664 C1665 1.373 . S
C1664 C1666 1.389 . S
C1665 H1644 0.950 . S
C1665 C1664 1.373 . S
C1665 C1681 1.377 . S
C1666 C1664 1.389 . S
C1666 C1667 1.524 . S
C1666 C1680 1.377 . S
C1667 C1666 1.524 . S
C1667 C1668 1.397 . S
C1667 C1672 1.363 . S
C1668 H1645 0.950 . S
C1668 C1667 1.397 . S
C1668 C1669 1.334 . S
C1669 H1646 0.950 . S
C1669 C1668 1.334 . S
C1669 C1670 1.287 . S
C1670 C1669 1.287 . S
C1670 C1671 1.524 . S
C1670 H1689 0.913 . S
C1671 H1647 0.950 . S
C1671 C1670 1.524 . S
C1671 C1672 1.415 . S
C1672 H1648 0.950 . S
C1672 C1667 1.363 . S
C1672 C1671 1.415 . S
C1673 H1649 0.951 . S
C1673 C1674 1.366 . S
C1673 C1675 1.388 . S
C1674 C1673 1.366 . S
C1674 C1678 1.385 . S
C1675 H1650 0.951 . S
C1675 C1673 1.388 . S
C1675 C1676 1.366 . S
C1676 C1675 1.366 . S
C1676 C1677 1.414 . S
C1676 C1679 1.499 . S
C1677 H1651 0.950 . S
C1677 C1676 1.414 . S
C1677 C1678 1.374 . S
C1678 H1652 0.950 . S
C1678 C1674 1.385 . S
C1678 C1677 1.374 . S
C1679 C1676 1.499 . S
C1679 C1680 1.373 . S
C1679 C1681 1.389 . S
C1680 H1653 0.950 . S
C1680 C1666 1.377 . S
C1680 C1679 1.373 . S
C1681 C1665 1.377 . S
C1681 C1679 1.389 . S
C1681 C1682 1.524 . S
C1682 C1681 1.524 . S
C1682 C1683 1.397 . S
C1682 C1687 1.363 . S
C1683 H1654 0.950 . S
C1683 C1682 1.397 . S
C1683 C1684 1.334 . S
C1684 H1655 0.950 . S
C1684 C1683 1.334 . S
C1684 C1685 1.287 . S
C1685 C1684 1.287 . S
C1685 C1686 1.524 . S
C1685 H1688 0.999 . S
C1686 H1656 0.950 . S
C1686 C1685 1.524 . S
C1686 C1687 1.415 . S
C1687 H1657 0.950 . S
C1687 C1682 1.363 . S
C1687 C1686 1.415 . S
H1688 C1685 0.999 . S
H1689 C1670 0.913 . S
H1690 C1708 0.951 . S
H1691 C1710 0.951 . S
H1692 C1712 0.950 . S
H1693 C1713 0.950 . S
H1694 C1715 0.950 . S
H1695 C1718 0.950 . S
H1696 C1719 0.950 . S
H1697 C1721 0.950 . S
H1698 C1722 0.950 . S
H1699 C1723 0.951 . S
H1700 C1725 0.951 . S
H1701 C1727 0.950 . S
H1702 C1728 0.950 . S
H1703 C1730 0.950 . S
H1704 C1733 0.950 . S
H1705 C1734 0.950 . S
H1706 C1736 0.950 . S
H1707 C1737 0.946 1_556 S
C1708 H1690 0.951 . S
C1708 C1709 1.366 . S
C1708 C1710 1.388 . S
C1709 C1708 1.366 . S
C1709 C1713 1.385 . S
C1710 H1691 0.951 . S
C1710 C1708 1.388 . S
C1710 C1711 1.366 . S
C1711 C1710 1.366 . S
C1711 C1712 1.414 . S
C1711 C1714 1.499 . S
C1712 H1692 0.950 . S
C1712 C1711 1.414 . S
C1712 C1713 1.374 . S
C1713 H1693 0.950 . S
C1713 C1709 1.385 . S
C1713 C1712 1.374 . S
C1714 C1711 1.499 . S
C1714 C1715 1.373 . S
C1714 C1716 1.389 . S
C1715 H1694 0.950 . S
C1715 C1714 1.373 . S
C1715 C1731 1.377 . S
C1716 C1714 1.389 . S
C1716 C1717 1.524 . S
C1716 C1730 1.377 . S
C1717 C1716 1.524 . S
C1717 C1718 1.397 . S
C1717 C1722 1.363 . S
C1718 H1695 0.950 . S
C1718 C1717 1.397 . S
C1718 C1719 1.334 . S
C1719 H1696 0.950 . S
C1719 C1718 1.334 . S
C1719 C1720 1.287 . S
C1720 C1719 1.287 . S
C1720 C1721 1.524 . S
C1720 H1739 0.913 . S
C1721 H1697 0.950 . S
C1721 C1720 1.524 . S
C1721 C1722 1.415 . S
C1722 H1698 0.950 . S
C1722 C1717 1.363 . S
C1722 C1721 1.415 . S
C1723 H1699 0.951 . S
C1723 C1724 1.366 . S
C1723 C1725 1.388 . S
C1724 C1723 1.366 . S
C1724 C1728 1.385 . S
C1725 H1700 0.951 . S
C1725 C1723 1.388 . S
C1725 C1726 1.366 . S
C1726 C1725 1.366 . S
C1726 C1727 1.414 . S
C1726 C1729 1.499 . S
C1727 H1701 0.950 . S
C1727 C1726 1.414 . S
C1727 C1728 1.374 . S
C1728 H1702 0.950 . S
C1728 C1724 1.385 . S
C1728 C1727 1.374 . S
C1729 C1726 1.499 . S
C1729 C1730 1.373 . S
C1729 C1731 1.389 . S
C1730 H1703 0.950 . S
C1730 C1716 1.377 . S
C1730 C1729 1.373 . S
C1731 C1715 1.377 . S
C1731 C1729 1.389 . S
C1731 C1732 1.524 1_556 S
C1732 C1731 1.524 1_554 S
C1732 C1733 1.397 . S
C1732 C1737 1.363 . S
C1733 H1704 0.950 . S
C1733 C1732 1.397 . S
C1733 C1734 1.334 . S
C1734 H1705 0.950 . S
C1734 C1733 1.334 . S
C1734 C1735 1.287 . S
C1735 C1734 1.287 . S
C1735 C1736 1.524 . S
C1735 H1738 0.999 . S
C1736 H1706 0.950 . S
C1736 C1735 1.524 . S
C1736 C1737 1.415 . S
C1737 H1707 0.946 1_554 S
C1737 C1732 1.363 . S
C1737 C1736 1.415 . S
H1738 C1735 0.999 . S
H1739 C1720 0.913 . S
H1740 C1758 0.951 . S
H1741 C1760 0.951 . S
H1742 C1762 0.950 . S
H1743 C1763 0.950 . S
H1744 C1765 0.950 . S
H1745 C1768 0.950 . S
H1746 C1769 0.950 . S
H1747 C1771 0.950 . S
H1748 C1772 0.950 . S
H1749 C1773 0.951 . S
H1750 C1775 0.951 . S
H1751 C1777 0.950 . S
H1752 C1778 0.950 . S
H1753 C1780 0.950 . S
H1754 C1783 0.950 . S
H1755 C1784 0.950 . S
H1756 C1786 0.950 . S
H1757 C1787 0.950 . S
C1758 H1740 0.951 . S
C1758 C1759 1.366 . S
C1758 C1760 1.388 . S
C1759 C1758 1.366 . S
C1759 C1763 1.385 . S
C1760 H1741 0.951 . S
C1760 C1758 1.388 . S
C1760 C1761 1.366 . S
C1761 C1760 1.366 . S
C1761 C1762 1.414 . S
C1761 C1764 1.499 . S
C1762 H1742 0.950 . S
C1762 C1761 1.414 . S
C1762 C1763 1.374 . S
C1763 H1743 0.950 . S
C1763 C1759 1.385 . S
C1763 C1762 1.374 . S
C1764 C1761 1.499 . S
C1764 C1765 1.373 . S
C1764 C1766 1.389 . S
C1765 H1744 0.950 . S
C1765 C1764 1.373 . S
C1765 C1781 1.377 . S
C1766 C1764 1.389 . S
C1766 C1767 1.524 . S
C1766 C1780 1.377 . S
C1767 C1766 1.524 . S
C1767 C1768 1.397 . S
C1767 C1772 1.363 . S
C1768 H1745 0.950 . S
C1768 C1767 1.397 . S
C1768 C1769 1.334 . S
C1769 H1746 0.950 . S
C1769 C1768 1.334 . S
C1769 C1770 1.287 1_556 S
C1770 C1769 1.287 1_554 S
C1770 C1771 1.524 . S
C1770 H1789 0.913 . S
C1771 H1747 0.950 . S
C1771 C1770 1.524 . S
C1771 C1772 1.415 1_554 S
C1772 H1748 0.950 . S
C1772 C1767 1.363 . S
C1772 C1771 1.415 1_556 S
C1773 H1749 0.951 . S
C1773 C1774 1.366 . S
C1773 C1775 1.388 . S
C1774 C1773 1.366 . S
C1774 C1778 1.385 . S
C1775 H1750 0.951 . S
C1775 C1773 1.388 . S
C1775 C1776 1.366 . S
C1776 C1775 1.366 . S
C1776 C1777 1.414 . S
C1776 C1779 1.499 . S
C1777 H1751 0.950 . S
C1777 C1776 1.414 . S
C1777 C1778 1.374 . S
C1778 H1752 0.950 . S
C1778 C1774 1.385 . S
C1778 C1777 1.374 . S
C1779 C1776 1.499 . S
C1779 C1780 1.373 . S
C1779 C1781 1.389 . S
C1780 H1753 0.950 . S
C1780 C1766 1.377 . S
C1780 C1779 1.373 . S
C1781 C1765 1.377 . S
C1781 C1779 1.389 . S
C1781 C1782 1.524 . S
C1782 C1781 1.524 . S
C1782 C1783 1.397 . S
C1782 C1787 1.363 . S
C1783 H1754 0.950 . S
C1783 C1782 1.397 . S
C1783 C1784 1.334 . S
C1784 H1755 0.950 . S
C1784 C1783 1.334 . S
C1784 C1785 1.287 . S
C1785 C1784 1.287 . S
C1785 C1786 1.524 . S
C1785 H1788 0.999 . S
C1786 H1756 0.950 . S
C1786 C1785 1.524 . S
C1786 C1787 1.415 . S
C1787 H1757 0.950 . S
C1787 C1782 1.363 . S
C1787 C1786 1.415 . S
H1788 C1785 0.999 . S
H1789 C1770 0.913 . S
H1790 C1808 0.951 . S
H1791 C1810 0.951 . S
H1792 C1812 0.950 . S
H1793 C1813 0.950 . S
H1794 C1815 0.950 . S
H1795 C1818 0.950 . S
H1796 C1819 0.950 . S
H1797 C1821 0.950 . S
H1798 C1822 0.950 . S
H1799 C1823 0.951 . S
H1800 C1825 0.951 . S
H1801 C1827 0.950 . S
H1802 C1828 0.950 . S
H1803 C1830 0.950 . S
H1804 C1833 0.950 . S
H1805 C1834 0.950 . S
H1806 C1836 0.950 . S
H1807 C1837 0.950 . S
C1808 H1790 0.951 . S
C1808 C1809 1.366 . S
C1808 C1810 1.388 . S
C1809 C1808 1.366 . S
C1809 C1813 1.385 . S
C1810 H1791 0.951 . S
C1810 C1808 1.388 . S
C1810 C1811 1.366 . S
C1811 C1810 1.366 . S
C1811 C1812 1.414 . S
C1811 C1814 1.499 . S
C1812 H1792 0.950 . S
C1812 C1811 1.414 . S
C1812 C1813 1.374 . S
C1813 H1793 0.950 . S
C1813 C1809 1.385 . S
C1813 C1812 1.374 . S
C1814 C1811 1.499 . S
C1814 C1815 1.373 . S
C1814 C1816 1.389 . S
C1815 H1794 0.950 . S
C1815 C1814 1.373 . S
C1815 C1831 1.377 . S
C1816 C1814 1.389 . S
C1816 C1817 1.524 . S
C1816 C1830 1.377 . S
C1817 C1816 1.524 . S
C1817 C1818 1.397 . S
C1817 C1822 1.363 . S
C1818 H1795 0.950 . S
C1818 C1817 1.397 . S
C1818 C1819 1.334 . S
C1819 H1796 0.950 . S
C1819 C1818 1.334 . S
C1819 C1820 1.287 . S
C1820 C1819 1.287 . S
C1820 C1821 1.524 . S
C1820 H1839 0.913 . S
C1821 H1797 0.950 . S
C1821 C1820 1.524 . S
C1821 C1822 1.415 . S
C1822 H1798 0.950 . S
C1822 C1817 1.363 . S
C1822 C1821 1.415 . S
C1823 H1799 0.951 . S
C1823 C1824 1.366 . S
C1823 C1825 1.388 . S
C1824 C1823 1.366 . S
C1824 C1828 1.385 . S
C1825 H1800 0.951 . S
C1825 C1823 1.388 . S
C1825 C1826 1.366 . S
C1826 C1825 1.366 . S
C1826 C1827 1.414 . S
C1826 C1829 1.499 . S
C1827 H1801 0.950 . S
C1827 C1826 1.414 . S
C1827 C1828 1.374 . S
C1828 H1802 0.950 . S
C1828 C1824 1.385 . S
C1828 C1827 1.374 . S
C1829 C1826 1.499 . S
C1829 C1830 1.373 . S
C1829 C1831 1.389 . S
C1830 H1803 0.950 . S
C1830 C1816 1.377 . S
C1830 C1829 1.373 . S
C1831 C1815 1.377 . S
C1831 C1829 1.389 . S
C1831 C1832 1.524 . S
C1832 C1831 1.524 . S
C1832 C1833 1.397 . S
C1832 C1837 1.363 . S
C1833 H1804 0.950 . S
C1833 C1832 1.397 . S
C1833 C1834 1.334 1_556 S
C1834 H1805 0.950 . S
C1834 C1833 1.334 1_554 S
C1834 C1835 1.287 . S
C1835 C1834 1.287 . S
C1835 C1836 1.524 . S
C1835 H1838 0.999 . S
C1836 H1806 0.950 . S
C1836 C1835 1.524 . S
C1836 C1837 1.415 1_554 S
C1837 H1807 0.950 . S
C1837 C1832 1.363 . S
C1837 C1836 1.415 1_556 S
H1838 C1835 0.999 . S
H1839 C1820 0.913 . S
H1840 C1858 0.951 . S
H1841 C1860 0.951 . S
H1842 C1862 0.950 . S
H1843 C1863 0.950 . S
H1844 C1865 0.950 . S
H1845 C1868 0.950 . S
H1846 C1869 0.950 . S
H1847 C1871 0.950 . S
H1848 C1872 0.950 . S
H1849 C1873 0.951 1_554 S
H1850 C1875 0.951 . S
H1851 C1877 0.950 . S
H1852 C1878 0.950 . S
H1853 C1880 0.950 . S
H1854 C1883 0.983 . S
H1855 C1884 0.950 . S
H1856 C1886 0.950 . S
H1857 C1887 0.950 . S
C1858 H1840 0.951 . S
C1858 C1859 1.366 . S
C1858 C1860 1.388 . S
C1859 C1858 1.366 . S
C1859 C1863 1.385 . S
C1860 H1841 0.951 . S
C1860 C1858 1.388 . S
C1860 C1861 1.366 . S
C1861 C1860 1.366 . S
C1861 C1862 1.414 . S
C1861 C1864 1.499 . S
C1862 H1842 0.950 . S
C1862 C1861 1.414 . S
C1862 C1863 1.374 . S
C1863 H1843 0.950 . S
C1863 C1859 1.385 . S
C1863 C1862 1.374 . S
C1864 C1861 1.499 . S
C1864 C1865 1.373 . S
C1864 C1866 1.389 . S
C1865 H1844 0.950 . S
C1865 C1864 1.373 . S
C1865 C1881 1.377 . S
C1866 C1864 1.389 . S
C1866 C1867 1.524 . S
C1866 C1880 1.377 . S
C1867 C1866 1.524 . S
C1867 C1868 1.397 . S
C1867 C1872 1.363 . S
C1868 H1845 0.950 . S
C1868 C1867 1.397 . S
C1868 C1869 1.334 . S
C1869 H1846 0.950 . S
C1869 C1868 1.334 . S
C1869 C1870 1.287 . S
C1870 C1869 1.287 . S
C1870 C1871 1.524 . S
C1870 H1889 0.913 . S
C1871 H1847 0.950 . S
C1871 C1870 1.524 . S
C1871 C1872 1.415 . S
C1872 H1848 0.950 . S
C1872 C1867 1.363 . S
C1872 C1871 1.415 . S
C1873 H1849 0.951 1_556 S
C1873 C1874 1.366 . S
C1873 C1875 1.388 . S
C1874 C1873 1.366 . S
C1874 C1878 1.385 . S
C1875 H1850 0.951 . S
C1875 C1873 1.388 . S
C1875 C1876 1.366 . S
C1876 C1875 1.366 . S
C1876 C1877 1.414 . S
C1876 C1879 1.499 . S
C1877 H1851 0.950 . S
C1877 C1876 1.414 . S
C1877 C1878 1.374 . S
C1878 H1852 0.950 . S
C1878 C1874 1.385 . S
C1878 C1877 1.374 . S
C1879 C1876 1.499 . S
C1879 C1880 1.373 . S
C1879 C1881 1.389 . S
C1880 H1853 0.950 . S
C1880 C1866 1.377 . S
C1880 C1879 1.373 . S
C1881 C1865 1.377 . S
C1881 C1879 1.389 . S
C1881 C1882 1.524 1_556 S
C1882 C1881 1.524 1_554 S
C1882 C1883 1.397 . S
C1882 C1887 1.363 . S
C1883 H1854 0.983 . S
C1883 C1882 1.397 . S
C1883 C1884 1.334 . S
C1884 H1855 0.950 . S
C1884 C1883 1.334 . S
C1884 C1885 1.287 . S
C1885 C1884 1.287 . S
C1885 C1886 1.524 . S
C1885 H1888 0.999 . S
C1886 H1856 0.950 . S
C1886 C1885 1.524 . S
C1886 C1887 1.415 . S
C1887 H1857 0.950 . S
C1887 C1882 1.363 . S
C1887 C1886 1.415 . S
H1888 C1885 0.999 . S
H1889 C1870 0.913 . S
H1890 C1908 0.951 . S
H1891 C1910 0.951 . S
H1892 C1912 0.950 . S
H1893 C1913 0.950 . S
H1894 C1915 0.950 . S
H1895 C1918 0.950 . S
H1896 C1919 0.950 . S
H1897 C1921 0.950 . S
H1898 C1922 0.950 . S
H1899 C1923 0.951 . S
H1900 C1925 0.951 . S
H1901 C1927 0.950 . S
H1902 C1928 0.950 1_556 S
H1903 C1930 0.950 . S
H1904 C1933 0.950 . S
H1905 C1934 0.950 . S
H1906 C1936 0.950 . S
H1907 C1937 0.950 . S
C1908 H1890 0.951 . S
C1908 C1909 1.366 . S
C1908 C1910 1.388 . S
C1909 C1908 1.366 . S
C1909 C1913 1.385 . S
C1910 H1891 0.951 . S
C1910 C1908 1.388 . S
C1910 C1911 1.366 . S
C1911 C1910 1.366 . S
C1911 C1912 1.414 . S
C1911 C1914 1.499 . S
C1912 H1892 0.950 . S
C1912 C1911 1.414 . S
C1912 C1913 1.374 . S
C1913 H1893 0.950 . S
C1913 C1909 1.385 . S
C1913 C1912 1.374 . S
C1914 C1911 1.499 . S
C1914 C1915 1.373 . S
C1914 C1916 1.389 . S
C1915 H1894 0.950 . S
C1915 C1914 1.373 . S
C1915 C1931 1.377 . S
C1916 C1914 1.389 . S
C1916 C1917 1.524 . S
C1916 C1930 1.377 . S
C1917 C1916 1.524 . S
C1917 C1918 1.397 . S
C1917 C1922 1.363 1_554 S
C1918 H1895 0.950 . S
C1918 C1917 1.397 . S
C1918 C1919 1.334 . S
C1919 H1896 0.950 . S
C1919 C1918 1.334 . S
C1919 C1920 1.287 1_554 S
C1920 C1919 1.287 1_556 S
C1920 C1921 1.524 . S
C1920 H1939 0.913 . S
C1921 H1897 0.950 . S
C1921 C1920 1.524 . S
C1921 C1922 1.415 . S
C1922 H1898 0.950 . S
C1922 C1917 1.363 1_556 S
C1922 C1921 1.415 . S
C1923 H1899 0.951 . S
C1923 C1924 1.366 . S
C1923 C1925 1.388 . S
C1924 C1923 1.366 . S
C1924 C1928 1.385 . S
C1925 H1900 0.951 . S
C1925 C1923 1.388 . S
C1925 C1926 1.366 . S
C1926 C1925 1.366 . S
C1926 C1927 1.414 . S
C1926 C1929 1.499 . S
C1927 H1901 0.950 . S
C1927 C1926 1.414 . S
C1927 C1928 1.374 . S
C1928 H1902 0.950 1_554 S
C1928 C1924 1.385 . S
C1928 C1927 1.374 . S
C1929 C1926 1.499 . S
C1929 C1930 1.373 . S
C1929 C1931 1.389 . S
C1930 H1903 0.950 . S
C1930 C1916 1.377 . S
C1930 C1929 1.373 . S
C1931 C1915 1.377 . S
C1931 C1929 1.389 . S
C1931 C1932 1.524 . S
C1932 C1931 1.524 . S
C1932 C1933 1.397 . S
C1932 C1937 1.363 . S
C1933 H1904 0.950 . S
C1933 C1932 1.397 . S
C1933 C1934 1.334 . S
C1934 H1905 0.950 . S
C1934 C1933 1.334 . S
C1934 C1935 1.287 . S
C1935 C1934 1.287 . S
C1935 C1936 1.524 . S
C1935 H1938 0.999 . S
C1936 H1906 0.950 . S
C1936 C1935 1.524 . S
C1936 C1937 1.415 . S
C1937 H1907 0.950 . S
C1937 C1932 1.363 . S
C1937 C1936 1.415 . S
H1938 C1935 0.999 . S
H1939 C1920 0.913 . S
H1940 C1958 0.951 . S
H1941 C1960 0.951 . S
H1942 C1962 0.950 . S
H1943 C1963 0.950 . S
H1944 C1965 0.950 . S
H1945 C1968 0.950 . S
H1946 C1969 0.950 . S
H1947 C1971 0.950 1_556 S
H1948 C1972 0.950 . S
H1949 C1973 0.951 . S
H1950 C1975 0.951 . S
H1951 C1977 0.950 . S
H1952 C1978 0.950 . S
H1953 C1980 0.950 . S
H1954 C1983 0.950 . S
H1955 C1984 0.950 . S
H1956 C1986 0.950 . S
H1957 C1987 0.950 . S
C1958 H1940 0.951 . S
C1958 C1959 1.366 . S
C1958 C1960 1.388 . S
C1959 C1958 1.366 . S
C1959 C1963 1.385 . S
C1960 H1941 0.951 . S
C1960 C1958 1.388 . S
C1960 C1961 1.366 . S
C1961 C1960 1.366 . S
C1961 C1962 1.414 . S
C1961 C1964 1.499 . S
C1962 H1942 0.950 . S
C1962 C1961 1.414 . S
C1962 C1963 1.374 . S
C1963 H1943 0.950 . S
C1963 C1959 1.385 . S
C1963 C1962 1.374 . S
C1964 C1961 1.499 . S
C1964 C1965 1.373 . S
C1964 C1966 1.389 . S
C1965 H1944 0.950 . S
C1965 C1964 1.373 . S
C1965 C1981 1.377 . S
C1966 C1964 1.389 . S
C1966 C1967 1.524 . S
C1966 C1980 1.377 . S
C1967 C1966 1.524 . S
C1967 C1968 1.397 . S
C1967 C1972 1.363 . S
C1968 H1945 0.950 . S
C1968 C1967 1.397 . S
C1968 C1969 1.334 . S
C1969 H1946 0.950 . S
C1969 C1968 1.334 . S
C1969 C1970 1.287 . S
C1970 C1969 1.287 . S
C1970 C1971 1.524 . S
C1970 H1989 0.913 . S
C1971 H1947 0.950 1_554 S
C1971 C1970 1.524 . S
C1971 C1972 1.415 . S
C1972 H1948 0.950 . S
C1972 C1967 1.363 . S
C1972 C1971 1.415 . S
C1973 H1949 0.951 . S
C1973 C1974 1.366 . S
C1973 C1975 1.388 . S
C1974 C1973 1.366 . S
C1974 C1978 1.385 . S
C1975 H1950 0.951 . S
C1975 C1973 1.388 . S
C1975 C1976 1.366 . S
C1976 C1975 1.366 . S
C1976 C1977 1.414 . S
C1976 C1979 1.499 . S
C1977 H1951 0.950 . S
C1977 C1976 1.414 . S
C1977 C1978 1.374 . S
C1978 H1952 0.950 . S
C1978 C1974 1.385 . S
C1978 C1977 1.374 . S
C1979 C1976 1.499 . S
C1979 C1980 1.373 . S
C1979 C1981 1.389 . S
C1980 H1953 0.950 . S
C1980 C1966 1.377 . S
C1980 C1979 1.373 . S
C1981 C1965 1.377 . S
C1981 C1979 1.389 . S
C1981 C1982 1.524 . S
C1982 C1981 1.524 . S
C1982 C1983 1.397 . S
C1982 C1987 1.363 . S
C1983 H1954 0.950 . S
C1983 C1982 1.397 . S
C1983 C1984 1.334 . S
C1984 H1955 0.950 . S
C1984 C1983 1.334 . S
C1984 C1985 1.287 . S
C1985 C1984 1.287 . S
C1985 C1986 1.524 . S
C1985 H1988 0.999 . S
C1986 H1956 0.950 . S
C1986 C1985 1.524 . S
C1986 C1987 1.415 . S
C1987 H1957 0.950 . S
C1987 C1982 1.363 . S
C1987 C1986 1.415 . S
H1988 C1985 0.999 . S
H1989 C1970 0.913 . S
H1990 C2008 0.951 . S
H1991 C2010 0.951 . S
H1992 C2012 0.950 . S
H1993 C2013 0.950 . S
H1994 C2015 0.950 . S
H1995 C2018 0.950 . S
H1996 C2019 0.950 . S
H1997 C2021 0.950 . S
H1998 C2022 0.950 . S
H1999 C2023 0.951 . S
H2000 C2025 0.951 . S
H2001 C2027 0.950 . S
H2002 C2028 0.950 . S
H2003 C2030 0.950 . S
H2004 C2033 0.950 . S
H2005 C2034 0.950 . S
H2006 C2036 0.950 1_545 S
H2007 C2037 0.950 . S
C2008 H1990 0.951 . S
C2008 C2009 1.366 . S
C2008 C2010 1.388 . S
C2009 C2008 1.366 . S
C2009 C2013 1.385 . S
C2010 H1991 0.951 . S
C2010 C2008 1.388 . S
C2010 C2011 1.366 . S
C2011 C2010 1.366 . S
C2011 C2012 1.414 . S
C2011 C2014 1.499 . S
C2012 H1992 0.950 . S
C2012 C2011 1.414 . S
C2012 C2013 1.374 . S
C2013 H1993 0.950 . S
C2013 C2009 1.385 . S
C2013 C2012 1.374 . S
C2014 C2011 1.499 . S
C2014 C2015 1.373 . S
C2014 C2016 1.389 . S
C2015 H1994 0.950 . S
C2015 C2014 1.373 . S
C2015 C2031 1.377 . S
C2016 C2014 1.389 . S
C2016 C2017 1.524 . S
C2016 C2030 1.377 . S
C2017 C2016 1.524 . S
C2017 C2018 1.397 . S
C2017 C2022 1.363 . S
C2018 H1995 0.950 . S
C2018 C2017 1.397 . S
C2018 C2019 1.334 1_554 S
C2019 H1996 0.950 . S
C2019 C2018 1.334 1_556 S
C2019 C2020 1.287 . S
C2020 C2019 1.287 . S
C2020 C2021 1.524 . S
C2020 H2039 0.913 . S
C2021 H1997 0.950 . S
C2021 C2020 1.524 . S
C2021 C2022 1.415 1_556 S
C2022 H1998 0.950 . S
C2022 C2017 1.363 . S
C2022 C2021 1.415 1_554 S
C2023 H1999 0.951 . S
C2023 C2024 1.366 . S
C2023 C2025 1.388 . S
C2024 C2023 1.366 . S
C2024 C2028 1.385 . S
C2025 H2000 0.951 . S
C2025 C2023 1.388 . S
C2025 C2026 1.366 . S
C2026 C2025 1.366 . S
C2026 C2027 1.414 . S
C2026 C2029 1.499 . S
C2027 H2001 0.950 . S
C2027 C2026 1.414 . S
C2027 C2028 1.374 . S
C2028 H2002 0.950 . S
C2028 C2024 1.385 . S
C2028 C2027 1.374 . S
C2029 C2026 1.499 . S
C2029 C2030 1.373 . S
C2029 C2031 1.389 . S
C2030 H2003 0.950 . S
C2030 C2016 1.377 . S
C2030 C2029 1.373 . S
C2031 C2015 1.377 . S
C2031 C2029 1.389 . S
C2031 C2032 1.524 . S
C2032 C2031 1.524 . S
C2032 C2033 1.397 . S
C2032 C2037 1.363 . S
C2033 H2004 0.950 . S
C2033 C2032 1.397 . S
C2033 C2034 1.334 . S
C2034 H2005 0.950 . S
C2034 C2033 1.334 . S
C2034 C2035 1.287 . S
C2035 C2034 1.287 . S
C2035 C2036 1.524 . S
C2035 H2038 0.999 1_565 S
C2036 H2006 0.950 1_565 S
C2036 C2035 1.524 . S
C2036 C2037 1.415 . S
C2037 H2007 0.950 . S
C2037 C2032 1.363 . S
C2037 C2036 1.415 . S
H2038 C2035 0.999 1_545 S
H2039 C2020 0.913 . S
H2040 C2058 0.951 . S
H2041 C2060 0.951 . S
H2042 C2062 0.900 1_455 S
H2043 C2063 0.950 . S
H2044 C2065 0.950 . S
H2045 C2068 0.950 . S
H2046 C2069 0.950 . S
H2047 C2071 0.950 . S
H2048 C2072 0.950 1_455 S
H2049 C2073 0.951 . S
H2050 C2075 0.951 . S
H2051 C2077 0.950 . S
H2052 C2078 0.950 . S
H2053 C2080 0.950 . S
H2054 C2083 0.950 . S
H2055 C2084 0.950 . S
H2056 C2086 0.950 . S
H2057 C2087 0.950 . S
C2058 H2040 0.951 . S
C2058 C2059 1.366 . S
C2058 C2060 1.388 . S
C2059 C2058 1.366 . S
C2059 C2063 1.385 . S
C2060 H2041 0.951 . S
C2060 C2058 1.388 . S
C2060 C2061 1.366 . S
C2061 C2060 1.366 . S
C2061 C2062 1.414 . S
C2061 C2064 1.499 1_655 S
C2062 H2042 0.900 1_655 S
C2062 C2061 1.414 . S
C2062 C2063 1.374 . S
C2063 H2043 0.950 . S
C2063 C2059 1.385 . S
C2063 C2062 1.374 . S
C2064 C2061 1.499 1_455 S
C2064 C2065 1.373 . S
C2064 C2066 1.389 . S
C2065 H2044 0.950 . S
C2065 C2064 1.373 . S
C2065 C2081 1.377 . S
C2066 C2064 1.389 . S
C2066 C2067 1.524 . S
C2066 C2080 1.377 . S
C2067 C2066 1.524 . S
C2067 C2068 1.397 1_455 S
C2067 C2072 1.363 1_455 S
C2068 H2045 0.950 . S
C2068 C2067 1.397 1_655 S
C2068 C2069 1.334 . S
C2069 H2046 0.950 . S
C2069 C2068 1.334 . S
C2069 C2070 1.287 . S
C2070 C2069 1.287 . S
C2070 C2071 1.524 . S
C2070 H2089 0.913 . S
C2071 H2047 0.950 . S
C2071 C2070 1.524 . S
C2071 C2072 1.415 . S
C2072 H2048 0.950 1_655 S
C2072 C2067 1.363 1_655 S
C2072 C2071 1.415 . S
C2073 H2049 0.951 . S
C2073 C2074 1.366 . S
C2073 C2075 1.388 . S
C2074 C2073 1.366 . S
C2074 C2078 1.385 . S
C2075 H2050 0.951 . S
C2075 C2073 1.388 . S
C2075 C2076 1.366 . S
C2076 C2075 1.366 . S
C2076 C2077 1.414 . S
C2076 C2079 1.499 . S
C2077 H2051 0.950 . S
C2077 C2076 1.414 . S
C2077 C2078 1.374 . S
C2078 H2052 0.950 . S
C2078 C2074 1.385 . S
C2078 C2077 1.374 . S
C2079 C2076 1.499 . S
C2079 C2080 1.373 . S
C2079 C2081 1.389 . S
C2080 H2053 0.950 . S
C2080 C2066 1.377 . S
C2080 C2079 1.373 . S
C2081 C2065 1.377 . S
C2081 C2079 1.389 . S
C2081 C2082 1.524 . S
C2082 C2081 1.524 . S
C2082 C2083 1.397 . S
C2082 C2087 1.363 . S
C2083 H2054 0.950 . S
C2083 C2082 1.397 . S
C2083 C2084 1.334 . S
C2084 H2055 0.950 . S
C2084 C2083 1.334 . S
C2084 C2085 1.287 . S
C2085 C2084 1.287 . S
C2085 C2086 1.524 . S
C2085 H2088 0.999 . S
C2086 H2056 0.950 . S
C2086 C2085 1.524 . S
C2086 C2087 1.415 . S
C2087 H2057 0.950 . S
C2087 C2082 1.363 . S
C2087 C2086 1.415 . S
H2088 C2085 0.999 . S
H2089 C2070 0.913 . S
H2090 C2108 0.951 . S
H2091 C2110 0.951 . S
H2092 C2112 0.950 . S
H2093 C2113 0.950 . S
H2094 C2115 0.950 . S
H2095 C2118 0.950 . S
H2096 C2119 0.950 . S
H2097 C2121 0.950 . S
H2098 C2122 0.950 . S
H2099 C2123 0.951 . S
H2100 C2125 0.951 . S
H2101 C2127 0.950 . S
H2102 C2128 0.950 . S
H2103 C2130 0.950 . S
H2104 C2133 0.950 . S
H2105 C2134 0.950 . S
H2106 C2136 0.950 . S
H2107 C2137 0.950 . S
C2108 H2090 0.951 . S
C2108 C2109 1.366 . S
C2108 C2110 1.388 . S
C2109 C2108 1.366 . S
C2109 C2113 1.385 . S
C2110 H2091 0.951 . S
C2110 C2108 1.388 . S
C2110 C2111 1.366 . S
C2111 C2110 1.366 . S
C2111 C2112 1.414 . S
C2111 C2114 1.499 . S
C2112 H2092 0.950 . S
C2112 C2111 1.414 . S
C2112 C2113 1.374 . S
C2113 H2093 0.950 . S
C2113 C2109 1.385 . S
C2113 C2112 1.374 . S
C2114 C2111 1.499 . S
C2114 C2115 1.373 . S
C2114 C2116 1.389 . S
C2115 H2094 0.950 . S
C2115 C2114 1.373 . S
C2115 C2131 1.377 . S
C2116 C2114 1.389 . S
C2116 C2117 1.524 . S
C2116 C2130 1.377 . S
C2117 C2116 1.524 . S
C2117 C2118 1.397 . S
C2117 C2122 1.363 . S
C2118 H2095 0.950 . S
C2118 C2117 1.397 . S
C2118 C2119 1.334 . S
C2119 H2096 0.950 . S
C2119 C2118 1.334 . S
C2119 C2120 1.287 . S
C2120 C2119 1.287 . S
C2120 C2121 1.524 . S
C2120 H2139 0.913 . S
C2121 H2097 0.950 . S
C2121 C2120 1.524 . S
C2121 C2122 1.415 . S
C2122 H2098 0.950 . S
C2122 C2117 1.363 . S
C2122 C2121 1.415 . S
C2123 H2099 0.951 . S
C2123 C2124 1.366 . S
C2123 C2125 1.388 . S
C2124 C2123 1.366 . S
C2124 C2128 1.385 . S
C2125 H2100 0.951 . S
C2125 C2123 1.388 . S
C2125 C2126 1.366 . S
C2126 C2125 1.366 . S
C2126 C2127 1.414 . S
C2126 C2129 1.499 . S
C2127 H2101 0.950 . S
C2127 C2126 1.414 . S
C2127 C2128 1.374 . S
C2128 H2102 0.950 . S
C2128 C2124 1.385 . S
C2128 C2127 1.374 . S
C2129 C2126 1.499 . S
C2129 C2130 1.373 . S
C2129 C2131 1.389 . S
C2130 H2103 0.950 . S
C2130 C2116 1.377 . S
C2130 C2129 1.373 . S
C2131 C2115 1.377 . S
C2131 C2129 1.389 . S
C2131 C2132 1.524 . S
C2132 C2131 1.524 . S
C2132 C2133 1.397 . S
C2132 C2137 1.363 . S
C2133 H2104 0.950 . S
C2133 C2132 1.397 . S
C2133 C2134 1.334 . S
C2134 H2105 0.950 . S
C2134 C2133 1.334 . S
C2134 C2135 1.287 . S
C2135 C2134 1.287 . S
C2135 C2136 1.524 . S
C2135 H2138 0.999 . S
C2136 H2106 0.950 . S
C2136 C2135 1.524 . S
C2136 C2137 1.415 . S
C2137 H2107 0.950 . S
C2137 C2132 1.363 . S
C2137 C2136 1.415 . S
H2138 C2135 0.999 . S
H2139 C2120 0.913 . S
H2140 C2158 0.951 . S
H2141 C2160 0.951 . S
H2142 C2162 0.950 . S
H2143 C2163 0.950 . S
H2144 C2165 0.946 1_545 S
H2145 C2168 0.950 . S
H2146 C2169 0.950 . S
H2147 C2171 0.950 . S
H2148 C2172 0.950 . S
H2149 C2173 0.951 . S
H2150 C2175 0.951 . S
H2151 C2177 0.950 . S
H2152 C2178 0.950 . S
H2153 C2180 0.950 . S
H2154 C2183 0.950 . S
H2155 C2184 0.950 . S
H2156 C2186 0.950 . S
H2157 C2187 0.950 . S
C2158 H2140 0.951 . S
C2158 C2159 1.366 . S
C2158 C2160 1.388 . S
C2159 C2158 1.366 . S
C2159 C2163 1.385 . S
C2160 H2141 0.951 . S
C2160 C2158 1.388 . S
C2160 C2161 1.366 . S
C2161 C2160 1.366 . S
C2161 C2162 1.414 . S
C2161 C2164 1.499 . S
C2162 H2142 0.950 . S
C2162 C2161 1.414 . S
C2162 C2163 1.374 . S
C2163 H2143 0.950 . S
C2163 C2159 1.385 . S
C2163 C2162 1.374 . S
C2164 C2161 1.499 . S
C2164 C2165 1.373 1_545 S
C2164 C2166 1.389 1_545 S
C2165 H2144 0.946 1_565 S
C2165 C2164 1.373 1_565 S
C2165 C2181 1.377 . S
C2166 C2164 1.389 1_565 S
C2166 C2167 1.524 . S
C2166 C2180 1.377 . S
C2167 C2166 1.524 . S
C2167 C2168 1.397 1_565 S
C2167 C2172 1.363 . S
C2168 H2145 0.950 . S
C2168 C2167 1.397 1_545 S
C2168 C2169 1.334 . S
C2169 H2146 0.950 . S
C2169 C2168 1.334 . S
C2169 C2170 1.287 . S
C2170 C2169 1.287 . S
C2170 C2171 1.524 1_545 S
C2170 H2189 0.913 . S
C2171 H2147 0.950 . S
C2171 C2170 1.524 1_565 S
C2171 C2172 1.415 . S
C2172 H2148 0.950 . S
C2172 C2167 1.363 . S
C2172 C2171 1.415 . S
C2173 H2149 0.951 . S
C2173 C2174 1.366 . S
C2173 C2175 1.388 . S
C2174 C2173 1.366 . S
C2174 C2178 1.385 . S
C2175 H2150 0.951 . S
C2175 C2173 1.388 . S
C2175 C2176 1.366 . S
C2176 C2175 1.366 . S
C2176 C2177 1.414 . S
C2176 C2179 1.499 . S
C2177 H2151 0.950 . S
C2177 C2176 1.414 . S
C2177 C2178 1.374 . S
C2178 H2152 0.950 . S
C2178 C2174 1.385 . S
C2178 C2177 1.374 . S
C2179 C2176 1.499 . S
C2179 C2180 1.373 . S
C2179 C2181 1.389 . S
C2180 H2153 0.950 . S
C2180 C2166 1.377 . S
C2180 C2179 1.373 . S
C2181 C2165 1.377 . S
C2181 C2179 1.389 . S
C2181 C2182 1.524 . S
C2182 C2181 1.524 . S
C2182 C2183 1.397 . S
C2182 C2187 1.363 . S
C2183 H2154 0.950 . S
C2183 C2182 1.397 . S
C2183 C2184 1.334 . S
C2184 H2155 0.950 . S
C2184 C2183 1.334 . S
C2184 C2185 1.287 . S
C2185 C2184 1.287 . S
C2185 C2186 1.524 . S
C2185 H2188 0.999 . S
C2186 H2156 0.950 . S
C2186 C2185 1.524 . S
C2186 C2187 1.415 . S
C2187 H2157 0.950 . S
C2187 C2182 1.363 . S
C2187 C2186 1.415 . S
H2188 C2185 0.999 . S
H2189 C2170 0.913 . S
H2190 C2208 0.951 . S
H2191 C2210 0.951 . S
H2192 C2212 0.950 . S
H2193 C2213 0.950 . S
H2194 C2215 0.950 . S
H2195 C2218 0.950 . S
H2196 C2219 0.950 . S
H2197 C2221 0.950 . S
H2198 C2222 0.950 . S
H2199 C2223 0.951 . S
H2200 C2225 0.951 . S
H2201 C2227 0.950 . S
H2202 C2228 0.950 . S
H2203 C2230 0.950 . S
H2204 C2233 0.950 . S
H2205 C2234 0.950 . S
H2206 C2236 0.950 . S
H2207 C2237 0.950 . S
C2208 H2190 0.951 . S
C2208 C2209 1.366 . S
C2208 C2210 1.388 . S
C2209 C2208 1.366 . S
C2209 C2213 1.385 . S
C2210 H2191 0.951 . S
C2210 C2208 1.388 . S
C2210 C2211 1.366 . S
C2211 C2210 1.366 . S
C2211 C2212 1.414 . S
C2211 C2214 1.499 . S
C2212 H2192 0.950 . S
C2212 C2211 1.414 . S
C2212 C2213 1.374 . S
C2213 H2193 0.950 . S
C2213 C2209 1.385 . S
C2213 C2212 1.374 . S
C2214 C2211 1.499 . S
C2214 C2215 1.373 . S
C2214 C2216 1.389 . S
C2215 H2194 0.950 . S
C2215 C2214 1.373 . S
C2215 C2231 1.377 . S
C2216 C2214 1.389 . S
C2216 C2217 1.524 . S
C2216 C2230 1.377 . S
C2217 C2216 1.524 . S
C2217 C2218 1.397 . S
C2217 C2222 1.363 . S
C2218 H2195 0.950 . S
C2218 C2217 1.397 . S
C2218 C2219 1.334 . S
C2219 H2196 0.950 . S
C2219 C2218 1.334 . S
C2219 C2220 1.287 . S
C2220 C2219 1.287 . S
C2220 C2221 1.524 . S
C2220 H2239 0.913 . S
C2221 H2197 0.950 . S
C2221 C2220 1.524 . S
C2221 C2222 1.415 . S
C2222 H2198 0.950 . S
C2222 C2217 1.363 . S
C2222 C2221 1.415 . S
C2223 H2199 0.951 . S
C2223 C2224 1.366 . S
C2223 C2225 1.388 . S
C2224 C2223 1.366 . S
C2224 C2228 1.385 . S
C2225 H2200 0.951 . S
C2225 C2223 1.388 . S
C2225 C2226 1.366 . S
C2226 C2225 1.366 . S
C2226 C2227 1.414 . S
C2226 C2229 1.499 . S
C2227 H2201 0.950 . S
C2227 C2226 1.414 . S
C2227 C2228 1.374 . S
C2228 H2202 0.950 . S
C2228 C2224 1.385 . S
C2228 C2227 1.374 . S
C2229 C2226 1.499 . S
C2229 C2230 1.373 . S
C2229 C2231 1.389 . S
C2230 H2203 0.950 . S
C2230 C2216 1.377 . S
C2230 C2229 1.373 . S
C2231 C2215 1.377 . S
C2231 C2229 1.389 . S
C2231 C2232 1.524 . S
C2232 C2231 1.524 . S
C2232 C2233 1.397 . S
C2232 C2237 1.363 . S
C2233 H2204 0.950 . S
C2233 C2232 1.397 . S
C2233 C2234 1.334 . S
C2234 H2205 0.950 . S
C2234 C2233 1.334 . S
C2234 C2235 1.287 . S
C2235 C2234 1.287 . S
C2235 C2236 1.524 . S
C2235 H2238 0.999 . S
C2236 H2206 0.950 . S
C2236 C2235 1.524 . S
C2236 C2237 1.415 . S
C2237 H2207 0.950 . S
C2237 C2232 1.363 . S
C2237 C2236 1.415 . S
H2238 C2235 0.999 . S
H2239 C2220 0.913 . S
H2240 C2258 0.951 . S
H2241 C2260 0.951 . S
H2242 C2262 0.950 . S
H2243 C2263 0.950 . S
H2244 C2265 0.950 . S
H2245 C2268 0.950 . S
H2246 C2269 0.950 . S
H2247 C2271 0.950 . S
H2248 C2272 0.950 . S
H2249 C2273 0.951 . S
H2250 C2275 0.951 . S
H2251 C2277 0.950 . S
H2252 C2278 0.950 . S
H2253 C2280 0.950 . S
H2254 C2283 0.950 . S
H2255 C2284 0.950 . S
H2256 C2286 0.950 . S
H2257 C2287 0.950 . S
C2258 H2240 0.951 . S
C2258 C2259 1.366 . S
C2258 C2260 1.388 . S
C2259 C2258 1.366 . S
C2259 C2263 1.385 . S
C2260 H2241 0.951 . S
C2260 C2258 1.388 . S
C2260 C2261 1.366 . S
C2261 C2260 1.366 . S
C2261 C2262 1.414 . S
C2261 C2264 1.499 . S
C2262 H2242 0.950 . S
C2262 C2261 1.414 . S
C2262 C2263 1.374 . S
C2263 H2243 0.950 . S
C2263 C2259 1.385 . S
C2263 C2262 1.374 . S
C2264 C2261 1.499 . S
C2264 C2265 1.373 . S
C2264 C2266 1.389 . S
C2265 H2244 0.950 . S
C2265 C2264 1.373 . S
C2265 C2281 1.377 . S
C2266 C2264 1.389 . S
C2266 C2267 1.524 . S
C2266 C2280 1.377 . S
C2267 C2266 1.524 . S
C2267 C2268 1.397 . S
C2267 C2272 1.363 . S
C2268 H2245 0.950 . S
C2268 C2267 1.397 . S
C2268 C2269 1.334 . S
C2269 H2246 0.950 . S
C2269 C2268 1.334 . S
C2269 C2270 1.287 . S
C2270 C2269 1.287 . S
C2270 C2271 1.524 . S
C2270 H2289 0.913 . S
C2271 H2247 0.950 . S
C2271 C2270 1.524 . S
C2271 C2272 1.415 . S
C2272 H2248 0.950 . S
C2272 C2267 1.363 . S
C2272 C2271 1.415 . S
C2273 H2249 0.951 . S
C2273 C2274 1.366 . S
C2273 C2275 1.388 . S
C2274 C2273 1.366 . S
C2274 C2278 1.385 . S
C2275 H2250 0.951 . S
C2275 C2273 1.388 . S
C2275 C2276 1.366 . S
C2276 C2275 1.366 . S
C2276 C2277 1.414 . S
C2276 C2279 1.499 . S
C2277 H2251 0.950 . S
C2277 C2276 1.414 . S
C2277 C2278 1.374 . S
C2278 H2252 0.950 . S
C2278 C2274 1.385 . S
C2278 C2277 1.374 . S
C2279 C2276 1.499 . S
C2279 C2280 1.373 . S
C2279 C2281 1.389 . S
C2280 H2253 0.950 . S
C2280 C2266 1.377 . S
C2280 C2279 1.373 . S
C2281 C2265 1.377 . S
C2281 C2279 1.389 . S
C2281 C2282 1.524 . S
C2282 C2281 1.524 . S
C2282 C2283 1.397 . S
C2282 C2287 1.363 . S
C2283 H2254 0.950 . S
C2283 C2282 1.397 . S
C2283 C2284 1.334 . S
C2284 H2255 0.950 . S
C2284 C2283 1.334 . S
C2284 C2285 1.287 . S
C2285 C2284 1.287 . S
C2285 C2286 1.524 . S
C2285 H2288 0.999 . S
C2286 H2256 0.950 . S
C2286 C2285 1.524 . S
C2286 C2287 1.415 . S
C2287 H2257 0.950 . S
C2287 C2282 1.363 . S
C2287 C2286 1.415 . S
H2288 C2285 0.999 . S
H2289 C2270 0.913 . S
H2290 C2308 0.951 . S
H2291 C2310 0.951 . S
H2292 C2312 0.950 . S
H2293 C2313 0.950 . S
H2294 C2315 0.950 . S
H2295 C2318 0.950 . S
H2296 C2319 0.950 . S
H2297 C2321 0.950 . S
H2298 C2322 0.950 . S
H2299 C2323 0.951 . S
H2300 C2325 0.951 . S
H2301 C2327 0.950 . S
H2302 C2328 0.950 . S
H2303 C2330 0.950 . S
H2304 C2333 0.950 . S
H2305 C2334 0.950 . S
H2306 C2336 0.950 . S
H2307 C2337 0.950 . S
C2308 H2290 0.951 . S
C2308 C2309 1.366 . S
C2308 C2310 1.388 . S
C2309 C2308 1.366 . S
C2309 C2313 1.385 . S
C2310 H2291 0.951 . S
C2310 C2308 1.388 . S
C2310 C2311 1.366 . S
C2311 C2310 1.366 . S
C2311 C2312 1.414 . S
C2311 C2314 1.499 . S
C2312 H2292 0.950 . S
C2312 C2311 1.414 . S
C2312 C2313 1.374 . S
C2313 H2293 0.950 . S
C2313 C2309 1.385 . S
C2313 C2312 1.374 . S
C2314 C2311 1.499 . S
C2314 C2315 1.373 . S
C2314 C2316 1.389 . S
C2315 H2294 0.950 . S
C2315 C2314 1.373 . S
C2315 C2331 1.377 . S
C2316 C2314 1.389 . S
C2316 C2317 1.524 . S
C2316 C2330 1.377 . S
C2317 C2316 1.524 . S
C2317 C2318 1.397 . S
C2317 C2322 1.363 . S
C2318 H2295 0.950 . S
C2318 C2317 1.397 . S
C2318 C2319 1.334 . S
C2319 H2296 0.950 . S
C2319 C2318 1.334 . S
C2319 C2320 1.287 . S
C2320 C2319 1.287 . S
C2320 C2321 1.524 . S
C2320 H2339 0.913 . S
C2321 H2297 0.950 . S
C2321 C2320 1.524 . S
C2321 C2322 1.415 . S
C2322 H2298 0.950 . S
C2322 C2317 1.363 . S
C2322 C2321 1.415 . S
C2323 H2299 0.951 . S
C2323 C2324 1.366 . S
C2323 C2325 1.388 . S
C2324 C2323 1.366 . S
C2324 C2328 1.385 . S
C2325 H2300 0.951 . S
C2325 C2323 1.388 . S
C2325 C2326 1.366 . S
C2326 C2325 1.366 . S
C2326 C2327 1.414 . S
C2326 C2329 1.499 . S
C2327 H2301 0.950 . S
C2327 C2326 1.414 . S
C2327 C2328 1.374 . S
C2328 H2302 0.950 . S
C2328 C2324 1.385 . S
C2328 C2327 1.374 . S
C2329 C2326 1.499 . S
C2329 C2330 1.373 . S
C2329 C2331 1.389 . S
C2330 H2303 0.950 . S
C2330 C2316 1.377 . S
C2330 C2329 1.373 . S
C2331 C2315 1.377 . S
C2331 C2329 1.389 . S
C2331 C2332 1.524 . S
C2332 C2331 1.524 . S
C2332 C2333 1.397 . S
C2332 C2337 1.363 . S
C2333 H2304 0.950 . S
C2333 C2332 1.397 . S
C2333 C2334 1.334 . S
C2334 H2305 0.950 . S
C2334 C2333 1.334 . S
C2334 C2335 1.287 . S
C2335 C2334 1.287 . S
C2335 C2336 1.524 . S
C2335 H2338 0.999 . S
C2336 H2306 0.950 . S
C2336 C2335 1.524 . S
C2336 C2337 1.415 . S
C2337 H2307 0.950 . S
C2337 C2332 1.363 . S
C2337 C2336 1.415 . S
H2338 C2335 0.999 . S
H2339 C2320 0.913 . S
H2340 C2358 0.951 . S
H2341 C2360 0.951 . S
H2342 C2362 0.950 . S
H2343 C2363 0.950 . S
H2344 C2365 0.950 . S
H2345 C2368 0.950 . S
H2346 C2369 0.950 . S
H2347 C2371 0.950 . S
H2348 C2372 0.950 . S
H2349 C2373 0.951 . S
H2350 C2375 0.951 . S
H2351 C2377 0.950 . S
H2352 C2378 0.950 . S
H2353 C2380 0.950 . S
H2354 C2383 0.950 . S
H2355 C2384 0.950 . S
H2356 C2386 0.950 . S
H2357 C2387 0.950 . S
C2358 H2340 0.951 . S
C2358 C2359 1.366 . S
C2358 C2360 1.388 . S
C2359 C2358 1.366 . S
C2359 C2363 1.385 . S
C2360 H2341 0.951 . S
C2360 C2358 1.388 . S
C2360 C2361 1.366 . S
C2361 C2360 1.366 . S
C2361 C2362 1.414 . S
C2361 C2364 1.499 . S
C2362 H2342 0.950 . S
C2362 C2361 1.414 . S
C2362 C2363 1.374 . S
C2363 H2343 0.950 . S
C2363 C2359 1.385 . S
C2363 C2362 1.374 . S
C2364 C2361 1.499 . S
C2364 C2365 1.373 . S
C2364 C2366 1.389 . S
C2365 H2344 0.950 . S
C2365 C2364 1.373 . S
C2365 C2381 1.377 . S
C2366 C2364 1.389 . S
C2366 C2367 1.524 . S
C2366 C2380 1.377 . S
C2367 C2366 1.524 . S
C2367 C2368 1.397 . S
C2367 C2372 1.363 . S
C2368 H2345 0.950 . S
C2368 C2367 1.397 . S
C2368 C2369 1.334 . S
C2369 H2346 0.950 . S
C2369 C2368 1.334 . S
C2369 C2370 1.287 . S
C2370 C2369 1.287 . S
C2370 C2371 1.524 . S
C2370 H2389 0.913 . S
C2371 H2347 0.950 . S
C2371 C2370 1.524 . S
C2371 C2372 1.415 . S
C2372 H2348 0.950 . S
C2372 C2367 1.363 . S
C2372 C2371 1.415 . S
C2373 H2349 0.951 . S
C2373 C2374 1.366 . S
C2373 C2375 1.388 . S
C2374 C2373 1.366 . S
C2374 C2378 1.385 . S
C2375 H2350 0.951 . S
C2375 C2373 1.388 . S
C2375 C2376 1.366 . S
C2376 C2375 1.366 . S
C2376 C2377 1.414 . S
C2376 C2379 1.499 . S
C2377 H2351 0.950 . S
C2377 C2376 1.414 . S
C2377 C2378 1.374 . S
C2378 H2352 0.950 . S
C2378 C2374 1.385 . S
C2378 C2377 1.374 . S
C2379 C2376 1.499 . S
C2379 C2380 1.373 . S
C2379 C2381 1.389 . S
C2380 H2353 0.950 . S
C2380 C2366 1.377 . S
C2380 C2379 1.373 . S
C2381 C2365 1.377 . S
C2381 C2379 1.389 . S
C2381 C2382 1.524 . S
C2382 C2381 1.524 . S
C2382 C2383 1.397 . S
C2382 C2387 1.363 . S
C2383 H2354 0.950 . S
C2383 C2382 1.397 . S
C2383 C2384 1.334 . S
C2384 H2355 0.950 . S
C2384 C2383 1.334 . S
C2384 C2385 1.287 . S
C2385 C2384 1.287 . S
C2385 C2386 1.524 . S
C2385 H2388 0.999 . S
C2386 H2356 0.950 . S
C2386 C2385 1.524 . S
C2386 C2387 1.415 . S
C2387 H2357 0.950 . S
C2387 C2382 1.363 . S
C2387 C2386 1.415 . S
H2388 C2385 0.999 . S
H2389 C2370 0.913 . S
H2390 C2408 0.951 . S
H2391 C2410 0.951 . S
H2392 C2412 0.950 . S
H2393 C2413 0.950 . S
H2394 C2415 0.950 . S
H2395 C2418 0.950 . S
H2396 C2419 0.950 . S
H2397 C2421 0.950 . S
H2398 C2422 0.950 . S
H2399 C2423 0.951 . S
H2400 C2425 0.951 . S
H2401 C2427 0.950 . S
H2402 C2428 0.950 . S
H2403 C2430 0.950 . S
H2404 C2433 0.950 . S
H2405 C2434 0.950 . S
H2406 C2436 0.950 . S
H2407 C2437 0.950 . S
C2408 H2390 0.951 . S
C2408 C2409 1.366 . S
C2408 C2410 1.388 . S
C2409 C2408 1.366 . S
C2409 C2413 1.385 . S
C2410 H2391 0.951 . S
C2410 C2408 1.388 . S
C2410 C2411 1.366 . S
C2411 C2410 1.366 . S
C2411 C2412 1.414 . S
C2411 C2414 1.499 . S
C2412 H2392 0.950 . S
C2412 C2411 1.414 . S
C2412 C2413 1.374 . S
C2413 H2393 0.950 . S
C2413 C2409 1.385 . S
C2413 C2412 1.374 . S
C2414 C2411 1.499 . S
C2414 C2415 1.373 . S
C2414 C2416 1.389 . S
C2415 H2394 0.950 . S
C2415 C2414 1.373 . S
C2415 C2431 1.377 . S
C2416 C2414 1.389 . S
C2416 C2417 1.524 . S
C2416 C2430 1.377 . S
C2417 C2416 1.524 . S
C2417 C2418 1.397 . S
C2417 C2422 1.363 . S
C2418 H2395 0.950 . S
C2418 C2417 1.397 . S
C2418 C2419 1.334 . S
C2419 H2396 0.950 . S
C2419 C2418 1.334 . S
C2419 C2420 1.287 . S
C2420 C2419 1.287 . S
C2420 C2421 1.524 . S
C2420 H2439 0.913 . S
C2421 H2397 0.950 . S
C2421 C2420 1.524 . S
C2421 C2422 1.415 . S
C2422 H2398 0.950 . S
C2422 C2417 1.363 . S
C2422 C2421 1.415 . S
C2423 H2399 0.951 . S
C2423 C2424 1.366 . S
C2423 C2425 1.388 . S
C2424 C2423 1.366 . S
C2424 C2428 1.385 . S
C2425 H2400 0.951 . S
C2425 C2423 1.388 . S
C2425 C2426 1.366 . S
C2426 C2425 1.366 . S
C2426 C2427 1.414 . S
C2426 C2429 1.499 . S
C2427 H2401 0.950 . S
C2427 C2426 1.414 . S
C2427 C2428 1.374 . S
C2428 H2402 0.950 . S
C2428 C2424 1.385 . S
C2428 C2427 1.374 . S
C2429 C2426 1.499 . S
C2429 C2430 1.373 . S
C2429 C2431 1.389 . S
C2430 H2403 0.950 . S
C2430 C2416 1.377 . S
C2430 C2429 1.373 . S
C2431 C2415 1.377 . S
C2431 C2429 1.389 . S
C2431 C2432 1.524 . S
C2432 C2431 1.524 . S
C2432 C2433 1.397 . S
C2432 C2437 1.363 . S
C2433 H2404 0.950 . S
C2433 C2432 1.397 . S
C2433 C2434 1.334 . S
C2434 H2405 0.950 . S
C2434 C2433 1.334 . S
C2434 C2435 1.287 . S
C2435 C2434 1.287 . S
C2435 C2436 1.524 . S
C2435 H2438 0.999 . S
C2436 H2406 0.950 . S
C2436 C2435 1.524 . S
C2436 C2437 1.415 . S
C2437 H2407 0.950 . S
C2437 C2432 1.363 . S
C2437 C2436 1.415 . S
H2438 C2435 0.999 . S
H2439 C2420 0.913 . S
H2440 C2458 0.951 . S
H2441 C2460 0.951 . S
H2442 C2462 0.950 . S
H2443 C2463 0.950 . S
H2444 C2465 0.950 . S
H2445 C2468 0.950 . S
H2446 C2469 0.950 . S
H2447 C2471 0.950 . S
H2448 C2472 0.950 . S
H2449 C2473 0.951 . S
H2450 C2475 0.951 . S
H2451 C2477 0.950 . S
H2452 C2478 0.950 . S
H2453 C2480 0.950 . S
H2454 C2483 0.950 . S
H2455 C2484 0.950 . S
H2456 C2486 0.950 . S
H2457 C2487 0.950 . S
C2458 H2440 0.951 . S
C2458 C2459 1.366 . S
C2458 C2460 1.388 . S
C2459 C2458 1.366 . S
C2459 C2463 1.385 . S
C2460 H2441 0.951 . S
C2460 C2458 1.388 . S
C2460 C2461 1.366 . S
C2461 C2460 1.366 . S
C2461 C2462 1.414 . S
C2461 C2464 1.499 . S
C2462 H2442 0.950 . S
C2462 C2461 1.414 . S
C2462 C2463 1.374 . S
C2463 H2443 0.950 . S
C2463 C2459 1.385 . S
C2463 C2462 1.374 . S
C2464 C2461 1.499 . S
C2464 C2465 1.373 . S
C2464 C2466 1.389 . S
C2465 H2444 0.950 . S
C2465 C2464 1.373 . S
C2465 C2481 1.377 . S
C2466 C2464 1.389 . S
C2466 C2467 1.524 . S
C2466 C2480 1.377 . S
C2467 C2466 1.524 . S
C2467 C2468 1.397 . S
C2467 C2472 1.363 . S
C2468 H2445 0.950 . S
C2468 C2467 1.397 . S
C2468 C2469 1.334 . S
C2469 H2446 0.950 . S
C2469 C2468 1.334 . S
C2469 C2470 1.287 . S
C2470 C2469 1.287 . S
C2470 C2471 1.524 . S
C2470 H2489 0.913 . S
C2471 H2447 0.950 . S
C2471 C2470 1.524 . S
C2471 C2472 1.415 . S
C2472 H2448 0.950 . S
C2472 C2467 1.363 . S
C2472 C2471 1.415 . S
C2473 H2449 0.951 . S
C2473 C2474 1.366 . S
C2473 C2475 1.388 . S
C2474 C2473 1.366 . S
C2474 C2478 1.385 . S
C2475 H2450 0.951 . S
C2475 C2473 1.388 . S
C2475 C2476 1.366 . S
C2476 C2475 1.366 . S
C2476 C2477 1.414 . S
C2476 C2479 1.499 . S
C2477 H2451 0.950 . S
C2477 C2476 1.414 . S
C2477 C2478 1.374 . S
C2478 H2452 0.950 . S
C2478 C2474 1.385 . S
C2478 C2477 1.374 . S
C2479 C2476 1.499 . S
C2479 C2480 1.373 . S
C2479 C2481 1.389 . S
C2480 H2453 0.950 . S
C2480 C2466 1.377 . S
C2480 C2479 1.373 . S
C2481 C2465 1.377 . S
C2481 C2479 1.389 . S
C2481 C2482 1.524 . S
C2482 C2481 1.524 . S
C2482 C2483 1.397 . S
C2482 C2487 1.363 . S
C2483 H2454 0.950 . S
C2483 C2482 1.397 . S
C2483 C2484 1.334 . S
C2484 H2455 0.950 . S
C2484 C2483 1.334 . S
C2484 C2485 1.287 . S
C2485 C2484 1.287 . S
C2485 C2486 1.524 . S
C2485 H2488 0.999 . S
C2486 H2456 0.950 . S
C2486 C2485 1.524 . S
C2486 C2487 1.415 . S
C2487 H2457 0.950 . S
C2487 C2482 1.363 . S
C2487 C2486 1.415 . S
H2488 C2485 0.999 . S
H2489 C2470 0.913 . S
H2490 C2508 0.951 . S
H2491 C2510 0.951 . S
H2492 C2512 0.950 . S
H2493 C2513 0.950 . S
H2494 C2515 0.975 . S
H2495 C2518 0.950 1_545 S
H2496 C2519 0.950 . S
H2497 C2521 0.950 . S
H2498 C2522 0.950 . S
H2499 C2523 0.951 . S
H2500 C2525 0.951 . S
H2501 C2527 0.950 . S
H2502 C2528 0.950 . S
H2503 C2530 0.950 . S
H2504 C2533 0.950 . S
H2505 C2534 0.950 . S
H2506 C2536 0.950 . S
H2507 C2537 0.950 . S
C2508 H2490 0.951 . S
C2508 C2509 1.366 . S
C2508 C2510 1.388 . S
C2509 C2508 1.366 . S
C2509 C2513 1.385 . S
C2510 H2491 0.951 . S
C2510 C2508 1.388 . S
C2510 C2511 1.366 . S
C2511 C2510 1.366 . S
C2511 C2512 1.414 . S
C2511 C2514 1.499 1_545 S
C2512 H2492 0.950 . S
C2512 C2511 1.414 . S
C2512 C2513 1.374 . S
C2513 H2493 0.950 . S
C2513 C2509 1.385 . S
C2513 C2512 1.374 . S
C2514 C2511 1.499 1_565 S
C2514 C2515 1.373 . S
C2514 C2516 1.389 . S
C2515 H2494 0.975 . S
C2515 C2514 1.373 . S
C2515 C2531 1.377 . S
C2516 C2514 1.389 . S
C2516 C2517 1.524 . S
C2516 C2530 1.377 . S
C2517 C2516 1.524 . S
C2517 C2518 1.397 . S
C2517 C2522 1.363 . S
C2518 H2495 0.950 1_565 S
C2518 C2517 1.397 . S
C2518 C2519 1.334 1_565 S
C2519 H2496 0.950 . S
C2519 C2518 1.334 1_545 S
C2519 C2520 1.287 1_545 S
C2520 C2519 1.287 1_565 S
C2520 C2521 1.524 . S
C2520 H2539 0.913 . S
C2521 H2497 0.950 . S
C2521 C2520 1.524 . S
C2521 C2522 1.415 . S
C2522 H2498 0.950 . S
C2522 C2517 1.363 . S
C2522 C2521 1.415 . S
C2523 H2499 0.951 . S
C2523 C2524 1.366 . S
C2523 C2525 1.388 . S
C2524 C2523 1.366 . S
C2524 C2528 1.385 . S
C2525 H2500 0.951 . S
C2525 C2523 1.388 . S
C2525 C2526 1.366 . S
C2526 C2525 1.366 . S
C2526 C2527 1.414 . S
C2526 C2529 1.499 . S
C2527 H2501 0.950 . S
C2527 C2526 1.414 . S
C2527 C2528 1.374 . S
C2528 H2502 0.950 . S
C2528 C2524 1.385 . S
C2528 C2527 1.374 . S
C2529 C2526 1.499 . S
C2529 C2530 1.373 . S
C2529 C2531 1.389 . S
C2530 H2503 0.950 . S
C2530 C2516 1.377 . S
C2530 C2529 1.373 . S
C2531 C2515 1.377 . S
C2531 C2529 1.389 . S
C2531 C2532 1.524 . S
C2532 C2531 1.524 . S
C2532 C2533 1.397 . S
C2532 C2537 1.363 . S
C2533 H2504 0.950 . S
C2533 C2532 1.397 . S
C2533 C2534 1.334 . S
C2534 H2505 0.950 . S
C2534 C2533 1.334 . S
C2534 C2535 1.287 . S
C2535 C2534 1.287 . S
C2535 C2536 1.524 . S
C2535 H2538 0.999 . S
C2536 H2506 0.950 . S
C2536 C2535 1.524 . S
C2536 C2537 1.415 . S
C2537 H2507 0.950 . S
C2537 C2532 1.363 . S
C2537 C2536 1.415 . S
H2538 C2535 0.999 . S
H2539 C2520 0.913 . S
H2540 C2558 0.951 . S
H2541 C2560 0.951 1_455 S
H2542 C2562 0.950 . S
H2543 C2563 0.950 . S
H2544 C2565 0.950 . S
H2545 C2568 0.950 . S
H2546 C2569 0.950 . S
H2547 C2571 0.950 . S
H2548 C2572 0.950 . S
H2549 C2573 0.951 . S
H2550 C2575 0.951 . S
H2551 C2577 0.950 . S
H2552 C2578 0.950 . S
H2553 C2580 0.950 . S
H2554 C2583 0.950 . S
H2555 C2584 0.950 . S
H2556 C2586 0.950 . S
H2557 C2587 0.950 . S
C2558 H2540 0.951 . S
C2558 C2559 1.366 . S
C2558 C2560 1.388 . S
C2559 C2558 1.366 . S
C2559 C2563 1.385 . S
C2560 H2541 0.951 1_655 S
C2560 C2558 1.388 . S
C2560 C2561 1.366 1_655 S
C2561 C2560 1.366 1_455 S
C2561 C2562 1.414 1_455 S
C2561 C2564 1.499 . S
C2562 H2542 0.950 . S
C2562 C2561 1.414 1_655 S
C2562 C2563 1.374 . S
C2563 H2543 0.950 . S
C2563 C2559 1.385 . S
C2563 C2562 1.374 . S
C2564 C2561 1.499 . S
C2564 C2565 1.373 . S
C2564 C2566 1.389 . S
C2565 H2544 0.950 . S
C2565 C2564 1.373 . S
C2565 C2581 1.377 . S
C2566 C2564 1.389 . S
C2566 C2567 1.524 . S
C2566 C2580 1.377 . S
C2567 C2566 1.524 . S
C2567 C2568 1.397 . S
C2567 C2572 1.363 . S
C2568 H2545 0.950 . S
C2568 C2567 1.397 . S
C2568 C2569 1.334 . S
C2569 H2546 0.950 . S
C2569 C2568 1.334 . S
C2569 C2570 1.287 . S
C2570 C2569 1.287 . S
C2570 C2571 1.524 . S
C2570 H2589 0.913 . S
C2571 H2547 0.950 . S
C2571 C2570 1.524 . S
C2571 C2572 1.415 . S
C2572 H2548 0.950 . S
C2572 C2567 1.363 . S
C2572 C2571 1.415 . S
C2573 H2549 0.951 . S
C2573 C2574 1.366 . S
C2573 C2575 1.388 . S
C2574 C2573 1.366 . S
C2574 C2578 1.385 . S
C2575 H2550 0.951 . S
C2575 C2573 1.388 . S
C2575 C2576 1.366 . S
C2576 C2575 1.366 . S
C2576 C2577 1.414 . S
C2576 C2579 1.499 . S
C2577 H2551 0.950 . S
C2577 C2576 1.414 . S
C2577 C2578 1.374 . S
C2578 H2552 0.950 . S
C2578 C2574 1.385 . S
C2578 C2577 1.374 . S
C2579 C2576 1.499 . S
C2579 C2580 1.373 . S
C2579 C2581 1.389 . S
C2580 H2553 0.950 . S
C2580 C2566 1.377 . S
C2580 C2579 1.373 . S
C2581 C2565 1.377 . S
C2581 C2579 1.389 . S
C2581 C2582 1.524 . S
C2582 C2581 1.524 . S
C2582 C2583 1.397 . S
C2582 C2587 1.363 . S
C2583 H2554 0.950 . S
C2583 C2582 1.397 . S
C2583 C2584 1.334 . S
C2584 H2555 0.950 . S
C2584 C2583 1.334 . S
C2584 C2585 1.287 . S
C2585 C2584 1.287 . S
C2585 C2586 1.524 . S
C2585 H2588 0.999 . S
C2586 H2556 0.950 . S
C2586 C2585 1.524 . S
C2586 C2587 1.415 . S
C2587 H2557 0.950 . S
C2587 C2582 1.363 . S
C2587 C2586 1.415 . S
H2588 C2585 0.999 . S
H2589 C2570 0.913 . S
H2590 C2608 0.951 . S
H2591 C2610 0.951 . S
H2592 C2612 0.950 . S
H2593 C2613 0.950 . S
H2594 C2615 0.950 . S
H2595 C2618 0.950 . S
H2596 C2619 0.950 . S
H2597 C2621 0.950 . S
H2598 C2622 0.950 . S
H2599 C2623 0.951 . S
H2600 C2625 0.951 . S
H2601 C2627 0.950 . S
H2602 C2628 0.950 . S
H2603 C2630 0.950 . S
H2604 C2633 0.950 . S
H2605 C2634 0.950 . S
H2606 C2636 0.950 . S
H2607 C2637 0.950 . S
C2608 H2590 0.951 . S
C2608 C2609 1.366 . S
C2608 C2610 1.388 . S
C2609 C2608 1.366 . S
C2609 C2613 1.385 . S
C2610 H2591 0.951 . S
C2610 C2608 1.388 . S
C2610 C2611 1.366 . S
C2611 C2610 1.366 . S
C2611 C2612 1.414 . S
C2611 C2614 1.499 . S
C2612 H2592 0.950 . S
C2612 C2611 1.414 . S
C2612 C2613 1.374 . S
C2613 H2593 0.950 . S
C2613 C2609 1.385 . S
C2613 C2612 1.374 . S
C2614 C2611 1.499 . S
C2614 C2615 1.373 . S
C2614 C2616 1.389 . S
C2615 H2594 0.950 . S
C2615 C2614 1.373 . S
C2615 C2631 1.377 . S
C2616 C2614 1.389 . S
C2616 C2617 1.524 . S
C2616 C2630 1.377 . S
C2617 C2616 1.524 . S
C2617 C2618 1.397 . S
C2617 C2622 1.363 . S
C2618 H2595 0.950 . S
C2618 C2617 1.397 . S
C2618 C2619 1.334 . S
C2619 H2596 0.950 . S
C2619 C2618 1.334 . S
C2619 C2620 1.287 . S
C2620 C2619 1.287 . S
C2620 C2621 1.524 . S
C2620 H2639 0.913 . S
C2621 H2597 0.950 . S
C2621 C2620 1.524 . S
C2621 C2622 1.415 . S
C2622 H2598 0.950 . S
C2622 C2617 1.363 . S
C2622 C2621 1.415 . S
C2623 H2599 0.951 . S
C2623 C2624 1.366 . S
C2623 C2625 1.388 . S
C2624 C2623 1.366 . S
C2624 C2628 1.385 . S
C2625 H2600 0.951 . S
C2625 C2623 1.388 . S
C2625 C2626 1.366 . S
C2626 C2625 1.366 . S
C2626 C2627 1.414 . S
C2626 C2629 1.499 . S
C2627 H2601 0.950 . S
C2627 C2626 1.414 . S
C2627 C2628 1.374 . S
C2628 H2602 0.950 . S
C2628 C2624 1.385 . S
C2628 C2627 1.374 . S
C2629 C2626 1.499 . S
C2629 C2630 1.373 . S
C2629 C2631 1.389 . S
C2630 H2603 0.950 . S
C2630 C2616 1.377 . S
C2630 C2629 1.373 . S
C2631 C2615 1.377 . S
C2631 C2629 1.389 . S
C2631 C2632 1.524 . S
C2632 C2631 1.524 . S
C2632 C2633 1.397 . S
C2632 C2637 1.363 . S
C2633 H2604 0.950 . S
C2633 C2632 1.397 . S
C2633 C2634 1.334 . S
C2634 H2605 0.950 . S
C2634 C2633 1.334 . S
C2634 C2635 1.287 . S
C2635 C2634 1.287 . S
C2635 C2636 1.524 . S
C2635 H2638 0.999 . S
C2636 H2606 0.950 . S
C2636 C2635 1.524 . S
C2636 C2637 1.415 . S
C2637 H2607 0.950 . S
C2637 C2632 1.363 . S
C2637 C2636 1.415 . S
H2638 C2635 0.999 . S
H2639 C2620 0.913 . S
H2640 C2658 0.951 . S
H2641 C2660 0.951 . S
H2642 C2662 0.950 . S
H2643 C2663 0.950 . S
H2644 C2665 0.950 . S
H2645 C2668 0.950 . S
H2646 C2669 0.950 . S
H2647 C2671 0.950 . S
H2648 C2672 0.950 . S
H2649 C2673 0.951 . S
H2650 C2675 0.951 . S
H2651 C2677 0.950 . S
H2652 C2678 0.950 . S
H2653 C2680 0.950 . S
H2654 C2683 0.950 . S
H2655 C2684 0.950 . S
H2656 C2686 0.950 . S
H2657 C2687 0.950 . S
C2658 H2640 0.951 . S
C2658 C2659 1.366 . S
C2658 C2660 1.388 . S
C2659 C2658 1.366 . S
C2659 C2663 1.385 . S
C2660 H2641 0.951 . S
C2660 C2658 1.388 . S
C2660 C2661 1.366 . S
C2661 C2660 1.366 . S
C2661 C2662 1.414 . S
C2661 C2664 1.499 . S
C2662 H2642 0.950 . S
C2662 C2661 1.414 . S
C2662 C2663 1.374 . S
C2663 H2643 0.950 . S
C2663 C2659 1.385 . S
C2663 C2662 1.374 . S
C2664 C2661 1.499 . S
C2664 C2665 1.373 . S
C2664 C2666 1.389 . S
C2665 H2644 0.950 . S
C2665 C2664 1.373 . S
C2665 C2681 1.377 . S
C2666 C2664 1.389 . S
C2666 C2667 1.524 . S
C2666 C2680 1.377 . S
C2667 C2666 1.524 . S
C2667 C2668 1.397 . S
C2667 C2672 1.363 . S
C2668 H2645 0.950 . S
C2668 C2667 1.397 . S
C2668 C2669 1.334 . S
C2669 H2646 0.950 . S
C2669 C2668 1.334 . S
C2669 C2670 1.287 . S
C2670 C2669 1.287 . S
C2670 C2671 1.524 . S
C2670 H2689 0.913 . S
C2671 H2647 0.950 . S
C2671 C2670 1.524 . S
C2671 C2672 1.415 . S
C2672 H2648 0.950 . S
C2672 C2667 1.363 . S
C2672 C2671 1.415 . S
C2673 H2649 0.951 . S
C2673 C2674 1.366 . S
C2673 C2675 1.388 . S
C2674 C2673 1.366 . S
C2674 C2678 1.385 . S
C2675 H2650 0.951 . S
C2675 C2673 1.388 . S
C2675 C2676 1.366 . S
C2676 C2675 1.366 . S
C2676 C2677 1.414 . S
C2676 C2679 1.499 . S
C2677 H2651 0.950 . S
C2677 C2676 1.414 . S
C2677 C2678 1.374 . S
C2678 H2652 0.950 . S
C2678 C2674 1.385 . S
C2678 C2677 1.374 . S
C2679 C2676 1.499 . S
C2679 C2680 1.373 . S
C2679 C2681 1.389 . S
C2680 H2653 0.950 . S
C2680 C2666 1.377 . S
C2680 C2679 1.373 . S
C2681 C2665 1.377 . S
C2681 C2679 1.389 . S
C2681 C2682 1.524 . S
C2682 C2681 1.524 . S
C2682 C2683 1.397 . S
C2682 C2687 1.363 . S
C2683 H2654 0.950 . S
C2683 C2682 1.397 . S
C2683 C2684 1.334 . S
C2684 H2655 0.950 . S
C2684 C2683 1.334 . S
C2684 C2685 1.287 . S
C2685 C2684 1.287 . S
C2685 C2686 1.524 . S
C2685 H2688 0.999 . S
C2686 H2656 0.950 . S
C2686 C2685 1.524 . S
C2686 C2687 1.415 . S
C2687 H2657 0.950 . S
C2687 C2682 1.363 . S
C2687 C2686 1.415 . S
H2688 C2685 0.999 . S
H2689 C2670 0.913 . S
H2690 C2708 0.951 . S
H2691 C2710 0.951 . S
H2692 C2712 0.950 . S
H2693 C2713 0.950 . S
H2694 C2715 0.950 . S
H2695 C2718 0.950 . S
H2696 C2719 0.950 . S
H2697 C2721 0.950 . S
H2698 C2722 0.950 . S
H2699 C2723 0.951 . S
H2700 C2725 0.951 . S
H2701 C2727 0.950 . S
H2702 C2728 0.950 . S
H2703 C2730 0.950 . S
H2704 C2733 0.950 . S
H2705 C2734 0.950 . S
H2706 C2736 0.950 . S
H2707 C2737 0.950 . S
C2708 H2690 0.951 . S
C2708 C2709 1.366 . S
C2708 C2710 1.388 . S
C2709 C2708 1.366 . S
C2709 C2713 1.385 . S
C2710 H2691 0.951 . S
C2710 C2708 1.388 . S
C2710 C2711 1.366 . S
C2711 C2710 1.366 . S
C2711 C2712 1.414 . S
C2711 C2714 1.499 . S
C2712 H2692 0.950 . S
C2712 C2711 1.414 . S
C2712 C2713 1.374 . S
C2713 H2693 0.950 . S
C2713 C2709 1.385 . S
C2713 C2712 1.374 . S
C2714 C2711 1.499 . S
C2714 C2715 1.373 . S
C2714 C2716 1.389 . S
C2715 H2694 0.950 . S
C2715 C2714 1.373 . S
C2715 C2731 1.377 . S
C2716 C2714 1.389 . S
C2716 C2717 1.524 . S
C2716 C2730 1.377 . S
C2717 C2716 1.524 . S
C2717 C2718 1.397 . S
C2717 C2722 1.363 . S
C2718 H2695 0.950 . S
C2718 C2717 1.397 . S
C2718 C2719 1.334 . S
C2719 H2696 0.950 . S
C2719 C2718 1.334 . S
C2719 C2720 1.287 . S
C2720 C2719 1.287 . S
C2720 C2721 1.524 . S
C2720 H2739 0.913 . S
C2721 H2697 0.950 . S
C2721 C2720 1.524 . S
C2721 C2722 1.415 . S
C2722 H2698 0.950 . S
C2722 C2717 1.363 . S
C2722 C2721 1.415 . S
C2723 H2699 0.951 . S
C2723 C2724 1.366 . S
C2723 C2725 1.388 . S
C2724 C2723 1.366 . S
C2724 C2728 1.385 . S
C2725 H2700 0.951 . S
C2725 C2723 1.388 . S
C2725 C2726 1.366 . S
C2726 C2725 1.366 . S
C2726 C2727 1.414 . S
C2726 C2729 1.499 . S
C2727 H2701 0.950 . S
C2727 C2726 1.414 . S
C2727 C2728 1.374 . S
C2728 H2702 0.950 . S
C2728 C2724 1.385 . S
C2728 C2727 1.374 . S
C2729 C2726 1.499 . S
C2729 C2730 1.373 . S
C2729 C2731 1.389 . S
C2730 H2703 0.950 . S
C2730 C2716 1.377 . S
C2730 C2729 1.373 . S
C2731 C2715 1.377 . S
C2731 C2729 1.389 . S
C2731 C2732 1.524 . S
C2732 C2731 1.524 . S
C2732 C2733 1.397 . S
C2732 C2737 1.363 . S
C2733 H2704 0.950 . S
C2733 C2732 1.397 . S
C2733 C2734 1.334 . S
C2734 H2705 0.950 . S
C2734 C2733 1.334 . S
C2734 C2735 1.287 . S
C2735 C2734 1.287 . S
C2735 C2736 1.524 . S
C2735 H2738 0.999 . S
C2736 H2706 0.950 . S
C2736 C2735 1.524 . S
C2736 C2737 1.415 . S
C2737 H2707 0.950 . S
C2737 C2732 1.363 . S
C2737 C2736 1.415 . S
H2738 C2735 0.999 . S
H2739 C2720 0.913 . S
H2740 C2758 0.951 . S
H2741 C2760 0.951 . S
H2742 C2762 0.950 . S
H2743 C2763 0.950 . S
H2744 C2765 0.950 . S
H2745 C2768 0.950 . S
H2746 C2769 0.950 . S
H2747 C2771 0.950 . S
H2748 C2772 0.950 . S
H2749 C2773 0.951 . S
H2750 C2775 0.951 . S
H2751 C2777 0.950 . S
H2752 C2778 0.950 . S
H2753 C2780 0.950 . S
H2754 C2783 0.950 . S
H2755 C2784 0.950 . S
H2756 C2786 0.950 . S
H2757 C2787 0.950 . S
C2758 H2740 0.951 . S
C2758 C2759 1.366 . S
C2758 C2760 1.388 . S
C2759 C2758 1.366 . S
C2759 C2763 1.385 . S
C2760 H2741 0.951 . S
C2760 C2758 1.388 . S
C2760 C2761 1.366 . S
C2761 C2760 1.366 . S
C2761 C2762 1.414 . S
C2761 C2764 1.499 . S
C2762 H2742 0.950 . S
C2762 C2761 1.414 . S
C2762 C2763 1.374 . S
C2763 H2743 0.950 . S
C2763 C2759 1.385 . S
C2763 C2762 1.374 . S
C2764 C2761 1.499 . S
C2764 C2765 1.373 . S
C2764 C2766 1.389 . S
C2765 H2744 0.950 . S
C2765 C2764 1.373 . S
C2765 C2781 1.377 . S
C2766 C2764 1.389 . S
C2766 C2767 1.524 . S
C2766 C2780 1.377 . S
C2767 C2766 1.524 . S
C2767 C2768 1.397 . S
C2767 C2772 1.363 . S
C2768 H2745 0.950 . S
C2768 C2767 1.397 . S
C2768 C2769 1.334 . S
C2769 H2746 0.950 . S
C2769 C2768 1.334 . S
C2769 C2770 1.287 . S
C2770 C2769 1.287 . S
C2770 C2771 1.524 . S
C2770 H2789 0.913 . S
C2771 H2747 0.950 . S
C2771 C2770 1.524 . S
C2771 C2772 1.415 . S
C2772 H2748 0.950 . S
C2772 C2767 1.363 . S
C2772 C2771 1.415 . S
C2773 H2749 0.951 . S
C2773 C2774 1.366 . S
C2773 C2775 1.388 . S
C2774 C2773 1.366 . S
C2774 C2778 1.385 . S
C2775 H2750 0.951 . S
C2775 C2773 1.388 . S
C2775 C2776 1.366 . S
C2776 C2775 1.366 . S
C2776 C2777 1.414 . S
C2776 C2779 1.499 . S
C2777 H2751 0.950 . S
C2777 C2776 1.414 . S
C2777 C2778 1.374 . S
C2778 H2752 0.950 . S
C2778 C2774 1.385 . S
C2778 C2777 1.374 . S
C2779 C2776 1.499 . S
C2779 C2780 1.373 . S
C2779 C2781 1.389 . S
C2780 H2753 0.950 . S
C2780 C2766 1.377 . S
C2780 C2779 1.373 . S
C2781 C2765 1.377 . S
C2781 C2779 1.389 . S
C2781 C2782 1.524 . S
C2782 C2781 1.524 . S
C2782 C2783 1.397 . S
C2782 C2787 1.363 . S
C2783 H2754 0.950 . S
C2783 C2782 1.397 . S
C2783 C2784 1.334 . S
C2784 H2755 0.950 . S
C2784 C2783 1.334 . S
C2784 C2785 1.287 . S
C2785 C2784 1.287 . S
C2785 C2786 1.524 . S
C2785 H2788 0.999 . S
C2786 H2756 0.950 . S
C2786 C2785 1.524 . S
C2786 C2787 1.415 . S
C2787 H2757 0.950 . S
C2787 C2782 1.363 . S
C2787 C2786 1.415 . S
H2788 C2785 0.999 . S
H2789 C2770 0.913 . S
H2790 C2808 0.951 . S
H2791 C2810 0.951 . S
H2792 C2812 0.950 . S
H2793 C2813 0.950 . S
H2794 C2815 0.950 . S
H2795 C2818 0.950 . S
H2796 C2819 0.950 . S
H2797 C2821 0.950 . S
H2798 C2822 0.950 . S
H2799 C2823 0.951 . S
H2800 C2825 0.951 . S
H2801 C2827 0.950 . S
H2802 C2828 0.950 . S
H2803 C2830 0.950 . S
H2804 C2833 0.950 . S
H2805 C2834 0.950 . S
H2806 C2836 0.950 . S
H2807 C2837 0.950 . S
C2808 H2790 0.951 . S
C2808 C2809 1.366 . S
C2808 C2810 1.388 . S
C2809 C2808 1.366 . S
C2809 C2813 1.385 . S
C2810 H2791 0.951 . S
C2810 C2808 1.388 . S
C2810 C2811 1.366 . S
C2811 C2810 1.366 . S
C2811 C2812 1.414 . S
C2811 C2814 1.499 1_565 S
C2812 H2792 0.950 . S
C2812 C2811 1.414 . S
C2812 C2813 1.374 . S
C2813 H2793 0.950 . S
C2813 C2809 1.385 . S
C2813 C2812 1.374 . S
C2814 C2811 1.499 1_545 S
C2814 C2815 1.373 . S
C2814 C2816 1.389 . S
C2815 H2794 0.950 . S
C2815 C2814 1.373 . S
C2815 C2831 1.377 . S
C2816 C2814 1.389 . S
C2816 C2817 1.524 1_545 S
C2816 C2830 1.377 . S
C2817 C2816 1.524 1_565 S
C2817 C2818 1.397 . S
C2817 C2822 1.362 1_565 S
C2818 H2795 0.950 . S
C2818 C2817 1.397 . S
C2818 C2819 1.334 . S
C2819 H2796 0.950 . S
C2819 C2818 1.334 . S
C2819 C2820 1.287 . S
C2820 C2819 1.287 . S
C2820 C2821 1.524 . S
C2820 H2839 0.913 . S
C2821 H2797 0.950 . S
C2821 C2820 1.524 . S
C2821 C2822 1.417 1_565 S
C2822 H2798 0.950 . S
C2822 C2817 1.362 1_545 S
C2822 C2821 1.417 1_545 S
C2823 H2799 0.951 . S
C2823 C2824 1.366 . S
C2823 C2825 1.388 . S
C2824 C2823 1.366 . S
C2824 C2828 1.385 . S
C2825 H2800 0.951 . S
C2825 C2823 1.388 . S
C2825 C2826 1.366 . S
C2826 C2825 1.366 . S
C2826 C2827 1.414 . S
C2826 C2829 1.499 . S
C2827 H2801 0.950 . S
C2827 C2826 1.414 . S
C2827 C2828 1.374 . S
C2828 H2802 0.950 . S
C2828 C2824 1.385 . S
C2828 C2827 1.374 . S
C2829 C2826 1.499 . S
C2829 C2830 1.373 . S
C2829 C2831 1.389 . S
C2830 H2803 0.950 . S
C2830 C2816 1.377 . S
C2830 C2829 1.373 . S
C2831 C2815 1.377 . S
C2831 C2829 1.389 . S
C2831 C2832 1.524 . S
C2832 C2831 1.524 . S
C2832 C2833 1.397 . S
C2832 C2837 1.363 . S
C2833 H2804 0.950 . S
C2833 C2832 1.397 . S
C2833 C2834 1.334 . S
C2834 H2805 0.950 . S
C2834 C2833 1.334 . S
C2834 C2835 1.287 . S
C2835 C2834 1.287 . S
C2835 C2836 1.524 . S
C2835 H2838 0.999 . S
C2836 H2806 0.950 . S
C2836 C2835 1.524 . S
C2836 C2837 1.415 . S
C2837 H2807 0.950 . S
C2837 C2832 1.363 . S
C2837 C2836 1.415 . S
H2838 C2835 0.999 . S
H2839 C2820 0.913 . S
H2840 C2858 0.951 . S
H2841 C2860 0.951 . S
H2842 C2862 0.905 1_655 S
H2843 C2863 0.950 . S
H2844 C2865 0.950 . S
H2845 C2868 0.950 . S
H2846 C2869 0.950 . S
H2847 C2871 0.950 . S
H2848 C2872 0.950 . S
H2849 C2873 0.951 . S
H2850 C2875 0.951 . S
H2851 C2877 0.950 . S
H2852 C2878 0.950 . S
H2853 C2880 0.950 . S
H2854 C2883 0.950 . S
H2855 C2884 0.950 . S
H2856 C2886 0.950 . S
H2857 C2887 0.950 . S
C2858 H2840 0.951 . S
C2858 C2859 1.366 . S
C2858 C2860 1.388 . S
C2859 C2858 1.366 . S
C2859 C2863 1.385 . S
C2860 H2841 0.951 . S
C2860 C2858 1.388 . S
C2860 C2861 1.366 1_455 S
C2861 C2860 1.366 1_655 S
C2861 C2862 1.419 1_655 S
C2861 C2864 1.499 . S
C2862 H2842 0.905 1_455 S
C2862 C2861 1.419 1_455 S
C2862 C2863 1.416 . S
C2863 H2843 0.950 . S
C2863 C2859 1.385 . S
C2863 C2862 1.416 . S
C2864 C2861 1.499 . S
C2864 C2865 1.373 . S
C2864 C2866 1.389 . S
C2865 H2844 0.950 . S
C2865 C2864 1.373 . S
C2865 C2881 1.377 . S
C2866 C2864 1.389 . S
C2866 C2867 1.524 . S
C2866 C2880 1.377 . S
C2867 C2866 1.524 . S
C2867 C2868 1.397 . S
C2867 C2872 1.363 . S
C2868 H2845 0.950 . S
C2868 C2867 1.397 . S
C2868 C2869 1.334 . S
C2869 H2846 0.950 . S
C2869 C2868 1.334 . S
C2869 C2870 1.287 . S
C2870 C2869 1.287 . S
C2870 C2871 1.524 . S
C2870 H2889 0.913 . S
C2871 H2847 0.950 . S
C2871 C2870 1.524 . S
C2871 C2872 1.415 . S
C2872 H2848 0.950 . S
C2872 C2867 1.363 . S
C2872 C2871 1.415 . S
C2873 H2849 0.951 . S
C2873 C2874 1.366 . S
C2873 C2875 1.388 . S
C2874 C2873 1.366 . S
C2874 C2878 1.385 . S
C2875 H2850 0.951 . S
C2875 C2873 1.388 . S
C2875 C2876 1.366 . S
C2876 C2875 1.366 . S
C2876 C2877 1.414 . S
C2876 C2879 1.499 . S
C2877 H2851 0.950 . S
C2877 C2876 1.414 . S
C2877 C2878 1.374 . S
C2878 H2852 0.950 . S
C2878 C2874 1.385 . S
C2878 C2877 1.374 . S
C2879 C2876 1.499 . S
C2879 C2880 1.373 . S
C2879 C2881 1.389 . S
C2880 H2853 0.950 . S
C2880 C2866 1.377 . S
C2880 C2879 1.373 . S
C2881 C2865 1.377 . S
C2881 C2879 1.389 . S
C2881 C2882 1.524 . S
C2882 C2881 1.524 . S
C2882 C2883 1.397 . S
C2882 C2887 1.363 . S
C2883 H2854 0.950 . S
C2883 C2882 1.397 . S
C2883 C2884 1.334 . S
C2884 H2855 0.950 . S
C2884 C2883 1.334 . S
C2884 C2885 1.287 . S
C2885 C2884 1.287 . S
C2885 C2886 1.524 . S
C2885 H2888 0.999 . S
C2886 H2856 0.950 . S
C2886 C2885 1.524 . S
C2886 C2887 1.415 . S
C2887 H2857 0.950 . S
C2887 C2882 1.363 . S
C2887 C2886 1.415 . S
H2888 C2885 0.999 . S
H2889 C2870 0.913 . S
H2890 C2908 0.951 . S
H2891 C2910 0.951 . S
H2892 C2912 0.950 . S
H2893 C2913 0.950 . S
H2894 C2915 0.950 . S
H2895 C2918 0.950 . S
H2896 C2919 0.950 . S
H2897 C2921 0.950 . S
H2898 C2922 0.950 . S
H2899 C2923 0.951 . S
H2900 C2925 0.951 . S
H2901 C2927 0.950 . S
H2902 C2928 0.950 . S
H2903 C2930 0.950 . S
H2904 C2933 0.950 . S
H2905 C2934 0.950 . S
H2906 C2936 0.950 . S
H2907 C2937 0.950 . S
C2908 H2890 0.951 . S
C2908 C2909 1.366 . S
C2908 C2910 1.388 . S
C2909 C2908 1.366 . S
C2909 C2913 1.385 . S
C2910 H2891 0.951 . S
C2910 C2908 1.388 . S
C2910 C2911 1.366 . S
C2911 C2910 1.366 . S
C2911 C2912 1.414 . S
C2911 C2914 1.499 . S
C2912 H2892 0.950 . S
C2912 C2911 1.414 . S
C2912 C2913 1.374 . S
C2913 H2893 0.950 . S
C2913 C2909 1.385 . S
C2913 C2912 1.374 . S
C2914 C2911 1.499 . S
C2914 C2915 1.373 . S
C2914 C2916 1.389 . S
C2915 H2894 0.950 . S
C2915 C2914 1.373 . S
C2915 C2931 1.377 . S
C2916 C2914 1.389 . S
C2916 C2917 1.524 . S
C2916 C2930 1.377 . S
C2917 C2916 1.524 . S
C2917 C2918 1.397 . S
C2917 C2922 1.363 . S
C2918 H2895 0.950 . S
C2918 C2917 1.397 . S
C2918 C2919 1.334 . S
C2919 H2896 0.950 . S
C2919 C2918 1.334 . S
C2919 C2920 1.287 . S
C2920 C2919 1.287 . S
C2920 C2921 1.524 . S
C2920 H2939 0.913 . S
C2921 H2897 0.950 . S
C2921 C2920 1.524 . S
C2921 C2922 1.415 . S
C2922 H2898 0.950 . S
C2922 C2917 1.363 . S
C2922 C2921 1.415 . S
C2923 H2899 0.951 . S
C2923 C2924 1.366 . S
C2923 C2925 1.388 . S
C2924 C2923 1.366 . S
C2924 C2928 1.385 . S
C2925 H2900 0.951 . S
C2925 C2923 1.388 . S
C2925 C2926 1.366 . S
C2926 C2925 1.366 . S
C2926 C2927 1.414 . S
C2926 C2929 1.499 . S
C2927 H2901 0.950 . S
C2927 C2926 1.414 . S
C2927 C2928 1.374 . S
C2928 H2902 0.950 . S
C2928 C2924 1.385 . S
C2928 C2927 1.374 . S
C2929 C2926 1.499 . S
C2929 C2930 1.373 . S
C2929 C2931 1.389 . S
C2930 H2903 0.950 . S
C2930 C2916 1.377 . S
C2930 C2929 1.373 . S
C2931 C2915 1.377 . S
C2931 C2929 1.389 . S
C2931 C2932 1.524 . S
C2932 C2931 1.524 . S
C2932 C2933 1.397 . S
C2932 C2937 1.363 . S
C2933 H2904 0.950 . S
C2933 C2932 1.397 . S
C2933 C2934 1.334 . S
C2934 H2905 0.950 . S
C2934 C2933 1.334 . S
C2934 C2935 1.287 . S
C2935 C2934 1.287 . S
C2935 C2936 1.524 . S
C2935 H2938 0.999 . S
C2936 H2906 0.950 . S
C2936 C2935 1.524 . S
C2936 C2937 1.415 . S
C2937 H2907 0.950 . S
C2937 C2932 1.363 . S
C2937 C2936 1.415 . S
H2938 C2935 0.999 . S
H2939 C2920 0.913 . S
H2940 C2958 0.951 . S
H2941 C2960 0.951 . S
H2942 C2962 0.950 . S
H2943 C2963 0.950 . S
H2944 C2965 0.950 . S
H2945 C2968 0.950 . S
H2946 C2969 0.950 . S
H2947 C2971 0.950 . S
H2948 C2972 0.950 . S
H2949 C2973 0.951 . S
H2950 C2975 0.951 . S
H2951 C2977 0.950 . S
H2952 C2978 0.950 . S
H2953 C2980 0.950 . S
H2954 C2983 0.950 . S
H2955 C2984 0.950 . S
H2956 C2986 0.950 . S
H2957 C2987 0.950 . S
C2958 H2940 0.951 . S
C2958 C2959 1.366 . S
C2958 C2960 1.388 . S
C2959 C2958 1.366 . S
C2959 C2963 1.385 . S
C2960 H2941 0.951 . S
C2960 C2958 1.388 . S
C2960 C2961 1.366 . S
C2961 C2960 1.366 . S
C2961 C2962 1.414 . S
C2961 C2964 1.499 1_455 S
C2962 H2942 0.950 . S
C2962 C2961 1.414 . S
C2962 C2963 1.374 . S
C2963 H2943 0.950 . S
C2963 C2959 1.385 . S
C2963 C2962 1.374 . S
C2964 C2961 1.499 1_655 S
C2964 C2965 1.373 . S
C2964 C2966 1.389 . S
C2965 H2944 0.950 . S
C2965 C2964 1.373 . S
C2965 C2981 1.377 . S
C2966 C2964 1.389 . S
C2966 C2967 1.524 . S
C2966 C2980 1.377 . S
C2967 C2966 1.524 . S
C2967 C2968 1.397 1_655 S
C2967 C2972 1.363 . S
C2968 H2945 0.950 . S
C2968 C2967 1.397 1_455 S
C2968 C2969 1.334 . S
C2969 H2946 0.950 . S
C2969 C2968 1.334 . S
C2969 C2970 1.287 . S
C2970 C2969 1.287 . S
C2970 C2971 1.524 1_455 S
C2970 H2989 0.913 . S
C2971 H2947 0.950 . S
C2971 C2970 1.524 1_655 S
C2971 C2972 1.415 . S
C2972 H2948 0.950 . S
C2972 C2967 1.363 . S
C2972 C2971 1.415 . S
C2973 H2949 0.951 . S
C2973 C2974 1.366 . S
C2973 C2975 1.388 . S
C2974 C2973 1.366 . S
C2974 C2978 1.385 . S
C2975 H2950 0.951 . S
C2975 C2973 1.388 . S
C2975 C2976 1.366 . S
C2976 C2975 1.366 . S
C2976 C2977 1.414 . S
C2976 C2979 1.499 . S
C2977 H2951 0.950 . S
C2977 C2976 1.414 . S
C2977 C2978 1.374 . S
C2978 H2952 0.950 . S
C2978 C2974 1.385 . S
C2978 C2977 1.374 . S
C2979 C2976 1.499 . S
C2979 C2980 1.373 . S
C2979 C2981 1.389 . S
C2980 H2953 0.950 . S
C2980 C2966 1.377 . S
C2980 C2979 1.373 . S
C2981 C2965 1.377 . S
C2981 C2979 1.389 . S
C2981 C2982 1.524 . S
C2982 C2981 1.524 . S
C2982 C2983 1.397 . S
C2982 C2987 1.363 . S
C2983 H2954 0.950 . S
C2983 C2982 1.397 . S
C2983 C2984 1.334 . S
C2984 H2955 0.950 . S
C2984 C2983 1.334 . S
C2984 C2985 1.287 . S
C2985 C2984 1.287 . S
C2985 C2986 1.524 . S
C2985 H2988 0.999 . S
C2986 H2956 0.950 . S
C2986 C2985 1.524 . S
C2986 C2987 1.415 . S
C2987 H2957 0.950 . S
C2987 C2982 1.363 . S
C2987 C2986 1.415 . S
H2988 C2985 0.999 . S
H2989 C2970 0.913 . S
H2990 C3008 0.951 . S
H2991 C3010 0.951 . S
H2992 C3012 0.950 . S
H2993 C3013 0.950 . S
H2994 C3015 0.950 . S
H2995 C3018 0.950 . S
H2996 C3019 0.950 . S
H2997 C3021 0.950 . S
H2998 C3022 0.950 . S
H2999 C3023 0.951 . S
H3000 C3025 0.951 . S
H3001 C3027 0.950 . S
H3002 C3028 0.950 . S
H3003 C3030 0.950 . S
H3004 C3033 0.950 . S
H3005 C3034 0.950 . S
H3006 C3036 0.950 . S
H3007 C3037 0.950 . S
C3008 H2990 0.951 . S
C3008 C3009 1.366 . S
C3008 C3010 1.388 . S
C3009 C3008 1.366 . S
C3009 C3013 1.385 . S
C3010 H2991 0.951 . S
C3010 C3008 1.388 . S
C3010 C3011 1.366 . S
C3011 C3010 1.366 . S
C3011 C3012 1.414 . S
C3011 C3014 1.499 . S
C3012 H2992 0.950 . S
C3012 C3011 1.414 . S
C3012 C3013 1.374 . S
C3013 H2993 0.950 . S
C3013 C3009 1.385 . S
C3013 C3012 1.374 . S
C3014 C3011 1.499 . S
C3014 C3015 1.373 . S
C3014 C3016 1.389 . S
C3015 H2994 0.950 . S
C3015 C3014 1.373 . S
C3015 C3031 1.377 . S
C3016 C3014 1.389 . S
C3016 C3017 1.524 . S
C3016 C3030 1.377 . S
C3017 C3016 1.524 . S
C3017 C3018 1.397 . S
C3017 C3022 1.363 . S
C3018 H2995 0.950 . S
C3018 C3017 1.397 . S
C3018 C3019 1.334 . S
C3019 H2996 0.950 . S
C3019 C3018 1.334 . S
C3019 C3020 1.287 . S
C3020 C3019 1.287 . S
C3020 C3021 1.524 . S
C3020 H3039 0.913 . S
C3021 H2997 0.950 . S
C3021 C3020 1.524 . S
C3021 C3022 1.415 . S
C3022 H2998 0.950 . S
C3022 C3017 1.363 . S
C3022 C3021 1.415 . S
C3023 H2999 0.951 . S
C3023 C3024 1.366 . S
C3023 C3025 1.388 . S
C3024 C3023 1.366 . S
C3024 C3028 1.385 . S
C3025 H3000 0.951 . S
C3025 C3023 1.388 . S
C3025 C3026 1.366 . S
C3026 C3025 1.366 . S
C3026 C3027 1.414 . S
C3026 C3029 1.499 . S
C3027 H3001 0.950 . S
C3027 C3026 1.414 . S
C3027 C3028 1.374 . S
C3028 H3002 0.950 . S
C3028 C3024 1.385 . S
C3028 C3027 1.374 . S
C3029 C3026 1.499 . S
C3029 C3030 1.373 . S
C3029 C3031 1.389 . S
C3030 H3003 0.950 . S
C3030 C3016 1.377 . S
C3030 C3029 1.373 . S
C3031 C3015 1.377 . S
C3031 C3029 1.389 . S
C3031 C3032 1.524 . S
C3032 C3031 1.524 . S
C3032 C3033 1.397 . S
C3032 C3037 1.363 . S
C3033 H3004 0.950 . S
C3033 C3032 1.397 . S
C3033 C3034 1.334 . S
C3034 H3005 0.950 . S
C3034 C3033 1.334 . S
C3034 C3035 1.287 . S
C3035 C3034 1.287 . S
C3035 C3036 1.524 . S
C3035 H3038 0.999 . S
C3036 H3006 0.950 . S
C3036 C3035 1.524 . S
C3036 C3037 1.415 . S
C3037 H3007 0.950 . S
C3037 C3032 1.363 . S
C3037 C3036 1.415 . S
H3038 C3035 0.999 . S
H3039 C3020 0.913 . S
H3040 C3058 0.951 . S
H3041 C3060 0.951 . S
H3042 C3062 0.950 . S
H3043 C3063 0.950 . S
H3044 C3065 0.950 1_565 S
H3045 C3068 0.950 . S
H3046 C3069 0.950 . S
H3047 C3071 0.950 . S
H3048 C3072 0.950 . S
H3049 C3073 0.951 . S
H3050 C3075 0.951 . S
H3051 C3077 0.950 . S
H3052 C3078 0.950 . S
H3053 C3080 0.950 . S
H3054 C3083 0.950 . S
H3055 C3084 0.950 . S
H3056 C3086 0.950 . S
H3057 C3087 0.950 . S
C3058 H3040 0.951 . S
C3058 C3059 1.366 . S
C3058 C3060 1.388 . S
C3059 C3058 1.366 . S
C3059 C3063 1.385 . S
C3060 H3041 0.951 . S
C3060 C3058 1.388 . S
C3060 C3061 1.366 . S
C3061 C3060 1.366 . S
C3061 C3062 1.414 . S
C3061 C3064 1.499 . S
C3062 H3042 0.950 . S
C3062 C3061 1.414 . S
C3062 C3063 1.374 . S
C3063 H3043 0.950 . S
C3063 C3059 1.385 . S
C3063 C3062 1.374 . S
C3064 C3061 1.499 . S
C3064 C3065 1.373 1_565 S
C3064 C3066 1.389 1_565 S
C3065 H3044 0.950 1_545 S
C3065 C3064 1.373 1_545 S
C3065 C3081 1.377 . S
C3066 C3064 1.389 1_545 S
C3066 C3067 1.524 . S
C3066 C3080 1.377 . S
C3067 C3066 1.524 . S
C3067 C3068 1.397 1_545 S
C3067 C3072 1.363 . S
C3068 H3045 0.950 . S
C3068 C3067 1.397 1_565 S
C3068 C3069 1.334 . S
C3069 H3046 0.950 . S
C3069 C3068 1.334 . S
C3069 C3070 1.287 . S
C3070 C3069 1.287 . S
C3070 C3071 1.524 1_565 S
C3070 H3089 0.913 . S
C3071 H3047 0.950 . S
C3071 C3070 1.524 1_545 S
C3071 C3072 1.415 . S
C3072 H3048 0.950 . S
C3072 C3067 1.363 . S
C3072 C3071 1.415 . S
C3073 H3049 0.951 . S
C3073 C3074 1.366 . S
C3073 C3075 1.388 . S
C3074 C3073 1.366 . S
C3074 C3078 1.385 . S
C3075 H3050 0.951 . S
C3075 C3073 1.388 . S
C3075 C3076 1.366 . S
C3076 C3075 1.366 . S
C3076 C3077 1.414 . S
C3076 C3079 1.499 . S
C3077 H3051 0.950 . S
C3077 C3076 1.414 . S
C3077 C3078 1.374 . S
C3078 H3052 0.950 . S
C3078 C3074 1.385 . S
C3078 C3077 1.374 . S
C3079 C3076 1.499 . S
C3079 C3080 1.373 . S
C3079 C3081 1.389 . S
C3080 H3053 0.950 . S
C3080 C3066 1.377 . S
C3080 C3079 1.373 . S
C3081 C3065 1.377 . S
C3081 C3079 1.389 . S
C3081 C3082 1.524 . S
C3082 C3081 1.524 . S
C3082 C3083 1.397 . S
C3082 C3087 1.363 . S
C3083 H3054 0.950 . S
C3083 C3082 1.397 . S
C3083 C3084 1.334 . S
C3084 H3055 0.950 . S
C3084 C3083 1.334 . S
C3084 C3085 1.287 . S
C3085 C3084 1.287 . S
C3085 C3086 1.524 . S
C3085 H3088 0.999 . S
C3086 H3056 0.950 . S
C3086 C3085 1.524 . S
C3086 C3087 1.415 . S
C3087 H3057 0.950 . S
C3087 C3082 1.363 . S
C3087 C3086 1.415 . S
H3088 C3085 0.999 . S
H3089 C3070 0.913 . S
H3090 C3108 0.951 . S
H3091 C3110 0.951 . S
H3092 C3112 0.950 . S
H3093 C3113 0.950 . S
H3094 C3115 0.950 . S
H3095 C3118 0.950 . S
H3096 C3119 0.950 . S
H3097 C3121 0.950 . S
H3098 C3122 0.950 . S
H3099 C3123 0.951 . S
H3100 C3125 0.951 . S
H3101 C3127 0.950 . S
H3102 C3128 0.950 . S
H3103 C3130 0.950 . S
H3104 C3133 0.950 . S
H3105 C3134 0.950 . S
H3106 C3136 0.950 . S
H3107 C3137 0.950 . S
C3108 H3090 0.951 . S
C3108 C3109 1.366 . S
C3108 C3110 1.388 . S
C3109 C3108 1.366 . S
C3109 C3113 1.385 . S
C3110 H3091 0.951 . S
C3110 C3108 1.388 . S
C3110 C3111 1.366 . S
C3111 C3110 1.366 . S
C3111 C3112 1.414 . S
C3111 C3114 1.499 . S
C3112 H3092 0.950 . S
C3112 C3111 1.414 . S
C3112 C3113 1.374 . S
C3113 H3093 0.950 . S
C3113 C3109 1.385 . S
C3113 C3112 1.374 . S
C3114 C3111 1.499 . S
C3114 C3115 1.373 . S
C3114 C3116 1.389 . S
C3115 H3094 0.950 . S
C3115 C3114 1.373 . S
C3115 C3131 1.377 . S
C3116 C3114 1.389 . S
C3116 C3117 1.524 . S
C3116 C3130 1.377 . S
C3117 C3116 1.524 . S
C3117 C3118 1.397 . S
C3117 C3122 1.363 . S
C3118 H3095 0.950 . S
C3118 C3117 1.397 . S
C3118 C3119 1.334 . S
C3119 H3096 0.950 . S
C3119 C3118 1.334 . S
C3119 C3120 1.287 . S
C3120 C3119 1.287 . S
C3120 C3121 1.524 . S
C3120 H3139 0.913 . S
C3121 H3097 0.950 . S
C3121 C3120 1.524 . S
C3121 C3122 1.415 . S
C3122 H3098 0.950 . S
C3122 C3117 1.363 . S
C3122 C3121 1.415 . S
C3123 H3099 0.951 . S
C3123 C3124 1.366 . S
C3123 C3125 1.388 . S
C3124 C3123 1.366 . S
C3124 C3128 1.385 . S
C3125 H3100 0.951 . S
C3125 C3123 1.388 . S
C3125 C3126 1.366 . S
C3126 C3125 1.366 . S
C3126 C3127 1.414 . S
C3126 C3129 1.499 . S
C3127 H3101 0.950 . S
C3127 C3126 1.414 . S
C3127 C3128 1.374 . S
C3128 H3102 0.950 . S
C3128 C3124 1.385 . S
C3128 C3127 1.374 . S
C3129 C3126 1.499 . S
C3129 C3130 1.373 . S
C3129 C3131 1.389 . S
C3130 H3103 0.950 . S
C3130 C3116 1.377 . S
C3130 C3129 1.373 . S
C3131 C3115 1.377 . S
C3131 C3129 1.389 . S
C3131 C3132 1.524 . S
C3132 C3131 1.524 . S
C3132 C3133 1.397 . S
C3132 C3137 1.363 . S
C3133 H3104 0.950 . S
C3133 C3132 1.397 . S
C3133 C3134 1.334 . S
C3134 H3105 0.950 . S
C3134 C3133 1.334 . S
C3134 C3135 1.287 . S
C3135 C3134 1.287 . S
C3135 C3136 1.524 . S
C3135 H3138 0.999 . S
C3136 H3106 0.950 . S
C3136 C3135 1.524 . S
C3136 C3137 1.415 . S
C3137 H3107 0.950 . S
C3137 C3132 1.363 . S
C3137 C3136 1.415 . S
H3138 C3135 0.999 . S
H3139 C3120 0.913 . S
H3140 C3158 0.951 . S
H3141 C3160 0.951 . S
H3142 C3162 0.950 . S
H3143 C3163 0.950 . S
H3144 C3165 0.950 . S
H3145 C3168 0.950 . S
H3146 C3169 0.950 . S
H3147 C3171 0.950 . S
H3148 C3172 0.950 . S
H3149 C3173 0.951 . S
H3150 C3175 0.951 . S
H3151 C3177 0.950 . S
H3152 C3178 0.950 . S
H3153 C3180 0.950 . S
H3154 C3183 0.950 . S
H3155 C3184 0.950 . S
H3156 C3186 0.950 . S
H3157 C3187 0.950 . S
C3158 H3140 0.951 . S
C3158 C3159 1.366 . S
C3158 C3160 1.388 . S
C3159 C3158 1.366 . S
C3159 C3163 1.385 . S
C3160 H3141 0.951 . S
C3160 C3158 1.388 . S
C3160 C3161 1.366 . S
C3161 C3160 1.366 . S
C3161 C3162 1.414 . S
C3161 C3164 1.499 . S
C3162 H3142 0.950 . S
C3162 C3161 1.414 . S
C3162 C3163 1.374 . S
C3163 H3143 0.950 . S
C3163 C3159 1.385 . S
C3163 C3162 1.374 . S
C3164 C3161 1.499 . S
C3164 C3165 1.373 . S
C3164 C3166 1.389 . S
C3165 H3144 0.950 . S
C3165 C3164 1.373 . S
C3165 C3181 1.377 . S
C3166 C3164 1.389 . S
C3166 C3167 1.524 . S
C3166 C3180 1.377 . S
C3167 C3166 1.524 . S
C3167 C3168 1.397 . S
C3167 C3172 1.363 . S
C3168 H3145 0.950 . S
C3168 C3167 1.397 . S
C3168 C3169 1.334 . S
C3169 H3146 0.950 . S
C3169 C3168 1.334 . S
C3169 C3170 1.287 . S
C3170 C3169 1.287 . S
C3170 C3171 1.524 . S
C3170 H3189 0.913 . S
C3171 H3147 0.950 . S
C3171 C3170 1.524 . S
C3171 C3172 1.415 . S
C3172 H3148 0.950 . S
C3172 C3167 1.363 . S
C3172 C3171 1.415 . S
C3173 H3149 0.951 . S
C3173 C3174 1.366 . S
C3173 C3175 1.388 . S
C3174 C3173 1.366 . S
C3174 C3178 1.385 . S
C3175 H3150 0.951 . S
C3175 C3173 1.388 . S
C3175 C3176 1.366 . S
C3176 C3175 1.366 . S
C3176 C3177 1.414 . S
C3176 C3179 1.499 . S
C3177 H3151 0.950 . S
C3177 C3176 1.414 . S
C3177 C3178 1.374 . S
C3178 H3152 0.950 . S
C3178 C3174 1.385 . S
C3178 C3177 1.374 . S
C3179 C3176 1.499 . S
C3179 C3180 1.373 . S
C3179 C3181 1.389 . S
C3180 H3153 0.950 . S
C3180 C3166 1.377 . S
C3180 C3179 1.373 . S
C3181 C3165 1.377 . S
C3181 C3179 1.389 . S
C3181 C3182 1.524 . S
C3182 C3181 1.524 . S
C3182 C3183 1.397 . S
C3182 C3187 1.363 . S
C3183 H3154 0.950 . S
C3183 C3182 1.397 . S
C3183 C3184 1.334 . S
C3184 H3155 0.950 . S
C3184 C3183 1.334 . S
C3184 C3185 1.287 . S
C3185 C3184 1.287 . S
C3185 C3186 1.524 . S
C3185 H3188 0.999 . S
C3186 H3156 0.950 . S
C3186 C3185 1.524 . S
C3186 C3187 1.415 . S
C3187 H3157 0.950 . S
C3187 C3182 1.363 . S
C3187 C3186 1.415 . S
H3188 C3185 0.999 . S
H3189 C3170 0.913 . S
H3190 C3208 0.951 . S
H3191 C3210 0.951 . S
H3192 C3212 0.950 . S
H3193 C3213 0.950 . S
H3194 C3215 0.950 . S
H3195 C3218 0.950 . S
H3196 C3219 0.950 . S
H3197 C3221 0.950 . S
H3198 C3222 0.950 . S
H3199 C3223 0.951 . S
H3200 C3225 0.951 . S
H3201 C3227 0.950 . S
H3202 C3228 0.950 . S
H3203 C3230 0.950 . S
H3204 C3233 0.950 . S
H3205 C3234 0.950 . S
H3206 C3236 0.950 . S
H3207 C3237 0.950 . S
C3208 H3190 0.951 . S
C3208 C3209 1.366 . S
C3208 C3210 1.388 . S
C3209 C3208 1.366 . S
C3209 C3213 1.385 . S
C3210 H3191 0.951 . S
C3210 C3208 1.388 . S
C3210 C3211 1.366 . S
C3211 C3210 1.366 . S
C3211 C3212 1.414 . S
C3211 C3214 1.499 . S
C3212 H3192 0.950 . S
C3212 C3211 1.414 . S
C3212 C3213 1.374 . S
C3213 H3193 0.950 . S
C3213 C3209 1.385 . S
C3213 C3212 1.374 . S
C3214 C3211 1.499 . S
C3214 C3215 1.373 . S
C3214 C3216 1.389 . S
C3215 H3194 0.950 . S
C3215 C3214 1.373 . S
C3215 C3231 1.377 . S
C3216 C3214 1.389 . S
C3216 C3217 1.524 . S
C3216 C3230 1.377 . S
C3217 C3216 1.524 . S
C3217 C3218 1.397 . S
C3217 C3222 1.363 . S
C3218 H3195 0.950 . S
C3218 C3217 1.397 . S
C3218 C3219 1.334 . S
C3219 H3196 0.950 . S
C3219 C3218 1.334 . S
C3219 C3220 1.287 . S
C3220 C3219 1.287 . S
C3220 C3221 1.524 . S
C3220 H3239 0.913 . S
C3221 H3197 0.950 . S
C3221 C3220 1.524 . S
C3221 C3222 1.415 . S
C3222 H3198 0.950 . S
C3222 C3217 1.363 . S
C3222 C3221 1.415 . S
C3223 H3199 0.951 . S
C3223 C3224 1.366 . S
C3223 C3225 1.388 . S
C3224 C3223 1.366 . S
C3224 C3228 1.385 . S
C3225 H3200 0.951 . S
C3225 C3223 1.388 . S
C3225 C3226 1.366 . S
C3226 C3225 1.366 . S
C3226 C3227 1.414 . S
C3226 C3229 1.499 . S
C3227 H3201 0.950 . S
C3227 C3226 1.414 . S
C3227 C3228 1.374 . S
C3228 H3202 0.950 . S
C3228 C3224 1.385 . S
C3228 C3227 1.374 . S
C3229 C3226 1.499 . S
C3229 C3230 1.373 . S
C3229 C3231 1.389 . S
C3230 H3203 0.950 . S
C3230 C3216 1.377 . S
C3230 C3229 1.373 . S
C3231 C3215 1.377 . S
C3231 C3229 1.389 . S
C3231 C3232 1.524 . S
C3232 C3231 1.524 . S
C3232 C3233 1.397 . S
C3232 C3237 1.363 . S
C3233 H3204 0.950 . S
C3233 C3232 1.397 . S
C3233 C3234 1.334 . S
C3234 H3205 0.950 . S
C3234 C3233 1.334 . S
C3234 C3235 1.287 . S
C3235 C3234 1.287 . S
C3235 C3236 1.524 . S
C3235 H3238 0.999 . S
C3236 H3206 0.950 . S
C3236 C3235 1.524 . S
C3236 C3237 1.415 . S
C3237 H3207 0.950 . S
C3237 C3232 1.363 . S
C3237 C3236 1.415 . S
H3238 C3235 0.999 . S
H3239 C3220 0.913 . S
H3240 C3258 0.951 . S
H3241 C3260 0.951 . S
H3242 C3262 0.950 . S
H3243 C3263 0.950 . S
H3244 C3265 0.950 . S
H3245 C3268 0.950 . S
H3246 C3269 0.950 . S
H3247 C3271 0.950 . S
H3248 C3272 0.950 . S
H3249 C3273 0.951 . S
H3250 C3275 0.951 . S
H3251 C3277 0.950 . S
H3252 C3278 0.950 . S
H3253 C3280 0.950 1_545 S
H3254 C3283 0.950 . S
H3255 C3284 0.950 . S
H3256 C3286 0.950 . S
H3257 C3287 0.950 . S
C3258 H3240 0.951 . S
C3258 C3259 1.366 . S
C3258 C3260 1.388 . S
C3259 C3258 1.366 . S
C3259 C3263 1.385 . S
C3260 H3241 0.951 . S
C3260 C3258 1.388 . S
C3260 C3261 1.366 . S
C3261 C3260 1.366 . S
C3261 C3262 1.414 . S
C3261 C3264 1.499 . S
C3262 H3242 0.950 . S
C3262 C3261 1.414 . S
C3262 C3263 1.374 . S
C3263 H3243 0.950 . S
C3263 C3259 1.385 . S
C3263 C3262 1.374 . S
C3264 C3261 1.499 . S
C3264 C3265 1.373 . S
C3264 C3266 1.389 . S
C3265 H3244 0.950 . S
C3265 C3264 1.373 . S
C3265 C3281 1.377 . S
C3266 C3264 1.389 . S
C3266 C3267 1.524 1_565 S
C3266 C3280 1.377 . S
C3267 C3266 1.524 1_545 S
C3267 C3268 1.397 . S
C3267 C3272 1.363 . S
C3268 H3245 0.950 . S
C3268 C3267 1.397 . S
C3268 C3269 1.334 . S
C3269 H3246 0.950 . S
C3269 C3268 1.334 . S
C3269 C3270 1.287 . S
C3270 C3269 1.287 . S
C3270 C3271 1.524 . S
C3270 H3289 0.913 . S
C3271 H3247 0.950 . S
C3271 C3270 1.524 . S
C3271 C3272 1.415 . S
C3272 H3248 0.950 . S
C3272 C3267 1.363 . S
C3272 C3271 1.415 . S
C3273 H3249 0.951 . S
C3273 C3274 1.366 . S
C3273 C3275 1.388 . S
C3274 C3273 1.366 . S
C3274 C3278 1.385 . S
C3275 H3250 0.951 . S
C3275 C3273 1.388 . S
C3275 C3276 1.366 . S
C3276 C3275 1.366 . S
C3276 C3277 1.414 . S
C3276 C3279 1.499 . S
C3277 H3251 0.950 . S
C3277 C3276 1.414 . S
C3277 C3278 1.374 . S
C3278 H3252 0.950 . S
C3278 C3274 1.385 . S
C3278 C3277 1.374 . S
C3279 C3276 1.499 . S
C3279 C3280 1.373 . S
C3279 C3281 1.389 . S
C3280 H3253 0.950 1_565 S
C3280 C3266 1.377 . S
C3280 C3279 1.373 . S
C3281 C3265 1.377 . S
C3281 C3279 1.389 . S
C3281 C3282 1.524 . S
C3282 C3281 1.524 . S
C3282 C3283 1.397 . S
C3282 C3287 1.363 . S
C3283 H3254 0.950 . S
C3283 C3282 1.397 . S
C3283 C3284 1.334 . S
C3284 H3255 0.950 . S
C3284 C3283 1.334 . S
C3284 C3285 1.287 . S
C3285 C3284 1.287 . S
C3285 C3286 1.524 . S
C3285 H3288 0.999 . S
C3286 H3256 0.950 . S
C3286 C3285 1.524 . S
C3286 C3287 1.415 . S
C3287 H3257 0.950 . S
C3287 C3282 1.363 . S
C3287 C3286 1.415 . S
H3288 C3285 0.999 . S
H3289 C3270 0.913 . S
H3290 C3308 0.951 . S
H3291 C3310 0.951 . S
H3292 C3312 0.950 . S
H3293 C3313 0.950 . S
H3294 C3315 0.949 1_655 S
H3295 C3318 0.950 . S
H3296 C3319 0.950 . S
H3297 C3321 0.950 . S
H3298 C3322 0.950 . S
H3299 C3323 0.951 . S
H3300 C3325 0.951 . S
H3301 C3327 0.950 . S
H3302 C3328 0.950 . S
H3303 C3330 0.950 . S
H3304 C3333 0.950 . S
H3305 C3334 0.950 1_455 S
H3306 C3336 0.950 . S
H3307 C3337 0.950 . S
C3308 H3290 0.951 . S
C3308 C3309 1.366 . S
C3308 C3310 1.388 . S
C3309 C3308 1.366 . S
C3309 C3313 1.385 1_455 S
C3310 H3291 0.951 . S
C3310 C3308 1.388 . S
C3310 C3311 1.366 . S
C3311 C3310 1.366 . S
C3311 C3312 1.414 1_455 S
C3311 C3314 1.499 . S
C3312 H3292 0.950 . S
C3312 C3311 1.414 1_655 S
C3312 C3313 1.374 . S
C3313 H3293 0.950 . S
C3313 C3309 1.385 1_655 S
C3313 C3312 1.374 . S
C3314 C3311 1.499 . S
C3314 C3315 1.373 . S
C3314 C3316 1.389 . S
C3315 H3294 0.949 1_455 S
C3315 C3314 1.373 . S
C3315 C3331 1.378 . S
C3316 C3314 1.389 . S
C3316 C3317 1.524 . S
C3316 C3330 1.377 . S
C3317 C3316 1.524 . S
C3317 C3318 1.397 . S
C3317 C3322 1.363 . S
C3318 H3295 0.950 . S
C3318 C3317 1.397 . S
C3318 C3319 1.334 . S
C3319 H3296 0.950 . S
C3319 C3318 1.334 . S
C3319 C3320 1.287 . S
C3320 C3319 1.287 . S
C3320 C3321 1.524 . S
C3320 H3339 0.913 . S
C3321 H3297 0.950 . S
C3321 C3320 1.524 . S
C3321 C3322 1.415 . S
C3322 H3298 0.950 . S
C3322 C3317 1.363 . S
C3322 C3321 1.415 . S
C3323 H3299 0.951 . S
C3323 C3324 1.366 1_655 S
C3323 C3325 1.388 . S
C3324 C3323 1.366 1_455 S
C3324 C3328 1.385 . S
C3325 H3300 0.951 . S
C3325 C3323 1.388 . S
C3325 C3326 1.366 1_655 S
C3326 C3325 1.366 1_455 S
C3326 C3327 1.414 . S
C3326 C3329 1.499 . S
C3327 H3301 0.950 . S
C3327 C3326 1.414 . S
C3327 C3328 1.374 . S
C3328 H3302 0.950 . S
C3328 C3324 1.385 . S
C3328 C3327 1.374 . S
C3329 C3326 1.499 . S
C3329 C3330 1.373 . S
C3329 C3331 1.389 . S
C3330 H3303 0.950 . S
C3330 C3316 1.377 . S
C3330 C3329 1.373 . S
C3331 C3315 1.378 . S
C3331 C3329 1.389 . S
C3331 C3332 1.524 1_455 S
C3332 C3331 1.524 1_655 S
C3332 C3333 1.397 1_655 S
C3332 C3337 1.363 . S
C3333 H3304 0.950 . S
C3333 C3332 1.397 1_455 S
C3333 C3334 1.334 1_455 S
C3334 H3305 0.950 1_655 S
C3334 C3333 1.334 1_655 S
C3334 C3335 1.287 . S
C3335 C3334 1.287 . S
C3335 C3336 1.524 . S
C3335 H3338 0.999 . S
C3336 H3306 0.950 . S
C3336 C3335 1.524 . S
C3336 C3337 1.415 . S
C3337 H3307 0.950 . S
C3337 C3332 1.363 . S
C3337 C3336 1.415 . S
H3338 C3335 0.999 . S
H3339 C3320 0.913 . S
H3340 C3358 0.951 . S
H3341 C3360 0.951 . S
H3342 C3362 0.950 . S
H3343 C3363 0.950 . S
H3344 C3365 0.950 . S
H3345 C3368 0.950 . S
H3346 C3369 0.950 . S
H3347 C3371 0.950 . S
H3348 C3372 0.950 . S
H3349 C3373 0.951 . S
H3350 C3375 0.951 . S
H3351 C3377 0.950 . S
H3352 C3378 0.950 . S
H3353 C3380 0.950 . S
H3354 C3383 0.950 . S
H3355 C3384 0.950 . S
H3356 C3386 0.950 . S
H3357 C3387 0.950 . S
C3358 H3340 0.951 . S
C3358 C3359 1.366 . S
C3358 C3360 1.388 . S
C3359 C3358 1.366 . S
C3359 C3363 1.385 . S
C3360 H3341 0.951 . S
C3360 C3358 1.388 . S
C3360 C3361 1.366 . S
C3361 C3360 1.366 . S
C3361 C3362 1.414 . S
C3361 C3364 1.499 . S
C3362 H3342 0.950 . S
C3362 C3361 1.414 . S
C3362 C3363 1.374 . S
C3363 H3343 0.950 . S
C3363 C3359 1.385 . S
C3363 C3362 1.374 . S
C3364 C3361 1.499 . S
C3364 C3365 1.373 . S
C3364 C3366 1.389 . S
C3365 H3344 0.950 . S
C3365 C3364 1.373 . S
C3365 C3381 1.377 . S
C3366 C3364 1.389 . S
C3366 C3367 1.524 . S
C3366 C3380 1.377 . S
C3367 C3366 1.524 . S
C3367 C3368 1.397 . S
C3367 C3372 1.363 . S
C3368 H3345 0.950 . S
C3368 C3367 1.397 . S
C3368 C3369 1.334 . S
C3369 H3346 0.950 . S
C3369 C3368 1.334 . S
C3369 C3370 1.287 . S
C3370 C3369 1.287 . S
C3370 C3371 1.524 . S
C3370 H3389 0.913 . S
C3371 H3347 0.950 . S
C3371 C3370 1.524 . S
C3371 C3372 1.415 . S
C3372 H3348 0.950 . S
C3372 C3367 1.363 . S
C3372 C3371 1.415 . S
C3373 H3349 0.951 . S
C3373 C3374 1.366 . S
C3373 C3375 1.388 . S
C3374 C3373 1.366 . S
C3374 C3378 1.385 . S
C3375 H3350 0.951 . S
C3375 C3373 1.388 . S
C3375 C3376 1.366 . S
C3376 C3375 1.366 . S
C3376 C3377 1.414 . S
C3376 C3379 1.499 . S
C3377 H3351 0.950 . S
C3377 C3376 1.414 . S
C3377 C3378 1.374 . S
C3378 H3352 0.950 . S
C3378 C3374 1.385 . S
C3378 C3377 1.374 . S
C3379 C3376 1.499 . S
C3379 C3380 1.373 . S
C3379 C3381 1.389 . S
C3380 H3353 0.950 . S
C3380 C3366 1.377 . S
C3380 C3379 1.373 . S
C3381 C3365 1.377 . S
C3381 C3379 1.389 . S
C3381 C3382 1.524 . S
C3382 C3381 1.524 . S
C3382 C3383 1.397 . S
C3382 C3387 1.363 . S
C3383 H3354 0.950 . S
C3383 C3382 1.397 . S
C3383 C3384 1.334 . S
C3384 H3355 0.950 . S
C3384 C3383 1.334 . S
C3384 C3385 1.287 . S
C3385 C3384 1.287 . S
C3385 C3386 1.524 . S
C3385 H3388 0.999 . S
C3386 H3356 0.950 . S
C3386 C3385 1.524 . S
C3386 C3387 1.415 . S
C3387 H3357 0.950 . S
C3387 C3382 1.363 . S
C3387 C3386 1.415 . S
H3388 C3385 0.999 . S
H3389 C3370 0.913 . S
H3390 C3408 0.951 . S
H3391 C3410 0.951 . S
H3392 C3412 0.950 . S
H3393 C3413 0.950 . S
H3394 C3415 0.950 . S
H3395 C3418 0.950 . S
H3396 C3419 0.950 . S
H3397 C3421 0.950 . S
H3398 C3422 0.950 . S
H3399 C3423 0.951 . S
H3400 C3425 0.951 . S
H3401 C3427 0.950 . S
H3402 C3428 0.950 . S
H3403 C3430 0.950 . S
H3404 C3433 0.950 . S
H3405 C3434 0.950 . S
H3406 C3436 0.950 . S
H3407 C3437 0.950 . S
C3408 H3390 0.951 . S
C3408 C3409 1.366 . S
C3408 C3410 1.388 . S
C3409 C3408 1.366 . S
C3409 C3413 1.385 . S
C3410 H3391 0.951 . S
C3410 C3408 1.388 . S
C3410 C3411 1.366 . S
C3411 C3410 1.366 . S
C3411 C3412 1.414 . S
C3411 C3414 1.499 . S
C3412 H3392 0.950 . S
C3412 C3411 1.414 . S
C3412 C3413 1.374 . S
C3413 H3393 0.950 . S
C3413 C3409 1.385 . S
C3413 C3412 1.374 . S
C3414 C3411 1.499 . S
C3414 C3415 1.373 . S
C3414 C3416 1.389 1_655 S
C3415 H3394 0.950 . S
C3415 C3414 1.373 . S
C3415 C3431 1.377 . S
C3416 C3414 1.389 1_455 S
C3416 C3417 1.524 . S
C3416 C3430 1.377 . S
C3417 C3416 1.524 . S
C3417 C3418 1.397 . S
C3417 C3422 1.363 . S
C3418 H3395 0.950 . S
C3418 C3417 1.397 . S
C3418 C3419 1.334 . S
C3419 H3396 0.950 . S
C3419 C3418 1.334 . S
C3419 C3420 1.287 . S
C3420 C3419 1.287 . S
C3420 C3421 1.524 . S
C3420 H3439 0.913 . S
C3421 H3397 0.950 . S
C3421 C3420 1.524 . S
C3421 C3422 1.415 . S
C3422 H3398 0.950 . S
C3422 C3417 1.363 . S
C3422 C3421 1.415 . S
C3423 H3399 0.951 . S
C3423 C3424 1.366 . S
C3423 C3425 1.388 . S
C3424 C3423 1.366 . S
C3424 C3428 1.385 . S
C3425 H3400 0.951 . S
C3425 C3423 1.388 . S
C3425 C3426 1.366 . S
C3426 C3425 1.366 . S
C3426 C3427 1.414 . S
C3426 C3429 1.499 . S
C3427 H3401 0.950 . S
C3427 C3426 1.414 . S
C3427 C3428 1.374 . S
C3428 H3402 0.950 . S
C3428 C3424 1.385 . S
C3428 C3427 1.374 . S
C3429 C3426 1.499 . S
C3429 C3430 1.373 1_655 S
C3429 C3431 1.389 . S
C3430 H3403 0.950 . S
C3430 C3416 1.377 . S
C3430 C3429 1.373 1_455 S
C3431 C3415 1.377 . S
C3431 C3429 1.389 . S
C3431 C3432 1.524 . S
C3432 C3431 1.524 . S
C3432 C3433 1.397 . S
C3432 C3437 1.363 . S
C3433 H3404 0.950 . S
C3433 C3432 1.397 . S
C3433 C3434 1.334 . S
C3434 H3405 0.950 . S
C3434 C3433 1.334 . S
C3434 C3435 1.287 . S
C3435 C3434 1.287 . S
C3435 C3436 1.524 . S
C3435 H3438 0.999 . S
C3436 H3406 0.950 . S
C3436 C3435 1.524 . S
C3436 C3437 1.415 . S
C3437 H3407 0.950 . S
C3437 C3432 1.363 . S
C3437 C3436 1.415 . S
H3438 C3435 0.999 . S
H3439 C3420 0.913 . S
H3440 C3458 0.951 . S
H3441 C3460 0.951 . S
H3442 C3462 0.950 . S
H3443 C3463 0.950 . S
H3444 C3465 0.950 . S
H3445 C3468 0.950 . S
H3446 C3469 0.950 . S
H3447 C3471 0.950 . S
H3448 C3472 0.950 . S
H3449 C3473 0.951 . S
H3450 C3475 0.951 . S
H3451 C3477 0.950 . S
H3452 C3478 0.950 . S
H3453 C3480 0.950 . S
H3454 C3483 0.950 . S
H3455 C3484 0.950 . S
H3456 C3486 0.950 . S
H3457 C3487 0.950 . S
C3458 H3440 0.951 . S
C3458 C3459 1.366 . S
C3458 C3460 1.388 . S
C3459 C3458 1.366 . S
C3459 C3463 1.385 . S
C3460 H3441 0.951 . S
C3460 C3458 1.388 . S
C3460 C3461 1.366 . S
C3461 C3460 1.366 . S
C3461 C3462 1.414 . S
C3461 C3464 1.499 . S
C3462 H3442 0.950 . S
C3462 C3461 1.414 . S
C3462 C3463 1.374 . S
C3463 H3443 0.950 . S
C3463 C3459 1.385 . S
C3463 C3462 1.374 . S
C3464 C3461 1.499 . S
C3464 C3465 1.373 . S
C3464 C3466 1.389 . S
C3465 H3444 0.950 . S
C3465 C3464 1.373 . S
C3465 C3481 1.377 . S
C3466 C3464 1.389 . S
C3466 C3467 1.524 . S
C3466 C3480 1.377 . S
C3467 C3466 1.524 . S
C3467 C3468 1.397 . S
C3467 C3472 1.363 . S
C3468 H3445 0.950 . S
C3468 C3467 1.397 . S
C3468 C3469 1.334 . S
C3469 H3446 0.950 . S
C3469 C3468 1.334 . S
C3469 C3470 1.287 . S
C3470 C3469 1.287 . S
C3470 C3471 1.524 . S
C3470 H3489 0.913 . S
C3471 H3447 0.950 . S
C3471 C3470 1.524 . S
C3471 C3472 1.415 . S
C3472 H3448 0.950 . S
C3472 C3467 1.363 . S
C3472 C3471 1.415 . S
C3473 H3449 0.951 . S
C3473 C3474 1.366 . S
C3473 C3475 1.388 . S
C3474 C3473 1.366 . S
C3474 C3478 1.385 . S
C3475 H3450 0.951 . S
C3475 C3473 1.388 . S
C3475 C3476 1.366 . S
C3476 C3475 1.366 . S
C3476 C3477 1.414 . S
C3476 C3479 1.499 . S
C3477 H3451 0.950 . S
C3477 C3476 1.414 . S
C3477 C3478 1.374 . S
C3478 H3452 0.950 . S
C3478 C3474 1.385 . S
C3478 C3477 1.374 . S
C3479 C3476 1.499 . S
C3479 C3480 1.373 . S
C3479 C3481 1.389 . S
C3480 H3453 0.950 . S
C3480 C3466 1.377 . S
C3480 C3479 1.373 . S
C3481 C3465 1.377 . S
C3481 C3479 1.389 . S
C3481 C3482 1.524 . S
C3482 C3481 1.524 . S
C3482 C3483 1.397 . S
C3482 C3487 1.363 . S
C3483 H3454 0.950 . S
C3483 C3482 1.397 . S
C3483 C3484 1.334 . S
C3484 H3455 0.950 . S
C3484 C3483 1.334 . S
C3484 C3485 1.287 . S
C3485 C3484 1.287 . S
C3485 C3486 1.524 . S
C3485 H3488 0.999 . S
C3486 H3456 0.950 . S
C3486 C3485 1.524 . S
C3486 C3487 1.415 . S
C3487 H3457 0.950 . S
C3487 C3482 1.363 . S
C3487 C3486 1.415 . S
H3488 C3485 0.999 . S
H3489 C3470 0.913 . S
H3490 C3508 0.951 . S
H3491 C3510 0.951 . S
H3492 C3512 0.950 . S
H3493 C3513 0.950 . S
H3494 C3515 0.950 . S
H3495 C3518 0.950 1_545 S
H3496 C3519 0.950 . S
H3497 C3521 0.950 . S
H3498 C3522 0.950 . S
H3499 C3523 0.951 . S
H3500 C3525 0.951 . S
H3501 C3527 0.950 1_565 S
H3502 C3528 0.976 . S
H3503 C3530 0.950 1_565 S
H3504 C3533 0.950 . S
H3505 C3534 0.950 . S
H3506 C3536 0.950 . S
H3507 C3537 0.950 . S
C3508 H3490 0.951 . S
C3508 C3509 1.366 . S
C3508 C3510 1.388 . S
C3509 C3508 1.366 . S
C3509 C3513 1.385 . S
C3510 H3491 0.951 . S
C3510 C3508 1.388 . S
C3510 C3511 1.366 . S
C3511 C3510 1.366 . S
C3511 C3512 1.414 . S
C3511 C3514 1.499 . S
C3512 H3492 0.950 . S
C3512 C3511 1.414 . S
C3512 C3513 1.374 . S
C3513 H3493 0.950 . S
C3513 C3509 1.385 . S
C3513 C3512 1.374 . S
C3514 C3511 1.499 . S
C3514 C3515 1.373 . S
C3514 C3516 1.389 . S
C3515 H3494 0.950 . S
C3515 C3514 1.373 . S
C3515 C3531 1.377 . S
C3516 C3514 1.389 . S
C3516 C3517 1.524 1_545 S
C3516 C3530 1.377 . S
C3517 C3516 1.524 1_565 S
C3517 C3518 1.397 . S
C3517 C3522 1.363 . S
C3518 H3495 0.950 1_565 S
C3518 C3517 1.397 . S
C3518 C3519 1.334 . S
C3519 H3496 0.950 . S
C3519 C3518 1.334 . S
C3519 C3520 1.287 . S
C3520 C3519 1.287 . S
C3520 C3521 1.524 . S
C3520 H3539 0.913 . S
C3521 H3497 0.950 . S
C3521 C3520 1.524 . S
C3521 C3522 1.415 . S
C3522 H3498 0.950 . S
C3522 C3517 1.363 . S
C3522 C3521 1.415 . S
C3523 H3499 0.951 . S
C3523 C3524 1.366 . S
C3523 C3525 1.388 . S
C3524 C3523 1.366 . S
C3524 C3528 1.366 1_545 S
C3525 H3500 0.951 . S
C3525 C3523 1.388 . S
C3525 C3526 1.366 . S
C3526 C3525 1.366 . S
C3526 C3527 1.414 . S
C3526 C3529 1.499 . S
C3527 H3501 0.950 1_545 S
C3527 C3526 1.414 . S
C3527 C3528 1.367 1_545 S
C3528 H3502 0.976 . S
C3528 C3524 1.366 1_565 S
C3528 C3527 1.367 1_565 S
C3529 C3526 1.499 . S
C3529 C3530 1.373 . S
C3529 C3531 1.389 . S
C3530 H3503 0.950 1_545 S
C3530 C3516 1.377 . S
C3530 C3529 1.373 . S
C3531 C3515 1.377 . S
C3531 C3529 1.389 . S
C3531 C3532 1.524 . S
C3532 C3531 1.524 . S
C3532 C3533 1.397 . S
C3532 C3537 1.363 . S
C3533 H3504 0.950 . S
C3533 C3532 1.397 . S
C3533 C3534 1.334 . S
C3534 H3505 0.950 . S
C3534 C3533 1.334 . S
C3534 C3535 1.287 . S
C3535 C3534 1.287 . S
C3535 C3536 1.524 . S
C3535 H3538 0.999 . S
C3536 H3506 0.950 . S
C3536 C3535 1.524 . S
C3536 C3537 1.415 . S
C3537 H3507 0.950 . S
C3537 C3532 1.363 . S
C3537 C3536 1.415 . S
H3538 C3535 0.999 . S
H3539 C3520 0.913 . S
H3540 C3558 0.951 . S
H3541 C3560 0.951 . S
H3542 C3562 0.950 . S
H3543 C3563 0.950 . S
H3544 C3565 0.950 . S
H3545 C3568 0.950 . S
H3546 C3569 0.950 . S
H3547 C3571 0.950 . S
H3548 C3572 0.950 . S
H3549 C3573 0.951 . S
H3550 C3575 0.951 . S
H3551 C3577 0.950 . S
H3552 C3578 0.950 . S
H3553 C3580 0.950 . S
H3554 C3583 0.950 . S
H3555 C3584 0.950 . S
H3556 C3586 0.950 . S
H3557 C3587 0.950 . S
C3558 H3540 0.951 . S
C3558 C3559 1.366 . S
C3558 C3560 1.388 . S
C3559 C3558 1.366 . S
C3559 C3563 1.385 . S
C3560 H3541 0.951 . S
C3560 C3558 1.388 . S
C3560 C3561 1.366 . S
C3561 C3560 1.366 . S
C3561 C3562 1.414 . S
C3561 C3564 1.499 . S
C3562 H3542 0.950 . S
C3562 C3561 1.414 . S
C3562 C3563 1.374 . S
C3563 H3543 0.950 . S
C3563 C3559 1.385 . S
C3563 C3562 1.374 . S
C3564 C3561 1.499 . S
C3564 C3565 1.373 . S
C3564 C3566 1.389 . S
C3565 H3544 0.950 . S
C3565 C3564 1.373 . S
C3565 C3581 1.377 . S
C3566 C3564 1.389 . S
C3566 C3567 1.524 . S
C3566 C3580 1.377 . S
C3567 C3566 1.524 . S
C3567 C3568 1.397 . S
C3567 C3572 1.363 . S
C3568 H3545 0.950 . S
C3568 C3567 1.397 . S
C3568 C3569 1.334 . S
C3569 H3546 0.950 . S
C3569 C3568 1.334 . S
C3569 C3570 1.287 . S
C3570 C3569 1.287 . S
C3570 C3571 1.524 . S
C3570 H3589 0.913 . S
C3571 H3547 0.950 . S
C3571 C3570 1.524 . S
C3571 C3572 1.415 . S
C3572 H3548 0.950 . S
C3572 C3567 1.363 . S
C3572 C3571 1.415 . S
C3573 H3549 0.951 . S
C3573 C3574 1.366 . S
C3573 C3575 1.388 . S
C3574 C3573 1.366 . S
C3574 C3578 1.385 . S
C3575 H3550 0.951 . S
C3575 C3573 1.388 . S
C3575 C3576 1.366 . S
C3576 C3575 1.366 . S
C3576 C3577 1.414 . S
C3576 C3579 1.499 . S
C3577 H3551 0.950 . S
C3577 C3576 1.414 . S
C3577 C3578 1.374 . S
C3578 H3552 0.950 . S
C3578 C3574 1.385 . S
C3578 C3577 1.374 . S
C3579 C3576 1.499 . S
C3579 C3580 1.373 . S
C3579 C3581 1.389 . S
C3580 H3553 0.950 . S
C3580 C3566 1.377 . S
C3580 C3579 1.373 . S
C3581 C3565 1.377 . S
C3581 C3579 1.389 . S
C3581 C3582 1.524 . S
C3582 C3581 1.524 . S
C3582 C3583 1.397 . S
C3582 C3587 1.363 . S
C3583 H3554 0.950 . S
C3583 C3582 1.397 . S
C3583 C3584 1.334 . S
C3584 H3555 0.950 . S
C3584 C3583 1.334 . S
C3584 C3585 1.287 . S
C3585 C3584 1.287 . S
C3585 C3586 1.524 . S
C3585 H3588 0.999 . S
C3586 H3556 0.950 . S
C3586 C3585 1.524 . S
C3586 C3587 1.415 . S
C3587 H3557 0.950 . S
C3587 C3582 1.363 . S
C3587 C3586 1.415 . S
H3588 C3585 0.999 . S
H3589 C3570 0.913 . S
H3590 C3608 0.951 . S
H3591 C3610 0.951 . S
H3592 C3612 0.950 . S
H3593 C3613 0.950 . S
H3594 C3615 0.950 . S
H3595 C3618 0.950 . S
H3596 C3619 0.950 . S
H3597 C3621 0.950 . S
H3598 C3622 0.950 . S
H3599 C3623 0.951 . S
H3600 C3625 0.951 . S
H3601 C3627 0.950 . S
H3602 C3628 0.950 . S
H3603 C3630 0.950 . S
H3604 C3633 0.950 . S
H3605 C3634 0.950 . S
H3606 C3636 0.950 . S
H3607 C3637 0.950 . S
C3608 H3590 0.951 . S
C3608 C3609 1.366 . S
C3608 C3610 1.388 . S
C3609 C3608 1.366 . S
C3609 C3613 1.385 . S
C3610 H3591 0.951 . S
C3610 C3608 1.388 . S
C3610 C3611 1.366 . S
C3611 C3610 1.366 . S
C3611 C3612 1.414 . S
C3611 C3614 1.499 . S
C3612 H3592 0.950 . S
C3612 C3611 1.414 . S
C3612 C3613 1.374 . S
C3613 H3593 0.950 . S
C3613 C3609 1.385 . S
C3613 C3612 1.374 . S
C3614 C3611 1.499 . S
C3614 C3615 1.373 . S
C3614 C3616 1.389 . S
C3615 H3594 0.950 . S
C3615 C3614 1.373 . S
C3615 C3631 1.377 . S
C3616 C3614 1.389 . S
C3616 C3617 1.524 . S
C3616 C3630 1.377 . S
C3617 C3616 1.524 . S
C3617 C3618 1.397 . S
C3617 C3622 1.363 . S
C3618 H3595 0.950 . S
C3618 C3617 1.397 . S
C3618 C3619 1.334 . S
C3619 H3596 0.950 . S
C3619 C3618 1.334 . S
C3619 C3620 1.287 . S
C3620 C3619 1.287 . S
C3620 C3621 1.524 . S
C3620 H3639 0.913 . S
C3621 H3597 0.950 . S
C3621 C3620 1.524 . S
C3621 C3622 1.415 . S
C3622 H3598 0.950 . S
C3622 C3617 1.363 . S
C3622 C3621 1.415 . S
C3623 H3599 0.951 . S
C3623 C3624 1.366 . S
C3623 C3625 1.388 . S
C3624 C3623 1.366 . S
C3624 C3628 1.385 . S
C3625 H3600 0.951 . S
C3625 C3623 1.388 . S
C3625 C3626 1.366 . S
C3626 C3625 1.366 . S
C3626 C3627 1.414 . S
C3626 C3629 1.499 . S
C3627 H3601 0.950 . S
C3627 C3626 1.414 . S
C3627 C3628 1.374 . S
C3628 H3602 0.950 . S
C3628 C3624 1.385 . S
C3628 C3627 1.374 . S
C3629 C3626 1.499 . S
C3629 C3630 1.373 . S
C3629 C3631 1.389 . S
C3630 H3603 0.950 . S
C3630 C3616 1.377 . S
C3630 C3629 1.373 . S
C3631 C3615 1.377 . S
C3631 C3629 1.389 . S
C3631 C3632 1.524 . S
C3632 C3631 1.524 . S
C3632 C3633 1.397 . S
C3632 C3637 1.363 . S
C3633 H3604 0.950 . S
C3633 C3632 1.397 . S
C3633 C3634 1.334 . S
C3634 H3605 0.950 . S
C3634 C3633 1.334 . S
C3634 C3635 1.287 . S
C3635 C3634 1.287 . S
C3635 C3636 1.524 . S
C3635 H3638 0.999 . S
C3636 H3606 0.950 . S
C3636 C3635 1.524 . S
C3636 C3637 1.415 . S
C3637 H3607 0.950 . S
C3637 C3632 1.363 . S
C3637 C3636 1.415 . S
H3638 C3635 0.999 . S
H3639 C3620 0.913 . S
H3640 C3658 0.951 . S
H3641 C3660 0.951 . S
H3642 C3662 0.950 . S
H3643 C3663 0.950 . S
H3644 C3665 0.950 . S
H3645 C3668 0.950 . S
H3646 C3669 0.950 . S
H3647 C3671 0.950 . S
H3648 C3672 0.950 . S
H3649 C3673 0.951 . S
H3650 C3675 0.951 . S
H3651 C3677 0.950 . S
H3652 C3678 0.950 . S
H3653 C3680 0.950 . S
H3654 C3683 0.950 . S
H3655 C3684 0.950 . S
H3656 C3686 0.950 . S
H3657 C3687 0.950 . S
C3658 H3640 0.951 . S
C3658 C3659 1.366 . S
C3658 C3660 1.388 . S
C3659 C3658 1.366 . S
C3659 C3663 1.385 . S
C3660 H3641 0.951 . S
C3660 C3658 1.388 . S
C3660 C3661 1.366 . S
C3661 C3660 1.366 . S
C3661 C3662 1.414 . S
C3661 C3664 1.499 . S
C3662 H3642 0.950 . S
C3662 C3661 1.414 . S
C3662 C3663 1.374 . S
C3663 H3643 0.950 . S
C3663 C3659 1.385 . S
C3663 C3662 1.374 . S
C3664 C3661 1.499 . S
C3664 C3665 1.373 . S
C3664 C3666 1.389 . S
C3665 H3644 0.950 . S
C3665 C3664 1.373 . S
C3665 C3681 1.377 . S
C3666 C3664 1.389 . S
C3666 C3667 1.524 . S
C3666 C3680 1.377 . S
C3667 C3666 1.524 . S
C3667 C3668 1.397 . S
C3667 C3672 1.363 . S
C3668 H3645 0.950 . S
C3668 C3667 1.397 . S
C3668 C3669 1.334 . S
C3669 H3646 0.950 . S
C3669 C3668 1.334 . S
C3669 C3670 1.287 . S
C3670 C3669 1.287 . S
C3670 C3671 1.524 . S
C3670 H3689 0.913 . S
C3671 H3647 0.950 . S
C3671 C3670 1.524 . S
C3671 C3672 1.415 . S
C3672 H3648 0.950 . S
C3672 C3667 1.363 . S
C3672 C3671 1.415 . S
C3673 H3649 0.951 . S
C3673 C3674 1.366 . S
C3673 C3675 1.388 . S
C3674 C3673 1.366 . S
C3674 C3678 1.385 . S
C3675 H3650 0.951 . S
C3675 C3673 1.388 . S
C3675 C3676 1.366 . S
C3676 C3675 1.366 . S
C3676 C3677 1.414 . S
C3676 C3679 1.499 . S
C3677 H3651 0.950 . S
C3677 C3676 1.414 . S
C3677 C3678 1.374 . S
C3678 H3652 0.950 . S
C3678 C3674 1.385 . S
C3678 C3677 1.374 . S
C3679 C3676 1.499 . S
C3679 C3680 1.373 . S
C3679 C3681 1.389 . S
C3680 H3653 0.950 . S
C3680 C3666 1.377 . S
C3680 C3679 1.373 . S
C3681 C3665 1.377 . S
C3681 C3679 1.389 . S
C3681 C3682 1.524 . S
C3682 C3681 1.524 . S
C3682 C3683 1.397 . S
C3682 C3687 1.363 . S
C3683 H3654 0.950 . S
C3683 C3682 1.397 . S
C3683 C3684 1.334 . S
C3684 H3655 0.950 . S
C3684 C3683 1.334 . S
C3684 C3685 1.287 . S
C3685 C3684 1.287 . S
C3685 C3686 1.524 . S
C3685 H3688 0.999 . S
C3686 H3656 0.950 . S
C3686 C3685 1.524 . S
C3686 C3687 1.415 . S
C3687 H3657 0.950 . S
C3687 C3682 1.363 . S
C3687 C3686 1.415 . S
H3688 C3685 0.999 . S
H3689 C3670 0.913 . S
H3690 C3708 0.951 . S
H3691 C3710 0.951 . S
H3692 C3712 0.950 . S
H3693 C3713 0.950 . S
H3694 C3715 0.950 . S
H3695 C3718 0.950 . S
H3696 C3719 0.950 . S
H3697 C3721 0.950 . S
H3698 C3722 0.950 . S
H3699 C3723 0.951 . S
H3700 C3725 0.951 . S
H3701 C3727 0.950 . S
H3702 C3728 0.950 . S
H3703 C3730 0.950 . S
H3704 C3733 0.950 . S
H3705 C3734 0.950 . S
H3706 C3736 0.950 . S
H3707 C3737 0.950 . S
C3708 H3690 0.951 . S
C3708 C3709 1.366 . S
C3708 C3710 1.388 . S
C3709 C3708 1.366 . S
C3709 C3713 1.385 . S
C3710 H3691 0.951 . S
C3710 C3708 1.388 . S
C3710 C3711 1.366 . S
C3711 C3710 1.366 . S
C3711 C3712 1.414 . S
C3711 C3714 1.499 . S
C3712 H3692 0.950 . S
C3712 C3711 1.414 . S
C3712 C3713 1.374 . S
C3713 H3693 0.950 . S
C3713 C3709 1.385 . S
C3713 C3712 1.374 . S
C3714 C3711 1.499 . S
C3714 C3715 1.373 . S
C3714 C3716 1.389 . S
C3715 H3694 0.950 . S
C3715 C3714 1.373 . S
C3715 C3731 1.377 . S
C3716 C3714 1.389 . S
C3716 C3717 1.524 . S
C3716 C3730 1.377 . S
C3717 C3716 1.524 . S
C3717 C3718 1.397 . S
C3717 C3722 1.363 . S
C3718 H3695 0.950 . S
C3718 C3717 1.397 . S
C3718 C3719 1.334 . S
C3719 H3696 0.950 . S
C3719 C3718 1.334 . S
C3719 C3720 1.287 . S
C3720 C3719 1.287 . S
C3720 C3721 1.524 . S
C3720 H3739 0.913 . S
C3721 H3697 0.950 . S
C3721 C3720 1.524 . S
C3721 C3722 1.415 . S
C3722 H3698 0.950 . S
C3722 C3717 1.363 . S
C3722 C3721 1.415 . S
C3723 H3699 0.951 . S
C3723 C3724 1.366 . S
C3723 C3725 1.388 . S
C3724 C3723 1.366 . S
C3724 C3728 1.385 . S
C3725 H3700 0.951 . S
C3725 C3723 1.388 . S
C3725 C3726 1.366 . S
C3726 C3725 1.366 . S
C3726 C3727 1.414 . S
C3726 C3729 1.499 . S
C3727 H3701 0.950 . S
C3727 C3726 1.414 . S
C3727 C3728 1.374 . S
C3728 H3702 0.950 . S
C3728 C3724 1.385 . S
C3728 C3727 1.374 . S
C3729 C3726 1.499 . S
C3729 C3730 1.373 . S
C3729 C3731 1.389 . S
C3730 H3703 0.950 . S
C3730 C3716 1.377 . S
C3730 C3729 1.373 . S
C3731 C3715 1.377 . S
C3731 C3729 1.389 . S
C3731 C3732 1.524 . S
C3732 C3731 1.524 . S
C3732 C3733 1.397 . S
C3732 C3737 1.363 . S
C3733 H3704 0.950 . S
C3733 C3732 1.397 . S
C3733 C3734 1.334 . S
C3734 H3705 0.950 . S
C3734 C3733 1.334 . S
C3734 C3735 1.287 . S
C3735 C3734 1.287 . S
C3735 C3736 1.524 . S
C3735 H3738 0.999 . S
C3736 H3706 0.950 . S
C3736 C3735 1.524 . S
C3736 C3737 1.415 . S
C3737 H3707 0.950 . S
C3737 C3732 1.363 . S
C3737 C3736 1.415 . S
H3738 C3735 0.999 . S
H3739 C3720 0.913 . S
H3740 C3758 0.951 . S
H3741 C3760 0.951 . S
H3742 C3762 0.950 . S
H3743 C3763 0.950 . S
H3744 C3765 0.950 . S
H3745 C3768 0.950 . S
H3746 C3769 0.950 . S
H3747 C3771 0.950 . S
H3748 C3772 0.950 . S
H3749 C3773 0.951 . S
H3750 C3775 0.951 . S
H3751 C3777 0.950 . S
H3752 C3778 0.950 . S
H3753 C3780 0.950 . S
H3754 C3783 0.950 . S
H3755 C3784 0.950 . S
H3756 C3786 0.950 . S
H3757 C3787 0.950 . S
C3758 H3740 0.951 . S
C3758 C3759 1.366 . S
C3758 C3760 1.388 . S
C3759 C3758 1.366 . S
C3759 C3763 1.385 . S
C3760 H3741 0.951 . S
C3760 C3758 1.388 . S
C3760 C3761 1.366 . S
C3761 C3760 1.366 . S
C3761 C3762 1.414 . S
C3761 C3764 1.499 . S
C3762 H3742 0.950 . S
C3762 C3761 1.414 . S
C3762 C3763 1.374 . S
C3763 H3743 0.950 . S
C3763 C3759 1.385 . S
C3763 C3762 1.374 . S
C3764 C3761 1.499 . S
C3764 C3765 1.373 . S
C3764 C3766 1.389 . S
C3765 H3744 0.950 . S
C3765 C3764 1.373 . S
C3765 C3781 1.377 . S
C3766 C3764 1.389 . S
C3766 C3767 1.524 . S
C3766 C3780 1.377 . S
C3767 C3766 1.524 . S
C3767 C3768 1.397 . S
C3767 C3772 1.363 . S
C3768 H3745 0.950 . S
C3768 C3767 1.397 . S
C3768 C3769 1.334 . S
C3769 H3746 0.950 . S
C3769 C3768 1.334 . S
C3769 C3770 1.287 . S
C3770 C3769 1.287 . S
C3770 C3771 1.524 . S
C3770 H3789 0.913 . S
C3771 H3747 0.950 . S
C3771 C3770 1.524 . S
C3771 C3772 1.415 . S
C3772 H3748 0.950 . S
C3772 C3767 1.363 . S
C3772 C3771 1.415 . S
C3773 H3749 0.951 . S
C3773 C3774 1.366 . S
C3773 C3775 1.388 . S
C3774 C3773 1.366 . S
C3774 C3778 1.385 . S
C3775 H3750 0.951 . S
C3775 C3773 1.388 . S
C3775 C3776 1.366 . S
C3776 C3775 1.366 . S
C3776 C3777 1.414 . S
C3776 C3779 1.499 . S
C3777 H3751 0.950 . S
C3777 C3776 1.414 . S
C3777 C3778 1.374 . S
C3778 H3752 0.950 . S
C3778 C3774 1.385 . S
C3778 C3777 1.374 . S
C3779 C3776 1.499 . S
C3779 C3780 1.373 . S
C3779 C3781 1.389 . S
C3780 H3753 0.950 . S
C3780 C3766 1.377 . S
C3780 C3779 1.373 . S
C3781 C3765 1.377 . S
C3781 C3779 1.389 . S
C3781 C3782 1.524 . S
C3782 C3781 1.524 . S
C3782 C3783 1.397 . S
C3782 C3787 1.363 . S
C3783 H3754 0.950 . S
C3783 C3782 1.397 . S
C3783 C3784 1.334 . S
C3784 H3755 0.950 . S
C3784 C3783 1.334 . S
C3784 C3785 1.287 . S
C3785 C3784 1.287 . S
C3785 C3786 1.524 . S
C3785 H3788 0.999 . S
C3786 H3756 0.950 . S
C3786 C3785 1.524 . S
C3786 C3787 1.415 . S
C3787 H3757 0.950 . S
C3787 C3782 1.363 . S
C3787 C3786 1.415 . S
H3788 C3785 0.999 . S
H3789 C3770 0.913 . S
H3790 C3808 0.951 . S
H3791 C3810 0.951 . S
H3792 C3812 0.950 . S
H3793 C3813 0.950 . S
H3794 C3815 0.950 . S
H3795 C3818 0.950 . S
H3796 C3819 0.950 . S
H3797 C3821 0.950 . S
H3798 C3822 0.950 . S
H3799 C3823 0.951 . S
H3800 C3825 0.951 . S
H3801 C3827 0.950 . S
H3802 C3828 0.950 . S
H3803 C3830 0.950 . S
H3804 C3833 0.950 . S
H3805 C3834 0.950 . S
H3806 C3836 0.950 . S
H3807 C3837 0.950 . S
C3808 H3790 0.951 . S
C3808 C3809 1.366 . S
C3808 C3810 1.388 . S
C3809 C3808 1.366 . S
C3809 C3813 1.385 . S
C3810 H3791 0.951 . S
C3810 C3808 1.388 . S
C3810 C3811 1.366 . S
C3811 C3810 1.366 . S
C3811 C3812 1.414 . S
C3811 C3814 1.499 . S
C3812 H3792 0.950 . S
C3812 C3811 1.414 . S
C3812 C3813 1.374 . S
C3813 H3793 0.950 . S
C3813 C3809 1.385 . S
C3813 C3812 1.374 . S
C3814 C3811 1.499 . S
C3814 C3815 1.373 . S
C3814 C3816 1.389 . S
C3815 H3794 0.950 . S
C3815 C3814 1.373 . S
C3815 C3831 1.377 . S
C3816 C3814 1.389 . S
C3816 C3817 1.524 . S
C3816 C3830 1.377 . S
C3817 C3816 1.524 . S
C3817 C3818 1.397 . S
C3817 C3822 1.363 . S
C3818 H3795 0.950 . S
C3818 C3817 1.397 . S
C3818 C3819 1.334 . S
C3819 H3796 0.950 . S
C3819 C3818 1.334 . S
C3819 C3820 1.287 . S
C3820 C3819 1.287 . S
C3820 C3821 1.524 . S
C3820 H3839 0.913 . S
C3821 H3797 0.950 . S
C3821 C3820 1.524 . S
C3821 C3822 1.415 . S
C3822 H3798 0.950 . S
C3822 C3817 1.363 . S
C3822 C3821 1.415 . S
C3823 H3799 0.951 . S
C3823 C3824 1.366 . S
C3823 C3825 1.388 . S
C3824 C3823 1.366 . S
C3824 C3828 1.385 . S
C3825 H3800 0.951 . S
C3825 C3823 1.388 . S
C3825 C3826 1.366 . S
C3826 C3825 1.366 . S
C3826 C3827 1.414 . S
C3826 C3829 1.499 . S
C3827 H3801 0.950 . S
C3827 C3826 1.414 . S
C3827 C3828 1.374 . S
C3828 H3802 0.950 . S
C3828 C3824 1.385 . S
C3828 C3827 1.374 . S
C3829 C3826 1.499 . S
C3829 C3830 1.373 . S
C3829 C3831 1.389 . S
C3830 H3803 0.950 . S
C3830 C3816 1.377 . S
C3830 C3829 1.373 . S
C3831 C3815 1.377 . S
C3831 C3829 1.389 . S
C3831 C3832 1.524 . S
C3832 C3831 1.524 . S
C3832 C3833 1.397 . S
C3832 C3837 1.363 . S
C3833 H3804 0.950 . S
C3833 C3832 1.397 . S
C3833 C3834 1.334 . S
C3834 H3805 0.950 . S
C3834 C3833 1.334 . S
C3834 C3835 1.287 . S
C3835 C3834 1.287 . S
C3835 C3836 1.524 . S
C3835 H3838 0.999 . S
C3836 H3806 0.950 . S
C3836 C3835 1.524 . S
C3836 C3837 1.415 . S
C3837 H3807 0.950 . S
C3837 C3832 1.363 . S
C3837 C3836 1.415 . S
H3838 C3835 0.999 . S
H3839 C3820 0.913 . S
H3840 C3858 0.951 . S
H3841 C3860 0.951 . S
H3842 C3862 0.950 . S
H3843 C3863 0.950 . S
H3844 C3865 0.950 . S
H3845 C3868 0.950 . S
H3846 C3869 0.950 . S
H3847 C3871 0.950 . S
H3848 C3872 0.950 . S
H3849 C3873 0.951 . S
H3850 C3875 0.951 . S
H3851 C3877 0.950 . S
H3852 C3878 0.950 . S
H3853 C3880 0.950 . S
H3854 C3883 0.950 . S
H3855 C3884 0.950 . S
H3856 C3886 0.950 . S
H3857 C3887 0.950 . S
C3858 H3840 0.951 . S
C3858 C3859 1.366 . S
C3858 C3860 1.388 . S
C3859 C3858 1.366 . S
C3859 C3863 1.385 . S
C3860 H3841 0.951 . S
C3860 C3858 1.388 . S
C3860 C3861 1.366 . S
C3861 C3860 1.366 . S
C3861 C3862 1.414 . S
C3861 C3864 1.499 . S
C3862 H3842 0.950 . S
C3862 C3861 1.414 . S
C3862 C3863 1.374 . S
C3863 H3843 0.950 . S
C3863 C3859 1.385 . S
C3863 C3862 1.374 . S
C3864 C3861 1.499 . S
C3864 C3865 1.373 . S
C3864 C3866 1.389 . S
C3865 H3844 0.950 . S
C3865 C3864 1.373 . S
C3865 C3881 1.377 . S
C3866 C3864 1.389 . S
C3866 C3867 1.524 . S
C3866 C3880 1.377 . S
C3867 C3866 1.524 . S
C3867 C3868 1.397 . S
C3867 C3872 1.363 . S
C3868 H3845 0.950 . S
C3868 C3867 1.397 . S
C3868 C3869 1.334 . S
C3869 H3846 0.950 . S
C3869 C3868 1.334 . S
C3869 C3870 1.287 . S
C3870 C3869 1.287 . S
C3870 C3871 1.524 . S
C3870 H3889 0.913 . S
C3871 H3847 0.950 . S
C3871 C3870 1.524 . S
C3871 C3872 1.415 . S
C3872 H3848 0.950 . S
C3872 C3867 1.363 . S
C3872 C3871 1.415 . S
C3873 H3849 0.951 . S
C3873 C3874 1.366 . S
C3873 C3875 1.388 . S
C3874 C3873 1.366 . S
C3874 C3878 1.385 . S
C3875 H3850 0.951 . S
C3875 C3873 1.388 . S
C3875 C3876 1.366 . S
C3876 C3875 1.366 . S
C3876 C3877 1.414 . S
C3876 C3879 1.499 . S
C3877 H3851 0.950 . S
C3877 C3876 1.414 . S
C3877 C3878 1.374 . S
C3878 H3852 0.950 . S
C3878 C3874 1.385 . S
C3878 C3877 1.374 . S
C3879 C3876 1.499 . S
C3879 C3880 1.373 . S
C3879 C3881 1.389 . S
C3880 H3853 0.950 . S
C3880 C3866 1.377 . S
C3880 C3879 1.373 . S
C3881 C3865 1.377 . S
C3881 C3879 1.389 . S
C3881 C3882 1.524 . S
C3882 C3881 1.524 . S
C3882 C3883 1.397 . S
C3882 C3887 1.363 . S
C3883 H3854 0.950 . S
C3883 C3882 1.397 . S
C3883 C3884 1.334 . S
C3884 H3855 0.950 . S
C3884 C3883 1.334 . S
C3884 C3885 1.287 . S
C3885 C3884 1.287 . S
C3885 C3886 1.524 . S
C3885 H3888 0.999 . S
C3886 H3856 0.950 . S
C3886 C3885 1.524 . S
C3886 C3887 1.415 . S
C3887 H3857 0.950 . S
C3887 C3882 1.363 . S
C3887 C3886 1.415 . S
H3888 C3885 0.999 . S
H3889 C3870 0.913 . S
H3890 C3908 0.951 . S
H3891 C3910 0.951 . S
H3892 C3912 0.950 . S
H3893 C3913 0.950 . S
H3894 C3915 0.950 . S
H3895 C3918 0.950 . S
H3896 C3919 0.950 . S
H3897 C3921 0.950 . S
H3898 C3922 0.950 . S
H3899 C3923 0.951 . S
H3900 C3925 0.951 . S
H3901 C3927 0.950 . S
H3902 C3928 0.950 . S
H3903 C3930 0.950 . S
H3904 C3933 0.950 . S
H3905 C3934 0.950 . S
H3906 C3936 0.950 . S
H3907 C3937 0.950 . S
C3908 H3890 0.951 . S
C3908 C3909 1.366 . S
C3908 C3910 1.388 . S
C3909 C3908 1.366 . S
C3909 C3913 1.385 . S
C3910 H3891 0.951 . S
C3910 C3908 1.388 . S
C3910 C3911 1.366 . S
C3911 C3910 1.366 . S
C3911 C3912 1.414 . S
C3911 C3914 1.499 . S
C3912 H3892 0.950 . S
C3912 C3911 1.414 . S
C3912 C3913 1.374 . S
C3913 H3893 0.950 . S
C3913 C3909 1.385 . S
C3913 C3912 1.374 . S
C3914 C3911 1.499 . S
C3914 C3915 1.373 . S
C3914 C3916 1.389 . S
C3915 H3894 0.950 . S
C3915 C3914 1.373 . S
C3915 C3931 1.377 . S
C3916 C3914 1.389 . S
C3916 C3917 1.524 . S
C3916 C3930 1.377 . S
C3917 C3916 1.524 . S
C3917 C3918 1.397 . S
C3917 C3922 1.363 . S
C3918 H3895 0.950 . S
C3918 C3917 1.397 . S
C3918 C3919 1.334 . S
C3919 H3896 0.950 . S
C3919 C3918 1.334 . S
C3919 C3920 1.287 . S
C3920 C3919 1.287 . S
C3920 C3921 1.524 . S
C3920 H3939 0.913 . S
C3921 H3897 0.950 . S
C3921 C3920 1.524 . S
C3921 C3922 1.415 . S
C3922 H3898 0.950 . S
C3922 C3917 1.363 . S
C3922 C3921 1.415 . S
C3923 H3899 0.951 . S
C3923 C3924 1.366 . S
C3923 C3925 1.388 . S
C3924 C3923 1.366 . S
C3924 C3928 1.385 . S
C3925 H3900 0.951 . S
C3925 C3923 1.388 . S
C3925 C3926 1.366 . S
C3926 C3925 1.366 . S
C3926 C3927 1.414 . S
C3926 C3929 1.499 . S
C3927 H3901 0.950 . S
C3927 C3926 1.414 . S
C3927 C3928 1.374 . S
C3928 H3902 0.950 . S
C3928 C3924 1.385 . S
C3928 C3927 1.374 . S
C3929 C3926 1.499 . S
C3929 C3930 1.373 . S
C3929 C3931 1.389 . S
C3930 H3903 0.950 . S
C3930 C3916 1.377 . S
C3930 C3929 1.373 . S
C3931 C3915 1.377 . S
C3931 C3929 1.389 . S
C3931 C3932 1.524 . S
C3932 C3931 1.524 . S
C3932 C3933 1.397 . S
C3932 C3937 1.363 . S
C3933 H3904 0.950 . S
C3933 C3932 1.397 . S
C3933 C3934 1.334 . S
C3934 H3905 0.950 . S
C3934 C3933 1.334 . S
C3934 C3935 1.287 . S
C3935 C3934 1.287 . S
C3935 C3936 1.524 . S
C3935 H3938 0.999 . S
C3936 H3906 0.950 . S
C3936 C3935 1.524 . S
C3936 C3937 1.415 . S
C3937 H3907 0.950 . S
C3937 C3932 1.363 . S
C3937 C3936 1.415 . S
H3938 C3935 0.999 . S
H3939 C3920 0.913 . S
H3940 C3958 0.951 . S
H3941 C3960 0.951 . S
H3942 C3962 0.950 . S
H3943 C3963 0.950 . S
H3944 C3965 0.950 . S
H3945 C3968 0.950 . S
H3946 C3969 0.950 . S
H3947 C3971 0.950 . S
H3948 C3972 0.950 . S
H3949 C3973 0.951 . S
H3950 C3975 0.951 . S
H3951 C3977 0.950 . S
H3952 C3978 0.950 . S
H3953 C3980 0.950 . S
H3954 C3983 0.950 . S
H3955 C3984 0.950 . S
H3956 C3986 0.950 . S
H3957 C3987 0.950 . S
C3958 H3940 0.951 . S
C3958 C3959 1.366 . S
C3958 C3960 1.388 . S
C3959 C3958 1.366 . S
C3959 C3963 1.385 . S
C3960 H3941 0.951 . S
C3960 C3958 1.388 . S
C3960 C3961 1.366 . S
C3961 C3960 1.366 . S
C3961 C3962 1.414 . S
C3961 C3964 1.499 . S
C3962 H3942 0.950 . S
C3962 C3961 1.414 . S
C3962 C3963 1.374 . S
C3963 H3943 0.950 . S
C3963 C3959 1.385 . S
C3963 C3962 1.374 . S
C3964 C3961 1.499 . S
C3964 C3965 1.373 . S
C3964 C3966 1.389 . S
C3965 H3944 0.950 . S
C3965 C3964 1.373 . S
C3965 C3981 1.377 . S
C3966 C3964 1.389 . S
C3966 C3967 1.524 . S
C3966 C3980 1.377 . S
C3967 C3966 1.524 . S
C3967 C3968 1.397 . S
C3967 C3972 1.363 . S
C3968 H3945 0.950 . S
C3968 C3967 1.397 . S
C3968 C3969 1.334 . S
C3969 H3946 0.950 . S
C3969 C3968 1.334 . S
C3969 C3970 1.287 . S
C3970 C3969 1.287 . S
C3970 C3971 1.524 . S
C3970 H3989 0.913 . S
C3971 H3947 0.950 . S
C3971 C3970 1.524 . S
C3971 C3972 1.415 . S
C3972 H3948 0.950 . S
C3972 C3967 1.363 . S
C3972 C3971 1.415 . S
C3973 H3949 0.951 . S
C3973 C3974 1.366 . S
C3973 C3975 1.388 . S
C3974 C3973 1.366 . S
C3974 C3978 1.385 . S
C3975 H3950 0.951 . S
C3975 C3973 1.388 . S
C3975 C3976 1.366 . S
C3976 C3975 1.366 . S
C3976 C3977 1.414 . S
C3976 C3979 1.499 . S
C3977 H3951 0.950 . S
C3977 C3976 1.414 . S
C3977 C3978 1.374 . S
C3978 H3952 0.950 . S
C3978 C3974 1.385 . S
C3978 C3977 1.374 . S
C3979 C3976 1.499 . S
C3979 C3980 1.373 . S
C3979 C3981 1.389 . S
C3980 H3953 0.950 . S
C3980 C3966 1.377 . S
C3980 C3979 1.373 . S
C3981 C3965 1.377 . S
C3981 C3979 1.389 . S
C3981 C3982 1.524 . S
C3982 C3981 1.524 . S
C3982 C3983 1.397 . S
C3982 C3987 1.363 . S
C3983 H3954 0.950 . S
C3983 C3982 1.397 . S
C3983 C3984 1.334 . S
C3984 H3955 0.950 . S
C3984 C3983 1.334 . S
C3984 C3985 1.287 . S
C3985 C3984 1.287 . S
C3985 C3986 1.524 . S
C3985 H3988 0.999 . S
C3986 H3956 0.950 . S
C3986 C3985 1.524 . S
C3986 C3987 1.415 . S
C3987 H3957 0.950 . S
C3987 C3982 1.363 . S
C3987 C3986 1.415 . S
H3988 C3985 0.999 . S
H3989 C3970 0.913 . S
H3990 C4008 0.951 . S
H3991 C4010 0.951 . S
H3992 C4012 0.950 . S
H3993 C4013 0.950 . S
H3994 C4015 0.950 . S
H3995 C4018 0.950 . S
H3996 C4019 0.950 . S
H3997 C4021 0.950 . S
H3998 C4022 0.950 . S
H3999 C4023 0.951 . S
H4000 C4025 0.951 . S
H4001 C4027 0.950 . S
H4002 C4028 0.950 . S
H4003 C4030 0.950 . S
H4004 C4033 0.950 . S
H4005 C4034 0.950 . S
H4006 C4036 0.950 . S
H4007 C4037 0.950 . S
C4008 H3990 0.951 . S
C4008 C4009 1.366 . S
C4008 C4010 1.388 . S
C4009 C4008 1.366 . S
C4009 C4013 1.385 . S
C4010 H3991 0.951 . S
C4010 C4008 1.388 . S
C4010 C4011 1.366 . S
C4011 C4010 1.366 . S
C4011 C4012 1.414 . S
C4011 C4014 1.499 . S
C4012 H3992 0.950 . S
C4012 C4011 1.414 . S
C4012 C4013 1.374 . S
C4013 H3993 0.950 . S
C4013 C4009 1.385 . S
C4013 C4012 1.374 . S
C4014 C4011 1.499 . S
C4014 C4015 1.373 . S
C4014 C4016 1.389 . S
C4015 H3994 0.950 . S
C4015 C4014 1.373 . S
C4015 C4031 1.377 . S
C4016 C4014 1.389 . S
C4016 C4017 1.524 . S
C4016 C4030 1.377 . S
C4017 C4016 1.524 . S
C4017 C4018 1.397 . S
C4017 C4022 1.363 . S
C4018 H3995 0.950 . S
C4018 C4017 1.397 . S
C4018 C4019 1.334 . S
C4019 H3996 0.950 . S
C4019 C4018 1.334 . S
C4019 C4020 1.287 . S
C4020 C4019 1.287 . S
C4020 C4021 1.524 . S
C4020 H4039 0.913 . S
C4021 H3997 0.950 . S
C4021 C4020 1.524 . S
C4021 C4022 1.415 . S
C4022 H3998 0.950 . S
C4022 C4017 1.363 . S
C4022 C4021 1.415 . S
C4023 H3999 0.951 . S
C4023 C4024 1.366 . S
C4023 C4025 1.388 . S
C4024 C4023 1.366 . S
C4024 C4028 1.385 . S
C4025 H4000 0.951 . S
C4025 C4023 1.388 . S
C4025 C4026 1.366 . S
C4026 C4025 1.366 . S
C4026 C4027 1.414 . S
C4026 C4029 1.499 . S
C4027 H4001 0.950 . S
C4027 C4026 1.414 . S
C4027 C4028 1.374 . S
C4028 H4002 0.950 . S
C4028 C4024 1.385 . S
C4028 C4027 1.374 . S
C4029 C4026 1.499 . S
C4029 C4030 1.373 . S
C4029 C4031 1.389 . S
C4030 H4003 0.950 . S
C4030 C4016 1.377 . S
C4030 C4029 1.373 . S
C4031 C4015 1.377 . S
C4031 C4029 1.389 . S
C4031 C4032 1.524 . S
C4032 C4031 1.524 . S
C4032 C4033 1.397 . S
C4032 C4037 1.363 . S
C4033 H4004 0.950 . S
C4033 C4032 1.397 . S
C4033 C4034 1.334 . S
C4034 H4005 0.950 . S
C4034 C4033 1.334 . S
C4034 C4035 1.287 . S
C4035 C4034 1.287 . S
C4035 C4036 1.524 . S
C4035 H4038 0.999 . S
C4036 H4006 0.950 . S
C4036 C4035 1.524 . S
C4036 C4037 1.415 . S
C4037 H4007 0.950 . S
C4037 C4032 1.363 . S
C4037 C4036 1.415 . S
H4038 C4035 0.999 . S
H4039 C4020 0.913 . S
H4040 C4058 0.951 . S
H4041 C4060 0.951 . S
H4042 C4062 0.950 . S
H4043 C4063 0.950 . S
H4044 C4065 0.950 . S
H4045 C4068 0.950 . S
H4046 C4069 0.950 . S
H4047 C4071 0.950 . S
H4048 C4072 0.950 . S
H4049 C4073 0.951 . S
H4050 C4075 0.951 . S
H4051 C4077 0.950 . S
H4052 C4078 0.950 . S
H4053 C4080 0.950 . S
H4054 C4083 0.950 . S
H4055 C4084 0.950 . S
H4056 C4086 0.950 . S
H4057 C4087 0.950 . S
C4058 H4040 0.951 . S
C4058 C4059 1.366 . S
C4058 C4060 1.388 . S
C4059 C4058 1.366 . S
C4059 C4063 1.385 . S
C4060 H4041 0.951 . S
C4060 C4058 1.388 . S
C4060 C4061 1.366 . S
C4061 C4060 1.366 . S
C4061 C4062 1.414 . S
C4061 C4064 1.499 . S
C4062 H4042 0.950 . S
C4062 C4061 1.414 . S
C4062 C4063 1.374 . S
C4063 H4043 0.950 . S
C4063 C4059 1.385 . S
C4063 C4062 1.374 . S
C4064 C4061 1.499 . S
C4064 C4065 1.373 . S
C4064 C4066 1.389 . S
C4065 H4044 0.950 . S
C4065 C4064 1.373 . S
C4065 C4081 1.377 . S
C4066 C4064 1.389 . S
C4066 C4067 1.524 . S
C4066 C4080 1.377 . S
C4067 C4066 1.524 . S
C4067 C4068 1.397 . S
C4067 C4072 1.363 . S
C4068 H4045 0.950 . S
C4068 C4067 1.397 . S
C4068 C4069 1.334 . S
C4069 H4046 0.950 . S
C4069 C4068 1.334 . S
C4069 C4070 1.287 . S
C4070 C4069 1.287 . S
C4070 C4071 1.524 . S
C4070 H4089 0.913 . S
C4071 H4047 0.950 . S
C4071 C4070 1.524 . S
C4071 C4072 1.415 . S
C4072 H4048 0.950 . S
C4072 C4067 1.363 . S
C4072 C4071 1.415 . S
C4073 H4049 0.951 . S
C4073 C4074 1.366 . S
C4073 C4075 1.388 . S
C4074 C4073 1.366 . S
C4074 C4078 1.385 . S
C4075 H4050 0.951 . S
C4075 C4073 1.388 . S
C4075 C4076 1.366 . S
C4076 C4075 1.366 . S
C4076 C4077 1.414 . S
C4076 C4079 1.499 . S
C4077 H4051 0.950 . S
C4077 C4076 1.414 . S
C4077 C4078 1.374 . S
C4078 H4052 0.950 . S
C4078 C4074 1.385 . S
C4078 C4077 1.374 . S
C4079 C4076 1.499 . S
C4079 C4080 1.373 . S
C4079 C4081 1.389 . S
C4080 H4053 0.950 . S
C4080 C4066 1.377 . S
C4080 C4079 1.373 . S
C4081 C4065 1.377 . S
C4081 C4079 1.389 . S
C4081 C4082 1.524 . S
C4082 C4081 1.524 . S
C4082 C4083 1.397 . S
C4082 C4087 1.363 . S
C4083 H4054 0.950 . S
C4083 C4082 1.397 . S
C4083 C4084 1.334 . S
C4084 H4055 0.950 . S
C4084 C4083 1.334 . S
C4084 C4085 1.287 . S
C4085 C4084 1.287 . S
C4085 C4086 1.524 . S
C4085 H4088 0.999 . S
C4086 H4056 0.950 . S
C4086 C4085 1.524 . S
C4086 C4087 1.415 . S
C4087 H4057 0.950 . S
C4087 C4082 1.363 . S
C4087 C4086 1.415 . S
H4088 C4085 0.999 . S
H4089 C4070 0.913 . S
H4090 C4108 0.951 . S
H4091 C4110 0.951 . S
H4092 C4112 0.950 . S
H4093 C4113 0.950 . S
H4094 C4115 0.950 . S
H4095 C4118 0.950 . S
H4096 C4119 0.950 . S
H4097 C4121 0.950 . S
H4098 C4122 0.950 . S
H4099 C4123 0.951 . S
H4100 C4125 0.951 . S
H4101 C4127 0.950 . S
H4102 C4128 0.950 . S
H4103 C4130 0.950 . S
H4104 C4133 0.950 . S
H4105 C4134 0.950 . S
H4106 C4136 0.950 . S
H4107 C4137 0.950 . S
C4108 H4090 0.951 . S
C4108 C4109 1.366 . S
C4108 C4110 1.388 . S
C4109 C4108 1.366 . S
C4109 C4113 1.385 . S
C4110 H4091 0.951 . S
C4110 C4108 1.388 . S
C4110 C4111 1.366 . S
C4111 C4110 1.366 . S
C4111 C4112 1.414 . S
C4111 C4114 1.499 . S
C4112 H4092 0.950 . S
C4112 C4111 1.414 . S
C4112 C4113 1.374 . S
C4113 H4093 0.950 . S
C4113 C4109 1.385 . S
C4113 C4112 1.374 . S
C4114 C4111 1.499 . S
C4114 C4115 1.373 . S
C4114 C4116 1.389 . S
C4115 H4094 0.950 . S
C4115 C4114 1.373 . S
C4115 C4131 1.377 . S
C4116 C4114 1.389 . S
C4116 C4117 1.524 . S
C4116 C4130 1.377 . S
C4117 C4116 1.524 . S
C4117 C4118 1.397 . S
C4117 C4122 1.363 . S
C4118 H4095 0.950 . S
C4118 C4117 1.397 . S
C4118 C4119 1.334 . S
C4119 H4096 0.950 . S
C4119 C4118 1.334 . S
C4119 C4120 1.287 . S
C4120 C4119 1.287 . S
C4120 C4121 1.524 . S
C4120 H4139 0.913 . S
C4121 H4097 0.950 . S
C4121 C4120 1.524 . S
C4121 C4122 1.415 . S
C4122 H4098 0.950 . S
C4122 C4117 1.363 . S
C4122 C4121 1.415 . S
C4123 H4099 0.951 . S
C4123 C4124 1.366 . S
C4123 C4125 1.388 . S
C4124 C4123 1.366 . S
C4124 C4128 1.385 . S
C4125 H4100 0.951 . S
C4125 C4123 1.388 . S
C4125 C4126 1.366 . S
C4126 C4125 1.366 . S
C4126 C4127 1.414 . S
C4126 C4129 1.499 . S
C4127 H4101 0.950 . S
C4127 C4126 1.414 . S
C4127 C4128 1.374 . S
C4128 H4102 0.950 . S
C4128 C4124 1.385 . S
C4128 C4127 1.374 . S
C4129 C4126 1.499 . S
C4129 C4130 1.373 . S
C4129 C4131 1.389 . S
C4130 H4103 0.950 . S
C4130 C4116 1.377 . S
C4130 C4129 1.373 . S
C4131 C4115 1.377 . S
C4131 C4129 1.389 . S
C4131 C4132 1.524 . S
C4132 C4131 1.524 . S
C4132 C4133 1.397 . S
C4132 C4137 1.363 . S
C4133 H4104 0.950 . S
C4133 C4132 1.397 . S
C4133 C4134 1.334 . S
C4134 H4105 0.950 . S
C4134 C4133 1.334 . S
C4134 C4135 1.287 . S
C4135 C4134 1.287 . S
C4135 C4136 1.524 . S
C4135 H4138 0.999 . S
C4136 H4106 0.950 . S
C4136 C4135 1.524 . S
C4136 C4137 1.415 . S
C4137 H4107 0.950 . S
C4137 C4132 1.363 . S
C4137 C4136 1.415 . S
H4138 C4135 0.999 . S
H4139 C4120 0.913 . S
C1459 C781 1.656 . S
C1474 C1083 1.668 . S
C1509 C871 1.791 . S
C1524 C1123 1.828 . S
C1559 C751 1.684 . S
C1574 C1175 1.728 . S
C1609 C691 1.504 . S
C1624 C1135 1.532 . S
C1674 C1163 1.439 . S
C1659 C571 1.385 . S
C1709 C601 1.330 . S
C1724 C1095 1.341 . S
C1774 C1102 1.667 . S
C1759 C661 1.600 . S
C1824 C1142 1.833 . S
C1809 C541 1.783 . S
C1859 C631 1.750 . S
C1874 C1162 1.729 . S
C1909 C811 1.551 . S
C1924 C1122 1.532 . S
C1959 C841 1.405 . S
C1974 C1182 1.439 . S
C2024 C1082 1.345 . S
C2009 C721 1.279 . S
C2074 C1203 1.667 . S
C2059 C61 1.657 . S
C2109 C151 1.792 . S
C2124 C1243 1.833 . S
C2159 C31 1.685 . S
C2174 C1295 1.729 . S
C2209 C1051 1.503 . S
C2224 C1255 1.532 . S
C2259 C931 1.383 . S
C2274 C1283 1.439 . S
C2309 C961 1.330 . S
C2324 C1215 1.345 . S
C2359 C1021 1.602 . S
C2374 C1222 1.667 . S
C2409 C901 1.778 . S
C2424 C1262 1.833 . S
C2474 C1282 1.728 . S
C2459 C991 1.751 . S
C2509 C91 1.552 . S
C2524 C1242 1.533 . S
C2574 C1302 1.439 . S
C2559 C121 1.406 . S
C2609 C1 1.275 . S
C2624 C1202 1.346 . S
C2674 C1323 1.666 . S
C2659 C421 1.656 . S
C2709 C511 1.792 . S
C2724 C1363 1.833 . S
C2774 C1415 1.728 . S
C2759 C391 1.685 . S
C2824 C1375 1.532 . S
C2809 C331 1.503 . S
C2874 C1403 1.439 . S
C2859 C211 1.385 . S
C2909 C241 1.329 . S
C2924 C1335 1.345 . S
C2959 C301 1.602 . S
C2974 C1342 1.667 . S
C3009 C181 1.777 . S
C3024 C1382 1.833 . S
C3074 C1402 1.729 . S
C3059 C271 1.751 . S
C3109 C451 1.551 . S
C3124 C1362 1.532 . S
C3159 C481 1.406 . S
C3174 C1422 1.439 . S
C3209 C361 1.274 . S
C3224 C1322 1.345 . S
C3259 C920 1.231 . S
C3274 C1106 1.248 . S
C3324 C1146 1.907 . S
C3309 C980 1.907 . S
C3359 C1040 1.522 . S
C3374 C1169 1.580 . S
C3409 C380 1.852 . S
C3424 C1129 1.907 . S
C3459 C440 1.555 . S
C3474 C1186 1.580 . S
C3524 C1089 1.247 . S
C3509 C500 1.225 . S
C3559 C200 1.231 . S
C3574 C1226 1.247 . S
C3609 C260 1.906 . S
C3624 C1266 1.907 . S
C3659 C320 1.522 . S
C3674 C1289 1.580 . S
C3709 C740 1.853 . S
C3724 C1249 1.907 . S
C3774 C1306 1.580 . S
C3759 C800 1.555 . S
C3809 C860 1.228 . S
C3824 C1209 1.247 . S
C3859 C560 1.231 . S
C3874 C1346 1.247 . S
C3909 C620 1.907 . S
C3924 C1386 1.907 . S
C3974 C1409 1.579 . S
C3959 C680 1.523 . S
C4009 C20 1.852 . S
C4024 C1369 1.907 . S
C4059 C80 1.556 . S
C4074 C1426 1.579 . S
C4109 C140 1.228 . S
C4124 C1329 1.247 . S
