# Generated by pormake.
# Topology pyr, (3,6)-cn, num edge types: 1
# Building blocks:
#     Node 0, Type 0, BuildingBlock: BETDAH_clean_linker_0, # of connection points: 3
#     Node 1, Type 0, BuildingBlock: BETDAH_clean_linker_0, # of connection points: 3
#     Node 2, Type 0, BuildingBlock: BETDAH_clean_linker_0, # of connection points: 3
#     Node 3, Type 0, BuildingBlock: BETDAH_clean_linker_0, # of connection points: 3
#     Node 4, Type 0, BuildingBlock: BETDAH_clean_linker_0, # of connection points: 3
#     Node 5, Type 0, BuildingBlock: BETDAH_clean_linker_0, # of connection points: 3
#     Node 6, Type 0, BuildingBlock: BETDAH_clean_linker_0, # of connection points: 3
#     Node 7, Type 0, BuildingBlock: BETDAH_clean_linker_0, # of connection points: 3
#     Node 8, Type 1, BuildingBlock: BETDAH_clean_sbu_0, # of connection points: 6
#     Node 9, Type 1, BuildingBlock: BETDAH_clean_sbu_0, # of connection points: 6
#     Node 10, Type 1, BuildingBlock: BETDAH_clean_sbu_0, # of connection points: 6
#     Node 11, Type 1, BuildingBlock: BETDAH_clean_sbu_0, # of connection points: 6
#     Edge 12, Type (0, 1), BuildingBlock: CIFDUS_clean_linker_0, # of connection points: 2
#     Edge 13, Type (0, 1), BuildingBlock: CIFDUS_clean_linker_0, # of connection points: 2
#     Edge 14, Type (0, 1), BuildingBlock: CIFDUS_clean_linker_0, # of connection points: 2
#     Edge 15, Type (0, 1), BuildingBlock: CIFDUS_clean_linker_0, # of connection points: 2
#     Edge 16, Type (0, 1), BuildingBlock: CIFDUS_clean_linker_0, # of connection points: 2
#     Edge 17, Type (0, 1), BuildingBlock: CIFDUS_clean_linker_0, # of connection points: 2
#     Edge 18, Type (0, 1), BuildingBlock: CIFDUS_clean_linker_0, # of connection points: 2
#     Edge 19, Type (0, 1), BuildingBlock: CIFDUS_clean_linker_0, # of connection points: 2
#     Edge 20, Type (0, 1), BuildingBlock: CIFDUS_clean_linker_0, # of connection points: 2
#     Edge 21, Type (0, 1), BuildingBlock: CIFDUS_clean_linker_0, # of connection points: 2
#     Edge 22, Type (0, 1), BuildingBlock: CIFDUS_clean_linker_0, # of connection points: 2
#     Edge 23, Type (0, 1), BuildingBlock: CIFDUS_clean_linker_0, # of connection points: 2
#     Edge 24, Type (0, 1), BuildingBlock: CIFDUS_clean_linker_0, # of connection points: 2
#     Edge 25, Type (0, 1), BuildingBlock: CIFDUS_clean_linker_0, # of connection points: 2
#     Edge 26, Type (0, 1), BuildingBlock: CIFDUS_clean_linker_0, # of connection points: 2
#     Edge 27, Type (0, 1), BuildingBlock: CIFDUS_clean_linker_0, # of connection points: 2
#     Edge 28, Type (0, 1), BuildingBlock: CIFDUS_clean_linker_0, # of connection points: 2
#     Edge 29, Type (0, 1), BuildingBlock: CIFDUS_clean_linker_0, # of connection points: 2
#     Edge 30, Type (0, 1), BuildingBlock: CIFDUS_clean_linker_0, # of connection points: 2
#     Edge 31, Type (0, 1), BuildingBlock: CIFDUS_clean_linker_0, # of connection points: 2
#     Edge 32, Type (0, 1), BuildingBlock: CIFDUS_clean_linker_0, # of connection points: 2
#     Edge 33, Type (0, 1), BuildingBlock: CIFDUS_clean_linker_0, # of connection points: 2
#     Edge 34, Type (0, 1), BuildingBlock: CIFDUS_clean_linker_0, # of connection points: 2
#     Edge 35, Type (0, 1), BuildingBlock: CIFDUS_clean_linker_0, # of connection points: 2
# Relax obj value: 0.169
# Max RMSD: 0.193
# Mean RMSD: 0.141
data_MOF--net-pyr--node1-BETDAH_clean_sbu_0--node2-BETDAH_clean_linker_0--edge1-CIFDUS_clean_linker_0
_symmetry_space_group_name_H-M    P1
_symmetry_Int_Tables_number       1
_symmetry_cell_setting            triclinic
loop_
_symmetry_equiv_pos_as_xyz
'x, y, z'
_cell_length_a     32.728827
_cell_length_b     35.979498
_cell_length_c     32.958263
_cell_angle_alpha  91.939977
_cell_angle_beta   89.563431
_cell_angle_gamma 108.13421
loop_
_atom_site_label
_atom_site_type_symbol
_atom_site_fract_x
_atom_site_fract_y
_atom_site_fract_z
_atom_type_partial_charge
H0 H 0.38793 0.26025 0.28525 0.0
H1 H 0.46021 0.34608 0.20224 0.0
H2 H 0.37141 0.37404 0.28528 0.0
C3 C 0.39798 0.28997 0.2747 0.0
C4 C 0.37767 0.31656 0.28987 0.0
C5 C 0.42733 0.30017 0.2426 0.0
C6 C 0.4382 0.33815 0.22755 0.0
C7 C 0.41824 0.36497 0.24282 0.0
C8 C 0.38795 0.35397 0.27402 0.0
N9 N 0.4269 0.40174 0.2245 0.0
C10 C 0.39607 0.42083 0.22129 0.0
H11 H 0.33161 0.87454 0.69903 0.0
H12 H 0.20979 0.89482 0.71081 0.0
H13 H 0.22972 0.81846 0.61458 0.0
C14 C 0.29952 0.87028 0.6874 0.0
C15 C 0.28469 0.84556 0.65326 0.0
C16 C 0.27303 0.88837 0.70807 0.0
C17 C 0.2306 0.881 0.69488 0.0
C18 C 0.21506 0.85558 0.66114 0.0
C19 C 0.24194 0.83768 0.64074 0.0
N20 N 0.17278 0.84845 0.64655 0.0
C21 C 0.15463 0.87836 0.64601 0.0
H22 H 0.7355 0.36686 0.98152 0.0
H23 H 0.71902 0.45134 0.89753 0.0
H24 H 0.62486 0.33818 0.9035 0.0
C25 C 0.71725 0.37514 0.95833 0.0
C26 C 0.67778 0.3476 0.94569 0.0
C27 C 0.73334 0.413 0.9417 0.0
C28 C 0.70867 0.42268 0.91043 0.0
C29 C 0.66952 0.39558 0.89654 0.0
C30 C 0.65473 0.35868 0.9146 0.0
N31 N 0.64237 0.40369 0.86597 0.0
C32 C 0.64954 0.43387 0.8379 0.0
H33 H 0.84336 0.76652 0.49525 0.0
H34 H 0.92528 0.78975 0.39058 0.0
H35 H 0.81572 0.68579 0.39166 0.0
C36 C 0.85119 0.75766 0.46524 0.0
C37 C 0.82405 0.72284 0.44647 0.0
C38 C 0.88759 0.78235 0.44567 0.0
C39 C 0.89833 0.77058 0.40666 0.0
C40 C 0.87396 0.73466 0.38764 0.0
C41 C 0.83645 0.71145 0.40762 0.0
N42 N 0.8803 0.72793 0.34506 0.0
C43 C 0.90232 0.70372 0.32654 0.0
H44 H 0.7379 0.79011 0.84121 0.0
H45 H 0.65929 0.75941 0.94735 0.0
H46 H 0.63941 0.84354 0.86632 0.0
C47 C 0.7106 0.79186 0.85912 0.0
C48 C 0.68886 0.81826 0.8486 0.0
C49 C 0.70067 0.77073 0.89474 0.0
C50 C 0.66714 0.7752 0.91947 0.0
C51 C 0.64508 0.80154 0.90952 0.0
C52 C 0.65601 0.82295 0.87397 0.0
N53 N 0.6132 0.80696 0.93654 0.0
C54 C 0.60257 0.84156 0.94028 0.0
H55 H 0.81082 0.19464 0.47645 0.0
H56 H 0.88273 0.29281 0.55122 0.0
H57 H 0.7886 0.3058 0.46736 0.0
C58 C 0.8171 0.22482 0.48687 0.0
C59 C 0.79629 0.24817 0.46786 0.0
C60 C 0.84907 0.24083 0.51592 0.0
C61 C 0.85813 0.28001 0.52852 0.0
C62 C 0.83542 0.30291 0.51214 0.0
C63 C 0.80438 0.28722 0.48159 0.0
N64 N 0.84504 0.34208 0.52619 0.0
C65 C 0.8151 0.35303 0.54927 0.0
H66 H 0.34994 0.79375 0.19672 0.0
H67 H 0.34075 0.70938 0.29044 0.0
H68 H 0.4464 0.81624 0.28949 0.0
C69 C 0.36171 0.78495 0.22425 0.0
C70 C 0.40068 0.80954 0.24091 0.0
C71 C 0.33922 0.7484 0.24122 0.0
C72 C 0.35729 0.73671 0.27636 0.0
C73 C 0.39624 0.76136 0.29398 0.0
C74 C 0.41688 0.79732 0.27585 0.0
N75 N 0.41569 0.75397 0.33085 0.0
C76 C 0.41195 0.72022 0.35318 0.0
H77 H 0.23119 0.39355 0.67924 0.0
H78 H 0.22919 0.47065 0.78154 0.0
H79 H 0.1345 0.35698 0.77185 0.0
C80 C 0.21621 0.39907 0.70717 0.0
C81 C 0.18004 0.3697 0.72219 0.0
C82 C 0.23504 0.43519 0.72838 0.0
C83 C 0.21493 0.44346 0.7645 0.0
C84 C 0.17746 0.41569 0.7795 0.0
C85 C 0.16129 0.37893 0.75856 0.0
N86 N 0.15898 0.42032 0.81848 0.0
C87 C 0.15149 0.45334 0.83761 0.0
Ho88 Ho 0.04829 0.09578 0.54157 0.0
Ho89 Ho 1.0143 0.05802 0.62104 0.0
C90 C 0.06569 0.1502 0.62529 0.0
C91 C 0.07082 0.14011 0.48045 0.0
C92 C 0.11249 0.16815 0.4701 0.0
C93 C 0.11427 0.20394 0.45362 0.0
C94 C 0.15364 0.22963 0.44153 0.0
C95 C 0.19173 0.2196 0.44526 0.0
C96 C 0.19005 0.18474 0.46413 0.0
C97 C 0.15081 0.15936 0.47667 0.0
C98 C 0.10369 0.06598 0.57944 0.0
C99 C 0.99355 1.00472 0.53565 0.0
C100 C 0.988 1.01417 0.68198 0.0
C101 C 0.94482 0.98673 0.68884 0.0
C102 C 0.94004 0.94853 0.70044 0.0
C103 C 0.89904 0.92223 0.70633 0.0
C104 C 0.86225 0.93386 0.70086 0.0
C105 C 0.86705 0.9717 0.68792 0.0
C106 C 0.90795 0.99782 0.68165 0.0
C107 C 0.96091 0.08916 0.58424 0.0
O108 O 0.06234 0.14879 0.58519 0.0
O109 O 0.05491 0.11762 0.64617 0.0
O110 O 0.06933 0.10336 0.47947 0.0
O111 O 0.05163 0.14965 0.51221 0.0
O112 O 0.10112 0.06786 0.54055 0.0
O113 O 0.07901 0.0824 0.59629 0.0
O114 O 0.99682 1.00549 0.57584 0.0
O115 O 1.00517 0.03782 0.51575 0.0
O116 O 0.9908 0.05118 0.68256 0.0
O117 O 1.00939 1.00455 0.65204 0.0
O118 O 0.96304 0.08708 0.62302 0.0
O119 O 0.98371 0.07144 0.56654 0.0
H120 H 0.08514 0.2116 0.44925 0.0
H121 H 0.15407 0.25675 0.42796 0.0
H122 H 0.21864 0.17599 0.46729 0.0
H123 H 0.15034 0.13225 0.49029 0.0
H124 H 0.96801 0.9392 0.70536 0.0
H125 H 0.89619 0.8933 0.71677 0.0
H126 H 0.83918 0.98126 0.68333 0.0
H127 H 0.91061 1.02682 0.6716 0.0
Ho128 Ho 0.56858 0.08739 0.11083 0.0
Ho129 Ho 0.49064 0.06993 0.07113 0.0
C130 C 0.49758 0.12229 0.1498 0.0
C131 C 0.63625 0.1204 0.1535 0.0
C132 C 0.63938 0.13514 0.19605 0.0
C133 C 0.64574 0.17506 0.20493 0.0
C134 C 0.64897 0.1892 0.24511 0.0
C135 C 0.64628 0.1637 0.27691 0.0
C136 C 0.63771 0.12356 0.26827 0.0
C137 C 0.63422 0.10935 0.22818 0.0
C138 C 0.5129 1.01752 0.13486 0.0
C139 C 0.5631 1.0334 1.03549 0.0
C140 C 0.41717 0.04007 1.03478 0.0
C141 C 0.39835 1.02003 0.99651 0.0
C142 C 0.37255 0.98075 0.99673 0.0
C143 C 0.3513 0.96226 0.96148 0.0
C144 C 0.35513 0.98291 0.92548 0.0
C145 C 0.38126 1.02219 0.9253 0.0
C146 C 0.40274 0.04054 0.96039 0.0
C147 C 0.54429 0.1417 0.04947 0.0
O148 O 0.53864 0.12619 0.14693 0.0
O149 O 0.46958 0.09677 0.12632 0.0
O150 O 0.62095 0.08254 0.14759 0.0
O151 O 0.62062 0.13933 0.12785 0.0
O152 O 0.55322 1.02401 0.12706 0.0
O153 O 0.50357 0.0488 0.13011 0.0
O154 O 0.52154 1.0288 1.03821 0.0
O155 O 0.59069 0.06185 0.05624 0.0
O156 O 0.44046 0.07664 1.03299 0.0
O157 O 0.43331 1.02069 0.05945 0.0
O158 O 0.50428 0.13332 0.05921 0.0
O159 O 0.55535 0.11079 0.05214 0.0
H160 H 0.64941 0.19555 0.1808 0.0
H161 H 0.65669 0.2204 0.25123 0.0
H162 H 0.63642 0.10361 0.29251 0.0
H163 H 0.62874 0.07835 0.22247 0.0
H164 H 0.36831 0.96447 1.02434 0.0
H165 H 0.33193 0.93182 0.96246 0.0
H166 H 0.38441 0.03912 0.89825 0.0
H167 H 0.42198 0.07102 0.95932 0.0
Ho168 Ho 0.53184 0.54951 0.57227 0.0
Ho169 Ho 0.53198 0.61513 0.62635 0.0
C170 C 0.56805 0.55038 0.665 0.0
C171 C 0.5464 0.49177 0.5334 0.0
C172 C 0.57106 0.4661 0.5459 0.0
C173 C 0.61615 0.47977 0.54657 0.0
C174 C 0.63929 0.45649 0.56104 0.0
C175 C 0.61796 0.41898 0.57522 0.0
C176 C 0.57286 0.4053 0.5748 0.0
C177 C 0.5496 0.42866 0.56018 0.0
C178 C 0.45415 0.54217 0.60703 0.0
C179 C 0.50237 0.61708 0.53224 0.0
C180 C 0.50599 0.65939 0.6762 0.0
C181 C 0.50009 0.69757 0.67302 0.0
C182 C 0.4688 0.70611 0.69728 0.0
C183 C 0.4529 0.73611 0.68695 0.0
C184 C 0.46824 0.75772 0.65229 0.0
C185 C 0.50239 0.75164 0.63017 0.0
C186 C 0.51824 0.72137 0.64044 0.0
C187 C 0.60744 0.64106 0.58358 0.0
O188 O 0.56636 0.53528 0.62753 0.0
O189 O 0.55416 0.58062 0.67238 0.0
O190 O 0.51117 0.48837 0.55375 0.0
O191 O 0.56835 0.5283 0.52733 0.0
O192 O 0.46015 0.53624 0.56876 0.0
O193 O 0.49037 0.55344 0.62491 0.0
O194 O 0.49949 0.6295 0.57022 0.0
O195 O 0.51918 0.58854 0.52447 0.0
O196 O 0.54563 0.6584 0.6757 0.0
O197 O 0.48016 0.63236 0.65259 0.0
O198 O 0.59451 0.66061 0.61172 0.0
O199 O 0.57963 0.60747 0.57951 0.0
H200 H 0.63377 0.50847 0.53588 0.0
H201 H 0.67406 0.46748 0.55975 0.0
H202 H 0.55566 0.37644 0.58533 0.0
H203 H 0.5148 0.41752 0.56024 0.0
H204 H 0.45421 0.68762 0.72214 0.0
H205 H 0.42646 0.74064 0.70427 0.0
H206 H 0.51435 0.76811 0.60331 0.0
H207 H 0.54213 0.71463 0.62116 0.0
Ho208 Ho 0.04616 0.55347 0.10426 0.0
Ho209 Ho 0.03296 0.6274 0.0554 0.0
C210 C 0.11884 0.64053 0.11349 0.0
C211 C 0.07684 0.49705 0.11791 0.0
C212 C 0.11486 0.49178 0.13814 0.0
C213 C 0.14632 0.48259 0.11425 0.0
C214 C 0.18193 0.4762 0.13222 0.0
C215 C 0.18691 0.47854 0.17466 0.0
C216 C 0.15557 0.48797 0.19869 0.0
C217 C 0.11993 0.49465 0.18061 0.0
C218 C 1.00994 0.59874 0.15291 0.0
C219 C 0.95821 0.54071 0.05112 0.0
C220 C 1.00256 0.68294 1.03619 0.0
C221 C 0.96207 0.68607 1.01857 0.0
C222 C 0.92353 0.67495 0.04088 0.0
C223 C 0.8868 0.68235 1.02671 0.0
C224 C 0.88739 0.7008 0.98975 0.0
C225 C 0.92508 0.7101 0.96627 0.0
C226 C 0.96219 0.70305 0.9807 0.0
C227 C 0.06954 0.58144 1.00789 0.0
O228 O 0.10758 0.60224 0.11958 0.0
O229 O 0.09528 0.65681 0.09104 0.0
O230 O 0.04716 0.50469 0.14066 0.0
O231 O 0.08473 0.51733 0.08489 0.0
O232 O 0.01757 0.56721 0.16444 0.0
O233 O 0.02163 0.60271 0.11597 0.0
O234 O 0.96994 0.57872 0.04336 0.0
O235 O 0.98248 0.52449 0.07227 0.0
O236 O 0.02828 0.6707 1.01238 0.0
O237 O 0.99964 0.66843 0.07229 0.0
O238 O 0.06206 0.61261 0.99543 0.0
O239 O 0.05749 0.57845 0.04452 0.0
H240 H 0.14313 0.47986 0.08149 0.0
H241 H 0.20502 0.46833 0.11283 0.0
H242 H 0.15863 0.4902 0.23145 0.0
H243 H 0.09628 0.50172 0.19991 0.0
H244 H 0.92194 0.66162 0.07006 0.0
H245 H 0.85808 0.67455 0.04524 0.0
H246 H 0.92647 0.72455 0.93775 0.0
H247 H 0.99136 0.71203 0.96287 0.0
H248 H 0.37539 0.29369 0.36807 0.0
H249 H 0.2961 0.30853 0.26995 0.0
H250 H 0.23158 0.28206 0.31063 0.0
H251 H 0.19779 0.25135 0.37177 0.0
H252 H 0.27546 0.23789 0.47206 0.0
H253 H 0.34082 0.26744 0.43297 0.0
C254 C 0.34389 0.29136 0.35604 0.0
C255 C 0.34004 0.30291 0.31637 0.0
C256 C 0.30693 0.27649 0.37983 0.0
C257 C 0.29943 0.29995 0.30065 0.0
C258 C 0.26268 0.28481 0.32379 0.0
C259 C 0.22895 0.25582 0.38568 0.0
C260 C 0.23169 0.24246 0.42476 0.0
C261 C 0.26605 0.27272 0.36321 0.0
C262 C 0.27247 0.2476 0.44179 0.0
C263 C 0.30982 0.26449 0.41949 0.0
H264 H 0.23706 0.88589 0.78298 0.0
H265 H 0.34872 0.94683 0.71362 0.0
H266 H 0.38397 0.98143 0.77499 0.0
H267 H 0.38519 0.99073 0.84846 0.0
H268 H 0.27323 0.93195 0.91866 0.0
H269 H 0.23617 0.89953 0.85687 0.0
C270 C 0.26867 0.90743 0.78132 0.0
C271 C 0.29043 0.91376 0.74405 0.0
C272 C 0.28897 0.92696 0.81683 0.0
C273 C 0.33158 0.94136 0.74217 0.0
C274 C 0.35178 0.96102 0.77718 0.0
C275 C 0.3524 0.9714 0.85026 0.0
C276 C 0.3321 0.96371 0.88811 0.0
C277 C 0.33113 0.95345 0.81473 0.0
C278 C 0.28989 0.93787 0.88993 0.0
C279 C 0.26853 0.91959 0.8546 0.0
H280 H 0.60002 0.48225 0.83485 0.0
H281 H 0.68459 0.43676 0.76233 0.0
H282 H 0.66732 0.46765 0.70215 0.0
H283 H 0.62499 0.50583 0.6687 0.0
H284 H 0.54251 0.55257 0.74338 0.0
H285 H 0.5616 0.52318 0.80285 0.0
C286 C 0.61536 0.47974 0.80605 0.0
C287 C 0.64421 0.45756 0.80354 0.0
C288 C 0.60501 0.49756 0.7713 0.0
C289 C 0.66289 0.45407 0.76556 0.0
C290 C 0.65267 0.47156 0.7309 0.0
C291 C 0.61129 0.5097 0.69798 0.0
C292 C 0.58206 0.53175 0.70088 0.0
C293 C 0.62322 0.49305 0.73309 0.0
C294 C 0.56516 0.53627 0.7396 0.0
C295 C 0.57607 0.5193 0.77398 0.0
H296 H 0.94412 0.72485 0.25453 0.0
H297 H 0.90483 0.62975 0.3368 0.0
H298 H 0.93372 0.58932 0.29045 0.0
H299 H 0.96929 0.58015 0.22574 0.0
H300 H 1.01225 0.67604 0.14501 0.0
H301 H 0.98243 0.71631 0.19042 0.0
C302 C 0.94216 0.69534 0.26244 0.0
C303 C 0.92239 0.68053 0.29953 0.0
C304 C 0.95893 0.67201 0.23527 0.0
C305 C 0.91998 0.64211 0.30888 0.0
C306 C 0.93643 0.61887 0.28215 0.0
C307 C 0.97197 0.60982 0.21782 0.0
C308 C 0.99162 0.62419 0.18051 0.0
C309 C 0.95578 0.63334 0.24511 0.0
C310 C 0.99538 0.66312 0.1718 0.0
C311 C 0.97894 0.68653 0.19846 0.0
H312 H 0.46859 0.25104 0.27161 0.0
H313 H 0.41261 0.27921 0.16346 0.0
H314 H 0.42575 0.22415 0.1264 0.0
H315 H 0.45281 0.16789 0.12455 0.0
H316 H 0.51641 0.1433 0.22944 0.0
H317 H 0.50026 0.19651 0.26837 0.0
C318 C 0.4597 0.24515 0.23985 0.0
C319 C 0.4399 0.26913 0.22012 0.0
C320 C 0.46806 0.21374 0.21847 0.0
C321 C 0.42843 0.2614 0.17901 0.0
C322 C 0.43556 0.22975 0.15794 0.0
C323 C 0.46237 0.17384 0.15617 0.0
C324 C 0.4844 0.1512 0.17471 0.0
C325 C 0.45502 0.20559 0.17741 0.0
C326 C 0.49843 0.15998 0.21507 0.0
C327 C 0.48952 0.19052 0.23711 0.0
H328 H 0.20261 0.95257 0.6363 0.0
H329 H 0.07226 0.87619 0.64539 0.0
H330 H 0.04494 0.92985 0.62838 0.0
H331 H 0.05915 0.99482 0.6023 0.0
H332 H 0.18765 0.07322 0.59413 0.0
H333 H 0.21594 1.02183 0.61791 0.0
C334 C 0.16828 0.94819 0.63522 0.0
C335 C 0.1391 0.91102 0.64177 0.0
C336 C 0.15303 0.97903 0.62504 0.0
C337 C 0.09485 0.90488 0.64031 0.0
C338 C 0.07938 0.93536 0.63048 0.0
C339 C 0.09286 1.00146 0.60811 0.0
C340 C 0.12099 0.03795 0.5985 0.0
C341 C 0.10822 0.97213 0.62186 0.0
C342 C 0.16544 0.04529 0.60241 0.0
C343 C 0.18147 1.01598 0.61585 0.0
H344 H 0.77374 0.4179 1.0171 0.0
H345 H 0.79113 0.47476 0.90183 0.0
H346 H 0.85907 0.52011 0.92592 0.0
H347 H 0.9163 0.54293 0.97901 0.0
H348 H 0.90241 0.47986 0.08979 0.0
H349 H 0.83177 0.43732 0.06746 0.0
C350 C 0.7923 0.43935 0.99636 0.0
C351 C 0.77586 0.44183 0.95707 0.0
C352 C 0.83289 0.46457 1.00969 0.0
C353 C 0.80123 0.47168 0.93235 0.0
C354 C 0.84085 0.49772 0.94601 0.0
C355 C 0.89776 0.5199 0.99829 0.0
C356 C 0.91495 0.5149 1.03631 0.0
C357 C 0.85728 0.4944 0.98457 0.0
C358 C 0.89041 0.48448 0.06046 0.0
C359 C 0.84979 0.46011 0.04768 0.0
H360 H 0.77176 0.75161 0.4962 0.0
H361 H 0.77949 0.64261 0.44351 0.0
H362 H 0.7132 0.60729 0.47885 0.0
H363 H 0.65293 0.60701 0.52773 0.0
H364 H 0.6518 0.71754 0.58223 0.0
H365 H 0.71544 0.75157 0.54448 0.0
C366 C 0.75997 0.72002 0.49276 0.0
C367 C 0.78209 0.70029 0.46717 0.0
C368 C 0.72235 0.69967 0.51406 0.0
C369 C 0.76389 0.65924 0.46253 0.0
C370 C 0.72581 0.63879 0.48314 0.0
C371 C 0.6666 0.63851 0.53124 0.0
C372 C 0.64688 0.65938 0.55823 0.0
C373 C 0.70466 0.6586 0.50939 0.0
C374 C 0.66569 0.70029 0.56213 0.0
C375 C 0.70239 0.72006 0.54035 0.0
H376 H 0.31838 0.40704 0.25699 0.0
H377 H 0.40184 0.4755 0.16675 0.0
H378 H 0.34529 0.50249 0.14653 0.0
H379 H 0.27057 0.50272 0.15099 0.0
H380 H 0.18595 0.43333 0.24012 0.0
H381 H 0.24456 0.41141 0.26509 0.0
C382 C 0.32416 0.42831 0.23335 0.0
C383 C 0.36389 0.43944 0.2132 0.0
C384 C 0.2913 0.44344 0.2217 0.0
C385 C 0.37133 0.46675 0.18255 0.0
C386 C 0.33903 0.48206 0.17096 0.0
C387 C 0.26499 0.4829 0.17598 0.0
C388 C 0.22378 0.4693 0.19328 0.0
C389 C 0.29862 0.46999 0.18973 0.0
C390 C 0.21736 0.44434 0.22629 0.0
C391 C 0.2508 0.43154 0.24039 0.0
H392 H 0.59316 0.30222 0.95756 0.0
H393 H 0.72273 0.30103 0.97854 0.0
H394 H 0.69485 0.23829 1.01129 0.0
H395 H 0.63239 0.18218 1.03528 0.0
H396 H 0.50401 0.18509 1.01089 0.0
H397 H 0.53271 0.24673 0.97766 0.0
C398 C 0.61574 0.28829 0.96846 0.0
C399 C 0.66046 0.30759 0.96509 0.0
C400 C 0.59946 0.25144 0.98686 0.0
C401 C 0.68824 0.28826 0.98088 0.0
C402 C 0.67221 0.25173 0.99951 0.0
C403 C 0.61075 0.19605 1.02225 0.0
C404 C 0.56568 0.17818 1.02597 0.0
C405 C 0.6277 0.23278 1.00287 0.0
C406 C 0.53864 0.19749 1.00905 0.0
C407 C 0.55507 0.23317 0.98985 0.0
H408 H 0.91376 0.85686 0.41469 0.0
H409 H 0.91703 0.79529 0.52395 0.0
H410 H 0.94971 0.85735 0.56098 0.0
H411 H 0.97481 0.92978 0.5638 0.0
H412 H 0.97171 0.99186 0.45476 0.0
H413 H 0.94195 0.92975 0.41687 0.0
C414 C 0.92219 0.85697 0.44644 0.0
C415 C 0.91254 0.82095 0.4663 0.0
C416 C 0.94072 0.89324 0.46803 0.0
C417 C 0.92352 0.82219 0.50772 0.0
C418 C 0.94226 0.85786 0.52906 0.0
C419 C 0.96759 0.92987 0.53175 0.0
C420 C 0.97537 0.96605 0.51258 0.0
C421 C 0.95042 0.89369 0.50982 0.0
C422 C 0.96607 0.96493 0.47076 0.0
C423 C 0.94898 0.92919 0.44888 0.0
H424 H 0.36962 0.87764 0.63763 0.0
H425 H 0.26484 0.76968 0.62462 0.0
H426 H 0.31588 0.73371 0.61211 0.0
H427 H 0.38876 0.73107 0.62282 0.0
H428 H 0.49255 0.83713 0.64787 0.0
H429 H 0.44376 0.876 0.63852 0.0
C430 C 0.35799 0.84627 0.63152 0.0
C431 C 0.31368 0.82612 0.63352 0.0
C432 C 0.38747 0.82548 0.62758 0.0
C433 C 0.2988 0.78585 0.62373 0.0
C434 C 0.328 0.76518 0.61709 0.0
C435 C 0.4007 0.76281 0.62502 0.0
C436 C 0.4435 0.7816 0.63648 0.0
C437 C 0.37218 0.78437 0.6217 0.0
C438 C 0.45944 0.82248 0.63914 0.0
C439 C 0.43155 0.84448 0.63405 0.0
H440 H 0.71417 0.7994 0.77399 0.0
H441 H 0.70254 0.89706 0.84766 0.0
H442 H 0.74945 0.94259 0.80144 0.0
H443 H 0.80598 0.95394 0.75011 0.0
H444 H 0.82418 0.85636 0.68115 0.0
H445 H 0.76275 0.81146 0.71543 0.0
C446 C 0.72125 0.83068 0.77939 0.0
C447 C 0.70571 0.84479 0.81468 0.0
C448 C 0.75023 0.85668 0.75401 0.0
C449 C 0.71409 0.88534 0.82081 0.0
C450 C 0.74142 0.91146 0.79464 0.0
C451 C 0.79561 0.923 0.74168 0.0
C452 C 0.81978 0.90824 0.71374 0.0
C453 C 0.76154 0.89738 0.76261 0.0
C454 C 0.80631 0.86813 0.70315 0.0
C455 C 0.7713 0.84254 0.72274 0.0
H456 H 0.71664 0.2511 0.4439 0.0
H457 H 0.82264 0.21035 0.40642 0.0
H458 H 0.78281 0.17717 0.34728 0.0
H459 H 0.71947 0.16017 0.30543 0.0
H460 H 0.61509 0.20507 0.33492 0.0
H461 H 0.65231 0.23617 0.39806 0.0
C462 C 0.73092 0.23526 0.42248 0.0
C463 C 0.77205 0.23232 0.43012 0.0
C464 C 0.70809 0.21679 0.38741 0.0
C465 C 0.79052 0.21207 0.40192 0.0
C466 C 0.76791 0.19315 0.36796 0.0
C467 C 0.70466 0.17636 0.32607 0.0
C468 C 0.66464 0.1799 0.31653 0.0
C469 C 0.72677 0.1951 0.36061 0.0
C470 C 0.64588 0.20172 0.34245 0.0
C471 C 0.66724 0.21959 0.37819 0.0
H472 H 0.48961 0.72206 0.38289 0.0
H473 H 0.35424 0.66276 0.39604 0.0
H474 H 0.36943 0.62596 0.45258 0.0
H475 H 0.42192 0.61147 0.50026 0.0
H476 H 0.55719 0.67076 0.48538 0.0
H477 H 0.5416 0.70651 0.42859 0.0
C478 C 0.4634 0.70067 0.39775 0.0
C479 C 0.42073 0.69493 0.38453 0.0
C480 C 0.47252 0.67974 0.43061 0.0
C481 C 0.38733 0.66754 0.40489 0.0
C482 C 0.39611 0.6466 0.43755 0.0
C483 C 0.44794 0.63221 0.48452 0.0
C484 C 0.49092 0.63836 0.49744 0.0
C485 C 0.43861 0.65257 0.45104 0.0
C486 C 0.52401 0.6653 0.47634 0.0
C487 C 0.51503 0.6858 0.44369 0.0
H488 H 0.18488 0.49519 0.90799 0.0
H489 H 0.07522 0.46597 0.828 0.0
H490 H 0.03938 0.50086 0.87393 0.0
H491 H 0.03886 0.54059 0.93711 0.0
H492 H 0.14656 0.56759 1.01914 0.0
H493 H 0.18344 0.53379 0.97257 0.0
C494 C 0.15344 0.49704 0.90032 0.0
C495 C 0.13336 0.47868 0.86371 0.0
C496 C 0.13242 0.51678 0.92765 0.0
C497 C 0.09206 0.4806 0.85512 0.0
C498 C 0.07131 0.50035 0.8817 0.0
C499 C 0.07013 0.53851 0.94512 0.0
C500 C 0.08938 0.55605 0.98228 0.0
C501 C 0.09102 0.51855 0.91814 0.0
C502 C 0.1303 0.55353 0.99156 0.0
C503 C 0.15162 0.53445 0.96459 0.0
H504 H 0.63862 0.89475 0.99815 0.0
H505 H 0.5442 0.8682 0.90248 0.0
H506 H 0.52412 0.92684 0.92191 0.0
H507 H 0.53092 0.98386 0.96958 0.0
H508 H 0.62812 1.01018 0.06328 0.0
H509 H 0.64921 0.95355 0.04166 0.0
C510 C 0.61393 0.90213 0.9814 0.0
C511 C 0.59268 0.87747 0.94922 0.0
C512 C 0.60284 0.93575 0.99268 0.0
C513 C 0.56077 0.88696 0.92755 0.0
C514 C 0.5493 0.92038 0.93872 0.0
C515 C 0.55714 0.97745 0.9847 0.0
C516 C 0.57818 1.00155 1.01771 0.0
C517 C 0.5697 0.94478 0.9717 0.0
C518 C 0.61194 0.99271 1.03726 0.0
C519 C 0.62388 0.96008 1.02514 0.0
H520 H 0.82225 0.16525 0.53767 0.0
H521 H 0.93615 0.26401 0.52182 0.0
H522 H 0.98142 0.22375 0.53722 0.0
H523 H 0.98828 0.1611 0.5569 0.0
H524 H 0.87516 0.06231 0.57268 0.0
H525 H 0.82931 0.10157 0.5539 0.0
C526 C 0.85699 0.17784 0.53748 0.0
C527 C 0.87595 0.21748 0.52907 0.0
C528 C 0.88269 0.15439 0.54534 0.0
C529 C 0.92091 0.23372 0.5292 0.0
C530 C 0.94677 0.21065 0.53737 0.0
C531 C 0.95369 0.14805 0.5548 0.0
C532 C 0.93468 0.1091 0.56477 0.0
C533 C 0.92797 0.17102 0.54537 0.0
C534 C 0.88994 0.0923 0.56396 0.0
C535 C 0.86394 0.11477 0.55381 0.0
H536 H 0.27613 0.77027 0.20102 0.0
H537 H 0.30809 0.66753 0.23419 0.0
H538 H 0.24432 0.62609 0.1982 0.0
H539 H 0.17977 0.61836 0.15577 0.0
H540 H 0.14934 0.72119 0.12056 0.0
H541 H 0.21238 0.76266 0.15778 0.0
C542 C 0.26973 0.73884 0.20023 0.0
C543 C 0.29795 0.72259 0.22078 0.0
C544 C 0.23304 0.71487 0.17856 0.0
C545 C 0.28742 0.68146 0.21962 0.0
C546 C 0.25088 0.65754 0.19853 0.0
C547 C 0.18681 0.64986 0.15596 0.0
C548 C 0.1592 0.66625 0.13478 0.0
C549 C 0.2235 0.67384 0.17764 0.0
C550 C 0.16958 0.70733 0.13594 0.0
C551 C 0.20577 0.73121 0.15753 0.0
H552 H 0.25785 0.46077 0.65133 0.0
H553 H 0.3095 0.46872 0.77222 0.0
H554 H 0.38148 0.50381 0.74692 0.0
H555 H 0.43149 0.52886 0.68873 0.0
H556 H 0.37751 0.52062 0.5685 0.0
H557 H 0.3058 0.48975 0.59506 0.0
C558 C 0.28472 0.47056 0.67232 0.0
C559 C 0.27777 0.46193 0.71382 0.0
C560 C 0.32621 0.4907 0.65746 0.0
C561 C 0.31336 0.4752 0.7403 0.0
C562 C 0.3548 0.49507 0.7257 0.0
C563 C 0.40397 0.52071 0.66847 0.0
C564 C 0.41045 0.52696 0.62634 0.0
C565 C 0.36193 0.50255 0.68412 0.0
C566 C 0.37402 0.51604 0.60083 0.0
C567 C 0.3327 0.49826 0.61604 0.0
H568 H 0.73693 0.77386 0.96898 0.0
H569 H 0.73102 0.7195 0.84968 0.0
H570 H 0.7882 0.69258 0.86817 0.0
H571 H 0.84343 0.68808 0.91739 0.0
H572 H 0.84817 0.74272 1.03649 0.0
H573 H 0.78823 0.76594 1.01899 0.0
C574 C 0.74737 0.75531 0.94735 0.0
C575 C 0.72964 0.74866 0.90807 0.0
C576 C 0.78066 0.74045 0.958 0.0
C577 C 0.74424 0.72517 0.88012 0.0
C578 C 0.77708 0.70991 0.89062 0.0
C579 C 0.83113 0.70496 0.93943 0.0
C580 C 0.85015 0.71362 0.97821 0.0
C581 C 0.79623 0.71807 0.92923 0.0
C582 C 0.8338 0.73535 1.00659 0.0
C583 C 0.79957 0.74872 0.9966 0.0
H584 H 0.37323 0.86971 0.21161 0.0
H585 H 0.48655 0.83405 0.22466 0.0
H586 H 0.53014 0.89387 0.19344 0.0
H587 H 0.53716 0.95675 0.16225 0.0
H588 H 0.4257 0.99515 0.15077 0.0
H589 H 0.38083 0.9345 0.18111 0.0
C590 C 0.40743 0.87497 0.20748 0.0
C591 C 0.42631 0.84694 0.22086 0.0
C592 C 0.4329 0.91023 0.18969 0.0
C593 C 0.4709 0.85485 0.21532 0.0
C594 C 0.496 0.88918 0.19723 0.0
C595 C 0.50303 0.95199 0.16637 0.0
C596 C 0.48503 0.98082 0.15403 0.0
C597 C 0.47751 0.91717 0.18435 0.0
C598 C 0.44065 0.97379 0.15992 0.0
C599 C 0.41491 0.93893 0.17729 0.0
H600 H 0.09801 0.31352 0.72232 0.0
H601 H 0.22601 0.33136 0.6747 0.0
H602 H 0.20194 0.26821 0.63967 0.0
H603 H 0.14516 0.20579 0.62251 0.0
H604 H 0.01984 0.1837 0.67594 0.0
H605 H 0.04235 0.24928 0.70873 0.0
C606 C 0.1211 0.30379 0.70479 0.0
C607 C 0.16406 0.32905 0.70116 0.0
C608 C 0.10748 0.26578 0.68561 0.0
C609 C 0.19247 0.31459 0.67752 0.0
C610 C 0.17885 0.27765 0.6576 0.0
C611 C 0.12291 0.21525 0.64163 0.0
C612 C 0.08089 0.18952 0.64699 0.0
C613 C 0.13651 0.25285 0.66136 0.0
C614 C 0.05249 0.20251 0.67171 0.0
C615 C 0.06539 0.24022 0.69036 0.0
H616 H 0.73195 0.31433 0.54333 0.0
H617 H 0.82416 0.41334 0.60258 0.0
H618 H 0.76603 0.43752 0.62761 0.0
H619 H 0.69172 0.43741 0.61914 0.0
H620 H 0.60157 0.34225 0.55202 0.0
H621 H 0.65512 0.30822 0.54574 0.0
C622 C 0.7389 0.34062 0.56263 0.0
C623 C 0.78155 0.3627 0.57078 0.0
C624 C 0.7056 0.35484 0.57548 0.0
C625 C 0.7911 0.39647 0.59584 0.0
C626 C 0.75799 0.41019 0.61002 0.0
C627 C 0.68362 0.40878 0.60399 0.0
C628 C 0.64346 0.39299 0.58479 0.0
C629 C 0.71543 0.39073 0.59805 0.0
C630 C 0.6325 0.35527 0.56663 0.0
C631 C 0.66332 0.33602 0.56249 0.0
loop_
_geom_bond_atom_site_label_1
_geom_bond_atom_site_label_2
_geom_bond_distance
_geom_bond_site_symmetry_2
_ccdc_geom_bond_type
H0 C3 0.929 . S
H1 C6 0.929 . S
H2 C8 0.930 . S
C3 H0 0.929 . S
C3 C4 1.398 . S
C3 C5 1.396 . S
C4 C3 1.398 . S
C4 C8 1.407 . S
C5 C3 1.396 . S
C5 C6 1.394 . S
C6 H1 0.929 . S
C6 C5 1.394 . S
C6 C7 1.382 . S
C7 C6 1.382 . S
C7 C8 1.392 . S
C7 N9 1.420 . S
C8 H2 0.930 . S
C8 C4 1.407 . S
C8 C7 1.392 . S
N9 C7 1.420 . S
N9 C10 1.244 . S
C10 N9 1.244 . S
H11 C14 0.929 . S
H12 C17 0.929 . S
H13 C19 0.930 . S
C14 H11 0.929 . S
C14 C15 1.398 . S
C14 C16 1.396 . S
C15 C14 1.398 . S
C15 C19 1.407 . S
C16 C14 1.396 . S
C16 C17 1.394 . S
C17 H12 0.929 . S
C17 C16 1.394 . S
C17 C18 1.382 . S
C18 C17 1.382 . S
C18 C19 1.392 . S
C18 N20 1.420 . S
C19 H13 0.930 . S
C19 C15 1.407 . S
C19 C18 1.392 . S
N20 C18 1.420 . S
N20 C21 1.244 . S
C21 N20 1.244 . S
H22 C25 0.929 . S
H23 C28 0.929 . S
H24 C30 0.930 . S
C25 H22 0.929 . S
C25 C26 1.398 . S
C25 C27 1.396 . S
C26 C25 1.398 . S
C26 C30 1.407 . S
C27 C25 1.396 . S
C27 C28 1.394 . S
C28 H23 0.929 . S
C28 C27 1.394 . S
C28 C29 1.382 . S
C29 C28 1.382 . S
C29 C30 1.392 . S
C29 N31 1.420 . S
C30 H24 0.930 . S
C30 C26 1.407 . S
C30 C29 1.392 . S
N31 C29 1.420 . S
N31 C32 1.244 . S
C32 N31 1.244 . S
H33 C36 0.929 . S
H34 C39 0.929 . S
H35 C41 0.930 . S
C36 H33 0.929 . S
C36 C37 1.398 . S
C36 C38 1.396 . S
C37 C36 1.398 . S
C37 C41 1.407 . S
C38 C36 1.396 . S
C38 C39 1.394 . S
C39 H34 0.929 . S
C39 C38 1.394 . S
C39 C40 1.382 . S
C40 C39 1.382 . S
C40 C41 1.392 . S
C40 N42 1.420 . S
C41 H35 0.930 . S
C41 C37 1.407 . S
C41 C40 1.392 . S
N42 C40 1.420 . S
N42 C43 1.244 . S
C43 N42 1.244 . S
H44 C47 0.929 . S
H45 C50 0.929 . S
H46 C52 0.930 . S
C47 H44 0.929 . S
C47 C48 1.398 . S
C47 C49 1.396 . S
C48 C47 1.398 . S
C48 C52 1.407 . S
C49 C47 1.396 . S
C49 C50 1.394 . S
C50 H45 0.929 . S
C50 C49 1.394 . S
C50 C51 1.382 . S
C51 C50 1.382 . S
C51 C52 1.392 . S
C51 N53 1.420 . S
C52 H46 0.930 . S
C52 C48 1.407 . S
C52 C51 1.392 . S
N53 C51 1.420 . S
N53 C54 1.244 . S
C54 N53 1.244 . S
H55 C58 0.929 . S
H56 C61 0.929 . S
H57 C63 0.930 . S
C58 H55 0.929 . S
C58 C59 1.398 . S
C58 C60 1.396 . S
C59 C58 1.398 . S
C59 C63 1.407 . S
C60 C58 1.396 . S
C60 C61 1.394 . S
C61 H56 0.929 . S
C61 C60 1.394 . S
C61 C62 1.382 . S
C62 C61 1.382 . S
C62 C63 1.392 . S
C62 N64 1.420 . S
C63 H57 0.930 . S
C63 C59 1.407 . S
C63 C62 1.392 . S
N64 C62 1.420 . S
N64 C65 1.244 . S
C65 N64 1.244 . S
H66 C69 0.929 . S
H67 C72 0.929 . S
H68 C74 0.930 . S
C69 H66 0.929 . S
C69 C70 1.398 . S
C69 C71 1.396 . S
C70 C69 1.398 . S
C70 C74 1.407 . S
C71 C69 1.396 . S
C71 C72 1.394 . S
C72 H67 0.929 . S
C72 C71 1.394 . S
C72 C73 1.382 . S
C73 C72 1.382 . S
C73 C74 1.392 . S
C73 N75 1.420 . S
C74 H68 0.930 . S
C74 C70 1.407 . S
C74 C73 1.392 . S
N75 C73 1.420 . S
N75 C76 1.244 . S
C76 N75 1.244 . S
H77 C80 0.929 . S
H78 C83 0.929 . S
H79 C85 0.930 . S
C80 H77 0.929 . S
C80 C81 1.398 . S
C80 C82 1.396 . S
C81 C80 1.398 . S
C81 C85 1.407 . S
C82 C80 1.396 . S
C82 C83 1.394 . S
C83 H78 0.929 . S
C83 C82 1.394 . S
C83 C84 1.382 . S
C84 C83 1.382 . S
C84 C85 1.392 . S
C84 N86 1.420 . S
C85 H79 0.930 . S
C85 C81 1.407 . S
C85 C84 1.392 . S
N86 C84 1.420 . S
N86 C87 1.244 . S
C87 N86 1.244 . S
Ho88 C91 2.811 . S
Ho88 O108 2.322 . S
Ho88 O110 2.378 . S
Ho88 O111 2.524 . S
Ho88 O112 2.381 . S
Ho88 O113 2.669 . S
Ho88 O115 2.346 1_445 S
Ho88 O119 2.305 1_455 S
Ho89 C100 2.811 1_545 S
Ho89 O109 2.346 1_655 S
Ho89 O113 2.305 1_655 S
Ho89 O114 2.322 1_545 S
Ho89 O116 2.378 1_545 S
Ho89 O117 2.524 1_545 S
Ho89 O118 2.381 . S
Ho89 O119 2.669 . S
C90 O108 1.259 . S
C90 O109 1.268 . S
C91 Ho88 2.811 . S
C91 C92 1.488 . S
C91 O110 1.215 . S
C91 O111 1.289 . S
C92 C91 1.488 . S
C92 C93 1.348 . S
C92 C97 1.413 . S
C93 C92 1.348 . S
C93 C94 1.442 . S
C93 H120 0.930 . S
C94 C93 1.442 . S
C94 C95 1.381 . S
C94 H121 0.931 . S
C95 C94 1.381 . S
C95 C96 1.321 . S
C96 C95 1.321 . S
C96 C97 1.403 . S
C96 H122 0.934 . S
C97 C92 1.413 . S
C97 C96 1.403 . S
C97 H123 0.930 . S
C98 O112 1.275 1_565 S
C98 O113 1.256 1_565 S
C99 O114 1.259 . S
C99 O115 1.268 . S
C100 Ho89 2.811 1_565 S
C100 C101 1.488 . S
C100 O116 1.215 . S
C100 O117 1.289 . S
C101 C100 1.488 . S
C101 C102 1.348 . S
C101 C106 1.413 . S
C102 C101 1.348 . S
C102 C103 1.442 . S
C102 H124 0.930 . S
C103 C102 1.442 . S
C103 C104 1.381 . S
C103 H125 0.931 . S
C104 C103 1.381 . S
C104 C105 1.321 . S
C105 C104 1.321 . S
C105 C106 1.403 . S
C105 H126 0.934 . S
C106 C101 1.413 . S
C106 C105 1.403 . S
C106 H127 0.930 . S
C107 O118 1.275 . S
C107 O119 1.256 . S
O108 Ho88 2.322 . S
O108 C90 1.259 . S
O109 Ho89 2.346 1_455 S
O109 C90 1.268 . S
O110 Ho88 2.378 . S
O110 C91 1.215 . S
O111 Ho88 2.524 . S
O111 C91 1.289 . S
O112 Ho88 2.381 . S
O112 C98 1.275 1_545 S
O113 Ho88 2.669 . S
O113 Ho89 2.305 1_455 S
O113 C98 1.256 1_545 S
O114 Ho89 2.322 1_565 S
O114 C99 1.259 . S
O115 Ho88 2.346 1_665 S
O115 C99 1.268 . S
O116 Ho89 2.378 1_565 S
O116 C100 1.215 . S
O117 Ho89 2.524 1_565 S
O117 C100 1.289 . S
O118 Ho89 2.381 . S
O118 C107 1.275 . S
O119 Ho88 2.305 1_655 S
O119 Ho89 2.669 . S
O119 C107 1.256 . S
H120 C93 0.930 . S
H121 C94 0.931 . S
H122 C96 0.934 . S
H123 C97 0.930 . S
H124 C102 0.930 . S
H125 C103 0.931 . S
H126 C105 0.934 . S
H127 C106 0.930 . S
Ho128 C131 2.811 . S
Ho128 O148 2.322 . S
Ho128 O150 2.378 . S
Ho128 O151 2.524 . S
Ho128 O152 2.381 1_545 S
Ho128 O153 2.669 1_545 S
Ho128 O155 2.346 1_545 S
Ho128 O159 2.305 . S
Ho129 C140 2.811 1_544 S
Ho129 O149 2.346 . S
Ho129 O153 2.305 1_545 S
Ho129 O154 2.322 1_554 S
Ho129 O156 2.378 1_554 S
Ho129 O157 2.524 1_544 S
Ho129 O158 2.381 1_554 S
Ho129 O159 2.669 . S
C130 O148 1.259 . S
C130 O149 1.268 . S
C131 Ho128 2.811 . S
C131 C132 1.488 . S
C131 O150 1.215 . S
C131 O151 1.289 . S
C132 C131 1.488 . S
C132 C133 1.348 . S
C132 C137 1.413 . S
C133 C132 1.348 . S
C133 C134 1.442 . S
C133 H160 0.930 . S
C134 C133 1.442 . S
C134 C135 1.381 . S
C134 H161 0.931 . S
C135 C134 1.381 . S
C135 C136 1.321 . S
C136 C135 1.321 . S
C136 C137 1.403 . S
C136 H162 0.934 . S
C137 C132 1.413 . S
C137 C136 1.403 . S
C137 H163 0.930 . S
C138 O152 1.275 . S
C138 O153 1.256 . S
C139 O154 1.259 1_564 S
C139 O155 1.268 . S
C140 Ho129 2.811 1_566 S
C140 C141 1.488 . S
C140 O156 1.215 1_565 S
C140 O157 1.289 . S
C141 C140 1.488 . S
C141 C142 1.348 . S
C141 C146 1.413 . S
C142 C141 1.348 . S
C142 C143 1.442 . S
C142 H164 0.930 . S
C143 C142 1.442 . S
C143 C144 1.381 . S
C143 H165 0.931 . S
C144 C143 1.381 . S
C144 C145 1.321 . S
C145 C144 1.321 . S
C145 C146 1.403 . S
C145 H166 0.934 . S
C146 C141 1.413 . S
C146 C145 1.403 . S
C146 H167 0.913 1_565 S
C147 O158 1.275 1_554 S
C147 O159 1.256 . S
O148 Ho128 2.322 . S
O148 C130 1.259 . S
O149 Ho129 2.346 . S
O149 C130 1.268 . S
O150 Ho128 2.378 . S
O150 C131 1.215 . S
O151 Ho128 2.524 . S
O151 C131 1.289 . S
O152 Ho128 2.381 1_565 S
O152 C138 1.275 . S
O153 Ho128 2.669 1_565 S
O153 Ho129 2.305 1_565 S
O153 C138 1.256 . S
O154 Ho129 2.322 1_556 S
O154 C139 1.259 1_546 S
O155 Ho128 2.346 1_565 S
O155 C139 1.268 . S
O156 Ho129 2.378 1_556 S
O156 C140 1.215 1_545 S
O157 Ho129 2.524 1_566 S
O157 C140 1.289 . S
O158 Ho129 2.381 1_556 S
O158 C147 1.275 1_556 S
O159 Ho128 2.305 . S
O159 Ho129 2.669 . S
O159 C147 1.256 . S
H160 C133 0.930 . S
H161 C134 0.931 . S
H162 C136 0.934 . S
H163 C137 0.930 . S
H164 C142 0.930 . S
H165 C143 0.931 . S
H166 C145 0.934 . S
H167 C146 0.913 1_545 S
Ho168 C171 2.811 . S
Ho168 O188 2.322 . S
Ho168 O190 2.378 . S
Ho168 O191 2.524 . S
Ho168 O192 2.381 . S
Ho168 O193 2.669 . S
Ho168 O195 2.346 . S
Ho168 O199 2.305 . S
Ho169 C180 2.811 . S
Ho169 O189 2.346 . S
Ho169 O193 2.305 . S
Ho169 O194 2.322 . S
Ho169 O196 2.378 . S
Ho169 O197 2.524 . S
Ho169 O198 2.381 . S
Ho169 O199 2.669 . S
C170 O188 1.259 . S
C170 O189 1.268 . S
C171 Ho168 2.811 . S
C171 C172 1.488 . S
C171 O190 1.215 . S
C171 O191 1.289 . S
C172 C171 1.488 . S
C172 C173 1.348 . S
C172 C177 1.413 . S
C173 C172 1.348 . S
C173 C174 1.442 . S
C173 H200 0.930 . S
C174 C173 1.442 . S
C174 C175 1.381 . S
C174 H201 0.931 . S
C175 C174 1.381 . S
C175 C176 1.321 . S
C176 C175 1.321 . S
C176 C177 1.403 . S
C176 H202 0.934 . S
C177 C172 1.413 . S
C177 C176 1.403 . S
C177 H203 0.930 . S
C178 O192 1.275 . S
C178 O193 1.256 . S
C179 O194 1.259 . S
C179 O195 1.268 . S
C180 Ho169 2.811 . S
C180 C181 1.488 . S
C180 O196 1.215 . S
C180 O197 1.289 . S
C181 C180 1.488 . S
C181 C182 1.348 . S
C181 C186 1.413 . S
C182 C181 1.348 . S
C182 C183 1.442 . S
C182 H204 0.930 . S
C183 C182 1.442 . S
C183 C184 1.381 . S
C183 H205 0.931 . S
C184 C183 1.381 . S
C184 C185 1.321 . S
C185 C184 1.321 . S
C185 C186 1.403 . S
C185 H206 0.934 . S
C186 C181 1.413 . S
C186 C185 1.403 . S
C186 H207 0.930 . S
C187 O198 1.275 . S
C187 O199 1.256 . S
O188 Ho168 2.322 . S
O188 C170 1.259 . S
O189 Ho169 2.346 . S
O189 C170 1.268 . S
O190 Ho168 2.378 . S
O190 C171 1.215 . S
O191 Ho168 2.524 . S
O191 C171 1.289 . S
O192 Ho168 2.381 . S
O192 C178 1.275 . S
O193 Ho168 2.669 . S
O193 Ho169 2.305 . S
O193 C178 1.256 . S
O194 Ho169 2.322 . S
O194 C179 1.259 . S
O195 Ho168 2.346 . S
O195 C179 1.268 . S
O196 Ho169 2.378 . S
O196 C180 1.215 . S
O197 Ho169 2.524 . S
O197 C180 1.289 . S
O198 Ho169 2.381 . S
O198 C187 1.275 . S
O199 Ho168 2.305 . S
O199 Ho169 2.669 . S
O199 C187 1.256 . S
H200 C173 0.930 . S
H201 C174 0.931 . S
H202 C176 0.934 . S
H203 C177 0.930 . S
H204 C182 0.930 . S
H205 C183 0.931 . S
H206 C185 0.934 . S
H207 C186 0.930 . S
Ho208 C211 2.811 . S
Ho208 O228 2.322 . S
Ho208 O230 2.378 . S
Ho208 O231 2.524 . S
Ho208 O232 2.381 . S
Ho208 O233 2.669 . S
Ho208 O235 2.346 1_455 S
Ho208 O239 2.305 1_554 S
Ho209 C220 2.811 1_455 S
Ho209 O229 2.346 1_556 S
Ho209 O233 2.305 1_556 S
Ho209 O234 2.322 1_455 S
Ho209 O236 2.378 1_455 S
Ho209 O237 2.524 1_455 S
Ho209 O238 2.381 . S
Ho209 O239 2.669 . S
C210 O228 1.259 . S
C210 O229 1.268 . S
C211 Ho208 2.811 . S
C211 C212 1.488 . S
C211 O230 1.215 . S
C211 O231 1.289 . S
C212 C211 1.488 . S
C212 C213 1.348 . S
C212 C217 1.413 . S
C213 C212 1.348 . S
C213 C214 1.442 . S
C213 H240 0.930 . S
C214 C213 1.442 . S
C214 C215 1.381 . S
C214 H241 0.931 . S
C215 C214 1.381 . S
C215 C216 1.321 . S
C216 C215 1.321 . S
C216 C217 1.403 . S
C216 H242 0.934 . S
C217 C212 1.413 . S
C217 C216 1.403 . S
C217 H243 0.930 . S
C218 O232 1.275 1_655 S
C218 O233 1.256 1_655 S
C219 O234 1.259 . S
C219 O235 1.268 1_556 S
C220 Ho209 2.811 1_655 S
C220 C221 1.488 . S
C220 O236 1.215 . S
C220 O237 1.289 . S
C221 C220 1.488 . S
C221 C222 1.348 . S
C221 C226 1.413 . S
C222 C221 1.348 . S
C222 C223 1.442 . S
C222 H244 0.930 . S
C223 C222 1.442 . S
C223 C224 1.381 . S
C223 H245 0.931 . S
C224 C223 1.381 . S
C224 C225 1.321 . S
C225 C224 1.321 . S
C225 C226 1.403 . S
C225 H246 0.934 . S
C226 C221 1.413 . S
C226 C225 1.403 . S
C226 H247 0.930 . S
C227 O238 1.275 . S
C227 O239 1.256 . S
O228 Ho208 2.322 . S
O228 C210 1.259 . S
O229 Ho209 2.346 1_554 S
O229 C210 1.268 . S
O230 Ho208 2.378 . S
O230 C211 1.215 . S
O231 Ho208 2.524 . S
O231 C211 1.289 . S
O232 Ho208 2.381 . S
O232 C218 1.275 1_455 S
O233 Ho208 2.669 . S
O233 Ho209 2.305 1_554 S
O233 C218 1.256 1_455 S
O234 Ho209 2.322 1_655 S
O234 C219 1.259 . S
O235 Ho208 2.346 1_655 S
O235 C219 1.268 1_554 S
O236 Ho209 2.378 1_655 S
O236 C220 1.215 . S
O237 Ho209 2.524 1_655 S
O237 C220 1.289 . S
O238 Ho209 2.381 . S
O238 C227 1.275 . S
O239 Ho208 2.305 1_556 S
O239 Ho209 2.669 . S
O239 C227 1.256 . S
H240 C213 0.930 . S
H241 C214 0.931 . S
H242 C216 0.934 . S
H243 C217 0.930 . S
H244 C222 0.930 . S
H245 C223 0.931 . S
H246 C225 0.934 . S
H247 C226 0.930 . S
H248 C254 0.930 . S
H249 C257 0.930 . S
H250 C258 0.930 . S
H251 C259 0.930 . S
H252 C262 0.930 . S
H253 C263 0.930 . S
C254 H248 0.930 . S
C254 C255 1.355 . S
C254 C256 1.415 . S
C255 C254 1.355 . S
C255 C257 1.419 . S
C256 C254 1.415 . S
C256 C261 1.425 . S
C256 C263 1.409 . S
C257 H249 0.930 . S
C257 C255 1.419 . S
C257 C258 1.362 . S
C258 H250 0.930 . S
C258 C257 1.362 . S
C258 C261 1.409 . S
C259 H251 0.930 . S
C259 C260 1.355 . S
C259 C261 1.415 . S
C260 C259 1.355 . S
C260 C262 1.419 . S
C261 C256 1.425 . S
C261 C258 1.409 . S
C261 C259 1.415 . S
C262 H252 0.930 . S
C262 C260 1.419 . S
C262 C263 1.362 . S
C263 H253 0.930 . S
C263 C256 1.409 . S
C263 C262 1.362 . S
H264 C270 0.930 . S
H265 C273 0.930 . S
H266 C274 0.930 . S
H267 C275 0.930 . S
H268 C278 0.930 . S
H269 C279 0.930 . S
C270 H264 0.930 . S
C270 C271 1.355 . S
C270 C272 1.415 . S
C271 C270 1.355 . S
C271 C273 1.419 . S
C272 C270 1.415 . S
C272 C277 1.425 . S
C272 C279 1.409 . S
C273 H265 0.930 . S
C273 C271 1.419 . S
C273 C274 1.362 . S
C274 H266 0.930 . S
C274 C273 1.362 . S
C274 C277 1.409 . S
C275 H267 0.930 . S
C275 C276 1.355 . S
C275 C277 1.415 . S
C276 C275 1.355 . S
C276 C278 1.419 . S
C277 C272 1.425 . S
C277 C274 1.409 . S
C277 C275 1.415 . S
C278 H268 0.930 . S
C278 C276 1.419 . S
C278 C279 1.362 . S
C279 H269 0.930 . S
C279 C272 1.409 . S
C279 C278 1.362 . S
H280 C286 0.930 . S
H281 C289 0.930 . S
H282 C290 0.930 . S
H283 C291 0.930 . S
H284 C294 0.930 . S
H285 C295 0.930 . S
C286 H280 0.930 . S
C286 C287 1.355 . S
C286 C288 1.415 . S
C287 C286 1.355 . S
C287 C289 1.419 . S
C288 C286 1.415 . S
C288 C293 1.425 . S
C288 C295 1.409 . S
C289 H281 0.930 . S
C289 C287 1.419 . S
C289 C290 1.362 . S
C290 H282 0.930 . S
C290 C289 1.362 . S
C290 C293 1.409 . S
C291 H283 0.930 . S
C291 C292 1.355 . S
C291 C293 1.415 . S
C292 C291 1.355 . S
C292 C294 1.419 . S
C293 C288 1.425 . S
C293 C290 1.409 . S
C293 C291 1.415 . S
C294 H284 0.930 . S
C294 C292 1.419 . S
C294 C295 1.362 . S
C295 H285 0.930 . S
C295 C288 1.409 . S
C295 C294 1.362 . S
H296 C302 0.930 . S
H297 C305 0.930 . S
H298 C306 0.930 . S
H299 C307 0.930 . S
H300 C310 0.930 . S
H301 C311 0.930 . S
C302 H296 0.930 . S
C302 C303 1.355 . S
C302 C304 1.415 . S
C303 C302 1.355 . S
C303 C305 1.419 . S
C304 C302 1.415 . S
C304 C309 1.425 . S
C304 C311 1.409 . S
C305 H297 0.930 . S
C305 C303 1.419 . S
C305 C306 1.362 . S
C306 H298 0.930 . S
C306 C305 1.362 . S
C306 C309 1.409 . S
C307 H299 0.930 . S
C307 C308 1.355 . S
C307 C309 1.415 . S
C308 C307 1.355 . S
C308 C310 1.419 . S
C309 C304 1.425 . S
C309 C306 1.409 . S
C309 C307 1.415 . S
C310 H300 0.930 . S
C310 C308 1.419 . S
C310 C311 1.362 . S
C311 H301 0.930 . S
C311 C304 1.409 . S
C311 C310 1.362 . S
H312 C318 0.930 . S
H313 C321 0.930 . S
H314 C322 0.930 . S
H315 C323 0.930 . S
H316 C326 0.930 . S
H317 C327 0.930 . S
C318 H312 0.930 . S
C318 C319 1.355 . S
C318 C320 1.415 . S
C319 C318 1.355 . S
C319 C321 1.419 . S
C320 C318 1.415 . S
C320 C325 1.425 . S
C320 C327 1.409 . S
C321 H313 0.930 . S
C321 C319 1.419 . S
C321 C322 1.362 . S
C322 H314 0.930 . S
C322 C321 1.362 . S
C322 C325 1.409 . S
C323 H315 0.930 . S
C323 C324 1.355 . S
C323 C325 1.415 . S
C324 C323 1.355 . S
C324 C326 1.419 . S
C325 C320 1.425 . S
C325 C322 1.409 . S
C325 C323 1.415 . S
C326 H316 0.930 . S
C326 C324 1.419 . S
C326 C327 1.362 . S
C327 H317 0.930 . S
C327 C320 1.409 . S
C327 C326 1.362 . S
H328 C334 0.930 . S
H329 C337 0.930 . S
H330 C338 0.930 . S
H331 C339 0.930 . S
H332 C342 0.930 . S
H333 C343 0.930 . S
C334 H328 0.930 . S
C334 C335 1.355 . S
C334 C336 1.415 . S
C335 C334 1.355 . S
C335 C337 1.419 . S
C336 C334 1.415 . S
C336 C341 1.425 . S
C336 C343 1.409 . S
C337 H329 0.930 . S
C337 C335 1.419 . S
C337 C338 1.362 . S
C338 H330 0.930 . S
C338 C337 1.362 . S
C338 C341 1.409 . S
C339 H331 0.930 . S
C339 C340 1.355 . S
C339 C341 1.415 . S
C340 C339 1.355 . S
C340 C342 1.419 1_565 S
C341 C336 1.425 . S
C341 C338 1.409 . S
C341 C339 1.415 . S
C342 H332 0.930 . S
C342 C340 1.419 1_545 S
C342 C343 1.362 1_545 S
C343 H333 0.930 . S
C343 C336 1.409 . S
C343 C342 1.362 1_565 S
H344 C350 0.930 . S
H345 C353 0.930 . S
H346 C354 0.930 . S
H347 C355 0.930 . S
H348 C358 0.930 . S
H349 C359 0.930 1_554 S
C350 H344 0.930 . S
C350 C351 1.355 . S
C350 C352 1.415 . S
C351 C350 1.355 . S
C351 C353 1.419 . S
C352 C350 1.415 . S
C352 C357 1.425 . S
C352 C359 1.409 . S
C353 H345 0.930 . S
C353 C351 1.419 . S
C353 C354 1.362 . S
C354 H346 0.930 . S
C354 C353 1.362 . S
C354 C357 1.409 . S
C355 H347 0.930 . S
C355 C356 1.355 . S
C355 C357 1.415 . S
C356 C355 1.355 . S
C356 C358 1.419 1_556 S
C357 C352 1.425 . S
C357 C354 1.409 . S
C357 C355 1.415 . S
C358 H348 0.930 . S
C358 C356 1.419 1_554 S
C358 C359 1.362 1_554 S
C359 H349 0.930 1_556 S
C359 C352 1.409 . S
C359 C358 1.362 1_556 S
H360 C366 0.930 . S
H361 C369 0.930 . S
H362 C370 0.930 . S
H363 C371 0.930 . S
H364 C374 0.930 . S
H365 C375 0.930 . S
C366 H360 0.930 . S
C366 C367 1.355 . S
C366 C368 1.415 . S
C367 C366 1.355 . S
C367 C369 1.419 . S
C368 C366 1.415 . S
C368 C373 1.425 . S
C368 C375 1.409 . S
C369 H361 0.930 . S
C369 C367 1.419 . S
C369 C370 1.362 . S
C370 H362 0.930 . S
C370 C369 1.362 . S
C370 C373 1.409 . S
C371 H363 0.930 . S
C371 C372 1.355 . S
C371 C373 1.415 . S
C372 C371 1.355 . S
C372 C374 1.419 . S
C373 C368 1.425 . S
C373 C370 1.409 . S
C373 C371 1.415 . S
C374 H364 0.930 . S
C374 C372 1.419 . S
C374 C375 1.362 . S
C375 H365 0.930 . S
C375 C368 1.409 . S
C375 C374 1.362 . S
H376 C382 0.930 . S
H377 C385 0.930 . S
H378 C386 0.930 . S
H379 C387 0.930 . S
H380 C390 0.930 . S
H381 C391 0.930 . S
C382 H376 0.930 . S
C382 C383 1.355 . S
C382 C384 1.415 . S
C383 C382 1.355 . S
C383 C385 1.419 . S
C384 C382 1.415 . S
C384 C389 1.425 . S
C384 C391 1.409 . S
C385 H377 0.930 . S
C385 C383 1.419 . S
C385 C386 1.362 . S
C386 H378 0.930 . S
C386 C385 1.362 . S
C386 C389 1.409 . S
C387 H379 0.930 . S
C387 C388 1.355 . S
C387 C389 1.415 . S
C388 C387 1.355 . S
C388 C390 1.419 . S
C389 C384 1.425 . S
C389 C386 1.409 . S
C389 C387 1.415 . S
C390 H380 0.930 . S
C390 C388 1.419 . S
C390 C391 1.362 . S
C391 H381 0.930 . S
C391 C384 1.409 . S
C391 C390 1.362 . S
H392 C398 0.930 . S
H393 C401 0.930 . S
H394 C402 0.930 . S
H395 C403 0.930 1_554 S
H396 C406 0.930 . S
H397 C407 0.930 . S
C398 H392 0.930 . S
C398 C399 1.355 . S
C398 C400 1.415 . S
C399 C398 1.355 . S
C399 C401 1.419 . S
C400 C398 1.415 . S
C400 C405 1.425 . S
C400 C407 1.409 . S
C401 H393 0.930 . S
C401 C399 1.419 . S
C401 C402 1.362 . S
C402 H394 0.930 . S
C402 C401 1.362 . S
C402 C405 1.409 . S
C403 H395 0.930 1_556 S
C403 C404 1.355 . S
C403 C405 1.415 . S
C404 C403 1.355 . S
C404 C406 1.419 . S
C405 C400 1.425 . S
C405 C402 1.409 . S
C405 C403 1.415 . S
C406 H396 0.930 . S
C406 C404 1.419 . S
C406 C407 1.362 . S
C407 H397 0.930 . S
C407 C400 1.409 . S
C407 C406 1.362 . S
H408 C414 0.930 . S
H409 C417 0.930 . S
H410 C418 0.930 . S
H411 C419 0.930 . S
H412 C422 0.930 . S
H413 C423 0.930 . S
C414 H408 0.930 . S
C414 C415 1.355 . S
C414 C416 1.415 . S
C415 C414 1.355 . S
C415 C417 1.419 . S
C416 C414 1.415 . S
C416 C421 1.425 . S
C416 C423 1.409 . S
C417 H409 0.930 . S
C417 C415 1.419 . S
C417 C418 1.362 . S
C418 H410 0.930 . S
C418 C417 1.362 . S
C418 C421 1.409 . S
C419 H411 0.930 . S
C419 C420 1.355 . S
C419 C421 1.415 . S
C420 C419 1.355 . S
C420 C422 1.419 . S
C421 C416 1.425 . S
C421 C418 1.409 . S
C421 C419 1.415 . S
C422 H412 0.930 . S
C422 C420 1.419 . S
C422 C423 1.362 . S
C423 H413 0.930 . S
C423 C416 1.409 . S
C423 C422 1.362 . S
H424 C430 0.930 . S
H425 C433 0.930 . S
H426 C434 0.930 . S
H427 C435 0.930 . S
H428 C438 0.930 . S
H429 C439 0.930 . S
C430 H424 0.930 . S
C430 C431 1.355 . S
C430 C432 1.415 . S
C431 C430 1.355 . S
C431 C433 1.419 . S
C432 C430 1.415 . S
C432 C437 1.425 . S
C432 C439 1.409 . S
C433 H425 0.930 . S
C433 C431 1.419 . S
C433 C434 1.362 . S
C434 H426 0.930 . S
C434 C433 1.362 . S
C434 C437 1.409 . S
C435 H427 0.930 . S
C435 C436 1.355 . S
C435 C437 1.415 . S
C436 C435 1.355 . S
C436 C438 1.419 . S
C437 C432 1.425 . S
C437 C434 1.409 . S
C437 C435 1.415 . S
C438 H428 0.930 . S
C438 C436 1.419 . S
C438 C439 1.362 . S
C439 H429 0.930 . S
C439 C432 1.409 . S
C439 C438 1.362 . S
H440 C446 0.930 . S
H441 C449 0.930 . S
H442 C450 0.930 . S
H443 C451 0.930 . S
H444 C454 0.930 . S
H445 C455 0.930 . S
C446 H440 0.930 . S
C446 C447 1.355 . S
C446 C448 1.415 . S
C447 C446 1.355 . S
C447 C449 1.419 . S
C448 C446 1.415 . S
C448 C453 1.425 . S
C448 C455 1.409 . S
C449 H441 0.930 . S
C449 C447 1.419 . S
C449 C450 1.362 . S
C450 H442 0.930 . S
C450 C449 1.362 . S
C450 C453 1.409 . S
C451 H443 0.930 . S
C451 C452 1.355 . S
C451 C453 1.415 . S
C452 C451 1.355 . S
C452 C454 1.419 . S
C453 C448 1.425 . S
C453 C450 1.409 . S
C453 C451 1.415 . S
C454 H444 0.930 . S
C454 C452 1.419 . S
C454 C455 1.362 . S
C455 H445 0.930 . S
C455 C448 1.409 . S
C455 C454 1.362 . S
H456 C462 0.930 . S
H457 C465 0.930 . S
H458 C466 0.930 . S
H459 C467 0.930 . S
H460 C470 0.930 . S
H461 C471 0.930 . S
C462 H456 0.930 . S
C462 C463 1.355 . S
C462 C464 1.415 . S
C463 C462 1.355 . S
C463 C465 1.419 . S
C464 C462 1.415 . S
C464 C469 1.425 . S
C464 C471 1.409 . S
C465 H457 0.930 . S
C465 C463 1.419 . S
C465 C466 1.362 . S
C466 H458 0.930 . S
C466 C465 1.362 . S
C466 C469 1.409 . S
C467 H459 0.930 . S
C467 C468 1.355 . S
C467 C469 1.415 . S
C468 C467 1.355 . S
C468 C470 1.419 . S
C469 C464 1.425 . S
C469 C466 1.409 . S
C469 C467 1.415 . S
C470 H460 0.930 . S
C470 C468 1.419 . S
C470 C471 1.362 . S
C471 H461 0.930 . S
C471 C464 1.409 . S
C471 C470 1.362 . S
H472 C478 0.930 . S
H473 C481 0.930 . S
H474 C482 0.930 . S
H475 C483 0.930 . S
H476 C486 0.930 . S
H477 C487 0.930 . S
C478 H472 0.930 . S
C478 C479 1.355 . S
C478 C480 1.415 . S
C479 C478 1.355 . S
C479 C481 1.419 . S
C480 C478 1.415 . S
C480 C485 1.425 . S
C480 C487 1.409 . S
C481 H473 0.930 . S
C481 C479 1.419 . S
C481 C482 1.362 . S
C482 H474 0.930 . S
C482 C481 1.362 . S
C482 C485 1.409 . S
C483 H475 0.930 . S
C483 C484 1.355 . S
C483 C485 1.415 . S
C484 C483 1.355 . S
C484 C486 1.419 . S
C485 C480 1.425 . S
C485 C482 1.409 . S
C485 C483 1.415 . S
C486 H476 0.930 . S
C486 C484 1.419 . S
C486 C487 1.362 . S
C487 H477 0.930 . S
C487 C480 1.409 . S
C487 C486 1.362 . S
H488 C494 0.930 . S
H489 C497 0.930 . S
H490 C498 0.930 . S
H491 C499 0.930 . S
H492 C502 0.930 . S
H493 C503 0.930 . S
C494 H488 0.930 . S
C494 C495 1.355 . S
C494 C496 1.415 . S
C495 C494 1.355 . S
C495 C497 1.419 . S
C496 C494 1.415 . S
C496 C501 1.425 . S
C496 C503 1.409 . S
C497 H489 0.930 . S
C497 C495 1.419 . S
C497 C498 1.362 . S
C498 H490 0.930 . S
C498 C497 1.362 . S
C498 C501 1.409 . S
C499 H491 0.930 . S
C499 C500 1.355 . S
C499 C501 1.415 . S
C500 C499 1.355 . S
C500 C502 1.419 . S
C501 C496 1.425 . S
C501 C498 1.409 . S
C501 C499 1.415 . S
C502 H492 0.930 . S
C502 C500 1.419 . S
C502 C503 1.362 . S
C503 H493 0.930 . S
C503 C496 1.409 . S
C503 C502 1.362 . S
H504 C510 0.930 . S
H505 C513 0.930 . S
H506 C514 0.930 . S
H507 C515 0.930 . S
H508 C518 0.930 . S
H509 C519 0.930 1_554 S
C510 H504 0.930 . S
C510 C511 1.355 . S
C510 C512 1.415 . S
C511 C510 1.355 . S
C511 C513 1.419 . S
C512 C510 1.415 . S
C512 C517 1.425 . S
C512 C519 1.409 . S
C513 H505 0.930 . S
C513 C511 1.419 . S
C513 C514 1.362 . S
C514 H506 0.930 . S
C514 C513 1.362 . S
C514 C517 1.409 . S
C515 H507 0.930 . S
C515 C516 1.355 . S
C515 C517 1.415 . S
C516 C515 1.355 . S
C516 C518 1.419 1_556 S
C517 C512 1.425 . S
C517 C514 1.409 . S
C517 C515 1.415 . S
C518 H508 0.930 . S
C518 C516 1.419 1_554 S
C518 C519 1.362 1_554 S
C519 H509 0.930 1_556 S
C519 C512 1.409 . S
C519 C518 1.362 1_556 S
H520 C526 0.930 . S
H521 C529 0.930 . S
H522 C530 0.930 . S
H523 C531 0.930 . S
H524 C534 0.930 . S
H525 C535 0.930 . S
C526 H520 0.930 . S
C526 C527 1.355 . S
C526 C528 1.415 . S
C527 C526 1.355 . S
C527 C529 1.419 . S
C528 C526 1.415 . S
C528 C533 1.425 . S
C528 C535 1.409 . S
C529 H521 0.930 . S
C529 C527 1.419 . S
C529 C530 1.362 . S
C530 H522 0.930 . S
C530 C529 1.362 . S
C530 C533 1.409 . S
C531 H523 0.930 . S
C531 C532 1.355 . S
C531 C533 1.415 . S
C532 C531 1.355 . S
C532 C534 1.419 . S
C533 C528 1.425 . S
C533 C530 1.409 . S
C533 C531 1.415 . S
C534 H524 0.930 . S
C534 C532 1.419 . S
C534 C535 1.362 . S
C535 H525 0.930 . S
C535 C528 1.409 . S
C535 C534 1.362 . S
H536 C542 0.930 . S
H537 C545 0.930 . S
H538 C546 0.930 . S
H539 C547 0.930 . S
H540 C550 0.930 . S
H541 C551 0.930 . S
C542 H536 0.930 . S
C542 C543 1.355 . S
C542 C544 1.415 . S
C543 C542 1.355 . S
C543 C545 1.419 . S
C544 C542 1.415 . S
C544 C549 1.425 . S
C544 C551 1.409 . S
C545 H537 0.930 . S
C545 C543 1.419 . S
C545 C546 1.362 . S
C546 H538 0.930 . S
C546 C545 1.362 . S
C546 C549 1.409 . S
C547 H539 0.930 . S
C547 C548 1.355 . S
C547 C549 1.415 . S
C548 C547 1.355 . S
C548 C550 1.419 . S
C549 C544 1.425 . S
C549 C546 1.409 . S
C549 C547 1.415 . S
C550 H540 0.930 . S
C550 C548 1.419 . S
C550 C551 1.362 . S
C551 H541 0.930 . S
C551 C544 1.409 . S
C551 C550 1.362 . S
H552 C558 0.930 . S
H553 C561 0.930 . S
H554 C562 0.930 . S
H555 C563 0.930 . S
H556 C566 0.930 . S
H557 C567 0.930 . S
C558 H552 0.930 . S
C558 C559 1.355 . S
C558 C560 1.415 . S
C559 C558 1.355 . S
C559 C561 1.419 . S
C560 C558 1.415 . S
C560 C565 1.425 . S
C560 C567 1.409 . S
C561 H553 0.930 . S
C561 C559 1.419 . S
C561 C562 1.362 . S
C562 H554 0.930 . S
C562 C561 1.362 . S
C562 C565 1.409 . S
C563 H555 0.930 . S
C563 C564 1.355 . S
C563 C565 1.415 . S
C564 C563 1.355 . S
C564 C566 1.419 . S
C565 C560 1.425 . S
C565 C562 1.409 . S
C565 C563 1.415 . S
C566 H556 0.930 . S
C566 C564 1.419 . S
C566 C567 1.362 . S
C567 H557 0.930 . S
C567 C560 1.409 . S
C567 C566 1.362 . S
H568 C574 0.930 . S
H569 C577 0.930 . S
H570 C578 0.930 . S
H571 C579 0.930 . S
H572 C582 0.930 . S
H573 C583 0.930 . S
C574 H568 0.930 . S
C574 C575 1.355 . S
C574 C576 1.415 . S
C575 C574 1.355 . S
C575 C577 1.419 . S
C576 C574 1.415 . S
C576 C581 1.425 . S
C576 C583 1.409 . S
C577 H569 0.930 . S
C577 C575 1.419 . S
C577 C578 1.362 . S
C578 H570 0.930 . S
C578 C577 1.362 . S
C578 C581 1.409 . S
C579 H571 0.930 . S
C579 C580 1.355 . S
C579 C581 1.415 . S
C580 C579 1.355 . S
C580 C582 1.419 . S
C581 C576 1.425 . S
C581 C578 1.409 . S
C581 C579 1.415 . S
C582 H572 0.930 . S
C582 C580 1.419 . S
C582 C583 1.362 . S
C583 H573 0.930 . S
C583 C576 1.409 . S
C583 C582 1.362 . S
H584 C590 0.930 . S
H585 C593 0.930 . S
H586 C594 0.930 . S
H587 C595 0.930 . S
H588 C598 0.930 . S
H589 C599 0.930 . S
C590 H584 0.930 . S
C590 C591 1.355 . S
C590 C592 1.415 . S
C591 C590 1.355 . S
C591 C593 1.419 . S
C592 C590 1.415 . S
C592 C597 1.425 . S
C592 C599 1.409 . S
C593 H585 0.930 . S
C593 C591 1.419 . S
C593 C594 1.362 . S
C594 H586 0.930 . S
C594 C593 1.362 . S
C594 C597 1.409 . S
C595 H587 0.930 . S
C595 C596 1.355 . S
C595 C597 1.415 . S
C596 C595 1.355 . S
C596 C598 1.419 . S
C597 C592 1.425 . S
C597 C594 1.409 . S
C597 C595 1.415 . S
C598 H588 0.930 . S
C598 C596 1.419 . S
C598 C599 1.362 . S
C599 H589 0.930 . S
C599 C592 1.409 . S
C599 C598 1.362 . S
H600 C606 0.930 . S
H601 C609 0.930 . S
H602 C610 0.930 . S
H603 C611 0.930 . S
H604 C614 0.930 . S
H605 C615 0.930 . S
C606 H600 0.930 . S
C606 C607 1.355 . S
C606 C608 1.415 . S
C607 C606 1.355 . S
C607 C609 1.419 . S
C608 C606 1.415 . S
C608 C613 1.425 . S
C608 C615 1.409 . S
C609 H601 0.930 . S
C609 C607 1.419 . S
C609 C610 1.362 . S
C610 H602 0.930 . S
C610 C609 1.362 . S
C610 C613 1.409 . S
C611 H603 0.930 . S
C611 C612 1.355 . S
C611 C613 1.415 . S
C612 C611 1.355 . S
C612 C614 1.419 . S
C613 C608 1.425 . S
C613 C610 1.409 . S
C613 C611 1.415 . S
C614 H604 0.930 . S
C614 C612 1.419 . S
C614 C615 1.362 . S
C615 H605 0.930 . S
C615 C608 1.409 . S
C615 C614 1.362 . S
H616 C622 0.930 . S
H617 C625 0.930 . S
H618 C626 0.930 . S
H619 C627 0.930 . S
H620 C630 0.930 . S
H621 C631 0.930 . S
C622 H616 0.930 . S
C622 C623 1.355 . S
C622 C624 1.415 . S
C623 C622 1.355 . S
C623 C625 1.419 . S
C624 C622 1.415 . S
C624 C629 1.425 . S
C624 C631 1.409 . S
C625 H617 0.930 . S
C625 C623 1.419 . S
C625 C626 1.362 . S
C626 H618 0.930 . S
C626 C625 1.362 . S
C626 C629 1.409 . S
C627 H619 0.930 . S
C627 C628 1.355 . S
C627 C629 1.415 . S
C628 C627 1.355 . S
C628 C630 1.419 . S
C629 C624 1.425 . S
C629 C626 1.409 . S
C629 C627 1.415 . S
C630 H620 0.930 . S
C630 C628 1.419 . S
C630 C631 1.362 . S
C631 H621 0.930 . S
C631 C624 1.409 . S
C631 C630 1.362 . S
C255 C4 1.060 . S
C260 C95 1.132 . S
C271 C16 1.213 . S
C276 C144 1.242 . S
C292 C170 2.078 . S
C287 C32 2.124 . S
C303 C43 2.322 . S
C308 C218 2.279 . S
C324 C130 2.582 . S
C319 C5 2.457 . S
C340 C98 0.409 . S
C335 C21 0.486 . S
C356 C219 1.903 . S
C351 C27 1.957 . S
C372 C187 1.636 . S
C367 C37 1.660 . S
C383 C10 1.452 . S
C388 C215 1.484 . S
C404 C147 2.491 1_556 S
C399 C26 2.586 . S
C415 C38 2.103 . S
C420 C99 2.095 . S
C431 C15 1.195 . S
C436 C184 1.193 . S
C452 C104 1.258 . S
C447 C48 1.196 . S
C463 C59 1.137 . S
C468 C135 1.136 . S
C479 C76 2.473 . S
C484 C179 2.424 . S
C495 C87 2.173 . S
C500 C227 2.152 . S
C511 C54 1.918 . S
C516 C139 2.015 1_556 S
C532 C107 1.329 . S
C527 C60 1.388 . S
C548 C210 1.780 . S
C543 C71 1.836 . S
C564 C178 1.619 . S
C559 C82 1.668 . S
C575 C49 1.665 . S
C580 C224 1.771 . S
C596 C138 2.022 . S
C591 C70 2.073 . S
C612 C90 2.519 . S
C607 C81 2.529 . S
C623 C65 0.998 . S
C628 C175 0.995 . S
