# Generated by pormake.
# Topology hwx, (6,3)-cn, num edge types: 1
# Building blocks:
#     Node 0, Type 0, BuildingBlock: IZENUY_clean_sbu_0, # of connection points: 6
#     Node 1, Type 0, BuildingBlock: IZENUY_clean_sbu_0, # of connection points: 6
#     Node 2, Type 0, BuildingBlock: IZENUY_clean_sbu_0, # of connection points: 6
#     Node 3, Type 0, BuildingBlock: IZENUY_clean_sbu_0, # of connection points: 6
#     Node 4, Type 1, BuildingBlock: QEWDON_clean_linker_0, # of connection points: 3
#     Node 5, Type 1, BuildingBlock: QEWDON_clean_linker_0, # of connection points: 3
#     Node 6, Type 1, BuildingBlock: QEWDON_clean_linker_0, # of connection points: 3
#     Node 7, Type 1, BuildingBlock: QEWDON_clean_linker_0, # of connection points: 3
#     Node 8, Type 1, BuildingBlock: QEWDON_clean_linker_0, # of connection points: 3
#     Node 9, Type 1, BuildingBlock: QEWDON_clean_linker_0, # of connection points: 3
#     Node 10, Type 1, BuildingBlock: QEWDON_clean_linker_0, # of connection points: 3
#     Node 11, Type 1, BuildingBlock: QEWDON_clean_linker_0, # of connection points: 3
#     Edge 12, Type (0, 1), BuildingBlock: CIFDUS_clean_linker_0, # of connection points: 2
#     Edge 13, Type (0, 1), BuildingBlock: CIFDUS_clean_linker_0, # of connection points: 2
#     Edge 14, Type (0, 1), BuildingBlock: CIFDUS_clean_linker_0, # of connection points: 2
#     Edge 15, Type (0, 1), BuildingBlock: CIFDUS_clean_linker_0, # of connection points: 2
#     Edge 16, Type (0, 1), BuildingBlock: CIFDUS_clean_linker_0, # of connection points: 2
#     Edge 17, Type (0, 1), BuildingBlock: CIFDUS_clean_linker_0, # of connection points: 2
#     Edge 18, Type (0, 1), BuildingBlock: CIFDUS_clean_linker_0, # of connection points: 2
#     Edge 19, Type (0, 1), BuildingBlock: CIFDUS_clean_linker_0, # of connection points: 2
#     Edge 20, Type (0, 1), BuildingBlock: CIFDUS_clean_linker_0, # of connection points: 2
#     Edge 21, Type (0, 1), BuildingBlock: CIFDUS_clean_linker_0, # of connection points: 2
#     Edge 22, Type (0, 1), BuildingBlock: CIFDUS_clean_linker_0, # of connection points: 2
#     Edge 23, Type (0, 1), BuildingBlock: CIFDUS_clean_linker_0, # of connection points: 2
#     Edge 24, Type (0, 1), BuildingBlock: CIFDUS_clean_linker_0, # of connection points: 2
#     Edge 25, Type (0, 1), BuildingBlock: CIFDUS_clean_linker_0, # of connection points: 2
#     Edge 26, Type (0, 1), BuildingBlock: CIFDUS_clean_linker_0, # of connection points: 2
#     Edge 27, Type (0, 1), BuildingBlock: CIFDUS_clean_linker_0, # of connection points: 2
#     Edge 28, Type (0, 1), BuildingBlock: CIFDUS_clean_linker_0, # of connection points: 2
#     Edge 29, Type (0, 1), BuildingBlock: CIFDUS_clean_linker_0, # of connection points: 2
#     Edge 30, Type (0, 1), BuildingBlock: CIFDUS_clean_linker_0, # of connection points: 2
#     Edge 31, Type (0, 1), BuildingBlock: CIFDUS_clean_linker_0, # of connection points: 2
#     Edge 32, Type (0, 1), BuildingBlock: CIFDUS_clean_linker_0, # of connection points: 2
#     Edge 33, Type (0, 1), BuildingBlock: CIFDUS_clean_linker_0, # of connection points: 2
#     Edge 34, Type (0, 1), BuildingBlock: CIFDUS_clean_linker_0, # of connection points: 2
#     Edge 35, Type (0, 1), BuildingBlock: CIFDUS_clean_linker_0, # of connection points: 2
# Relax obj value: 0.005
# Max RMSD: 0.114
# Mean RMSD: 0.089
data_MOF--net-hwx--node1-IZENUY_clean_sbu_0--node2-QEWDON_clean_linker_0--edge1-CIFDUS_clean_linker_0
_symmetry_space_group_name_H-M    P1
_symmetry_Int_Tables_number       1
_symmetry_cell_setting            triclinic
loop_
_symmetry_equiv_pos_as_xyz
'x, y, z'
_cell_length_a     47.90534
_cell_length_b     47.456522
_cell_length_c     17.834387
_cell_angle_alpha  92.209445
_cell_angle_beta   92.405029
_cell_angle_gamma 90.083776
loop_
_atom_site_label
_atom_site_type_symbol
_atom_site_fract_x
_atom_site_fract_y
_atom_site_fract_z
_atom_type_partial_charge
Fe0 Fe 0.24826 0.27032 0.1217 0.0
Fe1 Fe 0.2511 0.26826 0.9503 0.0
O2 O 0.23387 0.25929 0.03215 0.0
Fe3 Fe 0.20249 0.23924 0.02375 0.0
O4 O 0.18689 0.25591 0.1069 0.0
O5 O 0.21675 0.28918 0.14566 0.0
O6 O 0.26205 0.30405 0.0899 0.0
C7 C 0.25536 0.31808 0.03263 0.0
C8 C 0.22909 0.21472 0.14391 0.0
O9 O 0.24675 0.30569 0.97212 0.0
C10 C 0.23609 0.21393 0.91151 0.0
O11 O 0.28083 0.25187 0.10515 0.0
O12 O 0.28662 0.26835 0.99377 0.0
O13 O 0.21776 0.21121 0.07905 0.0
O14 O 0.23684 0.2389 0.16912 0.0
C15 C 0.19378 0.27364 0.90594 0.0
O16 O 0.25613 0.23118 0.92291 0.0
O17 O 0.21257 0.21885 0.93942 0.0
C18 C 0.29625 0.25627 0.05123 0.0
O19 O 0.21915 0.27002 0.89117 0.0
O20 O 0.18477 0.26571 0.96729 0.0
C21 C 0.19273 0.27819 0.14587 0.0
Fe22 Fe 0.27585 0.77009 0.55024 0.0
Fe23 Fe 0.31337 0.73002 0.45822 0.0
O24 O 0.28535 0.75442 0.46257 0.0
Fe25 Fe 0.26712 0.76303 0.37779 0.0
O26 O 0.27696 0.79979 0.39159 0.0
O27 O 0.26786 0.80498 0.51171 0.0
O28 O 0.31114 0.78356 0.57253 0.0
C29 C 0.33321 0.76909 0.57211 0.0
C30 C 0.22383 0.76156 0.48047 0.0
O31 O 0.33349 0.74528 0.53839 0.0
C32 C 0.27336 0.70624 0.35334 0.0
O33 O 0.28217 0.73761 0.60232 0.0
O34 O 0.29598 0.70605 0.51716 0.0
O35 O 0.23332 0.76904 0.41938 0.0
O36 O 0.23979 0.75815 0.53728 0.0
C37 C 0.32342 0.75997 0.33522 0.0
O38 O 0.2984 0.70946 0.37748 0.0
O39 O 0.25628 0.72644 0.35859 0.0
C40 C 0.28617 0.71217 0.58025 0.0
O41 O 0.33288 0.75262 0.39859 0.0
O42 O 0.29745 0.75879 0.31915 0.0
C43 C 0.2738 0.8154 0.44966 0.0
Fe44 Fe 0.76951 0.7775 0.95073 0.0
Fe45 Fe 0.77103 0.77315 0.12169 0.0
O46 O 0.78442 0.78777 0.04046 0.0
Fe47 Fe 0.81238 0.81257 0.05046 0.0
O48 O 0.79251 0.83921 0.00222 0.0
O49 O 0.77343 0.8123 0.91046 0.0
O50 O 0.73448 0.78854 0.97596 0.0
C51 C 0.72196 0.77934 0.03077 0.0
C52 C 0.82544 0.7795 0.91954 0.0
O53 O 0.73557 0.76733 0.08242 0.0
C54 C 0.82883 0.77671 0.15982 0.0
O55 O 0.76366 0.74059 0.97564 0.0
O56 O 0.78149 0.73806 0.09141 0.0
O57 O 0.8292 0.80087 0.96369 0.0
O58 O 0.80286 0.76576 0.9175 0.0
C59 C 0.77586 0.82873 0.16568 0.0
O60 O 0.8037 0.77579 0.17825 0.0
O61 O 0.83511 0.78807 0.1001 0.0
C62 C 0.77433 0.72639 0.02867 0.0
O63 O 0.75989 0.8076 0.15534 0.0
O64 O 0.79996 0.82886 0.13844 0.0
C65 C 0.77978 0.83643 0.93913 0.0
Fe66 Fe 0.70619 0.31169 0.52541 0.0
Fe67 Fe 0.75118 0.27473 0.60226 0.0
O68 O 0.73487 0.28783 0.51937 0.0
Fe69 Fe 0.74719 0.27718 0.43012 0.0
O70 O 0.75492 0.31352 0.40806 0.0
O71 O 0.71466 0.33088 0.44193 0.0
O72 O 0.72729 0.33752 0.58131 0.0
C73 C 0.74156 0.33222 0.64031 0.0
C74 C 0.68843 0.27731 0.40568 0.0
O75 O 0.74649 0.30714 0.65822 0.0
C76 C 0.74907 0.22689 0.50209 0.0
O77 O 0.69225 0.29697 0.60996 0.0
O78 O 0.71852 0.26006 0.6319 0.0
O79 O 0.71289 0.27828 0.38191 0.0
O80 O 0.68296 0.28767 0.46976 0.0
C81 C 0.79742 0.28322 0.51939 0.0
O82 O 0.75866 0.23998 0.5607 0.0
O83 O 0.74045 0.24002 0.44537 0.0
C84 C 0.69621 0.27366 0.6408 0.0
O85 O 0.7855 0.28818 0.58026 0.0
O86 O 0.78375 0.27393 0.46157 0.0
C87 C 0.73705 0.33306 0.40731 0.0
H88 H 0.25097 0.5583 0.06514 0.0
C89 C 0.24793 0.57017 0.01472 0.0
C90 C 0.23749 0.59788 0.01984 0.0
C91 C 0.25682 0.55869 0.94581 0.0
H92 H 0.22888 0.63545 0.9596 0.0
C93 C 0.23518 0.61355 0.95473 0.0
C94 C 0.24412 0.6027 0.88554 0.0
C95 C 0.2548 0.57508 0.88151 0.0
C96 C 0.27329 0.5322 0.94401 0.0
H97 H 0.26259 0.56664 0.82909 0.0
C98 C 0.26175 0.50591 0.96119 0.0
C99 C 0.27864 0.48147 0.96155 0.0
C100 C 0.3016 0.53372 0.92699 0.0
H101 H 0.31092 0.55368 0.91406 0.0
C102 C 0.31829 0.50972 0.9279 0.0
H103 H 0.2399 0.50449 0.97411 0.0
C104 C 0.30698 0.48382 0.94521 0.0
H105 H 0.32034 0.46541 0.94441 0.0
H106 H 0.34011 0.51119 0.915 0.0
H107 H 0.98519 0.75055 0.43885 0.0
C108 C 0.97436 0.75622 0.48941 0.0
C109 C 0.94654 0.76551 0.48378 0.0
C110 C 0.98729 0.75171 0.56033 0.0
H111 H 0.91061 0.77818 0.54543 0.0
C112 C 0.93215 0.77116 0.54959 0.0
C113 C 0.94476 0.76696 0.62058 0.0
C114 C 0.97248 0.7574 0.62576 0.0
C115 C 1.01357 0.73548 0.56541 0.0
H116 H 0.98192 0.75276 0.6802 0.0
C117 C 0.0399 0.74804 0.55697 0.0
C118 C 0.06425 0.73136 0.55973 0.0
C119 C 1.0119 0.70647 0.57734 0.0
H120 H 0.99183 0.69649 0.5839 0.0
C121 C 0.03597 0.69002 0.57986 0.0
H122 H 0.04139 0.77043 0.54784 0.0
C123 C 0.06199 0.70233 0.57077 0.0
H124 H 0.08048 0.6892 0.57301 0.0
H125 H 0.03446 0.66764 0.5887 0.0
H126 H 0.78105 0.48491 0.91924 0.0
C127 C 0.77777 0.47441 0.97111 0.0
C128 C 0.76465 0.44799 0.96872 0.0
C129 C 0.78866 0.48628 0.03963 0.0
H130 H 0.75208 0.41307 0.03319 0.0
C131 C 0.7616 0.43387 0.03545 0.0
C132 C 0.77246 0.44535 0.10422 0.0
C133 C 0.78625 0.47156 0.10611 0.0
C134 C 0.80606 0.5119 0.03891 0.0
H135 H 0.79561 0.48012 0.15853 0.0
C136 C 0.7944 0.53894 0.04852 0.0
C137 C 0.81097 0.56306 0.04023 0.0
C138 C 0.83435 0.50917 0.02266 0.0
H139 H 0.84356 0.48848 0.01462 0.0
C140 C 0.85083 0.53308 0.01521 0.0
H141 H 0.77249 0.54117 0.06039 0.0
C142 C 0.83918 0.5599 0.02336 0.0
H143 H 0.85224 0.57824 0.01693 0.0
H144 H 0.87261 0.53082 0.00234 0.0
H145 H 0.03907 0.27324 0.63323 0.0
C146 C 0.04831 0.28035 0.58291 0.0
C147 C 0.07409 0.29473 0.58709 0.0
C148 C 0.03539 0.27272 0.51295 0.0
H149 H 0.10293 0.31755 0.52276 0.0
C150 C 0.08501 0.30365 0.51971 0.0
C151 C 0.07468 0.29289 0.44918 0.0
C152 C 0.04925 0.2778 0.44673 0.0
C153 C 1.00936 0.25579 0.50929 0.0
H154 H 0.04046 0.26894 0.39413 0.0
C155 C 0.98388 0.26745 0.53223 0.0
C156 C 0.95929 0.25107 0.52643 0.0
C157 C 1.01004 0.2277 0.48173 0.0
H158 H 0.02944 0.21838 0.46402 0.0
C159 C 0.98575 0.21136 0.47724 0.0
H160 H 0.98307 0.28923 0.55263 0.0
C161 C 0.96049 0.22297 0.4992 0.0
H162 H 0.94173 0.21013 0.49407 0.0
H163 H 0.98645 0.18971 0.45604 0.0
H164 H 0.77969 0.98946 0.44698 0.0
C165 C 0.77287 0.97758 0.49363 0.0
C166 C 0.76443 0.94934 0.4818 0.0
C167 C 0.77433 0.98997 0.56643 0.0
H168 H 0.75206 0.91169 0.53511 0.0
C169 C 0.75684 0.93394 0.54349 0.0
C170 C 0.75819 0.94593 0.61674 0.0
C171 C 0.76694 0.97415 0.62771 0.0
C172 C 0.7883 1.01752 0.58002 0.0
H173 H 0.769 0.98357 0.68402 0.0
C174 C 0.77444 0.04303 0.56572 0.0
C175 C 0.78839 0.06887 0.58112 0.0
C176 C 0.81612 1.01804 0.60805 0.0
H177 H 0.82707 0.99856 0.61901 0.0
C178 C 0.83004 0.04363 0.62197 0.0
H179 H 0.75285 0.04279 0.54493 0.0
C180 C 0.81624 0.06893 0.609 0.0
H181 H 0.8272 0.08866 0.62155 0.0
H182 H 0.8515 0.04388 0.64362 0.0
H183 H 0.53521 0.24286 0.11584 0.0
C184 C 0.54679 0.24687 0.06638 0.0
C185 C 0.57462 0.25621 0.07458 0.0
C186 C 0.53476 0.24031 0.99448 0.0
H187 H 0.61149 0.26715 0.01675 0.0
C188 C 0.59001 0.25988 0.01036 0.0
C189 C 0.57814 0.25412 0.93819 0.0
C190 C 0.55042 0.24432 0.93056 0.0
C191 C 0.50798 0.22464 0.98684 0.0
H192 H 0.54142 0.23867 0.87521 0.0
C193 C 0.48227 0.23744 0.00324 0.0
C194 C 0.45732 0.22142 0.99784 0.0
C195 C 0.50854 0.19595 0.96486 0.0
H196 H 0.52811 0.18574 0.95229 0.0
C197 C 0.484 0.18005 0.96014 0.0
H198 H 0.48171 0.25962 0.01999 0.0
C199 C 0.45859 0.19262 0.97665 0.0
H200 H 0.43976 0.1799 0.97123 0.0
H201 H 0.48467 0.1579 0.94339 0.0
H202 H 0.28836 0.06482 0.63196 0.0
C203 C 0.28046 0.07403 0.5806 0.0
C204 C 0.2686 0.1011 0.58331 0.0
C205 C 0.28288 0.05917 0.51136 0.0
H206 H 0.25199 0.13487 0.51871 0.0
C207 C 0.2597 0.11341 0.51618 0.0
C208 C 0.26271 0.09934 0.4461 0.0
C209 C 0.27401 0.07191 0.44448 0.0
C210 C 0.29925 0.03276 0.50743 0.0
H211 H 0.27693 0.06081 0.39114 0.0
C212 C 0.2865 1.00584 0.5051 0.0
C213 C 0.30297 0.98127 0.4972 0.0
C214 C 0.32834 0.03486 0.50327 0.0
H215 H 0.33845 0.05533 0.50491 0.0
C216 C 0.34461 1.01067 0.4961 0.0
H217 H 0.26402 1.00408 0.50799 0.0
C218 C 0.33207 0.9841 0.49274 0.0
H219 H 0.34521 0.96563 0.48735 0.0
H220 H 0.36705 1.01252 0.49281 0.0
H221 H 0.47878 0.79382 0.85503 0.0
C222 C 0.4683 0.79555 0.90771 0.0
C223 C 0.4407 0.80575 0.90911 0.0
C224 C 0.4815 0.78497 0.9726 0.0
H225 H 0.40596 0.8142 0.97929 0.0
C226 C 0.4273 0.80676 0.97774 0.0
C227 C 0.43969 0.79522 0.04245 0.0
C228 C 0.46709 0.78482 0.03969 0.0
C229 C 0.50704 0.76778 0.9659 0.0
H230 H 0.47644 0.77455 0.08781 0.0
C231 C 0.53393 0.77995 0.96638 0.0
C232 C 0.55765 0.76243 0.96323 0.0
C233 C 0.50411 0.73832 0.96039 0.0
H234 H 0.48357 0.72866 0.95972 0.0
C235 C 0.52754 0.72109 0.95599 0.0
H236 H 0.53639 0.80265 0.97135 0.0
C237 C 0.55416 0.73302 0.95786 0.0
H238 H 0.57215 0.71925 0.95552 0.0
H239 H 0.52507 0.6984 0.9519 0.0
H240 H 0.13554 0.27964 0.13908 0.0
H241 H 0.20757 0.29584 0.28793 0.0
H242 H 0.17745 0.30269 0.39379 0.0
H243 H 0.13187 0.29891 0.44542 0.0
H244 H 0.05831 0.28939 0.29696 0.0
H245 H 0.08808 0.28431 0.19002 0.0
C246 C 0.1445 0.28521 0.19454 0.0
C247 C 0.17376 0.28713 0.20569 0.0
C248 C 0.12694 0.28972 0.25541 0.0
C249 C 0.18515 0.29447 0.27766 0.0
C250 C 0.16793 0.29817 0.33841 0.0
C251 C 0.12174 0.29689 0.39012 0.0
C252 C 0.09235 0.29427 0.38123 0.0
C253 C 0.13887 0.29526 0.32817 0.0
C254 C 0.08067 0.29065 0.30746 0.0
C255 C 0.09775 0.28801 0.24556 0.0
H256 H 0.24164 0.7044 0.66662 0.0
H257 H 0.32023 0.66775 0.6064 0.0
H258 H 0.31341 0.6293 0.69139 0.0
H259 H 0.28622 0.60755 0.78782 0.0
H260 H 0.20574 0.64204 0.84065 0.0
H261 H 0.21203 0.6796 0.75322 0.0
C262 C 0.25722 0.68797 0.67243 0.0
C263 C 0.28158 0.68905 0.63147 0.0
C264 C 0.25277 0.66546 0.71974 0.0
C265 C 0.30139 0.66737 0.63789 0.0
C266 C 0.29747 0.64538 0.68633 0.0
C267 C 0.2697 0.6228 0.7789 0.0
C268 C 0.24569 0.62206 0.82176 0.0
C269 C 0.27331 0.64428 0.72792 0.0
C270 C 0.22469 0.64233 0.80959 0.0
C271 C 0.22825 0.66388 0.75959 0.0
H272 H 0.88349 0.79468 0.17803 0.0
H273 H 0.82302 0.73867 0.26674 0.0
H274 H 0.85537 0.72831 0.37072 0.0
H275 H 0.8986 0.73858 0.44351 0.0
H276 H 0.95947 0.79503 0.36012 0.0
H277 H 0.92954 0.80151 0.2466 0.0
C278 C 0.87766 0.77983 0.21942 0.0
C279 C 0.85071 0.76774 0.21509 0.0
C280 C 0.89634 0.77424 0.28037 0.0
C281 C 0.84345 0.74857 0.26925 0.0
C282 C 0.86194 0.74261 0.32883 0.0
C283 C 0.90541 0.7521 0.40004 0.0
C284 C 0.93093 0.76662 0.41031 0.0
C285 C 0.88805 0.75592 0.3361 0.0
C286 C 0.93983 0.7837 0.35328 0.0
C287 C 0.92265 0.7875 0.28872 0.0
H288 H 0.7173 0.38352 0.67371 0.0
H289 H 0.78854 0.33134 0.72778 0.0
H290 H 0.80299 0.36396 0.83052 0.0
H291 H 0.79318 0.40452 0.91291 0.0
H292 H 0.72223 0.45724 0.8643 0.0
H293 H 0.70984 0.4275 0.75149 0.0
C294 C 0.73623 0.37969 0.70723 0.0
C295 C 0.75164 0.3549 0.69381 0.0
C296 C 0.74427 0.39843 0.76768 0.0
C297 C 0.77611 0.35008 0.73772 0.0
C298 C 0.78442 0.36869 0.79654 0.0
C299 C 0.7752 0.4096 0.87689 0.0
C300 C 0.75846 0.43267 0.89641 0.0
C301 C 0.76827 0.39244 0.81329 0.0
C302 C 0.7353 0.43941 0.84979 0.0
C303 C 0.72824 0.42239 0.78567 0.0
H304 H 0.63468 0.29652 0.38237 0.0
H305 H 0.69308 0.23323 0.30832 0.0
H306 H 0.66145 0.21922 0.20313 0.0
H307 H 0.62012 0.22856 0.12368 0.0
H308 H 0.56138 0.29205 0.19221 0.0
H309 H 0.58985 0.30227 0.30818 0.0
C310 C 0.64005 0.27923 0.34415 0.0
C311 C 0.66626 0.26606 0.35262 0.0
C312 C 0.62188 0.27161 0.28222 0.0
C313 C 0.67312 0.24383 0.30244 0.0
C314 C 0.6551 0.23584 0.24215 0.0
C315 C 0.61341 0.24437 0.16464 0.0
C316 C 0.58901 0.25979 0.1495 0.0
C317 C 0.62992 0.25019 0.2301 0.0
C318 C 0.5802 0.27999 0.20299 0.0
C319 C 0.59654 0.28589 0.26896 0.0
H320 H 0.28291 0.18599 0.86446 0.0
H321 H 0.19327 0.18932 0.82886 0.0
H322 H 0.19527 0.15348 0.72811 0.0
H323 H 0.22247 0.12322 0.64409 0.0
H324 H 0.31165 0.11757 0.68057 0.0
H325 H 0.30989 0.15179 0.78716 0.0
C326 C 0.26385 0.1787 0.83489 0.0
C327 C 0.23802 0.19056 0.85405 0.0
C328 C 0.26503 0.15757 0.77713 0.0
C329 C 0.21346 0.18061 0.81566 0.0
C330 C 0.21454 0.16011 0.75771 0.0
C331 C 0.24142 0.12918 0.67632 0.0
C332 C 0.26712 0.11799 0.65482 0.0
C333 C 0.24019 0.14871 0.7373 0.0
C334 C 0.29159 0.12578 0.69673 0.0
C335 C 0.29059 0.14551 0.75719 0.0
H336 H 0.37877 0.77608 0.34682 0.0
H337 H 0.3109 0.75641 0.1859 0.0
H338 H 0.34095 0.76503 0.0832 0.0
H339 H 0.38601 0.77731 0.03797 0.0
H340 H 0.45427 0.80005 0.19412 0.0
H341 H 0.42478 0.79037 0.29957 0.0
C342 C 0.37065 0.7737 0.28924 0.0
C343 C 0.34256 0.76564 0.27435 0.0
C344 C 0.38809 0.7791 0.22952 0.0
C345 C 0.33231 0.76277 0.19936 0.0
C346 C 0.34951 0.76761 0.1403 0.0
C347 C 0.39442 0.78088 0.09496 0.0
C348 C 0.42221 0.79 0.10787 0.0
C349 C 0.37732 0.77584 0.1547 0.0
C350 C 0.43293 0.79315 0.18242 0.0
C351 C 0.41603 0.78771 0.24272 0.0
H352 H 0.7408 0.84425 0.8263 0.0
H353 H 0.80965 0.88539 0.9503 0.0
H354 H 0.80707 0.92472 0.86621 0.0
H355 H 0.78882 0.9447 0.74922 0.0
H356 H 0.71846 0.90493 0.62829 0.0
H357 H 0.718 0.86797 0.71964 0.0
C358 C 0.75501 0.86199 0.8353 0.0
C359 C 0.77562 0.86168 0.89374 0.0
C360 C 0.75329 0.88472 0.78705 0.0
C361 C 0.79362 0.88503 0.90558 0.0
C362 C 0.79223 0.90752 0.85734 0.0
C363 C 0.77283 0.92848 0.7439 0.0
C364 C 0.75405 0.92739 0.681 0.0
C365 C 0.77259 0.90728 0.79681 0.0
C366 C 0.7336 0.90596 0.67517 0.0
C367 C 0.7333 0.88479 0.72741 0.0
H368 H 0.87844 0.80089 0.90966 0.0
H369 H 0.81999 0.74102 0.80241 0.0
H370 H 0.85232 0.73109 0.70342 0.0
H371 H 0.89587 0.74114 0.64263 0.0
H372 H 0.95535 0.79975 0.74853 0.0
H373 H 0.92416 0.80821 0.85302 0.0
C374 C 0.87286 0.78553 0.86492 0.0
C375 C 0.84658 0.772 0.86342 0.0
C376 C 0.89172 0.77971 0.80775 0.0
C377 C 0.83991 0.75192 0.80522 0.0
C378 C 0.85839 0.74621 0.74827 0.0
C379 C 0.90203 0.75564 0.68893 0.0
C380 C 0.92764 0.77006 0.6878 0.0
C381 C 0.88411 0.76027 0.74833 0.0
C382 C 0.93569 0.78846 0.74842 0.0
C383 C 0.9178 0.79336 0.80781 0.0
H384 H 0.78497 0.35581 0.35576 0.0
H385 H 0.69513 0.36361 0.34391 0.0
H386 H 0.69829 0.40053 0.25363 0.0
H387 H 0.72618 0.42851 0.17116 0.0
H388 H 0.81591 0.42293 0.18515 0.0
H389 H 0.81333 0.38767 0.28187 0.0
C390 C 0.76615 0.36574 0.33364 0.0
C391 C 0.73986 0.35672 0.35612 0.0
C392 C 0.76809 0.38745 0.28225 0.0
C393 C 0.71565 0.37007 0.32771 0.0
C394 C 0.71739 0.3912 0.27585 0.0
C395 C 0.74513 0.41992 0.19665 0.0
C396 C 0.77116 0.42824 0.17165 0.0
C397 C 0.74343 0.39979 0.25198 0.0
C398 C 0.79566 0.41699 0.20444 0.0
C399 C 0.79415 0.39667 0.25913 0.0
H400 H 0.1365 0.28211 0.90631 0.0
H401 H 0.20751 0.28513 0.76469 0.0
H402 H 0.17697 0.29346 0.65684 0.0
H403 H 0.13097 0.29472 0.59982 0.0
H404 H 0.05852 0.29644 0.73658 0.0
H405 H 0.08893 0.29072 0.84855 0.0
C406 C 0.14525 0.28495 0.85202 0.0
C407 C 0.17436 0.28242 0.844 0.0
C408 C 0.12741 0.29014 0.78891 0.0
C409 C 0.18529 0.28654 0.77314 0.0
C410 C 0.16781 0.29132 0.71091 0.0
C411 C 0.1214 0.29509 0.65376 0.0
C412 C 0.0921 0.29608 0.65827 0.0
C413 C 0.13889 0.29253 0.71783 0.0
C414 C 0.08084 0.29524 0.73003 0.0
C415 C 0.09829 0.29211 0.79453 0.0
H416 H 0.22606 0.69452 0.26456 0.0
H417 H 0.30454 0.6587 0.34122 0.0
H418 H 0.29762 0.61875 0.25322 0.0
H419 H 0.27335 0.59794 0.14133 0.0
H420 H 0.19521 0.63324 0.06187 0.0
H421 H 0.19766 0.66889 0.16475 0.0
C422 C 0.24139 0.67774 0.26287 0.0
C423 C 0.26613 0.68011 0.30814 0.0
C424 C 0.23745 0.65468 0.21125 0.0
C425 C 0.28557 0.65788 0.30591 0.0
C426 C 0.28165 0.63488 0.25562 0.0
C427 C 0.2563 0.61272 0.14809 0.0
C428 C 0.23432 0.61312 0.09348 0.0
C429 C 0.25821 0.63358 0.20611 0.0
C430 C 0.21254 0.63269 0.10281 0.0
C431 C 0.21403 0.65321 0.16132 0.0
H432 H 0.34005 0.81417 0.67379 0.0
H433 H 0.38367 0.74315 0.57543 0.0
H434 H 0.42287 0.75119 0.66401 0.0
H435 H 0.44173 0.77347 0.78017 0.0
H436 H 0.39988 0.84527 0.87946 0.0
H437 H 0.36338 0.84194 0.77944 0.0
C438 C 0.35832 0.80077 0.67098 0.0
C439 C 0.35843 0.77764 0.61902 0.0
C440 C 0.38112 0.80543 0.72271 0.0
C441 C 0.38256 0.76076 0.61566 0.0
C442 C 0.40515 0.76534 0.66633 0.0
C443 C 0.4253 0.78915 0.77882 0.0
C444 C 0.42344 0.80928 0.83835 0.0
C445 C 0.40427 0.78696 0.72168 0.0
C446 C 0.4016 0.82913 0.8353 0.0
C447 C 0.38063 0.82721 0.77813 0.0
H448 H 0.80564 0.87615 0.208 0.0
H449 H 0.72702 0.83428 0.23865 0.0
H450 H 0.71471 0.87074 0.33128 0.0
H451 H 0.72815 0.91175 0.41241 0.0
H452 H 0.80779 0.95211 0.38729 0.0
H453 H 0.81728 0.91969 0.28184 0.0
C454 C 0.78572 0.87507 0.23451 0.0
C455 C 0.76755 0.85217 0.21729 0.0
C456 C 0.77883 0.89599 0.2884 0.0
C457 C 0.74164 0.8514 0.25149 0.0
C458 C 0.73451 0.87229 0.30442 0.0
C459 C 0.74743 0.91366 0.38318 0.0
C460 C 0.76732 0.93413 0.40817 0.0
C461 C 0.75323 0.89428 0.3246 0.0
C462 C 0.792 0.9367 0.36894 0.0
C463 C 0.79762 0.91791 0.30923 0.0
H464 H 0.64196 0.28993 0.6536 0.0
H465 H 0.70509 0.23634 0.75236 0.0
H466 H 0.67367 0.22465 0.85099 0.0
H467 H 0.62932 0.23196 0.91398 0.0
H468 H 0.56554 0.28413 0.81376 0.0
H469 H 0.59599 0.29388 0.71059 0.0
C470 C 0.64878 0.27553 0.69639 0.0
C471 C 0.67601 0.26429 0.69587 0.0
C472 C 0.63049 0.26871 0.75284 0.0
C473 C 0.68432 0.24535 0.75126 0.0
C474 C 0.66638 0.23872 0.80795 0.0
C475 C 0.62207 0.24531 0.86918 0.0
C476 C 0.59536 0.25756 0.87169 0.0
C477 C 0.63962 0.25064 0.81002 0.0
C478 C 0.586 0.27447 0.81288 0.0
C479 C 0.60346 0.28013 0.75418 0.0
H480 H 0.26383 0.16957 0.15115 0.0
H481 H 0.19401 0.20935 0.2564 0.0
H482 H 0.19596 0.17472 0.35478 0.0
H483 H 0.21982 0.13566 0.41608 0.0
H484 H 0.29245 0.09831 0.3175 0.0
H485 H 0.2866 0.1286 0.21045 0.0
C486 C 0.24882 0.1702 0.19505 0.0
C487 C 0.22865 0.19166 0.19672 0.0
C488 C 0.25059 0.15064 0.25262 0.0
C489 C 0.20954 0.19278 0.25419 0.0
C490 C 0.21072 0.17307 0.3104 0.0
C491 C 0.23439 0.13406 0.37121 0.0
C492 C 0.25669 0.11477 0.37564 0.0
C493 C 0.23154 0.1523 0.31111 0.0
C494 C 0.2749 0.11265 0.31572 0.0
C495 C 0.27176 0.13024 0.25464 0.0
H496 H 0.22958 0.35763 0.94669 0.0
H497 H 0.29327 0.34799 0.1221 0.0
H498 H 0.30456 0.39814 0.1197 0.0
H499 H 0.29848 0.44419 0.06226 0.0
H500 H 0.23388 0.45472 0.89029 0.0
H501 H 0.22041 0.40504 0.89776 0.0
C502 C 0.24585 0.36656 0.98457 0.0
C503 C 0.26079 0.34895 0.03387 0.0
C504 C 0.25197 0.39563 0.98375 0.0
C505 C 0.28148 0.36097 0.08349 0.0
C506 C 0.28799 0.38968 0.08209 0.0
C507 C 0.28117 0.43566 0.02724 0.0
C508 C 0.26724 0.45304 0.97558 0.0
C509 C 0.27365 0.40712 0.03181 0.0
C510 C 0.24476 0.44182 0.93087 0.0
C511 C 0.23725 0.41335 0.93467 0.0
H512 H 0.18859 0.77591 0.59266 0.0
H513 H 0.1913 0.73441 0.37372 0.0
H514 H 0.14169 0.72275 0.37671 0.0
H515 H 0.09793 0.72242 0.44394 0.0
H516 H 0.09371 0.76617 0.65906 0.0
H517 H 0.14321 0.77943 0.65502 0.0
C518 C 0.17819 0.76442 0.54571 0.0
C519 C 0.19355 0.75583 0.4833 0.0
C520 C 0.14936 0.75843 0.54691 0.0
C521 C 0.17985 0.74128 0.42225 0.0
C522 C 0.15151 0.73458 0.42393 0.0
C523 C 0.10781 0.73532 0.48912 0.0
C524 C 0.09238 0.74349 0.55148 0.0
C525 C 0.1361 0.74288 0.48609 0.0
C526 C 0.10525 0.75999 0.61016 0.0
C527 C 0.13356 0.76732 0.60809 0.0
H528 H 0.77437 0.68641 0.13423 0.0
H529 H 0.78296 0.69737 0.89728 0.0
H530 H 0.79365 0.64728 0.87904 0.0
H531 H 0.80368 0.60096 0.93208 0.0
H532 H 0.79295 0.58927 0.16737 0.0
H533 H 0.77972 0.63896 0.1849 0.0
C534 C 0.77836 0.67775 0.07855 0.0
C535 C 0.77808 0.69559 0.01726 0.0
C536 C 0.78413 0.64884 0.06831 0.0
C537 C 0.78297 0.68405 0.94528 0.0
C538 C 0.7892 0.65544 0.93486 0.0
C539 C 0.79801 0.60932 0.98683 0.0
C540 C 0.79928 0.59175 0.04848 0.0
C541 C 0.79025 0.63774 0.99612 0.0
C542 C 0.79192 0.60254 0.11925 0.0
C543 C 0.78454 0.63091 0.12924 0.0
H544 H 0.83746 0.27514 0.63128 0.0
H545 H 0.82653 0.29457 0.39754 0.0
H546 H 0.87659 0.28986 0.38166 0.0
H547 H 0.92264 0.27458 0.42968 0.0
H548 H 0.93407 0.25262 0.66069 0.0
H549 H 0.88501 0.26414 0.68272 0.0
C550 C 0.84618 0.27894 0.57743 0.0
C551 C 0.82824 0.28497 0.51553 0.0
C552 C 0.87512 0.27548 0.56808 0.0
C553 C 0.83983 0.28962 0.44588 0.0
C554 C 0.86848 0.2869 0.43665 0.0
C555 C 0.91445 0.27306 0.48521 0.0
C556 C 0.93175 0.26312 0.54374 0.0
C557 C 0.88619 0.27901 0.49665 0.0
C558 C 0.92103 0.26062 0.61522 0.0
C559 C 0.89298 0.267 0.62754 0.0
H560 H 0.74766 0.19335 0.61989 0.0
H561 H 0.75425 0.1905 0.37937 0.0
H562 H 0.76393 0.13971 0.38105 0.0
H563 H 0.77589 0.09729 0.454 0.0
H564 H 0.77003 0.10173 0.69457 0.0
H565 H 0.75442 0.15066 0.69004 0.0
C566 C 0.75095 0.18157 0.56763 0.0
C567 C 0.75072 0.19571 0.49976 0.0
C568 C 0.75669 0.15266 0.56928 0.0
C569 C 0.75444 0.1801 0.43238 0.0
C570 C 0.76011 0.1511 0.43344 0.0
C571 C 0.77047 0.10891 0.50489 0.0
C572 C 0.77391 0.09614 0.57457 0.0
C573 C 0.76202 0.1373 0.50187 0.0
C574 C 0.76731 0.11127 0.64051 0.0
C575 C 0.75857 0.13922 0.63792 0.0
H576 H 0.33921 0.28008 0.98068 0.0
H577 H 0.32062 0.21488 0.13321 0.0
H578 H 0.36937 0.19954 0.13437 0.0
H579 H 0.41663 0.20279 0.08572 0.0
H580 H 0.43563 0.26881 0.93635 0.0
H581 H 0.38754 0.28607 0.94132 0.0
C582 C 0.34587 0.2626 0.01446 0.0
C583 C 0.32623 0.24844 0.05618 0.0
C584 C 0.37403 0.25413 0.01561 0.0
C585 C 0.33529 0.22611 0.10059 0.0
C586 C 0.36315 0.21729 0.10112 0.0
C587 C 0.41027 0.22116 0.05496 0.0
C588 C 0.42959 0.23443 0.01034 0.0
C589 C 0.38261 0.23088 0.05803 0.0
C590 C 0.4212 0.25837 0.97142 0.0
C591 C 0.39365 0.26807 0.97376 0.0
H592 H 0.2586 0.85809 0.54905 0.0
H593 H 0.29845 0.84273 0.33856 0.0
H594 H 0.30889 0.89271 0.33213 0.0
H595 H 0.30969 0.94046 0.38954 0.0
H596 H 0.26937 0.95717 0.59786 0.0
H597 H 0.25574 0.90731 0.60127 0.0
C598 C 0.26937 0.86571 0.50153 0.0
C599 C 0.27784 0.84643 0.44465 0.0
C600 C 0.27522 0.89482 0.49766 0.0
C601 C 0.29159 0.85688 0.38319 0.0
C602 C 0.29768 0.88555 0.37944 0.0
C603 C 0.29759 0.93322 0.43518 0.0
C604 C 0.29065 0.9524 0.49354 0.0
C605 C 0.28998 0.90463 0.43676 0.0
C606 C 0.27479 0.94283 0.55206 0.0
C607 C 0.26723 0.91428 0.55427 0.0
H608 H 0.68329 0.7962 0.92214 0.0
H609 H 0.69046 0.76216 0.14345 0.0
H610 H 0.64015 0.75692 0.14476 0.0
H611 H 0.5943 0.75767 0.07955 0.0
H612 H 0.58551 0.79126 0.85922 0.0
H613 H 0.63593 0.80139 0.8613 0.0
C614 C 0.67381 0.78791 0.97087 0.0
C615 C 0.6909 0.77914 0.03198 0.0
C616 C 0.64447 0.78484 0.97153 0.0
C617 C 0.67808 0.76871 0.09499 0.0
C618 C 0.64919 0.76571 0.09605 0.0
C619 C 0.60342 0.76779 0.03279 0.0
C620 C 0.58644 0.77386 0.96955 0.0
C621 C 0.63226 0.77311 0.03416 0.0
C622 C 0.5983 0.78674 0.90882 0.0
C623 C 0.62712 0.79226 0.90983 0.0
loop_
_geom_bond_atom_site_label_1
_geom_bond_atom_site_label_2
_geom_bond_distance
_geom_bond_site_symmetry_2
_ccdc_geom_bond_type
Fe0 O2 1.918 . S
Fe0 O5 1.997 . S
Fe0 O6 2.002 . S
Fe0 O11 1.976 . S
Fe0 O14 1.996 . S
Fe1 O2 1.918 1_556 S
Fe1 O9 1.997 . S
Fe1 O12 1.996 . S
Fe1 O16 1.976 . S
Fe1 O19 2.002 . S
O2 Fe0 1.918 . S
O2 Fe1 1.918 1_554 S
O2 Fe3 1.918 1_554 S
Fe3 O2 1.918 1_556 S
Fe3 O4 2.001 1_556 S
Fe3 O13 1.974 1_556 S
Fe3 O17 1.997 . S
Fe3 O20 1.998 . S
O4 Fe3 2.001 1_554 S
O4 C21 1.295 . S
O5 Fe0 1.997 . S
O5 C21 1.235 . S
O6 Fe0 2.002 . S
O6 C7 1.295 . S
C7 O6 1.295 . S
C7 O9 1.235 1_554 S
C8 O13 1.287 . S
C8 O14 1.255 . S
O9 Fe1 1.997 . S
O9 C7 1.235 1_556 S
C10 O16 1.287 . S
C10 O17 1.255 . S
O11 Fe0 1.976 . S
O11 C18 1.287 . S
O12 Fe1 1.996 . S
O12 C18 1.255 1_556 S
O13 Fe3 1.974 1_554 S
O13 C8 1.287 . S
O14 Fe0 1.996 . S
O14 C8 1.255 . S
C15 O19 1.295 . S
C15 O20 1.235 . S
O16 Fe1 1.976 . S
O16 C10 1.287 . S
O17 Fe3 1.997 . S
O17 C10 1.255 . S
C18 O11 1.287 . S
C18 O12 1.255 1_554 S
O19 Fe1 2.002 . S
O19 C15 1.295 . S
O20 Fe3 1.998 . S
O20 C15 1.235 . S
C21 O4 1.295 . S
C21 O5 1.235 . S
Fe22 O24 1.918 . S
Fe22 O27 1.997 . S
Fe22 O28 2.002 . S
Fe22 O33 1.976 . S
Fe22 O36 1.996 . S
Fe23 O24 1.918 . S
Fe23 O31 1.997 . S
Fe23 O34 1.996 . S
Fe23 O38 1.976 . S
Fe23 O41 2.002 . S
O24 Fe22 1.918 . S
O24 Fe23 1.918 . S
O24 Fe25 1.918 . S
Fe25 O24 1.918 . S
Fe25 O26 2.002 . S
Fe25 O35 1.976 . S
Fe25 O39 1.996 . S
Fe25 O42 1.997 . S
O26 Fe25 2.002 . S
O26 C43 1.295 . S
O27 Fe22 1.997 . S
O27 C43 1.235 . S
O28 Fe22 2.002 . S
O28 C29 1.295 . S
C29 O28 1.295 . S
C29 O31 1.235 . S
C30 O35 1.287 . S
C30 O36 1.255 . S
O31 Fe23 1.997 . S
O31 C29 1.235 . S
C32 O38 1.287 . S
C32 O39 1.255 . S
O33 Fe22 1.976 . S
O33 C40 1.287 . S
O34 Fe23 1.996 . S
O34 C40 1.255 . S
O35 Fe25 1.976 . S
O35 C30 1.287 . S
O36 Fe22 1.996 . S
O36 C30 1.255 . S
C37 O41 1.295 . S
C37 O42 1.235 . S
O38 Fe23 1.976 . S
O38 C32 1.287 . S
O39 Fe25 1.996 . S
O39 C32 1.255 . S
C40 O33 1.287 . S
C40 O34 1.255 . S
O41 Fe23 2.002 . S
O41 C37 1.295 . S
O42 Fe25 1.997 . S
O42 C37 1.235 . S
C43 O26 1.295 . S
C43 O27 1.235 . S
Fe44 O46 1.918 1_556 S
Fe44 O49 1.997 . S
Fe44 O50 2.002 . S
Fe44 O55 1.976 . S
Fe44 O58 1.996 . S
Fe45 O46 1.918 . S
Fe45 O53 1.997 . S
Fe45 O56 1.996 . S
Fe45 O60 1.976 . S
Fe45 O63 2.002 . S
O46 Fe44 1.918 1_554 S
O46 Fe45 1.918 . S
O46 Fe47 1.918 . S
Fe47 O46 1.918 . S
Fe47 O48 2.002 1_554 S
Fe47 O57 1.976 1_554 S
Fe47 O61 1.996 . S
Fe47 O64 1.997 . S
O48 Fe47 2.002 1_556 S
O48 C65 1.295 . S
O49 Fe44 1.997 . S
O49 C65 1.235 . S
O50 Fe44 2.002 . S
O50 C51 1.295 1_556 S
C51 O50 1.295 1_554 S
C51 O53 1.235 . S
C52 O57 1.287 . S
C52 O58 1.255 . S
O53 Fe45 1.997 . S
O53 C51 1.235 . S
C54 O60 1.287 . S
C54 O61 1.255 . S
O55 Fe44 1.976 . S
O55 C62 1.287 1_556 S
O56 Fe45 1.996 . S
O56 C62 1.255 . S
O57 Fe47 1.976 1_556 S
O57 C52 1.287 . S
O58 Fe44 1.996 . S
O58 C52 1.255 . S
C59 O63 1.295 . S
C59 O64 1.235 . S
O60 Fe45 1.976 . S
O60 C54 1.287 . S
O61 Fe47 1.996 . S
O61 C54 1.255 . S
C62 O55 1.287 1_554 S
C62 O56 1.255 . S
O63 Fe45 2.002 . S
O63 C59 1.295 . S
O64 Fe47 1.997 . S
O64 C59 1.235 . S
C65 O48 1.295 . S
C65 O49 1.235 . S
Fe66 O68 1.918 . S
Fe66 O71 1.997 . S
Fe66 O72 2.002 . S
Fe66 O77 1.976 . S
Fe66 O80 1.996 . S
Fe67 O68 1.918 . S
Fe67 O75 1.997 . S
Fe67 O78 1.996 . S
Fe67 O82 1.976 . S
Fe67 O85 2.002 . S
O68 Fe66 1.918 . S
O68 Fe67 1.918 . S
O68 Fe69 1.918 . S
Fe69 O68 1.918 . S
Fe69 O70 2.002 . S
Fe69 O79 1.976 . S
Fe69 O83 1.996 . S
Fe69 O86 1.997 . S
O70 Fe69 2.002 . S
O70 C87 1.295 . S
O71 Fe66 1.997 . S
O71 C87 1.235 . S
O72 Fe66 2.002 . S
O72 C73 1.295 . S
C73 O72 1.295 . S
C73 O75 1.235 . S
C74 O79 1.287 . S
C74 O80 1.255 . S
O75 Fe67 1.997 . S
O75 C73 1.235 . S
C76 O82 1.287 . S
C76 O83 1.255 . S
O77 Fe66 1.976 . S
O77 C84 1.287 . S
O78 Fe67 1.996 . S
O78 C84 1.255 . S
O79 Fe69 1.976 . S
O79 C74 1.287 . S
O80 Fe66 1.996 . S
O80 C74 1.255 . S
C81 O85 1.295 . S
C81 O86 1.235 . S
O82 Fe67 1.976 . S
O82 C76 1.287 . S
O83 Fe69 1.996 . S
O83 C76 1.255 . S
C84 O77 1.287 . S
C84 O78 1.255 . S
O85 Fe67 2.002 . S
O85 C81 1.295 . S
O86 Fe69 1.997 . S
O86 C81 1.235 . S
C87 O70 1.295 . S
C87 O71 1.235 . S
H88 C89 0.949 . S
C89 H88 0.949 . S
C89 C90 1.395 . S
C89 C91 1.391 1_554 S
C90 C89 1.395 . S
C90 C93 1.390 . S
C91 C89 1.391 1_556 S
C91 C95 1.387 . S
C91 C96 1.491 . S
H92 C93 0.950 . S
C93 C90 1.390 . S
C93 H92 0.950 . S
C93 C94 1.378 1_554 S
C94 C93 1.378 1_556 S
C94 C95 1.409 . S
C95 C91 1.387 . S
C95 C94 1.409 . S
C95 H97 0.951 . S
C96 C91 1.491 . S
C96 C98 1.382 1_556 S
C96 C100 1.404 . S
H97 C95 0.951 . S
C98 C96 1.382 1_554 S
C98 C99 1.390 1_554 S
C98 H103 0.949 . S
C99 C98 1.390 1_556 S
C99 C104 1.399 . S
C100 C96 1.404 . S
C100 H101 0.950 . S
C100 C102 1.375 . S
H101 C100 0.950 . S
C102 C100 1.375 . S
C102 C104 1.382 . S
C102 H106 0.950 . S
H103 C98 0.949 . S
C104 C99 1.399 . S
C104 C102 1.382 . S
C104 H105 0.952 . S
H105 C104 0.952 . S
H106 C102 0.950 . S
H107 C108 0.949 . S
C108 H107 0.949 . S
C108 C109 1.395 . S
C108 C110 1.391 . S
C109 C108 1.395 . S
C109 C112 1.390 . S
C110 C108 1.391 . S
C110 C114 1.387 . S
C110 C115 1.491 1_655 S
H111 C112 0.950 . S
C112 C109 1.390 . S
C112 H111 0.950 . S
C112 C113 1.378 . S
C113 C112 1.378 . S
C113 C114 1.409 . S
C114 C110 1.387 . S
C114 C113 1.409 . S
C114 H116 0.951 . S
C115 C110 1.491 1_455 S
C115 C117 1.382 . S
C115 C119 1.404 . S
H116 C114 0.951 . S
C117 C115 1.382 . S
C117 C118 1.390 . S
C117 H122 0.949 . S
C118 C117 1.390 . S
C118 C123 1.399 . S
C119 C115 1.404 . S
C119 H120 0.950 . S
C119 C121 1.375 . S
H120 C119 0.950 . S
C121 C119 1.375 . S
C121 C123 1.382 . S
C121 H125 0.950 . S
H122 C117 0.949 . S
C123 C118 1.399 . S
C123 C121 1.382 . S
C123 H124 0.952 . S
H124 C123 0.952 . S
H125 C121 0.950 . S
H126 C127 0.949 . S
C127 H126 0.949 . S
C127 C128 1.395 . S
C127 C129 1.391 1_556 S
C128 C127 1.395 . S
C128 C131 1.390 1_556 S
C129 C127 1.391 1_554 S
C129 C133 1.387 . S
C129 C134 1.491 . S
H130 C131 0.950 . S
C131 C128 1.390 1_554 S
C131 H130 0.950 . S
C131 C132 1.378 . S
C132 C131 1.378 . S
C132 C133 1.409 . S
C133 C129 1.387 . S
C133 C132 1.409 . S
C133 H135 0.951 . S
C134 C129 1.491 . S
C134 C136 1.382 . S
C134 C138 1.404 . S
H135 C133 0.951 . S
C136 C134 1.382 . S
C136 C137 1.390 . S
C136 H141 0.949 1_554 S
C137 C136 1.390 . S
C137 C142 1.399 . S
C138 C134 1.404 . S
C138 H139 0.950 . S
C138 C140 1.375 . S
H139 C138 0.950 . S
C140 C138 1.375 . S
C140 C142 1.382 . S
C140 H144 0.950 . S
H141 C136 0.949 1_556 S
C142 C137 1.399 . S
C142 C140 1.382 . S
C142 H143 0.952 . S
H143 C142 0.952 . S
H144 C140 0.950 . S
H145 C146 0.949 . S
C146 H145 0.949 . S
C146 C147 1.395 . S
C146 C148 1.391 . S
C147 C146 1.395 . S
C147 C150 1.390 . S
C148 C146 1.391 . S
C148 C152 1.387 . S
C148 C153 1.491 1_455 S
H149 C150 0.950 . S
C150 C147 1.390 . S
C150 H149 0.950 . S
C150 C151 1.378 . S
C151 C150 1.378 . S
C151 C152 1.409 . S
C152 C148 1.387 . S
C152 C151 1.409 . S
C152 H154 0.951 . S
C153 C148 1.491 1_655 S
C153 C155 1.382 . S
C153 C157 1.404 . S
H154 C152 0.951 . S
C155 C153 1.382 . S
C155 C156 1.390 . S
C155 H160 0.949 . S
C156 C155 1.390 . S
C156 C161 1.399 . S
C157 C153 1.404 . S
C157 H158 0.950 . S
C157 C159 1.375 . S
H158 C157 0.950 . S
C159 C157 1.375 . S
C159 C161 1.382 . S
C159 H163 0.950 . S
H160 C155 0.949 . S
C161 C156 1.399 . S
C161 C159 1.382 . S
C161 H162 0.952 . S
H162 C161 0.952 . S
H163 C159 0.950 . S
H164 C165 0.949 . S
C165 H164 0.949 . S
C165 C166 1.395 . S
C165 C167 1.391 . S
C166 C165 1.395 . S
C166 C169 1.390 . S
C167 C165 1.391 . S
C167 C171 1.387 . S
C167 C172 1.491 1_565 S
H168 C169 0.950 . S
C169 C166 1.390 . S
C169 H168 0.950 . S
C169 C170 1.378 . S
C170 C169 1.378 . S
C170 C171 1.409 . S
C171 C167 1.387 . S
C171 C170 1.409 . S
C171 H173 0.951 . S
C172 C167 1.491 1_545 S
C172 C174 1.382 . S
C172 C176 1.404 . S
H173 C171 0.951 . S
C174 C172 1.382 . S
C174 C175 1.390 . S
C174 H179 0.949 . S
C175 C174 1.390 . S
C175 C180 1.399 . S
C176 C172 1.404 . S
C176 H177 0.950 . S
C176 C178 1.375 . S
H177 C176 0.950 . S
C178 C176 1.375 . S
C178 C180 1.382 . S
C178 H182 0.950 . S
H179 C174 0.949 . S
C180 C175 1.399 . S
C180 C178 1.382 . S
C180 H181 0.952 . S
H181 C180 0.952 . S
H182 C178 0.950 . S
H183 C184 0.949 . S
C184 H183 0.949 . S
C184 C185 1.395 . S
C184 C186 1.391 1_554 S
C185 C184 1.395 . S
C185 C188 1.390 . S
C186 C184 1.391 1_556 S
C186 C190 1.387 . S
C186 C191 1.491 . S
H187 C188 0.950 . S
C188 C185 1.390 . S
C188 H187 0.950 . S
C188 C189 1.378 1_554 S
C189 C188 1.378 1_556 S
C189 C190 1.409 . S
C190 C186 1.387 . S
C190 C189 1.409 . S
C190 H192 0.951 . S
C191 C186 1.491 . S
C191 C193 1.382 1_556 S
C191 C195 1.404 . S
H192 C190 0.951 . S
C193 C191 1.382 1_554 S
C193 C194 1.390 1_554 S
C193 H198 0.949 . S
C194 C193 1.390 1_556 S
C194 C199 1.399 . S
C195 C191 1.404 . S
C195 H196 0.950 . S
C195 C197 1.375 . S
H196 C195 0.950 . S
C197 C195 1.375 . S
C197 C199 1.382 . S
C197 H201 0.950 . S
H198 C193 0.949 . S
C199 C194 1.399 . S
C199 C197 1.382 . S
C199 H200 0.952 . S
H200 C199 0.952 . S
H201 C197 0.950 . S
H202 C203 0.949 . S
C203 H202 0.949 . S
C203 C204 1.395 . S
C203 C205 1.391 . S
C204 C203 1.395 . S
C204 C207 1.390 . S
C205 C203 1.391 . S
C205 C209 1.387 . S
C205 C210 1.491 1_545 S
H206 C207 0.950 . S
C207 C204 1.390 . S
C207 H206 0.950 . S
C207 C208 1.378 . S
C208 C207 1.378 . S
C208 C209 1.409 . S
C209 C205 1.387 . S
C209 C208 1.409 . S
C209 H211 0.951 . S
C210 C205 1.491 1_565 S
C210 C212 1.382 . S
C210 C214 1.404 . S
H211 C209 0.951 . S
C212 C210 1.382 . S
C212 C213 1.390 . S
C212 H217 0.949 . S
C213 C212 1.390 . S
C213 C218 1.399 . S
C214 C210 1.404 . S
C214 H215 0.950 . S
C214 C216 1.375 . S
H215 C214 0.950 . S
C216 C214 1.375 . S
C216 C218 1.382 . S
C216 H220 0.950 . S
H217 C212 0.949 . S
C218 C213 1.399 . S
C218 C216 1.382 . S
C218 H219 0.952 . S
H219 C218 0.952 . S
H220 C216 0.950 . S
H221 C222 0.949 . S
C222 H221 0.949 . S
C222 C223 1.395 . S
C222 C224 1.391 1_556 S
C223 C222 1.395 . S
C223 C226 1.390 1_556 S
C224 C222 1.391 1_554 S
C224 C228 1.387 . S
C224 C229 1.491 . S
H225 C226 0.950 . S
C226 C223 1.390 1_554 S
C226 H225 0.950 . S
C226 C227 1.378 . S
C227 C226 1.378 . S
C227 C228 1.409 . S
C228 C224 1.387 . S
C228 C227 1.409 . S
C228 H230 0.951 . S
C229 C224 1.491 . S
C229 C231 1.382 . S
C229 C233 1.404 . S
H230 C228 0.951 . S
C231 C229 1.382 . S
C231 C232 1.390 . S
C231 H236 0.949 1_554 S
C232 C231 1.390 . S
C232 C237 1.399 . S
C233 C229 1.404 . S
C233 H234 0.950 . S
C233 C235 1.375 . S
H234 C233 0.950 . S
C235 C233 1.375 . S
C235 C237 1.382 . S
C235 H239 0.950 . S
H236 C231 0.949 1_556 S
C237 C232 1.399 . S
C237 C235 1.382 . S
C237 H238 0.952 . S
H238 C237 0.952 . S
H239 C235 0.950 . S
H240 C246 0.930 . S
H241 C249 0.930 . S
H242 C250 0.930 . S
H243 C251 0.930 . S
H244 C254 0.930 . S
H245 C255 0.930 . S
C246 H240 0.930 . S
C246 C247 1.355 . S
C246 C248 1.415 . S
C247 C246 1.355 . S
C247 C249 1.419 . S
C248 C246 1.415 . S
C248 C253 1.425 . S
C248 C255 1.409 . S
C249 H241 0.930 . S
C249 C247 1.419 . S
C249 C250 1.362 . S
C250 H242 0.930 . S
C250 C249 1.362 . S
C250 C253 1.409 . S
C251 H243 0.930 . S
C251 C252 1.355 . S
C251 C253 1.415 . S
C252 C251 1.355 . S
C252 C254 1.419 . S
C253 C248 1.425 . S
C253 C250 1.409 . S
C253 C251 1.415 . S
C254 H244 0.930 . S
C254 C252 1.419 . S
C254 C255 1.362 . S
C255 H245 0.930 . S
C255 C248 1.409 . S
C255 C254 1.362 . S
H256 C262 0.930 . S
H257 C265 0.930 . S
H258 C266 0.930 . S
H259 C267 0.930 . S
H260 C270 0.930 . S
H261 C271 0.930 . S
C262 H256 0.930 . S
C262 C263 1.355 . S
C262 C264 1.415 . S
C263 C262 1.355 . S
C263 C265 1.419 . S
C264 C262 1.415 . S
C264 C269 1.425 . S
C264 C271 1.409 . S
C265 H257 0.930 . S
C265 C263 1.419 . S
C265 C266 1.362 . S
C266 H258 0.930 . S
C266 C265 1.362 . S
C266 C269 1.409 . S
C267 H259 0.930 . S
C267 C268 1.355 . S
C267 C269 1.415 . S
C268 C267 1.355 . S
C268 C270 1.419 . S
C269 C264 1.425 . S
C269 C266 1.409 . S
C269 C267 1.415 . S
C270 H260 0.930 . S
C270 C268 1.419 . S
C270 C271 1.362 . S
C271 H261 0.930 . S
C271 C264 1.409 . S
C271 C270 1.362 . S
H272 C278 0.930 . S
H273 C281 0.930 . S
H274 C282 0.930 . S
H275 C283 0.930 . S
H276 C286 0.930 . S
H277 C287 0.930 . S
C278 H272 0.930 . S
C278 C279 1.355 . S
C278 C280 1.415 . S
C279 C278 1.355 . S
C279 C281 1.419 . S
C280 C278 1.415 . S
C280 C285 1.425 . S
C280 C287 1.409 . S
C281 H273 0.930 . S
C281 C279 1.419 . S
C281 C282 1.362 . S
C282 H274 0.930 . S
C282 C281 1.362 . S
C282 C285 1.409 . S
C283 H275 0.930 . S
C283 C284 1.355 . S
C283 C285 1.415 . S
C284 C283 1.355 . S
C284 C286 1.419 . S
C285 C280 1.425 . S
C285 C282 1.409 . S
C285 C283 1.415 . S
C286 H276 0.930 . S
C286 C284 1.419 . S
C286 C287 1.362 . S
C287 H277 0.930 . S
C287 C280 1.409 . S
C287 C286 1.362 . S
H288 C294 0.930 . S
H289 C297 0.930 . S
H290 C298 0.930 . S
H291 C299 0.930 . S
H292 C302 0.930 . S
H293 C303 0.930 . S
C294 H288 0.930 . S
C294 C295 1.355 . S
C294 C296 1.415 . S
C295 C294 1.355 . S
C295 C297 1.419 . S
C296 C294 1.415 . S
C296 C301 1.425 . S
C296 C303 1.409 . S
C297 H289 0.930 . S
C297 C295 1.419 . S
C297 C298 1.362 . S
C298 H290 0.930 . S
C298 C297 1.362 . S
C298 C301 1.409 . S
C299 H291 0.930 . S
C299 C300 1.355 . S
C299 C301 1.415 . S
C300 C299 1.355 . S
C300 C302 1.419 . S
C301 C296 1.425 . S
C301 C298 1.409 . S
C301 C299 1.415 . S
C302 H292 0.930 . S
C302 C300 1.419 . S
C302 C303 1.362 . S
C303 H293 0.930 . S
C303 C296 1.409 . S
C303 C302 1.362 . S
H304 C310 0.930 . S
H305 C313 0.930 . S
H306 C314 0.930 . S
H307 C315 0.930 . S
H308 C318 0.930 . S
H309 C319 0.930 . S
C310 H304 0.930 . S
C310 C311 1.355 . S
C310 C312 1.415 . S
C311 C310 1.355 . S
C311 C313 1.419 . S
C312 C310 1.415 . S
C312 C317 1.425 . S
C312 C319 1.409 . S
C313 H305 0.930 . S
C313 C311 1.419 . S
C313 C314 1.362 . S
C314 H306 0.930 . S
C314 C313 1.362 . S
C314 C317 1.409 . S
C315 H307 0.930 . S
C315 C316 1.355 . S
C315 C317 1.415 . S
C316 C315 1.355 . S
C316 C318 1.419 . S
C317 C312 1.425 . S
C317 C314 1.409 . S
C317 C315 1.415 . S
C318 H308 0.930 . S
C318 C316 1.419 . S
C318 C319 1.362 . S
C319 H309 0.930 . S
C319 C312 1.409 . S
C319 C318 1.362 . S
H320 C326 0.930 . S
H321 C329 0.930 . S
H322 C330 0.930 . S
H323 C331 0.930 . S
H324 C334 0.930 . S
H325 C335 0.930 . S
C326 H320 0.930 . S
C326 C327 1.355 . S
C326 C328 1.415 . S
C327 C326 1.355 . S
C327 C329 1.419 . S
C328 C326 1.415 . S
C328 C333 1.425 . S
C328 C335 1.409 . S
C329 H321 0.930 . S
C329 C327 1.419 . S
C329 C330 1.362 . S
C330 H322 0.930 . S
C330 C329 1.362 . S
C330 C333 1.409 . S
C331 H323 0.930 . S
C331 C332 1.355 . S
C331 C333 1.415 . S
C332 C331 1.355 . S
C332 C334 1.419 . S
C333 C328 1.425 . S
C333 C330 1.409 . S
C333 C331 1.415 . S
C334 H324 0.930 . S
C334 C332 1.419 . S
C334 C335 1.362 . S
C335 H325 0.930 . S
C335 C328 1.409 . S
C335 C334 1.362 . S
H336 C342 0.930 . S
H337 C345 0.930 . S
H338 C346 0.930 . S
H339 C347 0.930 . S
H340 C350 0.930 . S
H341 C351 0.930 . S
C342 H336 0.930 . S
C342 C343 1.355 . S
C342 C344 1.415 . S
C343 C342 1.355 . S
C343 C345 1.419 . S
C344 C342 1.415 . S
C344 C349 1.425 . S
C344 C351 1.409 . S
C345 H337 0.930 . S
C345 C343 1.419 . S
C345 C346 1.362 . S
C346 H338 0.930 . S
C346 C345 1.362 . S
C346 C349 1.409 . S
C347 H339 0.930 . S
C347 C348 1.355 . S
C347 C349 1.415 . S
C348 C347 1.355 . S
C348 C350 1.419 . S
C349 C344 1.425 . S
C349 C346 1.409 . S
C349 C347 1.415 . S
C350 H340 0.930 . S
C350 C348 1.419 . S
C350 C351 1.362 . S
C351 H341 0.930 . S
C351 C344 1.409 . S
C351 C350 1.362 . S
H352 C358 0.930 . S
H353 C361 0.930 . S
H354 C362 0.930 . S
H355 C363 0.930 . S
H356 C366 0.930 . S
H357 C367 0.930 . S
C358 H352 0.930 . S
C358 C359 1.355 . S
C358 C360 1.415 . S
C359 C358 1.355 . S
C359 C361 1.419 . S
C360 C358 1.415 . S
C360 C365 1.425 . S
C360 C367 1.409 . S
C361 H353 0.930 . S
C361 C359 1.419 . S
C361 C362 1.362 . S
C362 H354 0.930 . S
C362 C361 1.362 . S
C362 C365 1.409 . S
C363 H355 0.930 . S
C363 C364 1.355 . S
C363 C365 1.415 . S
C364 C363 1.355 . S
C364 C366 1.419 . S
C365 C360 1.425 . S
C365 C362 1.409 . S
C365 C363 1.415 . S
C366 H356 0.930 . S
C366 C364 1.419 . S
C366 C367 1.362 . S
C367 H357 0.930 . S
C367 C360 1.409 . S
C367 C366 1.362 . S
H368 C374 0.930 . S
H369 C377 0.930 . S
H370 C378 0.930 . S
H371 C379 0.930 . S
H372 C382 0.930 . S
H373 C383 0.930 . S
C374 H368 0.930 . S
C374 C375 1.355 . S
C374 C376 1.415 . S
C375 C374 1.355 . S
C375 C377 1.419 . S
C376 C374 1.415 . S
C376 C381 1.425 . S
C376 C383 1.409 . S
C377 H369 0.930 . S
C377 C375 1.419 . S
C377 C378 1.362 . S
C378 H370 0.930 . S
C378 C377 1.362 . S
C378 C381 1.409 . S
C379 H371 0.930 . S
C379 C380 1.355 . S
C379 C381 1.415 . S
C380 C379 1.355 . S
C380 C382 1.419 . S
C381 C376 1.425 . S
C381 C378 1.409 . S
C381 C379 1.415 . S
C382 H372 0.930 . S
C382 C380 1.419 . S
C382 C383 1.362 . S
C383 H373 0.930 . S
C383 C376 1.409 . S
C383 C382 1.362 . S
H384 C390 0.930 . S
H385 C393 0.930 . S
H386 C394 0.930 . S
H387 C395 0.930 . S
H388 C398 0.930 . S
H389 C399 0.930 . S
C390 H384 0.930 . S
C390 C391 1.355 . S
C390 C392 1.415 . S
C391 C390 1.355 . S
C391 C393 1.419 . S
C392 C390 1.415 . S
C392 C397 1.425 . S
C392 C399 1.409 . S
C393 H385 0.930 . S
C393 C391 1.419 . S
C393 C394 1.362 . S
C394 H386 0.930 . S
C394 C393 1.362 . S
C394 C397 1.409 . S
C395 H387 0.930 . S
C395 C396 1.355 . S
C395 C397 1.415 . S
C396 C395 1.355 . S
C396 C398 1.419 . S
C397 C392 1.425 . S
C397 C394 1.409 . S
C397 C395 1.415 . S
C398 H388 0.930 . S
C398 C396 1.419 . S
C398 C399 1.362 . S
C399 H389 0.930 . S
C399 C392 1.409 . S
C399 C398 1.362 . S
H400 C406 0.930 . S
H401 C409 0.930 . S
H402 C410 0.930 . S
H403 C411 0.930 . S
H404 C414 0.930 . S
H405 C415 0.930 . S
C406 H400 0.930 . S
C406 C407 1.355 . S
C406 C408 1.415 . S
C407 C406 1.355 . S
C407 C409 1.419 . S
C408 C406 1.415 . S
C408 C413 1.425 . S
C408 C415 1.409 . S
C409 H401 0.930 . S
C409 C407 1.419 . S
C409 C410 1.362 . S
C410 H402 0.930 . S
C410 C409 1.362 . S
C410 C413 1.409 . S
C411 H403 0.930 . S
C411 C412 1.355 . S
C411 C413 1.415 . S
C412 C411 1.355 . S
C412 C414 1.419 . S
C413 C408 1.425 . S
C413 C410 1.409 . S
C413 C411 1.415 . S
C414 H404 0.930 . S
C414 C412 1.419 . S
C414 C415 1.362 . S
C415 H405 0.930 . S
C415 C408 1.409 . S
C415 C414 1.362 . S
H416 C422 0.930 . S
H417 C425 0.930 . S
H418 C426 0.930 . S
H419 C427 0.930 . S
H420 C430 0.930 . S
H421 C431 0.930 . S
C422 H416 0.930 . S
C422 C423 1.355 . S
C422 C424 1.415 . S
C423 C422 1.355 . S
C423 C425 1.419 . S
C424 C422 1.415 . S
C424 C429 1.425 . S
C424 C431 1.409 . S
C425 H417 0.930 . S
C425 C423 1.419 . S
C425 C426 1.362 . S
C426 H418 0.930 . S
C426 C425 1.362 . S
C426 C429 1.409 . S
C427 H419 0.930 . S
C427 C428 1.355 . S
C427 C429 1.415 . S
C428 C427 1.355 . S
C428 C430 1.419 . S
C429 C424 1.425 . S
C429 C426 1.409 . S
C429 C427 1.415 . S
C430 H420 0.930 . S
C430 C428 1.419 . S
C430 C431 1.362 . S
C431 H421 0.930 . S
C431 C424 1.409 . S
C431 C430 1.362 . S
H432 C438 0.930 . S
H433 C441 0.930 . S
H434 C442 0.930 . S
H435 C443 0.930 . S
H436 C446 0.930 . S
H437 C447 0.930 . S
C438 H432 0.930 . S
C438 C439 1.355 . S
C438 C440 1.415 . S
C439 C438 1.355 . S
C439 C441 1.419 . S
C440 C438 1.415 . S
C440 C445 1.425 . S
C440 C447 1.409 . S
C441 H433 0.930 . S
C441 C439 1.419 . S
C441 C442 1.362 . S
C442 H434 0.930 . S
C442 C441 1.362 . S
C442 C445 1.409 . S
C443 H435 0.930 . S
C443 C444 1.355 . S
C443 C445 1.415 . S
C444 C443 1.355 . S
C444 C446 1.419 . S
C445 C440 1.425 . S
C445 C442 1.409 . S
C445 C443 1.415 . S
C446 H436 0.930 . S
C446 C444 1.419 . S
C446 C447 1.362 . S
C447 H437 0.930 . S
C447 C440 1.409 . S
C447 C446 1.362 . S
H448 C454 0.930 . S
H449 C457 0.930 . S
H450 C458 0.930 . S
H451 C459 0.930 . S
H452 C462 0.930 . S
H453 C463 0.930 . S
C454 H448 0.930 . S
C454 C455 1.355 . S
C454 C456 1.415 . S
C455 C454 1.355 . S
C455 C457 1.419 . S
C456 C454 1.415 . S
C456 C461 1.425 . S
C456 C463 1.409 . S
C457 H449 0.930 . S
C457 C455 1.419 . S
C457 C458 1.362 . S
C458 H450 0.930 . S
C458 C457 1.362 . S
C458 C461 1.409 . S
C459 H451 0.930 . S
C459 C460 1.355 . S
C459 C461 1.415 . S
C460 C459 1.355 . S
C460 C462 1.419 . S
C461 C456 1.425 . S
C461 C458 1.409 . S
C461 C459 1.415 . S
C462 H452 0.930 . S
C462 C460 1.419 . S
C462 C463 1.362 . S
C463 H453 0.930 . S
C463 C456 1.409 . S
C463 C462 1.362 . S
H464 C470 0.930 . S
H465 C473 0.930 . S
H466 C474 0.930 . S
H467 C475 0.930 . S
H468 C478 0.930 . S
H469 C479 0.930 . S
C470 H464 0.930 . S
C470 C471 1.355 . S
C470 C472 1.415 . S
C471 C470 1.355 . S
C471 C473 1.419 . S
C472 C470 1.415 . S
C472 C477 1.425 . S
C472 C479 1.409 . S
C473 H465 0.930 . S
C473 C471 1.419 . S
C473 C474 1.362 . S
C474 H466 0.930 . S
C474 C473 1.362 . S
C474 C477 1.409 . S
C475 H467 0.930 . S
C475 C476 1.355 . S
C475 C477 1.415 . S
C476 C475 1.355 . S
C476 C478 1.419 . S
C477 C472 1.425 . S
C477 C474 1.409 . S
C477 C475 1.415 . S
C478 H468 0.930 . S
C478 C476 1.419 . S
C478 C479 1.362 . S
C479 H469 0.930 . S
C479 C472 1.409 . S
C479 C478 1.362 . S
H480 C486 0.930 . S
H481 C489 0.930 . S
H482 C490 0.930 . S
H483 C491 0.930 . S
H484 C494 0.930 . S
H485 C495 0.930 . S
C486 H480 0.930 . S
C486 C487 1.355 . S
C486 C488 1.415 . S
C487 C486 1.355 . S
C487 C489 1.419 . S
C488 C486 1.415 . S
C488 C493 1.425 . S
C488 C495 1.409 . S
C489 H481 0.930 . S
C489 C487 1.419 . S
C489 C490 1.362 . S
C490 H482 0.930 . S
C490 C489 1.362 . S
C490 C493 1.409 . S
C491 H483 0.930 . S
C491 C492 1.355 . S
C491 C493 1.415 . S
C492 C491 1.355 . S
C492 C494 1.419 . S
C493 C488 1.425 . S
C493 C490 1.409 . S
C493 C491 1.415 . S
C494 H484 0.930 . S
C494 C492 1.419 . S
C494 C495 1.362 . S
C495 H485 0.930 . S
C495 C488 1.409 . S
C495 C494 1.362 . S
H496 C502 0.930 . S
H497 C505 0.930 . S
H498 C506 0.930 . S
H499 C507 0.930 1_556 S
H500 C510 0.930 . S
H501 C511 0.930 . S
C502 H496 0.930 . S
C502 C503 1.355 . S
C502 C504 1.415 . S
C503 C502 1.355 . S
C503 C505 1.419 1_554 S
C504 C502 1.415 . S
C504 C509 1.425 . S
C504 C511 1.409 . S
C505 H497 0.930 . S
C505 C503 1.419 1_556 S
C505 C506 1.362 . S
C506 H498 0.930 . S
C506 C505 1.362 . S
C506 C509 1.409 1_556 S
C507 H499 0.930 1_554 S
C507 C508 1.355 . S
C507 C509 1.415 . S
C508 C507 1.355 . S
C508 C510 1.419 . S
C509 C504 1.425 . S
C509 C506 1.409 1_554 S
C509 C507 1.415 . S
C510 H500 0.930 . S
C510 C508 1.419 . S
C510 C511 1.362 . S
C511 H501 0.930 . S
C511 C504 1.409 . S
C511 C510 1.362 . S
H512 C518 0.930 . S
H513 C521 0.930 . S
H514 C522 0.930 . S
H515 C523 0.930 . S
H516 C526 0.930 . S
H517 C527 0.930 . S
C518 H512 0.930 . S
C518 C519 1.355 . S
C518 C520 1.415 . S
C519 C518 1.355 . S
C519 C521 1.419 . S
C520 C518 1.415 . S
C520 C525 1.425 . S
C520 C527 1.409 . S
C521 H513 0.930 . S
C521 C519 1.419 . S
C521 C522 1.362 . S
C522 H514 0.930 . S
C522 C521 1.362 . S
C522 C525 1.409 . S
C523 H515 0.930 . S
C523 C524 1.355 . S
C523 C525 1.415 . S
C524 C523 1.355 . S
C524 C526 1.419 . S
C525 C520 1.425 . S
C525 C522 1.409 . S
C525 C523 1.415 . S
C526 H516 0.930 . S
C526 C524 1.419 . S
C526 C527 1.362 . S
C527 H517 0.930 . S
C527 C520 1.409 . S
C527 C526 1.362 . S
H528 C534 0.930 . S
H529 C537 0.930 . S
H530 C538 0.930 . S
H531 C539 0.930 . S
H532 C542 0.930 . S
H533 C543 0.930 . S
C534 H528 0.930 . S
C534 C535 1.355 . S
C534 C536 1.415 . S
C535 C534 1.355 . S
C535 C537 1.419 . S
C536 C534 1.415 . S
C536 C541 1.425 . S
C536 C543 1.409 . S
C537 H529 0.930 . S
C537 C535 1.419 . S
C537 C538 1.362 . S
C538 H530 0.930 . S
C538 C537 1.362 . S
C538 C541 1.409 . S
C539 H531 0.930 . S
C539 C540 1.355 . S
C539 C541 1.415 . S
C540 C539 1.355 . S
C540 C542 1.419 . S
C541 C536 1.425 . S
C541 C538 1.409 . S
C541 C539 1.415 . S
C542 H532 0.930 . S
C542 C540 1.419 . S
C542 C543 1.362 . S
C543 H533 0.930 . S
C543 C536 1.409 . S
C543 C542 1.362 . S
H544 C550 0.930 . S
H545 C553 0.930 . S
H546 C554 0.930 . S
H547 C555 0.930 . S
H548 C558 0.930 . S
H549 C559 0.930 . S
C550 H544 0.930 . S
C550 C551 1.355 . S
C550 C552 1.415 . S
C551 C550 1.355 . S
C551 C553 1.419 . S
C552 C550 1.415 . S
C552 C557 1.425 . S
C552 C559 1.409 . S
C553 H545 0.930 . S
C553 C551 1.419 . S
C553 C554 1.362 . S
C554 H546 0.930 . S
C554 C553 1.362 . S
C554 C557 1.409 . S
C555 H547 0.930 . S
C555 C556 1.355 . S
C555 C557 1.415 . S
C556 C555 1.355 . S
C556 C558 1.419 . S
C557 C552 1.425 . S
C557 C554 1.409 . S
C557 C555 1.415 . S
C558 H548 0.930 . S
C558 C556 1.419 . S
C558 C559 1.362 . S
C559 H549 0.930 . S
C559 C552 1.409 . S
C559 C558 1.362 . S
H560 C566 0.930 . S
H561 C569 0.930 . S
H562 C570 0.930 . S
H563 C571 0.930 . S
H564 C574 0.930 . S
H565 C575 0.930 . S
C566 H560 0.930 . S
C566 C567 1.355 . S
C566 C568 1.415 . S
C567 C566 1.355 . S
C567 C569 1.419 . S
C568 C566 1.415 . S
C568 C573 1.425 . S
C568 C575 1.409 . S
C569 H561 0.930 . S
C569 C567 1.419 . S
C569 C570 1.362 . S
C570 H562 0.930 . S
C570 C569 1.362 . S
C570 C573 1.409 . S
C571 H563 0.930 . S
C571 C572 1.355 . S
C571 C573 1.415 . S
C572 C571 1.355 . S
C572 C574 1.419 . S
C573 C568 1.425 . S
C573 C570 1.409 . S
C573 C571 1.415 . S
C574 H564 0.930 . S
C574 C572 1.419 . S
C574 C575 1.362 . S
C575 H565 0.930 . S
C575 C568 1.409 . S
C575 C574 1.362 . S
H576 C582 0.930 . S
H577 C585 0.930 . S
H578 C586 0.930 . S
H579 C587 0.930 . S
H580 C590 0.930 . S
H581 C591 0.930 . S
C582 H576 0.930 . S
C582 C583 1.355 1_556 S
C582 C584 1.415 . S
C583 C582 1.355 1_554 S
C583 C585 1.419 . S
C584 C582 1.415 . S
C584 C589 1.425 1_556 S
C584 C591 1.409 . S
C585 H577 0.930 . S
C585 C583 1.419 . S
C585 C586 1.362 . S
C586 H578 0.930 . S
C586 C585 1.362 . S
C586 C589 1.409 . S
C587 H579 0.930 . S
C587 C588 1.355 . S
C587 C589 1.415 . S
C588 C587 1.355 . S
C588 C590 1.419 1_554 S
C589 C584 1.425 1_554 S
C589 C586 1.409 . S
C589 C587 1.415 . S
C590 H580 0.930 . S
C590 C588 1.419 1_556 S
C590 C591 1.362 . S
C591 H581 0.930 . S
C591 C584 1.409 . S
C591 C590 1.362 . S
H592 C598 0.930 . S
H593 C601 0.930 . S
H594 C602 0.930 . S
H595 C603 0.930 . S
H596 C606 0.930 . S
H597 C607 0.930 . S
C598 H592 0.930 . S
C598 C599 1.355 . S
C598 C600 1.415 . S
C599 C598 1.355 . S
C599 C601 1.419 . S
C600 C598 1.415 . S
C600 C605 1.425 . S
C600 C607 1.409 . S
C601 H593 0.930 . S
C601 C599 1.419 . S
C601 C602 1.362 . S
C602 H594 0.930 . S
C602 C601 1.362 . S
C602 C605 1.409 . S
C603 H595 0.930 . S
C603 C604 1.355 . S
C603 C605 1.415 . S
C604 C603 1.355 . S
C604 C606 1.419 . S
C605 C600 1.425 . S
C605 C602 1.409 . S
C605 C603 1.415 . S
C606 H596 0.930 . S
C606 C604 1.419 . S
C606 C607 1.362 . S
C607 H597 0.930 . S
C607 C600 1.409 . S
C607 C606 1.362 . S
H608 C614 0.930 . S
H609 C617 0.930 . S
H610 C618 0.930 . S
H611 C619 0.930 . S
H612 C622 0.930 . S
H613 C623 0.930 . S
C614 H608 0.930 . S
C614 C615 1.355 . S
C614 C616 1.415 . S
C615 C614 1.355 . S
C615 C617 1.419 . S
C616 C614 1.415 . S
C616 C621 1.425 . S
C616 C623 1.409 . S
C617 H609 0.930 . S
C617 C615 1.419 . S
C617 C618 1.362 . S
C618 H610 0.930 . S
C618 C617 1.362 . S
C618 C621 1.409 . S
C619 H611 0.930 . S
C619 C620 1.355 . S
C619 C621 1.415 . S
C620 C619 1.355 . S
C620 C622 1.419 . S
C621 C616 1.425 . S
C621 C618 1.409 . S
C621 C619 1.415 . S
C622 H612 0.930 . S
C622 C620 1.419 . S
C622 C623 1.362 . S
C623 H613 0.930 . S
C623 C616 1.409 . S
C623 C622 1.362 . S
C247 C21 1.508 . S
C252 C151 1.527 . S
C263 C40 1.498 . S
C268 C94 1.485 . S
C284 C109 1.500 . S
C279 C54 1.515 . S
C295 C73 1.545 . S
C300 C128 1.472 . S
C316 C185 1.486 . S
C311 C74 1.499 . S
C332 C204 1.486 . S
C327 C10 1.527 . S
C348 C227 1.543 . S
C343 C37 1.524 . S
C364 C170 1.501 . S
C359 C65 1.501 . S
C375 C52 1.461 . S
C380 C113 1.475 . S
C391 C87 1.521 . S
C396 C132 1.512 . S
C407 C15 1.551 . S
C412 C147 1.546 . S
C428 C90 1.446 . S
C423 C32 1.513 . S
C439 C29 1.555 . S
C444 C223 1.480 . S
C460 C166 1.538 . S
C455 C59 1.540 . S
C476 C189 1.488 . S
C471 C84 1.476 . S
C487 C8 1.474 . S
C492 C208 1.485 . S
C508 C99 1.434 1_554 S
C503 C7 1.487 . S
C524 C118 1.422 . S
C519 C30 1.484 . S
C535 C62 1.497 . S
C540 C137 1.426 . S
C551 C81 1.512 . S
C556 C156 1.430 . S
C572 C175 1.332 . S
C567 C76 1.491 . S
C583 C18 1.482 . S
C588 C194 1.321 1_554 S
C599 C43 1.483 . S
C604 C213 1.359 . S
C615 C51 1.525 . S
C620 C232 1.339 . S
