# Generated by pormake.
# Topology rtl, (3,6)-cn, num edge types: 1
# Building blocks:
#     Node 0, Type 0, BuildingBlock: INOVEN_clean_linker_0, # of connection points: 3
#     Node 1, Type 0, BuildingBlock: INOVEN_clean_linker_0, # of connection points: 3
#     Node 2, Type 0, BuildingBlock: INOVEN_clean_linker_0, # of connection points: 3
#     Node 3, Type 0, BuildingBlock: INOVEN_clean_linker_0, # of connection points: 3
#     Node 4, Type 1, BuildingBlock: LEVNOQ01_clean_sbu_1, # of connection points: 6
#     Node 5, Type 1, BuildingBlock: LEVNOQ01_clean_sbu_1, # of connection points: 6
#     Edge 6, Type (0, 1), BuildingBlock: MIFKUJ_clean_linker_0, # of connection points: 2
#     Edge 7, Type (0, 1), BuildingBlock: MIFKUJ_clean_linker_0, # of connection points: 2
#     Edge 8, Type (0, 1), BuildingBlock: MIFKUJ_clean_linker_0, # of connection points: 2
#     Edge 9, Type (0, 1), BuildingBlock: MIFKUJ_clean_linker_0, # of connection points: 2
#     Edge 10, Type (0, 1), BuildingBlock: MIFKUJ_clean_linker_0, # of connection points: 2
#     Edge 11, Type (0, 1), BuildingBlock: MIFKUJ_clean_linker_0, # of connection points: 2
#     Edge 12, Type (0, 1), BuildingBlock: MIFKUJ_clean_linker_0, # of connection points: 2
#     Edge 13, Type (0, 1), BuildingBlock: MIFKUJ_clean_linker_0, # of connection points: 2
#     Edge 14, Type (0, 1), BuildingBlock: MIFKUJ_clean_linker_0, # of connection points: 2
#     Edge 15, Type (0, 1), BuildingBlock: MIFKUJ_clean_linker_0, # of connection points: 2
#     Edge 16, Type (0, 1), BuildingBlock: MIFKUJ_clean_linker_0, # of connection points: 2
#     Edge 17, Type (0, 1), BuildingBlock: MIFKUJ_clean_linker_0, # of connection points: 2
# Relax obj value: 0.015
# Max RMSD: 0.117
# Mean RMSD: 0.085
data_MOF--net-rtl--node1-LEVNOQ01_clean_sbu_1--node2-INOVEN_clean_linker_0--edge1-MIFKUJ_clean_linker_0
_symmetry_space_group_name_H-M    P1
_symmetry_Int_Tables_number       1
_symmetry_cell_setting            triclinic
loop_
_symmetry_equiv_pos_as_xyz
'x, y, z'
_cell_length_a     45.742853
_cell_length_b     45.754697
_cell_length_c     29.02767
_cell_angle_alpha  91.194858
_cell_angle_beta   98.499592
_cell_angle_gamma 90.08271
loop_
_atom_site_label
_atom_site_type_symbol
_atom_site_fract_x
_atom_site_fract_y
_atom_site_fract_z
_atom_type_partial_charge
H0 H 0.23123 0.84072 0.01204 0.0
H1 H 0.18182 0.9022 0.08406 0.0
H2 H 0.2446 0.84535 0.16176 0.0
N3 N 0.26073 0.81703 0.08662 0.0
N4 N 0.27619 0.80853 0.12294 0.0
C5 C 0.22598 0.85057 0.04407 0.0
C6 C 0.20506 0.87319 0.0425 0.0
C7 C 0.24046 0.84056 0.08679 0.0
C8 C 0.23378 0.85318 0.1286 0.0
C9 C 0.21281 0.87564 0.12779 0.0
C10 C 0.19873 0.88559 0.08467 0.0
H11 H 0.68155 0.74328 0.65775 0.0
H12 H 0.6185 0.695 0.56026 0.0
H13 H 0.67957 0.75381 0.51051 0.0
N14 N 0.70581 0.77244 0.5964 0.0
N15 N 0.72013 0.78169 0.56626 0.0
C16 C 0.67157 0.73799 0.62236 0.0
C17 C 0.64903 0.71677 0.61372 0.0
C18 C 0.68243 0.7517 0.58552 0.0
C19 C 0.67067 0.74397 0.53911 0.0
C20 C 0.64792 0.72297 0.52972 0.0
C21 C 0.63683 0.71024 0.56731 0.0
H22 H 0.77477 0.18969 0.90507 0.0
H23 H 0.84341 0.14202 0.98937 0.0
H24 H 0.78729 0.19998 0.05443 0.0
N25 N 0.75527 0.21837 0.97384 0.0
N26 N 0.74872 0.23273 0.00785 0.0
C27 C 0.78643 0.18392 0.9389 0.0
C28 C 0.8101 0.16411 0.94211 0.0
C29 C 0.77824 0.19722 0.979 0.0
C30 C 0.79347 0.18999 0.02311 0.0
C31 C 0.81717 0.17028 0.0269 0.0
C32 C 0.82543 0.1576 0.98633 0.0
H33 H 0.32706 0.30563 0.42513 0.0
H34 H 0.389 0.35148 0.52782 0.0
H35 H 0.33215 0.28541 0.57002 0.0
N36 N 0.3033 0.27302 0.48336 0.0
N37 N 0.29776 0.2533 0.50992 0.0
C38 C 0.33694 0.30955 0.46101 0.0
C39 C 0.35991 0.33016 0.47188 0.0
C40 C 0.32693 0.29324 0.49602 0.0
C41 C 0.33989 0.29782 0.54279 0.0
C42 C 0.36256 0.31867 0.55451 0.0
C43 C 0.3723 0.33467 0.5188 0.0
O44 O 0.98345 0.08251 0.59962 0.0
Mg45 Mg 0.0265 0.06757 0.5997 0.0
O46 O 0.96928 0.03841 0.57389 0.0
Mg47 Mg 0.00659 0.01747 0.53465 0.0
O48 O 0.03851 0.05794 0.53618 0.0
O49 O 0.05507 0.09717 0.58013 0.0
O50 O 0.04429 0.9967 0.49622 0.0
O51 O 0.98121 0.0389 0.46644 0.0
Mg52 Mg 0.98483 0.97474 0.46755 0.0
O53 O 0.97497 0.97532 0.53463 0.0
O54 O 0.0254 0.95856 0.45505 0.0
O55 O 0.96136 0.00321 0.42023 0.0
O56 O 0.9594 0.94125 0.47928 0.0
C57 C 0.04401 0.00962 0.64309 0.0
C58 C 0.96363 0.06306 0.59209 0.0
C59 C 0.05489 0.08142 0.54272 0.0
C60 C 0.04739 0.97438 0.47034 0.0
C61 C 0.96512 0.03021 0.4289 0.0
C62 C 0.9599 0.95153 0.52108 0.0
O63 O 0.04397 0.03708 0.65021 0.0
O64 O 0.03215 0.99848 0.60395 0.0
O65 O 0.56861 0.5559 0.10895 0.0
Mg66 Mg 0.55064 0.51365 0.10731 0.0
O67 O 0.52092 0.56081 0.0949 0.0
Mg68 Mg 0.50628 0.52046 0.04221 0.0
O69 O 0.5487 0.48896 0.04733 0.0
O70 O 0.58421 0.48538 0.10921 0.0
O71 O 0.49062 0.48029 0.98925 0.0
O72 O 0.52739 0.54593 0.98672 0.0
Mg73 Mg 0.46234 0.52938 0.97411 0.0
O74 O 0.46398 0.55132 0.03678 0.0
O75 O 0.44345 0.48779 0.96913 0.0
O76 O 0.49159 0.54216 0.92742 0.0
O77 O 0.43004 0.559 0.97407 0.0
C78 C 0.49632 0.49227 0.14118 0.0
C79 C 0.5463 0.57174 0.10985 0.0
C80 C 0.57301 0.47703 0.06766 0.0
C81 C 0.46514 0.4708 0.97108 0.0
C82 C 0.51768 0.54995 0.94391 0.0
C83 C 0.44039 0.56471 0.01707 0.0
O84 O 0.52258 0.50051 0.15583 0.0
O85 O 0.48559 0.49564 0.09856 0.0
H86 H 0.29008 0.20358 0.55178 0.0
H87 H 0.24755 0.1701 0.53588 0.0
H88 H 0.20735 0.22617 0.42695 0.0
H89 H 0.25017 0.25929 0.44212 0.0
H90 H 0.17053 0.21096 0.49509 0.0
H91 H 0.23016 0.16461 0.39333 0.0
H92 H 0.27539 0.14267 0.37115 0.0
H93 H 0.27354 0.07661 0.4736 0.0
H94 H 0.22854 0.09842 0.49695 0.0
H95 H 0.04807 0.11835 0.46962 0.0
H96 H 0.08859 0.14396 0.44045 0.0
H97 H 0.1517 0.08972 0.5245 0.0
H98 H 0.1112 0.06338 0.55154 0.0
H99 H 0.17504 0.10558 0.45287 0.0
H100 H 0.12447 0.15613 0.56608 0.0
H101 H 0.0812 0.17781 0.59528 0.0
H102 H 0.06852 0.23575 0.47958 0.0
H103 H 0.11154 0.21411 0.44939 0.0
C104 C 0.27229 0.20843 0.52407 0.0
C105 C 0.27347 0.23376 0.49811 0.0
C106 C 0.24812 0.18934 0.51488 0.0
C107 C 0.22441 0.19553 0.47995 0.0
C108 C 0.22551 0.22089 0.45381 0.0
C109 C 0.24998 0.23974 0.46245 0.0
C110 C 0.19771 0.1765 0.4733 0.0
C111 C 0.17129 0.18808 0.48474 0.0
C112 C 0.19896 0.14649 0.461 0.0
C113 C 0.22607 0.13331 0.44714 0.0
C114 C 0.23954 0.14556 0.41145 0.0
C115 C 0.26511 0.13311 0.3986 0.0
C116 C 0.27737 0.10829 0.42101 0.0
C117 C 0.26404 0.09584 0.45628 0.0
C118 C 0.23847 0.10823 0.4693 0.0
C119 C 0.07055 0.11097 0.47974 0.0
C120 C 0.07664 0.08874 0.51227 0.0
C121 C 0.09375 0.12587 0.4637 0.0
C122 C 0.12333 0.11944 0.4814 0.0
C123 C 0.12918 0.09528 0.5104 0.0
C124 C 0.10601 0.08008 0.5257 0.0
C125 C 0.1479 0.13989 0.4755 0.0
C126 C 0.17401 0.12861 0.46208 0.0
C127 C 0.14664 0.17013 0.48696 0.0
C128 C 0.12094 0.18328 0.5052 0.0
C129 C 0.11233 0.17338 0.54675 0.0
C130 C 0.08787 0.18566 0.56348 0.0
C131 C 0.07206 0.20808 0.53922 0.0
C132 C 0.08075 0.21833 0.49826 0.0
C133 C 0.10515 0.20607 0.48132 0.0
H134 H 0.05313 0.21756 0.55222 0.0
H135 H 0.29716 0.09867 0.41099 0.0
H136 H 0.28171 0.77163 0.05001 0.0
H137 H 0.31304 0.72838 0.05232 0.0
H138 H 0.3458 0.74656 0.19716 0.0
H139 H 0.31404 0.79019 0.19496 0.0
H140 H 0.39086 0.72828 0.14288 0.0
H141 H 0.29919 0.69513 0.17957 0.0
H142 H 0.24499 0.69076 0.17261 0.0
H143 H 0.2415 0.6525 0.03557 0.0
H144 H 0.29566 0.65706 0.04138 0.0
H145 H 0.45484 0.585 0.10817 0.0
H146 H 0.4296 0.62377 0.14712 0.0
H147 H 0.36767 0.63425 0.02122 0.0
H148 H 0.39182 0.59571 0.98311 0.0
H149 H 0.33953 0.63454 0.09456 0.0
H150 H 0.43172 0.67984 0.05578 0.0
H151 H 0.48625 0.68194 0.06628 0.0
H152 H 0.48878 0.69457 0.21384 0.0
H153 H 0.43426 0.69227 0.20417 0.0
C154 C 0.29571 0.76661 0.08227 0.0
C155 C 0.29548 0.7842 0.12254 0.0
C156 C 0.31358 0.74185 0.08359 0.0
C157 C 0.33156 0.73414 0.12503 0.0
C158 C 0.33209 0.75213 0.16488 0.0
C159 C 0.31397 0.77689 0.16365 0.0
C160 C 0.34865 0.70654 0.12625 0.0
C161 C 0.3797 0.70764 0.13324 0.0
C162 C 0.33413 0.67951 0.11459 0.0
C163 C 0.30151 0.67658 0.11085 0.0
C164 C 0.28686 0.68597 0.1478 0.0
C165 C 0.25614 0.68343 0.14408 0.0
C166 C 0.23981 0.67139 0.10365 0.0
C167 C 0.25418 0.66182 0.06687 0.0
C168 C 0.2849 0.66434 0.07039 0.0
C169 C 0.4357 0.59549 0.08909 0.0
C170 C 0.42541 0.58725 0.04249 0.0
C171 C 0.42137 0.61768 0.1113 0.0
C172 C 0.39678 0.63204 0.08701 0.0
C173 C 0.38644 0.62344 0.04085 0.0
C174 C 0.40046 0.60137 0.01896 0.0
C175 C 0.38163 0.65666 0.10775 0.0
C176 C 0.35079 0.655 0.10531 0.0
C177 C 0.3964 0.68295 0.12399 0.0
C178 C 0.429 0.68568 0.1293 0.0
C179 C 0.44394 0.68307 0.09043 0.0
C180 C 0.47483 0.68426 0.09625 0.0
C181 C 0.49098 0.6883 0.14072 0.0
C182 C 0.47626 0.69139 0.17943 0.0
C183 C 0.44537 0.6902 0.17379 0.0
H184 H 0.51489 0.68906 0.1452 0.0
H185 H 0.21603 0.66943 0.10084 0.0
H186 H 0.75933 0.79479 0.51146 0.0
H187 H 0.80182 0.82815 0.52922 0.0
H188 H 0.77617 0.84908 0.66304 0.0
H189 H 0.73404 0.81504 0.64586 0.0
H190 H 0.79501 0.89923 0.5885 0.0
H191 H 0.82563 0.81846 0.68994 0.0
H192 H 0.83081 0.76611 0.70791 0.0
H193 H 0.88168 0.75329 0.59614 0.0
H194 H 0.87636 0.8055 0.57704 0.0
H195 H 0.93366 0.97307 0.59486 0.0
H196 H 0.89528 0.94816 0.63114 0.0
H197 H 0.9065 0.87044 0.54868 0.0
H198 H 0.94492 0.89451 0.51458 0.0
H199 H 0.89394 0.85407 0.62669 0.0
H200 H 0.85213 0.92906 0.51346 0.0
H201 H 0.84762 0.98064 0.49006 0.0
H202 H 0.81911 0.00408 0.62034 0.0
H203 H 0.82354 0.9526 0.64446 0.0
C204 C 0.76279 0.80662 0.54454 0.0
C205 C 0.74367 0.8022 0.57724 0.0
C206 C 0.78693 0.82564 0.55464 0.0
C207 C 0.79208 0.84101 0.59743 0.0
C208 C 0.77252 0.83738 0.62985 0.0
C209 C 0.74858 0.81788 0.62005 0.0
C210 C 0.8188 0.85975 0.60808 0.0
C211 C 0.81667 0.88962 0.59813 0.0
C212 C 0.84697 0.84717 0.62036 0.0
C213 C 0.85036 0.81582 0.63183 0.0
C214 C 0.83765 0.80441 0.66891 0.0
C215 C 0.84068 0.77478 0.67936 0.0
C216 C 0.8565 0.75637 0.65311 0.0
C217 C 0.8694 0.76757 0.61642 0.0
C218 C 0.86641 0.79719 0.6058 0.0
C219 C 0.9284 0.95043 0.58574 0.0
C220 C 0.94187 0.93595 0.55127 0.0
C221 C 0.9063 0.93626 0.60608 0.0
C222 C 0.89735 0.90755 0.59184 0.0
C223 C 0.9127 0.89255 0.56031 0.0
C224 C 0.93466 0.90649 0.54048 0.0
C225 C 0.87041 0.89341 0.60496 0.0
C226 C 0.87238 0.86417 0.61902 0.0
C227 C 0.84213 0.90656 0.59609 0.0
C228 C 0.83832 0.93714 0.58081 0.0
C229 C 0.84482 0.94525 0.53699 0.0
C230 C 0.84232 0.97444 0.52365 0.0
C231 C 0.83313 0.99563 0.55374 0.0
C232 C 0.82623 0.98764 0.59709 0.0
C233 C 0.82867 0.95847 0.61057 0.0
H234 H 0.83133 0.01824 0.54345 0.0
H235 H 0.85883 0.73344 0.66127 0.0
H236 H 0.71157 0.24777 0.92917 0.0
H237 H 0.67425 0.28654 0.92407 0.0
H238 H 0.69864 0.30585 0.07095 0.0
H239 H 0.73531 0.26666 0.07611 0.0
H240 H 0.64115 0.30662 0.04999 0.0
H241 H 0.72317 0.34715 0.98258 0.0
H242 H 0.75837 0.34878 0.92597 0.0
H243 H 0.6862 0.35297 0.81345 0.0
H244 H 0.65056 0.35103 0.86944 0.0
H245 H 0.62671 0.45374 0.09789 0.0
H246 H 0.64839 0.40968 0.06977 0.0
H247 H 0.57472 0.40006 0.95933 0.0
H248 H 0.55214 0.44455 0.98796 0.0
H249 H 0.64587 0.39028 0.94521 0.0
H250 H 0.56398 0.35674 0.01914 0.0
H251 H 0.53208 0.35906 0.08057 0.0
H252 H 0.6073 0.34423 0.1846 0.0
H253 H 0.63973 0.34231 0.12382 0.0
C254 C 0.70881 0.26024 0.96033 0.0
C255 C 0.72632 0.25442 0.00327 0.0
C256 C 0.68756 0.28246 0.95735 0.0
C257 C 0.68374 0.29936 0.99704 0.0
C258 C 0.70102 0.29311 0.03985 0.0
C259 C 0.72202 0.27085 0.04285 0.0
C260 C 0.66226 0.32391 0.99467 0.0
C261 C 0.64207 0.32474 0.02672 0.0
C262 C 0.66283 0.34739 0.96365 0.0
C263 C 0.68423 0.34855 0.93009 0.0
C264 C 0.71482 0.34818 0.94573 0.0
C265 C 0.73485 0.34921 0.91378 0.0
C266 C 0.72453 0.35087 0.86613 0.0
C267 C 0.69416 0.3516 0.85036 0.0
C268 C 0.67404 0.35055 0.88217 0.0
C269 C 0.61507 0.4426 0.06728 0.0
C270 C 0.58746 0.45256 0.0455 0.0
C271 C 0.62764 0.41742 0.05118 0.0
C272 C 0.61308 0.4016 0.01277 0.0
C273 C 0.58626 0.4121 0.98909 0.0
C274 C 0.57343 0.43746 0.00547 0.0
C275 C 0.62543 0.37298 1.00103 0.0
C276 C 0.64416 0.37153 0.96695 0.0
C277 C 0.62377 0.34897 0.03037 0.0
C278 C 0.60429 0.34956 0.06695 0.0
C279 C 0.57374 0.35419 0.05515 0.0
C280 C 0.55556 0.3554 0.08985 0.0
C281 C 0.56766 0.35184 0.13647 0.0
C282 C 0.59796 0.34698 0.14847 0.0
C283 C 0.61624 0.34579 0.11391 0.0
H284 H 0.55355 0.3528 0.16329 0.0
H285 H 0.74006 0.35166 0.84144 0.0
H286 H 0.20584 0.933 0.15271 0.0
H287 H 0.18631 0.95201 0.22167 0.0
H288 H 0.17994 0.86415 0.27033 0.0
H289 H 0.19936 0.84504 0.20158 0.0
H290 H 0.12736 0.89572 0.26373 0.0
H291 H 0.22997 0.90859 0.32691 0.0
H292 H 0.28082 0.92678 0.32803 0.0
H293 H 0.24959 0.01527 0.32595 0.0
H294 H 0.19844 0.99759 0.32405 0.0
H295 H 0.07311 0.9215 0.46772 0.0
H296 H 0.11088 0.90723 0.42045 0.0
H297 H 0.12113 0.99729 0.38437 0.0
H298 H 0.084 0.01181 0.43361 0.0
H299 H 0.17329 0.96656 0.38507 0.0
H300 H 0.07205 0.9559 0.31691 0.0
H301 H 0.02019 0.94004 0.31299 0.0
H302 H 0.04755 0.85029 0.3189 0.0
H303 H 0.09966 0.86566 0.32365 0.0
C304 C 0.20059 0.9178 0.17844 0.0
C305 C 0.20406 0.88753 0.17174 0.0
C306 C 0.18965 0.9287 0.21792 0.0
C307 C 0.18181 0.90948 0.25117 0.0
C308 C 0.18601 0.87934 0.24517 0.0
C309 C 0.19722 0.86847 0.20601 0.0
C310 C 0.16661 0.92043 0.28979 0.0
C311 C 0.13761 0.91082 0.29069 0.0
C312 C 0.17958 0.94109 0.32379 0.0
C313 C 0.21031 0.95174 0.32482 0.0
C314 C 0.23389 0.93192 0.3262 0.0
C315 C 0.26278 0.94214 0.32708 0.0
C316 C 0.26843 0.97215 0.32692 0.0
C317 C 0.24518 0.99202 0.32598 0.0
C318 C 0.21624 0.98191 0.32504 0.0
C319 C 0.08429 0.93837 0.45117 0.0
C320 C 0.07562 0.96768 0.45391 0.0
C321 C 0.10573 0.9302 0.42397 0.0
C322 C 0.11816 0.95108 0.39779 0.0
C323 C 0.11166 0.9808 0.40405 0.0
C324 C 0.09053 0.98909 0.43223 0.0
C325 C 0.13432 0.94127 0.35948 0.0
C326 C 0.16321 0.95129 0.35827 0.0
C327 C 0.12113 0.92132 0.32446 0.0
C328 C 0.08978 0.91195 0.3211 0.0
C329 C 0.06703 0.93279 0.3177 0.0
C330 C 0.03759 0.92389 0.3153 0.0
C331 C 0.03058 0.89418 0.31581 0.0
C332 C 0.05301 0.8733 0.31858 0.0
C333 C 0.08251 0.88209 0.32111 0.0
H334 H 0.00777 0.88733 0.31394 0.0
H335 H 0.29082 0.98002 0.32763 0.0
H336 H 0.64277 0.7369 0.70224 0.0
H337 H 0.62475 0.70958 0.76435 0.0
H338 H 0.61293 0.63294 0.67478 0.0
H339 H 0.63248 0.65914 0.61375 0.0
H340 H 0.56033 0.66066 0.72563 0.0
H341 H 0.66135 0.62111 0.74183 0.0
H342 H 0.71554 0.62726 0.75497 0.0
H343 H 0.71069 0.67203 0.8851 0.0
H344 H 0.65637 0.66652 0.87231 0.0
H345 H 0.51375 0.5455 0.84961 0.0
H346 H 0.5397 0.57464 0.79887 0.0
H347 H 0.58709 0.62002 0.91906 0.0
H348 H 0.56213 0.58971 0.97022 0.0
H349 H 0.62241 0.6136 0.85816 0.0
H350 H 0.52471 0.65008 0.85057 0.0
H351 H 0.47027 0.64831 0.84102 0.0
H352 H 0.46733 0.61638 0.70025 0.0
H353 H 0.5218 0.61757 0.70916 0.0
C354 C 0.63688 0.71409 0.69595 0.0
C355 C 0.6388 0.70044 0.65251 0.0
C356 C 0.62644 0.6986 0.73143 0.0
C357 C 0.61751 0.66934 0.72392 0.0
C358 C 0.61964 0.65557 0.68105 0.0
C359 C 0.63054 0.67078 0.64601 0.0
C360 C 0.60459 0.6532 0.75971 0.0
C361 C 0.57381 0.65017 0.75448 0.0
C362 C 0.62225 0.64055 0.79814 0.0
C363 C 0.65482 0.64378 0.80579 0.0
C364 C 0.67181 0.63258 0.77295 0.0
C365 C 0.70255 0.63586 0.78041 0.0
C366 C 0.71654 0.65013 0.82076 0.0
C367 C 0.69982 0.66105 0.85381 0.0
C368 C 0.66907 0.65784 0.84648 0.0
C369 C 0.52994 0.56146 0.86525 0.0
C370 C 0.53573 0.56551 0.91384 0.0
C371 C 0.54463 0.57829 0.8362 0.0
C372 C 0.56473 0.60023 0.85496 0.0
C373 C 0.57152 0.60343 0.90365 0.0
C374 C 0.55727 0.58609 0.93287 0.0
C375 C 0.57788 0.62017 0.82355 0.0
C376 C 0.60871 0.62416 0.82962 0.0
C377 C 0.56016 0.6343 0.78633 0.0
C378 C 0.52736 0.6337 0.78068 0.0
C379 C 0.51247 0.64251 0.81767 0.0
C380 C 0.4816 0.64163 0.81236 0.0
C381 C 0.46536 0.63218 0.77009 0.0
C382 C 0.47995 0.62367 0.73299 0.0
C383 C 0.51082 0.62447 0.73813 0.0
H384 H 0.44146 0.63151 0.76605 0.0
H385 H 0.74035 0.65264 0.82648 0.0
H386 H 0.87636 0.17454 0.05677 0.0
H387 H 0.90357 0.15858 0.13094 0.0
H388 H 0.82163 0.1311 0.17417 0.0
H389 H 0.79433 0.14854 0.10088 0.0
H390 H 0.85485 0.15152 0.24633 0.0
H391 H 0.87027 0.08279 0.12577 0.0
H392 H 0.88437 0.0665 0.05058 0.0
H393 H 0.9731 0.09702 0.09478 0.0
H394 H 0.95939 0.11389 0.17 0.0
H395 H 0.91231 0.02329 0.37376 0.0
H396 H 0.88953 0.05521 0.31214 0.0
H397 H 0.9626 0.11551 0.34318 0.0
H398 H 0.9852 0.08397 0.40649 0.0
H399 H 0.93795 0.08301 0.23765 0.0
H400 H 0.91845 0.14848 0.36466 0.0
H401 H 0.90039 0.15833 0.4394 0.0
H402 H 0.81445 0.12581 0.38121 0.0
H403 H 0.83218 0.11531 0.30632 0.0
C404 C 0.86422 0.16535 0.08241 0.0
C405 C 0.83332 0.16254 0.07311 0.0
C406 C 0.87975 0.1561 0.1247 0.0
C407 C 0.8648 0.14293 0.15792 0.0
C408 C 0.83376 0.14109 0.14922 0.0
C409 C 0.81816 0.15097 0.10732 0.0
C410 C 0.8815 0.12986 0.20059 0.0
C411 C 0.87302 0.13657 0.24424 0.0
C412 C 0.90533 0.1103 0.19832 0.0
C413 C 0.91372 0.09991 0.1533 0.0
C414 C 0.89274 0.0862 0.11933 0.0
C415 C 0.90066 0.07684 0.07672 0.0
C416 C 0.92959 0.0808 0.06785 0.0
C417 C 0.95068 0.09403 0.10166 0.0
C418 C 0.94285 0.10348 0.14429 0.0
C419 C 0.92336 0.04356 0.36795 0.0
C420 C 0.95054 0.05116 0.39484 0.0
C421 C 0.91029 0.06175 0.33282 0.0
C422 C 0.92436 0.08766 0.32329 0.0
C423 C 0.95134 0.09565 0.35036 0.0
C424 C 0.96415 0.07771 0.38647 0.0
C425 C 0.91143 0.10499 0.28283 0.0
C426 C 0.92031 0.09862 0.23956 0.0
C427 C 0.88753 0.12418 0.28529 0.0
C428 C 0.87675 0.1308 0.33008 0.0
C429 C 0.8958 0.14313 0.36796 0.0
C430 C 0.8856 0.14891 0.41031 0.0
C431 C 0.85631 0.14261 0.41511 0.0
C432 C 0.83714 0.13063 0.37748 0.0
C433 C 0.84725 0.12479 0.33506 0.0
H434 H 0.84846 0.14707 0.44793 0.0
H435 H 0.93567 0.07356 0.03483 0.0
H436 H 0.42073 0.3277 0.5908 0.0
H437 H 0.44088 0.34443 0.66963 0.0
H438 H 0.35373 0.34055 0.70925 0.0
H439 H 0.3333 0.32461 0.63002 0.0
H440 H 0.37909 0.39216 0.73204 0.0
H441 H 0.40866 0.29236 0.7521 0.0
H442 H 0.43228 0.24619 0.73287 0.0
H443 H 0.51664 0.28938 0.74753 0.0
H444 H 0.49346 0.33594 0.76621 0.0
H445 H 0.41726 0.43517 0.96086 0.0
H446 H 0.40355 0.39896 0.89845 0.0
H447 H 0.48881 0.40921 0.85405 0.0
H448 H 0.503 0.44507 0.91765 0.0
H449 H 0.46505 0.35213 0.83584 0.0
H450 H 0.43553 0.4519 0.80876 0.0
H451 H 0.41284 0.49865 0.82768 0.0
H452 H 0.32895 0.45571 0.82388 0.0
H453 H 0.3513 0.40858 0.80571 0.0
C454 C 0.40588 0.33019 0.6164 0.0
C455 C 0.37535 0.32502 0.60398 0.0
C456 C 0.41749 0.33947 0.66164 0.0
C457 C 0.39888 0.34362 0.69556 0.0
C458 C 0.36856 0.33744 0.68372 0.0
C459 C 0.35692 0.32813 0.63847 0.0
C460 C 0.4105 0.35699 0.74186 0.0
C461 C 0.39751 0.38301 0.75505 0.0
C462 C 0.43524 0.34569 0.77129 0.0
C463 C 0.44926 0.31772 0.76015 0.0
C464 C 0.43221 0.29208 0.75085 0.0
C465 C 0.44553 0.26582 0.74012 0.0
C466 C 0.47593 0.26487 0.73887 0.0
C467 C 0.49309 0.29016 0.74846 0.0
C468 C 0.47987 0.31649 0.75918 0.0
C469 C 0.43351 0.42888 0.93891 0.0
C470 C 0.46105 0.44314 0.9437 0.0
C471 C 0.42562 0.40826 0.90315 0.0
C472 C 0.44485 0.40198 0.87084 0.0
C473 C 0.47357 0.41387 0.87845 0.0
C474 C 0.48169 0.4343 0.91486 0.0
C475 C 0.43329 0.38692 0.82594 0.0
C476 C 0.44643 0.36093 0.81288 0.0
C477 C 0.40876 0.39827 0.79621 0.0
C478 C 0.39515 0.42668 0.80633 0.0
C479 C 0.41229 0.4524 0.81225 0.0
C480 C 0.39949 0.47896 0.82283 0.0
C481 C 0.36948 0.48014 0.82708 0.0
C482 C 0.3522 0.45476 0.82063 0.0
C483 C 0.36491 0.42811 0.81019 0.0
H484 H 0.35961 0.50072 0.83528 0.0
H485 H 0.4862 0.24451 0.73056 0.0
H486 H 0.63565 0.75558 0.45004 0.0
H487 H 0.61589 0.73786 0.37106 0.0
H488 H 0.61356 0.64998 0.42154 0.0
H489 H 0.63445 0.66712 0.49915 0.0
H490 H 0.63504 0.64849 0.34541 0.0
H491 H 0.55055 0.69402 0.39671 0.0
H492 H 0.52197 0.73432 0.4256 0.0
H493 H 0.53052 0.78361 0.30398 0.0
H494 H 0.55953 0.74374 0.27466 0.0
H495 H 0.50908 0.59553 0.16619 0.0
H496 H 0.52334 0.63136 0.22961 0.0
H497 H 0.60603 0.64616 0.17898 0.0
H498 H 0.59238 0.60969 0.11688 0.0
H499 H 0.54426 0.6873 0.25206 0.0
H500 H 0.66123 0.63817 0.26678 0.0
H501 H 0.68559 0.59365 0.24193 0.0
H502 H 0.60532 0.54473 0.24121 0.0
H503 H 0.58068 0.58882 0.26679 0.0
C504 C 0.63116 0.73246 0.44411 0.0
C505 C 0.6364 0.71285 0.48117 0.0
C506 C 0.61954 0.7224 0.39905 0.0
C507 C 0.61285 0.69259 0.3903 0.0
C508 C 0.61841 0.67308 0.42722 0.0
C509 C 0.63013 0.68301 0.47186 0.0
C510 C 0.60086 0.68105 0.34282 0.0
C511 C 0.6153 0.65723 0.32503 0.0
C512 C 0.57486 0.69205 0.31614 0.0
C513 C 0.55755 0.71607 0.33381 0.0
C514 C 0.54659 0.71357 0.37635 0.0
C515 C 0.53025 0.73631 0.39275 0.0
C516 C 0.52452 0.76156 0.36672 0.0
C517 C 0.53504 0.76407 0.32416 0.0
C518 C 0.55143 0.74141 0.30763 0.0
C519 C 0.52982 0.60721 0.16766 0.0
C520 C 0.54995 0.59941 0.13734 0.0
C521 C 0.53797 0.6277 0.20393 0.0
C522 C 0.56615 0.64077 0.20985 0.0
C523 C 0.58446 0.63586 0.1757 0.0
C524 C 0.57662 0.61505 0.14016 0.0
C525 C 0.57853 0.65492 0.25519 0.0
C526 C 0.56422 0.67903 0.2724 0.0
C527 C 0.6042 0.64369 0.28232 0.0
C528 C 0.61906 0.61687 0.26816 0.0
C529 C 0.64885 0.61787 0.26153 0.0
C530 C 0.6627 0.59272 0.24731 0.0
C531 C 0.64699 0.5664 0.23984 0.0
C532 C 0.61745 0.56514 0.24687 0.0
C533 C 0.60354 0.5902 0.26124 0.0
H534 H 0.65772 0.54698 0.22871 0.0
H535 H 0.51186 0.77913 0.37947 0.0
H536 H 0.77456 0.1407 0.86567 0.0
H537 H 0.79001 0.11652 0.797 0.0
H538 H 0.88131 0.13285 0.85354 0.0
H539 H 0.8661 0.15674 0.92201 0.0
H540 H 0.82001 0.13404 0.73018 0.0
H541 H 0.92393 0.07796 0.83051 0.0
H542 H 0.93954 0.05756 0.90822 0.0
H543 H 0.84894 0.041 0.92249 0.0
H544 H 0.83279 0.06089 0.8446 0.0
H545 H 0.93931 0.11543 0.60942 0.0
H546 H 0.90106 0.12491 0.65759 0.0
H547 H 0.88668 0.03218 0.66761 0.0
H548 H 0.92566 0.02253 0.61958 0.0
H549 H 0.89725 0.05746 0.75187 0.0
H550 H 0.83108 0.07534 0.61541 0.0
H551 H 0.81446 0.0947 0.53734 0.0
H552 H 0.82507 0.18248 0.59259 0.0
H553 H 0.84222 0.16371 0.6709 0.0
C554 C 0.79792 0.13925 0.86326 0.0
C555 C 0.81913 0.15037 0.89951 0.0
C556 C 0.8067 0.12538 0.82407 0.0
C557 C 0.83683 0.12235 0.82049 0.0
C558 C 0.85796 0.13422 0.85603 0.0
C559 C 0.84923 0.1479 0.8952 0.0
C560 C 0.84657 0.10699 0.77974 0.0
C561 C 0.83667 0.11709 0.73478 0.0
C562 C 0.86753 0.08411 0.78552 0.0
C563 C 0.87715 0.07107 0.83173 0.0
C564 C 0.90735 0.06972 0.85002 0.0
C565 C 0.91629 0.05831 0.89417 0.0
C566 C 0.89525 0.04806 0.92032 0.0
C567 C 0.86522 0.04903 0.90226 0.0
C568 C 0.85616 0.06038 0.85811 0.0
C569 C 0.92751 0.09701 0.6208 0.0
C570 C 0.9357 0.0682 0.61102 0.0
C571 C 0.90546 0.10248 0.6482 0.0
C572 C 0.89092 0.07928 0.66631 0.0
C573 C 0.89763 0.05043 0.65405 0.0
C574 C 0.91973 0.04492 0.6263 0.0
C575 C 0.87188 0.08561 0.7026 0.0
C576 C 0.88003 0.07385 0.74691 0.0
C577 C 0.84895 0.10655 0.69601 0.0
C578 C 0.83802 0.11807 0.64913 0.0
C579 C 0.83 0.09879 0.61093 0.0
C580 C 0.82048 0.10966 0.5666 0.0
C581 C 0.81873 0.1398 0.56 0.0
C582 C 0.8264 0.15913 0.59776 0.0
C583 C 0.83597 0.14838 0.64217 0.0
H584 H 0.81142 0.14817 0.52563 0.0
H585 H 0.90221 0.03935 0.95457 0.0
H586 H 0.32813 0.35332 0.39298 0.0
H587 H 0.3469 0.38234 0.33356 0.0
H588 H 0.43539 0.37536 0.40779 0.0
H589 H 0.41713 0.34565 0.46633 0.0
H590 H 0.41964 0.43262 0.38223 0.0
H591 H 0.41584 0.33504 0.31262 0.0
H592 H 0.39081 0.28913 0.28323 0.0
H593 H 0.33073 0.33702 0.18505 0.0
H594 H 0.35517 0.38329 0.21434 0.0
H595 H 0.5158 0.47414 0.22924 0.0
H596 H 0.48801 0.44891 0.2818 0.0
H597 H 0.40932 0.45253 0.17984 0.0
H598 H 0.43741 0.47716 0.12609 0.0
H599 H 0.41351 0.40059 0.21672 0.0
H600 H 0.41858 0.49739 0.27926 0.0
H601 H 0.44173 0.54431 0.30786 0.0
H602 H 0.49592 0.5004 0.41854 0.0
H603 H 0.47342 0.45312 0.39022 0.0
C604 C 0.35164 0.35758 0.39635 0.0
C605 C 0.37106 0.3472 0.43471 0.0
C606 C 0.3623 0.37431 0.36247 0.0
C607 C 0.39253 0.38105 0.36635 0.0
C608 C 0.41194 0.37063 0.40434 0.0
C609 C 0.4014 0.35373 0.43792 0.0
C610 C 0.40421 0.39914 0.33124 0.0
C611 C 0.41851 0.42556 0.34609 0.0
C612 C 0.40169 0.39045 0.28375 0.0
C613 C 0.3871 0.36264 0.26604 0.0
C614 C 0.39712 0.3358 0.28505 0.0
C615 C 0.38308 0.30971 0.26835 0.0
C616 C 0.35913 0.31016 0.2324 0.0
C617 C 0.34924 0.33671 0.21296 0.0
C618 C 0.36319 0.36287 0.22958 0.0
C619 C 0.49253 0.46978 0.21794 0.0
C620 C 0.47881 0.47784 0.17347 0.0
C621 C 0.47659 0.45543 0.24823 0.0
C622 C 0.44638 0.44925 0.23524 0.0
C623 C 0.43257 0.45716 0.19077 0.0
C624 C 0.44863 0.47131 0.16014 0.0
C625 C 0.42971 0.43384 0.26791 0.0
C626 C 0.41438 0.40795 0.25266 0.0
C627 C 0.43092 0.44323 0.315 0.0
C628 C 0.44443 0.47166 0.33239 0.0
C629 C 0.43557 0.4977 0.30952 0.0
C630 C 0.44856 0.52437 0.32571 0.0
C631 C 0.47032 0.52533 0.36494 0.0
C632 C 0.47908 0.49962 0.38814 0.0
C633 C 0.46618 0.47288 0.37207 0.0
H634 H 0.48036 0.546 0.37741 0.0
H635 H 0.34829 0.28994 0.21951 0.0
H636 H 0.19104 0.92938 0.01765 0.0
H637 H 0.16152 0.94604 0.94616 0.0
H638 H 0.15354 0.85735 0.89257 0.0
H639 H 0.18277 0.84031 0.96463 0.0
H640 H 0.16416 0.89737 0.82517 0.0
H641 H 0.09665 0.88551 0.93367 0.0
H642 H 0.07843 0.89096 0.00917 0.0
H643 H 0.07696 0.98425 0.99579 0.0
H644 H 0.09562 0.97939 0.92051 0.0
H645 H 0.05242 0.94977 0.64229 0.0
H646 H 0.07739 0.92017 0.70604 0.0
H647 H 0.0934 0.99786 0.79293 0.0
H648 H 0.06848 0.02721 0.73047 0.0
H649 H 0.07391 0.95461 0.84039 0.0
H650 H 0.1475 0.96625 0.73706 0.0
H651 H 0.16643 0.9609 0.66206 0.0
H652 H 0.15603 0.86772 0.66563 0.0
H653 H 0.13667 0.87258 0.74042 0.0
C654 C 0.18294 0.91333 0.99083 0.0
C655 C 0.18904 0.88344 0.99722 0.0
C656 C 0.16613 0.92292 0.94986 0.0
C657 C 0.15495 0.90289 0.91429 0.0
C658 C 0.1619 0.87317 0.91962 0.0
C659 C 0.1787 0.8635 0.96079 0.0
C660 C 0.13534 0.91323 0.87239 0.0
C661 C 0.14411 0.90942 0.8283 0.0
C662 C 0.10924 0.92904 0.87647 0.0
C663 C 0.09773 0.93208 0.92156 0.0
C664 C 0.09263 0.9072 0.94696 0.0
C665 C 0.0822 0.91018 0.98971 0.0
C666 C 0.07659 0.93794 0.0073 0.0
C667 C 0.08133 0.96276 0.98212 0.0
C668 C 0.0918 0.95991 0.93938 0.0
C669 C 0.06119 0.96047 0.67506 0.0
C670 C 0.05844 0.99091 0.6811 0.0
C671 C 0.07556 0.94355 0.71139 0.0
C672 C 0.08743 0.95682 0.75427 0.0
C673 C 0.08437 0.98708 0.76032 0.0
C674 C 0.07014 0.00388 0.72431 0.0
C675 C 0.10328 0.93976 0.79333 0.0
C676 C 0.09369 0.94219 0.83703 0.0
C677 C 0.12857 0.92271 0.78877 0.0
C678 C 0.14031 0.9198 0.74399 0.0
C679 C 0.14903 0.94464 0.72165 0.0
C680 C 0.15987 0.9417 0.67923 0.0
C681 C 0.16233 0.91399 0.65901 0.0
C682 C 0.15405 0.88917 0.68128 0.0
C683 C 0.14315 0.892 0.72368 0.0
H684 H 0.17073 0.91175 0.62617 0.0
H685 H 0.06851 0.9402 0.04041 0.0
loop_
_geom_bond_atom_site_label_1
_geom_bond_atom_site_label_2
_geom_bond_distance
_geom_bond_site_symmetry_2
_ccdc_geom_bond_type
H0 C5 0.929 1_556 S
H1 C10 0.931 . S
H2 C8 0.930 . S
N3 N4 1.234 . S
N3 C7 1.453 . S
N4 N3 1.234 . S
C5 H0 0.929 1_554 S
C5 C6 1.373 . S
C5 C7 1.368 . S
C6 C5 1.373 . S
C6 C10 1.397 . S
C7 N3 1.453 . S
C7 C5 1.368 . S
C7 C8 1.373 . S
C8 H2 0.930 . S
C8 C7 1.373 . S
C8 C9 1.371 . S
C9 C8 1.371 . S
C9 C10 1.383 . S
C10 H1 0.931 . S
C10 C6 1.397 . S
C10 C9 1.383 . S
H11 C16 0.929 . S
H12 C21 0.931 . S
H13 C19 0.930 . S
N14 N15 1.234 . S
N14 C18 1.453 . S
N15 N14 1.234 . S
C16 H11 0.929 . S
C16 C17 1.373 . S
C16 C18 1.368 . S
C17 C16 1.373 . S
C17 C21 1.397 . S
C18 N14 1.453 . S
C18 C16 1.368 . S
C18 C19 1.373 . S
C19 H13 0.930 . S
C19 C18 1.373 . S
C19 C20 1.371 . S
C20 C19 1.371 . S
C20 C21 1.383 . S
C21 H12 0.931 . S
C21 C17 1.397 . S
C21 C20 1.383 . S
H22 C27 0.929 . S
H23 C32 0.931 . S
H24 C30 0.930 . S
N25 N26 1.234 1_556 S
N25 C29 1.453 . S
N26 N25 1.234 1_554 S
C27 H22 0.929 . S
C27 C28 1.373 . S
C27 C29 1.368 . S
C28 C27 1.373 . S
C28 C32 1.397 1_556 S
C29 N25 1.453 . S
C29 C27 1.368 . S
C29 C30 1.373 1_556 S
C30 H24 0.930 . S
C30 C29 1.373 1_554 S
C30 C31 1.371 . S
C31 C30 1.371 . S
C31 C32 1.383 . S
C32 H23 0.931 . S
C32 C28 1.397 1_554 S
C32 C31 1.383 . S
H33 C38 0.929 . S
H34 C43 0.931 . S
H35 C41 0.930 . S
N36 N37 1.234 . S
N36 C40 1.453 . S
N37 N36 1.234 . S
C38 H33 0.929 . S
C38 C39 1.373 . S
C38 C40 1.368 . S
C39 C38 1.373 . S
C39 C43 1.397 . S
C40 N36 1.453 . S
C40 C38 1.368 . S
C40 C41 1.373 . S
C41 H35 0.930 . S
C41 C40 1.373 . S
C41 C42 1.371 . S
C42 C41 1.371 . S
C42 C43 1.383 . S
C43 H34 0.931 . S
C43 C39 1.397 . S
C43 C42 1.383 . S
O44 Mg45 1.990 . S
O44 C58 1.253 1_455 S
Mg45 O44 1.990 . S
Mg45 O48 2.180 . S
Mg45 O49 2.117 . S
Mg45 O63 2.030 . S
O46 Mg47 2.072 1_655 S
O46 C58 1.260 . S
Mg47 O46 2.072 1_455 S
Mg47 O48 2.099 . S
Mg47 O50 2.079 1_545 S
Mg47 O51 2.072 1_455 S
Mg47 O53 2.099 1_445 S
Mg47 O64 2.079 1_545 S
O48 Mg45 2.180 . S
O48 Mg47 2.099 . S
O48 C59 1.279 . S
O49 Mg45 2.117 . S
O49 C59 1.250 . S
O50 Mg47 2.079 1_565 S
O50 C60 1.264 . S
O51 Mg47 2.072 1_655 S
O51 C61 1.260 . S
Mg52 O53 2.180 . S
Mg52 O54 2.030 1_655 S
Mg52 O55 1.990 1_565 S
Mg52 O56 2.117 . S
O53 Mg47 2.099 1_665 S
O53 Mg52 2.180 . S
O53 C62 1.279 . S
O54 Mg52 2.030 1_455 S
O54 C60 1.248 . S
O55 Mg52 1.990 1_545 S
O55 C61 1.253 . S
O56 Mg52 2.117 . S
O56 C62 1.250 . S
C57 O63 1.248 1_565 S
C57 O64 1.264 . S
C58 O44 1.253 1_655 S
C58 O46 1.260 . S
C59 O48 1.279 . S
C59 O49 1.250 . S
C60 O50 1.264 . S
C60 O54 1.248 . S
C61 O51 1.260 . S
C61 O55 1.253 . S
C62 O53 1.279 . S
C62 O56 1.250 . S
O63 Mg45 2.030 . S
O63 C57 1.248 1_545 S
O64 Mg47 2.079 1_565 S
O64 C57 1.264 . S
O65 Mg66 1.990 . S
O65 C79 1.253 . S
Mg66 O65 1.990 . S
Mg66 O69 2.180 . S
Mg66 O70 2.117 . S
Mg66 O84 2.030 . S
O67 Mg68 2.072 . S
O67 C79 1.260 . S
Mg68 O67 2.072 . S
Mg68 O69 2.099 . S
Mg68 O71 2.079 1_554 S
Mg68 O72 2.072 . S
Mg68 O74 2.099 . S
Mg68 O85 2.079 . S
O69 Mg66 2.180 . S
O69 Mg68 2.099 . S
O69 C80 1.279 . S
O70 Mg66 2.117 . S
O70 C80 1.250 . S
O71 Mg68 2.079 1_556 S
O71 C81 1.264 . S
O72 Mg68 2.072 . S
O72 C82 1.260 1_554 S
Mg73 O74 2.180 1_556 S
Mg73 O75 2.030 . S
Mg73 O76 1.990 . S
Mg73 O77 2.117 1_556 S
O74 Mg68 2.099 . S
O74 Mg73 2.180 1_554 S
O74 C83 1.279 . S
O75 Mg73 2.030 . S
O75 C81 1.248 . S
O76 Mg73 1.990 . S
O76 C82 1.253 . S
O77 Mg73 2.117 1_554 S
O77 C83 1.250 . S
C78 O84 1.248 . S
C78 O85 1.264 . S
C79 O65 1.253 . S
C79 O67 1.260 . S
C80 O69 1.279 . S
C80 O70 1.250 . S
C81 O71 1.264 . S
C81 O75 1.248 . S
C82 O72 1.260 1_556 S
C82 O76 1.253 . S
C83 O74 1.279 . S
C83 O77 1.250 . S
O84 Mg66 2.030 . S
O84 C78 1.248 . S
O85 Mg68 2.079 . S
O85 C78 1.264 . S
H86 C104 0.951 . S
H87 C106 0.951 . S
H88 C108 0.950 . S
H89 C109 0.950 . S
H90 C111 0.950 . S
H91 C114 0.950 . S
H92 C115 0.950 . S
H93 C117 0.950 . S
H94 C118 0.950 . S
H95 C119 0.951 . S
H96 C121 0.951 . S
H97 C123 0.950 . S
H98 C124 0.950 . S
H99 C126 0.950 . S
H100 C129 0.950 . S
H101 C130 0.950 . S
H102 C132 0.950 . S
H103 C133 0.950 . S
C104 H86 0.951 . S
C104 C105 1.366 . S
C104 C106 1.388 . S
C105 C104 1.366 . S
C105 C109 1.385 . S
C106 H87 0.951 . S
C106 C104 1.388 . S
C106 C107 1.366 . S
C107 C106 1.366 . S
C107 C108 1.414 . S
C107 C110 1.499 . S
C108 H88 0.950 . S
C108 C107 1.414 . S
C108 C109 1.374 . S
C109 H89 0.950 . S
C109 C105 1.385 . S
C109 C108 1.374 . S
C110 C107 1.499 . S
C110 C111 1.373 . S
C110 C112 1.389 . S
C111 H90 0.950 . S
C111 C110 1.373 . S
C111 C127 1.377 . S
C112 C110 1.389 . S
C112 C113 1.524 . S
C112 C126 1.377 . S
C113 C112 1.524 . S
C113 C114 1.397 . S
C113 C118 1.363 . S
C114 H91 0.950 . S
C114 C113 1.397 . S
C114 C115 1.334 . S
C115 H92 0.950 . S
C115 C114 1.334 . S
C115 C116 1.287 . S
C116 C115 1.287 . S
C116 C117 1.524 . S
C116 H135 0.913 . S
C117 H93 0.950 . S
C117 C116 1.524 . S
C117 C118 1.415 . S
C118 H94 0.950 . S
C118 C113 1.363 . S
C118 C117 1.415 . S
C119 H95 0.951 . S
C119 C120 1.366 . S
C119 C121 1.388 . S
C120 C119 1.366 . S
C120 C124 1.385 . S
C121 H96 0.951 . S
C121 C119 1.388 . S
C121 C122 1.366 . S
C122 C121 1.366 . S
C122 C123 1.414 . S
C122 C125 1.499 . S
C123 H97 0.950 . S
C123 C122 1.414 . S
C123 C124 1.374 . S
C124 H98 0.950 . S
C124 C120 1.385 . S
C124 C123 1.374 . S
C125 C122 1.499 . S
C125 C126 1.373 . S
C125 C127 1.389 . S
C126 H99 0.950 . S
C126 C112 1.377 . S
C126 C125 1.373 . S
C127 C111 1.377 . S
C127 C125 1.389 . S
C127 C128 1.524 . S
C128 C127 1.524 . S
C128 C129 1.397 . S
C128 C133 1.363 . S
C129 H100 0.950 . S
C129 C128 1.397 . S
C129 C130 1.334 . S
C130 H101 0.950 . S
C130 C129 1.334 . S
C130 C131 1.287 . S
C131 C130 1.287 . S
C131 C132 1.524 . S
C131 H134 0.999 . S
C132 H102 0.950 . S
C132 C131 1.524 . S
C132 C133 1.415 . S
C133 H103 0.950 . S
C133 C128 1.363 . S
C133 C132 1.415 . S
H134 C131 0.999 . S
H135 C116 0.913 . S
H136 C154 0.951 . S
H137 C156 0.951 . S
H138 C158 0.950 . S
H139 C159 0.950 . S
H140 C161 0.950 . S
H141 C164 0.950 . S
H142 C165 0.950 . S
H143 C167 0.950 . S
H144 C168 0.950 . S
H145 C169 0.951 . S
H146 C171 0.951 . S
H147 C173 0.950 . S
H148 C174 0.950 . S
H149 C176 0.950 . S
H150 C179 0.950 . S
H151 C180 0.950 . S
H152 C182 0.950 . S
H153 C183 0.950 . S
C154 H136 0.951 . S
C154 C155 1.366 . S
C154 C156 1.388 . S
C155 C154 1.366 . S
C155 C159 1.385 . S
C156 H137 0.951 . S
C156 C154 1.388 . S
C156 C157 1.366 . S
C157 C156 1.366 . S
C157 C158 1.414 . S
C157 C160 1.499 . S
C158 H138 0.950 . S
C158 C157 1.414 . S
C158 C159 1.374 . S
C159 H139 0.950 . S
C159 C155 1.385 . S
C159 C158 1.374 . S
C160 C157 1.499 . S
C160 C161 1.373 . S
C160 C162 1.389 . S
C161 H140 0.950 . S
C161 C160 1.373 . S
C161 C177 1.377 . S
C162 C160 1.389 . S
C162 C163 1.524 . S
C162 C176 1.377 . S
C163 C162 1.524 . S
C163 C164 1.397 . S
C163 C168 1.363 . S
C164 H141 0.950 . S
C164 C163 1.397 . S
C164 C165 1.334 . S
C165 H142 0.950 . S
C165 C164 1.334 . S
C165 C166 1.287 . S
C166 C165 1.287 . S
C166 C167 1.524 . S
C166 H185 0.913 . S
C167 H143 0.950 . S
C167 C166 1.524 . S
C167 C168 1.415 . S
C168 H144 0.950 . S
C168 C163 1.363 . S
C168 C167 1.415 . S
C169 H145 0.951 . S
C169 C170 1.366 . S
C169 C171 1.388 . S
C170 C169 1.366 . S
C170 C174 1.385 . S
C171 H146 0.951 . S
C171 C169 1.388 . S
C171 C172 1.366 . S
C172 C171 1.366 . S
C172 C173 1.414 . S
C172 C175 1.499 . S
C173 H147 0.950 . S
C173 C172 1.414 . S
C173 C174 1.374 . S
C174 H148 0.950 . S
C174 C170 1.385 . S
C174 C173 1.374 . S
C175 C172 1.499 . S
C175 C176 1.373 . S
C175 C177 1.389 . S
C176 H149 0.950 . S
C176 C162 1.377 . S
C176 C175 1.373 . S
C177 C161 1.377 . S
C177 C175 1.389 . S
C177 C178 1.524 . S
C178 C177 1.524 . S
C178 C179 1.397 1_554 S
C178 C183 1.363 . S
C179 H150 0.950 . S
C179 C178 1.397 1_556 S
C179 C180 1.334 . S
C180 H151 0.950 . S
C180 C179 1.334 . S
C180 C181 1.287 . S
C181 C180 1.287 . S
C181 C182 1.524 1_556 S
C181 H184 0.999 . S
C182 H152 0.950 . S
C182 C181 1.524 1_554 S
C182 C183 1.415 . S
C183 H153 0.950 . S
C183 C178 1.363 . S
C183 C182 1.415 . S
H184 C181 0.999 . S
H185 C166 0.913 . S
H186 C204 0.951 . S
H187 C206 0.951 . S
H188 C208 0.950 . S
H189 C209 0.950 . S
H190 C211 0.950 . S
H191 C214 0.950 . S
H192 C215 0.950 . S
H193 C217 0.950 . S
H194 C218 0.950 . S
H195 C219 0.951 . S
H196 C221 0.951 . S
H197 C223 0.950 . S
H198 C224 0.950 . S
H199 C226 0.950 . S
H200 C229 0.950 . S
H201 C230 0.950 . S
H202 C232 0.950 . S
H203 C233 0.950 . S
C204 H186 0.951 . S
C204 C205 1.366 . S
C204 C206 1.388 . S
C205 C204 1.366 . S
C205 C209 1.385 . S
C206 H187 0.951 . S
C206 C204 1.388 . S
C206 C207 1.366 . S
C207 C206 1.366 . S
C207 C208 1.414 . S
C207 C210 1.499 . S
C208 H188 0.950 . S
C208 C207 1.414 . S
C208 C209 1.374 . S
C209 H189 0.950 . S
C209 C205 1.385 . S
C209 C208 1.374 . S
C210 C207 1.499 . S
C210 C211 1.373 . S
C210 C212 1.389 . S
C211 H190 0.950 . S
C211 C210 1.373 . S
C211 C227 1.377 . S
C212 C210 1.389 . S
C212 C213 1.524 . S
C212 C226 1.377 . S
C213 C212 1.524 . S
C213 C214 1.397 . S
C213 C218 1.363 . S
C214 H191 0.950 . S
C214 C213 1.397 . S
C214 C215 1.334 . S
C215 H192 0.950 . S
C215 C214 1.334 . S
C215 C216 1.287 . S
C216 C215 1.287 . S
C216 C217 1.524 . S
C216 H235 0.913 . S
C217 H193 0.950 . S
C217 C216 1.524 . S
C217 C218 1.415 . S
C218 H194 0.950 . S
C218 C213 1.363 . S
C218 C217 1.415 . S
C219 H195 0.951 . S
C219 C220 1.366 . S
C219 C221 1.388 . S
C220 C219 1.366 . S
C220 C224 1.385 . S
C221 H196 0.951 . S
C221 C219 1.388 . S
C221 C222 1.366 . S
C222 C221 1.366 . S
C222 C223 1.414 . S
C222 C225 1.499 . S
C223 H197 0.950 . S
C223 C222 1.414 . S
C223 C224 1.374 . S
C224 H198 0.950 . S
C224 C220 1.385 . S
C224 C223 1.374 . S
C225 C222 1.499 . S
C225 C226 1.373 . S
C225 C227 1.389 . S
C226 H199 0.950 . S
C226 C212 1.377 . S
C226 C225 1.373 . S
C227 C211 1.377 . S
C227 C225 1.389 . S
C227 C228 1.524 . S
C228 C227 1.524 . S
C228 C229 1.397 . S
C228 C233 1.363 . S
C229 H200 0.950 . S
C229 C228 1.397 . S
C229 C230 1.334 . S
C230 H201 0.950 . S
C230 C229 1.334 . S
C230 C231 1.287 . S
C231 C230 1.287 . S
C231 C232 1.524 . S
C231 H234 0.999 . S
C232 H202 0.950 . S
C232 C231 1.524 . S
C232 C233 1.415 . S
C233 H203 0.950 . S
C233 C228 1.363 . S
C233 C232 1.415 . S
H234 C231 0.999 . S
H235 C216 0.913 . S
H236 C254 0.951 . S
H237 C256 0.951 . S
H238 C258 0.950 . S
H239 C259 0.950 . S
H240 C261 0.950 . S
H241 C264 0.950 . S
H242 C265 0.950 . S
H243 C267 0.950 . S
H244 C268 0.950 . S
H245 C269 0.951 . S
H246 C271 0.951 . S
H247 C273 0.950 1_556 S
H248 C274 0.950 . S
H249 C276 0.950 . S
H250 C279 0.950 . S
H251 C280 0.950 . S
H252 C282 0.950 . S
H253 C283 0.950 . S
C254 H236 0.951 . S
C254 C255 1.366 1_556 S
C254 C256 1.388 . S
C255 C254 1.366 1_554 S
C255 C259 1.385 . S
C256 H237 0.951 . S
C256 C254 1.388 . S
C256 C257 1.366 1_556 S
C257 C256 1.366 1_554 S
C257 C258 1.414 . S
C257 C260 1.499 . S
C258 H238 0.950 . S
C258 C257 1.414 . S
C258 C259 1.374 . S
C259 H239 0.950 . S
C259 C255 1.385 . S
C259 C258 1.374 . S
C260 C257 1.499 . S
C260 C261 1.373 . S
C260 C262 1.389 1_554 S
C261 H240 0.950 . S
C261 C260 1.373 . S
C261 C277 1.377 . S
C262 C260 1.389 1_556 S
C262 C263 1.524 . S
C262 C276 1.377 . S
C263 C262 1.524 . S
C263 C264 1.397 . S
C263 C268 1.363 . S
C264 H241 0.950 . S
C264 C263 1.397 . S
C264 C265 1.334 . S
C265 H242 0.950 . S
C265 C264 1.334 . S
C265 C266 1.287 . S
C266 C265 1.287 . S
C266 C267 1.524 . S
C266 H285 0.913 . S
C267 H243 0.950 . S
C267 C266 1.524 . S
C267 C268 1.415 . S
C268 H244 0.950 . S
C268 C263 1.363 . S
C268 C267 1.415 . S
C269 H245 0.951 . S
C269 C270 1.366 . S
C269 C271 1.388 . S
C270 C269 1.366 . S
C270 C274 1.385 . S
C271 H246 0.951 . S
C271 C269 1.388 . S
C271 C272 1.366 . S
C272 C271 1.366 . S
C272 C273 1.414 . S
C272 C275 1.499 . S
C273 H247 0.950 1_554 S
C273 C272 1.414 . S
C273 C274 1.374 . S
C274 H248 0.950 . S
C274 C270 1.385 . S
C274 C273 1.374 . S
C275 C272 1.499 . S
C275 C276 1.373 1_554 S
C275 C277 1.389 . S
C276 H249 0.950 . S
C276 C262 1.377 . S
C276 C275 1.373 1_556 S
C277 C261 1.377 . S
C277 C275 1.389 . S
C277 C278 1.524 . S
C278 C277 1.524 . S
C278 C279 1.397 . S
C278 C283 1.363 . S
C279 H250 0.950 . S
C279 C278 1.397 . S
C279 C280 1.334 . S
C280 H251 0.950 . S
C280 C279 1.334 . S
C280 C281 1.287 . S
C281 C280 1.287 . S
C281 C282 1.524 . S
C281 H284 0.999 . S
C282 H252 0.950 . S
C282 C281 1.524 . S
C282 C283 1.415 . S
C283 H253 0.950 . S
C283 C278 1.363 . S
C283 C282 1.415 . S
H284 C281 0.999 . S
H285 C266 0.913 . S
H286 C304 0.951 . S
H287 C306 0.951 . S
H288 C308 0.950 . S
H289 C309 0.950 . S
H290 C311 0.950 . S
H291 C314 0.950 . S
H292 C315 0.950 . S
H293 C317 0.950 . S
H294 C318 0.950 . S
H295 C319 0.951 . S
H296 C321 0.951 . S
H297 C323 0.950 . S
H298 C324 0.950 1_545 S
H299 C326 0.950 . S
H300 C329 0.950 . S
H301 C330 0.950 1_655 S
H302 C332 0.950 . S
H303 C333 0.950 . S
C304 H286 0.951 . S
C304 C305 1.366 . S
C304 C306 1.388 . S
C305 C304 1.366 . S
C305 C309 1.385 . S
C306 H287 0.951 . S
C306 C304 1.388 . S
C306 C307 1.366 . S
C307 C306 1.366 . S
C307 C308 1.414 . S
C307 C310 1.499 . S
C308 H288 0.950 . S
C308 C307 1.414 . S
C308 C309 1.374 . S
C309 H289 0.950 . S
C309 C305 1.385 . S
C309 C308 1.374 . S
C310 C307 1.499 . S
C310 C311 1.373 . S
C310 C312 1.389 . S
C311 H290 0.950 . S
C311 C310 1.373 . S
C311 C327 1.377 . S
C312 C310 1.389 . S
C312 C313 1.524 . S
C312 C326 1.377 . S
C313 C312 1.524 . S
C313 C314 1.397 . S
C313 C318 1.363 . S
C314 H291 0.950 . S
C314 C313 1.397 . S
C314 C315 1.334 . S
C315 H292 0.950 . S
C315 C314 1.334 . S
C315 C316 1.287 . S
C316 C315 1.287 . S
C316 C317 1.524 . S
C316 H335 0.913 . S
C317 H293 0.950 . S
C317 C316 1.524 . S
C317 C318 1.415 . S
C318 H294 0.950 . S
C318 C313 1.363 . S
C318 C317 1.415 . S
C319 H295 0.951 . S
C319 C320 1.366 . S
C319 C321 1.388 . S
C320 C319 1.366 . S
C320 C324 1.385 . S
C321 H296 0.951 . S
C321 C319 1.388 . S
C321 C322 1.366 . S
C322 C321 1.366 . S
C322 C323 1.414 . S
C322 C325 1.499 . S
C323 H297 0.950 . S
C323 C322 1.414 . S
C323 C324 1.374 . S
C324 H298 0.950 1_565 S
C324 C320 1.385 . S
C324 C323 1.374 . S
C325 C322 1.499 . S
C325 C326 1.373 . S
C325 C327 1.389 . S
C326 H299 0.950 . S
C326 C312 1.377 . S
C326 C325 1.373 . S
C327 C311 1.377 . S
C327 C325 1.389 . S
C327 C328 1.524 . S
C328 C327 1.524 . S
C328 C329 1.397 . S
C328 C333 1.363 . S
C329 H300 0.950 . S
C329 C328 1.397 . S
C329 C330 1.334 . S
C330 H301 0.950 1_455 S
C330 C329 1.334 . S
C330 C331 1.284 1_455 S
C331 C330 1.284 1_655 S
C331 C332 1.519 1_655 S
C331 H334 1.009 . S
C332 H302 0.950 . S
C332 C331 1.519 1_455 S
C332 C333 1.415 . S
C333 H303 0.950 . S
C333 C328 1.363 . S
C333 C332 1.415 . S
H334 C331 1.009 . S
H335 C316 0.913 . S
H336 C354 0.951 . S
H337 C356 0.951 . S
H338 C358 0.950 . S
H339 C359 0.950 . S
H340 C361 0.950 . S
H341 C364 0.950 . S
H342 C365 0.950 . S
H343 C367 0.950 . S
H344 C368 0.950 . S
H345 C369 0.951 . S
H346 C371 0.951 . S
H347 C373 0.950 . S
H348 C374 0.950 . S
H349 C376 0.950 . S
H350 C379 0.950 . S
H351 C380 0.950 . S
H352 C382 0.950 . S
H353 C383 0.950 . S
C354 H336 0.951 . S
C354 C355 1.366 . S
C354 C356 1.388 . S
C355 C354 1.366 . S
C355 C359 1.385 . S
C356 H337 0.951 . S
C356 C354 1.388 . S
C356 C357 1.366 . S
C357 C356 1.366 . S
C357 C358 1.414 . S
C357 C360 1.499 . S
C358 H338 0.950 . S
C358 C357 1.414 . S
C358 C359 1.374 . S
C359 H339 0.950 . S
C359 C355 1.385 . S
C359 C358 1.374 . S
C360 C357 1.499 . S
C360 C361 1.373 . S
C360 C362 1.389 . S
C361 H340 0.950 . S
C361 C360 1.373 . S
C361 C377 1.377 . S
C362 C360 1.389 . S
C362 C363 1.524 . S
C362 C376 1.377 . S
C363 C362 1.524 . S
C363 C364 1.397 . S
C363 C368 1.363 . S
C364 H341 0.950 . S
C364 C363 1.397 . S
C364 C365 1.334 . S
C365 H342 0.950 . S
C365 C364 1.334 . S
C365 C366 1.287 . S
C366 C365 1.287 . S
C366 C367 1.524 . S
C366 H385 0.913 . S
C367 H343 0.950 . S
C367 C366 1.524 . S
C367 C368 1.415 . S
C368 H344 0.950 . S
C368 C363 1.363 . S
C368 C367 1.415 . S
C369 H345 0.951 . S
C369 C370 1.366 . S
C369 C371 1.388 . S
C370 C369 1.366 . S
C370 C374 1.385 . S
C371 H346 0.951 . S
C371 C369 1.388 . S
C371 C372 1.366 . S
C372 C371 1.366 . S
C372 C373 1.414 . S
C372 C375 1.499 . S
C373 H347 0.950 . S
C373 C372 1.414 . S
C373 C374 1.374 . S
C374 H348 0.950 . S
C374 C370 1.385 . S
C374 C373 1.374 . S
C375 C372 1.499 . S
C375 C376 1.373 . S
C375 C377 1.389 . S
C376 H349 0.950 . S
C376 C362 1.377 . S
C376 C375 1.373 . S
C377 C361 1.377 . S
C377 C375 1.389 . S
C377 C378 1.524 . S
C378 C377 1.524 . S
C378 C379 1.397 . S
C378 C383 1.363 . S
C379 H350 0.950 . S
C379 C378 1.397 . S
C379 C380 1.334 . S
C380 H351 0.950 . S
C380 C379 1.334 . S
C380 C381 1.287 . S
C381 C380 1.287 . S
C381 C382 1.524 . S
C381 H384 0.999 . S
C382 H352 0.950 . S
C382 C381 1.524 . S
C382 C383 1.415 . S
C383 H353 0.950 . S
C383 C378 1.363 . S
C383 C382 1.415 . S
H384 C381 0.999 . S
H385 C366 0.913 . S
H386 C404 0.951 . S
H387 C406 0.951 . S
H388 C408 0.950 . S
H389 C409 0.950 . S
H390 C411 0.950 . S
H391 C414 0.950 . S
H392 C415 0.950 . S
H393 C417 0.950 . S
H394 C418 0.950 . S
H395 C419 0.951 . S
H396 C421 0.951 . S
H397 C423 0.950 . S
H398 C424 0.931 1_455 S
H399 C426 0.950 . S
H400 C429 0.950 . S
H401 C430 0.950 . S
H402 C432 0.950 . S
H403 C433 0.950 . S
C404 H386 0.951 . S
C404 C405 1.366 . S
C404 C406 1.388 . S
C405 C404 1.366 . S
C405 C409 1.385 . S
C406 H387 0.951 . S
C406 C404 1.388 . S
C406 C407 1.366 . S
C407 C406 1.366 . S
C407 C408 1.414 . S
C407 C410 1.499 . S
C408 H388 0.950 . S
C408 C407 1.414 . S
C408 C409 1.374 . S
C409 H389 0.950 . S
C409 C405 1.385 . S
C409 C408 1.374 . S
C410 C407 1.499 . S
C410 C411 1.373 . S
C410 C412 1.389 . S
C411 H390 0.950 . S
C411 C410 1.373 . S
C411 C427 1.377 . S
C412 C410 1.389 . S
C412 C413 1.524 . S
C412 C426 1.377 . S
C413 C412 1.524 . S
C413 C414 1.397 . S
C413 C418 1.363 . S
C414 H391 0.950 . S
C414 C413 1.397 . S
C414 C415 1.334 . S
C415 H392 0.950 . S
C415 C414 1.334 . S
C415 C416 1.287 . S
C416 C415 1.287 . S
C416 C417 1.524 . S
C416 H435 0.913 . S
C417 H393 0.950 . S
C417 C416 1.524 . S
C417 C418 1.415 . S
C418 H394 0.950 . S
C418 C413 1.363 . S
C418 C417 1.415 . S
C419 H395 0.951 . S
C419 C420 1.366 . S
C419 C421 1.388 . S
C420 C419 1.366 . S
C420 C424 1.385 . S
C421 H396 0.951 . S
C421 C419 1.388 . S
C421 C422 1.366 . S
C422 C421 1.366 . S
C422 C423 1.414 . S
C422 C425 1.499 . S
C423 H397 0.950 . S
C423 C422 1.414 . S
C423 C424 1.374 . S
C424 H398 0.931 1_655 S
C424 C420 1.385 . S
C424 C423 1.374 . S
C425 C422 1.499 . S
C425 C426 1.373 . S
C425 C427 1.389 . S
C426 H399 0.950 . S
C426 C412 1.377 . S
C426 C425 1.373 . S
C427 C411 1.377 . S
C427 C425 1.389 . S
C427 C428 1.524 . S
C428 C427 1.524 . S
C428 C429 1.397 . S
C428 C433 1.363 . S
C429 H400 0.950 . S
C429 C428 1.397 . S
C429 C430 1.334 . S
C430 H401 0.950 . S
C430 C429 1.334 . S
C430 C431 1.287 . S
C431 C430 1.287 . S
C431 C432 1.524 . S
C431 H434 0.999 . S
C432 H402 0.950 . S
C432 C431 1.524 . S
C432 C433 1.415 . S
C433 H403 0.950 . S
C433 C428 1.363 . S
C433 C432 1.415 . S
H434 C431 0.999 . S
H435 C416 0.913 . S
H436 C454 0.951 . S
H437 C456 0.951 . S
H438 C458 0.950 . S
H439 C459 0.950 . S
H440 C461 0.950 . S
H441 C464 0.950 . S
H442 C465 0.950 . S
H443 C467 0.950 . S
H444 C468 0.950 . S
H445 C469 0.951 . S
H446 C471 0.951 . S
H447 C473 0.950 . S
H448 C474 0.950 . S
H449 C476 0.950 . S
H450 C479 0.950 . S
H451 C480 0.950 . S
H452 C482 0.950 . S
H453 C483 0.950 . S
C454 H436 0.951 . S
C454 C455 1.366 . S
C454 C456 1.388 . S
C455 C454 1.366 . S
C455 C459 1.385 . S
C456 H437 0.951 . S
C456 C454 1.388 . S
C456 C457 1.366 . S
C457 C456 1.366 . S
C457 C458 1.414 . S
C457 C460 1.499 . S
C458 H438 0.950 . S
C458 C457 1.414 . S
C458 C459 1.374 . S
C459 H439 0.950 . S
C459 C455 1.385 . S
C459 C458 1.374 . S
C460 C457 1.499 . S
C460 C461 1.373 . S
C460 C462 1.389 . S
C461 H440 0.950 . S
C461 C460 1.373 . S
C461 C477 1.377 . S
C462 C460 1.389 . S
C462 C463 1.524 . S
C462 C476 1.377 . S
C463 C462 1.524 . S
C463 C464 1.397 . S
C463 C468 1.363 . S
C464 H441 0.950 . S
C464 C463 1.397 . S
C464 C465 1.334 . S
C465 H442 0.950 . S
C465 C464 1.334 . S
C465 C466 1.287 . S
C466 C465 1.287 . S
C466 C467 1.524 . S
C466 H485 0.913 . S
C467 H443 0.950 . S
C467 C466 1.524 . S
C467 C468 1.415 . S
C468 H444 0.950 . S
C468 C463 1.363 . S
C468 C467 1.415 . S
C469 H445 0.951 . S
C469 C470 1.366 . S
C469 C471 1.388 . S
C470 C469 1.366 . S
C470 C474 1.385 . S
C471 H446 0.951 . S
C471 C469 1.388 . S
C471 C472 1.366 . S
C472 C471 1.366 . S
C472 C473 1.414 . S
C472 C475 1.499 . S
C473 H447 0.950 . S
C473 C472 1.414 . S
C473 C474 1.374 . S
C474 H448 0.950 . S
C474 C470 1.385 . S
C474 C473 1.374 . S
C475 C472 1.499 . S
C475 C476 1.373 . S
C475 C477 1.389 . S
C476 H449 0.950 . S
C476 C462 1.377 . S
C476 C475 1.373 . S
C477 C461 1.377 . S
C477 C475 1.389 . S
C477 C478 1.524 . S
C478 C477 1.524 . S
C478 C479 1.397 . S
C478 C483 1.363 . S
C479 H450 0.950 . S
C479 C478 1.397 . S
C479 C480 1.334 . S
C480 H451 0.950 . S
C480 C479 1.334 . S
C480 C481 1.287 . S
C481 C480 1.287 . S
C481 C482 1.524 . S
C481 H484 0.999 . S
C482 H452 0.950 . S
C482 C481 1.524 . S
C482 C483 1.415 . S
C483 H453 0.950 . S
C483 C478 1.363 . S
C483 C482 1.415 . S
H484 C481 0.999 . S
H485 C466 0.913 . S
H486 C504 0.951 . S
H487 C506 0.951 . S
H488 C508 0.950 . S
H489 C509 0.950 . S
H490 C511 0.950 . S
H491 C514 0.950 . S
H492 C515 0.950 . S
H493 C517 0.950 . S
H494 C518 0.950 . S
H495 C519 0.951 . S
H496 C521 0.951 . S
H497 C523 0.950 . S
H498 C524 0.950 . S
H499 C526 0.950 . S
H500 C529 0.950 . S
H501 C530 0.950 . S
H502 C532 0.950 . S
H503 C533 0.950 . S
C504 H486 0.951 . S
C504 C505 1.366 . S
C504 C506 1.388 . S
C505 C504 1.366 . S
C505 C509 1.385 . S
C506 H487 0.951 . S
C506 C504 1.388 . S
C506 C507 1.366 . S
C507 C506 1.366 . S
C507 C508 1.414 . S
C507 C510 1.499 . S
C508 H488 0.950 . S
C508 C507 1.414 . S
C508 C509 1.374 . S
C509 H489 0.950 . S
C509 C505 1.385 . S
C509 C508 1.374 . S
C510 C507 1.499 . S
C510 C511 1.373 . S
C510 C512 1.389 . S
C511 H490 0.950 . S
C511 C510 1.373 . S
C511 C527 1.377 . S
C512 C510 1.389 . S
C512 C513 1.524 . S
C512 C526 1.377 . S
C513 C512 1.524 . S
C513 C514 1.397 . S
C513 C518 1.363 . S
C514 H491 0.950 . S
C514 C513 1.397 . S
C514 C515 1.334 . S
C515 H492 0.950 . S
C515 C514 1.334 . S
C515 C516 1.287 . S
C516 C515 1.287 . S
C516 C517 1.524 . S
C516 H535 0.913 . S
C517 H493 0.950 . S
C517 C516 1.524 . S
C517 C518 1.415 . S
C518 H494 0.950 . S
C518 C513 1.363 . S
C518 C517 1.415 . S
C519 H495 0.951 . S
C519 C520 1.366 . S
C519 C521 1.388 . S
C520 C519 1.366 . S
C520 C524 1.385 . S
C521 H496 0.951 . S
C521 C519 1.388 . S
C521 C522 1.366 . S
C522 C521 1.366 . S
C522 C523 1.414 . S
C522 C525 1.499 . S
C523 H497 0.950 . S
C523 C522 1.414 . S
C523 C524 1.374 . S
C524 H498 0.950 . S
C524 C520 1.385 . S
C524 C523 1.374 . S
C525 C522 1.499 . S
C525 C526 1.373 . S
C525 C527 1.389 . S
C526 H499 0.950 . S
C526 C512 1.377 . S
C526 C525 1.373 . S
C527 C511 1.377 . S
C527 C525 1.389 . S
C527 C528 1.524 . S
C528 C527 1.524 . S
C528 C529 1.397 . S
C528 C533 1.363 . S
C529 H500 0.950 . S
C529 C528 1.397 . S
C529 C530 1.334 . S
C530 H501 0.950 . S
C530 C529 1.334 . S
C530 C531 1.287 . S
C531 C530 1.287 . S
C531 C532 1.524 . S
C531 H534 0.999 . S
C532 H502 0.950 . S
C532 C531 1.524 . S
C532 C533 1.415 . S
C533 H503 0.950 . S
C533 C528 1.363 . S
C533 C532 1.415 . S
H534 C531 0.999 . S
H535 C516 0.913 . S
H536 C554 0.951 . S
H537 C556 0.951 . S
H538 C558 0.950 . S
H539 C559 0.950 . S
H540 C561 0.950 . S
H541 C564 0.950 . S
H542 C565 0.950 . S
H543 C567 0.950 . S
H544 C568 0.950 . S
H545 C569 0.951 . S
H546 C571 0.951 . S
H547 C573 0.950 . S
H548 C574 0.950 . S
H549 C576 0.950 . S
H550 C579 0.950 . S
H551 C580 0.950 . S
H552 C582 0.950 . S
H553 C583 0.950 . S
C554 H536 0.951 . S
C554 C555 1.366 . S
C554 C556 1.388 . S
C555 C554 1.366 . S
C555 C559 1.385 . S
C556 H537 0.951 . S
C556 C554 1.388 . S
C556 C557 1.366 . S
C557 C556 1.366 . S
C557 C558 1.414 . S
C557 C560 1.499 . S
C558 H538 0.950 . S
C558 C557 1.414 . S
C558 C559 1.374 . S
C559 H539 0.950 . S
C559 C555 1.385 . S
C559 C558 1.374 . S
C560 C557 1.499 . S
C560 C561 1.373 . S
C560 C562 1.389 . S
C561 H540 0.950 . S
C561 C560 1.373 . S
C561 C577 1.377 . S
C562 C560 1.389 . S
C562 C563 1.524 . S
C562 C576 1.377 . S
C563 C562 1.524 . S
C563 C564 1.397 . S
C563 C568 1.363 . S
C564 H541 0.950 . S
C564 C563 1.397 . S
C564 C565 1.334 . S
C565 H542 0.950 . S
C565 C564 1.334 . S
C565 C566 1.287 . S
C566 C565 1.287 . S
C566 C567 1.524 . S
C566 H585 0.913 . S
C567 H543 0.950 . S
C567 C566 1.524 . S
C567 C568 1.415 . S
C568 H544 0.950 . S
C568 C563 1.363 . S
C568 C567 1.415 . S
C569 H545 0.951 . S
C569 C570 1.366 . S
C569 C571 1.388 . S
C570 C569 1.366 . S
C570 C574 1.385 . S
C571 H546 0.951 . S
C571 C569 1.388 . S
C571 C572 1.366 . S
C572 C571 1.366 . S
C572 C573 1.414 . S
C572 C575 1.499 . S
C573 H547 0.950 . S
C573 C572 1.414 . S
C573 C574 1.374 . S
C574 H548 0.950 . S
C574 C570 1.385 . S
C574 C573 1.374 . S
C575 C572 1.499 . S
C575 C576 1.373 . S
C575 C577 1.389 . S
C576 H549 0.950 . S
C576 C562 1.377 . S
C576 C575 1.373 . S
C577 C561 1.377 . S
C577 C575 1.389 . S
C577 C578 1.524 . S
C578 C577 1.524 . S
C578 C579 1.397 . S
C578 C583 1.363 . S
C579 H550 0.950 . S
C579 C578 1.397 . S
C579 C580 1.334 . S
C580 H551 0.950 . S
C580 C579 1.334 . S
C580 C581 1.287 . S
C581 C580 1.287 . S
C581 C582 1.524 . S
C581 H584 0.999 . S
C582 H552 0.950 . S
C582 C581 1.524 . S
C582 C583 1.415 . S
C583 H553 0.950 . S
C583 C578 1.363 . S
C583 C582 1.415 . S
H584 C581 0.999 . S
H585 C566 0.913 . S
H586 C604 0.951 . S
H587 C606 0.951 . S
H588 C608 0.950 . S
H589 C609 0.950 . S
H590 C611 0.950 . S
H591 C614 0.950 . S
H592 C615 0.950 . S
H593 C617 0.950 . S
H594 C618 0.950 . S
H595 C619 0.951 . S
H596 C621 0.951 . S
H597 C623 0.950 . S
H598 C624 0.950 . S
H599 C626 0.950 . S
H600 C629 0.950 . S
H601 C630 0.950 . S
H602 C632 0.950 . S
H603 C633 0.950 . S
C604 H586 0.951 . S
C604 C605 1.366 . S
C604 C606 1.388 . S
C605 C604 1.366 . S
C605 C609 1.385 . S
C606 H587 0.951 . S
C606 C604 1.388 . S
C606 C607 1.366 . S
C607 C606 1.366 . S
C607 C608 1.414 . S
C607 C610 1.499 . S
C608 H588 0.950 . S
C608 C607 1.414 . S
C608 C609 1.374 . S
C609 H589 0.950 . S
C609 C605 1.385 . S
C609 C608 1.374 . S
C610 C607 1.499 . S
C610 C611 1.373 . S
C610 C612 1.389 . S
C611 H590 0.950 . S
C611 C610 1.373 . S
C611 C627 1.377 . S
C612 C610 1.389 . S
C612 C613 1.524 . S
C612 C626 1.377 . S
C613 C612 1.524 . S
C613 C614 1.397 . S
C613 C618 1.363 . S
C614 H591 0.950 . S
C614 C613 1.397 . S
C614 C615 1.334 . S
C615 H592 0.950 . S
C615 C614 1.334 . S
C615 C616 1.287 . S
C616 C615 1.287 . S
C616 C617 1.524 . S
C616 H635 0.913 . S
C617 H593 0.950 . S
C617 C616 1.524 . S
C617 C618 1.415 . S
C618 H594 0.950 . S
C618 C613 1.363 . S
C618 C617 1.415 . S
C619 H595 0.951 . S
C619 C620 1.366 . S
C619 C621 1.388 . S
C620 C619 1.366 . S
C620 C624 1.385 . S
C621 H596 0.951 . S
C621 C619 1.388 . S
C621 C622 1.366 . S
C622 C621 1.366 . S
C622 C623 1.414 . S
C622 C625 1.499 . S
C623 H597 0.950 . S
C623 C622 1.414 . S
C623 C624 1.374 . S
C624 H598 0.950 . S
C624 C620 1.385 . S
C624 C623 1.374 . S
C625 C622 1.499 . S
C625 C626 1.373 . S
C625 C627 1.389 . S
C626 H599 0.950 . S
C626 C612 1.377 . S
C626 C625 1.373 . S
C627 C611 1.377 . S
C627 C625 1.389 . S
C627 C628 1.524 . S
C628 C627 1.524 . S
C628 C629 1.397 . S
C628 C633 1.363 . S
C629 H600 0.950 . S
C629 C628 1.397 . S
C629 C630 1.334 . S
C630 H601 0.950 . S
C630 C629 1.334 . S
C630 C631 1.287 . S
C631 C630 1.287 . S
C631 C632 1.524 . S
C631 H634 0.999 . S
C632 H602 0.950 . S
C632 C631 1.524 . S
C632 C633 1.415 . S
C633 H603 0.950 . S
C633 C628 1.363 . S
C633 C632 1.415 . S
H634 C631 0.999 . S
H635 C616 0.913 . S
H636 C654 0.951 1_554 S
H637 C656 0.951 . S
H638 C658 0.950 . S
H639 C659 0.950 . S
H640 C661 0.950 . S
H641 C664 0.950 . S
H642 C665 0.952 1_554 S
H643 C667 0.950 1_545 S
H644 C668 0.950 . S
H645 C669 0.951 . S
H646 C671 0.951 . S
H647 C673 0.950 . S
H648 C674 0.950 1_545 S
H649 C676 0.950 . S
H650 C679 0.950 . S
H651 C680 0.950 . S
H652 C682 0.950 . S
H653 C683 0.950 . S
C654 H636 0.951 1_556 S
C654 C655 1.366 . S
C654 C656 1.388 . S
C655 C654 1.366 . S
C655 C659 1.385 . S
C656 H637 0.951 . S
C656 C654 1.388 . S
C656 C657 1.366 . S
C657 C656 1.366 . S
C657 C658 1.414 . S
C657 C660 1.499 . S
C658 H638 0.950 . S
C658 C657 1.414 . S
C658 C659 1.374 . S
C659 H639 0.950 . S
C659 C655 1.385 . S
C659 C658 1.374 . S
C660 C657 1.499 . S
C660 C661 1.373 . S
C660 C662 1.389 . S
C661 H640 0.950 . S
C661 C660 1.373 . S
C661 C677 1.377 . S
C662 C660 1.389 . S
C662 C663 1.524 . S
C662 C676 1.377 . S
C663 C662 1.524 . S
C663 C664 1.397 . S
C663 C668 1.363 . S
C664 H641 0.950 . S
C664 C663 1.397 . S
C664 C665 1.334 . S
C665 H642 0.952 1_556 S
C665 C664 1.334 . S
C665 C666 1.287 . S
C666 C665 1.287 . S
C666 C667 1.524 . S
C666 H685 0.913 1_556 S
C667 H643 0.950 1_565 S
C667 C666 1.524 . S
C667 C668 1.415 . S
C668 H644 0.950 . S
C668 C663 1.363 . S
C668 C667 1.415 . S
C669 H645 0.951 . S
C669 C670 1.366 . S
C669 C671 1.388 . S
C670 C669 1.366 . S
C670 C674 1.385 . S
C671 H646 0.951 . S
C671 C669 1.388 . S
C671 C672 1.366 . S
C672 C671 1.366 . S
C672 C673 1.414 . S
C672 C675 1.499 . S
C673 H647 0.950 . S
C673 C672 1.414 . S
C673 C674 1.374 . S
C674 H648 0.950 1_565 S
C674 C670 1.385 . S
C674 C673 1.374 . S
C675 C672 1.499 . S
C675 C676 1.373 . S
C675 C677 1.389 . S
C676 H649 0.950 . S
C676 C662 1.377 . S
C676 C675 1.373 . S
C677 C661 1.377 . S
C677 C675 1.389 . S
C677 C678 1.524 . S
C678 C677 1.524 . S
C678 C679 1.397 . S
C678 C683 1.363 . S
C679 H650 0.950 . S
C679 C678 1.397 . S
C679 C680 1.334 . S
C680 H651 0.950 . S
C680 C679 1.334 . S
C680 C681 1.287 . S
C681 C680 1.287 . S
C681 C682 1.524 . S
C681 H684 0.999 . S
C682 H652 0.950 . S
C682 C681 1.524 . S
C682 C683 1.415 . S
C683 H653 0.950 . S
C683 C678 1.363 . S
C683 C682 1.415 . S
H684 C681 0.999 . S
H685 C666 0.913 1_554 S
C120 C59 1.247 . S
C105 N37 1.430 . S
C155 N4 1.464 . S
C170 C83 1.268 . S
C205 N15 1.613 . S
C220 C62 1.421 . S
C255 N26 1.611 . S
C270 C80 1.406 . S
C320 C60 1.504 . S
C305 C9 1.516 . S
C370 C82 1.563 . S
C355 C17 1.629 . S
C405 C31 1.605 . S
C420 C61 1.563 . S
C455 C42 1.519 . S
C470 C81 1.473 . S
C520 C79 1.471 . S
C505 C20 1.514 . S
C570 C58 1.473 . S
C555 C28 1.533 . S
C620 C78 1.408 . S
C605 C39 1.446 . S
C655 C6 1.442 1_556 S
C670 C57 1.391 . S
