# Generated by pormake.
# Topology apo, (3,6)-cn, num edge types: 1
# Building blocks:
#     Node 0, Type 0, BuildingBlock: CUQRIR_clean_linker_1, # of connection points: 3
#     Node 1, Type 0, BuildingBlock: CUQRIR_clean_linker_1, # of connection points: 3
#     Node 2, Type 0, BuildingBlock: CUQRIR_clean_linker_1, # of connection points: 3
#     Node 3, Type 0, BuildingBlock: CUQRIR_clean_linker_1, # of connection points: 3
#     Node 4, Type 0, BuildingBlock: CUQRIR_clean_linker_1, # of connection points: 3
#     Node 5, Type 0, BuildingBlock: CUQRIR_clean_linker_1, # of connection points: 3
#     Node 6, Type 0, BuildingBlock: CUQRIR_clean_linker_1, # of connection points: 3
#     Node 7, Type 0, BuildingBlock: CUQRIR_clean_linker_1, # of connection points: 3
#     Node 8, Type 1, BuildingBlock: KUMJIN_clean_sbu_1, # of connection points: 6
#     Node 9, Type 1, BuildingBlock: KUMJIN_clean_sbu_1, # of connection points: 6
#     Node 10, Type 1, BuildingBlock: KUMJIN_clean_sbu_1, # of connection points: 6
#     Node 11, Type 1, BuildingBlock: KUMJIN_clean_sbu_1, # of connection points: 6
#     Edge 12, Type (0, 1), BuildingBlock: OJICUG_clean_linker_0, # of connection points: 2
#     Edge 13, Type (0, 1), BuildingBlock: OJICUG_clean_linker_0, # of connection points: 2
#     Edge 14, Type (0, 1), BuildingBlock: OJICUG_clean_linker_0, # of connection points: 2
#     Edge 15, Type (0, 1), BuildingBlock: OJICUG_clean_linker_0, # of connection points: 2
#     Edge 16, Type (0, 1), BuildingBlock: OJICUG_clean_linker_0, # of connection points: 2
#     Edge 17, Type (0, 1), BuildingBlock: OJICUG_clean_linker_0, # of connection points: 2
#     Edge 18, Type (0, 1), BuildingBlock: OJICUG_clean_linker_0, # of connection points: 2
#     Edge 19, Type (0, 1), BuildingBlock: OJICUG_clean_linker_0, # of connection points: 2
#     Edge 20, Type (0, 1), BuildingBlock: OJICUG_clean_linker_0, # of connection points: 2
#     Edge 21, Type (0, 1), BuildingBlock: OJICUG_clean_linker_0, # of connection points: 2
#     Edge 22, Type (0, 1), BuildingBlock: OJICUG_clean_linker_0, # of connection points: 2
#     Edge 23, Type (0, 1), BuildingBlock: OJICUG_clean_linker_0, # of connection points: 2
#     Edge 24, Type (0, 1), BuildingBlock: OJICUG_clean_linker_0, # of connection points: 2
#     Edge 25, Type (0, 1), BuildingBlock: OJICUG_clean_linker_0, # of connection points: 2
#     Edge 26, Type (0, 1), BuildingBlock: OJICUG_clean_linker_0, # of connection points: 2
#     Edge 27, Type (0, 1), BuildingBlock: OJICUG_clean_linker_0, # of connection points: 2
#     Edge 28, Type (0, 1), BuildingBlock: OJICUG_clean_linker_0, # of connection points: 2
#     Edge 29, Type (0, 1), BuildingBlock: OJICUG_clean_linker_0, # of connection points: 2
#     Edge 30, Type (0, 1), BuildingBlock: OJICUG_clean_linker_0, # of connection points: 2
#     Edge 31, Type (0, 1), BuildingBlock: OJICUG_clean_linker_0, # of connection points: 2
#     Edge 32, Type (0, 1), BuildingBlock: OJICUG_clean_linker_0, # of connection points: 2
#     Edge 33, Type (0, 1), BuildingBlock: OJICUG_clean_linker_0, # of connection points: 2
#     Edge 34, Type (0, 1), BuildingBlock: OJICUG_clean_linker_0, # of connection points: 2
#     Edge 35, Type (0, 1), BuildingBlock: OJICUG_clean_linker_0, # of connection points: 2
# Relax obj value: 0.043
# Max RMSD: 0.251
# Mean RMSD: 0.193
data_MOF--net-apo--node1-KUMJIN_clean_sbu_1--node2-CUQRIR_clean_linker_1--edge1-OJICUG_clean_linker_0
_symmetry_space_group_name_H-M    P1
_symmetry_Int_Tables_number       1
_symmetry_cell_setting            triclinic
loop_
_symmetry_equiv_pos_as_xyz
'x, y, z'
_cell_length_a     18.741597
_cell_length_b     27.689941
_cell_length_c     35.214124
_cell_angle_alpha  89.93968
_cell_angle_beta   90.246568
_cell_angle_gamma 90.569878
loop_
_atom_site_label
_atom_site_type_symbol
_atom_site_fract_x
_atom_site_fract_y
_atom_site_fract_z
_atom_type_partial_charge
C0 C 0.24444 0.31663 0.42822 0.0
N1 N 0.28013 0.35946 0.43181 0.0
N2 N 0.23338 0.3059 0.39116 0.0
C3 C 0.21311 0.28781 0.46047 0.0
C4 C 0.26178 0.3438 0.37226 0.0
N5 N 0.2901 0.37623 0.39675 0.0
C6 C 0.26079 0.34975 0.32985 0.0
H7 H 0.25513 0.26465 0.47292 0.0
H8 H 0.16882 0.26404 0.45058 0.0
H9 H 0.19288 0.31207 0.48296 0.0
H10 H 0.24218 0.31634 0.31568 0.0
H11 H 0.31489 0.35967 0.31956 0.0
H12 H 0.22425 0.37949 0.32212 0.0
C13 C 0.25388 0.18579 0.92673 0.0
N14 N 0.21785 0.14307 0.93035 0.0
N15 N 0.26636 0.19586 0.8897 0.0
C16 C 0.28434 0.21506 0.95906 0.0
C17 C 0.23828 0.15771 0.87088 0.0
N18 N 0.2089 0.12576 0.89536 0.0
C19 C 0.2405 0.15103 0.82858 0.0
H20 H 0.24205 0.23848 0.9707 0.0
H21 H 0.32902 0.2386 0.94949 0.0
H22 H 0.30384 0.19113 0.98208 0.0
H23 H 0.27787 0.12151 0.82177 0.0
H24 H 0.25888 0.1843 0.81419 0.0
H25 H 0.1869 0.14044 0.81773 0.0
C26 C 0.74428 0.19806 0.63736 0.0
N27 N 0.78625 0.15854 0.63426 0.0
N28 N 0.73839 0.21158 0.67415 0.0
C29 C 0.70164 0.21959 0.60531 0.0
C30 C 0.7779 0.17893 0.69325 0.0
N31 N 0.80614 0.14635 0.66926 0.0
C32 C 0.79077 0.17947 0.73547 0.0
H33 H 0.73208 0.25036 0.59301 0.0
H34 H 0.64987 0.23338 0.61566 0.0
H35 H 0.69115 0.19263 0.58263 0.0
H36 H 0.74984 0.15671 0.74971 0.0
H37 H 0.78744 0.21677 0.74663 0.0
H38 H 0.84404 0.16454 0.74236 0.0
C39 C 0.74934 0.30626 0.13878 0.0
N40 N 0.70657 0.34548 0.13622 0.0
N41 N 0.75521 0.29145 0.17528 0.0
C42 C 0.7927 0.28629 0.10659 0.0
C43 C 0.71482 0.32294 0.19478 0.0
N44 N 0.68613 0.35619 0.17134 0.0
C45 C 0.7019 0.32072 0.2369 0.0
H46 H 0.76327 0.25543 0.09367 0.0
H47 H 0.84488 0.27294 0.11699 0.0
H48 H 0.80237 0.31403 0.0844 0.0
H49 H 0.74288 0.34279 0.2519 0.0
H50 H 0.70518 0.28296 0.24709 0.0
H51 H 0.64864 0.33538 0.24389 0.0
C52 C 0.75325 0.68707 0.63458 0.0
N53 N 0.71463 0.64538 0.63168 0.0
N54 N 0.75921 0.70097 0.6713 0.0
C55 C 0.79002 0.7124 0.60214 0.0
C56 C 0.72443 0.66612 0.69085 0.0
N57 N 0.69768 0.63225 0.66696 0.0
C58 C 0.72014 0.66373 0.73347 0.0
H59 H 0.83584 0.73463 0.61219 0.0
H60 H 0.7516 0.73681 0.58797 0.0
H61 H 0.80921 0.68592 0.58097 0.0
H62 H 0.66907 0.64678 0.74254 0.0
H63 H 0.72525 0.70021 0.74617 0.0
H64 H 0.76447 0.64123 0.74431 0.0
C65 C 0.76294 0.80791 0.14002 0.0
N66 N 0.79671 0.85114 0.13572 0.0
N67 N 0.74197 0.80165 0.17644 0.0
C68 C 0.74326 0.7744 0.10791 0.0
C69 C 0.76299 0.84275 0.19405 0.0
N70 N 0.79583 0.87285 0.16934 0.0
C71 C 0.75254 0.85337 0.23549 0.0
H72 H 0.70267 0.74718 0.11654 0.0
H73 H 0.79182 0.75535 0.09842 0.0
H74 H 0.72233 0.79526 0.08343 0.0
H75 H 0.80359 0.86593 0.24835 0.0
H76 H 0.7326 0.82131 0.25098 0.0
H77 H 0.71322 0.88278 0.23852 0.0
C78 C 0.25202 0.80606 0.42068 0.0
N79 N 0.21063 0.8459 0.42334 0.0
N80 N 0.25793 0.79194 0.38406 0.0
C81 C 0.29402 0.78467 0.45305 0.0
C82 C 0.21901 0.82454 0.36458 0.0
N83 N 0.19119 0.85779 0.38819 0.0
C84 C 0.20601 0.82309 0.32239 0.0
H85 H 0.34566 0.77034 0.44298 0.0
H86 H 0.26294 0.75431 0.46553 0.0
H87 H 0.30474 0.81187 0.47552 0.0
H88 H 0.20806 0.78543 0.31192 0.0
H89 H 0.24771 0.84474 0.30772 0.0
H90 H 0.15326 0.83865 0.31526 0.0
C91 C 0.24455 0.69504 0.92103 0.0
N92 N 0.2873 0.65586 0.92427 0.0
N93 N 0.23918 0.70916 0.88431 0.0
C94 C 0.20081 0.71562 0.95282 0.0
C95 C 0.28001 0.67736 0.86538 0.0
N96 N 0.30828 0.64452 0.88936 0.0
C97 C 0.294 0.67887 0.8233 0.0
H98 H 0.19068 0.68825 0.97523 0.0
H99 H 0.14885 0.7289 0.94206 0.0
H100 H 0.23021 0.7466 0.96559 0.0
H101 H 0.28957 0.71625 0.8123 0.0
H102 H 0.25434 0.65565 0.80836 0.0
H103 H 0.34798 0.66492 0.81698 0.0
Eu104 Eu 0.09003 0.0965 0.24016 0.0
C105 C 0.75904 0.09924 0.30159 0.0
N106 N 0.81411 0.13065 0.30725 0.0
C107 C 0.73524 0.19768 0.30098 0.0
C108 C 0.68942 0.11608 0.29474 0.0
C109 C 0.80336 0.17926 0.3075 0.0
C110 C 0.67809 0.16601 0.29418 0.0
C111 C 0.71578 0.01641 0.29883 0.0
C112 C 0.77205 0.05007 0.30355 0.0
C113 C 0.6465 0.03299 0.29139 0.0
C114 C 0.63337 0.08269 0.28931 0.0
Eu115 Eu 0.92695 0.09676 0.31818 0.0
N116 N 0.83981 0.03514 0.31021 0.0
C117 C 0.73077 0.96711 0.30198 0.0
C118 C 0.85443 0.98717 0.31453 0.0
C119 C 0.80031 0.95247 0.31012 0.0
H120 H 0.84737 0.20373 0.3133 0.0
H121 H 0.81224 0.91448 0.31301 0.0
H122 H 0.24044 0.05518 0.27773 0.0
H123 H 0.04246 0.27542 0.17708 0.0
H124 H 0.90806 0.9757 0.32073 0.0
H125 H 0.689 0.94012 0.29855 0.0
H126 H 0.0236 0.18841 0.18543 0.0
H127 H 0.72676 0.23623 0.3017 0.0
H128 H 0.60262 0.00768 0.2875 0.0
H129 H 0.57953 0.09493 0.2839 0.0
H130 H 0.35612 0.08643 0.30184 0.0
H131 H 0.62532 0.18042 0.28918 0.0
H132 H 0.1457 0.31594 0.20769 0.0
N133 N 0.20203 0.1242 0.26234 0.0
C134 C 0.21674 0.17204 0.25873 0.0
C135 C 0.31724 0.11097 0.29005 0.0
C136 C 0.2825 0.19145 0.27147 0.0
C137 C 0.25166 0.09337 0.27668 0.0
C138 C 0.3325 0.16034 0.28779 0.0
N139 N 0.10607 0.18058 0.22694 0.0
C140 C 0.06488 0.20599 0.2019 0.0
C141 C 0.183 0.25049 0.23458 0.0
C142 C 0.167 0.20118 0.24094 0.0
C143 C 0.13547 0.27796 0.21306 0.0
C144 C 0.07701 0.25529 0.19589 0.0
H145 H 0.38356 0.17389 0.29793 0.0
H146 H 0.34707 0.2565 0.27642 0.0
H147 H 0.26055 0.30802 0.2434 0.0
O148 O 0.10939 0.10091 0.17851 0.0
O149 O 0.11168 0.1195 0.30138 0.0
O150 O 0.00758 0.15779 0.31419 0.0
O151 O 0.1644 0.04724 0.21273 0.0
O152 O 0.97964 0.12433 0.22405 0.0
O153 O 0.95276 0.15961 0.28038 0.0
O154 O 0.9627 0.078 0.37553 0.0
O155 O 0.90446 0.05524 0.26361 0.0
O156 O 0.01269 0.0333 0.23664 0.0
O157 O 0.87414 0.12652 0.36792 0.0
O158 O 0.00753 0.03787 0.32712 0.0
O159 O 0.10147 0.03614 0.2833 0.0
C160 C 0.07629 0.15265 0.31977 0.0
C161 C 0.19218 0.04786 0.14522 0.0
C162 C 0.21601 0.05096 0.07662 0.0
C163 C 0.27105 0.01724 0.08231 0.0
C164 C 0.24626 0.01362 0.14953 0.0
C165 C 0.28517 0.99842 0.11826 0.0
C166 C 0.17638 0.06583 0.10864 0.0
C167 C 0.942 0.15499 0.24391 0.0
C168 C 0.15479 0.06579 0.17926 0.0
C169 C 0.29704 0.24086 0.26666 0.0
C170 C 0.24759 0.27024 0.24803 0.0
C171 C 0.94296 0.02944 0.23999 0.0
C172 C 0.87157 0.07662 0.42191 0.0
C173 C 0.8309 0.07242 0.4879 0.0
C174 C 0.78507 0.03385 0.47758 0.0
C175 C 0.82588 0.03807 0.41261 0.0
C176 C 0.87507 0.09302 0.45959 0.0
C177 C 0.78335 0.0166 0.44037 0.0
C178 C 0.0674 0.02027 0.3138 0.0
C179 C 0.91209 0.10207 0.39213 0.0
H180 H 0.30503 0.006 0.05928 0.0
H181 H 0.25948 0.99912 0.17724 0.0
H182 H 0.32762 0.97259 0.122 0.0
H183 H 0.13351 0.09141 0.10536 0.0
H184 H 0.74863 0.01775 0.4978 0.0
H185 H 0.82203 0.02508 0.38385 0.0
H186 H 0.91155 0.12233 0.46643 0.0
H187 H 0.74752 0.98721 0.4328 0.0
Eu188 Eu 0.40826 0.40731 0.74071 0.0
C189 C 0.74008 0.40293 0.80199 0.0
N190 N 0.6845 0.37204 0.80774 0.0
C191 C 0.76171 0.30425 0.80096 0.0
C192 C 0.80911 0.38544 0.79484 0.0
C193 C 0.69424 0.32332 0.80792 0.0
C194 C 0.81932 0.33541 0.79403 0.0
C195 C 0.78507 0.48535 0.79937 0.0
C196 C 0.72821 0.4522 0.80419 0.0
C197 C 0.85374 0.46814 0.79161 0.0
C198 C 0.86573 0.41832 0.78931 0.0
Eu199 Eu 0.57248 0.40694 0.81862 0.0
N200 N 0.66101 0.46774 0.81116 0.0
C201 C 0.7712 0.53478 0.80264 0.0
C202 C 0.64759 0.51583 0.81573 0.0
C203 C 0.70225 0.55005 0.8111 0.0
H204 H 0.64989 0.29923 0.81381 0.0
H205 H 0.69116 0.58816 0.81396 0.0
H206 H 0.25796 0.44615 0.77934 0.0
H207 H 0.45771 0.23072 0.67473 0.0
H208 H 0.59437 0.52777 0.82213 0.0
H209 H 0.81339 0.5614 0.79897 0.0
H210 H 0.47486 0.3177 0.68436 0.0
H211 H 0.76933 0.2656 0.80137 0.0
H212 H 0.89804 0.49304 0.78762 0.0
H213 H 0.91912 0.40558 0.78366 0.0
H214 H 0.14377 0.41304 0.80353 0.0
H215 H 0.87158 0.32051 0.78872 0.0
H216 H 0.35661 0.18824 0.70536 0.0
N217 N 0.29752 0.37792 0.7629 0.0
C218 C 0.28389 0.33001 0.75879 0.0
C219 C 0.18286 0.38923 0.79126 0.0
C220 C 0.219 0.30957 0.77155 0.0
C221 C 0.24757 0.40787 0.7778 0.0
C222 C 0.16876 0.33974 0.78846 0.0
N223 N 0.39371 0.32346 0.72642 0.0
C224 C 0.43455 0.29921 0.70074 0.0
C225 C 0.31872 0.25254 0.73343 0.0
C226 C 0.33376 0.30185 0.74041 0.0
C227 C 0.36612 0.22618 0.71123 0.0
C228 C 0.42337 0.24995 0.69405 0.0
H229 H 0.11837 0.32539 0.79867 0.0
H230 H 0.15616 0.24372 0.77592 0.0
H231 H 0.24287 0.19396 0.74185 0.0
O232 O 0.38751 0.40355 0.67923 0.0
O233 O 0.38838 0.38387 0.80195 0.0
O234 O 0.49256 0.3453 0.81459 0.0
O235 O 0.33224 0.45647 0.71374 0.0
O236 O 0.51899 0.38058 0.72446 0.0
O237 O 0.54658 0.34452 0.78046 0.0
O238 O 0.53482 0.42434 0.87571 0.0
O239 O 0.59307 0.45039 0.76467 0.0
O240 O 0.48455 0.47095 0.73666 0.0
O241 O 0.62644 0.37844 0.86875 0.0
O242 O 0.49292 0.46638 0.82722 0.0
O243 O 0.39662 0.46684 0.78438 0.0
C244 C 0.42375 0.35009 0.81984 0.0
C245 C 0.30367 0.45613 0.64607 0.0
C246 C 0.27968 0.45277 0.57742 0.0
C247 C 0.22428 0.48622 0.58278 0.0
C248 C 0.24915 0.49003 0.65013 0.0
C249 C 0.20998 0.50499 0.61864 0.0
C250 C 0.31963 0.43828 0.6096 0.0
C251 C 0.55694 0.34963 0.74406 0.0
C252 C 0.34165 0.43836 0.68016 0.0
C253 C 0.20551 0.26013 0.76615 0.0
C254 C 0.25507 0.23176 0.74692 0.0
C255 C 0.55401 0.47605 0.74092 0.0
C256 C 0.62476 0.42758 0.92314 0.0
C257 C 0.662 0.43246 0.9899 0.0
C258 C 0.70723 0.47158 0.98026 0.0
C259 C 0.66988 0.46664 0.91455 0.0
C260 C 0.61974 0.4113 0.96083 0.0
C261 C 0.71034 0.48874 0.94302 0.0
C262 C 0.43199 0.48327 0.81441 0.0
C263 C 0.58652 0.40149 0.89271 0.0
H264 H 0.19018 0.49723 0.55955 0.0
H265 H 0.23585 0.50443 0.67777 0.0
H266 H 0.16724 0.53059 0.62216 0.0
H267 H 0.36292 0.41303 0.60654 0.0
H268 H 0.74228 0.48818 1.00106 0.0
H269 H 0.67494 0.47949 0.8858 0.0
H270 H 0.58367 0.38159 0.96708 0.0
H271 H 0.74575 0.51853 0.93601 0.0
Eu272 Eu 0.07405 0.90902 0.74031 0.0
C273 C 0.7563 0.8736 0.80518 0.0
N274 N 0.79113 0.91676 0.80712 0.0
C275 C 0.68214 0.95854 0.79452 0.0
C276 C 0.68257 0.87131 0.79701 0.0
C277 C 0.75527 0.95899 0.80251 0.0
C278 C 0.64567 0.9145 0.79152 0.0
C279 C 0.75941 0.78624 0.80987 0.0
C280 C 0.79444 0.83158 0.81156 0.0
C281 C 0.6863 0.7838 0.80108 0.0
C282 C 0.64798 0.82621 0.79471 0.0
Eu283 Eu 0.91464 0.91453 0.8196 0.0
N284 N 0.86544 0.83502 0.81972 0.0
C285 C 0.79869 0.74467 0.81758 0.0
C286 C 0.90248 0.79476 0.82973 0.0
C287 C 0.87029 0.74904 0.82805 0.0
H288 H 0.78298 0.99319 0.80553 0.0
H289 H 0.90048 0.71725 0.83545 0.0
H290 H 0.1627 0.80534 0.74963 0.0
H291 H 0.17084 0.09582 0.74544 0.0
H292 H 0.95609 0.79739 0.84015 0.0
H293 H 0.77379 0.7092 0.81657 0.0
H294 H 0.08073 0.03057 0.73889 0.0
H295 H 0.65396 0.99216 0.79079 0.0
H296 H 0.65869 0.74928 0.79954 0.0
H297 H 0.59146 0.82375 0.78829 0.0
H298 H 0.28575 0.77853 0.76329 0.0
H299 H 0.58898 0.91424 0.7853 0.0
H300 H 0.29689 0.07561 0.75834 0.0
N301 N 0.18952 0.87992 0.75248 0.0
C302 C 0.24174 0.91381 0.75712 0.0
C303 C 0.27399 0.81665 0.76192 0.0
C304 C 0.31273 0.90019 0.7646 0.0
C305 C 0.20444 0.83188 0.75442 0.0
C306 C 0.32836 0.85093 0.76718 0.0
N307 N 0.15497 0.97432 0.74801 0.0
C308 C 0.13562 0.02146 0.7441 0.0
C309 C 0.27734 0.99837 0.75855 0.0
C310 C 0.22425 0.96233 0.75429 0.0
C311 C 0.25764 0.04686 0.75531 0.0
C312 C 0.18651 0.05843 0.74799 0.0
H313 H 0.38224 0.83899 0.7729 0.0
H314 H 0.42055 0.92622 0.77491 0.0
H315 H 0.38959 0.01212 0.76951 0.0
O316 O 0.04438 0.92744 0.68202 0.0
O317 O 0.09981 0.94677 0.79636 0.0
O318 O 0.9919 0.97702 0.81441 0.0
O319 O 0.1292 0.87665 0.69222 0.0
O320 O 0.9887 0.96406 0.72818 0.0
O321 O 0.90635 0.97622 0.77722 0.0
O322 O 0.91807 0.89845 0.88054 0.0
O323 O 0.88704 0.88536 0.76084 0.0
O324 O 0.99137 0.84881 0.74391 0.0
O325 O 0.86561 0.96281 0.86069 0.0
O326 O 0.02005 0.87797 0.83418 0.0
O327 O 0.04949 0.84478 0.77706 0.0
C328 C 0.06115 0.97448 0.81838 0.0
C329 C 0.1379 0.92518 0.63734 0.0
C330 C 0.17581 0.92994 0.57088 0.0
C331 C 0.22565 0.96608 0.58136 0.0
C332 C 0.18746 0.96142 0.64683 0.0
C333 C 0.23073 0.98191 0.61892 0.0
C334 C 0.13117 0.91028 0.59938 0.0
C335 C 0.9333 0.98561 0.74322 0.0
C336 C 0.09453 0.90152 0.66687 0.0
C337 C 0.36572 0.936 0.76913 0.0
C338 C 0.3481 0.98494 0.76603 0.0
C339 C 0.92189 0.8536 0.74059 0.0
C340 C 0.822 0.92718 0.91746 0.0
C341 C 0.78466 0.91429 0.98312 0.0
C342 C 0.71302 0.91535 0.97112 0.0
C343 C 0.75005 0.92772 0.90617 0.0
C344 C 0.83909 0.91992 0.956 0.0
C345 C 0.69602 0.9218 0.93289 0.0
C346 C 0.05793 0.84792 0.81387 0.0
C347 C 0.87972 0.93554 0.88982 0.0
H348 H 0.26247 0.98133 0.56093 0.0
H349 H 0.19334 0.97353 0.67578 0.0
H350 H 0.26948 0.00952 0.62657 0.0
H351 H 0.09147 0.88299 0.59239 0.0
H352 H 0.67006 0.91026 0.99127 0.0
H353 H 0.73526 0.93305 0.87686 0.0
H354 H 0.89452 0.91938 0.96492 0.0
H355 H 0.64071 0.92222 0.92392 0.0
Eu356 Eu 0.42512 0.59468 0.24261 0.0
C357 C 0.71849 0.66484 0.30354 0.0
N358 N 0.70182 0.6172 0.30086 0.0
C359 C 0.8168 0.60087 0.27453 0.0
C360 C 0.78516 0.68261 0.29095 0.0
C361 C 0.75033 0.58497 0.2877 0.0
C362 C 0.83406 0.65002 0.27579 0.0
C363 C 0.68751 0.74472 0.32547 0.0
C364 C 0.66962 0.69551 0.32009 0.0
C365 C 0.75311 0.76279 0.31223 0.0
C366 C 0.80154 0.73193 0.29466 0.0
Eu367 Eu 0.58792 0.59245 0.32189 0.0
N368 N 0.6075 0.67655 0.33376 0.0
C369 C 0.6407 0.77379 0.34583 0.0
C370 C 0.56684 0.70356 0.35774 0.0
C371 C 0.58094 0.75281 0.36282 0.0
H372 H 0.73765 0.54695 0.28755 0.0
H373 H 0.54685 0.77421 0.38079 0.0
H374 H 0.34772 0.70242 0.24694 0.0
H375 H 0.30715 0.41334 0.24904 0.0
H376 H 0.52451 0.68733 0.37411 0.0
H377 H 0.65237 0.81175 0.35045 0.0
H378 H 0.40393 0.47368 0.24084 0.0
H379 H 0.85481 0.57521 0.26368 0.0
H380 H 0.76769 0.80041 0.31631 0.0
H381 H 0.8523 0.7463 0.28499 0.0
H382 H 0.22791 0.73604 0.25837 0.0
H383 H 0.88576 0.66226 0.26578 0.0
H384 H 0.18448 0.44021 0.26281 0.0
N385 N 0.31302 0.62964 0.25297 0.0
C386 C 0.25738 0.59873 0.25856 0.0
C387 C 0.23559 0.69741 0.25905 0.0
C388 C 0.18819 0.61622 0.26526 0.0
C389 C 0.30326 0.67835 0.25264 0.0
C390 C 0.17788 0.66626 0.26576 0.0
N391 N 0.33682 0.53384 0.25042 0.0
C392 C 0.35054 0.4857 0.24665 0.0
C393 C 0.21257 0.51628 0.2617 0.0
C394 C 0.26941 0.54942 0.25681 0.0
C395 C 0.22666 0.46681 0.25911 0.0
C396 C 0.29587 0.45149 0.25134 0.0
H397 H 0.12548 0.68115 0.27067 0.0
H398 H 0.07803 0.59609 0.27603 0.0
H399 H 0.09941 0.50862 0.27294 0.0
O400 O 0.4608 0.57597 0.18541 0.0
O401 O 0.40182 0.55383 0.29749 0.0
O402 O 0.50987 0.52969 0.32371 0.0
O403 O 0.37254 0.62465 0.19251 0.0
O404 O 0.5042 0.53496 0.23425 0.0
O405 O 0.59849 0.53241 0.27834 0.0
O406 O 0.60514 0.59721 0.38382 0.0
O407 O 0.61032 0.61474 0.26077 0.0
O408 O 0.50769 0.65466 0.24679 0.0
O409 O 0.65953 0.54234 0.35089 0.0
O410 O 0.47836 0.62222 0.33704 0.0
O411 O 0.45241 0.6574 0.2803 0.0
C412 C 0.4399 0.52761 0.32127 0.0
C413 C 0.37032 0.57519 0.1382 0.0
C414 C 0.33116 0.57083 0.07165 0.0
C415 C 0.28564 0.53198 0.08158 0.0
C416 C 0.32496 0.53633 0.14701 0.0
C417 C 0.28329 0.51471 0.1188 0.0
C418 C 0.37427 0.59177 0.1005 0.0
C419 C 0.56391 0.51695 0.24769 0.0
C420 C 0.41056 0.60032 0.16846 0.0
C421 C 0.13155 0.58335 0.27073 0.0
C422 C 0.14371 0.53352 0.26893 0.0
C423 C 0.57652 0.64876 0.24232 0.0
C424 C 0.68487 0.54318 0.41884 0.0
C425 C 0.70834 0.54759 0.48761 0.0
C426 C 0.76037 0.51157 0.48308 0.0
C427 C 0.73601 0.50677 0.41574 0.0
C428 C 0.67029 0.5629 0.45493 0.0
C429 C 0.7732 0.49108 0.44766 0.0
C430 C 0.44149 0.65313 0.31675 0.0
C431 C 0.64935 0.56138 0.38406 0.0
H432 H 0.24994 0.51561 0.06097 0.0
H433 H 0.32085 0.52316 0.17575 0.0
H434 H 0.24772 0.48507 0.126 0.0
H435 H 0.41044 0.62135 0.09401 0.0
H436 H 0.79307 0.49976 0.50663 0.0
H437 H 0.74826 0.49087 0.38847 0.0
H438 H 0.62965 0.5902 0.45729 0.0
H439 H 0.81338 0.46351 0.44481 0.0
C440 C 0.20355 0.9324 0.35173 0.0
C441 C 0.16224 0.90295 0.37565 0.0
H442 H 0.20588 0.99098 0.31264 0.0
C443 C 0.09038 0.91395 0.38141 0.0
H444 H 0.25927 0.92434 0.3471 0.0
C445 C 0.05953 0.9528 0.36193 0.0
C446 C 0.09997 0.9804 0.33585 0.0
H447 H 0.05768 0.89129 0.39955 0.0
H448 H 0.00357 0.96011 0.3664 0.0
C449 C 0.17268 0.97024 0.3317 0.0
C450 C 0.41024 0.58973 0.88165 0.0
C451 C 0.33763 0.59952 0.87699 0.0
H452 H 0.49749 0.54485 0.86555 0.0
C453 C 0.29564 0.56929 0.85388 0.0
H454 H 0.44344 0.61308 0.8991 0.0
C455 C 0.32634 0.53178 0.8336 0.0
C456 C 0.39966 0.52284 0.83664 0.0
H457 H 0.23939 0.57656 0.85 0.0
H458 H 0.29251 0.51031 0.81521 0.0
C459 C 0.44099 0.55124 0.86193 0.0
C460 C 0.70074 0.55246 0.69687 0.0
C461 C 0.66174 0.58877 0.67875 0.0
H462 H 0.6975 0.48736 0.72933 0.0
C463 C 0.5871 0.58628 0.67869 0.0
H464 H 0.75848 0.55438 0.69754 0.0
C465 C 0.55175 0.54889 0.69802 0.0
C466 C 0.59079 0.51344 0.7177 0.0
H467 H 0.55642 0.61467 0.66544 0.0
H468 H 0.49398 0.54883 0.69869 0.0
C469 C 0.6657 0.51476 0.71565 0.0
C470 C 0.90704 0.9183 0.17973 0.0
C471 C 0.83234 0.91687 0.17932 0.0
H472 H 0.00111 0.95483 0.19972 0.0
C473 C 0.79433 0.95509 0.19524 0.0
H474 H 0.93694 0.88869 0.16786 0.0
C475 C 0.83047 0.99285 0.21348 0.0
C476 C 0.90533 0.99261 0.21663 0.0
H477 H 0.73655 0.95444 0.19504 0.0
H478 H 0.79953 0.0214 0.2261 0.0
C479 C 0.94341 0.95586 0.19829 0.0
C480 C 0.79489 0.07003 0.70352 0.0
C481 C 0.83635 0.10139 0.68124 0.0
H482 H 0.79296 0.0087 0.74001 0.0
C483 C 0.90895 0.09202 0.67625 0.0
H484 H 0.73847 0.0766 0.70724 0.0
C485 C 0.94048 0.05317 0.69535 0.0
C486 C 0.89989 0.02413 0.72031 0.0
H487 H 0.94155 0.11599 0.65911 0.0
H488 H -0.00305 0.04713 0.69167 0.0
C489 C 0.82633 0.03189 0.72291 0.0
C490 C 0.5844 0.4109 0.17998 0.0
C491 C 0.65702 0.40097 0.18431 0.0
H492 H 0.49757 0.45579 0.19662 0.0
C493 C 0.69941 0.43088 0.20748 0.0
H494 H 0.55092 0.38781 0.16246 0.0
C495 C 0.6691 0.46827 0.22805 0.0
C496 C 0.59579 0.47733 0.22535 0.0
H497 H 0.75571 0.42353 0.21105 0.0
H498 H 0.70326 0.48969 0.24626 0.0
C499 C 0.55405 0.44923 0.20005 0.0
C500 C 0.40229 0.42015 0.38546 0.0
C501 C 0.32761 0.41938 0.38565 0.0
H502 H 0.49688 0.4548 0.36452 0.0
C503 C 0.29023 0.45657 0.36765 0.0
H504 H 0.43168 0.3911 0.39867 0.0
C505 C 0.32686 0.49293 0.34814 0.0
C506 C 0.40168 0.49211 0.34552 0.0
H507 H 0.23244 0.45606 0.36727 0.0
H508 H 0.2963 0.52076 0.33416 0.0
C509 C 0.4392 0.45625 0.36553 0.0
C510 C 0.09679 0.08198 0.8828 0.0
C511 C 0.17147 0.08251 0.88421 0.0
H512 H 0.00281 0.0474 0.86057 0.0
C513 C 0.20923 0.04487 0.86726 0.0
H514 H 0.0671 0.11133 0.89519 0.0
C515 C 0.1731 0.00834 0.84755 0.0
C516 C 0.09844 0.00949 0.84358 0.0
H517 H 0.26701 0.04519 0.86778 0.0
H518 H 0.20404 0.98033 0.8342 0.0
C519 C 0.06041 0.04574 0.86261 0.0
C520 C 0.2244 0.06894 0.96938 0.0
C521 C 0.20408 0.11728 0.96537 0.0
H522 H 0.23915 0.00909 1.00648 0.0
C523 C 0.1779 0.14158 0.99734 0.0
H524 H 0.24541 0.04917 0.94553 0.0
C525 C 0.17909 0.11976 0.03325 0.0
C526 C 0.20395 0.0722 0.03785 0.0
H527 H 0.15995 0.17847 0.9949 0.0
H528 H 0.16385 0.14133 0.05742 0.0
C529 C 0.22278 0.04639 1.00489 0.0
C530 C 0.27215 0.43391 0.47021 0.0
C531 C 0.29312 0.38566 0.46671 0.0
H532 H 0.25607 0.49394 0.50685 0.0
C533 C 0.31912 0.36173 0.49904 0.0
H534 H 0.25132 0.45335 0.44602 0.0
C535 C 0.31731 0.38383 0.53476 0.0
C536 C 0.29192 0.4313 0.53885 0.0
H537 H 0.33745 0.3249 0.49698 0.0
H538 H 0.3325 0.36249 0.55917 0.0
C539 C 0.27299 0.45674 0.5056 0.0
C540 C 0.66094 0.34129 0.07082 0.0
C541 C 0.68501 0.36922 0.1016 0.0
H542 H 0.63817 0.338 1.01174 0.0
C543 C 0.69391 0.41916 0.09667 0.0
H544 H 0.65271 0.30276 0.07414 0.0
C545 C 0.68224 0.44026 0.06101 0.0
C546 C 0.66355 0.41163 1.02922 0.0
H547 H 0.71287 0.44158 0.11981 0.0
H548 H 0.68995 0.47888 0.05831 0.0
C549 C 0.65154 0.3619 0.03503 0.0
C550 C 0.83135 0.1632 0.56893 0.0
C551 C 0.80661 0.13515 0.59942 0.0
H552 H 0.85523 0.16666 0.51004 0.0
C553 C 0.79669 0.08535 0.59422 0.0
H554 H 0.84032 0.20162 0.57248 0.0
C555 C 0.80853 0.06443 0.55863 0.0
C556 C 0.82839 0.09313 0.52715 0.0
H557 H 0.77703 0.06286 0.6171 0.0
H558 H 0.80022 0.02588 0.55573 0.0
C559 C 0.84098 0.14276 0.53316 0.0
C560 C 0.85135 0.85273 0.07218 0.0
C561 C 0.80919 0.87479 0.09994 0.0
H562 H 0.87698 0.84831 1.01297 0.0
C563 C 0.76809 0.9149 0.09 0.0
H564 H 0.88329 0.82166 0.07944 0.0
C565 C 0.76388 0.92992 0.05219 0.0
C566 C 0.80121 0.90525 1.02374 0.0
H567 H 0.73474 0.93207 0.11098 0.0
H568 H 0.7284 0.95917 0.04486 0.0
C569 C 0.84765 0.86797 0.03431 0.0
C570 C 0.71719 0.56938 0.59465 0.0
C571 C 0.70042 0.61848 0.59721 0.0
H572 H 0.72805 0.50767 0.55911 0.0
C573 C 0.67699 0.64244 0.56432 0.0
H574 H 0.736 0.54985 0.61925 0.0
C575 C 0.677 0.61925 0.52901 0.0
C576 C 0.69799 0.57069 0.52582 0.0
H577 H 0.66198 0.68003 0.56565 0.0
H578 H 0.66386 0.64045 0.50418 0.0
C579 C 0.71452 0.54555 0.55962 0.0
C580 C 0.29937 0.58283 0.96469 0.0
C581 C 0.30828 0.63269 0.95929 0.0
H582 H 0.30309 0.52365 1.00361 0.0
C583 C 0.33201 0.66107 0.98993 0.0
H584 H 0.28067 0.56005 0.94171 0.0
C585 C 0.34139 0.64092 1.02594 0.0
C586 C 0.32942 0.59127 0.03217 0.0
H587 H 0.34026 0.69955 0.98629 0.0
H588 H 0.35485 0.66505 0.04908 0.0
C589 C 0.3108 0.56223 1.00058 0.0
C590 C 0.16424 0.84174 0.48832 0.0
C591 C 0.19043 0.86959 0.45806 0.0
H592 H 0.14215 0.83759 0.54737 0.0
C593 C 0.20402 0.91891 0.46383 0.0
H594 H 0.15269 0.80369 0.48433 0.0
C595 C 0.19522 0.93931 0.49991 0.0
C596 C 0.17444 0.91048 0.53118 0.0
H597 H 0.22464 0.94115 0.44102 0.0
H598 H 0.20686 0.9774 0.50339 0.0
C599 C 0.15737 0.86158 0.52448 0.0
C600 C 0.22276 0.22057 0.37241 0.0
C601 C 0.19286 0.26659 0.37531 0.0
H602 H 0.20892 0.14789 0.35237 0.0
C603 C 0.1244 0.27479 0.36085 0.0
H604 H 0.27596 0.21407 0.38325 0.0
C605 C 0.08608 0.2374 0.34344 0.0
C606 C 0.11612 0.19129 0.3398 0.0
H607 H 0.10118 0.31036 0.36273 0.0
H608 H 0.03357 0.24498 0.33206 0.0
C609 C 0.18469 0.1831 0.35466 0.0
C610 C 0.37415 0.22671 0.85822 0.0
C611 C 0.30694 0.23521 0.87392 0.0
H612 H 0.46408 0.25658 0.82892 0.0
C613 C 0.27847 0.28179 0.87263 0.0
H614 H 0.39638 0.19077 0.85888 0.0
C615 C 0.31657 0.31948 0.85525 0.0
C616 C 0.3839 0.31101 0.83927 0.0
H617 H 0.22631 0.28862 0.88445 0.0
H618 H 0.29338 0.35513 0.85422 0.0
C619 C 0.41259 0.26434 0.84124 0.0
C620 C 0.6437 0.23234 0.71902 0.0
C621 C 0.6909 0.24643 0.69019 0.0
H622 H 0.56494 0.25441 0.75893 0.0
C623 C 0.69164 0.29462 0.67772 0.0
H624 H 0.64063 0.19507 0.7282 0.0
C625 C 0.64668 0.32847 0.69456 0.0
C626 C 0.60177 0.31446 0.72447 0.0
H627 H 0.72773 0.30605 0.65546 0.0
H628 H 0.64841 0.36568 0.68504 0.0
C629 C 0.60027 0.26614 0.73637 0.0
C630 C 0.85144 0.2714 0.21984 0.0
C631 C 0.8041 0.25706 0.19096 0.0
H632 H 0.93173 0.24986 0.25946 0.0
C633 C 0.8046 0.20911 0.17806 0.0
H634 H 0.85349 0.30856 0.22931 0.0
C635 C 0.85088 0.17566 0.19461 0.0
C636 C 0.89593 0.18985 0.22459 0.0
H637 H 0.76845 0.19756 0.15572 0.0
H638 H 0.85005 0.13858 0.18481 0.0
C639 C 0.8963 0.23799 0.23684 0.0
C640 C 0.87417 0.73579 0.69149 0.0
C641 C 0.80036 0.74028 0.68673 0.0
H642 H 0.97081 0.76824 0.7121 0.0
C643 C 0.7666 0.78255 0.69846 0.0
H644 H 0.90059 0.70307 0.68269 0.0
C645 C 0.8063 0.82004 0.71506 0.0
C646 C 0.88035 0.81547 0.72061 0.0
H647 H 0.70945 0.78619 0.69506 0.0
H648 H 0.77882 0.8523 0.72393 0.0
C649 C 0.91397 0.77309 0.70822 0.0
C650 C 0.72733 0.71595 0.19358 0.0
C651 C 0.70001 0.76284 0.19194 0.0
H652 H 0.70912 0.64256 0.21086 0.0
C653 C 0.63155 0.77184 0.20587 0.0
H654 H 0.78026 0.70868 0.18294 0.0
C655 C 0.59093 0.73447 0.22162 0.0
C656 C 0.61846 0.68751 0.22393 0.0
H657 H 0.60989 0.80792 0.20463 0.0
H658 H 0.53856 0.74262 0.23268 0.0
C659 C 0.68686 0.67848 0.20955 0.0
C660 C 0.30451 0.70882 0.38132 0.0
C661 C 0.30552 0.75684 0.36846 0.0
H662 H 0.34818 0.63775 0.37499 0.0
C663 C 0.35348 0.77061 0.33989 0.0
H664 H 0.26784 0.69767 0.40339 0.0
C665 C 0.39765 0.73666 0.32326 0.0
C666 C 0.39596 0.68852 0.33558 0.0
H667 H 0.35672 0.80776 0.33043 0.0
H668 H 0.43364 0.74812 0.30091 0.0
C669 C 0.3501 0.67483 0.36517 0.0
C670 C 0.14596 0.73039 0.83808 0.0
C671 C 0.19156 0.74399 0.86801 0.0
H672 H 0.06864 0.7531 0.7971 0.0
C673 C 0.19078 0.79177 0.88125 0.0
H674 H 0.14409 0.69341 0.82821 0.0
C675 C 0.14586 0.82567 0.86424 0.0
C676 C 0.10251 0.81224 0.83333 0.0
H677 H 0.22568 0.80288 0.90428 0.0
H678 H 0.14649 0.86257 0.87444 0.0
C679 C 0.10261 0.76435 0.82052 0.0
loop_
_geom_bond_atom_site_label_1
_geom_bond_atom_site_label_2
_geom_bond_distance
_geom_bond_site_symmetry_2
_ccdc_geom_bond_type
C0 N1 1.317 . S
C0 N2 1.348 . S
C0 C3 1.485 . S
N1 C0 1.317 . S
N1 N5 1.370 . S
N2 C0 1.348 . S
N2 C4 1.346 . S
C3 C0 1.485 . S
C3 H7 0.960 . S
C3 H8 0.961 . S
C3 H9 0.960 . S
C4 N2 1.346 . S
C4 N5 1.307 . S
C4 C6 1.486 . S
N5 N1 1.370 . S
N5 C4 1.307 . S
C6 C4 1.486 . S
C6 H10 0.960 . S
C6 H11 0.960 . S
C6 H12 0.959 . S
H7 C3 0.960 . S
H8 C3 0.961 . S
H9 C3 0.960 . S
H10 C6 0.960 . S
H11 C6 0.960 . S
H12 C6 0.959 . S
C13 N14 1.317 . S
C13 N15 1.348 . S
C13 C16 1.485 . S
N14 C13 1.317 . S
N14 N18 1.370 . S
N15 C13 1.348 . S
N15 C17 1.346 . S
C16 C13 1.485 . S
C16 H20 0.960 . S
C16 H21 0.961 . S
C16 H22 0.960 . S
C17 N15 1.346 . S
C17 N18 1.307 . S
C17 C19 1.486 . S
N18 N14 1.370 . S
N18 C17 1.307 . S
C19 C17 1.486 . S
C19 H23 0.960 . S
C19 H24 0.960 . S
C19 H25 0.959 . S
H20 C16 0.960 . S
H21 C16 0.961 . S
H22 C16 0.960 . S
H23 C19 0.960 . S
H24 C19 0.960 . S
H25 C19 0.959 . S
C26 N27 1.317 . S
C26 N28 1.348 . S
C26 C29 1.485 . S
N27 C26 1.317 . S
N27 N31 1.370 . S
N28 C26 1.348 . S
N28 C30 1.346 . S
C29 C26 1.485 . S
C29 H33 0.960 . S
C29 H34 0.961 . S
C29 H35 0.960 . S
C30 N28 1.346 . S
C30 N31 1.307 . S
C30 C32 1.486 . S
N31 N27 1.370 . S
N31 C30 1.307 . S
C32 C30 1.486 . S
C32 H36 0.960 . S
C32 H37 0.960 . S
C32 H38 0.959 . S
H33 C29 0.960 . S
H34 C29 0.961 . S
H35 C29 0.960 . S
H36 C32 0.960 . S
H37 C32 0.960 . S
H38 C32 0.959 . S
C39 N40 1.317 . S
C39 N41 1.348 . S
C39 C42 1.485 . S
N40 C39 1.317 . S
N40 N44 1.370 . S
N41 C39 1.348 . S
N41 C43 1.346 . S
C42 C39 1.485 . S
C42 H46 0.960 . S
C42 H47 0.961 . S
C42 H48 0.960 . S
C43 N41 1.346 . S
C43 N44 1.307 . S
C43 C45 1.486 . S
N44 N40 1.370 . S
N44 C43 1.307 . S
C45 C43 1.486 . S
C45 H49 0.960 . S
C45 H50 0.960 . S
C45 H51 0.959 . S
H46 C42 0.960 . S
H47 C42 0.961 . S
H48 C42 0.960 . S
H49 C45 0.960 . S
H50 C45 0.960 . S
H51 C45 0.959 . S
C52 N53 1.317 . S
C52 N54 1.348 . S
C52 C55 1.485 . S
N53 C52 1.317 . S
N53 N57 1.370 . S
N54 C52 1.348 . S
N54 C56 1.346 . S
C55 C52 1.485 . S
C55 H59 0.960 . S
C55 H60 0.961 . S
C55 H61 0.960 . S
C56 N54 1.346 . S
C56 N57 1.307 . S
C56 C58 1.486 . S
N57 N53 1.370 . S
N57 C56 1.307 . S
C58 C56 1.486 . S
C58 H62 0.960 . S
C58 H63 0.960 . S
C58 H64 0.959 . S
H59 C55 0.960 . S
H60 C55 0.961 . S
H61 C55 0.960 . S
H62 C58 0.960 . S
H63 C58 0.960 . S
H64 C58 0.959 . S
C65 N66 1.317 . S
C65 N67 1.348 . S
C65 C68 1.485 . S
N66 C65 1.317 . S
N66 N70 1.370 . S
N67 C65 1.348 . S
N67 C69 1.346 . S
C68 C65 1.485 . S
C68 H72 0.960 . S
C68 H73 0.961 . S
C68 H74 0.960 . S
C69 N67 1.346 . S
C69 N70 1.307 . S
C69 C71 1.486 . S
N70 N66 1.370 . S
N70 C69 1.307 . S
C71 C69 1.486 . S
C71 H75 0.960 . S
C71 H76 0.960 . S
C71 H77 0.959 . S
H72 C68 0.960 . S
H73 C68 0.961 . S
H74 C68 0.960 . S
H75 C71 0.960 . S
H76 C71 0.960 . S
H77 C71 0.959 . S
C78 N79 1.317 . S
C78 N80 1.348 . S
C78 C81 1.485 . S
N79 C78 1.317 . S
N79 N83 1.370 . S
N80 C78 1.348 . S
N80 C82 1.346 . S
C81 C78 1.485 . S
C81 H85 0.960 . S
C81 H86 0.961 . S
C81 H87 0.960 . S
C82 N80 1.346 . S
C82 N83 1.307 . S
C82 C84 1.486 . S
N83 N79 1.370 . S
N83 C82 1.307 . S
C84 C82 1.486 . S
C84 H88 0.960 . S
C84 H89 0.960 . S
C84 H90 0.959 . S
H85 C81 0.960 . S
H86 C81 0.961 . S
H87 C81 0.960 . S
H88 C84 0.960 . S
H89 C84 0.960 . S
H90 C84 0.959 . S
C91 N92 1.317 . S
C91 N93 1.348 . S
C91 C94 1.485 . S
N92 C91 1.317 . S
N92 N96 1.370 . S
N93 C91 1.348 . S
N93 C95 1.346 . S
C94 C91 1.485 . S
C94 H98 0.960 . S
C94 H99 0.961 . S
C94 H100 0.960 . S
C95 N93 1.346 . S
C95 N96 1.307 . S
C95 C97 1.486 . S
N96 N92 1.370 . S
N96 C95 1.307 . S
C97 C95 1.486 . S
C97 H101 0.960 . S
C97 H102 0.960 . S
C97 H103 0.959 . S
H98 C94 0.960 . S
H99 C94 0.961 . S
H100 C94 0.960 . S
H101 C97 0.960 . S
H102 C97 0.960 . S
H103 C97 0.959 . S
Eu104 N133 2.600 . S
Eu104 N139 2.562 . S
Eu104 O148 2.462 . S
Eu104 O149 2.373 . S
Eu104 O151 2.432 . S
Eu104 O152 2.291 1_455 S
Eu104 O156 2.335 1_455 S
Eu104 O159 2.372 . S
Eu104 C168 2.787 . S
C105 N106 1.365 . S
C105 C108 1.405 . S
C105 C112 1.448 . S
N106 C105 1.365 . S
N106 C109 1.319 . S
N106 Eu115 2.600 . S
C107 C109 1.397 . S
C107 C110 1.367 . S
C107 H127 0.931 . S
C108 C105 1.405 . S
C108 C110 1.403 . S
C108 C114 1.439 . S
C109 N106 1.319 . S
C109 C107 1.397 . S
C109 H120 0.930 . S
C110 C107 1.367 . S
C110 C108 1.403 . S
C110 H131 0.929 . S
C111 C112 1.430 1_565 S
C111 C113 1.387 . S
C111 C117 1.404 . S
C112 C105 1.448 . S
C112 C111 1.430 1_545 S
C112 N116 1.351 . S
C113 C111 1.387 . S
C113 C114 1.374 1_565 S
C113 H128 0.931 . S
C114 C108 1.439 . S
C114 C113 1.374 1_545 S
C114 H129 0.931 . S
Eu115 N106 2.600 . S
Eu115 N116 2.562 . S
Eu115 O150 2.335 1_655 S
Eu115 O153 2.372 . S
Eu115 O154 2.462 . S
Eu115 O155 2.373 . S
Eu115 O157 2.432 . S
Eu115 O158 2.291 1_655 S
Eu115 C179 2.787 . S
N116 C112 1.351 . S
N116 Eu115 2.562 . S
N116 C118 1.325 1_545 S
C117 C111 1.404 . S
C117 C119 1.366 . S
C117 H125 0.930 . S
C118 N116 1.325 1_565 S
C118 C119 1.416 . S
C118 H124 0.929 . S
C119 C117 1.366 . S
C119 C118 1.416 . S
C119 H121 0.930 . S
H120 C109 0.930 . S
H121 C119 0.930 . S
H122 C137 0.930 . S
H123 C144 0.930 . S
H124 C118 0.929 . S
H125 C117 0.930 . S
H126 C140 0.929 . S
H127 C107 0.931 . S
H128 C113 0.931 . S
H129 C114 0.931 . S
H130 C135 0.931 . S
H131 C110 0.929 . S
H132 C143 0.930 . S
N133 Eu104 2.600 . S
N133 C134 1.365 . S
N133 C137 1.319 . S
C134 N133 1.365 . S
C134 C136 1.405 . S
C134 C142 1.448 . S
C135 H130 0.931 . S
C135 C137 1.397 . S
C135 C138 1.367 . S
C136 C134 1.405 . S
C136 C138 1.403 . S
C136 C169 1.439 . S
C137 H122 0.930 . S
C137 N133 1.319 . S
C137 C135 1.397 . S
C138 C135 1.367 . S
C138 C136 1.403 . S
C138 H145 0.929 . S
N139 Eu104 2.562 . S
N139 C140 1.325 . S
N139 C142 1.351 . S
C140 H126 0.929 . S
C140 N139 1.325 . S
C140 C144 1.416 . S
C141 C142 1.430 . S
C141 C143 1.404 . S
C141 C170 1.387 . S
C142 C134 1.448 . S
C142 N139 1.351 . S
C142 C141 1.430 . S
C143 H132 0.930 . S
C143 C141 1.404 . S
C143 C144 1.366 . S
C144 H123 0.930 . S
C144 C140 1.416 . S
C144 C143 1.366 . S
H145 C138 0.929 . S
H146 C169 0.931 . S
H147 C170 0.931 . S
O148 Eu104 2.462 . S
O148 C168 1.252 . S
O149 Eu104 2.373 . S
O149 C160 1.249 . S
O150 Eu115 2.335 1_455 S
O150 C160 1.264 . S
O151 Eu104 2.432 . S
O151 C168 1.268 . S
O152 Eu104 2.291 1_655 S
O152 C167 1.255 . S
O153 Eu115 2.372 . S
O153 C167 1.257 . S
O154 Eu115 2.462 . S
O154 C179 1.252 . S
O155 Eu115 2.373 . S
O155 C171 1.249 . S
O156 Eu104 2.335 1_655 S
O156 C171 1.264 . S
O157 Eu115 2.432 . S
O157 C179 1.268 . S
O158 Eu115 2.291 1_455 S
O158 C178 1.255 . S
O159 Eu104 2.372 . S
O159 C178 1.257 . S
C160 O149 1.249 . S
C160 O150 1.264 . S
C161 C164 1.382 . S
C161 C166 1.390 . S
C161 C168 1.506 . S
C162 C163 1.398 . S
C162 C166 1.392 . S
C163 C162 1.398 . S
C163 C165 1.372 . S
C163 H180 0.931 . S
C164 C161 1.382 . S
C164 C165 1.390 . S
C164 H181 0.931 . S
C165 C163 1.372 . S
C165 C164 1.390 . S
C165 H182 0.929 1_545 S
C166 C161 1.390 . S
C166 C162 1.392 . S
C166 H183 0.930 . S
C167 O152 1.255 . S
C167 O153 1.257 . S
C168 Eu104 2.787 . S
C168 O148 1.252 . S
C168 O151 1.268 . S
C168 C161 1.506 . S
C169 C136 1.439 . S
C169 H146 0.931 . S
C169 C170 1.374 . S
C170 C141 1.387 . S
C170 H147 0.931 . S
C170 C169 1.374 . S
C171 O155 1.249 . S
C171 O156 1.264 . S
C172 C175 1.382 . S
C172 C176 1.390 . S
C172 C179 1.506 . S
C173 C174 1.398 . S
C173 C176 1.392 . S
C174 C173 1.398 . S
C174 C177 1.372 . S
C174 H184 0.931 . S
C175 C172 1.382 . S
C175 C177 1.390 . S
C175 H185 0.931 . S
C176 C172 1.390 . S
C176 C173 1.392 . S
C176 H186 0.930 . S
C177 C174 1.372 . S
C177 C175 1.390 . S
C177 H187 0.929 . S
C178 O158 1.255 . S
C178 O159 1.257 . S
C179 Eu115 2.787 . S
C179 O154 1.252 . S
C179 O157 1.268 . S
C179 C172 1.506 . S
H180 C163 0.931 . S
H181 C164 0.931 . S
H182 C165 0.929 1_565 S
H183 C166 0.930 . S
H184 C174 0.931 . S
H185 C175 0.931 . S
H186 C176 0.930 . S
H187 C177 0.929 . S
Eu188 N217 2.600 . S
Eu188 N223 2.562 . S
Eu188 O232 2.462 . S
Eu188 O233 2.373 . S
Eu188 O235 2.432 . S
Eu188 O236 2.291 . S
Eu188 O240 2.335 . S
Eu188 O243 2.372 . S
Eu188 C252 2.787 . S
C189 N190 1.365 . S
C189 C192 1.405 . S
C189 C196 1.448 . S
N190 C189 1.365 . S
N190 C193 1.319 . S
N190 Eu199 2.600 . S
C191 C193 1.397 . S
C191 C194 1.367 . S
C191 H211 0.931 . S
C192 C189 1.405 . S
C192 C194 1.403 . S
C192 C198 1.439 . S
C193 N190 1.319 . S
C193 C191 1.397 . S
C193 H204 0.930 . S
C194 C191 1.367 . S
C194 C192 1.403 . S
C194 H215 0.929 . S
C195 C196 1.430 . S
C195 C197 1.387 . S
C195 C201 1.404 . S
C196 C189 1.448 . S
C196 C195 1.430 . S
C196 N200 1.351 . S
C197 C195 1.387 . S
C197 C198 1.374 . S
C197 H212 0.931 . S
C198 C192 1.439 . S
C198 C197 1.374 . S
C198 H213 0.931 . S
Eu199 N190 2.600 . S
Eu199 N200 2.562 . S
Eu199 O234 2.335 . S
Eu199 O237 2.372 . S
Eu199 O238 2.462 . S
Eu199 O239 2.373 . S
Eu199 O241 2.432 . S
Eu199 O242 2.291 . S
Eu199 C263 2.787 . S
N200 C196 1.351 . S
N200 Eu199 2.562 . S
N200 C202 1.325 . S
C201 C195 1.404 . S
C201 C203 1.366 . S
C201 H209 0.930 . S
C202 N200 1.325 . S
C202 C203 1.416 . S
C202 H208 0.929 . S
C203 C201 1.366 . S
C203 C202 1.416 . S
C203 H205 0.930 . S
H204 C193 0.930 . S
H205 C203 0.930 . S
H206 C221 0.930 . S
H207 C228 0.930 . S
H208 C202 0.929 . S
H209 C201 0.930 . S
H210 C224 0.929 . S
H211 C191 0.931 . S
H212 C197 0.931 . S
H213 C198 0.931 . S
H214 C219 0.931 . S
H215 C194 0.929 . S
H216 C227 0.930 . S
N217 Eu188 2.600 . S
N217 C218 1.365 . S
N217 C221 1.319 . S
C218 N217 1.365 . S
C218 C220 1.405 . S
C218 C226 1.448 . S
C219 H214 0.931 . S
C219 C221 1.397 . S
C219 C222 1.367 . S
C220 C218 1.405 . S
C220 C222 1.403 . S
C220 C253 1.439 . S
C221 H206 0.930 . S
C221 N217 1.319 . S
C221 C219 1.397 . S
C222 C219 1.367 . S
C222 C220 1.403 . S
C222 H229 0.929 . S
N223 Eu188 2.562 . S
N223 C224 1.325 . S
N223 C226 1.351 . S
C224 H210 0.929 . S
C224 N223 1.325 . S
C224 C228 1.416 . S
C225 C226 1.430 . S
C225 C227 1.404 . S
C225 C254 1.387 . S
C226 C218 1.448 . S
C226 N223 1.351 . S
C226 C225 1.430 . S
C227 H216 0.930 . S
C227 C225 1.404 . S
C227 C228 1.366 . S
C228 H207 0.930 . S
C228 C224 1.416 . S
C228 C227 1.366 . S
H229 C222 0.929 . S
H230 C253 0.931 . S
H231 C254 0.931 . S
O232 Eu188 2.462 . S
O232 C252 1.252 . S
O233 Eu188 2.373 . S
O233 C244 1.249 . S
O234 Eu199 2.335 . S
O234 C244 1.264 . S
O235 Eu188 2.432 . S
O235 C252 1.268 . S
O236 Eu188 2.291 . S
O236 C251 1.255 . S
O237 Eu199 2.372 . S
O237 C251 1.257 . S
O238 Eu199 2.462 . S
O238 C263 1.252 . S
O239 Eu199 2.373 . S
O239 C255 1.249 . S
O240 Eu188 2.335 . S
O240 C255 1.264 . S
O241 Eu199 2.432 . S
O241 C263 1.268 . S
O242 Eu199 2.291 . S
O242 C262 1.255 . S
O243 Eu188 2.372 . S
O243 C262 1.257 . S
C244 O233 1.249 . S
C244 O234 1.264 . S
C245 C248 1.382 . S
C245 C250 1.390 . S
C245 C252 1.506 . S
C246 C247 1.398 . S
C246 C250 1.392 . S
C247 C246 1.398 . S
C247 C249 1.372 . S
C247 H264 0.931 . S
C248 C245 1.382 . S
C248 C249 1.390 . S
C248 H265 0.931 . S
C249 C247 1.372 . S
C249 C248 1.390 . S
C249 H266 0.929 . S
C250 C245 1.390 . S
C250 C246 1.392 . S
C250 H267 0.930 . S
C251 O236 1.255 . S
C251 O237 1.257 . S
C252 Eu188 2.787 . S
C252 O232 1.252 . S
C252 O235 1.268 . S
C252 C245 1.506 . S
C253 C220 1.439 . S
C253 H230 0.931 . S
C253 C254 1.374 . S
C254 C225 1.387 . S
C254 H231 0.931 . S
C254 C253 1.374 . S
C255 O239 1.249 . S
C255 O240 1.264 . S
C256 C259 1.382 . S
C256 C260 1.390 . S
C256 C263 1.506 . S
C257 C258 1.398 . S
C257 C260 1.392 . S
C258 C257 1.398 . S
C258 C261 1.372 . S
C258 H268 0.931 . S
C259 C256 1.382 . S
C259 C261 1.390 . S
C259 H269 0.931 . S
C260 C256 1.390 . S
C260 C257 1.392 . S
C260 H270 0.930 . S
C261 C258 1.372 . S
C261 C259 1.390 . S
C261 H271 0.929 . S
C262 O242 1.255 . S
C262 O243 1.257 . S
C263 Eu199 2.787 . S
C263 O238 1.252 . S
C263 O241 1.268 . S
C263 C256 1.506 . S
H264 C247 0.931 . S
H265 C248 0.931 . S
H266 C249 0.929 . S
H267 C250 0.930 . S
H268 C258 0.931 . S
H269 C259 0.931 . S
H270 C260 0.930 . S
H271 C261 0.929 . S
Eu272 N301 2.600 . S
Eu272 N307 2.562 . S
Eu272 O316 2.462 . S
Eu272 O317 2.373 . S
Eu272 O319 2.432 . S
Eu272 O320 2.285 1_455 S
Eu272 O324 2.335 1_455 S
Eu272 O327 2.372 . S
Eu272 C336 2.787 . S
C273 N274 1.365 . S
C273 C276 1.405 . S
C273 C280 1.448 . S
N274 C273 1.365 . S
N274 C277 1.319 . S
N274 Eu283 2.600 . S
C275 C277 1.397 . S
C275 C278 1.367 . S
C275 H295 0.931 . S
C276 C273 1.405 . S
C276 C278 1.403 . S
C276 C282 1.439 . S
C277 N274 1.319 . S
C277 C275 1.397 . S
C277 H288 0.930 . S
C278 C275 1.367 . S
C278 C276 1.403 . S
C278 H299 0.929 . S
C279 C280 1.430 . S
C279 C281 1.387 . S
C279 C285 1.404 . S
C280 C273 1.448 . S
C280 C279 1.430 . S
C280 N284 1.351 . S
C281 C279 1.387 . S
C281 C282 1.374 . S
C281 H296 0.931 . S
C282 C276 1.439 . S
C282 C281 1.374 . S
C282 H297 0.931 . S
Eu283 N274 2.600 . S
Eu283 N284 2.562 . S
Eu283 O318 2.335 1_655 S
Eu283 O321 2.372 . S
Eu283 O322 2.462 . S
Eu283 O323 2.373 . S
Eu283 O325 2.432 . S
Eu283 O326 2.291 1_655 S
Eu283 C347 2.787 . S
N284 C280 1.351 . S
N284 Eu283 2.562 . S
N284 C286 1.325 . S
C285 C279 1.404 . S
C285 C287 1.366 . S
C285 H293 0.930 . S
C286 N284 1.325 . S
C286 C287 1.416 . S
C286 H292 0.929 . S
C287 C285 1.366 . S
C287 C286 1.416 . S
C287 H289 0.930 . S
H288 C277 0.930 . S
H289 C287 0.930 . S
H290 C305 0.930 . S
H291 C312 0.930 . S
H292 C286 0.929 . S
H293 C285 0.930 . S
H294 C308 0.929 . S
H295 C275 0.931 . S
H296 C281 0.931 . S
H297 C282 0.931 . S
H298 C303 0.931 . S
H299 C278 0.929 . S
H300 C311 0.930 . S
N301 Eu272 2.600 . S
N301 C302 1.365 . S
N301 C305 1.319 . S
C302 N301 1.365 . S
C302 C304 1.405 . S
C302 C310 1.448 . S
C303 H298 0.931 . S
C303 C305 1.397 . S
C303 C306 1.367 . S
C304 C302 1.405 . S
C304 C306 1.403 . S
C304 C337 1.439 . S
C305 H290 0.930 . S
C305 N301 1.319 . S
C305 C303 1.397 . S
C306 C303 1.367 . S
C306 C304 1.403 . S
C306 H313 0.929 . S
N307 Eu272 2.562 . S
N307 C308 1.325 1_565 S
N307 C310 1.351 . S
C308 H294 0.929 . S
C308 N307 1.325 1_545 S
C308 C312 1.416 . S
C309 C310 1.430 1_545 S
C309 C311 1.404 . S
C309 C338 1.387 . S
C310 C302 1.448 . S
C310 N307 1.351 . S
C310 C309 1.430 1_565 S
C311 H300 0.930 . S
C311 C309 1.404 . S
C311 C312 1.366 . S
C312 H291 0.930 . S
C312 C308 1.416 . S
C312 C311 1.366 . S
H313 C306 0.929 . S
H314 C337 0.931 . S
H315 C338 0.931 . S
O316 Eu272 2.462 . S
O316 C336 1.252 . S
O317 Eu272 2.373 . S
O317 C328 1.249 . S
O318 Eu283 2.335 1_455 S
O318 C328 1.264 . S
O319 Eu272 2.432 . S
O319 C336 1.268 . S
O320 Eu272 2.285 1_655 S
O320 C335 1.262 . S
O321 Eu283 2.372 . S
O321 C335 1.257 . S
O322 Eu283 2.462 . S
O322 C347 1.252 . S
O323 Eu283 2.373 . S
O323 C339 1.249 . S
O324 Eu272 2.335 1_655 S
O324 C339 1.264 . S
O325 Eu283 2.432 . S
O325 C347 1.268 . S
O326 Eu283 2.291 1_455 S
O326 C346 1.255 . S
O327 Eu272 2.372 . S
O327 C346 1.257 . S
C328 O317 1.249 . S
C328 O318 1.264 . S
C329 C332 1.382 . S
C329 C334 1.390 . S
C329 C336 1.506 . S
C330 C331 1.398 . S
C330 C334 1.392 . S
C331 C330 1.398 . S
C331 C333 1.372 . S
C331 H348 0.931 . S
C332 C329 1.382 . S
C332 C333 1.390 . S
C332 H349 0.931 . S
C333 C331 1.372 . S
C333 C332 1.390 . S
C333 H350 0.929 . S
C334 C329 1.390 . S
C334 C330 1.392 . S
C334 H351 0.930 . S
C335 O320 1.262 . S
C335 O321 1.257 . S
C336 Eu272 2.787 . S
C336 O316 1.252 . S
C336 O319 1.268 . S
C336 C329 1.506 . S
C337 C304 1.439 . S
C337 H314 0.931 . S
C337 C338 1.374 1_565 S
C338 C309 1.387 . S
C338 H315 0.931 . S
C338 C337 1.374 1_545 S
C339 O323 1.249 . S
C339 O324 1.264 . S
C340 C343 1.382 . S
C340 C344 1.390 . S
C340 C347 1.506 . S
C341 C342 1.398 . S
C341 C344 1.392 . S
C342 C341 1.398 . S
C342 C345 1.372 . S
C342 H352 0.931 . S
C343 C340 1.382 . S
C343 C345 1.390 . S
C343 H353 0.931 . S
C344 C340 1.390 . S
C344 C341 1.392 . S
C344 H354 0.930 . S
C345 C342 1.372 . S
C345 C343 1.390 . S
C345 H355 0.929 1_565 S
C346 O326 1.255 . S
C346 O327 1.257 . S
C347 Eu283 2.787 . S
C347 O322 1.252 . S
C347 O325 1.268 . S
C347 C340 1.506 . S
H348 C331 0.931 . S
H349 C332 0.931 . S
H350 C333 0.929 . S
H351 C334 0.930 . S
H352 C342 0.931 . S
H353 C343 0.931 . S
H354 C344 0.930 . S
H355 C345 0.929 1_545 S
Eu356 N385 2.600 . S
Eu356 N391 2.562 . S
Eu356 O400 2.462 . S
Eu356 O401 2.373 . S
Eu356 O403 2.432 . S
Eu356 O404 2.291 . S
Eu356 O408 2.335 . S
Eu356 O411 2.372 . S
Eu356 C420 2.787 . S
C357 N358 1.365 . S
C357 C360 1.405 . S
C357 C364 1.448 . S
N358 C357 1.365 . S
N358 C361 1.319 . S
N358 Eu367 2.600 . S
C359 C361 1.397 . S
C359 C362 1.367 . S
C359 H379 0.931 . S
C360 C357 1.405 . S
C360 C362 1.403 . S
C360 C366 1.439 . S
C361 N358 1.319 . S
C361 C359 1.397 . S
C361 H372 0.930 . S
C362 C359 1.367 . S
C362 C360 1.403 . S
C362 H383 0.929 . S
C363 C364 1.430 . S
C363 C365 1.387 . S
C363 C369 1.404 . S
C364 C357 1.448 . S
C364 C363 1.430 . S
C364 N368 1.351 . S
C365 C363 1.387 . S
C365 C366 1.374 . S
C365 H380 0.931 . S
C366 C360 1.439 . S
C366 C365 1.374 . S
C366 H381 0.931 . S
Eu367 N358 2.600 . S
Eu367 N368 2.562 . S
Eu367 O402 2.335 . S
Eu367 O405 2.372 . S
Eu367 O406 2.462 . S
Eu367 O407 2.373 . S
Eu367 O409 2.432 . S
Eu367 O410 2.291 . S
Eu367 C431 2.787 . S
N368 C364 1.351 . S
N368 Eu367 2.562 . S
N368 C370 1.325 . S
C369 C363 1.404 . S
C369 C371 1.366 . S
C369 H377 0.930 . S
C370 N368 1.325 . S
C370 C371 1.416 . S
C370 H376 0.929 . S
C371 C369 1.366 . S
C371 C370 1.416 . S
C371 H373 0.930 . S
H372 C361 0.930 . S
H373 C371 0.930 . S
H374 C389 0.930 . S
H375 C396 0.930 . S
H376 C370 0.929 . S
H377 C369 0.930 . S
H378 C392 0.929 . S
H379 C359 0.931 . S
H380 C365 0.931 . S
H381 C366 0.931 . S
H382 C387 0.931 . S
H383 C362 0.929 . S
H384 C395 0.930 . S
N385 Eu356 2.600 . S
N385 C386 1.365 . S
N385 C389 1.319 . S
C386 N385 1.365 . S
C386 C388 1.405 . S
C386 C394 1.448 . S
C387 H382 0.931 . S
C387 C389 1.397 . S
C387 C390 1.367 . S
C388 C386 1.405 . S
C388 C390 1.403 . S
C388 C421 1.439 . S
C389 H374 0.930 . S
C389 N385 1.319 . S
C389 C387 1.397 . S
C390 C387 1.367 . S
C390 C388 1.403 . S
C390 H397 0.929 . S
N391 Eu356 2.562 . S
N391 C392 1.325 . S
N391 C394 1.351 . S
C392 H378 0.929 . S
C392 N391 1.325 . S
C392 C396 1.416 . S
C393 C394 1.430 . S
C393 C395 1.404 . S
C393 C422 1.387 . S
C394 C386 1.448 . S
C394 N391 1.351 . S
C394 C393 1.430 . S
C395 H384 0.930 . S
C395 C393 1.404 . S
C395 C396 1.366 . S
C396 H375 0.930 . S
C396 C392 1.416 . S
C396 C395 1.366 . S
H397 C390 0.929 . S
H398 C421 0.931 . S
H399 C422 0.931 . S
O400 Eu356 2.462 . S
O400 C420 1.252 . S
O401 Eu356 2.373 . S
O401 C412 1.249 . S
O402 Eu367 2.335 . S
O402 C412 1.264 . S
O403 Eu356 2.432 . S
O403 C420 1.268 . S
O404 Eu356 2.291 . S
O404 C419 1.255 . S
O405 Eu367 2.372 . S
O405 C419 1.257 . S
O406 Eu367 2.462 . S
O406 C431 1.252 . S
O407 Eu367 2.373 . S
O407 C423 1.249 . S
O408 Eu356 2.335 . S
O408 C423 1.264 . S
O409 Eu367 2.432 . S
O409 C431 1.268 . S
O410 Eu367 2.291 . S
O410 C430 1.255 . S
O411 Eu356 2.372 . S
O411 C430 1.257 . S
C412 O401 1.249 . S
C412 O402 1.264 . S
C413 C416 1.382 . S
C413 C418 1.390 . S
C413 C420 1.506 . S
C414 C415 1.398 . S
C414 C418 1.392 . S
C415 C414 1.398 . S
C415 C417 1.372 . S
C415 H432 0.931 . S
C416 C413 1.382 . S
C416 C417 1.390 . S
C416 H433 0.931 . S
C417 C415 1.372 . S
C417 C416 1.390 . S
C417 H434 0.929 . S
C418 C413 1.390 . S
C418 C414 1.392 . S
C418 H435 0.930 . S
C419 O404 1.255 . S
C419 O405 1.257 . S
C420 Eu356 2.787 . S
C420 O400 1.252 . S
C420 O403 1.268 . S
C420 C413 1.506 . S
C421 C388 1.439 . S
C421 H398 0.931 . S
C421 C422 1.374 . S
C422 C393 1.387 . S
C422 H399 0.931 . S
C422 C421 1.374 . S
C423 O407 1.249 . S
C423 O408 1.264 . S
C424 C427 1.382 . S
C424 C428 1.390 . S
C424 C431 1.506 . S
C425 C426 1.398 . S
C425 C428 1.392 . S
C426 C425 1.398 . S
C426 C429 1.372 . S
C426 H436 0.931 . S
C427 C424 1.382 . S
C427 C429 1.390 . S
C427 H437 0.931 . S
C428 C424 1.390 . S
C428 C425 1.392 . S
C428 H438 0.930 . S
C429 C426 1.372 . S
C429 C427 1.390 . S
C429 H439 0.929 . S
C430 O410 1.255 . S
C430 O411 1.257 . S
C431 Eu367 2.787 . S
C431 O406 1.252 . S
C431 O409 1.268 . S
C431 C424 1.506 . S
H432 C415 0.931 . S
H433 C416 0.931 . S
H434 C417 0.929 . S
H435 C418 0.930 . S
H436 C426 0.931 . S
H437 C427 0.931 . S
H438 C428 0.930 . S
H439 C429 0.929 . S
C440 C441 1.387 . S
C440 H444 0.950 . S
C440 C449 1.390 1_565 S
C441 C440 1.387 . S
C441 C443 1.387 . S
H442 C449 0.950 . S
C443 C441 1.387 . S
C443 C445 1.390 . S
C443 H447 0.950 . S
H444 C440 0.950 . S
C445 C443 1.390 . S
C445 C446 1.387 . S
C445 H448 0.950 . S
C446 C445 1.387 . S
C446 C449 1.387 1_565 S
H447 C443 0.950 . S
H448 C445 0.950 . S
C449 C440 1.390 1_545 S
C449 H442 0.950 . S
C449 C446 1.387 1_545 S
C450 C451 1.387 . S
C450 H454 0.950 . S
C450 C459 1.390 . S
C451 C450 1.387 . S
C451 C453 1.387 . S
H452 C459 0.950 . S
C453 C451 1.387 . S
C453 C455 1.390 . S
C453 H457 0.950 . S
H454 C450 0.950 . S
C455 C453 1.390 . S
C455 C456 1.387 . S
C455 H458 0.950 . S
C456 C455 1.387 . S
C456 C459 1.387 . S
H457 C453 0.950 . S
H458 C455 0.950 . S
C459 C450 1.390 . S
C459 H452 0.950 . S
C459 C456 1.387 . S
C460 C461 1.387 . S
C460 H464 0.950 . S
C460 C469 1.390 . S
C461 C460 1.387 . S
C461 C463 1.387 . S
H462 C469 0.950 . S
C463 C461 1.387 . S
C463 C465 1.390 . S
C463 H467 0.950 . S
H464 C460 0.950 . S
C465 C463 1.390 . S
C465 C466 1.387 . S
C465 H468 0.950 . S
C466 C465 1.387 . S
C466 C469 1.387 . S
H467 C463 0.950 . S
H468 C465 0.950 . S
C469 C460 1.390 . S
C469 H462 0.950 . S
C469 C466 1.387 . S
C470 C471 1.387 . S
C470 H474 0.950 . S
C470 C479 1.390 . S
C471 C470 1.387 . S
C471 C473 1.387 . S
H472 C479 0.950 . S
C473 C471 1.387 . S
C473 C475 1.390 1_565 S
C473 H477 0.950 . S
H474 C470 0.950 . S
C475 C473 1.390 1_545 S
C475 C476 1.387 1_545 S
C475 H478 0.950 . S
C476 C475 1.387 1_565 S
C476 C479 1.387 . S
H477 C473 0.950 . S
H478 C475 0.950 . S
C479 C470 1.390 . S
C479 H472 0.950 . S
C479 C476 1.387 . S
C480 C481 1.387 . S
C480 H484 0.950 . S
C480 C489 1.390 . S
C481 C480 1.387 . S
C481 C483 1.387 . S
H482 C489 0.950 . S
C483 C481 1.387 . S
C483 C485 1.390 . S
C483 H487 0.950 . S
H484 C480 0.950 . S
C485 C483 1.390 . S
C485 C486 1.387 . S
C485 H488 0.950 1_545 S
C486 C485 1.387 . S
C486 C489 1.387 . S
H487 C483 0.950 . S
H488 C485 0.950 1_565 S
C489 C480 1.390 . S
C489 H482 0.950 . S
C489 C486 1.387 . S
C490 C491 1.387 . S
C490 H494 0.950 . S
C490 C499 1.390 . S
C491 C490 1.387 . S
C491 C493 1.387 . S
H492 C499 0.950 . S
C493 C491 1.387 . S
C493 C495 1.390 . S
C493 H497 0.950 . S
H494 C490 0.950 . S
C495 C493 1.390 . S
C495 C496 1.387 . S
C495 H498 0.950 . S
C496 C495 1.387 . S
C496 C499 1.387 . S
H497 C493 0.950 . S
H498 C495 0.950 . S
C499 C490 1.390 . S
C499 H492 0.950 . S
C499 C496 1.387 . S
C500 C501 1.387 . S
C500 H504 0.950 . S
C500 C509 1.390 . S
C501 C500 1.387 . S
C501 C503 1.387 . S
H502 C509 0.950 . S
C503 C501 1.387 . S
C503 C505 1.390 . S
C503 H507 0.950 . S
H504 C500 0.950 . S
C505 C503 1.390 . S
C505 C506 1.387 . S
C505 H508 0.950 . S
C506 C505 1.387 . S
C506 C509 1.387 . S
H507 C503 0.950 . S
H508 C505 0.950 . S
C509 C500 1.390 . S
C509 H502 0.950 . S
C509 C506 1.387 . S
C510 C511 1.387 . S
C510 H514 0.950 . S
C510 C519 1.390 . S
C511 C510 1.387 . S
C511 C513 1.387 . S
H512 C519 0.950 . S
C513 C511 1.387 . S
C513 C515 1.390 1_545 S
C513 H517 0.950 . S
H514 C510 0.950 . S
C515 C513 1.390 1_565 S
C515 C516 1.387 1_565 S
C515 H518 0.950 . S
C516 C515 1.387 1_545 S
C516 C519 1.387 . S
H517 C513 0.950 . S
H518 C515 0.950 . S
C519 C510 1.390 . S
C519 H512 0.950 . S
C519 C516 1.387 . S
C520 C521 1.387 . S
C520 H524 0.950 . S
C520 C529 1.390 . S
C521 C520 1.387 . S
C521 C523 1.387 . S
H522 C529 0.950 . S
C523 C521 1.387 . S
C523 C525 1.362 1_556 S
C523 H527 0.950 . S
H524 C520 0.950 . S
C525 C523 1.362 1_554 S
C525 C526 1.394 . S
C525 H528 0.972 . S
C526 C525 1.394 . S
C526 C529 1.387 1_554 S
H527 C523 0.950 . S
H528 C525 0.972 . S
C529 C520 1.390 . S
C529 H522 0.950 . S
C529 C526 1.387 1_556 S
C530 C531 1.387 . S
C530 H534 0.950 . S
C530 C539 1.390 . S
C531 C530 1.387 . S
C531 C533 1.387 . S
H532 C539 0.950 . S
C533 C531 1.387 . S
C533 C535 1.390 . S
C533 H537 0.950 . S
H534 C530 0.950 . S
C535 C533 1.390 . S
C535 C536 1.387 . S
C535 H538 0.950 . S
C536 C535 1.387 . S
C536 C539 1.387 . S
H537 C533 0.950 . S
H538 C535 0.950 . S
C539 C530 1.390 . S
C539 H532 0.950 . S
C539 C536 1.387 . S
C540 C541 1.387 . S
C540 H544 0.950 . S
C540 C549 1.390 . S
C541 C540 1.387 . S
C541 C543 1.387 . S
H542 C549 0.950 1_556 S
C543 C541 1.387 . S
C543 C545 1.390 . S
C543 H547 0.950 . S
H544 C540 0.950 . S
C545 C543 1.390 . S
C545 C546 1.387 1_554 S
C545 H548 0.950 . S
C546 C545 1.387 1_556 S
C546 C549 1.387 1_556 S
H547 C543 0.950 . S
H548 C545 0.950 . S
C549 C540 1.390 . S
C549 H542 0.950 1_554 S
C549 C546 1.387 1_554 S
C550 C551 1.387 . S
C550 H554 0.950 . S
C550 C559 1.390 . S
C551 C550 1.387 . S
C551 C553 1.387 . S
H552 C559 0.950 . S
C553 C551 1.387 . S
C553 C555 1.390 . S
C553 H557 0.950 . S
H554 C550 0.950 . S
C555 C553 1.390 . S
C555 C556 1.387 . S
C555 H558 0.950 . S
C556 C555 1.387 . S
C556 C559 1.387 . S
H557 C553 0.950 . S
H558 C555 0.950 . S
C559 C550 1.390 . S
C559 H552 0.950 . S
C559 C556 1.387 . S
C560 C561 1.387 . S
C560 H564 0.950 . S
C560 C569 1.390 1_554 S
C561 C560 1.387 . S
C561 C563 1.387 . S
H562 C569 0.950 . S
C563 C561 1.387 . S
C563 C565 1.390 . S
C563 H567 0.950 . S
H564 C560 0.950 . S
C565 C563 1.390 . S
C565 C566 1.387 1_554 S
C565 H568 0.950 . S
C566 C565 1.387 1_556 S
C566 C569 1.387 . S
H567 C563 0.950 . S
H568 C565 0.950 . S
C569 C560 1.390 1_556 S
C569 H562 0.950 . S
C569 C566 1.387 . S
C570 C571 1.387 . S
C570 H574 0.950 . S
C570 C579 1.390 . S
C571 C570 1.387 . S
C571 C573 1.387 . S
H572 C579 0.950 . S
C573 C571 1.387 . S
C573 C575 1.390 . S
C573 H577 0.950 . S
H574 C570 0.950 . S
C575 C573 1.390 . S
C575 C576 1.387 . S
C575 H578 0.950 . S
C576 C575 1.387 . S
C576 C579 1.387 . S
H577 C573 0.950 . S
H578 C575 0.950 . S
C579 C570 1.390 . S
C579 H572 0.950 . S
C579 C576 1.387 . S
C580 C581 1.387 . S
C580 H584 0.950 . S
C580 C589 1.390 . S
C581 C580 1.387 . S
C581 C583 1.387 . S
H582 C589 0.950 . S
C583 C581 1.387 . S
C583 C585 1.390 1_556 S
C583 H587 0.950 . S
H584 C580 0.950 . S
C585 C583 1.390 1_554 S
C585 C586 1.387 . S
C585 H588 0.950 . S
C586 C585 1.387 . S
C586 C589 1.387 1_554 S
H587 C583 0.950 . S
H588 C585 0.950 . S
C589 C580 1.390 . S
C589 H582 0.950 . S
C589 C586 1.387 1_556 S
C590 C591 1.387 . S
C590 H594 0.950 . S
C590 C599 1.390 . S
C591 C590 1.387 . S
C591 C593 1.387 . S
H592 C599 0.950 . S
C593 C591 1.387 . S
C593 C595 1.390 . S
C593 H597 0.950 . S
H594 C590 0.950 . S
C595 C593 1.390 . S
C595 C596 1.387 . S
C595 H598 0.950 . S
C596 C595 1.387 . S
C596 C599 1.387 . S
H597 C593 0.950 . S
H598 C595 0.950 . S
C599 C590 1.390 . S
C599 H592 0.950 . S
C599 C596 1.387 . S
C600 C601 1.387 . S
C600 H604 0.950 . S
C600 C609 1.390 . S
C601 C600 1.387 . S
C601 C603 1.387 . S
H602 C609 0.950 . S
C603 C601 1.387 . S
C603 C605 1.390 . S
C603 H607 0.950 . S
H604 C600 0.950 . S
C605 C603 1.390 . S
C605 C606 1.387 . S
C605 H608 0.950 . S
C606 C605 1.387 . S
C606 C609 1.387 . S
H607 C603 0.950 . S
H608 C605 0.950 . S
C609 C600 1.390 . S
C609 H602 0.950 . S
C609 C606 1.387 . S
C610 C611 1.387 . S
C610 H614 0.950 . S
C610 C619 1.390 . S
C611 C610 1.387 . S
C611 C613 1.387 . S
H612 C619 0.950 . S
C613 C611 1.387 . S
C613 C615 1.390 . S
C613 H617 0.950 . S
H614 C610 0.950 . S
C615 C613 1.390 . S
C615 C616 1.387 . S
C615 H618 0.950 . S
C616 C615 1.387 . S
C616 C619 1.387 . S
H617 C613 0.950 . S
H618 C615 0.950 . S
C619 C610 1.390 . S
C619 H612 0.950 . S
C619 C616 1.387 . S
C620 C621 1.387 . S
C620 H624 0.950 . S
C620 C629 1.390 . S
C621 C620 1.387 . S
C621 C623 1.387 . S
H622 C629 0.950 . S
C623 C621 1.387 . S
C623 C625 1.390 . S
C623 H627 0.950 . S
H624 C620 0.950 . S
C625 C623 1.390 . S
C625 C626 1.387 . S
C625 H628 0.950 . S
C626 C625 1.387 . S
C626 C629 1.387 . S
H627 C623 0.950 . S
H628 C625 0.950 . S
C629 C620 1.390 . S
C629 H622 0.950 . S
C629 C626 1.387 . S
C630 C631 1.387 . S
C630 H634 0.950 . S
C630 C639 1.390 . S
C631 C630 1.387 . S
C631 C633 1.387 . S
H632 C639 0.950 . S
C633 C631 1.387 . S
C633 C635 1.390 . S
C633 H637 0.950 . S
H634 C630 0.950 . S
C635 C633 1.390 . S
C635 C636 1.387 . S
C635 H638 0.950 . S
C636 C635 1.387 . S
C636 C639 1.387 . S
H637 C633 0.950 . S
H638 C635 0.950 . S
C639 C630 1.390 . S
C639 H632 0.950 . S
C639 C636 1.387 . S
C640 C641 1.387 . S
C640 H644 0.950 . S
C640 C649 1.390 . S
C641 C640 1.387 . S
C641 C643 1.387 . S
H642 C649 0.950 . S
C643 C641 1.387 . S
C643 C645 1.390 . S
C643 H647 0.950 . S
H644 C640 0.950 . S
C645 C643 1.390 . S
C645 C646 1.387 . S
C645 H648 0.950 . S
C646 C645 1.387 . S
C646 C649 1.387 . S
H647 C643 0.950 . S
H648 C645 0.950 . S
C649 C640 1.390 . S
C649 H642 0.950 . S
C649 C646 1.387 . S
C650 C651 1.387 . S
C650 H654 0.950 . S
C650 C659 1.390 . S
C651 C650 1.387 . S
C651 C653 1.387 . S
H652 C659 0.950 . S
C653 C651 1.387 . S
C653 C655 1.390 . S
C653 H657 0.950 . S
H654 C650 0.950 . S
C655 C653 1.390 . S
C655 C656 1.387 . S
C655 H658 0.950 . S
C656 C655 1.387 . S
C656 C659 1.387 . S
H657 C653 0.950 . S
H658 C655 0.950 . S
C659 C650 1.390 . S
C659 H652 0.950 . S
C659 C656 1.387 . S
C660 C661 1.387 . S
C660 H664 0.950 . S
C660 C669 1.390 . S
C661 C660 1.387 . S
C661 C663 1.387 . S
H662 C669 0.950 . S
C663 C661 1.387 . S
C663 C665 1.390 . S
C663 H667 0.950 . S
H664 C660 0.950 . S
C665 C663 1.390 . S
C665 C666 1.387 . S
C665 H668 0.950 . S
C666 C665 1.387 . S
C666 C669 1.387 . S
H667 C663 0.950 . S
H668 C665 0.950 . S
C669 C660 1.390 . S
C669 H662 0.950 . S
C669 C666 1.387 . S
C670 C671 1.387 . S
C670 H674 0.950 . S
C670 C679 1.390 . S
C671 C670 1.387 . S
C671 C673 1.387 . S
H672 C679 0.950 . S
C673 C671 1.387 . S
C673 C675 1.390 . S
C673 H677 0.950 . S
H674 C670 0.950 . S
C675 C673 1.390 . S
C675 C676 1.387 . S
C675 H678 0.950 . S
C676 C675 1.387 . S
C676 C679 1.387 . S
H677 C673 0.950 . S
H678 C675 0.950 . S
C679 C670 1.390 . S
C679 H672 0.950 . S
C679 C676 1.387 . S
C441 N83 1.626 . S
C446 C178 1.629 1_565 S
C456 C262 1.630 . S
C451 N96 1.626 . S
C466 C255 1.637 . S
C461 N57 1.620 . S
C471 N70 1.619 . S
C476 C171 1.638 1_565 S
C486 C335 1.630 1_545 S
C481 N31 1.627 . S
C496 C419 1.629 . S
C491 N44 1.628 . S
C501 N5 1.621 . S
C506 C412 1.637 . S
C511 N18 1.622 . S
C516 C328 1.637 1_545 S
C526 C162 1.447 . S
C521 N14 1.625 . S
C536 C246 1.447 . S
C531 N1 1.625 . S
C546 C257 1.351 . S
C541 N40 1.616 . S
C556 C173 1.350 . S
C551 N27 1.616 . S
C566 C341 1.447 . S
C561 N66 1.615 . S
C571 N53 1.615 . S
C576 C425 1.451 . S
C586 C414 1.350 . S
C581 N92 1.609 . S
C591 N79 1.608 . S
C596 C330 1.347 . S
C606 C160 1.523 . S
C601 N2 1.522 . S
C616 C244 1.523 . S
C611 N15 1.523 . S
C621 N28 1.520 . S
C626 C251 1.495 . S
C636 C167 1.495 . S
C631 N41 1.520 . S
C646 C339 1.523 . S
C641 N54 1.517 . S
C651 N67 1.516 . S
C656 C423 1.524 . S
C661 N80 1.515 . S
C666 C430 1.495 . S
C671 N93 1.514 . S
C676 C346 1.496 . S
