# Generated by pormake.
# Topology rtl, (3,6)-cn, num edge types: 1
# Building blocks:
#     Node 0, Type 0, BuildingBlock: BELTOD_clean_linker_0, # of connection points: 3
#     Node 1, Type 0, BuildingBlock: BELTOD_clean_linker_0, # of connection points: 3
#     Node 2, Type 0, BuildingBlock: BELTOD_clean_linker_0, # of connection points: 3
#     Node 3, Type 0, BuildingBlock: BELTOD_clean_linker_0, # of connection points: 3
#     Node 4, Type 1, BuildingBlock: VOLQOD_clean_sbu_1, # of connection points: 6
#     Node 5, Type 1, BuildingBlock: VOLQOD_clean_sbu_1, # of connection points: 6
#     Edge 6, Type (0, 1), BuildingBlock: CIFDUS_clean_linker_0, # of connection points: 2
#     Edge 7, Type (0, 1), BuildingBlock: CIFDUS_clean_linker_0, # of connection points: 2
#     Edge 8, Type (0, 1), BuildingBlock: CIFDUS_clean_linker_0, # of connection points: 2
#     Edge 9, Type (0, 1), BuildingBlock: CIFDUS_clean_linker_0, # of connection points: 2
#     Edge 10, Type (0, 1), BuildingBlock: CIFDUS_clean_linker_0, # of connection points: 2
#     Edge 11, Type (0, 1), BuildingBlock: CIFDUS_clean_linker_0, # of connection points: 2
#     Edge 12, Type (0, 1), BuildingBlock: CIFDUS_clean_linker_0, # of connection points: 2
#     Edge 13, Type (0, 1), BuildingBlock: CIFDUS_clean_linker_0, # of connection points: 2
#     Edge 14, Type (0, 1), BuildingBlock: CIFDUS_clean_linker_0, # of connection points: 2
#     Edge 15, Type (0, 1), BuildingBlock: CIFDUS_clean_linker_0, # of connection points: 2
#     Edge 16, Type (0, 1), BuildingBlock: CIFDUS_clean_linker_0, # of connection points: 2
#     Edge 17, Type (0, 1), BuildingBlock: CIFDUS_clean_linker_0, # of connection points: 2
# Relax obj value: 0.074
# Max RMSD: 0.154
# Mean RMSD: 0.084
data_MOF--net-rtl--node1-VOLQOD_clean_sbu_1--node2-BELTOD_clean_linker_0--edge1-CIFDUS_clean_linker_0
_symmetry_space_group_name_H-M    P1
_symmetry_Int_Tables_number       1
_symmetry_cell_setting            triclinic
loop_
_symmetry_equiv_pos_as_xyz
'x, y, z'
_cell_length_a     37.471669
_cell_length_b     32.598571
_cell_length_c     24.136679
_cell_angle_alpha  89.096295
_cell_angle_beta   89.952488
_cell_angle_gamma 90.188609
loop_
_atom_site_label
_atom_site_type_symbol
_atom_site_fract_x
_atom_site_fract_y
_atom_site_fract_z
_atom_type_partial_charge
P0 P 0.13672 0.7469 0.0111 0.0
H1 H 0.17038 0.75381 0.11845 0.0
H2 H 0.14714 0.77554 0.20785 0.0
H3 H 0.03963 0.76699 0.14468 0.0
H4 H 0.06304 0.74423 0.05557 0.0
H5 H 0.18316 0.72451 0.92119 0.0
H6 H 0.22442 0.66792 0.9091 0.0
H7 H 0.18421 0.61019 0.05913 0.0
H8 H 0.14271 0.66737 0.07097 0.0
H9 H 0.08832 0.81548 0.00328 0.0
H10 H 0.11544 0.71149 0.90334 0.0
O11 O 0.16783 0.78363 0.00817 0.0
H12 H 0.05534 0.84546 0.92595 0.0
H13 H 0.08426 0.74266 0.82455 0.0
C14 C 0.11849 0.74876 0.08001 0.0
C15 C 0.14175 0.75537 0.12436 0.0
C16 C 0.12846 0.76789 0.17533 0.0
C17 C 0.09165 0.77395 0.18267 0.0
C18 C 0.06813 0.76277 0.14009 0.0
C19 C 0.08152 0.75006 0.08899 0.0
C20 C 0.15991 0.7001 -0.00314 0.0
C21 C 0.18242 0.69905 0.95058 0.0
C22 C 0.20593 0.66653 0.9436 0.0
C23 C 0.20769 0.6346 0.98327 0.0
C24 C 0.18362 0.63455 0.02811 0.0
C25 C 0.15983 0.66713 0.03483 0.0
C26 C 0.10454 0.76139 0.95915 0.0
C27 C 0.08646 0.79857 0.96511 0.0
C28 C 0.06794 0.81592 0.92062 0.0
C29 C 0.06797 0.79692 0.86873 0.0
C30 C 0.08378 0.75807 0.86397 0.0
C31 C 0.10193 0.74038 0.909 0.0
P32 P 0.66617 0.72759 0.48978 0.0
H33 H 0.68081 0.7063 0.37539 0.0
H34 H 0.64108 0.69387 0.29785 0.0
H35 H 0.55294 0.74373 0.39053 0.0
H36 H 0.59312 0.75602 0.46844 0.0
H37 H 0.69724 0.7588 0.59134 0.0
H38 H 0.74291 0.81112 0.60624 0.0
H39 H 0.7354 0.84833 0.43404 0.0
H40 H 0.68922 0.79669 0.41987 0.0
H41 H 0.64228 0.64577 0.51827 0.0
H42 H 0.62364 0.76841 0.57573 0.0
O43 O 0.69754 0.69211 0.4805 0.0
H44 H 0.59884 0.6188 0.58456 0.0
H45 H 0.57942 0.7416 0.64227 0.0
C46 C 0.63965 0.73089 0.42807 0.0
C47 C 0.65317 0.71558 0.37855 0.0
C48 C 0.63038 0.70875 0.33403 0.0
C49 C 0.5937 0.71725 0.33844 0.0
C50 C 0.58095 0.73626 0.38637 0.0
C51 C 0.60391 0.74333 0.43082 0.0
C52 C 0.68941 0.77432 0.50477 0.0
C53 C 0.70431 0.77942 0.55742 0.0
C54 C 0.73072 0.80901 0.5657 0.0
C55 C 0.74308 0.83353 0.52114 0.0
C56 C 0.72624 0.83027 0.46935 0.0
C57 C 0.69977 0.80069 0.46119 0.0
C58 C 0.63702 0.70883 0.54356 0.0
C59 C 0.62909 0.66685 0.54577 0.0
C60 C 0.60374 0.65156 0.58299 0.0
C61 C 0.5855 0.67809 0.61842 0.0
C62 C 0.59326 0.72038 0.61577 0.0
C63 C 0.6187 0.73569 0.57821 0.0
P64 P 0.89978 0.33066 0.99198 0.0
H65 H 0.9231 0.34495 0.87709 0.0
H66 H 0.93735 0.29769 0.80182 0.0
H67 H 0.90625 0.19508 0.90647 0.0
H68 H 0.89126 0.24208 0.98066 0.0
H69 H 0.86491 0.4062 0.02557 0.0
H70 H 0.80224 0.4263 0.03126 0.0
H71 H 0.771 0.30864 0.96638 0.0
H72 H 0.83345 0.28839 0.96269 0.0
H73 H 0.95928 0.27778 0.02192 0.0
H74 H 0.86553 0.32527 0.10208 0.0
O75 O 0.92615 0.37178 0.98522 0.0
H76 H 0.97093 0.23373 0.10195 0.0
H77 H 0.87827 0.28339 0.18415 0.0
C78 C 0.90728 0.29685 0.93494 0.0
C79 C 0.91913 0.31231 0.88358 0.0
C80 C 0.92704 0.28543 0.84064 0.0
C81 C 0.9233 0.24288 0.84893 0.0
C82 C 0.90982 0.22776 0.89952 0.0
C83 C 0.90145 0.25458 0.94192 0.0
C84 C 0.85385 0.34623 0.99249 0.0
C85 C 0.84454 0.38494 0.0121 0.0
C86 C 0.80871 0.39639 0.01523 0.0
C87 C 0.78159 0.36916 -0.00107 0.0
C88 C 0.79116 0.33021 0.97972 0.0
C89 C 0.82696 0.31876 0.97695 0.0
C90 C 0.911 0.30386 0.05534 0.0
C91 C 0.94151 0.2792 0.05724 0.0
C92 C 0.94832 0.25425 0.10348 0.0
C93 C 0.92532 0.25447 0.14966 0.0
C94 C 0.896 0.28142 0.14886 0.0
C95 C 0.88882 0.30575 0.102 0.0
P96 P 0.41832 0.18024 0.50864 0.0
H97 H 0.43053 0.16898 0.62753 0.0
H98 H 0.43172 0.21682 0.70461 0.0
H99 H 0.41046 0.31722 0.59017 0.0
H100 H 0.40757 0.26906 0.51433 0.0
H101 H 0.38922 0.10115 0.47477 0.0
H102 H 0.32796 0.07549 0.46534 0.0
H103 H 0.28766 0.19255 0.51822 0.0
H104 H 0.34862 0.21797 0.5273 0.0
H105 H 0.47696 0.23628 0.48318 0.0
H106 H 0.39024 0.17976 0.39452 0.0
O107 O 0.4462 0.14144 0.52142 0.0
H108 H 0.49215 0.27717 0.40041 0.0
H109 H 0.4059 0.21993 0.31149 0.0
C110 C 0.42013 0.21565 0.56507 0.0
C111 C 0.42629 0.20134 0.61919 0.0
C112 C 0.42704 0.22877 0.66315 0.0
C113 C 0.42153 0.27101 0.65361 0.0
C114 C 0.41454 0.28494 0.59926 0.0
C115 C 0.41347 0.25746 0.55558 0.0
C116 C 0.37345 0.16106 0.50311 0.0
C117 C 0.36717 0.12112 0.48472 0.0
C118 C 0.33222 0.10663 0.47895 0.0
C119 C 0.30311 0.13195 0.49156 0.0
C120 C 0.3096 0.17215 0.50919 0.0
C121 C 0.34447 0.18668 0.51443 0.0
C122 C 0.43189 0.20588 0.44546 0.0
C123 C 0.46139 0.23242 0.44583 0.0
C124 C 0.47004 0.25573 0.39868 0.0
C125 C 0.44992 0.2519 0.34999 0.0
C126 C 0.42176 0.22339 0.34864 0.0
C127 C 0.41272 0.20061 0.39617 0.0
O128 O 0.91929 0.0138 0.48755 0.0
Zn129 Zn 0.96178 0.05235 0.48904 0.0
O130 O 0.00652 0.02175 0.49966 0.0
Zn131 Zn 0.02981 0.03961 0.56701 0.0
Zn132 Zn 0.99684 0.96252 0.50498 0.0
Zn133 Zn 0.03876 0.03316 0.4381 0.0
O134 O 0.07885 0.06274 0.55334 0.0
O135 O 0.08639 0.05438 0.46321 0.0
O136 O 0.95358 0.09202 0.55167 0.0
O137 O 0.00096 0.08185 0.6052 0.0
O138 O 0.03569 0.99279 0.62002 0.0
O139 O 0.01464 0.93793 0.57761 0.0
O140 O 0.01974 0.93193 0.44142 0.0
O141 O 0.96334 0.08625 0.41839 0.0
O142 O 0.04842 0.98199 0.39623 0.0
O143 O 0.01806 0.07556 0.38625 0.0
C144 C 0.91656 0.97514 0.49531 0.0
C145 C 0.09815 0.0655 0.51007 0.0
C146 C 0.02911 0.95452 0.61948 0.0
C147 C 0.97162 0.0999 0.59496 0.0
C148 C 0.03974 0.94436 0.40178 0.0
C149 C 0.98791 0.09333 0.38294 0.0
O150 O 0.94396 0.95271 0.50293 0.0
O151 O 0.57871 0.50567 0.99058 0.0
Zn152 Zn 0.53249 0.53609 0.99363 0.0
O153 O 0.49178 0.49995 0.0032 0.0
Zn154 Zn 0.45964 0.50648 0.93911 0.0
Zn155 Zn 0.50896 0.44352 0.00861 0.0
Zn156 Zn 0.46758 0.51427 0.07211 0.0
O157 O 0.41027 0.52242 0.96513 0.0
O158 O 0.4164 0.5279 0.05633 0.0
O159 O 0.52802 0.56967 0.9254 0.0
O160 O 0.47767 0.55058 0.88469 0.0
O161 O 0.45583 0.45326 0.89745 0.0
O162 O 0.49049 0.41046 0.9454 0.0
O163 O 0.49343 0.41631 0.08003 0.0
O164 O 0.53609 0.57645 0.05381 0.0
O165 O 0.46822 0.46683 0.12663 0.0
O166 O 0.4901 0.56344 0.10909 0.0
C167 C 0.58671 0.46801 -0.0031 0.0
C168 C 0.39726 0.52984 0.01278 0.0
C169 C 0.46981 0.41798 0.9047 0.0
C170 C 0.50552 0.57311 0.88638 0.0
C171 C 0.47847 0.42971 0.12351 0.0
C172 C 0.51754 0.58469 0.09618 0.0
O173 O 0.56269 0.44089 0.00531 0.0
H174 H 0.24954 0.13931 0.56615 0.0
H175 H 0.27375 0.09017 0.40563 0.0
H176 H 0.21221 0.06584 0.39671 0.0
H177 H 0.15161 0.05886 0.43452 0.0
H178 H 0.12791 0.10676 0.59619 0.0
H179 H 0.18915 0.13162 0.60443 0.0
C180 C 0.24123 0.12349 0.52909 0.0
C181 C 0.26602 0.11664 0.48653 0.0
C182 C 0.20595 0.10949 0.52441 0.0
C183 C 0.25515 0.09551 0.43911 0.0
C184 C 0.21997 0.0818 0.4339 0.0
C185 C 0.15977 0.07491 0.47146 0.0
C186 C 0.13514 0.08108 0.51456 0.0
C187 C 0.19514 0.08868 0.47626 0.0
C188 C 0.14631 0.10155 0.5624 0.0
C189 C 0.18132 0.1158 0.56717 0.0
H190 H 0.24948 0.60988 0.06881 0.0
H191 H 0.23425 0.59455 0.8932 0.0
H192 H 0.29085 0.55774 0.88742 0.0
H193 H 0.34742 0.53662 0.93067 0.0
H194 H 0.36235 0.55317 0.10641 0.0
H195 H 0.30282 0.58218 0.1137 0.0
C196 C 0.25798 0.59745 0.02954 0.0
C197 C 0.23779 0.60518 0.98146 0.0
C198 C 0.29075 0.57699 0.02637 0.0
C199 C 0.24954 0.5894 0.93072 0.0
C200 C 0.28191 0.56843 0.92738 0.0
C201 C 0.33755 0.54617 0.97068 0.0
C202 C 0.35965 0.54324 0.0177 0.0
C203 C 0.30327 0.56322 0.97465 0.0
C204 C 0.34616 0.55538 0.06933 0.0
C205 C 0.31206 0.57202 0.07363 0.0
H206 H 0.75747 0.9107 0.48026 0.0
H207 H 0.8043 0.80986 0.57238 0.0
H208 H 0.86156 0.84518 0.57327 0.0
H209 H 0.89925 0.90259 0.54392 0.0
H210 H 0.85361 0.00435 0.45247 0.0
H211 H 0.79509 0.97062 0.45481 0.0
C212 C 0.7802 0.89665 0.50076 0.0
C213 C 0.7765 0.85776 0.52639 0.0
C214 C 0.81335 0.91702 0.5007 0.0
C215 C 0.80614 0.84005 0.55318 0.0
C216 C 0.83906 0.86002 0.55322 0.0
C217 C 0.87654 0.91742 0.52435 0.0
C218 C 0.88087 0.95566 0.49745 0.0
C219 C 0.84309 0.89816 0.52643 0.0
C220 C 0.85101 0.9748 0.47326 0.0
C221 C 0.81756 0.95553 0.47458 0.0
H222 H 0.75279 0.44331 0.97207 0.0
H223 H 0.72469 0.32214 0.03265 0.0
H224 H 0.66193 0.3417 0.03615 0.0
H225 H 0.61511 0.39334 0.02278 0.0
H226 H 0.64372 0.51522 0.96524 0.0
H227 H 0.70627 0.49532 0.96071 0.0
C228 C 0.73302 0.4213 0.98667 0.0
C229 C 0.74349 0.38131 0.00195 0.0
C230 C 0.69705 0.43286 0.98925 0.0
C231 C 0.71736 0.35297 0.01984 0.0
C232 C 0.68147 0.36418 0.0222 0.0
C233 C 0.63499 0.41556 0.00916 0.0
C234 C 0.62465 0.45569 -0.00569 0.0
C235 C 0.67101 0.40403 0.00694 0.0
C236 C 0.65086 0.48413 0.97704 0.0
C237 C 0.68669 0.47279 0.97436 0.0
H238 H 0.11921 0.84486 0.21822 0.0
H239 H 0.03421 0.75849 0.2513 0.0
H240 H 0.01113 0.80285 0.3244 0.0
H241 H 0.01424 0.86798 0.37624 0.0
H242 H 0.09846 0.95463 0.33752 0.0
H243 H 0.12288 0.90814 0.26963 0.0
C244 C 0.09602 0.83529 0.24216 0.0
C245 C 0.07874 0.79822 0.23007 0.0
C246 C 0.08263 0.86119 0.28284 0.0
C247 C 0.04806 0.78685 0.26019 0.0
C248 C 0.03488 0.81222 0.30184 0.0
C249 C 0.03804 0.87648 0.35312 0.0
C250 C 0.05439 0.91482 0.36184 0.0
C251 C 0.05177 0.84974 0.31314 0.0
C252 C 0.08511 0.92553 0.33133 0.0
C253 C 0.09922 0.89891 0.29256 0.0
H254 H 0.5802 0.69841 0.72637 0.0
H255 H 0.53463 0.61862 0.6042 0.0
H256 H 0.501 0.58203 0.67652 0.0
H257 H 0.49112 0.56707 0.77607 0.0
H258 H 0.53926 0.64581 0.89722 0.0
H259 H 0.5644 0.68911 0.82378 0.0
C260 C 0.56217 0.67376 0.71532 0.0
C261 C 0.56031 0.66089 0.6602 0.0
C262 C 0.54347 0.65247 0.75711 0.0
C263 C 0.53705 0.62858 0.64663 0.0
C264 C 0.51775 0.60771 0.68792 0.0
C265 C 0.50633 0.59432 0.78615 0.0
C266 C 0.51371 0.60304 0.84176 0.0
C267 C 0.52172 0.61847 0.74358 0.0
C268 C 0.53363 0.63826 0.85453 0.0
C269 C 0.54809 0.66299 0.81262 0.0
H270 H 0.9888 0.22795 0.19277 0.0
H271 H 0.87473 0.21487 0.21336 0.0
H272 H 0.88404 0.16526 0.28836 0.0
H273 H 0.92443 0.12349 0.34599 0.0
H274 H 0.03819 0.13253 0.31974 0.0
H275 H 0.02894 0.18476 0.24781 0.0
C276 C 0.96586 0.21398 0.21303 0.0
C277 C 0.93111 0.22545 0.19712 0.0
C278 C 0.9713 0.18429 0.25483 0.0
C279 C 0.90185 0.20748 0.22515 0.0
C280 C 0.9071 0.17865 0.26776 0.0
C281 C 0.94719 0.1369 0.32453 0.0
C282 C 0.98192 0.12409 0.33824 0.0
C283 C 0.9417 0.16659 0.28265 0.0
C284 C 0.01113 0.1416 0.30979 0.0
C285 C 0.0059 0.17162 0.26879 0.0
H286 H 0.4683 0.27001 0.73987 0.0
H287 H 0.38026 0.33898 0.67094 0.0
H288 H 0.3872 0.39032 0.74263 0.0
H289 H 0.41937 0.41667 0.82339 0.0
H290 H 0.50581 0.34593 0.89409 0.0
H291 H 0.49774 0.29385 0.82389 0.0
C292 C 0.45016 0.29583 0.741 0.0
C293 C 0.42399 0.30067 0.69967 0.0
C294 C 0.45398 0.32501 0.7827 0.0
C295 C 0.40113 0.3348 0.70151 0.0
C296 C 0.40491 0.3641 0.74271 0.0
C297 C 0.43636 0.38979 0.82358 0.0
C298 C 0.46328 0.38543 0.8638 0.0
C299 C 0.43151 0.35975 0.78316 0.0
C300 C 0.48485 0.35017 0.86368 0.0
C301 C 0.48033 0.32035 0.82344 0.0
H302 H 0.6009 0.71932 0.22652 0.0
H303 H 0.53097 0.67664 0.35741 0.0
H304 H 0.4977 0.63527 0.29167 0.0
H305 H 0.49463 0.603 0.20031 0.0
H306 H 0.56736 0.64301 0.07128 0.0
H307 H 0.59342 0.69316 0.13295 0.0
C308 C 0.57804 0.70142 0.24042 0.0
C309 C 0.56875 0.70063 0.29677 0.0
C310 C 0.55992 0.6765 0.20292 0.0
C311 C 0.53862 0.67799 0.31413 0.0
C312 C 0.51982 0.65387 0.27669 0.0
C313 C 0.51579 0.62312 0.18546 0.0
C314 C 0.52949 0.61861 0.13168 0.0
C315 C 0.53118 0.65159 0.22148 0.0
C316 C 0.55673 0.64522 0.11287 0.0
C317 C 0.57165 0.67405 0.14804 0.0
H318 H 0.90345 0.23925 0.74057 0.0
H319 H 0.9709 0.18176 0.86365 0.0
H320 H 0.99202 0.13283 0.79558 0.0
H321 H 0.99115 0.10627 0.70197 0.0
H322 H 0.92206 0.16072 0.57844 0.0
H323 H 0.90151 0.21094 0.64583 0.0
C324 C 0.92284 0.21602 0.7521 0.0
C325 C 0.93569 0.21391 0.80675 0.0
C326 C 0.93442 0.18751 0.71291 0.0
C327 C 0.96055 0.18362 0.82177 0.0
C328 C 0.97266 0.15576 0.78294 0.0
C329 C 0.97167 0.12919 0.68959 0.0
C330 C 0.95832 0.12996 0.63521 0.0
C331 C 0.95974 0.15739 0.72851 0.0
C332 C 0.93271 0.15949 0.62013 0.0
C333 C 0.92104 0.18824 0.65857 0.0
H334 H 0.45373 0.33449 0.34996 0.0
H335 H 0.4609 0.2305 0.2425 0.0
H336 H 0.47124 0.27646 0.16267 0.0
H337 H 0.47755 0.34631 0.12375 0.0
H338 H 0.46716 0.45028 0.23113 0.0
H339 H 0.45876 0.40423 0.31084 0.0
C340 C 0.45787 0.322 0.30905 0.0
C341 C 0.45693 0.27934 0.30189 0.0
C342 C 0.46306 0.34856 0.2635 0.0
C343 C 0.46158 0.26333 0.24873 0.0
C344 C 0.4675 0.28955 0.20326 0.0
C345 C 0.47357 0.35887 0.16463 0.0
C346 C 0.4731 0.40165 0.17153 0.0
C347 C 0.4682 0.33223 0.21016 0.0
C348 C 0.4675 0.41748 0.22466 0.0
C349 C 0.4628 0.39118 0.27029 0.0
H350 H 0.0817 0.87624 0.84443 0.0
H351 H 0.02878 0.76946 0.77996 0.0
H352 H 0.0123 0.80854 0.69613 0.0
H353 H 0.0133 0.87358 0.64145 0.0
H354 H 0.06636 0.97947 0.70939 0.0
H355 H 0.08194 0.94015 0.79193 0.0
C356 C 0.06593 0.8616 0.81262 0.0
C357 C 0.05602 0.82019 0.8188 0.0
C358 C 0.05668 0.88408 0.76502 0.0
C359 C 0.03668 0.80137 0.7762 0.0
C360 C 0.02724 0.82371 0.72837 0.0
C361 C 0.0283 0.88798 0.6743 0.0
C362 C 0.03858 0.92949 0.669 0.0
C363 C 0.03722 0.86514 0.72226 0.0
C364 C 0.05796 0.94768 0.71213 0.0
C365 C 0.06694 0.92523 0.75952 0.0
loop_
_geom_bond_atom_site_label_1
_geom_bond_atom_site_label_2
_geom_bond_distance
_geom_bond_site_symmetry_2
_ccdc_geom_bond_type
P0 O11 1.490 . S
P0 C14 1.812 . S
P0 C20 1.803 . S
P0 C26 1.819 1_554 S
H1 C15 0.941 . S
H2 C16 0.939 . S
H3 C18 0.940 . S
H4 C19 0.940 . S
H5 C21 0.939 . S
H6 C22 0.942 . S
H7 C24 0.940 . S
H8 C25 0.939 . S
H9 C27 0.941 . S
H10 C31 0.939 . S
O11 P0 1.490 . S
H12 C28 0.939 . S
H13 C30 0.940 . S
C14 P0 1.812 . S
C14 C15 1.389 . S
C14 C19 1.391 . S
C15 H1 0.941 . S
C15 C14 1.389 . S
C15 C16 1.397 . S
C16 H2 0.939 . S
C16 C15 1.397 . S
C16 C17 1.378 . S
C17 C16 1.378 . S
C17 C18 1.378 . S
C18 H3 0.940 . S
C18 C17 1.378 . S
C18 C19 1.396 . S
C19 H4 0.940 . S
C19 C14 1.391 . S
C19 C18 1.396 . S
C20 P0 1.803 . S
C20 C21 1.378 1_554 S
C20 C25 1.400 . S
C21 H5 0.939 . S
C21 C20 1.378 1_556 S
C21 C22 1.361 . S
C22 H6 0.942 . S
C22 C21 1.361 . S
C22 C23 1.369 1_556 S
C23 C22 1.369 1_554 S
C23 C24 1.404 . S
C24 H7 0.940 . S
C24 C23 1.404 . S
C24 C25 1.389 . S
C25 H8 0.939 . S
C25 C20 1.400 . S
C25 C24 1.389 . S
C26 P0 1.819 1_556 S
C26 C27 1.391 . S
C26 C31 1.391 . S
C27 H9 0.941 . S
C27 C26 1.391 . S
C27 C28 1.396 . S
C28 H12 0.939 . S
C28 C27 1.396 . S
C28 C29 1.397 . S
C29 C28 1.397 . S
C29 C30 1.385 . S
C30 H13 0.940 . S
C30 C29 1.385 . S
C30 C31 1.388 . S
C31 H10 0.939 . S
C31 C26 1.391 . S
C31 C30 1.388 . S
P32 O43 1.490 . S
P32 C46 1.812 . S
P32 C52 1.803 . S
P32 C58 1.819 . S
H33 C47 0.941 . S
H34 C48 0.939 . S
H35 C50 0.940 . S
H36 C51 0.940 . S
H37 C53 0.939 . S
H38 C54 0.942 . S
H39 C56 0.940 . S
H40 C57 0.939 . S
H41 C59 0.941 . S
H42 C63 0.939 . S
O43 P32 1.490 . S
H44 C60 0.939 . S
H45 C62 0.940 . S
C46 P32 1.812 . S
C46 C47 1.389 . S
C46 C51 1.391 . S
C47 H33 0.941 . S
C47 C46 1.389 . S
C47 C48 1.397 . S
C48 H34 0.939 . S
C48 C47 1.397 . S
C48 C49 1.378 . S
C49 C48 1.378 . S
C49 C50 1.378 . S
C50 H35 0.940 . S
C50 C49 1.378 . S
C50 C51 1.396 . S
C51 H36 0.940 . S
C51 C46 1.391 . S
C51 C50 1.396 . S
C52 P32 1.803 . S
C52 C53 1.378 . S
C52 C57 1.400 . S
C53 H37 0.939 . S
C53 C52 1.378 . S
C53 C54 1.361 . S
C54 H38 0.942 . S
C54 C53 1.361 . S
C54 C55 1.369 . S
C55 C54 1.369 . S
C55 C56 1.404 . S
C56 H39 0.940 . S
C56 C55 1.404 . S
C56 C57 1.389 . S
C57 H40 0.939 . S
C57 C52 1.400 . S
C57 C56 1.389 . S
C58 P32 1.819 . S
C58 C59 1.391 . S
C58 C63 1.391 . S
C59 H41 0.941 . S
C59 C58 1.391 . S
C59 C60 1.396 . S
C60 H44 0.939 . S
C60 C59 1.396 . S
C60 C61 1.397 . S
C61 C60 1.397 . S
C61 C62 1.385 . S
C62 H45 0.940 . S
C62 C61 1.385 . S
C62 C63 1.388 . S
C63 H42 0.939 . S
C63 C58 1.391 . S
C63 C62 1.388 . S
P64 O75 1.489 1_554 S
P64 C78 1.802 1_554 S
P64 C84 1.803 1_554 S
P64 C90 1.829 . S
H65 C79 0.941 . S
H66 C80 0.939 . S
H67 C82 0.940 . S
H68 C83 0.940 . S
H69 C85 0.939 . S
H70 C86 0.942 . S
H71 C88 0.940 . S
H72 C89 0.939 . S
H73 C91 0.941 . S
H74 C95 0.939 . S
O75 P64 1.489 1_556 S
H76 C92 0.939 . S
H77 C94 0.940 . S
C78 P64 1.802 1_556 S
C78 C79 1.389 . S
C78 C83 1.391 . S
C79 H65 0.941 . S
C79 C78 1.389 . S
C79 C80 1.397 . S
C80 H66 0.939 . S
C80 C79 1.397 . S
C80 C81 1.378 . S
C81 C80 1.378 . S
C81 C82 1.378 . S
C82 H67 0.940 . S
C82 C81 1.378 . S
C82 C83 1.396 . S
C83 H68 0.940 . S
C83 C78 1.391 . S
C83 C82 1.396 . S
C84 P64 1.803 1_556 S
C84 C85 1.377 1_556 S
C84 C89 1.401 . S
C85 H69 0.939 . S
C85 C84 1.377 1_554 S
C85 C86 1.361 . S
C86 H70 0.942 . S
C86 C85 1.361 . S
C86 C87 1.369 . S
C87 C86 1.369 . S
C87 C88 1.404 1_554 S
C88 H71 0.940 . S
C88 C87 1.404 1_556 S
C88 C89 1.389 . S
C89 H72 0.939 . S
C89 C84 1.401 . S
C89 C88 1.389 . S
C90 P64 1.829 . S
C90 C91 1.391 . S
C90 C95 1.391 . S
C91 H73 0.941 . S
C91 C90 1.391 . S
C91 C92 1.396 . S
C92 H76 0.939 . S
C92 C91 1.396 . S
C92 C93 1.397 . S
C93 C92 1.397 . S
C93 C94 1.385 . S
C94 H77 0.940 . S
C94 C93 1.385 . S
C94 C95 1.388 . S
C95 H74 0.939 . S
C95 C90 1.391 . S
C95 C94 1.388 . S
P96 O107 1.490 . S
P96 C110 1.812 . S
P96 C116 1.803 . S
P96 C122 1.819 . S
H97 C111 0.941 . S
H98 C112 0.939 . S
H99 C114 0.940 . S
H100 C115 0.940 . S
H101 C117 0.939 . S
H102 C118 0.942 . S
H103 C120 0.940 . S
H104 C121 0.939 . S
H105 C123 0.941 . S
H106 C127 0.939 . S
O107 P96 1.490 . S
H108 C124 0.939 . S
H109 C126 0.940 . S
C110 P96 1.812 . S
C110 C111 1.389 . S
C110 C115 1.391 . S
C111 H97 0.941 . S
C111 C110 1.389 . S
C111 C112 1.397 . S
C112 H98 0.939 . S
C112 C111 1.397 . S
C112 C113 1.378 . S
C113 C112 1.378 . S
C113 C114 1.378 . S
C114 H99 0.940 . S
C114 C113 1.378 . S
C114 C115 1.396 . S
C115 H100 0.940 . S
C115 C110 1.391 . S
C115 C114 1.396 . S
C116 P96 1.803 . S
C116 C117 1.378 . S
C116 C121 1.400 . S
C117 H101 0.939 . S
C117 C116 1.378 . S
C117 C118 1.361 . S
C118 H102 0.942 . S
C118 C117 1.361 . S
C118 C119 1.369 . S
C119 C118 1.369 . S
C119 C120 1.404 . S
C120 H103 0.940 . S
C120 C119 1.404 . S
C120 C121 1.389 . S
C121 H104 0.939 . S
C121 C116 1.400 . S
C121 C120 1.389 . S
C122 P96 1.819 . S
C122 C123 1.391 . S
C122 C127 1.391 . S
C123 H105 0.941 . S
C123 C122 1.391 . S
C123 C124 1.396 . S
C124 H108 0.939 . S
C124 C123 1.396 . S
C124 C125 1.397 . S
C125 C124 1.397 . S
C125 C126 1.385 . S
C126 H109 0.940 . S
C126 C125 1.385 . S
C126 C127 1.388 . S
C127 H106 0.939 . S
C127 C122 1.391 . S
C127 C126 1.388 . S
O128 Zn129 1.953 1_565 S
O128 C144 1.225 . S
Zn129 O128 1.953 1_545 S
Zn129 O130 1.949 1_655 S
Zn129 O136 1.919 . S
Zn129 O141 1.924 . S
O130 Zn129 1.949 1_455 S
O130 Zn131 1.923 . S
O130 Zn132 1.950 1_445 S
O130 Zn133 1.945 . S
Zn131 O130 1.923 . S
Zn131 O134 1.933 . S
Zn131 O137 1.941 . S
Zn131 O138 1.965 1_545 S
Zn132 O130 1.950 1_665 S
Zn132 O139 1.938 1_655 S
Zn132 O140 1.906 1_655 S
Zn132 O150 1.953 . S
Zn133 O130 1.945 . S
Zn133 O135 1.932 . S
Zn133 O142 1.977 1_545 S
Zn133 O143 1.910 1_455 S
O134 Zn131 1.933 . S
O134 C145 1.226 . S
O135 Zn133 1.932 . S
O135 C145 1.307 . S
O136 Zn129 1.919 . S
O136 C147 1.253 . S
O137 Zn131 1.941 . S
O137 C147 1.283 1_455 S
O138 Zn131 1.965 1_565 S
O138 C146 1.303 . S
O139 Zn132 1.938 1_455 S
O139 C146 1.247 . S
O140 Zn132 1.906 1_455 S
O140 C148 1.304 . S
O141 Zn129 1.924 . S
O141 C149 1.311 . S
O142 Zn133 1.977 1_565 S
O142 C148 1.272 . S
O143 Zn133 1.910 1_655 S
O143 C149 1.231 . S
C144 O128 1.225 . S
C144 O150 1.298 . S
C145 O134 1.226 . S
C145 O135 1.307 . S
C146 O138 1.303 . S
C146 O139 1.247 . S
C147 O136 1.253 . S
C147 O137 1.283 1_655 S
C148 O140 1.304 . S
C148 O142 1.272 . S
C149 O141 1.311 . S
C149 O143 1.231 . S
O150 Zn132 1.953 . S
O150 C144 1.298 . S
O151 Zn152 1.953 . S
O151 C167 1.225 1_556 S
Zn152 O151 1.953 . S
Zn152 O153 1.949 1_556 S
Zn152 O159 1.919 . S
Zn152 O164 1.924 1_556 S
O153 Zn152 1.949 1_554 S
O153 Zn154 1.923 1_554 S
O153 Zn155 1.950 . S
O153 Zn156 1.945 . S
Zn154 O153 1.923 1_556 S
Zn154 O157 1.933 . S
Zn154 O160 1.941 . S
Zn154 O161 1.965 . S
Zn155 O153 1.950 . S
Zn155 O162 1.938 1_554 S
Zn155 O163 1.906 . S
Zn155 O173 1.953 . S
Zn156 O153 1.945 . S
Zn156 O158 1.932 . S
Zn156 O165 1.977 . S
Zn156 O166 1.910 . S
O157 Zn154 1.933 . S
O157 C168 1.226 1_556 S
O158 Zn156 1.932 . S
O158 C168 1.307 . S
O159 Zn152 1.919 . S
O159 C170 1.253 . S
O160 Zn154 1.941 . S
O160 C170 1.283 . S
O161 Zn154 1.965 . S
O161 C169 1.303 . S
O162 Zn155 1.938 1_556 S
O162 C169 1.247 . S
O163 Zn155 1.906 . S
O163 C171 1.304 . S
O164 Zn152 1.924 1_554 S
O164 C172 1.311 . S
O165 Zn156 1.977 . S
O165 C171 1.272 . S
O166 Zn156 1.910 . S
O166 C172 1.231 . S
C167 O151 1.225 1_554 S
C167 O173 1.298 . S
C168 O157 1.226 1_554 S
C168 O158 1.307 . S
C169 O161 1.303 . S
C169 O162 1.247 . S
C170 O159 1.253 . S
C170 O160 1.283 . S
C171 O163 1.304 . S
C171 O165 1.272 . S
C172 O164 1.311 . S
C172 O166 1.231 . S
O173 Zn155 1.953 . S
O173 C167 1.298 . S
H174 C180 0.930 . S
H175 C183 0.930 . S
H176 C184 0.930 . S
H177 C185 0.930 . S
H178 C188 0.930 . S
H179 C189 0.930 . S
C180 H174 0.930 . S
C180 C181 1.355 . S
C180 C182 1.415 . S
C181 C180 1.355 . S
C181 C183 1.419 . S
C182 C180 1.415 . S
C182 C187 1.425 . S
C182 C189 1.409 . S
C183 H175 0.930 . S
C183 C181 1.419 . S
C183 C184 1.362 . S
C184 H176 0.930 . S
C184 C183 1.362 . S
C184 C187 1.409 . S
C185 H177 0.930 . S
C185 C186 1.355 . S
C185 C187 1.415 . S
C186 C185 1.355 . S
C186 C188 1.419 . S
C187 C182 1.425 . S
C187 C184 1.409 . S
C187 C185 1.415 . S
C188 H178 0.930 . S
C188 C186 1.419 . S
C188 C189 1.362 . S
C189 H179 0.930 . S
C189 C182 1.409 . S
C189 C188 1.362 . S
H190 C196 0.930 . S
H191 C199 0.930 . S
H192 C200 0.930 . S
H193 C201 0.930 . S
H194 C204 0.930 . S
H195 C205 0.930 . S
C196 H190 0.930 . S
C196 C197 1.355 1_556 S
C196 C198 1.415 . S
C197 C196 1.355 1_554 S
C197 C199 1.419 . S
C198 C196 1.415 . S
C198 C203 1.425 1_556 S
C198 C205 1.409 . S
C199 H191 0.930 . S
C199 C197 1.419 . S
C199 C200 1.362 . S
C200 H192 0.930 . S
C200 C199 1.362 . S
C200 C203 1.409 . S
C201 H193 0.930 . S
C201 C202 1.355 . S
C201 C203 1.415 . S
C202 C201 1.355 . S
C202 C204 1.419 1_554 S
C203 C198 1.425 1_554 S
C203 C200 1.409 . S
C203 C201 1.415 . S
C204 H194 0.930 . S
C204 C202 1.419 1_556 S
C204 C205 1.362 . S
C205 H195 0.930 . S
C205 C198 1.409 . S
C205 C204 1.362 . S
H206 C212 0.930 . S
H207 C215 0.930 . S
H208 C216 0.930 . S
H209 C217 0.930 . S
H210 C220 0.930 . S
H211 C221 0.930 . S
C212 H206 0.930 . S
C212 C213 1.355 . S
C212 C214 1.415 . S
C213 C212 1.355 . S
C213 C215 1.419 . S
C214 C212 1.415 . S
C214 C219 1.425 . S
C214 C221 1.409 . S
C215 H207 0.930 . S
C215 C213 1.419 . S
C215 C216 1.362 . S
C216 H208 0.930 . S
C216 C215 1.362 . S
C216 C219 1.409 . S
C217 H209 0.930 . S
C217 C218 1.355 . S
C217 C219 1.415 . S
C218 C217 1.355 . S
C218 C220 1.419 . S
C219 C214 1.425 . S
C219 C216 1.409 . S
C219 C217 1.415 . S
C220 H210 0.930 . S
C220 C218 1.419 . S
C220 C221 1.362 . S
C221 H211 0.930 . S
C221 C214 1.409 . S
C221 C220 1.362 . S
H222 C228 0.930 1_556 S
H223 C231 0.930 . S
H224 C232 0.930 . S
H225 C233 0.930 . S
H226 C236 0.930 . S
H227 C237 0.930 . S
C228 H222 0.930 1_554 S
C228 C229 1.355 . S
C228 C230 1.415 . S
C229 C228 1.355 . S
C229 C231 1.419 . S
C230 C228 1.415 . S
C230 C235 1.425 . S
C230 C237 1.409 1_554 S
C231 H223 0.930 . S
C231 C229 1.419 . S
C231 C232 1.362 . S
C232 H224 0.930 . S
C232 C231 1.362 . S
C232 C235 1.409 . S
C233 H225 0.930 . S
C233 C234 1.355 . S
C233 C235 1.415 . S
C234 C233 1.355 . S
C234 C236 1.419 1_554 S
C235 C230 1.425 . S
C235 C232 1.409 . S
C235 C233 1.415 . S
C236 H226 0.930 . S
C236 C234 1.419 1_556 S
C236 C237 1.362 . S
C237 H227 0.930 . S
C237 C230 1.409 1_556 S
C237 C236 1.362 . S
H238 C244 0.930 . S
H239 C247 0.930 . S
H240 C248 0.930 . S
H241 C249 0.930 . S
H242 C252 0.930 . S
H243 C253 0.930 . S
C244 H238 0.930 . S
C244 C245 1.355 . S
C244 C246 1.415 . S
C245 C244 1.355 . S
C245 C247 1.419 . S
C246 C244 1.415 . S
C246 C251 1.425 . S
C246 C253 1.409 . S
C247 H239 0.930 . S
C247 C245 1.419 . S
C247 C248 1.362 . S
C248 H240 0.930 . S
C248 C247 1.362 . S
C248 C251 1.409 . S
C249 H241 0.930 . S
C249 C250 1.355 . S
C249 C251 1.415 . S
C250 C249 1.355 . S
C250 C252 1.419 . S
C251 C246 1.425 . S
C251 C248 1.409 . S
C251 C249 1.415 . S
C252 H242 0.930 . S
C252 C250 1.419 . S
C252 C253 1.362 . S
C253 H243 0.930 . S
C253 C246 1.409 . S
C253 C252 1.362 . S
H254 C260 0.930 . S
H255 C263 0.930 . S
H256 C264 0.930 . S
H257 C265 0.930 . S
H258 C268 0.930 . S
H259 C269 0.930 . S
C260 H254 0.930 . S
C260 C261 1.355 . S
C260 C262 1.415 . S
C261 C260 1.355 . S
C261 C263 1.419 . S
C262 C260 1.415 . S
C262 C267 1.425 . S
C262 C269 1.409 . S
C263 H255 0.930 . S
C263 C261 1.419 . S
C263 C264 1.362 . S
C264 H256 0.930 . S
C264 C263 1.362 . S
C264 C267 1.409 . S
C265 H257 0.930 . S
C265 C266 1.355 . S
C265 C267 1.415 . S
C266 C265 1.355 . S
C266 C268 1.419 . S
C267 C262 1.425 . S
C267 C264 1.409 . S
C267 C265 1.415 . S
C268 H258 0.930 . S
C268 C266 1.419 . S
C268 C269 1.362 . S
C269 H259 0.930 . S
C269 C262 1.409 . S
C269 C268 1.362 . S
H270 C276 0.930 . S
H271 C279 0.930 . S
H272 C280 0.930 . S
H273 C281 0.930 . S
H274 C284 0.930 1_455 S
H275 C285 0.930 1_455 S
C276 H270 0.930 . S
C276 C277 1.355 . S
C276 C278 1.415 . S
C277 C276 1.355 . S
C277 C279 1.419 . S
C278 C276 1.415 . S
C278 C283 1.425 . S
C278 C285 1.409 . S
C279 H271 0.930 . S
C279 C277 1.419 . S
C279 C280 1.362 . S
C280 H272 0.930 . S
C280 C279 1.362 . S
C280 C283 1.409 . S
C281 H273 0.930 . S
C281 C282 1.355 . S
C281 C283 1.415 . S
C282 C281 1.355 . S
C282 C284 1.419 . S
C283 C278 1.425 . S
C283 C280 1.409 . S
C283 C281 1.415 . S
C284 H274 0.930 1_655 S
C284 C282 1.419 . S
C284 C285 1.362 . S
C285 H275 0.930 1_655 S
C285 C278 1.409 . S
C285 C284 1.362 . S
H286 C292 0.930 . S
H287 C295 0.930 . S
H288 C296 0.930 . S
H289 C297 0.930 . S
H290 C300 0.930 . S
H291 C301 0.930 . S
C292 H286 0.930 . S
C292 C293 1.355 . S
C292 C294 1.415 . S
C293 C292 1.355 . S
C293 C295 1.419 . S
C294 C292 1.415 . S
C294 C299 1.425 . S
C294 C301 1.409 . S
C295 H287 0.930 . S
C295 C293 1.419 . S
C295 C296 1.362 . S
C296 H288 0.930 . S
C296 C295 1.362 . S
C296 C299 1.409 . S
C297 H289 0.930 . S
C297 C298 1.355 . S
C297 C299 1.415 . S
C298 C297 1.355 . S
C298 C300 1.419 . S
C299 C294 1.425 . S
C299 C296 1.409 . S
C299 C297 1.415 . S
C300 H290 0.930 . S
C300 C298 1.419 . S
C300 C301 1.362 . S
C301 H291 0.930 . S
C301 C294 1.409 . S
C301 C300 1.362 . S
H302 C308 0.930 . S
H303 C311 0.930 . S
H304 C312 0.930 . S
H305 C313 0.930 . S
H306 C316 0.930 . S
H307 C317 0.930 . S
C308 H302 0.930 . S
C308 C309 1.355 . S
C308 C310 1.415 . S
C309 C308 1.355 . S
C309 C311 1.419 . S
C310 C308 1.415 . S
C310 C315 1.425 . S
C310 C317 1.409 . S
C311 H303 0.930 . S
C311 C309 1.419 . S
C311 C312 1.362 . S
C312 H304 0.930 . S
C312 C311 1.362 . S
C312 C315 1.409 . S
C313 H305 0.930 . S
C313 C314 1.355 . S
C313 C315 1.415 . S
C314 C313 1.355 . S
C314 C316 1.419 . S
C315 C310 1.425 . S
C315 C312 1.409 . S
C315 C313 1.415 . S
C316 H306 0.930 . S
C316 C314 1.419 . S
C316 C317 1.362 . S
C317 H307 0.930 . S
C317 C310 1.409 . S
C317 C316 1.362 . S
H318 C324 0.930 . S
H319 C327 0.930 . S
H320 C328 0.930 1_455 S
H321 C329 0.930 1_455 S
H322 C332 0.930 . S
H323 C333 0.930 . S
C324 H318 0.930 . S
C324 C325 1.355 . S
C324 C326 1.415 . S
C325 C324 1.355 . S
C325 C327 1.419 . S
C326 C324 1.415 . S
C326 C331 1.425 . S
C326 C333 1.409 . S
C327 H319 0.930 . S
C327 C325 1.419 . S
C327 C328 1.362 . S
C328 H320 0.930 1_655 S
C328 C327 1.362 . S
C328 C331 1.409 . S
C329 H321 0.930 1_655 S
C329 C330 1.355 . S
C329 C331 1.415 . S
C330 C329 1.355 . S
C330 C332 1.419 . S
C331 C326 1.425 . S
C331 C328 1.409 . S
C331 C329 1.415 . S
C332 H322 0.930 . S
C332 C330 1.419 . S
C332 C333 1.362 . S
C333 H323 0.930 . S
C333 C326 1.409 . S
C333 C332 1.362 . S
H334 C340 0.930 . S
H335 C343 0.930 . S
H336 C344 0.930 . S
H337 C345 0.930 . S
H338 C348 0.930 . S
H339 C349 0.930 . S
C340 H334 0.930 . S
C340 C341 1.355 . S
C340 C342 1.415 . S
C341 C340 1.355 . S
C341 C343 1.419 . S
C342 C340 1.415 . S
C342 C347 1.425 . S
C342 C349 1.409 . S
C343 H335 0.930 . S
C343 C341 1.419 . S
C343 C344 1.362 . S
C344 H336 0.930 . S
C344 C343 1.362 . S
C344 C347 1.409 . S
C345 H337 0.930 . S
C345 C346 1.355 . S
C345 C347 1.415 . S
C346 C345 1.355 . S
C346 C348 1.419 . S
C347 C342 1.425 . S
C347 C344 1.409 . S
C347 C345 1.415 . S
C348 H338 0.930 . S
C348 C346 1.419 . S
C348 C349 1.362 . S
C349 H339 0.930 . S
C349 C342 1.409 . S
C349 C348 1.362 . S
H350 C356 0.930 . S
H351 C359 0.930 . S
H352 C360 0.930 . S
H353 C361 0.930 . S
H354 C364 0.930 . S
H355 C365 0.930 . S
C356 H350 0.930 . S
C356 C357 1.355 . S
C356 C358 1.415 . S
C357 C356 1.355 . S
C357 C359 1.419 . S
C358 C356 1.415 . S
C358 C363 1.425 . S
C358 C365 1.409 . S
C359 H351 0.930 . S
C359 C357 1.419 . S
C359 C360 1.362 . S
C360 H352 0.930 . S
C360 C359 1.362 . S
C360 C363 1.409 . S
C361 H353 0.930 . S
C361 C362 1.355 . S
C361 C363 1.415 . S
C362 C361 1.355 . S
C362 C364 1.419 . S
C363 C358 1.425 . S
C363 C360 1.409 . S
C363 C361 1.415 . S
C364 H354 0.930 . S
C364 C362 1.419 . S
C364 C365 1.362 . S
C365 H355 0.930 . S
C365 C358 1.409 . S
C365 C364 1.362 . S
C186 C145 1.612 . S
C181 C119 1.619 . S
C197 C23 1.535 . S
C202 C168 1.614 . S
C213 C55 1.452 . S
C218 C144 1.599 . S
C229 C87 1.623 . S
C234 C167 1.604 . S
C250 C148 1.602 . S
C245 C17 1.565 . S
C266 C170 1.551 . S
C261 C61 1.555 . S
C277 C93 1.665 . S
C282 C149 1.536 . S
C293 C113 1.595 . S
C298 C169 1.565 . S
C314 C172 1.612 . S
C309 C49 1.568 . S
C330 C147 1.581 . S
C325 C81 1.605 . S
C346 C171 1.538 . S
C341 C125 1.655 . S
C357 C29 1.544 . S
C362 C146 1.540 . S
