# Generated by pormake.
# Topology cml, (3,6)-cn, num edge types: 1
# Building blocks:
#     Node 0, Type 0, BuildingBlock: INOVEN_clean_linker_0, # of connection points: 3
#     Node 1, Type 0, BuildingBlock: INOVEN_clean_linker_0, # of connection points: 3
#     Node 2, Type 0, BuildingBlock: INOVEN_clean_linker_0, # of connection points: 3
#     Node 3, Type 0, BuildingBlock: INOVEN_clean_linker_0, # of connection points: 3
#     Node 4, Type 0, BuildingBlock: INOVEN_clean_linker_0, # of connection points: 3
#     Node 5, Type 0, BuildingBlock: INOVEN_clean_linker_0, # of connection points: 3
#     Node 6, Type 0, BuildingBlock: INOVEN_clean_linker_0, # of connection points: 3
#     Node 7, Type 0, BuildingBlock: INOVEN_clean_linker_0, # of connection points: 3
#     Node 8, Type 1, BuildingBlock: IZENUY_clean_sbu_0, # of connection points: 6
#     Node 9, Type 1, BuildingBlock: IZENUY_clean_sbu_0, # of connection points: 6
#     Node 10, Type 1, BuildingBlock: IZENUY_clean_sbu_0, # of connection points: 6
#     Node 11, Type 1, BuildingBlock: IZENUY_clean_sbu_0, # of connection points: 6
#     Edge 12, Type (0, 1), BuildingBlock: XIVTED_clean_linker_0, # of connection points: 2
#     Edge 13, Type (0, 1), BuildingBlock: XIVTED_clean_linker_0, # of connection points: 2
#     Edge 14, Type (0, 1), BuildingBlock: XIVTED_clean_linker_0, # of connection points: 2
#     Edge 15, Type (0, 1), BuildingBlock: XIVTED_clean_linker_0, # of connection points: 2
#     Edge 16, Type (0, 1), BuildingBlock: XIVTED_clean_linker_0, # of connection points: 2
#     Edge 17, Type (0, 1), BuildingBlock: XIVTED_clean_linker_0, # of connection points: 2
#     Edge 18, Type (0, 1), BuildingBlock: XIVTED_clean_linker_0, # of connection points: 2
#     Edge 19, Type (0, 1), BuildingBlock: XIVTED_clean_linker_0, # of connection points: 2
#     Edge 20, Type (0, 1), BuildingBlock: XIVTED_clean_linker_0, # of connection points: 2
#     Edge 21, Type (0, 1), BuildingBlock: XIVTED_clean_linker_0, # of connection points: 2
#     Edge 22, Type (0, 1), BuildingBlock: XIVTED_clean_linker_0, # of connection points: 2
#     Edge 23, Type (0, 1), BuildingBlock: XIVTED_clean_linker_0, # of connection points: 2
#     Edge 24, Type (0, 1), BuildingBlock: XIVTED_clean_linker_0, # of connection points: 2
#     Edge 25, Type (0, 1), BuildingBlock: XIVTED_clean_linker_0, # of connection points: 2
#     Edge 26, Type (0, 1), BuildingBlock: XIVTED_clean_linker_0, # of connection points: 2
#     Edge 27, Type (0, 1), BuildingBlock: XIVTED_clean_linker_0, # of connection points: 2
#     Edge 28, Type (0, 1), BuildingBlock: XIVTED_clean_linker_0, # of connection points: 2
#     Edge 29, Type (0, 1), BuildingBlock: XIVTED_clean_linker_0, # of connection points: 2
#     Edge 30, Type (0, 1), BuildingBlock: XIVTED_clean_linker_0, # of connection points: 2
#     Edge 31, Type (0, 1), BuildingBlock: XIVTED_clean_linker_0, # of connection points: 2
#     Edge 32, Type (0, 1), BuildingBlock: XIVTED_clean_linker_0, # of connection points: 2
#     Edge 33, Type (0, 1), BuildingBlock: XIVTED_clean_linker_0, # of connection points: 2
#     Edge 34, Type (0, 1), BuildingBlock: XIVTED_clean_linker_0, # of connection points: 2
#     Edge 35, Type (0, 1), BuildingBlock: XIVTED_clean_linker_0, # of connection points: 2
# Relax obj value: 0.004
# Max RMSD: 0.064
# Mean RMSD: 0.050
data_MOF--net-cml--node1-IZENUY_clean_sbu_0--node2-INOVEN_clean_linker_0--edge1-XIVTED_clean_linker_0
_symmetry_space_group_name_H-M    P1
_symmetry_Int_Tables_number       1
_symmetry_cell_setting            triclinic
loop_
_symmetry_equiv_pos_as_xyz
'x, y, z'
_cell_length_a     37.285069
_cell_length_b     41.424084
_cell_length_c     36.703879
_cell_angle_alpha  89.237272
_cell_angle_beta   90.771095
_cell_angle_gamma 90.553921
loop_
_atom_site_label
_atom_site_type_symbol
_atom_site_fract_x
_atom_site_fract_y
_atom_site_fract_z
_atom_type_partial_charge
H0 H 0.28144 0.34204 0.05085 0.0
H1 H 0.35407 0.42234 0.03938 0.0
H2 H 0.29154 0.3905 0.94693 0.0
N3 N 0.25701 0.34206 0.98394 0.0
N4 N 0.24467 0.34347 0.95223 0.0
C5 C 0.29329 0.36106 0.03424 0.0
C6 C 0.31884 0.38202 0.04947 0.0
C7 C 0.28279 0.36432 0.99763 0.0
C8 C 0.29869 0.38853 0.97557 0.0
C9 C 0.32502 0.40929 0.9904 0.0
C10 C 0.33406 0.4063 0.02758 0.0
H11 H 0.74548 0.65939 0.55834 0.0
H12 H 0.67112 0.58042 0.54594 0.0
H13 H 0.73242 0.61392 0.45415 0.0
N14 N 0.76894 0.66047 0.49126 0.0
N15 N 0.77779 0.6612 0.4586 0.0
C16 C 0.73287 0.64107 0.54153 0.0
C17 C 0.70709 0.6201 0.55649 0.0
C18 C 0.74256 0.63869 0.50491 0.0
C19 C 0.72573 0.61532 0.48271 0.0
C20 C 0.69951 0.59436 0.49724 0.0
C21 C 0.69106 0.59659 0.53433 0.0
H22 H 0.74552 0.35095 0.05337 0.0
H23 H 0.68022 0.43563 0.04387 0.0
H24 H 0.74496 0.40713 0.95389 0.0
N25 N 0.77238 0.35362 0.98795 0.0
N26 N 0.78251 0.35418 0.95567 0.0
C27 C 0.73593 0.37156 0.03771 0.0
C28 C 0.71177 0.39302 0.05324 0.0
C29 C 0.74797 0.37635 0.00201 0.0
C30 C 0.73571 0.4032 0.98145 0.0
C31 C 0.71177 0.4252 0.99681 0.0
C32 C 0.69996 0.41969 0.03255 0.0
H33 H 0.29603 0.60456 0.44168 0.0
H34 H 0.35298 0.5737 0.53866 0.0
H35 H 0.29209 0.66095 0.53888 0.0
N36 N 0.26514 0.65465 0.47101 0.0
N37 N 0.24059 0.66776 0.48796 0.0
C38 C 0.30359 0.60765 0.47002 0.0
C39 C 0.32704 0.58583 0.48749 0.0
C40 C 0.28962 0.63375 0.48904 0.0
C41 C 0.30102 0.63956 0.5251 0.0
C42 C 0.32556 0.61878 0.54235 0.0
C43 C 0.33634 0.59102 0.52415 0.0
H44 H 0.78207 0.84829 0.05101 0.0
H45 H 0.84079 0.93792 0.04375 0.0
H46 H 0.76975 0.90949 0.95632 0.0
N47 N 0.74916 0.85305 0.98745 0.0
N48 N 0.72489 0.86047 0.96528 0.0
C49 C 0.78873 0.87044 0.03645 0.0
C50 C 0.81244 0.89299 0.0521 0.0
C51 C 0.77278 0.87656 0.00236 0.0
C52 C 0.78142 0.90511 0.9831 0.0
C53 C 0.80607 0.92743 0.99786 0.0
C54 C 0.82096 0.92135 0.0326 0.0
H55 H 0.22504 0.17044 0.54335 0.0
H56 H 0.16332 0.08268 0.53237 0.0
H57 H 0.23974 0.10944 0.45074 0.0
N58 N 0.26236 0.16451 0.48343 0.0
N59 N 0.27649 0.16194 0.45299 0.0
C60 C 0.21832 0.14862 0.52869 0.0
C61 C 0.19164 0.12747 0.54185 0.0
C62 C 0.23574 0.14236 0.49589 0.0
C63 C 0.22649 0.11447 0.4761 0.0
C64 C 0.20051 0.09273 0.48935 0.0
C65 C 0.18352 0.09937 0.52224 0.0
H66 H 0.23347 0.84016 0.04503 0.0
H67 H 0.16182 0.92 0.03246 0.0
H68 H 0.22209 0.88782 0.94061 0.0
N69 N 0.25654 0.83949 0.97861 0.0
N70 N 0.26899 0.84047 0.94723 0.0
C71 C 0.22129 0.85883 0.02812 0.0
C72 C 0.19646 0.87981 0.04312 0.0
C73 C 0.23109 0.86177 0.99153 0.0
C74 C 0.21524 0.88589 0.96914 0.0
C75 C 0.18956 0.9068 0.98367 0.0
C76 C 0.18112 0.90382 0.02083 0.0
H77 H 0.77725 0.09229 0.44429 0.0
H78 H 0.84257 0.06069 0.53485 0.0
H79 H 0.78761 0.15147 0.53908 0.0
N80 N 0.75503 0.14597 0.47313 0.0
N81 N 0.74664 0.17189 0.48752 0.0
C82 C 0.78809 0.09601 0.47148 0.0
C83 C 0.81145 0.07332 0.48726 0.0
C84 C 0.77883 0.1238 0.49031 0.0
C85 C 0.79365 0.12933 0.5252 0.0
C86 C 0.81701 0.10677 0.5416 0.0
C87 C 0.82487 0.07846 0.52262 0.0
Fe88 Fe 0.01499 0.82821 0.31418 0.0
Fe89 Fe 0.01598 0.86288 0.38755 0.0
O90 O 0.01546 0.8645 0.33934 0.0
Fe91 Fe 0.01521 0.90233 0.31641 0.0
O92 O 0.97317 0.89285 0.29362 0.0
O93 O 0.9883 0.84451 0.27583 0.0
O94 O 0.97308 0.81525 0.33443 0.0
C95 C 0.96828 0.81206 0.36823 0.0
C96 C 0.06208 0.86476 0.27435 0.0
O97 O 0.98964 0.8252 0.39085 0.0
C98 C 0.06267 0.91553 0.37158 0.0
O99 O 0.04154 0.80525 0.34809 0.0
O100 O 0.05817 0.84156 0.38827 0.0
O101 O 0.04156 0.88868 0.27787 0.0
O102 O 0.05683 0.83883 0.29203 0.0
C103 C 0.96797 0.91136 0.37501 0.0
O104 O 0.04228 0.90023 0.39322 0.0
O105 O 0.05725 0.91461 0.33765 0.0
C106 C 0.06284 0.81495 0.37289 0.0
O107 O 0.97382 0.88419 0.38973 0.0
O108 O 0.98872 0.92268 0.35088 0.0
C109 C 0.96772 0.86864 0.27383 0.0
Fe110 Fe 0.00604 0.14315 0.88583 0.0
Fe111 Fe 0.00336 0.10279 0.81656 0.0
O112 O 0.00436 0.14099 0.83762 0.0
Fe113 Fe 0.00361 0.17689 0.81071 0.0
O114 O 0.03244 0.19994 0.84212 0.0
O115 O 0.04851 0.16477 0.88468 0.0
O116 O 0.03166 0.10564 0.89244 0.0
C117 C 0.05128 0.08988 0.87118 0.0
C118 C 0.95936 0.19437 0.86586 0.0
O119 O 0.04611 0.09154 0.8372 0.0
C120 C 0.95476 0.13504 0.77376 0.0
O121 O 0.96355 0.12167 0.88985 0.0
O122 O 0.97784 0.08268 0.85288 0.0
O123 O 0.96296 0.19057 0.83209 0.0
O124 O 0.98065 0.1809 0.88841 0.0
C125 C 0.04785 0.14025 0.76963 0.0
O126 O 0.96082 0.11117 0.79449 0.0
O127 O 0.97466 0.16001 0.77456 0.0
C128 C 0.95743 0.09413 0.8767 0.0
O129 O 0.02806 0.11595 0.77617 0.0
O130 O 0.04425 0.16605 0.787 0.0
C131 C 0.05391 0.1908 0.86719 0.0
Fe132 Fe 0.5178 0.32972 0.31456 0.0
Fe133 Fe 0.51445 0.36409 0.3881 0.0
O134 O 0.5157 0.36588 0.33986 0.0
Fe135 Fe 0.51457 0.40383 0.31708 0.0
O136 O 0.47383 0.39302 0.29279 0.0
O137 O 0.49095 0.34497 0.27579 0.0
O138 O 0.47611 0.31474 0.33372 0.0
C139 C 0.47021 0.3115 0.36732 0.0
C140 C 0.56422 0.36826 0.276 0.0
O141 O 0.49012 0.32543 0.39057 0.0
C142 C 0.55859 0.41905 0.37425 0.0
O143 O 0.54507 0.30807 0.34892 0.0
O144 O 0.55755 0.34439 0.39054 0.0
O145 O 0.54284 0.39155 0.27939 0.0
O146 O 0.55953 0.34206 0.29329 0.0
C147 C 0.46492 0.41085 0.37411 0.0
O148 O 0.53829 0.40249 0.39476 0.0
O149 O 0.55534 0.41753 0.34008 0.0
C150 C 0.56463 0.31831 0.37493 0.0
O151 O 0.47127 0.38377 0.38881 0.0
O152 O 0.48578 0.42291 0.35053 0.0
C153 C 0.4695 0.36844 0.27334 0.0
Fe154 Fe 0.50926 0.64261 0.88959 0.0
Fe155 Fe 0.51189 0.6031 0.81965 0.0
O156 O 0.51042 0.6409 0.84137 0.0
Fe157 Fe 0.5102 0.67695 0.81487 0.0
O158 O 0.55135 0.69103 0.8366 0.0
O159 O 0.53415 0.681 0.89271 0.0
O160 O 0.55212 0.62178 0.89419 0.0
C161 C 0.55829 0.59452 0.88055 0.0
C162 C 0.46075 0.6895 0.87086 0.0
O163 O 0.53786 0.58319 0.85596 0.0
C164 C 0.46512 0.63934 0.77393 0.0
O165 O 0.48407 0.6046 0.89518 0.0
O166 O 0.46956 0.59039 0.83943 0.0
O167 O 0.48208 0.69924 0.84638 0.0
O168 O 0.46643 0.6634 0.88814 0.0
C169 C 0.55955 0.63754 0.77822 0.0
O170 O 0.48642 0.61614 0.77935 0.0
O171 O 0.46901 0.6653 0.79117 0.0
C172 C 0.46439 0.58872 0.87328 0.0
O173 O 0.55428 0.61313 0.79841 0.0
O174 O 0.53828 0.66119 0.77855 0.0
C175 C 0.5551 0.69481 0.87044 0.0
H176 H 0.22103 0.28956 0.98825 0.0
H177 H 0.07657 0.24648 0.83326 0.0
H178 H 0.20991 0.3446 0.88829 0.0
H179 H 0.09944 0.18469 0.92623 0.0
H180 H 0.12452 0.28306 0.85302 0.0
H181 H 0.17582 0.2514 0.96619 0.0
C182 C 0.20904 0.29359 0.96157 0.0
C183 C 0.21899 0.32037 0.93993 0.0
C184 C 0.11913 0.26145 0.86902 0.0
C185 C 0.16713 0.27669 0.91457 0.0
C186 C 0.09168 0.24055 0.85782 0.0
C187 C 0.08377 0.21251 0.87824 0.0
C188 C 0.13874 0.25441 0.901 0.0
C189 C 0.10447 0.20603 0.90967 0.0
C190 C 0.18326 0.27173 0.94895 0.0
C191 C 0.20275 0.32426 0.90562 0.0
N192 N 0.13086 0.2269 0.92017 0.0
N193 N 0.17743 0.30274 0.89398 0.0
H194 H 0.79828 0.6683 0.38981 0.0
H195 H 0.94837 0.80117 0.43886 0.0
H196 H 0.81801 0.70399 0.49806 0.0
H197 H 0.9222 0.77352 0.32856 0.0
H198 H 0.90147 0.76477 0.46094 0.0
H199 H 0.84444 0.70573 0.36656 0.0
C200 C 0.81239 0.68409 0.40855 0.0
C201 C 0.80442 0.68312 0.44566 0.0
C202 C 0.90592 0.76666 0.43189 0.0
C203 C 0.85708 0.72579 0.41972 0.0
C204 C 0.93278 0.78745 0.41923 0.0
C205 C 0.9394 0.79037 0.38176 0.0
C206 C 0.88548 0.74849 0.40697 0.0
C207 C 0.91813 0.77203 0.35768 0.0
C208 C 0.83862 0.70541 0.39539 0.0
C209 C 0.8233 0.70396 0.46915 0.0
N210 N 0.89221 0.75181 0.37071 0.0
N211 N 0.84878 0.72438 0.45575 0.0
H212 H 0.80391 0.34827 0.8871 0.0
H213 H 0.94047 0.2053 0.93648 0.0
H214 H 0.81737 0.30728 0.99488 0.0
H215 H 0.91606 0.23552 0.82595 0.0
H216 H 0.89687 0.24385 0.95833 0.0
H217 H 0.84645 0.30861 0.864 0.0
C218 C 0.81587 0.33087 0.90578 0.0
C219 C 0.80713 0.33102 0.94274 0.0
C220 C 0.90096 0.24203 0.92929 0.0
C221 C 0.85576 0.28575 0.91692 0.0
C222 C 0.92594 0.22001 0.91675 0.0
C223 C 0.93212 0.21715 0.87927 0.0
C224 C 0.88201 0.26161 0.90426 0.0
C225 C 0.91226 0.23685 0.85508 0.0
C226 C 0.84003 0.30826 0.89269 0.0
C227 C 0.82326 0.30804 0.9661 0.0
N228 N 0.88824 0.25831 0.86799 0.0
N229 N 0.84682 0.28644 0.95278 0.0
H230 H 0.25481 0.70913 0.43194 0.0
H231 H 0.05525 0.75058 0.38624 0.0
H232 H 0.17211 0.67554 0.50439 0.0
H233 H 0.13147 0.82925 0.39413 0.0
H234 H 0.09977 0.7144 0.41463 0.0
H235 H 0.21145 0.74621 0.40274 0.0
C236 C 0.22744 0.70947 0.44141 0.0
C237 C 0.21655 0.68931 0.47033 0.0
C238 C 0.10664 0.73957 0.40987 0.0
C239 C 0.1674 0.73065 0.43691 0.0
C240 C 0.08151 0.76007 0.39358 0.0
C241 C 0.08992 0.7928 0.38799 0.0
C242 C 0.14061 0.75175 0.41944 0.0
C243 C 0.12411 0.80412 0.39821 0.0
C244 C 0.20296 0.7306 0.42498 0.0
C245 C 0.18112 0.69079 0.48209 0.0
N246 N 0.14852 0.78348 0.41317 0.0
N247 N 0.15748 0.71081 0.46496 0.0
H248 H 0.74163 0.79856 0.9499 0.0
H249 H 0.54421 0.73884 0.92324 0.0
H250 H 0.6566 0.86823 0.94551 0.0
H251 H 0.62365 0.7064 0.84799 0.0
H252 H 0.58655 0.78044 0.94469 0.0
H253 H 0.70013 0.75783 0.92444 0.0
C254 C 0.71416 0.80515 0.94367 0.0
C255 C 0.70208 0.83656 0.94993 0.0
C256 C 0.59459 0.76415 0.92351 0.0
C257 C 0.65495 0.79038 0.92177 0.0
C258 C 0.57068 0.74039 0.91147 0.0
C259 C 0.58065 0.71931 0.88389 0.0
C260 C 0.62897 0.76608 0.90865 0.0
C261 C 0.61508 0.72238 0.86924 0.0
C262 C 0.69073 0.78209 0.92903 0.0
C263 C 0.66656 0.84417 0.94104 0.0
N264 N 0.63833 0.74514 0.88217 0.0
N265 N 0.6439 0.82105 0.92794 0.0
H266 H 0.30523 0.16302 0.38722 0.0
H267 H 0.44572 0.30353 0.43675 0.0
H268 H 0.30937 0.21037 0.49101 0.0
H269 H 0.42835 0.26966 0.3271 0.0
H270 H 0.39802 0.26743 0.4577 0.0
H271 H 0.35248 0.19983 0.3651 0.0
C272 C 0.31615 0.18127 0.40521 0.0
C273 C 0.30348 0.18378 0.44072 0.0
C274 C 0.40459 0.26789 0.42904 0.0
C275 C 0.35742 0.22571 0.4161 0.0
C276 C 0.43194 0.28845 0.41704 0.0
C277 C 0.44121 0.28959 0.38008 0.0
C278 C 0.38638 0.24808 0.40401 0.0
C279 C 0.42217 0.26959 0.35583 0.0
C280 C 0.34298 0.20224 0.39267 0.0
C281 C 0.31833 0.20768 0.46331 0.0
N282 N 0.39576 0.24957 0.36825 0.0
N283 N 0.34461 0.22765 0.45061 0.0
H284 H 0.29232 0.78744 0.98526 0.0
H285 H 0.43723 0.74394 0.8354 0.0
H286 H 0.30405 0.84059 0.88429 0.0
H287 H 0.41555 0.68355 0.92947 0.0
H288 H 0.38916 0.77975 0.85311 0.0
H289 H 0.3377 0.74953 0.96566 0.0
C290 C 0.30444 0.79112 0.95887 0.0
C291 C 0.29458 0.81734 0.93625 0.0
C292 C 0.3948 0.75863 0.86986 0.0
C293 C 0.34672 0.7739 0.91373 0.0
C294 C 0.42237 0.73815 0.85982 0.0
C295 C 0.43069 0.71069 0.88109 0.0
C296 C 0.37537 0.75186 0.90157 0.0
C297 C 0.4102 0.70442 0.91227 0.0
C298 C 0.33034 0.76938 0.94767 0.0
C299 C 0.31105 0.82072 0.90238 0.0
N300 N 0.38364 0.72493 0.92166 0.0
N301 N 0.33646 0.79936 0.89217 0.0
H302 H 0.72661 0.22847 0.51321 0.0
H303 H 0.58836 0.26108 0.34817 0.0
H304 H 0.71153 0.16464 0.4224 0.0
H305 H 0.60721 0.32834 0.43544 0.0
H306 H 0.63437 0.22606 0.37446 0.0
H307 H 0.68368 0.26608 0.48481 0.0
C308 C 0.71425 0.22256 0.48724 0.0
C309 C 0.72244 0.19363 0.4702 0.0
C310 C 0.62854 0.24852 0.38782 0.0
C311 C 0.67349 0.23606 0.43753 0.0
C312 C 0.60222 0.26856 0.37282 0.0
C313 C 0.59369 0.29764 0.38973 0.0
C314 C 0.64648 0.25751 0.42006 0.0
C315 C 0.61276 0.3061 0.42152 0.0
C316 C 0.68985 0.24391 0.47103 0.0
C317 C 0.70591 0.18675 0.43653 0.0
N318 N 0.63813 0.28605 0.43575 0.0
N319 N 0.68214 0.2078 0.42137 0.0
H320 H 0.39671 0.42223 0.99201 0.0
H321 H 0.40791 0.55738 0.83904 0.0
H322 H 0.29893 0.45053 0.93644 0.0
H323 H 0.46636 0.56195 0.94125 0.0
H324 H 0.37187 0.5122 0.86413 0.0
H325 H 0.42837 0.46625 0.96148 0.0
C326 C 0.38183 0.43773 0.97335 0.0
C327 C 0.34482 0.43326 0.96763 0.0
C328 C 0.39247 0.52342 0.88091 0.0
C329 C 0.38135 0.48331 0.93186 0.0
C330 C 0.41301 0.54905 0.86671 0.0
C331 C 0.4402 0.56342 0.88809 0.0
C332 C 0.40001 0.51174 0.9162 0.0
C333 C 0.44567 0.55176 0.92378 0.0
C334 C 0.39999 0.46277 0.95589 0.0
C335 C 0.32738 0.45332 0.94189 0.0
N336 N 0.4261 0.5264 0.93649 0.0
N337 N 0.34581 0.47775 0.925 0.0
H338 H 0.72538 0.55601 0.44244 0.0
H339 H 0.55355 0.44353 0.44225 0.0
H340 H 0.62818 0.57897 0.49888 0.0
H341 H 0.6157 0.45247 0.34411 0.0
H342 H 0.58855 0.48726 0.46885 0.0
H343 H 0.69218 0.51351 0.40948 0.0
C344 C 0.69711 0.55238 0.44769 0.0
C345 C 0.67977 0.57066 0.47413 0.0
C346 C 0.59458 0.47965 0.44149 0.0
C347 C 0.64222 0.52194 0.43726 0.0
C348 C 0.57479 0.4545 0.42633 0.0
C349 C 0.58161 0.44435 0.3908 0.0
C350 C 0.62191 0.49461 0.42136 0.0
C351 C 0.60947 0.4597 0.37153 0.0
C352 C 0.67831 0.52811 0.42898 0.0
C353 C 0.64307 0.56484 0.47976 0.0
N354 N 0.62884 0.48408 0.38715 0.0
N355 N 0.62573 0.54077 0.46191 0.0
H356 H 0.68758 0.42694 0.92577 0.0
H357 H 0.59881 0.60151 0.94371 0.0
H358 H 0.70215 0.48719 0.0199 0.0
H359 H 0.58344 0.53918 0.85135 0.0
H360 H 0.64227 0.56296 0.96933 0.0
H361 H 0.65563 0.47101 0.89492 0.0
C362 C 0.68463 0.44962 0.93972 0.0
C363 C 0.69719 0.45319 0.97564 0.0
C364 C 0.62954 0.5579 0.94332 0.0
C365 C 0.66002 0.50366 0.94076 0.0
C366 C 0.60476 0.57993 0.92868 0.0
C367 C 0.58703 0.57342 0.89557 0.0
C368 C 0.63669 0.52923 0.92465 0.0
C369 C 0.59599 0.54507 0.87722 0.0
C370 C 0.6661 0.47473 0.92222 0.0
C371 C 0.69229 0.48314 0.99245 0.0
N372 N 0.61991 0.52402 0.89208 0.0
N373 N 0.67381 0.50706 0.97504 0.0
H374 H 0.29812 0.54888 0.43146 0.0
H375 H 0.44288 0.41321 0.4445 0.0
H376 H 0.39415 0.56033 0.49773 0.0
H377 H 0.42443 0.45591 0.3381 0.0
H378 H 0.40417 0.45419 0.47077 0.0
H379 H 0.32638 0.50292 0.40159 0.0
C380 C 0.32492 0.54192 0.43986 0.0
C381 C 0.34335 0.55838 0.46785 0.0
C382 C 0.40805 0.45397 0.44157 0.0
C383 C 0.37466 0.5053 0.43492 0.0
C384 C 0.42992 0.43065 0.42659 0.0
C385 C 0.437 0.43149 0.38919 0.0
C386 C 0.39254 0.4776 0.41885 0.0
C387 C 0.4198 0.45478 0.36715 0.0
C388 C 0.34075 0.51558 0.42299 0.0
C389 C 0.37803 0.54787 0.47753 0.0
N390 N 0.39833 0.47714 0.38235 0.0
N391 N 0.39229 0.5218 0.46147 0.0
H392 H 0.8245 0.92893 0.92596 0.0
H393 H 0.917 0.10363 0.93781 0.0
H394 H 0.8185 0.98956 0.02035 0.0
H395 H 0.93229 0.03697 0.85003 0.0
H396 H 0.87305 0.06611 0.96435 0.0
H397 H 0.85517 0.97261 0.89335 0.0
C398 C 0.82896 0.95167 0.9396 0.0
C399 C 0.81924 0.95548 0.97607 0.0
C400 C 0.88587 0.05985 0.93913 0.0
C401 C 0.85509 0.00541 0.93914 0.0
C402 C 0.91094 0.08126 0.92397 0.0
C403 C 0.92877 0.07322 0.89193 0.0
C404 C 0.87847 0.03033 0.92202 0.0
C405 C 0.91964 0.04399 0.87505 0.0
C406 C 0.8468 0.97653 0.92107 0.0
C407 C 0.82612 0.98541 0.99246 0.0
N408 N 0.89533 0.02356 0.8904 0.0
N409 N 0.84394 0.00912 0.974 0.0
H410 H 0.18581 0.08796 0.41606 0.0
H411 H 0.08943 0.91694 0.4411 0.0
H412 H 0.18956 0.03138 0.51554 0.0
H413 H 0.09822 0.96527 0.33662 0.0
H414 H 0.13004 0.95701 0.4674 0.0
H415 H 0.15853 0.04175 0.38474 0.0
C416 C 0.18153 0.06563 0.43113 0.0
C417 C 0.18946 0.06366 0.46859 0.0
C418 C 0.1234 0.95876 0.43864 0.0
C419 C 0.15779 0.01095 0.43316 0.0
C420 C 0.10009 0.9359 0.42361 0.0
C421 C 0.09003 0.93795 0.38669 0.0
C422 C 0.13654 0.9842 0.41676 0.0
C423 C 0.10508 0.96284 0.36527 0.0
C424 C 0.16576 0.03932 0.41331 0.0
C425 C 0.18314 0.03419 0.48683 0.0
N426 N 0.12723 0.98525 0.38073 0.0
N427 N 0.16733 0.00918 0.46907 0.0
H428 H 0.21637 0.94782 0.92992 0.0
H429 H 0.04996 0.06358 0.93959 0.0
H430 H 0.11859 0.92221 0.98545 0.0
H431 H 0.10646 0.05784 0.83799 0.0
H432 H 0.08468 0.01821 0.96328 0.0
H433 H 0.18458 0.99315 0.89989 0.0
C434 C 0.18826 0.95142 0.9355 0.0
C435 C 0.17041 0.93156 0.96097 0.0
C436 C 0.08961 0.02699 0.93585 0.0
C437 C 0.13452 0.98354 0.92762 0.0
C438 C 0.07 0.05308 0.92235 0.0
C439 C 0.07514 0.06451 0.88663 0.0
C440 C 0.11513 0.0124 0.91385 0.0
C441 C 0.1015 0.04966 0.86562 0.0
C442 C 0.17027 0.97734 0.91853 0.0
C443 C 0.13391 0.93744 0.96706 0.0
N444 N 0.12068 0.02436 0.87959 0.0
N445 N 0.11745 0.96309 0.95106 0.0
H446 H 0.83397 0.07416 0.41671 0.0
H447 H 0.92416 0.90022 0.43363 0.0
H448 H 0.82076 0.01032 0.50953 0.0
H449 H 0.94485 0.96897 0.34676 0.0
H450 H 0.8788 0.93646 0.45724 0.0
H451 H 0.86605 0.03169 0.38568 0.0
C452 C 0.83713 0.05096 0.43027 0.0
C453 C 0.82503 0.04591 0.46594 0.0
C454 C 0.89312 0.94347 0.43287 0.0
C455 C 0.86249 0.99738 0.43089 0.0
C456 C 0.91904 0.92281 0.41939 0.0
C457 C 0.93876 0.93178 0.38848 0.0
C458 C 0.88679 0.97324 0.41525 0.0
C459 C 0.93072 0.96123 0.37097 0.0
C460 C 0.85578 0.0268 0.41267 0.0
C461 C 0.83025 0.01543 0.4823 0.0
N462 N 0.90555 0.98096 0.38473 0.0
N463 N 0.84894 0.99244 0.46481 0.0
H464 H 0.34031 0.32591 0.08272 0.0
H465 H 0.42277 0.41701 0.25575 0.0
H466 H 0.32837 0.42773 0.10184 0.0
H467 H 0.45131 0.32014 0.22594 0.0
H468 H 0.37913 0.41825 0.20567 0.0
H469 H 0.37134 0.32036 0.14166 0.0
C470 C 0.34358 0.34695 0.0997 0.0
C471 C 0.33212 0.37738 0.08734 0.0
C472 C 0.39479 0.39665 0.21023 0.0
C473 C 0.36791 0.37133 0.15435 0.0
C474 C 0.41976 0.39591 0.23882 0.0
C475 C 0.44119 0.3686 0.24473 0.0
C476 C 0.39108 0.36988 0.1874 0.0
C477 C 0.43573 0.34187 0.22211 0.0
C478 C 0.36153 0.34383 0.13315 0.0
C479 C 0.33728 0.40393 0.11021 0.0
N480 N 0.41138 0.34327 0.19427 0.0
N481 N 0.35507 0.40034 0.14249 0.0
H482 H 0.69705 0.57293 0.6084 0.0
H483 H 0.58216 0.68704 0.73381 0.0
H484 H 0.6877 0.6756 0.59033 0.0
H485 H 0.60177 0.58661 0.75915 0.0
H486 H 0.62494 0.68434 0.68426 0.0
H487 H 0.66695 0.57835 0.66674 0.0
C488 C 0.68904 0.59668 0.61699 0.0
C489 C 0.69455 0.62382 0.59438 0.0
C490 C 0.62017 0.66296 0.70085 0.0
C491 C 0.65979 0.63021 0.66093 0.0
C492 C 0.59563 0.66445 0.72913 0.0
C493 C 0.58796 0.63689 0.75042 0.0
C494 C 0.637 0.63362 0.69351 0.0
C495 C 0.6066 0.6084 0.7433 0.0
C496 C 0.6719 0.59979 0.6503 0.0
C497 C 0.68405 0.65408 0.60697 0.0
N498 N 0.62994 0.60742 0.71519 0.0
N499 N 0.66672 0.6564 0.63918 0.0
H500 H 0.68965 0.33565 0.08466 0.0
H501 H 0.59336 0.42332 0.2475 0.0
H502 H 0.70094 0.43738 0.10651 0.0
H503 H 0.59907 0.31957 0.24084 0.0
H504 H 0.63514 0.42826 0.19727 0.0
H505 H 0.65946 0.32826 0.1431 0.0
C506 C 0.68632 0.35634 0.10198 0.0
C507 C 0.69743 0.38727 0.09041 0.0
C508 C 0.6276 0.40437 0.20692 0.0
C509 C 0.66244 0.37906 0.157 0.0
C510 C 0.60362 0.40153 0.23558 0.0
C511 C 0.59242 0.37099 0.24814 0.0
C512 C 0.6402 0.37645 0.19019 0.0
C513 C 0.60694 0.3436 0.23193 0.0
C514 C 0.66893 0.35212 0.13526 0.0
C515 C 0.69212 0.41322 0.1139 0.0
N516 N 0.62974 0.34697 0.20342 0.0
N517 N 0.67471 0.40858 0.14581 0.0
H518 H 0.29551 0.64448 0.60442 0.0
H519 H 0.45736 0.5899 0.72657 0.0
H520 H 0.39576 0.61198 0.56079 0.0
H521 H 0.41376 0.68338 0.75095 0.0
H522 H 0.41988 0.58797 0.6721 0.0
H523 H 0.32602 0.65211 0.66401 0.0
C524 C 0.3238 0.63917 0.60723 0.0
C525 C 0.34287 0.62664 0.57787 0.0
C526 C 0.41835 0.60879 0.68958 0.0
C527 C 0.37714 0.63478 0.64524 0.0
C528 C 0.43969 0.60997 0.72074 0.0
C529 C 0.43926 0.63717 0.74312 0.0
C530 C 0.39594 0.6347 0.6807 0.0
C531 C 0.41527 0.66217 0.73414 0.0
C532 C 0.34103 0.6435 0.64108 0.0
C533 C 0.37956 0.62044 0.58292 0.0
N534 N 0.39451 0.66046 0.70332 0.0
N535 N 0.39527 0.62406 0.61602 0.0
H536 H 0.84258 0.83673 0.07742 0.0
H537 H 0.92121 0.91798 0.25859 0.0
H538 H 0.82198 0.93488 0.10836 0.0
H539 H 0.95047 0.82293 0.22295 0.0
H540 H 0.87872 0.92189 0.20767 0.0
H541 H 0.87591 0.82854 0.13465 0.0
C542 C 0.84465 0.85641 0.09649 0.0
C543 C 0.82977 0.88662 0.08803 0.0
C544 C 0.89429 0.90009 0.21109 0.0
C545 C 0.86812 0.87756 0.15328 0.0
C546 C 0.91859 0.89783 0.2402 0.0
C547 C 0.93982 0.87023 0.24483 0.0
C548 C 0.89114 0.87461 0.18637 0.0
C549 C 0.93493 0.8448 0.22027 0.0
C550 C 0.86386 0.85179 0.12903 0.0
C551 C 0.83354 0.91137 0.11357 0.0
N552 N 0.91128 0.84769 0.19195 0.0
N553 N 0.8525 0.90635 0.14493 0.0
H554 H 0.21654 0.15304 0.60689 0.0
H555 H 0.04298 0.09902 0.71286 0.0
H556 H 0.12005 0.11823 0.55347 0.0
H557 H 0.10524 0.18011 0.75227 0.0
H558 H 0.0785 0.09919 0.65785 0.0
H559 H 0.18248 0.15881 0.66344 0.0
C560 C 0.18824 0.14692 0.60687 0.0
C561 C 0.17135 0.13444 0.5755 0.0
C562 C 0.08445 0.11696 0.67852 0.0
C563 C 0.13281 0.14036 0.63997 0.0
C564 C 0.06435 0.11675 0.71012 0.0
C565 C 0.07108 0.13965 0.73726 0.0
C566 C 0.112 0.13985 0.674 0.0
C567 C 0.09909 0.16214 0.73191 0.0
C568 C 0.16895 0.15013 0.63913 0.0
C569 C 0.1346 0.12689 0.57717 0.0
N570 N 0.11878 0.16159 0.70087 0.0
N571 N 0.11677 0.12954 0.6089 0.0
H572 H 0.17988 0.8239 0.08054 0.0
H573 H 0.09133 0.91862 0.24316 0.0
H574 H 0.18668 0.9272 0.09321 0.0
H575 H 0.0949 0.8146 0.2398 0.0
H576 H 0.13088 0.92158 0.19098 0.0
H577 H 0.15388 0.81915 0.1413 0.0
C578 C 0.17647 0.84552 0.09634 0.0
C579 C 0.18501 0.87605 0.08157 0.0
C580 C 0.12337 0.89806 0.20177 0.0
C581 C 0.15483 0.87083 0.15083 0.0
C582 C 0.10067 0.89635 0.23156 0.0
C583 C 0.08941 0.86631 0.24556 0.0
C584 C 0.13463 0.8695 0.1854 0.0
C585 C 0.10279 0.83827 0.22975 0.0
C586 C 0.16145 0.84281 0.13095 0.0
C587 C 0.17976 0.90326 0.10317 0.0
N588 N 0.12433 0.84053 0.20015 0.0
N589 N 0.1647 0.90002 0.1365 0.0
H590 H 0.79031 0.13933 0.60086 0.0
H591 H 0.934 0.07916 0.74127 0.0
H592 H 0.88455 0.08925 0.56495 0.0
H593 H 0.91696 0.1821 0.73705 0.0
H594 H 0.89721 0.07355 0.68596 0.0
H595 H 0.82037 0.148 0.65996 0.0
C596 C 0.81716 0.1302 0.6051 0.0
C597 C 0.83453 0.11303 0.57768 0.0
C598 C 0.90112 0.09724 0.69764 0.0
C599 C 0.868 0.12187 0.64549 0.0
C600 C 0.92189 0.1005 0.72918 0.0
C601 C 0.92865 0.1312 0.74356 0.0
C602 C 0.88631 0.1247 0.68096 0.0
C603 C 0.91252 0.15806 0.72656 0.0
C604 C 0.83406 0.13504 0.6389 0.0
C605 C 0.86926 0.10151 0.58532 0.0
N606 N 0.89194 0.15423 0.69597 0.0
N607 N 0.88458 0.10575 0.61862 0.0
loop_
_geom_bond_atom_site_label_1
_geom_bond_atom_site_label_2
_geom_bond_distance
_geom_bond_site_symmetry_2
_ccdc_geom_bond_type
H0 C5 0.929 . S
H1 C10 0.931 . S
H2 C8 0.930 . S
N3 N4 1.236 . S
N3 C7 1.453 1_556 S
N4 N3 1.236 . S
C5 H0 0.929 . S
C5 C6 1.373 . S
C5 C7 1.368 . S
C6 C5 1.373 . S
C6 C10 1.397 . S
C7 N3 1.453 1_554 S
C7 C5 1.368 . S
C7 C8 1.373 1_554 S
C8 H2 0.930 . S
C8 C7 1.373 1_556 S
C8 C9 1.371 . S
C9 C8 1.371 . S
C9 C10 1.383 1_556 S
C10 H1 0.931 . S
C10 C6 1.397 . S
C10 C9 1.383 1_554 S
H11 C16 0.929 . S
H12 C21 0.931 . S
H13 C19 0.930 . S
N14 N15 1.234 . S
N14 C18 1.453 . S
N15 N14 1.234 . S
C16 H11 0.929 . S
C16 C17 1.373 . S
C16 C18 1.368 . S
C17 C16 1.373 . S
C17 C21 1.397 . S
C18 N14 1.453 . S
C18 C16 1.368 . S
C18 C19 1.373 . S
C19 H13 0.930 . S
C19 C18 1.373 . S
C19 C20 1.371 . S
C20 C19 1.371 . S
C20 C21 1.383 . S
C21 H12 0.931 . S
C21 C17 1.397 . S
C21 C20 1.383 . S
H22 C27 0.929 . S
H23 C32 0.931 . S
H24 C30 0.930 . S
N25 N26 1.234 1_554 S
N25 C29 1.453 . S
N26 N25 1.234 1_556 S
C27 H22 0.929 . S
C27 C28 1.373 . S
C27 C29 1.368 . S
C28 C27 1.373 . S
C28 C32 1.397 . S
C29 N25 1.453 . S
C29 C27 1.368 . S
C29 C30 1.373 1_554 S
C30 H24 0.930 . S
C30 C29 1.373 1_556 S
C30 C31 1.371 . S
C31 C30 1.371 . S
C31 C32 1.383 1_556 S
C32 H23 0.931 . S
C32 C28 1.397 . S
C32 C31 1.383 1_554 S
H33 C38 0.929 . S
H34 C43 0.931 . S
H35 C41 0.930 . S
N36 N37 1.234 . S
N36 C40 1.453 . S
N37 N36 1.234 . S
C38 H33 0.929 . S
C38 C39 1.373 . S
C38 C40 1.368 . S
C39 C38 1.373 . S
C39 C43 1.397 . S
C40 N36 1.453 . S
C40 C38 1.368 . S
C40 C41 1.373 . S
C41 H35 0.930 . S
C41 C40 1.373 . S
C41 C42 1.371 . S
C42 C41 1.371 . S
C42 C43 1.383 . S
C43 H34 0.931 . S
C43 C39 1.397 . S
C43 C42 1.383 . S
H44 C49 0.929 . S
H45 C54 0.931 . S
H46 C52 0.930 . S
N47 N48 1.236 . S
N47 C51 1.453 1_556 S
N48 N47 1.236 . S
C49 H44 0.929 . S
C49 C50 1.373 . S
C49 C51 1.368 . S
C50 C49 1.373 . S
C50 C54 1.397 . S
C51 N47 1.453 1_554 S
C51 C49 1.368 . S
C51 C52 1.373 1_554 S
C52 H46 0.930 . S
C52 C51 1.373 1_556 S
C52 C53 1.371 . S
C53 C52 1.371 . S
C53 C54 1.383 1_556 S
C54 H45 0.931 . S
C54 C50 1.397 . S
C54 C53 1.383 1_554 S
H55 C60 0.929 . S
H56 C65 0.931 . S
H57 C63 0.930 . S
N58 N59 1.234 . S
N58 C62 1.453 . S
N59 N58 1.234 . S
C60 H55 0.929 . S
C60 C61 1.373 . S
C60 C62 1.368 . S
C61 C60 1.373 . S
C61 C65 1.397 . S
C62 N58 1.453 . S
C62 C60 1.368 . S
C62 C63 1.373 . S
C63 H57 0.930 . S
C63 C62 1.373 . S
C63 C64 1.371 . S
C64 C63 1.371 . S
C64 C65 1.383 . S
C65 H56 0.931 . S
C65 C61 1.397 . S
C65 C64 1.383 . S
H66 C71 0.929 . S
H67 C76 0.931 . S
H68 C74 0.930 . S
N69 N70 1.234 1_554 S
N69 C73 1.453 . S
N70 N69 1.234 1_556 S
C71 H66 0.929 . S
C71 C72 1.373 . S
C71 C73 1.368 . S
C72 C71 1.373 . S
C72 C76 1.397 . S
C73 N69 1.453 . S
C73 C71 1.368 . S
C73 C74 1.373 1_554 S
C74 H68 0.930 . S
C74 C73 1.373 1_556 S
C74 C75 1.371 . S
C75 C74 1.371 . S
C75 C76 1.383 1_556 S
C76 H67 0.931 . S
C76 C72 1.397 . S
C76 C75 1.383 1_554 S
H77 C82 0.929 . S
H78 C87 0.931 . S
H79 C85 0.930 . S
N80 N81 1.234 . S
N80 C84 1.453 . S
N81 N80 1.234 . S
C82 H77 0.929 . S
C82 C83 1.373 . S
C82 C84 1.368 . S
C83 C82 1.373 . S
C83 C87 1.397 . S
C84 N80 1.453 . S
C84 C82 1.368 . S
C84 C85 1.373 . S
C85 H79 0.930 . S
C85 C84 1.373 . S
C85 C86 1.371 . S
C86 C85 1.371 . S
C86 C87 1.383 . S
C87 H78 0.931 . S
C87 C83 1.397 . S
C87 C86 1.383 . S
Fe88 O90 1.918 . S
Fe88 O93 1.997 1_455 S
Fe88 O94 2.002 1_455 S
Fe88 O99 1.976 . S
Fe88 O102 1.996 . S
Fe89 O90 1.918 . S
Fe89 O97 1.997 1_455 S
Fe89 O100 1.996 . S
Fe89 O104 1.976 . S
Fe89 O107 2.002 1_455 S
O90 Fe88 1.918 . S
O90 Fe89 1.918 . S
O90 Fe91 1.918 . S
Fe91 O90 1.918 . S
Fe91 O92 2.002 1_455 S
Fe91 O101 1.976 . S
Fe91 O105 1.996 . S
Fe91 O108 1.997 1_455 S
O92 Fe91 2.002 1_655 S
O92 C109 1.295 . S
O93 Fe88 1.997 1_655 S
O93 C109 1.235 . S
O94 Fe88 2.002 1_655 S
O94 C95 1.295 . S
C95 O94 1.295 . S
C95 O97 1.235 . S
C96 O101 1.287 . S
C96 O102 1.255 . S
O97 Fe89 1.997 1_655 S
O97 C95 1.235 . S
C98 O104 1.287 . S
C98 O105 1.255 . S
O99 Fe88 1.976 . S
O99 C106 1.287 . S
O100 Fe89 1.996 . S
O100 C106 1.255 . S
O101 Fe91 1.976 . S
O101 C96 1.287 . S
O102 Fe88 1.996 . S
O102 C96 1.255 . S
C103 O107 1.295 . S
C103 O108 1.235 . S
O104 Fe89 1.976 . S
O104 C98 1.287 . S
O105 Fe91 1.996 . S
O105 C98 1.255 . S
C106 O99 1.287 . S
C106 O100 1.255 . S
O107 Fe89 2.002 1_655 S
O107 C103 1.295 . S
O108 Fe91 1.997 1_655 S
O108 C103 1.235 . S
C109 O92 1.295 . S
C109 O93 1.235 . S
Fe110 O112 1.918 1_455 S
Fe110 O115 2.018 . S
Fe110 O116 2.025 . S
Fe110 O121 1.954 1_455 S
Fe110 O124 1.974 1_455 S
Fe111 O112 1.918 1_455 S
Fe111 O119 2.002 . S
Fe111 O122 1.990 1_455 S
Fe111 O126 1.970 1_455 S
Fe111 O129 2.008 . S
O112 Fe110 1.918 1_655 S
O112 Fe111 1.918 1_655 S
O112 Fe113 1.918 1_655 S
Fe113 O112 1.918 1_455 S
Fe113 O114 2.020 . S
Fe113 O123 1.958 1_455 S
Fe113 O127 1.979 1_455 S
Fe113 O130 2.014 . S
O114 Fe113 2.020 . S
O114 C131 1.295 . S
O115 Fe110 2.018 . S
O115 C131 1.235 . S
O116 Fe110 2.025 . S
O116 C117 1.295 . S
C117 O116 1.295 . S
C117 O119 1.235 . S
C118 O123 1.287 . S
C118 O124 1.255 . S
O119 Fe111 2.002 . S
O119 C117 1.235 . S
C120 O126 1.287 . S
C120 O127 1.255 . S
O121 Fe110 1.954 1_655 S
O121 C128 1.287 . S
O122 Fe111 1.990 1_655 S
O122 C128 1.255 . S
O123 Fe113 1.958 1_655 S
O123 C118 1.287 . S
O124 Fe110 1.974 1_655 S
O124 C118 1.255 . S
C125 O129 1.295 . S
C125 O130 1.235 . S
O126 Fe111 1.970 1_655 S
O126 C120 1.287 . S
O127 Fe113 1.979 1_655 S
O127 C120 1.255 . S
C128 O121 1.287 . S
C128 O122 1.255 . S
O129 Fe111 2.008 . S
O129 C125 1.295 . S
O130 Fe113 2.014 . S
O130 C125 1.235 . S
C131 O114 1.295 . S
C131 O115 1.235 . S
Fe132 O134 1.918 . S
Fe132 O137 1.997 . S
Fe132 O138 2.002 . S
Fe132 O143 1.976 . S
Fe132 O146 1.996 . S
Fe133 O134 1.918 . S
Fe133 O141 1.997 . S
Fe133 O144 1.996 . S
Fe133 O148 1.976 . S
Fe133 O151 2.002 . S
O134 Fe132 1.918 . S
O134 Fe133 1.918 . S
O134 Fe135 1.918 . S
Fe135 O134 1.918 . S
Fe135 O136 2.002 . S
Fe135 O145 1.976 . S
Fe135 O149 1.996 . S
Fe135 O152 1.997 . S
O136 Fe135 2.002 . S
O136 C153 1.295 . S
O137 Fe132 1.997 . S
O137 C153 1.235 . S
O138 Fe132 2.002 . S
O138 C139 1.295 . S
C139 O138 1.295 . S
C139 O141 1.235 . S
C140 O145 1.287 . S
C140 O146 1.255 . S
O141 Fe133 1.997 . S
O141 C139 1.235 . S
C142 O148 1.287 . S
C142 O149 1.255 . S
O143 Fe132 1.976 . S
O143 C150 1.287 . S
O144 Fe133 1.996 . S
O144 C150 1.255 . S
O145 Fe135 1.976 . S
O145 C140 1.287 . S
O146 Fe132 1.996 . S
O146 C140 1.255 . S
C147 O151 1.295 . S
C147 O152 1.235 . S
O148 Fe133 1.976 . S
O148 C142 1.287 . S
O149 Fe135 1.996 . S
O149 C142 1.255 . S
C150 O143 1.287 . S
C150 O144 1.255 . S
O151 Fe133 2.002 . S
O151 C147 1.295 . S
O152 Fe135 1.997 . S
O152 C147 1.235 . S
C153 O136 1.295 . S
C153 O137 1.235 . S
Fe154 O156 1.918 . S
Fe154 O159 1.997 . S
Fe154 O160 2.002 . S
Fe154 O165 1.976 . S
Fe154 O168 1.996 . S
Fe155 O156 1.918 . S
Fe155 O163 1.997 . S
Fe155 O166 1.996 . S
Fe155 O170 1.976 . S
Fe155 O173 2.002 . S
O156 Fe154 1.918 . S
O156 Fe155 1.918 . S
O156 Fe157 1.918 . S
Fe157 O156 1.918 . S
Fe157 O158 2.002 . S
Fe157 O167 1.976 . S
Fe157 O171 1.996 . S
Fe157 O174 1.997 . S
O158 Fe157 2.002 . S
O158 C175 1.295 . S
O159 Fe154 1.997 . S
O159 C175 1.235 . S
O160 Fe154 2.002 . S
O160 C161 1.295 . S
C161 O160 1.295 . S
C161 O163 1.235 . S
C162 O167 1.287 . S
C162 O168 1.255 . S
O163 Fe155 1.997 . S
O163 C161 1.235 . S
C164 O170 1.287 . S
C164 O171 1.255 . S
O165 Fe154 1.976 . S
O165 C172 1.287 . S
O166 Fe155 1.996 . S
O166 C172 1.255 . S
O167 Fe157 1.976 . S
O167 C162 1.287 . S
O168 Fe154 1.996 . S
O168 C162 1.255 . S
C169 O173 1.295 . S
C169 O174 1.235 . S
O170 Fe155 1.976 . S
O170 C164 1.287 . S
O171 Fe157 1.996 . S
O171 C164 1.255 . S
C172 O165 1.287 . S
C172 O166 1.255 . S
O173 Fe155 2.002 . S
O173 C169 1.295 . S
O174 Fe157 1.997 . S
O174 C169 1.235 . S
C175 O158 1.295 . S
C175 O159 1.235 . S
H176 C182 0.930 . S
H177 C186 0.930 . S
H178 C191 0.929 . S
H179 C189 0.929 . S
H180 C184 0.929 . S
H181 C190 0.929 . S
C182 H176 0.930 . S
C182 C183 1.367 . S
C182 C190 1.378 . S
C183 C182 1.367 . S
C183 C191 1.433 . S
C184 H180 0.929 . S
C184 C186 1.378 . S
C184 C188 1.350 . S
C185 C188 1.463 . S
C185 C190 1.350 . S
C185 N193 1.427 . S
C186 H177 0.930 . S
C186 C184 1.378 . S
C186 C187 1.367 . S
C187 C186 1.367 . S
C187 C189 1.433 . S
C188 C184 1.350 . S
C188 C185 1.463 . S
C188 N192 1.427 . S
C189 H179 0.929 . S
C189 C187 1.433 . S
C189 N192 1.384 . S
C190 H181 0.929 . S
C190 C182 1.378 . S
C190 C185 1.350 . S
C191 H178 0.929 . S
C191 C183 1.433 . S
C191 N193 1.384 . S
N192 C188 1.427 . S
N192 C189 1.384 . S
N193 C185 1.427 . S
N193 C191 1.384 . S
H194 C200 0.930 . S
H195 C204 0.930 . S
H196 C209 0.929 . S
H197 C207 0.929 . S
H198 C202 0.929 . S
H199 C208 0.929 . S
C200 H194 0.930 . S
C200 C201 1.367 . S
C200 C208 1.378 . S
C201 C200 1.367 . S
C201 C209 1.433 . S
C202 H198 0.929 . S
C202 C204 1.378 . S
C202 C206 1.350 . S
C203 C206 1.463 . S
C203 C208 1.350 . S
C203 N211 1.427 . S
C204 H195 0.930 . S
C204 C202 1.378 . S
C204 C205 1.367 . S
C205 C204 1.367 . S
C205 C207 1.433 . S
C206 C202 1.350 . S
C206 C203 1.463 . S
C206 N210 1.427 . S
C207 H197 0.929 . S
C207 C205 1.433 . S
C207 N210 1.384 . S
C208 H199 0.929 . S
C208 C200 1.378 . S
C208 C203 1.350 . S
C209 H196 0.929 . S
C209 C201 1.433 . S
C209 N211 1.384 . S
N210 C206 1.427 . S
N210 C207 1.384 . S
N211 C203 1.427 . S
N211 C209 1.384 . S
H212 C218 0.930 . S
H213 C222 0.930 . S
H214 C227 0.929 . S
H215 C225 0.929 . S
H216 C220 0.929 . S
H217 C226 0.929 . S
C218 H212 0.930 . S
C218 C219 1.367 . S
C218 C226 1.378 . S
C219 C218 1.367 . S
C219 C227 1.433 . S
C220 H216 0.929 . S
C220 C222 1.378 . S
C220 C224 1.350 . S
C221 C224 1.463 . S
C221 C226 1.350 . S
C221 N229 1.427 . S
C222 H213 0.930 . S
C222 C220 1.378 . S
C222 C223 1.367 . S
C223 C222 1.367 . S
C223 C225 1.433 . S
C224 C220 1.350 . S
C224 C221 1.463 . S
C224 N228 1.427 . S
C225 H215 0.929 . S
C225 C223 1.433 . S
C225 N228 1.384 . S
C226 H217 0.929 . S
C226 C218 1.378 . S
C226 C221 1.350 . S
C227 H214 0.929 . S
C227 C219 1.433 . S
C227 N229 1.384 . S
N228 C224 1.427 . S
N228 C225 1.384 . S
N229 C221 1.427 . S
N229 C227 1.384 . S
H230 C236 0.930 . S
H231 C240 0.930 . S
H232 C245 0.929 . S
H233 C243 0.929 . S
H234 C238 0.929 . S
H235 C244 0.929 . S
C236 H230 0.930 . S
C236 C237 1.367 . S
C236 C244 1.378 . S
C237 C236 1.367 . S
C237 C245 1.433 . S
C238 H234 0.929 . S
C238 C240 1.378 . S
C238 C242 1.350 . S
C239 C242 1.463 . S
C239 C244 1.350 . S
C239 N247 1.427 . S
C240 H231 0.930 . S
C240 C238 1.378 . S
C240 C241 1.367 . S
C241 C240 1.367 . S
C241 C243 1.433 . S
C242 C238 1.350 . S
C242 C239 1.463 . S
C242 N246 1.427 . S
C243 H233 0.929 . S
C243 C241 1.433 . S
C243 N246 1.384 . S
C244 H235 0.929 . S
C244 C236 1.378 . S
C244 C239 1.350 . S
C245 H232 0.929 . S
C245 C237 1.433 . S
C245 N247 1.384 . S
N246 C242 1.427 . S
N246 C243 1.384 . S
N247 C239 1.427 . S
N247 C245 1.384 . S
H248 C254 0.930 . S
H249 C258 0.930 . S
H250 C263 0.929 . S
H251 C261 0.929 . S
H252 C256 0.929 . S
H253 C262 0.929 . S
C254 H248 0.930 . S
C254 C255 1.367 . S
C254 C262 1.378 . S
C255 C254 1.367 . S
C255 C263 1.433 . S
C256 H252 0.929 . S
C256 C258 1.378 . S
C256 C260 1.350 . S
C257 C260 1.463 . S
C257 C262 1.350 . S
C257 N265 1.427 . S
C258 H249 0.930 . S
C258 C256 1.378 . S
C258 C259 1.367 . S
C259 C258 1.367 . S
C259 C261 1.433 . S
C260 C256 1.350 . S
C260 C257 1.463 . S
C260 N264 1.427 . S
C261 H251 0.929 . S
C261 C259 1.433 . S
C261 N264 1.384 . S
C262 H253 0.929 . S
C262 C254 1.378 . S
C262 C257 1.350 . S
C263 H250 0.929 . S
C263 C255 1.433 . S
C263 N265 1.384 . S
N264 C260 1.427 . S
N264 C261 1.384 . S
N265 C257 1.427 . S
N265 C263 1.384 . S
H266 C272 0.930 . S
H267 C276 0.930 . S
H268 C281 0.929 . S
H269 C279 0.929 . S
H270 C274 0.929 . S
H271 C280 0.929 . S
C272 H266 0.930 . S
C272 C273 1.367 . S
C272 C280 1.378 . S
C273 C272 1.367 . S
C273 C281 1.433 . S
C274 H270 0.929 . S
C274 C276 1.378 . S
C274 C278 1.350 . S
C275 C278 1.463 . S
C275 C280 1.350 . S
C275 N283 1.427 . S
C276 H267 0.930 . S
C276 C274 1.378 . S
C276 C277 1.367 . S
C277 C276 1.367 . S
C277 C279 1.433 . S
C278 C274 1.350 . S
C278 C275 1.463 . S
C278 N282 1.427 . S
C279 H269 0.929 . S
C279 C277 1.433 . S
C279 N282 1.384 . S
C280 H271 0.929 . S
C280 C272 1.378 . S
C280 C275 1.350 . S
C281 H268 0.929 . S
C281 C273 1.433 . S
C281 N283 1.384 . S
N282 C278 1.427 . S
N282 C279 1.384 . S
N283 C275 1.427 . S
N283 C281 1.384 . S
H284 C290 0.930 1_554 S
H285 C294 0.930 . S
H286 C299 0.929 . S
H287 C297 0.929 . S
H288 C292 0.929 . S
H289 C298 0.929 . S
C290 H284 0.930 1_556 S
C290 C291 1.367 . S
C290 C298 1.378 . S
C291 C290 1.367 . S
C291 C299 1.433 . S
C292 H288 0.929 . S
C292 C294 1.378 . S
C292 C296 1.350 . S
C293 C296 1.463 . S
C293 C298 1.350 . S
C293 N301 1.427 . S
C294 H285 0.930 . S
C294 C292 1.378 . S
C294 C295 1.367 . S
C295 C294 1.367 . S
C295 C297 1.433 . S
C296 C292 1.350 . S
C296 C293 1.463 . S
C296 N300 1.427 . S
C297 H287 0.929 . S
C297 C295 1.433 . S
C297 N300 1.384 . S
C298 H289 0.929 . S
C298 C290 1.378 . S
C298 C293 1.350 . S
C299 H286 0.929 . S
C299 C291 1.433 . S
C299 N301 1.384 . S
N300 C296 1.427 . S
N300 C297 1.384 . S
N301 C293 1.427 . S
N301 C299 1.384 . S
H302 C308 0.930 . S
H303 C312 0.930 . S
H304 C317 0.929 . S
H305 C315 0.929 . S
H306 C310 0.929 . S
H307 C316 0.929 . S
C308 H302 0.930 . S
C308 C309 1.367 . S
C308 C316 1.378 . S
C309 C308 1.367 . S
C309 C317 1.433 . S
C310 H306 0.929 . S
C310 C312 1.378 . S
C310 C314 1.350 . S
C311 C314 1.463 . S
C311 C316 1.350 . S
C311 N319 1.427 . S
C312 H303 0.930 . S
C312 C310 1.378 . S
C312 C313 1.367 . S
C313 C312 1.367 . S
C313 C315 1.433 . S
C314 C310 1.350 . S
C314 C311 1.463 . S
C314 N318 1.427 . S
C315 H305 0.929 . S
C315 C313 1.433 . S
C315 N318 1.384 . S
C316 H307 0.929 . S
C316 C308 1.378 . S
C316 C311 1.350 . S
C317 H304 0.929 . S
C317 C309 1.433 . S
C317 N319 1.384 . S
N318 C314 1.427 . S
N318 C315 1.384 . S
N319 C311 1.427 . S
N319 C317 1.384 . S
H320 C326 0.930 . S
H321 C330 0.930 . S
H322 C335 0.929 . S
H323 C333 0.929 . S
H324 C328 0.929 . S
H325 C334 0.929 . S
C326 H320 0.930 . S
C326 C327 1.367 . S
C326 C334 1.378 . S
C327 C326 1.367 . S
C327 C335 1.433 . S
C328 H324 0.929 . S
C328 C330 1.378 . S
C328 C332 1.350 . S
C329 C332 1.463 . S
C329 C334 1.350 . S
C329 N337 1.427 . S
C330 H321 0.930 . S
C330 C328 1.378 . S
C330 C331 1.367 . S
C331 C330 1.367 . S
C331 C333 1.433 . S
C332 C328 1.350 . S
C332 C329 1.463 . S
C332 N336 1.427 . S
C333 H323 0.929 . S
C333 C331 1.433 . S
C333 N336 1.384 . S
C334 H325 0.929 . S
C334 C326 1.378 . S
C334 C329 1.350 . S
C335 H322 0.929 . S
C335 C327 1.433 . S
C335 N337 1.384 . S
N336 C332 1.427 . S
N336 C333 1.384 . S
N337 C329 1.427 . S
N337 C335 1.384 . S
H338 C344 0.930 . S
H339 C348 0.930 . S
H340 C353 0.929 . S
H341 C351 0.929 . S
H342 C346 0.929 . S
H343 C352 0.929 . S
C344 H338 0.930 . S
C344 C345 1.367 . S
C344 C352 1.378 . S
C345 C344 1.367 . S
C345 C353 1.433 . S
C346 H342 0.929 . S
C346 C348 1.378 . S
C346 C350 1.350 . S
C347 C350 1.463 . S
C347 C352 1.350 . S
C347 N355 1.427 . S
C348 H339 0.930 . S
C348 C346 1.378 . S
C348 C349 1.367 . S
C349 C348 1.367 . S
C349 C351 1.433 . S
C350 C346 1.350 . S
C350 C347 1.463 . S
C350 N354 1.427 . S
C351 H341 0.929 . S
C351 C349 1.433 . S
C351 N354 1.384 . S
C352 H343 0.929 . S
C352 C344 1.378 . S
C352 C347 1.350 . S
C353 H340 0.929 . S
C353 C345 1.433 . S
C353 N355 1.384 . S
N354 C350 1.427 . S
N354 C351 1.384 . S
N355 C347 1.427 . S
N355 C353 1.384 . S
H356 C362 0.930 . S
H357 C366 0.930 . S
H358 C371 0.929 . S
H359 C369 0.929 . S
H360 C364 0.929 . S
H361 C370 0.929 . S
C362 H356 0.930 . S
C362 C363 1.367 . S
C362 C370 1.378 . S
C363 C362 1.367 . S
C363 C371 1.433 . S
C364 H360 0.929 . S
C364 C366 1.378 . S
C364 C368 1.350 . S
C365 C368 1.463 . S
C365 C370 1.350 . S
C365 N373 1.427 . S
C366 H357 0.930 . S
C366 C364 1.378 . S
C366 C367 1.367 . S
C367 C366 1.367 . S
C367 C369 1.433 . S
C368 C364 1.350 . S
C368 C365 1.463 . S
C368 N372 1.427 . S
C369 H359 0.929 . S
C369 C367 1.433 . S
C369 N372 1.384 . S
C370 H361 0.929 . S
C370 C362 1.378 . S
C370 C365 1.350 . S
C371 H358 0.929 . S
C371 C363 1.433 . S
C371 N373 1.384 . S
N372 C368 1.427 . S
N372 C369 1.384 . S
N373 C365 1.427 . S
N373 C371 1.384 . S
H374 C380 0.930 . S
H375 C384 0.930 . S
H376 C389 0.929 . S
H377 C387 0.929 . S
H378 C382 0.929 . S
H379 C388 0.929 . S
C380 H374 0.930 . S
C380 C381 1.367 . S
C380 C388 1.378 . S
C381 C380 1.367 . S
C381 C389 1.433 . S
C382 H378 0.929 . S
C382 C384 1.378 . S
C382 C386 1.350 . S
C383 C386 1.463 . S
C383 C388 1.350 . S
C383 N391 1.427 . S
C384 H375 0.930 . S
C384 C382 1.378 . S
C384 C385 1.367 . S
C385 C384 1.367 . S
C385 C387 1.433 . S
C386 C382 1.350 . S
C386 C383 1.463 . S
C386 N390 1.427 . S
C387 H377 0.929 . S
C387 C385 1.433 . S
C387 N390 1.384 . S
C388 H379 0.929 . S
C388 C380 1.378 . S
C388 C383 1.350 . S
C389 H376 0.929 . S
C389 C381 1.433 . S
C389 N391 1.384 . S
N390 C386 1.427 . S
N390 C387 1.384 . S
N391 C383 1.427 . S
N391 C389 1.384 . S
H392 C398 0.930 . S
H393 C402 0.930 . S
H394 C407 0.929 1_554 S
H395 C405 0.929 . S
H396 C400 0.929 . S
H397 C406 0.929 . S
C398 H392 0.930 . S
C398 C399 1.367 . S
C398 C406 1.378 . S
C399 C398 1.367 . S
C399 C407 1.433 . S
C400 H396 0.929 . S
C400 C402 1.378 . S
C400 C404 1.350 . S
C401 C404 1.463 1_565 S
C401 C406 1.350 . S
C401 N409 1.427 . S
C402 H393 0.930 . S
C402 C400 1.378 . S
C402 C403 1.367 . S
C403 C402 1.367 . S
C403 C405 1.433 . S
C404 C400 1.350 . S
C404 C401 1.463 1_545 S
C404 N408 1.427 1_545 S
C405 H395 0.929 . S
C405 C403 1.433 . S
C405 N408 1.384 1_545 S
C406 H397 0.929 . S
C406 C398 1.378 . S
C406 C401 1.350 . S
C407 H394 0.929 1_556 S
C407 C399 1.433 . S
C407 N409 1.384 . S
N408 C404 1.427 1_565 S
N408 C405 1.384 1_565 S
N409 C401 1.427 . S
N409 C407 1.384 . S
H410 C416 0.930 . S
H411 C420 0.930 . S
H412 C425 0.929 . S
H413 C423 0.929 . S
H414 C418 0.929 . S
H415 C424 0.929 . S
C416 H410 0.930 . S
C416 C417 1.367 . S
C416 C424 1.378 . S
C417 C416 1.367 . S
C417 C425 1.433 . S
C418 H414 0.929 . S
C418 C420 1.378 . S
C418 C422 1.350 . S
C419 C422 1.463 1_545 S
C419 C424 1.350 . S
C419 N427 1.427 . S
C420 H411 0.930 . S
C420 C418 1.378 . S
C420 C421 1.367 . S
C421 C420 1.367 . S
C421 C423 1.433 . S
C422 C418 1.350 . S
C422 C419 1.463 1_565 S
C422 N426 1.427 1_565 S
C423 H413 0.929 . S
C423 C421 1.433 . S
C423 N426 1.384 1_565 S
C424 H415 0.929 . S
C424 C416 1.378 . S
C424 C419 1.350 . S
C425 H412 0.929 . S
C425 C417 1.433 . S
C425 N427 1.384 . S
N426 C422 1.427 1_545 S
N426 C423 1.384 1_545 S
N427 C419 1.427 . S
N427 C425 1.384 . S
H428 C434 0.930 . S
H429 C438 0.930 . S
H430 C443 0.929 1_554 S
H431 C441 0.929 . S
H432 C436 0.929 . S
H433 C442 0.929 . S
C434 H428 0.930 . S
C434 C435 1.367 . S
C434 C442 1.378 . S
C435 C434 1.367 . S
C435 C443 1.433 . S
C436 H432 0.929 . S
C436 C438 1.378 . S
C436 C440 1.350 . S
C437 C440 1.463 1_565 S
C437 C442 1.350 . S
C437 N445 1.427 . S
C438 H429 0.930 . S
C438 C436 1.378 . S
C438 C439 1.367 . S
C439 C438 1.367 . S
C439 C441 1.433 . S
C440 C436 1.350 . S
C440 C437 1.463 1_545 S
C440 N444 1.427 . S
C441 H431 0.929 . S
C441 C439 1.433 . S
C441 N444 1.384 . S
C442 H433 0.929 . S
C442 C434 1.378 . S
C442 C437 1.350 . S
C443 H430 0.929 1_556 S
C443 C435 1.433 . S
C443 N445 1.384 . S
N444 C440 1.427 . S
N444 C441 1.384 . S
N445 C437 1.427 . S
N445 C443 1.384 . S
H446 C452 0.930 . S
H447 C456 0.930 . S
H448 C461 0.929 . S
H449 C459 0.929 . S
H450 C454 0.929 . S
H451 C460 0.929 . S
C452 H446 0.930 . S
C452 C453 1.367 . S
C452 C460 1.378 . S
C453 C452 1.367 . S
C453 C461 1.433 . S
C454 H450 0.929 . S
C454 C456 1.378 . S
C454 C458 1.350 . S
C455 C458 1.463 1_545 S
C455 C460 1.350 . S
C455 N463 1.437 . S
C456 H447 0.930 . S
C456 C454 1.378 . S
C456 C457 1.367 . S
C457 C456 1.367 . S
C457 C459 1.433 . S
C458 C454 1.350 . S
C458 C455 1.463 1_565 S
C458 N462 1.426 1_565 S
C459 H449 0.929 . S
C459 C457 1.433 . S
C459 N462 1.382 1_565 S
C460 H451 0.929 . S
C460 C452 1.378 . S
C460 C455 1.350 . S
C461 H448 0.929 . S
C461 C453 1.433 . S
C461 N463 1.403 . S
N462 C458 1.426 1_545 S
N462 C459 1.382 1_545 S
N463 C455 1.437 . S
N463 C461 1.403 . S
H464 C470 0.930 . S
H465 C474 0.930 . S
H466 C479 0.929 . S
H467 C477 0.929 . S
H468 C472 0.929 . S
H469 C478 0.929 . S
C470 H464 0.930 . S
C470 C471 1.367 . S
C470 C478 1.378 . S
C471 C470 1.367 . S
C471 C479 1.433 . S
C472 H468 0.929 . S
C472 C474 1.378 . S
C472 C476 1.350 . S
C473 C476 1.463 . S
C473 C478 1.350 . S
C473 N481 1.427 . S
C474 H465 0.930 . S
C474 C472 1.378 . S
C474 C475 1.367 . S
C475 C474 1.367 . S
C475 C477 1.433 . S
C476 C472 1.350 . S
C476 C473 1.463 . S
C476 N480 1.427 . S
C477 H467 0.929 . S
C477 C475 1.433 . S
C477 N480 1.384 . S
C478 H469 0.929 . S
C478 C470 1.378 . S
C478 C473 1.350 . S
C479 H466 0.929 . S
C479 C471 1.433 . S
C479 N481 1.384 . S
N480 C476 1.427 . S
N480 C477 1.384 . S
N481 C473 1.427 . S
N481 C479 1.384 . S
H482 C488 0.930 . S
H483 C492 0.930 . S
H484 C497 0.929 . S
H485 C495 0.929 . S
H486 C490 0.929 . S
H487 C496 0.929 . S
C488 H482 0.930 . S
C488 C489 1.367 . S
C488 C496 1.378 . S
C489 C488 1.367 . S
C489 C497 1.433 . S
C490 H486 0.929 . S
C490 C492 1.378 . S
C490 C494 1.350 . S
C491 C494 1.463 . S
C491 C496 1.350 . S
C491 N499 1.427 . S
C492 H483 0.930 . S
C492 C490 1.378 . S
C492 C493 1.367 . S
C493 C492 1.367 . S
C493 C495 1.433 . S
C494 C490 1.350 . S
C494 C491 1.463 . S
C494 N498 1.427 . S
C495 H485 0.929 . S
C495 C493 1.433 . S
C495 N498 1.384 . S
C496 H487 0.929 . S
C496 C488 1.378 . S
C496 C491 1.350 . S
C497 H484 0.929 . S
C497 C489 1.433 . S
C497 N499 1.384 . S
N498 C494 1.427 . S
N498 C495 1.384 . S
N499 C491 1.427 . S
N499 C497 1.384 . S
H500 C506 0.930 . S
H501 C510 0.930 . S
H502 C515 0.929 . S
H503 C513 0.929 . S
H504 C508 0.929 . S
H505 C514 0.929 . S
C506 H500 0.930 . S
C506 C507 1.367 . S
C506 C514 1.378 . S
C507 C506 1.367 . S
C507 C515 1.433 . S
C508 H504 0.929 . S
C508 C510 1.378 . S
C508 C512 1.350 . S
C509 C512 1.463 . S
C509 C514 1.350 . S
C509 N517 1.427 . S
C510 H501 0.930 . S
C510 C508 1.378 . S
C510 C511 1.367 . S
C511 C510 1.367 . S
C511 C513 1.433 . S
C512 C508 1.350 . S
C512 C509 1.463 . S
C512 N516 1.427 . S
C513 H503 0.929 . S
C513 C511 1.433 . S
C513 N516 1.384 . S
C514 H505 0.929 . S
C514 C506 1.378 . S
C514 C509 1.350 . S
C515 H502 0.929 . S
C515 C507 1.433 . S
C515 N517 1.384 . S
N516 C512 1.427 . S
N516 C513 1.384 . S
N517 C509 1.427 . S
N517 C515 1.384 . S
H518 C524 0.930 . S
H519 C528 0.930 . S
H520 C533 0.929 . S
H521 C531 0.929 . S
H522 C526 0.929 . S
H523 C532 0.929 . S
C524 H518 0.930 . S
C524 C525 1.367 . S
C524 C532 1.378 . S
C525 C524 1.367 . S
C525 C533 1.433 . S
C526 H522 0.929 . S
C526 C528 1.378 . S
C526 C530 1.350 . S
C527 C530 1.463 . S
C527 C532 1.350 . S
C527 N535 1.427 . S
C528 H519 0.930 . S
C528 C526 1.378 . S
C528 C529 1.367 . S
C529 C528 1.367 . S
C529 C531 1.433 . S
C530 C526 1.350 . S
C530 C527 1.463 . S
C530 N534 1.427 . S
C531 H521 0.929 . S
C531 C529 1.433 . S
C531 N534 1.384 . S
C532 H523 0.929 . S
C532 C524 1.378 . S
C532 C527 1.350 . S
C533 H520 0.929 . S
C533 C525 1.433 . S
C533 N535 1.384 . S
N534 C530 1.427 . S
N534 C531 1.384 . S
N535 C527 1.427 . S
N535 C533 1.384 . S
H536 C542 0.930 . S
H537 C546 0.930 . S
H538 C551 0.929 . S
H539 C549 0.929 . S
H540 C544 0.929 . S
H541 C550 0.929 . S
C542 H536 0.930 . S
C542 C543 1.367 . S
C542 C550 1.378 . S
C543 C542 1.367 . S
C543 C551 1.433 . S
C544 H540 0.929 . S
C544 C546 1.378 . S
C544 C548 1.350 . S
C545 C548 1.463 . S
C545 C550 1.350 . S
C545 N553 1.427 . S
C546 H537 0.930 . S
C546 C544 1.378 . S
C546 C547 1.367 . S
C547 C546 1.367 . S
C547 C549 1.433 . S
C548 C544 1.350 . S
C548 C545 1.463 . S
C548 N552 1.427 . S
C549 H539 0.929 . S
C549 C547 1.433 . S
C549 N552 1.384 . S
C550 H541 0.929 . S
C550 C542 1.378 . S
C550 C545 1.350 . S
C551 H538 0.929 . S
C551 C543 1.433 . S
C551 N553 1.384 . S
N552 C548 1.427 . S
N552 C549 1.384 . S
N553 C545 1.427 . S
N553 C551 1.384 . S
H554 C560 0.930 . S
H555 C564 0.930 . S
H556 C569 0.929 . S
H557 C567 0.929 . S
H558 C562 0.929 . S
H559 C568 0.929 . S
C560 H554 0.930 . S
C560 C561 1.367 . S
C560 C568 1.378 . S
C561 C560 1.367 . S
C561 C569 1.433 . S
C562 H558 0.929 . S
C562 C564 1.378 . S
C562 C566 1.350 . S
C563 C566 1.463 . S
C563 C568 1.350 . S
C563 N571 1.427 . S
C564 H555 0.930 . S
C564 C562 1.378 . S
C564 C565 1.367 . S
C565 C564 1.367 . S
C565 C567 1.433 . S
C566 C562 1.350 . S
C566 C563 1.463 . S
C566 N570 1.427 . S
C567 H557 0.929 . S
C567 C565 1.433 . S
C567 N570 1.384 . S
C568 H559 0.929 . S
C568 C560 1.378 . S
C568 C563 1.350 . S
C569 H556 0.929 . S
C569 C561 1.433 . S
C569 N571 1.384 . S
N570 C566 1.427 . S
N570 C567 1.384 . S
N571 C563 1.427 . S
N571 C569 1.384 . S
H572 C578 0.930 . S
H573 C582 0.930 . S
H574 C587 0.929 . S
H575 C585 0.929 . S
H576 C580 0.929 . S
H577 C586 0.929 . S
C578 H572 0.930 . S
C578 C579 1.367 . S
C578 C586 1.378 . S
C579 C578 1.367 . S
C579 C587 1.433 . S
C580 H576 0.929 . S
C580 C582 1.378 . S
C580 C584 1.350 . S
C581 C584 1.463 . S
C581 C586 1.350 . S
C581 N589 1.427 . S
C582 H573 0.930 . S
C582 C580 1.378 . S
C582 C583 1.367 . S
C583 C582 1.367 . S
C583 C585 1.433 . S
C584 C580 1.350 . S
C584 C581 1.463 . S
C584 N588 1.427 . S
C585 H575 0.929 . S
C585 C583 1.433 . S
C585 N588 1.384 . S
C586 H577 0.929 . S
C586 C578 1.378 . S
C586 C581 1.350 . S
C587 H574 0.929 . S
C587 C579 1.433 . S
C587 N589 1.384 . S
N588 C584 1.427 . S
N588 C585 1.384 . S
N589 C581 1.427 . S
N589 C587 1.384 . S
H590 C596 0.930 . S
H591 C600 0.930 . S
H592 C605 0.929 . S
H593 C603 0.929 . S
H594 C598 0.929 . S
H595 C604 0.929 . S
C596 H590 0.930 . S
C596 C597 1.367 . S
C596 C604 1.378 . S
C597 C596 1.367 . S
C597 C605 1.433 . S
C598 H594 0.929 . S
C598 C600 1.378 . S
C598 C602 1.350 . S
C599 C602 1.463 . S
C599 C604 1.350 . S
C599 N607 1.427 . S
C600 H591 0.930 . S
C600 C598 1.378 . S
C600 C601 1.367 . S
C601 C600 1.367 . S
C601 C603 1.433 . S
C602 C598 1.350 . S
C602 C599 1.463 . S
C602 N606 1.427 . S
C603 H593 0.929 . S
C603 C601 1.433 . S
C603 N606 1.384 . S
C604 H595 0.929 . S
C604 C596 1.378 . S
C604 C599 1.350 . S
C605 H592 0.929 . S
C605 C597 1.433 . S
C605 N607 1.384 . S
N606 C602 1.427 . S
N606 C603 1.384 . S
N607 C599 1.427 . S
N607 C605 1.384 . S
C183 N4 1.541 . S
C187 C131 1.531 . S
C205 C95 1.533 . S
C201 N15 1.539 . S
C223 C118 1.614 . S
C219 N26 1.604 . S
C241 C106 1.478 . S
C237 N37 1.472 . S
C259 C175 1.529 . S
C255 N48 1.538 . S
C277 C139 1.539 . S
C273 N59 1.543 . S
C291 N70 1.604 . S
C295 C162 1.612 . S
C313 C150 1.479 . S
C309 N81 1.472 . S
C327 C9 1.494 . S
C331 C172 1.536 . S
C349 C142 1.510 . S
C345 C20 1.483 . S
C363 C31 1.580 . S
C367 C161 1.608 . S
C381 C39 1.445 . S
C385 C147 1.451 . S
C403 C128 1.534 . S
C399 C53 1.502 . S
C417 C64 1.479 . S
C421 C98 1.510 . S
C439 C117 1.604 . S
C435 C75 1.587 . S
C457 C103 1.453 . S
C453 C83 1.441 . S
C475 C153 1.525 . S
C471 C6 1.515 . S
C493 C169 1.513 . S
C489 C17 1.502 . S
C507 C28 1.497 . S
C511 C140 1.499 . S
C529 C164 1.489 . S
C525 C42 1.463 . S
C547 C109 1.522 . S
C543 C50 1.519 . S
C561 C61 1.506 . S
C565 C125 1.508 . S
C579 C72 1.497 . S
C583 C96 1.499 . S
C597 C86 1.463 . S
C601 C120 1.490 . S
