# Generated by pormake.
# Topology anh, (6,3)-cn, num edge types: 1
# Building blocks:
#     Node 0, Type 0, BuildingBlock: NUHQIS_clean_sbu_0, # of connection points: 6
#     Node 1, Type 0, BuildingBlock: NUHQIS_clean_sbu_0, # of connection points: 6
#     Node 2, Type 0, BuildingBlock: NUHQIS_clean_sbu_0, # of connection points: 6
#     Node 3, Type 1, BuildingBlock: BETDAH_clean_linker_0, # of connection points: 3
#     Node 4, Type 1, BuildingBlock: BETDAH_clean_linker_0, # of connection points: 3
#     Node 5, Type 1, BuildingBlock: BETDAH_clean_linker_0, # of connection points: 3
#     Node 6, Type 1, BuildingBlock: BETDAH_clean_linker_0, # of connection points: 3
#     Node 7, Type 1, BuildingBlock: BETDAH_clean_linker_0, # of connection points: 3
#     Node 8, Type 1, BuildingBlock: BETDAH_clean_linker_0, # of connection points: 3
#     Edge 9, Type (0, 1), BuildingBlock: MIFKUJ_clean_linker_0, # of connection points: 2
#     Edge 10, Type (0, 1), BuildingBlock: MIFKUJ_clean_linker_0, # of connection points: 2
#     Edge 11, Type (0, 1), BuildingBlock: MIFKUJ_clean_linker_0, # of connection points: 2
#     Edge 12, Type (0, 1), BuildingBlock: MIFKUJ_clean_linker_0, # of connection points: 2
#     Edge 13, Type (0, 1), BuildingBlock: MIFKUJ_clean_linker_0, # of connection points: 2
#     Edge 14, Type (0, 1), BuildingBlock: MIFKUJ_clean_linker_0, # of connection points: 2
#     Edge 15, Type (0, 1), BuildingBlock: MIFKUJ_clean_linker_0, # of connection points: 2
#     Edge 16, Type (0, 1), BuildingBlock: MIFKUJ_clean_linker_0, # of connection points: 2
#     Edge 17, Type (0, 1), BuildingBlock: MIFKUJ_clean_linker_0, # of connection points: 2
#     Edge 18, Type (0, 1), BuildingBlock: MIFKUJ_clean_linker_0, # of connection points: 2
#     Edge 19, Type (0, 1), BuildingBlock: MIFKUJ_clean_linker_0, # of connection points: 2
#     Edge 20, Type (0, 1), BuildingBlock: MIFKUJ_clean_linker_0, # of connection points: 2
#     Edge 21, Type (0, 1), BuildingBlock: MIFKUJ_clean_linker_0, # of connection points: 2
#     Edge 22, Type (0, 1), BuildingBlock: MIFKUJ_clean_linker_0, # of connection points: 2
#     Edge 23, Type (0, 1), BuildingBlock: MIFKUJ_clean_linker_0, # of connection points: 2
#     Edge 24, Type (0, 1), BuildingBlock: MIFKUJ_clean_linker_0, # of connection points: 2
#     Edge 25, Type (0, 1), BuildingBlock: MIFKUJ_clean_linker_0, # of connection points: 2
#     Edge 26, Type (0, 1), BuildingBlock: MIFKUJ_clean_linker_0, # of connection points: 2
# Relax obj value: 0.174
# Max RMSD: 0.140
# Mean RMSD: 0.102
data_MOF--net-anh--node1-NUHQIS_clean_sbu_0--node2-BETDAH_clean_linker_0--edge1-MIFKUJ_clean_linker_0
_symmetry_space_group_name_H-M    P1
_symmetry_Int_Tables_number       1
_symmetry_cell_setting            triclinic
loop_
_symmetry_equiv_pos_as_xyz
'x, y, z'
_cell_length_a     40.538407
_cell_length_b     40.640643
_cell_length_c     64.820855
_cell_angle_alpha  91.817231
_cell_angle_beta   95.438182
_cell_angle_gamma 119.95362
loop_
_atom_site_label
_atom_site_type_symbol
_atom_site_fract_x
_atom_site_fract_y
_atom_site_fract_z
_atom_type_partial_charge
Tb0 Tb 0.13715 0.59428 0.15107 0.0
Eu1 Eu 0.09359 0.6425 0.15348 0.0
C2 C 0.12745 0.62218 0.19407 0.0
C3 C 1.04485 0.54863 0.15518 0.0
C4 C 0.20862 0.56032 0.15661 0.0
C5 C 0.24249 0.53064 0.17272 0.0
C6 C 0.20862 0.53134 0.16777 0.0
C7 C 0.2435 0.58974 0.15129 0.0
C8 C 0.27746 0.58893 0.15615 0.0
C9 C 0.2771 0.55886 0.16649 0.0
C10 C 0.17148 0.55707 0.14925 0.0
O11 O 0.10719 0.58627 0.11999 0.0
O12 O 0.10881 0.64284 0.12075 0.0
O13 O 0.1573 0.68896 0.15914 0.0
O14 O 0.18548 0.65437 0.15033 0.0
C15 C 0.10632 0.61352 0.11018 0.0
O16 O 1.05452 0.65897 0.13823 0.0
O17 O 0.08391 0.68469 0.1692 0.0
O18 O 0.09798 0.62421 0.18554 0.0
O19 O 0.15149 0.62013 0.18271 0.0
O20 O 0.07824 0.54952 0.15681 0.0
O21 O 1.0437 0.58011 0.15182 0.0
C22 C 0.18825 0.6877 0.15557 0.0
O23 O 0.14939 0.55379 0.16335 0.0
O24 O 0.17104 0.57918 0.13518 0.0
C25 C 1.02352 0.67953 0.15963 0.0
C26 C 0.95132 0.66949 0.16529 0.0
C27 C 0.97503 0.69744 0.15292 0.0
C28 C 1.01091 0.70248 0.15017 0.0
C29 C 1.00076 0.65271 0.17278 0.0
C30 C 0.96487 0.64789 0.1757 0.0
C31 C 1.05884 0.68203 0.15406 0.0
H32 H 0.24104 0.5067 0.18034 0.0
H33 H 0.18205 0.50828 0.17193 0.0
H34 H 0.24437 0.6126 0.14277 0.0
H35 H 0.30376 0.61113 0.15125 0.0
H36 H 0.96512 0.71436 0.14473 0.0
H37 H 1.02818 0.72326 0.13995 0.0
H38 H 1.01004 0.63459 0.18009 0.0
H39 H 0.94681 0.62579 0.18507 0.0
Tb40 Tb 0.6294 0.13554 0.4903 0.0
Eu41 Eu 0.53719 0.09226 0.48123 0.0
C42 C 0.57944 0.1009 0.52626 0.0
C43 C 0.58253 1.0428 0.48657 0.0
C44 C 0.73218 0.21201 0.50147 0.0
C45 C 0.79583 0.26135 0.5164 0.0
C46 C 0.76606 0.22359 0.51476 0.0
C47 C 0.72788 0.2387 0.49007 0.0
C48 C 0.75787 0.27658 0.49157 0.0
C49 C 0.79218 0.28819 0.50472 0.0
C50 C 0.70107 0.17246 0.50075 0.0
O51 O 0.62063 0.13943 0.45685 0.0
O52 O 0.55559 0.09835 0.44915 0.0
O53 O 0.55496 0.1551 0.47877 0.0
O54 O 0.6159 0.18218 0.4958 0.0
C55 C 0.58957 0.12008 0.4433 0.0
O56 O 0.48209 1.04525 0.46648 0.0
O57 O 0.48378 0.08963 0.4867 0.0
O58 O 0.55168 0.10354 0.516 0.0
O59 O 0.60835 0.10471 0.51714 0.0
O60 O 0.61493 0.07485 0.48461 0.0
O61 O 0.55048 1.04383 0.4876 0.0
C62 C 0.58624 0.18551 0.48812 0.0
O63 O 0.67603 0.16665 0.5134 0.0
O64 O 0.68482 0.15429 0.48241 0.0
C65 C 0.43334 1.02682 0.4879 0.0
C66 C 0.3813 0.96483 0.50807 0.0
C67 C 0.37267 0.96797 0.4869 0.0
C68 C 0.39845 0.99874 0.47695 0.0
C69 C 0.44147 1.02484 0.50923 0.0
C70 C 0.41553 0.99424 0.51927 0.0
C71 C 0.4623 0.05606 0.4766 0.0
H72 H 0.82221 0.26924 0.52631 0.0
H73 H 0.76958 0.20333 0.52382 0.0
H74 H 0.70149 0.2302 0.47999 0.0
H75 H 0.75441 0.29672 0.48239 0.0
H76 H 0.34704 0.94557 0.47763 0.0
H77 H 0.39187 0.99973 0.46046 0.0
H78 H 0.46843 0.04624 0.51797 0.0
H79 H 0.42294 0.99293 0.5356 0.0
Tb80 Tb 0.60634 0.6212 0.82416 0.0
Eu81 Eu 0.55774 0.53039 0.81263 0.0
C82 C 0.58431 0.56516 0.85865 0.0
C83 C 0.65262 0.57461 0.81995 0.0
C84 C 0.6406 0.71637 0.85165 0.0
C85 C 0.66825 0.76257 0.88201 0.0
C86 C 0.67017 0.73689 0.86806 0.0
C87 C 0.60815 0.72061 0.84996 0.0
C88 C 0.60638 0.74658 0.8638 0.0
C89 C 0.63689 0.76861 0.87966 0.0
C90 C 0.64453 0.69109 0.83653 0.0
O91 O 0.60875 0.61428 0.79066 0.0
O92 O 0.55506 0.55552 0.78259 0.0
O93 O 0.51248 0.5458 0.82052 0.0
O94 O 0.54647 0.61094 0.82074 0.0
C95 C 0.5822 0.58745 0.77681 0.0
O96 O 0.54061 0.47815 0.79334 0.0
O97 O 0.51308 0.4757 0.82088 0.0
O98 O 0.58551 0.54117 0.84538 0.0
O99 O 0.58318 0.59479 0.85215 0.0
O100 O 0.65236 0.60602 0.82587 0.0
O101 O 0.62001 0.54312 0.8128 0.0
C102 C 0.51352 0.57889 0.8215 0.0
O103 O 0.65084 0.66544 0.84452 0.0
O104 O 0.61998 0.67733 0.81959 0.0
C105 C 0.52427 0.42559 0.81343 0.0
C106 C 0.536 0.36737 0.82833 0.0
C107 C 0.56524 0.3984 0.81974 0.0
C108 C 0.55955 0.42734 0.81251 0.0
C109 C 0.49518 0.39502 0.8222 0.0
C110 C 0.50099 0.36618 0.82964 0.0
C111 C 0.51814 0.45635 0.80634 0.0
H112 H 0.69199 0.77872 0.8942 0.0
H113 H 0.69523 0.73365 0.86982 0.0
H114 H 0.58464 0.70473 0.83762 0.0
H115 H 0.58203 0.75083 0.86132 0.0
H116 H 0.59225 0.39989 0.81803 0.0
H117 H 0.5827 0.45092 0.80609 0.0
H118 H 0.46797 0.39351 0.82333 0.0
H119 H 0.47803 0.34288 0.83632 0.0
H120 H 0.54337 0.0515 0.2197 0.0
H121 H 0.6493 0.15591 0.21502 0.0
H122 H 0.58409 0.07837 0.16022 0.0
C123 C 0.56442 0.07073 0.21027 0.0
C124 C 0.55881 0.0601 0.18886 0.0
C125 C 0.59663 0.10486 0.21991 0.0
C126 C 0.62476 0.12963 0.2077 0.0
C127 C 0.62093 0.12091 0.18604 0.0
C128 C 0.58765 0.08563 0.1768 0.0
N129 N 0.64914 0.14636 0.17311 0.0
C130 C 0.68381 0.18261 0.17794 0.0
H131 H 0.59075 0.53979 0.55413 0.0
H132 H 0.58795 0.64375 0.5475 0.0
H133 H 0.58862 0.57904 0.49339 0.0
C134 C 0.58981 0.56034 0.54418 0.0
C135 C 0.58976 0.55456 0.52267 0.0
C136 C 0.5888 0.5919 0.55324 0.0
C137 C 0.5886 0.61954 0.54052 0.0
C138 C 0.58838 0.61563 0.51881 0.0
C139 C 0.58867 0.58257 0.51002 0.0
N140 N 0.5879 0.64371 0.50544 0.0
C141 C 0.58728 0.67827 0.50987 0.0
H142 H 1.01953 0.59245 0.88542 0.0
H143 H 0.12235 0.58822 0.87896 0.0
H144 H 1.0452 0.57546 0.82444 0.0
C145 C 1.03831 0.58979 0.87549 0.0
C146 C 1.02751 0.58406 0.85386 0.0
C147 C 0.07196 0.59097 0.88469 0.0
C148 C 0.09636 0.58689 0.87189 0.0
C149 C 0.08764 0.58162 0.85005 0.0
C150 C 1.05257 0.57972 0.84118 0.0
N151 N 0.11293 0.57819 0.83668 0.0
C152 C 0.1492 0.58027 0.84156 0.0
H153 H 0.20622 0.63711 0.42355 0.0
H154 H 0.18076 0.52413 0.40293 0.0
H155 H 0.19861 0.55819 0.46816 0.0
C156 C 0.20127 0.60921 0.42704 0.0
C157 C 0.20378 0.6012 0.44788 0.0
C158 C 0.19304 0.58172 0.41065 0.0
C159 C 0.18835 0.54619 0.41531 0.0
C160 C 0.19012 0.5377 0.43597 0.0
C161 C 0.19794 0.56524 0.45219 0.0
N162 N 0.1794 0.50001 0.44028 0.0
C163 C 0.14993 0.4815 0.4523 0.0
H164 H 0.61192 0.106 0.74589 0.0
H165 H 0.66306 1.03536 0.74291 0.0
H166 H 0.66863 0.09239 0.80137 0.0
C167 C 0.62733 0.09333 0.75347 0.0
C168 C 0.63927 0.10168 0.77491 0.0
C169 C 0.63525 0.06905 0.74175 0.0
C170 C 0.65652 0.05405 0.75171 0.0
C171 C 0.66816 0.06185 0.77322 0.0
C172 C 0.6592 0.08554 0.78481 0.0
N173 N 0.68856 1.04538 0.78291 0.0
C174 C 0.68876 1.03987 0.80393 0.0
H175 H 0.59017 0.48709 0.07183 0.0
H176 H 0.47978 0.38532 0.05694 0.0
H177 H 0.54185 0.40902 0.11826 0.0
C178 C 0.56714 0.4608 0.07638 0.0
C179 C 0.57036 0.45043 0.09657 0.0
C180 C 0.53463 0.43772 0.06199 0.0
C181 C 0.50532 0.40327 0.0678 0.0
C182 C 0.5077 0.39324 0.08816 0.0
C183 C 0.54011 0.41698 0.10256 0.0
N184 N 0.4759 0.36118 0.09464 0.0
C185 C 0.45764 0.36715 0.11012 0.0
H186 H 0.32345 0.56703 0.13689 0.0
H187 H 0.36676 0.54182 0.13637 0.0
H188 H 0.34991 0.51244 0.19939 0.0
H189 H 0.30628 0.53761 0.20001 0.0
H190 H 0.43083 0.54496 0.15721 0.0
H191 H 0.32647 0.4195 0.19925 0.0
H192 H 0.26027 0.3905 0.20814 0.0
H193 H 0.22717 0.42998 0.15369 0.0
H194 H 0.29292 0.45855 0.14431 0.0
H195 H 0.4931 0.41154 0.14598 0.0
H196 H 0.47035 0.44785 0.16519 0.0
H197 H 0.36428 0.39349 0.12334 0.0
H198 H 0.38671 0.3567 0.10459 0.0
H199 H 0.3513 0.40538 0.16159 0.0
H200 H 0.44188 0.47767 0.11377 0.0
H201 H 0.50494 0.50384 0.10101 0.0
H202 H 0.5607 0.56871 0.15997 0.0
H203 H 0.49795 0.54239 0.17318 0.0
C204 C 0.33011 0.55663 0.15095 0.0
C205 C 0.31089 0.55361 0.16836 0.0
C206 C 0.35496 0.54223 0.15062 0.0
C207 C 0.36092 0.52459 0.16768 0.0
C208 C 0.34523 0.52549 0.18595 0.0
C209 C 0.3202 0.5397 0.18625 0.0
C210 C 0.37714 0.49943 0.16481 0.0
C211 C 0.4138 0.51456 0.15853 0.0
C212 C 0.35457 0.45962 0.16613 0.0
C213 C 0.31468 0.44155 0.17127 0.0
C214 C 0.30498 0.42181 0.18915 0.0
C215 C 0.26755 0.40545 0.19426 0.0
C216 C 0.23957 0.40852 0.18153 0.0
C217 C 0.24888 0.42771 0.16357 0.0
C218 C 0.2862 0.44396 0.15835 0.0
C219 C 0.46439 0.40647 0.14149 0.0
C220 C 0.44127 0.38132 0.1241 0.0
C221 C 0.45157 0.42736 0.1523 0.0
C222 C 0.41586 0.42375 0.14549 0.0
C223 C 0.39186 0.39663 0.1289 0.0
C224 C 0.40458 0.37562 0.11821 0.0
C225 C 0.4049 0.45078 0.15386 0.0
C226 C 0.36902 0.43595 0.16101 0.0
C227 C 0.42778 0.49065 0.15277 0.0
C228 C 0.46529 0.5078 0.14453 0.0
C229 C 0.46761 0.49747 0.12402 0.0
C230 C 0.50328 0.51227 0.11672 0.0
C231 C 0.53682 0.53784 0.12969 0.0
C232 C 0.5347 0.54885 0.14995 0.0
C233 C 0.4991 0.534 0.15735 0.0
H234 H 0.56442 0.54915 0.12405 0.0
H235 H 0.21066 0.39595 0.18555 0.0
H236 H 0.82042 0.32667 0.47115 0.0
H237 H 0.88525 0.3798 0.47043 0.0
H238 H 0.90562 0.38963 0.53748 0.0
H239 H 0.84056 0.33613 0.5383 0.0
H240 H 0.93889 0.45408 0.48688 0.0
H241 H 0.98782 0.38822 0.54935 0.0
H242 H 0.96242 0.32954 0.5676 0.0
H243 H 0.88658 0.26441 0.5124 0.0
H244 H 0.91196 0.3226 0.4938 0.0
H245 H 0.147 0.48226 0.49385 0.0
H246 H 0.08988 0.46689 0.51106 0.0
H247 H 1.02182 0.43833 0.4509 0.0
H248 H 0.07853 0.45357 0.4339 0.0
H249 H 1.02083 0.39932 0.50863 0.0
H250 H 0.95952 0.46992 0.45122 0.0
H251 H 0.98456 0.52691 0.43171 0.0
H252 H 0.0874 0.58288 0.47532 0.0
H253 H 1.0627 0.52656 0.49535 0.0
C254 C 0.83808 0.34117 0.48579 0.0
C255 C 0.8259 0.32676 0.50476 0.0
C256 C 0.87515 0.37163 0.48536 0.0
C257 C 0.90043 0.38798 0.50388 0.0
C258 C 0.88663 0.37695 0.52301 0.0
C259 C 0.84961 0.34631 0.52345 0.0
C260 C 0.94211 0.40976 0.50261 0.0
C261 C 0.95706 0.4425 0.49178 0.0
C262 C 0.96599 0.39506 0.50954 0.0
C263 C 0.95147 0.35974 0.52032 0.0
C264 C 0.96587 0.36131 0.54112 0.0
C265 C 0.95147 0.32817 0.55151 0.0
C266 C 0.92282 0.29329 0.54118 0.0
C267 C 0.90872 0.29144 0.52039 0.0
C268 C 0.92311 0.32447 0.50992 0.0
C269 C 0.11956 0.4721 0.48448 0.0
C270 C 0.11647 0.46831 0.46271 0.0
C271 C 0.08723 0.46372 0.49423 0.0
C272 C 1.05191 0.45223 0.48222 0.0
C273 C 1.04899 0.44791 0.46043 0.0
C274 C 0.08112 0.45605 0.45075 0.0
C275 C 1.01722 0.44278 0.49209 0.0
C276 C 1.00347 0.41214 0.50447 0.0
C277 C 0.99457 0.45945 0.48652 0.0
C278 C 1.00926 0.49383 0.47476 0.0
C279 C 0.98733 0.49447 0.45677 0.0
C280 C 1.0015 0.52667 0.44559 0.0
C281 C 1.03757 0.55847 0.45225 0.0
C282 C 1.0595 0.5582 0.47015 0.0
C283 C 1.04543 0.52612 0.48141 0.0
H284 H 1.04851 0.58333 0.44355 0.0
H285 H 0.91161 0.2677 0.54927 0.0
H286 H 0.69909 0.83959 0.88914 0.0
H287 H 0.69862 0.89727 0.89792 0.0
H288 H 0.57821 0.83164 0.905 0.0
H289 H 0.57852 0.77289 0.89587 0.0
H290 H 0.58531 0.87298 0.87614 0.0
H291 H 0.64516 0.90813 0.94355 0.0
H292 H 0.68771 0.91575 0.97532 0.0
H293 H 0.78623 0.99127 0.94642 0.0
H294 H 0.74449 0.98368 0.91433 0.0
H295 H 0.63463 1.037 0.82605 0.0
H296 H 0.61833 1.0073 0.85881 0.0
H297 H 0.71571 0.99057 0.86117 0.0
H298 H 0.73214 1.02064 0.8287 0.0
H299 H 0.69755 0.99983 0.90126 0.0
H300 H 0.63042 0.92502 0.83175 0.0
H301 H 0.58811 0.91433 0.79918 0.0
H302 H 0.50259 0.91224 0.83439 0.0
H303 H 0.54466 0.92325 0.86714 0.0
C304 C 0.67285 0.83702 0.89355 0.0
C305 C 0.63861 0.80161 0.8913 0.0
C306 C 0.67266 0.87037 0.8988 0.0
C307 C 0.63828 0.86914 0.90207 0.0
C308 C 0.60506 0.83343 0.90243 0.0
C309 C 0.60518 0.79988 0.89702 0.0
C310 C 0.63554 0.90382 0.89896 0.0
C311 C 0.60889 0.90083 0.88243 0.0
C312 C 0.66573 0.94046 0.90721 0.0
C313 C 0.69147 0.94548 0.92648 0.0
C314 C 0.6759 0.92628 0.9439 0.0
C315 C 0.69992 0.93059 0.96199 0.0
C316 C 0.73964 0.95405 0.9629 0.0
C317 C 0.75544 0.97323 0.94572 0.0
C318 C 0.73156 0.96904 0.92758 0.0
C319 C 0.65322 1.02817 0.83407 0.0
C320 C 0.68434 1.03053 0.82505 0.0
C321 C 0.64402 1.01142 0.85277 0.0
C322 C 0.66561 0.99645 0.86232 0.0
C323 C 0.69883 1.00218 0.85416 0.0
C324 C 0.70804 1.019 0.83555 0.0
C325 C 0.64978 0.96763 0.87746 0.0
C326 C 0.67271 0.97208 0.89615 0.0
C327 C 0.61599 0.93217 0.87137 0.0
C328 C 0.5907 0.92533 0.85178 0.0
C329 C 0.60262 0.92238 0.83249 0.0
C330 C 0.57872 0.91629 0.81402 0.0
C331 C 0.54272 0.91271 0.81471 0.0
C332 C 0.53052 0.91512 0.83388 0.0
C333 C 0.55436 0.9213 0.85239 0.0
H334 H 0.52425 0.90799 0.8004 0.0
H335 H 0.75819 0.95732 0.97692 0.0
H336 H 0.91092 0.6629 0.19816 0.0
H337 H 0.84162 0.639 0.19631 0.0
H338 H 0.83162 0.62629 0.1292 0.0
H339 H 0.90038 0.65197 0.13108 0.0
H340 H 0.78381 0.64599 0.13915 0.0
H341 H 0.81998 0.55215 0.16462 0.0
H342 H 0.85516 0.53581 0.19165 0.0
H343 H 0.79388 0.55152 0.23794 0.0
H344 H 0.75888 0.56861 0.21118 0.0
H345 H 0.64331 0.4784 0.08833 0.0
H346 H 0.7023 0.52471 0.11001 0.0
H347 H 0.63719 0.52398 0.15908 0.0
H348 H 0.57729 0.47749 0.13711 0.0
H349 H 0.71354 0.52282 0.16999 0.0
H350 H 0.66152 0.59438 0.13824 0.0
H351 H 0.62819 0.60832 0.10905 0.0
H352 H 0.72003 0.63289 0.07291 0.0
H353 H 0.7535 0.61819 0.10168 0.0
C354 C 0.89378 0.65565 0.18309 0.0
C355 C 0.91075 0.65913 0.16476 0.0
C356 C 0.85429 0.64194 0.18201 0.0
C357 C 0.83115 0.63017 0.16261 0.0
C358 C 0.84867 0.63531 0.14437 0.0
C359 C 0.88802 0.64986 0.14543 0.0
C360 C 0.78853 0.60879 0.1607 0.0
C361 C 0.76837 0.61936 0.14615 0.0
C362 C 0.76794 0.57461 0.17033 0.0
C363 C 0.78717 0.56197 0.18601 0.0
C364 C 0.81398 0.55197 0.18056 0.0
C365 C 0.83397 0.54273 0.19584 0.0
C366 C 0.82687 0.5428 0.21653 0.0
C367 C 0.79944 0.55163 0.22193 0.0
C368 C 0.77955 0.56112 0.20673 0.0
C369 C 0.64151 0.4879 0.10378 0.0
C370 C 0.60582 0.47481 0.11098 0.0
C371 C 0.67517 0.51418 0.11615 0.0
C372 C 0.67388 0.52793 0.13598 0.0
C373 C 0.63855 0.51358 0.14378 0.0
C374 C 0.60455 0.48711 0.13128 0.0
C375 C 0.70986 0.55905 0.14748 0.0
C376 C 0.72864 0.55031 0.16377 0.0
C377 C 0.72932 0.59476 0.13927 0.0
C378 C 0.71006 0.60517 0.12218 0.0
C379 C 0.67457 0.60262 0.12405 0.0
C380 C 0.6556 0.61059 0.10755 0.0
C381 C 0.67195 0.62142 0.08912 0.0
C382 C 0.70738 0.62446 0.08719 0.0
C383 C 0.72641 0.61638 0.10361 0.0
H384 H 0.65719 0.62749 0.07634 0.0
H385 H 0.84264 0.53607 0.22841 0.0
H386 H 0.30283 0.91901 0.50213 0.0
H387 H 0.26717 0.85177 0.50784 0.0
H388 H 0.36915 0.86135 0.54145 0.0
H389 H 0.40557 0.92793 0.53465 0.0
H390 H 0.34718 0.81477 0.50882 0.0
H391 H 0.28268 0.82492 0.56331 0.0
H392 H 0.2466 0.84671 0.58269 0.0
H393 H 0.15158 0.79334 0.53397 0.0
H394 H 0.18725 0.7717 0.51411 0.0
H395 H 0.25308 0.61932 0.4837 0.0
H396 H 0.27606 0.67432 0.50909 0.0
H397 H 0.19951 0.70518 0.47595 0.0
H398 H 0.17543 0.64949 0.4509 0.0
H399 H 0.21186 0.72609 0.51891 0.0
H400 H 0.28469 0.73698 0.46137 0.0
H401 H 0.32047 0.71797 0.43985 0.0
H402 H 0.40006 0.7358 0.4936 0.0
H403 H 0.36429 0.7543 0.51549 0.0
C404 C 0.31749 0.90704 0.51115 0.0
C405 C 0.35733 0.92859 0.51732 0.0
C406 C 0.29685 0.86863 0.51475 0.0
C407 C 0.31554 0.85132 0.52494 0.0
C408 C 0.35417 0.87407 0.53348 0.0
C409 C 0.37496 0.91233 0.52962 0.0
C410 C 0.29791 0.80929 0.52201 0.0
C411 C 0.31807 0.79528 0.51183 0.0
C412 C 0.25954 0.78387 0.52531 0.0
C413 C 0.23777 0.79674 0.53717 0.0
C414 C 0.25419 0.81803 0.55664 0.0
C415 C 0.23378 0.83033 0.56773 0.0
C416 C 0.19683 0.82143 0.55956 0.0
C417 C 0.18019 0.80017 0.54029 0.0
C418 C 0.20048 0.7878 0.52913 0.0
C419 C 0.24023 0.63709 0.4822 0.0
C420 C 0.21312 0.63067 0.46503 0.0
C421 C 0.25336 0.66847 0.49673 0.0
C422 C 0.23985 0.69404 0.4942 0.0
C423 C 0.21032 0.68578 0.47816 0.0
C424 C 0.19707 0.65434 0.46367 0.0
C425 C 0.26107 0.73251 0.50548 0.0
C426 C 0.24152 0.74564 0.51692 0.0
C427 C 0.30001 0.75755 0.50321 0.0
C428 C 0.32153 0.74643 0.4901 0.0
C429 C 0.30962 0.7365 0.46862 0.0
C430 C 0.32991 0.72586 0.45635 0.0
C431 C 0.36244 0.72553 0.46536 0.0
C432 C 0.37479 0.73593 0.48664 0.0
C433 C 0.3545 0.74645 0.499 0.0
H434 H 0.37808 0.71733 0.4558 0.0
H435 H 0.18108 0.83099 0.56817 0.0
H436 H 0.60081 0.37013 0.84743 0.0
H437 H 0.61412 0.31782 0.84715 0.0
H438 H 0.49604 0.23883 0.82294 0.0
H439 H 0.48295 0.29111 0.82199 0.0
H440 H 0.59087 0.24497 0.85862 0.0
H441 H 0.49667 0.19291 0.77939 0.0
H442 H 0.46827 0.2166 0.75261 0.0
H443 H 0.56083 0.33118 0.76992 0.0
H444 H 0.59005 0.30806 0.79651 0.0
H445 H 0.602 0.08859 0.80931 0.0
H446 H 0.5823 0.12995 0.82613 0.0
H447 H 0.63996 0.21513 0.78395 0.0
H448 H 0.65835 0.17344 0.7668 0.0
H449 H 0.57055 0.2011 0.78375 0.0
H450 H 0.67389 0.22593 0.8367 0.0
H451 H 0.70951 0.20875 0.86293 0.0
H452 H 0.6125 0.15927 0.89706 0.0
H453 H 0.5761 0.17572 0.87086 0.0
C454 C 0.57749 0.34151 0.84238 0.0
C455 C 0.54119 0.335 0.83401 0.0
C456 C 0.58502 0.31155 0.84257 0.0
C457 C 0.55626 0.27471 0.83456 0.0
C458 C 0.51871 0.26726 0.82894 0.0
C459 C 0.51128 0.29726 0.82845 0.0
C460 C 0.56731 0.2469 0.82777 0.0
C461 C 0.58611 0.23492 0.84231 0.0
C462 C 0.56199 0.23474 0.80641 0.0
C463 C 0.54521 0.24879 0.79008 0.0
C464 C 0.51099 0.22312 0.77739 0.0
C465 C 0.49477 0.23645 0.76225 0.0
C466 C 0.51266 0.27539 0.75962 0.0
C467 C 0.54694 0.30105 0.77201 0.0
C468 C 0.56334 0.28785 0.7871 0.0
C469 C 0.61079 0.11641 0.80392 0.0
C470 C 0.63125 0.1279 0.78671 0.0
C471 C 0.59969 0.14 0.81353 0.0
C472 C 0.60961 0.17557 0.80625 0.0
C473 C 0.63169 0.18765 0.78969 0.0
C474 C 0.6422 0.16393 0.77992 0.0
C475 C 0.59463 0.1992 0.81451 0.0
C476 C 0.57487 0.21042 0.80015 0.0
C477 C 0.60023 0.21143 0.83591 0.0
C478 C 0.62213 0.20167 0.8517 0.0
C479 C 0.66004 0.2111 0.84971 0.0
C480 C 0.68039 0.20155 0.86459 0.0
C481 C 0.66323 0.18282 0.88162 0.0
C482 C 0.62572 0.17371 0.88384 0.0
C483 C 0.60523 0.18317 0.86899 0.0
H484 H 0.67904 0.17545 0.89312 0.0
H485 H 0.5 0.28566 0.74793 0.0
H486 H 0.64221 1.02715 0.48451 0.0
H487 H 0.64268 0.96763 0.48873 0.0
H488 H 0.5239 0.91144 0.49874 0.0
H489 H 0.52315 0.97078 0.49399 0.0
H490 H 0.52957 0.86011 0.47912 0.0
H491 H 0.69089 0.92382 0.51037 0.0
H492 H 0.74354 0.98132 0.53102 0.0
H493 H 0.66158 0.99999 0.55887 0.0
H494 H 0.60854 0.94242 0.53855 0.0
H495 H 0.5692 0.70614 0.47536 0.0
H496 H 0.56858 0.76574 0.47201 0.0
H497 H 0.6024 0.79509 0.53801 0.0
H498 H 0.60381 0.73538 0.54122 0.0
H499 H 0.63689 0.85911 0.52199 0.0
H500 H 0.50539 0.76261 0.51006 0.0
H501 H 0.44892 0.70286 0.49379 0.0
H502 H 0.46383 0.74792 0.43419 0.0
H503 H 0.52089 0.80773 0.45004 0.0
C504 C 0.61597 1.00225 0.48756 0.0
C505 C 0.58263 1.00493 0.4888 0.0
C506 C 0.61633 0.96766 0.4902 0.0
C507 C 0.58349 0.93366 0.49452 0.0
C508 C 0.55002 0.93624 0.49548 0.0
C509 C 0.54962 0.97082 0.49277 0.0
C510 C 0.5839 0.89597 0.4979 0.0
C511 C 0.5534 0.86042 0.48843 0.0
C512 C 0.61395 0.89434 0.51049 0.0
C513 C 0.64572 0.92894 0.52281 0.0
C514 C 0.68411 0.94011 0.52096 0.0
C515 C 0.71404 0.97274 0.53259 0.0
C516 C 0.70592 0.99434 0.54622 0.0
C517 C 0.66785 0.98329 0.54828 0.0
C518 C 0.63785 0.95067 0.53671 0.0
C519 C 0.57635 0.72506 0.48928 0.0
C520 C 0.5862 0.71492 0.50861 0.0
C521 C 0.57578 0.75963 0.48736 0.0
C522 C 0.5847 0.7861 0.50473 0.0
C523 C 0.59512 0.77613 0.5241 0.0
C524 C 0.59575 0.74142 0.52601 0.0
C525 C 0.58326 0.82355 0.50259 0.0
C526 C 0.61337 0.85896 0.51244 0.0
C527 C 0.55245 0.82498 0.49073 0.0
C528 C 0.5177 0.78947 0.4812 0.0
C529 C 0.49678 0.75969 0.49346 0.0
C530 C 0.46472 0.72579 0.48431 0.0
C531 C 0.45298 0.7215 0.46295 0.0
C532 C 0.47309 0.75123 0.45072 0.0
C533 C 0.5053 0.78514 0.45978 0.0
H534 H 0.42817 0.69521 0.45589 0.0
H535 H 0.72912 1.01961 0.55519 0.0
H536 H 0.72714 0.6353 0.83149 0.0
H537 H 0.7882 0.63606 0.83552 0.0
H538 H 0.72841 0.51536 0.81752 0.0
H539 H 0.66698 0.51446 0.81362 0.0
H540 H 0.78373 0.52875 0.84735 0.0
H541 H 0.78698 0.5889 0.78482 0.0
H542 H 0.78351 0.63533 0.76247 0.0
H543 H 0.87744 0.7275 0.80216 0.0
H544 H 0.88115 0.68161 0.82492 0.0
H545 H 0.95718 0.52348 0.8348 0.0
H546 H 0.89487 0.52068 0.82795 0.0
H547 H 0.94919 0.63972 0.84928 0.0
H548 H 1.01108 0.64225 0.85637 0.0
H549 H 0.89628 0.62591 0.81678 0.0
H550 H 0.89269 0.56672 0.87949 0.0
H551 H 0.89697 0.52098 0.90209 0.0
H552 H 0.80444 0.4277 0.86229 0.0
H553 H 0.79996 0.47292 0.83928 0.0
C554 C 0.72662 0.60874 0.82825 0.0
C555 C 0.69107 0.57486 0.82202 0.0
C556 C 0.76217 0.60923 0.83048 0.0
C557 C 0.76434 0.57588 0.82661 0.0
C558 C 0.72875 0.54186 0.82066 0.0
C559 C 0.69312 0.54139 0.8183 0.0
C560 C 0.80318 0.57656 0.82884 0.0
C561 C 0.80794 0.54977 0.84029 0.0
C562 C 0.83625 0.60416 0.82028 0.0
C563 C 0.83407 0.63183 0.80669 0.0
C564 C 0.8067 0.61908 0.78887 0.0
C565 C 0.80472 0.6453 0.77611 0.0
C566 C 0.83016 0.68435 0.78092 0.0
C567 C 0.8577 0.69725 0.79848 0.0
C568 C 0.85978 0.67115 0.8113 0.0
C569 C 0.95616 0.54934 0.83759 0.0
C570 C 0.99014 0.58335 0.84576 0.0
C571 C 0.92001 0.54764 0.83392 0.0
C572 C 0.91605 0.57992 0.83814 0.0
C573 C 0.95032 0.61412 0.84568 0.0
C574 C 0.98621 0.61564 0.84966 0.0
C575 C 0.87675 0.57813 0.83523 0.0
C576 C 0.87197 0.60479 0.82373 0.0
C577 C 0.84373 0.55047 0.84376 0.0
C578 C 0.84629 0.52318 0.85752 0.0
C579 C 0.87346 0.53644 0.87546 0.0
C580 C 0.87589 0.51062 0.88836 0.0
C581 C 0.85107 0.47145 0.88359 0.0
C582 C 0.8237 0.45804 0.86594 0.0
C583 C 0.82119 0.48376 0.85296 0.0
H584 H 0.85297 0.45149 0.89361 0.0
H585 H 0.8286 0.7046 0.77102 0.0
H586 H 0.26286 0.70006 0.15468 0.0
H587 H 0.32452 0.76047 0.15851 0.0
H588 H 0.26538 0.82275 0.16509 0.0
H589 H 0.20392 0.76262 0.16127 0.0
H590 H 0.32026 0.86226 0.14265 0.0
H591 H 0.32236 0.80986 0.20739 0.0
H592 H 0.31882 0.76145 0.2305 0.0
H593 H 0.41476 0.76367 0.20618 0.0
H594 H 0.41856 0.81177 0.18271 0.0
H595 H 0.48376 1.04451 0.18374 0.0
H596 H 0.4238 0.98293 0.17683 0.0
H597 H 0.48858 0.92641 0.17029 0.0
H598 H 0.5488 0.98845 0.17723 0.0
H599 H 0.43183 0.88317 0.1917 0.0
H600 H 0.43064 0.93684 0.12751 0.0
H601 H 0.43382 0.98502 0.10433 0.0
H602 H 0.33588 0.98022 0.12751 0.0
H603 H 0.33241 0.93235 0.15105 0.0
C604 C 0.26271 0.72649 0.15695 0.0
C605 C 0.22732 0.72538 0.15765 0.0
C606 C 0.29854 0.76158 0.1593 0.0
C607 C 0.301 0.79753 0.16241 0.0
C608 C 0.26555 0.79633 0.16278 0.0
C609 C 0.22984 0.76134 0.16062 0.0
C610 C 0.33976 0.83596 0.1652 0.0
C611 C 0.34429 0.86662 0.15364 0.0
C612 C 0.37261 0.84294 0.17907 0.0
C613 C 0.37046 0.81408 0.19313 0.0
C614 C 0.34252 0.7998 0.20686 0.0
C615 C 0.34049 0.77246 0.22004 0.0
C616 C 0.36647 0.7594 0.21976 0.0
C617 C 0.39461 0.77375 0.20635 0.0
C618 C 0.39672 0.80107 0.19311 0.0
C619 C 0.48543 1.0192 0.18019 0.0
C620 C 0.52193 1.02251 0.18036 0.0
C621 C 0.45064 0.98341 0.1763 0.0
C622 C 0.45027 0.94865 0.17264 0.0
C623 C 0.48685 0.95193 0.17286 0.0
C624 C 0.52174 0.98791 0.17656 0.0
C625 C 0.41226 0.90951 0.1692 0.0
C626 C 0.40784 0.87876 0.18066 0.0
C627 C 0.37947 0.90243 0.15524 0.0
C628 C 0.38152 0.9313 0.1412 0.0
C629 C 0.40997 0.94629 0.12779 0.0
C630 C 0.41179 0.9735 0.11457 0.0
C631 C 0.38513 0.98575 0.11449 0.0
C632 C 0.35655 0.97075 0.12762 0.0
C633 C 0.35462 0.94356 0.14089 0.0
H634 H 0.38658 1.0068 0.10423 0.0
H635 H 0.36487 0.73824 0.22999 0.0
H636 H 0.52916 0.20306 0.47615 0.0
H637 H 0.53 0.26353 0.48051 0.0
H638 H 0.64694 0.31828 0.50985 0.0
H639 H 0.64582 0.25734 0.5059 0.0
H640 H 0.61619 0.3491 0.52962 0.0
H641 H 0.61263 0.33047 0.45599 0.0
H642 H 0.58784 0.29639 0.42089 0.0
H643 H 0.48034 0.29152 0.42472 0.0
H644 H 0.50434 0.32518 0.45996 0.0
H645 H 0.64897 0.53941 0.53013 0.0
H646 H 0.64979 0.4804 0.52276 0.0
H647 H 0.53375 0.42714 0.49214 0.0
H648 H 0.53386 0.48733 0.49868 0.0
H649 H 0.56382 0.39531 0.47278 0.0
H650 H 0.56813 0.41454 0.54664 0.0
H651 H 0.59422 0.45045 0.58119 0.0
H652 H 0.7011 0.45414 0.57693 0.0
H653 H 0.67588 0.41898 0.54209 0.0
C654 C 0.55533 0.22785 0.48347 0.0
C655 C 0.58747 0.2242 0.4905 0.0
C656 C 0.5559 0.26315 0.48587 0.0
C657 C 0.58881 0.29719 0.49526 0.0
C658 C 0.62086 0.29346 0.50248 0.0
C659 C 0.62027 0.25807 0.50011 0.0
C660 C 0.58963 0.3359 0.49784 0.0
C661 C 0.60512 0.3591 0.51694 0.0
C662 C 0.57463 0.35015 0.48187 0.0
C663 C 0.56015 0.33 0.46069 0.0
C664 C 0.58361 0.32191 0.4494 0.0
C665 C 0.56972 0.3027 0.42947 0.0
C666 C 0.5325 0.2917 0.4206 0.0
C667 C 0.50914 0.3 0.43162 0.0
C668 C 0.52288 0.31917 0.45157 0.0
C669 C 0.62378 0.51548 0.5214 0.0
C670 C 0.59165 0.5193 0.51475 0.0
C671 C 0.62393 0.48087 0.51746 0.0
C672 C 0.59138 0.44736 0.50731 0.0
C673 C 0.55955 0.45151 0.50008 0.0
C674 C 0.55965 0.4865 0.50375 0.0
C675 C 0.59044 0.40856 0.50457 0.0
C676 C 0.57487 0.38531 0.48546 0.0
C677 C 0.6054 0.39423 0.52054 0.0
C678 C 0.62023 0.41445 0.54168 0.0
C679 C 0.59724 0.42314 0.55305 0.0
C680 C 0.61191 0.4434 0.57268 0.0
C681 C 0.64935 0.45463 0.58126 0.0
C682 C 0.67213 0.44548 0.57025 0.0
C683 C 0.65768 0.42541 0.55055 0.0
H684 H 0.66075 0.47039 0.59644 0.0
H685 H 0.5218 0.27683 0.40517 0.0
H686 H 0.4408 0.51921 0.82655 0.0
H687 H 0.38187 0.51998 0.83076 0.0
H688 H 0.44083 0.6411 0.82586 0.0
H689 H 0.5004 0.64053 0.82228 0.0
H690 H 0.39465 0.63031 0.85249 0.0
H691 H 0.36785 0.56444 0.78506 0.0
H692 H 0.36204 0.51531 0.75926 0.0
H693 H 0.27965 0.42736 0.7923 0.0
H694 H 0.28531 0.47596 0.81845 0.0
H695 H 0.22103 0.64154 0.83834 0.0
H696 H 0.28136 0.64226 0.83535 0.0
H697 H 0.22429 0.52144 0.84123 0.0
H698 H 0.16376 0.52079 0.8438 0.0
H699 H 0.26973 0.53258 0.81399 0.0
H700 H 0.29658 0.59918 0.88137 0.0
H701 H 0.30276 0.64873 0.907 0.0
H702 H 0.38523 0.73595 0.87364 0.0
H703 H 0.37919 0.68691 0.84766 0.0
C704 C 0.44154 0.54619 0.82625 0.0
C705 C 0.47634 0.57974 0.82382 0.0
C706 C 0.40714 0.54658 0.82854 0.0
C707 C 0.40524 0.58048 0.82824 0.0
C708 C 0.4402 0.61417 0.82612 0.0
C709 C 0.47477 0.61382 0.82395 0.0
C710 C 0.36747 0.58083 0.83031 0.0
C711 C 0.36761 0.60908 0.84373 0.0
C712 C 0.33087 0.55308 0.81953 0.0
C713 C 0.32729 0.52382 0.80382 0.0
C714 C 0.34867 0.53461 0.78689 0.0
C715 C 0.34538 0.50686 0.77219 0.0
C716 C 0.32057 0.46824 0.77417 0.0
C717 C 0.2989 0.45728 0.79081 0.0
C718 C 0.30211 0.48492 0.80556 0.0
C719 C 0.22131 0.61512 0.83933 0.0
C720 C 0.18696 0.58123 0.84173 0.0
C721 C 0.25634 0.61551 0.83765 0.0
C722 C 0.25896 0.58199 0.83834 0.0
C723 C 0.22435 0.54806 0.84065 0.0
C724 C 0.18932 0.5477 0.84232 0.0
C725 C 0.29688 0.58201 0.83621 0.0
C726 C 0.29677 0.55381 0.82276 0.0
C727 C 0.3335 0.60988 0.84691 0.0
C728 C 0.33712 0.63939 0.86246 0.0
C729 C 0.31582 0.62894 0.87942 0.0
C730 C 0.31933 0.65693 0.89402 0.0
C731 C 0.34429 0.69547 0.89192 0.0
C732 C 0.36586 0.70609 0.87523 0.0
C733 C 0.36242 0.67821 0.86057 0.0
H734 H 0.34698 0.7171 0.90324 0.0
H735 H 0.31806 0.4468 0.76277 0.0
H736 H 0.97027 0.53497 0.15743 0.0
H737 H 0.91139 0.47541 0.16172 0.0
H738 H 0.97393 0.41544 0.16293 0.0
H739 H 1.03282 0.47496 0.15859 0.0
H740 H 0.90676 0.36871 0.1421 0.0
H741 H 0.94115 0.44276 0.20719 0.0
H742 H 0.95574 0.49662 0.23223 0.0
H743 H 0.84327 0.47998 0.21469 0.0
H744 H 0.8287 0.42745 0.18886 0.0
H745 H 0.757 0.19503 0.1763 0.0
H746 H 0.81653 0.25478 0.17311 0.0
H747 H 0.75539 0.31605 0.17447 0.0
H748 H 0.69596 0.25616 0.17806 0.0
H749 H 0.82222 0.36197 0.19416 0.0
H750 H 0.78937 0.29134 0.12763 0.0
H751 H 0.77353 0.23652 0.10296 0.0
H752 H 0.8815 0.24525 0.12407 0.0
H753 H 0.89779 0.29987 0.14905 0.0
C754 C 0.97183 0.50926 0.1586 0.0
C755 C 1.00746 0.51094 0.15761 0.0
C756 C 0.93761 0.47464 0.16123 0.0
C757 C 0.93691 0.43956 0.16301 0.0
C758 C 0.9724 0.44117 0.1617 0.0
C759 C 1.00667 0.47582 0.15924 0.0
C760 C 0.89981 0.40171 0.1661 0.0
C761 C 0.8888 0.36758 0.15375 0.0
C762 C 0.87457 0.39864 0.18088 0.0
C763 C 0.88403 0.43145 0.19582 0.0
C764 C 0.9198 0.4511 0.20837 0.0
C765 C 0.92811 0.48149 0.2227 0.0
C766 C 0.90062 0.49208 0.22491 0.0
C767 C 0.86481 0.47228 0.21278 0.0
C768 C 0.85655 0.44227 0.19822 0.0
C769 C 0.75611 0.22122 0.17614 0.0
C770 C 0.72094 0.22 0.17771 0.0
C771 C 0.79058 0.25589 0.17401 0.0
C772 C 0.79177 0.29133 0.17304 0.0
C773 C 0.75658 0.29007 0.17504 0.0
C774 C 0.72209 0.25534 0.17717 0.0
C775 C 0.82903 0.32916 0.17006 0.0
C776 C 0.84014 0.36322 0.18247 0.0
C777 C 0.85431 0.33223 0.1553 0.0
C778 C 0.84461 0.29942 0.14035 0.0
C779 C 0.80961 0.28139 0.12711 0.0
C780 C 0.80057 0.25039 0.11306 0.0
C781 C 0.82644 0.23734 0.11199 0.0
C782 C 0.86146 0.25535 0.12494 0.0
C783 C 0.87062 0.28634 0.13903 0.0
H784 H 0.81939 0.21334 0.1011 0.0
H785 H 0.90697 0.51542 0.23612 0.0
H786 H 0.11136 0.56262 0.08372 0.0
H787 H 0.10736 0.55953 0.04575 0.0
H788 H 0.08987 0.65579 0.04582 0.0
H789 H 0.09391 0.65916 0.08388 0.0
H790 H 1.04012 0.59826 0.01537 0.0
H791 H 0.17587 0.66748 0.03851 0.0
H792 H 0.23587 0.67782 0.05821 0.0
H793 H 0.22163 0.57675 0.02595 0.0
H794 H 0.16121 0.56549 0.00626 0.0
H795 H 1.06813 0.64158 0.91189 0.0
H796 H 0.07591 0.64567 0.94988 0.0
H797 H 0.10294 0.55565 0.94841 0.0
H798 H 0.0955 0.55168 0.91023 0.0
H799 H 0.14742 0.60846 0.97964 0.0
H800 H 1.013 0.53825 0.95648 0.0
H801 H 0.95243 0.52587 0.93651 0.0
H802 H 0.96235 0.62496 0.96876 0.0
H803 H 1.02335 0.6383 0.9887 0.0
C804 C 0.10657 0.58314 0.07571 0.0
C805 C 0.10303 0.61121 0.08697 0.0
C806 C 0.10446 0.58142 0.05394 0.0
C807 C 0.09864 0.60762 0.04283 0.0
C808 C 0.09443 0.63527 0.05398 0.0
C809 C 0.09687 0.63723 0.07579 0.0
C810 C 0.09702 0.60621 0.01963 0.0
C811 C 1.0638 0.60102 0.00759 0.0
C812 C 0.12739 0.60861 0.00933 0.0
C813 C 0.16382 0.61544 0.02106 0.0
C814 C 0.18537 0.64729 0.03573 0.0
C815 C 0.21948 0.65335 0.04688 0.0
C816 C 0.2325 0.6279 0.04337 0.0
C817 C 0.21148 0.5964 0.02867 0.0
C818 C 0.17732 0.59019 0.0175 0.0
C819 C 0.07582 0.62267 0.91963 0.0
C820 C 0.08074 0.59598 0.90793 0.0
C821 C 0.0802 0.62499 0.94141 0.0
C822 C 0.08918 0.6004 0.95215 0.0
C823 C 0.0958 0.57484 0.94057 0.0
C824 C 0.09164 0.57265 0.91871 0.0
C825 C 0.09061 0.60081 0.97535 0.0
C826 C 0.12371 0.6057 0.9874 0.0
C827 C 1.05995 0.59772 0.98567 0.0
C828 C 1.02295 0.58948 0.97395 0.0
C829 C 1.0024 0.55755 0.95923 0.0
C830 C 0.96798 0.55034 0.94792 0.0
C831 C 0.9536 0.57467 0.95133 0.0
C832 C 0.97356 0.60617 0.96612 0.0
C833 C 1.00805 0.61356 0.97744 0.0
H834 H 0.92697 0.56906 0.94254 0.0
H835 H 0.25892 0.63264 0.05202 0.0
H836 H 0.53172 0.09595 0.41082 0.0
H837 H 0.53671 0.09757 0.37361 0.0
H838 H 0.65972 0.14977 0.38656 0.0
H839 H 0.65501 0.14944 0.42396 0.0
H840 H 0.64463 0.18119 0.35558 0.0
H841 H 0.59842 0.05185 0.36936 0.0
H842 H 0.55631 0.99029 0.38275 0.0
H843 H 0.45948 0.9785 0.34288 0.0
H844 H 0.50092 1.04027 0.32944 0.0
H845 H 0.66091 0.13352 0.24928 0.0
H846 H 0.66379 0.14049 0.28732 0.0
H847 H 0.54284 0.10208 0.28081 0.0
H848 H 0.53991 0.09582 0.24305 0.0
H849 H 0.561 0.06326 0.30871 0.0
H850 H 0.61 0.19499 0.29553 0.0
H851 H 0.65446 0.25555 0.282 0.0
H852 H 0.74944 0.26087 0.3206 0.0
H853 H 0.70558 0.20003 0.33415 0.0
C854 C 0.55992 0.10788 0.40582 0.0
C855 C 0.59293 0.12232 0.42053 0.0
C856 C 0.56273 0.1086 0.38442 0.0
C857 C 0.59855 0.12302 0.37703 0.0
C858 C 0.63168 0.13831 0.3917 0.0
C859 C 0.62892 0.13803 0.41316 0.0
C860 C 0.60122 0.12177 0.35407 0.0
C861 C 0.6267 0.15519 0.34542 0.0
C862 C 0.57775 0.08808 0.34053 0.0
C863 C 0.55273 0.05086 0.34853 0.0
C864 C 0.56809 1.03626 0.36355 0.0
C865 C 0.54435 1.00131 0.37114 0.0
C866 C 0.50523 0.98054 0.36371 0.0
C867 C 0.48978 0.99464 0.34864 0.0
C868 C 0.51339 1.0296 0.34102 0.0
C869 C 0.6351 0.12728 0.25593 0.0
C870 C 0.60008 0.11366 0.24298 0.0
C871 C 0.63674 0.13113 0.27773 0.0
C872 C 0.60345 0.12159 0.28706 0.0
C873 C 0.56886 0.10925 0.27411 0.0
C874 C 0.56724 0.1056 0.25244 0.0
C875 C 0.60383 0.12275 0.31023 0.0
C876 C 0.57899 0.0892 0.31891 0.0
C877 C 0.62823 0.15614 0.32376 0.0
C878 C 0.65457 0.19276 0.31568 0.0
C879 C 0.64041 0.20891 0.301 0.0
C880 C 0.66549 0.24332 0.29335 0.0
C881 C 0.70477 0.26199 0.30039 0.0
C882 C 0.71902 0.24634 0.31513 0.0
C883 C 0.69406 0.21192 0.32282 0.0
H884 H 0.72414 0.28862 0.29445 0.0
H885 H 0.48689 0.95349 0.3696 0.0
H886 H 0.63275 0.64934 0.75734 0.0
H887 H 0.63553 0.65447 0.71981 0.0
H888 H 0.53744 0.541 0.70714 0.0
H889 H 0.53454 0.53558 0.74432 0.0
H890 H 0.59279 0.54941 0.68484 0.0
H891 H 0.53084 0.62105 0.69899 0.0
H892 H 0.52492 0.67216 0.71664 0.0
H893 H 0.62846 0.75669 0.69488 0.0
H894 H 0.63528 0.70602 0.67733 0.0
H895 H 0.54232 0.53663 0.57684 0.0
H896 H 0.54287 0.53984 0.61454 0.0
H897 H 0.63399 0.65734 0.6198 0.0
H898 H 0.63265 0.65445 0.58178 0.0
H899 H 0.58765 0.65069 0.64647 0.0
H900 H 0.64849 0.57919 0.63114 0.0
H901 H 0.65663 0.52818 0.61518 0.0
H902 H 0.55722 0.44365 0.64018 0.0
H903 H 0.54809 0.49404 0.65599 0.0
C904 C 0.61161 0.62556 0.74657 0.0
C905 C 0.58343 0.59203 0.75401 0.0
C906 C 0.61315 0.62859 0.72506 0.0
C907 C 0.58658 0.59817 0.71049 0.0
C908 C 0.55835 0.56489 0.71794 0.0
C909 C 0.55668 0.5619 0.73933 0.0
C910 C 0.58861 0.60001 0.68753 0.0
C911 C 0.5912 0.57133 0.67643 0.0
C912 C 0.58788 0.62928 0.67653 0.0
C913 C 0.5838 0.65974 0.68705 0.0
C914 C 0.55252 0.65053 0.69812 0.0
C915 C 0.54897 0.67942 0.70807 0.0
C916 C 0.57636 0.71765 0.70693 0.0
C917 C 0.60731 0.72706 0.69578 0.0
C918 C 0.61102 0.69827 0.68582 0.0
C919 C 0.56249 0.56321 0.586 0.0
C920 C 0.58771 0.59518 0.57624 0.0
C921 C 0.56295 0.56497 0.60766 0.0
C922 C 0.5892 0.59854 0.62032 0.0
C923 C 0.61359 0.63095 0.61054 0.0
C924 C 0.61279 0.62933 0.58876 0.0
C925 C 0.59108 0.59953 0.64364 0.0
C926 C 0.58938 0.6288 0.65484 0.0
C927 C 0.59278 0.57081 0.65482 0.0
C928 C 0.59747 0.54042 0.64464 0.0
C929 C 0.62812 0.5497 0.63304 0.0
C930 C 0.63295 0.52089 0.62406 0.0
C931 C 0.60749 0.48272 0.62672 0.0
C932 C 0.57694 0.47323 0.63817 0.0
C933 C 0.57192 0.5019 0.64714 0.0
H934 H 0.61148 0.46045 0.62002 0.0
H935 H 0.57355 0.73997 0.71465 0.0
H936 H 0.62979 0.08797 0.55031 0.0
H937 H 0.62749 0.0715 0.58603 0.0
H938 H 0.52239 0.07365 0.58739 0.0
H939 H 0.52454 0.09059 0.55133 0.0
H940 H 0.57335 0.11269 0.62137 0.0
H941 H 0.51919 0.98969 0.58687 0.0
H942 H 0.51162 0.93883 0.56177 0.0
H943 H 0.61876 0.95238 0.58928 0.0
H944 H 0.62735 1.00381 0.61438 0.0
H945 H 0.56482 0.0512 0.72242 0.0
H946 H 0.54516 1.04582 0.68507 0.0
H947 H 0.65424 0.06081 0.6726 0.0
H948 H 0.67447 0.06691 0.71004 0.0
H949 H 0.5896 1.00553 0.64406 0.0
H950 H 0.6455 0.13566 0.67531 0.0
H951 H 0.64975 0.18428 0.7009 0.0
H952 H 0.5339 0.15396 0.67896 0.0
H953 H 0.52877 0.10468 0.65346 0.0
C954 C 0.60603 0.08488 0.55809 0.0
C955 C 0.57738 0.09074 0.54797 0.0
C956 C 0.60462 0.07511 0.5785 0.0
C957 C 0.57448 0.07078 0.58925 0.0
C958 C 0.54577 0.07664 0.57928 0.0
C959 C 0.54708 0.08636 0.55872 0.0
C960 C 0.57473 0.0624 0.61129 0.0
C961 C 0.57596 0.08874 0.62629 0.0
C962 C 0.57861 1.03138 0.6177 0.0
C963 C 0.57399 1.00079 0.60248 0.0
C964 C 0.54134 0.9821 0.58747 0.0
C965 C 0.53682 0.95311 0.57326 0.0
C966 C 0.56465 0.94234 0.57397 0.0
C967 C 0.59718 0.9607 0.5888 0.0
C968 C 0.60187 0.98976 0.60304 0.0
C969 C 0.58456 0.05311 0.71172 0.0
C970 C 0.62148 0.06019 0.71915 0.0
C971 C 0.57316 0.04977 0.69042 0.0
C972 C 0.59845 0.05339 0.67617 0.0
C973 C 0.63434 0.05791 0.68342 0.0
C974 C 0.64585 0.06138 0.70478 0.0
C975 C 0.58905 0.05626 0.65396 0.0
C976 C 0.58625 1.029 0.63902 0.0
C977 C 0.58329 0.08618 0.64756 0.0
C978 C 0.5866 0.11621 0.66266 0.0
C979 C 0.62084 0.13917 0.67605 0.0
C980 C 0.62342 0.16686 0.69053 0.0
C981 C 0.59208 0.17213 0.6916 0.0
C982 C 0.55813 0.14979 0.67814 0.0
C983 C 0.55537 0.12199 0.66368 0.0
H984 H 0.59412 0.19357 0.70282 0.0
H985 H 0.5609 0.91965 0.56307 0.0
H986 H 0.56963 0.49855 0.87432 0.0
H987 H 0.55797 0.48117 0.9096 0.0
H988 H 0.57715 0.59292 0.92785 0.0
H989 H 0.58855 0.61071 0.89221 0.0
H990 H 0.61468 0.56318 0.95653 0.0
H991 H 0.49118 0.52899 0.92134 0.0
H992 H 0.43833 0.49993 0.8924 0.0
H993 H 0.42373 0.38953 0.90175 0.0
H994 H 0.47697 0.41804 0.93055 0.0
H995 H 0.54758 0.50774 0.05294 0.0
H996 H 0.55166 0.53208 0.01872 0.0
H997 H 0.51995 0.42147 0.98977 0.0
H998 H 0.51555 0.39684 0.02411 0.0
H999 H 0.48686 0.45559 0.96707 0.0
H1000 H 0.61286 0.48927 -0.00053 0.0
H1001 H 0.66646 0.51683 0.02804 0.0
H1002 H 0.6772 0.62687 0.02357 0.0
H1003 H 0.62327 0.59982 -0.00489 0.0
C1004 C 0.57167 0.51966 0.8858 0.0
C1005 C 0.57988 0.55602 0.88045 0.0
C1006 C 0.56486 0.50957 0.90595 0.0
C1007 C 0.56636 0.53565 0.9212 0.0
C1008 C 0.57577 0.57243 0.9162 0.0
C1009 C 0.58217 0.58247 0.89588 0.0
C1010 C 0.55718 0.52365 0.94218 0.0
C1011 C 0.58655 0.54023 0.95898 0.0
C1012 C 0.52069 0.4931 0.94514 0.0
C1013 C 0.48829 0.47571 0.92801 0.0
C1014 C 0.47691 0.49855 0.91713 0.0
C1015 C 0.44685 0.48218 0.90076 0.0
C1016 C 0.42773 0.44292 0.89521 0.0
C1017 C 0.43858 0.41994 0.90606 0.0
C1018 C 0.46868 0.43619 0.92242 0.0
C1019 C 0.54114 0.48854 0.03925 0.0
C1020 C 0.53181 0.45057 0.04113 0.0
C1021 C 0.54346 0.50246 0.01974 0.0
C1022 C 0.53685 0.47878 0.00178 0.0
C1023 C 0.5253 0.44023 0.00349 0.0
C1024 C 0.52276 0.42618 0.02305 0.0
C1025 C 0.54445 0.49487 0.98143 0.0
C1026 C 0.51484 0.47893 0.96472 0.0
C1027 C 0.5808 0.52589 0.97853 0.0
C1028 C 0.6138 0.54245 -0.0047 0.0
C1029 C 0.62652 0.5193 0.00465 0.0
C1030 C 0.65696 0.53483 0.02081 0.0
C1031 C 0.67516 0.57355 0.02764 0.0
C1032 C 0.66304 0.59687 0.01827 0.0
C1033 C 0.63256 0.58146 0.00211 0.0
H1034 H 0.69872 0.5855 0.04016 0.0
H1035 H 0.40447 0.43029 0.88253 0.0
H1036 H 0.09469 0.64041 0.22434 0.0
H1037 H 0.10438 0.6363 0.26195 0.0
H1038 H 0.18281 0.59633 0.25245 0.0
H1039 H 0.17381 0.60073 0.21514 0.0
H1040 H 0.1245 0.55157 0.27739 0.0
H1041 H 0.21947 0.683 0.27089 0.0
H1042 H 0.24101 0.74791 0.26068 0.0
H1043 H 0.16738 0.75936 0.30018 0.0
H1044 H 0.14499 0.69424 0.3104 0.0
H1045 H 0.2181 0.56388 0.37659 0.0
H1046 H 0.20481 0.57303 0.34029 0.0
H1047 H 0.14112 0.62556 0.35891 0.0
H1048 H 0.1541 0.61632 0.39522 0.0
H1049 H 0.18626 0.66389 0.32978 0.0
H1050 H 0.09367 0.53526 0.33813 0.0
H1051 H 1.07011 0.47007 0.34837 0.0
H1052 H 0.13529 0.45229 0.3054 0.0
H1053 H 0.15973 0.51763 0.29512 0.0
C1054 C 0.1141 0.63091 0.23031 0.0
C1055 C 0.13356 0.62099 0.2168 0.0
C1056 C 0.11964 0.62866 0.25175 0.0
C1057 C 0.14431 0.61603 0.25987 0.0
C1058 C 0.16363 0.60608 0.24642 0.0
C1059 C 0.15856 0.60881 0.22512 0.0
C1060 C 0.14982 0.61247 0.28237 0.0
C1061 C 0.13827 0.57612 0.28886 0.0
C1062 C 0.16669 0.64443 0.29729 0.0
C1063 C 0.1802 0.68359 0.2912 0.0
C1064 C 0.20759 0.69921 0.27724 0.0
C1065 C 0.22002 0.73607 0.27148 0.0
C1066 C 0.20547 0.7577 0.27972 0.0
C1067 C 0.17856 0.74254 0.29378 0.0
C1068 C 0.16601 0.70567 0.29956 0.0
C1069 C 0.20122 0.57731 0.37294 0.0
C1070 C 0.18705 0.58924 0.38876 0.0
C1071 C 0.19368 0.58256 0.35222 0.0
C1072 C 0.17156 0.59954 0.3469 0.0
C1073 C 0.15826 0.61243 0.36269 0.0
C1074 C 0.16583 0.60723 0.38343 0.0
C1075 C 0.16168 0.603 0.3248 0.0
C1076 C 0.17223 0.63926 0.31838 0.0
C1077 C 0.14352 0.57087 0.30992 0.0
C1078 C 0.12881 0.53148 0.316 0.0
C1079 C 0.10323 0.51757 0.33099 0.0
C1080 C 0.08968 0.48057 0.33678 0.0
C1081 C 0.10127 0.45708 0.32758 0.0
C1082 C 0.12637 0.47053 0.31253 0.0
C1083 C 0.14006 0.50754 0.3067 0.0
H1084 H 0.09073 0.42844 0.33208 0.0
H1085 H 0.21514 0.78624 0.27525 0.0
loop_
_geom_bond_atom_site_label_1
_geom_bond_atom_site_label_2
_geom_bond_distance
_geom_bond_site_symmetry_2
_ccdc_geom_bond_type
Tb0 C10 2.825 . S
Tb0 O11 2.347 . S
Tb0 O14 2.366 . S
Tb0 O19 2.418 . S
Tb0 O20 2.384 . S
Tb0 O23 2.479 . S
Tb0 O24 2.471 . S
Eu1 O12 2.418 . S
Eu1 O13 2.384 . S
Eu1 O16 2.479 1_455 S
Eu1 O17 2.471 1_455 S
Eu1 O18 2.347 . S
Eu1 O21 2.366 1_455 S
Eu1 C31 2.825 1_455 S
C2 O18 1.259 . S
C2 O19 1.265 . S
C3 O20 1.255 1_655 S
C3 O21 1.265 . S
C4 C6 1.380 . S
C4 C7 1.374 . S
C4 C10 1.507 . S
C5 C6 1.384 . S
C5 C9 1.387 . S
C5 H32 0.930 . S
C6 C4 1.380 . S
C6 C5 1.384 . S
C6 H33 0.931 . S
C7 C4 1.374 . S
C7 C8 1.390 . S
C7 H34 0.930 . S
C8 C7 1.390 . S
C8 C9 1.391 . S
C8 H35 0.930 . S
C9 C5 1.387 . S
C9 C8 1.391 . S
C10 Tb0 2.825 . S
C10 C4 1.507 . S
C10 O23 1.238 . S
C10 O24 1.247 . S
O11 Tb0 2.347 . S
O11 C15 1.259 . S
O12 Eu1 2.418 . S
O12 C15 1.265 . S
O13 Eu1 2.384 . S
O13 C22 1.255 . S
O14 Tb0 2.366 . S
O14 C22 1.265 . S
C15 O11 1.259 . S
C15 O12 1.265 . S
O16 Eu1 2.479 1_655 S
O16 C31 1.238 . S
O17 Eu1 2.471 1_655 S
O17 C31 1.247 . S
O18 Eu1 2.347 . S
O18 C2 1.259 . S
O19 Tb0 2.418 . S
O19 C2 1.265 . S
O20 Tb0 2.384 . S
O20 C3 1.255 1_455 S
O21 Eu1 2.366 1_655 S
O21 C3 1.265 . S
C22 O13 1.255 . S
C22 O14 1.265 . S
O23 Tb0 2.479 . S
O23 C10 1.238 . S
O24 Tb0 2.471 . S
O24 C10 1.247 . S
C25 C28 1.380 . S
C25 C29 1.374 . S
C25 C31 1.507 . S
C26 C27 1.387 . S
C26 C30 1.391 . S
C27 C26 1.387 . S
C27 C28 1.384 . S
C27 H36 0.930 . S
C28 C25 1.380 . S
C28 C27 1.384 . S
C28 H37 0.931 . S
C29 C25 1.374 . S
C29 C30 1.390 . S
C29 H38 0.930 . S
C30 C26 1.391 . S
C30 C29 1.390 . S
C30 H39 0.930 . S
C31 Eu1 2.825 1_655 S
C31 O16 1.238 . S
C31 O17 1.247 . S
C31 C25 1.507 . S
H32 C5 0.930 . S
H33 C6 0.931 . S
H34 C7 0.930 . S
H35 C8 0.930 . S
H36 C27 0.930 . S
H37 C28 0.931 . S
H38 C29 0.930 . S
H39 C30 0.930 . S
Tb40 C50 2.825 . S
Tb40 O51 2.347 . S
Tb40 O54 2.366 . S
Tb40 O59 2.418 . S
Tb40 O60 2.384 . S
Tb40 O63 2.479 . S
Tb40 O64 2.471 . S
Eu41 O52 2.418 . S
Eu41 O53 2.384 . S
Eu41 O56 2.479 1_545 S
Eu41 O57 2.471 1_545 S
Eu41 O58 2.347 . S
Eu41 O61 2.366 1_545 S
Eu41 C71 2.825 1_545 S
C42 O58 1.259 . S
C42 O59 1.265 . S
C43 O60 1.255 1_565 S
C43 O61 1.265 . S
C44 C46 1.380 . S
C44 C47 1.374 . S
C44 C50 1.507 . S
C45 C46 1.384 . S
C45 C49 1.387 . S
C45 H72 0.930 . S
C46 C44 1.380 . S
C46 C45 1.384 . S
C46 H73 0.931 . S
C47 C44 1.374 . S
C47 C48 1.390 . S
C47 H74 0.930 . S
C48 C47 1.390 . S
C48 C49 1.391 . S
C48 H75 0.930 . S
C49 C45 1.387 . S
C49 C48 1.391 . S
C50 Tb40 2.825 . S
C50 C44 1.507 . S
C50 O63 1.238 . S
C50 O64 1.247 . S
O51 Tb40 2.347 . S
O51 C55 1.259 . S
O52 Eu41 2.418 . S
O52 C55 1.265 . S
O53 Eu41 2.384 . S
O53 C62 1.255 . S
O54 Tb40 2.366 . S
O54 C62 1.265 . S
C55 O51 1.259 . S
C55 O52 1.265 . S
O56 Eu41 2.479 1_565 S
O56 C71 1.238 . S
O57 Eu41 2.471 1_565 S
O57 C71 1.247 . S
O58 Eu41 2.347 . S
O58 C42 1.259 . S
O59 Tb40 2.418 . S
O59 C42 1.265 . S
O60 Tb40 2.384 . S
O60 C43 1.255 1_545 S
O61 Eu41 2.366 1_565 S
O61 C43 1.265 . S
C62 O53 1.255 . S
C62 O54 1.265 . S
O63 Tb40 2.479 . S
O63 C50 1.238 . S
O64 Tb40 2.471 . S
O64 C50 1.247 . S
C65 C68 1.380 . S
C65 C69 1.374 . S
C65 C71 1.507 . S
C66 C67 1.387 . S
C66 C70 1.391 . S
C67 C66 1.387 . S
C67 C68 1.384 . S
C67 H76 0.930 . S
C68 C65 1.380 . S
C68 C67 1.384 . S
C68 H77 0.931 . S
C69 C65 1.374 . S
C69 C70 1.390 . S
C69 H78 0.930 . S
C70 C66 1.391 . S
C70 C69 1.390 . S
C70 H79 0.930 . S
C71 Eu41 2.825 1_565 S
C71 O56 1.238 . S
C71 O57 1.247 . S
C71 C65 1.507 . S
H72 C45 0.930 . S
H73 C46 0.931 . S
H74 C47 0.930 . S
H75 C48 0.930 . S
H76 C67 0.930 . S
H77 C68 0.931 . S
H78 C69 0.930 . S
H79 C70 0.930 . S
Tb80 C90 2.825 . S
Tb80 O91 2.347 . S
Tb80 O94 2.366 . S
Tb80 O99 2.418 . S
Tb80 O100 2.384 . S
Tb80 O103 2.479 . S
Tb80 O104 2.471 . S
Eu81 O92 2.418 . S
Eu81 O93 2.384 . S
Eu81 O96 2.479 . S
Eu81 O97 2.471 . S
Eu81 O98 2.347 . S
Eu81 O101 2.366 . S
Eu81 C111 2.825 . S
C82 O98 1.259 . S
C82 O99 1.265 . S
C83 O100 1.255 . S
C83 O101 1.265 . S
C84 C86 1.380 . S
C84 C87 1.374 . S
C84 C90 1.507 . S
C85 C86 1.384 . S
C85 C89 1.387 . S
C85 H112 0.930 . S
C86 C84 1.380 . S
C86 C85 1.384 . S
C86 H113 0.931 . S
C87 C84 1.374 . S
C87 C88 1.390 . S
C87 H114 0.930 . S
C88 C87 1.390 . S
C88 C89 1.391 . S
C88 H115 0.930 . S
C89 C85 1.387 . S
C89 C88 1.391 . S
C90 Tb80 2.825 . S
C90 C84 1.507 . S
C90 O103 1.238 . S
C90 O104 1.247 . S
O91 Tb80 2.347 . S
O91 C95 1.259 . S
O92 Eu81 2.418 . S
O92 C95 1.265 . S
O93 Eu81 2.384 . S
O93 C102 1.255 . S
O94 Tb80 2.366 . S
O94 C102 1.265 . S
C95 O91 1.259 . S
C95 O92 1.265 . S
O96 Eu81 2.479 . S
O96 C111 1.238 . S
O97 Eu81 2.471 . S
O97 C111 1.247 . S
O98 Eu81 2.347 . S
O98 C82 1.259 . S
O99 Tb80 2.418 . S
O99 C82 1.265 . S
O100 Tb80 2.384 . S
O100 C83 1.255 . S
O101 Eu81 2.366 . S
O101 C83 1.265 . S
C102 O93 1.255 . S
C102 O94 1.265 . S
O103 Tb80 2.479 . S
O103 C90 1.238 . S
O104 Tb80 2.471 . S
O104 C90 1.247 . S
C105 C108 1.380 . S
C105 C109 1.374 . S
C105 C111 1.507 . S
C106 C107 1.387 . S
C106 C110 1.391 . S
C107 C106 1.387 . S
C107 C108 1.384 . S
C107 H116 0.930 . S
C108 C105 1.380 . S
C108 C107 1.384 . S
C108 H117 0.931 . S
C109 C105 1.374 . S
C109 C110 1.390 . S
C109 H118 0.930 . S
C110 C106 1.391 . S
C110 C109 1.390 . S
C110 H119 0.930 . S
C111 Eu81 2.825 . S
C111 O96 1.238 . S
C111 O97 1.247 . S
C111 C105 1.507 . S
H112 C85 0.930 . S
H113 C86 0.931 . S
H114 C87 0.930 . S
H115 C88 0.930 . S
H116 C107 0.930 . S
H117 C108 0.931 . S
H118 C109 0.930 . S
H119 C110 0.930 . S
H120 C123 0.929 . S
H121 C126 0.929 . S
H122 C128 0.930 . S
C123 H120 0.929 . S
C123 C124 1.398 . S
C123 C125 1.396 . S
C124 C123 1.398 . S
C124 C128 1.407 . S
C125 C123 1.396 . S
C125 C126 1.394 . S
C126 H121 0.929 . S
C126 C125 1.394 . S
C126 C127 1.382 . S
C127 C126 1.382 . S
C127 C128 1.392 . S
C127 N129 1.420 . S
C128 H122 0.930 . S
C128 C124 1.407 . S
C128 C127 1.392 . S
N129 C127 1.420 . S
N129 C130 1.244 . S
C130 N129 1.244 . S
H131 C134 0.929 . S
H132 C137 0.929 . S
H133 C139 0.930 . S
C134 H131 0.929 . S
C134 C135 1.398 . S
C134 C136 1.396 . S
C135 C134 1.398 . S
C135 C139 1.407 . S
C136 C134 1.396 . S
C136 C137 1.394 . S
C137 H132 0.929 . S
C137 C136 1.394 . S
C137 C138 1.382 . S
C138 C137 1.382 . S
C138 C139 1.392 . S
C138 N140 1.420 . S
C139 H133 0.930 . S
C139 C135 1.407 . S
C139 C138 1.392 . S
N140 C138 1.420 . S
N140 C141 1.244 . S
C141 N140 1.244 . S
H142 C145 0.929 1_655 S
H143 C148 0.929 . S
H144 C150 0.930 . S
C145 H142 0.929 1_455 S
C145 C146 1.398 1_455 S
C145 C147 1.396 . S
C146 C145 1.398 1_655 S
C146 C150 1.407 1_655 S
C147 C145 1.396 . S
C147 C148 1.394 . S
C148 H143 0.929 . S
C148 C147 1.394 . S
C148 C149 1.382 . S
C149 C148 1.382 . S
C149 C150 1.392 . S
C149 N151 1.420 . S
C150 H144 0.930 . S
C150 C146 1.407 1_455 S
C150 C149 1.392 . S
N151 C149 1.420 . S
N151 C152 1.244 . S
C152 N151 1.244 . S
H153 C156 0.929 . S
H154 C159 0.929 1_655 S
H155 C161 0.930 . S
C156 H153 0.929 . S
C156 C157 1.398 . S
C156 C158 1.396 . S
C157 C156 1.398 . S
C157 C161 1.407 . S
C158 C156 1.396 . S
C158 C159 1.394 . S
C159 H154 0.929 1_455 S
C159 C158 1.394 . S
C159 C160 1.382 . S
C160 C159 1.382 . S
C160 C161 1.392 . S
C160 N162 1.420 1_455 S
C161 H155 0.930 . S
C161 C157 1.407 . S
C161 C160 1.392 . S
N162 C160 1.420 1_655 S
N162 C163 1.244 . S
C163 N162 1.244 . S
H164 C167 0.929 . S
H165 C170 0.929 1_565 S
H166 C172 0.930 . S
C167 H164 0.929 . S
C167 C168 1.398 . S
C167 C169 1.396 . S
C168 C167 1.398 . S
C168 C172 1.407 . S
C169 C167 1.396 . S
C169 C170 1.394 . S
C170 H165 0.929 1_545 S
C170 C169 1.394 . S
C170 C171 1.382 . S
C171 C170 1.382 . S
C171 C172 1.392 . S
C171 N173 1.420 1_545 S
C172 H166 0.930 . S
C172 C168 1.407 . S
C172 C171 1.392 . S
N173 C171 1.420 1_565 S
N173 C174 1.244 . S
C174 N173 1.244 . S
H175 C178 0.929 . S
H176 C181 0.929 . S
H177 C183 0.930 . S
C178 H175 0.929 . S
C178 C179 1.398 . S
C178 C180 1.396 . S
C179 C178 1.398 . S
C179 C183 1.407 . S
C180 C178 1.396 . S
C180 C181 1.394 . S
C181 H176 0.929 . S
C181 C180 1.394 . S
C181 C182 1.382 . S
C182 C181 1.382 . S
C182 C183 1.392 . S
C182 N184 1.420 . S
C183 H177 0.930 . S
C183 C179 1.407 . S
C183 C182 1.392 . S
N184 C182 1.420 . S
N184 C185 1.244 . S
C185 N184 1.244 . S
H186 C204 0.951 . S
H187 C206 0.951 . S
H188 C208 0.950 . S
H189 C209 0.950 . S
H190 C211 0.950 . S
H191 C214 0.950 . S
H192 C215 0.950 . S
H193 C217 0.950 . S
H194 C218 0.950 . S
H195 C219 0.951 . S
H196 C221 0.951 . S
H197 C223 0.950 . S
H198 C224 0.950 . S
H199 C226 0.950 . S
H200 C229 0.950 . S
H201 C230 0.950 . S
H202 C232 0.950 . S
H203 C233 0.950 . S
C204 H186 0.951 . S
C204 C205 1.366 . S
C204 C206 1.388 . S
C205 C204 1.366 . S
C205 C209 1.385 . S
C206 H187 0.951 . S
C206 C204 1.388 . S
C206 C207 1.366 . S
C207 C206 1.366 . S
C207 C208 1.414 . S
C207 C210 1.499 . S
C208 H188 0.950 . S
C208 C207 1.414 . S
C208 C209 1.374 . S
C209 H189 0.950 . S
C209 C205 1.385 . S
C209 C208 1.374 . S
C210 C207 1.499 . S
C210 C211 1.373 . S
C210 C212 1.389 . S
C211 H190 0.950 . S
C211 C210 1.373 . S
C211 C227 1.377 . S
C212 C210 1.389 . S
C212 C213 1.524 . S
C212 C226 1.377 . S
C213 C212 1.524 . S
C213 C214 1.397 . S
C213 C218 1.363 . S
C214 H191 0.950 . S
C214 C213 1.397 . S
C214 C215 1.334 . S
C215 H192 0.950 . S
C215 C214 1.334 . S
C215 C216 1.287 . S
C216 C215 1.287 . S
C216 C217 1.524 . S
C216 H235 0.913 . S
C217 H193 0.950 . S
C217 C216 1.524 . S
C217 C218 1.415 . S
C218 H194 0.950 . S
C218 C213 1.363 . S
C218 C217 1.415 . S
C219 H195 0.951 . S
C219 C220 1.366 . S
C219 C221 1.388 . S
C220 C219 1.366 . S
C220 C224 1.385 . S
C221 H196 0.951 . S
C221 C219 1.388 . S
C221 C222 1.366 . S
C222 C221 1.366 . S
C222 C223 1.414 . S
C222 C225 1.499 . S
C223 H197 0.950 . S
C223 C222 1.414 . S
C223 C224 1.374 . S
C224 H198 0.950 . S
C224 C220 1.385 . S
C224 C223 1.374 . S
C225 C222 1.499 . S
C225 C226 1.373 . S
C225 C227 1.389 . S
C226 H199 0.950 . S
C226 C212 1.377 . S
C226 C225 1.373 . S
C227 C211 1.377 . S
C227 C225 1.389 . S
C227 C228 1.524 . S
C228 C227 1.524 . S
C228 C229 1.397 . S
C228 C233 1.363 . S
C229 H200 0.950 . S
C229 C228 1.397 . S
C229 C230 1.334 . S
C230 H201 0.950 . S
C230 C229 1.334 . S
C230 C231 1.287 . S
C231 C230 1.287 . S
C231 C232 1.524 . S
C231 H234 0.999 . S
C232 H202 0.950 . S
C232 C231 1.524 . S
C232 C233 1.415 . S
C233 H203 0.950 . S
C233 C228 1.363 . S
C233 C232 1.415 . S
H234 C231 0.999 . S
H235 C216 0.913 . S
H236 C254 0.951 . S
H237 C256 0.951 . S
H238 C258 0.950 . S
H239 C259 0.950 . S
H240 C261 0.950 . S
H241 C264 0.950 . S
H242 C265 0.950 . S
H243 C267 0.950 . S
H244 C268 0.950 . S
H245 C269 0.951 . S
H246 C271 0.951 . S
H247 C273 0.950 . S
H248 C274 0.950 . S
H249 C276 0.950 . S
H250 C279 0.950 . S
H251 C280 0.950 . S
H252 C282 0.950 . S
H253 C283 0.950 . S
C254 H236 0.951 . S
C254 C255 1.366 . S
C254 C256 1.388 . S
C255 C254 1.366 . S
C255 C259 1.385 . S
C256 H237 0.951 . S
C256 C254 1.388 . S
C256 C257 1.366 . S
C257 C256 1.366 . S
C257 C258 1.414 . S
C257 C260 1.499 . S
C258 H238 0.950 . S
C258 C257 1.414 . S
C258 C259 1.374 . S
C259 H239 0.950 . S
C259 C255 1.385 . S
C259 C258 1.374 . S
C260 C257 1.499 . S
C260 C261 1.373 . S
C260 C262 1.389 . S
C261 H240 0.950 . S
C261 C260 1.373 . S
C261 C277 1.377 . S
C262 C260 1.389 . S
C262 C263 1.524 . S
C262 C276 1.377 . S
C263 C262 1.524 . S
C263 C264 1.397 . S
C263 C268 1.363 . S
C264 H241 0.950 . S
C264 C263 1.397 . S
C264 C265 1.334 . S
C265 H242 0.950 . S
C265 C264 1.334 . S
C265 C266 1.287 . S
C266 C265 1.287 . S
C266 C267 1.524 . S
C266 H285 0.913 . S
C267 H243 0.950 . S
C267 C266 1.524 . S
C267 C268 1.415 . S
C268 H244 0.950 . S
C268 C263 1.363 . S
C268 C267 1.415 . S
C269 H245 0.951 . S
C269 C270 1.366 . S
C269 C271 1.388 . S
C270 C269 1.366 . S
C270 C274 1.385 . S
C271 H246 0.951 . S
C271 C269 1.388 . S
C271 C272 1.366 . S
C272 C271 1.366 . S
C272 C273 1.414 . S
C272 C275 1.499 . S
C273 H247 0.950 . S
C273 C272 1.414 . S
C273 C274 1.374 . S
C274 H248 0.950 . S
C274 C270 1.385 . S
C274 C273 1.374 . S
C275 C272 1.499 . S
C275 C276 1.373 . S
C275 C277 1.389 . S
C276 H249 0.950 . S
C276 C262 1.377 . S
C276 C275 1.373 . S
C277 C261 1.377 . S
C277 C275 1.389 . S
C277 C278 1.524 . S
C278 C277 1.524 . S
C278 C279 1.397 . S
C278 C283 1.363 . S
C279 H250 0.950 . S
C279 C278 1.397 . S
C279 C280 1.334 . S
C280 H251 0.950 . S
C280 C279 1.334 . S
C280 C281 1.287 . S
C281 C280 1.287 . S
C281 C282 1.524 . S
C281 H284 0.999 . S
C282 H252 0.950 . S
C282 C281 1.524 . S
C282 C283 1.415 . S
C283 H253 0.950 . S
C283 C278 1.363 . S
C283 C282 1.415 . S
H284 C281 0.999 . S
H285 C266 0.913 . S
H286 C304 0.951 . S
H287 C306 0.951 . S
H288 C308 0.950 . S
H289 C309 0.950 . S
H290 C311 0.950 . S
H291 C314 0.950 . S
H292 C315 0.950 . S
H293 C317 0.950 . S
H294 C318 0.950 . S
H295 C319 0.951 . S
H296 C321 0.951 . S
H297 C323 0.950 . S
H298 C324 0.950 . S
H299 C326 0.950 . S
H300 C329 0.950 . S
H301 C330 0.950 . S
H302 C332 0.950 . S
H303 C333 0.950 . S
C304 H286 0.951 . S
C304 C305 1.366 . S
C304 C306 1.388 . S
C305 C304 1.366 . S
C305 C309 1.385 . S
C306 H287 0.951 . S
C306 C304 1.388 . S
C306 C307 1.366 . S
C307 C306 1.366 . S
C307 C308 1.414 . S
C307 C310 1.499 . S
C308 H288 0.950 . S
C308 C307 1.414 . S
C308 C309 1.374 . S
C309 H289 0.950 . S
C309 C305 1.385 . S
C309 C308 1.374 . S
C310 C307 1.499 . S
C310 C311 1.373 . S
C310 C312 1.389 . S
C311 H290 0.950 . S
C311 C310 1.373 . S
C311 C327 1.377 . S
C312 C310 1.389 . S
C312 C313 1.524 . S
C312 C326 1.377 . S
C313 C312 1.524 . S
C313 C314 1.397 . S
C313 C318 1.363 . S
C314 H291 0.950 . S
C314 C313 1.397 . S
C314 C315 1.334 . S
C315 H292 0.950 . S
C315 C314 1.334 . S
C315 C316 1.287 . S
C316 C315 1.287 . S
C316 C317 1.524 . S
C316 H335 0.913 . S
C317 H293 0.950 . S
C317 C316 1.524 . S
C317 C318 1.415 . S
C318 H294 0.950 . S
C318 C313 1.363 . S
C318 C317 1.415 . S
C319 H295 0.951 . S
C319 C320 1.366 . S
C319 C321 1.388 . S
C320 C319 1.366 . S
C320 C324 1.385 . S
C321 H296 0.951 . S
C321 C319 1.388 . S
C321 C322 1.366 . S
C322 C321 1.366 . S
C322 C323 1.414 . S
C322 C325 1.499 . S
C323 H297 0.950 . S
C323 C322 1.414 . S
C323 C324 1.374 . S
C324 H298 0.950 . S
C324 C320 1.385 . S
C324 C323 1.374 . S
C325 C322 1.499 . S
C325 C326 1.373 . S
C325 C327 1.389 . S
C326 H299 0.950 . S
C326 C312 1.377 . S
C326 C325 1.373 . S
C327 C311 1.377 . S
C327 C325 1.389 . S
C327 C328 1.524 . S
C328 C327 1.524 . S
C328 C329 1.397 . S
C328 C333 1.363 . S
C329 H300 0.950 . S
C329 C328 1.397 . S
C329 C330 1.334 . S
C330 H301 0.950 . S
C330 C329 1.334 . S
C330 C331 1.287 . S
C331 C330 1.287 . S
C331 C332 1.524 . S
C331 H334 0.999 . S
C332 H302 0.950 . S
C332 C331 1.524 . S
C332 C333 1.415 . S
C333 H303 0.950 . S
C333 C328 1.363 . S
C333 C332 1.415 . S
H334 C331 0.999 . S
H335 C316 0.913 . S
H336 C354 0.951 . S
H337 C356 0.951 . S
H338 C358 0.950 . S
H339 C359 0.950 . S
H340 C361 0.950 . S
H341 C364 0.950 . S
H342 C365 0.950 . S
H343 C367 0.950 . S
H344 C368 0.950 . S
H345 C369 0.951 . S
H346 C371 0.951 . S
H347 C373 0.950 . S
H348 C374 0.950 . S
H349 C376 0.950 . S
H350 C379 0.950 . S
H351 C380 0.950 . S
H352 C382 0.950 . S
H353 C383 0.950 . S
C354 H336 0.951 . S
C354 C355 1.366 . S
C354 C356 1.388 . S
C355 C354 1.366 . S
C355 C359 1.385 . S
C356 H337 0.951 . S
C356 C354 1.388 . S
C356 C357 1.366 . S
C357 C356 1.366 . S
C357 C358 1.414 . S
C357 C360 1.499 . S
C358 H338 0.950 . S
C358 C357 1.414 . S
C358 C359 1.374 . S
C359 H339 0.950 . S
C359 C355 1.385 . S
C359 C358 1.374 . S
C360 C357 1.499 . S
C360 C361 1.373 . S
C360 C362 1.389 . S
C361 H340 0.950 . S
C361 C360 1.373 . S
C361 C377 1.377 . S
C362 C360 1.389 . S
C362 C363 1.524 . S
C362 C376 1.377 . S
C363 C362 1.524 . S
C363 C364 1.397 . S
C363 C368 1.363 . S
C364 H341 0.950 . S
C364 C363 1.397 . S
C364 C365 1.334 . S
C365 H342 0.950 . S
C365 C364 1.334 . S
C365 C366 1.287 . S
C366 C365 1.287 . S
C366 C367 1.524 . S
C366 H385 0.913 . S
C367 H343 0.950 . S
C367 C366 1.524 . S
C367 C368 1.415 . S
C368 H344 0.950 . S
C368 C363 1.363 . S
C368 C367 1.415 . S
C369 H345 0.951 . S
C369 C370 1.366 . S
C369 C371 1.388 . S
C370 C369 1.366 . S
C370 C374 1.385 . S
C371 H346 0.951 . S
C371 C369 1.388 . S
C371 C372 1.366 . S
C372 C371 1.366 . S
C372 C373 1.414 . S
C372 C375 1.499 . S
C373 H347 0.950 . S
C373 C372 1.414 . S
C373 C374 1.374 . S
C374 H348 0.950 . S
C374 C370 1.385 . S
C374 C373 1.374 . S
C375 C372 1.499 . S
C375 C376 1.373 . S
C375 C377 1.389 . S
C376 H349 0.950 . S
C376 C362 1.377 . S
C376 C375 1.373 . S
C377 C361 1.377 . S
C377 C375 1.389 . S
C377 C378 1.524 . S
C378 C377 1.524 . S
C378 C379 1.397 . S
C378 C383 1.363 . S
C379 H350 0.950 . S
C379 C378 1.397 . S
C379 C380 1.334 . S
C380 H351 0.950 . S
C380 C379 1.334 . S
C380 C381 1.287 . S
C381 C380 1.287 . S
C381 C382 1.524 . S
C381 H384 0.999 . S
C382 H352 0.950 . S
C382 C381 1.524 . S
C382 C383 1.415 . S
C383 H353 0.950 . S
C383 C378 1.363 . S
C383 C382 1.415 . S
H384 C381 0.999 . S
H385 C366 0.913 . S
H386 C404 0.951 . S
H387 C406 0.951 . S
H388 C408 0.950 . S
H389 C409 0.950 . S
H390 C411 0.950 . S
H391 C414 0.950 . S
H392 C415 0.950 . S
H393 C417 0.950 . S
H394 C418 0.950 . S
H395 C419 0.951 . S
H396 C421 0.951 . S
H397 C423 0.950 . S
H398 C424 0.950 . S
H399 C426 0.950 . S
H400 C429 0.950 . S
H401 C430 0.950 . S
H402 C432 0.950 . S
H403 C433 0.950 . S
C404 H386 0.951 . S
C404 C405 1.366 . S
C404 C406 1.388 . S
C405 C404 1.366 . S
C405 C409 1.385 . S
C406 H387 0.951 . S
C406 C404 1.388 . S
C406 C407 1.366 . S
C407 C406 1.366 . S
C407 C408 1.414 . S
C407 C410 1.499 . S
C408 H388 0.950 . S
C408 C407 1.414 . S
C408 C409 1.374 . S
C409 H389 0.950 . S
C409 C405 1.385 . S
C409 C408 1.374 . S
C410 C407 1.499 . S
C410 C411 1.373 . S
C410 C412 1.389 . S
C411 H390 0.950 . S
C411 C410 1.373 . S
C411 C427 1.377 . S
C412 C410 1.389 . S
C412 C413 1.524 . S
C412 C426 1.377 . S
C413 C412 1.524 . S
C413 C414 1.397 . S
C413 C418 1.363 . S
C414 H391 0.950 . S
C414 C413 1.397 . S
C414 C415 1.334 . S
C415 H392 0.950 . S
C415 C414 1.334 . S
C415 C416 1.287 . S
C416 C415 1.287 . S
C416 C417 1.524 . S
C416 H435 0.913 . S
C417 H393 0.950 . S
C417 C416 1.524 . S
C417 C418 1.415 . S
C418 H394 0.950 . S
C418 C413 1.363 . S
C418 C417 1.415 . S
C419 H395 0.951 . S
C419 C420 1.366 . S
C419 C421 1.388 . S
C420 C419 1.366 . S
C420 C424 1.385 . S
C421 H396 0.951 . S
C421 C419 1.388 . S
C421 C422 1.366 . S
C422 C421 1.366 . S
C422 C423 1.414 . S
C422 C425 1.499 . S
C423 H397 0.950 . S
C423 C422 1.414 . S
C423 C424 1.374 . S
C424 H398 0.950 . S
C424 C420 1.385 . S
C424 C423 1.374 . S
C425 C422 1.499 . S
C425 C426 1.373 . S
C425 C427 1.389 . S
C426 H399 0.950 . S
C426 C412 1.377 . S
C426 C425 1.373 . S
C427 C411 1.377 . S
C427 C425 1.389 . S
C427 C428 1.524 . S
C428 C427 1.524 . S
C428 C429 1.397 . S
C428 C433 1.363 . S
C429 H400 0.950 . S
C429 C428 1.397 . S
C429 C430 1.334 . S
C430 H401 0.950 . S
C430 C429 1.334 . S
C430 C431 1.287 . S
C431 C430 1.287 . S
C431 C432 1.524 . S
C431 H434 0.999 . S
C432 H402 0.950 . S
C432 C431 1.524 . S
C432 C433 1.415 . S
C433 H403 0.950 . S
C433 C428 1.363 . S
C433 C432 1.415 . S
H434 C431 0.999 . S
H435 C416 0.913 . S
H436 C454 0.951 . S
H437 C456 0.951 . S
H438 C458 0.950 . S
H439 C459 0.950 . S
H440 C461 0.950 . S
H441 C464 0.950 . S
H442 C465 0.950 . S
H443 C467 0.950 . S
H444 C468 0.950 . S
H445 C469 0.951 . S
H446 C471 0.951 . S
H447 C473 0.950 . S
H448 C474 0.950 . S
H449 C476 0.950 . S
H450 C479 0.950 . S
H451 C480 0.950 . S
H452 C482 0.950 . S
H453 C483 0.950 . S
C454 H436 0.951 . S
C454 C455 1.366 . S
C454 C456 1.388 . S
C455 C454 1.366 . S
C455 C459 1.385 . S
C456 H437 0.951 . S
C456 C454 1.388 . S
C456 C457 1.366 . S
C457 C456 1.366 . S
C457 C458 1.414 . S
C457 C460 1.499 . S
C458 H438 0.950 . S
C458 C457 1.414 . S
C458 C459 1.374 . S
C459 H439 0.950 . S
C459 C455 1.385 . S
C459 C458 1.374 . S
C460 C457 1.499 . S
C460 C461 1.373 . S
C460 C462 1.389 . S
C461 H440 0.950 . S
C461 C460 1.373 . S
C461 C477 1.377 . S
C462 C460 1.389 . S
C462 C463 1.524 . S
C462 C476 1.377 . S
C463 C462 1.524 . S
C463 C464 1.397 . S
C463 C468 1.363 . S
C464 H441 0.950 . S
C464 C463 1.397 . S
C464 C465 1.334 . S
C465 H442 0.950 . S
C465 C464 1.334 . S
C465 C466 1.287 . S
C466 C465 1.287 . S
C466 C467 1.524 . S
C466 H485 0.913 . S
C467 H443 0.950 . S
C467 C466 1.524 . S
C467 C468 1.415 . S
C468 H444 0.950 . S
C468 C463 1.363 . S
C468 C467 1.415 . S
C469 H445 0.951 . S
C469 C470 1.366 . S
C469 C471 1.388 . S
C470 C469 1.366 . S
C470 C474 1.385 . S
C471 H446 0.951 . S
C471 C469 1.388 . S
C471 C472 1.366 . S
C472 C471 1.366 . S
C472 C473 1.414 . S
C472 C475 1.499 . S
C473 H447 0.950 . S
C473 C472 1.414 . S
C473 C474 1.374 . S
C474 H448 0.950 . S
C474 C470 1.385 . S
C474 C473 1.374 . S
C475 C472 1.499 . S
C475 C476 1.373 . S
C475 C477 1.389 . S
C476 H449 0.950 . S
C476 C462 1.377 . S
C476 C475 1.373 . S
C477 C461 1.377 . S
C477 C475 1.389 . S
C477 C478 1.524 . S
C478 C477 1.524 . S
C478 C479 1.397 . S
C478 C483 1.363 . S
C479 H450 0.950 . S
C479 C478 1.397 . S
C479 C480 1.334 . S
C480 H451 0.950 . S
C480 C479 1.334 . S
C480 C481 1.287 . S
C481 C480 1.287 . S
C481 C482 1.524 . S
C481 H484 0.999 . S
C482 H452 0.950 . S
C482 C481 1.524 . S
C482 C483 1.415 . S
C483 H453 0.950 . S
C483 C478 1.363 . S
C483 C482 1.415 . S
H484 C481 0.999 . S
H485 C466 0.913 . S
H486 C504 0.951 . S
H487 C506 0.951 . S
H488 C508 0.950 . S
H489 C509 0.950 . S
H490 C511 0.950 . S
H491 C514 0.950 . S
H492 C515 0.950 . S
H493 C517 0.950 . S
H494 C518 0.950 . S
H495 C519 0.951 . S
H496 C521 0.951 . S
H497 C523 0.950 . S
H498 C524 0.950 . S
H499 C526 0.950 . S
H500 C529 0.950 . S
H501 C530 0.950 . S
H502 C532 0.950 . S
H503 C533 0.950 . S
C504 H486 0.951 . S
C504 C505 1.366 . S
C504 C506 1.388 . S
C505 C504 1.366 . S
C505 C509 1.385 . S
C506 H487 0.951 . S
C506 C504 1.388 . S
C506 C507 1.366 . S
C507 C506 1.366 . S
C507 C508 1.414 . S
C507 C510 1.499 . S
C508 H488 0.950 . S
C508 C507 1.414 . S
C508 C509 1.374 . S
C509 H489 0.950 . S
C509 C505 1.385 . S
C509 C508 1.374 . S
C510 C507 1.499 . S
C510 C511 1.373 . S
C510 C512 1.389 . S
C511 H490 0.950 . S
C511 C510 1.373 . S
C511 C527 1.377 . S
C512 C510 1.389 . S
C512 C513 1.524 . S
C512 C526 1.377 . S
C513 C512 1.524 . S
C513 C514 1.397 . S
C513 C518 1.363 . S
C514 H491 0.950 . S
C514 C513 1.397 . S
C514 C515 1.334 . S
C515 H492 0.950 . S
C515 C514 1.334 . S
C515 C516 1.287 . S
C516 C515 1.287 . S
C516 C517 1.524 . S
C516 H535 0.913 . S
C517 H493 0.950 . S
C517 C516 1.524 . S
C517 C518 1.415 . S
C518 H494 0.950 . S
C518 C513 1.363 . S
C518 C517 1.415 . S
C519 H495 0.951 . S
C519 C520 1.366 . S
C519 C521 1.388 . S
C520 C519 1.366 . S
C520 C524 1.385 . S
C521 H496 0.951 . S
C521 C519 1.388 . S
C521 C522 1.366 . S
C522 C521 1.366 . S
C522 C523 1.414 . S
C522 C525 1.499 . S
C523 H497 0.950 . S
C523 C522 1.414 . S
C523 C524 1.374 . S
C524 H498 0.950 . S
C524 C520 1.385 . S
C524 C523 1.374 . S
C525 C522 1.499 . S
C525 C526 1.373 . S
C525 C527 1.389 . S
C526 H499 0.950 . S
C526 C512 1.377 . S
C526 C525 1.373 . S
C527 C511 1.377 . S
C527 C525 1.389 . S
C527 C528 1.524 . S
C528 C527 1.524 . S
C528 C529 1.397 . S
C528 C533 1.363 . S
C529 H500 0.950 . S
C529 C528 1.397 . S
C529 C530 1.334 . S
C530 H501 0.950 . S
C530 C529 1.334 . S
C530 C531 1.287 . S
C531 C530 1.287 . S
C531 C532 1.524 . S
C531 H534 0.999 . S
C532 H502 0.950 . S
C532 C531 1.524 . S
C532 C533 1.415 . S
C533 H503 0.950 . S
C533 C528 1.363 . S
C533 C532 1.415 . S
H534 C531 0.999 . S
H535 C516 0.913 . S
H536 C554 0.951 . S
H537 C556 0.951 . S
H538 C558 0.950 . S
H539 C559 0.950 . S
H540 C561 0.950 . S
H541 C564 0.950 . S
H542 C565 0.950 . S
H543 C567 0.950 . S
H544 C568 0.950 . S
H545 C569 0.951 . S
H546 C571 0.951 . S
H547 C573 0.950 . S
H548 C574 0.950 . S
H549 C576 0.950 . S
H550 C579 0.950 . S
H551 C580 0.950 . S
H552 C582 0.950 . S
H553 C583 0.950 . S
C554 H536 0.951 . S
C554 C555 1.366 . S
C554 C556 1.388 . S
C555 C554 1.366 . S
C555 C559 1.385 . S
C556 H537 0.951 . S
C556 C554 1.388 . S
C556 C557 1.366 . S
C557 C556 1.366 . S
C557 C558 1.414 . S
C557 C560 1.499 . S
C558 H538 0.950 . S
C558 C557 1.414 . S
C558 C559 1.374 . S
C559 H539 0.950 . S
C559 C555 1.385 . S
C559 C558 1.374 . S
C560 C557 1.499 . S
C560 C561 1.373 . S
C560 C562 1.389 . S
C561 H540 0.950 . S
C561 C560 1.373 . S
C561 C577 1.377 . S
C562 C560 1.389 . S
C562 C563 1.524 . S
C562 C576 1.377 . S
C563 C562 1.524 . S
C563 C564 1.397 . S
C563 C568 1.363 . S
C564 H541 0.950 . S
C564 C563 1.397 . S
C564 C565 1.334 . S
C565 H542 0.950 . S
C565 C564 1.334 . S
C565 C566 1.287 . S
C566 C565 1.287 . S
C566 C567 1.524 . S
C566 H585 0.913 . S
C567 H543 0.950 . S
C567 C566 1.524 . S
C567 C568 1.415 . S
C568 H544 0.950 . S
C568 C563 1.363 . S
C568 C567 1.415 . S
C569 H545 0.951 . S
C569 C570 1.366 . S
C569 C571 1.388 . S
C570 C569 1.366 . S
C570 C574 1.385 . S
C571 H546 0.951 . S
C571 C569 1.388 . S
C571 C572 1.366 . S
C572 C571 1.366 . S
C572 C573 1.414 . S
C572 C575 1.499 . S
C573 H547 0.950 . S
C573 C572 1.414 . S
C573 C574 1.374 . S
C574 H548 0.950 . S
C574 C570 1.385 . S
C574 C573 1.374 . S
C575 C572 1.499 . S
C575 C576 1.373 . S
C575 C577 1.389 . S
C576 H549 0.950 . S
C576 C562 1.377 . S
C576 C575 1.373 . S
C577 C561 1.377 . S
C577 C575 1.389 . S
C577 C578 1.524 . S
C578 C577 1.524 . S
C578 C579 1.397 . S
C578 C583 1.363 . S
C579 H550 0.950 . S
C579 C578 1.397 . S
C579 C580 1.334 . S
C580 H551 0.950 . S
C580 C579 1.334 . S
C580 C581 1.287 . S
C581 C580 1.287 . S
C581 C582 1.524 . S
C581 H584 0.999 . S
C582 H552 0.950 . S
C582 C581 1.524 . S
C582 C583 1.415 . S
C583 H553 0.950 . S
C583 C578 1.363 . S
C583 C582 1.415 . S
H584 C581 0.999 . S
H585 C566 0.913 . S
H586 C604 0.951 . S
H587 C606 0.951 . S
H588 C608 0.950 . S
H589 C609 0.950 . S
H590 C611 0.950 . S
H591 C614 0.950 . S
H592 C615 0.950 . S
H593 C617 0.950 . S
H594 C618 0.950 . S
H595 C619 0.951 . S
H596 C621 0.951 . S
H597 C623 0.950 . S
H598 C624 0.950 . S
H599 C626 0.950 . S
H600 C629 0.950 . S
H601 C630 0.950 . S
H602 C632 0.950 . S
H603 C633 0.950 . S
C604 H586 0.951 . S
C604 C605 1.366 . S
C604 C606 1.388 . S
C605 C604 1.366 . S
C605 C609 1.385 . S
C606 H587 0.951 . S
C606 C604 1.388 . S
C606 C607 1.366 . S
C607 C606 1.366 . S
C607 C608 1.414 . S
C607 C610 1.499 . S
C608 H588 0.950 . S
C608 C607 1.414 . S
C608 C609 1.374 . S
C609 H589 0.950 . S
C609 C605 1.385 . S
C609 C608 1.374 . S
C610 C607 1.499 . S
C610 C611 1.373 . S
C610 C612 1.389 . S
C611 H590 0.950 . S
C611 C610 1.373 . S
C611 C627 1.377 . S
C612 C610 1.389 . S
C612 C613 1.524 . S
C612 C626 1.377 . S
C613 C612 1.524 . S
C613 C614 1.397 . S
C613 C618 1.363 . S
C614 H591 0.950 . S
C614 C613 1.397 . S
C614 C615 1.334 . S
C615 H592 0.950 . S
C615 C614 1.334 . S
C615 C616 1.287 . S
C616 C615 1.287 . S
C616 C617 1.524 . S
C616 H635 0.913 . S
C617 H593 0.950 . S
C617 C616 1.524 . S
C617 C618 1.415 . S
C618 H594 0.950 . S
C618 C613 1.363 . S
C618 C617 1.415 . S
C619 H595 0.951 . S
C619 C620 1.366 . S
C619 C621 1.388 . S
C620 C619 1.366 . S
C620 C624 1.385 . S
C621 H596 0.951 . S
C621 C619 1.388 . S
C621 C622 1.366 . S
C622 C621 1.366 . S
C622 C623 1.414 . S
C622 C625 1.499 . S
C623 H597 0.950 . S
C623 C622 1.414 . S
C623 C624 1.374 . S
C624 H598 0.950 . S
C624 C620 1.385 . S
C624 C623 1.374 . S
C625 C622 1.499 . S
C625 C626 1.373 . S
C625 C627 1.389 . S
C626 H599 0.950 . S
C626 C612 1.377 . S
C626 C625 1.373 . S
C627 C611 1.377 . S
C627 C625 1.389 . S
C627 C628 1.524 . S
C628 C627 1.524 . S
C628 C629 1.397 . S
C628 C633 1.363 . S
C629 H600 0.950 . S
C629 C628 1.397 . S
C629 C630 1.334 . S
C630 H601 0.950 . S
C630 C629 1.334 . S
C630 C631 1.287 . S
C631 C630 1.287 . S
C631 C632 1.524 . S
C631 H634 0.999 . S
C632 H602 0.950 . S
C632 C631 1.524 . S
C632 C633 1.415 . S
C633 H603 0.950 . S
C633 C628 1.363 . S
C633 C632 1.415 . S
H634 C631 0.999 . S
H635 C616 0.913 . S
H636 C654 0.951 . S
H637 C656 0.951 . S
H638 C658 0.950 . S
H639 C659 0.950 . S
H640 C661 0.950 . S
H641 C664 0.950 . S
H642 C665 0.950 . S
H643 C667 0.950 . S
H644 C668 0.950 . S
H645 C669 0.951 . S
H646 C671 0.951 . S
H647 C673 0.950 . S
H648 C674 0.950 . S
H649 C676 0.950 . S
H650 C679 0.950 . S
H651 C680 0.950 . S
H652 C682 0.950 . S
H653 C683 0.950 . S
C654 H636 0.951 . S
C654 C655 1.366 . S
C654 C656 1.388 . S
C655 C654 1.366 . S
C655 C659 1.385 . S
C656 H637 0.951 . S
C656 C654 1.388 . S
C656 C657 1.366 . S
C657 C656 1.366 . S
C657 C658 1.414 . S
C657 C660 1.499 . S
C658 H638 0.950 . S
C658 C657 1.414 . S
C658 C659 1.374 . S
C659 H639 0.950 . S
C659 C655 1.385 . S
C659 C658 1.374 . S
C660 C657 1.499 . S
C660 C661 1.373 . S
C660 C662 1.389 . S
C661 H640 0.950 . S
C661 C660 1.373 . S
C661 C677 1.377 . S
C662 C660 1.389 . S
C662 C663 1.524 . S
C662 C676 1.377 . S
C663 C662 1.524 . S
C663 C664 1.397 . S
C663 C668 1.363 . S
C664 H641 0.950 . S
C664 C663 1.397 . S
C664 C665 1.334 . S
C665 H642 0.950 . S
C665 C664 1.334 . S
C665 C666 1.287 . S
C666 C665 1.287 . S
C666 C667 1.524 . S
C666 H685 0.913 . S
C667 H643 0.950 . S
C667 C666 1.524 . S
C667 C668 1.415 . S
C668 H644 0.950 . S
C668 C663 1.363 . S
C668 C667 1.415 . S
C669 H645 0.951 . S
C669 C670 1.366 . S
C669 C671 1.388 . S
C670 C669 1.366 . S
C670 C674 1.385 . S
C671 H646 0.951 . S
C671 C669 1.388 . S
C671 C672 1.366 . S
C672 C671 1.366 . S
C672 C673 1.414 . S
C672 C675 1.499 . S
C673 H647 0.950 . S
C673 C672 1.414 . S
C673 C674 1.374 . S
C674 H648 0.950 . S
C674 C670 1.385 . S
C674 C673 1.374 . S
C675 C672 1.499 . S
C675 C676 1.373 . S
C675 C677 1.389 . S
C676 H649 0.950 . S
C676 C662 1.377 . S
C676 C675 1.373 . S
C677 C661 1.377 . S
C677 C675 1.389 . S
C677 C678 1.524 . S
C678 C677 1.524 . S
C678 C679 1.397 . S
C678 C683 1.363 . S
C679 H650 0.950 . S
C679 C678 1.397 . S
C679 C680 1.334 . S
C680 H651 0.950 . S
C680 C679 1.334 . S
C680 C681 1.287 . S
C681 C680 1.287 . S
C681 C682 1.524 . S
C681 H684 0.999 . S
C682 H652 0.950 . S
C682 C681 1.524 . S
C682 C683 1.415 . S
C683 H653 0.950 . S
C683 C678 1.363 . S
C683 C682 1.415 . S
H684 C681 0.999 . S
H685 C666 0.913 . S
H686 C704 0.951 . S
H687 C706 0.951 . S
H688 C708 0.950 . S
H689 C709 0.950 . S
H690 C711 0.950 . S
H691 C714 0.950 . S
H692 C715 0.950 . S
H693 C717 0.950 . S
H694 C718 0.950 . S
H695 C719 0.951 . S
H696 C721 0.951 . S
H697 C723 0.950 . S
H698 C724 0.950 . S
H699 C726 0.950 . S
H700 C729 0.950 . S
H701 C730 0.950 . S
H702 C732 0.950 . S
H703 C733 0.950 . S
C704 H686 0.951 . S
C704 C705 1.366 . S
C704 C706 1.388 . S
C705 C704 1.366 . S
C705 C709 1.385 . S
C706 H687 0.951 . S
C706 C704 1.388 . S
C706 C707 1.366 . S
C707 C706 1.366 . S
C707 C708 1.414 . S
C707 C710 1.499 . S
C708 H688 0.950 . S
C708 C707 1.414 . S
C708 C709 1.374 . S
C709 H689 0.950 . S
C709 C705 1.385 . S
C709 C708 1.374 . S
C710 C707 1.499 . S
C710 C711 1.373 . S
C710 C712 1.389 . S
C711 H690 0.950 . S
C711 C710 1.373 . S
C711 C727 1.377 . S
C712 C710 1.389 . S
C712 C713 1.524 . S
C712 C726 1.377 . S
C713 C712 1.524 . S
C713 C714 1.397 . S
C713 C718 1.363 . S
C714 H691 0.950 . S
C714 C713 1.397 . S
C714 C715 1.334 . S
C715 H692 0.950 . S
C715 C714 1.334 . S
C715 C716 1.287 . S
C716 C715 1.287 . S
C716 C717 1.524 . S
C716 H735 0.913 . S
C717 H693 0.950 . S
C717 C716 1.524 . S
C717 C718 1.415 . S
C718 H694 0.950 . S
C718 C713 1.363 . S
C718 C717 1.415 . S
C719 H695 0.951 . S
C719 C720 1.366 . S
C719 C721 1.388 . S
C720 C719 1.366 . S
C720 C724 1.385 . S
C721 H696 0.951 . S
C721 C719 1.388 . S
C721 C722 1.366 . S
C722 C721 1.366 . S
C722 C723 1.414 . S
C722 C725 1.499 . S
C723 H697 0.950 . S
C723 C722 1.414 . S
C723 C724 1.374 . S
C724 H698 0.950 . S
C724 C720 1.385 . S
C724 C723 1.374 . S
C725 C722 1.499 . S
C725 C726 1.373 . S
C725 C727 1.389 . S
C726 H699 0.950 . S
C726 C712 1.377 . S
C726 C725 1.373 . S
C727 C711 1.377 . S
C727 C725 1.389 . S
C727 C728 1.524 . S
C728 C727 1.524 . S
C728 C729 1.397 . S
C728 C733 1.363 . S
C729 H700 0.950 . S
C729 C728 1.397 . S
C729 C730 1.334 . S
C730 H701 0.950 . S
C730 C729 1.334 . S
C730 C731 1.287 . S
C731 C730 1.287 . S
C731 C732 1.524 . S
C731 H734 0.999 . S
C732 H702 0.950 . S
C732 C731 1.524 . S
C732 C733 1.415 . S
C733 H703 0.950 . S
C733 C728 1.363 . S
C733 C732 1.415 . S
H734 C731 0.999 . S
H735 C716 0.913 . S
H736 C754 0.951 . S
H737 C756 0.951 . S
H738 C758 0.950 . S
H739 C759 0.950 . S
H740 C761 0.950 . S
H741 C764 0.950 . S
H742 C765 0.950 . S
H743 C767 0.950 . S
H744 C768 0.950 . S
H745 C769 0.951 . S
H746 C771 0.951 . S
H747 C773 0.950 . S
H748 C774 0.950 . S
H749 C776 0.950 . S
H750 C779 0.950 . S
H751 C780 0.950 . S
H752 C782 0.950 . S
H753 C783 0.950 . S
C754 H736 0.951 . S
C754 C755 1.366 . S
C754 C756 1.388 . S
C755 C754 1.366 . S
C755 C759 1.385 . S
C756 H737 0.951 . S
C756 C754 1.388 . S
C756 C757 1.366 . S
C757 C756 1.366 . S
C757 C758 1.414 . S
C757 C760 1.499 . S
C758 H738 0.950 . S
C758 C757 1.414 . S
C758 C759 1.374 . S
C759 H739 0.950 . S
C759 C755 1.385 . S
C759 C758 1.374 . S
C760 C757 1.499 . S
C760 C761 1.373 . S
C760 C762 1.389 . S
C761 H740 0.950 . S
C761 C760 1.373 . S
C761 C777 1.377 . S
C762 C760 1.389 . S
C762 C763 1.524 . S
C762 C776 1.377 . S
C763 C762 1.524 . S
C763 C764 1.397 . S
C763 C768 1.363 . S
C764 H741 0.950 . S
C764 C763 1.397 . S
C764 C765 1.334 . S
C765 H742 0.950 . S
C765 C764 1.334 . S
C765 C766 1.287 . S
C766 C765 1.287 . S
C766 C767 1.524 . S
C766 H785 0.913 . S
C767 H743 0.950 . S
C767 C766 1.524 . S
C767 C768 1.415 . S
C768 H744 0.950 . S
C768 C763 1.363 . S
C768 C767 1.415 . S
C769 H745 0.951 . S
C769 C770 1.366 . S
C769 C771 1.388 . S
C770 C769 1.366 . S
C770 C774 1.385 . S
C771 H746 0.951 . S
C771 C769 1.388 . S
C771 C772 1.366 . S
C772 C771 1.366 . S
C772 C773 1.414 . S
C772 C775 1.499 . S
C773 H747 0.950 . S
C773 C772 1.414 . S
C773 C774 1.374 . S
C774 H748 0.950 . S
C774 C770 1.385 . S
C774 C773 1.374 . S
C775 C772 1.499 . S
C775 C776 1.373 . S
C775 C777 1.389 . S
C776 H749 0.950 . S
C776 C762 1.377 . S
C776 C775 1.373 . S
C777 C761 1.377 . S
C777 C775 1.389 . S
C777 C778 1.524 . S
C778 C777 1.524 . S
C778 C779 1.397 . S
C778 C783 1.363 . S
C779 H750 0.950 . S
C779 C778 1.397 . S
C779 C780 1.334 . S
C780 H751 0.950 . S
C780 C779 1.334 . S
C780 C781 1.287 . S
C781 C780 1.287 . S
C781 C782 1.524 . S
C781 H784 0.999 . S
C782 H752 0.950 . S
C782 C781 1.524 . S
C782 C783 1.415 . S
C783 H753 0.950 . S
C783 C778 1.363 . S
C783 C782 1.415 . S
H784 C781 0.999 . S
H785 C766 0.913 . S
H786 C804 0.951 . S
H787 C806 0.951 . S
H788 C808 0.950 . S
H789 C809 0.950 . S
H790 C811 0.950 1_655 S
H791 C814 0.950 . S
H792 C815 0.950 . S
H793 C817 0.950 . S
H794 C818 0.950 . S
H795 C819 0.951 . S
H796 C821 0.951 . S
H797 C823 0.950 . S
H798 C824 0.950 . S
H799 C826 0.950 . S
H800 C829 0.950 . S
H801 C830 0.950 . S
H802 C832 0.950 . S
H803 C833 0.950 1_554 S
C804 H786 0.951 . S
C804 C805 1.366 . S
C804 C806 1.388 . S
C805 C804 1.366 . S
C805 C809 1.385 . S
C806 H787 0.951 . S
C806 C804 1.388 . S
C806 C807 1.366 . S
C807 C806 1.366 . S
C807 C808 1.414 . S
C807 C810 1.499 . S
C808 H788 0.950 . S
C808 C807 1.414 . S
C808 C809 1.374 . S
C809 H789 0.950 . S
C809 C805 1.385 . S
C809 C808 1.374 . S
C810 C807 1.499 . S
C810 C811 1.373 . S
C810 C812 1.389 . S
C811 H790 0.950 1_455 S
C811 C810 1.373 . S
C811 C827 1.377 . S
C812 C810 1.389 . S
C812 C813 1.524 . S
C812 C826 1.377 . S
C813 C812 1.524 . S
C813 C814 1.397 . S
C813 C818 1.363 . S
C814 H791 0.950 . S
C814 C813 1.397 . S
C814 C815 1.334 . S
C815 H792 0.950 . S
C815 C814 1.334 . S
C815 C816 1.287 . S
C816 C815 1.287 . S
C816 C817 1.524 . S
C816 H835 0.913 . S
C817 H793 0.950 . S
C817 C816 1.524 . S
C817 C818 1.415 . S
C818 H794 0.950 . S
C818 C813 1.363 . S
C818 C817 1.415 . S
C819 H795 0.951 . S
C819 C820 1.366 . S
C819 C821 1.388 . S
C820 C819 1.366 . S
C820 C824 1.385 . S
C821 H796 0.951 . S
C821 C819 1.388 . S
C821 C822 1.366 . S
C822 C821 1.366 . S
C822 C823 1.414 . S
C822 C825 1.499 . S
C823 H797 0.950 . S
C823 C822 1.414 . S
C823 C824 1.374 . S
C824 H798 0.950 . S
C824 C820 1.385 . S
C824 C823 1.374 . S
C825 C822 1.499 . S
C825 C826 1.373 1_556 S
C825 C827 1.389 1_556 S
C826 H799 0.950 . S
C826 C812 1.377 . S
C826 C825 1.373 1_554 S
C827 C811 1.377 . S
C827 C825 1.389 1_554 S
C827 C828 1.524 1_454 S
C828 C827 1.524 1_656 S
C828 C829 1.397 . S
C828 C833 1.363 . S
C829 H800 0.950 . S
C829 C828 1.397 . S
C829 C830 1.334 . S
C830 H801 0.950 . S
C830 C829 1.334 . S
C830 C831 1.287 . S
C831 C830 1.287 . S
C831 C832 1.524 . S
C831 H834 0.999 . S
C832 H802 0.950 . S
C832 C831 1.524 . S
C832 C833 1.415 . S
C833 H803 0.950 1_556 S
C833 C828 1.363 . S
C833 C832 1.415 . S
H834 C831 0.999 . S
H835 C816 0.913 . S
H836 C854 0.951 . S
H837 C856 0.951 . S
H838 C858 0.950 . S
H839 C859 0.950 . S
H840 C861 0.950 . S
H841 C864 0.950 . S
H842 C865 0.950 . S
H843 C867 0.950 . S
H844 C868 0.950 . S
H845 C869 0.951 . S
H846 C871 0.951 . S
H847 C873 0.950 . S
H848 C874 0.950 . S
H849 C876 0.950 . S
H850 C879 0.950 . S
H851 C880 0.950 . S
H852 C882 0.950 . S
H853 C883 0.950 . S
C854 H836 0.951 . S
C854 C855 1.366 . S
C854 C856 1.388 . S
C855 C854 1.366 . S
C855 C859 1.385 . S
C856 H837 0.951 . S
C856 C854 1.388 . S
C856 C857 1.366 . S
C857 C856 1.366 . S
C857 C858 1.414 . S
C857 C860 1.499 . S
C858 H838 0.950 . S
C858 C857 1.414 . S
C858 C859 1.374 . S
C859 H839 0.950 . S
C859 C855 1.385 . S
C859 C858 1.374 . S
C860 C857 1.499 . S
C860 C861 1.373 . S
C860 C862 1.389 . S
C861 H840 0.950 . S
C861 C860 1.373 . S
C861 C877 1.377 . S
C862 C860 1.389 . S
C862 C863 1.524 1_545 S
C862 C876 1.377 . S
C863 C862 1.524 1_565 S
C863 C864 1.397 . S
C863 C868 1.363 . S
C864 H841 0.950 . S
C864 C863 1.397 . S
C864 C865 1.334 . S
C865 H842 0.950 . S
C865 C864 1.334 . S
C865 C866 1.287 . S
C866 C865 1.287 . S
C866 C867 1.524 . S
C866 H885 0.913 . S
C867 H843 0.950 . S
C867 C866 1.524 . S
C867 C868 1.415 . S
C868 H844 0.950 . S
C868 C863 1.363 . S
C868 C867 1.415 . S
C869 H845 0.951 . S
C869 C870 1.366 . S
C869 C871 1.388 . S
C870 C869 1.366 . S
C870 C874 1.385 . S
C871 H846 0.951 . S
C871 C869 1.388 . S
C871 C872 1.366 . S
C872 C871 1.366 . S
C872 C873 1.414 . S
C872 C875 1.499 . S
C873 H847 0.950 . S
C873 C872 1.414 . S
C873 C874 1.374 . S
C874 H848 0.950 . S
C874 C870 1.385 . S
C874 C873 1.374 . S
C875 C872 1.499 . S
C875 C876 1.373 . S
C875 C877 1.389 . S
C876 H849 0.950 . S
C876 C862 1.377 . S
C876 C875 1.373 . S
C877 C861 1.377 . S
C877 C875 1.389 . S
C877 C878 1.524 . S
C878 C877 1.524 . S
C878 C879 1.397 . S
C878 C883 1.363 . S
C879 H850 0.950 . S
C879 C878 1.397 . S
C879 C880 1.334 . S
C880 H851 0.950 . S
C880 C879 1.334 . S
C880 C881 1.287 . S
C881 C880 1.287 . S
C881 C882 1.524 . S
C881 H884 0.999 . S
C882 H852 0.950 . S
C882 C881 1.524 . S
C882 C883 1.415 . S
C883 H853 0.950 . S
C883 C878 1.363 . S
C883 C882 1.415 . S
H884 C881 0.999 . S
H885 C866 0.913 . S
H886 C904 0.951 . S
H887 C906 0.951 . S
H888 C908 0.950 . S
H889 C909 0.950 . S
H890 C911 0.950 . S
H891 C914 0.950 . S
H892 C915 0.950 . S
H893 C917 0.950 . S
H894 C918 0.950 . S
H895 C919 0.951 . S
H896 C921 0.951 . S
H897 C923 0.950 . S
H898 C924 0.950 . S
H899 C926 0.950 . S
H900 C929 0.950 . S
H901 C930 0.950 . S
H902 C932 0.950 . S
H903 C933 0.950 . S
C904 H886 0.951 . S
C904 C905 1.366 . S
C904 C906 1.388 . S
C905 C904 1.366 . S
C905 C909 1.385 . S
C906 H887 0.951 . S
C906 C904 1.388 . S
C906 C907 1.366 . S
C907 C906 1.366 . S
C907 C908 1.414 . S
C907 C910 1.499 . S
C908 H888 0.950 . S
C908 C907 1.414 . S
C908 C909 1.374 . S
C909 H889 0.950 . S
C909 C905 1.385 . S
C909 C908 1.374 . S
C910 C907 1.499 . S
C910 C911 1.373 . S
C910 C912 1.389 . S
C911 H890 0.950 . S
C911 C910 1.373 . S
C911 C927 1.377 . S
C912 C910 1.389 . S
C912 C913 1.524 . S
C912 C926 1.377 . S
C913 C912 1.524 . S
C913 C914 1.397 . S
C913 C918 1.363 . S
C914 H891 0.950 . S
C914 C913 1.397 . S
C914 C915 1.334 . S
C915 H892 0.950 . S
C915 C914 1.334 . S
C915 C916 1.287 . S
C916 C915 1.287 . S
C916 C917 1.524 . S
C916 H935 0.913 . S
C917 H893 0.950 . S
C917 C916 1.524 . S
C917 C918 1.415 . S
C918 H894 0.950 . S
C918 C913 1.363 . S
C918 C917 1.415 . S
C919 H895 0.951 . S
C919 C920 1.366 . S
C919 C921 1.388 . S
C920 C919 1.366 . S
C920 C924 1.385 . S
C921 H896 0.951 . S
C921 C919 1.388 . S
C921 C922 1.366 . S
C922 C921 1.366 . S
C922 C923 1.414 . S
C922 C925 1.499 . S
C923 H897 0.950 . S
C923 C922 1.414 . S
C923 C924 1.374 . S
C924 H898 0.950 . S
C924 C920 1.385 . S
C924 C923 1.374 . S
C925 C922 1.499 . S
C925 C926 1.373 . S
C925 C927 1.389 . S
C926 H899 0.950 . S
C926 C912 1.377 . S
C926 C925 1.373 . S
C927 C911 1.377 . S
C927 C925 1.389 . S
C927 C928 1.524 . S
C928 C927 1.524 . S
C928 C929 1.397 . S
C928 C933 1.363 . S
C929 H900 0.950 . S
C929 C928 1.397 . S
C929 C930 1.334 . S
C930 H901 0.950 . S
C930 C929 1.334 . S
C930 C931 1.287 . S
C931 C930 1.287 . S
C931 C932 1.524 . S
C931 H934 0.999 . S
C932 H902 0.950 . S
C932 C931 1.524 . S
C932 C933 1.415 . S
C933 H903 0.950 . S
C933 C928 1.363 . S
C933 C932 1.415 . S
H934 C931 0.999 . S
H935 C916 0.913 . S
H936 C954 0.951 . S
H937 C956 0.951 . S
H938 C958 0.950 . S
H939 C959 0.950 . S
H940 C961 0.950 . S
H941 C964 0.950 1_565 S
H942 C965 0.950 . S
H943 C967 0.950 . S
H944 C968 0.950 . S
H945 C969 0.951 1_565 S
H946 C971 0.951 . S
H947 C973 0.950 . S
H948 C974 0.950 . S
H949 C976 0.950 . S
H950 C979 0.950 . S
H951 C980 0.950 . S
H952 C982 0.950 . S
H953 C983 0.950 . S
C954 H936 0.951 . S
C954 C955 1.366 . S
C954 C956 1.388 . S
C955 C954 1.366 . S
C955 C959 1.385 . S
C956 H937 0.951 . S
C956 C954 1.388 . S
C956 C957 1.366 . S
C957 C956 1.366 . S
C957 C958 1.414 . S
C957 C960 1.499 . S
C958 H938 0.950 . S
C958 C957 1.414 . S
C958 C959 1.374 . S
C959 H939 0.950 . S
C959 C955 1.385 . S
C959 C958 1.374 . S
C960 C957 1.499 . S
C960 C961 1.373 . S
C960 C962 1.389 . S
C961 H940 0.950 . S
C961 C960 1.373 . S
C961 C977 1.377 . S
C962 C960 1.389 . S
C962 C963 1.524 . S
C962 C976 1.377 . S
C963 C962 1.524 . S
C963 C964 1.397 . S
C963 C968 1.363 . S
C964 H941 0.950 1_545 S
C964 C963 1.397 . S
C964 C965 1.334 1_545 S
C965 H942 0.950 . S
C965 C964 1.334 1_565 S
C965 C966 1.287 1_565 S
C966 C965 1.287 1_545 S
C966 C967 1.524 . S
C966 H985 0.913 1_545 S
C967 H943 0.950 . S
C967 C966 1.524 . S
C967 C968 1.415 . S
C968 H944 0.950 . S
C968 C963 1.363 . S
C968 C967 1.415 . S
C969 H945 0.951 1_545 S
C969 C970 1.366 . S
C969 C971 1.388 . S
C970 C969 1.366 . S
C970 C974 1.385 . S
C971 H946 0.951 . S
C971 C969 1.388 . S
C971 C972 1.366 . S
C972 C971 1.366 . S
C972 C973 1.414 . S
C972 C975 1.499 . S
C973 H947 0.950 . S
C973 C972 1.414 . S
C973 C974 1.374 . S
C974 H948 0.950 . S
C974 C970 1.385 . S
C974 C973 1.374 . S
C975 C972 1.499 . S
C975 C976 1.373 . S
C975 C977 1.389 . S
C976 H949 0.950 . S
C976 C962 1.377 . S
C976 C975 1.373 . S
C977 C961 1.377 . S
C977 C975 1.389 . S
C977 C978 1.524 . S
C978 C977 1.524 . S
C978 C979 1.397 . S
C978 C983 1.363 . S
C979 H950 0.950 . S
C979 C978 1.397 . S
C979 C980 1.334 . S
C980 H951 0.950 . S
C980 C979 1.334 . S
C980 C981 1.287 . S
C981 C980 1.287 . S
C981 C982 1.524 . S
C981 H984 0.999 . S
C982 H952 0.950 . S
C982 C981 1.524 . S
C982 C983 1.415 . S
C983 H953 0.950 . S
C983 C978 1.363 . S
C983 C982 1.415 . S
H984 C981 0.999 . S
H985 C966 0.913 1_565 S
H986 C1004 0.951 . S
H987 C1006 0.951 . S
H988 C1008 0.950 . S
H989 C1009 0.950 . S
H990 C1011 0.950 . S
H991 C1014 0.950 . S
H992 C1015 0.950 . S
H993 C1017 0.950 . S
H994 C1018 0.950 . S
H995 C1019 0.951 . S
H996 C1021 0.951 . S
H997 C1023 0.950 . S
H998 C1024 0.950 . S
H999 C1026 0.950 . S
H1000 C1029 0.950 . S
H1001 C1030 0.950 . S
H1002 C1032 0.950 . S
H1003 C1033 0.950 . S
C1004 H986 0.951 . S
C1004 C1005 1.366 . S
C1004 C1006 1.388 . S
C1005 C1004 1.366 . S
C1005 C1009 1.385 . S
C1006 H987 0.951 . S
C1006 C1004 1.388 . S
C1006 C1007 1.366 . S
C1007 C1006 1.366 . S
C1007 C1008 1.414 . S
C1007 C1010 1.499 . S
C1008 H988 0.950 . S
C1008 C1007 1.414 . S
C1008 C1009 1.374 . S
C1009 H989 0.950 . S
C1009 C1005 1.385 . S
C1009 C1008 1.374 . S
C1010 C1007 1.499 . S
C1010 C1011 1.373 . S
C1010 C1012 1.389 . S
C1011 H990 0.950 . S
C1011 C1010 1.373 . S
C1011 C1027 1.377 . S
C1012 C1010 1.389 . S
C1012 C1013 1.524 . S
C1012 C1026 1.377 . S
C1013 C1012 1.524 . S
C1013 C1014 1.397 . S
C1013 C1018 1.363 . S
C1014 H991 0.950 . S
C1014 C1013 1.397 . S
C1014 C1015 1.334 . S
C1015 H992 0.950 . S
C1015 C1014 1.334 . S
C1015 C1016 1.287 . S
C1016 C1015 1.287 . S
C1016 C1017 1.524 . S
C1016 H1035 0.913 . S
C1017 H993 0.950 . S
C1017 C1016 1.524 . S
C1017 C1018 1.415 . S
C1018 H994 0.950 . S
C1018 C1013 1.363 . S
C1018 C1017 1.415 . S
C1019 H995 0.951 . S
C1019 C1020 1.366 . S
C1019 C1021 1.388 . S
C1020 C1019 1.366 . S
C1020 C1024 1.385 . S
C1021 H996 0.951 . S
C1021 C1019 1.388 . S
C1021 C1022 1.366 . S
C1022 C1021 1.366 . S
C1022 C1023 1.414 . S
C1022 C1025 1.499 . S
C1023 H997 0.950 . S
C1023 C1022 1.414 . S
C1023 C1024 1.374 . S
C1024 H998 0.950 . S
C1024 C1020 1.385 . S
C1024 C1023 1.374 . S
C1025 C1022 1.499 . S
C1025 C1026 1.373 1_554 S
C1025 C1027 1.389 1_554 S
C1026 H999 0.950 . S
C1026 C1012 1.377 . S
C1026 C1025 1.373 1_556 S
C1027 C1011 1.377 . S
C1027 C1025 1.389 1_556 S
C1027 C1028 1.524 1_556 S
C1028 C1027 1.524 1_554 S
C1028 C1029 1.397 . S
C1028 C1033 1.363 . S
C1029 H1000 0.950 . S
C1029 C1028 1.397 . S
C1029 C1030 1.334 . S
C1030 H1001 0.950 . S
C1030 C1029 1.334 . S
C1030 C1031 1.287 . S
C1031 C1030 1.287 . S
C1031 C1032 1.524 . S
C1031 H1034 0.999 . S
C1032 H1002 0.950 . S
C1032 C1031 1.524 . S
C1032 C1033 1.415 . S
C1033 H1003 0.950 . S
C1033 C1028 1.363 . S
C1033 C1032 1.415 . S
H1034 C1031 0.999 . S
H1035 C1016 0.913 . S
H1036 C1054 0.951 . S
H1037 C1056 0.951 . S
H1038 C1058 0.950 . S
H1039 C1059 0.950 . S
H1040 C1061 0.950 1_655 S
H1041 C1064 0.950 . S
H1042 C1065 0.950 . S
H1043 C1067 0.950 . S
H1044 C1068 0.950 . S
H1045 C1069 0.951 . S
H1046 C1071 0.951 . S
H1047 C1073 0.950 . S
H1048 C1074 0.950 . S
H1049 C1076 0.950 . S
H1050 C1079 0.950 . S
H1051 C1080 0.950 . S
H1052 C1082 0.950 . S
H1053 C1083 0.950 . S
C1054 H1036 0.951 . S
C1054 C1055 1.366 . S
C1054 C1056 1.388 . S
C1055 C1054 1.366 . S
C1055 C1059 1.385 . S
C1056 H1037 0.951 . S
C1056 C1054 1.388 . S
C1056 C1057 1.366 . S
C1057 C1056 1.366 . S
C1057 C1058 1.414 . S
C1057 C1060 1.499 . S
C1058 H1038 0.950 . S
C1058 C1057 1.414 . S
C1058 C1059 1.374 . S
C1059 H1039 0.950 . S
C1059 C1055 1.385 . S
C1059 C1058 1.374 . S
C1060 C1057 1.499 . S
C1060 C1061 1.373 . S
C1060 C1062 1.389 . S
C1061 H1040 0.950 1_455 S
C1061 C1060 1.373 . S
C1061 C1077 1.377 . S
C1062 C1060 1.389 . S
C1062 C1063 1.524 . S
C1062 C1076 1.377 . S
C1063 C1062 1.524 . S
C1063 C1064 1.397 . S
C1063 C1068 1.363 . S
C1064 H1041 0.950 . S
C1064 C1063 1.397 . S
C1064 C1065 1.334 . S
C1065 H1042 0.950 . S
C1065 C1064 1.334 . S
C1065 C1066 1.287 . S
C1066 C1065 1.287 . S
C1066 C1067 1.524 . S
C1066 H1085 0.913 . S
C1067 H1043 0.950 . S
C1067 C1066 1.524 . S
C1067 C1068 1.415 . S
C1068 H1044 0.950 . S
C1068 C1063 1.363 . S
C1068 C1067 1.415 . S
C1069 H1045 0.951 . S
C1069 C1070 1.366 . S
C1069 C1071 1.388 . S
C1070 C1069 1.366 . S
C1070 C1074 1.385 . S
C1071 H1046 0.951 . S
C1071 C1069 1.388 . S
C1071 C1072 1.366 . S
C1072 C1071 1.366 . S
C1072 C1073 1.414 . S
C1072 C1075 1.499 . S
C1073 H1047 0.950 . S
C1073 C1072 1.414 . S
C1073 C1074 1.374 . S
C1074 H1048 0.950 . S
C1074 C1070 1.385 . S
C1074 C1073 1.374 . S
C1075 C1072 1.499 . S
C1075 C1076 1.373 . S
C1075 C1077 1.389 . S
C1076 H1049 0.950 . S
C1076 C1062 1.377 . S
C1076 C1075 1.373 . S
C1077 C1061 1.377 . S
C1077 C1075 1.389 . S
C1077 C1078 1.524 1_455 S
C1078 C1077 1.524 1_655 S
C1078 C1079 1.397 . S
C1078 C1083 1.363 . S
C1079 H1050 0.950 . S
C1079 C1078 1.397 . S
C1079 C1080 1.334 . S
C1080 H1051 0.950 . S
C1080 C1079 1.334 . S
C1080 C1081 1.287 . S
C1081 C1080 1.287 . S
C1081 C1082 1.524 . S
C1081 H1084 0.999 . S
C1082 H1052 0.950 . S
C1082 C1081 1.524 . S
C1082 C1083 1.415 . S
C1083 H1053 0.950 . S
C1083 C1078 1.363 . S
C1083 C1082 1.415 . S
H1084 C1081 0.999 . S
H1085 C1066 0.913 . S
C205 C9 0.523 . S
C220 C185 0.518 . S
C255 C49 0.348 . S
C270 C163 0.354 . S
C305 C89 0.283 . S
C320 C174 0.328 . S
C355 C26 0.257 . S
C370 C179 0.207 . S
C420 C157 0.214 . S
C405 C66 0.275 . S
C470 C168 0.228 . S
C455 C106 0.331 . S
C505 C43 3.007 . S
C520 C141 2.950 . S
C555 C83 2.957 . S
C570 C146 2.911 . S
C605 C22 3.005 . S
C620 C124 2.953 1_565 S
C670 C135 2.950 . S
C655 C62 2.998 . S
C720 C152 2.970 . S
C705 C102 3.032 . S
C755 C3 3.000 . S
C770 C130 2.947 . S
C820 C147 1.716 . S
C805 C15 1.692 . S
C855 C55 1.726 . S
C870 C125 1.740 . S
C905 C95 1.713 . S
C920 C136 1.736 . S
C970 C169 1.267 . S
C955 C42 1.239 . S
C1020 C180 1.271 . S
C1005 C82 1.248 . S
C1055 C2 1.219 . S
C1070 C158 1.243 . S
