# Generated by pormake.
# Topology anh, (6,3)-cn, num edge types: 1
# Building blocks:
#     Node 0, Type 0, BuildingBlock: VOLQOD_clean_sbu_1, # of connection points: 6
#     Node 1, Type 0, BuildingBlock: VOLQOD_clean_sbu_1, # of connection points: 6
#     Node 2, Type 0, BuildingBlock: VOLQOD_clean_sbu_1, # of connection points: 6
#     Node 3, Type 1, BuildingBlock: INOVEN_clean_linker_0, # of connection points: 3
#     Node 4, Type 1, BuildingBlock: INOVEN_clean_linker_0, # of connection points: 3
#     Node 5, Type 1, BuildingBlock: INOVEN_clean_linker_0, # of connection points: 3
#     Node 6, Type 1, BuildingBlock: INOVEN_clean_linker_0, # of connection points: 3
#     Node 7, Type 1, BuildingBlock: INOVEN_clean_linker_0, # of connection points: 3
#     Node 8, Type 1, BuildingBlock: INOVEN_clean_linker_0, # of connection points: 3
#     Edge 9, Type (0, 1), BuildingBlock: AJUNOK_clean_linker_0, # of connection points: 2
#     Edge 10, Type (0, 1), BuildingBlock: AJUNOK_clean_linker_0, # of connection points: 2
#     Edge 11, Type (0, 1), BuildingBlock: AJUNOK_clean_linker_0, # of connection points: 2
#     Edge 12, Type (0, 1), BuildingBlock: AJUNOK_clean_linker_0, # of connection points: 2
#     Edge 13, Type (0, 1), BuildingBlock: AJUNOK_clean_linker_0, # of connection points: 2
#     Edge 14, Type (0, 1), BuildingBlock: AJUNOK_clean_linker_0, # of connection points: 2
#     Edge 15, Type (0, 1), BuildingBlock: AJUNOK_clean_linker_0, # of connection points: 2
#     Edge 16, Type (0, 1), BuildingBlock: AJUNOK_clean_linker_0, # of connection points: 2
#     Edge 17, Type (0, 1), BuildingBlock: AJUNOK_clean_linker_0, # of connection points: 2
#     Edge 18, Type (0, 1), BuildingBlock: AJUNOK_clean_linker_0, # of connection points: 2
#     Edge 19, Type (0, 1), BuildingBlock: AJUNOK_clean_linker_0, # of connection points: 2
#     Edge 20, Type (0, 1), BuildingBlock: AJUNOK_clean_linker_0, # of connection points: 2
#     Edge 21, Type (0, 1), BuildingBlock: AJUNOK_clean_linker_0, # of connection points: 2
#     Edge 22, Type (0, 1), BuildingBlock: AJUNOK_clean_linker_0, # of connection points: 2
#     Edge 23, Type (0, 1), BuildingBlock: AJUNOK_clean_linker_0, # of connection points: 2
#     Edge 24, Type (0, 1), BuildingBlock: AJUNOK_clean_linker_0, # of connection points: 2
#     Edge 25, Type (0, 1), BuildingBlock: AJUNOK_clean_linker_0, # of connection points: 2
#     Edge 26, Type (0, 1), BuildingBlock: AJUNOK_clean_linker_0, # of connection points: 2
# Relax obj value: 0.157
# Max RMSD: 0.215
# Mean RMSD: 0.130
data_MOF--net-anh--node1-VOLQOD_clean_sbu_1--node2-INOVEN_clean_linker_0--edge1-AJUNOK_clean_linker_0
_symmetry_space_group_name_H-M    P1
_symmetry_Int_Tables_number       1
_symmetry_cell_setting            triclinic
loop_
_symmetry_equiv_pos_as_xyz
'x, y, z'
_cell_length_a     22.354098
_cell_length_b     22.199162
_cell_length_c     41.930013
_cell_angle_alpha  92.437426
_cell_angle_beta   92.228533
_cell_angle_gamma 120.62432
loop_
_atom_site_label
_atom_site_type_symbol
_atom_site_fract_x
_atom_site_fract_y
_atom_site_fract_z
_atom_type_partial_charge
O0 O 0.02047 0.60561 0.23188 0.0
Zn1 Zn 0.02175 0.63139 0.18636 0.0
O2 O 0.024 0.56095 0.15785 0.0
Zn3 Zn 0.93779 0.50738 0.13169 0.0
Zn4 Zn 0.04235 0.49878 0.1826 0.0
Zn5 Zn 0.09631 0.60806 0.12921 0.0
O6 O 0.95199 0.51506 0.08426 0.0
O7 O 0.05976 0.60595 0.08477 0.0
O8 O 0.93681 0.63982 0.1756 0.0
O9 O 0.87676 0.54556 0.14144 0.0
O10 O 0.88515 0.40728 0.14289 0.0
O11 O 0.95629 0.40205 0.17953 0.0
O12 O 0.12465 0.49293 0.16707 0.0
O13 O 0.11212 0.72388 0.18625 0.0
O14 O 0.14971 0.5595 0.12575 0.0
O15 O 0.16555 0.70557 0.14671 0.0
C16 C 0.04156 0.56898 0.24566 0.0
C17 C 0.0024 0.56119 0.06964 0.0
C18 C 0.89808 0.37339 0.16302 0.0
C19 C 0.88188 0.59739 0.1581 0.0
C20 C 0.15874 0.51813 0.14255 0.0
C21 C 0.16451 0.74456 0.16948 0.0
O22 O 0.05823 0.53041 0.22953 0.0
O23 O 0.49272 0.07063 0.4267 0.0
Zn24 Zn 0.46476 0.06436 0.47199 0.0
O25 O 0.53309 0.05819 0.49947 0.0
Zn26 Zn 0.59025 0.14401 0.52604 0.0
Zn27 Zn 0.59133 0.03645 0.47371 0.0
Zn28 Zn 0.48376 0.98559 0.52751 0.0
O29 O 0.58611 0.12769 0.57337 0.0
O30 O 0.48992 0.02284 0.5722 0.0
O31 O 0.4586 0.14967 0.4855 0.0
O32 O 0.55287 0.2071 0.51943 0.0
O33 O 0.68838 0.19583 0.51258 0.0
O34 O 0.68793 0.12234 0.47493 0.0
O35 O 0.59701 0.95377 0.48978 0.0
O36 O 0.37023 0.97532 0.47158 0.0
O37 O 0.52826 0.92881 0.53016 0.0
O38 O 0.38494 0.91996 0.5111 0.0
C39 C 0.52408 0.04434 0.41213 0.0
C40 C 0.53819 0.07803 0.5877 0.0
C41 C 0.71896 0.18144 0.49115 0.0
C42 C 0.50101 0.20334 0.50383 0.0
C43 C 0.57003 0.91934 0.51404 0.0
C44 C 0.34696 0.92238 0.4884 0.0
O45 O 0.55634 0.01933 0.42716 0.0
O46 O 0.4592 0.47239 0.76007 0.0
Zn47 Zn 0.45359 0.45464 0.80708 0.0
O48 O 0.53791 0.52749 0.83173 0.0
Zn49 Zn 0.51725 0.58551 0.85918 0.0
Zn50 Zn 0.60744 0.58625 0.80275 0.0
Zn51 Zn 0.57354 0.48369 0.85927 0.0
O52 O 0.55457 0.59629 0.90474 0.0
O53 O 0.57501 0.50871 0.9061 0.0
O54 O 0.36679 0.44953 0.82351 0.0
O55 O 0.41465 0.5388 0.8608 0.0
O56 O 0.55147 0.68002 0.84224 0.0
O57 O 0.6186 0.68276 0.80409 0.0
O58 O 0.70043 0.59273 0.81237 0.0
O59 O 0.44764 0.36059 0.80978 0.0
O60 O 0.6708 0.51595 0.84974 0.0
O61 O 0.52453 0.38013 0.84978 0.0
C62 C 0.51244 0.50515 0.74395 0.0
C63 C 0.57102 0.55823 0.92032 0.0
C64 C 0.59172 0.7117 0.82034 0.0
C65 C 0.36151 0.48702 0.84583 0.0
C66 C 0.71481 0.55802 0.83146 0.0
C67 C 0.47839 0.33891 0.82819 0.0
O68 O 0.57318 0.54551 0.75743 0.0
H69 H 0.47932 0.00721 0.18075 0.0
H70 H 0.39917 0.94291 0.2729 0.0
H71 H 0.6099 0.10981 0.2673 0.0
N72 N 0.60625 0.10731 0.20276 0.0
N73 N 0.66787 0.14 0.21422 0.0
C74 C 0.48633 0.01291 0.20665 0.0
C75 C 0.43161 0.9681 0.22499 0.0
C76 C 0.5512 0.06333 0.22167 0.0
C77 C 0.56041 0.07042 0.25532 0.0
C78 C 0.50561 0.02695 0.27367 0.0
C79 C 0.44157 0.97609 0.2585 0.0
H80 H 0.50021 0.50113 0.51346 0.0
H81 H 0.46704 0.38435 0.59696 0.0
H82 H 0.51221 0.5969 0.60677 0.0
N83 N 0.52662 0.61953 0.54387 0.0
N84 N 0.55273 0.6762 0.56045 0.0
C85 C 0.49512 0.49734 0.53901 0.0
C86 C 0.48041 0.43522 0.55284 0.0
C87 C 0.50714 0.55597 0.55824 0.0
C88 C 0.50218 0.55158 0.59154 0.0
C89 C 0.4872 0.48962 0.60549 0.0
C90 C 0.47591 0.43142 0.58605 0.0
H91 H -0.00277 0.52653 0.83815 0.0
H92 H 0.91728 0.57546 0.92098 0.0
H93 H 0.07186 0.51697 0.93295 0.0
N94 N 0.08688 0.50212 0.8701 0.0
N95 N 0.12321 0.48699 0.88746 0.0
C96 C -0.00333 0.5325 0.86391 0.0
C97 C 0.95237 0.5528 0.87726 0.0
C98 C 0.04018 0.51973 0.88382 0.0
C99 C 0.03872 0.52701 0.91725 0.0
C100 C -0.00549 0.54692 0.93076 0.0
C101 C 0.95183 0.56027 0.91065 0.0
H102 H 0.06833 0.60657 0.47808 0.0
H103 H 0.14122 0.6972 0.38852 0.0
H104 H 0.98353 0.47991 0.38928 0.0
N105 N 0.97833 0.47788 0.45332 0.0
N106 N 0.94999 0.41666 0.44087 0.0
C107 C 0.06677 0.60167 0.45219 0.0
C108 C 0.10967 0.66048 0.43532 0.0
C109 C 0.0222 0.53615 0.43581 0.0
C110 C 0.01962 0.52976 0.40219 0.0
C111 C 0.06165 0.588 0.38505 0.0
C112 C 0.1068 0.65291 0.40176 0.0
H113 H 0.51762 0.06165 0.8178 0.0
H114 H 0.5028 0.15364 0.7315 0.0
H115 H 0.56961 0.0038 0.72829 0.0
N116 N 0.55928 0.97974 0.7908 0.0
N117 N 0.58833 0.95156 0.77704 0.0
C118 C 0.52313 0.06684 0.79234 0.0
C119 C 0.50695 0.11221 0.77672 0.0
C120 C 0.54621 0.02783 0.77509 0.0
C121 C 0.55288 0.03441 0.74201 0.0
C122 C 0.53694 0.07935 0.72623 0.0
C123 C 0.51455 0.11842 0.74371 0.0
H124 H 0.5754 0.58291 0.15165 0.0
H125 H 0.69536 0.61797 0.06922 0.0
H126 H 0.48025 0.55801 0.05704 0.0
N127 N 0.45681 0.55121 0.1197 0.0
N128 N 0.40193 0.52705 0.10224 0.0
C129 C 0.57937 0.5856 0.12601 0.0
C130 C 0.64257 0.60302 0.11278 0.0
C131 C 0.52061 0.56945 0.10609 0.0
C132 C 0.52561 0.57138 0.07274 0.0
C133 C 0.58833 0.58869 0.0593 0.0
C134 C 0.64692 0.60549 0.07949 0.0
C135 C 0.26807 0.51759 0.15634 0.0
C136 C 0.21372 0.50409 0.13375 0.0
C137 C 0.32961 0.52218 0.14651 0.0
C138 C 0.3375 0.51236 0.11384 0.0
H139 H 0.26504 0.5295 0.18135 0.0
H140 H 0.37199 0.53644 0.16427 0.0
S141 S 0.20752 0.4678 0.0462 0.0
N142 N 0.16964 0.47533 0.07795 0.0
N143 N 0.28457 0.48257 0.05976 0.0
C144 C 0.28169 0.49395 0.09161 0.0
C145 C 0.21985 0.49019 0.10145 0.0
C146 C 0.8184 0.30609 0.49764 0.0
C147 C 0.78724 0.23863 0.48162 0.0
C148 C 0.87441 0.36453 0.48536 0.0
C149 C 0.90137 0.3575 0.45659 0.0
H150 H 0.79731 0.31471 0.51903 0.0
H151 H 0.89437 0.41573 0.49765 0.0
S152 S 0.84589 0.19313 0.40738 0.0
N153 N 0.7934 0.16835 0.43693 0.0
N154 N 0.89816 0.27881 0.41405 0.0
C155 C 0.87421 0.29043 0.44155 0.0
C156 C 0.81741 0.23076 0.45399 0.0
C157 C 0.57063 0.81163 0.8295 0.0
C158 C 0.60089 0.78002 0.81154 0.0
C159 C 0.56892 0.87006 0.81916 0.0
C160 C 0.59762 0.89904 0.79049 0.0
H161 H 0.54572 0.78966 0.85116 0.0
H162 H 0.54278 0.89084 0.83307 0.0
S163 S 0.68786 0.84143 0.73598 0.0
N164 N 0.66451 0.78643 0.7646 0.0
N165 N 0.66051 0.89592 0.74547 0.0
C166 C 0.63088 0.87063 0.77324 0.0
C167 C 0.63287 0.8113 0.78366 0.0
C168 C 0.82845 0.66749 0.1427 0.0
C169 C 0.82186 0.60735 0.15573 0.0
C170 C 0.76917 0.66832 0.13103 0.0
C171 C 0.70193 0.60951 0.13261 0.0
H172 H 0.87956 0.71155 0.13902 0.0
H173 H 0.7761 0.71334 0.11889 0.0
S174 S 0.65772 0.44292 0.16813 0.0
N175 N 0.74365 0.4905 0.17223 0.0
N176 N 0.63228 0.49242 0.15084 0.0
C177 C 0.6948 0.55164 0.14811 0.0
C178 C 0.75493 0.55047 0.15953 0.0
C179 C 0.26372 0.79358 0.49027 0.0
C180 C 0.27875 0.85823 0.47868 0.0
C181 C 0.20652 0.73007 0.47735 0.0
C182 C 0.16173 0.72859 0.45248 0.0
H183 H 0.2985 0.79132 0.50825 0.0
H184 H 0.19974 0.68159 0.4857 0.0
S185 S 0.16978 0.88337 0.41779 0.0
N186 N 0.2385 0.91703 0.44367 0.0
N187 N 0.13013 0.79749 0.41987 0.0
C188 C 0.17274 0.79295 0.44242 0.0
C189 C 0.23135 0.85775 0.45542 0.0
C190 C 0.52218 0.25606 0.83389 0.0
C191 C 0.47172 0.26967 0.82044 0.0
C192 C 0.52978 0.20116 0.82118 0.0
C193 C 0.4869 0.15746 0.79472 0.0
H194 H 0.55974 0.29108 0.85288 0.0
H195 H 0.57279 0.19628 0.83065 0.0
S196 S 0.33635 0.15959 0.75561 0.0
N197 N 0.37069 0.22697 0.78262 0.0
N198 N 0.38449 0.12302 0.75913 0.0
C199 C 0.43159 0.16555 0.78327 0.0
C200 C 0.42401 0.22174 0.79607 0.0
C201 C 0.56699 0.80671 0.50276 0.0
C202 C 0.58365 0.86463 0.524 0.0
C203 C 0.55983 0.74499 0.51427 0.0
C204 C 0.56987 0.74035 0.5473 0.0
H205 H 0.55436 0.8072 0.4776 0.0
H206 H 0.54321 0.69995 0.49753 0.0
S207 S 0.62247 0.8803 0.61172 0.0
N208 N 0.61604 0.91564 0.57883 0.0
N209 N 0.60362 0.80007 0.6002 0.0
C210 C 0.59164 0.7996 0.56814 0.0
C211 C 0.59827 0.86179 0.55659 0.0
C212 C 0.84069 0.62457 0.84853 0.0
C213 C 0.7833 0.56435 0.83308 0.0
C214 C 0.89907 0.62258 0.86051 0.0
C215 C 0.90163 0.56059 0.85701 0.0
H216 H 0.83786 0.67119 0.85391 0.0
H217 H 0.94024 0.66813 0.87453 0.0
S218 S 0.76731 0.39176 0.81508 0.0
N219 N 0.7346 0.44351 0.81234 0.0
N220 N 0.84474 0.44002 0.83442 0.0
C221 C 0.84712 0.50219 0.8391 0.0
C222 C 0.78762 0.50402 0.82725 0.0
C223 C 0.26053 0.87097 0.17343 0.0
C224 C 0.23179 0.80245 0.18313 0.0
C225 C 0.32627 0.92469 0.18657 0.0
C226 C 0.36454 0.91089 0.20963 0.0
H227 H 0.2321 0.883 0.15583 0.0
H228 H 0.3467 0.97741 0.17913 0.0
S229 S 0.31289 0.73794 0.24045 0.0
N230 N 0.2468 0.72253 0.21554 0.0
N231 N 0.37031 0.82253 0.23978 0.0
C232 C 0.33648 0.84188 0.21869 0.0
C233 C 0.27001 0.78785 0.20553 0.0
C234 C 0.4275 0.25191 0.52055 0.0
C235 C 0.4899 0.26259 0.50878 0.0
C236 C 0.42295 0.30886 0.53323 0.0
C237 C 0.48014 0.37781 0.53373 0.0
H238 H 0.38396 0.19915 0.52215 0.0
H239 H 0.37574 0.29875 0.54403 0.0
S240 S 0.65233 0.43302 0.50271 0.0
N241 N 0.6079 0.34671 0.49624 0.0
N242 N 0.59889 0.45382 0.51937 0.0
C243 C 0.54092 0.38923 0.51993 0.0
C244 C 0.5459 0.33144 0.50759 0.0
C245 C 0.24434 0.4715 0.83282 0.0
C246 C 0.29292 0.47185 0.85527 0.0
C247 C 0.18602 0.47334 0.84294 0.0
C248 C 0.1747 0.4744 0.87575 0.0
H249 H 0.25382 0.4744 0.80763 0.0
H250 H 0.15151 0.47676 0.82524 0.0
S251 S 0.28221 0.46787 0.9432 0.0
N252 N 0.323 0.46798 0.91116 0.0
N253 N 0.21259 0.46961 0.92991 0.0
C254 C 0.22022 0.46981 0.89791 0.0
C255 C 0.27975 0.4691 0.88778 0.0
C256 C 0.84877 0.27522 0.19934 0.0
C257 C 0.8405 0.3041 0.1714 0.0
C258 C 0.79168 0.21893 0.21203 0.0
C259 C 0.72442 0.18877 0.19726 0.0
H260 H 0.89895 0.29869 0.21267 0.0
H261 H 0.79957 0.2007 0.23448 0.0
S262 S 0.67541 0.23734 0.12108 0.0
N263 N 0.76009 0.29259 0.12733 0.0
N264 N 0.653 0.18657 0.15132 0.0
C265 C 0.71566 0.21329 0.16804 0.0
C266 C 0.77382 0.27095 0.15507 0.0
C267 C 0.05825 0.59825 0.01804 0.0
C268 C -0.00293 0.56033 0.03422 0.0
C269 C 0.05654 0.59464 0.98463 0.0
C270 C -0.00642 0.55356 0.96599 0.0
H271 H 0.10846 0.62975 0.03121 0.0
H272 H 0.10508 0.62371 0.97326 0.0
S273 S 0.81818 0.44683 0.99603 0.0
N274 N 0.87102 0.48233 0.02871 0.0
N275 N 0.8682 0.4757 0.96571 0.0
C276 C 0.93166 0.51699 0.98161 0.0
C277 C 0.93333 0.52024 0.01575 0.0
C278 C 0.51833 0.98489 0.35925 0.0
C279 C 0.52248 0.0424 0.37689 0.0
C280 C 0.51352 0.98051 0.32571 0.0
C281 C 0.51454 0.03433 0.30887 0.0
H282 H 0.51694 0.94215 0.37142 0.0
H283 H 0.50864 0.93467 0.31284 0.0
S284 S 0.52868 0.19755 0.3436 0.0
N285 N 0.52939 0.15518 0.37493 0.0
N286 N 0.52215 0.14741 0.31182 0.0
C287 C 0.52057 0.09285 0.3261 0.0
C288 C 0.52405 0.09675 0.36018 0.0
C289 C 0.4488 0.49844 0.69233 0.0
C290 C 0.50399 0.49673 0.70871 0.0
C291 C 0.44304 0.49545 0.65876 0.0
C292 C 0.49113 0.48862 0.64066 0.0
H293 H 0.41119 0.50435 0.70556 0.0
H294 H 0.40107 0.49888 0.64688 0.0
S295 S 0.64201 0.4772 0.67202 0.0
N296 N 0.60607 0.48553 0.70432 0.0
N297 N 0.59389 0.47779 0.64126 0.0
C298 C 0.5451 0.48462 0.65672 0.0
C299 C 0.55189 0.48922 0.69078 0.0
C300 C 0.50342 0.01852 0.63841 0.0
C301 C 0.53963 0.08141 0.62307 0.0
C302 C 0.50356 0.01867 0.67172 0.0
C303 C 0.53942 0.0817 0.69108 0.0
H304 H 0.47502 0.96834 0.62463 0.0
H305 H 0.47461 0.96896 0.68241 0.0
S306 S 0.64239 0.26079 0.66322 0.0
N307 N 0.61254 0.20871 0.62997 0.0
N308 N 0.61257 0.20875 0.69289 0.0
C309 C 0.57581 0.1451 0.67626 0.0
C310 C 0.57615 0.145 0.64219 0.0
C311 C 0.5608 0.61196 0.97197 0.0
C312 C 0.58172 0.56956 0.95574 0.0
C313 C 0.56492 0.61936 0.00543 0.0
C314 C 0.59069 0.58524 0.02403 0.0
H315 H 0.53925 0.63831 0.9588 0.0
H316 H 0.54688 0.65132 0.01688 0.0
S317 S 0.65533 0.47086 0.99372 0.0
N318 N 0.632 0.49522 0.96114 0.0
N319 N 0.63899 0.50887 0.02408 0.0
C320 C 0.61374 0.54439 0.00828 0.0
C321 C 0.60935 0.53655 0.97415 0.0
C322 C 0.04211 0.62458 0.29895 0.0
C323 C 0.04727 0.57227 0.28119 0.0
C324 C 0.04731 0.62943 0.33244 0.0
C325 C 0.05732 0.58188 0.34958 0.0
H326 H 0.03425 0.66251 0.28695 0.0
H327 H 0.04262 0.67031 0.34505 0.0
S328 S 0.07564 0.43601 0.31507 0.0
N329 N 0.06381 0.47213 0.28366 0.0
N330 N 0.07381 0.48183 0.34668 0.0
C331 C 0.06281 0.52945 0.33234 0.0
C332 C 0.05787 0.52459 0.29816 0.0
loop_
_geom_bond_atom_site_label_1
_geom_bond_atom_site_label_2
_geom_bond_distance
_geom_bond_site_symmetry_2
_ccdc_geom_bond_type
O0 Zn1 1.953 . S
O0 C16 1.225 . S
Zn1 O0 1.953 . S
Zn1 O2 1.949 . S
Zn1 O8 1.919 1_455 S
Zn1 O13 1.924 . S
O2 Zn1 1.949 . S
O2 Zn3 1.923 1_455 S
O2 Zn4 1.950 . S
O2 Zn5 1.945 . S
Zn3 O2 1.923 1_655 S
Zn3 O6 1.933 . S
Zn3 O9 1.941 . S
Zn3 O10 1.965 . S
Zn4 O2 1.950 . S
Zn4 O11 1.938 1_455 S
Zn4 O12 1.906 . S
Zn4 O22 1.953 . S
Zn5 O2 1.945 . S
Zn5 O7 1.932 . S
Zn5 O14 1.977 . S
Zn5 O15 1.910 . S
O6 Zn3 1.933 . S
O6 C17 1.226 1_655 S
O7 Zn5 1.932 . S
O7 C17 1.307 . S
O8 Zn1 1.919 1_655 S
O8 C19 1.253 . S
O9 Zn3 1.941 . S
O9 C19 1.283 . S
O10 Zn3 1.965 . S
O10 C18 1.303 . S
O11 Zn4 1.938 1_655 S
O11 C18 1.247 . S
O12 Zn4 1.906 . S
O12 C20 1.304 . S
O13 Zn1 1.924 . S
O13 C21 1.311 . S
O14 Zn5 1.977 . S
O14 C20 1.272 . S
O15 Zn5 1.910 . S
O15 C21 1.231 . S
C16 O0 1.225 . S
C16 O22 1.298 . S
C17 O6 1.226 1_455 S
C17 O7 1.307 . S
C18 O10 1.303 . S
C18 O11 1.247 . S
C19 O8 1.253 . S
C19 O9 1.283 . S
C20 O12 1.304 . S
C20 O14 1.272 . S
C21 O13 1.311 . S
C21 O15 1.231 . S
O22 Zn4 1.953 . S
O22 C16 1.298 . S
O23 Zn24 1.953 . S
O23 C39 1.225 . S
Zn24 O23 1.953 . S
Zn24 O25 1.949 . S
Zn24 O31 1.919 . S
Zn24 O36 1.924 1_545 S
O25 Zn24 1.949 . S
O25 Zn26 1.923 . S
O25 Zn27 1.950 . S
O25 Zn28 1.945 1_545 S
Zn26 O25 1.923 . S
Zn26 O29 1.933 . S
Zn26 O32 1.941 . S
Zn26 O33 1.965 . S
Zn27 O25 1.950 . S
Zn27 O34 1.938 . S
Zn27 O35 1.906 1_545 S
Zn27 O45 1.953 . S
Zn28 O25 1.945 1_565 S
Zn28 O30 1.932 1_565 S
Zn28 O37 1.977 . S
Zn28 O38 1.910 . S
O29 Zn26 1.933 . S
O29 C40 1.226 . S
O30 Zn28 1.932 1_545 S
O30 C40 1.307 . S
O31 Zn24 1.919 . S
O31 C42 1.253 . S
O32 Zn26 1.941 . S
O32 C42 1.283 . S
O33 Zn26 1.965 . S
O33 C41 1.303 . S
O34 Zn27 1.938 . S
O34 C41 1.247 . S
O35 Zn27 1.906 1_565 S
O35 C43 1.304 . S
O36 Zn24 1.924 1_565 S
O36 C44 1.311 . S
O37 Zn28 1.977 . S
O37 C43 1.272 . S
O38 Zn28 1.910 . S
O38 C44 1.231 . S
C39 O23 1.225 . S
C39 O45 1.298 . S
C40 O29 1.226 . S
C40 O30 1.307 . S
C41 O33 1.303 . S
C41 O34 1.247 . S
C42 O31 1.253 . S
C42 O32 1.283 . S
C43 O35 1.304 . S
C43 O37 1.272 . S
C44 O36 1.311 . S
C44 O38 1.231 . S
O45 Zn27 1.953 . S
O45 C39 1.298 . S
O46 Zn47 1.953 . S
O46 C62 1.225 . S
Zn47 O46 1.953 . S
Zn47 O48 1.949 . S
Zn47 O54 1.919 . S
Zn47 O59 1.924 . S
O48 Zn47 1.949 . S
O48 Zn49 1.923 . S
O48 Zn50 1.950 . S
O48 Zn51 1.945 . S
Zn49 O48 1.923 . S
Zn49 O52 1.933 . S
Zn49 O55 1.941 . S
Zn49 O56 1.965 . S
Zn50 O48 1.950 . S
Zn50 O57 1.938 . S
Zn50 O58 1.906 . S
Zn50 O68 1.953 . S
Zn51 O48 1.945 . S
Zn51 O53 1.932 . S
Zn51 O60 1.977 . S
Zn51 O61 1.910 . S
O52 Zn49 1.933 . S
O52 C63 1.226 . S
O53 Zn51 1.932 . S
O53 C63 1.307 . S
O54 Zn47 1.919 . S
O54 C65 1.253 . S
O55 Zn49 1.941 . S
O55 C65 1.283 . S
O56 Zn49 1.965 . S
O56 C64 1.303 . S
O57 Zn50 1.938 . S
O57 C64 1.247 . S
O58 Zn50 1.906 . S
O58 C66 1.304 . S
O59 Zn47 1.924 . S
O59 C67 1.311 . S
O60 Zn51 1.977 . S
O60 C66 1.272 . S
O61 Zn51 1.910 . S
O61 C67 1.231 . S
C62 O46 1.225 . S
C62 O68 1.298 . S
C63 O52 1.226 . S
C63 O53 1.307 . S
C64 O56 1.303 . S
C64 O57 1.247 . S
C65 O54 1.253 . S
C65 O55 1.283 . S
C66 O58 1.304 . S
C66 O60 1.272 . S
C67 O59 1.311 . S
C67 O61 1.231 . S
O68 Zn50 1.953 . S
O68 C62 1.298 . S
H69 C74 0.929 . S
H70 C79 0.931 . S
H71 C77 0.930 . S
N72 N73 1.234 . S
N72 C76 1.453 . S
N73 N72 1.234 . S
C74 H69 0.929 . S
C74 C75 1.373 1_545 S
C74 C76 1.368 . S
C75 C74 1.373 1_565 S
C75 C79 1.397 . S
C76 N72 1.453 . S
C76 C74 1.368 . S
C76 C77 1.373 . S
C77 H71 0.930 . S
C77 C76 1.373 . S
C77 C78 1.371 . S
C78 C77 1.371 . S
C78 C79 1.383 1_545 S
C79 H70 0.931 . S
C79 C75 1.397 . S
C79 C78 1.383 1_565 S
H80 C85 0.929 . S
H81 C90 0.931 . S
H82 C88 0.930 . S
N83 N84 1.234 . S
N83 C87 1.453 . S
N84 N83 1.234 . S
C85 H80 0.929 . S
C85 C86 1.373 . S
C85 C87 1.368 . S
C86 C85 1.373 . S
C86 C90 1.397 . S
C87 N83 1.453 . S
C87 C85 1.368 . S
C87 C88 1.373 . S
C88 H82 0.930 . S
C88 C87 1.373 . S
C88 C89 1.371 . S
C89 C88 1.371 . S
C89 C90 1.383 . S
C90 H81 0.931 . S
C90 C86 1.397 . S
C90 C89 1.383 . S
H91 C96 0.929 . S
H92 C101 0.931 . S
H93 C99 0.930 . S
N94 N95 1.234 . S
N94 C98 1.453 . S
N95 N94 1.234 . S
C96 H91 0.929 . S
C96 C97 1.373 1_455 S
C96 C98 1.368 . S
C97 C96 1.373 1_655 S
C97 C101 1.397 . S
C98 N94 1.453 . S
C98 C96 1.368 . S
C98 C99 1.373 . S
C99 H93 0.930 . S
C99 C98 1.373 . S
C99 C100 1.371 . S
C100 C99 1.371 . S
C100 C101 1.383 1_455 S
C101 H92 0.931 . S
C101 C97 1.397 . S
C101 C100 1.383 1_655 S
H102 C107 0.929 . S
H103 C112 0.931 . S
H104 C110 0.930 1_655 S
N105 N106 1.234 . S
N105 C109 1.453 1_655 S
N106 N105 1.234 . S
C107 H102 0.929 . S
C107 C108 1.373 . S
C107 C109 1.368 . S
C108 C107 1.373 . S
C108 C112 1.397 . S
C109 N105 1.453 1_455 S
C109 C107 1.368 . S
C109 C110 1.373 . S
C110 H104 0.930 1_455 S
C110 C109 1.373 . S
C110 C111 1.371 . S
C111 C110 1.371 . S
C111 C112 1.383 . S
C112 H103 0.931 . S
C112 C108 1.397 . S
C112 C111 1.383 . S
H113 C118 0.929 . S
H114 C123 0.931 . S
H115 C121 0.930 1_565 S
N116 N117 1.234 . S
N116 C120 1.453 1_565 S
N117 N116 1.234 . S
C118 H113 0.929 . S
C118 C119 1.373 . S
C118 C120 1.368 . S
C119 C118 1.373 . S
C119 C123 1.397 . S
C120 N116 1.453 1_545 S
C120 C118 1.368 . S
C120 C121 1.373 . S
C121 H115 0.930 1_545 S
C121 C120 1.373 . S
C121 C122 1.371 . S
C122 C121 1.371 . S
C122 C123 1.383 . S
C123 H114 0.931 . S
C123 C119 1.397 . S
C123 C122 1.383 . S
H124 C129 0.929 . S
H125 C134 0.931 . S
H126 C132 0.930 . S
N127 N128 1.234 . S
N127 C131 1.453 . S
N128 N127 1.234 . S
C129 H124 0.929 . S
C129 C130 1.373 . S
C129 C131 1.368 . S
C130 C129 1.373 . S
C130 C134 1.397 . S
C131 N127 1.453 . S
C131 C129 1.368 . S
C131 C132 1.373 . S
C132 H126 0.930 . S
C132 C131 1.373 . S
C132 C133 1.371 . S
C133 C132 1.371 . S
C133 C134 1.383 . S
C134 H125 0.931 . S
C134 C130 1.397 . S
C134 C133 1.383 . S
C135 C136 1.369 . S
C135 C137 1.419 . S
C135 H139 0.930 . S
C136 C135 1.369 . S
C136 C145 1.429 . S
C137 C135 1.419 . S
C137 C138 1.363 . S
C137 H140 0.929 . S
C138 C137 1.363 . S
C138 C144 1.428 . S
H139 C135 0.930 . S
H140 C137 0.929 . S
S141 N142 1.613 . S
S141 N143 1.610 . S
N142 S141 1.613 . S
N142 C145 1.350 . S
N143 S141 1.610 . S
N143 C144 1.351 . S
C144 C138 1.428 . S
C144 N143 1.351 . S
C144 C145 1.434 . S
C145 C136 1.429 . S
C145 N142 1.350 . S
C145 C144 1.434 . S
C146 C147 1.369 . S
C146 C148 1.419 . S
C146 H150 0.930 . S
C147 C146 1.369 . S
C147 C156 1.429 . S
C148 C146 1.419 . S
C148 C149 1.363 . S
C148 H151 0.929 . S
C149 C148 1.363 . S
C149 C155 1.428 . S
H150 C146 0.930 . S
H151 C148 0.929 . S
S152 N153 1.613 . S
S152 N154 1.610 . S
N153 S152 1.613 . S
N153 C156 1.350 . S
N154 S152 1.610 . S
N154 C155 1.351 . S
C155 C149 1.428 . S
C155 N154 1.351 . S
C155 C156 1.434 . S
C156 C147 1.429 . S
C156 N153 1.350 . S
C156 C155 1.434 . S
C157 C158 1.369 . S
C157 C159 1.419 . S
C157 H161 0.930 . S
C158 C157 1.369 . S
C158 C167 1.429 . S
C159 C157 1.419 . S
C159 C160 1.363 . S
C159 H162 0.929 . S
C160 C159 1.363 . S
C160 C166 1.428 . S
H161 C157 0.930 . S
H162 C159 0.929 . S
S163 N164 1.613 . S
S163 N165 1.610 . S
N164 S163 1.613 . S
N164 C167 1.350 . S
N165 S163 1.610 . S
N165 C166 1.351 . S
C166 C160 1.428 . S
C166 N165 1.351 . S
C166 C167 1.434 . S
C167 C158 1.429 . S
C167 N164 1.350 . S
C167 C166 1.434 . S
C168 C169 1.369 . S
C168 C170 1.419 . S
C168 H172 0.930 . S
C169 C168 1.369 . S
C169 C178 1.429 . S
C170 C168 1.419 . S
C170 C171 1.363 . S
C170 H173 0.929 . S
C171 C170 1.363 . S
C171 C177 1.428 . S
H172 C168 0.930 . S
H173 C170 0.929 . S
S174 N175 1.613 . S
S174 N176 1.610 . S
N175 S174 1.613 . S
N175 C178 1.350 . S
N176 S174 1.610 . S
N176 C177 1.351 . S
C177 C171 1.428 . S
C177 N176 1.351 . S
C177 C178 1.434 . S
C178 C169 1.429 . S
C178 N175 1.350 . S
C178 C177 1.434 . S
C179 C180 1.369 . S
C179 C181 1.419 . S
C179 H183 0.930 . S
C180 C179 1.369 . S
C180 C189 1.429 . S
C181 C179 1.419 . S
C181 C182 1.363 . S
C181 H184 0.929 . S
C182 C181 1.363 . S
C182 C188 1.428 . S
H183 C179 0.930 . S
H184 C181 0.929 . S
S185 N186 1.613 . S
S185 N187 1.610 . S
N186 S185 1.613 . S
N186 C189 1.350 . S
N187 S185 1.610 . S
N187 C188 1.351 . S
C188 C182 1.428 . S
C188 N187 1.351 . S
C188 C189 1.434 . S
C189 C180 1.429 . S
C189 N186 1.350 . S
C189 C188 1.434 . S
C190 C191 1.369 . S
C190 C192 1.419 . S
C190 H194 0.930 . S
C191 C190 1.369 . S
C191 C200 1.429 . S
C192 C190 1.419 . S
C192 C193 1.363 . S
C192 H195 0.929 . S
C193 C192 1.363 . S
C193 C199 1.428 . S
H194 C190 0.930 . S
H195 C192 0.929 . S
S196 N197 1.613 . S
S196 N198 1.610 . S
N197 S196 1.613 . S
N197 C200 1.350 . S
N198 S196 1.610 . S
N198 C199 1.351 . S
C199 C193 1.428 . S
C199 N198 1.351 . S
C199 C200 1.434 . S
C200 C191 1.429 . S
C200 N197 1.350 . S
C200 C199 1.434 . S
C201 C202 1.369 . S
C201 C203 1.419 . S
C201 H205 0.930 . S
C202 C201 1.369 . S
C202 C211 1.429 . S
C203 C201 1.419 . S
C203 C204 1.363 . S
C203 H206 0.929 . S
C204 C203 1.363 . S
C204 C210 1.428 . S
H205 C201 0.930 . S
H206 C203 0.929 . S
S207 N208 1.613 . S
S207 N209 1.610 . S
N208 S207 1.613 . S
N208 C211 1.350 . S
N209 S207 1.610 . S
N209 C210 1.351 . S
C210 C204 1.428 . S
C210 N209 1.351 . S
C210 C211 1.434 . S
C211 C202 1.429 . S
C211 N208 1.350 . S
C211 C210 1.434 . S
C212 C213 1.369 . S
C212 C214 1.419 . S
C212 H216 0.930 . S
C213 C212 1.369 . S
C213 C222 1.429 . S
C214 C212 1.419 . S
C214 C215 1.363 . S
C214 H217 0.929 . S
C215 C214 1.363 . S
C215 C221 1.428 . S
H216 C212 0.930 . S
H217 C214 0.929 . S
S218 N219 1.613 . S
S218 N220 1.610 . S
N219 S218 1.613 . S
N219 C222 1.350 . S
N220 S218 1.610 . S
N220 C221 1.351 . S
C221 C215 1.428 . S
C221 N220 1.351 . S
C221 C222 1.434 . S
C222 C213 1.429 . S
C222 N219 1.350 . S
C222 C221 1.434 . S
C223 C224 1.369 . S
C223 C225 1.419 . S
C223 H227 0.930 . S
C224 C223 1.369 . S
C224 C233 1.429 . S
C225 C223 1.419 . S
C225 C226 1.363 . S
C225 H228 0.929 . S
C226 C225 1.363 . S
C226 C232 1.428 . S
H227 C223 0.930 . S
H228 C225 0.929 . S
S229 N230 1.613 . S
S229 N231 1.610 . S
N230 S229 1.613 . S
N230 C233 1.350 . S
N231 S229 1.610 . S
N231 C232 1.351 . S
C232 C226 1.428 . S
C232 N231 1.351 . S
C232 C233 1.434 . S
C233 C224 1.429 . S
C233 N230 1.350 . S
C233 C232 1.434 . S
C234 C235 1.369 . S
C234 C236 1.419 . S
C234 H238 0.930 . S
C235 C234 1.369 . S
C235 C244 1.429 . S
C236 C234 1.419 . S
C236 C237 1.363 . S
C236 H239 0.929 . S
C237 C236 1.363 . S
C237 C243 1.428 . S
H238 C234 0.930 . S
H239 C236 0.929 . S
S240 N241 1.613 . S
S240 N242 1.610 . S
N241 S240 1.613 . S
N241 C244 1.350 . S
N242 S240 1.610 . S
N242 C243 1.351 . S
C243 C237 1.428 . S
C243 N242 1.351 . S
C243 C244 1.434 . S
C244 C235 1.429 . S
C244 N241 1.350 . S
C244 C243 1.434 . S
C245 C246 1.369 . S
C245 C247 1.419 . S
C245 H249 0.930 . S
C246 C245 1.369 . S
C246 C255 1.429 . S
C247 C245 1.419 . S
C247 C248 1.363 . S
C247 H250 0.929 . S
C248 C247 1.363 . S
C248 C254 1.428 . S
H249 C245 0.930 . S
H250 C247 0.929 . S
S251 N252 1.613 . S
S251 N253 1.610 . S
N252 S251 1.613 . S
N252 C255 1.350 . S
N253 S251 1.610 . S
N253 C254 1.351 . S
C254 C248 1.428 . S
C254 N253 1.351 . S
C254 C255 1.434 . S
C255 C246 1.429 . S
C255 N252 1.350 . S
C255 C254 1.434 . S
C256 C257 1.369 . S
C256 C258 1.419 . S
C256 H260 0.930 . S
C257 C256 1.369 . S
C257 C266 1.429 . S
C258 C256 1.419 . S
C258 C259 1.363 . S
C258 H261 0.929 . S
C259 C258 1.363 . S
C259 C265 1.428 . S
H260 C256 0.930 . S
H261 C258 0.929 . S
S262 N263 1.613 . S
S262 N264 1.610 . S
N263 S262 1.613 . S
N263 C266 1.350 . S
N264 S262 1.610 . S
N264 C265 1.351 . S
C265 C259 1.428 . S
C265 N264 1.351 . S
C265 C266 1.434 . S
C266 C257 1.429 . S
C266 N263 1.350 . S
C266 C265 1.434 . S
C267 C268 1.369 . S
C267 C269 1.419 1_554 S
C267 H271 0.930 . S
C268 C267 1.369 . S
C268 C277 1.429 1_455 S
C269 C267 1.419 1_556 S
C269 C270 1.363 . S
C269 H272 0.929 . S
C270 C269 1.363 . S
C270 C276 1.428 1_455 S
H271 C267 0.930 . S
H272 C269 0.929 . S
S273 N274 1.613 1_556 S
S273 N275 1.610 . S
N274 S273 1.613 1_554 S
N274 C277 1.350 . S
N275 S273 1.610 . S
N275 C276 1.351 . S
C276 C270 1.428 1_655 S
C276 N275 1.351 . S
C276 C277 1.434 1_556 S
C277 C268 1.429 1_655 S
C277 N274 1.350 . S
C277 C276 1.434 1_554 S
C278 C279 1.369 . S
C278 C280 1.419 . S
C278 H282 0.930 1_545 S
C279 C278 1.369 . S
C279 C288 1.429 . S
C280 C278 1.419 . S
C280 C281 1.363 . S
C280 H283 0.929 1_545 S
C281 C280 1.363 . S
C281 C287 1.428 . S
H282 C278 0.930 1_565 S
H283 C280 0.929 1_565 S
S284 N285 1.613 . S
S284 N286 1.610 . S
N285 S284 1.613 . S
N285 C288 1.350 . S
N286 S284 1.610 . S
N286 C287 1.351 . S
C287 C281 1.428 . S
C287 N286 1.351 . S
C287 C288 1.434 . S
C288 C279 1.429 . S
C288 N285 1.350 . S
C288 C287 1.434 . S
C289 C290 1.369 . S
C289 C291 1.419 . S
C289 H293 0.930 . S
C290 C289 1.369 . S
C290 C299 1.429 . S
C291 C289 1.419 . S
C291 C292 1.363 . S
C291 H294 0.929 . S
C292 C291 1.363 . S
C292 C298 1.428 . S
H293 C289 0.930 . S
H294 C291 0.929 . S
S295 N296 1.613 . S
S295 N297 1.610 . S
N296 S295 1.613 . S
N296 C299 1.350 . S
N297 S295 1.610 . S
N297 C298 1.351 . S
C298 C292 1.428 . S
C298 N297 1.351 . S
C298 C299 1.434 . S
C299 C290 1.429 . S
C299 N296 1.350 . S
C299 C298 1.434 . S
C300 C301 1.369 . S
C300 C302 1.419 1_545 S
C300 H304 0.930 1_545 S
C301 C300 1.369 . S
C301 C310 1.429 . S
C302 C300 1.419 1_565 S
C302 C303 1.363 1_565 S
C302 H305 0.929 . S
C303 C302 1.363 1_545 S
C303 C309 1.428 . S
H304 C300 0.930 1_565 S
H305 C302 0.929 . S
S306 N307 1.613 . S
S306 N308 1.610 . S
N307 S306 1.613 . S
N307 C310 1.350 . S
N308 S306 1.610 . S
N308 C309 1.351 . S
C309 C303 1.428 . S
C309 N308 1.351 . S
C309 C310 1.434 . S
C310 C301 1.429 . S
C310 N307 1.350 . S
C310 C309 1.434 . S
C311 C312 1.369 . S
C311 C313 1.419 1_556 S
C311 H315 0.930 . S
C312 C311 1.369 . S
C312 C321 1.429 . S
C313 C311 1.419 1_554 S
C313 C314 1.363 . S
C313 H316 0.929 . S
C314 C313 1.363 . S
C314 C320 1.428 . S
H315 C311 0.930 . S
H316 C313 0.929 . S
S317 N318 1.613 1_554 S
S317 N319 1.610 . S
N318 S317 1.613 1_556 S
N318 C321 1.350 . S
N319 S317 1.610 . S
N319 C320 1.351 . S
C320 C314 1.428 . S
C320 N319 1.351 . S
C320 C321 1.434 1_554 S
C321 C312 1.429 . S
C321 N318 1.350 . S
C321 C320 1.434 1_556 S
C322 C323 1.369 . S
C322 C324 1.419 . S
C322 H326 0.930 1_455 S
C323 C322 1.369 . S
C323 C332 1.429 . S
C324 C322 1.419 . S
C324 C325 1.363 . S
C324 H327 0.929 1_455 S
C325 C324 1.363 . S
C325 C331 1.428 . S
H326 C322 0.930 1_655 S
H327 C324 0.929 1_655 S
S328 N329 1.613 . S
S328 N330 1.610 . S
N329 S328 1.613 . S
N329 C332 1.350 . S
N330 S328 1.610 . S
N330 C331 1.351 . S
C331 C325 1.428 . S
C331 N330 1.351 . S
C331 C332 1.434 . S
C332 C323 1.429 . S
C332 N329 1.350 . S
C332 C331 1.434 . S
C136 C20 1.346 . S
C138 N128 1.362 . S
C147 C41 1.398 . S
C149 N106 1.371 . S
C158 C64 1.432 . S
C160 N117 1.407 . S
C169 C19 1.357 . S
C171 C130 1.467 . S
C182 C108 1.421 . S
C180 C44 1.402 . S
C193 C119 1.366 . S
C191 C67 1.358 . S
C202 C43 1.345 . S
C204 N84 1.361 . S
C213 C66 1.282 . S
C215 C97 1.355 . S
C224 C21 1.399 . S
C226 C75 1.420 . S
C237 C86 1.446 . S
C235 C42 1.342 . S
C248 N95 1.406 . S
C246 C65 1.369 . S
C257 C18 1.398 . S
C259 N73 1.378 . S
C270 C100 1.517 . S
C268 C17 1.518 . S
C279 C39 1.530 . S
C281 C78 1.525 . S
C290 C62 1.530 . S
C292 C89 1.520 . S
C303 C122 1.511 . S
C301 C40 1.511 . S
C314 C133 1.510 . S
C312 C63 1.520 . S
C323 C16 1.527 . S
C325 C111 1.522 . S
