# Generated by pormake.
# Topology zzz, (3,6)-cn, num edge types: 1
# Building blocks:
#     Node 0, Type 0, BuildingBlock: BELTOD_clean_linker_0, # of connection points: 3
#     Node 1, Type 0, BuildingBlock: BELTOD_clean_linker_0, # of connection points: 3
#     Node 2, Type 0, BuildingBlock: BELTOD_clean_linker_0, # of connection points: 3
#     Node 3, Type 0, BuildingBlock: BELTOD_clean_linker_0, # of connection points: 3
#     Node 4, Type 0, BuildingBlock: BELTOD_clean_linker_0, # of connection points: 3
#     Node 5, Type 0, BuildingBlock: BELTOD_clean_linker_0, # of connection points: 3
#     Node 6, Type 0, BuildingBlock: BELTOD_clean_linker_0, # of connection points: 3
#     Node 7, Type 0, BuildingBlock: BELTOD_clean_linker_0, # of connection points: 3
#     Node 8, Type 1, BuildingBlock: CUKXOW_clean_sbu_0, # of connection points: 6
#     Node 9, Type 1, BuildingBlock: CUKXOW_clean_sbu_0, # of connection points: 6
#     Node 10, Type 1, BuildingBlock: CUKXOW_clean_sbu_0, # of connection points: 6
#     Node 11, Type 1, BuildingBlock: CUKXOW_clean_sbu_0, # of connection points: 6
#     Edge 12, Type (0, 1), BuildingBlock: OJICUG_clean_linker_0, # of connection points: 2
#     Edge 13, Type (0, 1), BuildingBlock: OJICUG_clean_linker_0, # of connection points: 2
#     Edge 14, Type (0, 1), BuildingBlock: OJICUG_clean_linker_0, # of connection points: 2
#     Edge 15, Type (0, 1), BuildingBlock: OJICUG_clean_linker_0, # of connection points: 2
#     Edge 16, Type (0, 1), BuildingBlock: OJICUG_clean_linker_0, # of connection points: 2
#     Edge 17, Type (0, 1), BuildingBlock: OJICUG_clean_linker_0, # of connection points: 2
#     Edge 18, Type (0, 1), BuildingBlock: OJICUG_clean_linker_0, # of connection points: 2
#     Edge 19, Type (0, 1), BuildingBlock: OJICUG_clean_linker_0, # of connection points: 2
#     Edge 20, Type (0, 1), BuildingBlock: OJICUG_clean_linker_0, # of connection points: 2
#     Edge 21, Type (0, 1), BuildingBlock: OJICUG_clean_linker_0, # of connection points: 2
#     Edge 22, Type (0, 1), BuildingBlock: OJICUG_clean_linker_0, # of connection points: 2
#     Edge 23, Type (0, 1), BuildingBlock: OJICUG_clean_linker_0, # of connection points: 2
#     Edge 24, Type (0, 1), BuildingBlock: OJICUG_clean_linker_0, # of connection points: 2
#     Edge 25, Type (0, 1), BuildingBlock: OJICUG_clean_linker_0, # of connection points: 2
#     Edge 26, Type (0, 1), BuildingBlock: OJICUG_clean_linker_0, # of connection points: 2
#     Edge 27, Type (0, 1), BuildingBlock: OJICUG_clean_linker_0, # of connection points: 2
#     Edge 28, Type (0, 1), BuildingBlock: OJICUG_clean_linker_0, # of connection points: 2
#     Edge 29, Type (0, 1), BuildingBlock: OJICUG_clean_linker_0, # of connection points: 2
#     Edge 30, Type (0, 1), BuildingBlock: OJICUG_clean_linker_0, # of connection points: 2
#     Edge 31, Type (0, 1), BuildingBlock: OJICUG_clean_linker_0, # of connection points: 2
#     Edge 32, Type (0, 1), BuildingBlock: OJICUG_clean_linker_0, # of connection points: 2
#     Edge 33, Type (0, 1), BuildingBlock: OJICUG_clean_linker_0, # of connection points: 2
#     Edge 34, Type (0, 1), BuildingBlock: OJICUG_clean_linker_0, # of connection points: 2
#     Edge 35, Type (0, 1), BuildingBlock: OJICUG_clean_linker_0, # of connection points: 2
# Relax obj value: 0.190
# Max RMSD: 0.214
# Mean RMSD: 0.175
data_MOF--net-zzz--node1-CUKXOW_clean_sbu_0--node2-BELTOD_clean_linker_0--edge1-OJICUG_clean_linker_0
_symmetry_space_group_name_H-M    P1
_symmetry_Int_Tables_number       1
_symmetry_cell_setting            triclinic
loop_
_symmetry_equiv_pos_as_xyz
'x, y, z'
_cell_length_a     41.437698
_cell_length_b     41.178077
_cell_length_c     14.690054
_cell_angle_alpha  93.251573
_cell_angle_beta   87.663213
_cell_angle_gamma 95.822832
loop_
_atom_site_label
_atom_site_type_symbol
_atom_site_fract_x
_atom_site_fract_y
_atom_site_fract_z
_atom_type_partial_charge
P0 P 0.75301 0.38716 0.11501 0.0
H1 H 0.74357 0.3787 0.3123 0.0
H2 H 0.77148 0.4067 0.44244 0.0
H3 H 0.81942 0.47775 0.26301 0.0
H4 H 0.79044 0.45061 0.13546 0.0
H5 H 0.70696 0.35606 0.98569 0.0
H6 H 0.66357 0.37612 0.90317 0.0
H7 H 0.68533 0.47226 0.03286 0.0
H8 H 0.72886 0.45214 0.11421 0.0
H9 H 0.81518 0.36409 0.14373 0.0
H10 H 0.77139 0.41212 0.93342 0.0
O11 O 0.74146 0.3491 0.14471 0.0
H12 H 0.86882 0.3777 0.07194 0.0
H13 H 0.82492 0.42496 0.86042 0.0
C14 C 0.76529 0.41235 0.21418 0.0
C15 C 0.75929 0.40091 0.30183 0.0
C16 C 0.77552 0.41682 0.37602 0.0
C17 C 0.79828 0.44417 0.36324 0.0
C18 C 0.80198 0.45701 0.27626 0.0
C19 C 0.7855 0.44134 0.20269 0.0
C20 C 0.72063 0.40239 0.05749 0.0
C21 C 0.70222 0.3814 0.99676 0.0
C22 C 0.67747 0.3929 0.94966 0.0
C23 C 0.6709 0.42574 0.96202 0.0
C24 C 0.68996 0.44691 0.02145 0.0
C25 C 0.71468 0.43532 0.0687 0.0
C26 C 0.78932 0.38699 0.04388 0.0
C27 C 0.81695 0.37635 0.08011 0.0
C28 C 0.84755 0.38429 0.03957 0.0
C29 C 0.8508 0.40248 0.96124 0.0
C30 C 0.82287 0.41071 0.92054 0.0
C31 C 0.79227 0.4033 0.9622 0.0
P32 P 0.99216 0.77015 0.11984 0.0
H33 H 0.02437 0.79499 0.28509 0.0
H34 H 0.00587 0.82645 0.41854 0.0
H35 H 0.90763 0.81161 0.32551 0.0
H36 H 0.92635 0.77906 0.19215 0.0
H37 H 0.97512 0.74657 0.93498 0.0
H38 H 0.95786 0.69154 0.87382 0.0
H39 H 0.94163 0.65909 0.14792 0.0
H40 H 0.95916 0.71423 0.20874 0.0
H41 H 0.04584 0.80212 0.01108 0.0
H42 H 0.94405 0.81203 0.06455 0.0
O43 O 0.02939 0.75929 0.1324 0.0
H44 H 0.05132 0.85291 0.93072 0.0
H45 H 0.94968 0.86328 0.9863 0.0
C46 C 0.97675 0.78482 0.22875 0.0
C47 C 0.99866 0.79736 0.29492 0.0
C48 C 0.98799 0.81527 0.37158 0.0
C49 C 0.95528 0.82149 0.38233 0.0
C50 C 0.93296 0.80715 0.31874 0.0
C51 C 0.94364 0.78868 0.24263 0.0
C52 C 0.96819 0.73446 0.0763 0.0
C53 C 0.96647 0.72801 0.98191 0.0
C54 C 0.95648 0.69651 0.94701 0.0
C55 C 0.94866 0.67101 0.00625 0.0
C56 C 0.94768 0.6783 0.10086 0.0
C57 C 0.95754 0.70982 0.13561 0.0
C58 C 0.99466 0.80362 0.0454 0.0
C59 C 0.02456 0.81492 0.00452 0.0
C60 C 0.02768 0.84389 0.95837 0.0
C61 C 0.001 0.86213 0.95348 0.0
C62 C 0.97069 0.84984 0.99027 0.0
C63 C 0.96749 0.82059 0.03507 0.0
P64 P 0.74597 0.08699 0.18911 0.0
H65 H 0.73806 0.09155 0.38843 0.0
H66 H 0.69813 0.06218 0.48841 0.0
H67 H 0.67323 0.99174 0.26707 0.0
H68 H 0.71331 0.02113 0.16734 0.0
H69 H 0.79828 0.1253 0.09641 0.0
H70 H 0.84771 0.11127 0.01413 0.0
H71 H 0.82471 0.0102 0.0781 0.0
H72 H 0.775 0.02444 0.15983 0.0
H73 H 0.68114 0.10735 0.20675 0.0
H74 H 0.74175 0.06577 0.99411 0.0
O75 O 0.75244 0.12422 0.2401 0.0
H76 H 0.63493 0.0994 0.10655 0.0
H77 H 0.69574 0.05814 0.89352 0.0
C78 C 0.72831 0.05874 0.27029 0.0
C79 C 0.72507 0.06901 0.36243 0.0
C80 C 0.70225 0.05215 0.41963 0.0
C81 C 0.68228 0.02502 0.38479 0.0
C82 C 0.68814 0.01277 0.29517 0.0
C83 C 0.71118 0.02944 0.23841 0.0
C84 C 0.78335 0.07606 0.13563 0.0
C85 C 0.8041 0.1002 0.0938 0.0
C86 C 0.83236 0.09214 0.04691 0.0
C87 C 0.84023 0.05966 0.04032 0.0
C88 C 0.8192 0.0354 0.08179 0.0
C89 C 0.7909 0.04356 0.12907 0.0
C90 C 0.71496 0.08766 0.10744 0.0
C91 C 0.68468 0.09726 0.13775 0.0
C92 C 0.65824 0.09232 0.08103 0.0
C93 C 0.66177 0.07795 0.9927 0.0
C94 C 0.69245 0.06944 0.96123 0.0
C95 C 0.71881 0.07398 0.01855 0.0
P96 P 0.52541 0.74175 0.24259 0.0
H97 H 0.51629 0.73752 0.43939 0.0
H98 H 0.54103 0.7037 0.54042 0.0
H99 H 0.61769 0.68992 0.33748 0.0
H100 H 0.59201 0.72366 0.23518 0.0
H101 H 0.50618 0.75892 0.06698 0.0
H102 H 0.51867 0.80672 0.97802 0.0
H103 H 0.58362 0.84998 0.18419 0.0
H104 H 0.57114 0.80107 0.27361 0.0
H105 H 0.48389 0.68076 0.25905 0.0
H106 H 0.55866 0.72064 0.07228 0.0
O107 O 0.48926 0.74848 0.29015 0.0
H108 H 0.47991 0.62892 0.16765 0.0
H109 H 0.55416 0.66923 0.9796 0.0
C110 C 0.55201 0.73266 0.32921 0.0
C111 C 0.53922 0.72854 0.41792 0.0
C112 C 0.5536 0.70909 0.47615 0.0
C113 C 0.58099 0.69326 0.44633 0.0
C114 C 0.59619 0.70113 0.3618 0.0
C115 C 0.58173 0.72071 0.30353 0.0
C116 C 0.53857 0.776 0.17528 0.0
C117 C 0.52385 0.7782 0.09211 0.0
C118 C 0.53104 0.80559 0.04117 0.0
C119 C 0.5526 0.83186 0.0733 0.0
C120 C 0.56717 0.82991 0.15749 0.0
C121 C 0.5602 0.80202 0.20825 0.0
C122 C 0.52065 0.7049 0.17053 0.0
C123 C 0.49898 0.67857 0.19748 0.0
C124 C 0.49693 0.64894 0.14578 0.0
C125 C 0.51654 0.64529 0.06626 0.0
C126 C 0.53841 0.67165 0.03978 0.0
C127 C 0.54082 0.70106 0.09239 0.0
P128 P 0.24071 0.48037 0.31844 0.0
H129 H 0.24633 0.45083 0.13312 0.0
H130 H 0.21753 0.46053 -0.00257 0.0
H131 H 0.18827 0.55015 0.12836 0.0
H132 H 0.21889 0.54128 0.2608 0.0
H133 H 0.26255 0.4735 0.49813 0.0
H134 H 0.31343 0.48934 0.57148 0.0
H135 H 0.3495 0.54138 0.33427 0.0
H136 H 0.29821 0.5239 0.2594 0.0
H137 H 0.17749 0.44378 0.34045 0.0
H138 H 0.22552 0.53573 0.44212 0.0
O139 O 0.2424 0.43999 0.30859 0.0
H140 H 0.12609 0.45887 0.40828 0.0
H141 H 0.17384 0.55141 0.50865 0.0
C142 C 0.23378 0.49477 0.2082 0.0
C143 C 0.23491 0.47327 0.13107 0.0
C144 C 0.21806 0.47869 0.05378 0.0
C145 C 0.19933 0.50537 0.05339 0.0
C146 C 0.20208 0.52914 0.12613 0.0
C147 C 0.21951 0.524 0.20261 0.0
C148 C 0.27665 0.49772 0.3739 0.0
C149 C 0.2812 0.48882 0.46251 0.0
C150 C 0.31035 0.49822 0.50473 0.0
C151 C 0.3357 0.51696 0.45933 0.0
C152 C 0.33063 0.52677 0.37102 0.0
C153 C 0.30129 0.51702 0.32833 0.0
C154 C 0.20534 0.4884 0.38749 0.0
C155 C 0.17711 0.46689 0.37935 0.0
C156 C 0.14767 0.47576 0.41716 0.0
C157 C 0.14586 0.50657 0.46258 0.0
C158 C 0.17452 0.52747 0.47448 0.0
C159 C 0.20406 0.51848 0.43677 0.0
P160 P 0.13088 0.25638 0.33662 0.0
H161 H 0.17902 0.22823 0.21201 0.0
H162 H 0.17244 0.19774 0.06498 0.0
H163 H 0.07486 0.2258 0.05646 0.0
H164 H 0.08189 0.25637 0.20024 0.0
H165 H 0.1572 0.32493 0.35026 0.0
H166 H 0.1321 0.37554 0.38444 0.0
H167 H 0.0376 0.32013 0.39607 0.0
H168 H 0.06268 0.27051 0.35416 0.0
H169 H 0.13084 0.18564 0.30881 0.0
H170 H 0.08444 0.25231 0.49613 0.0
O171 O 0.16877 0.26184 0.37297 0.0
H172 H 0.09674 0.14001 0.3695 0.0
H173 H 0.0477 0.20724 0.55071 0.0
C174 C 0.13098 0.24468 0.21705 0.0
C175 C 0.15677 0.22894 0.17629 0.0
C176 C 0.15287 0.21127 0.09267 0.0
C177 C 0.12298 0.20895 0.04934 0.0
C178 C 0.09837 0.22729 0.08682 0.0
C179 C 0.10233 0.24485 0.16998 0.0
C180 C 0.11196 0.2938 0.35461 0.0
C181 C 0.13106 0.32383 0.35952 0.0
C182 C 0.11662 0.35274 0.37935 0.0
C183 C 0.0828 0.35197 0.39597 0.0
C184 C 0.06364 0.32194 0.38397 0.0
C185 C 0.07808 0.29327 0.36186 0.0
C186 C 0.10893 0.22273 0.39373 0.0
C187 C 0.11288 0.19061 0.36192 0.0
C188 C 0.09292 0.16443 0.39612 0.0
C189 C 0.06816 0.16978 0.46223 0.0
C190 C 0.06602 0.20189 0.49897 0.0
C191 C 0.08676 0.22798 0.46649 0.0
P192 P 0.28967 0.06711 0.32606 0.0
H193 H 0.29428 0.09205 0.14259 0.0
H194 H 0.3279 0.07807 0.00862 0.0
H195 H 0.35543 0.99474 0.14378 0.0
H196 H 0.31965 0.00707 0.27127 0.0
H197 H 0.24288 0.09854 0.44025 0.0
H198 H 0.18612 0.08414 0.48104 0.0
H199 H 0.18633 0.99555 0.30854 0.0
H200 H 0.24413 0.01028 0.26813 0.0
H201 H 0.35153 0.09328 0.39826 0.0
H202 H 0.28199 0.00948 0.43783 0.0
O203 O 0.2957 0.10785 0.32755 0.0
H204 H 0.39118 0.06791 0.48157 0.0
H205 H 0.32233 0.98357 0.51897 0.0
C206 C 0.3053 0.05127 0.21822 0.0
C207 C 0.30677 0.07017 0.14162 0.0
C208 C 0.32651 0.06238 0.06557 0.0
C209 C 0.34563 0.03592 0.06587 0.0
C210 C 0.34139 0.01533 0.1397 0.0
C211 C 0.321 0.02265 0.2142 0.0
C212 C 0.24734 0.05592 0.34944 0.0
C213 C 0.23068 0.07625 0.40996 0.0
C214 C 0.19815 0.068 0.43298 0.0
C215 C 0.18153 0.03903 0.39638 0.0
C216 C 0.19848 0.01815 0.33705 0.0
C217 C 0.23131 0.0266 0.31359 0.0
C218 C 0.31377 0.05338 0.41239 0.0
C219 C 0.34445 0.06988 0.42718 0.0
C220 C 0.36728 0.05519 0.4734 0.0
C221 C 0.36006 0.02351 0.50402 0.0
C222 C 0.32848 0.00799 0.49565 0.0
C223 C 0.30541 0.02287 0.44982 0.0
P224 P 0.36119 0.26878 0.29787 0.0
H225 H 0.32005 0.28994 0.15953 0.0
H226 H 0.33447 0.31919 0.02101 0.0
H227 H 0.43459 0.30118 0.04478 0.0
H228 H 0.42022 0.27259 0.18301 0.0
H229 H 0.35114 0.23473 0.46421 0.0
H230 H 0.37565 0.18885 0.52116 0.0
H231 H 0.4234 0.17281 0.2577 0.0
H232 H 0.39728 0.21761 0.19977 0.0
H233 H 0.35054 0.33612 0.35402 0.0
H234 H 0.4264 0.27254 0.37036 0.0
O235 O 0.32205 0.27071 0.32688 0.0
H236 H 0.38645 0.38195 0.41789 0.0
H237 H 0.46241 0.31804 0.43258 0.0
C238 C 0.36895 0.2785 0.1808 0.0
C239 C 0.34486 0.29108 0.13281 0.0
C240 C 0.35313 0.30799 0.05396 0.0
C241 C 0.38565 0.31254 0.02223 0.0
C242 C 0.40924 0.29761 0.06646 0.0
C243 C 0.40099 0.28104 0.14557 0.0
C244 C 0.37279 0.22998 0.32837 0.0
C245 C 0.36615 0.22076 0.41795 0.0
C246 C 0.38051 0.19477 0.45069 0.0
C247 C 0.40222 0.17777 0.39468 0.0
C248 C 0.40694 0.18551 0.30275 0.0
C249 C 0.39224 0.21143 0.26975 0.0
C250 C 0.38541 0.30072 0.36 0.0
C251 C 0.37465 0.33187 0.37323 0.0
C252 C 0.39537 0.35811 0.4085 0.0
C253 C 0.42733 0.35365 0.43032 0.0
C254 C 0.43781 0.32223 0.41801 0.0
C255 C 0.41712 0.29609 0.38265 0.0
Tb256 Tb 0.9885 0.99682 0.65028 0.0
C257 C 0.05853 0.02062 0.58186 0.0
Tb258 Tb 0.02761 0.05106 0.76372 0.0
O259 O 0.98702 0.02803 0.53522 0.0
O260 O 0.99046 0.04816 0.66828 0.0
O261 O 0.03647 0.99486 0.58336 0.0
C262 C 0.06603 0.10232 0.828 0.0
O263 O 0.05717 0.04662 0.63882 0.0
C264 C 0.02357 0.9923 0.8244 0.0
C265 C 0.95492 0.03352 0.82231 0.0
O266 O 0.07215 0.07209 0.82867 0.0
O267 O 0.03802 0.10361 0.79305 0.0
O268 O 0.02518 0.01866 0.87737 0.0
O269 O 0.02643 -0.00021 0.74252 0.0
O270 O 0.9803 0.05591 0.82767 0.0
O271 O 0.95392 0.00767 0.76311 0.0
C272 C 0.95816 0.93895 0.59784 0.0
O273 O 0.97783 0.94433 0.66452 0.0
O274 O 0.9554 0.96636 0.56068 0.0
C275 C 0.99132 0.05505 0.58552 0.0
Tb276 Tb 0.50325 0.04369 0.654 0.0
C277 C 0.56261 0.00661 0.59226 0.0
Tb278 Tb 0.51747 0.98542 0.76324 0.0
O279 O 0.54879 0.07117 0.69145 0.0
O280 O 0.52512 0.03719 0.77922 0.0
O281 O 0.53984 0.02372 0.56361 0.0
C282 C 0.5422 0.94182 0.86051 0.0
O283 O 0.56054 0.99314 0.67267 0.0
C284 C 0.47042 0.97399 0.64691 0.0
C285 C 0.45782 0.02232 0.82544 0.0
O286 O 0.53452 0.93751 0.7756 0.0
O287 O 0.53592 0.97082 0.89106 0.0
O288 O 0.47146 0.95838 0.72086 0.0
O289 O 0.49637 0.99234 0.63887 0.0
O290 O 0.47924 0.00321 0.85166 0.0
O291 O 0.46105 0.03781 0.74827 0.0
C292 C 0.47672 0.08734 0.56077 0.0
O293 O 0.48747 0.09219 0.64253 0.0
O294 O 0.48125 0.05786 0.53048 0.0
C295 C 0.55074 0.05591 0.76565 0.0
Tb296 Tb 0.53066 0.51855 0.65923 0.0
C297 C 0.45611 0.51244 0.6301 0.0
Tb298 Tb 0.487 0.46744 0.76471 0.0
O299 O 0.51887 0.49149 0.52976 0.0
O300 O 0.51924 0.46743 0.6504 0.0
O301 O 0.48334 0.53232 0.62622 0.0
C302 C 0.44635 0.41695 0.81713 0.0
O303 O 0.45333 0.48443 0.67165 0.0
C304 C 0.50406 0.52234 0.85642 0.0
C305 C 0.56216 0.47128 0.78861 0.0
O306 O 0.44381 0.4474 0.84132 0.0
O307 O 0.47184 0.41496 0.76383 0.0
O308 O 0.4979 0.49442 0.8937 0.0
O309 O 0.49764 0.51889 0.77313 0.0
O310 O 0.53386 0.45336 0.79763 0.0
O311 O 0.566 0.49858 0.74305 0.0
C312 C 0.5686 0.57175 0.61111 0.0
O313 O 0.56459 0.54429 0.56299 0.0
O314 O 0.55163 0.56891 0.68686 0.0
C315 C 0.51255 0.46368 0.56755 0.0
Tb316 Tb 0.96518 0.49789 0.65542 0.0
C317 C 0.02154 0.45474 0.59698 0.0
Tb318 Tb 0.02528 0.50135 0.77632 0.0
O319 O 0.99307 0.51862 0.53996 0.0
O320 O 0.00907 0.52833 0.6715 0.0
O321 O 0.99006 0.45782 0.59038 0.0
C322 C 0.08391 0.50382 0.84688 0.0
O323 O 0.03995 0.47208 0.65753 0.0
C324 C 0.97297 0.46706 0.83716 0.0
C325 C 0.97259 0.5491 0.8259 0.0
O326 O 0.0645 0.47758 0.83095 0.0
O327 O 0.07016 0.52901 0.82415 0.0
O328 O 0.99486 0.48175 0.88988 0.0
O329 O 0.9825 0.46966 0.75538 0.0
O330 O 0.00342 0.54377 0.8332 0.0
O331 O 0.95264 0.53204 0.76812 0.0
C332 C 0.90564 0.48544 0.59091 0.0
O333 O 0.92391 0.51282 0.58434 0.0
O334 O 0.92095 0.46533 0.63348 0.0
C335 C 0.0174 0.53106 0.58825 0.0
C336 C 0.12628 0.05611 0.43091 0.0
C337 C 0.14694 0.03103 0.42381 0.0
H338 H 0.08222 0.07226 0.48786 0.0
C339 C 0.13546 9e-05 0.45495 0.0
H340 H 0.13411 0.07997 0.40571 0.0
C341 C 0.10497 0.9954 0.50018 0.0
C342 C 0.08603 0.02171 0.51529 0.0
H343 H 0.15092 0.98033 0.45032 0.0
H344 H 0.09744 0.97216 0.52946 0.0
C345 C 0.0964 0.05163 0.47724 0.0
C346 C 0.42872 0.12505 0.3873 0.0
C347 C 0.42191 0.15436 0.43479 0.0
H348 H 0.45174 0.08065 0.39005 0.0
C349 C 0.4348 0.16188 0.5214 0.0
H350 H 0.4191 0.11853 0.32055 0.0
C351 C 0.45318 0.14031 0.56086 0.0
C352 C 0.4593 0.11074 0.5146 0.0
H353 H 0.43085 0.18465 0.55881 0.0
H354 H 0.4623 0.14667 0.6283 0.0
C355 C 0.44737 0.10341 0.42692 0.0
C356 C 0.36986 0.52736 0.59729 0.0
C357 C 0.36792 0.52323 0.50176 0.0
H358 H 0.39967 0.52661 0.71289 0.0
C359 C 0.39678 0.52087 0.44875 0.0
H360 H 0.34837 0.53024 0.64025 0.0
C361 C 0.42637 0.52007 0.49079 0.0
C362 C 0.42737 0.5211 0.58611 0.0
H363 H 0.3963 0.5174 0.3752 0.0
H364 H 0.44798 0.51637 0.44903 0.0
C365 C 0.39921 0.52565 0.63907 0.0
C366 C 0.03573 0.38648 0.41991 0.0
C367 C 0.06807 0.38127 0.43608 0.0
H368 H 0.99534 0.41368 0.45846 0.0
C369 C 0.08539 0.40246 0.49921 0.0
H370 H 0.02183 0.37114 0.37021 0.0
C371 C 0.07047 0.42705 0.54799 0.0
C372 C 0.03757 0.43087 0.53646 0.0
H373 H 0.11011 0.39918 0.51493 0.0
H374 H 0.08464 0.44223 0.59751 0.0
C375 C 0.02055 0.41095 0.47009 0.0
C376 C 0.86959 0.02379 0.92786 0.0
C377 C 0.8701 0.05137 0.98894 0.0
H378 H 0.89596 0.99645 0.82693 0.0
C379 C 0.89909 0.07191 -0.00201 0.0
H380 H 0.84751 0.00763 0.91902 0.0
C381 C 0.92671 0.06565 0.94519 0.0
C382 C 0.92603 0.03867 0.88192 0.0
H383 H 0.90039 0.09303 0.04564 0.0
H384 H 0.94848 0.08232 0.95335 0.0
C385 C 0.8973 0.0175 0.87477 0.0
C386 C 0.56097 0.85898 0.92525 0.0
C387 C 0.55737 0.86177 0.02083 0.0
H388 H 0.55912 0.88241 0.79959 0.0
C389 C 0.5536 0.8926 0.06384 0.0
H390 H 0.56442 0.83562 0.89041 0.0
C391 C 0.55075 0.91952 0.01162 0.0
C392 C 0.55157 0.91585 0.91594 0.0
H393 H 0.55062 0.89542 0.13737 0.0
H394 H 0.54595 0.9426 0.046 0.0
C395 C 0.55798 0.88574 0.8733 0.0
C396 C 0.64674 0.468 0.87593 0.0
C397 C 0.64352 0.43746 0.91546 0.0
H398 H 0.62366 0.50266 0.80404 0.0
C399 C 0.61362 0.41817 0.91169 0.0
H400 H 0.6696 0.48329 0.87717 0.0
C401 C 0.58746 0.42916 0.86995 0.0
C402 C 0.5905 0.45973 0.83063 0.0
H403 H 0.61022 0.39474 0.9426 0.0
H404 H 0.56476 0.4136 0.86906 0.0
C405 C 0.6205 0.479 0.83361 0.0
C406 C 0.96884 0.61631 0.00858 0.0
C407 C 0.94848 0.63673 0.97015 0.0
H408 H 0.99239 0.57241 0.99252 0.0
C409 C 0.93254 0.62583 0.88977 0.0
H410 H 0.98179 0.62419 0.06984 0.0
C411 C 0.9385 0.5959 0.84567 0.0
C412 C 0.96098 0.5769 0.88053 0.0
H413 H 0.91672 0.64115 0.85892 0.0
H414 H 0.92724 0.58874 0.78137 0.0
C415 C 0.9752 0.5868 0.96386 0.0
C416 C 0.03639 0.11515 0.43016 0.0
C417 C 0.04485 0.14194 0.49156 0.0
H418 H 0.01302 0.06656 0.41199 0.0
C419 C 0.0311 0.14143 0.58086 0.0
H420 H 0.04506 0.11505 0.35965 0.0
C421 C 0.01117 0.11411 0.60902 0.0
C422 C 0.00587 0.08624 0.55037 0.0
H423 H 0.03645 0.16155 0.63028 0.0
H424 H 0.00058 0.11438 0.67748 0.0
C425 C 0.01743 0.08748 0.45953 0.0
C426 C 0.38361 0.99058 0.61936 0.0
C427 C 0.38653 0.00606 0.53625 0.0
H428 H 0.40836 0.96759 0.71993 0.0
C429 C 0.41576 0.00612 0.48432 0.0
H430 H 0.3612 0.99001 0.66015 0.0
C431 C 0.44237 0.99312 0.51778 0.0
C432 C 0.44036 0.98013 0.60403 0.0
H433 H 0.41835 0.01716 0.41885 0.0
H434 H 0.46505 0.99466 0.47812 0.0
C435 C 0.41045 0.97764 0.65315 0.0
C436 C 0.4712 0.37815 0.53377 0.0
C437 C 0.44999 0.38174 0.46348 0.0
H438 H 0.50839 0.40122 0.61967 0.0
C439 C 0.45094 0.41223 0.42425 0.0
H440 H 0.47105 0.35505 0.56566 0.0
C441 C 0.47216 0.43867 0.45587 0.0
C442 C 0.49259 0.43517 0.52776 0.0
H443 H 0.43539 0.41565 0.3688 0.0
H444 H 0.47202 0.46201 0.42553 0.0
C445 C 0.49237 0.4046 0.56526 0.0
C446 C 0.10881 0.53369 0.57709 0.0
C447 C 0.11379 0.51732 0.49177 0.0
H448 H 0.074 0.55278 0.67279 0.0
C449 C 0.08755 0.51057 0.43383 0.0
H450 H 0.1287 0.5397 0.62265 0.0
C451 C 0.05656 0.51763 0.46307 0.0
C452 C 0.05105 0.53147 0.55117 0.0
H453 H 0.0908 0.49899 0.36644 0.0
H454 H 0.03665 0.51046 0.41831 0.0
C455 C 0.0776 0.5409 0.60625 0.0
C456 C 0.02164 0.90055 0.83281 0.0
C457 C 0.00548 0.89515 0.91735 0.0
H458 H 0.03983 0.93587 0.73653 0.0
C459 C 0.99506 0.92187 0.97027 0.0
H460 H 0.0299 0.88031 0.79088 0.0
C461 C 0.00113 0.9535 0.93996 0.0
C462 C 0.0172 0.95888 0.85552 0.0
H463 H 0.98291 0.91838 0.03623 0.0
H464 H 0.99312 0.97374 0.98241 0.0
C465 C 0.02726 0.93219 0.80181 0.0
C466 C 0.60388 0.05605 0.9687 0.0
C467 C 0.6334 0.07136 0.93415 0.0
H468 H 0.5544 0.03867 0.94161 0.0
C469 C 0.63562 0.08051 0.84339 0.0
H470 H 0.6017 0.04842 0.03825 0.0
C471 C 0.60865 0.07514 0.78878 0.0
C472 C 0.57911 0.06016 0.82352 0.0
H473 H 0.65805 0.09241 0.81524 0.0
H474 H 0.61092 0.0828 0.71925 0.0
C475 C 0.57697 0.05026 0.91349 0.0
C476 C 0.51581 0.58443 0.05423 0.0
C477 C 0.51444 0.61392 0.01169 0.0
H478 H 0.51428 0.53231 0.03761 0.0
C479 C 0.51059 0.61321 0.91703 0.0
H480 H 0.51903 0.5844 0.12705 0.0
C481 C 0.50745 0.58343 0.86608 0.0
C482 C 0.50881 0.55395 0.90868 0.0
H483 H 0.50915 0.63563 0.88289 0.0
H484 H 0.50325 0.58347 0.79385 0.0
C485 C 0.51322 0.55472 0.00306 0.0
C486 C 0.90258 0.43678 0.9907 0.0
C487 C 0.88315 0.41672 0.92978 0.0
H488 H 0.94611 0.46887 0.00826 0.0
C489 C 0.89402 0.41212 0.83873 0.0
H490 H 0.8945 0.44085 0.06114 0.0
C491 C 0.92387 0.42764 0.809 0.0
C492 C 0.94258 0.44887 0.86899 0.0
H493 H 0.8795 0.3965 0.79093 0.0
H494 H 0.93234 0.42295 0.73935 0.0
C495 C 0.93198 0.45285 0.96044 0.0
C496 C 0.12418 0.1517 0.98375 0.0
C497 C 0.11494 0.18339 0.97626 0.0
H498 H 0.11587 0.10102 0.94155 0.0
C499 C 0.09323 0.18862 0.90863 0.0
H500 H 0.14056 0.14664 0.03555 0.0
C501 C 0.07848 0.16225 0.85654 0.0
C502 C 0.0857 0.13039 0.87004 0.0
H503 H 0.08615 0.21282 0.8998 0.0
H504 H 0.06036 0.16665 0.80876 0.0
C505 C 0.10978 0.12544 0.9306 0.0
C506 C 0.38899 0.05927 0.95562 0.0
C507 C 0.37228 0.0318 0.99574 0.0
H508 H 0.42896 0.07762 0.86942 0.0
C509 C 0.38341 0.00092 0.97474 0.0
H510 H 0.38188 0.08361 0.97087 0.0
C511 C 0.41147 0.99793 0.92019 0.0
C512 C 0.42828 0.02552 0.88251 0.0
H513 H 0.37082 0.97895 0.00132 0.0
H514 H 0.41985 0.97399 0.90668 0.0
C515 C 0.41637 0.05603 0.8984 0.0
C516 C 0.4206 0.33147 0.88821 0.0
C517 C 0.39616 0.33718 0.95465 0.0
H518 H 0.45547 0.3525 0.79105 0.0
C519 C 0.38544 0.36853 0.96594 0.0
H520 H 0.42915 0.30749 0.87774 0.0
C521 C 0.40061 0.39424 0.91697 0.0
C522 C 0.4266 0.38898 0.85561 0.0
H523 H 0.36692 0.37379 0.01731 0.0
H524 H 0.39313 0.41854 0.93074 0.0
C525 C 0.43563 0.35718 0.83873 0.0
C526 C 0.16298 0.53449 0.95791 0.0
C527 C 0.17288 0.50522 0.98753 0.0
H528 H 0.12685 0.55706 0.88969 0.0
C529 C 0.15449 0.47557 0.96334 0.0
H530 H 0.17669 0.55773 0.97447 0.0
C531 C 0.12629 0.47526 0.91469 0.0
C532 C 0.11557 0.50455 0.88944 0.0
H533 H 0.16077 0.45255 0.98624 0.0
H534 H 0.11219 0.45206 0.89994 0.0
C535 C 0.13451 0.53415 0.90931 0.0
C536 C 0.95891 0.84946 0.53761 0.0
C537 C 0.94648 0.84746 0.44972 0.0
H538 H 0.97177 0.88044 0.65512 0.0
C539 C 0.93153 0.87396 0.42013 0.0
H540 H 0.97026 0.82923 0.56228 0.0
C541 C 0.93253 0.90329 0.47297 0.0
C542 C 0.94833 0.90637 0.55609 0.0
H543 H 0.9219 0.87316 0.35249 0.0
H544 H 0.92335 0.92425 0.44529 0.0
C545 C 0.95975 0.87873 0.59063 0.0
C546 C 0.65189 0.00863 0.52879 0.0
C547 C 0.65194 0.01397 0.43527 0.0
H548 H 0.6232 0.00146 0.65191 0.0
C549 C 0.6222 0.0133 0.39213 0.0
H550 H 0.67452 0.00917 0.56352 0.0
C551 C 0.59297 0.00942 0.44261 0.0
C552 C 0.59293 0.00561 0.53684 0.0
H553 H 0.62154 0.01785 0.32033 0.0
H554 H 0.57045 0.01055 0.40843 0.0
C555 C 0.62256 0.00414 0.57909 0.0
C556 C 0.5938 0.63505 0.44151 0.0
C557 C 0.58858 0.664 0.49345 0.0
H558 H 0.59201 0.58288 0.43896 0.0
C559 C 0.5839 0.66249 0.58863 0.0
H560 H 0.59728 0.63506 0.36807 0.0
C561 C 0.58034 0.63232 0.62899 0.0
C562 C 0.58182 0.60323 0.575 0.0
H563 H 0.5805 0.68437 0.63097 0.0
H564 H 0.57402 0.63165 0.70122 0.0
C565 C 0.59054 0.60497 0.48204 0.0
C566 C 0.83398 0.48946 0.4427 0.0
C567 C 0.8214 0.45636 0.43541 0.0
H568 H 0.87078 0.52471 0.4978 0.0
C569 C 0.8344 0.43404 0.48938 0.0
H570 H 0.82416 0.50746 0.40368 0.0
C571 C 0.86064 0.44409 0.54427 0.0
C572 C 0.8747 0.47656 0.54567 0.0
H573 H 0.82577 0.40831 0.48505 0.0
H574 H 0.87103 0.42599 0.58171 0.0
C575 C 0.86055 0.49942 0.49691 0.0
loop_
_geom_bond_atom_site_label_1
_geom_bond_atom_site_label_2
_geom_bond_distance
_geom_bond_site_symmetry_2
_ccdc_geom_bond_type
P0 O11 1.490 . S
P0 C14 1.812 . S
P0 C20 1.803 . S
P0 C26 1.819 1_554 S
H1 C15 0.941 . S
H2 C16 0.939 . S
H3 C18 0.940 . S
H4 C19 0.940 . S
H5 C21 0.939 . S
H6 C22 0.942 . S
H7 C24 0.940 . S
H8 C25 0.939 . S
H9 C27 0.941 1_554 S
H10 C31 0.939 . S
O11 P0 1.490 . S
H12 C28 0.939 . S
H13 C30 0.940 . S
C14 P0 1.812 . S
C14 C15 1.389 . S
C14 C19 1.391 . S
C15 H1 0.941 . S
C15 C14 1.389 . S
C15 C16 1.397 . S
C16 H2 0.939 . S
C16 C15 1.397 . S
C16 C17 1.378 . S
C17 C16 1.378 . S
C17 C18 1.378 . S
C18 H3 0.940 . S
C18 C17 1.378 . S
C18 C19 1.396 . S
C19 H4 0.940 . S
C19 C14 1.391 . S
C19 C18 1.396 . S
C20 P0 1.803 . S
C20 C21 1.378 1_554 S
C20 C25 1.400 . S
C21 H5 0.939 . S
C21 C20 1.378 1_556 S
C21 C22 1.361 . S
C22 H6 0.942 . S
C22 C21 1.361 . S
C22 C23 1.369 . S
C23 C22 1.369 . S
C23 C24 1.404 1_556 S
C24 H7 0.940 . S
C24 C23 1.404 1_554 S
C24 C25 1.389 . S
C25 H8 0.939 . S
C25 C20 1.400 . S
C25 C24 1.389 . S
C26 P0 1.819 1_556 S
C26 C27 1.391 . S
C26 C31 1.391 . S
C27 H9 0.941 1_556 S
C27 C26 1.391 . S
C27 C28 1.396 . S
C28 H12 0.939 . S
C28 C27 1.396 . S
C28 C29 1.397 . S
C29 C28 1.397 . S
C29 C30 1.385 . S
C30 H13 0.940 . S
C30 C29 1.385 . S
C30 C31 1.388 . S
C31 H10 0.939 . S
C31 C26 1.391 . S
C31 C30 1.388 . S
P32 O43 1.490 . S
P32 C46 1.812 . S
P32 C52 1.803 . S
P32 C58 1.819 1_554 S
H33 C47 0.941 . S
H34 C48 0.939 . S
H35 C50 0.940 . S
H36 C51 0.940 . S
H37 C53 0.939 . S
H38 C54 0.942 . S
H39 C56 0.940 . S
H40 C57 0.939 . S
H41 C59 0.941 . S
H42 C63 0.939 . S
O43 P32 1.490 . S
H44 C60 0.939 . S
H45 C62 0.940 . S
C46 P32 1.812 . S
C46 C47 1.389 . S
C46 C51 1.391 . S
C47 H33 0.941 . S
C47 C46 1.389 . S
C47 C48 1.397 . S
C48 H34 0.939 . S
C48 C47 1.397 . S
C48 C49 1.378 . S
C49 C48 1.378 . S
C49 C50 1.378 . S
C50 H35 0.940 . S
C50 C49 1.378 . S
C50 C51 1.396 . S
C51 H36 0.940 . S
C51 C46 1.391 . S
C51 C50 1.396 . S
C52 P32 1.803 . S
C52 C53 1.378 1_554 S
C52 C57 1.400 . S
C53 H37 0.939 . S
C53 C52 1.378 1_556 S
C53 C54 1.361 . S
C54 H38 0.942 . S
C54 C53 1.361 . S
C54 C55 1.369 . S
C55 C54 1.369 . S
C55 C56 1.404 1_556 S
C56 H39 0.940 . S
C56 C55 1.404 1_554 S
C56 C57 1.389 . S
C57 H40 0.939 . S
C57 C52 1.400 . S
C57 C56 1.389 . S
C58 P32 1.819 1_556 S
C58 C59 1.391 . S
C58 C63 1.391 . S
C59 H41 0.941 . S
C59 C58 1.391 . S
C59 C60 1.396 . S
C60 H44 0.939 . S
C60 C59 1.396 . S
C60 C61 1.397 . S
C61 C60 1.397 . S
C61 C62 1.385 . S
C62 H45 0.940 . S
C62 C61 1.385 . S
C62 C63 1.388 . S
C63 H42 0.939 . S
C63 C58 1.391 . S
C63 C62 1.388 . S
P64 O75 1.490 . S
P64 C78 1.812 . S
P64 C84 1.803 . S
P64 C90 1.819 . S
H65 C79 0.941 . S
H66 C80 0.939 . S
H67 C82 0.940 . S
H68 C83 0.949 . S
H69 C85 0.939 . S
H70 C86 0.942 1_556 S
H71 C88 0.940 . S
H72 C89 0.958 . S
H73 C91 0.941 . S
H74 C95 0.926 1_565 S
O75 P64 1.490 . S
H76 C92 0.939 . S
H77 C94 0.940 . S
C78 P64 1.812 . S
C78 C79 1.389 . S
C78 C83 1.376 1_545 S
C79 H65 0.941 . S
C79 C78 1.389 . S
C79 C80 1.397 . S
C80 H66 0.939 . S
C80 C79 1.397 . S
C80 C81 1.378 . S
C81 C80 1.378 . S
C81 C82 1.378 1_545 S
C82 H67 0.940 . S
C82 C81 1.378 1_565 S
C82 C83 1.403 . S
C83 H68 0.949 . S
C83 C78 1.376 1_565 S
C83 C82 1.403 . S
C84 P64 1.803 . S
C84 C85 1.378 . S
C84 C89 1.367 1_545 S
C85 H69 0.939 . S
C85 C84 1.378 . S
C85 C86 1.361 . S
C86 H70 0.942 1_554 S
C86 C85 1.361 . S
C86 C87 1.369 . S
C87 C86 1.369 . S
C87 C88 1.404 1_545 S
C88 H71 0.940 . S
C88 C87 1.404 1_565 S
C88 C89 1.404 . S
C89 H72 0.958 . S
C89 C84 1.367 1_565 S
C89 C88 1.404 . S
C90 P64 1.819 . S
C90 C91 1.391 . S
C90 C95 1.391 1_554 S
C91 H73 0.941 . S
C91 C90 1.391 . S
C91 C92 1.396 1_554 S
C92 H76 0.939 . S
C92 C91 1.396 1_556 S
C92 C93 1.397 . S
C93 C92 1.397 . S
C93 C94 1.385 1_545 S
C94 H77 0.940 . S
C94 C93 1.385 1_565 S
C94 C95 1.388 1_565 S
C95 H74 0.926 1_545 S
C95 C90 1.391 1_556 S
C95 C94 1.388 1_545 S
P96 O107 1.490 . S
P96 C110 1.812 . S
P96 C116 1.803 . S
P96 C122 1.819 . S
H97 C111 0.941 . S
H98 C112 0.939 . S
H99 C114 0.940 . S
H100 C115 0.940 . S
H101 C117 0.939 . S
H102 C118 0.942 1_556 S
H103 C120 0.940 . S
H104 C121 0.939 . S
H105 C123 0.941 . S
H106 C127 0.939 . S
O107 P96 1.490 . S
H108 C124 0.939 . S
H109 C126 0.940 . S
C110 P96 1.812 . S
C110 C111 1.389 . S
C110 C115 1.391 . S
C111 H97 0.941 . S
C111 C110 1.389 . S
C111 C112 1.397 . S
C112 H98 0.939 . S
C112 C111 1.397 . S
C112 C113 1.378 . S
C113 C112 1.378 . S
C113 C114 1.378 . S
C114 H99 0.940 . S
C114 C113 1.378 . S
C114 C115 1.396 . S
C115 H100 0.940 . S
C115 C110 1.391 . S
C115 C114 1.396 . S
C116 P96 1.803 . S
C116 C117 1.378 . S
C116 C121 1.400 . S
C117 H101 0.939 . S
C117 C116 1.378 . S
C117 C118 1.361 . S
C118 H102 0.942 1_554 S
C118 C117 1.361 . S
C118 C119 1.369 . S
C119 C118 1.369 . S
C119 C120 1.404 . S
C120 H103 0.940 . S
C120 C119 1.404 . S
C120 C121 1.389 . S
C121 H104 0.939 . S
C121 C116 1.400 . S
C121 C120 1.389 . S
C122 P96 1.819 . S
C122 C123 1.391 . S
C122 C127 1.391 1_554 S
C123 H105 0.941 . S
C123 C122 1.391 . S
C123 C124 1.396 1_554 S
C124 H108 0.939 . S
C124 C123 1.396 1_556 S
C124 C125 1.397 . S
C125 C124 1.397 . S
C125 C126 1.385 . S
C126 H109 0.940 . S
C126 C125 1.385 . S
C126 C127 1.388 . S
C127 H106 0.939 . S
C127 C122 1.391 1_556 S
C127 C126 1.388 . S
P128 O139 1.490 . S
P128 C142 1.812 . S
P128 C148 1.803 . S
P128 C154 1.819 . S
H129 C143 0.941 . S
H130 C144 0.939 . S
H131 C146 0.940 . S
H132 C147 0.940 . S
H133 C149 0.939 . S
H134 C150 0.942 . S
H135 C152 0.940 . S
H136 C153 0.939 . S
H137 C155 0.941 . S
H138 C159 0.939 . S
O139 P128 1.490 . S
H140 C156 0.939 . S
H141 C158 0.940 . S
C142 P128 1.812 . S
C142 C143 1.389 . S
C142 C147 1.391 . S
C143 H129 0.941 . S
C143 C142 1.389 . S
C143 C144 1.397 . S
C144 H130 0.939 . S
C144 C143 1.397 . S
C144 C145 1.378 . S
C145 C144 1.378 . S
C145 C146 1.378 . S
C146 H131 0.940 . S
C146 C145 1.378 . S
C146 C147 1.396 . S
C147 H132 0.940 . S
C147 C142 1.391 . S
C147 C146 1.396 . S
C148 P128 1.803 . S
C148 C149 1.378 . S
C148 C153 1.400 . S
C149 H133 0.939 . S
C149 C148 1.378 . S
C149 C150 1.361 . S
C150 H134 0.942 . S
C150 C149 1.361 . S
C150 C151 1.369 . S
C151 C150 1.369 . S
C151 C152 1.404 . S
C152 H135 0.940 . S
C152 C151 1.404 . S
C152 C153 1.389 . S
C153 H136 0.939 . S
C153 C148 1.400 . S
C153 C152 1.389 . S
C154 P128 1.819 . S
C154 C155 1.391 . S
C154 C159 1.391 . S
C155 H137 0.941 . S
C155 C154 1.391 . S
C155 C156 1.396 . S
C156 H140 0.939 . S
C156 C155 1.396 . S
C156 C157 1.397 . S
C157 C156 1.397 . S
C157 C158 1.385 . S
C158 H141 0.940 . S
C158 C157 1.385 . S
C158 C159 1.388 . S
C159 H138 0.939 . S
C159 C154 1.391 . S
C159 C158 1.388 . S
P160 O171 1.490 . S
P160 C174 1.812 . S
P160 C180 1.803 . S
P160 C186 1.819 . S
H161 C175 0.941 . S
H162 C176 0.939 . S
H163 C178 0.940 . S
H164 C179 0.940 . S
H165 C181 0.939 . S
H166 C182 0.942 . S
H167 C184 0.940 . S
H168 C185 0.939 . S
H169 C187 0.941 . S
H170 C191 0.939 . S
O171 P160 1.490 . S
H172 C188 0.939 . S
H173 C190 0.940 . S
C174 P160 1.812 . S
C174 C175 1.389 . S
C174 C179 1.391 . S
C175 H161 0.941 . S
C175 C174 1.389 . S
C175 C176 1.397 . S
C176 H162 0.939 . S
C176 C175 1.397 . S
C176 C177 1.378 . S
C177 C176 1.378 . S
C177 C178 1.378 . S
C178 H163 0.940 . S
C178 C177 1.378 . S
C178 C179 1.396 . S
C179 H164 0.940 . S
C179 C174 1.391 . S
C179 C178 1.396 . S
C180 P160 1.803 . S
C180 C181 1.378 . S
C180 C185 1.400 . S
C181 H165 0.939 . S
C181 C180 1.378 . S
C181 C182 1.361 . S
C182 H166 0.942 . S
C182 C181 1.361 . S
C182 C183 1.369 . S
C183 C182 1.369 . S
C183 C184 1.404 . S
C184 H167 0.940 . S
C184 C183 1.404 . S
C184 C185 1.389 . S
C185 H168 0.939 . S
C185 C180 1.400 . S
C185 C184 1.389 . S
C186 P160 1.819 . S
C186 C187 1.391 . S
C186 C191 1.391 . S
C187 H169 0.941 . S
C187 C186 1.391 . S
C187 C188 1.396 . S
C188 H172 0.939 . S
C188 C187 1.396 . S
C188 C189 1.397 . S
C189 C188 1.397 . S
C189 C190 1.385 . S
C190 H173 0.940 . S
C190 C189 1.385 . S
C190 C191 1.388 . S
C191 H170 0.939 . S
C191 C186 1.391 . S
C191 C190 1.388 . S
P192 O203 1.490 . S
P192 C206 1.812 . S
P192 C212 1.803 . S
P192 C218 1.819 . S
H193 C207 0.941 . S
H194 C208 0.939 . S
H195 C210 0.940 1_565 S
H196 C211 0.940 . S
H197 C213 0.939 . S
H198 C214 0.942 . S
H199 C216 0.940 1_565 S
H200 C217 0.939 . S
H201 C219 0.941 . S
H202 C223 0.939 . S
O203 P192 1.490 . S
H204 C220 0.939 . S
H205 C222 0.940 1_565 S
C206 P192 1.812 . S
C206 C207 1.389 . S
C206 C211 1.391 . S
C207 H193 0.941 . S
C207 C206 1.389 . S
C207 C208 1.397 . S
C208 H194 0.939 . S
C208 C207 1.397 . S
C208 C209 1.378 . S
C209 C208 1.378 . S
C209 C210 1.378 . S
C210 H195 0.940 1_545 S
C210 C209 1.378 . S
C210 C211 1.396 . S
C211 H196 0.940 . S
C211 C206 1.391 . S
C211 C210 1.396 . S
C212 P192 1.803 . S
C212 C213 1.378 . S
C212 C217 1.400 . S
C213 H197 0.939 . S
C213 C212 1.378 . S
C213 C214 1.361 . S
C214 H198 0.942 . S
C214 C213 1.361 . S
C214 C215 1.369 . S
C215 C214 1.369 . S
C215 C216 1.404 . S
C216 H199 0.940 1_545 S
C216 C215 1.404 . S
C216 C217 1.389 . S
C217 H200 0.939 . S
C217 C212 1.400 . S
C217 C216 1.389 . S
C218 P192 1.819 . S
C218 C219 1.391 . S
C218 C223 1.391 . S
C219 H201 0.941 . S
C219 C218 1.391 . S
C219 C220 1.396 . S
C220 H204 0.939 . S
C220 C219 1.396 . S
C220 C221 1.397 . S
C221 C220 1.397 . S
C221 C222 1.385 . S
C222 H205 0.940 1_545 S
C222 C221 1.385 . S
C222 C223 1.388 . S
C223 H202 0.939 . S
C223 C218 1.391 . S
C223 C222 1.388 . S
P224 O235 1.490 . S
P224 C238 1.812 . S
P224 C244 1.803 . S
P224 C250 1.819 . S
H225 C239 0.941 . S
H226 C240 0.939 . S
H227 C242 0.940 . S
H228 C243 0.940 . S
H229 C245 0.939 . S
H230 C246 0.942 . S
H231 C248 0.940 . S
H232 C249 0.939 . S
H233 C251 0.941 . S
H234 C255 0.939 . S
O235 P224 1.490 . S
H236 C252 0.939 . S
H237 C254 0.940 . S
C238 P224 1.812 . S
C238 C239 1.389 . S
C238 C243 1.391 . S
C239 H225 0.941 . S
C239 C238 1.389 . S
C239 C240 1.397 . S
C240 H226 0.939 . S
C240 C239 1.397 . S
C240 C241 1.378 . S
C241 C240 1.378 . S
C241 C242 1.378 . S
C242 H227 0.940 . S
C242 C241 1.378 . S
C242 C243 1.396 . S
C243 H228 0.940 . S
C243 C238 1.391 . S
C243 C242 1.396 . S
C244 P224 1.803 . S
C244 C245 1.378 . S
C244 C249 1.400 . S
C245 H229 0.939 . S
C245 C244 1.378 . S
C245 C246 1.361 . S
C246 H230 0.942 . S
C246 C245 1.361 . S
C246 C247 1.369 . S
C247 C246 1.369 . S
C247 C248 1.404 . S
C248 H231 0.940 . S
C248 C247 1.404 . S
C248 C249 1.389 . S
C249 H232 0.939 . S
C249 C244 1.400 . S
C249 C248 1.389 . S
C250 P224 1.819 . S
C250 C251 1.391 . S
C250 C255 1.391 . S
C251 H233 0.941 . S
C251 C250 1.391 . S
C251 C252 1.396 . S
C252 H236 0.939 . S
C252 C251 1.396 . S
C252 C253 1.397 . S
C253 C252 1.397 . S
C253 C254 1.385 . S
C254 H237 0.940 . S
C254 C253 1.385 . S
C254 C255 1.388 . S
C255 H234 0.939 . S
C255 C250 1.391 . S
C255 C254 1.388 . S
Tb256 O259 2.453 1_655 S
Tb256 O260 2.596 1_655 S
Tb256 O261 2.374 1_645 S
Tb256 O269 2.343 1_545 S
Tb256 O271 2.353 . S
Tb256 O273 2.427 1_545 S
Tb256 O274 2.513 1_545 S
C257 O261 1.250 . S
C257 O263 1.262 . S
Tb258 O260 2.343 . S
Tb258 O263 2.350 1_545 S
Tb258 O266 2.427 . S
Tb258 O267 2.513 . S
Tb258 O268 2.453 1_545 S
Tb258 O269 2.596 1_445 S
Tb258 O270 2.374 1_455 S
O259 Tb256 2.453 1_455 S
O259 C275 1.245 . S
O260 Tb256 2.596 1_455 S
O260 Tb258 2.343 . S
O260 C275 1.259 . S
O261 Tb256 2.374 1_465 S
O261 C257 1.250 . S
C262 O266 1.275 . S
C262 O267 1.246 . S
O263 C257 1.262 . S
O263 Tb258 2.350 1_565 S
C264 O268 1.245 1_655 S
C264 O269 1.259 . S
C265 O270 1.250 . S
C265 O271 1.263 . S
O266 Tb258 2.427 . S
O266 C262 1.275 . S
O267 Tb258 2.513 . S
O267 C262 1.246 . S
O268 Tb258 2.453 1_565 S
O268 C264 1.245 1_455 S
O269 Tb256 2.343 1_565 S
O269 Tb258 2.596 1_665 S
O269 C264 1.259 . S
O270 Tb258 2.374 1_655 S
O270 C265 1.250 . S
O271 Tb256 2.353 . S
O271 C265 1.263 . S
C272 O273 1.275 . S
C272 O274 1.246 . S
O273 Tb256 2.427 1_565 S
O273 C272 1.275 . S
O274 Tb256 2.513 1_565 S
O274 C272 1.246 . S
C275 O259 1.245 . S
C275 O260 1.259 . S
Tb276 O279 2.453 . S
Tb276 O280 2.596 . S
Tb276 O281 2.374 . S
Tb276 O289 2.343 . S
Tb276 O291 2.353 . S
Tb276 O293 2.427 . S
Tb276 O294 2.513 . S
C277 O281 1.251 . S
C277 O283 1.263 1_545 S
Tb278 O280 2.343 1_565 S
Tb278 O283 2.353 . S
Tb278 O286 2.427 . S
Tb278 O287 2.513 . S
Tb278 O288 2.453 . S
Tb278 O289 2.596 1_565 S
Tb278 O290 2.374 . S
O279 Tb276 2.453 . S
O279 C295 1.245 . S
O280 Tb276 2.596 . S
O280 Tb278 2.343 1_545 S
O280 C295 1.259 . S
O281 Tb276 2.374 . S
O281 C277 1.251 . S
C282 O286 1.275 . S
C282 O287 1.246 . S
O283 C277 1.263 1_565 S
O283 Tb278 2.353 . S
C284 O288 1.245 . S
C284 O289 1.259 1_565 S
C285 O290 1.250 1_545 S
C285 O291 1.263 . S
O286 Tb278 2.427 . S
O286 C282 1.275 . S
O287 Tb278 2.513 . S
O287 C282 1.246 . S
O288 Tb278 2.453 . S
O288 C284 1.245 . S
O289 Tb276 2.343 . S
O289 Tb278 2.596 1_545 S
O289 C284 1.259 1_545 S
O290 Tb278 2.374 . S
O290 C285 1.250 1_565 S
O291 Tb276 2.353 . S
O291 C285 1.263 . S
C292 O293 1.275 . S
C292 O294 1.246 . S
O293 Tb276 2.427 . S
O293 C292 1.275 . S
O294 Tb276 2.513 . S
O294 C292 1.246 . S
C295 O279 1.245 . S
C295 O280 1.259 . S
Tb296 O299 2.453 . S
Tb296 O300 2.596 . S
Tb296 O301 2.374 . S
Tb296 O309 2.343 . S
Tb296 O311 2.353 . S
Tb296 O313 2.427 . S
Tb296 O314 2.513 . S
C297 O301 1.251 . S
C297 O303 1.263 . S
Tb298 O300 2.343 . S
Tb298 O303 2.353 . S
Tb298 O306 2.427 . S
Tb298 O307 2.513 . S
Tb298 O308 2.453 . S
Tb298 O309 2.596 . S
Tb298 O310 2.374 . S
O299 Tb296 2.453 . S
O299 C315 1.245 . S
O300 Tb296 2.596 . S
O300 Tb298 2.343 . S
O300 C315 1.259 . S
O301 Tb296 2.374 . S
O301 C297 1.251 . S
C302 O306 1.275 . S
C302 O307 1.246 . S
O303 C297 1.263 . S
O303 Tb298 2.353 . S
C304 O308 1.245 . S
C304 O309 1.259 . S
C305 O310 1.250 . S
C305 O311 1.263 . S
O306 Tb298 2.427 . S
O306 C302 1.275 . S
O307 Tb298 2.513 . S
O307 C302 1.246 . S
O308 Tb298 2.453 . S
O308 C304 1.245 . S
O309 Tb296 2.343 . S
O309 Tb298 2.596 . S
O309 C304 1.259 . S
O310 Tb298 2.374 . S
O310 C305 1.250 . S
O311 Tb296 2.353 . S
O311 C305 1.263 . S
C312 O313 1.275 . S
C312 O314 1.246 . S
O313 Tb296 2.427 . S
O313 C312 1.275 . S
O314 Tb296 2.513 . S
O314 C312 1.246 . S
C315 O299 1.245 . S
C315 O300 1.259 . S
Tb316 O319 2.453 1_655 S
Tb316 O320 2.596 1_655 S
Tb316 O321 2.374 1_655 S
Tb316 O329 2.343 . S
Tb316 O331 2.353 . S
Tb316 O333 2.427 . S
Tb316 O334 2.513 . S
C317 O321 1.251 . S
C317 O323 1.263 . S
Tb318 O320 2.343 . S
Tb318 O323 2.353 . S
Tb318 O326 2.427 . S
Tb318 O327 2.513 . S
Tb318 O328 2.453 1_455 S
Tb318 O329 2.596 1_455 S
Tb318 O330 2.374 . S
O319 Tb316 2.453 1_455 S
O319 C335 1.245 . S
O320 Tb316 2.596 1_455 S
O320 Tb318 2.343 . S
O320 C335 1.259 . S
O321 Tb316 2.374 1_455 S
O321 C317 1.251 . S
C322 O326 1.275 . S
C322 O327 1.246 . S
O323 C317 1.263 . S
O323 Tb318 2.353 . S
C324 O328 1.245 . S
C324 O329 1.259 . S
C325 O330 1.250 1_655 S
C325 O331 1.263 . S
O326 Tb318 2.427 . S
O326 C322 1.275 . S
O327 Tb318 2.513 . S
O327 C322 1.246 . S
O328 Tb318 2.453 1_655 S
O328 C324 1.245 . S
O329 Tb316 2.343 . S
O329 Tb318 2.596 1_655 S
O329 C324 1.259 . S
O330 Tb318 2.374 . S
O330 C325 1.250 1_455 S
O331 Tb316 2.353 . S
O331 C325 1.263 . S
C332 O333 1.275 . S
C332 O334 1.246 . S
O333 Tb316 2.427 . S
O333 C332 1.275 . S
O334 Tb316 2.513 . S
O334 C332 1.246 . S
C335 O319 1.245 . S
C335 O320 1.259 . S
C336 C337 1.387 . S
C336 H340 0.950 . S
C336 C345 1.390 . S
C337 C336 1.387 . S
C337 C339 1.387 1_545 S
H338 C345 0.950 . S
C339 C337 1.387 1_565 S
C339 C341 1.390 . S
C339 H343 0.950 . S
H340 C336 0.950 . S
C341 C339 1.390 . S
C341 C342 1.387 1_565 S
C341 H344 0.950 . S
C342 C341 1.387 1_545 S
C342 C345 1.387 . S
H343 C339 0.950 . S
H344 C341 0.950 . S
C345 C336 1.390 . S
C345 H338 0.950 . S
C345 C342 1.387 . S
C346 C347 1.387 . S
C346 H350 0.950 . S
C346 C355 1.390 . S
C347 C346 1.387 . S
C347 C349 1.387 . S
H348 C355 0.950 . S
C349 C347 1.387 . S
C349 C351 1.390 . S
C349 H353 0.950 . S
H350 C346 0.950 . S
C351 C349 1.390 . S
C351 C352 1.387 . S
C351 H354 0.950 . S
C352 C351 1.387 . S
C352 C355 1.387 . S
H353 C349 0.950 . S
H354 C351 0.950 . S
C355 C346 1.390 . S
C355 H348 0.950 . S
C355 C352 1.387 . S
C356 C357 1.387 . S
C356 H360 0.950 . S
C356 C365 1.390 . S
C357 C356 1.387 . S
C357 C359 1.387 . S
H358 C365 0.950 . S
C359 C357 1.387 . S
C359 C361 1.390 . S
C359 H363 0.950 . S
H360 C356 0.950 . S
C361 C359 1.390 . S
C361 C362 1.387 . S
C361 H364 0.950 . S
C362 C361 1.387 . S
C362 C365 1.387 . S
H363 C359 0.950 . S
H364 C361 0.950 . S
C365 C356 1.390 . S
C365 H358 0.950 . S
C365 C362 1.387 . S
C366 C367 1.387 . S
C366 H370 0.950 . S
C366 C375 1.390 . S
C367 C366 1.387 . S
C367 C369 1.387 . S
H368 C375 0.950 . S
C369 C367 1.387 . S
C369 C371 1.390 . S
C369 H373 0.950 . S
H370 C366 0.950 . S
C371 C369 1.390 . S
C371 C372 1.387 . S
C371 H374 0.950 . S
C372 C371 1.387 . S
C372 C375 1.387 . S
H373 C369 0.950 . S
H374 C371 0.950 . S
C375 C366 1.390 . S
C375 H368 0.950 . S
C375 C372 1.387 . S
C376 C377 1.387 1_565 S
C376 H380 0.950 . S
C376 C385 1.390 . S
C377 C376 1.387 1_545 S
C377 C379 1.387 . S
H378 C385 0.950 . S
C379 C377 1.387 . S
C379 C381 1.390 . S
C379 H383 0.950 1_556 S
H380 C376 0.950 . S
C381 C379 1.390 . S
C381 C382 1.387 . S
C381 H384 0.950 . S
C382 C381 1.387 . S
C382 C385 1.387 1_545 S
H383 C379 0.950 1_554 S
H384 C381 0.950 . S
C385 C376 1.390 . S
C385 H378 0.950 . S
C385 C382 1.387 1_565 S
C386 C387 1.387 . S
C386 H390 0.950 . S
C386 C395 1.390 . S
C387 C386 1.387 . S
C387 C389 1.387 1_556 S
H388 C395 0.950 . S
C389 C387 1.387 1_554 S
C389 C391 1.390 1_554 S
C389 H393 0.950 . S
H390 C386 0.950 . S
C391 C389 1.390 1_556 S
C391 C392 1.387 . S
C391 H394 0.950 . S
C392 C391 1.387 . S
C392 C395 1.387 . S
H393 C389 0.950 . S
H394 C391 0.950 . S
C395 C386 1.390 . S
C395 H388 0.950 . S
C395 C392 1.387 . S
C396 C397 1.387 . S
C396 H400 0.950 . S
C396 C405 1.390 . S
C397 C396 1.387 . S
C397 C399 1.387 . S
H398 C405 0.950 . S
C399 C397 1.387 . S
C399 C401 1.390 . S
C399 H403 0.950 . S
H400 C396 0.950 . S
C401 C399 1.390 . S
C401 C402 1.387 . S
C401 H404 0.950 . S
C402 C401 1.387 . S
C402 C405 1.387 . S
H403 C399 0.950 . S
H404 C401 0.950 . S
C405 C396 1.390 . S
C405 H398 0.950 . S
C405 C402 1.387 . S
C406 C407 1.387 . S
C406 H410 0.950 1_556 S
C406 C415 1.390 . S
C407 C406 1.387 . S
C407 C409 1.387 . S
H408 C415 0.950 . S
C409 C407 1.387 . S
C409 C411 1.390 . S
C409 H413 0.950 . S
H410 C406 0.950 1_554 S
C411 C409 1.390 . S
C411 C412 1.387 . S
C411 H414 0.950 . S
C412 C411 1.387 . S
C412 C415 1.387 . S
H413 C409 0.950 . S
H414 C411 0.950 . S
C415 C406 1.390 . S
C415 H408 0.950 . S
C415 C412 1.387 . S
C416 C417 1.387 . S
C416 H420 0.950 . S
C416 C425 1.390 . S
C417 C416 1.387 . S
C417 C419 1.387 . S
H418 C425 0.950 . S
C419 C417 1.387 . S
C419 C421 1.390 . S
C419 H423 0.950 . S
H420 C416 0.950 . S
C421 C419 1.390 . S
C421 C422 1.387 . S
C421 H424 0.950 . S
C422 C421 1.387 . S
C422 C425 1.387 . S
H423 C419 0.950 . S
H424 C421 0.950 . S
C425 C416 1.390 . S
C425 H418 0.950 . S
C425 C422 1.387 . S
C426 C427 1.387 . S
C426 H430 0.950 . S
C426 C435 1.390 . S
C427 C426 1.387 . S
C427 C429 1.387 . S
H428 C435 0.950 . S
C429 C427 1.387 . S
C429 C431 1.390 . S
C429 H433 0.950 . S
H430 C426 0.950 . S
C431 C429 1.390 . S
C431 C432 1.387 . S
C431 H434 0.950 . S
C432 C431 1.387 . S
C432 C435 1.387 . S
H433 C429 0.950 . S
H434 C431 0.950 . S
C435 C426 1.390 . S
C435 H428 0.950 . S
C435 C432 1.387 . S
C436 C437 1.387 . S
C436 H440 0.950 . S
C436 C445 1.390 . S
C437 C436 1.387 . S
C437 C439 1.387 . S
H438 C445 0.950 . S
C439 C437 1.387 . S
C439 C441 1.390 . S
C439 H443 0.950 . S
H440 C436 0.950 . S
C441 C439 1.390 . S
C441 C442 1.387 . S
C441 H444 0.950 . S
C442 C441 1.387 . S
C442 C445 1.387 . S
H443 C439 0.950 . S
H444 C441 0.950 . S
C445 C436 1.390 . S
C445 H438 0.950 . S
C445 C442 1.387 . S
C446 C447 1.387 . S
C446 H450 0.950 . S
C446 C455 1.390 . S
C447 C446 1.387 . S
C447 C449 1.387 . S
H448 C455 0.950 . S
C449 C447 1.387 . S
C449 C451 1.390 . S
C449 H453 0.950 . S
H450 C446 0.950 . S
C451 C449 1.390 . S
C451 C452 1.387 . S
C451 H454 0.950 . S
C452 C451 1.387 . S
C452 C455 1.387 . S
H453 C449 0.950 . S
H454 C451 0.950 . S
C455 C446 1.390 . S
C455 H448 0.950 . S
C455 C452 1.387 . S
C456 C457 1.387 . S
C456 H460 0.950 . S
C456 C465 1.390 . S
C457 C456 1.387 . S
C457 C459 1.387 . S
H458 C465 0.950 . S
C459 C457 1.387 . S
C459 C461 1.390 . S
C459 H463 0.950 . S
H460 C456 0.950 . S
C461 C459 1.390 . S
C461 C462 1.387 . S
C461 H464 0.950 . S
C462 C461 1.387 . S
C462 C465 1.387 . S
H463 C459 0.950 . S
H464 C461 0.950 . S
C465 C456 1.390 . S
C465 H458 0.950 . S
C465 C462 1.387 . S
C466 C467 1.402 . S
C466 H470 0.950 . S
C466 C475 1.390 . S
C467 C466 1.402 . S
C467 C469 1.378 1_545 S
H468 C475 0.950 . S
C469 C467 1.378 1_565 S
C469 C471 1.390 . S
C469 H473 0.950 . S
H470 C466 0.950 . S
C471 C469 1.390 . S
C471 C472 1.387 1_565 S
C471 H474 0.950 . S
C472 C471 1.387 1_545 S
C472 C475 1.387 . S
H473 C469 0.950 . S
H474 C471 0.950 . S
C475 C466 1.390 . S
C475 H468 0.950 . S
C475 C472 1.387 . S
C476 C477 1.387 . S
C476 H480 0.950 . S
C476 C485 1.390 . S
C477 C476 1.387 . S
C477 C479 1.387 . S
H478 C485 0.950 . S
C479 C477 1.387 . S
C479 C481 1.390 . S
C479 H483 0.950 . S
H480 C476 0.950 . S
C481 C479 1.390 . S
C481 C482 1.387 . S
C481 H484 0.950 . S
C482 C481 1.387 . S
C482 C485 1.387 . S
H483 C479 0.950 . S
H484 C481 0.950 . S
C485 C476 1.390 . S
C485 H478 0.950 . S
C485 C482 1.387 . S
C486 C487 1.387 . S
C486 H490 0.950 . S
C486 C495 1.390 . S
C487 C486 1.387 . S
C487 C489 1.387 . S
H488 C495 0.950 . S
C489 C487 1.387 . S
C489 C491 1.390 . S
C489 H493 0.950 . S
H490 C486 0.950 . S
C491 C489 1.390 . S
C491 C492 1.387 . S
C491 H494 0.950 . S
C492 C491 1.387 . S
C492 C495 1.387 . S
H493 C489 0.950 . S
H494 C491 0.950 . S
C495 C486 1.390 . S
C495 H488 0.950 . S
C495 C492 1.387 . S
C496 C497 1.387 . S
C496 H500 0.950 . S
C496 C505 1.390 . S
C497 C496 1.387 . S
C497 C499 1.387 1_554 S
H498 C505 0.950 . S
C499 C497 1.387 1_556 S
C499 C501 1.390 . S
C499 H503 0.950 . S
H500 C496 0.950 . S
C501 C499 1.390 . S
C501 C502 1.387 . S
C501 H504 0.950 . S
C502 C501 1.387 . S
C502 C505 1.387 1_556 S
H503 C499 0.950 . S
H504 C501 0.950 . S
C505 C496 1.390 . S
C505 H498 0.950 . S
C505 C502 1.387 1_554 S
C506 C507 1.387 . S
C506 H510 0.950 . S
C506 C515 1.390 . S
C507 C506 1.387 . S
C507 C509 1.387 1_545 S
H508 C515 0.950 . S
C509 C507 1.387 1_565 S
C509 C511 1.390 . S
C509 H513 0.950 . S
H510 C506 0.950 . S
C511 C509 1.390 . S
C511 C512 1.387 1_565 S
C511 H514 0.950 . S
C512 C511 1.387 1_545 S
C512 C515 1.387 . S
H513 C509 0.950 . S
H514 C511 0.950 . S
C515 C506 1.390 . S
C515 H508 0.950 . S
C515 C512 1.387 . S
C516 C517 1.387 1_556 S
C516 H520 0.950 . S
C516 C525 1.390 . S
C517 C516 1.387 1_554 S
C517 C519 1.387 . S
H518 C525 0.950 . S
C519 C517 1.387 . S
C519 C521 1.390 . S
C519 H523 0.950 . S
H520 C516 0.950 . S
C521 C519 1.390 . S
C521 C522 1.387 1_554 S
C521 H524 0.950 . S
C522 C521 1.387 1_556 S
C522 C525 1.387 . S
H523 C519 0.950 . S
H524 C521 0.950 . S
C525 C516 1.390 . S
C525 H518 0.950 . S
C525 C522 1.387 . S
C526 C527 1.387 1_556 S
C526 H530 0.950 . S
C526 C535 1.390 . S
C527 C526 1.387 1_554 S
C527 C529 1.387 . S
H528 C535 0.950 . S
C529 C527 1.387 . S
C529 C531 1.390 1_554 S
C529 H533 0.950 . S
H530 C526 0.950 . S
C531 C529 1.390 1_556 S
C531 C532 1.387 . S
C531 H534 0.950 . S
C532 C531 1.387 . S
C532 C535 1.387 . S
H533 C529 0.950 . S
H534 C531 0.950 . S
C535 C526 1.390 . S
C535 H528 0.950 . S
C535 C532 1.387 . S
C536 C537 1.387 . S
C536 H540 0.950 . S
C536 C545 1.390 . S
C537 C536 1.387 . S
C537 C539 1.387 . S
H538 C545 0.950 . S
C539 C537 1.387 . S
C539 C541 1.390 . S
C539 H543 0.950 . S
H540 C536 0.950 . S
C541 C539 1.390 . S
C541 C542 1.387 . S
C541 H544 0.950 . S
C542 C541 1.387 . S
C542 C545 1.387 . S
H543 C539 0.950 . S
H544 C541 0.950 . S
C545 C536 1.390 . S
C545 H538 0.950 . S
C545 C542 1.387 . S
C546 C547 1.361 1_565 S
C546 H550 0.950 . S
C546 C555 1.390 . S
C547 C546 1.361 1_545 S
C547 C549 1.418 . S
H548 C555 0.950 . S
C549 C547 1.418 . S
C549 C551 1.390 . S
C549 H553 0.950 . S
H550 C546 0.950 . S
C551 C549 1.390 . S
C551 C552 1.387 . S
C551 H554 0.950 . S
C552 C551 1.387 . S
C552 C555 1.387 1_545 S
H553 C549 0.950 . S
H554 C551 0.950 . S
C555 C546 1.390 . S
C555 H548 0.950 . S
C555 C552 1.387 1_565 S
C556 C557 1.387 . S
C556 H560 0.950 . S
C556 C565 1.390 . S
C557 C556 1.387 . S
C557 C559 1.387 . S
H558 C565 0.950 . S
C559 C557 1.387 . S
C559 C561 1.390 . S
C559 H563 0.950 . S
H560 C556 0.950 . S
C561 C559 1.390 . S
C561 C562 1.387 . S
C561 H564 0.950 . S
C562 C561 1.387 . S
C562 C565 1.387 . S
H563 C559 0.950 . S
H564 C561 0.950 . S
C565 C556 1.390 . S
C565 H558 0.950 . S
C565 C562 1.387 . S
C566 C567 1.387 . S
C566 H570 0.950 . S
C566 C575 1.390 . S
C567 C566 1.387 . S
C567 C569 1.387 . S
H568 C575 0.950 . S
C569 C567 1.387 . S
C569 C571 1.390 . S
C569 H573 0.950 . S
H570 C566 0.950 . S
C571 C569 1.390 . S
C571 C572 1.387 . S
C571 H574 0.950 . S
C572 C571 1.387 . S
C572 C575 1.387 . S
H573 C569 0.950 . S
H574 C571 0.950 . S
C575 C566 1.390 . S
C575 H568 0.950 . S
C575 C572 1.387 . S
C337 C215 1.549 . S
C342 C257 1.572 1_545 S
C352 C292 2.093 . S
C347 C247 2.025 . S
C362 C297 1.423 . S
C357 C151 1.363 . S
C372 C317 1.896 . S
C367 C183 1.863 . S
C382 C265 1.573 . S
C377 C87 1.517 1_556 S
C387 C119 1.758 1_556 S
C392 C282 2.093 . S
C397 C23 1.446 . S
C402 C305 1.424 . S
C407 C55 1.611 . S
C412 C325 1.896 . S
C422 C275 1.745 . S
C417 C189 1.660 . S
C432 C284 0.995 1_545 S
C427 C221 0.981 . S
C442 C315 1.830 . S
C437 C253 1.754 . S
C447 C157 1.038 . S
C452 C335 1.125 . S
C457 C61 1.351 . S
C462 C264 1.745 . S
C472 C295 0.995 . S
C467 C93 0.967 . S
C482 C304 1.829 . S
C477 C125 1.404 . S
C487 C29 1.111 . S
C492 C324 1.126 . S
C497 C177 1.913 . S
C502 C262 1.982 . S
C507 C209 1.707 1_556 S
C512 C285 1.862 . S
C522 C302 2.137 . S
C517 C241 2.022 . S
C532 C322 1.926 . S
C527 C145 1.738 . S
C537 C49 1.738 . S
C542 C272 1.983 . S
C552 C277 1.861 . S
C547 C81 1.694 . S
C562 C312 2.137 . S
C557 C113 1.820 . S
C567 C17 1.825 . S
C572 C332 1.928 . S
