# Generated by pormake.
# Topology zzz, (3,6)-cn, num edge types: 1
# Building blocks:
#     Node 0, Type 0, BuildingBlock: BETDIP_clean_linker_0, # of connection points: 3
#     Node 1, Type 0, BuildingBlock: BETDIP_clean_linker_0, # of connection points: 3
#     Node 2, Type 0, BuildingBlock: BETDIP_clean_linker_0, # of connection points: 3
#     Node 3, Type 0, BuildingBlock: BETDIP_clean_linker_0, # of connection points: 3
#     Node 4, Type 0, BuildingBlock: BETDIP_clean_linker_0, # of connection points: 3
#     Node 5, Type 0, BuildingBlock: BETDIP_clean_linker_0, # of connection points: 3
#     Node 6, Type 0, BuildingBlock: BETDIP_clean_linker_0, # of connection points: 3
#     Node 7, Type 0, BuildingBlock: BETDIP_clean_linker_0, # of connection points: 3
#     Node 8, Type 1, BuildingBlock: VOLQOD_clean_sbu_1, # of connection points: 6
#     Node 9, Type 1, BuildingBlock: VOLQOD_clean_sbu_1, # of connection points: 6
#     Node 10, Type 1, BuildingBlock: VOLQOD_clean_sbu_1, # of connection points: 6
#     Node 11, Type 1, BuildingBlock: VOLQOD_clean_sbu_1, # of connection points: 6
#     Edge 12, Type (0, 1), BuildingBlock: MIFKUJ_clean_linker_0, # of connection points: 2
#     Edge 13, Type (0, 1), BuildingBlock: MIFKUJ_clean_linker_0, # of connection points: 2
#     Edge 14, Type (0, 1), BuildingBlock: MIFKUJ_clean_linker_0, # of connection points: 2
#     Edge 15, Type (0, 1), BuildingBlock: MIFKUJ_clean_linker_0, # of connection points: 2
#     Edge 16, Type (0, 1), BuildingBlock: MIFKUJ_clean_linker_0, # of connection points: 2
#     Edge 17, Type (0, 1), BuildingBlock: MIFKUJ_clean_linker_0, # of connection points: 2
#     Edge 18, Type (0, 1), BuildingBlock: MIFKUJ_clean_linker_0, # of connection points: 2
#     Edge 19, Type (0, 1), BuildingBlock: MIFKUJ_clean_linker_0, # of connection points: 2
#     Edge 20, Type (0, 1), BuildingBlock: MIFKUJ_clean_linker_0, # of connection points: 2
#     Edge 21, Type (0, 1), BuildingBlock: MIFKUJ_clean_linker_0, # of connection points: 2
#     Edge 22, Type (0, 1), BuildingBlock: MIFKUJ_clean_linker_0, # of connection points: 2
#     Edge 23, Type (0, 1), BuildingBlock: MIFKUJ_clean_linker_0, # of connection points: 2
#     Edge 24, Type (0, 1), BuildingBlock: MIFKUJ_clean_linker_0, # of connection points: 2
#     Edge 25, Type (0, 1), BuildingBlock: MIFKUJ_clean_linker_0, # of connection points: 2
#     Edge 26, Type (0, 1), BuildingBlock: MIFKUJ_clean_linker_0, # of connection points: 2
#     Edge 27, Type (0, 1), BuildingBlock: MIFKUJ_clean_linker_0, # of connection points: 2
#     Edge 28, Type (0, 1), BuildingBlock: MIFKUJ_clean_linker_0, # of connection points: 2
#     Edge 29, Type (0, 1), BuildingBlock: MIFKUJ_clean_linker_0, # of connection points: 2
#     Edge 30, Type (0, 1), BuildingBlock: MIFKUJ_clean_linker_0, # of connection points: 2
#     Edge 31, Type (0, 1), BuildingBlock: MIFKUJ_clean_linker_0, # of connection points: 2
#     Edge 32, Type (0, 1), BuildingBlock: MIFKUJ_clean_linker_0, # of connection points: 2
#     Edge 33, Type (0, 1), BuildingBlock: MIFKUJ_clean_linker_0, # of connection points: 2
#     Edge 34, Type (0, 1), BuildingBlock: MIFKUJ_clean_linker_0, # of connection points: 2
#     Edge 35, Type (0, 1), BuildingBlock: MIFKUJ_clean_linker_0, # of connection points: 2
# Relax obj value: 0.204
# Max RMSD: 0.239
# Mean RMSD: 0.111
data_MOF--net-zzz--node1-VOLQOD_clean_sbu_1--node2-BETDIP_clean_linker_0--edge1-MIFKUJ_clean_linker_0
_symmetry_space_group_name_H-M    P1
_symmetry_Int_Tables_number       1
_symmetry_cell_setting            triclinic
loop_
_symmetry_equiv_pos_as_xyz
'x, y, z'
_cell_length_a     66.198645
_cell_length_b     65.827787
_cell_length_c     22.202594
_cell_angle_alpha  90.198315
_cell_angle_beta   89.864506
_cell_angle_gamma 90.768831
loop_
_atom_site_label
_atom_site_type_symbol
_atom_site_fract_x
_atom_site_fract_y
_atom_site_fract_z
_atom_type_partial_charge
H0 H 0.76562 0.54139 0.23236 0.0
H1 H 0.7594 0.51359 0.057 0.0
H2 H 0.81755 0.51705 0.14168 0.0
H3 H 0.73844 0.5526 0.07002 0.0
C4 C 0.72968 0.54179 0.09668 0.0
C5 C 0.77228 0.53374 0.19401 0.0
C6 C 0.7932 0.53042 0.19201 0.0
C7 C 0.76011 0.52803 0.14471 0.0
C8 C 0.76878 0.51824 0.0947 0.0
C9 C 0.78937 0.51383 0.09449 0.0
C10 C 0.80147 0.52014 0.1427 0.0
N11 N 0.73911 0.53188 0.1456 0.0
H12 H 0.01349 0.75201 0.28349 0.0
H13 H 0.03023 0.75377 0.09622 0.0
H14 H 0.03989 0.80636 0.20746 0.0
H15 H 0.98922 0.73729 0.12198 0.0
C16 C 0.99958 0.72563 0.13666 0.0
C17 C 0.02022 0.7601 0.2459 0.0
C18 C 0.02683 0.78038 0.2529 0.0
C19 C 0.0214 0.75055 0.1894 0.0
C20 C 0.02956 0.7611 0.13996 0.0
C21 C 0.03689 0.78101 0.14698 0.0
C22 C 0.03548 0.79049 0.20337 0.0
N23 N 0.01401 0.73042 0.18189 0.0
H24 H 0.7349 0.99016 0.20999 0.0
H25 H 0.72828 0.03697 0.0762 0.0
H26 H 0.68026 0.02436 0.20126 0.0
H27 H 0.74619 0.01383 0.02175 0.0
C28 C 0.75788 0.00971 0.05357 0.0
C29 C 0.72625 0.0023 0.19022 0.0
C30 C 0.70691 0.00658 0.21227 0.0
C31 C 0.73393 0.01288 0.14015 0.0
C32 C 0.72238 0.0284 0.11402 0.0
C33 C 0.70302 0.03279 0.13609 0.0
C34 C 0.69553 0.02183 0.18542 0.0
N35 N 0.7529 0.00721 0.11549 0.0
H36 H 0.53227 0.7431 0.25131 0.0
H37 H 0.50359 0.7299 0.08072 0.0
H38 H 0.51569 0.68176 0.2041 0.0
H39 H 0.52539 0.75509 0.05118 0.0
C40 C 0.52345 0.76631 0.08667 0.0
C41 C 0.52562 0.73234 0.21981 0.0
C42 C 0.52469 0.7116 0.23413 0.0
C43 C 0.51874 0.73903 0.16345 0.0
C44 C 0.50967 0.72495 0.12335 0.0
C45 C 0.50873 0.70425 0.13773 0.0
C46 C 0.51643 0.69776 0.19279 0.0
N47 N 0.52141 0.75982 0.14746 0.0
H48 H 0.23672 0.49996 0.13769 0.0
H49 H 0.23501 0.54065 0.28993 0.0
H50 H 0.18341 0.53456 0.17406 0.0
H51 H 0.27067 0.54546 0.23931 0.0
C52 C 0.27302 0.52947 0.24889 0.0
C53 C 0.2288 0.51113 0.16449 0.0
C54 C 0.20911 0.51677 0.14879 0.0
C55 C 0.2385 0.52035 0.21393 0.0
C56 C 0.22796 0.53433 0.24992 0.0
C57 C 0.20806 0.5395 0.23573 0.0
C58 C 0.19899 0.53103 0.18437 0.0
N59 N 0.25855 0.51487 0.22868 0.0
H60 H 0.05668 0.23708 0.12435 0.0
H61 H 0.02489 0.23596 0.29425 0.0
H62 H 0.04478 0.18036 0.2145 0.0
H63 H 0.00679 0.26138 0.22652 0.0
C64 C 0.02086 0.27011 0.22636 0.0
C65 C 0.05084 0.22874 0.16275 0.0
C66 C 0.05241 0.20747 0.16473 0.0
C67 C 0.04088 0.23912 0.20939 0.0
C68 C 0.03269 0.22814 0.2582 0.0
C69 C 0.03419 0.20701 0.25991 0.0
C70 C 0.0442 0.19682 0.21368 0.0
N71 N 0.03882 0.26053 0.20661 0.0
H72 H 0.26186 0.02286 0.1471 0.0
H73 H 0.27265 0.98787 0.30731 0.0
H74 H 0.32253 0.01317 0.20782 0.0
H75 H 0.24297 0.9729 0.27566 0.0
C76 C 0.23452 0.98678 0.26954 0.0
C77 C 0.27222 0.01656 0.17957 0.0
C78 C 0.29316 0.01937 0.17208 0.0
C79 C 0.26468 0.00529 0.22855 0.0
C80 C 0.27829 0.99665 0.26963 0.0
C81 C 0.29923 0.99911 0.26201 0.0
C82 C 0.3064 0.01095 0.21397 0.0
N83 N 0.24342 0.00312 0.23665 0.0
H84 H 0.48559 0.2525 0.1006 0.0
H85 H 0.50417 0.26747 0.28161 0.0
H86 H 0.49624 0.31476 0.1514 0.0
H87 H 0.52507 0.23683 0.2491 0.0
C88 C 0.51103 0.22829 0.2433 0.0
C89 C 0.48965 0.26374 0.13439 0.0
C90 C 0.49043 0.28443 0.11933 0.0
C91 C 0.49526 0.25751 0.19247 0.0
C92 C 0.50051 0.27219 0.23628 0.0
C93 C 0.50041 0.29294 0.22217 0.0
C94 C 0.49569 0.29879 0.16338 0.0
N95 N 0.4956 0.2365 0.20664 0.0
O96 O 0.05369 0.99641 0.68159 0.0
Zn97 Zn 0.03118 0.99523 0.74374 0.0
O98 O 0.00444 0.99562 0.70416 0.0
Zn99 Zn 0.98933 0.01906 0.73046 0.0
Zn100 Zn 0.00789 0.99676 0.61686 0.0
Zn101 Zn 0.98856 0.97147 0.7246 0.0
O102 O 0.96323 0.01145 0.77141 0.0
O103 O 0.96219 0.97782 0.76635 0.0
O104 O 0.0351 0.02003 0.79806 0.0
O105 O 0.00588 0.03577 0.78716 0.0
O106 O 0.98315 0.03734 0.66139 0.0
O107 O 0.99409 0.02088 0.58062 0.0
O108 O 0.99887 0.97049 0.5778 0.0
O109 O 0.03454 0.96917 0.79145 0.0
O110 O 0.98342 0.9539 0.65198 0.0
O111 O 0.00472 0.9539 0.77843 0.0
C112 C 0.05358 0.99918 0.62481 0.0
C113 C 0.95436 0.99458 0.78225 0.0
C114 C 0.98563 0.03618 0.60467 0.0
C115 C 0.02349 0.03486 0.80972 0.0
C116 C 0.98923 0.95499 0.59739 0.0
C117 C 0.02246 0.9542 0.80032 0.0
O118 O 0.03714 0.00022 0.59556 0.0
O119 O 0.49732 0.05057 0.66477 0.0
Zn120 Zn 0.49888 0.03134 0.73573 0.0
O121 O 0.504 0.00347 0.70608 0.0
Zn122 Zn 0.48289 0.9852 0.73496 0.0
Zn123 Zn 0.50434 0.00257 0.61791 0.0
Zn124 Zn 0.52977 0.99391 0.73601 0.0
O125 O 0.49343 0.96386 0.79057 0.0
O126 O 0.52645 0.97004 0.79255 0.0
O127 O 0.47206 0.03297 0.78092 0.0
O128 O 0.46145 0.00083 0.77698 0.0
O129 O 0.46827 0.9715 0.66754 0.0
O130 O 0.48114 0.98565 0.58528 0.0
O131 O 0.53045 0.99122 0.58603 0.0
O132 O 0.52199 0.04162 0.78894 0.0
O133 O 0.54846 0.98597 0.66856 0.0
O134 O 0.54372 0.01628 0.78042 0.0
C135 C 0.49897 0.04826 0.6079 0.0
C136 C 0.51104 0.95972 0.80941 0.0
C137 C 0.46845 0.97373 0.61073 0.0
C138 C 0.45877 0.01926 0.79187 0.0
C139 C 0.54667 0.98563 0.6115 0.0
C140 C 0.5392 0.03391 0.79936 0.0
O141 O 0.50186 0.03082 0.58455 0.0
O142 O 0.44828 0.49649 0.66438 0.0
Zn143 Zn 0.46878 0.49477 0.73181 0.0
O144 O 0.49643 0.4996 0.7003 0.0
Zn145 Zn 0.51392 0.47676 0.71924 0.0
Zn146 Zn 0.49576 0.5038 0.61321 0.0
Zn147 Zn 0.50818 0.52368 0.73682 0.0
O148 O 0.53774 0.48468 0.77247 0.0
O149 O 0.53436 0.51809 0.77786 0.0
O150 O 0.46632 0.4664 0.76746 0.0
O151 O 0.49763 0.45467 0.75892 0.0
O152 O 0.52426 0.46376 0.64355 0.0
O153 O 0.50952 0.48084 0.57003 0.0
O154 O 0.50848 0.53069 0.58885 0.0
O155 O 0.46129 0.51595 0.79543 0.0
O156 O 0.51296 0.54605 0.67707 0.0
O157 O 0.48977 0.53426 0.7993 0.0
C158 C 0.44985 0.5007 0.60855 0.0
C159 C 0.54402 0.50207 0.7903 0.0
C160 C 0.52056 0.46636 0.5879 0.0
C161 C 0.47923 0.45242 0.77449 0.0
C162 C 0.51339 0.54632 0.61981 0.0
C163 C 0.47196 0.53038 0.81766 0.0
O164 O 0.46698 0.50417 0.5841 0.0
O165 O 0.97554 0.52997 0.59107 0.0
Zn166 Zn 0.00103 0.52716 0.64197 0.0
O167 O 0.0036 0.49926 0.67329 0.0
Zn168 Zn 0.00241 0.49949 0.76156 0.0
Zn169 Zn 0.9818 0.48216 0.64223 0.0
Zn170 Zn 0.02893 0.48744 0.64685 0.0
O171 O 0.02787 0.48795 0.79802 0.0
O172 O 0.04661 0.48108 0.71753 0.0
O173 O 1.00011 0.54749 0.71034 0.0
O174 O 0.0006 0.52819 0.79225 0.0
O175 O 0.97719 0.48515 0.79207 0.0
O176 O 0.96285 0.47377 0.70806 0.0
O177 O 0.99159 0.45744 0.59775 0.0
O178 O 0.02537 0.53485 0.59093 0.0
O179 O 0.02484 0.46173 0.59878 0.0
O180 O 0.04404 0.50704 0.59423 0.0
C181 C 0.96314 0.5165 0.57143 0.0
C182 C 0.04429 0.48178 0.77445 0.0
C183 C 0.96267 0.47611 0.76494 0.0
C184 C 0.99995 0.54557 0.76743 0.0
C185 C 0.0092 0.45159 0.58317 0.0
C186 C 0.04114 0.5251 0.57614 0.0
O187 O 0.96477 0.49793 0.58594 0.0
H188 H 0.20567 0.01625 0.25707 0.0
H189 H 0.17457 0.01976 0.31611 0.0
H190 H 0.18987 0.96649 0.41848 0.0
H191 H 0.22034 0.96245 0.35766 0.0
H192 H 0.1524 0.96464 0.39696 0.0
H193 H 0.19621 0.01743 0.47227 0.0
H194 H 0.21854 0.04766 0.46673 0.0
H195 H 0.16978 0.08266 0.39603 0.0
H196 H 0.14722 0.05255 0.40041 0.0
H197 H 0.08959 0.98185 0.65319 0.0
H198 H 0.12043 0.98151 0.59165 0.0
H199 H 0.09193 0.01951 0.4598 0.0
H200 H 0.06089 0.01949 0.52017 0.0
H201 H 0.13499 0.02995 0.49526 0.0
H202 H 0.09149 0.97516 0.42346 0.0
H203 H 0.07008 0.94457 0.43735 0.0
H204 H 0.12043 0.91285 0.51182 0.0
H205 H 0.14206 0.94339 0.49926 0.0
C206 C 0.2023 0.00528 0.29202 0.0
C207 C 0.21538 0.9891 0.30305 0.0
C208 C 0.1846 0.00736 0.32606 0.0
C209 C 0.17998 0.99359 0.37263 0.0
C210 C 0.19302 0.97731 0.38292 0.0
C211 C 0.21045 0.97503 0.34825 0.0
C212 C 0.16157 0.99591 0.41058 0.0
C213 C 0.14881 0.9789 0.41888 0.0
C214 C 0.15657 0.01456 0.43876 0.0
C215 C 0.17009 0.03268 0.43604 0.0
C216 C 0.19029 0.03153 0.4551 0.0
C217 C 0.20298 0.04865 0.45224 0.0
C218 C 0.1956 0.06706 0.43087 0.0
C219 C 0.17549 0.06839 0.41246 0.0
C220 C 0.16274 0.05131 0.41516 0.0
C221 C 0.08999 0.99031 0.61145 0.0
C222 C 0.07283 0.00056 0.5912 0.0
C223 C 0.10756 0.99008 0.57637 0.0
C224 C 0.10834 0.00041 0.52121 0.0
C225 C 0.09156 0.01144 0.50226 0.0
C226 C 0.07386 0.01133 0.53662 0.0
C227 C 0.12623 0.9987 0.48163 0.0
C228 C 0.13876 0.01578 0.47307 0.0
C229 C 0.13125 0.98006 0.45409 0.0
C230 C 0.11833 0.96162 0.46102 0.0
C231 C 0.09795 0.96172 0.4433 0.0
C232 C 0.08578 0.94439 0.45084 0.0
C233 C 0.09388 0.9268 0.47561 0.0
C234 C 0.11417 0.9265 0.49272 0.0
C235 C 0.12639 0.94381 0.48537 0.0
H236 H 0.08444 0.91339 0.48141 0.0
H237 H 0.20544 0.08029 0.42871 0.0
H238 H 0.54035 0.20695 0.2969 0.0
H239 H 0.537 0.17539 0.35387 0.0
H240 H 0.47279 0.17434 0.32017 0.0
H241 H 0.47629 0.20556 0.26098 0.0
H242 H 0.51898 0.16786 0.45268 0.0
H243 H 0.45446 0.12573 0.32554 0.0
H244 H 0.44106 0.12238 0.2223 0.0
H245 H 0.49942 0.13788 0.14974 0.0
H246 H 0.51322 0.14107 0.25248 0.0
H247 H 0.4861 0.08655 0.63608 0.0
H248 H 0.48599 0.11641 0.57093 0.0
H249 H 0.51033 0.08072 0.42511 0.0
H250 H 0.50983 0.0507 0.48923 0.0
H251 H 0.48379 0.10528 0.38166 0.0
H252 H 0.54056 0.11261 0.51391 0.0
H253 H 0.55812 0.11424 0.61168 0.0
H254 H 0.52274 0.16565 0.66355 0.0
H255 H 0.50477 0.16416 0.56632 0.0
C256 C 0.52557 0.1998 0.30104 0.0
C257 C 0.50862 0.20858 0.27434 0.0
C258 C 0.52364 0.18184 0.33385 0.0
C259 C 0.50466 0.17237 0.34126 0.0
C260 C 0.48766 0.18111 0.31427 0.0
C261 C 0.48965 0.19899 0.28059 0.0
C262 C 0.50275 0.15382 0.37911 0.0
C263 C 0.51125 0.15421 0.43703 0.0
C264 C 0.4929 0.13585 0.35871 0.0
C265 C 0.48479 0.13387 0.29672 0.0
C266 C 0.46443 0.12837 0.28753 0.0
C267 C 0.45677 0.12651 0.22911 0.0
C268 C 0.46936 0.12999 0.1795 0.0
C269 C 0.48966 0.13528 0.18821 0.0
C270 C 0.4974 0.13715 0.24653 0.0
C271 C 0.49133 0.08503 0.59006 0.0
C272 C 0.49811 0.06625 0.56805 0.0
C273 C 0.49132 0.10214 0.55287 0.0
C274 C 0.49846 0.10092 0.49332 0.0
C275 C 0.50474 0.08207 0.47083 0.0
C276 C 0.50452 0.06491 0.5077 0.0
C277 C 0.50006 0.11937 0.455 0.0
C278 C 0.49144 0.11899 0.39724 0.0
C279 C 0.51037 0.13716 0.4747 0.0
C280 C 0.52118 0.13814 0.53312 0.0
C281 C 0.53643 0.12417 0.54635 0.0
C282 C 0.54647 0.12508 0.60163 0.0
C283 C 0.54151 0.14 0.64387 0.0
C284 C 0.52654 0.15408 0.63083 0.0
C285 C 0.51643 0.15322 0.57563 0.0
H286 H 0.5493 0.14068 0.68664 0.0
H287 H 0.4634 0.12854 0.13432 0.0
H288 H 0.28001 0.49425 0.31097 0.0
H289 H 0.31007 0.48625 0.37076 0.0
H290 H 0.33767 0.54321 0.31833 0.0
H291 H 0.30746 0.55156 0.26019 0.0
H292 H 0.36301 0.50457 0.31146 0.0
H293 H 0.31953 0.54506 0.44254 0.0
H294 H 0.28716 0.55183 0.49356 0.0
H295 H 0.28968 0.49395 0.58161 0.0
H296 H 0.32193 0.48671 0.5303 0.0
H297 H 0.4446 0.52246 0.5058 0.0
H298 H 0.41437 0.52433 0.44369 0.0
H299 H 0.38355 0.48227 0.56238 0.0
H300 H 0.41353 0.48129 0.62668 0.0
H301 H 0.35864 0.50917 0.53425 0.0
H302 H 0.40244 0.46873 0.41606 0.0
H303 H 0.43385 0.45896 0.36424 0.0
H304 H 0.43004 0.5114 0.25055 0.0
H305 H 0.39876 0.52165 0.30226 0.0
C306 C 0.29259 0.50494 0.31175 0.0
C307 C 0.29152 0.52351 0.28096 0.0
C308 C 0.30968 0.50038 0.34594 0.0
C309 C 0.32602 0.51415 0.34875 0.0
C310 C 0.32521 0.53238 0.31644 0.0
C311 C 0.30799 0.53714 0.28345 0.0
C312 C 0.34366 0.5101 0.38746 0.0
C313 C 0.36219 0.50568 0.36017 0.0
C314 C 0.34227 0.51082 0.45092 0.0
C315 C 0.32299 0.51525 0.48202 0.0
C316 C 0.31307 0.5337 0.4723 0.0
C317 C 0.29477 0.53764 0.50137 0.0
C318 C 0.28633 0.5233 0.54064 0.0
C319 C 0.29621 0.50502 0.55107 0.0
C320 C 0.3145 0.501 0.52204 0.0
C321 C 0.43139 0.51358 0.51861 0.0
C322 C 0.43146 0.50166 0.57097 0.0
C323 C 0.41413 0.51452 0.48275 0.0
C324 C 0.39674 0.50304 0.49728 0.0
C325 C 0.39675 0.49122 0.54991 0.0
C326 C 0.4139 0.49064 0.58663 0.0
C327 C 0.37842 0.50392 0.45849 0.0
C328 C 0.35964 0.50776 0.48564 0.0
C329 C 0.37953 0.50217 0.39482 0.0
C330 C 0.39832 0.49605 0.3634 0.0
C331 C 0.40837 0.47826 0.38028 0.0
C332 C 0.42615 0.47262 0.35089 0.0
C333 C 0.43396 0.48457 0.30422 0.0
C334 C 0.42398 0.50216 0.28674 0.0
C335 C 0.40621 0.50788 0.31604 0.0
H336 H 0.44772 0.48018 0.28152 0.0
H337 H 0.27217 0.52638 0.56312 0.0
H338 H 0.98877 0.29034 0.26934 0.0
H339 H 0.9886 0.32267 0.32373 0.0
H340 H 0.05322 0.32814 0.30167 0.0
H341 H 0.05348 0.29558 0.24758 0.0
H342 H 0.04186 0.33528 0.4167 0.0
H343 H 0.02196 0.35866 0.22265 0.0
H344 H 0.0021 0.35888 0.12886 0.0
H345 H 0.94793 0.36935 0.23041 0.0
H346 H 0.96742 0.36892 0.32494 0.0
H347 H 0.04409 0.43595 0.5367 0.0
H348 H 0.04764 0.40628 0.47139 0.0
H349 H 0.98325 0.3956 0.47926 0.0
H350 H 0.97949 0.42545 0.54375 0.0
H351 H 0.99687 0.39241 0.36615 0.0
H352 H 0.01624 0.36658 0.56 0.0
H353 H 0.03584 0.366 0.65429 0.0
H354 H 0.0908 0.35989 0.55312 0.0
H355 H 0.07154 0.36071 0.45814 0.0
C356 C 0.0029 0.29858 0.27544 0.0
C357 C 0.0211 0.29052 0.25419 0.0
C358 C 0.00279 0.31707 0.30634 0.0
C359 C 0.02087 0.32792 0.31626 0.0
C360 C 0.03909 0.32003 0.29433 0.0
C361 C 0.03921 0.30148 0.26327 0.0
C362 C 0.02073 0.34696 0.35225 0.0
C363 C 0.03232 0.34795 0.40504 0.0
C364 C 0.00793 0.36327 0.33774 0.0
C365 C 0.99615 0.3636 0.28094 0.0
C366 C 0.00579 0.36086 0.22504 0.0
C367 C 0.99461 0.36105 0.17173 0.0
C368 C 0.97377 0.36409 0.17368 0.0
C369 C 0.96408 0.36699 0.22897 0.0
C370 C 0.97519 0.3668 0.28242 0.0
C371 C 0.03067 0.42725 0.52484 0.0
C372 C 0.0115 0.43309 0.54564 0.0
C373 C 0.03275 0.41025 0.48757 0.0
C374 C 0.01573 0.39862 0.47082 0.0
C375 C 0.99659 0.40437 0.49157 0.0
C376 C 0.99448 0.42141 0.52866 0.0
C377 C 0.01778 0.38061 0.43101 0.0
C378 C 0.00654 0.37981 0.3775 0.0
C379 C 0.03088 0.36447 0.44491 0.0
C380 C 0.04247 0.36393 0.50197 0.0
C381 C 0.03252 0.36528 0.55785 0.0
C382 C 0.04357 0.36488 0.61142 0.0
C383 C 0.06456 0.36297 0.60969 0.0
C384 C 0.07454 0.3614 0.55439 0.0
C385 C 0.06357 0.36182 0.50068 0.0
H386 H 0.07308 0.36266 0.65122 0.0
H387 H 0.96513 0.36423 0.13236 0.0
H388 H 0.79164 0.99729 0.11534 0.0
H389 H 0.82557 0.99214 0.07385 0.0
H390 H 0.80428 0.00913 0.89772 0.0
H391 H 0.77038 0.01389 0.93871 0.0
H392 H 0.82811 0.97751 0.88844 0.0
H393 H 0.83069 0.04272 0.98804 0.0
H394 H 0.82723 0.06628 0.07396 0.0
H395 H 0.87121 0.03272 0.1731 0.0
H396 H 0.87474 0.0088 0.08798 0.0
H397 H 0.9317 0.02742 0.81316 0.0
H398 H 0.899 0.0276 0.8638 0.0
H399 H 0.8997 0.96221 0.87561 0.0
H400 H 0.93232 0.96183 0.82361 0.0
H401 H 0.88666 0.01615 0.97133 0.0
H402 H 0.85118 0.94407 0.86504 0.0
H403 H 0.85382 0.92351 0.77223 0.0
H404 H 0.87426 0.97609 0.67441 0.0
H405 H 0.8715 0.99699 0.76641 0.0
C406 C 0.79421 0.99984 0.06777 0.0
C407 C 0.77843 0.00606 0.03013 0.0
C408 C 0.8136 0.99694 0.04414 0.0
C409 C 0.81751 0.00041 0.98272 0.0
C410 C 0.80163 0.0063 0.94515 0.0
C411 C 0.7823 0.00911 0.96864 0.0
C412 C 0.83817 0.99843 0.95733 0.0
C413 C 0.84094 0.98585 0.90686 0.0
C414 C 0.85488 0.00948 0.98082 0.0
C415 C 0.8528 0.02385 0.03195 0.0
C416 C 0.8395 0.04028 0.02835 0.0
C417 C 0.83755 0.05371 0.07686 0.0
C418 C 0.84895 0.05096 0.12903 0.0
C419 C 0.86237 0.03481 0.13271 0.0
C420 C 0.86436 0.02132 0.08435 0.0
C421 C 0.92494 0.01304 0.82645 0.0
C422 C 0.93461 0.99459 0.81393 0.0
C423 C 0.90626 0.01319 0.8557 0.0
C424 C 0.89681 0.99493 0.87316 0.0
C425 C 0.90656 0.97648 0.86179 0.0
C426 C 0.92524 0.9763 0.83213 0.0
C427 C 0.87657 0.99535 0.90216 0.0
C428 C 0.87389 0.00759 0.95342 0.0
C429 C 0.85984 0.98436 0.87853 0.0
C430 C 0.86135 0.97201 0.82277 0.0
C431 C 0.85618 0.95124 0.82366 0.0
C432 C 0.85771 0.93953 0.77122 0.0
C433 C 0.86428 0.94848 0.71751 0.0
C434 C 0.86926 0.96916 0.71609 0.0
C435 C 0.86774 0.98094 0.76838 0.0
H436 H 0.86546 0.93938 0.67698 0.0
H437 H 0.84742 0.06138 0.16653 0.0
H438 H 0.5268 0.78134 0.97459 0.0
H439 H 0.5274 0.81684 0.94327 0.0
H440 H 0.52227 0.83585 0.12883 0.0
H441 H 0.52126 0.80011 0.1604 0.0
H442 H 0.49781 0.85733 0.06004 0.0
H443 H 0.5672 0.84141 0.05449 0.0
H444 H 0.59756 0.82158 0.03091 0.0
H445 H 0.5867 0.82896 0.84171 0.0
H446 H 0.5561 0.84858 0.86411 0.0
H447 H 0.54422 0.95023 0.87698 0.0
H448 H 0.54852 0.92064 0.94195 0.0
H449 H 0.48838 0.89966 0.89676 0.0
H450 H 0.48372 0.92944 0.83386 0.0
H451 H 0.5499 0.88281 0.91696 0.0
H452 H 0.46717 0.87202 0.00413 0.0
H453 H 0.43855 0.89347 0.03398 0.0
H454 H 0.47953 0.94263 0.07535 0.0
H455 H 0.50842 0.9214 0.04658 0.0
C456 C 0.52588 0.7931 0.00873 0.0
C457 C 0.52407 0.78801 0.06982 0.0
C458 C 0.52634 0.81338 0.99085 0.0
C459 C 0.52523 0.82903 0.03376 0.0
C460 C 0.52326 0.82401 0.09499 0.0
C461 C 0.52272 0.80361 0.11297 0.0
C462 C 0.52554 0.85054 0.0137 0.0
C463 C 0.50928 0.863 0.02918 0.0
C464 C 0.54084 0.85816 0.97488 0.0
C465 C 0.55927 0.84639 0.96103 0.0
C466 C 0.5712 0.83869 0.00784 0.0
C467 C 0.58847 0.8275 0.99468 0.0
C468 C 0.59404 0.82399 0.93485 0.0
C469 C 0.58237 0.83169 0.88804 0.0
C470 C 0.56507 0.84288 0.90095 0.0
C471 C 0.53185 0.93941 0.88142 0.0
C472 C 0.51361 0.94222 0.85034 0.0
C473 C 0.53433 0.92249 0.91855 0.0
C474 C 0.51868 0.90803 0.92507 0.0
C475 C 0.50049 0.91084 0.89393 0.0
C476 C 0.4979 0.92785 0.85753 0.0
C477 C 0.52169 0.88932 0.96113 0.0
C478 C 0.53859 0.87735 0.94865 0.0
C479 C 0.50725 0.8824 0.00391 0.0
C480 C 0.48997 0.89512 0.02282 0.0
C481 C 0.4701 0.88735 0.02002 0.0
C482 C 0.45382 0.89949 0.03664 0.0
C483 C 0.45722 0.91942 0.05639 0.0
C484 C 0.47691 0.92722 0.05986 0.0
C485 C 0.49325 0.91514 0.04334 0.0
H486 H 0.44459 0.92881 0.06907 0.0
H487 H 0.60742 0.81532 0.92476 0.0
H488 H 0.70732 0.5074 0.12184 0.0
H489 H 0.67408 0.49808 0.08031 0.0
H490 H 0.67187 0.55562 0.98853 0.0
H491 H 0.7053 0.56474 0.02836 0.0
H492 H 0.6342 0.54164 0.05271 0.0
H493 H 0.68566 0.52039 0.90852 0.0
H494 H 0.71623 0.50163 0.87983 0.0
H495 H 0.68763 0.44554 0.93298 0.0
H496 H 0.65698 0.46406 0.9629 0.0
H497 H 0.56484 0.5368 0.81822 0.0
H498 H 0.59473 0.54058 0.88083 0.0
H499 H 0.59526 0.47583 0.91002 0.0
H500 H 0.5654 0.47181 0.84556 0.0
H501 H 0.63234 0.48935 0.89106 0.0
H502 H 0.57928 0.50869 0.02156 0.0
H503 H 0.54845 0.52635 0.05367 0.0
H504 H 0.57886 0.58397 0.03391 0.0
H505 H 0.60981 0.56668 0.0008 0.0
C506 C 0.69959 0.51817 0.09357 0.0
C507 C 0.70877 0.53683 0.07829 0.0
C508 C 0.68067 0.5128 0.0698 0.0
C509 C 0.6706 0.52619 0.03143 0.0
C510 C 0.6794 0.54515 0.01827 0.0
C511 C 0.69846 0.55032 0.04089 0.0
C512 C 0.65146 0.52008 0.00177 0.0
C513 C 0.63373 0.53027 0.01722 0.0
C514 C 0.65082 0.50475 0.95704 0.0
C515 C 0.66916 0.49363 0.93869 0.0
C516 C 0.68597 0.50409 0.91466 0.0
C517 C 0.70329 0.4935 0.89806 0.0
C518 C 0.7039 0.47242 0.90478 0.0
C519 C 0.68715 0.46188 0.92794 0.0
C520 C 0.66981 0.47241 0.94472 0.0
C521 C 0.57124 0.5233 0.83789 0.0
C522 C 0.56261 0.50399 0.82714 0.0
C523 C 0.58831 0.52552 0.87409 0.0
C524 C 0.597 0.50856 0.90139 0.0
C525 C 0.58872 0.48916 0.88983 0.0
C526 C 0.57166 0.48689 0.85298 0.0
C527 C 0.61497 0.51128 0.94077 0.0
C528 C 0.63256 0.50047 0.92724 0.0
C529 C 0.61539 0.52585 0.98799 0.0
C530 C 0.59685 0.53637 0.0083 0.0
C531 C 0.57937 0.52514 0.02367 0.0
C532 C 0.56187 0.53508 0.0421 0.0
C533 C 0.56168 0.55627 0.04572 0.0
C534 C 0.57902 0.56756 0.03106 0.0
C535 C 0.59656 0.55769 0.01254 0.0
H536 H 0.54812 0.56394 0.05998 0.0
H537 H 0.71732 0.46424 0.89188 0.0
H538 H 0.02971 0.69752 0.13048 0.0
H539 H 0.03001 0.66656 0.0692 0.0
H540 H 0.9686 0.67759 0.01434 0.0
H541 H 0.96874 0.70915 0.07282 0.0
H542 H 0.01182 0.63254 0.06492 0.0
H543 H 0.95965 0.66185 0.87436 0.0
H544 H 0.95091 0.69429 0.82624 0.0
H545 H 0.00805 0.72006 0.87977 0.0
H546 H 0.01725 0.68771 0.92748 0.0
H547 H 0.98482 0.54886 0.88135 0.0
H548 H 0.98468 0.57896 0.94597 0.0
H549 H 0.01504 0.6134 0.80659 0.0
H550 H 0.01411 0.5836 0.74064 0.0
H551 H 0.98939 0.63609 0.85224 0.0
H552 H 0.0395 0.59403 0.93863 0.0
H553 H 0.05407 0.56308 0.98209 0.0
H554 H 0.01136 0.56518 0.12777 0.0
H555 H 0.99633 0.59597 0.08468 0.0
C556 C 0.01624 0.69322 0.10568 0.0
C557 C 0.99921 0.70571 0.10597 0.0
C558 C 0.01641 0.67552 0.07068 0.0
C559 C 0.99947 0.66989 0.03603 0.0
C560 C 0.98207 0.68186 0.03916 0.0
C561 C 0.98208 0.69979 0.07296 0.0
C562 C 1.0002 0.65188 0.99539 0.0
C563 C 0.00692 0.63332 0.01841 0.0
C564 C 0.99435 0.65294 0.93413 0.0
C565 C 0.98903 0.67241 0.90502 0.0
C566 C 0.97038 0.67442 0.87566 0.0
C567 C 0.96534 0.69279 0.84849 0.0
C568 C 0.97889 0.70925 0.85013 0.0
C569 C 0.99754 0.70733 0.87873 0.0
C570 C 0.00266 0.68899 0.90589 0.0
C571 C 0.99141 0.56289 0.86451 0.0
C572 C 0.99952 0.56389 0.80603 0.0
C573 C 0.99147 0.58006 0.90166 0.0
C574 C 1.00024 0.59843 0.88184 0.0
C575 C 0.00818 0.59946 0.82311 0.0
C576 C 0.00767 0.58241 0.7854 0.0
C577 C 0.00088 0.61665 0.92179 0.0
C578 C 0.99434 0.63526 0.8987 0.0
C579 C 0.00774 0.61581 0.98219 0.0
C580 C 0.01666 0.5972 0.00807 0.0
C581 C 0.0331 0.58779 0.97966 0.0
C582 C 0.04146 0.57029 0.00427 0.0
C583 C 0.03361 0.56214 0.05758 0.0
C584 C 0.0174 0.57149 0.08643 0.0
C585 C 0.00896 0.58898 0.06194 0.0
H586 H 0.04012 0.54861 0.07661 0.0
H587 H 0.97495 0.72346 0.82912 0.0
H588 H 0.99965 0.18537 0.24807 0.0
H589 H 0.9861 0.15989 0.31784 0.0
H590 H 0.03281 0.1756 0.44583 0.0
H591 H 0.04651 0.201 0.37517 0.0
H592 H 0.03247 0.13639 0.42395 0.0
H593 H 0.98273 0.18449 0.47728 0.0
H594 H 0.95646 0.21007 0.46087 0.0
H595 H 0.91921 0.16535 0.37192 0.0
H596 H 0.94538 0.13956 0.387 0.0
H597 H 0.97053 0.07264 0.64198 0.0
H598 H 0.97332 0.10488 0.58857 0.0
H599 H 0.99524 0.07361 0.431 0.0
H600 H 0.9928 0.04128 0.48412 0.0
H601 H 0.96107 0.12317 0.48229 0.0
H602 H 0.03802 0.09773 0.38707 0.0
H603 H 0.06448 0.07293 0.41064 0.0
H604 H 0.0483 0.07532 0.59791 0.0
H605 H 0.02197 0.10034 0.57558 0.0
C606 C 0.00662 0.18368 0.29185 0.0
C607 C 0.02398 0.195 0.30683 0.0
C608 C 0.99887 0.16922 0.33171 0.0
C609 C 0.0084 0.1659 0.38714 0.0
C610 C 0.02522 0.17797 0.40331 0.0
C611 C 0.03296 0.1925 0.36333 0.0
C612 C 0.00225 0.14823 0.42435 0.0
C613 C 0.01688 0.13364 0.43711 0.0
C614 C 0.98194 0.14467 0.44199 0.0
C615 C 0.96609 0.16011 0.43296 0.0
C616 C 0.969 0.18014 0.45382 0.0
C617 C 0.95412 0.19467 0.44483 0.0
C618 C 0.93619 0.18935 0.41529 0.0
C619 C 0.9331 0.16946 0.39479 0.0
C620 C 0.94795 0.15486 0.40363 0.0
C621 C 0.97543 0.07249 0.59541 0.0
C622 C 0.98191 0.05441 0.56777 0.0
C623 C 0.97695 0.09097 0.56494 0.0
C624 C 0.98494 0.09162 0.5065 0.0
C625 C 0.98936 0.07339 0.47658 0.0
C626 C 0.9879 0.05492 0.507 0.0
C627 C 0.99119 0.11129 0.47994 0.0
C628 C 0.97664 0.12613 0.46935 0.0
C629 C 0.01166 0.11534 0.46535 0.0
C630 C 0.0279 0.10076 0.47951 0.0
C631 C 0.04019 0.09305 0.43331 0.0
C632 C 0.05515 0.07893 0.44645 0.0
C633 C 0.05802 0.0725 0.50569 0.0
C634 C 0.04602 0.08026 0.552 0.0
C635 C 0.03107 0.09439 0.53912 0.0
H636 H 0.06957 0.06153 0.51573 0.0
H637 H 0.92469 0.20062 0.40836 0.0
H638 H 0.3351 0.9817 0.23132 0.0
H639 H 0.3607 0.96857 0.29776 0.0
H640 H 0.32149 0.97805 0.45073 0.0
H641 H 0.29641 0.99321 0.38465 0.0
H642 H 0.3555 0.99111 0.47934 0.0
H643 H 0.33543 0.92843 0.39511 0.0
H644 H 0.32562 0.90338 0.31737 0.0
H645 H 0.38456 0.90842 0.23724 0.0
H646 H 0.39465 0.93372 0.31393 0.0
H647 H 0.43489 0.95393 0.65358 0.0
H648 H 0.40346 0.94768 0.5992 0.0
H649 H 0.4319 0.96729 0.43414 0.0
H650 H 0.46346 0.97393 0.48818 0.0
H651 H 0.39954 0.93313 0.42735 0.0
H652 H 0.41348 0.00297 0.50443 0.0
H653 H 0.42276 0.02568 0.58892 0.0
H654 H 0.37254 0.00263 0.69199 0.0
H655 H 0.36313 0.9796 0.6082 0.0
C656 C 0.33191 0.98123 0.27916 0.0
C657 C 0.31378 0.98893 0.30261 0.0
C658 C 0.34645 0.9732 0.31713 0.0
C659 C 0.34298 0.97191 0.3794 0.0
C660 C 0.32454 0.97879 0.40283 0.0
C661 C 0.31011 0.98732 0.36487 0.0
C662 C 0.35949 0.96538 0.41995 0.0
C663 C 0.3647 0.97806 0.46868 0.0
C664 C 0.37169 0.94837 0.40656 0.0
C665 C 0.36577 0.93306 0.36027 0.0
C666 C 0.34627 0.9243 0.36072 0.0
C667 C 0.34066 0.91004 0.31684 0.0
C668 C 0.35445 0.90433 0.27236 0.0
C669 C 0.3739 0.91284 0.27174 0.0
C670 C 0.37958 0.92712 0.3155 0.0
C671 C 0.43473 0.95634 0.60534 0.0
C672 C 0.45157 0.96488 0.57538 0.0
C673 C 0.41674 0.95265 0.5744 0.0
C674 C 0.41541 0.95722 0.51302 0.0
C675 C 0.43274 0.96364 0.48162 0.0
C676 C 0.45071 0.96755 0.51265 0.0
C677 C 0.39546 0.95917 0.48444 0.0
C678 C 0.38979 0.94573 0.43835 0.0
C679 C 0.38251 0.97513 0.50106 0.0
C680 C 0.38771 0.98949 0.55036 0.0
C681 C 0.40447 0.00272 0.5452 0.0
C682 C 0.40975 0.01563 0.59292 0.0
C683 C 0.39826 0.01558 0.64581 0.0
C684 C 0.38142 0.00266 0.65098 0.0
C685 C 0.3761 0.98969 0.60339 0.0
H686 H 0.40237 0.02558 0.68273 0.0
H687 H 0.35008 0.89329 0.23842 0.0
H688 H 0.53105 0.2934 0.30571 0.0
H689 H 0.54114 0.32191 0.37148 0.0
H690 H 0.4913 0.35681 0.30494 0.0
H691 H 0.48082 0.32843 0.24103 0.0
H692 H 0.53029 0.37638 0.29629 0.0
H693 H 0.48777 0.33859 0.4377 0.0
H694 H 0.47832 0.30869 0.49872 0.0
H695 H 0.53584 0.31146 0.58756 0.0
H696 H 0.54576 0.34121 0.5263 0.0
H697 H 0.50607 0.45992 0.47448 0.0
H698 H 0.51037 0.42977 0.41267 0.0
H699 H 0.5531 0.40638 0.54071 0.0
H700 H 0.54821 0.43631 0.60434 0.0
H701 H 0.52645 0.37885 0.51922 0.0
H702 H 0.56703 0.41997 0.39153 0.0
H703 H 0.57703 0.45001 0.33194 0.0
H704 H 0.52551 0.44105 0.21734 0.0
H705 H 0.51502 0.41113 0.2767 0.0
C706 C 0.52204 0.30701 0.30615 0.0
C707 C 0.50532 0.30882 0.26759 0.0
C708 C 0.52789 0.32328 0.34335 0.0
C709 C 0.5171 0.34149 0.34221 0.0
C710 C 0.49997 0.34296 0.30569 0.0
C711 C 0.49404 0.32675 0.26917 0.0
C712 C 0.52379 0.3595 0.37702 0.0
C713 C 0.52948 0.37702 0.34507 0.0
C714 C 0.52352 0.35993 0.44058 0.0
C715 C 0.51763 0.34191 0.47675 0.0
C716 C 0.4985 0.33266 0.46968 0.0
C717 C 0.49304 0.31579 0.50444 0.0
C718 C 0.50651 0.30813 0.54681 0.0
C719 C 0.52545 0.31736 0.55458 0.0
C720 C 0.531 0.33423 0.51984 0.0
C721 C 0.5168 0.44865 0.48885 0.0
C722 C 0.52668 0.45046 0.54459 0.0
C723 C 0.51934 0.43139 0.45319 0.0
C724 C 0.53219 0.41579 0.47172 0.0
C725 C 0.54307 0.41817 0.52553 0.0
C726 C 0.54031 0.43533 0.56173 0.0
C727 C 0.53227 0.39618 0.43847 0.0
C728 C 0.52786 0.37826 0.47056 0.0
C729 C 0.53393 0.39533 0.37494 0.0
C730 C 0.5402 0.41331 0.33881 0.0
C731 C 0.55776 0.42446 0.35385 0.0
C732 C 0.56353 0.44147 0.32006 0.0
C733 C 0.55191 0.44744 0.27092 0.0
C734 C 0.53451 0.4364 0.25539 0.0
C735 C 0.52867 0.41938 0.28903 0.0
H736 H 0.55639 0.46062 0.24483 0.0
H737 H 0.50223 0.29509 0.57376 0.0
H738 H 0.18399 0.5717 0.21002 0.0
H739 H 0.15595 0.58385 0.27189 0.0
H740 H 0.17467 0.54476 0.41655 0.0
H741 H 0.20284 0.53305 0.35549 0.0
H742 H 0.12717 0.55913 0.29757 0.0
H743 H 0.1547 0.55653 0.54802 0.0
H744 H 0.18388 0.56856 0.60761 0.0
H745 H 0.19654 0.61474 0.47624 0.0
H746 H 0.16725 0.60321 0.41623 0.0
H747 H 0.06774 0.50627 0.50236 0.0
H748 H 0.09506 0.52169 0.44368 0.0
H749 H 0.07787 0.58114 0.50593 0.0
H750 H 0.04999 0.56575 0.56437 0.0
H751 H 0.12113 0.57057 0.51773 0.0
H752 H 0.06958 0.5754 0.37107 0.0
H753 H 0.04039 0.56413 0.31021 0.0
H754 H 0.07575 0.51649 0.23248 0.0
H755 H 0.10508 0.52726 0.29354 0.0
C756 C 0.18253 0.56637 0.25596 0.0
C757 C 0.19543 0.55133 0.2779 0.0
C758 C 0.16651 0.57329 0.29122 0.0
C759 C 0.16308 0.56518 0.34883 0.0
C760 C 0.17712 0.55156 0.37275 0.0
C761 C 0.19326 0.54481 0.33772 0.0
C762 C 0.14315 0.56755 0.37871 0.0
C763 C 0.12586 0.56208 0.3455 0.0
C764 C 0.14126 0.57174 0.44105 0.0
C765 C 0.15875 0.57895 0.47747 0.0
C766 C 0.16359 0.56936 0.53202 0.0
C767 C 0.18019 0.57606 0.56584 0.0
C768 C 0.19207 0.59238 0.54569 0.0
C769 C 0.18735 0.60206 0.49173 0.0
C770 C 0.17076 0.59543 0.45774 0.0
C771 C 0.06963 0.52264 0.50327 0.0
C772 C 0.05675 0.53482 0.53794 0.0
C773 C 0.0852 0.53142 0.46961 0.0
C774 C 0.08838 0.55252 0.47047 0.0
C775 C 0.07555 0.56482 0.50472 0.0
C776 C 0.05963 0.55604 0.53772 0.0
C777 C 0.10575 0.56115 0.43689 0.0
C778 C 0.12248 0.56845 0.46943 0.0
C779 C 0.10717 0.55882 0.3738 0.0
C780 C 0.08953 0.55213 0.33711 0.0
C781 C 0.0711 0.56242 0.34136 0.0
C782 C 0.05453 0.55614 0.30675 0.0
C783 C 0.05621 0.5396 0.26752 0.0
C784 C 0.07447 0.52931 0.26285 0.0
C785 C 0.09109 0.53552 0.29739 0.0
H786 H 0.04337 0.53478 0.24069 0.0
H787 H 0.20492 0.59754 0.57192 0.0
H788 H 0.0718 0.80311 0.13722 0.0
H789 H 0.07873 0.83019 0.06445 0.0
H790 H 0.02405 0.81416 0.96905 0.0
H791 H 0.01734 0.78681 0.04095 0.0
H792 H 0.05275 0.82984 0.8927 0.0
H793 H 0.02226 0.84666 0.08476 0.0
H794 H 0.02124 0.84709 0.19583 0.0
H795 H 0.07664 0.88175 0.19999 0.0
H796 H 0.07818 0.88117 0.08884 0.0
H797 H 0.0029 0.91771 0.80837 0.0
H798 H 0.0144 0.88686 0.85617 0.0
H799 H 0.06912 0.91762 0.91252 0.0
H800 H 0.05773 0.94895 0.86392 0.0
H801 H 0.049 0.89521 0.00422 0.0
H802 H 0.07315 0.88435 0.80449 0.0
H803 H 0.07113 0.88345 0.69365 0.0
H804 H 0.02437 0.83775 0.70304 0.0
H805 H 0.02583 0.83861 0.81402 0.0
C806 C 0.06168 0.80495 0.09941 0.0
C807 C 0.04391 0.79313 0.09493 0.0
C808 C 0.06563 0.82039 0.05797 0.0
C809 C 0.05165 0.82446 0.0123 0.0
C810 C 0.03501 0.8113 0.0041 0.0
C811 C 0.03117 0.79569 0.04517 0.0
C812 C 0.05235 0.84411 0.98003 0.0
C813 C 0.05202 0.84416 0.91689 0.0
C814 C 0.05166 0.86279 0.01187 0.0
C815 C 0.05047 0.86367 0.07858 0.0
C816 C 0.03428 0.85429 0.10939 0.0
C817 C 0.0336 0.85455 0.17234 0.0
C818 C 0.04889 0.8644 0.20495 0.0
C819 C 0.06484 0.87409 0.17466 0.0
C820 C 0.06563 0.87378 0.11169 0.0
C821 C 0.01739 0.91807 0.83093 0.0
C822 C 0.02939 0.93588 0.83237 0.0
C823 C 0.02401 0.9003 0.85778 0.0
C824 C 0.04275 0.89988 0.88686 0.0
C825 C 0.05469 0.91765 0.88962 0.0
C826 C 0.04814 0.93551 0.86206 0.0
C827 C 0.04902 0.88096 0.91679 0.0
C828 C 0.05045 0.88101 0.97974 0.0
C829 C 0.05034 0.86238 0.88469 0.0
C830 C 0.04954 0.86164 0.81778 0.0
C831 C 0.06233 0.8742 0.78301 0.0
C832 C 0.0613 0.87369 0.72011 0.0
C833 C 0.0476 0.86059 0.69135 0.0
C834 C 0.03496 0.84791 0.72541 0.0
C835 C 0.03591 0.84838 0.78834 0.0
H836 H 0.04677 0.86026 0.64269 0.0
H837 H 0.04836 0.86456 0.25369 0.0
H838 H 0.69728 0.03535 0.01491 0.0
H839 H 0.66935 0.05145 0.96368 0.0
H840 H 0.64912 0.07702 0.13223 0.0
H841 H 0.6773 0.06093 0.18393 0.0
H842 H 0.6204 0.05503 0.08341 0.0
H843 H 0.66141 0.10857 0.01215 0.0
H844 H 0.69149 0.12561 0.96915 0.0
H845 H 0.68301 0.09308 0.80299 0.0
H846 H 0.65306 0.0756 0.84519 0.0
H847 H 0.53425 0.06206 0.89015 0.0
H848 H 0.56116 0.07721 0.95312 0.0
H849 H 0.60599 0.04671 0.84569 0.0
H850 H 0.57951 0.03161 0.78381 0.0
H851 H 0.61857 0.08539 0.87951 0.0
H852 H 0.58676 0.02432 0.96866 0.0
H853 H 0.55803 0.00524 0.01272 0.0
H854 H 0.55063 0.0518 0.14663 0.0
H855 H 0.57919 0.07127 0.10275 0.0
C856 C 0.68742 0.04509 0.04076 0.0
C857 C 0.68937 0.04668 0.10358 0.0
C858 C 0.6714 0.05435 0.01134 0.0
C859 C 0.65711 0.06553 0.04402 0.0
C860 C 0.65995 0.06849 0.10608 0.0
C861 C 0.67599 0.05921 0.13557 0.0
C862 C 0.63767 0.07076 0.01508 0.0
C863 C 0.6199 0.06239 0.03982 0.0
C864 C 0.63695 0.08022 0.95801 0.0
C865 C 0.65493 0.09075 0.93197 0.0
C866 C 0.666 0.10496 0.96654 0.0
C867 C 0.68304 0.11471 0.94227 0.0
C868 C 0.68916 0.11043 0.88337 0.0
C869 C 0.67823 0.09641 0.84858 0.0
C870 C 0.66118 0.08661 0.87262 0.0
C871 C 0.54989 0.05898 0.87952 0.0
C872 C 0.55483 0.04544 0.83281 0.0
C873 C 0.5652 0.06762 0.91535 0.0
C874 C 0.58555 0.06301 0.90411 0.0
C875 C 0.59042 0.05056 0.85501 0.0
C876 C 0.57524 0.04177 0.82004 0.0
C877 C 0.60187 0.06868 0.94671 0.0
C878 C 0.619 0.07903 0.92447 0.0
C879 C 0.6021 0.06097 0.00606 0.0
C880 C 0.58483 0.04939 0.03185 0.0
C881 C 0.57886 0.03057 0.0071 0.0
C882 C 0.56264 0.01967 0.03211 0.0
C883 C 0.55245 0.02735 0.08227 0.0
C884 C 0.55848 0.04592 0.10763 0.0
C885 C 0.57466 0.0569 0.08268 0.0
H886 H 0.53991 0.01888 0.10163 0.0
H887 H 0.70236 0.11799 0.86469 0.0
H888 H 0.52659 0.66991 0.09843 0.0
H889 H 0.51161 0.64262 0.03804 0.0
H890 H 0.45645 0.67639 0.02287 0.0
H891 H 0.47154 0.70398 0.08392 0.0
H892 H 0.45027 0.63564 0.05787 0.0
H893 H 0.48382 0.67181 0.90151 0.0
H894 H 0.51165 0.69021 0.85064 0.0
H895 H 0.54797 0.63671 0.85575 0.0
H896 H 0.52054 0.61807 0.90774 0.0
H897 H 0.43963 0.55517 0.80651 0.0
H898 H 0.43563 0.58718 0.86252 0.0
H899 H 0.4834 0.5699 0.9827 0.0
H900 H 0.4875 0.5382 0.92697 0.0
H901 H 0.48499 0.60691 0.87927 0.0
H902 H 0.45397 0.57527 0.0607 0.0
H903 H 0.42601 0.55688 0.1111 0.0
H904 H 0.38442 0.60231 0.05315 0.0
H905 H 0.41216 0.62081 0.0017 0.0
C906 C 0.51136 0.67163 0.08156 0.0
C907 C 0.5002 0.68901 0.09555 0.0
C908 C 0.50284 0.65608 0.04695 0.0
C909 C 0.48298 0.65757 0.02567 0.0
C910 C 0.47183 0.67504 0.03877 0.0
C911 C 0.48047 0.69078 0.07311 0.0
C912 C 0.47395 0.64025 0.99215 0.0
C913 C 0.45755 0.6296 0.01794 0.0
C914 C 0.48345 0.63239 0.94008 0.0
C915 C 0.5001 0.64356 0.90888 0.0
C916 C 0.49779 0.664 0.89228 0.0
C917 C 0.5135 0.67447 0.86318 0.0
C918 C 0.53158 0.66465 0.85011 0.0
C919 C 0.53396 0.64431 0.86596 0.0
C920 C 0.51832 0.63378 0.89521 0.0
C921 C 0.44838 0.55773 0.84707 0.0
C922 C 0.46376 0.54429 0.86296 0.0
C923 C 0.44617 0.57602 0.87875 0.0
C924 C 0.45917 0.58076 0.92677 0.0
C925 C 0.47304 0.56633 0.94632 0.0
C926 C 0.47534 0.54822 0.91462 0.0
C927 C 0.46209 0.60197 0.94674 0.0
C928 C 0.47736 0.61332 0.91811 0.0
C929 C 0.45163 0.61039 0.99602 0.0
C930 C 0.43504 0.59921 0.02656 0.0
C931 C 0.43882 0.58117 0.05801 0.0
C932 C 0.42303 0.57078 0.08698 0.0
C933 C 0.40343 0.57837 0.08509 0.0
C934 C 0.39959 0.59641 0.05441 0.0
C935 C 0.41534 0.60685 0.02537 0.0
H936 H 0.39123 0.57031 0.10758 0.0
H937 H 0.54373 0.67279 0.82766 0.0
H938 H 0.80555 0.47642 0.09729 0.0
H939 H 0.83106 0.4635 0.02765 0.0
H940 H 0.82168 0.51485 0.91122 0.0
H941 H 0.79602 0.52774 0.98107 0.0
H942 H 0.83863 0.45443 0.90587 0.0
H943 H 0.87151 0.53642 0.89454 0.0
H944 H 0.86897 0.56909 0.94866 0.0
H945 H 0.85091 0.53769 0.1096 0.0
H946 H 0.85333 0.50494 0.05647 0.0
H947 H 0.92639 0.46361 0.71827 0.0
H948 H 0.89374 0.46386 0.76876 0.0
H949 H 0.92306 0.47825 0.93724 0.0
H950 H 0.95586 0.47868 0.88658 0.0
H951 H 0.89519 0.50456 0.91545 0.0
H952 H 0.89783 0.43187 0.91063 0.0
H953 H 0.90192 0.39808 0.8642 0.0
H954 H 0.85137 0.40886 0.74832 0.0
H955 H 0.84714 0.44283 0.79351 0.0
C956 C 0.8083 0.48438 0.05536 0.0
C957 C 0.79902 0.50303 0.04422 0.0
C958 C 0.82281 0.477 0.01559 0.0
C959 C 0.82843 0.4884 0.9649 0.0
C960 C 0.81756 0.50591 0.95034 0.0
C961 C 0.8029 0.51322 0.99 0.0
C962 C 0.848 0.48427 0.93534 0.0
C963 C 0.85098 0.46543 0.90724 0.0
C964 C 0.86423 0.49845 0.93902 0.0
C965 C 0.86249 0.51818 0.97133 0.0
C966 C 0.86701 0.53649 0.94148 0.0
C967 C 0.86555 0.55505 0.97196 0.0
C968 C 0.8597 0.55548 0.03248 0.0
C969 C 0.85532 0.53737 0.06265 0.0
C970 C 0.85673 0.51881 0.03233 0.0
C971 C 0.92601 0.46634 0.7664 0.0
C972 C 0.94377 0.47139 0.79824 0.0
C973 C 0.90726 0.4664 0.79528 0.0
C974 C 0.90591 0.47115 0.85677 0.0
C975 C 0.92374 0.47469 0.8896 0.0
C976 C 0.9425 0.47484 0.86063 0.0
C977 C 0.88594 0.47472 0.88517 0.0
C978 C 0.88286 0.49356 0.91326 0.0
C979 C 0.8698 0.46041 0.88225 0.0
C980 C 0.87229 0.43997 0.85512 0.0
C981 C 0.88769 0.4271 0.87493 0.0
C982 C 0.89001 0.4079 0.84889 0.0
C983 C 0.87694 0.40135 0.80324 0.0
C984 C 0.86149 0.41396 0.78364 0.0
C985 C 0.85911 0.43318 0.80951 0.0
H986 H 0.87876 0.38648 0.78314 0.0
H987 H 0.85861 0.56985 0.05602 0.0
H988 H 0.03597 0.20545 0.05353 0.0
H989 H 0.03866 0.17644 0.98479 0.0
H990 H 0.08662 0.15225 0.09284 0.0
H991 H 0.08367 0.18106 0.1625 0.0
H992 H 0.08367 0.14611 0.94147 0.0
H993 H 0.05364 0.13261 0.14395 0.0
H994 H 0.03117 0.14139 0.22886 0.0
H995 H 0.98132 0.14694 0.10692 0.0
H996 H 0.00356 0.1384 0.02132 0.0
H997 H 0.06137 0.04169 0.85814 0.0
H998 H 0.07298 0.07184 0.91447 0.0
H999 H 0.0136 0.09755 0.89936 0.0
H1000 H 0.00188 0.0677 0.84488 0.0
H1001 H 0.02682 0.10178 0.00921 0.0
H1002 H 0.05348 0.11302 0.80965 0.0
H1003 H 0.07366 0.10474 0.71957 0.0
H1004 H 0.12769 0.10497 0.82628 0.0
H1005 H 0.10776 0.11297 0.91722 0.0
C1006 C 0.04782 0.19454 0.0607 0.0
C1007 C 0.05965 0.19543 0.11302 0.0
C1008 C 0.04929 0.17794 0.02163 0.0
C1009 C 0.06278 0.16224 0.0341 0.0
C1010 C 0.07626 0.16433 0.08234 0.0
C1011 C 0.0746 0.18078 0.12193 0.0
C1012 C 0.05954 0.14216 0.00566 0.0
C1013 C 0.07149 0.13619 0.95665 0.0
C1014 C 0.04346 0.12947 0.02508 0.0
C1015 C 0.03027 0.13508 0.07633 0.0
C1016 C 0.03794 0.13594 0.13525 0.0
C1017 C 0.02524 0.14079 0.18348 0.0
C1018 C 0.00484 0.14471 0.17322 0.0
C1019 C 0.99712 0.1439 0.11475 0.0
C1020 C 0.00975 0.13904 0.06642 0.0
C1021 C 0.05078 0.05372 0.86734 0.0
C1022 C 0.03068 0.05223 0.847 0.0
C1023 C 0.05747 0.07099 0.89907 0.0
C1024 C 0.0442 0.08703 0.91065 0.0
C1025 C 0.02412 0.08538 0.89107 0.0
C1026 C 0.01745 0.06823 0.85976 0.0
C1027 C 0.05072 0.10558 0.94391 0.0
C1028 C 0.03929 0.11137 0.99422 0.0
C1029 C 0.06712 0.11809 0.92494 0.0
C1030 C 0.07911 0.11334 0.87034 0.0
C1031 C 0.06964 0.11113 0.814 0.0
C1032 C 0.08104 0.10652 0.76277 0.0
C1033 C 0.10194 0.10426 0.76723 0.0
C1034 C 0.11149 0.10667 0.82292 0.0
C1035 C 0.10016 0.11125 0.87431 0.0
H1036 H 0.11074 0.1007 0.72752 0.0
H1037 H 0.99497 0.14825 0.21055 0.0
H1038 H 0.31966 0.05128 0.16654 0.0
H1039 H 0.34341 0.05789 0.08416 0.0
H1040 H 0.3117 0.01398 0.97355 0.0
H1041 H 0.28791 0.00735 0.05609 0.0
H1042 H 0.35085 0.0037 0.99874 0.0
H1043 H 0.31643 0.06231 0.92661 0.0
H1044 H 0.30016 0.09567 0.93491 0.0
H1045 H 0.35582 0.12243 0.99741 0.0
H1046 H 0.37237 0.08916 0.99034 0.0
H1047 H 0.42256 0.00107 0.77143 0.0
H1048 H 0.39053 0.00737 0.82177 0.0
H1049 H 0.41857 0.05531 0.92652 0.0
H1050 H 0.45076 0.04956 0.87387 0.0
H1051 H 0.38002 0.06479 0.89926 0.0
H1052 H 0.41333 0.00787 0.98506 0.0
H1053 H 0.43082 0.97503 0.98545 0.0
H1054 H 0.3785 0.94576 0.90871 0.0
H1055 H 0.36078 0.9785 0.90717 0.0
C1056 C 0.31721 0.0438 0.12357 0.0
C1057 C 0.30204 0.02877 0.11753 0.0
C1058 C 0.33079 0.04756 0.07653 0.0
C1059 C 0.32941 0.03631 0.02286 0.0
C1060 C 0.313 0.02283 0.01462 0.0
C1061 C 0.29932 0.01917 0.06157 0.0
C1062 C 0.34702 0.03559 0.98146 0.0
C1063 C 0.35691 0.01698 0.97575 0.0
C1064 C 0.35551 0.05313 0.95413 0.0
C1065 C 0.3456 0.07318 0.95838 0.0
C1066 C 0.32517 0.07526 0.94263 0.0
C1067 C 0.3159 0.09417 0.947 0.0
C1068 C 0.32694 0.11115 0.96679 0.0
C1069 C 0.34728 0.10926 0.98212 0.0
C1070 C 0.35662 0.09038 0.97785 0.0
C1071 C 0.42191 0.01306 0.80491 0.0
C1072 C 0.43924 0.02457 0.81971 0.0
C1073 C 0.40356 0.01667 0.83359 0.0
C1074 C 0.40225 0.03146 0.87904 0.0
C1075 C 0.41927 0.04374 0.89181 0.0
C1076 C 0.43765 0.0404 0.86201 0.0
C1077 C 0.38357 0.03282 0.91596 0.0
C1078 C 0.37369 0.0515 0.92148 0.0
C1079 C 0.37521 0.01543 0.9445 0.0
C1080 C 0.3858 0.99568 0.94545 0.0
C1081 C 0.40561 0.99446 0.96786 0.0
C1082 C 0.41555 0.97586 0.96836 0.0
C1083 C 0.4058 0.95833 0.94698 0.0
C1084 C 0.38605 0.95936 0.92518 0.0
C1085 C 0.37604 0.97793 0.92453 0.0
H1086 H 0.41352 0.94394 0.94744 0.0
H1087 H 0.31973 0.12577 0.97014 0.0
H1088 H 0.45497 0.28241 0.05631 0.0
H1089 H 0.44623 0.3038 0.96983 0.0
H1090 H 0.50773 0.32648 0.96355 0.0
H1091 H 0.51643 0.30469 0.0473 0.0
H1092 H 0.44505 0.34202 0.97283 0.0
H1093 H 0.52186 0.34713 0.83894 0.0
H1094 H 0.54713 0.32368 0.79772 0.0
H1095 H 0.50324 0.27508 0.7989 0.0
H1096 H 0.47758 0.29828 0.83926 0.0
H1097 H 0.47136 0.44108 0.8899 0.0
H1098 H 0.46598 0.40634 0.92654 0.0
H1099 H 0.4672 0.384 0.74339 0.0
H1100 H 0.47354 0.41866 0.70743 0.0
H1101 H 0.48971 0.36192 0.80288 0.0
H1102 H 0.42297 0.38158 0.83415 0.0
H1103 H 0.39438 0.40284 0.86522 0.0
H1104 H 0.4122 0.39767 0.05028 0.0
H1105 H 0.44109 0.37663 0.02032 0.0
C1106 C 0.46673 0.29125 0.03426 0.0
C1107 C 0.48636 0.29192 0.05797 0.0
C1108 C 0.46172 0.30364 0.98537 0.0
C1109 C 0.47629 0.3168 0.95975 0.0
C1110 C 0.49625 0.31621 0.98106 0.0
C1111 C 0.50124 0.30379 0.02925 0.0
C1112 C 0.47045 0.33335 0.9179 0.0
C1113 C 0.45463 0.34619 0.93505 0.0
C1114 C 0.48237 0.33852 0.86703 0.0
C1115 C 0.49777 0.32449 0.84233 0.0
C1116 C 0.51752 0.33149 0.82999 0.0
C1117 C 0.53195 0.31822 0.80688 0.0
C1118 C 0.5268 0.2979 0.79575 0.0
C1119 C 0.50722 0.29081 0.80767 0.0
C1120 C 0.49274 0.30401 0.83076 0.0
C1121 C 0.47002 0.42873 0.8577 0.0
C1122 C 0.47268 0.43235 0.79608 0.0
C1123 C 0.46684 0.4089 0.87845 0.0
C1124 C 0.46593 0.39244 0.83772 0.0
C1125 C 0.46782 0.39633 0.77577 0.0
C1126 C 0.47133 0.41611 0.7552 0.0
C1127 C 0.46519 0.37116 0.86038 0.0
C1128 C 0.47977 0.35748 0.83956 0.0
C1129 C 0.45163 0.36489 0.90628 0.0
C1130 C 0.43428 0.37757 0.92488 0.0
C1131 C 0.42088 0.38508 0.88145 0.0
C1132 C 0.4046 0.39708 0.89887 0.0
C1133 C 0.40148 0.40162 0.95968 0.0
C1134 C 0.41463 0.39413 0.00319 0.0
C1135 C 0.43095 0.38213 0.98601 0.0
H1136 H 0.38887 0.41091 0.97307 0.0
H1137 H 0.53799 0.28765 0.77787 0.0
H1138 H 0.20184 0.47637 0.12788 0.0
H1139 H 0.17758 0.46173 0.05548 0.0
H1140 H 0.16655 0.52164 0.98544 0.0
H1141 H 0.19076 0.53611 0.05685 0.0
H1142 H 0.13803 0.46952 0.05396 0.0
H1143 H 0.15269 0.52006 0.84213 0.0
H1144 H 0.18174 0.5344 0.78622 0.0
H1145 H 0.21981 0.4877 0.85564 0.0
H1146 H 0.19094 0.47288 0.91126 0.0
H1147 H 0.04999 0.4925 0.89243 0.0
H1148 H 0.08101 0.48986 0.95075 0.0
H1149 H 0.10926 0.45801 0.8034 0.0
H1150 H 0.07846 0.46123 0.744 0.0
H1151 H 0.13292 0.4866 0.83721 0.0
H1152 H 0.09802 0.43436 0.94245 0.0
H1153 H 0.06984 0.41774 0.99684 0.0
H1154 H 0.07398 0.46279 0.13672 0.0
H1155 H 0.102 0.47986 0.08282 0.0
C1156 C 0.1947 0.48623 0.09557 0.0
C1157 C 0.19815 0.50733 0.09764 0.0
C1158 C 0.18074 0.47792 0.05469 0.0
C1159 C 0.17029 0.49057 0.01488 0.0
C1160 C 0.17462 0.51151 0.01497 0.0
C1161 C 0.18841 0.51979 0.05587 0.0
C1162 C 0.1534 0.48256 0.97741 0.0
C1163 C 0.13698 0.473 0.00636 0.0
C1164 C 0.15221 0.48668 0.91505 0.0
C1165 C 0.16963 0.49541 0.88116 0.0
C1166 C 0.16722 0.51276 0.8452 0.0
C1167 C 0.18367 0.521 0.81361 0.0
C1168 C 0.20262 0.51199 0.81746 0.0
C1169 C 0.20514 0.4947 0.85283 0.0
C1170 C 0.18874 0.48639 0.88447 0.0
C1171 C 0.06265 0.48456 0.87286 0.0
C1172 C 0.06178 0.47719 0.81341 0.0
C1173 C 0.0804 0.48296 0.90643 0.0
C1174 C 0.09752 0.47361 0.88173 0.0
C1175 C 0.09632 0.46535 0.82343 0.0
C1176 C 0.07867 0.46717 0.78956 0.0
C1177 C 0.11715 0.47433 0.91428 0.0
C1178 C 0.13407 0.48263 0.88444 0.0
C1179 C 0.1189 0.4687 0.97554 0.0
C1180 C 0.10208 0.45844 0.00838 0.0
C1181 C 0.09285 0.4408 0.98463 0.0
C1182 C 0.0769 0.43129 0.01541 0.0
C1183 C 0.07011 0.43922 0.07016 0.0
C1184 C 0.07927 0.45666 0.09431 0.0
C1185 C 0.09521 0.46624 0.06371 0.0
H1186 H 0.05776 0.43183 0.09391 0.0
H1187 H 0.21533 0.5184 0.793 0.0
H1188 H 0.05191 0.80744 0.31013 0.0
H1189 H 0.04212 0.83331 0.38257 0.0
H1190 H 0.98255 0.80615 0.39505 0.0
H1191 H 0.99202 0.78078 0.31968 0.0
H1192 H 0.97877 0.8439 0.37258 0.0
H1193 H 0.01587 0.80901 0.52026 0.0
H1194 H 0.04397 0.7908 0.56757 0.0
H1195 H 0.08245 0.84336 0.54718 0.0
H1196 H 0.05468 0.86182 0.49902 0.0
H1197 H 0.96416 0.92192 0.61236 0.0
H1198 H 0.96693 0.88882 0.56198 0.0
H1199 H 0.01487 0.91263 0.45002 0.0
H1200 H 0.01194 0.94581 0.49867 0.0
H1201 H 0.02023 0.87368 0.53727 0.0
H1202 H 0.98193 0.90532 0.37346 0.0
H1203 H 0.95202 0.92286 0.33432 0.0
H1204 H 0.9137 0.87416 0.39695 0.0
H1205 H 0.9434 0.85648 0.43724 0.0
C1206 C 0.03685 0.8067 0.32926 0.0
C1207 C 0.02267 0.79221 0.30858 0.0
C1208 C 0.0313 0.82142 0.37126 0.0
C1209 C 0.01157 0.82172 0.39459 0.0
C1210 C 0.99785 0.80627 0.37762 0.0
C1211 C 0.00335 0.79162 0.335 0.0
C1212 C 0.00472 0.83963 0.42981 0.0
C1213 C 0.98764 0.85008 0.40953 0.0
C1214 C 0.01625 0.84792 0.47788 0.0
C1215 C 0.03319 0.83676 0.50563 0.0
C1216 C 0.03038 0.81663 0.52532 0.0
C1217 C 0.04624 0.80628 0.55244 0.0
C1218 C 0.06499 0.81591 0.56029 0.0
C1219 C 0.06792 0.83591 0.54101 0.0
C1220 C 0.05211 0.84634 0.51386 0.0
C1221 C 0.97493 0.92025 0.57591 0.0
C1222 C 0.98784 0.93649 0.55952 0.0
C1223 C 0.97651 0.90135 0.54742 0.0
C1224 C 0.99117 0.89839 0.50277 0.0
C1225 C 0.00347 0.91474 0.48447 0.0
C1226 C 0.00165 0.93371 0.51206 0.0
C1227 C 0.99491 0.87791 0.47836 0.0
C1228 C 0.01131 0.8671 0.50098 0.0
C1229 C 0.98261 0.86913 0.43331 0.0
C1230 C 0.96482 0.87975 0.40911 0.0
C1231 C 0.9671 0.89848 0.37953 0.0
C1232 C 0.9502 0.90842 0.35696 0.0
C1233 C 0.93096 0.89967 0.36336 0.0
C1234 C 0.9286 0.88094 0.39216 0.0
C1235 C 0.94546 0.87096 0.41484 0.0
H1236 H 0.9179 0.90738 0.34584 0.0
H1237 H 0.07724 0.80788 0.5814 0.0
H1238 H 0.67925 0.97685 0.19492 0.0
H1239 H 0.65446 0.96493 0.26919 0.0
H1240 H 0.68626 0.99793 0.4086 0.0
H1241 H 0.71105 0.01007 0.33384 0.0
H1242 H 0.66442 0.957 0.44204 0.0
H1243 H 0.65499 0.02458 0.35485 0.0
H1244 H 0.65357 0.04815 0.26892 0.0
H1245 H 0.60718 0.01123 0.18705 0.0
H1246 H 0.60843 0.98735 0.27255 0.0
H1247 H 0.58631 0.98485 0.64518 0.0
H1248 H 0.61571 0.98066 0.58026 0.0
H1249 H 0.57652 0.96969 0.42813 0.0
H1250 H 0.54701 0.97473 0.49253 0.0
H1251 H 0.60272 0.9964 0.39884 0.0
H1252 H 0.60758 0.93178 0.49326 0.0
H1253 H 0.60889 0.90736 0.57705 0.0
H1254 H 0.66314 0.93618 0.64261 0.0
H1255 H 0.662 0.96097 0.55967 0.0
C1256 C 0.68146 0.98071 0.24195 0.0
C1257 C 0.69703 0.99418 0.25913 0.0
C1258 C 0.6673 0.97398 0.28421 0.0
C1259 C 0.66853 0.98066 0.34413 0.0
C1260 C 0.68521 0.99249 0.36259 0.0
C1261 C 0.69937 0.99936 0.32007 0.0
C1262 C 0.6506 0.97871 0.38354 0.0
C1263 C 0.65093 0.96566 0.43323 0.0
C1264 C 0.63292 0.98967 0.37072 0.0
C1265 C 0.63196 0.00409 0.31967 0.0
C1266 C 0.64459 0.02142 0.31831 0.0
C1267 C 0.64378 0.03486 0.26978 0.0
C1268 C 0.63036 0.03114 0.2224 0.0
C1269 C 0.61761 0.01405 0.2237 0.0
C1270 C 0.61833 0.00059 0.27224 0.0
C1271 C 0.58393 0.9812 0.59811 0.0
C1272 C 0.56432 0.98025 0.57391 0.0
C1273 C 0.6008 0.97867 0.56101 0.0
C1274 C 0.5984 0.97468 0.49922 0.0
C1275 C 0.57879 0.97281 0.47559 0.0
C1276 C 0.56192 0.97567 0.51246 0.0
C1277 C 0.61623 0.97456 0.4583 0.0
C1278 C 0.61598 0.98741 0.40796 0.0
C1279 C 0.63384 0.96324 0.47052 0.0
C1280 C 0.6346 0.94835 0.52047 0.0
C1281 C 0.6197 0.93302 0.5258 0.0
C1282 C 0.62043 0.91909 0.5731 0.0
C1283 C 0.63606 0.92024 0.6152 0.0
C1284 C 0.65103 0.93531 0.60999 0.0
C1285 C 0.65036 0.94929 0.56279 0.0
H1286 H 0.6366 0.90945 0.65179 0.0
H1287 H 0.62981 0.04153 0.18484 0.0
H1288 H 0.55649 0.68704 0.25027 0.0
H1289 H 0.55983 0.66277 0.3326 0.0
H1290 H 0.51135 0.69191 0.42809 0.0
H1291 H 0.50787 0.71621 0.34514 0.0
H1292 H 0.54689 0.67066 0.50154 0.0
H1293 H 0.49251 0.66028 0.3537 0.0
H1294 H 0.47944 0.65954 0.24968 0.0
H1295 H 0.5246 0.61638 0.19962 0.0
H1296 H 0.538 0.61697 0.30339 0.0
H1297 H 0.50688 0.58487 0.65924 0.0
H1298 H 0.5132 0.61652 0.60504 0.0
H1299 H 0.53921 0.5827 0.45762 0.0
H1300 H 0.5316 0.55092 0.51023 0.0
H1301 H 0.51596 0.60819 0.41362 0.0
H1302 H 0.56742 0.61459 0.56617 0.0
H1303 H 0.58056 0.61533 0.67006 0.0
H1304 H 0.5426 0.66584 0.71213 0.0
H1305 H 0.52906 0.66525 0.60879 0.0
C1306 C 0.54733 0.68894 0.29035 0.0
C1307 C 0.53197 0.70343 0.29174 0.0
C1308 C 0.54918 0.67504 0.33718 0.0
C1309 C 0.53572 0.67549 0.38596 0.0
C1310 C 0.52196 0.69146 0.3909 0.0
C1311 C 0.52003 0.70537 0.34373 0.0
C1312 C 0.53312 0.65711 0.42331 0.0
C1313 C 0.54 0.65699 0.4829 0.0
C1314 C 0.52443 0.63929 0.39826 0.0
C1315 C 0.51634 0.6388 0.33603 0.0
C1316 C 0.49972 0.65073 0.32038 0.0
C1317 C 0.4922 0.65027 0.26159 0.0
C1318 C 0.50118 0.63792 0.21808 0.0
C1319 C 0.51766 0.62594 0.23336 0.0
C1320 C 0.52519 0.62629 0.29219 0.0
C1321 C 0.51412 0.58424 0.61547 0.0
C1322 C 0.51875 0.56546 0.58884 0.0
C1323 C 0.51789 0.60238 0.58467 0.0
C1324 C 0.52705 0.60216 0.5275 0.0
C1325 C 0.53213 0.58336 0.50161 0.0
C1326 C 0.52781 0.56518 0.53166 0.0
C1327 C 0.53002 0.62128 0.49268 0.0
C1328 C 0.52306 0.62165 0.43298 0.0
C1329 C 0.53873 0.63922 0.51792 0.0
C1330 C 0.54711 0.63977 0.57984 0.0
C1331 C 0.5618 0.62579 0.59768 0.0
C1332 C 0.56933 0.62619 0.65649 0.0
C1333 C 0.56237 0.64058 0.69776 0.0
C1334 C 0.54795 0.65468 0.68021 0.0
C1335 C 0.54037 0.65434 0.62149 0.0
H1336 H 0.56819 0.64085 0.74328 0.0
H1337 H 0.49536 0.63762 0.17257 0.0
H1338 H 0.82555 0.55556 0.17943 0.0
H1339 H 0.85371 0.55961 0.2497 0.0
H1340 H 0.82091 0.52443 0.38215 0.0
H1341 H 0.79261 0.5203 0.3114 0.0
H1342 H 0.84559 0.55532 0.43413 0.0
H1343 H 0.8501 0.50032 0.29214 0.0
H1344 H 0.85179 0.48236 0.19465 0.0
H1345 H 0.90284 0.51922 0.14256 0.0
H1346 H 0.90122 0.5377 0.23934 0.0
H1347 H 0.93833 0.49094 0.50889 0.0
H1348 H 0.90876 0.49927 0.44999 0.0
H1349 H 0.91872 0.56301 0.48668 0.0
H1350 H 0.94863 0.55473 0.54696 0.0
H1351 H 0.90583 0.52111 0.35015 0.0
H1352 H 0.8694 0.5843 0.49175 0.0
H1353 H 0.8683 0.59624 0.59721 0.0
H1354 H 0.87996 0.53579 0.65907 0.0
H1355 H 0.88086 0.52347 0.55409 0.0
C1356 C 0.82413 0.54924 0.22426 0.0
C1357 C 0.80708 0.53746 0.24004 0.0
C1358 C 0.8402 0.55154 0.26427 0.0
C1359 C 0.83951 0.54204 0.32069 0.0
C1360 C 0.8217 0.53188 0.33876 0.0
C1361 C 0.80555 0.52955 0.29851 0.0
C1362 C 0.85823 0.5403 0.35667 0.0
C1363 C 0.85884 0.54802 0.41568 0.0
C1364 C 0.87542 0.53051 0.33284 0.0
C1365 C 0.87542 0.52052 0.27278 0.0
C1366 C 0.86147 0.50485 0.2595 0.0
C1367 C 0.86248 0.4945 0.20451 0.0
C1368 C 0.87754 0.49953 0.16276 0.0
C1369 C 0.89128 0.51526 0.17518 0.0
C1370 C 0.89029 0.52571 0.23 0.0
C1371 C 0.93436 0.50678 0.50457 0.0
C1372 C 0.94589 0.52218 0.53278 0.0
C1373 C 0.91742 0.51151 0.47068 0.0
C1374 C 0.91146 0.53173 0.46418 0.0
C1375 C 0.92298 0.54727 0.49161 0.0
C1376 C 0.94012 0.54253 0.52562 0.0
C1377 C 0.8933 0.53611 0.42768 0.0
C1378 C 0.89277 0.52886 0.36829 0.0
C1379 C 0.87613 0.54587 0.45177 0.0
C1380 C 0.87546 0.55305 0.51506 0.0
C1381 C 0.87169 0.57357 0.52789 0.0
C1382 C 0.8711 0.5804 0.58757 0.0
C1383 C 0.87414 0.5668 0.6348 0.0
C1384 C 0.8777 0.54633 0.62245 0.0
C1385 C 0.87829 0.53942 0.56286 0.0
H1386 H 0.87369 0.57212 0.68096 0.0
H1387 H 0.87862 0.49118 0.12084 0.0
loop_
_geom_bond_atom_site_label_1
_geom_bond_atom_site_label_2
_geom_bond_distance
_geom_bond_site_symmetry_2
_ccdc_geom_bond_type
H0 C5 0.930 . S
H1 C8 0.930 . S
H2 C10 0.930 . S
H3 C4 1.016 . S
C4 H3 1.016 . S
C4 N11 1.286 1_556 S
C5 H0 0.930 . S
C5 C6 1.397 . S
C5 C7 1.361 . S
C6 C5 1.397 . S
C6 C10 1.390 . S
C7 C5 1.361 . S
C7 C8 1.393 1_554 S
C7 N11 1.413 . S
C8 H1 0.930 . S
C8 C7 1.393 1_556 S
C8 C9 1.399 . S
C9 C8 1.399 . S
C9 C10 1.381 1_556 S
C10 H2 0.930 . S
C10 C6 1.390 . S
C10 C9 1.381 1_554 S
N11 C4 1.286 1_554 S
N11 C7 1.413 . S
H12 C17 0.930 . S
H13 C20 0.930 . S
H14 C22 0.942 . S
H15 C16 1.016 . S
C16 H15 1.016 . S
C16 N23 1.286 1_655 S
C17 H12 0.930 . S
C17 C18 1.397 . S
C17 C19 1.361 . S
C18 C17 1.397 . S
C18 C22 1.385 1_455 S
C19 C17 1.361 . S
C19 C20 1.393 . S
C19 N23 1.413 . S
C20 H13 0.930 . S
C20 C19 1.393 . S
C20 C21 1.399 . S
C21 C20 1.399 . S
C21 C22 1.377 1_455 S
C22 H14 0.942 . S
C22 C18 1.385 1_655 S
C22 C21 1.377 1_655 S
N23 C16 1.286 1_455 S
N23 C19 1.413 . S
H24 C29 0.930 . S
H25 C32 0.930 1_556 S
H26 C34 0.930 . S
H27 C28 1.010 1_556 S
C28 H27 1.010 1_554 S
C28 N35 1.286 1_565 S
C29 H24 0.930 . S
C29 C30 1.397 . S
C29 C31 1.361 . S
C30 C29 1.397 . S
C30 C34 1.390 1_545 S
C31 C29 1.361 . S
C31 C32 1.393 . S
C31 N35 1.413 . S
C32 H25 0.930 1_554 S
C32 C31 1.393 . S
C32 C33 1.404 . S
C33 C32 1.404 . S
C33 C34 1.378 1_545 S
C34 H26 0.930 . S
C34 C30 1.390 1_565 S
C34 C33 1.378 1_565 S
N35 C28 1.286 1_545 S
N35 C31 1.413 . S
H36 C41 0.930 . S
H37 C44 0.930 1_556 S
H38 C46 0.930 . S
H39 C40 1.016 1_556 S
C40 H39 1.016 1_554 S
C40 N47 1.286 . S
C41 H36 0.930 . S
C41 C42 1.397 . S
C41 C43 1.361 . S
C42 C41 1.397 . S
C42 C46 1.390 . S
C43 C41 1.361 . S
C43 C44 1.393 . S
C43 N47 1.413 . S
C44 H37 0.930 1_554 S
C44 C43 1.393 . S
C44 C45 1.399 . S
C45 C44 1.399 . S
C45 C46 1.381 . S
C46 H38 0.930 . S
C46 C42 1.390 . S
C46 C45 1.381 . S
N47 C40 1.286 . S
N47 C43 1.413 . S
H48 C53 0.930 . S
H49 C56 0.930 . S
H50 C58 0.930 . S
H51 C52 1.016 . S
C52 H51 1.016 . S
C52 N59 1.286 . S
C53 H48 0.930 . S
C53 C54 1.397 . S
C53 C55 1.361 . S
C54 C53 1.397 . S
C54 C58 1.390 . S
C55 C53 1.361 . S
C55 C56 1.393 . S
C55 N59 1.413 . S
C56 H49 0.930 . S
C56 C55 1.393 . S
C56 C57 1.399 . S
C57 C56 1.399 . S
C57 C58 1.381 . S
C58 H50 0.930 . S
C58 C54 1.390 . S
C58 C57 1.381 . S
N59 C52 1.286 . S
N59 C55 1.413 . S
H60 C65 0.930 . S
H61 C68 0.930 . S
H62 C70 0.930 . S
H63 C64 1.016 . S
C64 H63 1.016 . S
C64 N71 1.286 . S
C65 H60 0.930 . S
C65 C66 1.397 . S
C65 C67 1.361 . S
C66 C65 1.397 . S
C66 C70 1.390 . S
C67 C65 1.361 . S
C67 C68 1.393 . S
C67 N71 1.413 . S
C68 H61 0.930 . S
C68 C67 1.393 . S
C68 C69 1.399 . S
C69 C68 1.399 . S
C69 C70 1.381 . S
C70 H62 0.930 . S
C70 C66 1.390 . S
C70 C69 1.381 . S
N71 C64 1.286 . S
N71 C67 1.413 . S
H72 C77 0.930 . S
H73 C80 0.930 . S
H74 C82 0.930 . S
H75 C76 1.016 . S
C76 H75 1.016 . S
C76 N83 1.286 . S
C77 H72 0.930 . S
C77 C78 1.397 . S
C77 C79 1.361 . S
C78 C77 1.397 . S
C78 C82 1.390 . S
C79 C77 1.361 . S
C79 C80 1.393 . S
C79 N83 1.413 . S
C80 H73 0.930 . S
C80 C79 1.393 . S
C80 C81 1.399 . S
C81 C80 1.399 . S
C81 C82 1.381 . S
C82 H74 0.930 . S
C82 C78 1.390 . S
C82 C81 1.381 . S
N83 C76 1.286 . S
N83 C79 1.413 . S
H84 C89 0.930 . S
H85 C92 0.930 . S
H86 C94 0.930 . S
H87 C88 1.016 . S
C88 H87 1.016 . S
C88 N95 1.286 . S
C89 H84 0.930 . S
C89 C90 1.397 . S
C89 C91 1.361 . S
C90 C89 1.397 . S
C90 C94 1.390 . S
C91 C89 1.361 . S
C91 C92 1.393 . S
C91 N95 1.413 . S
C92 H85 0.930 . S
C92 C91 1.393 . S
C92 C93 1.399 . S
C93 C92 1.399 . S
C93 C94 1.381 . S
C94 H86 0.930 . S
C94 C90 1.390 . S
C94 C93 1.381 . S
N95 C88 1.286 . S
N95 C91 1.413 . S
O96 Zn97 1.956 . S
O96 C112 1.225 1_545 S
Zn97 O96 1.956 . S
Zn97 O98 1.948 1_545 S
Zn97 O104 1.952 . S
Zn97 O109 1.885 1_545 S
O98 Zn97 1.948 1_565 S
O98 Zn99 1.903 1_465 S
O98 Zn100 1.952 . S
O98 Zn101 1.963 1_455 S
Zn99 O98 1.903 1_645 S
Zn99 O102 1.933 . S
Zn99 O105 1.941 1_655 S
Zn99 O106 1.962 1_655 S
Zn100 O98 1.952 . S
Zn100 O107 1.938 1_565 S
Zn100 O108 1.906 . S
Zn100 O118 1.953 . S
Zn101 O98 1.963 1_655 S
Zn101 O103 1.932 . S
Zn101 O110 1.977 . S
Zn101 O111 1.910 1_655 S
O102 Zn99 1.933 . S
O102 C113 1.226 . S
O103 Zn101 1.932 . S
O103 C113 1.307 1_565 S
O104 Zn97 1.952 . S
O104 C115 1.253 . S
O105 Zn99 1.941 1_455 S
O105 C115 1.283 . S
O106 Zn99 1.962 1_455 S
O106 C114 1.335 . S
O107 Zn100 1.938 1_545 S
O107 C114 1.247 . S
O108 Zn100 1.906 . S
O108 C116 1.304 1_455 S
O109 Zn97 1.885 1_565 S
O109 C117 1.311 . S
O110 Zn101 1.977 . S
O110 C116 1.272 . S
O111 Zn101 1.910 1_455 S
O111 C117 1.231 . S
C112 O96 1.225 1_565 S
C112 O118 1.298 . S
C113 O102 1.226 . S
C113 O103 1.307 1_545 S
C114 O106 1.335 . S
C114 O107 1.247 . S
C115 O104 1.253 . S
C115 O105 1.283 . S
C116 O108 1.304 1_655 S
C116 O110 1.272 . S
C117 O109 1.311 . S
C117 O111 1.231 . S
O118 Zn100 1.953 . S
O118 C112 1.298 . S
O119 Zn120 1.953 . S
O119 C135 1.225 . S
Zn120 O119 1.953 . S
Zn120 O121 1.949 . S
Zn120 O127 1.919 . S
Zn120 O132 1.924 . S
O121 Zn120 1.949 . S
O121 Zn122 1.923 1_545 S
O121 Zn123 1.950 . S
O121 Zn124 1.945 1_545 S
Zn122 O121 1.923 1_565 S
Zn122 O125 1.933 . S
Zn122 O128 1.941 . S
Zn122 O129 1.965 . S
Zn123 O121 1.950 . S
Zn123 O130 1.938 . S
Zn123 O131 1.906 . S
Zn123 O141 1.953 . S
Zn124 O121 1.945 1_565 S
Zn124 O126 1.932 . S
Zn124 O133 1.977 . S
Zn124 O134 1.910 1_565 S
O125 Zn122 1.933 . S
O125 C136 1.226 . S
O126 Zn124 1.932 . S
O126 C136 1.307 . S
O127 Zn120 1.919 . S
O127 C138 1.253 . S
O128 Zn122 1.941 . S
O128 C138 1.283 1_565 S
O129 Zn122 1.965 . S
O129 C137 1.303 1_565 S
O130 Zn123 1.938 . S
O130 C137 1.247 . S
O131 Zn123 1.906 . S
O131 C139 1.304 1_545 S
O132 Zn120 1.924 . S
O132 C140 1.311 . S
O133 Zn124 1.977 . S
O133 C139 1.272 . S
O134 Zn124 1.910 1_545 S
O134 C140 1.231 . S
C135 O119 1.225 . S
C135 O141 1.298 . S
C136 O125 1.226 . S
C136 O126 1.307 . S
C137 O129 1.303 1_545 S
C137 O130 1.247 . S
C138 O127 1.253 . S
C138 O128 1.283 1_545 S
C139 O131 1.304 1_565 S
C139 O133 1.272 . S
C140 O132 1.311 . S
C140 O134 1.231 . S
O141 Zn123 1.953 . S
O141 C135 1.298 . S
O142 Zn143 1.953 . S
O142 C158 1.225 . S
Zn143 O142 1.953 . S
Zn143 O144 1.949 . S
Zn143 O150 1.919 . S
Zn143 O155 1.924 . S
O144 Zn143 1.949 . S
O144 Zn145 1.923 . S
O144 Zn146 1.950 . S
O144 Zn147 1.945 . S
Zn145 O144 1.923 . S
Zn145 O148 1.933 . S
Zn145 O151 1.941 . S
Zn145 O152 1.965 . S
Zn146 O144 1.950 . S
Zn146 O153 1.938 . S
Zn146 O154 1.906 . S
Zn146 O164 1.953 . S
Zn147 O144 1.945 . S
Zn147 O149 1.932 . S
Zn147 O156 1.977 . S
Zn147 O157 1.910 . S
O148 Zn145 1.933 . S
O148 C159 1.226 . S
O149 Zn147 1.932 . S
O149 C159 1.307 . S
O150 Zn143 1.919 . S
O150 C161 1.253 . S
O151 Zn145 1.941 . S
O151 C161 1.283 . S
O152 Zn145 1.965 . S
O152 C160 1.303 . S
O153 Zn146 1.938 . S
O153 C160 1.247 . S
O154 Zn146 1.906 . S
O154 C162 1.304 . S
O155 Zn143 1.924 . S
O155 C163 1.311 . S
O156 Zn147 1.977 . S
O156 C162 1.272 . S
O157 Zn147 1.910 . S
O157 C163 1.231 . S
C158 O142 1.225 . S
C158 O164 1.298 . S
C159 O148 1.226 . S
C159 O149 1.307 . S
C160 O152 1.303 . S
C160 O153 1.247 . S
C161 O150 1.253 . S
C161 O151 1.283 . S
C162 O154 1.304 . S
C162 O156 1.272 . S
C163 O155 1.311 . S
C163 O157 1.231 . S
O164 Zn146 1.953 . S
O164 C158 1.298 . S
O165 Zn166 1.926 1_655 S
O165 C181 1.225 . S
Zn166 O165 1.926 1_455 S
Zn166 O167 1.949 . S
Zn166 O173 1.919 . S
Zn166 O178 1.952 . S
O167 Zn166 1.949 . S
O167 Zn168 1.918 1_455 S
O167 Zn169 1.929 1_455 S
O167 Zn170 1.973 . S
Zn168 O167 1.918 1_655 S
Zn168 O171 1.933 1_655 S
Zn168 O174 1.941 . S
Zn168 O175 1.965 . S
Zn169 O167 1.929 1_655 S
Zn169 O176 1.938 . S
Zn169 O177 1.906 . S
Zn169 O187 1.953 . S
Zn170 O167 1.973 . S
Zn170 O172 1.932 . S
Zn170 O179 1.977 . S
Zn170 O180 1.910 . S
O171 Zn168 1.933 1_455 S
O171 C182 1.226 . S
O172 Zn170 1.932 . S
O172 C182 1.307 . S
O173 Zn166 1.919 . S
O173 C184 1.252 . S
O174 Zn168 1.941 . S
O174 C184 1.284 1_655 S
O175 Zn168 1.965 . S
O175 C183 1.303 . S
O176 Zn169 1.938 . S
O176 C183 1.247 . S
O177 Zn169 1.906 . S
O177 C185 1.304 1_655 S
O178 Zn166 1.952 . S
O178 C186 1.311 . S
O179 Zn170 1.977 . S
O179 C185 1.272 . S
O180 Zn170 1.910 . S
O180 C186 1.231 . S
C181 O165 1.225 . S
C181 O187 1.298 . S
C182 O171 1.226 . S
C182 O172 1.307 . S
C183 O175 1.303 . S
C183 O176 1.247 . S
C184 O173 1.252 . S
C184 O174 1.284 1_455 S
C185 O177 1.304 1_455 S
C185 O179 1.272 . S
C186 O178 1.311 . S
C186 O180 1.231 . S
O187 Zn169 1.953 . S
O187 C181 1.298 . S
H188 C206 0.951 . S
H189 C208 0.951 . S
H190 C210 0.950 . S
H191 C211 0.950 . S
H192 C213 0.950 . S
H193 C216 0.950 . S
H194 C217 0.950 . S
H195 C219 0.950 . S
H196 C220 0.950 . S
H197 C221 0.951 . S
H198 C223 0.951 . S
H199 C225 0.950 . S
H200 C226 0.950 . S
H201 C228 0.950 . S
H202 C231 0.950 . S
H203 C232 0.950 . S
H204 C234 0.950 . S
H205 C235 0.950 . S
C206 H188 0.951 . S
C206 C207 1.366 . S
C206 C208 1.388 . S
C207 C206 1.366 . S
C207 C211 1.385 1_545 S
C208 H189 0.951 . S
C208 C206 1.388 . S
C208 C209 1.366 . S
C209 C208 1.366 . S
C209 C210 1.414 1_545 S
C209 C212 1.499 . S
C210 H190 0.950 . S
C210 C209 1.414 1_565 S
C210 C211 1.374 . S
C211 H191 0.950 . S
C211 C207 1.385 1_565 S
C211 C210 1.374 . S
C212 C209 1.499 . S
C212 C213 1.373 1_545 S
C212 C214 1.389 . S
C213 H192 0.950 . S
C213 C212 1.373 1_565 S
C213 C229 1.377 . S
C214 C212 1.389 . S
C214 C215 1.524 . S
C214 C228 1.377 . S
C215 C214 1.524 . S
C215 C216 1.397 . S
C215 C220 1.363 . S
C216 H193 0.950 . S
C216 C215 1.397 . S
C216 C217 1.334 . S
C217 H194 0.950 . S
C217 C216 1.334 . S
C217 C218 1.287 . S
C218 C217 1.287 . S
C218 C219 1.524 . S
C218 H237 0.913 . S
C219 H195 0.950 . S
C219 C218 1.524 . S
C219 C220 1.415 . S
C220 H196 0.950 . S
C220 C215 1.363 . S
C220 C219 1.415 . S
C221 H197 0.951 . S
C221 C222 1.366 . S
C221 C223 1.388 . S
C222 C221 1.366 . S
C222 C226 1.385 1_565 S
C223 H198 0.951 . S
C223 C221 1.388 . S
C223 C224 1.362 1_565 S
C224 C223 1.362 1_545 S
C224 C225 1.417 . S
C224 C227 1.499 . S
C225 H199 0.950 . S
C225 C224 1.417 . S
C225 C226 1.374 . S
C226 H200 0.950 . S
C226 C222 1.385 1_545 S
C226 C225 1.374 . S
C227 C224 1.499 . S
C227 C228 1.373 . S
C227 C229 1.389 1_545 S
C228 H201 0.950 . S
C228 C214 1.377 . S
C228 C227 1.373 . S
C229 C213 1.377 . S
C229 C227 1.389 1_565 S
C229 C230 1.524 . S
C230 C229 1.524 . S
C230 C231 1.397 . S
C230 C235 1.363 . S
C231 H202 0.950 . S
C231 C230 1.397 . S
C231 C232 1.334 . S
C232 H203 0.950 . S
C232 C231 1.334 . S
C232 C233 1.287 . S
C233 C232 1.287 . S
C233 C234 1.524 . S
C233 H236 0.999 . S
C234 H204 0.950 . S
C234 C233 1.524 . S
C234 C235 1.415 . S
C235 H205 0.950 . S
C235 C230 1.363 . S
C235 C234 1.415 . S
H236 C233 0.999 . S
H237 C218 0.913 . S
H238 C256 0.951 . S
H239 C258 0.951 . S
H240 C260 0.950 . S
H241 C261 0.950 . S
H242 C263 0.950 . S
H243 C266 0.950 . S
H244 C267 0.950 . S
H245 C269 0.950 . S
H246 C270 0.950 . S
H247 C271 0.951 . S
H248 C273 0.951 . S
H249 C275 0.950 . S
H250 C276 0.950 . S
H251 C278 0.950 . S
H252 C281 0.950 . S
H253 C282 0.950 . S
H254 C284 0.950 . S
H255 C285 0.950 . S
C256 H238 0.951 . S
C256 C257 1.366 . S
C256 C258 1.388 . S
C257 C256 1.366 . S
C257 C261 1.385 . S
C258 H239 0.951 . S
C258 C256 1.388 . S
C258 C259 1.366 . S
C259 C258 1.366 . S
C259 C260 1.414 . S
C259 C262 1.499 . S
C260 H240 0.950 . S
C260 C259 1.414 . S
C260 C261 1.374 . S
C261 H241 0.950 . S
C261 C257 1.385 . S
C261 C260 1.374 . S
C262 C259 1.499 . S
C262 C263 1.373 . S
C262 C264 1.389 . S
C263 H242 0.950 . S
C263 C262 1.373 . S
C263 C279 1.377 . S
C264 C262 1.389 . S
C264 C265 1.524 . S
C264 C278 1.377 . S
C265 C264 1.524 . S
C265 C266 1.397 . S
C265 C270 1.363 . S
C266 H243 0.950 . S
C266 C265 1.397 . S
C266 C267 1.334 . S
C267 H244 0.950 . S
C267 C266 1.334 . S
C267 C268 1.287 . S
C268 C267 1.287 . S
C268 C269 1.524 . S
C268 H287 0.913 . S
C269 H245 0.950 . S
C269 C268 1.524 . S
C269 C270 1.415 . S
C270 H246 0.950 . S
C270 C265 1.363 . S
C270 C269 1.415 . S
C271 H247 0.951 . S
C271 C272 1.366 . S
C271 C273 1.388 . S
C272 C271 1.366 . S
C272 C276 1.385 . S
C273 H248 0.951 . S
C273 C271 1.388 . S
C273 C274 1.366 . S
C274 C273 1.366 . S
C274 C275 1.414 . S
C274 C277 1.499 . S
C275 H249 0.950 . S
C275 C274 1.414 . S
C275 C276 1.374 . S
C276 H250 0.950 . S
C276 C272 1.385 . S
C276 C275 1.374 . S
C277 C274 1.499 . S
C277 C278 1.373 . S
C277 C279 1.389 . S
C278 H251 0.950 . S
C278 C264 1.377 . S
C278 C277 1.373 . S
C279 C263 1.377 . S
C279 C277 1.389 . S
C279 C280 1.524 . S
C280 C279 1.524 . S
C280 C281 1.397 . S
C280 C285 1.363 . S
C281 H252 0.950 . S
C281 C280 1.397 . S
C281 C282 1.334 . S
C282 H253 0.950 . S
C282 C281 1.334 . S
C282 C283 1.287 . S
C283 C282 1.287 . S
C283 C284 1.524 . S
C283 H286 0.999 . S
C284 H254 0.950 . S
C284 C283 1.524 . S
C284 C285 1.415 . S
C285 H255 0.950 . S
C285 C280 1.363 . S
C285 C284 1.415 . S
H286 C283 0.999 . S
H287 C268 0.913 . S
H288 C306 0.951 . S
H289 C308 0.951 . S
H290 C310 0.950 . S
H291 C311 0.950 . S
H292 C313 0.950 . S
H293 C316 0.950 . S
H294 C317 0.950 . S
H295 C319 0.950 . S
H296 C320 0.950 . S
H297 C321 0.951 . S
H298 C323 0.951 . S
H299 C325 0.950 . S
H300 C326 0.950 . S
H301 C328 0.950 . S
H302 C331 0.950 . S
H303 C332 0.950 . S
H304 C334 0.950 . S
H305 C335 0.950 . S
C306 H288 0.951 . S
C306 C307 1.366 . S
C306 C308 1.388 . S
C307 C306 1.366 . S
C307 C311 1.385 . S
C308 H289 0.951 . S
C308 C306 1.388 . S
C308 C309 1.366 . S
C309 C308 1.366 . S
C309 C310 1.414 . S
C309 C312 1.499 . S
C310 H290 0.950 . S
C310 C309 1.414 . S
C310 C311 1.374 . S
C311 H291 0.950 . S
C311 C307 1.385 . S
C311 C310 1.374 . S
C312 C309 1.499 . S
C312 C313 1.373 . S
C312 C314 1.389 . S
C313 H292 0.950 . S
C313 C312 1.373 . S
C313 C329 1.377 . S
C314 C312 1.389 . S
C314 C315 1.524 . S
C314 C328 1.377 . S
C315 C314 1.524 . S
C315 C316 1.397 . S
C315 C320 1.363 . S
C316 H293 0.950 . S
C316 C315 1.397 . S
C316 C317 1.334 . S
C317 H294 0.950 . S
C317 C316 1.334 . S
C317 C318 1.287 . S
C318 C317 1.287 . S
C318 C319 1.524 . S
C318 H337 0.913 . S
C319 H295 0.950 . S
C319 C318 1.524 . S
C319 C320 1.415 . S
C320 H296 0.950 . S
C320 C315 1.363 . S
C320 C319 1.415 . S
C321 H297 0.951 . S
C321 C322 1.366 . S
C321 C323 1.388 . S
C322 C321 1.366 . S
C322 C326 1.385 . S
C323 H298 0.951 . S
C323 C321 1.388 . S
C323 C324 1.366 . S
C324 C323 1.366 . S
C324 C325 1.414 . S
C324 C327 1.499 . S
C325 H299 0.950 . S
C325 C324 1.414 . S
C325 C326 1.374 . S
C326 H300 0.950 . S
C326 C322 1.385 . S
C326 C325 1.374 . S
C327 C324 1.499 . S
C327 C328 1.373 . S
C327 C329 1.389 . S
C328 H301 0.950 . S
C328 C314 1.377 . S
C328 C327 1.373 . S
C329 C313 1.377 . S
C329 C327 1.389 . S
C329 C330 1.524 . S
C330 C329 1.524 . S
C330 C331 1.397 . S
C330 C335 1.363 . S
C331 H302 0.950 . S
C331 C330 1.397 . S
C331 C332 1.334 . S
C332 H303 0.950 . S
C332 C331 1.334 . S
C332 C333 1.287 . S
C333 C332 1.287 . S
C333 C334 1.524 . S
C333 H336 0.999 . S
C334 H304 0.950 . S
C334 C333 1.524 . S
C334 C335 1.415 . S
C335 H305 0.950 . S
C335 C330 1.363 . S
C335 C334 1.415 . S
H336 C333 0.999 . S
H337 C318 0.913 . S
H338 C356 0.951 . S
H339 C358 0.951 . S
H340 C360 0.950 . S
H341 C361 0.950 . S
H342 C363 0.950 . S
H343 C366 0.950 . S
H344 C367 0.950 . S
H345 C369 0.950 . S
H346 C370 0.950 . S
H347 C371 0.951 . S
H348 C373 0.951 . S
H349 C375 0.950 . S
H350 C376 0.950 . S
H351 C378 0.950 1_655 S
H352 C381 0.950 . S
H353 C382 0.950 . S
H354 C384 0.950 . S
H355 C385 0.950 . S
C356 H338 0.951 . S
C356 C357 1.366 . S
C356 C358 1.388 . S
C357 C356 1.366 . S
C357 C361 1.385 . S
C358 H339 0.951 . S
C358 C356 1.388 . S
C358 C359 1.366 . S
C359 C358 1.366 . S
C359 C360 1.414 . S
C359 C362 1.499 . S
C360 H340 0.950 . S
C360 C359 1.414 . S
C360 C361 1.374 . S
C361 H341 0.950 . S
C361 C357 1.385 . S
C361 C360 1.374 . S
C362 C359 1.499 . S
C362 C363 1.373 . S
C362 C364 1.389 . S
C363 H342 0.950 . S
C363 C362 1.373 . S
C363 C379 1.377 . S
C364 C362 1.389 . S
C364 C365 1.524 1_455 S
C364 C378 1.377 . S
C365 C364 1.524 1_655 S
C365 C366 1.397 . S
C365 C370 1.363 . S
C366 H343 0.950 . S
C366 C365 1.397 . S
C366 C367 1.334 . S
C367 H344 0.950 . S
C367 C366 1.334 . S
C367 C368 1.287 . S
C368 C367 1.287 . S
C368 C369 1.524 . S
C368 H387 0.913 . S
C369 H345 0.950 . S
C369 C368 1.524 . S
C369 C370 1.415 . S
C370 H346 0.950 . S
C370 C365 1.363 . S
C370 C369 1.415 . S
C371 H347 0.951 . S
C371 C372 1.366 . S
C371 C373 1.388 . S
C372 C371 1.366 . S
C372 C376 1.385 . S
C373 H348 0.951 . S
C373 C371 1.388 . S
C373 C374 1.366 . S
C374 C373 1.366 . S
C374 C375 1.414 . S
C374 C377 1.499 . S
C375 H349 0.950 . S
C375 C374 1.414 . S
C375 C376 1.374 . S
C376 H350 0.950 . S
C376 C372 1.385 . S
C376 C375 1.374 . S
C377 C374 1.499 . S
C377 C378 1.373 . S
C377 C379 1.389 . S
C378 H351 0.950 1_455 S
C378 C364 1.377 . S
C378 C377 1.373 . S
C379 C363 1.377 . S
C379 C377 1.389 . S
C379 C380 1.524 . S
C380 C379 1.524 . S
C380 C381 1.397 . S
C380 C385 1.363 . S
C381 H352 0.950 . S
C381 C380 1.397 . S
C381 C382 1.334 . S
C382 H353 0.950 . S
C382 C381 1.334 . S
C382 C383 1.287 . S
C383 C382 1.287 . S
C383 C384 1.524 . S
C383 H386 0.999 . S
C384 H354 0.950 . S
C384 C383 1.524 . S
C384 C385 1.415 . S
C385 H355 0.950 . S
C385 C380 1.363 . S
C385 C384 1.415 . S
H386 C383 0.999 . S
H387 C368 0.913 . S
H388 C406 0.953 . S
H389 C408 0.951 . S
H390 C410 0.951 . S
H391 C411 0.953 . S
H392 C413 0.950 . S
H393 C416 0.950 . S
H394 C417 0.950 . S
H395 C419 0.950 . S
H396 C420 0.950 . S
H397 C421 0.951 . S
H398 C423 0.950 . S
H399 C425 0.950 . S
H400 C426 0.950 . S
H401 C428 0.950 . S
H402 C431 0.950 . S
H403 C432 0.950 . S
H404 C434 0.950 . S
H405 C435 0.950 . S
C406 H388 0.953 . S
C406 C407 1.365 1_545 S
C406 C408 1.389 . S
C407 C406 1.365 1_565 S
C407 C411 1.384 1_554 S
C408 H389 0.951 . S
C408 C406 1.389 . S
C408 C409 1.366 1_554 S
C409 C408 1.366 1_556 S
C409 C410 1.413 1_545 S
C409 C412 1.499 . S
C410 H390 0.951 . S
C410 C409 1.413 1_565 S
C410 C411 1.374 . S
C411 H391 0.953 . S
C411 C407 1.384 1_556 S
C411 C410 1.374 . S
C412 C409 1.499 . S
C412 C413 1.373 1_545 S
C412 C414 1.389 . S
C413 H392 0.950 . S
C413 C412 1.373 1_565 S
C413 C429 1.377 . S
C414 C412 1.389 . S
C414 C415 1.524 . S
C414 C428 1.377 . S
C415 C414 1.524 . S
C415 C416 1.397 . S
C415 C420 1.363 1_556 S
C416 H393 0.950 . S
C416 C415 1.397 . S
C416 C417 1.334 1_556 S
C417 H394 0.950 . S
C417 C416 1.334 1_554 S
C417 C418 1.287 . S
C418 C417 1.287 . S
C418 C419 1.524 . S
C418 H437 0.913 . S
C419 H395 0.950 . S
C419 C418 1.524 . S
C419 C420 1.415 . S
C420 H396 0.950 . S
C420 C415 1.363 1_554 S
C420 C419 1.415 . S
C421 H397 0.951 . S
C421 C422 1.367 . S
C421 C423 1.387 1_545 S
C422 C421 1.367 . S
C422 C426 1.385 . S
C423 H398 0.950 . S
C423 C421 1.387 1_565 S
C423 C424 1.366 1_565 S
C424 C423 1.366 1_545 S
C424 C425 1.414 . S
C424 C427 1.499 1_545 S
C425 H399 0.950 . S
C425 C424 1.414 . S
C425 C426 1.374 . S
C426 H400 0.950 . S
C426 C422 1.385 . S
C426 C425 1.374 . S
C427 C424 1.499 1_565 S
C427 C428 1.367 1_565 S
C427 C429 1.395 . S
C428 H401 0.950 . S
C428 C414 1.377 . S
C428 C427 1.367 1_545 S
C429 C413 1.377 . S
C429 C427 1.395 . S
C429 C430 1.524 . S
C430 C429 1.524 . S
C430 C431 1.397 . S
C430 C435 1.363 . S
C431 H402 0.950 . S
C431 C430 1.397 . S
C431 C432 1.334 . S
C432 H403 0.950 . S
C432 C431 1.334 . S
C432 C433 1.287 . S
C433 C432 1.287 . S
C433 C434 1.524 . S
C433 H436 0.999 . S
C434 H404 0.950 . S
C434 C433 1.524 . S
C434 C435 1.415 . S
C435 H405 0.950 . S
C435 C430 1.363 . S
C435 C434 1.415 . S
H436 C433 0.999 . S
H437 C418 0.913 . S
H438 C456 0.951 . S
H439 C458 0.951 . S
H440 C460 0.950 . S
H441 C461 0.950 . S
H442 C463 0.950 . S
H443 C466 0.950 . S
H444 C467 0.950 . S
H445 C469 0.950 . S
H446 C470 0.950 . S
H447 C471 0.951 . S
H448 C473 0.951 . S
H449 C475 0.950 . S
H450 C476 0.950 . S
H451 C478 0.950 . S
H452 C481 0.950 . S
H453 C482 0.950 . S
H454 C484 0.950 1_554 S
H455 C485 0.950 . S
C456 H438 0.951 . S
C456 C457 1.366 . S
C456 C458 1.388 . S
C457 C456 1.366 . S
C457 C461 1.385 1_556 S
C458 H439 0.951 . S
C458 C456 1.388 . S
C458 C459 1.366 . S
C459 C458 1.366 . S
C459 C460 1.414 1_556 S
C459 C462 1.499 . S
C460 H440 0.950 . S
C460 C459 1.414 1_554 S
C460 C461 1.374 . S
C461 H441 0.950 . S
C461 C457 1.385 1_554 S
C461 C460 1.374 . S
C462 C459 1.499 . S
C462 C463 1.373 . S
C462 C464 1.389 . S
C463 H442 0.950 . S
C463 C462 1.373 . S
C463 C479 1.377 . S
C464 C462 1.389 . S
C464 C465 1.524 . S
C464 C478 1.377 . S
C465 C464 1.524 . S
C465 C466 1.397 . S
C465 C470 1.363 . S
C466 H443 0.950 . S
C466 C465 1.397 . S
C466 C467 1.334 . S
C467 H444 0.950 . S
C467 C466 1.334 . S
C467 C468 1.287 . S
C468 C467 1.287 . S
C468 C469 1.524 . S
C468 H487 0.913 . S
C469 H445 0.950 . S
C469 C468 1.524 . S
C469 C470 1.415 . S
C470 H446 0.950 . S
C470 C465 1.363 . S
C470 C469 1.415 . S
C471 H447 0.951 . S
C471 C472 1.366 . S
C471 C473 1.388 . S
C472 C471 1.366 . S
C472 C476 1.385 . S
C473 H448 0.951 . S
C473 C471 1.388 . S
C473 C474 1.366 . S
C474 C473 1.366 . S
C474 C475 1.414 . S
C474 C477 1.499 . S
C475 H449 0.950 . S
C475 C474 1.414 . S
C475 C476 1.374 . S
C476 H450 0.950 . S
C476 C472 1.385 . S
C476 C475 1.374 . S
C477 C474 1.499 . S
C477 C478 1.373 . S
C477 C479 1.389 . S
C478 H451 0.950 . S
C478 C464 1.377 . S
C478 C477 1.373 . S
C479 C463 1.377 . S
C479 C477 1.389 . S
C479 C480 1.524 . S
C480 C479 1.524 . S
C480 C481 1.397 . S
C480 C485 1.363 . S
C481 H452 0.950 . S
C481 C480 1.397 . S
C481 C482 1.334 . S
C482 H453 0.950 . S
C482 C481 1.334 . S
C482 C483 1.287 . S
C483 C482 1.287 . S
C483 C484 1.524 . S
C483 H486 0.999 . S
C484 H454 0.950 1_556 S
C484 C483 1.524 . S
C484 C485 1.415 . S
C485 H455 0.950 . S
C485 C480 1.363 . S
C485 C484 1.415 . S
H486 C483 0.999 . S
H487 C468 0.913 . S
H488 C506 0.951 . S
H489 C508 0.951 . S
H490 C510 0.950 . S
H491 C511 0.948 . S
H492 C513 0.950 . S
H493 C516 0.950 . S
H494 C517 0.950 . S
H495 C519 0.950 . S
H496 C520 0.950 . S
H497 C521 0.951 . S
H498 C523 0.951 . S
H499 C525 0.950 . S
H500 C526 0.950 . S
H501 C528 0.950 . S
H502 C531 0.950 . S
H503 C532 0.950 . S
H504 C534 0.950 . S
H505 C535 0.950 . S
C506 H488 0.951 . S
C506 C507 1.366 . S
C506 C508 1.388 . S
C507 C506 1.366 . S
C507 C511 1.385 1_556 S
C508 H489 0.951 . S
C508 C506 1.388 . S
C508 C509 1.366 . S
C509 C508 1.366 . S
C509 C510 1.414 . S
C509 C512 1.499 . S
C510 H490 0.950 . S
C510 C509 1.414 . S
C510 C511 1.375 1_556 S
C511 H491 0.948 . S
C511 C507 1.385 1_554 S
C511 C510 1.375 1_554 S
C512 C509 1.499 . S
C512 C513 1.373 . S
C512 C514 1.389 . S
C513 H492 0.950 . S
C513 C512 1.373 . S
C513 C529 1.377 . S
C514 C512 1.389 . S
C514 C515 1.524 . S
C514 C528 1.377 . S
C515 C514 1.524 . S
C515 C516 1.397 . S
C515 C520 1.363 . S
C516 H493 0.950 . S
C516 C515 1.397 . S
C516 C517 1.334 . S
C517 H494 0.950 . S
C517 C516 1.334 . S
C517 C518 1.287 . S
C518 C517 1.287 . S
C518 C519 1.524 . S
C518 H537 0.913 . S
C519 H495 0.950 . S
C519 C518 1.524 . S
C519 C520 1.415 . S
C520 H496 0.950 . S
C520 C515 1.363 . S
C520 C519 1.415 . S
C521 H497 0.951 . S
C521 C522 1.366 . S
C521 C523 1.388 . S
C522 C521 1.366 . S
C522 C526 1.385 . S
C523 H498 0.951 . S
C523 C521 1.388 . S
C523 C524 1.366 . S
C524 C523 1.366 . S
C524 C525 1.414 . S
C524 C527 1.499 . S
C525 H499 0.950 . S
C525 C524 1.414 . S
C525 C526 1.374 . S
C526 H500 0.950 . S
C526 C522 1.385 . S
C526 C525 1.374 . S
C527 C524 1.499 . S
C527 C528 1.373 . S
C527 C529 1.389 . S
C528 H501 0.950 . S
C528 C514 1.377 . S
C528 C527 1.373 . S
C529 C513 1.377 . S
C529 C527 1.389 . S
C529 C530 1.524 . S
C530 C529 1.524 . S
C530 C531 1.397 . S
C530 C535 1.363 . S
C531 H502 0.950 . S
C531 C530 1.397 . S
C531 C532 1.334 . S
C532 H503 0.950 . S
C532 C531 1.334 . S
C532 C533 1.287 . S
C533 C532 1.287 . S
C533 C534 1.524 1_556 S
C533 H536 0.999 . S
C534 H504 0.950 . S
C534 C533 1.524 1_554 S
C534 C535 1.415 1_554 S
C535 H505 0.950 . S
C535 C530 1.363 . S
C535 C534 1.415 1_556 S
H536 C533 0.999 . S
H537 C518 0.913 . S
H538 C556 0.951 . S
H539 C558 0.951 . S
H540 C560 0.950 . S
H541 C561 0.950 . S
H542 C563 0.950 1_554 S
H543 C566 0.950 . S
H544 C567 0.950 . S
H545 C569 0.950 . S
H546 C570 0.950 . S
H547 C571 0.951 . S
H548 C573 0.951 . S
H549 C575 0.950 . S
H550 C576 0.950 . S
H551 C578 0.950 . S
H552 C581 0.950 . S
H553 C582 0.950 . S
H554 C584 0.950 . S
H555 C585 0.950 . S
C556 H538 0.951 . S
C556 C557 1.366 1_455 S
C556 C558 1.388 1_554 S
C557 C556 1.366 1_655 S
C557 C561 1.385 . S
C558 H539 0.951 . S
C558 C556 1.388 1_556 S
C558 C559 1.338 1_455 S
C559 C558 1.338 1_655 S
C559 C560 1.443 1_556 S
C559 C562 1.499 . S
C560 H540 0.950 . S
C560 C559 1.443 1_554 S
C560 C561 1.374 . S
C561 H541 0.950 . S
C561 C557 1.385 . S
C561 C560 1.374 . S
C562 C559 1.499 . S
C562 C563 1.374 . S
C562 C564 1.386 1_655 S
C563 H542 0.950 1_556 S
C563 C562 1.374 . S
C563 C579 1.372 1_655 S
C564 C562 1.386 1_455 S
C564 C565 1.526 . S
C564 C578 1.377 . S
C565 C564 1.526 . S
C565 C566 1.380 1_455 S
C565 C570 1.377 . S
C566 H543 0.950 . S
C566 C565 1.380 1_655 S
C566 C567 1.334 . S
C567 H544 0.950 . S
C567 C566 1.334 . S
C567 C568 1.287 . S
C568 C567 1.287 . S
C568 C569 1.524 1_655 S
C568 H587 0.913 . S
C569 H545 0.950 . S
C569 C568 1.524 1_455 S
C569 C570 1.415 . S
C570 H546 0.950 . S
C570 C565 1.377 . S
C570 C569 1.415 . S
C571 H547 0.951 . S
C571 C572 1.366 1_655 S
C571 C573 1.388 . S
C572 C571 1.366 1_455 S
C572 C576 1.385 . S
C573 H548 0.951 . S
C573 C571 1.388 . S
C573 C574 1.366 1_655 S
C574 C573 1.366 1_455 S
C574 C575 1.414 . S
C574 C577 1.499 . S
C575 H549 0.950 . S
C575 C574 1.414 . S
C575 C576 1.374 . S
C576 H550 0.950 . S
C576 C572 1.385 . S
C576 C575 1.374 . S
C577 C574 1.499 . S
C577 C578 1.373 . S
C577 C579 1.395 . S
C578 H551 0.950 . S
C578 C564 1.377 . S
C578 C577 1.373 . S
C579 C563 1.372 1_455 S
C579 C577 1.395 . S
C579 C580 1.528 . S
C580 C579 1.528 . S
C580 C581 1.397 . S
C580 C585 1.363 1_456 S
C581 H552 0.950 . S
C581 C580 1.397 . S
C581 C582 1.334 . S
C582 H553 0.950 . S
C582 C581 1.334 . S
C582 C583 1.287 1_556 S
C583 C582 1.287 1_554 S
C583 C584 1.524 1_455 S
C583 H586 0.999 . S
C584 H554 0.950 . S
C584 C583 1.524 1_655 S
C584 C585 1.415 . S
C585 H555 0.950 . S
C585 C580 1.363 1_654 S
C585 C584 1.415 . S
H586 C583 0.999 . S
H587 C568 0.913 . S
H588 C606 0.951 . S
H589 C608 0.951 . S
H590 C610 0.950 . S
H591 C611 0.950 . S
H592 C613 0.950 . S
H593 C616 0.950 . S
H594 C617 0.950 . S
H595 C619 0.950 . S
H596 C620 0.950 . S
H597 C621 0.951 . S
H598 C623 0.951 . S
H599 C625 0.950 . S
H600 C626 0.950 . S
H601 C628 0.944 . S
H602 C631 0.950 . S
H603 C632 0.950 . S
H604 C634 0.950 . S
H605 C635 0.950 . S
C606 H588 0.951 . S
C606 C607 1.366 . S
C606 C608 1.388 . S
C607 C606 1.366 . S
C607 C611 1.385 . S
C608 H589 0.951 . S
C608 C606 1.388 . S
C608 C609 1.366 . S
C609 C608 1.366 . S
C609 C610 1.414 . S
C609 C612 1.499 . S
C610 H590 0.950 . S
C610 C609 1.414 . S
C610 C611 1.374 . S
C611 H591 0.950 . S
C611 C607 1.385 . S
C611 C610 1.374 . S
C612 C609 1.499 . S
C612 C613 1.373 . S
C612 C614 1.389 . S
C613 H592 0.950 . S
C613 C612 1.373 . S
C613 C629 1.377 . S
C614 C612 1.389 . S
C614 C615 1.524 1_455 S
C614 C628 1.377 . S
C615 C614 1.524 1_655 S
C615 C616 1.397 . S
C615 C620 1.363 . S
C616 H593 0.950 . S
C616 C615 1.397 . S
C616 C617 1.334 . S
C617 H594 0.950 . S
C617 C616 1.334 . S
C617 C618 1.287 . S
C618 C617 1.287 . S
C618 C619 1.524 . S
C618 H637 0.913 . S
C619 H595 0.950 . S
C619 C618 1.524 . S
C619 C620 1.415 . S
C620 H596 0.950 . S
C620 C615 1.363 . S
C620 C619 1.415 . S
C621 H597 0.951 . S
C621 C622 1.366 . S
C621 C623 1.388 . S
C622 C621 1.366 . S
C622 C626 1.385 . S
C623 H598 0.951 . S
C623 C621 1.388 . S
C623 C624 1.366 . S
C624 C623 1.366 . S
C624 C625 1.414 . S
C624 C627 1.499 . S
C625 H599 0.950 . S
C625 C624 1.414 . S
C625 C626 1.374 . S
C626 H600 0.950 . S
C626 C622 1.385 . S
C626 C625 1.374 . S
C627 C624 1.499 . S
C627 C628 1.373 . S
C627 C629 1.389 . S
C628 H601 0.944 . S
C628 C614 1.377 . S
C628 C627 1.373 . S
C629 C613 1.377 . S
C629 C627 1.389 . S
C629 C630 1.524 . S
C630 C629 1.524 . S
C630 C631 1.397 . S
C630 C635 1.363 . S
C631 H602 0.950 . S
C631 C630 1.397 . S
C631 C632 1.334 . S
C632 H603 0.950 . S
C632 C631 1.334 . S
C632 C633 1.287 . S
C633 C632 1.287 . S
C633 C634 1.524 . S
C633 H636 0.999 . S
C634 H604 0.950 . S
C634 C633 1.524 . S
C634 C635 1.415 . S
C635 H605 0.950 . S
C635 C630 1.363 . S
C635 C634 1.415 . S
H636 C633 0.999 . S
H637 C618 0.913 . S
H638 C656 0.951 . S
H639 C658 0.951 . S
H640 C660 0.950 . S
H641 C661 0.950 . S
H642 C663 0.950 . S
H643 C666 0.950 . S
H644 C667 0.950 . S
H645 C669 0.950 . S
H646 C670 0.950 . S
H647 C671 0.951 . S
H648 C673 0.951 . S
H649 C675 0.950 . S
H650 C676 0.950 . S
H651 C678 0.950 . S
H652 C681 0.950 . S
H653 C682 0.950 . S
H654 C684 0.950 . S
H655 C685 0.950 . S
C656 H638 0.951 . S
C656 C657 1.366 . S
C656 C658 1.388 . S
C657 C656 1.366 . S
C657 C661 1.385 . S
C658 H639 0.951 . S
C658 C656 1.388 . S
C658 C659 1.366 . S
C659 C658 1.366 . S
C659 C660 1.414 . S
C659 C662 1.499 . S
C660 H640 0.950 . S
C660 C659 1.414 . S
C660 C661 1.374 . S
C661 H641 0.950 . S
C661 C657 1.385 . S
C661 C660 1.374 . S
C662 C659 1.499 . S
C662 C663 1.373 . S
C662 C664 1.389 1_545 S
C663 H642 0.950 . S
C663 C662 1.373 . S
C663 C679 1.377 . S
C664 C662 1.389 1_565 S
C664 C665 1.524 . S
C664 C678 1.377 . S
C665 C664 1.524 . S
C665 C666 1.397 . S
C665 C670 1.363 . S
C666 H643 0.950 . S
C666 C665 1.397 . S
C666 C667 1.334 . S
C667 H644 0.950 . S
C667 C666 1.334 . S
C667 C668 1.287 . S
C668 C667 1.287 . S
C668 C669 1.524 . S
C668 H687 0.913 . S
C669 H645 0.950 . S
C669 C668 1.524 . S
C669 C670 1.415 . S
C670 H646 0.950 . S
C670 C665 1.363 . S
C670 C669 1.415 . S
C671 H647 0.951 . S
C671 C672 1.366 . S
C671 C673 1.388 . S
C672 C671 1.366 . S
C672 C676 1.385 . S
C673 H648 0.951 . S
C673 C671 1.388 . S
C673 C674 1.366 . S
C674 C673 1.366 . S
C674 C675 1.414 . S
C674 C677 1.499 . S
C675 H649 0.950 . S
C675 C674 1.414 . S
C675 C676 1.374 . S
C676 H650 0.950 . S
C676 C672 1.385 . S
C676 C675 1.374 . S
C677 C674 1.499 . S
C677 C678 1.373 1_545 S
C677 C679 1.389 . S
C678 H651 0.950 . S
C678 C664 1.377 . S
C678 C677 1.373 1_565 S
C679 C663 1.377 . S
C679 C677 1.389 . S
C679 C680 1.524 . S
C680 C679 1.524 . S
C680 C681 1.397 . S
C680 C685 1.363 . S
C681 H652 0.950 . S
C681 C680 1.397 . S
C681 C682 1.334 . S
C682 H653 0.950 . S
C682 C681 1.334 . S
C682 C683 1.287 . S
C683 C682 1.287 . S
C683 C684 1.524 . S
C683 H686 0.999 . S
C684 H654 0.950 . S
C684 C683 1.524 . S
C684 C685 1.415 . S
C685 H655 0.950 . S
C685 C680 1.363 . S
C685 C684 1.415 . S
H686 C683 0.999 . S
H687 C668 0.913 . S
H688 C706 0.951 . S
H689 C708 0.951 . S
H690 C710 0.950 . S
H691 C711 0.950 . S
H692 C713 0.950 . S
H693 C716 0.950 . S
H694 C717 0.950 . S
H695 C719 0.950 . S
H696 C720 0.950 . S
H697 C721 0.951 . S
H698 C723 0.951 . S
H699 C725 0.950 . S
H700 C726 0.950 . S
H701 C728 0.950 . S
H702 C731 0.950 . S
H703 C732 0.950 . S
H704 C734 0.950 . S
H705 C735 0.950 . S
C706 H688 0.951 . S
C706 C707 1.366 . S
C706 C708 1.388 . S
C707 C706 1.366 . S
C707 C711 1.385 . S
C708 H689 0.951 . S
C708 C706 1.388 . S
C708 C709 1.366 . S
C709 C708 1.366 . S
C709 C710 1.414 . S
C709 C712 1.499 . S
C710 H690 0.950 . S
C710 C709 1.414 . S
C710 C711 1.374 . S
C711 H691 0.950 . S
C711 C707 1.385 . S
C711 C710 1.374 . S
C712 C709 1.499 . S
C712 C713 1.373 . S
C712 C714 1.389 . S
C713 H692 0.950 . S
C713 C712 1.373 . S
C713 C729 1.377 . S
C714 C712 1.389 . S
C714 C715 1.524 . S
C714 C728 1.377 . S
C715 C714 1.524 . S
C715 C716 1.397 . S
C715 C720 1.363 . S
C716 H693 0.950 . S
C716 C715 1.397 . S
C716 C717 1.334 . S
C717 H694 0.950 . S
C717 C716 1.334 . S
C717 C718 1.287 . S
C718 C717 1.287 . S
C718 C719 1.524 . S
C718 H737 0.913 . S
C719 H695 0.950 . S
C719 C718 1.524 . S
C719 C720 1.415 . S
C720 H696 0.950 . S
C720 C715 1.363 . S
C720 C719 1.415 . S
C721 H697 0.951 . S
C721 C722 1.366 . S
C721 C723 1.388 . S
C722 C721 1.366 . S
C722 C726 1.385 . S
C723 H698 0.951 . S
C723 C721 1.388 . S
C723 C724 1.366 . S
C724 C723 1.366 . S
C724 C725 1.414 . S
C724 C727 1.499 . S
C725 H699 0.950 . S
C725 C724 1.414 . S
C725 C726 1.374 . S
C726 H700 0.950 . S
C726 C722 1.385 . S
C726 C725 1.374 . S
C727 C724 1.499 . S
C727 C728 1.373 . S
C727 C729 1.389 . S
C728 H701 0.950 . S
C728 C714 1.377 . S
C728 C727 1.373 . S
C729 C713 1.377 . S
C729 C727 1.389 . S
C729 C730 1.524 . S
C730 C729 1.524 . S
C730 C731 1.397 . S
C730 C735 1.363 . S
C731 H702 0.950 . S
C731 C730 1.397 . S
C731 C732 1.334 . S
C732 H703 0.950 . S
C732 C731 1.334 . S
C732 C733 1.287 . S
C733 C732 1.287 . S
C733 C734 1.524 . S
C733 H736 0.999 . S
C734 H704 0.950 . S
C734 C733 1.524 . S
C734 C735 1.415 . S
C735 H705 0.950 . S
C735 C730 1.363 . S
C735 C734 1.415 . S
H736 C733 0.999 . S
H737 C718 0.913 . S
H738 C756 0.951 . S
H739 C758 0.951 . S
H740 C760 0.950 . S
H741 C761 0.950 . S
H742 C763 0.950 . S
H743 C766 0.950 . S
H744 C767 0.950 . S
H745 C769 0.950 . S
H746 C770 0.950 . S
H747 C771 0.951 . S
H748 C773 0.951 . S
H749 C775 0.950 . S
H750 C776 0.950 . S
H751 C778 0.950 . S
H752 C781 0.950 . S
H753 C782 0.950 . S
H754 C784 0.950 . S
H755 C785 0.950 . S
C756 H738 0.951 . S
C756 C757 1.366 . S
C756 C758 1.388 . S
C757 C756 1.366 . S
C757 C761 1.385 . S
C758 H739 0.951 . S
C758 C756 1.388 . S
C758 C759 1.366 . S
C759 C758 1.366 . S
C759 C760 1.414 . S
C759 C762 1.499 . S
C760 H740 0.950 . S
C760 C759 1.414 . S
C760 C761 1.374 . S
C761 H741 0.950 . S
C761 C757 1.385 . S
C761 C760 1.374 . S
C762 C759 1.499 . S
C762 C763 1.373 . S
C762 C764 1.389 . S
C763 H742 0.950 . S
C763 C762 1.373 . S
C763 C779 1.377 . S
C764 C762 1.389 . S
C764 C765 1.524 . S
C764 C778 1.377 . S
C765 C764 1.524 . S
C765 C766 1.397 . S
C765 C770 1.363 . S
C766 H743 0.950 . S
C766 C765 1.397 . S
C766 C767 1.334 . S
C767 H744 0.950 . S
C767 C766 1.334 . S
C767 C768 1.287 . S
C768 C767 1.287 . S
C768 C769 1.524 . S
C768 H787 0.913 . S
C769 H745 0.950 . S
C769 C768 1.524 . S
C769 C770 1.415 . S
C770 H746 0.950 . S
C770 C765 1.363 . S
C770 C769 1.415 . S
C771 H747 0.951 . S
C771 C772 1.366 . S
C771 C773 1.388 . S
C772 C771 1.366 . S
C772 C776 1.385 . S
C773 H748 0.951 . S
C773 C771 1.388 . S
C773 C774 1.366 . S
C774 C773 1.366 . S
C774 C775 1.414 . S
C774 C777 1.499 . S
C775 H749 0.950 . S
C775 C774 1.414 . S
C775 C776 1.374 . S
C776 H750 0.950 . S
C776 C772 1.385 . S
C776 C775 1.374 . S
C777 C774 1.499 . S
C777 C778 1.373 . S
C777 C779 1.389 . S
C778 H751 0.950 . S
C778 C764 1.377 . S
C778 C777 1.373 . S
C779 C763 1.377 . S
C779 C777 1.389 . S
C779 C780 1.524 . S
C780 C779 1.524 . S
C780 C781 1.397 . S
C780 C785 1.363 . S
C781 H752 0.950 . S
C781 C780 1.397 . S
C781 C782 1.334 . S
C782 H753 0.950 . S
C782 C781 1.334 . S
C782 C783 1.287 . S
C783 C782 1.287 . S
C783 C784 1.524 . S
C783 H786 0.999 . S
C784 H754 0.950 . S
C784 C783 1.524 . S
C784 C785 1.415 . S
C785 H755 0.950 . S
C785 C780 1.363 . S
C785 C784 1.415 . S
H786 C783 0.999 . S
H787 C768 0.913 . S
H788 C806 0.951 . S
H789 C808 0.951 . S
H790 C810 0.950 . S
H791 C811 0.950 . S
H792 C813 0.950 . S
H793 C816 0.950 . S
H794 C817 0.950 . S
H795 C819 0.950 . S
H796 C820 0.950 . S
H797 C821 0.951 . S
H798 C823 0.952 . S
H799 C825 0.950 . S
H800 C826 0.950 . S
H801 C828 0.947 1_554 S
H802 C831 0.950 . S
H803 C832 0.950 . S
H804 C834 0.950 1_655 S
H805 C835 0.913 1_655 S
C806 H788 0.951 . S
C806 C807 1.350 1_455 S
C806 C808 1.388 . S
C807 C806 1.350 1_655 S
C807 C811 1.397 . S
C808 H789 0.951 . S
C808 C806 1.388 . S
C808 C809 1.366 . S
C809 C808 1.366 . S
C809 C810 1.414 1_454 S
C809 C812 1.499 1_554 S
C810 H790 0.950 . S
C810 C809 1.414 1_656 S
C810 C811 1.374 1_556 S
C811 H791 0.950 . S
C811 C807 1.397 . S
C811 C810 1.374 1_554 S
C812 C809 1.499 1_556 S
C812 C813 1.373 . S
C812 C814 1.389 1_556 S
C813 H792 0.950 . S
C813 C812 1.373 . S
C813 C829 1.377 . S
C814 C812 1.389 1_554 S
C814 C815 1.524 . S
C814 C828 1.377 1_554 S
C815 C814 1.524 . S
C815 C816 1.397 1_455 S
C815 C820 1.363 . S
C816 H793 0.950 . S
C816 C815 1.397 1_655 S
C816 C817 1.334 . S
C817 H794 0.950 . S
C817 C816 1.334 . S
C817 C818 1.287 1_655 S
C818 C817 1.287 1_455 S
C818 C819 1.524 . S
C818 H837 0.913 . S
C819 H795 0.950 . S
C819 C818 1.524 . S
C819 C820 1.415 . S
C820 H796 0.950 . S
C820 C815 1.363 . S
C820 C819 1.415 . S
C821 H797 0.951 . S
C821 C822 1.366 . S
C821 C823 1.388 . S
C822 C821 1.366 . S
C822 C826 1.385 . S
C823 H798 0.952 . S
C823 C821 1.388 . S
C823 C824 1.366 . S
C824 C823 1.366 . S
C824 C825 1.414 . S
C824 C827 1.499 . S
C825 H799 0.950 . S
C825 C824 1.414 . S
C825 C826 1.374 . S
C826 H800 0.950 . S
C826 C822 1.385 . S
C826 C825 1.374 . S
C827 C824 1.499 . S
C827 C828 1.373 . S
C827 C829 1.389 . S
C828 H801 0.947 1_556 S
C828 C814 1.377 1_556 S
C828 C827 1.373 . S
C829 C813 1.377 . S
C829 C827 1.389 . S
C829 C830 1.524 . S
C830 C829 1.524 . S
C830 C831 1.397 . S
C830 C835 1.398 . S
C831 H802 0.950 . S
C831 C830 1.397 . S
C831 C832 1.334 . S
C832 H803 0.950 . S
C832 C831 1.334 . S
C832 C833 1.287 . S
C833 C832 1.287 . S
C833 C834 1.524 . S
C833 H836 0.999 . S
C834 H804 0.950 1_455 S
C834 C833 1.524 . S
C834 C835 1.418 . S
C835 H805 0.913 1_455 S
C835 C830 1.398 . S
C835 C834 1.418 . S
H836 C833 0.999 . S
H837 C818 0.913 . S
H838 C856 0.951 . S
H839 C858 0.951 . S
H840 C860 0.950 . S
H841 C861 0.950 . S
H842 C863 0.950 1_554 S
H843 C866 0.950 . S
H844 C867 0.950 . S
H845 C869 0.950 . S
H846 C870 0.950 . S
H847 C871 0.951 . S
H848 C873 0.951 . S
H849 C875 0.950 1_565 S
H850 C876 0.950 . S
H851 C878 0.950 . S
H852 C881 0.950 1_565 S
H853 C882 0.950 1_566 S
H854 C884 0.950 . S
H855 C885 0.950 . S
C856 H838 0.951 . S
C856 C857 1.394 1_556 S
C856 C858 1.388 . S
C857 C856 1.394 1_554 S
C857 C861 1.347 1_565 S
C858 H839 0.951 . S
C858 C856 1.388 . S
C858 C859 1.366 1_565 S
C859 C858 1.366 1_545 S
C859 C860 1.414 1_556 S
C859 C862 1.499 . S
C860 H840 0.950 . S
C860 C859 1.414 1_554 S
C860 C861 1.374 . S
C861 H841 0.950 . S
C861 C857 1.347 1_545 S
C861 C860 1.374 . S
C862 C859 1.499 . S
C862 C863 1.373 . S
C862 C864 1.389 . S
C863 H842 0.950 1_556 S
C863 C862 1.373 . S
C863 C879 1.377 . S
C864 C862 1.389 . S
C864 C865 1.524 . S
C864 C878 1.377 . S
C865 C864 1.524 . S
C865 C866 1.397 . S
C865 C870 1.363 1_545 S
C866 H843 0.950 . S
C866 C865 1.397 . S
C866 C867 1.334 . S
C867 H844 0.950 . S
C867 C866 1.334 . S
C867 C868 1.287 . S
C868 C867 1.287 . S
C868 C869 1.524 1_545 S
C868 H887 0.913 . S
C869 H845 0.950 . S
C869 C868 1.524 1_565 S
C869 C870 1.415 . S
C870 H846 0.950 . S
C870 C865 1.363 1_565 S
C870 C869 1.415 . S
C871 H847 0.951 . S
C871 C872 1.366 . S
C871 C873 1.388 . S
C872 C871 1.366 . S
C872 C876 1.385 . S
C873 H848 0.951 . S
C873 C871 1.388 . S
C873 C874 1.366 . S
C874 C873 1.366 . S
C874 C875 1.414 . S
C874 C877 1.499 . S
C875 H849 0.950 1_545 S
C875 C874 1.414 . S
C875 C876 1.374 . S
C876 H850 0.950 . S
C876 C872 1.385 . S
C876 C875 1.374 . S
C877 C874 1.499 . S
C877 C878 1.373 . S
C877 C879 1.389 . S
C878 H851 0.950 . S
C878 C864 1.377 . S
C878 C877 1.373 . S
C879 C863 1.377 . S
C879 C877 1.389 . S
C879 C880 1.524 . S
C880 C879 1.524 . S
C880 C881 1.397 . S
C880 C885 1.363 1_556 S
C881 H852 0.950 1_545 S
C881 C880 1.397 . S
C881 C882 1.334 1_556 S
C882 H853 0.950 1_544 S
C882 C881 1.334 1_554 S
C882 C883 1.287 . S
C883 C882 1.287 . S
C883 C884 1.524 . S
C883 H886 0.999 . S
C884 H854 0.950 . S
C884 C883 1.524 . S
C884 C885 1.415 . S
C885 H855 0.950 . S
C885 C880 1.363 1_554 S
C885 C884 1.415 . S
H886 C883 0.999 . S
H887 C868 0.913 . S
H888 C906 0.951 . S
H889 C908 0.956 . S
H890 C910 0.950 . S
H891 C911 0.950 . S
H892 C913 0.950 . S
H893 C916 0.950 . S
H894 C917 0.950 . S
H895 C919 0.950 1_554 S
H896 C920 0.950 . S
H897 C921 0.951 . S
H898 C923 0.951 . S
H899 C925 0.950 . S
H900 C926 0.950 . S
H901 C928 0.950 . S
H902 C931 0.950 . S
H903 C932 0.950 . S
H904 C934 0.950 . S
H905 C935 0.950 . S
C906 H888 0.951 . S
C906 C907 1.366 . S
C906 C908 1.393 . S
C907 C906 1.366 . S
C907 C911 1.385 1_554 S
C908 H889 0.956 . S
C908 C906 1.393 . S
C908 C909 1.356 1_554 S
C909 C908 1.356 1_556 S
C909 C910 1.414 . S
C909 C912 1.499 . S
C910 H890 0.950 . S
C910 C909 1.414 . S
C910 C911 1.374 . S
C911 H891 0.950 . S
C911 C907 1.385 1_556 S
C911 C910 1.374 . S
C912 C909 1.499 . S
C912 C913 1.373 . S
C912 C914 1.389 . S
C913 H892 0.950 . S
C913 C912 1.373 . S
C913 C929 1.377 . S
C914 C912 1.389 . S
C914 C915 1.524 . S
C914 C928 1.377 . S
C915 C914 1.524 . S
C915 C916 1.397 . S
C915 C920 1.363 . S
C916 H893 0.950 . S
C916 C915 1.397 . S
C916 C917 1.334 . S
C917 H894 0.950 . S
C917 C916 1.334 . S
C917 C918 1.287 . S
C918 C917 1.287 . S
C918 C919 1.524 . S
C918 H937 0.913 . S
C919 H895 0.950 1_556 S
C919 C918 1.524 . S
C919 C920 1.415 . S
C920 H896 0.950 . S
C920 C915 1.363 . S
C920 C919 1.415 . S
C921 H897 0.951 . S
C921 C922 1.366 . S
C921 C923 1.388 . S
C922 C921 1.366 . S
C922 C926 1.385 . S
C923 H898 0.951 . S
C923 C921 1.388 . S
C923 C924 1.366 . S
C924 C923 1.366 . S
C924 C925 1.414 . S
C924 C927 1.499 . S
C925 H899 0.950 . S
C925 C924 1.414 . S
C925 C926 1.374 . S
C926 H900 0.950 . S
C926 C922 1.385 . S
C926 C925 1.374 . S
C927 C924 1.499 . S
C927 C928 1.373 . S
C927 C929 1.389 . S
C928 H901 0.950 . S
C928 C914 1.377 . S
C928 C927 1.373 . S
C929 C913 1.377 . S
C929 C927 1.389 . S
C929 C930 1.524 . S
C930 C929 1.524 . S
C930 C931 1.397 . S
C930 C935 1.363 . S
C931 H902 0.950 . S
C931 C930 1.397 . S
C931 C932 1.334 . S
C932 H903 0.950 . S
C932 C931 1.334 . S
C932 C933 1.287 . S
C933 C932 1.287 . S
C933 C934 1.524 . S
C933 H936 0.999 . S
C934 H904 0.950 . S
C934 C933 1.524 . S
C934 C935 1.415 . S
C935 H905 0.950 . S
C935 C930 1.363 . S
C935 C934 1.415 . S
H936 C933 0.999 . S
H937 C918 0.913 . S
H938 C956 0.951 . S
H939 C958 0.951 1_554 S
H940 C960 0.950 . S
H941 C961 0.950 . S
H942 C963 0.950 . S
H943 C966 0.950 . S
H944 C967 0.950 . S
H945 C969 0.950 . S
H946 C970 0.950 . S
H947 C971 0.951 . S
H948 C973 0.951 . S
H949 C975 0.950 . S
H950 C976 0.950 . S
H951 C978 0.950 . S
H952 C981 0.950 . S
H953 C982 0.950 . S
H954 C984 0.950 . S
H955 C985 0.950 . S
C956 H938 0.951 . S
C956 C957 1.366 1_554 S
C956 C958 1.388 1_554 S
C957 C956 1.366 1_556 S
C957 C961 1.385 . S
C958 H939 0.951 1_556 S
C958 C956 1.388 1_556 S
C958 C959 1.366 . S
C959 C958 1.366 . S
C959 C960 1.414 . S
C959 C962 1.499 . S
C960 H940 0.950 . S
C960 C959 1.414 . S
C960 C961 1.374 . S
C961 H941 0.950 . S
C961 C957 1.385 . S
C961 C960 1.374 . S
C962 C959 1.499 . S
C962 C963 1.373 . S
C962 C964 1.389 . S
C963 H942 0.950 . S
C963 C962 1.373 . S
C963 C979 1.377 . S
C964 C962 1.389 . S
C964 C965 1.524 . S
C964 C978 1.377 . S
C965 C964 1.524 . S
C965 C966 1.397 . S
C965 C970 1.363 1_556 S
C966 H943 0.950 . S
C966 C965 1.397 . S
C966 C967 1.334 1_556 S
C967 H944 0.950 . S
C967 C966 1.334 1_554 S
C967 C968 1.287 . S
C968 C967 1.287 . S
C968 C969 1.524 . S
C968 H987 0.913 . S
C969 H945 0.950 . S
C969 C968 1.524 . S
C969 C970 1.415 . S
C970 H946 0.950 . S
C970 C965 1.363 1_554 S
C970 C969 1.415 . S
C971 H947 0.951 . S
C971 C972 1.366 . S
C971 C973 1.388 . S
C972 C971 1.366 . S
C972 C976 1.385 . S
C973 H948 0.951 . S
C973 C971 1.388 . S
C973 C974 1.366 . S
C974 C973 1.366 . S
C974 C975 1.414 . S
C974 C977 1.499 . S
C975 H949 0.950 . S
C975 C974 1.414 . S
C975 C976 1.374 . S
C976 H950 0.950 . S
C976 C972 1.385 . S
C976 C975 1.374 . S
C977 C974 1.499 . S
C977 C978 1.373 . S
C977 C979 1.389 . S
C978 H951 0.950 . S
C978 C964 1.377 . S
C978 C977 1.373 . S
C979 C963 1.377 . S
C979 C977 1.389 . S
C979 C980 1.524 . S
C980 C979 1.524 . S
C980 C981 1.397 . S
C980 C985 1.363 . S
C981 H952 0.950 . S
C981 C980 1.397 . S
C981 C982 1.334 . S
C982 H953 0.950 . S
C982 C981 1.334 . S
C982 C983 1.287 . S
C983 C982 1.287 . S
C983 C984 1.524 . S
C983 H986 0.999 . S
C984 H954 0.950 . S
C984 C983 1.524 . S
C984 C985 1.415 . S
C985 H955 0.950 . S
C985 C980 1.363 . S
C985 C984 1.415 . S
H986 C983 0.999 . S
H987 C968 0.913 . S
H988 C1006 0.951 . S
H989 C1008 0.951 . S
H990 C1010 0.950 . S
H991 C1011 0.950 . S
H992 C1013 0.950 . S
H993 C1016 0.950 . S
H994 C1017 0.950 . S
H995 C1019 0.950 . S
H996 C1020 0.950 . S
H997 C1021 0.951 . S
H998 C1023 0.951 1_554 S
H999 C1025 0.950 . S
H1000 C1026 0.950 . S
H1001 C1028 0.950 1_655 S
H1002 C1031 0.950 . S
H1003 C1032 0.950 . S
H1004 C1034 0.950 . S
H1005 C1035 0.950 . S
C1006 H988 0.951 . S
C1006 C1007 1.366 . S
C1006 C1008 1.388 . S
C1007 C1006 1.366 . S
C1007 C1011 1.385 . S
C1008 H989 0.951 . S
C1008 C1006 1.388 . S
C1008 C1009 1.366 . S
C1009 C1008 1.366 . S
C1009 C1010 1.414 . S
C1009 C1012 1.499 . S
C1010 H990 0.950 . S
C1010 C1009 1.414 . S
C1010 C1011 1.374 . S
C1011 H991 0.950 . S
C1011 C1007 1.385 . S
C1011 C1010 1.374 . S
C1012 C1009 1.499 . S
C1012 C1013 1.373 . S
C1012 C1014 1.389 . S
C1013 H992 0.950 . S
C1013 C1012 1.373 . S
C1013 C1029 1.377 . S
C1014 C1012 1.389 . S
C1014 C1015 1.524 1_455 S
C1014 C1028 1.377 . S
C1015 C1014 1.524 1_655 S
C1015 C1016 1.397 . S
C1015 C1020 1.363 . S
C1016 H993 0.950 . S
C1016 C1015 1.397 . S
C1016 C1017 1.334 . S
C1017 H994 0.950 . S
C1017 C1016 1.334 . S
C1017 C1018 1.287 . S
C1018 C1017 1.287 . S
C1018 C1019 1.524 . S
C1018 H1037 0.913 . S
C1019 H995 0.950 . S
C1019 C1018 1.524 . S
C1019 C1020 1.415 . S
C1020 H996 0.950 . S
C1020 C1015 1.363 . S
C1020 C1019 1.415 . S
C1021 H997 0.951 . S
C1021 C1022 1.366 . S
C1021 C1023 1.388 . S
C1022 C1021 1.366 . S
C1022 C1026 1.385 . S
C1023 H998 0.951 1_556 S
C1023 C1021 1.388 . S
C1023 C1024 1.366 . S
C1024 C1023 1.366 . S
C1024 C1025 1.414 . S
C1024 C1027 1.499 1_556 S
C1025 H999 0.950 . S
C1025 C1024 1.414 . S
C1025 C1026 1.374 . S
C1026 H1000 0.950 . S
C1026 C1022 1.385 . S
C1026 C1025 1.374 . S
C1027 C1024 1.499 1_554 S
C1027 C1028 1.373 . S
C1027 C1029 1.389 . S
C1028 H1001 0.950 1_455 S
C1028 C1014 1.377 . S
C1028 C1027 1.373 . S
C1029 C1013 1.377 . S
C1029 C1027 1.389 . S
C1029 C1030 1.524 . S
C1030 C1029 1.524 . S
C1030 C1031 1.397 1_554 S
C1030 C1035 1.363 . S
C1031 H1002 0.950 . S
C1031 C1030 1.397 1_556 S
C1031 C1032 1.334 . S
C1032 H1003 0.950 . S
C1032 C1031 1.334 . S
C1032 C1033 1.287 . S
C1033 C1032 1.287 . S
C1033 C1034 1.524 1_556 S
C1033 H1036 0.999 . S
C1034 H1004 0.950 . S
C1034 C1033 1.524 1_554 S
C1034 C1035 1.415 . S
C1035 H1005 0.950 . S
C1035 C1030 1.363 . S
C1035 C1034 1.415 . S
H1036 C1033 0.999 . S
H1037 C1018 0.913 . S
H1038 C1056 0.951 . S
H1039 C1058 0.951 . S
H1040 C1060 0.950 1_565 S
H1041 C1061 0.950 1_565 S
H1042 C1063 0.950 . S
H1043 C1066 0.950 . S
H1044 C1067 0.950 . S
H1045 C1069 0.950 . S
H1046 C1070 0.950 . S
H1047 C1071 0.951 . S
H1048 C1073 0.951 . S
H1049 C1075 0.950 . S
H1050 C1076 0.950 . S
H1051 C1078 0.950 . S
H1052 C1081 0.950 . S
H1053 C1082 0.950 . S
H1054 C1084 0.950 . S
H1055 C1085 0.950 . S
C1056 H1038 0.951 . S
C1056 C1057 1.366 . S
C1056 C1058 1.388 . S
C1057 C1056 1.366 . S
C1057 C1061 1.385 . S
C1058 H1039 0.951 . S
C1058 C1056 1.388 . S
C1058 C1059 1.366 . S
C1059 C1058 1.366 . S
C1059 C1060 1.414 . S
C1059 C1062 1.499 . S
C1060 H1040 0.950 1_545 S
C1060 C1059 1.414 . S
C1060 C1061 1.374 . S
C1061 H1041 0.950 1_545 S
C1061 C1057 1.385 . S
C1061 C1060 1.374 . S
C1062 C1059 1.499 . S
C1062 C1063 1.373 1_545 S
C1062 C1064 1.389 . S
C1063 H1042 0.950 . S
C1063 C1062 1.373 1_565 S
C1063 C1079 1.377 1_554 S
C1064 C1062 1.389 . S
C1064 C1065 1.524 . S
C1064 C1078 1.377 . S
C1065 C1064 1.524 . S
C1065 C1066 1.397 . S
C1065 C1070 1.363 . S
C1066 H1043 0.950 . S
C1066 C1065 1.397 . S
C1066 C1067 1.334 . S
C1067 H1044 0.950 . S
C1067 C1066 1.334 . S
C1067 C1068 1.287 . S
C1068 C1067 1.287 . S
C1068 C1069 1.524 . S
C1068 H1087 0.913 . S
C1069 H1045 0.950 . S
C1069 C1068 1.524 . S
C1069 C1070 1.415 . S
C1070 H1046 0.950 . S
C1070 C1065 1.363 . S
C1070 C1069 1.415 . S
C1071 H1047 0.951 . S
C1071 C1072 1.366 1_565 S
C1071 C1073 1.388 . S
C1072 C1071 1.366 1_545 S
C1072 C1076 1.385 . S
C1073 H1048 0.951 . S
C1073 C1071 1.388 . S
C1073 C1074 1.366 1_565 S
C1074 C1073 1.366 1_545 S
C1074 C1075 1.414 . S
C1074 C1077 1.499 . S
C1075 H1049 0.950 . S
C1075 C1074 1.414 . S
C1075 C1076 1.374 . S
C1076 H1050 0.950 . S
C1076 C1072 1.385 . S
C1076 C1075 1.374 . S
C1077 C1074 1.499 . S
C1077 C1078 1.373 1_556 S
C1077 C1079 1.389 1_545 S
C1078 H1051 0.950 . S
C1078 C1064 1.377 . S
C1078 C1077 1.373 1_554 S
C1079 C1063 1.377 1_556 S
C1079 C1077 1.389 1_565 S
C1079 C1080 1.524 . S
C1080 C1079 1.524 . S
C1080 C1081 1.397 . S
C1080 C1085 1.363 . S
C1081 H1052 0.950 . S
C1081 C1080 1.397 . S
C1081 C1082 1.334 . S
C1082 H1053 0.950 . S
C1082 C1081 1.334 . S
C1082 C1083 1.287 . S
C1083 C1082 1.287 . S
C1083 C1084 1.524 . S
C1083 H1086 0.999 . S
C1084 H1054 0.950 . S
C1084 C1083 1.524 . S
C1084 C1085 1.415 . S
C1085 H1055 0.950 . S
C1085 C1080 1.363 . S
C1085 C1084 1.415 . S
H1086 C1083 0.999 . S
H1087 C1068 0.913 . S
H1088 C1106 0.951 . S
H1089 C1108 0.951 . S
H1090 C1110 0.950 . S
H1091 C1111 0.950 . S
H1092 C1113 0.950 . S
H1093 C1116 0.950 . S
H1094 C1117 0.950 . S
H1095 C1119 0.950 . S
H1096 C1120 0.950 . S
H1097 C1121 0.951 . S
H1098 C1123 0.951 . S
H1099 C1125 0.950 . S
H1100 C1126 0.950 . S
H1101 C1128 0.950 . S
H1102 C1131 0.950 . S
H1103 C1132 0.950 . S
H1104 C1134 0.950 . S
H1105 C1135 0.950 . S
C1106 H1088 0.951 . S
C1106 C1107 1.366 . S
C1106 C1108 1.388 . S
C1107 C1106 1.366 . S
C1107 C1111 1.385 . S
C1108 H1089 0.951 . S
C1108 C1106 1.388 . S
C1108 C1109 1.366 . S
C1109 C1108 1.366 . S
C1109 C1110 1.414 . S
C1109 C1112 1.499 . S
C1110 H1090 0.950 . S
C1110 C1109 1.414 . S
C1110 C1111 1.374 . S
C1111 H1091 0.950 . S
C1111 C1107 1.385 . S
C1111 C1110 1.374 . S
C1112 C1109 1.499 . S
C1112 C1113 1.373 . S
C1112 C1114 1.389 1_554 S
C1113 H1092 0.950 . S
C1113 C1112 1.373 . S
C1113 C1129 1.377 1_554 S
C1114 C1112 1.389 1_556 S
C1114 C1115 1.524 . S
C1114 C1128 1.377 . S
C1115 C1114 1.524 . S
C1115 C1116 1.397 1_556 S
C1115 C1120 1.363 . S
C1116 H1093 0.950 . S
C1116 C1115 1.397 1_554 S
C1116 C1117 1.334 . S
C1117 H1094 0.950 . S
C1117 C1116 1.334 . S
C1117 C1118 1.287 1_554 S
C1118 C1117 1.287 1_556 S
C1118 C1119 1.524 . S
C1118 H1137 0.913 1_556 S
C1119 H1095 0.950 . S
C1119 C1118 1.524 . S
C1119 C1120 1.415 . S
C1120 H1096 0.950 . S
C1120 C1115 1.363 . S
C1120 C1119 1.415 . S
C1121 H1097 0.951 . S
C1121 C1122 1.366 . S
C1121 C1123 1.388 . S
C1122 C1121 1.366 . S
C1122 C1126 1.385 . S
C1123 H1098 0.951 . S
C1123 C1121 1.388 . S
C1123 C1124 1.366 . S
C1124 C1123 1.366 . S
C1124 C1125 1.414 . S
C1124 C1127 1.499 . S
C1125 H1099 0.950 . S
C1125 C1124 1.414 . S
C1125 C1126 1.374 . S
C1126 H1100 0.950 . S
C1126 C1122 1.385 . S
C1126 C1125 1.374 . S
C1127 C1124 1.499 . S
C1127 C1128 1.373 . S
C1127 C1129 1.389 . S
C1128 H1101 0.950 . S
C1128 C1114 1.377 . S
C1128 C1127 1.373 . S
C1129 C1113 1.377 1_556 S
C1129 C1127 1.389 . S
C1129 C1130 1.524 . S
C1130 C1129 1.524 . S
C1130 C1131 1.397 . S
C1130 C1135 1.363 1_556 S
C1131 H1102 0.950 . S
C1131 C1130 1.397 . S
C1131 C1132 1.334 . S
C1132 H1103 0.950 . S
C1132 C1131 1.334 . S
C1132 C1133 1.287 . S
C1133 C1132 1.287 . S
C1133 C1134 1.524 1_556 S
C1133 H1136 0.999 . S
C1134 H1104 0.950 . S
C1134 C1133 1.524 1_554 S
C1134 C1135 1.415 . S
C1135 H1105 0.950 . S
C1135 C1130 1.363 1_554 S
C1135 C1134 1.415 . S
H1136 C1133 0.999 . S
H1137 C1118 0.913 1_554 S
H1138 C1156 0.951 . S
H1139 C1158 0.951 . S
H1140 C1160 0.950 . S
H1141 C1161 0.950 . S
H1142 C1163 0.950 . S
H1143 C1166 0.950 1_554 S
H1144 C1167 0.950 1_554 S
H1145 C1169 0.950 . S
H1146 C1170 0.950 . S
H1147 C1171 0.951 . S
H1148 C1173 0.951 . S
H1149 C1175 0.950 . S
H1150 C1176 0.950 . S
H1151 C1178 0.950 . S
H1152 C1181 0.950 1_556 S
H1153 C1182 0.950 1_556 S
H1154 C1184 0.950 . S
H1155 C1185 0.950 . S
C1156 H1138 0.951 . S
C1156 C1157 1.366 . S
C1156 C1158 1.388 . S
C1157 C1156 1.366 . S
C1157 C1161 1.385 . S
C1158 H1139 0.951 . S
C1158 C1156 1.388 . S
C1158 C1159 1.366 . S
C1159 C1158 1.366 . S
C1159 C1160 1.414 . S
C1159 C1162 1.499 . S
C1160 H1140 0.950 . S
C1160 C1159 1.414 . S
C1160 C1161 1.374 . S
C1161 H1141 0.950 . S
C1161 C1157 1.385 . S
C1161 C1160 1.374 . S
C1162 C1159 1.499 . S
C1162 C1163 1.373 . S
C1162 C1164 1.389 1_554 S
C1163 H1142 0.950 . S
C1163 C1162 1.373 . S
C1163 C1179 1.377 . S
C1164 C1162 1.389 1_556 S
C1164 C1165 1.524 . S
C1164 C1178 1.377 . S
C1165 C1164 1.524 . S
C1165 C1166 1.397 . S
C1165 C1170 1.363 . S
C1166 H1143 0.950 1_556 S
C1166 C1165 1.397 . S
C1166 C1167 1.334 . S
C1167 H1144 0.950 1_556 S
C1167 C1166 1.334 . S
C1167 C1168 1.287 . S
C1168 C1167 1.287 . S
C1168 C1169 1.524 . S
C1168 H1187 0.913 . S
C1169 H1145 0.950 . S
C1169 C1168 1.524 . S
C1169 C1170 1.415 . S
C1170 H1146 0.950 . S
C1170 C1165 1.363 . S
C1170 C1169 1.415 . S
C1171 H1147 0.951 . S
C1171 C1172 1.366 . S
C1171 C1173 1.388 . S
C1172 C1171 1.366 . S
C1172 C1176 1.385 . S
C1173 H1148 0.951 . S
C1173 C1171 1.388 . S
C1173 C1174 1.366 . S
C1174 C1173 1.366 . S
C1174 C1175 1.414 . S
C1174 C1177 1.499 . S
C1175 H1149 0.950 . S
C1175 C1174 1.414 . S
C1175 C1176 1.374 . S
C1176 H1150 0.950 . S
C1176 C1172 1.385 . S
C1176 C1175 1.374 . S
C1177 C1174 1.499 . S
C1177 C1178 1.373 . S
C1177 C1179 1.389 1_556 S
C1178 H1151 0.950 . S
C1178 C1164 1.377 . S
C1178 C1177 1.373 . S
C1179 C1163 1.377 . S
C1179 C1177 1.389 1_554 S
C1179 C1180 1.524 . S
C1180 C1179 1.524 . S
C1180 C1181 1.397 . S
C1180 C1185 1.363 . S
C1181 H1152 0.950 1_554 S
C1181 C1180 1.397 . S
C1181 C1182 1.334 . S
C1182 H1153 0.950 1_554 S
C1182 C1181 1.334 . S
C1182 C1183 1.287 . S
C1183 C1182 1.287 . S
C1183 C1184 1.524 . S
C1183 H1186 0.999 . S
C1184 H1154 0.950 . S
C1184 C1183 1.524 . S
C1184 C1185 1.415 . S
C1185 H1155 0.950 . S
C1185 C1180 1.363 . S
C1185 C1184 1.415 . S
H1186 C1183 0.999 . S
H1187 C1168 0.913 . S
H1188 C1206 0.951 . S
H1189 C1208 0.951 . S
H1190 C1210 0.950 . S
H1191 C1211 0.950 . S
H1192 C1213 0.950 . S
H1193 C1216 0.950 . S
H1194 C1217 0.950 . S
H1195 C1219 0.950 . S
H1196 C1220 0.950 . S
H1197 C1221 0.951 . S
H1198 C1223 0.951 . S
H1199 C1225 0.950 . S
H1200 C1226 0.950 . S
H1201 C1228 0.950 . S
H1202 C1231 0.950 . S
H1203 C1232 0.950 . S
H1204 C1234 0.950 . S
H1205 C1235 0.950 . S
C1206 H1188 0.951 . S
C1206 C1207 1.361 1_455 S
C1206 C1208 1.388 . S
C1207 C1206 1.361 1_655 S
C1207 C1211 1.390 . S
C1208 H1189 0.951 . S
C1208 C1206 1.388 . S
C1208 C1209 1.366 1_455 S
C1209 C1208 1.366 1_655 S
C1209 C1210 1.414 . S
C1209 C1212 1.499 . S
C1210 H1190 0.950 . S
C1210 C1209 1.414 . S
C1210 C1211 1.374 . S
C1211 H1191 0.950 . S
C1211 C1207 1.390 . S
C1211 C1210 1.374 . S
C1212 C1209 1.499 . S
C1212 C1213 1.373 . S
C1212 C1214 1.389 1_655 S
C1213 H1192 0.950 . S
C1213 C1212 1.373 . S
C1213 C1229 1.377 . S
C1214 C1212 1.389 1_455 S
C1214 C1215 1.524 . S
C1214 C1228 1.377 . S
C1215 C1214 1.524 . S
C1215 C1216 1.397 . S
C1215 C1220 1.363 . S
C1216 H1193 0.950 . S
C1216 C1215 1.397 . S
C1216 C1217 1.334 . S
C1217 H1194 0.950 . S
C1217 C1216 1.334 . S
C1217 C1218 1.287 . S
C1218 C1217 1.287 . S
C1218 C1219 1.524 . S
C1218 H1237 0.913 . S
C1219 H1195 0.950 . S
C1219 C1218 1.524 . S
C1219 C1220 1.415 . S
C1220 H1196 0.950 . S
C1220 C1215 1.363 . S
C1220 C1219 1.415 . S
C1221 H1197 0.951 . S
C1221 C1222 1.366 . S
C1221 C1223 1.388 . S
C1222 C1221 1.366 . S
C1222 C1226 1.385 1_655 S
C1223 H1198 0.951 . S
C1223 C1221 1.388 . S
C1223 C1224 1.366 . S
C1224 C1223 1.366 . S
C1224 C1225 1.414 1_655 S
C1224 C1227 1.499 . S
C1225 H1199 0.950 . S
C1225 C1224 1.414 1_455 S
C1225 C1226 1.374 . S
C1226 H1200 0.950 . S
C1226 C1222 1.385 1_455 S
C1226 C1225 1.374 . S
C1227 C1224 1.499 . S
C1227 C1228 1.373 1_655 S
C1227 C1229 1.389 . S
C1228 H1201 0.950 . S
C1228 C1214 1.377 . S
C1228 C1227 1.373 1_455 S
C1229 C1213 1.377 . S
C1229 C1227 1.389 . S
C1229 C1230 1.524 . S
C1230 C1229 1.524 . S
C1230 C1231 1.397 . S
C1230 C1235 1.363 . S
C1231 H1202 0.950 . S
C1231 C1230 1.397 . S
C1231 C1232 1.334 . S
C1232 H1203 0.950 . S
C1232 C1231 1.334 . S
C1232 C1233 1.287 . S
C1233 C1232 1.287 . S
C1233 C1234 1.524 . S
C1233 H1236 0.999 . S
C1234 H1204 0.950 . S
C1234 C1233 1.524 . S
C1234 C1235 1.415 . S
C1235 H1205 0.950 . S
C1235 C1230 1.363 . S
C1235 C1234 1.415 . S
H1236 C1233 0.999 . S
H1237 C1218 0.913 . S
H1238 C1256 0.951 . S
H1239 C1258 0.951 . S
H1240 C1260 0.950 . S
H1241 C1261 0.950 . S
H1242 C1263 0.950 . S
H1243 C1266 0.950 . S
H1244 C1267 0.950 . S
H1245 C1269 0.953 1_565 S
H1246 C1270 0.950 . S
H1247 C1271 0.951 1_545 S
H1248 C1273 0.951 1_545 S
H1249 C1275 0.950 . S
H1250 C1276 0.950 . S
H1251 C1278 0.950 . S
H1252 C1281 0.950 . S
H1253 C1282 0.950 . S
H1254 C1284 0.950 . S
H1255 C1285 0.950 1_545 S
C1256 H1238 0.951 . S
C1256 C1257 1.391 . S
C1256 C1258 1.388 . S
C1257 C1256 1.391 . S
C1257 C1261 1.363 1_565 S
C1258 H1239 0.951 . S
C1258 C1256 1.388 . S
C1258 C1259 1.366 . S
C1259 C1258 1.366 . S
C1259 C1260 1.414 1_565 S
C1259 C1262 1.499 . S
C1260 H1240 0.950 . S
C1260 C1259 1.414 1_545 S
C1260 C1261 1.374 . S
C1261 H1241 0.950 . S
C1261 C1257 1.363 1_545 S
C1261 C1260 1.374 . S
C1262 C1259 1.499 . S
C1262 C1263 1.373 . S
C1262 C1264 1.389 . S
C1263 H1242 0.950 . S
C1263 C1262 1.373 . S
C1263 C1279 1.377 . S
C1264 C1262 1.389 . S
C1264 C1265 1.524 1_565 S
C1264 C1278 1.377 . S
C1265 C1264 1.524 1_545 S
C1265 C1266 1.397 . S
C1265 C1270 1.363 1_545 S
C1266 H1243 0.950 . S
C1266 C1265 1.397 . S
C1266 C1267 1.334 . S
C1267 H1244 0.950 . S
C1267 C1266 1.334 . S
C1267 C1268 1.287 . S
C1268 C1267 1.287 . S
C1268 C1269 1.519 . S
C1268 H1287 0.913 . S
C1269 H1245 0.953 1_545 S
C1269 C1268 1.519 . S
C1269 C1270 1.417 1_545 S
C1270 H1246 0.950 . S
C1270 C1265 1.363 1_565 S
C1270 C1269 1.417 1_565 S
C1271 H1247 0.951 1_565 S
C1271 C1272 1.366 . S
C1271 C1273 1.388 . S
C1272 C1271 1.366 . S
C1272 C1276 1.385 . S
C1273 H1248 0.951 1_565 S
C1273 C1271 1.388 . S
C1273 C1274 1.366 . S
C1274 C1273 1.366 . S
C1274 C1275 1.414 . S
C1274 C1277 1.499 . S
C1275 H1249 0.950 . S
C1275 C1274 1.414 . S
C1275 C1276 1.374 . S
C1276 H1250 0.950 . S
C1276 C1272 1.385 . S
C1276 C1275 1.374 . S
C1277 C1274 1.499 . S
C1277 C1278 1.373 . S
C1277 C1279 1.389 . S
C1278 H1251 0.950 . S
C1278 C1264 1.377 . S
C1278 C1277 1.373 . S
C1279 C1263 1.377 . S
C1279 C1277 1.389 . S
C1279 C1280 1.524 . S
C1280 C1279 1.524 . S
C1280 C1281 1.397 . S
C1280 C1285 1.363 . S
C1281 H1252 0.950 . S
C1281 C1280 1.397 . S
C1281 C1282 1.334 . S
C1282 H1253 0.950 . S
C1282 C1281 1.334 . S
C1282 C1283 1.287 . S
C1283 C1282 1.287 . S
C1283 C1284 1.524 . S
C1283 H1286 0.999 . S
C1284 H1254 0.950 . S
C1284 C1283 1.524 . S
C1284 C1285 1.415 . S
C1285 H1255 0.950 1_565 S
C1285 C1280 1.363 . S
C1285 C1284 1.415 . S
H1286 C1283 0.999 . S
H1287 C1268 0.913 . S
H1288 C1306 0.951 . S
H1289 C1308 0.951 . S
H1290 C1310 0.950 . S
H1291 C1311 0.950 . S
H1292 C1313 0.950 . S
H1293 C1316 0.950 . S
H1294 C1317 0.950 . S
H1295 C1319 0.950 . S
H1296 C1320 0.950 . S
H1297 C1321 0.951 . S
H1298 C1323 0.951 . S
H1299 C1325 0.950 . S
H1300 C1326 0.950 . S
H1301 C1328 0.950 . S
H1302 C1331 0.950 . S
H1303 C1332 0.950 . S
H1304 C1334 0.950 . S
H1305 C1335 0.950 . S
C1306 H1288 0.951 . S
C1306 C1307 1.366 . S
C1306 C1308 1.388 . S
C1307 C1306 1.366 . S
C1307 C1311 1.385 . S
C1308 H1289 0.951 . S
C1308 C1306 1.388 . S
C1308 C1309 1.366 . S
C1309 C1308 1.366 . S
C1309 C1310 1.414 . S
C1309 C1312 1.499 . S
C1310 H1290 0.950 . S
C1310 C1309 1.414 . S
C1310 C1311 1.374 . S
C1311 H1291 0.950 . S
C1311 C1307 1.385 . S
C1311 C1310 1.374 . S
C1312 C1309 1.499 . S
C1312 C1313 1.373 . S
C1312 C1314 1.389 . S
C1313 H1292 0.950 . S
C1313 C1312 1.373 . S
C1313 C1329 1.377 . S
C1314 C1312 1.389 . S
C1314 C1315 1.524 . S
C1314 C1328 1.377 . S
C1315 C1314 1.524 . S
C1315 C1316 1.397 . S
C1315 C1320 1.363 . S
C1316 H1293 0.950 . S
C1316 C1315 1.397 . S
C1316 C1317 1.334 . S
C1317 H1294 0.950 . S
C1317 C1316 1.334 . S
C1317 C1318 1.287 . S
C1318 C1317 1.287 . S
C1318 C1319 1.524 . S
C1318 H1337 0.913 . S
C1319 H1295 0.950 . S
C1319 C1318 1.524 . S
C1319 C1320 1.415 . S
C1320 H1296 0.950 . S
C1320 C1315 1.363 . S
C1320 C1319 1.415 . S
C1321 H1297 0.951 . S
C1321 C1322 1.366 . S
C1321 C1323 1.388 . S
C1322 C1321 1.366 . S
C1322 C1326 1.385 . S
C1323 H1298 0.951 . S
C1323 C1321 1.388 . S
C1323 C1324 1.366 . S
C1324 C1323 1.366 . S
C1324 C1325 1.414 . S
C1324 C1327 1.499 . S
C1325 H1299 0.950 . S
C1325 C1324 1.414 . S
C1325 C1326 1.374 . S
C1326 H1300 0.950 . S
C1326 C1322 1.385 . S
C1326 C1325 1.374 . S
C1327 C1324 1.499 . S
C1327 C1328 1.373 . S
C1327 C1329 1.389 . S
C1328 H1301 0.950 . S
C1328 C1314 1.377 . S
C1328 C1327 1.373 . S
C1329 C1313 1.377 . S
C1329 C1327 1.389 . S
C1329 C1330 1.524 . S
C1330 C1329 1.524 . S
C1330 C1331 1.397 . S
C1330 C1335 1.363 . S
C1331 H1302 0.950 . S
C1331 C1330 1.397 . S
C1331 C1332 1.334 . S
C1332 H1303 0.950 . S
C1332 C1331 1.334 . S
C1332 C1333 1.287 . S
C1333 C1332 1.287 . S
C1333 C1334 1.524 . S
C1333 H1336 0.999 . S
C1334 H1304 0.950 . S
C1334 C1333 1.524 . S
C1334 C1335 1.415 . S
C1335 H1305 0.950 . S
C1335 C1330 1.363 . S
C1335 C1334 1.415 . S
H1336 C1333 0.999 . S
H1337 C1318 0.913 . S
H1338 C1356 0.951 . S
H1339 C1358 0.951 . S
H1340 C1360 0.950 . S
H1341 C1361 0.950 . S
H1342 C1363 0.950 . S
H1343 C1366 0.950 . S
H1344 C1367 0.950 . S
H1345 C1369 0.950 . S
H1346 C1370 0.950 . S
H1347 C1371 0.951 . S
H1348 C1373 0.951 . S
H1349 C1375 0.950 . S
H1350 C1376 0.950 . S
H1351 C1378 0.950 . S
H1352 C1381 0.950 . S
H1353 C1382 0.950 . S
H1354 C1384 0.950 . S
H1355 C1385 0.950 . S
C1356 H1338 0.951 . S
C1356 C1357 1.366 . S
C1356 C1358 1.388 . S
C1357 C1356 1.366 . S
C1357 C1361 1.385 . S
C1358 H1339 0.951 . S
C1358 C1356 1.388 . S
C1358 C1359 1.366 . S
C1359 C1358 1.366 . S
C1359 C1360 1.414 . S
C1359 C1362 1.499 . S
C1360 H1340 0.950 . S
C1360 C1359 1.414 . S
C1360 C1361 1.374 . S
C1361 H1341 0.950 . S
C1361 C1357 1.385 . S
C1361 C1360 1.374 . S
C1362 C1359 1.499 . S
C1362 C1363 1.373 . S
C1362 C1364 1.389 . S
C1363 H1342 0.950 . S
C1363 C1362 1.373 . S
C1363 C1379 1.377 . S
C1364 C1362 1.389 . S
C1364 C1365 1.524 . S
C1364 C1378 1.377 . S
C1365 C1364 1.524 . S
C1365 C1366 1.397 . S
C1365 C1370 1.363 . S
C1366 H1343 0.950 . S
C1366 C1365 1.397 . S
C1366 C1367 1.334 . S
C1367 H1344 0.950 . S
C1367 C1366 1.334 . S
C1367 C1368 1.287 . S
C1368 C1367 1.287 . S
C1368 C1369 1.524 . S
C1368 H1387 0.913 . S
C1369 H1345 0.950 . S
C1369 C1368 1.524 . S
C1369 C1370 1.415 . S
C1370 H1346 0.950 . S
C1370 C1365 1.363 . S
C1370 C1369 1.415 . S
C1371 H1347 0.951 . S
C1371 C1372 1.366 . S
C1371 C1373 1.388 . S
C1372 C1371 1.366 . S
C1372 C1376 1.385 . S
C1373 H1348 0.951 . S
C1373 C1371 1.388 . S
C1373 C1374 1.366 . S
C1374 C1373 1.366 . S
C1374 C1375 1.414 . S
C1374 C1377 1.499 . S
C1375 H1349 0.950 . S
C1375 C1374 1.414 . S
C1375 C1376 1.374 . S
C1376 H1350 0.950 . S
C1376 C1372 1.385 . S
C1376 C1375 1.374 . S
C1377 C1374 1.499 . S
C1377 C1378 1.373 . S
C1377 C1379 1.389 . S
C1378 H1351 0.950 . S
C1378 C1364 1.377 . S
C1378 C1377 1.373 . S
C1379 C1363 1.377 . S
C1379 C1377 1.389 . S
C1379 C1380 1.524 . S
C1380 C1379 1.524 . S
C1380 C1381 1.397 . S
C1380 C1385 1.363 . S
C1381 H1352 0.950 . S
C1381 C1380 1.397 . S
C1381 C1382 1.334 . S
C1382 H1353 0.950 . S
C1382 C1381 1.334 . S
C1382 C1383 1.287 . S
C1383 C1382 1.287 . S
C1383 C1384 1.524 . S
C1383 H1386 0.999 . S
C1384 H1354 0.950 . S
C1384 C1383 1.524 . S
C1384 C1385 1.415 . S
C1385 H1355 0.950 . S
C1385 C1380 1.363 . S
C1385 C1384 1.415 . S
H1386 C1383 0.999 . S
H1387 C1368 0.913 . S
C207 C76 1.538 . S
C222 C112 1.571 . S
C272 C135 1.618 . S
C257 C88 1.581 . S
C322 C158 1.647 . S
C307 C52 1.613 . S
C372 C185 1.500 . S
C357 C64 1.535 . S
C422 C113 1.569 . S
C407 C28 1.538 . S
C457 C40 1.458 1_556 S
C472 C136 1.489 . S
C507 C4 1.441 . S
C522 C159 1.468 . S
C557 C16 1.575 . S
C572 C184 1.593 . S
C622 C114 0.137 . S
C607 C69 0.372 . S
C672 C137 0.190 . S
C657 C81 0.312 . S
C722 C160 0.199 . S
C707 C93 0.311 . S
C757 C57 0.350 . S
C772 C186 0.468 . S
C807 C21 0.407 1_655 S
C822 C117 0.500 . S
C872 C140 0.510 . S
C857 C33 0.388 1_565 S
C922 C163 0.502 . S
C907 C45 0.377 . S
C957 C9 0.320 . S
C972 C183 0.157 . S
C1007 C66 1.586 . S
C1022 C115 1.566 . S
C1057 C78 1.529 . S
C1072 C138 1.530 . S
C1122 C161 1.545 . S
C1107 C90 1.546 . S
C1172 C182 1.325 . S
C1157 C54 1.286 . S
C1207 C18 1.572 1_655 S
C1222 C116 1.524 . S
C1272 C139 1.472 . S
C1257 C30 1.526 1_565 S
C1322 C162 1.456 . S
C1307 C42 1.507 . S
C1357 C6 1.729 . S
C1372 C181 1.772 . S
