# Generated by pormake.
# Topology llk, (3,12)-cn, num edge types: 1
# Building blocks:
#     Node 0, Type 0, BuildingBlock: CUQRIR_clean_linker_1, # of connection points: 3
#     Node 1, Type 0, BuildingBlock: CUQRIR_clean_linker_1, # of connection points: 3
#     Node 2, Type 0, BuildingBlock: CUQRIR_clean_linker_1, # of connection points: 3
#     Node 3, Type 0, BuildingBlock: CUQRIR_clean_linker_1, # of connection points: 3
#     Node 4, Type 0, BuildingBlock: CUQRIR_clean_linker_1, # of connection points: 3
#     Node 5, Type 0, BuildingBlock: CUQRIR_clean_linker_1, # of connection points: 3
#     Node 6, Type 0, BuildingBlock: CUQRIR_clean_linker_1, # of connection points: 3
#     Node 7, Type 0, BuildingBlock: CUQRIR_clean_linker_1, # of connection points: 3
#     Node 8, Type 0, BuildingBlock: CUQRIR_clean_linker_1, # of connection points: 3
#     Node 9, Type 0, BuildingBlock: CUQRIR_clean_linker_1, # of connection points: 3
#     Node 10, Type 0, BuildingBlock: CUQRIR_clean_linker_1, # of connection points: 3
#     Node 11, Type 0, BuildingBlock: CUQRIR_clean_linker_1, # of connection points: 3
#     Node 12, Type 0, BuildingBlock: CUQRIR_clean_linker_1, # of connection points: 3
#     Node 13, Type 0, BuildingBlock: CUQRIR_clean_linker_1, # of connection points: 3
#     Node 14, Type 0, BuildingBlock: CUQRIR_clean_linker_1, # of connection points: 3
#     Node 15, Type 0, BuildingBlock: CUQRIR_clean_linker_1, # of connection points: 3
#     Node 16, Type 0, BuildingBlock: CUQRIR_clean_linker_1, # of connection points: 3
#     Node 17, Type 0, BuildingBlock: CUQRIR_clean_linker_1, # of connection points: 3
#     Node 18, Type 0, BuildingBlock: CUQRIR_clean_linker_1, # of connection points: 3
#     Node 19, Type 0, BuildingBlock: CUQRIR_clean_linker_1, # of connection points: 3
#     Node 20, Type 0, BuildingBlock: CUQRIR_clean_linker_1, # of connection points: 3
#     Node 21, Type 0, BuildingBlock: CUQRIR_clean_linker_1, # of connection points: 3
#     Node 22, Type 0, BuildingBlock: CUQRIR_clean_linker_1, # of connection points: 3
#     Node 23, Type 0, BuildingBlock: CUQRIR_clean_linker_1, # of connection points: 3
#     Node 24, Type 1, BuildingBlock: QEWDON_clean_sbu_0, # of connection points: 12
#     Node 25, Type 1, BuildingBlock: QEWDON_clean_sbu_0, # of connection points: 12
#     Node 26, Type 1, BuildingBlock: QEWDON_clean_sbu_0, # of connection points: 12
#     Node 27, Type 1, BuildingBlock: QEWDON_clean_sbu_0, # of connection points: 12
#     Node 28, Type 1, BuildingBlock: QEWDON_clean_sbu_0, # of connection points: 12
#     Node 29, Type 1, BuildingBlock: QEWDON_clean_sbu_0, # of connection points: 12
#     Edge 30, Type (0, 1), BuildingBlock: TEMPAE_clean_linker_10, # of connection points: 2
#     Edge 31, Type (0, 1), BuildingBlock: TEMPAE_clean_linker_10, # of connection points: 2
#     Edge 32, Type (0, 1), BuildingBlock: TEMPAE_clean_linker_10, # of connection points: 2
#     Edge 33, Type (0, 1), BuildingBlock: TEMPAE_clean_linker_10, # of connection points: 2
#     Edge 34, Type (0, 1), BuildingBlock: TEMPAE_clean_linker_10, # of connection points: 2
#     Edge 35, Type (0, 1), BuildingBlock: TEMPAE_clean_linker_10, # of connection points: 2
#     Edge 36, Type (0, 1), BuildingBlock: TEMPAE_clean_linker_10, # of connection points: 2
#     Edge 37, Type (0, 1), BuildingBlock: TEMPAE_clean_linker_10, # of connection points: 2
#     Edge 38, Type (0, 1), BuildingBlock: TEMPAE_clean_linker_10, # of connection points: 2
#     Edge 39, Type (0, 1), BuildingBlock: TEMPAE_clean_linker_10, # of connection points: 2
#     Edge 40, Type (0, 1), BuildingBlock: TEMPAE_clean_linker_10, # of connection points: 2
#     Edge 41, Type (0, 1), BuildingBlock: TEMPAE_clean_linker_10, # of connection points: 2
#     Edge 42, Type (0, 1), BuildingBlock: TEMPAE_clean_linker_10, # of connection points: 2
#     Edge 43, Type (0, 1), BuildingBlock: TEMPAE_clean_linker_10, # of connection points: 2
#     Edge 44, Type (0, 1), BuildingBlock: TEMPAE_clean_linker_10, # of connection points: 2
#     Edge 45, Type (0, 1), BuildingBlock: TEMPAE_clean_linker_10, # of connection points: 2
#     Edge 46, Type (0, 1), BuildingBlock: TEMPAE_clean_linker_10, # of connection points: 2
#     Edge 47, Type (0, 1), BuildingBlock: TEMPAE_clean_linker_10, # of connection points: 2
#     Edge 48, Type (0, 1), BuildingBlock: TEMPAE_clean_linker_10, # of connection points: 2
#     Edge 49, Type (0, 1), BuildingBlock: TEMPAE_clean_linker_10, # of connection points: 2
#     Edge 50, Type (0, 1), BuildingBlock: TEMPAE_clean_linker_10, # of connection points: 2
#     Edge 51, Type (0, 1), BuildingBlock: TEMPAE_clean_linker_10, # of connection points: 2
#     Edge 52, Type (0, 1), BuildingBlock: TEMPAE_clean_linker_10, # of connection points: 2
#     Edge 53, Type (0, 1), BuildingBlock: TEMPAE_clean_linker_10, # of connection points: 2
#     Edge 54, Type (0, 1), BuildingBlock: TEMPAE_clean_linker_10, # of connection points: 2
#     Edge 55, Type (0, 1), BuildingBlock: TEMPAE_clean_linker_10, # of connection points: 2
#     Edge 56, Type (0, 1), BuildingBlock: TEMPAE_clean_linker_10, # of connection points: 2
#     Edge 57, Type (0, 1), BuildingBlock: TEMPAE_clean_linker_10, # of connection points: 2
#     Edge 58, Type (0, 1), BuildingBlock: TEMPAE_clean_linker_10, # of connection points: 2
#     Edge 59, Type (0, 1), BuildingBlock: TEMPAE_clean_linker_10, # of connection points: 2
#     Edge 60, Type (0, 1), BuildingBlock: TEMPAE_clean_linker_10, # of connection points: 2
#     Edge 61, Type (0, 1), BuildingBlock: TEMPAE_clean_linker_10, # of connection points: 2
#     Edge 62, Type (0, 1), BuildingBlock: TEMPAE_clean_linker_10, # of connection points: 2
#     Edge 63, Type (0, 1), BuildingBlock: TEMPAE_clean_linker_10, # of connection points: 2
#     Edge 64, Type (0, 1), BuildingBlock: TEMPAE_clean_linker_10, # of connection points: 2
#     Edge 65, Type (0, 1), BuildingBlock: TEMPAE_clean_linker_10, # of connection points: 2
#     Edge 66, Type (0, 1), BuildingBlock: TEMPAE_clean_linker_10, # of connection points: 2
#     Edge 67, Type (0, 1), BuildingBlock: TEMPAE_clean_linker_10, # of connection points: 2
#     Edge 68, Type (0, 1), BuildingBlock: TEMPAE_clean_linker_10, # of connection points: 2
#     Edge 69, Type (0, 1), BuildingBlock: TEMPAE_clean_linker_10, # of connection points: 2
#     Edge 70, Type (0, 1), BuildingBlock: TEMPAE_clean_linker_10, # of connection points: 2
#     Edge 71, Type (0, 1), BuildingBlock: TEMPAE_clean_linker_10, # of connection points: 2
#     Edge 72, Type (0, 1), BuildingBlock: TEMPAE_clean_linker_10, # of connection points: 2
#     Edge 73, Type (0, 1), BuildingBlock: TEMPAE_clean_linker_10, # of connection points: 2
#     Edge 74, Type (0, 1), BuildingBlock: TEMPAE_clean_linker_10, # of connection points: 2
#     Edge 75, Type (0, 1), BuildingBlock: TEMPAE_clean_linker_10, # of connection points: 2
#     Edge 76, Type (0, 1), BuildingBlock: TEMPAE_clean_linker_10, # of connection points: 2
#     Edge 77, Type (0, 1), BuildingBlock: TEMPAE_clean_linker_10, # of connection points: 2
#     Edge 78, Type (0, 1), BuildingBlock: TEMPAE_clean_linker_10, # of connection points: 2
#     Edge 79, Type (0, 1), BuildingBlock: TEMPAE_clean_linker_10, # of connection points: 2
#     Edge 80, Type (0, 1), BuildingBlock: TEMPAE_clean_linker_10, # of connection points: 2
#     Edge 81, Type (0, 1), BuildingBlock: TEMPAE_clean_linker_10, # of connection points: 2
#     Edge 82, Type (0, 1), BuildingBlock: TEMPAE_clean_linker_10, # of connection points: 2
#     Edge 83, Type (0, 1), BuildingBlock: TEMPAE_clean_linker_10, # of connection points: 2
#     Edge 84, Type (0, 1), BuildingBlock: TEMPAE_clean_linker_10, # of connection points: 2
#     Edge 85, Type (0, 1), BuildingBlock: TEMPAE_clean_linker_10, # of connection points: 2
#     Edge 86, Type (0, 1), BuildingBlock: TEMPAE_clean_linker_10, # of connection points: 2
#     Edge 87, Type (0, 1), BuildingBlock: TEMPAE_clean_linker_10, # of connection points: 2
#     Edge 88, Type (0, 1), BuildingBlock: TEMPAE_clean_linker_10, # of connection points: 2
#     Edge 89, Type (0, 1), BuildingBlock: TEMPAE_clean_linker_10, # of connection points: 2
#     Edge 90, Type (0, 1), BuildingBlock: TEMPAE_clean_linker_10, # of connection points: 2
#     Edge 91, Type (0, 1), BuildingBlock: TEMPAE_clean_linker_10, # of connection points: 2
#     Edge 92, Type (0, 1), BuildingBlock: TEMPAE_clean_linker_10, # of connection points: 2
#     Edge 93, Type (0, 1), BuildingBlock: TEMPAE_clean_linker_10, # of connection points: 2
#     Edge 94, Type (0, 1), BuildingBlock: TEMPAE_clean_linker_10, # of connection points: 2
#     Edge 95, Type (0, 1), BuildingBlock: TEMPAE_clean_linker_10, # of connection points: 2
#     Edge 96, Type (0, 1), BuildingBlock: TEMPAE_clean_linker_10, # of connection points: 2
#     Edge 97, Type (0, 1), BuildingBlock: TEMPAE_clean_linker_10, # of connection points: 2
#     Edge 98, Type (0, 1), BuildingBlock: TEMPAE_clean_linker_10, # of connection points: 2
#     Edge 99, Type (0, 1), BuildingBlock: TEMPAE_clean_linker_10, # of connection points: 2
#     Edge 100, Type (0, 1), BuildingBlock: TEMPAE_clean_linker_10, # of connection points: 2
#     Edge 101, Type (0, 1), BuildingBlock: TEMPAE_clean_linker_10, # of connection points: 2
# Relax obj value: 0.114
# Max RMSD: 0.217
# Mean RMSD: 0.171
data_MOF--net-llk--node1-QEWDON_clean_sbu_0--node2-CUQRIR_clean_linker_1--edge1-TEMPAE_clean_linker_10
_symmetry_space_group_name_H-M    P1
_symmetry_Int_Tables_number       1
_symmetry_cell_setting            triclinic
loop_
_symmetry_equiv_pos_as_xyz
'x, y, z'
_cell_length_a     44.835522
_cell_length_b     45.138153
_cell_length_c     43.387479
_cell_angle_alpha  90.06948
_cell_angle_beta   89.96828
_cell_angle_gamma 89.701913
loop_
_atom_site_label
_atom_site_type_symbol
_atom_site_fract_x
_atom_site_fract_y
_atom_site_fract_z
_atom_type_partial_charge
C0 C 0.04058 0.25917 0.25475 0.0
N1 N 0.03925 0.28917 0.25408 0.0
N2 N 0.0467 0.24953 0.28371 0.0
C3 C 0.03717 0.23946 0.22709 0.0
C4 C 0.04854 0.27474 0.30058 0.0
N5 N 0.04459 0.29869 0.28248 0.0
C6 C 0.05077 0.27589 0.33526 0.0
H7 H 0.01313 0.23492 0.22348 0.0
H8 H 0.04899 0.21806 0.23056 0.0
H9 H 0.04587 0.25051 0.20612 0.0
H10 H 0.07464 0.27537 0.34195 0.0
H11 H 0.0395 0.25661 0.34589 0.0
H12 H 0.04065 0.29647 0.34467 0.0
C13 C 0.77017 0.04628 0.22666 0.0
N14 N 0.7418 0.05574 0.22198 0.0
N15 N 0.77764 0.04929 0.25664 0.0
C16 C 0.7898 0.032 0.2028 0.0
C17 C 0.75301 0.06109 0.26994 0.0
N18 N 0.73094 0.06457 0.24901 0.0
C19 C 0.74921 0.06489 0.30431 0.0
H20 H 0.78694 0.00762 0.20387 0.0
H21 H 0.81357 0.03694 0.20759 0.0
H22 H 0.78387 0.03977 0.17932 0.0
H23 H 0.73857 0.08647 0.30964 0.0
H24 H 0.7709 0.06405 0.31656 0.0
H25 H 0.73469 0.04703 0.31322 0.0
C26 C 0.01817 0.76766 0.24118 0.0
N27 N 0.02394 0.76608 0.27189 0.0
N28 N 0.02428 0.74139 0.22727 0.0
C29 C 0.00507 0.79421 0.22516 0.0
C30 C 0.03373 0.72383 0.25055 0.0
N31 N 0.0334 0.73866 0.27763 0.0
C32 C 0.04037 0.69116 0.24719 0.0
H33 H 0.9887 0.80558 0.24037 0.0
H34 H 0.9942 0.78803 0.20315 0.0
H35 H 0.02321 0.81003 0.21987 0.0
H36 H 0.05727 0.68759 0.22889 0.0
H37 H 0.01976 0.67946 0.24011 0.0
H38 H 0.04902 0.68124 0.2688 0.0
C39 C 0.24697 0.99014 0.21221 0.0
N40 N 0.276 0.98396 0.21874 0.0
N41 N 0.22971 0.98588 0.23736 0.0
C42 C 0.23518 1.00066 0.18173 0.0
C43 C 0.24912 0.97683 0.25929 0.0
N44 N 0.27719 0.97563 0.24809 0.0
C45 C 0.24131 0.97309 0.29285 0.0
H46 H 0.23563 0.02523 0.1812 0.0
H47 H 0.21169 0.99359 0.17867 0.0
H48 H 0.24894 0.99194 0.16245 0.0
H49 H 0.21743 0.97699 0.29711 0.0
H50 H 0.25455 0.98864 0.30713 0.0
H51 H 0.24664 0.9502 0.30031 0.0
C52 C 0.0008 0.77305 0.75774 0.0
N53 N 0.99225 0.74402 0.7583 0.0
N54 N 0.98771 0.78762 0.73404 0.0
C55 C 0.02557 0.78625 0.77678 0.0
C56 C 0.97202 0.76658 0.71926 0.0
N57 N 0.9753 0.73993 0.73323 0.0
C58 C 0.95826 0.77078 0.68773 0.0
H59 H 0.01576 0.79939 0.79592 0.0
H60 H 0.03924 0.80171 0.763 0.0
H61 H 0.04058 0.76883 0.78611 0.0
H62 H 0.97207 0.75913 0.67021 0.0
H63 H 0.95637 0.79439 0.68107 0.0
H64 H 0.93565 0.76095 0.68728 0.0
C65 C 0.25634 0.97408 0.78211 0.0
N66 N 0.28623 0.97787 0.7833 0.0
N67 N 0.24777 0.96722 0.75305 0.0
C68 C 0.23542 0.97955 0.80863 0.0
C69 C 0.27347 0.96734 0.73668 0.0
N70 N 0.29678 0.97408 0.75498 0.0
C71 C 0.27523 0.96371 0.70212 0.0
H72 H 0.23712 0.9608 0.82504 0.0
H73 H 0.21192 0.98141 0.80089 0.0
H74 H 0.24195 1.0 0.82109 0.0
H75 H 0.26595 0.98383 0.69091 0.0
H76 H 0.26178 0.94452 0.69456 0.0
H77 H 0.29846 0.96011 0.69412 0.0
C78 C 0.00554 0.26094 0.7688 0.0
N79 N 0.00323 0.26056 0.73749 0.0
N80 N 0.00275 0.289 0.77966 0.0
C81 C 0.01048 0.23432 0.78886 0.0
C82 C -0.00149 0.30554 0.75415 0.0
N83 N -0.00128 0.28843 0.72863 0.0
C84 C -0.00333 0.33887 0.75405 0.0
H85 H 0.00087 0.23807 0.81213 0.0
H86 H 0.03482 0.23053 0.7915 0.0
H87 H 0.00042 0.2143 0.77836 0.0
H88 H 0.01958 0.34801 0.75465 0.0
H89 H 0.98457 0.34695 0.77474 0.0
H90 H 0.98527 0.34718 0.73305 0.0
C91 C 0.78838 0.04006 0.80092 0.0
N92 N 0.7599 0.04697 0.7931 0.0
N93 N 0.80768 0.0498 0.77924 0.0
C94 C 0.79703 0.02107 0.82794 0.0
C95 C 0.7898 0.0631 0.75828 0.0
N96 N 0.7607 0.06059 0.76597 0.0
C97 C 0.80078 0.07559 0.72817 0.0
H98 H 0.7999 0.03546 0.84846 0.0
H99 H 0.81842 0.00929 0.82367 0.0
H100 H 0.77925 0.00478 0.83308 0.0
H101 H 0.80409 0.05734 0.71135 0.0
H102 H 0.82256 0.08668 0.73161 0.0
H103 H 0.78443 0.09162 0.71853 0.0
C104 C 0.24109 0.26534 0.02004 0.0
N105 N 0.27127 0.26731 0.01781 0.0
N106 N 0.22789 0.28978 0.00798 0.0
C107 C 0.22459 0.24047 0.03522 0.0
C108 C 0.25091 0.30663 -0.00152 0.0
N109 N 0.27724 0.29322 0.00459 0.0
C110 C 0.24747 0.33656 0.98358 0.0
H111 H 0.21845 0.22391 0.01743 0.0
H112 H 0.20373 0.24875 0.04608 0.0
H113 H 0.23874 0.22942 0.05281 0.0
H114 H 0.24145 0.35312 0.00148 0.0
H115 H 0.2292 0.33602 0.96639 0.0
H116 H 0.26826 0.34357 0.97187 0.0
C117 C 0.21418 0.77475 0.01261 0.0
N118 N 0.24453 0.77413 0.01321 0.0
N119 N 0.20318 0.74693 0.01133 0.0
C120 C 0.19525 0.80219 0.01489 0.0
C121 C 0.22757 0.72941 0.011 0.0
N122 N 0.25272 0.7457 0.01289 0.0
C123 C 0.22658 0.69616 0.00776 0.0
H124 H 0.20717 0.81994 0.02752 0.0
H125 H 0.17382 0.79732 0.0266 0.0
H126 H 0.19013 0.8102 0.9913 0.0
H127 H 0.20823 0.68966 0.99206 0.0
H128 H 0.22211 0.68613 0.03063 0.0
H129 H 0.24787 0.68717 -0.00146 0.0
C130 C 0.76871 0.2495 0.00244 0.0
N131 N 0.78327 0.27521 -0.00231 0.0
N132 N 0.78589 0.22614 0.99434 0.0
C133 C 0.73722 0.24699 0.01426 0.0
C134 C 0.8116 0.23844 0.98437 0.0
N135 N 0.81015 0.26842 0.98663 0.0
C136 C 0.83711 0.22124 0.97067 0.0
H137 H 0.73468 0.22665 0.02835 0.0
H138 H 0.72174 0.24534 0.99439 0.0
H139 H 0.73091 0.2666 0.02832 0.0
H140 H 0.82886 0.20136 0.95833 0.0
H141 H 0.85196 0.21361 0.98954 0.0
H142 H 0.85021 0.23521 0.95463 0.0
C143 C 0.74401 0.7736 0.96077 0.0
N144 N 0.76055 0.74858 0.96233 0.0
N145 N 0.75929 0.7972 0.9715 0.0
C146 C 0.71087 0.77397 0.95468 0.0
C147 C 0.78648 0.78585 0.97837 0.0
N148 N 0.78736 0.75629 0.9725 0.0
C149 C 0.81131 0.80372 0.99206 0.0
H150 H 0.70343 0.79619 0.94681 0.0
H151 H 0.69878 0.76844 0.97624 0.0
H152 H 0.70502 0.75723 0.93698 0.0
H153 H 0.80981 0.80274 0.01756 0.0
H154 H 0.80917 0.82728 0.98505 0.0
H155 H 0.83335 0.79493 0.9847 0.0
C156 C 0.53658 0.75208 0.74694 0.0
N157 N 0.53614 0.78207 0.74807 0.0
N158 N 0.54488 0.74071 0.77455 0.0
C159 C 0.52821 0.73395 0.7193 0.0
C160 C 0.54902 0.76492 0.79248 0.0
N161 N 0.54386 0.79006 0.77641 0.0
C162 C 0.55428 0.76387 0.82678 0.0
H163 H 0.50353 0.73285 0.71781 0.0
H164 H 0.53724 0.71108 0.72113 0.0
H165 H 0.53654 0.74455 0.69792 0.0
H166 H 0.57272 0.74831 0.83225 0.0
H167 H 0.53383 0.75571 0.83831 0.0
H168 H 0.55998 0.78598 0.83623 0.0
C169 C 0.30834 0.53398 0.73613 0.0
N170 N 0.27856 0.52894 0.73464 0.0
N171 N 0.3169 0.53833 0.76576 0.0
C172 C 0.3289 0.53502 0.70875 0.0
C173 C 0.29143 0.53539 0.78223 0.0
N174 N 0.26815 0.52955 0.76336 0.0
C175 C 0.28962 0.53897 0.81679 0.0
H176 H 0.32151 0.51923 0.69072 0.0
H177 H 0.35229 0.53006 0.7152 0.0
H178 H 0.32834 0.55767 0.6989 0.0
H179 H 0.29405 0.56239 0.82289 0.0
H180 H 0.30707 0.52515 0.82796 0.0
H181 H 0.26759 0.53328 0.82648 0.0
C182 C 0.47683 0.27291 0.7335 0.0
N183 N 0.47772 0.27214 0.76481 0.0
N184 N 0.46876 0.24625 0.722 0.0
C185 C 0.48352 0.29948 0.71393 0.0
C186 C 0.46534 0.22902 0.74719 0.0
N187 N 0.4702 0.24481 0.77327 0.0
C188 C 0.46138 0.19582 0.74603 0.0
H189 H 0.47104 0.29839 0.69188 0.0
H190 H 0.5077 0.29966 0.70845 0.0
H191 H 0.47771 0.32029 0.72625 0.0
H192 H 0.46806 0.18642 0.72344 0.0
H193 H 0.43754 0.19055 0.74993 0.0
H194 H 0.47479 0.18477 0.76422 0.0
C195 C 0.72003 0.49484 0.75389 0.0
N196 N 0.74964 0.49465 0.76008 0.0
N197 N 0.70461 0.48065 0.77636 0.0
C198 C 0.70591 0.5122 0.72818 0.0
C199 C 0.72621 0.47153 0.79603 0.0
N200 N 0.75343 0.48061 0.78669 0.0
C201 C 0.72011 0.45722 0.82676 0.0
H202 H 0.71391 0.53542 0.72895 0.0
H203 H 0.68121 0.51185 0.72964 0.0
H204 H 0.71283 0.50264 0.70572 0.0
H205 H 0.70278 0.43995 0.82427 0.0
H206 H 0.71156 0.47419 0.84308 0.0
H207 H 0.74062 0.44701 0.83649 0.0
C208 C 0.49774 0.27778 0.26181 0.0
N209 N 0.49589 0.24771 0.26295 0.0
N210 N 0.49255 0.28769 0.23278 0.0
C211 C 0.50461 0.29758 0.28866 0.0
C212 C 0.48765 0.26275 0.21634 0.0
N213 N 0.48938 0.23855 0.2346 0.0
C214 C 0.48469 0.26172 0.18172 0.0
H215 H 0.49524 0.3201 0.28487 0.0
H216 H 0.52916 0.29954 0.291 0.0
H217 H 0.4955 0.28824 0.31033 0.0
H218 H 0.50329 0.24843 0.17191 0.0
H219 H 0.48478 0.28407 0.17116 0.0
H220 H 0.46354 0.25064 0.17541 0.0
C221 C 0.72013 0.4902 0.28208 0.0
N222 N 0.75002 0.49413 0.28371 0.0
N223 N 0.7127 0.4758 0.25578 0.0
C224 C 0.69803 0.50279 0.3047 0.0
C225 C 0.73916 0.47141 0.24146 0.0
N226 N 0.76184 0.48271 0.25819 0.0
C227 C 0.74227 0.4586 0.20951 0.0
H228 H 0.69588 0.48729 0.32439 0.0
H229 H 0.67568 0.50565 0.29414 0.0
H230 H 0.70596 0.52436 0.31378 0.0
H231 H 0.73638 0.47585 0.19231 0.0
H232 H 0.72663 0.43988 0.20639 0.0
H233 H 0.76536 0.45073 0.20511 0.0
C234 C 0.55852 0.76588 0.28645 0.0
N235 N 0.5535 0.76276 0.25575 0.0
N236 N 0.55903 0.79505 0.29438 0.0
C237 C 0.56092 0.74065 0.30885 0.0
C238 C 0.55385 0.80937 0.26749 0.0
N239 N 0.55062 0.78983 0.24423 0.0
C240 C 0.54966 0.84248 0.26439 0.0
H241 H 0.5383 0.73168 0.31317 0.0
H242 H 0.57072 0.74802 0.33102 0.0
H243 H 0.57476 0.7225 0.29915 0.0
H244 H 0.57172 0.85339 0.26573 0.0
H245 H 0.5356 0.85111 0.28349 0.0
H246 H 0.53935 0.84894 0.24221 0.0
C247 C 0.29585 0.53785 0.26576 0.0
N248 N 0.2663 0.54131 0.26017 0.0
N249 N 0.31222 0.5541 0.24574 0.0
C250 C 0.309 0.51479 0.28675 0.0
C251 C 0.29136 0.56799 0.22841 0.0
N252 N 0.26352 0.5596 0.23635 0.0
C253 C 0.29857 0.58628 0.20037 0.0
H254 H 0.32999 0.52316 0.29706 0.0
H255 H 0.31458 0.49481 0.27294 0.0
H256 H 0.29325 0.50828 0.3052 0.0
H257 H 0.30292 0.57143 0.18045 0.0
H258 H 0.31901 0.59948 0.2045 0.0
H259 H 0.2797 0.60126 0.19454 0.0
C260 C 0.76142 0.76896 0.48978 0.0
N261 N 0.79174 0.76861 0.48952 0.0
N262 N 0.75096 0.79701 0.48671 0.0
C263 C 0.74193 0.74224 0.49325 0.0
C264 C 0.77585 0.81364 0.48483 0.0
N265 N 0.80065 0.79654 0.48661 0.0
C266 C 0.77581 0.84704 0.48477 0.0
H267 H 0.75262 0.72247 0.48268 0.0
H268 H 0.71981 0.74621 0.48251 0.0
H269 H 0.73846 0.73784 0.51815 0.0
H270 H 0.76971 0.85516 0.5081 0.0
H271 H 0.7589 0.85561 0.46836 0.0
H272 H 0.79795 0.85602 0.47835 0.0
C273 C 0.75637 0.26182 0.49578 0.0
N274 N 0.78656 0.26389 0.4927 0.0
N275 N 0.74803 0.23316 0.49927 0.0
C276 C 0.73477 0.28717 0.49242 0.0
C277 C 0.774 0.21795 0.49838 0.0
N278 N 0.79718 0.23634 0.49388 0.0
C279 C 0.77704 0.18509 0.50366 0.0
H280 H 0.7284 0.29531 0.51566 0.0
H281 H 0.71416 0.27971 0.48064 0.0
H282 H 0.74482 0.30564 0.47922 0.0
H283 H 0.7786 0.17358 0.4811 0.0
H284 H 0.75772 0.17622 0.51662 0.0
H285 H 0.79769 0.1803 0.51681 0.0
C286 C 0.22009 0.76344 0.53001 0.0
N287 N 0.23765 0.7877 0.52924 0.0
N288 N 0.23574 0.73901 0.52178 0.0
C289 C 0.18704 0.76387 0.53648 0.0
C290 C 0.26337 0.74932 0.51526 0.0
N291 N 0.26446 0.77901 0.51967 0.0
C292 C 0.28924 0.73062 0.50489 0.0
H293 H 0.18348 0.76479 0.56176 0.0
H294 H 0.17582 0.74383 0.52745 0.0
H295 H 0.17648 0.7838 0.52611 0.0
H296 H 0.28243 0.70743 0.50031 0.0
H297 H 0.30667 0.73082 0.52304 0.0
H298 H 0.29916 0.74033 0.48377 0.0
C299 C 0.2254 0.26295 0.53036 0.0
N300 N 0.24074 0.23721 0.52742 0.0
N301 N 0.24313 0.2863 0.52408 0.0
C302 C 0.19231 0.26524 0.53636 0.0
C303 C 0.26969 0.27388 0.51641 0.0
N304 N 0.26821 0.24399 0.51835 0.0
C305 C 0.297 0.2907 0.50705 0.0
H306 H 0.18279 0.28612 0.52704 0.0
H307 H 0.18839 0.26487 0.5616 0.0
H308 H 0.18032 0.2463 0.52588 0.0
H309 H 0.31524 0.28595 0.52364 0.0
H310 H 0.29278 0.31492 0.50633 0.0
H311 H 0.30455 0.28288 0.48406 0.0
Zn312 Zn 0.96449 0.98041 0.45581 0.0
Zn313 Zn 0.96083 0.05281 0.45657 0.0
O314 O 0.98948 0.01775 0.45482 0.0
H315 H 0.00769 0.01655 0.443 0.0
C316 C 0.94839 0.94885 0.53275 0.0
O317 O 0.94117 0.97435 0.52016 0.0
Zn318 Zn 0.07443 0.05653 0.55314 0.0
Zn319 Zn 0.06001 0.98749 0.54881 0.0
O320 O 0.04108 0.02744 0.55591 0.0
H321 H 0.02688 0.02782 0.57262 0.0
Zn322 Zn 0.98151 0.98928 0.57166 0.0
O323 O 0.98078 0.02354 0.54127 0.0
Zn324 Zn 0.9767 0.06041 0.56699 0.0
H325 H 0.98966 0.02227 0.52101 0.0
Zn326 Zn 0.06504 0.98177 0.45411 0.0
O327 O 0.05627 0.01997 0.47582 0.0
H328 H 0.04348 0.02096 0.49373 0.0
Zn329 Zn 0.06134 0.05276 0.44531 0.0
C330 C 0.10815 0.95834 0.49796 0.0
O331 O 0.11351 0.98672 0.50167 0.0
O332 O 0.92377 0.99045 0.43814 0.0
O333 O 0.92182 0.03981 0.43678 0.0
O334 O 0.1004 0.98933 0.57022 0.0
O335 O 0.10898 0.03767 0.5759 0.0
O336 O 0.9673 0.00137 0.6153 0.0
O337 O 0.96004 0.04989 0.60883 0.0
C338 C 0.00429 0.08764 0.42674 0.0
O339 O 0.07913 0.98801 0.40964 0.0
O340 O 0.07678 0.0371 0.40428 0.0
O341 O 0.0369 0.95381 0.57062 0.0
C342 C 0.91085 0.01444 0.43038 0.0
O343 O 0.97879 0.94455 0.4293 0.0
C344 C 0.03554 0.09837 0.58172 0.0
O345 O 0.96636 0.94866 0.55538 0.0
C346 C 0.11571 0.0106 0.58099 0.0
O347 O 0.08795 0.95041 0.4792 0.0
C348 C 0.94577 0.08661 0.51599 0.0
O349 O 0.97633 0.08695 0.43094 0.0
O350 O 0.02003 0.06848 0.44054 0.0
C351 C 0.95859 0.02652 0.62535 0.0
O352 O 0.06294 0.09479 0.57515 0.0
O353 O 0.01733 0.07918 0.57166 0.0
C354 C 0.09416 0.08238 0.49205 0.0
O355 O 0.94952 0.08853 0.54496 0.0
O356 O 0.95838 0.06567 0.50122 0.0
C357 C 0.08242 0.01134 0.39354 0.0
O358 O 0.08977 0.08308 0.46311 0.0
O359 O 0.07994 0.06365 0.50797 0.0
C360 C 0.03333 0.9597 0.59907 0.0
O361 O 0.04166 0.98573 0.60934 0.0
C362 C 0.00214 0.9285 0.43009 0.0
O363 O 0.02251 0.93349 0.45119 0.0
Zn364 Zn 0.47531 0.07145 0.04682 0.0
Zn365 Zn 0.46916 0.07749 0.97272 0.0
O366 O 0.47917 0.04932 0.00652 0.0
H367 H 0.48666 0.02936 0.00416 0.0
C368 C 0.55032 0.10053 0.07608 0.0
O369 O 0.55539 0.11607 0.05103 0.0
Zn370 Zn 0.55129 0.96198 0.96305 0.0
Zn371 Zn 0.54982 0.97182 0.0363 0.0
O372 O 0.54595 0.99288 0.99546 0.0
H373 H 0.53473 0.01094 0.99254 0.0
Zn374 Zn 0.57401 0.05999 0.03377 0.0
O375 O 0.54594 0.06741 -0.00126 0.0
Zn376 Zn 0.57082 0.06541 0.96033 0.0
H377 H 0.52949 0.08075 0.0027 0.0
Zn378 Zn 0.4485 0.9496 0.03709 0.0
O379 O 0.47448 0.96102 0.00147 0.0
H380 H 0.49385 0.96974 0.00451 0.0
Zn381 Zn 0.448 0.96744 0.9654 0.0
C382 C 0.49146 0.92392 0.08046 0.0
O383 O 0.50137 0.95121 0.08214 0.0
O384 O 0.44994 0.1091 0.04095 0.0
O385 O 0.4481 0.11446 0.98995 0.0
O386 O 0.57693 0.93573 0.03081 0.0
O387 O 0.57453 0.92679 0.98039 0.0
O388 O 0.61516 0.07623 0.02222 0.0
O389 O 0.61332 0.07841 0.97077 0.0
C390 C 0.43418 0.02994 0.94389 0.0
O391 O 0.40647 0.93771 0.02371 0.0
O392 O 0.40726 0.94741 0.9733 0.0
O393 O 0.56766 0.99759 0.07045 0.0
C394 C 0.44107 0.12306 0.01712 0.0
O395 O 0.46045 0.04658 0.08353 0.0
C396 C 0.58374 0.00538 0.92851 0.0
O397 O 0.55689 0.07315 0.07596 0.0
C398 C 0.5846 0.92078 0.00722 0.0
O399 O 0.46893 0.91822 0.06387 0.0
C400 C 0.52371 0.09842 0.93122 0.0
O401 O 0.43941 0.05762 0.9447 0.0
O402 O 0.44918 0.01233 0.96064 0.0
C403 C 0.62721 0.08177 0.99628 0.0
O404 O 0.57733 0.97802 0.92933 0.0
O405 O 0.56969 0.02286 0.94641 0.0
C406 C 0.49449 0.94488 0.92675 0.0
O407 O 0.55153 0.09298 0.92894 0.0
O408 O 0.50886 0.08473 0.95163 0.0
C409 C 0.39424 0.9371 0.99727 0.0
O410 O 0.46632 0.94756 0.92787 0.0
O411 O 0.50946 0.95473 0.94926 0.0
C412 C 0.59286 0.00731 0.06192 0.0
O413 O 0.60193 0.00171 0.03368 0.0
C414 C 0.44492 0.02398 0.07697 0.0
O415 O 0.44208 0.01628 0.04791 0.0
Zn416 Zn 0.96955 0.49246 0.97089 0.0
Zn417 Zn 0.9559 0.56309 0.97302 0.0
O418 O 0.98828 0.53304 0.97883 0.0
H419 H 0.00484 0.53682 0.99239 0.0
C420 C 0.94616 0.43445 0.02658 0.0
O421 O 0.96908 0.44453 0.01105 0.0
Zn422 Zn 0.05062 0.55732 0.04464 0.0
Zn423 Zn 0.05332 0.4873 0.05686 0.0
O424 O 0.02475 0.52098 0.04789 0.0
H425 H 0.00391 0.51864 0.04296 0.0
Zn426 Zn 0.9569 0.48541 0.06878 0.0
O427 O 0.94363 0.5212 0.04476 0.0
Zn428 Zn 0.9482 0.5544 0.07488 0.0
H429 H 0.92955 0.52019 0.02794 0.0
Zn430 Zn 0.04954 0.4838 0.92679 0.0
O431 O 0.04614 0.51773 0.95703 0.0
H432 H 0.05215 0.51501 0.97821 0.0
Zn433 Zn 0.04692 0.55529 0.93234 0.0
C434 C 0.08936 0.4456 0.95951 0.0
O435 O 0.10379 0.47086 0.95864 0.0
O436 O 0.92928 0.49683 0.94912 0.0
O437 O 0.92291 0.54575 0.94682 0.0
O438 O 0.08989 0.50302 0.07979 0.0
O439 O 0.08942 0.55098 0.06781 0.0
O440 O 0.946 0.49146 0.11415 0.0
O441 O 0.93664 0.53986 0.11795 0.0
C442 C 0.99318 0.59491 0.93091 0.0
O443 O 0.0719 0.49771 0.8876 0.0
O444 O 0.07027 0.54695 0.89308 0.0
O445 O 0.03719 0.44779 0.0745 0.0
C446 C 0.91495 0.51949 0.93981 0.0
O447 O 0.99317 0.4562 0.95243 0.0
C448 C 0.00471 0.59107 0.07415 0.0
O449 O 0.93842 0.44723 0.05141 0.0
C450 C 0.10111 0.52882 0.0816 0.0
O451 O 0.06384 0.44416 0.9469 0.0
C452 C 0.92437 0.59156 0.03081 0.0
O453 O 0.97157 0.59755 0.9497 0.0
O454 O 0.00405 0.56908 0.92634 0.0
C455 C 0.9372 0.51384 0.12967 0.0
O456 O 0.0314 0.59252 0.06477 0.0
O457 O 0.99059 0.56709 0.07019 0.0
C458 C 0.06834 0.587 0.98539 0.0
O459 O 0.92219 0.58757 0.05973 0.0
O460 O 0.94188 0.57463 0.01575 0.0
C461 C 0.07861 0.52371 0.87845 0.0
O462 O 0.06824 0.58703 0.95614 0.0
O463 O 0.05598 0.56585 -0.00036 0.0
C464 C 0.0211 0.44893 0.0986 0.0
O465 O 0.01338 0.47502 0.10955 0.0
C466 C 0.99047 0.45362 0.92337 0.0
O467 O 0.97695 0.475 0.9082 0.0
Zn468 Zn 0.48491 0.47203 0.97681 0.0
Zn469 Zn 0.48322 0.46799 0.05001 0.0
O470 O 0.48543 0.49731 0.0153 0.0
H471 H 0.48134 0.51833 0.01526 0.0
C472 C 0.54799 0.42698 0.91513 0.0
O473 O 0.53824 0.45448 0.91476 0.0
Zn474 Zn 0.56653 0.56862 0.05701 0.0
Zn475 Zn 0.55037 0.57012 0.9854 0.0
O476 O 0.5464 0.5449 0.02421 0.0
H477 H 0.53678 0.52593 0.0264 0.0
Zn478 Zn 0.58532 0.44801 0.96806 0.0
O479 O 0.55848 0.45812 0.00439 0.0
Zn480 Zn 0.58451 0.46077 0.04195 0.0
H481 H 0.53912 0.46734 0.00206 0.0
Zn482 Zn 0.47418 0.57656 0.99044 0.0
O483 O 0.5018 0.58316 0.02704 0.0
H484 H 0.51787 0.59734 0.02663 0.0
Zn485 Zn 0.47406 0.57708 0.06218 0.0
C486 C 0.5015 0.61235 0.94537 0.0
O487 O 0.4995 0.62946 0.96983 0.0
O488 O 0.46659 0.43148 0.98572 0.0
O489 O 0.4597 0.43156 0.0366 0.0
O490 O 0.583 0.60213 0.98975 0.0
O491 O 0.5973 0.59609 0.03859 0.0
O492 O 0.62873 0.43916 0.98175 0.0
O493 O 0.62568 0.44462 0.0328 0.0
C494 C 0.46351 0.51542 0.09135 0.0
O495 O 0.43453 0.59836 -0.00058 0.0
O496 O 0.43586 0.59879 0.05078 0.0
O497 O 0.55423 0.54764 0.94388 0.0
C498 C 0.45636 0.41959 0.0101 0.0
O499 O 0.46367 0.4903 0.9391 0.0
C500 C 0.59092 0.51398 0.08065 0.0
O501 O 0.56753 0.41943 0.93493 0.0
C502 C 0.60038 0.60798 0.01213 0.0
O503 O 0.49233 0.58585 0.94738 0.0
C504 C 0.5385 0.44045 0.07966 0.0
O505 O 0.46589 0.48749 0.0878 0.0
O506 O 0.47098 0.53244 0.06928 0.0
C507 C 0.64037 0.43788 0.00854 0.0
O508 O 0.58669 0.54127 0.08592 0.0
O509 O 0.58549 0.50354 0.05407 0.0
C510 C 0.51826 0.60262 0.10229 0.0
O511 O 0.56658 0.43804 0.0774 0.0
O512 O 0.52501 0.45584 0.05948 0.0
C513 C 0.4236 0.60615 0.02533 0.0
O514 O 0.4905 0.59847 0.09881 0.0
O515 O 0.53678 0.58945 0.08475 0.0
C516 C 0.57244 0.526 0.94381 0.0
O517 O 0.5852 0.51836 0.96991 0.0
C518 C 0.47379 0.50791 0.9189 0.0
O519 O 0.50143 0.51709 0.92089 0.0
Zn520 Zn 0.96493 0.49829 0.45958 0.0
Zn521 Zn 0.95644 0.56859 0.46846 0.0
O522 O 0.98417 0.53483 0.47658 0.0
H523 H -0.00257 0.53474 0.49408 0.0
C524 C 0.91052 0.44569 0.5243 0.0
O525 O 0.90609 0.47026 0.5087 0.0
Zn526 Zn 0.06313 0.55449 0.55166 0.0
Zn527 Zn 0.07055 0.48515 0.54456 0.0
O528 O 0.03926 0.51759 0.5488 0.0
H529 H 0.01864 0.51561 0.54276 0.0
Zn530 Zn 0.94117 0.48665 0.56778 0.0
O531 O 0.94284 0.52328 0.54028 0.0
Zn532 Zn 0.95207 0.55609 0.57018 0.0
H533 H 0.93391 0.52501 0.52009 0.0
Zn534 Zn 0.06468 0.48018 0.44873 0.0
O535 O 0.0543 0.51763 0.47083 0.0
H536 H 0.04669 0.51788 0.49157 0.0
Zn537 Zn 0.05929 0.55248 0.44307 0.0
C538 C 0.11285 0.45826 0.48629 0.0
O539 O 0.12039 0.48624 0.4836 0.0
O540 O 0.92527 0.50737 0.43841 0.0
O541 O 0.92004 0.55625 0.44341 0.0
O542 O 0.11066 0.49742 0.56443 0.0
O543 O 0.10182 0.54523 0.57406 0.0
O544 O 0.92514 0.49786 0.61099 0.0
O545 O 0.93369 0.54643 0.6117 0.0
C546 C 0.0066 0.59696 0.43946 0.0
O547 O 0.08411 0.49015 0.40754 0.0
O548 O 0.07778 0.53889 0.40174 0.0
O549 O 0.05483 0.444 0.5578 0.0
C550 C 0.91083 0.53126 0.43349 0.0
O551 O 0.99091 0.4678 0.43631 0.0
C552 C 0.01126 0.58283 0.58032 0.0
O553 O 0.92529 0.44678 0.54932 0.0
C554 C 0.1183 0.52214 0.57623 0.0
O555 O 0.08865 0.44957 0.47408 0.0
C556 C 0.93154 0.59916 0.52819 0.0
O557 O 0.97951 0.601 0.44732 0.0
O558 O 0.01824 0.57152 0.44358 0.0
C559 C 0.92352 0.52302 0.6243 0.0
O560 O 0.03918 0.58511 0.57548 0.0
O561 O -0.00306 0.56118 0.56912 0.0
C562 C 0.09014 0.58112 0.49217 0.0
O563 O 0.93209 0.59432 0.55691 0.0
O564 O 0.9448 0.58068 0.51092 0.0
C565 C 0.08778 0.51385 0.39211 0.0
O566 O 0.08887 0.57988 0.46297 0.0
O567 O 0.07123 0.56646 0.50768 0.0
C568 C 0.03742 0.44515 0.58089 0.0
O569 O 0.03098 0.47114 0.5929 0.0
C570 C 0.0017 0.47503 0.41031 0.0
O571 O -0.00212 0.50228 0.4004 0.0
Zn572 Zn 0.45631 0.99033 0.46555 0.0
Zn573 Zn 0.44513 0.05998 0.45785 0.0
O574 O 0.47777 0.02903 0.45871 0.0
H575 H 0.49413 0.02765 0.44428 0.0
C576 C 0.4322 0.92495 0.51881 0.0
O577 O 0.45973 0.9155 0.52259 0.0
Zn578 Zn 0.56386 0.06458 0.55339 0.0
Zn579 Zn 0.56126 0.99453 0.57363 0.0
O580 O 0.53923 0.02714 0.55206 0.0
H581 H 0.52018 0.02404 0.54229 0.0
Zn582 Zn 0.45844 0.98043 0.54213 0.0
O583 O 0.4629 0.02192 0.52481 0.0
Zn584 Zn 0.46001 0.05129 0.55971 0.0
H585 H 0.46109 0.00139 0.53072 0.0
Zn586 Zn 0.57188 0.99757 0.45995 0.0
O587 O 0.54475 0.02946 0.47772 0.0
H588 H 0.52788 0.02512 0.49069 0.0
Zn589 Zn 0.54622 0.06354 0.44745 0.0
C590 C 0.60911 0.95824 0.49858 0.0
O591 O 0.62251 0.9836 0.50371 0.0
O592 O 0.41675 0.99339 0.44283 0.0
O593 O 0.4109 0.04169 0.43357 0.0
O594 O 0.59527 0.01243 0.59848 0.0
O595 O 0.60046 0.05876 0.58132 0.0
O596 O 0.4554 0.98161 0.58928 0.0
O597 O 0.45166 0.02986 0.59996 0.0
C598 C 0.48737 0.09951 0.43136 0.0
O599 O 0.58603 0.00702 0.416 0.0
O600 O 0.56301 0.05008 0.40675 0.0
O601 O 0.53789 0.96138 0.59637 0.0
C602 C 0.40303 0.01473 0.42989 0.0
O603 O 0.47776 0.95402 0.44612 0.0
C604 C 0.51132 0.09494 0.57259 0.0
O605 O 0.42629 0.95213 0.52375 0.0
C606 C 0.60836 0.0374 0.59901 0.0
O607 O 0.58574 0.95818 0.48195 0.0
C608 C 0.42211 0.08504 0.52172 0.0
O609 O 0.45951 0.0968 0.43583 0.0
O610 O 0.50446 0.07962 0.44234 0.0
C611 C 0.45156 0.00274 0.60838 0.0
O612 O 0.53942 0.0977 0.57146 0.0
O613 O 0.4999 0.07108 0.56274 0.0
C614 C 0.57947 0.09666 0.49178 0.0
O615 O 0.42754 0.08112 0.55015 0.0
O616 O 0.43673 0.06968 0.50232 0.0
C617 C 0.57919 0.02833 0.39801 0.0
O618 O 0.57275 0.09574 0.46339 0.0
O619 O 0.56993 0.076 0.50901 0.0
C620 C 0.53427 0.93545 0.58557 0.0
O621 O 0.54402 0.9294 0.55768 0.0
C622 C 0.50116 0.94008 0.45415 0.0
O623 O 0.51529 0.94794 0.47937 0.0
C624 C 0.21173 0.20062 0.5564 0.0
C625 C 0.22811 0.20805 0.53002 0.0
C626 C 0.19133 0.17715 0.55592 0.0
C627 C 0.1883 0.16004 0.52875 0.0
C628 C 0.20755 0.16525 0.50345 0.0
C629 C 0.2266 0.18974 0.50408 0.0
C630 C 0.17087 0.1729 0.58316 0.0
C631 C 0.20593 0.14681 0.47445 0.0
C632 C 0.13947 0.09167 0.52346 0.0
C633 C 0.11548 0.10279 0.50627 0.0
C634 C 0.16305 0.11023 0.53225 0.0
C635 C 0.16194 0.14065 0.52434 0.0
C636 C 0.13648 0.15226 0.50907 0.0
C637 C 0.11385 0.13302 0.4996 0.0
C638 C 0.18998 0.09683 0.54786 0.0
C639 C 0.13381 0.18479 0.5013 0.0
H640 H 0.21292 0.21496 0.57642 0.0
H641 H 0.2382 0.19597 0.48329 0.0
H642 H 0.14887 0.1831 0.57794 0.0
H643 H 0.16712 0.14907 0.58784 0.0
H644 H 0.17983 0.18353 0.60431 0.0
H645 H 0.22597 0.14983 0.45972 0.0
H646 H 0.20377 0.12295 0.48014 0.0
H647 H 0.18598 0.15344 0.46095 0.0
H648 H 0.14074 0.06811 0.52821 0.0
H649 H 0.09513 0.14147 0.48638 0.0
H650 H 0.19816 0.11131 0.56667 0.0
H651 H 0.20828 0.09456 0.53076 0.0
H652 H 0.18514 0.07455 0.55746 0.0
H653 H 0.11107 0.19079 0.49319 0.0
H654 H 0.14997 0.19043 0.48287 0.0
H655 H 0.13923 0.19856 0.52173 0.0
C656 C 0.83131 0.20949 0.46021 0.0
C657 C 0.82686 0.22633 0.48695 0.0
C658 C 0.85541 0.18978 0.45785 0.0
C659 C 0.87551 0.18729 0.48279 0.0
C660 C 0.87355 0.20762 0.50769 0.0
C661 C 0.84883 0.22678 0.50971 0.0
C662 C 0.85699 0.169 0.43065 0.0
C663 C 0.89556 0.20668 0.53394 0.0
C664 C 0.89709 0.11072 0.51003 0.0
C665 C 0.92687 0.10875 0.50095 0.0
C666 C 0.8799 0.13565 0.50281 0.0
C667 C 0.8931 0.15954 0.48667 0.0
C668 C 0.92296 0.15705 0.47617 0.0
C669 C 0.93952 0.13138 0.4833 0.0
C670 C 0.848 0.13696 0.51398 0.0
C671 C 0.93778 0.18155 0.45827 0.0
H672 H 0.8141 0.20947 0.44268 0.0
H673 H 0.84524 0.24001 0.53026 0.0
H674 H 0.88036 0.16626 0.42272 0.0
H675 H 0.84873 0.14686 0.43765 0.0
H676 H 0.84316 0.177 0.41108 0.0
H677 H 0.89459 0.22723 0.54805 0.0
H678 H 0.8904 0.18757 0.54908 0.0
H679 H 0.91861 0.20364 0.5251 0.0
H680 H 0.88765 0.09322 0.52405 0.0
H681 H 0.96284 0.12988 0.47682 0.0
H682 H 0.83284 0.14222 0.49453 0.0
H683 H 0.84559 0.15477 0.53147 0.0
H684 H 0.8407 0.11578 0.52452 0.0
H685 H 0.93212 0.17916 0.4335 0.0
H686 H 0.96245 0.18047 0.46041 0.0
H687 H 0.93006 0.20376 0.46597 0.0
C688 C 0.83244 0.82124 0.52417 0.0
C689 C 0.82942 0.8077 0.49534 0.0
C690 C 0.85625 0.84034 0.53027 0.0
C691 C 0.87831 0.8448 0.50739 0.0
C692 C 0.87721 0.82823 0.47966 0.0
C693 C 0.85211 0.8107 0.47345 0.0
C694 C 0.85614 0.85787 0.55993 0.0
C695 C 0.90145 0.83066 0.45568 0.0
C696 C 0.90785 0.92315 0.50409 0.0
C697 C 0.93303 0.92137 0.52312 0.0
C698 C 0.89053 0.89808 0.49792 0.0
C699 C 0.89906 0.87027 0.51037 0.0
C700 C 0.92564 0.86793 0.52786 0.0
C701 C 0.9421 0.89361 0.53439 0.0
C702 C 0.86209 0.90179 0.47958 0.0
C703 C 0.93624 0.83875 0.54091 0.0
H704 H 0.81454 0.81902 0.5408 0.0
H705 H 0.84944 0.80091 0.45085 0.0
H706 H 0.87774 0.85514 0.57204 0.0
H707 H 0.85332 0.8818 0.5547 0.0
H708 H 0.83793 0.85103 0.57572 0.0
H709 H 0.90105 0.81162 0.43943 0.0
H710 H 0.89829 0.8513 0.44222 0.0
H711 H 0.92373 0.83166 0.46678 0.0
H712 H 0.90077 0.94446 0.49512 0.0
H713 H 0.96176 0.89198 0.54881 0.0
H714 H 0.84266 0.89551 0.49399 0.0
H715 H 0.86234 0.88694 0.45922 0.0
H716 H 0.85875 0.9249 0.47144 0.0
H717 H 0.9285 0.81962 0.52702 0.0
H718 H 0.92757 0.8363 0.56473 0.0
H719 H 0.96098 0.83803 0.54222 0.0
C720 C 0.21175 0.82578 0.55982 0.0
C721 C 0.22769 0.8178 0.53329 0.0
C722 C 0.19463 0.85187 0.56063 0.0
C723 C 0.19413 0.87054 0.53445 0.0
C724 C 0.21311 0.86425 0.50913 0.0
C725 C 0.22928 0.83763 0.50864 0.0
C726 C 0.17481 0.85772 0.58811 0.0
C727 C 0.21394 0.88405 0.48113 0.0
C728 C 0.12258 0.90566 0.50658 0.0
C729 C 0.12781 0.93577 0.51214 0.0
C730 C 0.14328 0.88406 0.51557 0.0
C731 C 0.1699 0.89276 0.53056 0.0
C732 C 0.17423 0.92286 0.53847 0.0
C733 C 0.1531 0.9441 0.52908 0.0
C734 C 0.13744 0.85207 0.50727 0.0
C735 C 0.20195 0.93298 0.55505 0.0
H736 H 0.21088 0.81042 0.57897 0.0
H737 H 0.2411 0.83123 0.48792 0.0
H738 H 0.1739 0.88169 0.59371 0.0
H739 H 0.15179 0.8505 0.58265 0.0
H740 H 0.18251 0.84534 0.60877 0.0
H741 H 0.23328 0.87886 0.46599 0.0
H742 H 0.19318 0.88108 0.46759 0.0
H743 H 0.21513 0.90768 0.4881 0.0
H744 H 0.10284 0.89898 0.49399 0.0
H745 H 0.15709 0.96732 0.53389 0.0
H746 H 0.14076 0.83761 0.52765 0.0
H747 H 0.15348 0.84477 0.48928 0.0
H748 H 0.11447 0.84868 0.49837 0.0
H749 H 0.20883 0.91685 0.573 0.0
H750 H 0.19865 0.95502 0.56602 0.0
H751 H 0.22051 0.93473 0.53823 0.0
C752 C 0.47022 0.19594 0.20568 0.0
C753 C 0.49285 0.20879 0.22328 0.0
C754 C 0.47639 0.17181 0.18628 0.0
C755 C 0.50588 0.1605 0.18474 0.0
C756 C 0.52762 0.17083 0.20581 0.0
C757 C 0.52082 0.19507 0.22482 0.0
C758 C 0.45232 0.16107 0.16477 0.0
C759 C 0.55917 0.15903 0.20543 0.0
C760 C 0.52824 0.09867 0.12935 0.0
C761 C 0.53796 0.11514 0.10383 0.0
C762 C 0.517 0.11293 0.15582 0.0
C763 C 0.51581 0.14427 0.15672 0.0
C764 C 0.52523 0.16086 0.13082 0.0
C765 C 0.53601 0.1461 0.10473 0.0
C766 C 0.50637 0.09457 0.18267 0.0
C767 C 0.52435 0.19436 0.13072 0.0
H768 H 0.44843 0.20643 0.20515 0.0
H769 H 0.53818 0.20509 0.23867 0.0
H770 H 0.45489 0.17209 0.14208 0.0
H771 H 0.45405 0.13682 0.16099 0.0
H772 H 0.42972 0.16643 0.17377 0.0
H773 H 0.57131 0.16476 0.22694 0.0
H774 H 0.55949 0.13463 0.20249 0.0
H775 H 0.57132 0.16885 0.18566 0.0
H776 H 0.52938 0.07469 0.12861 0.0
H777 H 0.54338 0.15898 0.08511 0.0
H778 H 0.48221 0.09854 0.18647 0.0
H779 H 0.51806 0.10124 0.20409 0.0
H780 H 0.51002 0.07047 0.17886 0.0
H781 H 0.50115 0.20229 0.13437 0.0
H782 H 0.5327 0.20387 0.10877 0.0
H783 H 0.53813 0.20313 0.14988 0.0
C784 C 0.81679 0.47828 0.26171 0.0
C785 C 0.79127 0.48874 0.24657 0.0
C786 C 0.84534 0.48332 0.24931 0.0
C787 C 0.84805 0.49873 0.22099 0.0
C788 C 0.8222 0.51008 0.20629 0.0
C789 C 0.79427 0.50544 0.21964 0.0
C790 C 0.87243 0.47214 0.26643 0.0
C791 C 0.82376 0.52575 0.17555 0.0
C792 C 0.91496 0.53063 0.18007 0.0
C793 C 0.92094 0.50803 0.15872 0.0
C794 C 0.89363 0.52654 0.20349 0.0
C795 C 0.87695 0.49998 0.20426 0.0
C796 C 0.88471 0.47632 0.18438 0.0
C797 C 0.90711 0.4804 0.16241 0.0
C798 C 0.88752 0.55133 0.22599 0.0
C799 C 0.86723 0.44776 0.18398 0.0
H800 H 0.81428 0.46595 0.28296 0.0
H801 H 0.77443 0.51421 0.20862 0.0
H802 H 0.88926 0.46248 0.25056 0.0
H803 H 0.88309 0.49107 0.27839 0.0
H804 H 0.86647 0.45518 0.28388 0.0
H805 H 0.80139 0.53251 0.16697 0.0
H806 H 0.83775 0.54583 0.17746 0.0
H807 H 0.83426 0.511 0.15813 0.0
H808 H 0.92597 0.55184 0.17772 0.0
H809 H 0.91169 0.46267 0.14618 0.0
H810 H 0.88274 0.54238 0.2493 0.0
H811 H 0.86767 0.56412 0.2184 0.0
H812 H 0.90667 0.56679 0.22751 0.0
H813 H 0.86589 0.43821 0.20746 0.0
H814 H 0.87725 0.43092 0.16835 0.0
H815 H 0.84408 0.45232 0.17618 0.0
C816 C 0.51335 0.8066 0.20736 0.0
C817 C 0.54253 0.79733 0.21329 0.0
C818 C 0.50667 0.82307 0.18098 0.0
C819 C 0.52988 0.83004 0.16009 0.0
C820 C 0.55871 0.81774 0.16433 0.0
C821 C 0.56479 0.80163 0.19126 0.0
C822 C 0.47561 0.83568 0.17736 0.0
C823 C 0.58375 0.82389 0.14205 0.0
C824 C 0.50193 0.87042 0.08951 0.0
C825 C 0.50518 0.90003 0.09874 0.0
C826 C 0.51201 0.84717 0.10823 0.0
C827 C 0.52485 0.8538 0.13713 0.0
C828 C 0.52959 0.88371 0.14582 0.0
C829 C 0.51996 0.90653 0.12628 0.0
C830 C 0.50749 0.8156 0.09777 0.0
C831 C 0.54296 0.89169 0.17668 0.0
H832 H 0.49645 0.80331 0.22489 0.0
H833 H 0.58735 0.79438 0.19627 0.0
H834 H 0.47606 0.85989 0.18183 0.0
H835 H 0.46741 0.83241 0.1535 0.0
H836 H 0.45951 0.82542 0.19358 0.0
H837 H 0.60225 0.80761 0.14462 0.0
H838 H 0.57567 0.82339 0.11789 0.0
H839 H 0.59275 0.84634 0.14654 0.0
H840 H 0.49096 0.86539 0.06787 0.0
H841 H 0.52257 0.92941 0.13336 0.0
H842 H 0.48846 0.80584 0.11048 0.0
H843 H 0.5275 0.80189 0.10286 0.0
H844 H 0.50264 0.81425 0.0727 0.0
H845 H 0.52735 0.88524 0.19534 0.0
H846 H 0.54746 0.91579 0.17876 0.0
H847 H 0.56412 0.87938 0.18042 0.0
C848 C 0.21181 0.57042 0.22006 0.0
C849 C 0.23971 0.55762 0.21434 0.0
C850 C 0.18832 0.56664 0.19897 0.0
C851 C 0.19331 0.55007 0.17161 0.0
C852 C 0.22157 0.53715 0.16597 0.0
C853 C 0.24426 0.54083 0.18759 0.0
C854 C 0.15812 0.5798 0.20618 0.0
C855 C 0.22771 0.51889 0.13743 0.0
C856 C 0.13013 0.51396 0.12796 0.0
C857 C 0.12576 0.53382 0.10351 0.0
C858 C 0.1514 0.51948 0.15081 0.0
C859 C 0.16902 0.54531 0.14899 0.0
C860 C 0.16501 0.56531 0.12418 0.0
C861 C 0.14318 0.55946 0.10184 0.0
C862 C 0.15448 0.49794 0.17723 0.0
C863 C 0.18401 0.59266 0.12109 0.0
H864 H 0.20837 0.58277 0.24121 0.0
H865 H 0.2657 0.53017 0.18393 0.0
H866 H 0.15074 0.59438 0.18705 0.0
H867 H 0.14146 0.56183 0.20835 0.0
H868 H 0.1582 0.59282 0.22793 0.0
H869 H 0.25136 0.51156 0.13594 0.0
H870 H 0.21333 0.49896 0.13738 0.0
H871 H 0.22222 0.53188 0.11647 0.0
H872 H 0.1163 0.49441 0.12977 0.0
H873 H 0.1398 0.57491 0.08303 0.0
H874 H 0.14644 0.50876 0.19863 0.0
H875 H 0.17817 0.49166 0.18086 0.0
H876 H 0.14133 0.47744 0.17355 0.0
H877 H 0.18212 0.60641 0.14222 0.0
H878 H 0.17756 0.60637 0.10088 0.0
H879 H 0.20779 0.58613 0.11864 0.0
C880 C 0.51143 0.82054 0.8087 0.0
C881 C 0.53689 0.81818 0.79027 0.0
C882 C 0.50704 0.84499 0.82805 0.0
C883 C 0.52825 0.86816 0.82815 0.0
C884 C 0.55289 0.8669 0.80769 0.0
C885 C 0.55726 0.84151 0.78935 0.0
C886 C 0.48067 0.84505 0.84977 0.0
C887 C 0.57533 0.89164 0.80617 0.0
C888 C 0.49696 0.93453 0.87057 0.0
C889 C 0.50851 0.93001 0.9002 0.0
C890 C 0.50561 0.9163 0.84589 0.0
C891 C 0.52531 0.89229 0.85138 0.0
C892 C 0.53852 0.88889 0.8809 0.0
C893 C 0.53029 0.90819 0.9049 0.0
C894 C 0.49203 0.92151 0.81451 0.0
C895 C 0.55918 0.86326 0.88793 0.0
H896 H 0.49596 0.80216 0.80932 0.0
H897 H 0.57713 0.83936 0.77531 0.0
H898 H 0.48867 0.84524 0.87398 0.0
H899 H 0.46698 0.8653 0.84634 0.0
H900 H 0.46616 0.82542 0.8465 0.0
H901 H 0.58913 0.89028 0.78493 0.0
H902 H 0.56402 0.91356 0.80691 0.0
H903 H 0.59042 0.89029 0.82637 0.0
H904 H 0.48034 0.95171 0.86694 0.0
H905 H 0.53905 0.90466 0.92791 0.0
H906 H 0.47421 0.90504 0.8103 0.0
H907 H 0.50905 0.91867 0.79614 0.0
H908 H 0.48205 0.94402 0.81259 0.0
H909 H 0.54646 0.84223 0.88698 0.0
H910 H 0.56954 0.86521 0.9111 0.0
H911 H 0.57715 0.86174 0.87043 0.0
C912 C 0.21531 0.54487 0.7614 0.0
C913 C 0.23751 0.52575 0.77246 0.0
C914 C 0.18607 0.54338 0.77289 0.0
C915 C 0.17935 0.52292 0.79661 0.0
C916 C 0.20136 0.50233 0.80634 0.0
C917 C 0.22999 0.50357 0.7935 0.0
C918 C 0.16272 0.56453 0.76075 0.0
C919 C 0.19551 0.48063 0.83209 0.0
C920 C 0.12477 0.54659 0.85857 0.0
C921 C 0.10134 0.52666 0.8541 0.0
C922 C 0.14996 0.54599 0.8395 0.0
C923 C 0.15115 0.52586 0.81445 0.0
C924 C 0.12656 0.50713 0.80847 0.0
C925 C 0.1022 0.50719 0.82892 0.0
C926 C 0.1761 0.5656 0.84743 0.0
C927 C 0.12645 0.48629 0.78125 0.0
H928 H 0.22115 0.56158 0.74456 0.0
H929 H 0.24719 0.48834 0.80123 0.0
H930 H 0.14281 0.55198 0.75313 0.0
H931 H 0.15538 0.57984 0.7793 0.0
H932 H 0.17109 0.57791 0.74112 0.0
H933 H 0.21437 0.46491 0.83548 0.0
H934 H 0.19185 0.49296 0.85394 0.0
H935 H 0.17504 0.46774 0.82743 0.0
H936 H 0.12436 0.56129 0.87836 0.0
H937 H 0.08407 0.49172 0.82553 0.0
H938 H 0.18178 0.57995 0.82757 0.0
H939 H 0.196 0.5517 0.85249 0.0
H940 H 0.17156 0.57997 0.86772 0.0
H941 H 0.13471 0.49764 0.76026 0.0
H942 H 0.10381 0.47746 0.7766 0.0
H943 H 0.1416 0.4673 0.78581 0.0
C944 C 0.44959 0.21376 0.81442 0.0
C945 C 0.47235 0.23226 0.80375 0.0
C946 C 0.45463 0.19398 0.83877 0.0
C947 C 0.4826 0.19397 0.85386 0.0
C948 C 0.50418 0.21549 0.84581 0.0
C949 C 0.49906 0.23396 0.82031 0.0
C950 C 0.4313 0.17095 0.84577 0.0
C951 C 0.53372 0.21729 0.86231 0.0
C952 C 0.49359 0.14452 0.92416 0.0
C953 C 0.51005 0.12108 0.91135 0.0
C954 C 0.48458 0.16869 0.90587 0.0
C955 C 0.49119 0.16859 0.87392 0.0
C956 C 0.50664 0.14417 0.86078 0.0
C957 C 0.51646 0.12105 0.87981 0.0
C958 C 0.46909 0.19474 0.92087 0.0
C959 C 0.51333 0.14266 0.82667 0.0
H960 H 0.42879 0.21289 0.80175 0.0
H961 H 0.51674 0.24818 0.81208 0.0
H962 H 0.43862 0.14933 0.83606 0.0
H963 H 0.42852 0.16797 0.87095 0.0
H964 H 0.40932 0.17676 0.83556 0.0
H965 H 0.54478 0.23892 0.85826 0.0
H966 H 0.53078 0.21413 0.88749 0.0
H967 H 0.54873 0.19946 0.8538 0.0
H968 H 0.48917 0.14469 0.94873 0.0
H969 H 0.52934 0.1029 0.87007 0.0
H970 H 0.44632 0.19743 0.91129 0.0
H971 H 0.48142 0.21543 0.91579 0.0
H972 H 0.46733 0.1922 0.94627 0.0
H973 H 0.49264 0.14641 0.81315 0.0
H974 H 0.52312 0.12097 0.81979 0.0
H975 H 0.52927 0.16035 0.82035 0.0
C976 C 0.80652 0.4749 0.8008 0.0
C977 C 0.77795 0.48579 0.80728 0.0
C978 C 0.83047 0.48129 0.82058 0.0
C979 C 0.82524 0.49833 0.84756 0.0
C980 C 0.7964 0.50963 0.85378 0.0
C981 C 0.77327 0.5036 0.83327 0.0
C982 C 0.86128 0.47014 0.81251 0.0
C983 C 0.78983 0.52777 0.88232 0.0
C984 C 0.8747 0.48857 0.91741 0.0
C985 C 0.8909 0.51499 0.91725 0.0
C986 C 0.85365 0.48263 0.89443 0.0
C987 C 0.84926 0.50334 0.87036 0.0
C988 C 0.86592 0.52989 0.86979 0.0
C989 C 0.88635 0.53558 0.89352 0.0
C990 C 0.83583 0.45436 0.89613 0.0
C991 C 0.86247 0.55202 0.84393 0.0
H992 H 0.81005 0.46183 0.78013 0.0
H993 H 0.75128 0.51284 0.83744 0.0
H994 H 0.87605 0.48926 0.80781 0.0
H995 H 0.87107 0.45774 0.83215 0.0
H996 H 0.86118 0.45553 0.79188 0.0
H997 H 0.76602 0.53459 0.88379 0.0
H998 H 0.79552 0.51477 0.90322 0.0
H999 H 0.80379 0.54798 0.88255 0.0
H1000 H 0.87843 0.47254 0.93562 0.0
H1001 H 0.89947 0.55568 0.89294 0.0
H1002 H 0.83888 0.44131 0.87466 0.0
H1003 H 0.81172 0.45975 0.89812 0.0
H1004 H 0.84237 0.44032 0.91605 0.0
H1005 H 0.86874 0.5414 0.82177 0.0
H1006 H 0.8766 0.57191 0.84731 0.0
H1007 H 0.83888 0.55925 0.84187 0.0
C1008 C 0.73846 0.71635 0.00078 0.0
C1009 C 0.7468 0.72095 0.9701 0.0
C1010 C 0.71689 0.69532 0.0084 0.0
C1011 C 0.70423 0.67785 0.98473 0.0
C1012 C 0.71495 0.68037 0.95409 0.0
C1013 C 0.73585 0.7024 0.94701 0.0
C1014 C 0.7056 0.69403 0.04117 0.0
C1015 C 0.70278 0.66136 0.92845 0.0
C1016 C 0.65521 0.61435 0.01081 0.0
C1017 C 0.62668 0.6263 0.00617 0.0
C1018 C 0.68076 0.63051 0.00302 0.0
C1019 C 0.67753 0.65966 0.9915 0.0
C1020 C 0.64864 0.67198 0.98736 0.0
C1021 C 0.62347 0.65483 0.99411 0.0
C1022 C 0.71112 0.61632 0.00668 0.0
C1023 C 0.64433 0.7034 0.97615 0.0
H1024 H 0.74678 0.7313 0.01833 0.0
H1025 H 0.74228 0.7064 0.9233 0.0
H1026 H 0.68262 0.70326 0.04211 0.0
H1027 H 0.70452 0.67081 0.04936 0.0
H1028 H 0.71984 0.70689 0.05725 0.0
H1029 H 0.71704 0.66226 0.90753 0.0
H1030 H 0.70089 0.63796 0.93602 0.0
H1031 H 0.6801 0.66919 0.92218 0.0
H1032 H 0.65746 0.59199 0.01964 0.0
H1033 H 0.60128 0.66383 0.99046 0.0
H1034 H 0.72463 0.62902 0.02347 0.0
H1035 H 0.72322 0.61678 0.98436 0.0
H1036 H 0.70969 0.593 0.01466 0.0
H1037 H 0.65629 0.71899 0.99153 0.0
H1038 H 0.62043 0.70996 0.97532 0.0
H1039 H 0.65394 0.70587 0.95274 0.0
C1040 C 0.30603 0.7385 -0.00011 0.0
C1041 C 0.28177 0.73353 0.01947 0.0
C1042 C 0.33209 0.72113 0.00251 0.0
C1043 C 0.33284 0.69732 0.02387 0.0
C1044 C 0.30893 0.69351 0.04473 0.0
C1045 C 0.28435 0.71255 0.04308 0.0
C1046 C 0.358 0.72731 0.98136 0.0
C1047 C 0.30798 0.66775 0.06694 0.0
C1048 C 0.37676 0.6278 0.0036 0.0
C1049 C 0.39947 0.62845 0.02569 0.0
C1050 C 0.3551 0.65036 0.00247 0.0
C1051 C 0.35708 0.67473 0.02303 0.0
C1052 C 0.38064 0.67594 0.04464 0.0
C1053 C 0.40118 0.65244 0.04617 0.0
C1054 C 0.3298 0.64782 0.97967 0.0
C1055 C 0.38437 0.70221 0.06586 0.0
H1056 H 0.30412 0.75493 0.98181 0.0
H1057 H 0.26568 0.70933 0.05858 0.0
H1058 H 0.37959 0.72336 0.99322 0.0
H1059 H 0.35697 0.7123 0.96114 0.0
H1060 H 0.35742 0.75051 0.9728 0.0
H1061 H 0.28767 0.66811 0.08163 0.0
H1062 H 0.30837 0.64661 0.05382 0.0
H1063 H 0.32782 0.66781 0.08213 0.0
H1064 H 0.37574 0.60945 0.98749 0.0
H1065 H 0.41931 0.65338 0.06267 0.0
H1066 H 0.33035 0.6667 0.96337 0.0
H1067 H 0.30809 0.64881 0.99196 0.0
H1068 H 0.33087 0.6269 0.96619 0.0
H1069 H 0.38417 0.72304 0.05228 0.0
H1070 H 0.40546 0.70102 0.07926 0.0
H1071 H 0.36548 0.70347 0.0823 0.0
C1072 C 0.32994 0.29472 0.98762 0.0
C1073 C 0.30591 0.30737 0.00363 0.0
C1074 C 0.35806 0.30838 0.9878 0.0
C1075 C 0.36168 0.33561 0.00365 0.0
C1076 C 0.3372 0.34851 0.01943 0.0
C1077 C 0.30986 0.33387 0.01974 0.0
C1078 C 0.38381 0.29335 0.9716 0.0
C1079 C 0.33959 0.37817 0.03543 0.0
C1080 C 0.43237 0.37327 0.02994 0.0
C1081 C 0.43608 0.3942 0.00647 0.0
C1082 C 0.40998 0.35167 0.02777 0.0
C1083 C 0.39016 0.35215 0.00234 0.0
C1084 C 0.39496 0.37221 0.97785 0.0
C1085 C 0.41822 0.39263 0.97999 0.0
C1086 C 0.40665 0.32916 0.05319 0.0
C1087 C 0.37407 0.3738 0.95057 0.0
H1088 H 0.32676 0.27401 0.97542 0.0
H1089 H 0.29125 0.34323 0.03247 0.0
H1090 H 0.39866 0.30952 0.96012 0.0
H1091 H 0.39738 0.28126 0.98893 0.0
H1092 H 0.37596 0.27721 0.95409 0.0
H1093 H 0.31794 0.38573 0.04522 0.0
H1094 H 0.35609 0.37683 0.0544 0.0
H1095 H 0.34753 0.39519 0.01894 0.0
H1096 H 0.44651 0.37416 0.05017 0.0
H1097 H 0.42102 0.40879 0.96176 0.0
H1098 H 0.40479 0.30662 0.04314 0.0
H1099 H 0.38586 0.33357 0.06633 0.0
H1100 H 0.42576 0.32954 0.06947 0.0
H1101 H 0.3715 0.35161 0.93993 0.0
H1102 H 0.38199 0.38944 0.93262 0.0
H1103 H 0.35166 0.38116 0.95844 0.0
C1104 C 0.78028 0.32637 0.01805 0.0
C1105 C 0.76968 0.30413 -0.00154 0.0
C1106 C 0.7647 0.35339 0.02101 0.0
C1107 C 0.73781 0.35767 0.00438 0.0
C1108 C 0.72778 0.33548 0.98379 0.0
C1109 C 0.74424 0.30931 0.98066 0.0
C1110 C 0.77687 0.37709 0.04202 0.0
C1111 C 0.69869 0.33847 0.96642 0.0
C1112 C 0.67299 0.40189 0.03528 0.0
C1113 C 0.66944 0.42298 0.01192 0.0
C1114 C 0.69673 0.38165 0.03449 0.0
C1115 C 0.71808 0.38352 0.0105 0.0
C1116 C 0.71661 0.4072 0.98918 0.0
C1117 C 0.69173 0.42622 0.98955 0.0
C1118 C 0.69717 0.3565 0.05744 0.0
C1119 C 0.74017 0.41115 0.96471 0.0
H1120 H 0.80025 0.32229 0.03148 0.0
H1121 H 0.73658 0.29211 0.96516 0.0
H1122 H 0.7882 0.39407 0.02778 0.0
H1123 H 0.75891 0.38851 0.05508 0.0
H1124 H 0.79323 0.3679 0.05872 0.0
H1125 H 0.69377 0.31866 0.95211 0.0
H1126 H 0.68003 0.34181 0.98291 0.0
H1127 H 0.69932 0.35809 0.9511 0.0
H1128 H 0.65571 0.3994 0.05258 0.0
H1129 H 0.68915 0.44287 0.97174 0.0
H1130 H 0.71937 0.35473 0.06855 0.0
H1131 H 0.69299 0.33528 0.04526 0.0
H1132 H 0.68002 0.35929 0.07572 0.0
H1133 H 0.76271 0.40667 0.97428 0.0
H1134 H 0.73967 0.43388 0.95493 0.0
H1135 H 0.73635 0.3952 0.94567 0.0
C1136 C 0.00269 0.70187 0.7047 0.0
C1137 C 0.97537 0.71348 0.71474 0.0
C1138 C 0.00382 0.6786 0.68346 0.0
C1139 C 0.977 0.66814 0.67021 0.0
C1140 C 0.94924 0.67994 0.68006 0.0
C1141 C 0.94875 0.70213 0.70282 0.0
C1142 C 0.03385 0.66584 0.67459 0.0
C1143 C 0.92034 0.67035 0.66539 0.0
C1144 C -0.00474 0.6341 0.59303 0.0
C1145 C -0.00364 0.60408 0.60069 0.0
C1146 C 0.98578 0.65517 0.61476 0.0
C1147 C 0.97868 0.64588 0.64508 0.0
C1148 C 0.97807 0.61528 0.65221 0.0
C1149 C 0.98662 0.59466 0.62967 0.0
C1150 C 0.98541 0.68749 0.60586 0.0
C1151 C 0.97125 0.60442 0.68433 0.0
H1152 H 0.02318 0.71124 0.71359 0.0
H1153 H 0.92773 0.71173 0.71022 0.0
H1154 H 0.03341 0.6413 0.67592 0.0
H1155 H 0.03917 0.67192 0.65045 0.0
H1156 H 0.05204 0.67406 0.68968 0.0
H1157 H 0.90058 0.67994 0.67729 0.0
H1158 H 0.91998 0.67758 0.64095 0.0
H1159 H 0.91848 0.64587 0.66544 0.0
H1160 H 0.00268 0.64115 0.57041 0.0
H1161 H 0.9878 0.5713 0.63543 0.0
H1162 H 0.00535 0.69857 0.61555 0.0
H1163 H 0.96539 0.69879 0.61542 0.0
H1164 H 0.98563 0.69045 0.58044 0.0
H1165 H 0.9907 0.60881 0.69945 0.0
H1166 H 0.96664 0.58026 0.68472 0.0
H1167 H 0.95183 0.61635 0.69429 0.0
C1168 C 0.35125 0.96629 0.75433 0.0
C1169 C 0.32605 0.982 0.7445 0.0
C1170 C 0.37901 0.97102 0.7402 0.0
C1171 C 0.38089 0.99102 0.71514 0.0
C1172 C 0.35599 0.00901 0.70747 0.0
C1173 C 0.329 0.00461 0.72278 0.0
C1174 C 0.40565 0.95311 0.75055 0.0
C1175 C 0.35682 0.03073 0.681 0.0
C1176 C 0.44456 0.01456 0.66432 0.0
C1177 C 0.44042 0.99536 0.63931 0.0
C1178 C 0.42799 0.01098 0.69153 0.0
C1179 C 0.40574 0.98885 0.69273 0.0
C1180 C 0.40335 0.96799 0.66844 0.0
C1181 C 0.42131 0.9711 0.64237 0.0
C1182 C 0.43274 0.03235 0.7178 0.0
C1183 C 0.37934 0.94457 0.66813 0.0
H1184 H 0.3489 0.94946 0.77195 0.0
H1185 H 0.30945 0.01738 0.71629 0.0
H1186 H 0.40776 0.93296 0.73604 0.0
H1187 H 0.42654 0.966 0.74816 0.0
H1188 H 0.40321 0.94594 0.77491 0.0
H1189 H 0.33578 0.0437 0.67893 0.0
H1190 H 0.37549 0.04645 0.68398 0.0
H1191 H 0.36057 0.01862 0.65903 0.0
H1192 H 0.45976 0.03306 0.66216 0.0
H1193 H 0.41809 0.95619 0.62305 0.0
H1194 H 0.4263 0.02251 0.74026 0.0
H1195 H 0.41904 0.05254 0.71402 0.0
H1196 H 0.45644 0.03931 0.71894 0.0
H1197 H 0.38008 0.9313 0.68958 0.0
H1198 H 0.38153 0.92925 0.64819 0.0
H1199 H 0.35707 0.95539 0.66695 0.0
C1200 C 0.97901 0.3075 0.67977 0.0
C1201 C 0.00343 0.29988 0.69822 0.0
C1202 C 0.98255 0.32634 0.65435 0.0
C1203 C 0.01086 0.33896 0.64857 0.0
C1204 C 0.03593 0.32955 0.66594 0.0
C1205 C 0.03189 0.3097 0.69032 0.0
C1206 C 0.95549 0.33481 0.6356 0.0
C1207 C 0.06635 0.34302 0.66121 0.0
C1208 C 0.03083 0.38997 0.5823 0.0
C1209 C 0.02713 0.41783 0.59623 0.0
C1210 C 0.02367 0.36389 0.59828 0.0
C1211 C 0.01341 0.36583 0.62907 0.0
C1212 C 0.00837 0.39396 0.64267 0.0
C1213 C 0.01495 0.41958 0.62593 0.0
C1214 C 0.02812 0.3343 0.58268 0.0
C1215 C -0.00236 0.39708 0.67557 0.0
H1216 H 0.95692 0.3003 0.68647 0.0
H1217 H 0.05047 0.30406 0.70522 0.0
H1218 H 0.94614 0.35599 0.64442 0.0
H1219 H 0.96139 0.33803 0.61099 0.0
H1220 H 0.93784 0.3177 0.63725 0.0
H1221 H 0.08397 0.33107 0.6743 0.0
H1222 H 0.07246 0.34297 0.63646 0.0
H1223 H 0.06591 0.36644 0.66905 0.0
H1224 H 0.03981 0.38852 0.55914 0.0
H1225 H 0.01181 0.44102 0.63677 0.0
H1226 H 0.00871 0.3197 0.58696 0.0
H1227 H 0.04809 0.32311 0.59237 0.0
H1228 H 0.03131 0.33666 0.55741 0.0
H1229 H 0.97626 0.38523 0.67872 0.0
H1230 H 0.99428 0.42059 0.68241 0.0
H1231 H 0.01413 0.3869 0.69148 0.0
C1232 C 0.71194 0.07648 0.7449 0.0
C1233 C 0.73749 0.05871 0.74322 0.0
C1234 C 0.68984 0.07459 0.72196 0.0
C1235 C 0.69405 0.05504 0.69666 0.0
C1236 C 0.71988 0.03701 0.69517 0.0
C1237 C 0.7409 0.03865 0.7188 0.0
C1238 C 0.66194 0.0932 0.72486 0.0
C1239 C 0.72537 0.01592 0.66865 0.0
C1240 C 0.62982 0.02471 0.65018 0.0
C1241 C 0.63068 0.04236 0.62354 0.0
C1242 C 0.64947 0.02952 0.67469 0.0
C1243 C 0.67104 0.05211 0.67228 0.0
C1244 C 0.67212 0.07004 0.6455 0.0
C1245 C 0.65161 0.06519 0.62154 0.0
C1246 C 0.64733 0.01017 0.70302 0.0
C1247 C 0.6954 0.09381 0.64186 0.0
H1248 H 0.70931 0.0916 0.76414 0.0
H1249 H 0.7604 0.02437 0.71817 0.0
H1250 H 0.65971 0.10795 0.70456 0.0
H1251 H 0.64205 0.07867 0.72523 0.0
H1252 H 0.66192 0.10698 0.74609 0.0
H1253 H 0.74756 0.00493 0.67009 0.0
H1254 H 0.70798 0.99854 0.66837 0.0
H1255 H 0.72393 0.02797 0.64642 0.0
H1256 H 0.61336 0.00732 0.65219 0.0
H1257 H 0.65223 0.0789 0.60109 0.0
H1258 H 0.64567 0.0241 0.72404 0.0
H1259 H 0.66781 0.99645 0.70527 0.0
H1260 H 0.62779 0.99515 0.70223 0.0
H1261 H 0.69428 0.10949 0.66153 0.0
H1262 H 0.69266 0.10645 0.62007 0.0
H1263 H 0.71797 0.08358 0.64207 0.0
C1264 C 0.06674 0.34267 0.30609 0.0
C1265 C 0.04202 0.3287 0.29307 0.0
C1266 C 0.06349 0.36948 0.32212 0.0
C1267 C 0.03468 0.38201 0.32563 0.0
C1268 C 0.00993 0.36878 0.31076 0.0
C1269 C 0.01399 0.34225 0.29442 0.0
C1270 C 0.0905 0.38319 0.33708 0.0
C1271 C 0.97882 0.38133 0.3141 0.0
C1272 C 0.0158 0.42247 0.39961 0.0
C1273 C 0.01414 0.45197 0.38965 0.0
C1274 C 0.02341 0.39963 0.37914 0.0
C1275 C 0.02972 0.40648 0.34797 0.0
C1276 C 0.02971 0.43635 0.33814 0.0
C1277 C 0.02191 0.4588 0.35914 0.0
C1278 C 0.02341 0.36802 0.39059 0.0
C1279 C 0.03675 0.44446 0.3052 0.0
H1280 H 0.08833 0.33181 0.30486 0.0
H1281 H 0.99502 0.33099 0.28442 0.0
H1282 H 0.09068 0.40751 0.33345 0.0
H1283 H 0.08972 0.37924 0.3623 0.0
H1284 H 0.11163 0.37363 0.32798 0.0
H1285 H 0.96266 0.37025 0.29854 0.0
H1286 H 0.97114 0.37845 0.33823 0.0
H1287 H 0.97866 0.40543 0.30912 0.0
H1288 H 0.01011 0.41702 0.42321 0.0
H1289 H 0.02092 0.48158 0.35132 0.0
H1290 H 0.04505 0.35712 0.38532 0.0
H1291 H 0.00578 0.3553 0.37854 0.0
H1292 H 0.01939 0.36659 0.41581 0.0
H1293 H 0.05782 0.43364 0.29769 0.0
H1294 H 0.03883 0.46878 0.30202 0.0
H1295 H 0.01878 0.43631 0.28985 0.0
C1296 C 0.68804 0.08691 0.27566 0.0
C1297 C 0.69978 0.06445 0.25702 0.0
C1298 C 0.66221 0.082 0.29307 0.0
C1299 C 0.64706 0.05468 0.29 0.0
C1300 C 0.65596 0.03431 0.26699 0.0
C1301 C 0.68287 0.03896 0.25148 0.0
C1302 C 0.6538 0.10418 0.31769 0.0
C1303 C 0.63931 0.0058 0.26169 0.0
C1304 C 0.62382 0.02095 0.36567 0.0
C1305 C 0.59423 0.03053 0.36808 0.0
C1306 C 0.64098 0.02818 0.33994 0.0
C1307 C 0.62775 0.04435 0.31544 0.0
C1308 C 0.59713 0.05198 0.31665 0.0
C1309 C 0.58082 0.04557 0.34342 0.0
C1310 C 0.67382 0.02035 0.34014 0.0
C1311 C 0.58189 0.06784 0.29037 0.0
H1312 H 0.70085 0.10693 0.27911 0.0
H1313 H 0.69193 0.02137 0.23727 0.0
H1314 H 0.62935 0.10774 0.31838 0.0
H1315 H 0.66069 0.09544 0.34053 0.0
H1316 H 0.66487 0.12587 0.31411 0.0
H1317 H 0.64453 0.99618 0.23871 0.0
H1318 H 0.64583 0.98939 0.27951 0.0
H1319 H 0.61487 0.00943 0.26349 0.0
H1320 H 0.63425 0.00962 0.38491 0.0
H1321 H 0.5578 0.05285 0.34534 0.0
H1322 H 0.68714 0.041 0.34 0.0
H1323 H 0.67987 0.00748 0.31926 0.0
H1324 H 0.68031 0.00718 0.3607 0.0
H1325 H 0.58736 0.09175 0.29123 0.0
H1326 H 0.55725 0.0657 0.2917 0.0
H1327 H 0.58965 0.0591 0.26781 0.0
C1328 C 0.01102 0.70478 0.31439 0.0
C1329 C 0.0338 0.72457 0.30724 0.0
C1330 C 0.01264 0.68694 0.34055 0.0
C1331 C 0.0376 0.68933 0.36043 0.0
C1332 C 0.05992 0.71068 0.35429 0.0
C1333 C 0.05787 0.728 0.32738 0.0
C1334 C 0.9881 0.66473 0.34617 0.0
C1335 C 0.08643 0.71446 0.37527 0.0
C1336 C 0.01474 0.65087 0.43271 0.0
C1337 C 0.02315 0.6217 0.42557 0.0
C1338 C 0.02324 0.67448 0.41379 0.0
C1339 C 0.03988 0.66849 0.38679 0.0
C1340 C 0.05176 0.63969 0.38185 0.0
C1341 C 0.04331 0.6165 0.40152 0.0
C1342 C 0.01116 0.70508 0.42058 0.0
C1343 C 0.07009 0.63253 0.35362 0.0
H1344 H 0.99246 0.70255 0.29856 0.0
H1345 H 0.07539 0.74347 0.32155 0.0
H1346 H -0.00247 0.64195 0.34641 0.0
H1347 H 0.97763 0.66879 0.36896 0.0
H1348 H 0.9704 0.66576 0.32829 0.0
H1349 H 0.09723 0.73631 0.37185 0.0
H1350 H 0.07993 0.71227 0.39984 0.0
H1351 H 0.10314 0.69692 0.37016 0.0
H1352 H -0.00031 0.65501 0.45184 0.0
H1353 H 0.05006 0.59398 0.39616 0.0
H1354 H 0.99085 0.70903 0.40654 0.0
H1355 H 0.02767 0.72233 0.41446 0.0
H1356 H 0.00505 0.70757 0.44527 0.0
H1357 H 0.05511 0.63084 0.33334 0.0
H1358 H 0.08229 0.61119 0.35614 0.0
H1359 H 0.0864 0.65034 0.3489 0.0
C1360 C 0.30774 0.9535 0.28887 0.0
C1361 C 0.30324 0.97615 0.26738 0.0
C1362 C 0.32559 0.95813 0.31489 0.0
C1363 C 0.34058 0.98546 0.31827 0.0
C1364 C 0.33922 0.00681 0.29443 0.0
C1365 C 0.31999 0.00214 0.26948 0.0
C1366 C 0.32611 0.93495 0.33995 0.0
C1367 C 0.35634 0.03546 0.29632 0.0
C1368 C 0.35626 0.01622 0.3982 0.0
C1369 C 0.38571 0.00696 0.40246 0.0
C1370 C 0.34094 0.00861 0.37106 0.0
C1371 C 0.35603 0.99254 0.34752 0.0
C1372 C 0.38595 0.9836 0.35176 0.0
C1373 C 0.40025 0.99057 0.37939 0.0
C1374 C 0.30867 0.0177 0.36753 0.0
C1375 C 0.40313 0.96746 0.32685 0.0
H1376 H 0.29504 0.93326 0.2867 0.0
H1377 H 0.31639 0.01968 0.25285 0.0
H1378 H 0.34926 0.9303 0.34755 0.0
H1379 H 0.31364 0.94339 0.36028 0.0
H1380 H 0.31576 0.91385 0.33238 0.0
H1381 H 0.35681 0.04718 0.27382 0.0
H1382 H 0.34572 0.05026 0.3136 0.0
H1383 H 0.37961 0.03128 0.3039 0.0
H1384 H 0.34522 0.02895 0.41612 0.0
H1385 H 0.42332 0.98389 0.38268 0.0
H1386 H 0.2949 0.99807 0.36185 0.0
H1387 H 0.30637 0.03357 0.34817 0.0
H1388 H 0.29964 0.02824 0.38874 0.0
H1389 H 0.39115 0.94718 0.31964 0.0
H1390 H 0.42594 0.96106 0.33442 0.0
H1391 H 0.40501 0.98185 0.30623 0.0
C1392 C 0.07084 0.21171 0.31578 0.0
C1393 C 0.04784 0.21981 0.29559 0.0
C1394 C 0.06807 0.18692 0.33494 0.0
C1395 C 0.04212 0.16937 0.33294 0.0
C1396 C 0.02088 0.17512 0.30952 0.0
C1397 C 0.02369 0.20071 0.29141 0.0
C1398 C 0.09158 0.18104 0.35907 0.0
C1399 C 0.99406 0.15551 0.30522 0.0
C1400 C 0.03616 0.09928 0.38127 0.0
C1401 C 0.01703 0.10887 0.4048 0.0
C1402 C 0.04511 0.11869 0.35776 0.0
C1403 C 0.0348 0.14842 0.3582 0.0
C1404 C 0.01646 0.1584 0.38279 0.0
C1405 C 0.00739 0.13834 0.40548 0.0
C1406 C 0.06441 0.10653 0.33214 0.0
C1407 C 0.00593 0.1902 0.3849 0.0
H1408 H 0.08985 0.22624 0.31831 0.0
H1409 H 0.00601 0.20686 0.27562 0.0
H1410 H 0.08206 0.18527 0.3823 0.0
H1411 H 0.09872 0.15748 0.35826 0.0
H1412 H 0.11149 0.19529 0.356 0.0
H1413 H 0.98267 0.15982 0.28292 0.0
H1414 H 0.00079 0.13182 0.30618 0.0
H1415 H 0.97788 0.15955 0.32414 0.0
H1416 H 0.04285 0.07623 0.38026 0.0
H1417 H 0.99247 0.14562 0.42369 0.0
H1418 H 0.0739 0.12387 0.31702 0.0
H1419 H 0.05088 0.09135 0.31773 0.0
H1420 H 0.08306 0.09332 0.342 0.0
H1421 H 0.99416 0.19494 0.40692 0.0
H1422 H 0.99047 0.19514 0.36561 0.0
H1423 H 0.02516 0.20547 0.38285 0.0
C1424 C 0.79292 0.01043 0.29222 0.0
C1425 C 0.80076 0.0341 0.27308 0.0
C1426 C 0.81096 0.0024 0.31716 0.0
C1427 C 0.83802 0.01767 0.32196 0.0
C1428 C 0.84789 0.03871 0.30001 0.0
C1429 C 0.82875 0.04712 0.27598 0.0
C1430 C 0.79935 0.98016 0.34013 0.0
C1431 C 0.87744 0.05421 0.30343 0.0
C1432 C 0.86625 0.03425 0.40243 0.0
C1433 C 0.88822 0.01245 0.40591 0.0
C1434 C 0.84854 0.0351 0.37577 0.0
C1435 C 0.85404 0.01452 0.35163 0.0
C1436 C 0.87568 0.99201 0.35544 0.0
C1437 C 0.8921 0.99091 0.3828 0.0
C1438 C 0.82461 0.0586 0.37297 0.0
C1439 C 0.88301 0.97038 0.32988 0.0
H1440 H 0.77105 1.00058 0.28966 0.0
H1441 H 0.83457 0.06538 0.26098 0.0
H1442 H 0.81726 0.96484 0.34781 0.0
H1443 H 0.79105 0.99212 0.36082 0.0
H1444 H 0.78073 0.96691 0.3305 0.0
H1445 H 0.88407 0.06569 0.28187 0.0
H1446 H 0.87584 0.07093 0.32213 0.0
H1447 H 0.89523 0.03818 0.30985 0.0
H1448 H 0.8634 0.05094 0.42019 0.0
H1449 H 0.90956 0.97434 0.38509 0.0
H1450 H 0.80307 0.04829 0.36655 0.0
H1451 H 0.83055 0.0744 0.35442 0.0
H1452 H 0.8215 0.07123 0.39475 0.0
H1453 H 0.86244 0.96044 0.32028 0.0
H1454 H 0.89803 0.95226 0.33777 0.0
H1455 H 0.89419 0.98236 0.31081 0.0
C1456 C 0.03454 0.81676 0.2899 0.0
C1457 C 0.02057 0.78943 0.29447 0.0
C1458 C 0.03193 0.83966 0.31171 0.0
C1459 C 0.01569 0.83477 0.33924 0.0
C1460 C 0.00179 0.80706 0.34412 0.0
C1461 C 0.00386 0.78498 0.32136 0.0
C1462 C 0.04642 0.86913 0.30521 0.0
C1463 C 0.98466 0.80072 0.37333 0.0
C1464 C 0.0306 0.88521 0.40802 0.0
C1465 C 0.00599 0.90451 0.40692 0.0
C1466 C 0.03405 0.86237 0.38618 0.0
C1467 C 0.01253 0.85891 0.36254 0.0
C1468 C 0.9878 0.87847 0.36119 0.0
C1469 C 0.98478 0.9009 0.38341 0.0
C1470 C 0.06059 0.84179 0.38852 0.0
C1471 C 0.9645 0.87577 0.33622 0.0
H1472 H 0.04769 0.82009 0.26926 0.0
H1473 H 0.99222 0.76428 0.32457 0.0
H1474 H 0.0294 0.88706 0.3059 0.0
H1475 H 0.06315 0.87413 0.32327 0.0
H1476 H 0.05763 0.86957 0.28238 0.0
H1477 H 0.97718 0.77732 0.3746 0.0
H1478 H -0.00129 0.80551 0.39377 0.0
H1479 H 0.96477 0.81539 0.37469 0.0
H1480 H 0.0471 0.88782 0.42605 0.0
H1481 H 0.96571 0.91571 0.38223 0.0
H1482 H 0.07411 0.84302 0.36714 0.0
H1483 H 0.0529 0.81856 0.39082 0.0
H1484 H 0.07512 0.84717 0.40846 0.0
H1485 H 0.9752 0.87711 0.3132 0.0
H1486 H 0.9471 0.89333 0.33785 0.0
H1487 H 0.95348 0.85388 0.33772 0.0
C1488 C 0.17596 0.97831 0.24156 0.0
C1489 C 0.2004 0.9973 0.24352 0.0
C1490 C 0.15042 0.98341 0.25962 0.0
C1491 C 0.15024 0.00725 0.28091 0.0
C1492 C 0.17331 0.02853 0.27984 0.0
C1493 C 0.19791 0.02355 0.26054 0.0
C1494 C 0.12542 0.96123 0.25881 0.0
C1495 C 0.17414 0.0543 0.30202 0.0
C1496 C 0.08798 0.02519 0.33789 0.0
C1497 C 0.09717 0.00859 0.36346 0.0
C1498 C 0.10392 0.02371 0.30996 0.0
C1499 C 0.13024 0.00623 0.3083 0.0
C1500 C 0.13896 0.98895 0.33413 0.0
C1501 C 0.12206 0.99008 0.36112 0.0
C1502 C 0.09286 0.04149 0.28282 0.0
C1503 C 0.16733 0.97086 0.33457 0.0
H1504 H 0.17806 0.95802 0.22833 0.0
H1505 H 0.21711 0.038 0.26199 0.0
H1506 H 0.128 0.9455 0.27828 0.0
H1507 H 0.1035 0.97252 0.26139 0.0
H1508 H 0.12553 0.94832 0.23699 0.0
H1509 H 0.19174 0.0705 0.2959 0.0
H1510 H 0.15233 0.06594 0.30253 0.0
H1511 H 0.17865 0.04592 0.32562 0.0
H1512 H 0.06834 0.03916 0.33972 0.0
H1513 H 0.1293 0.97755 0.38112 0.0
H1514 H 0.09928 0.03115 0.26055 0.0
H1515 H 0.10257 0.06403 0.28376 0.0
H1516 H 0.0682 0.04399 0.28353 0.0
H1517 H 0.17042 0.95835 0.31283 0.0
H1518 H 0.16779 0.95477 0.35393 0.0
H1519 H 0.18638 0.98617 0.33765 0.0
C1520 C 0.97386 0.83843 0.71991 0.0
C1521 C -0.00463 0.81591 0.72126 0.0
C1522 C 0.97844 0.8637 0.70171 0.0
C1523 C 0.00539 0.86647 0.68493 0.0
C1524 C 0.0278 0.84439 0.68757 0.0
C1525 C 0.02227 0.8191 0.70534 0.0
C1526 C 0.95385 0.88654 0.69906 0.0
C1527 C 0.05707 0.84681 0.67055 0.0
C1528 C 0.00979 0.91083 0.61086 0.0
C1529 C 0.0234 0.9369 0.6211 0.0
C1530 C 0.00252 0.88822 0.6317 0.0
C1531 C 0.00972 0.89157 0.66333 0.0
C1532 C 0.02282 0.91815 0.67385 0.0
C1533 C 0.02919 0.94062 0.65265 0.0
C1534 C 0.98784 0.86044 0.61978 0.0
C1535 C 0.03133 0.92235 0.70724 0.0
H1536 H 0.95281 0.83533 0.73174 0.0
H1537 H 0.03842 0.80116 0.70583 0.0
H1538 H 0.96262 0.90906 0.70359 0.0
H1539 H 0.94492 0.88649 0.67521 0.0
H1540 H 0.93521 0.88219 0.71528 0.0
H1541 H 0.07313 0.82918 0.67738 0.0
H1542 H 0.05311 0.84508 0.64538 0.0
H1543 H 0.06739 0.8687 0.67496 0.0
H1544 H 0.00515 0.90795 0.58653 0.0
H1545 H 0.03983 0.9607 0.66072 0.0
H1546 H 0.96709 0.85603 0.63291 0.0
H1547 H 0.0029 0.84114 0.62319 0.0
H1548 H 0.98224 0.86199 0.5949 0.0
H1549 H 0.01176 0.91862 0.72235 0.0
H1550 H 0.04022 0.94485 0.71188 0.0
H1551 H 0.0486 0.90579 0.71371 0.0
C1552 C 0.20787 0.9473 0.72136 0.0
C1553 C 0.21892 0.97039 0.73942 0.0
C1554 C 0.18767 0.9531 0.69754 0.0
C1555 C 0.17775 0.98254 0.69279 0.0
C1556 C 0.18551 0.00505 0.71396 0.0
C1557 C 0.20648 0.99876 0.73692 0.0
C1558 C 0.17947 0.92845 0.67564 0.0
C1559 C 0.17372 0.03627 0.71068 0.0
C1560 C 0.16351 0.00691 0.61043 0.0
C1561 C 0.13265 0.0039 0.60882 0.0
C1562 C 0.17857 0.99983 0.63786 0.0
C1563 C 0.16203 0.99036 0.664 0.0
C1564 C 0.13072 0.98808 0.66241 0.0
C1565 C 0.11651 0.99455 0.63466 0.0
C1566 C 0.21214 0.00213 0.63882 0.0
C1567 C 0.11206 0.9784 0.6896 0.0
H1568 H 0.21769 0.92542 0.72368 0.0
H1569 H 0.21524 0.01654 0.75102 0.0
H1570 H 0.15495 0.92755 0.67256 0.0
H1571 H 0.18946 0.9328 0.65267 0.0
H1572 H 0.18744 0.90648 0.68383 0.0
H1573 H 0.17844 0.04992 0.73142 0.0
H1574 H 0.18425 0.04697 0.69043 0.0
H1575 H 0.14927 0.03607 0.70667 0.0
H1576 H 0.17573 0.01425 0.5903 0.0
H1577 H 0.09251 0.9926 0.63328 0.0
H1578 H 0.222 0.98035 0.64511 0.0
H1579 H 0.21889 0.01825 0.6568 0.0
H1580 H 0.22164 0.00924 0.61638 0.0
H1581 H 0.11167 0.95385 0.69052 0.0
H1582 H 0.08862 0.98628 0.6875 0.0
H1583 H 0.12128 0.9866 0.71173 0.0
C1584 C 0.98464 0.23249 0.69277 0.0
C1585 C 0.00542 0.23557 0.71666 0.0
C1586 C 0.98774 0.21028 0.67028 0.0
C1587 C 0.01152 0.18964 0.67248 0.0
C1588 C 0.03188 0.19181 0.69741 0.0
C1589 C 0.02892 0.2151 0.71885 0.0
C1590 C 0.96609 0.20952 0.64365 0.0
C1591 C 0.05714 0.16987 0.70111 0.0
C1592 C 0.00612 0.11755 0.62664 0.0
C1593 C 0.02646 0.12265 0.60272 0.0
C1594 C 0.00101 0.1391 0.64959 0.0
C1595 C 0.0159 0.16672 0.64796 0.0
C1596 C 0.03542 0.17237 0.62296 0.0
C1597 C 0.04088 0.15007 0.60102 0.0
C1598 C 0.98074 0.13179 0.67628 0.0
C1599 C 0.05091 0.20183 0.61961 0.0
H1600 H 0.96605 0.24779 0.6915 0.0
H1601 H 0.04533 0.21764 0.73694 0.0
H1602 H 0.97841 0.2116 0.62157 0.0
H1603 H 0.95432 0.18799 0.64312 0.0
H1604 H 0.94923 0.2276 0.64497 0.0
H1605 H 0.069 0.17267 0.7234 0.0
H1606 H 0.04856 0.14688 0.6997 0.0
H1607 H 0.07345 0.17269 0.68213 0.0
H1608 H -0.00458 0.09615 0.62832 0.0
H1609 H 0.05668 0.154 0.58255 0.0
H1610 H 0.96276 0.14863 0.67834 0.0
H1611 H 0.99367 0.13231 0.69808 0.0
H1612 H 0.97038 0.10959 0.67384 0.0
H1613 H 0.03438 0.22019 0.62074 0.0
H1614 H 0.0634 0.20353 0.59756 0.0
H1615 H 0.0668 0.20501 0.63889 0.0
C1616 C 0.83599 0.01345 0.74984 0.0
C1617 C 0.83585 0.03681 0.77106 0.0
C1618 C 0.861 0.00789 0.73138 0.0
C1619 C 0.8868 0.02544 0.73533 0.0
C1620 C 0.88823 0.04576 0.76021 0.0
C1621 C 0.86232 0.05182 0.7774 0.0
C1622 C 0.85823 0.9862 0.70504 0.0
C1623 C 0.91607 0.06336 0.76642 0.0
C1624 C 0.94886 0.00702 0.6785 0.0
C1625 C 0.94343 0.02818 0.65549 0.0
C1626 C 0.93202 0.00693 0.70585 0.0
C1627 C 0.90847 0.0277 0.7095 0.0
C1628 C 0.90355 0.04955 0.68656 0.0
C1629 C 0.92147 0.04984 0.6602 0.0
C1630 C 0.93887 0.98383 0.72997 0.0
C1631 C 0.87798 0.07143 0.68869 0.0
H1632 H 0.81523 0.00209 0.74511 0.0
H1633 H 0.86205 0.06982 0.79395 0.0
H1634 H 0.85709 0.99854 0.68295 0.0
H1635 H 0.878 0.97142 0.70401 0.0
H1636 H 0.83792 0.97233 0.70705 0.0
H1637 H 0.91608 0.07264 0.79014 0.0
H1638 H 0.93625 0.04931 0.76323 0.0
H1639 H 0.91746 0.08203 0.74989 0.0
H1640 H 0.96602 0.99032 0.67501 0.0
H1641 H 0.91706 0.0661 0.64237 0.0
H1642 H 0.92624 0.96336 0.72474 0.0
H1643 H 0.93261 0.99144 0.75344 0.0
H1644 H 0.96296 0.97791 0.72982 0.0
H1645 H 0.85655 0.05927 0.68896 0.0
H1646 H 0.87758 0.08721 0.66906 0.0
H1647 H 0.8794 0.08437 0.71036 0.0
C1648 C 0.30578 0.012 0.18093 0.0
C1649 C 0.30165 0.98665 0.19892 0.0
C1650 C 0.33109 0.015 0.16225 0.0
C1651 C 0.35335 0.99259 0.16257 0.0
C1652 C 0.34974 0.96735 0.18145 0.0
C1653 C 0.32368 0.96449 0.19906 0.0
C1654 C 0.33399 0.04213 0.14214 0.0
C1655 C 0.37341 0.9435 0.18311 0.0
C1656 C 0.40208 0.992 0.09149 0.0
C1657 C 0.42522 0.01088 0.10054 0.0
C1658 C 0.37932 0.98436 0.11209 0.0
C1659 C 0.38 0.99558 0.14254 0.0
C1660 C 0.40471 0.01241 0.15261 0.0
C1661 C 0.427 0.02004 0.13139 0.0
C1662 C 0.35339 0.96635 0.10037 0.0
C1663 C 0.4067 0.02396 0.18522 0.0
H1664 H 0.28943 0.02969 0.18179 0.0
H1665 H 0.3205 0.94499 0.2132 0.0
H1666 H 0.35398 0.05493 0.14897 0.0
H1667 H 0.33704 0.0354 0.11772 0.0
H1668 H 0.31416 0.05691 0.14371 0.0
H1669 H 0.36772 0.92591 0.19998 0.0
H1670 H 0.37646 0.93314 0.16012 0.0
H1671 H 0.3951 0.95335 0.18974 0.0
H1672 H 0.40064 0.98464 0.06775 0.0
H1673 H 0.44507 0.03431 0.13865 0.0
H1674 H 0.33398 0.98126 0.09653 0.0
H1675 H 0.34658 0.94943 0.11744 0.0
H1676 H 0.35875 0.95502 0.07831 0.0
H1677 H 0.39052 0.04239 0.18837 0.0
H1678 H 0.42935 0.03235 0.1907 0.0
H1679 H 0.40085 0.00638 0.20199 0.0
C1680 C 0.00822 0.30618 0.21052 0.0
C1681 C 0.0344 0.30816 0.22795 0.0
C1682 C 0.00225 0.32664 0.18684 0.0
C1683 C 0.02301 0.34946 0.18072 0.0
C1684 C 0.04982 0.35093 0.19791 0.0
C1685 C 0.05514 0.33023 0.2213 0.0
C1686 C 0.97344 0.32439 0.16905 0.0
C1687 C 0.0726 0.37484 0.19218 0.0
C1688 C 0.02728 0.39436 0.10717 0.0
C1689 C 0.01603 0.42183 0.11711 0.0
C1690 C 0.02765 0.36975 0.12694 0.0
C1691 C 0.0166 0.37276 0.15737 0.0
C1692 C 0.00305 0.39974 0.16666 0.0
C1693 C 0.00283 0.42393 0.14637 0.0
C1694 C 0.04187 0.34124 0.11599 0.0
C1695 C 0.99083 0.40383 0.19885 0.0
H1696 H 0.99208 0.28923 0.21611 0.0
H1697 H 0.07538 0.33147 0.23487 0.0
H1698 H 0.95917 0.34395 0.17414 0.0
H1699 H 0.97794 0.32448 0.14391 0.0
H1700 H 0.96083 0.30404 0.17493 0.0
H1701 H 0.09269 0.37225 0.20693 0.0
H1702 H 0.07969 0.37452 0.16768 0.0
H1703 H 0.06253 0.39691 0.19682 0.0
H1704 H 0.03716 0.3924 0.08444 0.0
H1705 H 0.99373 0.44496 0.15413 0.0
H1706 H 0.02794 0.32197 0.12243 0.0
H1707 H 0.06387 0.33836 0.12733 0.0
H1708 H 0.04532 0.34105 0.09062 0.0
H1709 H 0.97653 0.38487 0.20537 0.0
H1710 H 0.97763 0.42462 0.20116 0.0
H1711 H 0.00958 0.40461 0.21553 0.0
C1712 C 0.72057 0.02572 0.18024 0.0
C1713 C 0.72414 0.05326 0.19451 0.0
C1714 C 0.69885 0.02174 0.15747 0.0
C1715 C 0.68047 0.04596 0.14885 0.0
C1716 C 0.6848 0.07412 0.16238 0.0
C1717 C 0.70662 0.07737 0.1852 0.0
C1718 C 0.69459 0.99127 0.14378 0.0
C1719 C 0.6656 0.10039 0.15375 0.0
C1720 C 0.64055 0.03286 0.07369 0.0
C1721 C 0.61315 0.02175 0.08396 0.0
C1722 C 0.66192 0.04304 0.09458 0.0
C1723 C 0.65602 0.04122 0.12652 0.0
C1724 C 0.62776 0.03166 0.13704 0.0
C1725 C 0.60649 0.02222 0.11553 0.0
C1726 C 0.69148 0.05397 0.08248 0.0
C1727 C 0.62068 0.0294 0.17101 0.0
H1728 H 0.7334 0.0069 0.18834 0.0
H1729 H 0.70931 0.09848 0.19678 0.0
H1730 H 0.6721 0.9829 0.14982 0.0
H1731 H 0.69591 0.99233 0.11827 0.0
H1732 H 0.7115 0.97511 0.15215 0.0
H1733 H 0.67356 0.12126 0.16448 0.0
H1734 H 0.66518 0.10324 0.12835 0.0
H1735 H 0.6423 0.09652 0.16132 0.0
H1736 H 0.64584 0.03263 0.04932 0.0
H1737 H 0.58528 0.01381 0.12359 0.0
H1738 H 0.70892 0.03694 0.08679 0.0
H1739 H 0.6983 0.07448 0.09465 0.0
H1740 H 0.69069 0.05854 0.05733 0.0
H1741 H 0.63346 0.01067 0.18111 0.0
H1742 H 0.59657 0.02558 0.17524 0.0
H1743 H 0.62748 0.0498 0.18337 0.0
C1744 C 0.03786 0.71832 0.17822 0.0
C1745 C 0.01601 0.73096 0.19715 0.0
C1746 C 0.0301 0.69898 0.15426 0.0
C1747 C -0.00044 0.69304 0.14851 0.0
C1748 C 0.97735 0.7087 0.16519 0.0
C1749 C 0.98586 0.72708 0.18981 0.0
C1750 C 0.05467 0.68268 0.13732 0.0
C1751 C 0.94462 0.70428 0.15873 0.0
C1752 C 0.99253 0.64454 0.0778 0.0
C1753 C 0.99239 0.61635 0.09127 0.0
C1754 C 0.99128 0.67018 0.09615 0.0
C1755 C 0.99154 0.66734 0.12864 0.0
C1756 C 0.98897 0.63883 0.14213 0.0
C1757 C 0.98886 0.61364 0.12313 0.0
C1758 C 0.99219 0.70013 0.08081 0.0
C1759 C 0.98975 0.63464 0.17666 0.0
H1760 H 0.06112 0.72149 0.18411 0.0
H1761 H 0.96897 0.73673 0.20468 0.0
H1762 H 0.05372 0.65873 0.14302 0.0
H1763 H 0.05171 0.68478 0.11206 0.0
H1764 H 0.07717 0.69103 0.14345 0.0
H1765 H 0.93108 0.72324 0.16735 0.0
H1766 H 0.94051 0.7015 0.13367 0.0
H1767 H 0.93685 0.68396 0.17054 0.0
H1768 H -0.00452 0.64652 0.05308 0.0
H1769 H 0.9893 0.59176 0.13344 0.0
H1770 H 0.01535 0.70865 0.08112 0.0
H1771 H 0.9779 0.71631 0.09331 0.0
H1772 H 0.98475 0.69889 0.05642 0.0
H1773 H 0.01196 0.64121 0.18559 0.0
H1774 H 0.98556 0.6113 0.18344 0.0
H1775 H 0.97288 0.64898 0.18801 0.0
C1776 C 0.30411 0.9678 0.83562 0.0
C1777 C 0.30372 0.98601 0.80959 0.0
C1778 C 0.32364 0.97356 0.86005 0.0
C1779 C 0.34367 0.99756 0.85768 0.0
C1780 C 0.34287 0.01637 0.83162 0.0
C1781 C 0.32229 0.01074 0.8082 0.0
C1782 C 0.32344 0.95357 0.88793 0.0
C1783 C 0.36436 0.04181 0.82798 0.0
C1784 C 0.38202 0.0318 0.92621 0.0
C1785 C 0.4104 0.01903 0.92403 0.0
C1786 C 0.35944 0.02373 0.90569 0.0
C1787 C 0.36587 0.00298 0.88213 0.0
C1788 C 0.39439 0.98945 0.88037 0.0
C1789 C 0.41642 0.99764 0.90156 0.0
C1790 C 0.32913 0.03824 0.90848 0.0
C1791 C 0.40219 0.9677 0.85509 0.0
H1792 H 0.28977 0.94857 0.83635 0.0
H1793 H 0.32131 0.02513 0.78826 0.0
H1794 H 0.34491 0.94132 0.88945 0.0
H1795 H 0.32121 0.96696 0.90929 0.0
H1796 H 0.30499 0.93726 0.88713 0.0
H1797 H 0.3611 0.05387 0.80592 0.0
H1798 H 0.36161 0.05771 0.84728 0.0
H1799 H 0.38765 0.0334 0.82879 0.0
H1800 H 0.37764 0.04841 0.94375 0.0
H1801 H 0.43874 0.98862 0.8995 0.0
H1802 H 0.31132 0.02127 0.90785 0.0
H1803 H 0.32542 0.05331 0.88866 0.0
H1804 H 0.32684 0.0513 0.93009 0.0
H1805 H 0.38484 0.95039 0.8531 0.0
H1806 H 0.42409 0.95673 0.85907 0.0
H1807 H 0.40308 0.97951 0.83268 0.0
C1808 C 0.03395 0.31466 0.81735 0.0
C1809 C 0.00705 0.30063 0.81018 0.0
C1810 C 0.03552 0.33552 0.84139 0.0
C1811 C 0.00939 0.34274 0.85822 0.0
C1812 C 0.98311 0.32605 0.85323 0.0
C1813 C 0.98225 0.30521 0.82914 0.0
C1814 C 0.06425 0.35204 0.84651 0.0
C1815 C 0.9552 0.33197 0.87164 0.0
C1816 C 0.00812 0.40037 0.92308 0.0
C1817 C -0.00118 0.42581 0.90703 0.0
C1818 C 0.01276 0.37323 0.90759 0.0
C1819 C 0.00757 0.37145 0.87539 0.0
C1820 C -0.0008 0.39738 0.85907 0.0
C1821 C 0.9951 0.4241 0.87501 0.0
C1822 C 0.02206 0.34644 0.92603 0.0
C1823 C 0.9933 0.39672 0.82477 0.0
H1824 H 0.053 0.31125 0.80234 0.0
H1825 H 0.96147 0.29442 0.8233 0.0
H1826 H 0.06255 0.3743 0.8358 0.0
H1827 H 0.06843 0.35523 0.87151 0.0
H1828 H 0.08361 0.34023 0.83613 0.0
H1829 H 0.9366 0.31712 0.86497 0.0
H1830 H 0.96007 0.32863 0.89642 0.0
H1831 H 0.94785 0.3553 0.86855 0.0
H1832 H 0.01103 0.40141 0.94786 0.0
H1833 H 0.98808 0.44359 0.86231 0.0
H1834 H 0.03683 0.33151 0.91251 0.0
H1835 H 0.00188 0.33381 0.93261 0.0
H1836 H 0.03378 0.35294 0.94755 0.0
H1837 H 0.01288 0.38751 0.81232 0.0
H1838 H 0.9883 0.41906 0.8153 0.0
H1839 H 0.97402 0.38212 0.81995 0.0
C1840 C 0.70882 0.02775 0.80098 0.0
C1841 C 0.73371 0.04311 0.81195 0.0
C1842 C 0.68321 0.02454 0.81936 0.0
C1843 C 0.68298 0.03609 0.84977 0.0
C1844 C 0.70814 0.05159 0.86087 0.0
C1845 C 0.73306 0.05514 0.84169 0.0
C1846 C 0.65669 0.00823 0.80647 0.0
C1847 C 0.70918 0.06358 0.89332 0.0
C1848 C 0.60962 0.04204 0.89418 0.0
C1849 C 0.60941 0.01489 0.90972 0.0
C1850 C 0.63341 0.04937 0.8744 0.0
C1851 C 0.65773 0.02939 0.87094 0.0
C1852 C 0.65802 0.00251 0.88767 0.0
C1853 C 0.63371 0.99545 0.90647 0.0
C1854 C 0.63215 0.07802 0.85656 0.0
C1855 C 0.68391 0.98101 0.88558 0.0
H1856 H 0.7095 0.01785 0.77826 0.0
H1857 H 0.7523 0.0672 0.84995 0.0
H1858 H 0.65386 0.98694 0.81886 0.0
H1859 H 0.63601 0.02142 0.81003 0.0
H1860 H 0.65918 0.00345 0.78147 0.0
H1861 H 0.73014 0.07577 0.89796 0.0
H1862 H 0.69003 0.07869 0.89757 0.0
H1863 H 0.70736 0.04506 0.91 0.0
H1864 H 0.59077 0.05697 0.89659 0.0
H1865 H 0.63377 0.97459 0.91884 0.0
H1866 H 0.63233 0.07319 0.83147 0.0
H1867 H 0.65213 0.09157 0.86157 0.0
H1868 H 0.61189 0.09129 0.86208 0.0
H1869 H 0.68588 0.9724 0.86171 0.0
H1870 H 0.68138 0.96191 0.90148 0.0
H1871 H 0.70508 0.99248 0.89112 0.0
C1872 C 0.00057 0.73327 0.81425 0.0
C1873 C -0.00381 0.72296 0.78385 0.0
C1874 C 0.00511 0.71387 0.83915 0.0
C1875 C 0.0021 0.68305 0.83464 0.0
C1876 C -0.00404 0.67219 0.80479 0.0
C1877 C 0.99368 0.69199 0.77994 0.0
C1878 C 0.01225 0.72663 0.87048 0.0
C1879 C 0.99041 0.63958 0.79922 0.0
C1880 C 0.02442 0.62316 0.89247 0.0
C1881 C -0.00247 0.61915 0.90835 0.0
C1882 C 0.02687 0.64519 0.86955 0.0
C1883 C 0.00148 0.66244 0.86148 0.0
C1884 C 0.97446 0.65855 0.87778 0.0
C1885 C 0.97306 0.6375 0.90133 0.0
C1886 C 0.05645 0.6498 0.85375 0.0
C1887 C 0.94643 0.67546 0.86933 0.0
H1888 H -0.00035 0.75665 0.81924 0.0
H1889 H 0.9892 0.68224 0.75803 0.0
H1890 H 0.99171 0.72762 0.88468 0.0
H1891 H 0.02875 0.71256 0.88279 0.0
H1892 H 0.02126 0.74944 0.86866 0.0
H1893 H 0.98598 0.63448 0.77459 0.0
H1894 H 0.00989 0.62627 0.80683 0.0
H1895 H 0.97093 0.63229 0.81303 0.0
H1896 H 0.04341 0.60919 0.89795 0.0
H1897 H 0.95205 0.63442 0.91327 0.0
H1898 H 0.06225 0.67369 0.85392 0.0
H1899 H 0.05494 0.6428 0.8293 0.0
H1900 H 0.07474 0.63707 0.86494 0.0
H1901 H 0.95013 0.69962 0.87145 0.0
H1902 H 0.92714 0.66947 0.88412 0.0
H1903 H 0.94049 0.67091 0.84495 0.0
C1904 C 0.18761 0.31643 0.03414 0.0
C1905 C 0.19734 0.29944 0.00904 0.0
C1906 C 0.16353 0.33629 0.03107 0.0
C1907 C 0.14946 0.33944 0.00201 0.0
C1908 C 0.15679 0.31942 0.97794 0.0
C1909 C 0.18073 0.29959 0.9818 0.0
C1910 C 0.15573 0.35634 0.05774 0.0
C1911 C 0.14209 0.32158 0.94675 0.0
C1912 C 0.08733 0.39485 0.98352 0.0
C1913 C 0.10394 0.41897 0.97266 0.0
C1914 C 0.10167 0.36928 0.99501 0.0
C1915 C 0.13325 0.36745 0.99436 0.0
C1916 C 0.14994 0.39213 0.98404 0.0
C1917 C 0.1351 0.41761 0.97375 0.0
C1918 C 0.08298 0.34416 0.00713 0.0
C1919 C 0.1836 0.39125 0.98241 0.0
H1920 H 0.20074 0.31637 0.05511 0.0
H1921 H 0.18859 0.28656 0.96241 0.0
H1922 H 0.16724 0.37786 0.05484 0.0
H1923 H 0.13137 0.3608 0.05858 0.0
H1924 H 0.1629 0.3466 0.08006 0.0
H1925 H 0.14679 0.30176 0.9323 0.0
H1926 H 0.11761 0.3242 0.94917 0.0
H1927 H 0.1506 0.34142 0.93453 0.0
H1928 H 0.06317 0.396 0.98314 0.0
H1929 H 0.14805 0.43617 0.96538 0.0
H1930 H 0.09368 0.33356 0.0274 0.0
H1931 H 0.0806 0.32705 0.98894 0.0
H1932 H 0.06029 0.35185 0.01377 0.0
H1933 H 0.19315 0.38495 0.00505 0.0
H1934 H 0.19324 0.41287 0.97547 0.0
H1935 H 0.19065 0.37431 0.96534 0.0
C1936 C 0.15712 0.72946 0.98791 0.0
C1937 C 0.17322 0.73641 0.01446 0.0
C1938 C 0.1345 0.7081 0.98876 0.0
C1939 C 0.1281 0.69344 0.0169 0.0
C1940 C 0.14184 0.70317 0.04444 0.0
C1941 C 0.16438 0.72457 0.04282 0.0
C1942 C 0.12016 0.69869 0.95886 0.0
C1943 C 0.13559 0.68846 0.07496 0.0
C1944 C 0.06644 0.63637 0.01049 0.0
C1945 C 0.08297 0.61139 0.00158 0.0
C1946 C 0.08086 0.66304 0.01789 0.0
C1947 C 0.11237 0.66449 0.01601 0.0
C1948 C 0.12904 0.63842 0.00945 0.0
C1949 C 0.11406 0.61223 0.00206 0.0
C1950 C 0.06238 0.69007 0.02558 0.0
C1951 C 0.16268 0.63869 0.00754 0.0
H1952 H 0.16446 0.73836 0.966 0.0
H1953 H 0.17733 0.72975 0.0632 0.0
H1954 H 0.12985 0.67716 0.95139 0.0
H1955 H 0.09582 0.69553 0.96192 0.0
H1956 H 0.12384 0.71514 0.94023 0.0
H1957 H 0.14194 0.70293 0.09459 0.0
H1958 H 0.1117 0.68258 0.07719 0.0
H1959 H 0.14882 0.66767 0.07656 0.0
H1960 H 0.04228 0.63557 0.00974 0.0
H1961 H 0.12663 0.59284 0.99481 0.0
H1962 H 0.06415 0.70646 0.00664 0.0
H1963 H 0.07088 0.70082 0.04682 0.0
H1964 H 0.03848 0.68458 0.02893 0.0
H1965 H 0.16954 0.65061 0.98636 0.0
H1966 H 0.17226 0.61595 0.00665 0.0
H1967 H 0.17239 0.65045 0.02758 0.0
C1968 C 0.31875 0.25246 0.04231 0.0
C1969 C 0.2933 0.245 0.02529 0.0
C1970 C 0.34381 0.23369 0.04283 0.0
C1971 C 0.34248 0.20576 0.028 0.0
C1972 C 0.31561 0.19686 0.01358 0.0
C1973 C 0.29157 0.21687 0.01181 0.0
C1974 C 0.37235 0.24473 0.05715 0.0
C1975 C 0.31269 0.16675 -0.00123 0.0
C1976 C 0.41198 0.16678 0.9973 0.0
C1977 C 0.41839 0.14683 0.02114 0.0
C1978 C 0.38808 0.18694 -0.00022 0.0
C1979 C 0.36951 0.18643 0.02627 0.0
C1980 C 0.37616 0.16662 0.05057 0.0
C1981 C 0.40076 0.14744 0.04793 0.0
C1982 C 0.38219 0.20795 0.97343 0.0
C1983 C 0.35636 0.16452 0.07866 0.0
H1984 H 0.31978 0.27393 0.0534 0.0
H1985 H 0.27192 0.21107 -0.00135 0.0
H1986 H 0.38123 0.22842 0.07393 0.0
H1987 H 0.38946 0.24742 0.03887 0.0
H1988 H 0.36927 0.26635 0.06903 0.0
H1989 H 0.28918 0.16159 0.99283 0.0
H1990 H 0.32614 0.16598 0.97732 0.0
H1991 H 0.32136 0.14924 0.01437 0.0
H1992 H 0.42535 0.16636 0.97647 0.0
H1993 H 0.40522 0.13181 0.06632 0.0
H1994 H 0.37382 0.22962 0.98191 0.0
H1995 H 0.36489 0.19841 0.95815 0.0
H1996 H 0.40258 0.21166 0.95941 0.0
H1997 H 0.35409 0.18648 0.08991 0.0
H1998 H 0.36503 0.14845 0.09588 0.0
H1999 H 0.33367 0.15753 0.07158 0.0
C2000 C 0.86101 0.28527 0.99747 0.0
C2001 C 0.83399 0.28922 0.98187 0.0
C2002 C 0.8823 0.30786 -0.00161 0.0
C2003 C 0.87594 0.33535 0.98407 0.0
C2004 C 0.84977 0.33853 0.96607 0.0
C2005 C 0.82928 0.31514 0.96479 0.0
C2006 C 0.91028 0.30327 0.01715 0.0
C2007 C 0.84188 0.36752 0.95071 0.0
C2008 C 0.90278 0.40055 0.031 0.0
C2009 C 0.92826 0.40943 0.01479 0.0
C2010 C 0.88522 0.37712 0.02052 0.0
C2011 C 0.89334 0.36189 0.99322 0.0
C2012 C 0.91867 0.37108 0.97631 0.0
C2013 C 0.93591 0.39479 0.98733 0.0
C2014 C 0.85816 0.36834 0.03907 0.0
C2015 C 0.92806 0.35548 0.94712 0.0
H2016 H 0.86463 0.26521 0.01067 0.0
H2017 H 0.80869 0.31782 0.95202 0.0
H2018 H 0.92996 0.31223 0.00485 0.0
H2019 H 0.90817 0.31536 0.03934 0.0
H2020 H 0.91433 0.27947 0.02225 0.0
H2021 H 0.8245 0.36464 0.93273 0.0
H2022 H 0.83311 0.38316 0.96833 0.0
H2023 H 0.86183 0.37778 0.94011 0.0
H2024 H 0.89649 0.41186 0.05209 0.0
H2025 H 0.95546 0.40167 0.97455 0.0
H2026 H 0.8619 0.34621 0.04954 0.0
H2027 H 0.83845 0.36665 0.0238 0.0
H2028 H 0.85303 0.38438 0.0578 0.0
H2029 H 0.93821 0.33376 0.95305 0.0
H2030 H 0.94468 0.36855 0.93393 0.0
H2031 H 0.90856 0.35113 0.93209 0.0
C2032 C 0.73877 0.84747 0.97021 0.0
C2033 C 0.74465 0.82151 0.98661 0.0
C2034 C 0.71507 0.86616 0.97892 0.0
C2035 C 0.69634 0.85776 0.00375 0.0
C2036 C 0.7042 0.83312 0.0222 0.0
C2037 C 0.72878 0.81566 0.01374 0.0
C2038 C 0.70837 0.89324 0.95974 0.0
C2039 C 0.68468 0.82292 0.04846 0.0
C2040 C 0.63435 0.90971 0.02951 0.0
C2041 C 0.61098 0.90129 0.00984 0.0
C2042 C 0.66224 0.8956 0.02814 0.0
C2043 C 0.66652 0.87186 0.00732 0.0
C2044 C 0.6424 0.86206 0.98879 0.0
C2045 C 0.61506 0.87734 0.9898 0.0
C2046 C 0.68754 0.90734 0.04753 0.0
C2047 C 0.64575 0.83599 0.9672 0.0
H2048 H 0.75105 0.85175 0.94918 0.0
H2049 H 0.73333 0.79522 0.02602 0.0
H2050 H 0.68936 0.88858 0.94415 0.0
H2051 H 0.70189 0.9122 0.97468 0.0
H2052 H 0.72781 0.89977 0.94544 0.0
H2053 H 0.69643 0.8068 0.06357 0.0
H2054 H 0.67697 0.84189 0.06269 0.0
H2055 H 0.66458 0.81201 0.03888 0.0
H2056 H 0.6315 0.92869 0.0446 0.0
H2057 H 0.59707 0.87095 0.97452 0.0
H2058 H 0.704 0.9184 0.03234 0.0
H2059 H 0.69939 0.88906 0.05948 0.0
H2060 H 0.67972 0.92362 0.06503 0.0
H2061 H 0.66171 0.84153 0.94855 0.0
H2062 H 0.62421 0.8296 0.9565 0.0
H2063 H 0.65493 0.81659 0.97979 0.0
C2064 C 0.81612 0.71313 0.95491 0.0
C2065 C 0.81144 0.73537 0.97697 0.0
C2066 C 0.83651 0.69 0.96001 0.0
C2067 C 0.85328 0.68954 0.9876 0.0
C2068 C 0.8499 0.71289 0.00924 0.0
C2069 C 0.82852 0.73519 0.00399 0.0
C2070 C 0.83868 0.66516 0.93676 0.0
C2071 C 0.86783 0.71352 0.03868 0.0
C2072 C 0.87567 0.6166 0.02403 0.0
C2073 C 0.9058 0.61434 0.01592 0.0
C2074 C 0.85809 0.64031 0.01372 0.0
C2075 C 0.87129 0.66289 0.99572 0.0
C2076 C 0.90163 0.66031 0.98677 0.0
C2077 C 0.91852 0.63577 0.99676 0.0
C2078 C 0.82558 0.64161 0.02288 0.0
C2079 C 0.91665 0.68415 0.96808 0.0
H2080 H 0.80288 0.71333 0.93402 0.0
H2081 H 0.82439 0.75167 0.02162 0.0
H2082 H 0.8623 0.66063 0.93071 0.0
H2083 H 0.82952 0.64459 0.94698 0.0
H2084 H 0.82613 0.67016 0.9153 0.0
H2085 H 0.86588 0.73517 0.05074 0.0
H2086 H 0.85985 0.69593 0.05445 0.0
H2087 H 0.89173 0.70901 0.03379 0.0
H2088 H 0.86595 0.59993 0.03889 0.0
H2089 H 0.94202 0.63421 0.99107 0.0
H2090 H 0.81137 0.64545 0.00232 0.0
H2091 H 0.82179 0.66041 0.03893 0.0
H2092 H 0.81816 0.62094 0.03438 0.0
H2093 H 0.90317 0.6898 0.94747 0.0
H2094 H 0.93937 0.67744 0.96046 0.0
H2095 H 0.91846 0.70456 0.98223 0.0
C2096 C 0.26043 0.81967 0.98689 0.0
C2097 C 0.26427 0.7992 0.01084 0.0
C2098 C 0.2796 0.84395 0.98352 0.0
C2099 C 0.3036 0.84762 0.00433 0.0
C2100 C 0.30755 0.827 0.02869 0.0
C2101 C 0.28766 0.80315 0.03178 0.0
C2102 C 0.27438 0.86549 0.95746 0.0
C2103 C 0.33309 0.8298 0.05113 0.0
C2104 C 0.3711 0.89134 0.97727 0.0
C2105 C 0.36804 0.91774 0.99401 0.0
C2106 C 0.35024 0.8684 0.98035 0.0
C2107 C 0.32519 0.87236 -0.00012 0.0
C2108 C 0.32118 0.8997 0.01552 0.0
C2109 C 0.34301 0.92186 0.01287 0.0
C2110 C 0.35592 0.83931 0.96407 0.0
C2111 C 0.29441 0.90517 0.03587 0.0
H2112 H 0.24256 0.81635 0.97047 0.0
H2113 H 0.29042 0.78749 0.05048 0.0
H2114 H 0.27275 0.88842 0.96659 0.0
H2115 H 0.29356 0.86485 0.9413 0.0
H2116 H 0.25374 0.86048 0.94435 0.0
H2117 H 0.3328 0.81219 0.069 0.0
H2118 H 0.3546 0.8285 0.03853 0.0
H2119 H 0.33221 0.85169 0.06275 0.0
H2120 H 0.39098 0.88781 0.96346 0.0
H2121 H 0.34093 0.94211 0.02615 0.0
H2122 H 0.33662 0.83353 0.9493 0.0
H2123 H 0.35849 0.82133 0.98131 0.0
H2124 H 0.3763 0.83988 0.9495 0.0
H2125 H 0.27358 0.90053 0.02297 0.0
H2126 H 0.2935 0.9283 0.04461 0.0
H2127 H 0.29506 0.88991 0.05589 0.0
C2128 C 0.7762 0.17637 0.01413 0.0
C2129 C 0.77504 0.19667 0.98985 0.0
C2130 C 0.75708 0.15181 0.01458 0.0
C2131 C 0.73603 0.14824 0.99052 0.0
C2132 C 0.73696 0.16723 0.96457 0.0
C2133 C 0.75667 0.19117 0.96453 0.0
C2134 C 0.75741 0.13161 0.04225 0.0
C2135 C 0.71472 0.16453 0.93859 0.0
C2136 C 0.68114 0.08491 0.98183 0.0
C2137 C 0.65601 0.09698 0.9964 0.0
C2138 C 0.70829 0.10042 0.98168 0.0
C2139 C 0.70956 0.12906 0.99498 0.0
C2140 C 0.6842 0.14091 0.01021 0.0
C2141 C 0.65791 0.12441 0.01123 0.0
C2142 C 0.73552 0.08645 0.96722 0.0
C2143 C 0.68433 0.17158 0.02425 0.0
H2144 H 0.79026 0.18109 0.03383 0.0
H2145 H 0.7557 0.20738 0.94614 0.0
H2146 H 0.74006 0.13895 0.05887 0.0
H2147 H 0.75239 0.10842 0.03559 0.0
H2148 H 0.77932 0.13215 0.05419 0.0
H2149 H 0.72063 0.17876 0.91865 0.0
H2150 H 0.71317 0.14125 0.93058 0.0
H2151 H 0.69229 0.17127 0.947 0.0
H2152 H 0.67959 0.06338 0.97085 0.0
H2153 H 0.63832 0.1335 0.02257 0.0
H2154 H 0.75427 0.08653 0.9839 0.0
H2155 H 0.7427 0.09965 0.94703 0.0
H2156 H 0.73145 0.06327 0.9598 0.0
H2157 H 0.70229 0.17332 0.04169 0.0
H2158 H 0.66278 0.17729 0.03548 0.0
H2159 H 0.68891 0.18828 0.00612 0.0
C2160 C 0.56651 0.69716 0.79981 0.0
C2161 C 0.54201 0.71093 0.7858 0.0
C2162 C 0.56245 0.67416 0.82111 0.0
C2163 C 0.53315 0.66475 0.82816 0.0
C2164 C 0.50887 0.67561 0.81048 0.0
C2165 C 0.51359 0.69885 0.78957 0.0
C2166 C 0.58908 0.66297 0.83894 0.0
C2167 C 0.47738 0.66554 0.81654 0.0
C2168 C 0.51732 0.60672 0.88994 0.0
C2169 C 0.51165 0.62485 0.91562 0.0
C2170 C 0.52509 0.61912 0.86126 0.0
C2171 C 0.52707 0.6503 0.85835 0.0
C2172 C 0.52218 0.66853 0.8845 0.0
C2173 C 0.51468 0.65559 0.91272 0.0
C2174 C 0.53117 0.59894 0.83422 0.0
C2175 C 0.52421 0.70191 0.88263 0.0
H2176 H 0.5885 0.70653 0.79653 0.0
H2177 H 0.49471 0.70957 0.7786 0.0
H2178 H 0.59047 0.67506 0.86118 0.0
H2179 H 0.58702 0.63904 0.84418 0.0
H2180 H 0.61019 0.66666 0.82611 0.0
H2181 H 0.46221 0.67142 0.79723 0.0
H2182 H 0.47665 0.64124 0.82022 0.0
H2183 H 0.46893 0.67641 0.83781 0.0
H2184 H 0.51558 0.58291 0.89223 0.0
H2185 H 0.51047 0.66978 0.93244 0.0
H2186 H 0.55503 0.60033 0.82768 0.0
H2187 H 0.51789 0.60596 0.81391 0.0
H2188 H 0.52598 0.57548 0.83957 0.0
H2189 H 0.54658 0.70845 0.87419 0.0
H2190 H 0.52028 0.71281 0.90525 0.0
H2191 H 0.50748 0.7105 0.866 0.0
C2192 C 0.35279 0.56504 0.7981 0.0
C2193 C 0.3464 0.54137 0.77832 0.0
C2194 C 0.37754 0.56391 0.81783 0.0
C2195 C 0.39667 0.53892 0.8169 0.0
C2196 C 0.39254 0.51702 0.79394 0.0
C2197 C 0.36695 0.51811 0.77538 0.0
C2198 C 0.38164 0.58802 0.84154 0.0
C2199 C 0.4137 0.4911 0.79089 0.0
C2200 C 0.46507 0.53485 0.86898 0.0
C2201 C 0.45432 0.51715 0.89306 0.0
C2202 C 0.44661 0.54276 0.84408 0.0
C2203 C 0.41677 0.53256 0.84332 0.0
C2204 C 0.40573 0.51517 0.86792 0.0
C2205 C 0.42461 0.50766 0.89235 0.0
C2206 C 0.45953 0.56206 0.8191 0.0
C2207 C 0.37389 0.50425 0.86842 0.0
H2208 H 0.33712 0.58333 0.79973 0.0
H2209 H 0.36195 0.49977 0.76013 0.0
H2210 H 0.37671 0.57907 0.86481 0.0
H2211 H 0.40514 0.59564 0.8416 0.0
H2212 H 0.36675 0.60732 0.83729 0.0
H2213 H 0.41069 0.47926 0.76865 0.0
H2214 H 0.43717 0.4987 0.79261 0.0
H2215 H 0.40973 0.47523 0.80995 0.0
H2216 H 0.488 0.54228 0.8693 0.0
H2217 H 0.41599 0.49409 0.9109 0.0
H2218 H 0.46453 0.58419 0.82897 0.0
H2219 H 0.44455 0.56508 0.79903 0.0
H2220 H 0.48097 0.55244 0.81094 0.0
H2221 H 0.36836 0.49244 0.89012 0.0
H2222 H 0.37014 0.48888 0.84885 0.0
H2223 H 0.35818 0.52315 0.86571 0.0
C2224 C 0.51271 0.31138 0.78075 0.0
C2225 C 0.48618 0.29575 0.78549 0.0
C2226 C 0.52165 0.33377 0.8012 0.0
C2227 C 0.50397 0.34024 0.82746 0.0
C2228 C 0.47713 0.32448 0.83235 0.0
C2229 C 0.46849 0.30254 0.81118 0.0
C2230 C 0.55034 0.35012 0.79503 0.0
C2231 C 0.45783 0.33039 0.86023 0.0
C2232 C 0.54419 0.37483 0.89563 0.0
C2233 C 0.53622 0.40483 0.89294 0.0
C2234 C 0.53342 0.35358 0.87481 0.0
C2235 C 0.51437 0.3625 0.85047 0.0
C2236 C 0.50604 0.39271 0.84772 0.0
C2237 C 0.517 0.4135 0.86902 0.0
C2238 C 0.54264 0.32156 0.87872 0.0
C2239 C 0.48589 0.40313 0.82201 0.0
H2240 H 0.52677 0.30562 0.76133 0.0
H2241 H 0.44797 0.29044 0.81475 0.0
H2242 H 0.54619 0.37438 0.79493 0.0
H2243 H 0.56659 0.34548 0.81371 0.0
H2244 H 0.56058 0.34369 0.77267 0.0
H2245 H 0.43729 0.31673 0.86027 0.0
H2246 H 0.47062 0.32558 0.88154 0.0
H2247 H 0.45131 0.35412 0.86105 0.0
H2248 H 0.55888 0.36786 0.91411 0.0
H2249 H 0.5107 0.43661 0.86673 0.0
H2250 H 0.5555 0.31409 0.85827 0.0
H2251 H 0.52262 0.3073 0.88036 0.0
H2252 H 0.55655 0.31804 0.89959 0.0
H2253 H 0.49674 0.39884 0.79944 0.0
H2254 H 0.4806 0.42716 0.82373 0.0
H2255 H 0.46471 0.39054 0.8223 0.0
C2256 C 0.65453 0.4648 0.79198 0.0
C2257 C 0.675 0.48758 0.78685 0.0
C2258 C 0.63066 0.46878 0.81265 0.0
C2259 C 0.628 0.49589 0.82894 0.0
C2260 C 0.64676 0.51991 0.82114 0.0
C2261 C 0.66988 0.51548 0.79991 0.0
C2262 C 0.61024 0.44311 0.81926 0.0
C2263 C 0.64483 0.54922 0.83788 0.0
C2264 C 0.56893 0.51988 0.88636 0.0
C2265 C 0.58321 0.51329 0.91434 0.0
C2266 C 0.58177 0.5116 0.85806 0.0
C2267 C 0.61012 0.49768 0.85779 0.0
C2268 C 0.62364 0.4893 0.88602 0.0
C2269 C 0.60975 0.49677 0.9139 0.0
C2270 C 0.56577 0.51945 0.82858 0.0
C2271 C 0.65412 0.47486 0.88704 0.0
H2272 H 0.65874 0.44319 0.78192 0.0
H2273 H 0.68607 0.53285 0.79611 0.0
H2274 H 0.61778 0.43159 0.84046 0.0
H2275 H 0.58703 0.45091 0.82321 0.0
H2276 H 0.61034 0.42679 0.80006 0.0
H2277 H 0.65922 0.56633 0.82718 0.0
H2278 H 0.62153 0.55754 0.83815 0.0
H2279 H 0.65194 0.54619 0.86218 0.0
H2280 H 0.54825 0.5324 0.88643 0.0
H2281 H 0.62083 0.49137 0.93539 0.0
H2282 H 0.57036 0.50293 0.81019 0.0
H2283 H 0.57354 0.54135 0.82037 0.0
H2284 H 0.54127 0.52091 0.83227 0.0
H2285 H 0.65532 0.45578 0.87099 0.0
H2286 H 0.66003 0.46699 0.91053 0.0
H2287 H 0.67113 0.49116 0.87964 0.0
C2288 C 0.52552 0.32217 0.2061 0.0
C2289 C 0.49795 0.31651 0.21988 0.0
C2290 C 0.52911 0.34608 0.18577 0.0
C2291 C 0.50448 0.36488 0.17924 0.0
C2292 C 0.4772 0.36056 0.19509 0.0
C2293 C 0.47413 0.3361 0.21495 0.0
C2294 C 0.55876 0.3501 0.16984 0.0
C2295 C 0.45094 0.38098 0.19 0.0
C2296 C 0.52768 0.43381 0.13536 0.0
C2297 C 0.52292 0.42499 0.10482 0.0
C2298 C 0.51941 0.41559 0.16014 0.0
C2299 C 0.50697 0.38739 0.15412 0.0
C2300 C 0.50037 0.37926 0.12323 0.0
C2301 C 0.50826 0.3983 0.09893 0.0
C2302 C 0.52609 0.42591 0.19248 0.0
C2303 C 0.4871 0.34944 0.11568 0.0
H2304 H 0.54366 0.30658 0.20966 0.0
H2305 H 0.45274 0.33133 0.22541 0.0
H2306 H 0.55597 0.34719 0.1446 0.0
H2307 H 0.5671 0.37289 0.17381 0.0
H2308 H 0.57587 0.33408 0.17807 0.0
H2309 H 0.43268 0.37687 0.20676 0.0
H2310 H 0.45801 0.40445 0.19199 0.0
H2311 H 0.44207 0.37779 0.16637 0.0
H2312 H 0.53902 0.45446 0.13991 0.0
H2313 H 0.50489 0.39139 0.07524 0.0
H2314 H 0.54965 0.42055 0.19808 0.0
H2315 H 0.51156 0.41523 0.20987 0.0
H2316 H 0.52325 0.4503 0.19436 0.0
H2317 H 0.50317 0.33166 0.12194 0.0
H2318 H 0.48157 0.34724 0.09083 0.0
H2319 H 0.46654 0.34582 0.12937 0.0
C2320 C 0.66959 0.45149 0.23206 0.0
C2321 C 0.68493 0.47743 0.23956 0.0
C2322 C 0.64807 0.45151 0.20853 0.0
C2323 C 0.64278 0.47791 0.19178 0.0
C2324 C 0.65661 0.50464 0.20111 0.0
C2325 C 0.67734 0.50404 0.22514 0.0
C2326 C 0.63287 0.42288 0.20015 0.0
C2327 C 0.65168 0.53338 0.18394 0.0
C2328 C 0.62815 0.48182 0.10643 0.0
C2329 C 0.60008 0.49533 0.10653 0.0
C2330 C 0.64145 0.47305 0.13427 0.0
C2331 C 0.62587 0.47755 0.1624 0.0
C2332 C 0.59603 0.48774 0.16191 0.0
C2333 C 0.58367 0.49707 0.13394 0.0
C2334 C 0.67341 0.46237 0.13383 0.0
C2335 C 0.5783 0.49165 0.19122 0.0
H2336 H 0.67589 0.43091 0.2432 0.0
H2337 H 0.68975 0.52384 0.23089 0.0
H2338 H 0.6096 0.42682 0.19241 0.0
H2339 H 0.64514 0.41211 0.18093 0.0
H2340 H 0.63264 0.40727 0.21993 0.0
H2341 H 0.66301 0.55236 0.19521 0.0
H2342 H 0.66037 0.53121 0.16007 0.0
H2343 H 0.62754 0.53855 0.18232 0.0
H2344 H 0.64084 0.48089 0.08517 0.0
H2345 H 0.56183 0.50754 0.13375 0.0
H2346 H 0.6762 0.44267 0.14881 0.0
H2347 H 0.68807 0.48005 0.14303 0.0
H2348 H 0.68103 0.45662 0.11018 0.0
H2349 H 0.5807 0.47182 0.20612 0.0
H2350 H 0.55426 0.49558 0.18648 0.0
H2351 H 0.58694 0.51089 0.20433 0.0
C2352 C 0.57265 0.71554 0.23474 0.0
C2353 C 0.54925 0.73588 0.2384 0.0
C2354 C 0.56974 0.69105 0.21489 0.0
C2355 C 0.54318 0.68758 0.19758 0.0
C2356 C 0.51931 0.70788 0.20175 0.0
C2357 C 0.52249 0.73143 0.22255 0.0
C2358 C 0.59533 0.6694 0.21181 0.0
C2359 C 0.49084 0.70548 0.18332 0.0
C2360 C 0.54466 0.64754 0.1205 0.0
C2361 C 0.52854 0.62194 0.12737 0.0
C2362 C 0.55033 0.66881 0.14339 0.0
C2363 C 0.54059 0.66368 0.17402 0.0
C2364 C 0.52596 0.63684 0.18133 0.0
C2365 C 0.51948 0.61657 0.15771 0.0
C2366 C 0.56502 0.69756 0.13436 0.0
C2367 C 0.51618 0.63001 0.21384 0.0
H2368 H 0.59348 0.71932 0.24672 0.0
H2369 H 0.50432 0.747 0.22585 0.0
H2370 H 0.58717 0.64635 0.2142 0.0
H2371 H 0.60546 0.67137 0.18858 0.0
H2372 H 0.61295 0.67332 0.22932 0.0
H2373 H 0.47458 0.72328 0.18913 0.0
H2374 H 0.49598 0.70677 0.15833 0.0
H2375 H 0.48017 0.68374 0.18751 0.0
H2376 H 0.55125 0.65172 0.09685 0.0
H2377 H 0.50697 0.59667 0.16286 0.0
H2378 H 0.58459 0.7019 0.14927 0.0
H2379 H 0.54907 0.71618 0.13777 0.0
H2380 H 0.57243 0.69754 0.10992 0.0
H2381 H 0.53458 0.63439 0.2303 0.0
H2382 H 0.50902 0.60661 0.21642 0.0
H2383 H 0.49722 0.64461 0.22031 0.0
C2384 C 0.36618 0.56221 0.23981 0.0
C2385 C 0.34066 0.5457 0.23325 0.0
C2386 C 0.39204 0.55899 0.22166 0.0
C2387 C 0.39153 0.53979 0.19577 0.0
C2388 C 0.36609 0.5221 0.19014 0.0
C2389 C 0.34125 0.52488 0.20938 0.0
C2390 C 0.4192 0.57719 0.22917 0.0
C2391 C 0.36416 0.50181 0.16247 0.0
C2392 C 0.43263 0.55179 0.12097 0.0
C2393 C 0.45118 0.5268 0.12059 0.0
C2394 C 0.41492 0.55819 0.14687 0.0
C2395 C 0.41626 0.53928 0.17295 0.0
C2396 C 0.43755 0.51608 0.17386 0.0
C2397 C 0.45457 0.50993 0.14751 0.0
C2398 C 0.3925 0.58318 0.14492 0.0
C2399 C 0.44039 0.49596 0.20148 0.0
H2400 H 0.36537 0.5785 0.25815 0.0
H2401 H 0.32111 0.51261 0.20429 0.0
H2402 H 0.43983 0.56369 0.22675 0.0
H2403 H 0.42084 0.59596 0.2128 0.0
H2404 H 0.41815 0.58633 0.25294 0.0
H2405 H 0.34279 0.48948 0.16165 0.0
H2406 H 0.3662 0.51498 0.14099 0.0
H2407 H 0.38277 0.48554 0.16274 0.0
H2408 H 0.43 0.56482 0.10022 0.0
H2409 H 0.46939 0.49085 0.14744 0.0
H2410 H 0.39231 0.59633 0.16651 0.0
H2411 H 0.36984 0.57384 0.14184 0.0
H2412 H 0.39718 0.59825 0.12528 0.0
H2413 H 0.43869 0.5088 0.22324 0.0
H2414 H 0.46185 0.48352 0.20131 0.0
H2415 H 0.42196 0.47966 0.20126 0.0
C2416 C 0.77789 0.49475 0.71168 0.0
C2417 C 0.77334 0.50629 0.74123 0.0
C2418 C 0.80344 0.50194 0.69467 0.0
C2419 C 0.82555 0.52021 0.70809 0.0
C2420 C 0.82049 0.53289 0.7375 0.0
C2421 C 0.79398 0.52643 0.75334 0.0
C2422 C 0.80733 0.48889 0.66283 0.0
C2423 C 0.84382 0.55162 0.75314 0.0
C2424 C 0.90078 0.50303 0.67251 0.0
C2425 C 0.90341 0.52603 0.65107 0.0
C2426 C 0.87684 0.50243 0.69339 0.0
C2427 C 0.85437 0.52457 0.6917 0.0
C2428 C 0.85796 0.54879 0.67137 0.0
C2429 C 0.88279 0.5495 0.6517 0.0
C2430 C 0.87457 0.47702 0.71585 0.0
C2431 C 0.83423 0.57245 0.66819 0.0
H2432 H 0.76199 0.47908 0.70245 0.0
H2433 H 0.79006 0.53599 0.77589 0.0
H2434 H 0.81388 0.50637 0.64622 0.0
H2435 H 0.82543 0.47205 0.66317 0.0
H2436 H 0.78664 0.47815 0.65438 0.0
H2437 H 0.83499 0.56283 0.77408 0.0
H2438 H 0.86284 0.53726 0.76004 0.0
H2439 H 0.85266 0.56863 0.73718 0.0
H2440 H 0.91676 0.48492 0.67209 0.0
H2441 H 0.88457 0.56716 0.63487 0.0
H2442 H 0.85723 0.46133 0.70789 0.0
H2443 H 0.8678 0.4852 0.73896 0.0
H2444 H 0.896 0.46474 0.71801 0.0
H2445 H 0.81452 0.56292 0.65639 0.0
H2446 H 0.84216 0.5917 0.65457 0.0
H2447 H 0.82674 0.58042 0.69111 0.0
C2448 C 0.50293 0.80471 0.70914 0.0
C2449 C 0.53099 0.80229 0.72306 0.0
C2450 C 0.49799 0.82518 0.68518 0.0
C2451 C 0.52179 0.84331 0.67504 0.0
C2452 C 0.55025 0.84042 0.68896 0.0
C2453 C 0.55442 0.81995 0.7128 0.0
C2454 C 0.46736 0.82769 0.671 0.0
C2455 C 0.57633 0.85911 0.67883 0.0
C2456 C 0.52797 0.88158 0.59772 0.0
C2457 C 0.52438 0.91135 0.60637 0.0
C2458 C 0.5246 0.8587 0.61937 0.0
C2459 C 0.51744 0.86581 0.65033 0.0
C2460 C 0.51097 0.89557 0.6584 0.0
C2461 C 0.51452 0.91798 0.63632 0.0
C2462 C 0.53121 0.82723 0.60966 0.0
C2463 C 0.5028 0.90412 0.69099 0.0
H2464 H 0.4849 0.79091 0.71736 0.0
H2465 H 0.57612 0.8175 0.72349 0.0
H2466 H 0.45823 0.85028 0.67491 0.0
H2467 H 0.46873 0.82436 0.64571 0.0
H2468 H 0.45155 0.81132 0.68076 0.0
H2469 H 0.59704 0.85381 0.69179 0.0
H2470 H 0.58067 0.85568 0.6539 0.0
H2471 H 0.57101 0.88293 0.68222 0.0
H2472 H 0.53518 0.87617 0.57453 0.0
H2473 H 0.51111 0.94088 0.64306 0.0
H2474 H 0.51463 0.81176 0.61956 0.0
H2475 H 0.55349 0.82059 0.61849 0.0
H2476 H 0.53127 0.82471 0.58418 0.0
H2477 H 0.48617 0.88858 0.70066 0.0
H2478 H 0.49363 0.927 0.69234 0.0
H2479 H 0.52299 0.90288 0.70574 0.0
C2480 C 0.26139 0.54469 0.6832 0.0
C2481 C 0.26069 0.52428 0.70745 0.0
C2482 C 0.24131 0.54257 0.65851 0.0
C2483 C 0.21925 0.52024 0.65884 0.0
C2484 C 0.21922 0.49888 0.68273 0.0
C2485 C 0.24042 0.50081 0.70638 0.0
C2486 C 0.24264 0.56525 0.63301 0.0
C2487 C 0.19553 0.47529 0.68458 0.0
C2488 C 0.14519 0.54067 0.62238 0.0
C2489 C 0.14524 0.52317 0.5957 0.0
C2490 C 0.16906 0.53963 0.64317 0.0
C2491 C 0.19413 0.52148 0.63652 0.0
C2492 C 0.19475 0.50445 0.60908 0.0
C2493 C 0.17001 0.50512 0.58919 0.0
C2494 C 0.167 0.55718 0.67278 0.0
C2495 C 0.22144 0.48554 0.6008 0.0
H2496 H 0.27674 0.56309 0.68423 0.0
H2497 H 0.24027 0.48478 0.72495 0.0
H2498 H 0.24046 0.55437 0.61018 0.0
H2499 H 0.22377 0.58109 0.63545 0.0
H2500 H 0.26378 0.57798 0.63349 0.0
H2501 H 0.20023 0.45885 0.70302 0.0
H2502 H 0.17362 0.48586 0.68943 0.0
H2503 H 0.19353 0.46342 0.6623 0.0
H2504 H 0.12583 0.55424 0.6277 0.0
H2505 H 0.17004 0.49159 0.56851 0.0
H2506 H 0.18557 0.57326 0.67417 0.0
H2507 H 0.16916 0.54204 0.6928 0.0
H2508 H 0.14559 0.56951 0.67488 0.0
H2509 H 0.24152 0.49969 0.59885 0.0
H2510 H 0.2183 0.47348 0.57871 0.0
H2511 H 0.2259 0.46914 0.61926 0.0
C2512 C 0.44438 0.22498 0.67669 0.0
C2513 C 0.47024 0.2357 0.69081 0.0
C2514 C 0.44619 0.20552 0.65147 0.0
C2515 C 0.47457 0.19612 0.64088 0.0
C2516 C 0.50063 0.2094 0.6531 0.0
C2517 C 0.49808 0.22921 0.67793 0.0
C2518 C 0.41789 0.19287 0.6382 0.0
C2519 C 0.53135 0.20029 0.64229 0.0
C2520 C 0.48755 0.11588 0.61893 0.0
C2521 C 0.49375 0.11831 0.58751 0.0
C2522 C 0.47959 0.14095 0.63626 0.0
C2523 C 0.47742 0.16896 0.62156 0.0
C2524 C 0.48118 0.17092 0.58922 0.0
C2525 C 0.48988 0.14556 0.57262 0.0
C2526 C 0.47599 0.1378 0.67071 0.0
C2527 C 0.47822 0.20002 0.57241 0.0
H2528 H 0.42292 0.22999 0.687 0.0
H2529 H 0.51797 0.23735 0.68926 0.0
H2530 H 0.41939 0.19122 0.61271 0.0
H2531 H 0.41452 0.17017 0.64731 0.0
H2532 H 0.39809 0.20653 0.64438 0.0
H2533 H 0.54895 0.21516 0.65139 0.0
H2534 H 0.53619 0.17738 0.6502 0.0
H2535 H 0.5325 0.2003 0.61677 0.0
H2536 H 0.49121 0.09482 0.63038 0.0
H2537 H 0.4952 0.14736 0.5483 0.0
H2538 H 0.45458 0.14783 0.67832 0.0
H2539 H 0.49423 0.14979 0.6826 0.0
H2540 H 0.47655 0.11427 0.67822 0.0
H2541 H 0.46017 0.21391 0.58242 0.0
H2542 H 0.47362 0.19656 0.5475 0.0
H2543 H 0.49941 0.21245 0.57447 0.0
C2544 C 0.78731 0.52965 0.30273 0.0
C2545 C 0.76655 0.50731 0.30858 0.0
C2546 C 0.80843 0.53755 0.32504 0.0
C2547 C 0.80755 0.52386 0.35439 0.0
C2548 C 0.78433 0.50384 0.36147 0.0
C2549 C 0.76438 0.49541 0.33824 0.0
C2550 C 0.83348 0.55801 0.31599 0.0
C2551 C 0.78204 0.48943 0.39274 0.0
C2552 C 0.88125 0.50655 0.39271 0.0
C2553 C 0.88392 0.52974 0.41401 0.0
C2554 C 0.85665 0.50472 0.37308 0.0
C2555 C 0.83361 0.52617 0.37532 0.0
C2556 C 0.83581 0.5494 0.39717 0.0
C2557 C 0.86125 0.55119 0.41603 0.0
C2558 C 0.85543 0.47979 0.34986 0.0
C2559 C 0.81122 0.57209 0.40074 0.0
H2560 H 0.78829 0.53949 0.28 0.0
H2561 H 0.7482 0.4782 0.34272 0.0
H2562 H 0.83794 0.57441 0.33444 0.0
H2563 H 0.85417 0.54477 0.31261 0.0
H2564 H 0.82861 0.57002 0.29421 0.0
H2565 H 0.75968 0.47958 0.39655 0.0
H2566 H 0.79895 0.47149 0.3946 0.0
H2567 H 0.78652 0.50569 0.41135 0.0
H2568 H 0.89881 0.49003 0.39087 0.0
H2569 H 0.86321 0.56904 0.43263 0.0
H2570 H 0.84929 0.48847 0.32684 0.0
H2571 H 0.83804 0.46371 0.35673 0.0
H2572 H 0.87703 0.46775 0.34789 0.0
H2573 H 0.80817 0.58442 0.37887 0.0
H2574 H 0.8159 0.5882 0.41946 0.0
H2575 H 0.78984 0.56081 0.40581 0.0
C2576 C 0.53715 0.80132 0.3461 0.0
C2577 C 0.55897 0.80876 0.32438 0.0
C2578 C 0.53123 0.82001 0.37132 0.0
C2579 C 0.5463 0.84741 0.3737 0.0
C2580 C 0.57002 0.85375 0.35325 0.0
C2581 C 0.57673 0.83374 0.32949 0.0
C2582 C 0.50751 0.81137 0.39422 0.0
C2583 C 0.58685 0.88259 0.35507 0.0
C2584 C 0.49983 0.91108 0.40509 0.0
C2585 C 0.51277 0.91601 0.43408 0.0
C2586 C 0.51074 0.88897 0.3853 0.0
C2587 C 0.53492 0.87087 0.39486 0.0
C2588 C 0.54823 0.87583 0.42398 0.0
C2589 C 0.53692 0.89828 0.44329 0.0
C2590 C 0.49675 0.88546 0.35381 0.0
C2591 C 0.57407 0.85742 0.4354 0.0
H2592 H 0.52342 0.78198 0.34228 0.0
H2593 H 0.59418 0.83891 0.31311 0.0
H2594 H 0.51484 0.8166 0.41805 0.0
H2595 H 0.48681 0.82419 0.38966 0.0
H2596 H 0.50218 0.7874 0.39277 0.0
H2597 H 0.60355 0.8848 0.33629 0.0
H2598 H 0.57104 0.90156 0.35368 0.0
H2599 H 0.59855 0.88414 0.37753 0.0
H2600 H 0.48131 0.9248 0.39756 0.0
H2601 H 0.54697 0.90184 0.46565 0.0
H2602 H 0.48616 0.86339 0.3519 0.0
H2603 H 0.51417 0.88675 0.33568 0.0
H2604 H 0.47953 0.90265 0.34911 0.0
H2605 H 0.56551 0.8407 0.45186 0.0
H2606 H 0.59016 0.87171 0.4478 0.0
H2607 H 0.5862 0.84556 0.41683 0.0
C2608 C 0.21885 0.51371 0.26398 0.0
C2609 C 0.24172 0.52995 0.27799 0.0
C2610 C 0.19208 0.508 0.2797 0.0
C2611 C 0.18869 0.51775 0.31053 0.0
C2612 C 0.21285 0.53175 0.3256 0.0
C2613 C 0.23886 0.53815 0.30895 0.0
C2614 C 0.1669 0.49323 0.26263 0.0
C2615 C 0.21083 0.54103 0.35899 0.0
C2616 C 0.11458 0.53778 0.34776 0.0
C2617 C 0.10934 0.5128 0.36611 0.0
C2618 C 0.13928 0.53881 0.32779 0.0
C2619 C 0.15962 0.51465 0.32684 0.0
C2620 C 0.1534 0.4887 0.34381 0.0
C2621 C 0.12811 0.48792 0.3628 0.0
C2622 C 0.1445 0.56637 0.30891 0.0
C2623 C 0.17461 0.46258 0.34388 0.0
H2624 H 0.22138 0.50654 0.2403 0.0
H2625 H 0.25664 0.55059 0.31975 0.0
H2626 H 0.15517 0.47699 0.2774 0.0
H2627 H 0.15036 0.51037 0.25579 0.0
H2628 H 0.17492 0.48169 0.24156 0.0
H2629 H 0.23264 0.54858 0.36816 0.0
H2630 H 0.19445 0.55939 0.36144 0.0
H2631 H 0.20284 0.52233 0.37333 0.0
H2632 H 0.10009 0.55697 0.34988 0.0
H2633 H 0.12434 0.46837 0.37672 0.0
H2634 H 0.14958 0.56036 0.28464 0.0
H2635 H 0.16407 0.57843 0.31812 0.0
H2636 H 0.12493 0.58156 0.30927 0.0
H2637 H 0.18132 0.45655 0.32008 0.0
H2638 H 0.16474 0.44279 0.35508 0.0
H2639 H 0.19518 0.46865 0.35657 0.0
C2640 C 0.47812 0.20565 0.29374 0.0
C2641 C 0.49891 0.2283 0.28932 0.0
C2642 C 0.48103 0.18536 0.31802 0.0
C2643 C 0.50498 0.18815 0.3391 0.0
C2644 C 0.52607 0.21109 0.3349 0.0
C2645 C 0.523 0.23069 0.30979 0.0
C2646 C 0.45825 0.161 0.32119 0.0
C2647 C 0.5517 0.215 0.35702 0.0
C2648 C 0.48482 0.15208 0.41497 0.0
C2649 C 0.49816 0.1241 0.41196 0.0
C2650 C 0.48921 0.17417 0.39272 0.0
C2651 C 0.50659 0.1678 0.36623 0.0
C2652 C 0.52178 0.14018 0.36414 0.0
C2653 C 0.51759 0.11871 0.38727 0.0
C2654 C 0.47335 0.20354 0.3965 0.0
C2655 C 0.54024 0.13214 0.33623 0.0
H2656 H 0.45945 0.20387 0.27802 0.0
H2657 H 0.53957 0.24764 0.30598 0.0
H2658 H 0.4696 0.13913 0.32235 0.0
H2659 H 0.44555 0.16396 0.34293 0.0
H2660 H 0.4422 0.1607 0.30169 0.0
H2661 H 0.56615 0.23395 0.35064 0.0
H2662 H 0.54302 0.21869 0.38068 0.0
H2663 H 0.56553 0.19456 0.35765 0.0
H2664 H 0.46984 0.15627 0.43415 0.0
H2665 H 0.52761 0.09693 0.38471 0.0
H2666 H 0.45427 0.20472 0.38027 0.0
H2667 H 0.48855 0.2221 0.39093 0.0
H2668 H 0.46468 0.20669 0.42028 0.0
H2669 H 0.52515 0.12537 0.31725 0.0
H2670 H 0.55572 0.11343 0.34112 0.0
H2671 H 0.55338 0.15131 0.328 0.0
C2672 C 0.70686 0.82266 0.46691 0.0
C2673 C 0.72131 0.80845 0.49131 0.0
C2674 C 0.68333 0.8426 0.47238 0.0
C2675 C 0.67411 0.84839 0.5031 0.0
C2676 C 0.68648 0.83146 0.52749 0.0
C2677 C 0.71015 0.81173 0.52127 0.0
C2678 C 0.67053 0.85973 0.44556 0.0
C2679 C 0.67687 0.83621 0.56045 0.0
C2680 C 0.65525 0.92974 0.51162 0.0
C2681 C 0.62438 0.92992 0.50646 0.0
C2682 C 0.67141 0.90307 0.51295 0.0
C2683 C 0.65629 0.87577 0.50954 0.0
C2684 C 0.62477 0.87567 0.50776 0.0
C2685 C 0.60915 0.90281 0.50591 0.0
C2686 C 0.70499 0.9043 0.51559 0.0
C2687 C 0.60776 0.84695 0.50651 0.0
H2688 H 0.7158 0.82011 0.44384 0.0
H2689 H 0.72162 0.80078 0.5401 0.0
H2690 H 0.64582 0.85969 0.44649 0.0
H2691 H 0.67791 0.88314 0.44691 0.0
H2692 H 0.67776 0.85046 0.42301 0.0
H2693 H 0.68339 0.81722 0.5753 0.0
H2694 H 0.68767 0.85643 0.56964 0.0
H2695 H 0.65241 0.83954 0.56207 0.0
H2696 H 0.66721 0.95053 0.51262 0.0
H2697 H 0.58516 0.9028 0.50314 0.0
H2698 H 0.71521 0.89721 0.49345 0.0
H2699 H 0.713 0.88887 0.53369 0.0
H2700 H 0.71303 0.92691 0.52116 0.0
H2701 H 0.61435 0.83416 0.48571 0.0
H2702 H 0.58324 0.85061 0.50619 0.0
H2703 H 0.61341 0.83308 0.52677 0.0
C2704 C 0.69837 0.22695 0.52315 0.0
C2705 C 0.71871 0.2203 0.49961 0.0
C2706 C 0.67198 0.21039 0.5265 0.0
C2707 C 0.66641 0.1864 0.50619 0.0
C2708 C 0.68647 0.18057 0.48166 0.0
C2709 C 0.71202 0.19793 0.47843 0.0
C2710 C 0.65066 0.2179 0.55228 0.0
C2711 C 0.68165 0.1552 0.45947 0.0
C2712 C 0.62064 0.11803 0.52359 0.0
C2713 C 0.59684 0.12212 0.50316 0.0
C2714 C 0.64245 0.14014 0.52708 0.0
C2715 C 0.63994 0.16691 0.51009 0.0
C2716 C 0.61416 0.17222 0.49212 0.0
C2717 C 0.59307 0.14967 0.48869 0.0
C2718 C 0.66963 0.13367 0.54647 0.0
C2719 C 0.61026 0.20052 0.47402 0.0
H2720 H 0.70371 0.24424 0.53956 0.0
H2721 H 0.72776 0.19315 0.46009 0.0
H2722 H 0.62741 0.21888 0.54356 0.0
H2723 H 0.65159 0.2003 0.57007 0.0
H2724 H 0.65611 0.2394 0.56336 0.0
H2725 H 0.69963 0.15352 0.44191 0.0
H2726 H 0.68072 0.13398 0.47232 0.0
H2727 H 0.66003 0.158 0.44737 0.0
H2728 H 0.62365 0.0967 0.53464 0.0
H2729 H 0.57447 0.15296 0.47306 0.0
H2730 H 0.67444 0.1526 0.56197 0.0
H2731 H 0.6893 0.13057 0.53124 0.0
H2732 H 0.66689 0.11339 0.5606 0.0
H2733 H 0.61667 0.22001 0.48808 0.0
H2734 H 0.58692 0.20352 0.46597 0.0
H2735 H 0.62504 0.19994 0.45349 0.0
C2736 C 0.8088 0.72362 0.51697 0.0
C2737 C 0.81138 0.7433 0.49222 0.0
C2738 C 0.8284 0.69935 0.51995 0.0
C2739 C 0.85176 0.69533 0.49824 0.0
C2740 C 0.85409 0.71497 0.47297 0.0
C2741 C 0.83348 0.73833 0.46998 0.0
C2742 C 0.82412 0.67801 0.54631 0.0
C2743 C 0.87853 0.71154 0.44929 0.0
C2744 C 0.91806 0.6525 0.53001 0.0
C2745 C 0.91453 0.62468 0.51625 0.0
C2746 C 0.89874 0.67608 0.52294 0.0
C2747 C 0.87435 0.67129 0.5028 0.0
C2748 C 0.87109 0.64326 0.48832 0.0
C2749 C 0.89171 0.62047 0.49471 0.0
C2750 C 0.90401 0.70592 0.53769 0.0
C2751 C 0.84557 0.63672 0.4667 0.0
H2752 H 0.79164 0.72741 0.53412 0.0
H2753 H 0.83453 0.75275 0.45014 0.0
H2754 H 0.8232 0.65496 0.53741 0.0
H2755 H 0.84336 0.6793 0.56231 0.0
H2756 H 0.80339 0.68269 0.55952 0.0
H2757 H 0.87869 0.73007 0.43245 0.0
H2758 H 0.9006 0.71046 0.46082 0.0
H2759 H 0.8755 0.69048 0.43652 0.0
H2760 H 0.93574 0.65564 0.54675 0.0
H2761 H 0.88883 0.59879 0.48435 0.0
H2762 H 0.88592 0.71088 0.5544 0.0
H2763 H 0.9036 0.72359 0.51992 0.0
H2764 H 0.92568 0.70681 0.55007 0.0
H2765 H 0.83957 0.61288 0.46742 0.0
H2766 H 0.85253 0.6419 0.44277 0.0
H2767 H 0.82536 0.65002 0.47213 0.0
C2768 C 0.29845 0.80908 0.48815 0.0
C2769 C 0.29006 0.79786 0.51689 0.0
C2770 C 0.32165 0.82979 0.48565 0.0
C2771 C 0.33736 0.83857 0.51246 0.0
C2772 C 0.32952 0.82628 0.5414 0.0
C2773 C 0.30563 0.80636 0.54328 0.0
C2774 C 0.32877 0.84291 0.45454 0.0
C2775 C 0.34605 0.83451 0.57045 0.0
C2776 C 0.41423 0.8736 0.50737 0.0
C2777 C 0.40774 0.9035 0.51339 0.0
C2778 C 0.39144 0.85237 0.50587 0.0
C2779 C 0.36143 0.8612 0.51061 0.0
C2780 C 0.35462 0.89153 0.51544 0.0
C2781 C 0.37783 0.91231 0.51668 0.0
C2782 C 0.39962 0.8203 0.50042 0.0
C2783 C 0.3229 0.90189 0.5205 0.0
H2784 H 0.28608 0.80238 0.46788 0.0
H2785 H 0.29889 0.79746 0.56539 0.0
H2786 H 0.32492 0.86721 0.45511 0.0
H2787 H 0.35264 0.83928 0.44889 0.0
H2788 H 0.31492 0.83325 0.43586 0.0
H2789 H 0.33821 0.82179 0.59078 0.0
H2790 H 0.37031 0.83042 0.56743 0.0
H2791 H 0.34305 0.85849 0.57525 0.0
H2792 H 0.43724 0.8666 0.5046 0.0
H2793 H 0.37254 0.93534 0.52133 0.0
H2794 H 0.38639 0.81115 0.48106 0.0
H2795 H 0.39419 0.80711 0.52123 0.0
H2796 H 0.4237 0.81732 0.49512 0.0
H2797 H 0.30832 0.89379 0.50167 0.0
H2798 H 0.32109 0.92642 0.52169 0.0
H2799 H 0.31425 0.89255 0.54237 0.0
C2800 C 0.22829 0.32924 0.49334 0.0
C2801 C 0.23363 0.31662 0.52219 0.0
C2802 C 0.21135 0.35533 0.49064 0.0
C2803 C 0.19972 0.36901 0.51756 0.0
C2804 C 0.20715 0.35751 0.54692 0.0
C2805 C 0.22387 0.33121 0.54884 0.0
C2806 C 0.20388 0.36684 0.4589 0.0
C2807 C 0.1955 0.37155 0.57616 0.0
C2808 C 0.16388 0.44439 0.50485 0.0
C2809 C 0.13415 0.43643 0.4992 0.0
C2810 C 0.18539 0.42287 0.51239 0.0
C2811 C 0.17685 0.39281 0.51454 0.0
C2812 C 0.14646 0.38502 0.5111 0.0
C2813 C 0.1255 0.40692 0.50337 0.0
C2814 C 0.21746 0.43209 0.51636 0.0
C2815 C 0.1363 0.35327 0.51395 0.0
H2816 H 0.2355 0.31744 0.47285 0.0
H2817 H 0.2278 0.32095 0.57106 0.0
H2818 H 0.17985 0.36321 0.45415 0.0
H2819 H 0.20795 0.39102 0.45757 0.0
H2820 H 0.2171 0.35558 0.44061 0.0
H2821 H 0.20761 0.36336 0.59683 0.0
H2822 H 0.19738 0.39602 0.57519 0.0
H2823 H 0.17152 0.36617 0.57889 0.0
H2824 H 0.17069 0.46722 0.50198 0.0
H2825 H 0.10246 0.4007 0.49957 0.0
H2826 H 0.23075 0.4241 0.4964 0.0
H2827 H 0.22715 0.42192 0.53738 0.0
H2828 H 0.2198 0.45654 0.51795 0.0
H2829 H 0.14572 0.33998 0.49471 0.0
H2830 H 0.11161 0.35133 0.5134 0.0
H2831 H 0.14458 0.34342 0.53576 0.0
C2832 C 0.29716 0.20917 0.48625 0.0
C2833 C 0.2925 0.22339 0.51451 0.0
C2834 C 0.3191 0.18701 0.48317 0.0
C2835 C 0.33779 0.18024 0.50855 0.0
C2836 C 0.33461 0.19644 0.5364 0.0
C2837 C 0.31159 0.21749 0.53919 0.0
C2838 C 0.32132 0.16995 0.45332 0.0
C2839 C 0.35489 0.19088 0.56358 0.0
C2840 C 0.37016 0.1036 0.52179 0.0
C2841 C 0.39978 0.10726 0.51254 0.0
C2842 C 0.34934 0.1267 0.51875 0.0
C2843 C 0.35872 0.15449 0.5072 0.0
C2844 C 0.38851 0.15794 0.4968 0.0
C2845 C 0.4087 0.13409 0.49938 0.0
C2846 C 0.31765 0.12179 0.52934 0.0
C2847 C 0.39967 0.18731 0.48502 0.0
H2848 H 0.28301 0.21482 0.46689 0.0
H2849 H 0.3082 0.22922 0.56073 0.0
H2850 H 0.34456 0.17012 0.44457 0.0
H2851 H 0.31527 0.14647 0.45744 0.0
H2852 H 0.30633 0.17907 0.43525 0.0
H2853 H 0.35179 0.20767 0.58207 0.0
H2854 H 0.35034 0.16867 0.57338 0.0
H2855 H 0.37858 0.19108 0.55614 0.0
H2856 H 0.3635 0.08286 0.53228 0.0
H2857 H 0.43186 0.13698 0.49286 0.0
H2858 H 0.30167 0.12952 0.51151 0.0
H2859 H 0.31331 0.13487 0.55055 0.0
H2860 H 0.31315 0.0981 0.53439 0.0
H2861 H 0.38347 0.19747 0.46883 0.0
H2862 H 0.42158 0.18507 0.47322 0.0
H2863 H 0.40228 0.20278 0.50473 0.0
C2864 C 0.79844 0.31307 0.51409 0.0
C2865 C 0.80445 0.2905 0.49273 0.0
C2866 C 0.81649 0.33831 0.51602 0.0
C2867 C 0.84207 0.34055 0.49702 0.0
C2868 C 0.8483 0.31789 0.47529 0.0
C2869 C 0.82904 0.29346 0.47296 0.0
C2870 C 0.80849 0.3623 0.53891 0.0
C2871 C 0.87571 0.31904 0.45513 0.0
C2872 C 0.87485 0.41787 0.4906 0.0
C2873 C 0.89577 0.41776 0.51467 0.0
C2874 C 0.85811 0.39248 0.4836 0.0
C2875 C 0.86259 0.36623 0.50088 0.0
C2876 C 0.88492 0.36548 0.52397 0.0
C2877 C 0.90111 0.39127 0.5307 0.0
C2878 C 0.83447 0.39432 0.4589 0.0
C2879 C 0.89087 0.33778 0.54251 0.0
H2880 H 0.77988 0.31068 0.52985 0.0
H2881 H 0.83344 0.27652 0.45586 0.0
H2882 H 0.82589 0.36358 0.55701 0.0
H2883 H 0.80762 0.38416 0.52724 0.0
H2884 H 0.78663 0.35831 0.55019 0.0
H2885 H 0.87708 0.29995 0.43899 0.0
H2886 H 0.8759 0.33985 0.44158 0.0
H2887 H 0.896 0.31902 0.46979 0.0
H2888 H 0.87067 0.43814 0.47792 0.0
H2889 H 0.91746 0.39084 0.54909 0.0
H2890 H 0.81208 0.39325 0.46974 0.0
H2891 H 0.83636 0.37528 0.44283 0.0
H2892 H 0.83592 0.41517 0.44539 0.0
H2893 H 0.87155 0.33328 0.55776 0.0
H2894 H 0.91115 0.33976 0.55707 0.0
H2895 H 0.89357 0.31838 0.527 0.0
C2896 C 0.22041 0.69196 0.54476 0.0
C2897 C 0.2239 0.70969 0.51861 0.0
C2898 C 0.20187 0.66694 0.54412 0.0
C2899 C 0.18598 0.66012 0.51682 0.0
C2900 C 0.191 0.67706 0.4898 0.0
C2901 C 0.21004 0.70163 0.49104 0.0
C2902 C 0.19778 0.64908 0.57317 0.0
C2903 C 0.17456 0.67064 0.46019 0.0
C2904 C 0.14401 0.58888 0.50125 0.0
C2905 C 0.11449 0.59792 0.50644 0.0
C2906 C 0.1679 0.60814 0.50687 0.0
C2907 C 0.16194 0.63739 0.51702 0.0
C2908 C 0.1322 0.64594 0.52408 0.0
C2909 C 0.10878 0.62596 0.51885 0.0
C2910 C 0.19925 0.59784 0.4998 0.0
C2911 C 0.12483 0.67698 0.53476 0.0
H2912 H 0.23089 0.69872 0.56612 0.0
H2913 H 0.21247 0.71588 0.47113 0.0
H2914 H 0.17574 0.65436 0.58348 0.0
H2915 H 0.19817 0.625 0.56799 0.0
H2916 H 0.21532 0.65396 0.5905 0.0
H2917 H 0.18262 0.68446 0.44074 0.0
H2918 H 0.17711 0.64697 0.4538 0.0
H2919 H 0.15038 0.67502 0.46348 0.0
H2920 H 0.14827 0.56722 0.49127 0.0
H2921 H 0.08586 0.63304 0.52224 0.0
H2922 H 0.21493 0.60517 0.51802 0.0
H2923 H 0.2067 0.60778 0.47775 0.0
H2924 H 0.20067 0.57335 0.49763 0.0
H2925 H 0.13921 0.68329 0.55447 0.0
H2926 H 0.10111 0.67933 0.54181 0.0
H2927 H 0.12929 0.69285 0.51581 0.0
loop_
_geom_bond_atom_site_label_1
_geom_bond_atom_site_label_2
_geom_bond_distance
_geom_bond_site_symmetry_2
_ccdc_geom_bond_type
C0 N1 1.317 . S
C0 N2 1.348 . S
C0 C3 1.485 . S
N1 C0 1.317 . S
N1 N5 1.370 . S
N2 C0 1.348 . S
N2 C4 1.346 . S
C3 C0 1.485 . S
C3 H7 0.960 . S
C3 H8 0.961 . S
C3 H9 0.960 . S
C4 N2 1.346 . S
C4 N5 1.307 . S
C4 C6 1.486 . S
N5 N1 1.370 . S
N5 C4 1.307 . S
C6 C4 1.486 . S
C6 H10 0.960 . S
C6 H11 0.960 . S
C6 H12 0.959 . S
H7 C3 0.960 . S
H8 C3 0.961 . S
H9 C3 0.960 . S
H10 C6 0.960 . S
H11 C6 0.960 . S
H12 C6 0.959 . S
C13 N14 1.317 . S
C13 N15 1.348 . S
C13 C16 1.485 . S
N14 C13 1.317 . S
N14 N18 1.370 . S
N15 C13 1.348 . S
N15 C17 1.346 . S
C16 C13 1.485 . S
C16 H20 0.960 . S
C16 H21 0.961 . S
C16 H22 0.960 . S
C17 N15 1.346 . S
C17 N18 1.307 . S
C17 C19 1.486 . S
N18 N14 1.370 . S
N18 C17 1.307 . S
C19 C17 1.486 . S
C19 H23 0.960 . S
C19 H24 0.960 . S
C19 H25 0.959 . S
H20 C16 0.960 . S
H21 C16 0.961 . S
H22 C16 0.960 . S
H23 C19 0.960 . S
H24 C19 0.960 . S
H25 C19 0.959 . S
C26 N27 1.317 . S
C26 N28 1.348 . S
C26 C29 1.485 . S
N27 C26 1.317 . S
N27 N31 1.370 . S
N28 C26 1.348 . S
N28 C30 1.346 . S
C29 C26 1.485 . S
C29 H33 0.960 . S
C29 H34 0.961 . S
C29 H35 0.960 . S
C30 N28 1.346 . S
C30 N31 1.307 . S
C30 C32 1.486 . S
N31 N27 1.370 . S
N31 C30 1.307 . S
C32 C30 1.486 . S
C32 H36 0.960 . S
C32 H37 0.960 . S
C32 H38 0.959 . S
H33 C29 0.960 . S
H34 C29 0.961 . S
H35 C29 0.960 . S
H36 C32 0.960 . S
H37 C32 0.960 . S
H38 C32 0.959 . S
C39 N40 1.317 . S
C39 N41 1.347 1_565 S
C39 C42 1.487 . S
N40 C39 1.317 . S
N40 N44 1.370 1_565 S
N41 C39 1.347 1_545 S
N41 C43 1.347 . S
C42 C39 1.487 . S
C42 H46 0.960 1_565 S
C42 H47 0.961 . S
C42 H48 0.960 . S
C43 N41 1.347 . S
C43 N44 1.307 . S
C43 C45 1.486 . S
N44 N40 1.370 1_545 S
N44 C43 1.307 . S
C45 C43 1.486 . S
C45 H49 0.960 1_545 S
C45 H50 0.960 . S
C45 H51 0.959 . S
H46 C42 0.960 1_545 S
H47 C42 0.961 . S
H48 C42 0.960 . S
H49 C45 0.960 1_565 S
H50 C45 0.960 . S
H51 C45 0.959 . S
C52 N53 1.317 . S
C52 N54 1.348 . S
C52 C55 1.485 . S
N53 C52 1.317 . S
N53 N57 1.371 . S
N54 C52 1.348 . S
N54 C56 1.347 . S
C55 C52 1.485 . S
C55 H59 0.960 1_455 S
C55 H60 0.961 . S
C55 H61 0.960 . S
C56 N54 1.347 . S
C56 N57 1.307 . S
C56 C58 1.486 . S
N57 N53 1.371 . S
N57 C56 1.307 . S
C58 C56 1.486 . S
C58 H62 0.967 . S
C58 H63 0.954 1_455 S
C58 H64 0.957 1_455 S
H59 C55 0.960 1_655 S
H60 C55 0.961 . S
H61 C55 0.960 . S
H62 C58 0.967 . S
H63 C58 0.954 1_655 S
H64 C58 0.957 1_655 S
C65 N66 1.317 . S
C65 N67 1.348 . S
C65 C68 1.485 . S
N66 C65 1.317 . S
N66 N70 1.370 . S
N67 C65 1.348 . S
N67 C69 1.346 . S
C68 C65 1.485 . S
C68 H72 0.960 1_545 S
C68 H73 0.961 . S
C68 H74 0.960 . S
C69 N67 1.346 . S
C69 N70 1.307 . S
C69 C71 1.486 . S
N70 N66 1.370 . S
N70 C69 1.307 . S
C71 C69 1.486 . S
C71 H75 0.960 . S
C71 H76 0.960 1_545 S
C71 H77 0.959 1_545 S
H72 C68 0.960 1_565 S
H73 C68 0.961 . S
H74 C68 0.960 . S
H75 C71 0.960 . S
H76 C71 0.960 1_565 S
H77 C71 0.959 1_565 S
C78 N79 1.317 . S
C78 N80 1.348 . S
C78 C81 1.485 . S
N79 C78 1.317 . S
N79 N83 1.370 . S
N80 C78 1.348 . S
N80 C82 1.346 . S
C81 C78 1.485 . S
C81 H85 0.960 . S
C81 H86 0.961 . S
C81 H87 0.960 . S
C82 N80 1.346 . S
C82 N83 1.307 . S
C82 C84 1.486 . S
N83 N79 1.370 . S
N83 C82 1.307 . S
C84 C82 1.486 . S
C84 H88 0.960 . S
C84 H89 0.960 . S
C84 H90 0.959 . S
H85 C81 0.960 . S
H86 C81 0.961 . S
H87 C81 0.960 . S
H88 C84 0.960 . S
H89 C84 0.960 . S
H90 C84 0.959 . S
C91 N92 1.317 . S
C91 N93 1.348 . S
C91 C94 1.485 . S
N92 C91 1.317 . S
N92 N96 1.370 . S
N93 C91 1.348 . S
N93 C95 1.346 . S
C94 C91 1.485 . S
C94 H98 0.960 . S
C94 H99 0.961 . S
C94 H100 0.960 . S
C95 N93 1.346 . S
C95 N96 1.307 . S
C95 C97 1.486 . S
N96 N92 1.370 . S
N96 C95 1.307 . S
C97 C95 1.486 . S
C97 H101 0.960 . S
C97 H102 0.960 . S
C97 H103 0.959 . S
H98 C94 0.960 . S
H99 C94 0.961 . S
H100 C94 0.960 . S
H101 C97 0.960 . S
H102 C97 0.960 . S
H103 C97 0.959 . S
C104 N105 1.317 . S
C104 N106 1.348 . S
C104 C107 1.485 . S
N105 C104 1.317 . S
N105 N109 1.370 . S
N106 C104 1.348 . S
N106 C108 1.346 . S
C107 C104 1.485 . S
C107 H111 0.993 . S
C107 H112 0.961 . S
C107 H113 0.960 . S
C108 N106 1.346 . S
C108 N109 1.307 . S
C108 C110 1.486 . S
N109 N105 1.370 . S
N109 C108 1.307 . S
C110 C108 1.486 . S
C110 H114 0.960 . S
C110 H115 0.979 . S
C110 H116 0.959 . S
H111 C107 0.993 . S
H112 C107 0.961 . S
H113 C107 0.960 . S
H114 C110 0.960 . S
H115 C110 0.979 . S
H116 C110 0.959 . S
C117 N118 1.317 . S
C117 N119 1.348 . S
C117 C120 1.485 . S
N118 C117 1.317 . S
N118 N122 1.370 . S
N119 C117 1.348 . S
N119 C121 1.346 . S
C120 C117 1.485 . S
C120 H124 0.960 . S
C120 H125 0.961 1_554 S
C120 H126 0.960 . S
C121 N119 1.346 . S
C121 N122 1.307 . S
C121 C123 1.486 . S
N122 N118 1.370 . S
N122 C121 1.307 . S
C123 C121 1.486 . S
C123 H127 0.960 1_554 S
C123 H128 0.960 . S
C123 H129 0.959 . S
H124 C120 0.960 . S
H125 C120 0.961 1_556 S
H126 C120 0.960 . S
H127 C123 0.960 1_556 S
H128 C123 0.960 . S
H129 C123 0.959 . S
C130 N131 1.317 . S
C130 N132 1.350 . S
C130 C133 1.485 . S
N131 C130 1.317 . S
N131 N135 1.371 . S
N132 C130 1.350 . S
N132 C134 1.345 1_556 S
C133 C130 1.485 . S
C133 H137 0.960 1_556 S
C133 H138 0.961 . S
C133 H139 0.960 . S
C134 N132 1.345 1_554 S
C134 N135 1.307 1_554 S
C134 C136 1.486 . S
N135 N131 1.371 . S
N135 C134 1.307 1_556 S
C136 C134 1.486 . S
C136 H140 0.960 1_554 S
C136 H141 0.960 . S
C136 H142 0.959 . S
H137 C133 0.960 1_554 S
H138 C133 0.961 . S
H139 C133 0.960 . S
H140 C136 0.960 1_556 S
H141 C136 0.960 . S
H142 C136 0.959 . S
C143 N144 1.317 . S
C143 N145 1.348 . S
C143 C146 1.485 . S
N144 C143 1.317 . S
N144 N148 1.370 . S
N145 C143 1.348 . S
N145 C147 1.346 . S
C146 C143 1.485 . S
C146 H150 0.960 1_554 S
C146 H151 0.961 . S
C146 H152 0.960 . S
C147 N145 1.346 . S
C147 N148 1.307 . S
C147 C149 1.486 . S
N148 N144 1.370 . S
N148 C147 1.307 . S
C149 C147 1.486 . S
C149 H153 0.960 . S
C149 H154 0.960 1_554 S
C149 H155 0.959 1_554 S
H150 C146 0.960 1_556 S
H151 C146 0.961 . S
H152 C146 0.960 . S
H153 C149 0.960 . S
H154 C149 0.960 1_556 S
H155 C149 0.959 1_556 S
C156 N157 1.317 . S
C156 N158 1.348 . S
C156 C159 1.485 . S
N157 C156 1.317 . S
N157 N161 1.370 . S
N158 C156 1.348 . S
N158 C160 1.346 . S
C159 C156 1.485 . S
C159 H163 0.960 . S
C159 H164 0.961 . S
C159 H165 0.960 . S
C160 N158 1.346 . S
C160 N161 1.307 . S
C160 C162 1.486 . S
N161 N157 1.370 . S
N161 C160 1.307 . S
C162 C160 1.486 . S
C162 H166 0.960 . S
C162 H167 0.960 . S
C162 H168 0.959 . S
H163 C159 0.960 . S
H164 C159 0.961 . S
H165 C159 0.960 . S
H166 C162 0.960 . S
H167 C162 0.960 . S
H168 C162 0.959 . S
C169 N170 1.317 . S
C169 N171 1.348 . S
C169 C172 1.485 . S
N170 C169 1.317 . S
N170 N174 1.370 . S
N171 C169 1.348 . S
N171 C173 1.346 . S
C172 C169 1.485 . S
C172 H176 0.960 . S
C172 H177 0.961 . S
C172 H178 0.960 . S
C173 N171 1.346 . S
C173 N174 1.307 . S
C173 C175 1.486 . S
N174 N170 1.370 . S
N174 C173 1.307 . S
C175 C173 1.486 . S
C175 H179 0.960 . S
C175 H180 0.960 . S
C175 H181 0.959 . S
H176 C172 0.960 . S
H177 C172 0.961 . S
H178 C172 0.960 . S
H179 C175 0.960 . S
H180 C175 0.960 . S
H181 C175 0.959 . S
C182 N183 1.317 . S
C182 N184 1.348 . S
C182 C185 1.485 . S
N183 C182 1.317 . S
N183 N187 1.370 . S
N184 C182 1.348 . S
N184 C186 1.346 . S
C185 C182 1.485 . S
C185 H189 0.960 . S
C185 H190 0.961 . S
C185 H191 0.960 . S
C186 N184 1.346 . S
C186 N187 1.307 . S
C186 C188 1.486 . S
N187 N183 1.370 . S
N187 C186 1.307 . S
C188 C186 1.486 . S
C188 H192 0.960 . S
C188 H193 0.960 . S
C188 H194 0.959 . S
H189 C185 0.960 . S
H190 C185 0.961 . S
H191 C185 0.960 . S
H192 C188 0.960 . S
H193 C188 0.960 . S
H194 C188 0.959 . S
C195 N196 1.317 . S
C195 N197 1.348 . S
C195 C198 1.485 . S
N196 C195 1.317 . S
N196 N200 1.370 . S
N197 C195 1.348 . S
N197 C199 1.346 . S
C198 C195 1.485 . S
C198 H202 0.960 . S
C198 H203 0.961 . S
C198 H204 0.960 . S
C199 N197 1.346 . S
C199 N200 1.307 . S
C199 C201 1.486 . S
N200 N196 1.370 . S
N200 C199 1.307 . S
C201 C199 1.486 . S
C201 H205 0.960 . S
C201 H206 0.960 . S
C201 H207 0.959 . S
H202 C198 0.960 . S
H203 C198 0.961 . S
H204 C198 0.960 . S
H205 C201 0.960 . S
H206 C201 0.960 . S
H207 C201 0.959 . S
C208 N209 1.317 . S
C208 N210 1.348 . S
C208 C211 1.485 . S
N209 C208 1.317 . S
N209 N213 1.370 . S
N210 C208 1.348 . S
N210 C212 1.346 . S
C211 C208 1.485 . S
C211 H215 0.960 . S
C211 H216 0.961 . S
C211 H217 0.960 . S
C212 N210 1.346 . S
C212 N213 1.307 . S
C212 C214 1.486 . S
N213 N209 1.370 . S
N213 C212 1.307 . S
C214 C212 1.486 . S
C214 H218 0.960 . S
C214 H219 0.960 . S
C214 H220 0.959 . S
H215 C211 0.960 . S
H216 C211 0.961 . S
H217 C211 0.960 . S
H218 C214 0.960 . S
H219 C214 0.960 . S
H220 C214 0.959 . S
C221 N222 1.317 . S
C221 N223 1.348 . S
C221 C224 1.485 . S
N222 C221 1.317 . S
N222 N226 1.370 . S
N223 C221 1.348 . S
N223 C225 1.346 . S
C224 C221 1.485 . S
C224 H228 0.960 . S
C224 H229 0.961 . S
C224 H230 0.960 . S
C225 N223 1.346 . S
C225 N226 1.307 . S
C225 C227 1.486 . S
N226 N222 1.370 . S
N226 C225 1.307 . S
C227 C225 1.486 . S
C227 H231 0.960 . S
C227 H232 0.960 . S
C227 H233 0.959 . S
H228 C224 0.960 . S
H229 C224 0.961 . S
H230 C224 0.960 . S
H231 C227 0.960 . S
H232 C227 0.960 . S
H233 C227 0.959 . S
C234 N235 1.317 . S
C234 N236 1.348 . S
C234 C237 1.485 . S
N235 C234 1.317 . S
N235 N239 1.370 . S
N236 C234 1.348 . S
N236 C238 1.346 . S
C237 C234 1.485 . S
C237 H241 0.960 . S
C237 H242 0.961 . S
C237 H243 0.960 . S
C238 N236 1.346 . S
C238 N239 1.307 . S
C238 C240 1.486 . S
N239 N235 1.370 . S
N239 C238 1.307 . S
C240 C238 1.486 . S
C240 H244 0.960 . S
C240 H245 0.960 . S
C240 H246 0.959 . S
H241 C237 0.960 . S
H242 C237 0.961 . S
H243 C237 0.960 . S
H244 C240 0.960 . S
H245 C240 0.960 . S
H246 C240 0.959 . S
C247 N248 1.317 . S
C247 N249 1.348 . S
C247 C250 1.485 . S
N248 C247 1.317 . S
N248 N252 1.370 . S
N249 C247 1.348 . S
N249 C251 1.346 . S
C250 C247 1.485 . S
C250 H254 0.960 . S
C250 H255 0.961 . S
C250 H256 0.960 . S
C251 N249 1.346 . S
C251 N252 1.307 . S
C251 C253 1.486 . S
N252 N248 1.370 . S
N252 C251 1.307 . S
C253 C251 1.486 . S
C253 H257 0.960 . S
C253 H258 0.960 . S
C253 H259 0.959 . S
H254 C250 0.960 . S
H255 C250 0.961 . S
H256 C250 0.960 . S
H257 C253 0.960 . S
H258 C253 0.960 . S
H259 C253 0.959 . S
C260 N261 1.317 . S
C260 N262 1.348 . S
C260 C263 1.485 . S
N261 C260 1.317 . S
N261 N265 1.370 . S
N262 C260 1.348 . S
N262 C264 1.346 . S
C263 C260 1.485 . S
C263 H267 0.960 . S
C263 H268 0.961 . S
C263 H269 0.960 . S
C264 N262 1.346 . S
C264 N265 1.307 . S
C264 C266 1.486 . S
N265 N261 1.370 . S
N265 C264 1.307 . S
C266 C264 1.486 . S
C266 H270 0.960 . S
C266 H271 0.960 . S
C266 H272 0.959 . S
H267 C263 0.960 . S
H268 C263 0.961 . S
H269 C263 0.960 . S
H270 C266 0.960 . S
H271 C266 0.960 . S
H272 C266 0.959 . S
C273 N274 1.317 . S
C273 N275 1.348 . S
C273 C276 1.485 . S
N274 C273 1.317 . S
N274 N278 1.370 . S
N275 C273 1.348 . S
N275 C277 1.346 . S
C276 C273 1.485 . S
C276 H280 0.960 . S
C276 H281 0.961 . S
C276 H282 0.960 . S
C277 N275 1.346 . S
C277 N278 1.307 . S
C277 C279 1.486 . S
N278 N274 1.370 . S
N278 C277 1.307 . S
C279 C277 1.486 . S
C279 H283 0.960 . S
C279 H284 0.960 . S
C279 H285 0.959 . S
H280 C276 0.960 . S
H281 C276 0.961 . S
H282 C276 0.960 . S
H283 C279 0.960 . S
H284 C279 0.960 . S
H285 C279 0.959 . S
C286 N287 1.317 . S
C286 N288 1.348 . S
C286 C289 1.485 . S
N287 C286 1.317 . S
N287 N291 1.370 . S
N288 C286 1.348 . S
N288 C290 1.346 . S
C289 C286 1.485 . S
C289 H293 0.960 . S
C289 H294 0.961 . S
C289 H295 0.960 . S
C290 N288 1.346 . S
C290 N291 1.307 . S
C290 C292 1.486 . S
N291 N287 1.370 . S
N291 C290 1.307 . S
C292 C290 1.486 . S
C292 H296 0.960 . S
C292 H297 0.960 . S
C292 H298 0.959 . S
H293 C289 0.960 . S
H294 C289 0.961 . S
H295 C289 0.960 . S
H296 C292 0.960 . S
H297 C292 0.960 . S
H298 C292 0.959 . S
C299 N300 1.317 . S
C299 N301 1.348 . S
C299 C302 1.485 . S
N300 C299 1.317 . S
N300 N304 1.370 . S
N301 C299 1.348 . S
N301 C303 1.346 . S
C302 C299 1.485 . S
C302 H306 0.960 . S
C302 H307 0.961 . S
C302 H308 0.960 . S
C303 N301 1.346 . S
C303 N304 1.307 . S
C303 C305 1.486 . S
N304 N300 1.370 . S
N304 C303 1.307 . S
C305 C303 1.486 . S
C305 H309 0.960 . S
C305 H310 0.960 . S
C305 H311 0.959 . S
H306 C302 0.960 . S
H307 C302 0.961 . S
H308 C302 0.960 . S
H309 C305 0.960 . S
H310 C305 0.960 . S
H311 C305 0.959 . S
Zn312 O314 1.933 1_665 S
Zn312 O332 1.985 . S
Zn312 O343 1.955 1_655 S
Zn313 O314 1.911 1_655 S
Zn313 O333 1.970 . S
Zn313 O349 1.945 1_655 S
Zn313 O356 1.981 . S
O314 Zn312 1.933 1_445 S
O314 Zn313 1.911 1_455 S
O314 H315 0.841 . S
H315 O314 0.841 . S
C316 O317 1.246 . S
C316 O345 1.276 . S
O317 C316 1.246 . S
Zn318 O320 1.911 . S
Zn318 O335 1.970 . S
Zn318 O352 1.945 . S
Zn318 O359 1.981 . S
Zn319 O320 1.933 1_565 S
Zn319 O334 1.985 . S
Zn319 O341 1.955 . S
O320 Zn318 1.911 . S
O320 Zn319 1.933 1_545 S
O320 H321 0.841 . S
H321 O320 0.841 . S
Zn322 O323 1.933 1_565 S
Zn322 O336 1.985 . S
Zn322 O345 1.955 . S
O323 Zn322 1.933 1_545 S
O323 Zn324 1.911 . S
O323 H325 0.841 . S
Zn324 O323 1.911 . S
Zn324 O337 1.970 . S
Zn324 O353 1.981 1_655 S
Zn324 O355 1.945 . S
H325 O323 0.841 . S
Zn326 O327 1.933 1_565 S
Zn326 O339 1.985 . S
Zn326 O347 1.955 . S
O327 Zn326 1.933 1_545 S
O327 H328 0.841 . S
O327 Zn329 1.911 . S
H328 O327 0.841 . S
Zn329 O327 1.911 . S
Zn329 O340 1.970 . S
Zn329 O350 1.981 . S
Zn329 O358 1.945 . S
C330 O331 1.246 . S
C330 O347 1.276 . S
O331 C330 1.246 . S
O332 Zn312 1.985 . S
O332 C342 1.245 1_565 S
O333 Zn313 1.970 . S
O333 C342 1.263 . S
O334 Zn319 1.985 . S
O334 C346 1.245 1_565 S
O335 Zn318 1.970 . S
O335 C346 1.263 . S
O336 Zn322 1.985 . S
O336 C351 1.245 1_565 S
O337 Zn324 1.970 . S
O337 C351 1.263 . S
C338 O349 1.262 . S
C338 O350 1.245 . S
O339 Zn326 1.985 . S
O339 C357 1.245 1_565 S
O340 Zn329 1.970 . S
O340 C357 1.263 . S
O341 Zn319 1.955 . S
O341 C360 1.276 . S
C342 O332 1.245 1_545 S
C342 O333 1.263 . S
O343 Zn312 1.955 1_455 S
O343 C362 1.276 . S
C344 O352 1.262 . S
C344 O353 1.245 . S
O345 C316 1.276 . S
O345 Zn322 1.955 . S
C346 O334 1.245 1_545 S
C346 O335 1.263 . S
O347 Zn326 1.955 . S
O347 C330 1.276 . S
C348 O355 1.262 . S
C348 O356 1.245 . S
O349 Zn313 1.945 1_455 S
O349 C338 1.262 . S
O350 Zn329 1.981 . S
O350 C338 1.245 . S
C351 O336 1.245 1_545 S
C351 O337 1.263 . S
O352 Zn318 1.945 . S
O352 C344 1.262 . S
O353 Zn324 1.981 1_455 S
O353 C344 1.245 . S
C354 O358 1.262 . S
C354 O359 1.245 . S
O355 Zn324 1.945 . S
O355 C348 1.262 . S
O356 Zn313 1.981 . S
O356 C348 1.245 . S
C357 O339 1.245 1_545 S
C357 O340 1.263 . S
O358 Zn329 1.945 . S
O358 C354 1.262 . S
O359 Zn318 1.981 . S
O359 C354 1.245 . S
C360 O341 1.276 . S
C360 O361 1.246 . S
O361 C360 1.246 . S
C362 O343 1.276 . S
C362 O363 1.246 . S
O363 C362 1.246 . S
Zn364 O366 1.933 . S
Zn364 O384 1.985 . S
Zn364 O395 1.955 . S
Zn365 O366 1.911 1_556 S
Zn365 O385 1.970 . S
Zn365 O401 1.945 . S
Zn365 O408 1.981 . S
O366 Zn364 1.933 . S
O366 Zn365 1.911 1_554 S
O366 H367 0.841 . S
H367 O366 0.841 . S
C368 O369 1.246 . S
C368 O397 1.276 . S
O369 C368 1.246 . S
Zn370 O372 1.911 1_556 S
Zn370 O387 1.970 . S
Zn370 O404 1.945 . S
Zn370 O411 1.981 . S
Zn371 O372 1.933 . S
Zn371 O386 1.985 . S
Zn371 O393 1.955 . S
O372 Zn370 1.911 1_554 S
O372 Zn371 1.933 . S
O372 H373 0.841 1_565 S
H373 O372 0.841 1_545 S
Zn374 O375 1.933 . S
Zn374 O388 1.985 . S
Zn374 O397 1.955 . S
O375 Zn374 1.933 . S
O375 Zn376 1.911 1_554 S
O375 H377 0.841 . S
Zn376 O375 1.911 1_556 S
Zn376 O389 1.970 . S
Zn376 O405 1.981 . S
Zn376 O407 1.945 . S
H377 O375 0.841 . S
Zn378 O379 1.933 . S
Zn378 O391 1.985 . S
Zn378 O399 1.955 . S
O379 Zn378 1.933 . S
O379 H380 0.841 . S
O379 Zn381 1.911 1_554 S
H380 O379 0.841 . S
Zn381 O379 1.911 1_556 S
Zn381 O392 1.970 . S
Zn381 O402 2.008 . S
Zn381 O410 1.945 . S
C382 O383 1.246 . S
C382 O399 1.276 . S
O383 C382 1.246 . S
O384 Zn364 1.985 . S
O384 C394 1.245 . S
O385 Zn365 1.970 . S
O385 C394 1.263 1_556 S
O386 Zn371 1.985 . S
O386 C398 1.245 . S
O387 Zn370 1.970 . S
O387 C398 1.263 1_556 S
O388 Zn374 1.985 . S
O388 C403 1.245 . S
O389 Zn376 1.970 . S
O389 C403 1.263 1_556 S
C390 O401 1.262 . S
C390 O402 1.227 1_545 S
O391 Zn378 1.985 . S
O391 C409 1.245 . S
O392 Zn381 1.970 . S
O392 C409 1.263 1_556 S
O393 Zn371 1.955 . S
O393 C412 1.276 1_565 S
C394 O384 1.245 . S
C394 O385 1.263 1_554 S
O395 Zn364 1.955 . S
O395 C414 1.276 . S
C396 O404 1.262 1_545 S
C396 O405 1.245 . S
O397 C368 1.276 . S
O397 Zn374 1.955 . S
C398 O386 1.245 . S
C398 O387 1.263 1_554 S
O399 Zn378 1.955 . S
O399 C382 1.276 . S
C400 O407 1.262 . S
C400 O408 1.245 . S
O401 Zn365 1.945 . S
O401 C390 1.262 . S
O402 Zn381 2.008 . S
O402 C390 1.227 1_565 S
C403 O388 1.245 . S
C403 O389 1.263 1_554 S
O404 Zn370 1.945 . S
O404 C396 1.262 1_565 S
O405 Zn376 1.981 . S
O405 C396 1.245 . S
C406 O410 1.262 . S
C406 O411 1.245 . S
O407 Zn376 1.945 . S
O407 C400 1.262 . S
O408 Zn365 1.981 . S
O408 C400 1.245 . S
C409 O391 1.245 . S
C409 O392 1.263 1_554 S
O410 Zn381 1.945 . S
O410 C406 1.262 . S
O411 Zn370 1.981 . S
O411 C406 1.245 . S
C412 O393 1.276 1_545 S
C412 O413 1.246 . S
O413 C412 1.246 . S
C414 O395 1.276 . S
C414 O415 1.246 1_545 S
O415 C414 1.246 1_565 S
Zn416 O418 1.933 . S
Zn416 O436 1.985 . S
Zn416 O447 1.955 . S
Zn417 O418 1.911 . S
Zn417 O437 1.970 . S
Zn417 O453 1.945 . S
Zn417 O460 1.981 . S
O418 Zn416 1.933 . S
O418 Zn417 1.911 . S
O418 H419 0.841 1_655 S
H419 O418 0.841 1_455 S
C420 O421 1.246 1_554 S
C420 O449 1.276 . S
O421 C420 1.246 1_556 S
Zn422 O424 1.911 . S
Zn422 O439 1.970 . S
Zn422 O456 1.945 . S
Zn422 O463 1.981 . S
Zn423 O424 1.933 . S
Zn423 O438 1.985 . S
Zn423 O445 1.955 . S
O424 Zn422 1.911 . S
O424 Zn423 1.933 . S
O424 H425 0.841 . S
H425 O424 0.841 . S
Zn426 O427 1.933 . S
Zn426 O440 1.985 . S
Zn426 O449 1.955 . S
O427 Zn426 1.933 . S
O427 Zn428 1.911 . S
O427 H429 0.841 . S
Zn428 O427 1.911 . S
Zn428 O441 1.970 . S
Zn428 O457 1.981 . S
Zn428 O459 1.945 . S
H429 O427 0.841 . S
Zn430 O431 1.933 . S
Zn430 O443 1.985 . S
Zn430 O451 1.955 . S
O431 Zn430 1.933 . S
O431 H432 0.841 1_556 S
O431 Zn433 1.911 . S
H432 O431 0.841 1_554 S
Zn433 O431 1.911 . S
Zn433 O444 1.970 . S
Zn433 O454 1.981 . S
Zn433 O462 1.945 . S
C434 O435 1.246 . S
C434 O451 1.276 1_554 S
O435 C434 1.246 . S
O436 Zn416 1.985 . S
O436 C446 1.245 . S
O437 Zn417 1.970 . S
O437 C446 1.263 . S
O438 Zn423 1.985 . S
O438 C450 1.245 . S
O439 Zn422 1.970 . S
O439 C450 1.263 . S
O440 Zn426 1.985 . S
O440 C455 1.245 . S
O441 Zn428 1.970 . S
O441 C455 1.263 . S
C442 O453 1.262 1_455 S
C442 O454 1.245 . S
O443 Zn430 1.985 . S
O443 C461 1.245 . S
O444 Zn433 1.970 . S
O444 C461 1.263 . S
O445 Zn423 1.955 . S
O445 C464 1.276 . S
C446 O436 1.245 . S
C446 O437 1.263 . S
O447 Zn416 1.955 . S
O447 C466 1.276 1_655 S
C448 O456 1.262 . S
C448 O457 1.245 1_455 S
O449 C420 1.276 . S
O449 Zn426 1.955 . S
C450 O438 1.245 . S
C450 O439 1.263 . S
O451 Zn430 1.955 . S
O451 C434 1.276 1_556 S
C452 O459 1.262 . S
C452 O460 1.245 1_554 S
O453 Zn417 1.945 . S
O453 C442 1.262 1_655 S
O454 Zn433 1.981 . S
O454 C442 1.245 . S
C455 O440 1.245 . S
C455 O441 1.263 . S
O456 Zn422 1.945 . S
O456 C448 1.262 . S
O457 Zn428 1.981 . S
O457 C448 1.245 1_655 S
C458 O462 1.262 1_554 S
C458 O463 1.245 . S
O459 Zn428 1.945 . S
O459 C452 1.262 . S
O460 Zn417 1.981 . S
O460 C452 1.245 1_556 S
C461 O443 1.245 . S
C461 O444 1.263 . S
O462 Zn433 1.945 . S
O462 C458 1.262 1_556 S
O463 Zn422 1.981 . S
O463 C458 1.245 . S
C464 O445 1.276 . S
C464 O465 1.246 1_455 S
O465 C464 1.246 1_655 S
C466 O447 1.276 1_455 S
C466 O467 1.246 . S
O467 C466 1.246 . S
Zn468 O470 1.933 1_556 S
Zn468 O488 1.985 . S
Zn468 O499 1.955 . S
Zn469 O470 1.911 . S
Zn469 O489 1.970 . S
Zn469 O505 1.945 . S
Zn469 O512 1.981 . S
O470 Zn468 1.933 1_554 S
O470 Zn469 1.911 . S
O470 H471 0.841 . S
H471 O470 0.841 . S
C472 O473 1.246 . S
C472 O501 1.276 . S
O473 C472 1.246 . S
Zn474 O476 1.911 . S
Zn474 O491 1.970 . S
Zn474 O508 1.945 . S
Zn474 O515 1.981 . S
Zn475 O476 1.933 1_556 S
Zn475 O490 1.985 . S
Zn475 O497 1.955 . S
O476 Zn474 1.911 . S
O476 Zn475 1.933 1_554 S
O476 H477 0.841 . S
H477 O476 0.841 . S
Zn478 O479 1.933 1_556 S
Zn478 O492 1.985 . S
Zn478 O501 1.955 . S
O479 Zn478 1.933 1_554 S
O479 Zn480 1.911 . S
O479 H481 0.841 . S
Zn480 O479 1.911 . S
Zn480 O493 1.970 . S
Zn480 O509 1.981 . S
Zn480 O511 1.945 . S
H481 O479 0.841 . S
Zn482 O483 1.933 1_556 S
Zn482 O495 1.985 . S
Zn482 O503 1.955 . S
O483 Zn482 1.933 1_554 S
O483 H484 0.841 . S
O483 Zn485 1.911 . S
H484 O483 0.841 . S
Zn485 O483 1.911 . S
Zn485 O496 1.970 . S
Zn485 O506 1.981 . S
Zn485 O514 1.945 . S
C486 O487 1.246 . S
C486 O503 1.276 . S
O487 C486 1.246 . S
O488 Zn468 1.985 . S
O488 C498 1.245 1_556 S
O489 Zn469 1.970 . S
O489 C498 1.263 . S
O490 Zn475 1.985 . S
O490 C502 1.245 1_556 S
O491 Zn474 1.970 . S
O491 C502 1.263 . S
O492 Zn478 1.985 . S
O492 C507 1.245 1_556 S
O493 Zn480 1.970 . S
O493 C507 1.263 . S
C494 O505 1.262 . S
C494 O506 1.245 . S
O495 Zn482 1.985 . S
O495 C513 1.245 1_556 S
O496 Zn485 1.970 . S
O496 C513 1.263 . S
O497 Zn475 1.955 . S
O497 C516 1.276 . S
C498 O488 1.245 1_554 S
C498 O489 1.263 . S
O499 Zn468 1.955 . S
O499 C518 1.276 . S
C500 O508 1.262 . S
C500 O509 1.245 . S
O501 C472 1.276 . S
O501 Zn478 1.955 . S
C502 O490 1.245 1_554 S
C502 O491 1.263 . S
O503 Zn482 1.955 . S
O503 C486 1.276 . S
C504 O511 1.262 . S
C504 O512 1.245 . S
O505 Zn469 1.945 . S
O505 C494 1.262 . S
O506 Zn485 1.981 . S
O506 C494 1.245 . S
C507 O492 1.245 1_554 S
C507 O493 1.263 . S
O508 Zn474 1.945 . S
O508 C500 1.262 . S
O509 Zn480 1.981 . S
O509 C500 1.245 . S
C510 O514 1.262 . S
C510 O515 1.245 . S
O511 Zn480 1.945 . S
O511 C504 1.262 . S
O512 Zn469 1.981 . S
O512 C504 1.245 . S
C513 O495 1.245 1_554 S
C513 O496 1.263 . S
O514 Zn485 1.945 . S
O514 C510 1.262 . S
O515 Zn474 1.981 . S
O515 C510 1.245 . S
C516 O497 1.276 . S
C516 O517 1.246 . S
O517 C516 1.246 . S
C518 O499 1.276 . S
C518 O519 1.246 . S
O519 C518 1.246 . S
Zn520 O522 1.933 . S
Zn520 O540 1.985 . S
Zn520 O551 1.955 . S
Zn521 O522 1.911 . S
Zn521 O541 1.970 . S
Zn521 O557 1.945 . S
Zn521 O564 1.981 . S
O522 Zn520 1.933 . S
O522 Zn521 1.911 . S
O522 H523 0.841 1_655 S
H523 O522 0.841 1_455 S
C524 O525 1.246 . S
C524 O553 1.276 . S
O525 C524 1.246 . S
Zn526 O528 1.911 . S
Zn526 O543 1.970 . S
Zn526 O560 1.945 . S
Zn526 O567 1.981 . S
Zn527 O528 1.933 . S
Zn527 O542 1.985 . S
Zn527 O549 1.955 . S
O528 Zn526 1.911 . S
O528 Zn527 1.933 . S
O528 H529 0.841 . S
H529 O528 0.841 . S
Zn530 O531 1.933 . S
Zn530 O544 1.985 . S
Zn530 O553 1.955 . S
O531 Zn530 1.933 . S
O531 Zn532 1.911 . S
O531 H533 0.841 . S
Zn532 O531 1.911 . S
Zn532 O545 1.970 . S
Zn532 O561 1.981 1_655 S
Zn532 O563 1.945 . S
H533 O531 0.841 . S
Zn534 O535 1.933 . S
Zn534 O547 1.985 . S
Zn534 O555 1.955 . S
O535 Zn534 1.933 . S
O535 H536 0.841 . S
O535 Zn537 1.911 . S
H536 O535 0.841 . S
Zn537 O535 1.911 . S
Zn537 O548 1.970 . S
Zn537 O558 1.981 . S
Zn537 O566 1.945 . S
C538 O539 1.246 . S
C538 O555 1.276 . S
O539 C538 1.246 . S
O540 Zn520 1.985 . S
O540 C550 1.245 . S
O541 Zn521 1.970 . S
O541 C550 1.263 . S
O542 Zn527 1.985 . S
O542 C554 1.245 . S
O543 Zn526 1.970 . S
O543 C554 1.263 . S
O544 Zn530 1.985 . S
O544 C559 1.245 . S
O545 Zn532 1.970 . S
O545 C559 1.263 . S
C546 O557 1.262 1_455 S
C546 O558 1.245 . S
O547 Zn534 1.985 . S
O547 C565 1.245 . S
O548 Zn537 1.970 . S
O548 C565 1.263 . S
O549 Zn527 1.955 . S
O549 C568 1.276 . S
C550 O540 1.245 . S
C550 O541 1.263 . S
O551 Zn520 1.955 . S
O551 C570 1.276 1_655 S
C552 O560 1.262 . S
C552 O561 1.245 . S
O553 C524 1.276 . S
O553 Zn530 1.955 . S
C554 O542 1.245 . S
C554 O543 1.263 . S
O555 Zn534 1.955 . S
O555 C538 1.276 . S
C556 O563 1.262 . S
C556 O564 1.245 . S
O557 Zn521 1.945 . S
O557 C546 1.262 1_655 S
O558 Zn537 1.981 . S
O558 C546 1.245 . S
C559 O544 1.245 . S
C559 O545 1.263 . S
O560 Zn526 1.945 . S
O560 C552 1.262 . S
O561 Zn532 1.981 1_455 S
O561 C552 1.245 . S
C562 O566 1.262 . S
C562 O567 1.245 . S
O563 Zn532 1.945 . S
O563 C556 1.262 . S
O564 Zn521 1.981 . S
O564 C556 1.245 . S
C565 O547 1.245 . S
C565 O548 1.263 . S
O566 Zn537 1.945 . S
O566 C562 1.262 . S
O567 Zn526 1.981 . S
O567 C562 1.245 . S
C568 O549 1.276 . S
C568 O569 1.246 . S
O569 C568 1.246 . S
C570 O551 1.276 1_455 S
C570 O571 1.246 . S
O571 C570 1.246 . S
Zn572 O574 1.933 1_565 S
Zn572 O592 1.985 . S
Zn572 O603 1.955 . S
Zn573 O574 1.911 . S
Zn573 O593 1.970 . S
Zn573 O609 1.945 . S
Zn573 O616 1.981 . S
O574 Zn572 1.933 1_545 S
O574 Zn573 1.911 . S
O574 H575 0.841 . S
H575 O574 0.841 . S
C576 O577 1.246 . S
C576 O605 1.276 . S
O577 C576 1.246 . S
Zn578 O580 1.911 . S
Zn578 O595 1.970 . S
Zn578 O612 1.945 . S
Zn578 O619 1.981 . S
Zn579 O580 1.933 1_565 S
Zn579 O594 1.985 . S
Zn579 O601 1.955 . S
O580 Zn578 1.911 . S
O580 Zn579 1.933 1_545 S
O580 H581 0.841 . S
H581 O580 0.841 . S
Zn582 O583 1.933 1_565 S
Zn582 O596 1.985 . S
Zn582 O605 1.955 . S
O583 Zn582 1.933 1_545 S
O583 Zn584 1.911 . S
O583 H585 0.841 . S
Zn584 O583 1.911 . S
Zn584 O597 1.970 . S
Zn584 O613 1.981 . S
Zn584 O615 1.945 . S
H585 O583 0.841 . S
Zn586 O587 1.933 1_565 S
Zn586 O599 1.985 . S
Zn586 O607 1.955 . S
O587 Zn586 1.933 1_545 S
O587 H588 0.841 . S
O587 Zn589 1.911 . S
H588 O587 0.841 . S
Zn589 O587 1.911 . S
Zn589 O600 1.970 . S
Zn589 O610 1.981 . S
Zn589 O618 1.945 . S
C590 O591 1.246 . S
C590 O607 1.276 . S
O591 C590 1.246 . S
O592 Zn572 1.985 . S
O592 C602 1.245 1_565 S
O593 Zn573 1.970 . S
O593 C602 1.263 . S
O594 Zn579 1.985 . S
O594 C606 1.245 1_565 S
O595 Zn578 1.970 . S
O595 C606 1.263 . S
O596 Zn582 1.985 . S
O596 C611 1.245 1_565 S
O597 Zn584 1.970 . S
O597 C611 1.263 . S
C598 O609 1.262 . S
C598 O610 1.245 . S
O599 Zn586 1.985 . S
O599 C617 1.245 1_565 S
O600 Zn589 1.970 . S
O600 C617 1.263 . S
O601 Zn579 1.955 . S
O601 C620 1.276 . S
C602 O592 1.245 1_545 S
C602 O593 1.263 . S
O603 Zn572 1.955 . S
O603 C622 1.276 . S
C604 O612 1.262 . S
C604 O613 1.245 . S
O605 C576 1.276 . S
O605 Zn582 1.955 . S
C606 O594 1.245 1_545 S
C606 O595 1.263 . S
O607 Zn586 1.955 . S
O607 C590 1.276 . S
C608 O615 1.262 . S
C608 O616 1.245 . S
O609 Zn573 1.945 . S
O609 C598 1.262 . S
O610 Zn589 1.981 . S
O610 C598 1.245 . S
C611 O596 1.245 1_545 S
C611 O597 1.263 . S
O612 Zn578 1.945 . S
O612 C604 1.262 . S
O613 Zn584 1.981 . S
O613 C604 1.245 . S
C614 O618 1.262 . S
C614 O619 1.245 . S
O615 Zn584 1.945 . S
O615 C608 1.262 . S
O616 Zn573 1.981 . S
O616 C608 1.245 . S
C617 O599 1.245 1_545 S
C617 O600 1.263 . S
O618 Zn589 1.945 . S
O618 C614 1.262 . S
O619 Zn578 1.981 . S
O619 C614 1.245 . S
C620 O601 1.276 . S
C620 O621 1.246 . S
O621 C620 1.246 . S
C622 O603 1.276 . S
C622 O623 1.246 . S
O623 C622 1.246 . S
C624 C625 1.391 . S
C624 C626 1.394 . S
C624 H640 0.931 . S
C625 C624 1.391 . S
C625 C629 1.376 . S
C626 C624 1.394 . S
C626 C627 1.369 . S
C626 C630 1.531 . S
C627 C626 1.369 . S
C627 C628 1.410 . S
C627 C635 1.503 . S
C628 C627 1.410 . S
C628 C629 1.392 . S
C628 C631 1.511 . S
C629 C625 1.376 . S
C629 C628 1.392 . S
C629 H641 0.929 . S
C630 C626 1.531 . S
C630 H642 0.960 . S
C630 H643 0.962 . S
C630 H644 0.960 . S
C631 C628 1.511 . S
C631 H645 0.961 . S
C631 H646 0.961 . S
C631 H647 0.961 . S
C632 C633 1.370 . S
C632 C634 1.363 . S
C632 H648 0.931 . S
C633 C632 1.370 . S
C633 C637 1.408 . S
C634 C632 1.363 . S
C634 C635 1.370 . S
C634 C638 1.524 . S
C635 C627 1.503 . S
C635 C634 1.370 . S
C635 C636 1.403 . S
C636 C635 1.403 . S
C636 C637 1.404 . S
C636 C639 1.539 . S
C637 C633 1.408 . S
C637 C636 1.404 . S
C637 H649 0.930 . S
C638 C634 1.524 . S
C638 H650 0.956 . S
C638 H651 0.961 . S
C638 H652 0.961 . S
C639 C636 1.539 . S
C639 H653 0.958 . S
C639 H654 0.961 . S
C639 H655 0.960 . S
H640 C624 0.931 . S
H641 C629 0.929 . S
H642 C630 0.960 . S
H643 C630 0.962 . S
H644 C630 0.960 . S
H645 C631 0.961 . S
H646 C631 0.961 . S
H647 C631 0.961 . S
H648 C632 0.931 . S
H649 C637 0.930 . S
H650 C638 0.956 . S
H651 C638 0.961 . S
H652 C638 0.961 . S
H653 C639 0.958 . S
H654 C639 0.961 . S
H655 C639 0.960 . S
C656 C657 1.391 . S
C656 C658 1.394 . S
C656 H672 0.931 . S
C657 C656 1.391 . S
C657 C661 1.376 . S
C658 C656 1.394 . S
C658 C659 1.369 . S
C658 C662 1.531 . S
C659 C658 1.369 . S
C659 C660 1.410 . S
C659 C667 1.503 . S
C660 C659 1.410 . S
C660 C661 1.392 . S
C660 C663 1.511 . S
C661 C657 1.376 . S
C661 C660 1.392 . S
C661 H673 0.929 . S
C662 C658 1.531 . S
C662 H674 0.960 . S
C662 H675 0.962 . S
C662 H676 0.960 . S
C663 C660 1.511 . S
C663 H677 0.961 . S
C663 H678 0.961 . S
C663 H679 0.961 . S
C664 C665 1.370 . S
C664 C666 1.363 . S
C664 H680 0.931 . S
C665 C664 1.370 . S
C665 C669 1.408 . S
C666 C664 1.363 . S
C666 C667 1.370 . S
C666 C670 1.524 . S
C667 C659 1.503 . S
C667 C666 1.370 . S
C667 C668 1.403 . S
C668 C667 1.403 . S
C668 C669 1.404 . S
C668 C671 1.539 . S
C669 C665 1.408 . S
C669 C668 1.404 . S
C669 H681 0.930 . S
C670 C666 1.524 . S
C670 H682 0.956 . S
C670 H683 0.961 . S
C670 H684 0.961 . S
C671 C668 1.539 . S
C671 H685 0.958 . S
C671 H686 0.961 . S
C671 H687 0.960 . S
H672 C656 0.931 . S
H673 C661 0.929 . S
H674 C662 0.960 . S
H675 C662 0.962 . S
H676 C662 0.960 . S
H677 C663 0.961 . S
H678 C663 0.961 . S
H679 C663 0.961 . S
H680 C664 0.931 . S
H681 C669 0.930 . S
H682 C670 0.956 . S
H683 C670 0.961 . S
H684 C670 0.961 . S
H685 C671 0.958 . S
H686 C671 0.961 . S
H687 C671 0.960 . S
C688 C689 1.391 . S
C688 C690 1.394 . S
C688 H704 0.931 . S
C689 C688 1.391 . S
C689 C693 1.376 . S
C690 C688 1.394 . S
C690 C691 1.369 . S
C690 C694 1.531 . S
C691 C690 1.369 . S
C691 C692 1.410 . S
C691 C699 1.503 . S
C692 C691 1.410 . S
C692 C693 1.392 . S
C692 C695 1.511 . S
C693 C689 1.376 . S
C693 C692 1.392 . S
C693 H705 0.929 . S
C694 C690 1.531 . S
C694 H706 0.960 . S
C694 H707 0.962 . S
C694 H708 0.960 . S
C695 C692 1.511 . S
C695 H709 0.961 . S
C695 H710 0.961 . S
C695 H711 0.961 . S
C696 C697 1.370 . S
C696 C698 1.363 . S
C696 H712 0.931 . S
C697 C696 1.370 . S
C697 C701 1.408 . S
C698 C696 1.363 . S
C698 C699 1.370 . S
C698 C702 1.524 . S
C699 C691 1.503 . S
C699 C698 1.370 . S
C699 C700 1.403 . S
C700 C699 1.403 . S
C700 C701 1.404 . S
C700 C703 1.539 . S
C701 C697 1.408 . S
C701 C700 1.404 . S
C701 H713 0.930 . S
C702 C698 1.524 . S
C702 H714 0.956 . S
C702 H715 0.961 . S
C702 H716 0.961 . S
C703 C700 1.539 . S
C703 H717 0.958 . S
C703 H718 0.961 . S
C703 H719 0.960 . S
H704 C688 0.931 . S
H705 C693 0.929 . S
H706 C694 0.960 . S
H707 C694 0.962 . S
H708 C694 0.960 . S
H709 C695 0.961 . S
H710 C695 0.961 . S
H711 C695 0.961 . S
H712 C696 0.931 . S
H713 C701 0.930 . S
H714 C702 0.956 . S
H715 C702 0.961 . S
H716 C702 0.961 . S
H717 C703 0.958 . S
H718 C703 0.961 . S
H719 C703 0.960 . S
C720 C721 1.391 . S
C720 C722 1.394 . S
C720 H736 0.931 . S
C721 C720 1.391 . S
C721 C725 1.376 . S
C722 C720 1.394 . S
C722 C723 1.369 . S
C722 C726 1.531 . S
C723 C722 1.369 . S
C723 C724 1.410 . S
C723 C731 1.503 . S
C724 C723 1.410 . S
C724 C725 1.392 . S
C724 C727 1.511 . S
C725 C721 1.376 . S
C725 C724 1.392 . S
C725 H737 0.929 . S
C726 C722 1.531 . S
C726 H738 0.960 . S
C726 H739 0.962 . S
C726 H740 0.960 . S
C727 C724 1.511 . S
C727 H741 0.961 . S
C727 H742 0.961 . S
C727 H743 0.961 . S
C728 C729 1.370 . S
C728 C730 1.363 . S
C728 H744 0.931 . S
C729 C728 1.370 . S
C729 C733 1.408 . S
C730 C728 1.363 . S
C730 C731 1.370 . S
C730 C734 1.524 . S
C731 C723 1.503 . S
C731 C730 1.370 . S
C731 C732 1.403 . S
C732 C731 1.403 . S
C732 C733 1.404 . S
C732 C735 1.539 . S
C733 C729 1.408 . S
C733 C732 1.404 . S
C733 H745 0.930 . S
C734 C730 1.524 . S
C734 H746 0.956 . S
C734 H747 0.961 . S
C734 H748 0.961 . S
C735 C732 1.539 . S
C735 H749 0.958 . S
C735 H750 0.961 . S
C735 H751 0.960 . S
H736 C720 0.931 . S
H737 C725 0.929 . S
H738 C726 0.960 . S
H739 C726 0.962 . S
H740 C726 0.960 . S
H741 C727 0.961 . S
H742 C727 0.961 . S
H743 C727 0.961 . S
H744 C728 0.931 . S
H745 C733 0.930 . S
H746 C734 0.956 . S
H747 C734 0.961 . S
H748 C734 0.961 . S
H749 C735 0.958 . S
H750 C735 0.961 . S
H751 C735 0.960 . S
C752 C753 1.391 . S
C752 C754 1.394 . S
C752 H768 0.931 . S
C753 C752 1.391 . S
C753 C757 1.376 . S
C754 C752 1.394 . S
C754 C755 1.369 . S
C754 C758 1.531 . S
C755 C754 1.369 . S
C755 C756 1.410 . S
C755 C763 1.503 . S
C756 C755 1.410 . S
C756 C757 1.392 . S
C756 C759 1.511 . S
C757 C753 1.376 . S
C757 C756 1.392 . S
C757 H769 0.929 . S
C758 C754 1.531 . S
C758 H770 0.960 . S
C758 H771 0.962 . S
C758 H772 0.960 . S
C759 C756 1.511 . S
C759 H773 0.961 . S
C759 H774 0.961 . S
C759 H775 0.961 . S
C760 C761 1.370 . S
C760 C762 1.363 . S
C760 H776 0.931 . S
C761 C760 1.370 . S
C761 C765 1.408 . S
C762 C760 1.363 . S
C762 C763 1.370 . S
C762 C766 1.524 . S
C763 C755 1.503 . S
C763 C762 1.370 . S
C763 C764 1.403 . S
C764 C763 1.403 . S
C764 C765 1.404 . S
C764 C767 1.539 . S
C765 C761 1.408 . S
C765 C764 1.404 . S
C765 H777 0.930 . S
C766 C762 1.524 . S
C766 H778 0.956 . S
C766 H779 0.961 . S
C766 H780 0.961 . S
C767 C764 1.539 . S
C767 H781 0.958 . S
C767 H782 0.961 . S
C767 H783 0.960 . S
H768 C752 0.931 . S
H769 C757 0.929 . S
H770 C758 0.960 . S
H771 C758 0.962 . S
H772 C758 0.960 . S
H773 C759 0.961 . S
H774 C759 0.961 . S
H775 C759 0.961 . S
H776 C760 0.931 . S
H777 C765 0.930 . S
H778 C766 0.956 . S
H779 C766 0.961 . S
H780 C766 0.961 . S
H781 C767 0.958 . S
H782 C767 0.961 . S
H783 C767 0.960 . S
C784 C785 1.391 . S
C784 C786 1.394 . S
C784 H800 0.931 . S
C785 C784 1.391 . S
C785 C789 1.376 . S
C786 C784 1.394 . S
C786 C787 1.369 . S
C786 C790 1.531 . S
C787 C786 1.369 . S
C787 C788 1.410 . S
C787 C795 1.503 . S
C788 C787 1.410 . S
C788 C789 1.392 . S
C788 C791 1.511 . S
C789 C785 1.376 . S
C789 C788 1.392 . S
C789 H801 0.929 . S
C790 C786 1.531 . S
C790 H802 0.960 . S
C790 H803 0.962 . S
C790 H804 0.960 . S
C791 C788 1.511 . S
C791 H805 0.961 . S
C791 H806 0.961 . S
C791 H807 0.961 . S
C792 C793 1.370 . S
C792 C794 1.363 . S
C792 H808 0.931 . S
C793 C792 1.370 . S
C793 C797 1.408 . S
C794 C792 1.363 . S
C794 C795 1.370 . S
C794 C798 1.524 . S
C795 C787 1.503 . S
C795 C794 1.370 . S
C795 C796 1.403 . S
C796 C795 1.403 . S
C796 C797 1.404 . S
C796 C799 1.539 . S
C797 C793 1.408 . S
C797 C796 1.404 . S
C797 H809 0.930 . S
C798 C794 1.524 . S
C798 H810 0.956 . S
C798 H811 0.961 . S
C798 H812 0.961 . S
C799 C796 1.539 . S
C799 H813 0.958 . S
C799 H814 0.961 . S
C799 H815 0.960 . S
H800 C784 0.931 . S
H801 C789 0.929 . S
H802 C790 0.960 . S
H803 C790 0.962 . S
H804 C790 0.960 . S
H805 C791 0.961 . S
H806 C791 0.961 . S
H807 C791 0.961 . S
H808 C792 0.931 . S
H809 C797 0.930 . S
H810 C798 0.956 . S
H811 C798 0.961 . S
H812 C798 0.961 . S
H813 C799 0.958 . S
H814 C799 0.961 . S
H815 C799 0.960 . S
C816 C817 1.391 . S
C816 C818 1.394 . S
C816 H832 0.931 . S
C817 C816 1.391 . S
C817 C821 1.376 . S
C818 C816 1.394 . S
C818 C819 1.369 . S
C818 C822 1.531 . S
C819 C818 1.369 . S
C819 C820 1.410 . S
C819 C827 1.503 . S
C820 C819 1.410 . S
C820 C821 1.392 . S
C820 C823 1.511 . S
C821 C817 1.376 . S
C821 C820 1.392 . S
C821 H833 0.929 . S
C822 C818 1.531 . S
C822 H834 0.960 . S
C822 H835 0.962 . S
C822 H836 0.960 . S
C823 C820 1.511 . S
C823 H837 0.961 . S
C823 H838 0.961 . S
C823 H839 0.961 . S
C824 C825 1.370 . S
C824 C826 1.363 . S
C824 H840 0.931 . S
C825 C824 1.370 . S
C825 C829 1.408 . S
C826 C824 1.363 . S
C826 C827 1.370 . S
C826 C830 1.524 . S
C827 C819 1.503 . S
C827 C826 1.370 . S
C827 C828 1.403 . S
C828 C827 1.403 . S
C828 C829 1.404 . S
C828 C831 1.539 . S
C829 C825 1.408 . S
C829 C828 1.404 . S
C829 H841 0.930 . S
C830 C826 1.524 . S
C830 H842 0.956 . S
C830 H843 0.961 . S
C830 H844 0.961 . S
C831 C828 1.539 . S
C831 H845 0.958 . S
C831 H846 0.961 . S
C831 H847 0.960 . S
H832 C816 0.931 . S
H833 C821 0.929 . S
H834 C822 0.960 . S
H835 C822 0.962 . S
H836 C822 0.960 . S
H837 C823 0.961 . S
H838 C823 0.961 . S
H839 C823 0.961 . S
H840 C824 0.931 . S
H841 C829 0.930 . S
H842 C830 0.956 . S
H843 C830 0.961 . S
H844 C830 0.961 . S
H845 C831 0.958 . S
H846 C831 0.961 . S
H847 C831 0.960 . S
C848 C849 1.391 . S
C848 C850 1.394 . S
C848 H864 0.931 . S
C849 C848 1.391 . S
C849 C853 1.376 . S
C850 C848 1.394 . S
C850 C851 1.369 . S
C850 C854 1.531 . S
C851 C850 1.369 . S
C851 C852 1.410 . S
C851 C859 1.503 . S
C852 C851 1.410 . S
C852 C853 1.392 . S
C852 C855 1.511 . S
C853 C849 1.376 . S
C853 C852 1.392 . S
C853 H865 0.929 . S
C854 C850 1.531 . S
C854 H866 0.960 . S
C854 H867 0.962 . S
C854 H868 0.960 . S
C855 C852 1.511 . S
C855 H869 0.961 . S
C855 H870 0.961 . S
C855 H871 0.961 . S
C856 C857 1.370 . S
C856 C858 1.363 . S
C856 H872 0.931 . S
C857 C856 1.370 . S
C857 C861 1.408 . S
C858 C856 1.363 . S
C858 C859 1.370 . S
C858 C862 1.524 . S
C859 C851 1.503 . S
C859 C858 1.370 . S
C859 C860 1.403 . S
C860 C859 1.403 . S
C860 C861 1.404 . S
C860 C863 1.539 . S
C861 C857 1.408 . S
C861 C860 1.404 . S
C861 H873 0.930 . S
C862 C858 1.524 . S
C862 H874 0.956 . S
C862 H875 0.961 . S
C862 H876 0.961 . S
C863 C860 1.539 . S
C863 H877 0.958 . S
C863 H878 0.961 . S
C863 H879 0.960 . S
H864 C848 0.931 . S
H865 C853 0.929 . S
H866 C854 0.960 . S
H867 C854 0.962 . S
H868 C854 0.960 . S
H869 C855 0.961 . S
H870 C855 0.961 . S
H871 C855 0.961 . S
H872 C856 0.931 . S
H873 C861 0.930 . S
H874 C862 0.956 . S
H875 C862 0.961 . S
H876 C862 0.961 . S
H877 C863 0.958 . S
H878 C863 0.961 . S
H879 C863 0.960 . S
C880 C881 1.391 . S
C880 C882 1.394 . S
C880 H896 0.931 . S
C881 C880 1.391 . S
C881 C885 1.376 . S
C882 C880 1.394 . S
C882 C883 1.369 . S
C882 C886 1.531 . S
C883 C882 1.369 . S
C883 C884 1.410 . S
C883 C891 1.503 . S
C884 C883 1.410 . S
C884 C885 1.392 . S
C884 C887 1.511 . S
C885 C881 1.376 . S
C885 C884 1.392 . S
C885 H897 0.929 . S
C886 C882 1.531 . S
C886 H898 0.960 . S
C886 H899 0.962 . S
C886 H900 0.960 . S
C887 C884 1.511 . S
C887 H901 0.961 . S
C887 H902 0.961 . S
C887 H903 0.961 . S
C888 C889 1.370 . S
C888 C890 1.363 . S
C888 H904 0.931 . S
C889 C888 1.370 . S
C889 C893 1.408 . S
C890 C888 1.363 . S
C890 C891 1.370 . S
C890 C894 1.524 . S
C891 C883 1.503 . S
C891 C890 1.370 . S
C891 C892 1.403 . S
C892 C891 1.403 . S
C892 C893 1.404 . S
C892 C895 1.539 . S
C893 C889 1.408 . S
C893 C892 1.404 . S
C893 H905 0.930 . S
C894 C890 1.524 . S
C894 H906 0.956 . S
C894 H907 0.961 . S
C894 H908 0.961 . S
C895 C892 1.539 . S
C895 H909 0.958 . S
C895 H910 0.961 . S
C895 H911 0.960 . S
H896 C880 0.931 . S
H897 C885 0.929 . S
H898 C886 0.960 . S
H899 C886 0.962 . S
H900 C886 0.960 . S
H901 C887 0.961 . S
H902 C887 0.961 . S
H903 C887 0.961 . S
H904 C888 0.931 . S
H905 C893 0.930 . S
H906 C894 0.956 . S
H907 C894 0.961 . S
H908 C894 0.961 . S
H909 C895 0.958 . S
H910 C895 0.961 . S
H911 C895 0.960 . S
C912 C913 1.391 . S
C912 C914 1.394 . S
C912 H928 0.931 . S
C913 C912 1.391 . S
C913 C917 1.376 . S
C914 C912 1.394 . S
C914 C915 1.369 . S
C914 C918 1.531 . S
C915 C914 1.369 . S
C915 C916 1.410 . S
C915 C923 1.503 . S
C916 C915 1.410 . S
C916 C917 1.392 . S
C916 C919 1.511 . S
C917 C913 1.376 . S
C917 C916 1.392 . S
C917 H929 0.929 . S
C918 C914 1.531 . S
C918 H930 0.960 . S
C918 H931 0.962 . S
C918 H932 0.960 . S
C919 C916 1.511 . S
C919 H933 0.961 . S
C919 H934 0.961 . S
C919 H935 0.961 . S
C920 C921 1.370 . S
C920 C922 1.363 . S
C920 H936 0.931 . S
C921 C920 1.370 . S
C921 C925 1.408 . S
C922 C920 1.363 . S
C922 C923 1.370 . S
C922 C926 1.524 . S
C923 C915 1.503 . S
C923 C922 1.370 . S
C923 C924 1.403 . S
C924 C923 1.403 . S
C924 C925 1.404 . S
C924 C927 1.539 . S
C925 C921 1.408 . S
C925 C924 1.404 . S
C925 H937 0.930 . S
C926 C922 1.524 . S
C926 H938 0.956 . S
C926 H939 0.961 . S
C926 H940 0.961 . S
C927 C924 1.539 . S
C927 H941 0.958 . S
C927 H942 0.961 . S
C927 H943 0.960 . S
H928 C912 0.931 . S
H929 C917 0.929 . S
H930 C918 0.960 . S
H931 C918 0.962 . S
H932 C918 0.960 . S
H933 C919 0.961 . S
H934 C919 0.961 . S
H935 C919 0.961 . S
H936 C920 0.931 . S
H937 C925 0.930 . S
H938 C926 0.956 . S
H939 C926 0.961 . S
H940 C926 0.961 . S
H941 C927 0.958 . S
H942 C927 0.961 . S
H943 C927 0.960 . S
C944 C945 1.391 . S
C944 C946 1.394 . S
C944 H960 0.931 . S
C945 C944 1.391 . S
C945 C949 1.376 . S
C946 C944 1.394 . S
C946 C947 1.369 . S
C946 C950 1.531 . S
C947 C946 1.369 . S
C947 C948 1.410 . S
C947 C955 1.503 . S
C948 C947 1.410 . S
C948 C949 1.392 . S
C948 C951 1.511 . S
C949 C945 1.376 . S
C949 C948 1.392 . S
C949 H961 0.929 . S
C950 C946 1.531 . S
C950 H962 0.960 . S
C950 H963 0.962 . S
C950 H964 0.960 . S
C951 C948 1.511 . S
C951 H965 0.961 . S
C951 H966 0.961 . S
C951 H967 0.961 . S
C952 C953 1.370 . S
C952 C954 1.363 . S
C952 H968 0.931 . S
C953 C952 1.370 . S
C953 C957 1.408 . S
C954 C952 1.363 . S
C954 C955 1.370 . S
C954 C958 1.524 . S
C955 C947 1.503 . S
C955 C954 1.370 . S
C955 C956 1.403 . S
C956 C955 1.403 . S
C956 C957 1.404 . S
C956 C959 1.539 . S
C957 C953 1.408 . S
C957 C956 1.404 . S
C957 H969 0.930 . S
C958 C954 1.524 . S
C958 H970 0.956 . S
C958 H971 0.961 . S
C958 H972 0.961 . S
C959 C956 1.539 . S
C959 H973 0.958 . S
C959 H974 0.961 . S
C959 H975 0.960 . S
H960 C944 0.931 . S
H961 C949 0.929 . S
H962 C950 0.960 . S
H963 C950 0.962 . S
H964 C950 0.960 . S
H965 C951 0.961 . S
H966 C951 0.961 . S
H967 C951 0.961 . S
H968 C952 0.931 . S
H969 C957 0.930 . S
H970 C958 0.956 . S
H971 C958 0.961 . S
H972 C958 0.961 . S
H973 C959 0.958 . S
H974 C959 0.961 . S
H975 C959 0.960 . S
C976 C977 1.391 . S
C976 C978 1.394 . S
C976 H992 0.931 . S
C977 C976 1.391 . S
C977 C981 1.376 . S
C978 C976 1.394 . S
C978 C979 1.369 . S
C978 C982 1.531 . S
C979 C978 1.369 . S
C979 C980 1.410 . S
C979 C987 1.503 . S
C980 C979 1.410 . S
C980 C981 1.392 . S
C980 C983 1.511 . S
C981 C977 1.376 . S
C981 C980 1.392 . S
C981 H993 0.929 . S
C982 C978 1.531 . S
C982 H994 0.960 . S
C982 H995 0.962 . S
C982 H996 0.960 . S
C983 C980 1.511 . S
C983 H997 0.961 . S
C983 H998 0.961 . S
C983 H999 0.961 . S
C984 C985 1.370 . S
C984 C986 1.363 . S
C984 H1000 0.931 . S
C985 C984 1.370 . S
C985 C989 1.408 . S
C986 C984 1.363 . S
C986 C987 1.370 . S
C986 C990 1.524 . S
C987 C979 1.503 . S
C987 C986 1.370 . S
C987 C988 1.403 . S
C988 C987 1.403 . S
C988 C989 1.404 . S
C988 C991 1.539 . S
C989 C985 1.408 . S
C989 C988 1.404 . S
C989 H1001 0.930 . S
C990 C986 1.524 . S
C990 H1002 0.956 . S
C990 H1003 0.961 . S
C990 H1004 0.961 . S
C991 C988 1.539 . S
C991 H1005 0.958 . S
C991 H1006 0.961 . S
C991 H1007 0.960 . S
H992 C976 0.931 . S
H993 C981 0.929 . S
H994 C982 0.960 . S
H995 C982 0.962 . S
H996 C982 0.960 . S
H997 C983 0.961 . S
H998 C983 0.961 . S
H999 C983 0.961 . S
H1000 C984 0.931 . S
H1001 C989 0.930 . S
H1002 C990 0.956 . S
H1003 C990 0.961 . S
H1004 C990 0.961 . S
H1005 C991 0.958 . S
H1006 C991 0.961 . S
H1007 C991 0.960 . S
C1008 C1009 1.391 . S
C1008 C1010 1.394 . S
C1008 H1024 0.931 . S
C1009 C1008 1.391 . S
C1009 C1013 1.376 1_554 S
C1010 C1008 1.394 . S
C1010 C1011 1.369 . S
C1010 C1014 1.531 . S
C1011 C1010 1.369 . S
C1011 C1012 1.410 1_554 S
C1011 C1019 1.503 . S
C1012 C1011 1.410 1_556 S
C1012 C1013 1.392 . S
C1012 C1015 1.511 . S
C1013 C1009 1.376 1_556 S
C1013 C1012 1.392 . S
C1013 H1025 0.929 . S
C1014 C1010 1.531 . S
C1014 H1026 0.960 . S
C1014 H1027 0.962 . S
C1014 H1028 0.960 . S
C1015 C1012 1.511 . S
C1015 H1029 0.961 . S
C1015 H1030 0.961 . S
C1015 H1031 0.961 . S
C1016 C1017 1.370 . S
C1016 C1018 1.363 . S
C1016 H1032 0.931 . S
C1017 C1016 1.370 . S
C1017 C1021 1.408 . S
C1018 C1016 1.363 . S
C1018 C1019 1.370 . S
C1018 C1022 1.524 . S
C1019 C1011 1.503 . S
C1019 C1018 1.370 . S
C1019 C1020 1.403 . S
C1020 C1019 1.403 . S
C1020 C1021 1.404 . S
C1020 C1023 1.539 1_554 S
C1021 C1017 1.408 . S
C1021 C1020 1.404 . S
C1021 H1033 0.930 . S
C1022 C1018 1.524 . S
C1022 H1034 0.956 . S
C1022 H1035 0.932 1_554 S
C1022 H1036 0.961 . S
C1023 C1020 1.539 1_556 S
C1023 H1037 0.958 1_556 S
C1023 H1038 0.961 . S
C1023 H1039 0.960 . S
H1024 C1008 0.931 . S
H1025 C1013 0.929 . S
H1026 C1014 0.960 . S
H1027 C1014 0.962 . S
H1028 C1014 0.960 . S
H1029 C1015 0.961 . S
H1030 C1015 0.961 . S
H1031 C1015 0.961 . S
H1032 C1016 0.931 . S
H1033 C1021 0.930 . S
H1034 C1022 0.956 . S
H1035 C1022 0.932 1_556 S
H1036 C1022 0.961 . S
H1037 C1023 0.958 1_554 S
H1038 C1023 0.961 . S
H1039 C1023 0.960 . S
C1040 C1041 1.391 . S
C1040 C1042 1.394 . S
C1040 H1056 0.931 . S
C1041 C1040 1.391 . S
C1041 C1045 1.376 . S
C1042 C1040 1.394 . S
C1042 C1043 1.369 . S
C1042 C1046 1.531 . S
C1043 C1042 1.369 . S
C1043 C1044 1.410 . S
C1043 C1051 1.503 . S
C1044 C1043 1.410 . S
C1044 C1045 1.392 . S
C1044 C1047 1.511 . S
C1045 C1041 1.376 . S
C1045 C1044 1.392 . S
C1045 H1057 0.929 . S
C1046 C1042 1.531 . S
C1046 H1058 0.960 . S
C1046 H1059 0.962 1_554 S
C1046 H1060 0.960 . S
C1047 C1044 1.511 . S
C1047 H1061 0.961 . S
C1047 H1062 0.961 . S
C1047 H1063 0.961 . S
C1048 C1049 1.370 1_556 S
C1048 C1050 1.363 . S
C1048 H1064 0.931 . S
C1049 C1048 1.370 1_554 S
C1049 C1053 1.408 . S
C1050 C1048 1.363 . S
C1050 C1051 1.370 1_556 S
C1050 C1054 1.524 . S
C1051 C1043 1.503 . S
C1051 C1050 1.370 1_554 S
C1051 C1052 1.403 . S
C1052 C1051 1.403 . S
C1052 C1053 1.404 . S
C1052 C1055 1.539 . S
C1053 C1049 1.408 . S
C1053 C1052 1.404 . S
C1053 H1065 0.930 . S
C1054 C1050 1.524 . S
C1054 H1066 0.956 . S
C1054 H1067 0.961 . S
C1054 H1068 0.961 . S
C1055 C1052 1.539 . S
C1055 H1069 0.958 . S
C1055 H1070 0.961 . S
C1055 H1071 0.960 . S
H1056 C1040 0.931 . S
H1057 C1045 0.929 . S
H1058 C1046 0.960 . S
H1059 C1046 0.962 1_556 S
H1060 C1046 0.960 . S
H1061 C1047 0.961 . S
H1062 C1047 0.961 . S
H1063 C1047 0.961 . S
H1064 C1048 0.931 . S
H1065 C1053 0.930 . S
H1066 C1054 0.956 . S
H1067 C1054 0.961 . S
H1068 C1054 0.961 . S
H1069 C1055 0.958 . S
H1070 C1055 0.961 . S
H1071 C1055 0.960 . S
C1072 C1073 1.391 . S
C1072 C1074 1.394 . S
C1072 H1088 0.931 . S
C1073 C1072 1.391 . S
C1073 C1077 1.376 . S
C1074 C1072 1.394 . S
C1074 C1075 1.369 . S
C1074 C1078 1.531 1_554 S
C1075 C1074 1.369 . S
C1075 C1076 1.410 . S
C1075 C1083 1.503 . S
C1076 C1075 1.410 . S
C1076 C1077 1.392 . S
C1076 C1079 1.511 . S
C1077 C1073 1.376 . S
C1077 C1076 1.392 . S
C1077 H1089 0.929 . S
C1078 C1074 1.531 1_556 S
C1078 H1090 0.960 . S
C1078 H1091 0.962 1_556 S
C1078 H1092 0.960 . S
C1079 C1076 1.511 . S
C1079 H1093 0.961 . S
C1079 H1094 0.961 . S
C1079 H1095 0.961 1_554 S
C1080 C1081 1.370 . S
C1080 C1082 1.363 . S
C1080 H1096 0.931 . S
C1081 C1080 1.370 . S
C1081 C1085 1.408 1_554 S
C1082 C1080 1.363 . S
C1082 C1083 1.370 . S
C1082 C1086 1.524 . S
C1083 C1075 1.503 . S
C1083 C1082 1.370 . S
C1083 C1084 1.403 1_554 S
C1084 C1083 1.403 1_556 S
C1084 C1085 1.404 . S
C1084 C1087 1.539 . S
C1085 C1081 1.408 1_556 S
C1085 C1084 1.404 . S
C1085 H1097 0.930 . S
C1086 C1082 1.524 . S
C1086 H1098 0.956 . S
C1086 H1099 0.961 . S
C1086 H1100 0.961 . S
C1087 C1084 1.539 . S
C1087 H1101 0.958 . S
C1087 H1102 0.961 . S
C1087 H1103 0.960 . S
H1088 C1072 0.931 . S
H1089 C1077 0.929 . S
H1090 C1078 0.960 . S
H1091 C1078 0.962 1_554 S
H1092 C1078 0.960 . S
H1093 C1079 0.961 . S
H1094 C1079 0.961 . S
H1095 C1079 0.961 1_556 S
H1096 C1080 0.931 . S
H1097 C1085 0.930 . S
H1098 C1086 0.956 . S
H1099 C1086 0.961 . S
H1100 C1086 0.961 . S
H1101 C1087 0.958 . S
H1102 C1087 0.961 . S
H1103 C1087 0.960 . S
C1104 C1105 1.368 1_554 S
C1104 C1106 1.394 . S
C1104 H1120 0.931 . S
C1105 C1104 1.368 1_556 S
C1105 C1109 1.400 . S
C1106 C1104 1.394 . S
C1106 C1107 1.359 1_554 S
C1106 C1110 1.531 . S
C1107 C1106 1.359 1_556 S
C1107 C1108 1.421 . S
C1107 C1115 1.502 1_556 S
C1108 C1107 1.421 . S
C1108 C1109 1.392 . S
C1108 C1111 1.511 . S
C1109 C1105 1.400 . S
C1109 C1108 1.392 . S
C1109 H1121 0.929 . S
C1110 C1106 1.531 . S
C1110 H1122 0.960 . S
C1110 H1123 0.962 . S
C1110 H1124 0.960 . S
C1111 C1108 1.511 . S
C1111 H1125 0.961 . S
C1111 H1126 0.961 . S
C1111 H1127 0.961 . S
C1112 C1113 1.370 . S
C1112 C1114 1.363 . S
C1112 H1128 0.931 . S
C1113 C1112 1.370 . S
C1113 C1117 1.408 1_554 S
C1114 C1112 1.363 . S
C1114 C1115 1.370 . S
C1114 C1118 1.524 . S
C1115 C1107 1.502 1_554 S
C1115 C1114 1.370 . S
C1115 C1116 1.403 1_554 S
C1116 C1115 1.403 1_556 S
C1116 C1117 1.404 . S
C1116 C1119 1.539 . S
C1117 C1113 1.408 1_556 S
C1117 C1116 1.404 . S
C1117 H1129 0.930 . S
C1118 C1114 1.524 . S
C1118 H1130 0.956 . S
C1118 H1131 0.961 . S
C1118 H1132 0.961 . S
C1119 C1116 1.539 . S
C1119 H1133 0.958 . S
C1119 H1134 0.961 . S
C1119 H1135 0.960 . S
H1120 C1104 0.931 . S
H1121 C1109 0.929 . S
H1122 C1110 0.960 . S
H1123 C1110 0.962 . S
H1124 C1110 0.960 . S
H1125 C1111 0.961 . S
H1126 C1111 0.961 . S
H1127 C1111 0.961 . S
H1128 C1112 0.931 . S
H1129 C1117 0.930 . S
H1130 C1118 0.956 . S
H1131 C1118 0.961 . S
H1132 C1118 0.961 . S
H1133 C1119 0.958 . S
H1134 C1119 0.961 . S
H1135 C1119 0.960 . S
C1136 C1137 1.390 1_455 S
C1136 C1138 1.394 . S
C1136 H1152 0.931 . S
C1137 C1136 1.390 1_655 S
C1137 C1141 1.377 . S
C1138 C1136 1.394 . S
C1138 C1139 1.369 . S
C1138 C1142 1.531 . S
C1139 C1138 1.369 . S
C1139 C1140 1.410 1_455 S
C1139 C1147 1.503 . S
C1140 C1139 1.410 1_655 S
C1140 C1141 1.392 . S
C1140 C1143 1.511 . S
C1141 C1137 1.377 . S
C1141 C1140 1.392 . S
C1141 H1153 0.929 . S
C1142 C1138 1.531 . S
C1142 H1154 0.960 . S
C1142 H1155 0.962 . S
C1142 H1156 0.960 . S
C1143 C1140 1.511 . S
C1143 H1157 0.961 . S
C1143 H1158 0.961 . S
C1143 H1159 0.961 . S
C1144 C1145 1.370 . S
C1144 C1146 1.363 . S
C1144 H1160 0.931 . S
C1145 C1144 1.370 . S
C1145 C1149 1.402 1_455 S
C1146 C1144 1.363 . S
C1146 C1147 1.370 . S
C1146 C1150 1.524 . S
C1147 C1139 1.503 . S
C1147 C1146 1.370 . S
C1147 C1148 1.403 1_455 S
C1148 C1147 1.403 1_655 S
C1148 C1149 1.405 . S
C1148 C1151 1.539 . S
C1149 C1145 1.402 1_655 S
C1149 C1148 1.405 . S
C1149 H1161 0.935 . S
C1150 C1146 1.524 . S
C1150 H1162 0.956 . S
C1150 H1163 0.961 . S
C1150 H1164 0.961 . S
C1151 C1148 1.539 . S
C1151 H1165 0.937 1_655 S
C1151 H1166 0.961 . S
C1151 H1167 0.960 . S
H1152 C1136 0.931 . S
H1153 C1141 0.929 . S
H1154 C1142 0.960 . S
H1155 C1142 0.962 . S
H1156 C1142 0.960 . S
H1157 C1143 0.961 . S
H1158 C1143 0.961 . S
H1159 C1143 0.961 . S
H1160 C1144 0.931 . S
H1161 C1149 0.935 . S
H1162 C1150 0.956 . S
H1163 C1150 0.961 . S
H1164 C1150 0.961 . S
H1165 C1151 0.937 1_455 S
H1166 C1151 0.961 . S
H1167 C1151 0.960 . S
C1168 C1169 1.366 1_565 S
C1168 C1170 1.394 . S
C1168 H1184 0.931 . S
C1169 C1168 1.366 1_545 S
C1169 C1173 1.401 . S
C1170 C1168 1.394 . S
C1170 C1171 1.369 1_565 S
C1170 C1174 1.531 . S
C1171 C1170 1.369 1_545 S
C1171 C1172 1.410 . S
C1171 C1179 1.503 . S
C1172 C1171 1.410 . S
C1172 C1173 1.392 . S
C1172 C1175 1.511 . S
C1173 C1169 1.401 . S
C1173 C1172 1.392 . S
C1173 H1185 0.929 . S
C1174 C1170 1.531 . S
C1174 H1186 0.960 . S
C1174 H1187 0.962 . S
C1174 H1188 0.960 . S
C1175 C1172 1.511 . S
C1175 H1189 0.961 . S
C1175 H1190 0.961 . S
C1175 H1191 0.961 . S
C1176 C1177 1.370 . S
C1176 C1178 1.363 . S
C1176 H1192 0.931 . S
C1177 C1176 1.370 . S
C1177 C1181 1.408 1_545 S
C1178 C1176 1.363 . S
C1178 C1179 1.370 . S
C1178 C1182 1.524 . S
C1179 C1171 1.503 . S
C1179 C1178 1.370 . S
C1179 C1180 1.403 1_545 S
C1180 C1179 1.403 1_565 S
C1180 C1181 1.404 . S
C1180 C1183 1.539 . S
C1181 C1177 1.408 1_565 S
C1181 C1180 1.404 . S
C1181 H1193 0.930 . S
C1182 C1178 1.524 . S
C1182 H1194 0.956 . S
C1182 H1195 0.961 . S
C1182 H1196 0.961 . S
C1183 C1180 1.539 . S
C1183 H1197 0.958 . S
C1183 H1198 0.961 . S
C1183 H1199 0.960 . S
H1184 C1168 0.931 . S
H1185 C1173 0.929 . S
H1186 C1174 0.960 . S
H1187 C1174 0.962 . S
H1188 C1174 0.960 . S
H1189 C1175 0.961 . S
H1190 C1175 0.961 . S
H1191 C1175 0.961 . S
H1192 C1176 0.931 . S
H1193 C1181 0.930 . S
H1194 C1182 0.956 . S
H1195 C1182 0.961 . S
H1196 C1182 0.961 . S
H1197 C1183 0.958 . S
H1198 C1183 0.961 . S
H1199 C1183 0.960 . S
C1200 C1201 1.391 1_655 S
C1200 C1202 1.394 . S
C1200 H1216 0.931 . S
C1201 C1200 1.391 1_455 S
C1201 C1205 1.376 . S
C1202 C1200 1.394 . S
C1202 C1203 1.369 1_655 S
C1202 C1206 1.531 . S
C1203 C1202 1.369 1_455 S
C1203 C1204 1.410 . S
C1203 C1211 1.503 . S
C1204 C1203 1.410 . S
C1204 C1205 1.392 . S
C1204 C1207 1.511 . S
C1205 C1201 1.376 . S
C1205 C1204 1.392 . S
C1205 H1217 0.929 . S
C1206 C1202 1.531 . S
C1206 H1218 0.960 . S
C1206 H1219 0.962 . S
C1206 H1220 0.960 . S
C1207 C1204 1.511 . S
C1207 H1221 0.961 . S
C1207 H1222 0.961 . S
C1207 H1223 0.961 . S
C1208 C1209 1.370 . S
C1208 C1210 1.363 . S
C1208 H1224 0.931 . S
C1209 C1208 1.370 . S
C1209 C1213 1.408 1_455 S
C1210 C1208 1.363 . S
C1210 C1211 1.370 . S
C1210 C1214 1.524 . S
C1211 C1203 1.503 . S
C1211 C1210 1.370 . S
C1211 C1212 1.403 1_455 S
C1212 C1211 1.403 1_655 S
C1212 C1213 1.404 . S
C1212 C1215 1.539 . S
C1213 C1209 1.408 1_655 S
C1213 C1212 1.404 . S
C1213 H1225 0.930 . S
C1214 C1210 1.524 . S
C1214 H1226 0.956 . S
C1214 H1227 0.961 . S
C1214 H1228 0.961 . S
C1215 C1212 1.539 . S
C1215 H1229 0.958 . S
C1215 H1230 0.961 . S
C1215 H1231 0.960 . S
H1216 C1200 0.931 . S
H1217 C1205 0.929 . S
H1218 C1206 0.960 . S
H1219 C1206 0.962 . S
H1220 C1206 0.960 . S
H1221 C1207 0.961 . S
H1222 C1207 0.961 . S
H1223 C1207 0.961 . S
H1224 C1208 0.931 . S
H1225 C1213 0.930 . S
H1226 C1214 0.956 . S
H1227 C1214 0.961 . S
H1228 C1214 0.961 . S
H1229 C1215 0.958 . S
H1230 C1215 0.961 . S
H1231 C1215 0.960 . S
C1232 C1233 1.391 . S
C1232 C1234 1.394 . S
C1232 H1248 0.931 . S
C1233 C1232 1.391 . S
C1233 C1237 1.376 . S
C1234 C1232 1.394 . S
C1234 C1235 1.369 . S
C1234 C1238 1.531 . S
C1235 C1234 1.369 . S
C1235 C1236 1.410 . S
C1235 C1243 1.503 . S
C1236 C1235 1.410 . S
C1236 C1237 1.392 . S
C1236 C1239 1.511 . S
C1237 C1233 1.376 . S
C1237 C1236 1.392 . S
C1237 H1249 0.929 . S
C1238 C1234 1.531 . S
C1238 H1250 0.960 . S
C1238 H1251 0.962 . S
C1238 H1252 0.960 . S
C1239 C1236 1.511 . S
C1239 H1253 0.961 . S
C1239 H1254 0.961 . S
C1239 H1255 0.961 . S
C1240 C1241 1.355 1_565 S
C1240 C1242 1.361 1_565 S
C1240 H1256 0.949 . S
C1241 C1240 1.355 1_545 S
C1241 C1245 1.408 . S
C1242 C1240 1.361 1_545 S
C1242 C1243 1.370 . S
C1242 C1246 1.524 1_545 S
C1243 C1235 1.503 . S
C1243 C1242 1.370 . S
C1243 C1244 1.403 . S
C1244 C1243 1.403 . S
C1244 C1245 1.404 . S
C1244 C1247 1.539 . S
C1245 C1241 1.408 . S
C1245 C1244 1.404 . S
C1245 H1257 0.930 . S
C1246 C1242 1.524 1_565 S
C1246 H1258 0.956 . S
C1246 H1259 0.961 . S
C1246 H1260 0.961 . S
C1247 C1244 1.539 . S
C1247 H1261 0.958 . S
C1247 H1262 0.961 . S
C1247 H1263 0.960 . S
H1248 C1232 0.931 . S
H1249 C1237 0.929 . S
H1250 C1238 0.960 . S
H1251 C1238 0.962 . S
H1252 C1238 0.960 . S
H1253 C1239 0.961 . S
H1254 C1239 0.961 . S
H1255 C1239 0.961 . S
H1256 C1240 0.949 . S
H1257 C1245 0.930 . S
H1258 C1246 0.956 . S
H1259 C1246 0.961 . S
H1260 C1246 0.961 . S
H1261 C1247 0.958 . S
H1262 C1247 0.961 . S
H1263 C1247 0.960 . S
C1264 C1265 1.391 . S
C1264 C1266 1.394 . S
C1264 H1280 0.931 . S
C1265 C1264 1.391 . S
C1265 C1269 1.376 . S
C1266 C1264 1.394 . S
C1266 C1267 1.369 . S
C1266 C1270 1.531 . S
C1267 C1266 1.369 . S
C1267 C1268 1.410 . S
C1267 C1275 1.503 . S
C1268 C1267 1.410 . S
C1268 C1269 1.392 . S
C1268 C1271 1.511 1_455 S
C1269 C1265 1.376 . S
C1269 C1268 1.392 . S
C1269 H1281 0.929 1_455 S
C1270 C1266 1.531 . S
C1270 H1282 0.960 . S
C1270 H1283 0.962 . S
C1270 H1284 0.960 . S
C1271 C1268 1.511 1_655 S
C1271 H1285 0.961 . S
C1271 H1286 0.961 . S
C1271 H1287 0.961 . S
C1272 C1273 1.370 . S
C1272 C1274 1.363 . S
C1272 H1288 0.931 . S
C1273 C1272 1.370 . S
C1273 C1277 1.408 . S
C1274 C1272 1.363 . S
C1274 C1275 1.370 . S
C1274 C1278 1.524 . S
C1275 C1267 1.503 . S
C1275 C1274 1.370 . S
C1275 C1276 1.403 . S
C1276 C1275 1.403 . S
C1276 C1277 1.404 . S
C1276 C1279 1.539 . S
C1277 C1273 1.408 . S
C1277 C1276 1.404 . S
C1277 H1289 0.930 . S
C1278 C1274 1.524 . S
C1278 H1290 0.956 . S
C1278 H1291 0.961 . S
C1278 H1292 0.961 . S
C1279 C1276 1.539 . S
C1279 H1293 0.958 . S
C1279 H1294 0.961 . S
C1279 H1295 0.960 . S
H1280 C1264 0.931 . S
H1281 C1269 0.929 1_655 S
H1282 C1270 0.960 . S
H1283 C1270 0.962 . S
H1284 C1270 0.960 . S
H1285 C1271 0.961 . S
H1286 C1271 0.961 . S
H1287 C1271 0.961 . S
H1288 C1272 0.931 . S
H1289 C1277 0.930 . S
H1290 C1278 0.956 . S
H1291 C1278 0.961 . S
H1292 C1278 0.961 . S
H1293 C1279 0.958 . S
H1294 C1279 0.961 . S
H1295 C1279 0.960 . S
C1296 C1297 1.391 . S
C1296 C1298 1.394 . S
C1296 H1312 0.931 . S
C1297 C1296 1.391 . S
C1297 C1301 1.376 . S
C1298 C1296 1.394 . S
C1298 C1299 1.369 . S
C1298 C1302 1.531 . S
C1299 C1298 1.369 . S
C1299 C1300 1.410 . S
C1299 C1307 1.503 . S
C1300 C1299 1.410 . S
C1300 C1301 1.392 . S
C1300 C1303 1.511 1_545 S
C1301 C1297 1.376 . S
C1301 C1300 1.392 . S
C1301 H1313 0.929 . S
C1302 C1298 1.531 . S
C1302 H1314 0.960 . S
C1302 H1315 0.962 . S
C1302 H1316 0.960 . S
C1303 C1300 1.511 1_565 S
C1303 H1317 0.961 . S
C1303 H1318 0.961 . S
C1303 H1319 0.961 1_565 S
C1304 C1305 1.370 . S
C1304 C1306 1.363 . S
C1304 H1320 0.931 1_545 S
C1305 C1304 1.370 . S
C1305 C1309 1.408 . S
C1306 C1304 1.363 . S
C1306 C1307 1.370 . S
C1306 C1310 1.524 1_545 S
C1307 C1299 1.503 . S
C1307 C1306 1.370 . S
C1307 C1308 1.403 . S
C1308 C1307 1.403 . S
C1308 C1309 1.404 . S
C1308 C1311 1.539 . S
C1309 C1305 1.408 . S
C1309 C1308 1.404 . S
C1309 H1321 0.930 . S
C1310 C1306 1.524 1_565 S
C1310 H1322 0.974 . S
C1310 H1323 0.961 . S
C1310 H1324 0.961 . S
C1311 C1308 1.539 . S
C1311 H1325 0.958 . S
C1311 H1326 0.961 . S
C1311 H1327 0.960 . S
H1312 C1296 0.931 . S
H1313 C1301 0.929 . S
H1314 C1302 0.960 . S
H1315 C1302 0.962 . S
H1316 C1302 0.960 . S
H1317 C1303 0.961 . S
H1318 C1303 0.961 . S
H1319 C1303 0.961 1_545 S
H1320 C1304 0.931 1_565 S
H1321 C1309 0.930 . S
H1322 C1310 0.974 . S
H1323 C1310 0.961 . S
H1324 C1310 0.961 . S
H1325 C1311 0.958 . S
H1326 C1311 0.961 . S
H1327 C1311 0.960 . S
C1328 C1329 1.391 . S
C1328 C1330 1.394 . S
C1328 H1344 0.931 1_455 S
C1329 C1328 1.391 . S
C1329 C1333 1.376 . S
C1330 C1328 1.394 . S
C1330 C1331 1.369 . S
C1330 C1334 1.531 1_455 S
C1331 C1330 1.369 . S
C1331 C1332 1.410 . S
C1331 C1339 1.503 . S
C1332 C1331 1.410 . S
C1332 C1333 1.392 . S
C1332 C1335 1.511 . S
C1333 C1329 1.376 . S
C1333 C1332 1.392 . S
C1333 H1345 0.929 . S
C1334 C1330 1.531 1_655 S
C1334 H1346 0.960 1_655 S
C1334 H1347 0.962 . S
C1334 H1348 0.960 . S
C1335 C1332 1.511 . S
C1335 H1349 0.961 . S
C1335 H1350 0.961 . S
C1335 H1351 0.961 . S
C1336 C1337 1.370 . S
C1336 C1338 1.363 . S
C1336 H1352 0.931 1_455 S
C1337 C1336 1.370 . S
C1337 C1341 1.408 . S
C1338 C1336 1.363 . S
C1338 C1339 1.370 . S
C1338 C1342 1.524 1_455 S
C1339 C1331 1.503 . S
C1339 C1338 1.370 . S
C1339 C1340 1.403 . S
C1340 C1339 1.403 . S
C1340 C1341 1.404 . S
C1340 C1343 1.539 . S
C1341 C1337 1.408 . S
C1341 C1340 1.404 . S
C1341 H1353 0.930 . S
C1342 C1338 1.524 1_655 S
C1342 H1354 0.956 . S
C1342 H1355 0.961 . S
C1342 H1356 0.961 . S
C1343 C1340 1.539 . S
C1343 H1357 0.958 . S
C1343 H1358 0.961 . S
C1343 H1359 0.960 . S
H1344 C1328 0.931 1_655 S
H1345 C1333 0.929 . S
H1346 C1334 0.960 1_455 S
H1347 C1334 0.962 . S
H1348 C1334 0.960 . S
H1349 C1335 0.961 . S
H1350 C1335 0.961 . S
H1351 C1335 0.961 . S
H1352 C1336 0.931 1_655 S
H1353 C1341 0.930 . S
H1354 C1342 0.956 . S
H1355 C1342 0.961 . S
H1356 C1342 0.961 . S
H1357 C1343 0.958 . S
H1358 C1343 0.961 . S
H1359 C1343 0.960 . S
C1360 C1361 1.394 1_565 S
C1360 C1362 1.394 . S
C1360 H1376 0.931 . S
C1361 C1360 1.394 1_545 S
C1361 C1365 1.373 . S
C1362 C1360 1.394 . S
C1362 C1363 1.369 1_565 S
C1362 C1366 1.531 . S
C1363 C1362 1.369 1_545 S
C1363 C1364 1.410 . S
C1363 C1371 1.503 . S
C1364 C1363 1.410 . S
C1364 C1365 1.392 . S
C1364 C1367 1.511 . S
C1365 C1361 1.373 . S
C1365 C1364 1.392 . S
C1365 H1377 0.929 . S
C1366 C1362 1.531 . S
C1366 H1378 0.960 . S
C1366 H1379 0.962 . S
C1366 H1380 0.960 . S
C1367 C1364 1.511 . S
C1367 H1381 0.961 . S
C1367 H1382 0.961 . S
C1367 H1383 0.961 . S
C1368 C1369 1.370 . S
C1368 C1370 1.363 . S
C1368 H1384 0.931 . S
C1369 C1368 1.370 . S
C1369 C1373 1.408 1_545 S
C1370 C1368 1.363 . S
C1370 C1371 1.370 . S
C1370 C1374 1.524 . S
C1371 C1363 1.503 . S
C1371 C1370 1.370 . S
C1371 C1372 1.403 1_545 S
C1372 C1371 1.403 1_565 S
C1372 C1373 1.404 . S
C1372 C1375 1.539 . S
C1373 C1369 1.408 1_565 S
C1373 C1372 1.404 . S
C1373 H1385 0.930 . S
C1374 C1370 1.524 . S
C1374 H1386 0.956 . S
C1374 H1387 0.961 . S
C1374 H1388 0.961 . S
C1375 C1372 1.539 . S
C1375 H1389 0.958 . S
C1375 H1390 0.961 . S
C1375 H1391 0.960 . S
H1376 C1360 0.931 . S
H1377 C1365 0.929 . S
H1378 C1366 0.960 . S
H1379 C1366 0.962 . S
H1380 C1366 0.960 . S
H1381 C1367 0.961 . S
H1382 C1367 0.961 . S
H1383 C1367 0.961 . S
H1384 C1368 0.931 . S
H1385 C1373 0.930 . S
H1386 C1374 0.956 . S
H1387 C1374 0.961 . S
H1388 C1374 0.961 . S
H1389 C1375 0.958 . S
H1390 C1375 0.961 . S
H1391 C1375 0.960 . S
C1392 C1393 1.391 . S
C1392 C1394 1.394 . S
C1392 H1408 0.931 . S
C1393 C1392 1.391 . S
C1393 C1397 1.376 . S
C1394 C1392 1.394 . S
C1394 C1395 1.369 . S
C1394 C1398 1.531 . S
C1395 C1394 1.369 . S
C1395 C1396 1.410 . S
C1395 C1403 1.503 . S
C1396 C1395 1.410 . S
C1396 C1397 1.392 . S
C1396 C1399 1.511 1_455 S
C1397 C1393 1.376 . S
C1397 C1396 1.392 . S
C1397 H1409 0.929 . S
C1398 C1394 1.531 . S
C1398 H1410 0.960 . S
C1398 H1411 0.962 . S
C1398 H1412 0.960 . S
C1399 C1396 1.511 1_655 S
C1399 H1413 0.961 . S
C1399 H1414 0.959 1_655 S
C1399 H1415 0.961 . S
C1400 C1401 1.370 . S
C1400 C1402 1.363 . S
C1400 H1416 0.931 . S
C1401 C1400 1.370 . S
C1401 C1405 1.408 . S
C1402 C1400 1.363 . S
C1402 C1403 1.370 . S
C1402 C1406 1.524 . S
C1403 C1395 1.503 . S
C1403 C1402 1.370 . S
C1403 C1404 1.403 . S
C1404 C1403 1.403 . S
C1404 C1405 1.404 . S
C1404 C1407 1.539 1_455 S
C1405 C1401 1.408 . S
C1405 C1404 1.404 . S
C1405 H1417 0.930 . S
C1406 C1402 1.524 . S
C1406 H1418 0.956 . S
C1406 H1419 0.961 . S
C1406 H1420 0.961 . S
C1407 C1404 1.539 1_655 S
C1407 H1421 0.958 1_655 S
C1407 H1422 0.961 . S
C1407 H1423 0.960 . S
H1408 C1392 0.931 . S
H1409 C1397 0.929 . S
H1410 C1398 0.960 . S
H1411 C1398 0.962 . S
H1412 C1398 0.960 . S
H1413 C1399 0.961 . S
H1414 C1399 0.959 1_455 S
H1415 C1399 0.961 . S
H1416 C1400 0.931 . S
H1417 C1405 0.930 . S
H1418 C1406 0.956 . S
H1419 C1406 0.961 . S
H1420 C1406 0.961 . S
H1421 C1407 0.958 1_455 S
H1422 C1407 0.961 . S
H1423 C1407 0.960 . S
C1424 C1425 1.391 . S
C1424 C1426 1.394 . S
C1424 H1440 0.931 . S
C1425 C1424 1.391 . S
C1425 C1429 1.376 . S
C1426 C1424 1.394 . S
C1426 C1427 1.369 . S
C1426 C1430 1.531 1_545 S
C1427 C1426 1.369 . S
C1427 C1428 1.410 . S
C1427 C1435 1.503 . S
C1428 C1427 1.410 . S
C1428 C1429 1.392 . S
C1428 C1431 1.511 . S
C1429 C1425 1.376 . S
C1429 C1428 1.392 . S
C1429 H1441 0.929 . S
C1430 C1426 1.531 1_565 S
C1430 H1442 0.960 . S
C1430 H1443 0.962 1_565 S
C1430 H1444 0.960 . S
C1431 C1428 1.511 . S
C1431 H1445 0.961 . S
C1431 H1446 0.961 . S
C1431 H1447 0.961 . S
C1432 C1433 1.370 . S
C1432 C1434 1.363 . S
C1432 H1448 0.931 . S
C1433 C1432 1.370 . S
C1433 C1437 1.408 1_545 S
C1434 C1432 1.363 . S
C1434 C1435 1.370 . S
C1434 C1438 1.524 . S
C1435 C1427 1.503 . S
C1435 C1434 1.370 . S
C1435 C1436 1.403 1_545 S
C1436 C1435 1.403 1_565 S
C1436 C1437 1.404 . S
C1436 C1439 1.539 . S
C1437 C1433 1.408 1_565 S
C1437 C1436 1.404 . S
C1437 H1449 0.930 . S
C1438 C1434 1.524 . S
C1438 H1450 0.956 . S
C1438 H1451 0.961 . S
C1438 H1452 0.961 . S
C1439 C1436 1.539 . S
C1439 H1453 0.958 . S
C1439 H1454 0.961 . S
C1439 H1455 0.960 . S
H1440 C1424 0.931 . S
H1441 C1429 0.929 . S
H1442 C1430 0.960 . S
H1443 C1430 0.962 1_545 S
H1444 C1430 0.960 . S
H1445 C1431 0.961 . S
H1446 C1431 0.961 . S
H1447 C1431 0.961 . S
H1448 C1432 0.931 . S
H1449 C1437 0.930 . S
H1450 C1438 0.956 . S
H1451 C1438 0.961 . S
H1452 C1438 0.961 . S
H1453 C1439 0.958 . S
H1454 C1439 0.961 . S
H1455 C1439 0.960 . S
C1456 C1457 1.391 . S
C1456 C1458 1.394 . S
C1456 H1472 0.931 . S
C1457 C1456 1.391 . S
C1457 C1461 1.376 . S
C1458 C1456 1.394 . S
C1458 C1459 1.369 . S
C1458 C1462 1.531 . S
C1459 C1458 1.369 . S
C1459 C1460 1.410 . S
C1459 C1467 1.503 . S
C1460 C1459 1.410 . S
C1460 C1461 1.392 . S
C1460 C1463 1.504 1_455 S
C1461 C1457 1.376 . S
C1461 C1460 1.392 . S
C1461 H1473 0.929 . S
C1462 C1458 1.531 . S
C1462 H1474 0.960 . S
C1462 H1475 0.962 . S
C1462 H1476 0.960 . S
C1463 C1460 1.504 1_655 S
C1463 H1477 0.958 1_655 S
C1463 H1478 0.950 1_655 S
C1463 H1479 0.983 . S
C1464 C1465 1.370 . S
C1464 C1466 1.363 . S
C1464 H1480 0.931 . S
C1465 C1464 1.370 . S
C1465 C1469 1.408 . S
C1466 C1464 1.363 . S
C1466 C1467 1.370 . S
C1466 C1470 1.524 . S
C1467 C1459 1.503 . S
C1467 C1466 1.370 . S
C1467 C1468 1.403 . S
C1468 C1467 1.403 . S
C1468 C1469 1.404 . S
C1468 C1471 1.539 1_455 S
C1469 C1465 1.408 . S
C1469 C1468 1.404 . S
C1469 H1481 0.930 1_455 S
C1470 C1466 1.524 . S
C1470 H1482 0.956 . S
C1470 H1483 0.961 . S
C1470 H1484 0.961 . S
C1471 C1468 1.539 1_655 S
C1471 H1485 0.958 . S
C1471 H1486 0.961 . S
C1471 H1487 0.960 . S
H1472 C1456 0.931 . S
H1473 C1461 0.929 . S
H1474 C1462 0.960 . S
H1475 C1462 0.962 . S
H1476 C1462 0.960 . S
H1477 C1463 0.958 1_455 S
H1478 C1463 0.950 1_455 S
H1479 C1463 0.983 . S
H1480 C1464 0.931 . S
H1481 C1469 0.930 1_655 S
H1482 C1470 0.956 . S
H1483 C1470 0.961 . S
H1484 C1470 0.961 . S
H1485 C1471 0.958 . S
H1486 C1471 0.961 . S
H1487 C1471 0.960 . S
C1488 C1489 1.400 . S
C1488 C1490 1.394 . S
C1488 H1504 0.931 . S
C1489 C1488 1.400 . S
C1489 C1493 1.367 1_565 S
C1490 C1488 1.394 . S
C1490 C1491 1.347 1_565 S
C1490 C1494 1.531 . S
C1491 C1490 1.347 1_545 S
C1491 C1492 1.431 . S
C1491 C1499 1.508 . S
C1492 C1491 1.431 . S
C1492 C1493 1.392 . S
C1492 C1495 1.511 . S
C1493 C1489 1.367 1_545 S
C1493 C1492 1.392 . S
C1493 H1505 0.929 . S
C1494 C1490 1.531 . S
C1494 H1506 0.960 . S
C1494 H1507 0.962 . S
C1494 H1508 0.960 . S
C1495 C1492 1.511 . S
C1495 H1509 0.961 . S
C1495 H1510 0.961 . S
C1495 H1511 0.961 . S
C1496 C1497 1.370 . S
C1496 C1498 1.363 . S
C1496 H1512 0.931 . S
C1497 C1496 1.370 . S
C1497 C1501 1.408 1_545 S
C1498 C1496 1.363 . S
C1498 C1499 1.370 . S
C1498 C1502 1.524 . S
C1499 C1491 1.508 . S
C1499 C1498 1.370 . S
C1499 C1500 1.403 1_545 S
C1500 C1499 1.403 1_565 S
C1500 C1501 1.404 . S
C1500 C1503 1.539 . S
C1501 C1497 1.408 1_565 S
C1501 C1500 1.404 . S
C1501 H1513 0.930 . S
C1502 C1498 1.524 . S
C1502 H1514 0.956 . S
C1502 H1515 0.961 . S
C1502 H1516 0.961 . S
C1503 C1500 1.539 . S
C1503 H1517 0.958 . S
C1503 H1518 0.961 . S
C1503 H1519 0.960 . S
H1504 C1488 0.931 . S
H1505 C1493 0.929 . S
H1506 C1494 0.960 . S
H1507 C1494 0.962 . S
H1508 C1494 0.960 . S
H1509 C1495 0.961 . S
H1510 C1495 0.961 . S
H1511 C1495 0.961 . S
H1512 C1496 0.931 . S
H1513 C1501 0.930 . S
H1514 C1502 0.956 . S
H1515 C1502 0.961 . S
H1516 C1502 0.961 . S
H1517 C1503 0.958 . S
H1518 C1503 0.961 . S
H1519 C1503 0.960 . S
C1520 C1521 1.391 1_655 S
C1520 C1522 1.394 . S
C1520 H1536 0.931 . S
C1521 C1520 1.391 1_455 S
C1521 C1525 1.376 . S
C1522 C1520 1.394 . S
C1522 C1523 1.369 1_655 S
C1522 C1526 1.531 . S
C1523 C1522 1.369 1_455 S
C1523 C1524 1.410 . S
C1523 C1531 1.503 . S
C1524 C1523 1.410 . S
C1524 C1525 1.392 . S
C1524 C1527 1.511 . S
C1525 C1521 1.376 . S
C1525 C1524 1.392 . S
C1525 H1537 0.929 . S
C1526 C1522 1.531 . S
C1526 H1538 0.960 . S
C1526 H1539 0.962 . S
C1526 H1540 0.960 . S
C1527 C1524 1.511 . S
C1527 H1541 0.961 . S
C1527 H1542 0.961 . S
C1527 H1543 0.961 . S
C1528 C1529 1.370 1_655 S
C1528 C1530 1.363 . S
C1528 H1544 0.931 . S
C1529 C1528 1.370 1_455 S
C1529 C1533 1.408 . S
C1530 C1528 1.363 . S
C1530 C1531 1.370 1_655 S
C1530 C1534 1.524 . S
C1531 C1523 1.503 . S
C1531 C1530 1.370 1_455 S
C1531 C1532 1.403 . S
C1532 C1531 1.403 . S
C1532 C1533 1.404 . S
C1532 C1535 1.539 . S
C1533 C1529 1.408 . S
C1533 C1532 1.404 . S
C1533 H1545 0.930 . S
C1534 C1530 1.524 . S
C1534 H1546 0.956 . S
C1534 H1547 0.961 . S
C1534 H1548 0.961 . S
C1535 C1532 1.539 . S
C1535 H1549 0.958 . S
C1535 H1550 0.961 . S
C1535 H1551 0.960 . S
H1536 C1520 0.931 . S
H1537 C1525 0.929 . S
H1538 C1526 0.960 . S
H1539 C1526 0.962 . S
H1540 C1526 0.960 . S
H1541 C1527 0.961 . S
H1542 C1527 0.961 . S
H1543 C1527 0.961 . S
H1544 C1528 0.931 . S
H1545 C1533 0.930 . S
H1546 C1534 0.956 . S
H1547 C1534 0.961 . S
H1548 C1534 0.961 . S
H1549 C1535 0.958 . S
H1550 C1535 0.961 . S
H1551 C1535 0.960 . S
C1552 C1553 1.391 1_565 S
C1552 C1554 1.394 . S
C1552 H1568 0.931 . S
C1553 C1552 1.391 1_545 S
C1553 C1557 1.376 . S
C1554 C1552 1.394 . S
C1554 C1555 1.369 1_565 S
C1554 C1558 1.531 . S
C1555 C1554 1.369 1_545 S
C1555 C1556 1.410 . S
C1555 C1563 1.503 . S
C1556 C1555 1.410 . S
C1556 C1557 1.392 . S
C1556 C1559 1.511 . S
C1557 C1553 1.376 . S
C1557 C1556 1.392 . S
C1557 H1569 0.929 . S
C1558 C1554 1.531 . S
C1558 H1570 0.960 . S
C1558 H1571 0.962 . S
C1558 H1572 0.960 . S
C1559 C1556 1.511 . S
C1559 H1573 0.961 . S
C1559 H1574 0.961 . S
C1559 H1575 0.961 . S
C1560 C1561 1.370 . S
C1560 C1562 1.363 . S
C1560 H1576 0.931 . S
C1561 C1560 1.370 . S
C1561 C1565 1.408 1_545 S
C1562 C1560 1.363 . S
C1562 C1563 1.370 . S
C1562 C1566 1.524 . S
C1563 C1555 1.503 . S
C1563 C1562 1.370 . S
C1563 C1564 1.403 1_545 S
C1564 C1563 1.403 1_565 S
C1564 C1565 1.404 . S
C1564 C1567 1.539 . S
C1565 C1561 1.408 1_565 S
C1565 C1564 1.404 . S
C1565 H1577 0.930 . S
C1566 C1562 1.524 . S
C1566 H1578 0.956 . S
C1566 H1579 0.961 . S
C1566 H1580 0.961 . S
C1567 C1564 1.539 . S
C1567 H1581 0.958 . S
C1567 H1582 0.961 . S
C1567 H1583 0.960 . S
H1568 C1552 0.931 . S
H1569 C1557 0.929 . S
H1570 C1558 0.960 . S
H1571 C1558 0.962 . S
H1572 C1558 0.960 . S
H1573 C1559 0.961 . S
H1574 C1559 0.961 . S
H1575 C1559 0.961 . S
H1576 C1560 0.931 . S
H1577 C1565 0.930 . S
H1578 C1566 0.956 . S
H1579 C1566 0.961 . S
H1580 C1566 0.961 . S
H1581 C1567 0.958 . S
H1582 C1567 0.961 . S
H1583 C1567 0.960 . S
C1584 C1585 1.391 . S
C1584 C1586 1.394 . S
C1584 H1600 0.931 . S
C1585 C1584 1.391 . S
C1585 C1589 1.376 . S
C1586 C1584 1.394 . S
C1586 C1587 1.369 . S
C1586 C1590 1.531 . S
C1587 C1586 1.369 . S
C1587 C1588 1.410 . S
C1587 C1595 1.503 . S
C1588 C1587 1.410 . S
C1588 C1589 1.392 . S
C1588 C1591 1.511 . S
C1589 C1585 1.376 . S
C1589 C1588 1.392 . S
C1589 H1601 0.929 . S
C1590 C1586 1.531 . S
C1590 H1602 0.960 . S
C1590 H1603 0.962 1_455 S
C1590 H1604 0.960 . S
C1591 C1588 1.511 . S
C1591 H1605 0.961 . S
C1591 H1606 0.961 . S
C1591 H1607 0.961 . S
C1592 C1593 1.370 . S
C1592 C1594 1.363 . S
C1592 H1608 0.931 1_455 S
C1593 C1592 1.370 . S
C1593 C1597 1.408 . S
C1594 C1592 1.363 . S
C1594 C1595 1.370 . S
C1594 C1598 1.524 1_455 S
C1595 C1587 1.503 . S
C1595 C1594 1.370 . S
C1595 C1596 1.403 . S
C1596 C1595 1.403 . S
C1596 C1597 1.404 . S
C1596 C1599 1.539 . S
C1597 C1593 1.408 . S
C1597 C1596 1.404 . S
C1597 H1609 0.930 . S
C1598 C1594 1.524 1_655 S
C1598 H1610 0.956 . S
C1598 H1611 0.961 . S
C1598 H1612 0.961 . S
C1599 C1596 1.539 . S
C1599 H1613 0.958 . S
C1599 H1614 0.961 . S
C1599 H1615 0.960 . S
H1600 C1584 0.931 . S
H1601 C1589 0.929 . S
H1602 C1590 0.960 . S
H1603 C1590 0.962 1_655 S
H1604 C1590 0.960 . S
H1605 C1591 0.961 . S
H1606 C1591 0.961 . S
H1607 C1591 0.961 . S
H1608 C1592 0.931 1_655 S
H1609 C1597 0.930 . S
H1610 C1598 0.956 . S
H1611 C1598 0.961 . S
H1612 C1598 0.961 . S
H1613 C1599 0.958 . S
H1614 C1599 0.961 . S
H1615 C1599 0.960 . S
C1616 C1617 1.391 . S
C1616 C1618 1.394 . S
C1616 H1632 0.931 . S
C1617 C1616 1.391 . S
C1617 C1621 1.376 . S
C1618 C1616 1.394 . S
C1618 C1619 1.369 . S
C1618 C1622 1.531 . S
C1619 C1618 1.369 . S
C1619 C1620 1.410 . S
C1619 C1627 1.503 . S
C1620 C1619 1.410 . S
C1620 C1621 1.392 . S
C1620 C1623 1.511 . S
C1621 C1617 1.376 . S
C1621 C1620 1.392 . S
C1621 H1633 0.929 . S
C1622 C1618 1.531 . S
C1622 H1634 0.960 . S
C1622 H1635 0.962 1_545 S
C1622 H1636 0.960 . S
C1623 C1620 1.511 . S
C1623 H1637 0.961 . S
C1623 H1638 0.961 . S
C1623 H1639 0.961 . S
C1624 C1625 1.370 1_565 S
C1624 C1626 1.363 1_565 S
C1624 H1640 0.931 . S
C1625 C1624 1.370 1_545 S
C1625 C1629 1.408 . S
C1626 C1624 1.363 1_545 S
C1626 C1627 1.370 . S
C1626 C1630 1.524 1_545 S
C1627 C1619 1.503 . S
C1627 C1626 1.370 . S
C1627 C1628 1.403 . S
C1628 C1627 1.403 . S
C1628 C1629 1.404 . S
C1628 C1631 1.539 . S
C1629 C1625 1.408 . S
C1629 C1628 1.404 . S
C1629 H1641 0.930 . S
C1630 C1626 1.524 1_565 S
C1630 H1642 0.956 . S
C1630 H1643 0.961 . S
C1630 H1644 0.961 . S
C1631 C1628 1.539 . S
C1631 H1645 0.958 . S
C1631 H1646 0.961 . S
C1631 H1647 0.960 . S
H1632 C1616 0.931 . S
H1633 C1621 0.929 . S
H1634 C1622 0.960 . S
H1635 C1622 0.962 1_565 S
H1636 C1622 0.960 . S
H1637 C1623 0.961 . S
H1638 C1623 0.961 . S
H1639 C1623 0.961 . S
H1640 C1624 0.931 . S
H1641 C1629 0.930 . S
H1642 C1630 0.956 . S
H1643 C1630 0.961 . S
H1644 C1630 0.961 . S
H1645 C1631 0.958 . S
H1646 C1631 0.961 . S
H1647 C1631 0.960 . S
C1648 C1649 1.391 . S
C1648 C1650 1.394 . S
C1648 H1664 0.931 . S
C1649 C1648 1.391 . S
C1649 C1653 1.376 1_545 S
C1650 C1648 1.394 . S
C1650 C1651 1.369 . S
C1650 C1654 1.531 . S
C1651 C1650 1.369 . S
C1651 C1652 1.410 1_545 S
C1651 C1659 1.503 . S
C1652 C1651 1.410 1_565 S
C1652 C1653 1.392 . S
C1652 C1655 1.511 . S
C1653 C1649 1.376 1_565 S
C1653 C1652 1.392 . S
C1653 H1665 0.929 . S
C1654 C1650 1.531 . S
C1654 H1666 0.960 . S
C1654 H1667 0.962 . S
C1654 H1668 0.960 . S
C1655 C1652 1.511 . S
C1655 H1669 0.961 . S
C1655 H1670 0.961 . S
C1655 H1671 0.961 1_565 S
C1656 C1657 1.370 1_565 S
C1656 C1658 1.363 . S
C1656 H1672 0.931 . S
C1657 C1656 1.370 1_545 S
C1657 C1661 1.408 . S
C1658 C1656 1.363 . S
C1658 C1659 1.370 1_565 S
C1658 C1662 1.524 . S
C1659 C1651 1.503 . S
C1659 C1658 1.370 1_545 S
C1659 C1660 1.403 . S
C1660 C1659 1.403 . S
C1660 C1661 1.404 . S
C1660 C1663 1.539 . S
C1661 C1657 1.408 . S
C1661 C1660 1.404 . S
C1661 H1673 0.930 . S
C1662 C1658 1.524 . S
C1662 H1674 0.956 . S
C1662 H1675 0.961 . S
C1662 H1676 0.961 . S
C1663 C1660 1.539 . S
C1663 H1677 0.958 . S
C1663 H1678 0.961 . S
C1663 H1679 0.960 . S
H1664 C1648 0.931 . S
H1665 C1653 0.929 . S
H1666 C1654 0.960 . S
H1667 C1654 0.962 . S
H1668 C1654 0.960 . S
H1669 C1655 0.961 . S
H1670 C1655 0.961 . S
H1671 C1655 0.961 1_545 S
H1672 C1656 0.931 . S
H1673 C1661 0.930 . S
H1674 C1662 0.956 . S
H1675 C1662 0.961 . S
H1676 C1662 0.961 . S
H1677 C1663 0.958 . S
H1678 C1663 0.961 . S
H1679 C1663 0.960 . S
C1680 C1681 1.391 . S
C1680 C1682 1.394 1_455 S
C1680 H1696 0.931 1_455 S
C1681 C1680 1.391 . S
C1681 C1685 1.376 . S
C1682 C1680 1.394 1_655 S
C1682 C1683 1.369 1_655 S
C1682 C1686 1.531 . S
C1683 C1682 1.369 1_455 S
C1683 C1684 1.410 . S
C1683 C1691 1.503 . S
C1684 C1683 1.410 . S
C1684 C1685 1.392 . S
C1684 C1687 1.511 . S
C1685 C1681 1.376 . S
C1685 C1684 1.392 . S
C1685 H1697 0.929 . S
C1686 C1682 1.531 . S
C1686 H1698 0.960 . S
C1686 H1699 0.962 . S
C1686 H1700 0.960 . S
C1687 C1684 1.511 . S
C1687 H1701 0.961 . S
C1687 H1702 0.961 . S
C1687 H1703 0.961 . S
C1688 C1689 1.370 . S
C1688 C1690 1.363 . S
C1688 H1704 0.931 . S
C1689 C1688 1.370 . S
C1689 C1693 1.408 . S
C1690 C1688 1.363 . S
C1690 C1691 1.370 . S
C1690 C1694 1.524 . S
C1691 C1683 1.503 . S
C1691 C1690 1.370 . S
C1691 C1692 1.403 . S
C1692 C1691 1.403 . S
C1692 C1693 1.404 . S
C1692 C1695 1.539 . S
C1693 C1689 1.408 . S
C1693 C1692 1.404 . S
C1693 H1705 0.930 1_455 S
C1694 C1690 1.524 . S
C1694 H1706 0.956 . S
C1694 H1707 0.961 . S
C1694 H1708 0.961 . S
C1695 C1692 1.539 . S
C1695 H1709 0.958 1_455 S
C1695 H1710 0.961 . S
C1695 H1711 0.960 . S
H1696 C1680 0.931 1_655 S
H1697 C1685 0.929 . S
H1698 C1686 0.960 . S
H1699 C1686 0.962 . S
H1700 C1686 0.960 . S
H1701 C1687 0.961 . S
H1702 C1687 0.961 . S
H1703 C1687 0.961 . S
H1704 C1688 0.931 . S
H1705 C1693 0.930 1_655 S
H1706 C1694 0.956 . S
H1707 C1694 0.961 . S
H1708 C1694 0.961 . S
H1709 C1695 0.958 1_655 S
H1710 C1695 0.961 . S
H1711 C1695 0.960 . S
C1712 C1713 1.391 . S
C1712 C1714 1.394 . S
C1712 H1728 0.931 1_545 S
C1713 C1712 1.391 . S
C1713 C1717 1.376 . S
C1714 C1712 1.394 . S
C1714 C1715 1.369 . S
C1714 C1718 1.531 1_545 S
C1715 C1714 1.369 . S
C1715 C1716 1.410 . S
C1715 C1723 1.503 . S
C1716 C1715 1.410 . S
C1716 C1717 1.392 . S
C1716 C1719 1.511 . S
C1717 C1713 1.376 . S
C1717 C1716 1.392 . S
C1717 H1729 0.929 . S
C1718 C1714 1.531 1_565 S
C1718 H1730 0.960 . S
C1718 H1731 0.962 . S
C1718 H1732 0.960 . S
C1719 C1716 1.511 . S
C1719 H1733 0.961 . S
C1719 H1734 0.961 . S
C1719 H1735 0.961 . S
C1720 C1721 1.370 . S
C1720 C1722 1.363 . S
C1720 H1736 0.931 . S
C1721 C1720 1.370 . S
C1721 C1725 1.408 . S
C1722 C1720 1.363 . S
C1722 C1723 1.370 . S
C1722 C1726 1.524 . S
C1723 C1715 1.503 . S
C1723 C1722 1.370 . S
C1723 C1724 1.403 . S
C1724 C1723 1.403 . S
C1724 C1725 1.404 . S
C1724 C1727 1.539 . S
C1725 C1721 1.408 . S
C1725 C1724 1.404 . S
C1725 H1737 0.930 . S
C1726 C1722 1.524 . S
C1726 H1738 0.956 . S
C1726 H1739 0.961 . S
C1726 H1740 0.961 . S
C1727 C1724 1.539 . S
C1727 H1741 0.958 . S
C1727 H1742 0.961 . S
C1727 H1743 0.960 . S
H1728 C1712 0.931 1_565 S
H1729 C1717 0.929 . S
H1730 C1718 0.960 . S
H1731 C1718 0.962 . S
H1732 C1718 0.960 . S
H1733 C1719 0.961 . S
H1734 C1719 0.961 . S
H1735 C1719 0.961 . S
H1736 C1720 0.931 . S
H1737 C1725 0.930 . S
H1738 C1726 0.956 . S
H1739 C1726 0.961 . S
H1740 C1726 0.961 . S
H1741 C1727 0.958 . S
H1742 C1727 0.961 . S
H1743 C1727 0.960 . S
C1744 C1745 1.391 . S
C1744 C1746 1.394 . S
C1744 H1760 0.931 . S
C1745 C1744 1.391 . S
C1745 C1749 1.376 1_455 S
C1746 C1744 1.394 . S
C1746 C1747 1.369 . S
C1746 C1750 1.531 . S
C1747 C1746 1.369 . S
C1747 C1748 1.410 1_455 S
C1747 C1755 1.503 . S
C1748 C1747 1.410 1_655 S
C1748 C1749 1.392 . S
C1748 C1751 1.511 . S
C1749 C1745 1.376 1_655 S
C1749 C1748 1.392 . S
C1749 H1761 0.929 . S
C1750 C1746 1.531 . S
C1750 H1762 0.960 . S
C1750 H1763 0.962 . S
C1750 H1764 0.960 . S
C1751 C1748 1.511 . S
C1751 H1765 0.961 . S
C1751 H1766 0.961 . S
C1751 H1767 0.961 . S
C1752 C1753 1.370 . S
C1752 C1754 1.363 . S
C1752 H1768 0.931 . S
C1753 C1752 1.370 . S
C1753 C1757 1.408 1_455 S
C1754 C1752 1.363 . S
C1754 C1755 1.370 . S
C1754 C1758 1.524 . S
C1755 C1747 1.503 . S
C1755 C1754 1.370 . S
C1755 C1756 1.412 . S
C1756 C1755 1.412 . S
C1756 C1757 1.401 1_455 S
C1756 C1759 1.532 1_455 S
C1757 C1753 1.408 1_655 S
C1757 C1756 1.401 1_655 S
C1757 H1769 0.930 . S
C1758 C1754 1.524 . S
C1758 H1770 0.956 . S
C1758 H1771 0.961 . S
C1758 H1772 0.961 . S
C1759 C1756 1.532 1_655 S
C1759 H1773 0.958 1_655 S
C1759 H1774 0.961 . S
C1759 H1775 0.960 . S
H1760 C1744 0.931 . S
H1761 C1749 0.929 . S
H1762 C1750 0.960 . S
H1763 C1750 0.962 . S
H1764 C1750 0.960 . S
H1765 C1751 0.961 . S
H1766 C1751 0.961 . S
H1767 C1751 0.961 . S
H1768 C1752 0.931 . S
H1769 C1757 0.930 . S
H1770 C1758 0.956 . S
H1771 C1758 0.961 . S
H1772 C1758 0.961 . S
H1773 C1759 0.958 1_455 S
H1774 C1759 0.961 . S
H1775 C1759 0.960 . S
C1776 C1777 1.391 1_565 S
C1776 C1778 1.394 . S
C1776 H1792 0.931 . S
C1777 C1776 1.391 1_545 S
C1777 C1781 1.375 . S
C1778 C1776 1.394 . S
C1778 C1779 1.369 . S
C1778 C1782 1.531 . S
C1779 C1778 1.369 . S
C1779 C1780 1.411 . S
C1779 C1787 1.503 1_565 S
C1780 C1779 1.411 . S
C1780 C1781 1.391 1_565 S
C1780 C1783 1.510 1_565 S
C1781 C1777 1.375 . S
C1781 C1780 1.391 1_545 S
C1781 H1793 0.932 . S
C1782 C1778 1.531 . S
C1782 H1794 0.960 . S
C1782 H1795 0.962 1_565 S
C1782 H1796 0.960 . S
C1783 C1780 1.510 1_545 S
C1783 H1797 0.966 . S
C1783 H1798 0.966 . S
C1783 H1799 0.951 1_545 S
C1784 C1785 1.370 . S
C1784 C1786 1.363 . S
C1784 H1800 0.931 . S
C1785 C1784 1.370 . S
C1785 C1789 1.408 1_545 S
C1786 C1784 1.363 . S
C1786 C1787 1.369 . S
C1786 C1790 1.524 . S
C1787 C1779 1.503 1_545 S
C1787 C1786 1.369 . S
C1787 C1788 1.404 1_545 S
C1788 C1787 1.404 1_565 S
C1788 C1789 1.404 . S
C1788 C1791 1.539 . S
C1789 C1785 1.408 1_565 S
C1789 C1788 1.404 . S
C1789 H1801 0.930 . S
C1790 C1786 1.524 . S
C1790 H1802 0.956 . S
C1790 H1803 0.961 . S
C1790 H1804 0.961 . S
C1791 C1788 1.539 . S
C1791 H1805 0.958 . S
C1791 H1806 0.961 . S
C1791 H1807 0.960 . S
H1792 C1776 0.931 . S
H1793 C1781 0.932 . S
H1794 C1782 0.960 . S
H1795 C1782 0.962 1_545 S
H1796 C1782 0.960 . S
H1797 C1783 0.966 . S
H1798 C1783 0.966 . S
H1799 C1783 0.951 1_565 S
H1800 C1784 0.931 . S
H1801 C1789 0.930 . S
H1802 C1790 0.956 . S
H1803 C1790 0.961 . S
H1804 C1790 0.961 . S
H1805 C1791 0.958 . S
H1806 C1791 0.961 . S
H1807 C1791 0.960 . S
C1808 C1809 1.391 . S
C1808 C1810 1.394 . S
C1808 H1824 0.931 . S
C1809 C1808 1.391 . S
C1809 C1813 1.376 1_455 S
C1810 C1808 1.394 . S
C1810 C1811 1.369 . S
C1810 C1814 1.531 . S
C1811 C1810 1.369 . S
C1811 C1812 1.410 1_455 S
C1811 C1819 1.503 . S
C1812 C1811 1.410 1_655 S
C1812 C1813 1.392 . S
C1812 C1815 1.511 . S
C1813 C1809 1.376 1_655 S
C1813 C1812 1.392 . S
C1813 H1825 0.929 . S
C1814 C1810 1.531 . S
C1814 H1826 0.960 . S
C1814 H1827 0.962 . S
C1814 H1828 0.960 . S
C1815 C1812 1.511 . S
C1815 H1829 0.961 . S
C1815 H1830 0.961 . S
C1815 H1831 0.961 . S
C1816 C1817 1.370 . S
C1816 C1818 1.363 . S
C1816 H1832 0.931 . S
C1817 C1816 1.370 . S
C1817 C1821 1.408 . S
C1818 C1816 1.363 . S
C1818 C1819 1.370 . S
C1818 C1822 1.524 . S
C1819 C1811 1.503 . S
C1819 C1818 1.370 . S
C1819 C1820 1.403 . S
C1820 C1819 1.403 . S
C1820 C1821 1.404 . S
C1820 C1823 1.539 1_455 S
C1821 C1817 1.408 . S
C1821 C1820 1.404 . S
C1821 H1833 0.930 . S
C1822 C1818 1.524 . S
C1822 H1834 0.956 . S
C1822 H1835 0.961 . S
C1822 H1836 0.961 . S
C1823 C1820 1.539 1_655 S
C1823 H1837 0.958 1_655 S
C1823 H1838 0.961 . S
C1823 H1839 0.960 . S
H1824 C1808 0.931 . S
H1825 C1813 0.929 . S
H1826 C1814 0.960 . S
H1827 C1814 0.962 . S
H1828 C1814 0.960 . S
H1829 C1815 0.961 . S
H1830 C1815 0.961 . S
H1831 C1815 0.961 . S
H1832 C1816 0.931 . S
H1833 C1821 0.930 . S
H1834 C1822 0.956 . S
H1835 C1822 0.961 . S
H1836 C1822 0.961 . S
H1837 C1823 0.958 1_455 S
H1838 C1823 0.961 . S
H1839 C1823 0.960 . S
C1840 C1841 1.391 . S
C1840 C1842 1.394 . S
C1840 H1856 0.931 . S
C1841 C1840 1.391 . S
C1841 C1845 1.376 . S
C1842 C1840 1.394 . S
C1842 C1843 1.369 . S
C1842 C1846 1.531 . S
C1843 C1842 1.369 . S
C1843 C1844 1.410 . S
C1843 C1851 1.503 . S
C1844 C1843 1.410 . S
C1844 C1845 1.392 . S
C1844 C1847 1.511 . S
C1845 C1841 1.376 . S
C1845 C1844 1.392 . S
C1845 H1857 0.929 . S
C1846 C1842 1.531 . S
C1846 H1858 0.960 1_545 S
C1846 H1859 0.962 . S
C1846 H1860 0.960 1_545 S
C1847 C1844 1.511 . S
C1847 H1861 0.961 . S
C1847 H1862 0.961 . S
C1847 H1863 0.961 . S
C1848 C1849 1.370 . S
C1848 C1850 1.363 . S
C1848 H1864 0.931 . S
C1849 C1848 1.370 . S
C1849 C1853 1.408 1_545 S
C1850 C1848 1.363 . S
C1850 C1851 1.370 . S
C1850 C1854 1.524 . S
C1851 C1843 1.503 . S
C1851 C1850 1.370 . S
C1851 C1852 1.403 1_545 S
C1852 C1851 1.403 1_565 S
C1852 C1853 1.404 . S
C1852 C1855 1.539 . S
C1853 C1849 1.408 1_565 S
C1853 C1852 1.404 . S
C1853 H1865 0.930 . S
C1854 C1850 1.524 . S
C1854 H1866 0.956 . S
C1854 H1867 0.961 . S
C1854 H1868 0.961 . S
C1855 C1852 1.539 . S
C1855 H1869 0.958 . S
C1855 H1870 0.961 . S
C1855 H1871 0.960 . S
H1856 C1840 0.931 . S
H1857 C1845 0.929 . S
H1858 C1846 0.960 1_565 S
H1859 C1846 0.962 . S
H1860 C1846 0.960 1_565 S
H1861 C1847 0.961 . S
H1862 C1847 0.961 . S
H1863 C1847 0.961 . S
H1864 C1848 0.931 . S
H1865 C1853 0.930 . S
H1866 C1854 0.956 . S
H1867 C1854 0.961 . S
H1868 C1854 0.961 . S
H1869 C1855 0.958 . S
H1870 C1855 0.961 . S
H1871 C1855 0.960 . S
C1872 C1873 1.390 1_455 S
C1872 C1874 1.394 . S
C1872 H1888 0.931 . S
C1873 C1872 1.390 1_655 S
C1873 C1877 1.376 . S
C1874 C1872 1.394 . S
C1874 C1875 1.367 1_455 S
C1874 C1878 1.532 . S
C1875 C1874 1.367 1_655 S
C1875 C1876 1.410 . S
C1875 C1883 1.503 1_655 S
C1876 C1875 1.410 . S
C1876 C1877 1.392 . S
C1876 C1879 1.511 . S
C1877 C1873 1.376 . S
C1877 C1876 1.392 . S
C1877 H1889 0.929 . S
C1878 C1874 1.532 . S
C1878 H1890 0.960 1_455 S
C1878 H1891 0.962 . S
C1878 H1892 0.960 1_455 S
C1879 C1876 1.511 . S
C1879 H1893 0.961 . S
C1879 H1894 0.961 1_655 S
C1879 H1895 0.961 . S
C1880 C1881 1.370 . S
C1880 C1882 1.363 . S
C1880 H1896 0.931 . S
C1881 C1880 1.370 . S
C1881 C1885 1.408 1_455 S
C1882 C1880 1.363 . S
C1882 C1883 1.370 . S
C1882 C1886 1.524 . S
C1883 C1875 1.503 1_455 S
C1883 C1882 1.370 . S
C1883 C1884 1.403 1_455 S
C1884 C1883 1.403 1_655 S
C1884 C1885 1.404 . S
C1884 C1887 1.539 . S
C1885 C1881 1.408 1_655 S
C1885 C1884 1.404 . S
C1885 H1897 0.930 . S
C1886 C1882 1.524 . S
C1886 H1898 0.956 . S
C1886 H1899 0.961 . S
C1886 H1900 0.961 . S
C1887 C1884 1.539 . S
C1887 H1901 0.958 . S
C1887 H1902 0.961 . S
C1887 H1903 0.960 . S
H1888 C1872 0.931 . S
H1889 C1877 0.929 . S
H1890 C1878 0.960 1_655 S
H1891 C1878 0.962 . S
H1892 C1878 0.960 1_655 S
H1893 C1879 0.961 . S
H1894 C1879 0.961 1_455 S
H1895 C1879 0.961 . S
H1896 C1880 0.931 . S
H1897 C1885 0.930 . S
H1898 C1886 0.956 . S
H1899 C1886 0.961 . S
H1900 C1886 0.961 . S
H1901 C1887 0.958 . S
H1902 C1887 0.961 . S
H1903 C1887 0.960 . S
C1904 C1905 1.391 . S
C1904 C1906 1.394 . S
C1904 H1920 0.931 . S
C1905 C1904 1.391 . S
C1905 C1909 1.376 1_554 S
C1906 C1904 1.394 . S
C1906 C1907 1.369 . S
C1906 C1910 1.531 . S
C1907 C1906 1.369 . S
C1907 C1908 1.410 1_554 S
C1907 C1915 1.503 . S
C1908 C1907 1.410 1_556 S
C1908 C1909 1.392 . S
C1908 C1911 1.511 . S
C1909 C1905 1.376 1_556 S
C1909 C1908 1.392 . S
C1909 H1921 0.929 . S
C1910 C1906 1.531 . S
C1910 H1922 0.960 . S
C1910 H1923 0.962 . S
C1910 H1924 0.960 . S
C1911 C1908 1.511 . S
C1911 H1925 0.961 . S
C1911 H1926 0.961 . S
C1911 H1927 0.961 . S
C1912 C1913 1.370 . S
C1912 C1914 1.363 . S
C1912 H1928 0.931 . S
C1913 C1912 1.370 . S
C1913 C1917 1.408 1_554 S
C1914 C1912 1.363 . S
C1914 C1915 1.370 . S
C1914 C1918 1.524 . S
C1915 C1907 1.503 . S
C1915 C1914 1.370 . S
C1915 C1916 1.403 1_554 S
C1916 C1915 1.403 1_556 S
C1916 C1917 1.404 . S
C1916 C1919 1.539 . S
C1917 C1913 1.408 1_556 S
C1917 C1916 1.404 . S
C1917 H1929 0.930 . S
C1918 C1914 1.524 . S
C1918 H1930 0.956 . S
C1918 H1931 0.961 . S
C1918 H1932 0.961 . S
C1919 C1916 1.539 . S
C1919 H1933 0.958 . S
C1919 H1934 0.961 . S
C1919 H1935 0.960 . S
H1920 C1904 0.931 . S
H1921 C1909 0.929 . S
H1922 C1910 0.960 . S
H1923 C1910 0.962 . S
H1924 C1910 0.960 . S
H1925 C1911 0.961 . S
H1926 C1911 0.961 . S
H1927 C1911 0.961 . S
H1928 C1912 0.931 . S
H1929 C1917 0.930 . S
H1930 C1918 0.956 . S
H1931 C1918 0.961 . S
H1932 C1918 0.961 . S
H1933 C1919 0.958 . S
H1934 C1919 0.961 . S
H1935 C1919 0.960 . S
C1936 C1937 1.391 1_556 S
C1936 C1938 1.394 . S
C1936 H1952 0.931 . S
C1937 C1936 1.391 1_554 S
C1937 C1941 1.376 . S
C1938 C1936 1.394 . S
C1938 C1939 1.369 1_556 S
C1938 C1942 1.531 . S
C1939 C1938 1.369 1_554 S
C1939 C1940 1.410 . S
C1939 C1947 1.503 . S
C1940 C1939 1.410 . S
C1940 C1941 1.392 . S
C1940 C1943 1.511 . S
C1941 C1937 1.376 . S
C1941 C1940 1.392 . S
C1941 H1953 0.929 . S
C1942 C1938 1.531 . S
C1942 H1954 0.960 . S
C1942 H1955 0.962 . S
C1942 H1956 0.960 . S
C1943 C1940 1.511 . S
C1943 H1957 0.961 . S
C1943 H1958 0.961 . S
C1943 H1959 0.961 . S
C1944 C1945 1.370 . S
C1944 C1946 1.363 . S
C1944 H1960 0.931 . S
C1945 C1944 1.370 . S
C1945 C1949 1.408 . S
C1946 C1944 1.363 . S
C1946 C1947 1.370 . S
C1946 C1950 1.524 . S
C1947 C1939 1.503 . S
C1947 C1946 1.370 . S
C1947 C1948 1.403 . S
C1948 C1947 1.403 . S
C1948 C1949 1.404 . S
C1948 C1951 1.539 . S
C1949 C1945 1.408 . S
C1949 C1948 1.404 . S
C1949 H1961 0.930 . S
C1950 C1946 1.524 . S
C1950 H1962 0.956 . S
C1950 H1963 0.961 . S
C1950 H1964 0.961 . S
C1951 C1948 1.539 . S
C1951 H1965 0.958 1_554 S
C1951 H1966 0.961 . S
C1951 H1967 0.960 . S
H1952 C1936 0.931 . S
H1953 C1941 0.929 . S
H1954 C1942 0.960 . S
H1955 C1942 0.962 . S
H1956 C1942 0.960 . S
H1957 C1943 0.961 . S
H1958 C1943 0.961 . S
H1959 C1943 0.961 . S
H1960 C1944 0.931 . S
H1961 C1949 0.930 . S
H1962 C1950 0.956 . S
H1963 C1950 0.961 . S
H1964 C1950 0.961 . S
H1965 C1951 0.958 1_556 S
H1966 C1951 0.961 . S
H1967 C1951 0.960 . S
C1968 C1969 1.391 . S
C1968 C1970 1.394 . S
C1968 H1984 0.931 . S
C1969 C1968 1.391 . S
C1969 C1973 1.376 . S
C1970 C1968 1.394 . S
C1970 C1971 1.369 . S
C1970 C1974 1.531 . S
C1971 C1970 1.369 . S
C1971 C1972 1.410 . S
C1971 C1979 1.503 . S
C1972 C1971 1.410 . S
C1972 C1973 1.392 . S
C1972 C1975 1.511 . S
C1973 C1969 1.376 . S
C1973 C1972 1.392 . S
C1973 H1985 0.929 . S
C1974 C1970 1.531 . S
C1974 H1986 0.960 . S
C1974 H1987 0.962 1_554 S
C1974 H1988 0.960 . S
C1975 C1972 1.511 . S
C1975 H1989 0.961 . S
C1975 H1990 0.961 . S
C1975 H1991 0.961 . S
C1976 C1977 1.370 1_556 S
C1976 C1978 1.363 . S
C1976 H1992 0.931 . S
C1977 C1976 1.370 1_554 S
C1977 C1981 1.408 . S
C1978 C1976 1.363 . S
C1978 C1979 1.370 1_556 S
C1978 C1982 1.524 . S
C1979 C1971 1.503 . S
C1979 C1978 1.370 1_554 S
C1979 C1980 1.403 . S
C1980 C1979 1.403 . S
C1980 C1981 1.404 . S
C1980 C1983 1.539 . S
C1981 C1977 1.408 . S
C1981 C1980 1.404 . S
C1981 H1993 0.930 . S
C1982 C1978 1.524 . S
C1982 H1994 0.956 . S
C1982 H1995 0.961 . S
C1982 H1996 0.961 . S
C1983 C1980 1.539 . S
C1983 H1997 0.958 . S
C1983 H1998 0.961 . S
C1983 H1999 0.960 . S
H1984 C1968 0.931 . S
H1985 C1973 0.929 . S
H1986 C1974 0.960 . S
H1987 C1974 0.962 1_556 S
H1988 C1974 0.960 . S
H1989 C1975 0.961 . S
H1990 C1975 0.961 . S
H1991 C1975 0.961 . S
H1992 C1976 0.931 . S
H1993 C1981 0.930 . S
H1994 C1982 0.956 . S
H1995 C1982 0.961 . S
H1996 C1982 0.961 . S
H1997 C1983 0.958 . S
H1998 C1983 0.961 . S
H1999 C1983 0.960 . S
C2000 C2001 1.391 1_554 S
C2000 C2002 1.394 . S
C2000 H2016 0.931 . S
C2001 C2000 1.391 1_556 S
C2001 C2005 1.376 . S
C2002 C2000 1.394 . S
C2002 C2003 1.369 1_554 S
C2002 C2006 1.531 . S
C2003 C2002 1.369 1_556 S
C2003 C2004 1.410 . S
C2003 C2011 1.503 . S
C2004 C2003 1.410 . S
C2004 C2005 1.392 . S
C2004 C2007 1.511 . S
C2005 C2001 1.376 . S
C2005 C2004 1.392 . S
C2005 H2017 0.929 . S
C2006 C2002 1.531 . S
C2006 H2018 0.960 . S
C2006 H2019 0.962 . S
C2006 H2020 0.960 . S
C2007 C2004 1.511 . S
C2007 H2021 0.961 . S
C2007 H2022 0.961 . S
C2007 H2023 0.961 . S
C2008 C2009 1.370 1_554 S
C2008 C2010 1.363 . S
C2008 H2024 0.931 . S
C2009 C2008 1.370 1_556 S
C2009 C2013 1.408 . S
C2010 C2008 1.363 . S
C2010 C2011 1.370 1_554 S
C2010 C2014 1.524 . S
C2011 C2003 1.503 . S
C2011 C2010 1.370 1_556 S
C2011 C2012 1.403 . S
C2012 C2011 1.403 . S
C2012 C2013 1.404 . S
C2012 C2015 1.539 . S
C2013 C2009 1.408 . S
C2013 C2012 1.404 . S
C2013 H2025 0.930 . S
C2014 C2010 1.524 . S
C2014 H2026 0.956 . S
C2014 H2027 0.961 . S
C2014 H2028 0.961 . S
C2015 C2012 1.539 . S
C2015 H2029 0.958 . S
C2015 H2030 0.961 . S
C2015 H2031 0.960 . S
H2016 C2000 0.931 . S
H2017 C2005 0.929 . S
H2018 C2006 0.960 . S
H2019 C2006 0.962 . S
H2020 C2006 0.960 . S
H2021 C2007 0.961 . S
H2022 C2007 0.961 . S
H2023 C2007 0.961 . S
H2024 C2008 0.931 . S
H2025 C2013 0.930 . S
H2026 C2014 0.956 . S
H2027 C2014 0.961 . S
H2028 C2014 0.961 . S
H2029 C2015 0.958 . S
H2030 C2015 0.961 . S
H2031 C2015 0.960 . S
C2032 C2033 1.391 1_556 S
C2032 C2034 1.394 . S
C2032 H2048 0.931 . S
C2033 C2032 1.391 1_554 S
C2033 C2037 1.376 . S
C2034 C2032 1.394 . S
C2034 C2035 1.369 . S
C2034 C2038 1.531 . S
C2035 C2034 1.369 . S
C2035 C2036 1.410 1_556 S
C2035 C2043 1.503 1_556 S
C2036 C2035 1.410 1_554 S
C2036 C2037 1.392 . S
C2036 C2039 1.511 . S
C2037 C2033 1.376 . S
C2037 C2036 1.392 . S
C2037 H2049 0.929 . S
C2038 C2034 1.531 . S
C2038 H2050 0.960 . S
C2038 H2051 0.962 . S
C2038 H2052 0.960 . S
C2039 C2036 1.511 . S
C2039 H2053 0.961 . S
C2039 H2054 0.961 . S
C2039 H2055 0.961 . S
C2040 C2041 1.370 . S
C2040 C2042 1.363 . S
C2040 H2056 0.931 . S
C2041 C2040 1.370 . S
C2041 C2045 1.408 1_554 S
C2042 C2040 1.363 . S
C2042 C2043 1.370 . S
C2042 C2046 1.524 . S
C2043 C2035 1.503 1_554 S
C2043 C2042 1.370 . S
C2043 C2044 1.403 1_554 S
C2044 C2043 1.403 1_556 S
C2044 C2045 1.404 . S
C2044 C2047 1.539 . S
C2045 C2041 1.408 1_556 S
C2045 C2044 1.404 . S
C2045 H2057 0.930 . S
C2046 C2042 1.524 . S
C2046 H2058 0.956 . S
C2046 H2059 0.961 . S
C2046 H2060 0.961 . S
C2047 C2044 1.539 . S
C2047 H2061 0.958 . S
C2047 H2062 0.961 . S
C2047 H2063 0.960 . S
H2048 C2032 0.931 . S
H2049 C2037 0.929 . S
H2050 C2038 0.960 . S
H2051 C2038 0.962 . S
H2052 C2038 0.960 . S
H2053 C2039 0.961 . S
H2054 C2039 0.961 . S
H2055 C2039 0.961 . S
H2056 C2040 0.931 . S
H2057 C2045 0.930 . S
H2058 C2046 0.956 . S
H2059 C2046 0.961 . S
H2060 C2046 0.961 . S
H2061 C2047 0.958 . S
H2062 C2047 0.961 . S
H2063 C2047 0.960 . S
C2064 C2065 1.391 1_556 S
C2064 C2066 1.394 . S
C2064 H2080 0.931 . S
C2065 C2064 1.391 1_554 S
C2065 C2069 1.376 . S
C2066 C2064 1.394 . S
C2066 C2067 1.369 . S
C2066 C2070 1.531 . S
C2067 C2066 1.369 . S
C2067 C2068 1.410 1_556 S
C2067 C2075 1.504 . S
C2068 C2067 1.410 1_554 S
C2068 C2069 1.392 . S
C2068 C2071 1.511 . S
C2069 C2065 1.376 . S
C2069 C2068 1.392 . S
C2069 H2081 0.929 . S
C2070 C2066 1.531 . S
C2070 H2082 0.960 . S
C2070 H2083 0.962 . S
C2070 H2084 0.960 . S
C2071 C2068 1.511 . S
C2071 H2085 0.961 . S
C2071 H2086 0.961 . S
C2071 H2087 0.961 . S
C2072 C2073 1.370 . S
C2072 C2074 1.363 . S
C2072 H2088 0.931 . S
C2073 C2072 1.370 . S
C2073 C2077 1.408 1_554 S
C2074 C2072 1.363 . S
C2074 C2075 1.357 1_554 S
C2074 C2078 1.524 . S
C2075 C2067 1.504 . S
C2075 C2074 1.357 1_556 S
C2075 C2076 1.415 . S
C2076 C2075 1.415 . S
C2076 C2077 1.404 . S
C2076 C2079 1.539 . S
C2077 C2073 1.408 1_556 S
C2077 C2076 1.404 . S
C2077 H2089 0.930 . S
C2078 C2074 1.524 . S
C2078 H2090 0.956 . S
C2078 H2091 0.961 . S
C2078 H2092 0.961 . S
C2079 C2076 1.539 . S
C2079 H2093 0.958 . S
C2079 H2094 0.961 . S
C2079 H2095 0.960 . S
H2080 C2064 0.931 . S
H2081 C2069 0.929 . S
H2082 C2070 0.960 . S
H2083 C2070 0.962 . S
H2084 C2070 0.960 . S
H2085 C2071 0.961 . S
H2086 C2071 0.961 . S
H2087 C2071 0.961 . S
H2088 C2072 0.931 . S
H2089 C2077 0.930 . S
H2090 C2078 0.956 . S
H2091 C2078 0.961 . S
H2092 C2078 0.961 . S
H2093 C2079 0.958 . S
H2094 C2079 0.961 . S
H2095 C2079 0.960 . S
C2096 C2097 1.391 1_556 S
C2096 C2098 1.394 . S
C2096 H2112 0.931 . S
C2097 C2096 1.391 1_554 S
C2097 C2101 1.376 . S
C2098 C2096 1.394 . S
C2098 C2099 1.369 1_556 S
C2098 C2102 1.531 . S
C2099 C2098 1.369 1_554 S
C2099 C2100 1.410 . S
C2099 C2107 1.503 . S
C2100 C2099 1.410 . S
C2100 C2101 1.392 . S
C2100 C2103 1.511 . S
C2101 C2097 1.376 . S
C2101 C2100 1.392 . S
C2101 H2113 0.929 . S
C2102 C2098 1.531 . S
C2102 H2114 0.960 . S
C2102 H2115 0.962 . S
C2102 H2116 0.960 . S
C2103 C2100 1.511 . S
C2103 H2117 0.961 . S
C2103 H2118 0.961 . S
C2103 H2119 0.961 . S
C2104 C2105 1.370 . S
C2104 C2106 1.363 . S
C2104 H2120 0.936 . S
C2105 C2104 1.370 . S
C2105 C2109 1.408 . S
C2106 C2104 1.363 . S
C2106 C2107 1.370 . S
C2106 C2110 1.524 . S
C2107 C2099 1.503 . S
C2107 C2106 1.370 . S
C2107 C2108 1.403 . S
C2108 C2107 1.403 . S
C2108 C2109 1.404 . S
C2108 C2111 1.539 . S
C2109 C2105 1.408 . S
C2109 C2108 1.404 . S
C2109 H2121 0.930 . S
C2110 C2106 1.524 . S
C2110 H2122 0.956 1_554 S
C2110 H2123 0.961 . S
C2110 H2124 0.961 . S
C2111 C2108 1.539 . S
C2111 H2125 0.958 . S
C2111 H2126 0.961 . S
C2111 H2127 0.960 . S
H2112 C2096 0.931 . S
H2113 C2101 0.929 . S
H2114 C2102 0.960 . S
H2115 C2102 0.962 . S
H2116 C2102 0.960 . S
H2117 C2103 0.961 . S
H2118 C2103 0.961 . S
H2119 C2103 0.961 . S
H2120 C2104 0.936 . S
H2121 C2109 0.930 . S
H2122 C2110 0.956 1_556 S
H2123 C2110 0.961 . S
H2124 C2110 0.961 . S
H2125 C2111 0.958 . S
H2126 C2111 0.961 . S
H2127 C2111 0.960 . S
C2128 C2129 1.391 . S
C2128 C2130 1.394 . S
C2128 H2144 0.931 . S
C2129 C2128 1.391 . S
C2129 C2133 1.376 1_554 S
C2130 C2128 1.394 . S
C2130 C2131 1.369 . S
C2130 C2134 1.531 . S
C2131 C2130 1.369 . S
C2131 C2132 1.410 1_554 S
C2131 C2139 1.503 . S
C2132 C2131 1.410 1_556 S
C2132 C2133 1.392 . S
C2132 C2135 1.511 . S
C2133 C2129 1.376 1_556 S
C2133 C2132 1.392 . S
C2133 H2145 0.929 . S
C2134 C2130 1.531 . S
C2134 H2146 0.960 . S
C2134 H2147 0.962 . S
C2134 H2148 0.960 . S
C2135 C2132 1.511 . S
C2135 H2149 0.961 . S
C2135 H2150 0.961 . S
C2135 H2151 0.961 . S
C2136 C2137 1.370 1_556 S
C2136 C2138 1.363 . S
C2136 H2152 0.931 . S
C2137 C2136 1.370 1_554 S
C2137 C2141 1.408 . S
C2138 C2136 1.363 . S
C2138 C2139 1.370 1_556 S
C2138 C2142 1.524 . S
C2139 C2131 1.503 . S
C2139 C2138 1.370 1_554 S
C2139 C2140 1.403 . S
C2140 C2139 1.403 . S
C2140 C2141 1.404 . S
C2140 C2143 1.539 . S
C2141 C2137 1.408 . S
C2141 C2140 1.404 . S
C2141 H2153 0.930 . S
C2142 C2138 1.524 . S
C2142 H2154 0.956 . S
C2142 H2155 0.961 . S
C2142 H2156 0.961 . S
C2143 C2140 1.539 . S
C2143 H2157 0.958 . S
C2143 H2158 0.961 . S
C2143 H2159 0.960 . S
H2144 C2128 0.931 . S
H2145 C2133 0.929 . S
H2146 C2134 0.960 . S
H2147 C2134 0.962 . S
H2148 C2134 0.960 . S
H2149 C2135 0.961 . S
H2150 C2135 0.961 . S
H2151 C2135 0.961 . S
H2152 C2136 0.931 . S
H2153 C2141 0.930 . S
H2154 C2142 0.956 . S
H2155 C2142 0.961 . S
H2156 C2142 0.961 . S
H2157 C2143 0.958 . S
H2158 C2143 0.961 . S
H2159 C2143 0.960 . S
C2160 C2161 1.391 . S
C2160 C2162 1.394 . S
C2160 H2176 0.931 . S
C2161 C2160 1.391 . S
C2161 C2165 1.376 . S
C2162 C2160 1.394 . S
C2162 C2163 1.369 . S
C2162 C2166 1.531 . S
C2163 C2162 1.369 . S
C2163 C2164 1.410 . S
C2163 C2171 1.503 . S
C2164 C2163 1.410 . S
C2164 C2165 1.392 . S
C2164 C2167 1.511 . S
C2165 C2161 1.376 . S
C2165 C2164 1.392 . S
C2165 H2177 0.929 . S
C2166 C2162 1.531 . S
C2166 H2178 0.960 . S
C2166 H2179 0.962 . S
C2166 H2180 0.960 . S
C2167 C2164 1.511 . S
C2167 H2181 0.961 . S
C2167 H2182 0.961 . S
C2167 H2183 0.961 . S
C2168 C2169 1.370 . S
C2168 C2170 1.363 . S
C2168 H2184 0.931 . S
C2169 C2168 1.370 . S
C2169 C2173 1.408 . S
C2170 C2168 1.363 . S
C2170 C2171 1.370 . S
C2170 C2174 1.524 . S
C2171 C2163 1.503 . S
C2171 C2170 1.370 . S
C2171 C2172 1.403 . S
C2172 C2171 1.403 . S
C2172 C2173 1.404 . S
C2172 C2175 1.539 . S
C2173 C2169 1.408 . S
C2173 C2172 1.404 . S
C2173 H2185 0.930 . S
C2174 C2170 1.524 . S
C2174 H2186 0.956 . S
C2174 H2187 0.961 . S
C2174 H2188 0.961 . S
C2175 C2172 1.539 . S
C2175 H2189 0.958 . S
C2175 H2190 0.961 . S
C2175 H2191 0.960 . S
H2176 C2160 0.931 . S
H2177 C2165 0.929 . S
H2178 C2166 0.960 . S
H2179 C2166 0.962 . S
H2180 C2166 0.960 . S
H2181 C2167 0.961 . S
H2182 C2167 0.961 . S
H2183 C2167 0.961 . S
H2184 C2168 0.931 . S
H2185 C2173 0.930 . S
H2186 C2174 0.956 . S
H2187 C2174 0.961 . S
H2188 C2174 0.961 . S
H2189 C2175 0.958 . S
H2190 C2175 0.961 . S
H2191 C2175 0.960 . S
C2192 C2193 1.391 . S
C2192 C2194 1.394 . S
C2192 H2208 0.931 . S
C2193 C2192 1.391 . S
C2193 C2197 1.376 . S
C2194 C2192 1.394 . S
C2194 C2195 1.369 . S
C2194 C2198 1.531 . S
C2195 C2194 1.369 . S
C2195 C2196 1.410 . S
C2195 C2203 1.503 . S
C2196 C2195 1.410 . S
C2196 C2197 1.392 . S
C2196 C2199 1.511 . S
C2197 C2193 1.376 . S
C2197 C2196 1.392 . S
C2197 H2209 0.929 . S
C2198 C2194 1.531 . S
C2198 H2210 0.960 . S
C2198 H2211 0.962 . S
C2198 H2212 0.960 . S
C2199 C2196 1.511 . S
C2199 H2213 0.961 . S
C2199 H2214 0.961 . S
C2199 H2215 0.961 . S
C2200 C2201 1.370 . S
C2200 C2202 1.363 . S
C2200 H2216 0.931 . S
C2201 C2200 1.370 . S
C2201 C2205 1.408 . S
C2202 C2200 1.363 . S
C2202 C2203 1.370 . S
C2202 C2206 1.524 . S
C2203 C2195 1.503 . S
C2203 C2202 1.370 . S
C2203 C2204 1.403 . S
C2204 C2203 1.403 . S
C2204 C2205 1.404 . S
C2204 C2207 1.539 . S
C2205 C2201 1.408 . S
C2205 C2204 1.404 . S
C2205 H2217 0.930 . S
C2206 C2202 1.524 . S
C2206 H2218 0.956 . S
C2206 H2219 0.961 . S
C2206 H2220 0.961 . S
C2207 C2204 1.539 . S
C2207 H2221 0.958 . S
C2207 H2222 0.961 . S
C2207 H2223 0.960 . S
H2208 C2192 0.931 . S
H2209 C2197 0.929 . S
H2210 C2198 0.960 . S
H2211 C2198 0.962 . S
H2212 C2198 0.960 . S
H2213 C2199 0.961 . S
H2214 C2199 0.961 . S
H2215 C2199 0.961 . S
H2216 C2200 0.931 . S
H2217 C2205 0.930 . S
H2218 C2206 0.956 . S
H2219 C2206 0.961 . S
H2220 C2206 0.961 . S
H2221 C2207 0.958 . S
H2222 C2207 0.961 . S
H2223 C2207 0.960 . S
C2224 C2225 1.391 . S
C2224 C2226 1.394 . S
C2224 H2240 0.931 . S
C2225 C2224 1.391 . S
C2225 C2229 1.376 . S
C2226 C2224 1.394 . S
C2226 C2227 1.369 . S
C2226 C2230 1.531 . S
C2227 C2226 1.369 . S
C2227 C2228 1.410 . S
C2227 C2235 1.503 . S
C2228 C2227 1.410 . S
C2228 C2229 1.392 . S
C2228 C2231 1.511 . S
C2229 C2225 1.376 . S
C2229 C2228 1.392 . S
C2229 H2241 0.929 . S
C2230 C2226 1.531 . S
C2230 H2242 0.960 . S
C2230 H2243 0.962 . S
C2230 H2244 0.960 . S
C2231 C2228 1.511 . S
C2231 H2245 0.961 . S
C2231 H2246 0.961 . S
C2231 H2247 0.961 . S
C2232 C2233 1.370 . S
C2232 C2234 1.363 . S
C2232 H2248 0.931 . S
C2233 C2232 1.370 . S
C2233 C2237 1.408 . S
C2234 C2232 1.363 . S
C2234 C2235 1.370 . S
C2234 C2238 1.524 . S
C2235 C2227 1.503 . S
C2235 C2234 1.370 . S
C2235 C2236 1.403 . S
C2236 C2235 1.403 . S
C2236 C2237 1.404 . S
C2236 C2239 1.539 . S
C2237 C2233 1.408 . S
C2237 C2236 1.404 . S
C2237 H2249 0.930 . S
C2238 C2234 1.524 . S
C2238 H2250 0.956 . S
C2238 H2251 0.961 . S
C2238 H2252 0.961 . S
C2239 C2236 1.539 . S
C2239 H2253 0.958 . S
C2239 H2254 0.961 . S
C2239 H2255 0.960 . S
H2240 C2224 0.931 . S
H2241 C2229 0.929 . S
H2242 C2230 0.960 . S
H2243 C2230 0.962 . S
H2244 C2230 0.960 . S
H2245 C2231 0.961 . S
H2246 C2231 0.961 . S
H2247 C2231 0.961 . S
H2248 C2232 0.931 . S
H2249 C2237 0.930 . S
H2250 C2238 0.956 . S
H2251 C2238 0.961 . S
H2252 C2238 0.961 . S
H2253 C2239 0.958 . S
H2254 C2239 0.961 . S
H2255 C2239 0.960 . S
C2256 C2257 1.391 . S
C2256 C2258 1.394 . S
C2256 H2272 0.931 . S
C2257 C2256 1.391 . S
C2257 C2261 1.376 . S
C2258 C2256 1.394 . S
C2258 C2259 1.369 . S
C2258 C2262 1.531 . S
C2259 C2258 1.369 . S
C2259 C2260 1.410 . S
C2259 C2267 1.503 . S
C2260 C2259 1.410 . S
C2260 C2261 1.392 . S
C2260 C2263 1.511 . S
C2261 C2257 1.376 . S
C2261 C2260 1.392 . S
C2261 H2273 0.929 . S
C2262 C2258 1.531 . S
C2262 H2274 0.960 . S
C2262 H2275 0.962 . S
C2262 H2276 0.960 . S
C2263 C2260 1.511 . S
C2263 H2277 0.961 . S
C2263 H2278 0.961 . S
C2263 H2279 0.961 . S
C2264 C2265 1.370 . S
C2264 C2266 1.363 . S
C2264 H2280 0.931 . S
C2265 C2264 1.370 . S
C2265 C2269 1.408 . S
C2266 C2264 1.363 . S
C2266 C2267 1.370 . S
C2266 C2270 1.524 . S
C2267 C2259 1.503 . S
C2267 C2266 1.370 . S
C2267 C2268 1.403 . S
C2268 C2267 1.403 . S
C2268 C2269 1.404 . S
C2268 C2271 1.539 . S
C2269 C2265 1.408 . S
C2269 C2268 1.404 . S
C2269 H2281 0.930 . S
C2270 C2266 1.524 . S
C2270 H2282 0.956 . S
C2270 H2283 0.961 . S
C2270 H2284 0.961 . S
C2271 C2268 1.539 . S
C2271 H2285 0.958 . S
C2271 H2286 0.961 . S
C2271 H2287 0.960 . S
H2272 C2256 0.931 . S
H2273 C2261 0.929 . S
H2274 C2262 0.960 . S
H2275 C2262 0.962 . S
H2276 C2262 0.960 . S
H2277 C2263 0.961 . S
H2278 C2263 0.961 . S
H2279 C2263 0.961 . S
H2280 C2264 0.931 . S
H2281 C2269 0.930 . S
H2282 C2270 0.956 . S
H2283 C2270 0.961 . S
H2284 C2270 0.961 . S
H2285 C2271 0.958 . S
H2286 C2271 0.961 . S
H2287 C2271 0.960 . S
C2288 C2289 1.391 . S
C2288 C2290 1.394 . S
C2288 H2304 0.931 . S
C2289 C2288 1.391 . S
C2289 C2293 1.376 . S
C2290 C2288 1.394 . S
C2290 C2291 1.369 . S
C2290 C2294 1.531 . S
C2291 C2290 1.369 . S
C2291 C2292 1.410 . S
C2291 C2299 1.503 . S
C2292 C2291 1.410 . S
C2292 C2293 1.392 . S
C2292 C2295 1.511 . S
C2293 C2289 1.376 . S
C2293 C2292 1.392 . S
C2293 H2305 0.929 . S
C2294 C2290 1.531 . S
C2294 H2306 0.960 . S
C2294 H2307 0.962 . S
C2294 H2308 0.960 . S
C2295 C2292 1.511 . S
C2295 H2309 0.961 . S
C2295 H2310 0.961 . S
C2295 H2311 0.961 . S
C2296 C2297 1.370 . S
C2296 C2298 1.363 . S
C2296 H2312 0.931 . S
C2297 C2296 1.370 . S
C2297 C2301 1.408 . S
C2298 C2296 1.363 . S
C2298 C2299 1.370 . S
C2298 C2302 1.524 . S
C2299 C2291 1.503 . S
C2299 C2298 1.370 . S
C2299 C2300 1.403 . S
C2300 C2299 1.403 . S
C2300 C2301 1.404 . S
C2300 C2303 1.539 . S
C2301 C2297 1.408 . S
C2301 C2300 1.404 . S
C2301 H2313 0.930 . S
C2302 C2298 1.524 . S
C2302 H2314 0.956 . S
C2302 H2315 0.961 . S
C2302 H2316 0.961 . S
C2303 C2300 1.539 . S
C2303 H2317 0.958 . S
C2303 H2318 0.961 . S
C2303 H2319 0.960 . S
H2304 C2288 0.931 . S
H2305 C2293 0.929 . S
H2306 C2294 0.960 . S
H2307 C2294 0.962 . S
H2308 C2294 0.960 . S
H2309 C2295 0.961 . S
H2310 C2295 0.961 . S
H2311 C2295 0.961 . S
H2312 C2296 0.931 . S
H2313 C2301 0.930 . S
H2314 C2302 0.956 . S
H2315 C2302 0.961 . S
H2316 C2302 0.961 . S
H2317 C2303 0.958 . S
H2318 C2303 0.961 . S
H2319 C2303 0.960 . S
C2320 C2321 1.391 . S
C2320 C2322 1.394 . S
C2320 H2336 0.931 . S
C2321 C2320 1.391 . S
C2321 C2325 1.376 . S
C2322 C2320 1.394 . S
C2322 C2323 1.369 . S
C2322 C2326 1.531 . S
C2323 C2322 1.369 . S
C2323 C2324 1.410 . S
C2323 C2331 1.503 . S
C2324 C2323 1.410 . S
C2324 C2325 1.392 . S
C2324 C2327 1.511 . S
C2325 C2321 1.376 . S
C2325 C2324 1.392 . S
C2325 H2337 0.929 . S
C2326 C2322 1.531 . S
C2326 H2338 0.960 . S
C2326 H2339 0.962 . S
C2326 H2340 0.960 . S
C2327 C2324 1.511 . S
C2327 H2341 0.961 . S
C2327 H2342 0.961 . S
C2327 H2343 0.961 . S
C2328 C2329 1.370 . S
C2328 C2330 1.363 . S
C2328 H2344 0.931 . S
C2329 C2328 1.370 . S
C2329 C2333 1.408 . S
C2330 C2328 1.363 . S
C2330 C2331 1.370 . S
C2330 C2334 1.524 . S
C2331 C2323 1.503 . S
C2331 C2330 1.370 . S
C2331 C2332 1.403 . S
C2332 C2331 1.403 . S
C2332 C2333 1.404 . S
C2332 C2335 1.539 . S
C2333 C2329 1.408 . S
C2333 C2332 1.404 . S
C2333 H2345 0.930 . S
C2334 C2330 1.524 . S
C2334 H2346 0.956 . S
C2334 H2347 0.961 . S
C2334 H2348 0.961 . S
C2335 C2332 1.539 . S
C2335 H2349 0.958 . S
C2335 H2350 0.961 . S
C2335 H2351 0.960 . S
H2336 C2320 0.931 . S
H2337 C2325 0.929 . S
H2338 C2326 0.960 . S
H2339 C2326 0.962 . S
H2340 C2326 0.960 . S
H2341 C2327 0.961 . S
H2342 C2327 0.961 . S
H2343 C2327 0.961 . S
H2344 C2328 0.931 . S
H2345 C2333 0.930 . S
H2346 C2334 0.956 . S
H2347 C2334 0.961 . S
H2348 C2334 0.961 . S
H2349 C2335 0.958 . S
H2350 C2335 0.961 . S
H2351 C2335 0.960 . S
C2352 C2353 1.391 . S
C2352 C2354 1.394 . S
C2352 H2368 0.931 . S
C2353 C2352 1.391 . S
C2353 C2357 1.376 . S
C2354 C2352 1.394 . S
C2354 C2355 1.369 . S
C2354 C2358 1.531 . S
C2355 C2354 1.369 . S
C2355 C2356 1.410 . S
C2355 C2363 1.503 . S
C2356 C2355 1.410 . S
C2356 C2357 1.392 . S
C2356 C2359 1.511 . S
C2357 C2353 1.376 . S
C2357 C2356 1.392 . S
C2357 H2369 0.929 . S
C2358 C2354 1.531 . S
C2358 H2370 0.960 . S
C2358 H2371 0.962 . S
C2358 H2372 0.960 . S
C2359 C2356 1.511 . S
C2359 H2373 0.961 . S
C2359 H2374 0.961 . S
C2359 H2375 0.961 . S
C2360 C2361 1.370 . S
C2360 C2362 1.363 . S
C2360 H2376 0.931 . S
C2361 C2360 1.370 . S
C2361 C2365 1.408 . S
C2362 C2360 1.363 . S
C2362 C2363 1.370 . S
C2362 C2366 1.524 . S
C2363 C2355 1.503 . S
C2363 C2362 1.370 . S
C2363 C2364 1.403 . S
C2364 C2363 1.403 . S
C2364 C2365 1.404 . S
C2364 C2367 1.539 . S
C2365 C2361 1.408 . S
C2365 C2364 1.404 . S
C2365 H2377 0.930 . S
C2366 C2362 1.524 . S
C2366 H2378 0.956 . S
C2366 H2379 0.961 . S
C2366 H2380 0.961 . S
C2367 C2364 1.539 . S
C2367 H2381 0.958 . S
C2367 H2382 0.961 . S
C2367 H2383 0.960 . S
H2368 C2352 0.931 . S
H2369 C2357 0.929 . S
H2370 C2358 0.960 . S
H2371 C2358 0.962 . S
H2372 C2358 0.960 . S
H2373 C2359 0.961 . S
H2374 C2359 0.961 . S
H2375 C2359 0.961 . S
H2376 C2360 0.931 . S
H2377 C2365 0.930 . S
H2378 C2366 0.956 . S
H2379 C2366 0.961 . S
H2380 C2366 0.961 . S
H2381 C2367 0.958 . S
H2382 C2367 0.961 . S
H2383 C2367 0.960 . S
C2384 C2385 1.391 . S
C2384 C2386 1.394 . S
C2384 H2400 0.931 . S
C2385 C2384 1.391 . S
C2385 C2389 1.376 . S
C2386 C2384 1.394 . S
C2386 C2387 1.369 . S
C2386 C2390 1.531 . S
C2387 C2386 1.369 . S
C2387 C2388 1.410 . S
C2387 C2395 1.503 . S
C2388 C2387 1.410 . S
C2388 C2389 1.392 . S
C2388 C2391 1.511 . S
C2389 C2385 1.376 . S
C2389 C2388 1.392 . S
C2389 H2401 0.929 . S
C2390 C2386 1.531 . S
C2390 H2402 0.960 . S
C2390 H2403 0.962 . S
C2390 H2404 0.960 . S
C2391 C2388 1.511 . S
C2391 H2405 0.961 . S
C2391 H2406 0.961 . S
C2391 H2407 0.961 . S
C2392 C2393 1.370 . S
C2392 C2394 1.363 . S
C2392 H2408 0.931 . S
C2393 C2392 1.370 . S
C2393 C2397 1.408 . S
C2394 C2392 1.363 . S
C2394 C2395 1.370 . S
C2394 C2398 1.524 . S
C2395 C2387 1.503 . S
C2395 C2394 1.370 . S
C2395 C2396 1.403 . S
C2396 C2395 1.403 . S
C2396 C2397 1.404 . S
C2396 C2399 1.539 . S
C2397 C2393 1.408 . S
C2397 C2396 1.404 . S
C2397 H2409 0.930 . S
C2398 C2394 1.524 . S
C2398 H2410 0.956 . S
C2398 H2411 0.961 . S
C2398 H2412 0.961 . S
C2399 C2396 1.539 . S
C2399 H2413 0.958 . S
C2399 H2414 0.961 . S
C2399 H2415 0.960 . S
H2400 C2384 0.931 . S
H2401 C2389 0.929 . S
H2402 C2390 0.960 . S
H2403 C2390 0.962 . S
H2404 C2390 0.960 . S
H2405 C2391 0.961 . S
H2406 C2391 0.961 . S
H2407 C2391 0.961 . S
H2408 C2392 0.931 . S
H2409 C2397 0.930 . S
H2410 C2398 0.956 . S
H2411 C2398 0.961 . S
H2412 C2398 0.961 . S
H2413 C2399 0.958 . S
H2414 C2399 0.961 . S
H2415 C2399 0.960 . S
C2416 C2417 1.391 . S
C2416 C2418 1.394 . S
C2416 H2432 0.931 . S
C2417 C2416 1.391 . S
C2417 C2421 1.376 . S
C2418 C2416 1.394 . S
C2418 C2419 1.369 . S
C2418 C2422 1.531 . S
C2419 C2418 1.369 . S
C2419 C2420 1.410 . S
C2419 C2427 1.503 . S
C2420 C2419 1.410 . S
C2420 C2421 1.392 . S
C2420 C2423 1.511 . S
C2421 C2417 1.376 . S
C2421 C2420 1.392 . S
C2421 H2433 0.929 . S
C2422 C2418 1.531 . S
C2422 H2434 0.960 . S
C2422 H2435 0.962 . S
C2422 H2436 0.960 . S
C2423 C2420 1.511 . S
C2423 H2437 0.961 . S
C2423 H2438 0.961 . S
C2423 H2439 0.961 . S
C2424 C2425 1.370 . S
C2424 C2426 1.363 . S
C2424 H2440 0.931 . S
C2425 C2424 1.370 . S
C2425 C2429 1.408 . S
C2426 C2424 1.363 . S
C2426 C2427 1.370 . S
C2426 C2430 1.524 . S
C2427 C2419 1.503 . S
C2427 C2426 1.370 . S
C2427 C2428 1.403 . S
C2428 C2427 1.403 . S
C2428 C2429 1.404 . S
C2428 C2431 1.539 . S
C2429 C2425 1.408 . S
C2429 C2428 1.404 . S
C2429 H2441 0.930 . S
C2430 C2426 1.524 . S
C2430 H2442 0.956 . S
C2430 H2443 0.961 . S
C2430 H2444 0.961 . S
C2431 C2428 1.539 . S
C2431 H2445 0.958 . S
C2431 H2446 0.961 . S
C2431 H2447 0.960 . S
H2432 C2416 0.931 . S
H2433 C2421 0.929 . S
H2434 C2422 0.960 . S
H2435 C2422 0.962 . S
H2436 C2422 0.960 . S
H2437 C2423 0.961 . S
H2438 C2423 0.961 . S
H2439 C2423 0.961 . S
H2440 C2424 0.931 . S
H2441 C2429 0.930 . S
H2442 C2430 0.956 . S
H2443 C2430 0.961 . S
H2444 C2430 0.961 . S
H2445 C2431 0.958 . S
H2446 C2431 0.961 . S
H2447 C2431 0.960 . S
C2448 C2449 1.391 . S
C2448 C2450 1.394 . S
C2448 H2464 0.931 . S
C2449 C2448 1.391 . S
C2449 C2453 1.376 . S
C2450 C2448 1.394 . S
C2450 C2451 1.369 . S
C2450 C2454 1.531 . S
C2451 C2450 1.369 . S
C2451 C2452 1.410 . S
C2451 C2459 1.503 . S
C2452 C2451 1.410 . S
C2452 C2453 1.392 . S
C2452 C2455 1.511 . S
C2453 C2449 1.376 . S
C2453 C2452 1.392 . S
C2453 H2465 0.929 . S
C2454 C2450 1.531 . S
C2454 H2466 0.960 . S
C2454 H2467 0.962 . S
C2454 H2468 0.960 . S
C2455 C2452 1.511 . S
C2455 H2469 0.961 . S
C2455 H2470 0.961 . S
C2455 H2471 0.961 . S
C2456 C2457 1.370 . S
C2456 C2458 1.363 . S
C2456 H2472 0.931 . S
C2457 C2456 1.370 . S
C2457 C2461 1.408 . S
C2458 C2456 1.363 . S
C2458 C2459 1.370 . S
C2458 C2462 1.524 . S
C2459 C2451 1.503 . S
C2459 C2458 1.370 . S
C2459 C2460 1.403 . S
C2460 C2459 1.403 . S
C2460 C2461 1.404 . S
C2460 C2463 1.539 . S
C2461 C2457 1.408 . S
C2461 C2460 1.404 . S
C2461 H2473 0.930 . S
C2462 C2458 1.524 . S
C2462 H2474 0.956 . S
C2462 H2475 0.961 . S
C2462 H2476 0.961 . S
C2463 C2460 1.539 . S
C2463 H2477 0.958 . S
C2463 H2478 0.961 . S
C2463 H2479 0.960 . S
H2464 C2448 0.931 . S
H2465 C2453 0.929 . S
H2466 C2454 0.960 . S
H2467 C2454 0.962 . S
H2468 C2454 0.960 . S
H2469 C2455 0.961 . S
H2470 C2455 0.961 . S
H2471 C2455 0.961 . S
H2472 C2456 0.931 . S
H2473 C2461 0.930 . S
H2474 C2462 0.956 . S
H2475 C2462 0.961 . S
H2476 C2462 0.961 . S
H2477 C2463 0.958 . S
H2478 C2463 0.961 . S
H2479 C2463 0.960 . S
C2480 C2481 1.391 . S
C2480 C2482 1.394 . S
C2480 H2496 0.931 . S
C2481 C2480 1.391 . S
C2481 C2485 1.376 . S
C2482 C2480 1.394 . S
C2482 C2483 1.369 . S
C2482 C2486 1.531 . S
C2483 C2482 1.369 . S
C2483 C2484 1.410 . S
C2483 C2491 1.503 . S
C2484 C2483 1.410 . S
C2484 C2485 1.392 . S
C2484 C2487 1.511 . S
C2485 C2481 1.376 . S
C2485 C2484 1.392 . S
C2485 H2497 0.929 . S
C2486 C2482 1.531 . S
C2486 H2498 0.960 . S
C2486 H2499 0.962 . S
C2486 H2500 0.960 . S
C2487 C2484 1.511 . S
C2487 H2501 0.961 . S
C2487 H2502 0.961 . S
C2487 H2503 0.961 . S
C2488 C2489 1.370 . S
C2488 C2490 1.363 . S
C2488 H2504 0.931 . S
C2489 C2488 1.370 . S
C2489 C2493 1.408 . S
C2490 C2488 1.363 . S
C2490 C2491 1.370 . S
C2490 C2494 1.524 . S
C2491 C2483 1.503 . S
C2491 C2490 1.370 . S
C2491 C2492 1.403 . S
C2492 C2491 1.403 . S
C2492 C2493 1.404 . S
C2492 C2495 1.539 . S
C2493 C2489 1.408 . S
C2493 C2492 1.404 . S
C2493 H2505 0.930 . S
C2494 C2490 1.524 . S
C2494 H2506 0.956 . S
C2494 H2507 0.961 . S
C2494 H2508 0.961 . S
C2495 C2492 1.539 . S
C2495 H2509 0.958 . S
C2495 H2510 0.961 . S
C2495 H2511 0.960 . S
H2496 C2480 0.931 . S
H2497 C2485 0.929 . S
H2498 C2486 0.960 . S
H2499 C2486 0.962 . S
H2500 C2486 0.960 . S
H2501 C2487 0.961 . S
H2502 C2487 0.961 . S
H2503 C2487 0.961 . S
H2504 C2488 0.931 . S
H2505 C2493 0.930 . S
H2506 C2494 0.956 . S
H2507 C2494 0.961 . S
H2508 C2494 0.961 . S
H2509 C2495 0.958 . S
H2510 C2495 0.961 . S
H2511 C2495 0.960 . S
C2512 C2513 1.391 . S
C2512 C2514 1.394 . S
C2512 H2528 0.931 . S
C2513 C2512 1.391 . S
C2513 C2517 1.376 . S
C2514 C2512 1.394 . S
C2514 C2515 1.369 . S
C2514 C2518 1.531 . S
C2515 C2514 1.369 . S
C2515 C2516 1.410 . S
C2515 C2523 1.503 . S
C2516 C2515 1.410 . S
C2516 C2517 1.392 . S
C2516 C2519 1.511 . S
C2517 C2513 1.376 . S
C2517 C2516 1.392 . S
C2517 H2529 0.929 . S
C2518 C2514 1.531 . S
C2518 H2530 0.960 . S
C2518 H2531 0.962 . S
C2518 H2532 0.960 . S
C2519 C2516 1.511 . S
C2519 H2533 0.961 . S
C2519 H2534 0.961 . S
C2519 H2535 0.961 . S
C2520 C2521 1.370 . S
C2520 C2522 1.363 . S
C2520 H2536 0.931 . S
C2521 C2520 1.370 . S
C2521 C2525 1.408 . S
C2522 C2520 1.363 . S
C2522 C2523 1.370 . S
C2522 C2526 1.524 . S
C2523 C2515 1.503 . S
C2523 C2522 1.370 . S
C2523 C2524 1.403 . S
C2524 C2523 1.403 . S
C2524 C2525 1.404 . S
C2524 C2527 1.539 . S
C2525 C2521 1.408 . S
C2525 C2524 1.404 . S
C2525 H2537 0.930 . S
C2526 C2522 1.524 . S
C2526 H2538 0.956 . S
C2526 H2539 0.961 . S
C2526 H2540 0.961 . S
C2527 C2524 1.539 . S
C2527 H2541 0.958 . S
C2527 H2542 0.961 . S
C2527 H2543 0.960 . S
H2528 C2512 0.931 . S
H2529 C2517 0.929 . S
H2530 C2518 0.960 . S
H2531 C2518 0.962 . S
H2532 C2518 0.960 . S
H2533 C2519 0.961 . S
H2534 C2519 0.961 . S
H2535 C2519 0.961 . S
H2536 C2520 0.931 . S
H2537 C2525 0.930 . S
H2538 C2526 0.956 . S
H2539 C2526 0.961 . S
H2540 C2526 0.961 . S
H2541 C2527 0.958 . S
H2542 C2527 0.961 . S
H2543 C2527 0.960 . S
C2544 C2545 1.391 . S
C2544 C2546 1.394 . S
C2544 H2560 0.931 . S
C2545 C2544 1.391 . S
C2545 C2549 1.376 . S
C2546 C2544 1.394 . S
C2546 C2547 1.369 . S
C2546 C2550 1.531 . S
C2547 C2546 1.369 . S
C2547 C2548 1.410 . S
C2547 C2555 1.503 . S
C2548 C2547 1.410 . S
C2548 C2549 1.392 . S
C2548 C2551 1.511 . S
C2549 C2545 1.376 . S
C2549 C2548 1.392 . S
C2549 H2561 0.929 . S
C2550 C2546 1.531 . S
C2550 H2562 0.960 . S
C2550 H2563 0.962 . S
C2550 H2564 0.960 . S
C2551 C2548 1.511 . S
C2551 H2565 0.961 . S
C2551 H2566 0.961 . S
C2551 H2567 0.961 . S
C2552 C2553 1.370 . S
C2552 C2554 1.363 . S
C2552 H2568 0.931 . S
C2553 C2552 1.370 . S
C2553 C2557 1.408 . S
C2554 C2552 1.363 . S
C2554 C2555 1.370 . S
C2554 C2558 1.524 . S
C2555 C2547 1.503 . S
C2555 C2554 1.370 . S
C2555 C2556 1.403 . S
C2556 C2555 1.403 . S
C2556 C2557 1.404 . S
C2556 C2559 1.539 . S
C2557 C2553 1.408 . S
C2557 C2556 1.404 . S
C2557 H2569 0.930 . S
C2558 C2554 1.524 . S
C2558 H2570 0.956 . S
C2558 H2571 0.961 . S
C2558 H2572 0.961 . S
C2559 C2556 1.539 . S
C2559 H2573 0.958 . S
C2559 H2574 0.961 . S
C2559 H2575 0.960 . S
H2560 C2544 0.931 . S
H2561 C2549 0.929 . S
H2562 C2550 0.960 . S
H2563 C2550 0.962 . S
H2564 C2550 0.960 . S
H2565 C2551 0.961 . S
H2566 C2551 0.961 . S
H2567 C2551 0.961 . S
H2568 C2552 0.931 . S
H2569 C2557 0.930 . S
H2570 C2558 0.956 . S
H2571 C2558 0.961 . S
H2572 C2558 0.961 . S
H2573 C2559 0.958 . S
H2574 C2559 0.961 . S
H2575 C2559 0.960 . S
C2576 C2577 1.391 . S
C2576 C2578 1.394 . S
C2576 H2592 0.931 . S
C2577 C2576 1.391 . S
C2577 C2581 1.376 . S
C2578 C2576 1.394 . S
C2578 C2579 1.369 . S
C2578 C2582 1.531 . S
C2579 C2578 1.369 . S
C2579 C2580 1.410 . S
C2579 C2587 1.503 . S
C2580 C2579 1.410 . S
C2580 C2581 1.392 . S
C2580 C2583 1.511 . S
C2581 C2577 1.376 . S
C2581 C2580 1.392 . S
C2581 H2593 0.929 . S
C2582 C2578 1.531 . S
C2582 H2594 0.960 . S
C2582 H2595 0.962 . S
C2582 H2596 0.960 . S
C2583 C2580 1.511 . S
C2583 H2597 0.961 . S
C2583 H2598 0.961 . S
C2583 H2599 0.961 . S
C2584 C2585 1.370 . S
C2584 C2586 1.363 . S
C2584 H2600 0.931 . S
C2585 C2584 1.370 . S
C2585 C2589 1.408 . S
C2586 C2584 1.363 . S
C2586 C2587 1.370 . S
C2586 C2590 1.524 . S
C2587 C2579 1.503 . S
C2587 C2586 1.370 . S
C2587 C2588 1.403 . S
C2588 C2587 1.403 . S
C2588 C2589 1.404 . S
C2588 C2591 1.539 . S
C2589 C2585 1.408 . S
C2589 C2588 1.404 . S
C2589 H2601 0.930 . S
C2590 C2586 1.524 . S
C2590 H2602 0.956 . S
C2590 H2603 0.961 . S
C2590 H2604 0.961 . S
C2591 C2588 1.539 . S
C2591 H2605 0.958 . S
C2591 H2606 0.961 . S
C2591 H2607 0.960 . S
H2592 C2576 0.931 . S
H2593 C2581 0.929 . S
H2594 C2582 0.960 . S
H2595 C2582 0.962 . S
H2596 C2582 0.960 . S
H2597 C2583 0.961 . S
H2598 C2583 0.961 . S
H2599 C2583 0.961 . S
H2600 C2584 0.931 . S
H2601 C2589 0.930 . S
H2602 C2590 0.956 . S
H2603 C2590 0.961 . S
H2604 C2590 0.961 . S
H2605 C2591 0.958 . S
H2606 C2591 0.961 . S
H2607 C2591 0.960 . S
C2608 C2609 1.391 . S
C2608 C2610 1.394 . S
C2608 H2624 0.931 . S
C2609 C2608 1.391 . S
C2609 C2613 1.376 . S
C2610 C2608 1.394 . S
C2610 C2611 1.369 . S
C2610 C2614 1.531 . S
C2611 C2610 1.369 . S
C2611 C2612 1.410 . S
C2611 C2619 1.503 . S
C2612 C2611 1.410 . S
C2612 C2613 1.392 . S
C2612 C2615 1.511 . S
C2613 C2609 1.376 . S
C2613 C2612 1.392 . S
C2613 H2625 0.929 . S
C2614 C2610 1.531 . S
C2614 H2626 0.960 . S
C2614 H2627 0.962 . S
C2614 H2628 0.960 . S
C2615 C2612 1.511 . S
C2615 H2629 0.961 . S
C2615 H2630 0.961 . S
C2615 H2631 0.961 . S
C2616 C2617 1.370 . S
C2616 C2618 1.363 . S
C2616 H2632 0.931 . S
C2617 C2616 1.370 . S
C2617 C2621 1.408 . S
C2618 C2616 1.363 . S
C2618 C2619 1.370 . S
C2618 C2622 1.524 . S
C2619 C2611 1.503 . S
C2619 C2618 1.370 . S
C2619 C2620 1.403 . S
C2620 C2619 1.403 . S
C2620 C2621 1.404 . S
C2620 C2623 1.539 . S
C2621 C2617 1.408 . S
C2621 C2620 1.404 . S
C2621 H2633 0.930 . S
C2622 C2618 1.524 . S
C2622 H2634 0.956 . S
C2622 H2635 0.961 . S
C2622 H2636 0.961 . S
C2623 C2620 1.539 . S
C2623 H2637 0.958 . S
C2623 H2638 0.961 . S
C2623 H2639 0.960 . S
H2624 C2608 0.931 . S
H2625 C2613 0.929 . S
H2626 C2614 0.960 . S
H2627 C2614 0.962 . S
H2628 C2614 0.960 . S
H2629 C2615 0.961 . S
H2630 C2615 0.961 . S
H2631 C2615 0.961 . S
H2632 C2616 0.931 . S
H2633 C2621 0.930 . S
H2634 C2622 0.956 . S
H2635 C2622 0.961 . S
H2636 C2622 0.961 . S
H2637 C2623 0.958 . S
H2638 C2623 0.961 . S
H2639 C2623 0.960 . S
C2640 C2641 1.391 . S
C2640 C2642 1.394 . S
C2640 H2656 0.931 . S
C2641 C2640 1.391 . S
C2641 C2645 1.376 . S
C2642 C2640 1.394 . S
C2642 C2643 1.369 . S
C2642 C2646 1.531 . S
C2643 C2642 1.369 . S
C2643 C2644 1.410 . S
C2643 C2651 1.503 . S
C2644 C2643 1.410 . S
C2644 C2645 1.392 . S
C2644 C2647 1.511 . S
C2645 C2641 1.376 . S
C2645 C2644 1.392 . S
C2645 H2657 0.929 . S
C2646 C2642 1.531 . S
C2646 H2658 0.960 . S
C2646 H2659 0.962 . S
C2646 H2660 0.960 . S
C2647 C2644 1.511 . S
C2647 H2661 0.961 . S
C2647 H2662 0.961 . S
C2647 H2663 0.961 . S
C2648 C2649 1.370 . S
C2648 C2650 1.363 . S
C2648 H2664 0.931 . S
C2649 C2648 1.370 . S
C2649 C2653 1.408 . S
C2650 C2648 1.363 . S
C2650 C2651 1.370 . S
C2650 C2654 1.524 . S
C2651 C2643 1.503 . S
C2651 C2650 1.370 . S
C2651 C2652 1.403 . S
C2652 C2651 1.403 . S
C2652 C2653 1.404 . S
C2652 C2655 1.539 . S
C2653 C2649 1.408 . S
C2653 C2652 1.404 . S
C2653 H2665 0.930 . S
C2654 C2650 1.524 . S
C2654 H2666 0.956 . S
C2654 H2667 0.961 . S
C2654 H2668 0.961 . S
C2655 C2652 1.539 . S
C2655 H2669 0.958 . S
C2655 H2670 0.961 . S
C2655 H2671 0.960 . S
H2656 C2640 0.931 . S
H2657 C2645 0.929 . S
H2658 C2646 0.960 . S
H2659 C2646 0.962 . S
H2660 C2646 0.960 . S
H2661 C2647 0.961 . S
H2662 C2647 0.961 . S
H2663 C2647 0.961 . S
H2664 C2648 0.931 . S
H2665 C2653 0.930 . S
H2666 C2654 0.956 . S
H2667 C2654 0.961 . S
H2668 C2654 0.961 . S
H2669 C2655 0.958 . S
H2670 C2655 0.961 . S
H2671 C2655 0.960 . S
C2672 C2673 1.391 . S
C2672 C2674 1.394 . S
C2672 H2688 0.931 . S
C2673 C2672 1.391 . S
C2673 C2677 1.376 . S
C2674 C2672 1.394 . S
C2674 C2675 1.369 . S
C2674 C2678 1.531 . S
C2675 C2674 1.369 . S
C2675 C2676 1.410 . S
C2675 C2683 1.503 . S
C2676 C2675 1.410 . S
C2676 C2677 1.392 . S
C2676 C2679 1.511 . S
C2677 C2673 1.376 . S
C2677 C2676 1.392 . S
C2677 H2689 0.929 . S
C2678 C2674 1.531 . S
C2678 H2690 0.960 . S
C2678 H2691 0.962 . S
C2678 H2692 0.960 . S
C2679 C2676 1.511 . S
C2679 H2693 0.961 . S
C2679 H2694 0.961 . S
C2679 H2695 0.961 . S
C2680 C2681 1.370 . S
C2680 C2682 1.363 . S
C2680 H2696 0.931 . S
C2681 C2680 1.370 . S
C2681 C2685 1.408 . S
C2682 C2680 1.363 . S
C2682 C2683 1.370 . S
C2682 C2686 1.524 . S
C2683 C2675 1.503 . S
C2683 C2682 1.370 . S
C2683 C2684 1.403 . S
C2684 C2683 1.403 . S
C2684 C2685 1.404 . S
C2684 C2687 1.539 . S
C2685 C2681 1.408 . S
C2685 C2684 1.404 . S
C2685 H2697 0.930 . S
C2686 C2682 1.524 . S
C2686 H2698 0.956 . S
C2686 H2699 0.961 . S
C2686 H2700 0.961 . S
C2687 C2684 1.539 . S
C2687 H2701 0.958 . S
C2687 H2702 0.961 . S
C2687 H2703 0.960 . S
H2688 C2672 0.931 . S
H2689 C2677 0.929 . S
H2690 C2678 0.960 . S
H2691 C2678 0.962 . S
H2692 C2678 0.960 . S
H2693 C2679 0.961 . S
H2694 C2679 0.961 . S
H2695 C2679 0.961 . S
H2696 C2680 0.931 . S
H2697 C2685 0.930 . S
H2698 C2686 0.956 . S
H2699 C2686 0.961 . S
H2700 C2686 0.961 . S
H2701 C2687 0.958 . S
H2702 C2687 0.961 . S
H2703 C2687 0.960 . S
C2704 C2705 1.391 . S
C2704 C2706 1.394 . S
C2704 H2720 0.931 . S
C2705 C2704 1.391 . S
C2705 C2709 1.376 . S
C2706 C2704 1.394 . S
C2706 C2707 1.369 . S
C2706 C2710 1.531 . S
C2707 C2706 1.369 . S
C2707 C2708 1.410 . S
C2707 C2715 1.503 . S
C2708 C2707 1.410 . S
C2708 C2709 1.392 . S
C2708 C2711 1.511 . S
C2709 C2705 1.376 . S
C2709 C2708 1.392 . S
C2709 H2721 0.929 . S
C2710 C2706 1.531 . S
C2710 H2722 0.960 . S
C2710 H2723 0.962 . S
C2710 H2724 0.960 . S
C2711 C2708 1.511 . S
C2711 H2725 0.961 . S
C2711 H2726 0.961 . S
C2711 H2727 0.961 . S
C2712 C2713 1.370 . S
C2712 C2714 1.363 . S
C2712 H2728 0.931 . S
C2713 C2712 1.370 . S
C2713 C2717 1.408 . S
C2714 C2712 1.363 . S
C2714 C2715 1.370 . S
C2714 C2718 1.524 . S
C2715 C2707 1.503 . S
C2715 C2714 1.370 . S
C2715 C2716 1.403 . S
C2716 C2715 1.403 . S
C2716 C2717 1.404 . S
C2716 C2719 1.539 . S
C2717 C2713 1.408 . S
C2717 C2716 1.404 . S
C2717 H2729 0.930 . S
C2718 C2714 1.524 . S
C2718 H2730 0.956 . S
C2718 H2731 0.961 . S
C2718 H2732 0.961 . S
C2719 C2716 1.539 . S
C2719 H2733 0.958 . S
C2719 H2734 0.961 . S
C2719 H2735 0.960 . S
H2720 C2704 0.931 . S
H2721 C2709 0.929 . S
H2722 C2710 0.960 . S
H2723 C2710 0.962 . S
H2724 C2710 0.960 . S
H2725 C2711 0.961 . S
H2726 C2711 0.961 . S
H2727 C2711 0.961 . S
H2728 C2712 0.931 . S
H2729 C2717 0.930 . S
H2730 C2718 0.956 . S
H2731 C2718 0.961 . S
H2732 C2718 0.961 . S
H2733 C2719 0.958 . S
H2734 C2719 0.961 . S
H2735 C2719 0.960 . S
C2736 C2737 1.391 . S
C2736 C2738 1.394 . S
C2736 H2752 0.931 . S
C2737 C2736 1.391 . S
C2737 C2741 1.376 . S
C2738 C2736 1.394 . S
C2738 C2739 1.369 . S
C2738 C2742 1.531 . S
C2739 C2738 1.369 . S
C2739 C2740 1.410 . S
C2739 C2747 1.503 . S
C2740 C2739 1.410 . S
C2740 C2741 1.392 . S
C2740 C2743 1.511 . S
C2741 C2737 1.376 . S
C2741 C2740 1.392 . S
C2741 H2753 0.929 . S
C2742 C2738 1.531 . S
C2742 H2754 0.960 . S
C2742 H2755 0.962 . S
C2742 H2756 0.960 . S
C2743 C2740 1.511 . S
C2743 H2757 0.961 . S
C2743 H2758 0.961 . S
C2743 H2759 0.961 . S
C2744 C2745 1.370 . S
C2744 C2746 1.363 . S
C2744 H2760 0.931 . S
C2745 C2744 1.370 . S
C2745 C2749 1.408 . S
C2746 C2744 1.363 . S
C2746 C2747 1.370 . S
C2746 C2750 1.524 . S
C2747 C2739 1.503 . S
C2747 C2746 1.370 . S
C2747 C2748 1.403 . S
C2748 C2747 1.403 . S
C2748 C2749 1.404 . S
C2748 C2751 1.539 . S
C2749 C2745 1.408 . S
C2749 C2748 1.404 . S
C2749 H2761 0.930 . S
C2750 C2746 1.524 . S
C2750 H2762 0.956 . S
C2750 H2763 0.961 . S
C2750 H2764 0.961 . S
C2751 C2748 1.539 . S
C2751 H2765 0.958 . S
C2751 H2766 0.961 . S
C2751 H2767 0.960 . S
H2752 C2736 0.931 . S
H2753 C2741 0.929 . S
H2754 C2742 0.960 . S
H2755 C2742 0.962 . S
H2756 C2742 0.960 . S
H2757 C2743 0.961 . S
H2758 C2743 0.961 . S
H2759 C2743 0.961 . S
H2760 C2744 0.931 . S
H2761 C2749 0.930 . S
H2762 C2750 0.956 . S
H2763 C2750 0.961 . S
H2764 C2750 0.961 . S
H2765 C2751 0.958 . S
H2766 C2751 0.961 . S
H2767 C2751 0.960 . S
C2768 C2769 1.391 . S
C2768 C2770 1.394 . S
C2768 H2784 0.931 . S
C2769 C2768 1.391 . S
C2769 C2773 1.376 . S
C2770 C2768 1.394 . S
C2770 C2771 1.369 . S
C2770 C2774 1.531 . S
C2771 C2770 1.369 . S
C2771 C2772 1.410 . S
C2771 C2779 1.503 . S
C2772 C2771 1.410 . S
C2772 C2773 1.392 . S
C2772 C2775 1.511 . S
C2773 C2769 1.376 . S
C2773 C2772 1.392 . S
C2773 H2785 0.929 . S
C2774 C2770 1.531 . S
C2774 H2786 0.960 . S
C2774 H2787 0.962 . S
C2774 H2788 0.960 . S
C2775 C2772 1.511 . S
C2775 H2789 0.961 . S
C2775 H2790 0.961 . S
C2775 H2791 0.961 . S
C2776 C2777 1.370 . S
C2776 C2778 1.363 . S
C2776 H2792 0.931 . S
C2777 C2776 1.370 . S
C2777 C2781 1.408 . S
C2778 C2776 1.363 . S
C2778 C2779 1.370 . S
C2778 C2782 1.524 . S
C2779 C2771 1.503 . S
C2779 C2778 1.370 . S
C2779 C2780 1.403 . S
C2780 C2779 1.403 . S
C2780 C2781 1.404 . S
C2780 C2783 1.539 . S
C2781 C2777 1.408 . S
C2781 C2780 1.404 . S
C2781 H2793 0.930 . S
C2782 C2778 1.524 . S
C2782 H2794 0.956 . S
C2782 H2795 0.961 . S
C2782 H2796 0.961 . S
C2783 C2780 1.539 . S
C2783 H2797 0.958 . S
C2783 H2798 0.961 . S
C2783 H2799 0.960 . S
H2784 C2768 0.931 . S
H2785 C2773 0.929 . S
H2786 C2774 0.960 . S
H2787 C2774 0.962 . S
H2788 C2774 0.960 . S
H2789 C2775 0.961 . S
H2790 C2775 0.961 . S
H2791 C2775 0.961 . S
H2792 C2776 0.931 . S
H2793 C2781 0.930 . S
H2794 C2782 0.956 . S
H2795 C2782 0.961 . S
H2796 C2782 0.961 . S
H2797 C2783 0.958 . S
H2798 C2783 0.961 . S
H2799 C2783 0.960 . S
C2800 C2801 1.391 . S
C2800 C2802 1.394 . S
C2800 H2816 0.931 . S
C2801 C2800 1.391 . S
C2801 C2805 1.376 . S
C2802 C2800 1.394 . S
C2802 C2803 1.369 . S
C2802 C2806 1.531 . S
C2803 C2802 1.369 . S
C2803 C2804 1.410 . S
C2803 C2811 1.503 . S
C2804 C2803 1.410 . S
C2804 C2805 1.392 . S
C2804 C2807 1.511 . S
C2805 C2801 1.376 . S
C2805 C2804 1.392 . S
C2805 H2817 0.929 . S
C2806 C2802 1.531 . S
C2806 H2818 0.960 . S
C2806 H2819 0.962 . S
C2806 H2820 0.960 . S
C2807 C2804 1.511 . S
C2807 H2821 0.961 . S
C2807 H2822 0.961 . S
C2807 H2823 0.961 . S
C2808 C2809 1.370 . S
C2808 C2810 1.363 . S
C2808 H2824 0.931 . S
C2809 C2808 1.370 . S
C2809 C2813 1.408 . S
C2810 C2808 1.363 . S
C2810 C2811 1.370 . S
C2810 C2814 1.524 . S
C2811 C2803 1.503 . S
C2811 C2810 1.370 . S
C2811 C2812 1.403 . S
C2812 C2811 1.403 . S
C2812 C2813 1.404 . S
C2812 C2815 1.539 . S
C2813 C2809 1.408 . S
C2813 C2812 1.404 . S
C2813 H2825 0.930 . S
C2814 C2810 1.524 . S
C2814 H2826 0.956 . S
C2814 H2827 0.961 . S
C2814 H2828 0.961 . S
C2815 C2812 1.539 . S
C2815 H2829 0.958 . S
C2815 H2830 0.961 . S
C2815 H2831 0.960 . S
H2816 C2800 0.931 . S
H2817 C2805 0.929 . S
H2818 C2806 0.960 . S
H2819 C2806 0.962 . S
H2820 C2806 0.960 . S
H2821 C2807 0.961 . S
H2822 C2807 0.961 . S
H2823 C2807 0.961 . S
H2824 C2808 0.931 . S
H2825 C2813 0.930 . S
H2826 C2814 0.956 . S
H2827 C2814 0.961 . S
H2828 C2814 0.961 . S
H2829 C2815 0.958 . S
H2830 C2815 0.961 . S
H2831 C2815 0.960 . S
C2832 C2833 1.391 . S
C2832 C2834 1.394 . S
C2832 H2848 0.931 . S
C2833 C2832 1.391 . S
C2833 C2837 1.376 . S
C2834 C2832 1.394 . S
C2834 C2835 1.369 . S
C2834 C2838 1.531 . S
C2835 C2834 1.369 . S
C2835 C2836 1.410 . S
C2835 C2843 1.503 . S
C2836 C2835 1.410 . S
C2836 C2837 1.392 . S
C2836 C2839 1.511 . S
C2837 C2833 1.376 . S
C2837 C2836 1.392 . S
C2837 H2849 0.929 . S
C2838 C2834 1.531 . S
C2838 H2850 0.960 . S
C2838 H2851 0.962 . S
C2838 H2852 0.960 . S
C2839 C2836 1.511 . S
C2839 H2853 0.961 . S
C2839 H2854 0.961 . S
C2839 H2855 0.961 . S
C2840 C2841 1.370 . S
C2840 C2842 1.363 . S
C2840 H2856 0.931 . S
C2841 C2840 1.370 . S
C2841 C2845 1.408 . S
C2842 C2840 1.363 . S
C2842 C2843 1.370 . S
C2842 C2846 1.524 . S
C2843 C2835 1.503 . S
C2843 C2842 1.370 . S
C2843 C2844 1.403 . S
C2844 C2843 1.403 . S
C2844 C2845 1.404 . S
C2844 C2847 1.539 . S
C2845 C2841 1.408 . S
C2845 C2844 1.404 . S
C2845 H2857 0.930 . S
C2846 C2842 1.524 . S
C2846 H2858 0.956 . S
C2846 H2859 0.961 . S
C2846 H2860 0.961 . S
C2847 C2844 1.539 . S
C2847 H2861 0.958 . S
C2847 H2862 0.961 . S
C2847 H2863 0.960 . S
H2848 C2832 0.931 . S
H2849 C2837 0.929 . S
H2850 C2838 0.960 . S
H2851 C2838 0.962 . S
H2852 C2838 0.960 . S
H2853 C2839 0.961 . S
H2854 C2839 0.961 . S
H2855 C2839 0.961 . S
H2856 C2840 0.931 . S
H2857 C2845 0.930 . S
H2858 C2846 0.956 . S
H2859 C2846 0.961 . S
H2860 C2846 0.961 . S
H2861 C2847 0.958 . S
H2862 C2847 0.961 . S
H2863 C2847 0.960 . S
C2864 C2865 1.391 . S
C2864 C2866 1.394 . S
C2864 H2880 0.931 . S
C2865 C2864 1.391 . S
C2865 C2869 1.376 . S
C2866 C2864 1.394 . S
C2866 C2867 1.369 . S
C2866 C2870 1.531 . S
C2867 C2866 1.369 . S
C2867 C2868 1.410 . S
C2867 C2875 1.503 . S
C2868 C2867 1.410 . S
C2868 C2869 1.392 . S
C2868 C2871 1.511 . S
C2869 C2865 1.376 . S
C2869 C2868 1.392 . S
C2869 H2881 0.929 . S
C2870 C2866 1.531 . S
C2870 H2882 0.960 . S
C2870 H2883 0.962 . S
C2870 H2884 0.960 . S
C2871 C2868 1.511 . S
C2871 H2885 0.961 . S
C2871 H2886 0.961 . S
C2871 H2887 0.961 . S
C2872 C2873 1.370 . S
C2872 C2874 1.363 . S
C2872 H2888 0.931 . S
C2873 C2872 1.370 . S
C2873 C2877 1.408 . S
C2874 C2872 1.363 . S
C2874 C2875 1.370 . S
C2874 C2878 1.524 . S
C2875 C2867 1.503 . S
C2875 C2874 1.370 . S
C2875 C2876 1.403 . S
C2876 C2875 1.403 . S
C2876 C2877 1.404 . S
C2876 C2879 1.539 . S
C2877 C2873 1.408 . S
C2877 C2876 1.404 . S
C2877 H2889 0.930 . S
C2878 C2874 1.524 . S
C2878 H2890 0.956 . S
C2878 H2891 0.961 . S
C2878 H2892 0.961 . S
C2879 C2876 1.539 . S
C2879 H2893 0.958 . S
C2879 H2894 0.961 . S
C2879 H2895 0.960 . S
H2880 C2864 0.931 . S
H2881 C2869 0.929 . S
H2882 C2870 0.960 . S
H2883 C2870 0.962 . S
H2884 C2870 0.960 . S
H2885 C2871 0.961 . S
H2886 C2871 0.961 . S
H2887 C2871 0.961 . S
H2888 C2872 0.931 . S
H2889 C2877 0.930 . S
H2890 C2878 0.956 . S
H2891 C2878 0.961 . S
H2892 C2878 0.961 . S
H2893 C2879 0.958 . S
H2894 C2879 0.961 . S
H2895 C2879 0.960 . S
C2896 C2897 1.391 . S
C2896 C2898 1.394 . S
C2896 H2912 0.931 . S
C2897 C2896 1.391 . S
C2897 C2901 1.376 . S
C2898 C2896 1.394 . S
C2898 C2899 1.369 . S
C2898 C2902 1.531 . S
C2899 C2898 1.369 . S
C2899 C2900 1.410 . S
C2899 C2907 1.503 . S
C2900 C2899 1.410 . S
C2900 C2901 1.392 . S
C2900 C2903 1.511 . S
C2901 C2897 1.376 . S
C2901 C2900 1.392 . S
C2901 H2913 0.929 . S
C2902 C2898 1.531 . S
C2902 H2914 0.960 . S
C2902 H2915 0.962 . S
C2902 H2916 0.960 . S
C2903 C2900 1.511 . S
C2903 H2917 0.961 . S
C2903 H2918 0.961 . S
C2903 H2919 0.961 . S
C2904 C2905 1.370 . S
C2904 C2906 1.363 . S
C2904 H2920 0.931 . S
C2905 C2904 1.370 . S
C2905 C2909 1.408 . S
C2906 C2904 1.363 . S
C2906 C2907 1.370 . S
C2906 C2910 1.524 . S
C2907 C2899 1.503 . S
C2907 C2906 1.370 . S
C2907 C2908 1.403 . S
C2908 C2907 1.403 . S
C2908 C2909 1.404 . S
C2908 C2911 1.539 . S
C2909 C2905 1.408 . S
C2909 C2908 1.404 . S
C2909 H2921 0.930 . S
C2910 C2906 1.524 . S
C2910 H2922 0.956 . S
C2910 H2923 0.961 . S
C2910 H2924 0.961 . S
C2911 C2908 1.539 . S
C2911 H2925 0.958 . S
C2911 H2926 0.961 . S
C2911 H2927 0.960 . S
H2912 C2896 0.931 . S
H2913 C2901 0.929 . S
H2914 C2902 0.960 . S
H2915 C2902 0.962 . S
H2916 C2902 0.960 . S
H2917 C2903 0.961 . S
H2918 C2903 0.961 . S
H2919 C2903 0.961 . S
H2920 C2904 0.931 . S
H2921 C2909 0.930 . S
H2922 C2910 0.956 . S
H2923 C2910 0.961 . S
H2924 C2910 0.961 . S
H2925 C2911 0.958 . S
H2926 C2911 0.961 . S
H2927 C2911 0.960 . S
C633 C354 1.232 . S
C625 N300 1.244 . S
C657 N278 1.514 . S
C665 C348 1.474 . S
C697 C316 1.564 . S
C689 N265 1.632 . S
C721 N287 1.435 . S
C729 C330 1.367 . S
C761 C368 1.701 . S
C753 N213 1.761 . S
C793 C455 1.238 . S
C785 N226 1.242 . S
C817 N239 1.797 . S
C825 C382 1.778 . S
C857 C450 1.176 . S
C849 N252 1.149 . S
C881 N161 1.807 . S
C889 C406 1.773 . S
C921 C461 1.513 . S
C913 N174 1.541 . S
C945 N187 1.731 . S
C953 C400 1.728 . S
C977 N200 1.017 . S
C985 C446 1.019 . S
C1017 C502 1.044 . S
C1009 N144 0.986 . S
C1041 N122 1.570 . S
C1049 C513 1.577 . S
C1073 N109 1.323 . S
C1081 C498 1.320 . S
C1113 C507 1.412 . S
C1105 N131 1.417 . S
C1137 N57 1.386 1_655 S
C1145 C552 1.321 . S
C1169 N70 0.583 . S
C1177 C611 0.596 . S
C1201 N83 1.489 . S
C1209 C568 1.460 . S
C1233 N96 1.122 . S
C1241 C606 1.142 . S
C1273 C570 1.440 . S
C1265 N5 1.537 . S
C1305 C617 0.791 . S
C1297 N18 0.811 . S
C1329 N31 1.346 . S
C1337 C546 1.350 . S
C1369 C602 0.916 . S
C1361 N44 0.976 . S
C1401 C338 1.291 . S
C1393 N2 1.294 . S
C1425 N15 1.289 . S
C1433 C342 1.289 . S
C1457 N27 1.739 . S
C1465 C362 1.617 . S
C1489 N41 0.825 1_565 S
C1497 C357 0.861 . S
C1521 N54 1.394 . S
C1529 C360 1.329 . S
C1561 C346 1.061 . S
C1553 N67 1.102 . S
C1585 N79 1.660 . S
C1593 C344 1.590 . S
C1625 C351 1.047 . S
C1617 N93 1.038 . S
C1657 C414 1.568 . S
C1649 N40 1.671 1_545 S
C1681 N1 1.912 . S
C1689 C464 1.776 . S
C1721 C412 1.381 . S
C1713 N14 1.432 . S
C1753 C448 1.408 . S
C1745 N28 1.407 . S
C1777 N66 1.352 . S
C1785 C390 1.300 . S
C1817 C466 1.452 . S
C1809 N80 1.462 . S
C1849 C396 1.526 . S
C1841 N92 1.615 . S
C1881 C442 1.705 . S
C1873 N53 1.812 1_655 S
C1913 C434 1.488 . S
C1905 N106 1.504 . S
C1937 N119 1.321 . S
C1945 C458 1.343 . S
C1977 C394 1.489 . S
C1969 N105 1.508 . S
C2009 C420 1.541 1_556 S
C2001 N135 1.605 . S
C2033 N145 0.985 . S
C2041 C398 1.036 . S
C2065 N148 1.681 . S
C2073 C452 1.625 . S
C2105 C409 1.693 . S
C2097 N118 1.708 . S
C2137 C403 1.306 . S
C2129 N132 1.202 1_554 S
C2169 C486 1.592 . S
C2161 N158 1.600 . S
C2201 C518 1.464 . S
C2193 N171 1.490 . S
C2225 N183 1.988 . S
C2233 C472 1.911 . S
C2265 C516 1.025 . S
C2257 N197 0.994 . S
C2297 C504 1.583 . S
C2289 N210 1.556 . S
C2321 N223 1.251 . S
C2329 C500 1.243 . S
C2353 N235 1.997 . S
C2361 C510 1.915 . S
C2393 C494 1.169 . S
C2385 N249 1.201 . S
C2425 C559 1.455 . S
C2417 N196 1.503 . S
C2449 N157 1.653 . S
C2457 C620 1.557 . S
C2489 C554 1.233 . S
C2481 N170 1.243 . S
C2521 C604 1.280 . S
C2513 N184 1.283 . S
C2553 C550 1.182 . S
C2545 N222 1.173 . S
C2577 N236 1.257 . S
C2585 C622 1.273 . S
C2617 C565 1.437 . S
C2609 N248 1.453 . S
C2649 C598 1.447 . S
C2641 N209 1.492 . S
C2681 C590 1.648 . S
C2673 N262 1.719 . S
C2705 N275 1.785 . S
C2713 C614 1.695 . S
C2745 C556 1.701 . S
C2737 N261 1.773 . S
C2769 N291 2.050 . S
C2777 C576 1.895 . S
C2809 C538 1.353 . S
C2801 N301 1.317 . S
C2841 C608 1.750 . S
C2833 N304 1.831 . S
C2873 C524 1.695 . S
C2865 N274 1.801 . S
C2897 N288 1.260 . S
C2905 C562 1.295 . S
