# Generated by pormake.
# Topology pth, (4,4)-cn, num edge types: 1
# Building blocks:
#     Node 0, Type 0, BuildingBlock: UXUYUI_clean_sbu_0, # of connection points: 4
#     Node 1, Type 0, BuildingBlock: UXUYUI_clean_sbu_0, # of connection points: 4
#     Node 2, Type 0, BuildingBlock: UXUYUI_clean_sbu_0, # of connection points: 4
#     Node 3, Type 1, BuildingBlock: NAWXER_clean_linker_0, # of connection points: 4
#     Node 4, Type 1, BuildingBlock: NAWXER_clean_linker_0, # of connection points: 4
#     Node 5, Type 1, BuildingBlock: NAWXER_clean_linker_0, # of connection points: 4
#     Edge 6, Type (0, 1), None
#     Edge 7, Type (0, 1), None
#     Edge 8, Type (0, 1), None
#     Edge 9, Type (0, 1), None
#     Edge 10, Type (0, 1), None
#     Edge 11, Type (0, 1), None
#     Edge 12, Type (0, 1), None
#     Edge 13, Type (0, 1), None
#     Edge 14, Type (0, 1), None
#     Edge 15, Type (0, 1), None
#     Edge 16, Type (0, 1), None
#     Edge 17, Type (0, 1), None
# Relax obj value: 0.074
# Max RMSD: 0.209
# Mean RMSD: 0.112
data_MOF--net-pth--node1-UXUYUI_clean_sbu_0--node2-NAWXER_clean_linker_0--edge1-none
_symmetry_space_group_name_H-M    P1
_symmetry_Int_Tables_number       1
_symmetry_cell_setting            triclinic
loop_
_symmetry_equiv_pos_as_xyz
'x, y, z'
_cell_length_a     21.250685
_cell_length_b     21.256067
_cell_length_c     47.762567
_cell_angle_alpha  90.000653
_cell_angle_beta   89.834644
_cell_angle_gamma 120.00881
loop_
_atom_site_label
_atom_site_type_symbol
_atom_site_fract_x
_atom_site_fract_y
_atom_site_fract_z
_atom_type_partial_charge
Li0 Li 0.0655 0.04155 0.04019 0.0
Li1 Li 0.98373 0.0409 0.07574 0.0
Li2 Li 0.01761 0.94517 0.07595 0.0
Li3 Li 0.93603 0.94537 0.03976 0.0
C4 C 0.14103 0.1084 0.09201 0.0
N5 N 0.26442 0.22572 0.11362 0.0
C6 C 0.14981 0.17804 0.0907 0.0
C7 C 0.19461 0.0983 0.10462 0.0
C8 C 0.21266 0.23667 0.10167 0.0
C9 C 0.25674 0.15835 0.11532 0.0
C10 C 0.97489 0.10837 0.02394 0.0
C11 C 0.90833 0.15751 1.00063 0.0
N12 N 0.96766 0.22514 1.0023 0.0
C13 C 0.03537 0.17827 0.02522 0.0
C14 C 0.911 0.09774 0.01134 0.0
C15 C 0.03058 0.23662 0.01423 0.0
C16 C 0.122 0.10474 0.98875 0.0
N17 N 0.14265 0.103 0.01551 0.0
C18 C 0.26349 0.1981 0.0055 0.0
C19 C 0.21225 0.14718 0.02399 0.0
C20 C 0.24293 0.20329 0.97799 0.0
C21 C 0.1714 0.15461 0.96956 0.0
H22 H 0.06625 0.06879 0.98259 0.0
H23 H 0.22774 0.14451 0.04526 0.0
C24 C 0.9893 0.10274 0.12731 0.0
N25 N 0.96734 0.10153 0.10053 0.0
C26 C 0.98933 0.15212 0.14657 0.0
C27 C 0.94122 0.19623 0.11063 0.0
C28 C 0.94192 0.14575 0.09207 0.0
C29 C 0.96652 0.20089 0.13817 0.0
H30 H 0.00912 0.06677 0.13345 0.0
H31 H 0.92413 0.14352 0.07078 0.0
C32 C 0.07651 0.91934 0.02742 0.0
N33 N 0.18374 0.8881 0.01274 0.0
C34 C 0.06411 0.86924 0.00619 0.0
C35 C 0.1434 0.95361 0.04117 0.0
C36 C 0.11901 0.85413 0.99909 0.0
C37 C 0.19695 0.93711 0.03344 0.0
C38 C 0.85063 0.91796 0.08827 0.0
C39 C 0.81294 0.86731 0.1094 0.0
C40 C 0.81782 0.95223 0.07463 0.0
C41 C 0.74273 0.85164 0.11651 0.0
C42 C 0.74759 0.93516 0.08236 0.0
N43 N 0.71179 0.88562 0.10296 0.0
C44 C 0.04491 0.89728 0.12704 0.0
C45 C 0.01483 0.81511 0.08917 0.0
C46 C 0.04247 0.84545 0.14572 0.0
N47 N 0.03043 0.88091 0.09946 0.0
C48 C 0.01215 0.76188 0.10703 0.0
C49 C 0.02451 0.7761 0.13585 0.0
H50 H 0.05539 0.94955 0.1347 0.0
H51 H 0.00184 0.803 0.06725 0.0
C52 C 0.86138 0.89846 0.98858 0.0
N53 N 0.85932 0.88146 0.01611 0.0
C54 C 0.81225 0.84697 0.9698 0.0
C55 C 0.75895 0.76241 0.00831 0.0
C56 C 0.80923 0.81533 0.02627 0.0
C57 C 0.76098 0.77731 0.97953 0.0
H58 H 0.9031 0.951 0.98103 0.0
H59 H 0.80998 0.80273 0.04815 0.0
O60 O 0.07992 0.04999 0.08148 0.0
O61 O 0.97817 0.05023 0.03447 0.0
O62 O 0.02317 0.93453 0.03456 0.0
O63 O 0.91936 0.93371 0.08112 0.0
H64 H 0.10841 0.18678 0.08153 0.0
H65 H 0.18833 0.04462 0.10608 0.0
H66 H 0.22018 0.29087 0.10075 0.0
H67 H 0.2988 0.15138 0.12502 0.0
H68 H 0.85913 0.15012 0.99095 0.0
H69 H 0.08568 0.18744 0.03436 0.0
H70 H 0.8639 0.04386 0.00991 0.0
H71 H 0.07695 0.29101 0.01512 0.0
H72 H 0.31783 0.23476 0.01302 0.0
H73 H 0.15342 0.15561 0.94846 0.0
H74 H 0.00798 0.15272 0.16769 0.0
H75 H 0.92361 0.23298 0.10311 0.0
H76 H 0.01253 0.84228 0.99536 0.0
H77 H 0.15393 0.99254 0.05759 0.0
H78 H 0.11017 0.81541 0.98272 0.0
H79 H 0.249 0.96327 0.0439 0.0
H80 H 0.83771 0.84035 0.12015 0.0
H81 H 0.84622 0.99159 0.05829 0.0
H82 H 0.71286 0.81248 0.13281 0.0
H83 H 0.72154 0.96131 0.07198 0.0
H84 H 0.05154 0.85858 0.16777 0.0
H85 H 0.99923 0.70967 0.0984 0.0
H86 H 0.81641 0.86061 0.94778 0.0
H87 H 0.71973 0.70993 0.01683 0.0
Li88 Li 0.98423 0.92849 0.3723 0.0
Li89 Li 0.0658 0.01028 0.40849 0.0
Li90 Li 0.93633 0.97698 0.40806 0.0
Li91 Li 0.01811 0.0581 0.37251 0.0
C92 C 0.92532 0.84376 0.42083 0.0
N93 N 0.81808 0.70529 0.43551 0.0
C94 C 0.93772 0.80606 0.44206 0.0
C95 C 0.85843 0.81114 0.40708 0.0
C96 C 0.88281 0.73605 0.44916 0.0
C97 C 0.80488 0.74109 0.41481 0.0
C98 C 0.1512 0.06825 0.35998 0.0
C99 C 0.25425 0.18849 0.36589 0.0
N100 N 0.29005 0.17474 0.34529 0.0
C101 C 0.18889 0.05527 0.33885 0.0
C102 C 0.18401 0.13533 0.37362 0.0
C103 C 0.2591 0.10981 0.33174 0.0
C104 C 0.95692 0.85329 0.32121 0.0
N105 N 0.9714 0.8514 0.34879 0.0
C106 C 0.98968 0.75065 0.34122 0.0
C107 C 0.987 0.8012 0.35908 0.0
C108 C 0.97732 0.75251 0.31241 0.0
C109 C 0.95936 0.8039 0.30254 0.0
H110 H 0.94644 0.89509 0.31356 0.0
H111 H 0.99999 0.80208 0.381 0.0
C112 C 0.14044 0.03801 0.45968 0.0
N113 N 0.1425 0.02307 0.43214 0.0
C114 C 0.18957 0.03564 0.47845 0.0
C115 C 0.24287 0.00438 0.43995 0.0
C116 C 0.1926 0.00702 0.42199 0.0
C117 C 0.24084 0.01725 0.46872 0.0
H118 H 0.09873 0.04883 0.46722 0.0
H119 H 0.19184 0.99368 0.4001 0.0
C120 C 0.86081 0.9683 0.35624 0.0
N121 N 0.73741 0.96224 0.33463 0.0
C122 C 0.85203 0.02916 0.35756 0.0
C123 C 0.80722 0.90462 0.34363 0.0
C124 C 0.78919 0.02496 0.34658 0.0
C125 C 0.7451 0.90255 0.33293 0.0
C126 C 0.02695 0.13441 0.42431 0.0
C127 C 0.96648 0.14384 0.42303 0.0
C128 C 0.09085 0.18767 0.4369 0.0
C129 C 0.97129 0.207 0.43402 0.0
C130 C 0.09353 0.25012 0.44762 0.0
N131 N 0.03421 0.25844 0.44595 0.0
C132 C 0.87983 0.9837 0.4595 0.0
C133 C 0.78958 0.93585 0.42426 0.0
C134 C 0.83042 0.98417 0.47868 0.0
N135 N 0.85918 0.96129 0.43274 0.0
C136 C 0.73834 0.93554 0.44275 0.0
C137 C 0.75889 0.9613 0.47025 0.0
H138 H 0.93558 0.0035 0.46566 0.0
H139 H 0.77409 0.91769 0.40299 0.0
C140 C 0.01254 0.11436 0.32094 0.0
N141 N 0.0345 0.13512 0.34772 0.0
C142 C 0.01251 0.16372 0.30168 0.0
C143 C 0.06063 0.25594 0.33762 0.0
C144 C 0.05992 0.20476 0.35618 0.0
C145 C 0.03532 0.23529 0.31008 0.0
H146 H 0.99272 0.05857 0.3148 0.0
H147 H 0.07771 0.22032 0.37747 0.0
O148 O 0.97866 0.91229 0.41369 0.0
O149 O 0.08247 0.01528 0.36713 0.0
O150 O 0.92191 0.97099 0.36677 0.0
O151 O 0.02366 0.07298 0.41378 0.0
H152 H 0.9893 0.83069 0.45289 0.0
H153 H 0.84789 0.83953 0.39066 0.0
H154 H 0.89165 0.70617 0.46553 0.0
H155 H 0.75283 0.7152 0.40435 0.0
H156 H 0.28029 0.24069 0.37627 0.0
H157 H 0.16412 0.00354 0.3281 0.0
H158 H 0.15561 0.1463 0.38995 0.0
H159 H 0.28898 0.10052 0.31545 0.0
H160 H 0.0026 0.71137 0.34985 0.0
H161 H 0.9503 0.80796 0.28048 0.0
H162 H 0.18541 0.04513 0.50048 0.0
H163 H 0.28209 0.99113 0.43143 0.0
H164 H 0.89343 0.07929 0.36672 0.0
H165 H 0.8135 0.85723 0.34217 0.0
H166 H 0.78167 0.07163 0.3475 0.0
H167 H 0.70303 0.85352 0.32323 0.0
H168 H 0.91617 0.10271 0.41389 0.0
H169 H 0.13794 0.18088 0.43834 0.0
H170 H 0.92492 0.21502 0.43313 0.0
H171 H 0.14274 0.29193 0.45729 0.0
H172 H 0.8484 0.00315 0.49978 0.0
H173 H 0.68399 0.91785 0.43522 0.0
H174 H 0.99386 0.14566 0.28056 0.0
H175 H 0.07824 0.3103 0.34514 0.0
Li176 Li 0.05095 0.98166 0.70664 0.0
Li177 Li 0.04827 0.06398 0.74276 0.0
Li178 Li 0.95091 0.93162 0.74163 0.0
Li179 Li 0.95348 0.01658 0.7055 0.0
C180 C 0.09224 0.94212 0.75839 0.0
N181 N 0.16356 0.87395 0.7796 0.0
C182 C 0.16085 0.98307 0.7705 0.0
C183 C 0.05939 0.86649 0.75745 0.0
C184 C 0.19619 0.9476 0.78098 0.0
C185 C 0.09646 0.83304 0.76819 0.0
C186 C 0.09611 0.14662 0.69047 0.0
C187 C 0.10082 0.25902 0.67843 0.0
N188 N 0.16916 0.28496 0.66811 0.0
C189 C 0.16618 0.17413 0.67962 0.0
C190 C 0.06289 0.1891 0.68977 0.0
C191 C 0.2023 0.24433 0.66846 0.0
C192 C 0.09886 0.95217 0.65589 0.0
N193 N 0.11689 0.97033 0.68316 0.0
C194 C 0.23732 0.99303 0.67465 0.0
C195 C 0.18441 0.99033 0.69278 0.0
C196 C 0.22114 0.97645 0.64615 0.0
C197 C 0.15033 0.95467 0.63693 0.0
H198 H 0.04531 0.93849 0.64864 0.0
H199 H 0.19821 0.0069 0.71429 0.0
C200 C 0.10752 0.11919 0.79489 0.0
N201 N 0.10937 0.13971 0.76781 0.0
C202 C 0.15664 0.16797 0.81435 0.0
C203 C 0.20724 0.2589 0.77786 0.0
C204 C 0.15726 0.20831 0.75911 0.0
C205 C 0.20818 0.23864 0.80581 0.0
H206 H 0.06919 0.06404 0.80116 0.0
H207 H 0.15847 0.22349 0.73751 0.0
C208 C 0.90957 0.85082 0.68986 0.0
N209 N 0.83815 0.71139 0.66859 0.0
C210 C 0.84096 0.82324 0.67776 0.0
C211 C 0.94237 0.80798 0.69075 0.0
C212 C 0.80556 0.75246 0.66725 0.0
C213 C 0.90525 0.7375 0.67998 0.0
C214 C 0.9061 0.05182 0.75782 0.0
C215 C 0.83638 0.00973 0.76904 0.0
C216 C 0.93948 0.12755 0.75817 0.0
C217 C 0.80076 0.04429 0.78023 0.0
C218 C 0.90205 0.16003 0.76955 0.0
N219 N 0.83404 0.11808 0.78023 0.0
C220 C 0.90301 0.85417 0.79238 0.0
C221 C 0.81745 0.80683 0.75549 0.0
C222 C 0.85152 0.80519 0.81134 0.0
N223 N 0.88498 0.85433 0.76511 0.0
C224 C 0.76454 0.75663 0.77361 0.0
C225 C 0.7807 0.75619 0.80212 0.0
H226 H 0.95656 0.89402 0.79963 0.0
H227 H 0.80366 0.80963 0.73398 0.0
C228 C 0.89441 0.0128 0.65335 0.0
N229 N 0.89232 0.03113 0.68046 0.0
C230 C 0.84529 0.01248 0.63389 0.0
C231 C 0.7942 0.05208 0.67045 0.0
C232 C 0.84416 0.05145 0.6892 0.0
C233 C 0.79352 0.03126 0.64246 0.0
H234 H 0.93294 0.99627 0.64705 0.0
H235 H 0.84273 0.06507 0.71083 0.0
O236 O 0.0567 0.97602 0.74828 0.0
O237 O 0.06002 0.07806 0.70141 0.0
O238 O 0.94517 0.92022 0.69999 0.0
O239 O 0.94168 0.01885 0.74685 0.0
H240 H 0.18671 0.04168 0.77159 0.0
H241 H 0.00555 0.83388 0.74883 0.0
H242 H 0.24952 0.97862 0.79024 0.0
H243 H 0.07176 0.77453 0.76756 0.0
H244 H 0.07591 0.29265 0.67781 0.0
H245 H 0.19241 0.14166 0.67992 0.0
H246 H 0.00849 0.16838 0.69793 0.0
H247 H 0.25666 0.26649 0.66006 0.0
H248 H 0.2907 0.00912 0.68286 0.0
H249 H 0.13555 0.94242 0.61511 0.0
H250 H 0.15483 0.15026 0.83574 0.0
H251 H 0.24654 0.31243 0.77024 0.0
H252 H 0.81514 0.85603 0.6767 0.0
H253 H 0.99622 0.82916 0.69936 0.0
H254 H 0.75223 0.7302 0.658 0.0
H255 H 0.92992 0.70366 0.68058 0.0
H256 H 0.81004 0.95101 0.76902 0.0
H257 H 0.9936 0.16087 0.74972 0.0
H258 H 0.74668 0.01245 0.78891 0.0
H259 H 0.92708 0.21859 0.7699 0.0
H260 H 0.8663 0.8077 0.83315 0.0
H261 H 0.71114 0.71935 0.76541 0.0
H262 H 0.84728 0.99685 0.61247 0.0
H263 H 0.75471 0.06602 0.6781 0.0
C264 C 0.96971 0.26342 0.27271 0.0
C265 C 0.02991 0.28713 0.29064 0.0
C266 C 0.96282 0.31264 0.25538 0.0
C267 C 0.01614 0.38648 0.25552 0.0
C268 C 0.08333 0.36114 0.29056 0.0
C269 C 0.07621 0.41031 0.27332 0.0
C270 C 0.00789 0.44026 0.23866 0.0
C271 C 0.03213 0.29463 0.17554 0.0
C272 C 0.97194 0.25814 0.15761 0.0
C273 C 0.03903 0.35074 0.19287 0.0
C274 C 0.9857 0.37126 0.19273 0.0
C275 C 0.91851 0.27873 0.15769 0.0
C276 C 0.92564 0.33502 0.17493 0.0
C277 C 0.99395 0.43329 0.20959 0.0
C278 C 0.0637 0.73405 0.1782 0.0
C279 C 0.01602 0.71804 0.15551 0.0
C280 C 0.05635 0.67893 0.19624 0.0
C281 C 1.0008 0.60674 0.19211 0.0
C282 C 0.96009 0.64578 0.15162 0.0
C283 C 0.95294 0.59073 0.1696 0.0
C284 C 0.99671 0.54699 0.20944 0.0
C285 C 0.93814 0.67127 0.27005 0.0
C286 C 0.98581 0.70293 0.29274 0.0
C287 C 0.94549 0.6235 0.25201 0.0
C288 C 0.00104 0.60686 0.25614 0.0
C289 C 0.04175 0.68661 0.29663 0.0
C290 C 0.0489 0.63871 0.27865 0.0
C291 C 0.00513 0.55119 0.23881 0.0
H292 H 0.92671 0.20714 0.27265 0.0
H293 H 0.91497 0.29327 0.24239 0.0
H294 H 0.13075 0.38121 0.30383 0.0
H295 H 0.1178 0.46717 0.27386 0.0
H296 H 0.07513 0.28134 0.1756 0.0
H297 H 0.08688 0.37922 0.20586 0.0
H298 H 0.8711 0.25138 0.14442 0.0
H299 H 0.88405 0.35029 0.17438 0.0
H300 H 0.10798 0.78884 0.18158 0.0
H301 H 0.09553 0.6925 0.21289 0.0
H302 H 0.92156 0.63163 0.13468 0.0
H303 H 0.91001 0.53543 0.16586 0.0
H304 H 0.89386 0.68178 0.26667 0.0
H305 H 0.90631 0.59789 0.23536 0.0
H306 H 0.08027 0.71099 0.31357 0.0
H307 H 0.09183 0.62634 0.2824 0.0
N308 N 0.01201 0.49849 0.25217 0.0
N309 N 0.98983 0.4874 0.19608 0.0
C310 C 0.7306 0.02746 0.50744 0.0
C311 C 0.70697 0.96697 0.48964 0.0
C312 C 0.68137 0.03439 0.52483 0.0
C313 C 0.60761 0.98076 0.52491 0.0
C314 C 0.63301 0.91336 0.48986 0.0
C315 C 0.58384 0.92049 0.50718 0.0
C316 C 0.55389 0.98878 0.542 0.0
C317 C 0.70227 0.96698 0.60426 0.0
C318 C 0.73704 0.0261 0.62278 0.0
C319 C 0.64592 0.95972 0.58702 0.0
C320 C 0.62382 0.01188 0.58774 0.0
C321 C 0.71498 0.07838 0.62328 0.0
C322 C 0.65874 0.0711 0.60605 0.0
C323 C 0.56141 0.0032 0.57105 0.0
C324 C 0.26191 0.93454 0.60402 0.0
C325 C 0.27849 0.98413 0.62612 0.0
C326 C 0.31637 0.94101 0.58574 0.0
C327 C 0.38851 0.99736 0.58908 0.0
C328 C 0.3507 0.04106 0.62912 0.0
C329 C 0.40513 0.04715 0.61096 0.0
C330 C 0.44769 0.00052 0.57157 0.0
C331 C 0.32206 0.05715 0.51103 0.0
C332 C 0.2902 0.00895 0.48849 0.0
C333 C 0.36994 0.05019 0.52907 0.0
C334 C 0.38648 0.9945 0.52509 0.0
C335 C 0.30628 0.95278 0.48479 0.0
C336 C 0.35428 0.946 0.50277 0.0
C337 C 0.44271 0.99114 0.54224 0.0
H338 H 0.78683 0.07059 0.50738 0.0
H339 H 0.70068 0.08239 0.53776 0.0
H340 H 0.61301 0.86576 0.47668 0.0
H341 H 0.52703 0.87869 0.50679 0.0
H342 H 0.71691 0.92497 0.60375 0.0
H343 H 0.61846 0.91241 0.57369 0.0
H344 H 0.74103 0.1249 0.63708 0.0
H345 H 0.64231 0.11179 0.60706 0.0
H346 H 0.20724 0.88944 0.60131 0.0
H347 H 0.30241 0.90055 0.56953 0.0
H348 H 0.36535 0.08115 0.64551 0.0
H349 H 0.46044 0.0908 0.61406 0.0
H350 H 0.31172 0.10161 0.51426 0.0
H351 H 0.39585 0.08988 0.54556 0.0
H352 H 0.28173 0.91385 0.46797 0.0
H353 H 0.36658 0.90297 0.49914 0.0
N354 N 0.49523 0.98412 0.52871 0.0
N355 N 0.50757 0.00768 0.58472 0.0
C356 C 0.29961 0.26566 0.84395 0.0
C357 C 0.26471 0.28998 0.82548 0.0
C358 C 0.35596 0.31474 0.86119 0.0
C359 C 0.37796 0.38898 0.86051 0.0
C360 C 0.28665 0.36429 0.82504 0.0
C361 C 0.34292 0.41325 0.84226 0.0
C362 C 0.44038 0.44272 0.8772 0.0
C363 C 0.2712 0.29773 0.9408 0.0
C364 C 0.29484 0.26087 0.9586 0.0
C365 C 0.32042 0.35388 0.92341 0.0
C366 C 0.39419 0.37404 0.92333 0.0
C367 C 0.36881 0.28125 0.95838 0.0
C368 C 0.41797 0.33755 0.94106 0.0
C369 C 0.44791 0.43579 0.90625 0.0
C370 C 0.67976 0.73599 0.93722 0.0
C371 C 0.71161 0.71964 0.95976 0.0
C372 C 0.63187 0.68115 0.91918 0.0
C373 C 0.61532 0.60892 0.92316 0.0
C374 C 0.69552 0.64739 0.96346 0.0
C375 C 0.64752 0.59262 0.94548 0.0
C376 C 0.55909 0.54934 0.90601 0.0
C377 C 0.7399 0.6735 0.84423 0.0
C378 C 0.72335 0.70654 0.82214 0.0
C379 C 0.68543 0.62552 0.86252 0.0
C380 C 0.61329 0.60975 0.85918 0.0
C381 C 0.65115 0.69128 0.81914 0.0
C382 C 0.5967 0.64294 0.8373 0.0
C383 C 0.5541 0.55374 0.87668 0.0
H384 H 0.28506 0.20903 0.84442 0.0
H385 H 0.38351 0.29492 0.87449 0.0
H386 H 0.2605 0.38474 0.81129 0.0
H387 H 0.35927 0.47036 0.84128 0.0
H388 H 0.21497 0.28461 0.94086 0.0
H389 H 0.30111 0.38257 0.91048 0.0
H390 H 0.38881 0.25364 0.97156 0.0
H391 H 0.47478 0.35256 0.94145 0.0
H392 H 0.69011 0.79079 0.93399 0.0
H393 H 0.60597 0.69493 0.90269 0.0
H394 H 0.72007 0.63301 0.98028 0.0
H395 H 0.63521 0.53728 0.94911 0.0
H396 H 0.79456 0.68305 0.84695 0.0
H397 H 0.69937 0.59899 0.87872 0.0
H398 H 0.63651 0.71675 0.80275 0.0
H399 H 0.5414 0.63131 0.8342 0.0
N400 N 0.49422 0.50103 0.86353 0.0
N401 N 0.50657 0.48979 0.91954 0.0
loop_
_geom_bond_atom_site_label_1
_geom_bond_atom_site_label_2
_geom_bond_distance
_geom_bond_site_symmetry_2
_ccdc_geom_bond_type
Li0 N17 1.990 . S
Li0 O60 1.956 . S
Li0 O61 1.970 1_455 S
Li0 O62 1.961 1_545 S
Li1 N25 1.990 . S
Li1 O60 1.970 1_655 S
Li1 O61 1.956 . S
Li1 O63 1.961 1_545 S
Li2 N47 1.990 . S
Li2 O60 1.961 1_565 S
Li2 O62 1.956 . S
Li2 O63 1.970 1_455 S
Li3 N53 1.990 . S
Li3 O61 1.961 1_565 S
Li3 O62 1.970 1_655 S
Li3 O63 1.956 . S
C4 C6 1.348 . S
C4 C7 1.356 . S
C4 O60 1.325 . S
N5 C8 1.314 . S
N5 C9 1.279 . S
C6 C4 1.348 . S
C6 C8 1.353 . S
C6 H64 0.929 . S
C7 C4 1.356 . S
C7 C9 1.358 . S
C7 H65 0.930 . S
C8 N5 1.314 . S
C8 C6 1.353 . S
C8 H66 0.930 . S
C9 N5 1.279 . S
C9 C7 1.358 . S
C9 H67 0.930 . S
C10 C13 1.348 1_655 S
C10 C14 1.356 . S
C10 O61 1.325 . S
C11 N12 1.279 . S
C11 C14 1.358 1_556 S
C11 H68 0.930 . S
N12 C11 1.279 . S
N12 C15 1.314 . S
C13 C10 1.348 1_455 S
C13 C15 1.353 1_454 S
C13 H69 0.929 . S
C14 C10 1.356 . S
C14 C11 1.358 1_554 S
C14 H70 0.930 . S
C15 N12 1.314 . S
C15 C13 1.353 1_656 S
C15 H71 0.930 1_655 S
C16 N17 1.314 1_556 S
C16 C21 1.353 . S
C16 H22 0.930 . S
N17 Li0 1.990 . S
N17 C16 1.314 1_554 S
N17 C19 1.279 . S
C18 C19 1.358 . S
C18 C20 1.356 1_554 S
C18 H72 0.930 . S
C19 N17 1.279 . S
C19 C18 1.358 . S
C19 H23 0.930 . S
C20 C18 1.356 1_556 S
C20 C21 1.348 . S
C21 C16 1.353 . S
C21 C20 1.348 . S
C21 H73 0.929 . S
H22 C16 0.930 . S
H23 C19 0.930 . S
C24 N25 1.314 . S
C24 C26 1.353 . S
C24 H30 0.930 . S
N25 Li1 1.990 . S
N25 C24 1.314 . S
N25 C28 1.279 . S
C26 C24 1.353 . S
C26 C29 1.348 . S
C26 H74 0.929 . S
C27 C28 1.358 . S
C27 C29 1.356 . S
C27 H75 0.930 . S
C28 N25 1.279 . S
C28 C27 1.358 . S
C28 H31 0.930 . S
C29 C26 1.348 . S
C29 C27 1.356 . S
H30 C24 0.930 . S
H31 C28 0.930 . S
C32 C34 1.348 1_455 S
C32 C35 1.356 . S
C32 O62 1.325 . S
N33 C36 1.314 . S
N33 C37 1.279 . S
C34 C32 1.348 1_655 S
C34 C36 1.353 1_654 S
C34 H76 0.929 . S
C35 C32 1.356 . S
C35 C37 1.358 1_554 S
C35 H77 0.930 . S
C36 N33 1.314 . S
C36 C34 1.353 1_456 S
C36 H78 0.930 1_455 S
C37 N33 1.279 . S
C37 C35 1.358 1_556 S
C37 H79 0.930 . S
C38 C39 1.348 . S
C38 C40 1.356 . S
C38 O63 1.325 . S
C39 C38 1.348 . S
C39 C41 1.353 . S
C39 H80 0.929 . S
C40 C38 1.356 . S
C40 C42 1.358 . S
C40 H81 0.930 . S
C41 C39 1.353 . S
C41 N43 1.314 . S
C41 H82 0.930 . S
C42 C40 1.358 . S
C42 N43 1.279 . S
C42 H83 0.930 . S
N43 C41 1.314 . S
N43 C42 1.279 . S
C44 C46 1.353 . S
C44 N47 1.314 . S
C44 H50 0.930 . S
C45 N47 1.279 . S
C45 C48 1.358 . S
C45 H51 0.930 . S
C46 C44 1.353 . S
C46 C49 1.348 . S
C46 H84 0.929 . S
N47 Li2 1.990 . S
N47 C44 1.314 . S
N47 C45 1.279 . S
C48 C45 1.358 . S
C48 C49 1.356 . S
C48 H85 0.930 . S
C49 C46 1.348 . S
C49 C48 1.356 . S
H50 C44 0.930 . S
H51 C45 0.930 . S
C52 N53 1.314 1_556 S
C52 C54 1.353 . S
C52 H58 0.930 . S
N53 Li3 1.990 . S
N53 C52 1.314 1_554 S
N53 C56 1.279 . S
C54 C52 1.353 . S
C54 C57 1.348 . S
C54 H86 0.929 . S
C55 C56 1.358 . S
C55 C57 1.356 1_554 S
C55 H87 0.930 . S
C56 N53 1.279 . S
C56 C55 1.358 . S
C56 H59 0.930 . S
C57 C54 1.348 . S
C57 C55 1.356 1_556 S
H58 C52 0.930 . S
H59 C56 0.930 . S
O60 Li0 1.956 . S
O60 Li1 1.970 1_455 S
O60 Li2 1.961 1_545 S
O60 C4 1.325 . S
O61 Li0 1.970 1_655 S
O61 Li1 1.956 . S
O61 Li3 1.961 1_545 S
O61 C10 1.325 . S
O62 Li0 1.961 1_565 S
O62 Li2 1.956 . S
O62 Li3 1.970 1_455 S
O62 C32 1.325 . S
O63 Li1 1.961 1_565 S
O63 Li2 1.970 1_655 S
O63 Li3 1.956 . S
O63 C38 1.325 . S
H64 C6 0.929 . S
H65 C7 0.930 . S
H66 C8 0.930 . S
H67 C9 0.930 . S
H68 C11 0.930 . S
H69 C13 0.929 . S
H70 C14 0.930 . S
H71 C15 0.930 1_455 S
H72 C18 0.930 . S
H73 C21 0.929 . S
H74 C26 0.929 . S
H75 C27 0.930 . S
H76 C34 0.929 . S
H77 C35 0.930 . S
H78 C36 0.930 1_655 S
H79 C37 0.930 . S
H80 C39 0.929 . S
H81 C40 0.930 . S
H82 C41 0.930 . S
H83 C42 0.930 . S
H84 C46 0.929 . S
H85 C48 0.930 . S
H86 C54 0.929 . S
H87 C55 0.930 . S
Li88 N105 1.990 . S
Li88 O148 1.956 . S
Li88 O149 1.970 1_665 S
Li88 O150 1.961 . S
Li89 N113 1.990 . S
Li89 O148 1.970 1_445 S
Li89 O149 1.956 . S
Li89 O151 1.961 . S
Li90 N135 1.990 . S
Li90 O148 1.961 . S
Li90 O150 1.956 . S
Li90 O151 1.970 1_665 S
Li91 N141 1.990 . S
Li91 O149 1.961 . S
Li91 O150 1.970 1_445 S
Li91 O151 1.956 . S
C92 C94 1.348 1_655 S
C92 C95 1.356 . S
C92 O148 1.325 . S
N93 C96 1.314 . S
N93 C97 1.279 . S
C94 C92 1.348 1_455 S
C94 C96 1.353 1_455 S
C94 H152 0.929 . S
C95 C92 1.356 . S
C95 C97 1.358 . S
C95 H153 0.930 . S
C96 N93 1.314 . S
C96 C94 1.353 1_655 S
C96 H154 0.930 1_655 S
C97 N93 1.279 . S
C97 C95 1.358 . S
C97 H155 0.930 . S
C98 C101 1.348 1_545 S
C98 C102 1.356 . S
C98 O149 1.325 . S
C99 N100 1.279 . S
C99 C102 1.358 . S
C99 H156 0.930 . S
N100 C99 1.279 . S
N100 C103 1.314 . S
C101 C98 1.348 1_565 S
C101 C103 1.353 1_565 S
C101 H157 0.929 . S
C102 C98 1.356 . S
C102 C99 1.358 . S
C102 H158 0.930 . S
C103 N100 1.314 . S
C103 C101 1.353 1_545 S
C103 H159 0.930 1_545 S
C104 N105 1.314 . S
C104 C109 1.353 . S
C104 H110 0.930 . S
N105 Li88 1.990 . S
N105 C104 1.314 . S
N105 C107 1.279 . S
C106 C107 1.358 . S
C106 C108 1.356 . S
C106 H160 0.930 . S
C107 N105 1.279 . S
C107 C106 1.358 . S
C107 H111 0.930 . S
C108 C106 1.356 . S
C108 C109 1.348 . S
C109 C104 1.353 . S
C109 C108 1.348 . S
C109 H161 0.929 . S
H110 C104 0.930 . S
H111 C107 0.930 . S
C112 N113 1.314 . S
C112 C114 1.353 . S
C112 H118 0.930 . S
N113 Li89 1.990 . S
N113 C112 1.314 . S
N113 C116 1.279 . S
C114 C112 1.353 . S
C114 C117 1.348 . S
C114 H162 0.929 . S
C115 C116 1.358 . S
C115 C117 1.356 . S
C115 H163 0.930 . S
C116 N113 1.279 . S
C116 C115 1.358 . S
C116 H119 0.930 . S
C117 C114 1.348 . S
C117 C115 1.356 . S
H118 C112 0.930 . S
H119 C116 0.930 . S
C120 C122 1.348 1_565 S
C120 C123 1.356 . S
C120 O150 1.325 . S
N121 C124 1.314 . S
N121 C125 1.279 . S
C122 C120 1.348 1_545 S
C122 C124 1.353 1_545 S
C122 H164 0.929 . S
C123 C120 1.356 . S
C123 C125 1.358 . S
C123 H165 0.930 . S
C124 N121 1.314 . S
C124 C122 1.353 1_565 S
C124 H166 0.930 1_565 S
C125 N121 1.279 . S
C125 C123 1.358 . S
C125 H167 0.930 . S
C126 C127 1.348 1_455 S
C126 C128 1.356 . S
C126 O151 1.325 . S
C127 C126 1.348 1_655 S
C127 C129 1.353 1_655 S
C127 H168 0.929 . S
C128 C126 1.356 . S
C128 C130 1.358 . S
C128 H169 0.930 . S
C129 C127 1.353 1_455 S
C129 N131 1.314 . S
C129 H170 0.930 1_455 S
C130 C128 1.358 . S
C130 N131 1.279 . S
C130 H171 0.930 . S
N131 C129 1.314 . S
N131 C130 1.279 . S
C132 C134 1.353 . S
C132 N135 1.314 . S
C132 H138 0.930 . S
C133 N135 1.279 . S
C133 C136 1.358 . S
C133 H139 0.930 . S
C134 C132 1.353 . S
C134 C137 1.348 . S
C134 H172 0.929 . S
N135 Li90 1.990 . S
N135 C132 1.314 . S
N135 C133 1.279 . S
C136 C133 1.358 . S
C136 C137 1.356 . S
C136 H173 0.930 . S
C137 C134 1.348 . S
C137 C136 1.356 . S
H138 C132 0.930 . S
H139 C133 0.930 . S
C140 N141 1.314 . S
C140 C142 1.353 . S
C140 H146 0.930 . S
N141 Li91 1.990 . S
N141 C140 1.314 . S
N141 C144 1.279 . S
C142 C140 1.353 . S
C142 C145 1.348 . S
C142 H174 0.929 . S
C143 C144 1.358 . S
C143 C145 1.356 . S
C143 H175 0.930 . S
C144 N141 1.279 . S
C144 C143 1.358 . S
C144 H147 0.930 . S
C145 C142 1.348 . S
C145 C143 1.356 . S
H146 C140 0.930 . S
H147 C144 0.930 . S
O148 Li88 1.956 . S
O148 Li89 1.970 1_665 S
O148 Li90 1.961 . S
O148 C92 1.325 . S
O149 Li88 1.970 1_445 S
O149 Li89 1.956 . S
O149 Li91 1.961 . S
O149 C98 1.325 . S
O150 Li88 1.961 . S
O150 Li90 1.956 . S
O150 Li91 1.970 1_665 S
O150 C120 1.325 . S
O151 Li89 1.961 . S
O151 Li90 1.970 1_445 S
O151 Li91 1.956 . S
O151 C126 1.325 . S
H152 C94 0.929 . S
H153 C95 0.930 . S
H154 C96 0.930 1_455 S
H155 C97 0.930 . S
H156 C99 0.930 . S
H157 C101 0.929 . S
H158 C102 0.930 . S
H159 C103 0.930 1_565 S
H160 C106 0.930 . S
H161 C109 0.929 . S
H162 C114 0.929 . S
H163 C115 0.930 . S
H164 C122 0.929 . S
H165 C123 0.930 . S
H166 C124 0.930 1_545 S
H167 C125 0.930 . S
H168 C127 0.929 . S
H169 C128 0.930 . S
H170 C129 0.930 1_655 S
H171 C130 0.930 . S
H172 C134 0.929 . S
H173 C136 0.930 . S
H174 C142 0.929 . S
H175 C143 0.930 . S
Li176 N193 1.990 . S
Li176 O236 1.956 . S
Li176 O237 1.970 1_565 S
Li176 O238 1.961 1_455 S
Li177 N201 1.990 . S
Li177 O236 1.970 1_545 S
Li177 O237 1.956 . S
Li177 O239 1.961 1_455 S
Li178 N223 1.990 . S
Li178 O236 1.961 1_655 S
Li178 O238 1.956 . S
Li178 O239 1.970 1_565 S
Li179 N229 1.990 . S
Li179 O237 1.961 1_655 S
Li179 O238 1.970 1_545 S
Li179 O239 1.956 . S
C180 C182 1.348 1_565 S
C180 C183 1.356 . S
C180 O236 1.325 . S
N181 C184 1.314 . S
N181 C185 1.279 . S
C182 C180 1.348 1_545 S
C182 C184 1.353 1_545 S
C182 H240 0.929 . S
C183 C180 1.356 . S
C183 C185 1.358 . S
C183 H241 0.930 . S
C184 N181 1.314 . S
C184 C182 1.353 1_565 S
C184 H242 0.930 1_565 S
C185 N181 1.279 . S
C185 C183 1.358 . S
C185 H243 0.930 . S
C186 C189 1.348 . S
C186 C190 1.356 . S
C186 O237 1.325 . S
C187 N188 1.279 . S
C187 C190 1.358 . S
C187 H244 0.930 . S
N188 C187 1.279 . S
N188 C191 1.314 . S
C189 C186 1.348 . S
C189 C191 1.353 . S
C189 H245 0.929 . S
C190 C186 1.356 . S
C190 C187 1.358 . S
C190 H246 0.930 . S
C191 N188 1.314 . S
C191 C189 1.353 . S
C191 H247 0.930 . S
C192 N193 1.314 . S
C192 C197 1.353 . S
C192 H198 0.930 . S
N193 Li176 1.990 . S
N193 C192 1.314 . S
N193 C195 1.279 . S
C194 C195 1.358 . S
C194 C196 1.356 . S
C194 H248 0.930 . S
C195 N193 1.279 . S
C195 C194 1.358 . S
C195 H199 0.930 . S
C196 C194 1.356 . S
C196 C197 1.348 . S
C197 C192 1.353 . S
C197 C196 1.348 . S
C197 H249 0.929 . S
H198 C192 0.930 . S
H199 C195 0.930 . S
C200 N201 1.314 . S
C200 C202 1.353 . S
C200 H206 0.930 . S
N201 Li177 1.990 . S
N201 C200 1.314 . S
N201 C204 1.279 . S
C202 C200 1.353 . S
C202 C205 1.348 . S
C202 H250 0.929 . S
C203 C204 1.358 . S
C203 C205 1.356 . S
C203 H251 0.930 . S
C204 N201 1.279 . S
C204 C203 1.358 . S
C204 H207 0.930 . S
C205 C202 1.348 . S
C205 C203 1.356 . S
H206 C200 0.930 . S
H207 C204 0.930 . S
C208 C210 1.348 . S
C208 C211 1.356 . S
C208 O238 1.325 . S
N209 C212 1.314 . S
N209 C213 1.279 . S
C210 C208 1.348 . S
C210 C212 1.353 . S
C210 H252 0.929 . S
C211 C208 1.356 . S
C211 C213 1.358 . S
C211 H253 0.930 . S
C212 N209 1.314 . S
C212 C210 1.353 . S
C212 H254 0.930 . S
C213 N209 1.279 . S
C213 C211 1.358 . S
C213 H255 0.930 . S
C214 C215 1.348 1_545 S
C214 C216 1.356 . S
C214 O239 1.325 . S
C215 C214 1.348 1_565 S
C215 C217 1.353 1_565 S
C215 H256 0.929 . S
C216 C214 1.356 . S
C216 C218 1.358 . S
C216 H257 0.930 . S
C217 C215 1.353 1_545 S
C217 N219 1.314 . S
C217 H258 0.930 1_545 S
C218 C216 1.358 . S
C218 N219 1.279 . S
C218 H259 0.930 . S
N219 C217 1.314 . S
N219 C218 1.279 . S
C220 C222 1.353 . S
C220 N223 1.314 . S
C220 H226 0.930 . S
C221 N223 1.279 . S
C221 C224 1.358 . S
C221 H227 0.930 . S
C222 C220 1.353 . S
C222 C225 1.348 . S
C222 H260 0.929 . S
N223 Li178 1.990 . S
N223 C220 1.314 . S
N223 C221 1.279 . S
C224 C221 1.358 . S
C224 C225 1.356 . S
C224 H261 0.930 . S
C225 C222 1.348 . S
C225 C224 1.356 . S
H226 C220 0.930 . S
H227 C221 0.930 . S
C228 N229 1.314 . S
C228 C230 1.353 . S
C228 H234 0.930 . S
N229 Li179 1.990 . S
N229 C228 1.314 . S
N229 C232 1.279 . S
C230 C228 1.353 . S
C230 C233 1.348 . S
C230 H262 0.929 . S
C231 C232 1.358 . S
C231 C233 1.356 . S
C231 H263 0.930 . S
C232 N229 1.279 . S
C232 C231 1.358 . S
C232 H235 0.930 . S
C233 C230 1.348 . S
C233 C231 1.356 . S
H234 C228 0.930 . S
H235 C232 0.930 . S
O236 Li176 1.956 . S
O236 Li177 1.970 1_565 S
O236 Li178 1.961 1_455 S
O236 C180 1.325 . S
O237 Li176 1.970 1_545 S
O237 Li177 1.956 . S
O237 Li179 1.961 1_455 S
O237 C186 1.325 . S
O238 Li176 1.961 1_655 S
O238 Li178 1.956 . S
O238 Li179 1.970 1_565 S
O238 C208 1.325 . S
O239 Li177 1.961 1_655 S
O239 Li178 1.970 1_545 S
O239 Li179 1.956 . S
O239 C214 1.325 . S
H240 C182 0.929 . S
H241 C183 0.930 . S
H242 C184 0.930 1_545 S
H243 C185 0.930 . S
H244 C187 0.930 . S
H245 C189 0.929 . S
H246 C190 0.930 . S
H247 C191 0.930 . S
H248 C194 0.930 . S
H249 C197 0.929 . S
H250 C202 0.929 . S
H251 C203 0.930 . S
H252 C210 0.929 . S
H253 C211 0.930 . S
H254 C212 0.930 . S
H255 C213 0.930 . S
H256 C215 0.929 . S
H257 C216 0.930 . S
H258 C217 0.930 1_565 S
H259 C218 0.930 . S
H260 C222 0.929 . S
H261 C224 0.930 . S
H262 C230 0.929 . S
H263 C231 0.930 . S
C264 C265 1.384 1_655 S
C264 C266 1.384 . S
C264 H292 0.931 . S
C265 C264 1.384 1_455 S
C265 C268 1.382 . S
C266 C264 1.384 . S
C266 C267 1.381 1_655 S
C266 H293 0.930 . S
C267 C266 1.381 1_455 S
C267 C269 1.381 . S
C267 C270 1.487 . S
C268 C265 1.382 . S
C268 C269 1.387 . S
C268 H294 0.930 . S
C269 C267 1.381 . S
C269 C268 1.387 . S
C269 H295 0.931 . S
C270 C267 1.487 . S
C270 C277 1.399 1_455 S
C270 N308 1.343 . S
C271 C272 1.384 1_455 S
C271 C273 1.384 . S
C271 H296 0.931 . S
C272 C271 1.384 1_655 S
C272 C275 1.382 . S
C273 C271 1.384 . S
C273 C274 1.381 1_455 S
C273 H297 0.930 . S
C274 C273 1.381 1_655 S
C274 C276 1.381 . S
C274 C277 1.487 . S
C275 C272 1.382 . S
C275 C276 1.387 . S
C275 H298 0.930 . S
C276 C274 1.381 . S
C276 C275 1.387 . S
C276 H299 0.931 . S
C277 C270 1.399 1_655 S
C277 C274 1.487 . S
C277 N309 1.343 . S
C278 C279 1.384 1_455 S
C278 C280 1.384 . S
C278 H300 0.931 . S
C279 C278 1.384 1_655 S
C279 C282 1.382 . S
C280 C278 1.384 . S
C280 C281 1.381 1_455 S
C280 H301 0.930 . S
C281 C280 1.381 1_655 S
C281 C283 1.381 . S
C281 C284 1.487 . S
C282 C279 1.382 . S
C282 C283 1.387 . S
C282 H302 0.930 . S
C283 C281 1.381 . S
C283 C282 1.387 . S
C283 H303 0.931 . S
C284 C281 1.487 . S
C284 C291 1.399 1_655 S
C284 N309 1.343 . S
C285 C286 1.384 1_655 S
C285 C287 1.384 . S
C285 H304 0.931 . S
C286 C285 1.384 1_455 S
C286 C289 1.382 . S
C287 C285 1.384 . S
C287 C288 1.381 1_655 S
C287 H305 0.930 . S
C288 C287 1.381 1_455 S
C288 C290 1.381 . S
C288 C291 1.487 . S
C289 C286 1.382 . S
C289 C290 1.387 . S
C289 H306 0.930 . S
C290 C288 1.381 . S
C290 C289 1.387 . S
C290 H307 0.931 . S
C291 C284 1.399 1_455 S
C291 C288 1.487 . S
C291 N308 1.343 . S
H292 C264 0.931 . S
H293 C266 0.930 . S
H294 C268 0.930 . S
H295 C269 0.931 . S
H296 C271 0.931 . S
H297 C273 0.930 . S
H298 C275 0.930 . S
H299 C276 0.931 . S
H300 C278 0.931 . S
H301 C280 0.930 . S
H302 C282 0.930 . S
H303 C283 0.931 . S
H304 C285 0.931 . S
H305 C287 0.930 . S
H306 C289 0.930 . S
H307 C290 0.931 . S
N308 C270 1.343 . S
N308 C291 1.343 . S
N309 C277 1.343 . S
N309 C284 1.343 . S
C310 C311 1.384 1_545 S
C310 C312 1.384 . S
C310 H338 0.931 . S
C311 C310 1.384 1_565 S
C311 C314 1.382 . S
C312 C310 1.384 . S
C312 C313 1.381 1_545 S
C312 H339 0.930 . S
C313 C312 1.381 1_565 S
C313 C315 1.381 . S
C313 C316 1.487 . S
C314 C311 1.382 . S
C314 C315 1.387 . S
C314 H340 0.930 . S
C315 C313 1.381 . S
C315 C314 1.387 . S
C315 H341 0.931 . S
C316 C313 1.487 . S
C316 C323 1.399 1_565 S
C316 N354 1.343 . S
C317 C318 1.384 1_565 S
C317 C319 1.384 . S
C317 H342 0.931 . S
C318 C317 1.384 1_545 S
C318 C321 1.382 . S
C319 C317 1.384 . S
C319 C320 1.381 1_565 S
C319 H343 0.930 . S
C320 C319 1.381 1_545 S
C320 C322 1.381 . S
C320 C323 1.487 . S
C321 C318 1.382 . S
C321 C322 1.387 . S
C321 H344 0.930 . S
C322 C320 1.381 . S
C322 C321 1.387 . S
C322 H345 0.931 . S
C323 C316 1.399 1_545 S
C323 C320 1.487 . S
C323 N355 1.343 . S
C324 C325 1.384 1_565 S
C324 C326 1.384 . S
C324 H346 0.931 . S
C325 C324 1.384 1_545 S
C325 C328 1.382 . S
C326 C324 1.384 . S
C326 C327 1.381 1_565 S
C326 H347 0.930 . S
C327 C326 1.381 1_545 S
C327 C329 1.381 . S
C327 C330 1.487 . S
C328 C325 1.382 . S
C328 C329 1.387 . S
C328 H348 0.930 . S
C329 C327 1.381 . S
C329 C328 1.387 . S
C329 H349 0.931 . S
C330 C327 1.487 . S
C330 C337 1.399 1_545 S
C330 N355 1.343 . S
C331 C332 1.384 1_545 S
C331 C333 1.384 . S
C331 H350 0.931 . S
C332 C331 1.384 1_565 S
C332 C335 1.382 . S
C333 C331 1.384 . S
C333 C334 1.381 1_545 S
C333 H351 0.930 . S
C334 C333 1.381 1_565 S
C334 C336 1.381 . S
C334 C337 1.487 . S
C335 C332 1.382 . S
C335 C336 1.387 . S
C335 H352 0.930 . S
C336 C334 1.381 . S
C336 C335 1.387 . S
C336 H353 0.931 . S
C337 C330 1.399 1_565 S
C337 C334 1.487 . S
C337 N354 1.343 . S
H338 C310 0.931 . S
H339 C312 0.930 . S
H340 C314 0.930 . S
H341 C315 0.931 . S
H342 C317 0.931 . S
H343 C319 0.930 . S
H344 C321 0.930 . S
H345 C322 0.931 . S
H346 C324 0.931 . S
H347 C326 0.930 . S
H348 C328 0.930 . S
H349 C329 0.931 . S
H350 C331 0.931 . S
H351 C333 0.930 . S
H352 C335 0.930 . S
H353 C336 0.931 . S
N354 C316 1.343 . S
N354 C337 1.343 . S
N355 C323 1.343 . S
N355 C330 1.343 . S
C356 C357 1.384 . S
C356 C358 1.384 . S
C356 H384 0.931 . S
C357 C356 1.384 . S
C357 C360 1.382 . S
C358 C356 1.384 . S
C358 C359 1.381 . S
C358 H385 0.930 . S
C359 C358 1.381 . S
C359 C361 1.381 . S
C359 C362 1.487 . S
C360 C357 1.382 . S
C360 C361 1.387 . S
C360 H386 0.930 . S
C361 C359 1.381 . S
C361 C360 1.387 . S
C361 H387 0.931 . S
C362 C359 1.487 . S
C362 C369 1.399 . S
C362 N400 1.343 . S
C363 C364 1.384 . S
C363 C365 1.384 . S
C363 H388 0.931 . S
C364 C363 1.384 . S
C364 C367 1.382 . S
C365 C363 1.384 . S
C365 C366 1.381 . S
C365 H389 0.930 . S
C366 C365 1.381 . S
C366 C368 1.381 . S
C366 C369 1.487 . S
C367 C364 1.382 . S
C367 C368 1.387 . S
C367 H390 0.930 . S
C368 C366 1.381 . S
C368 C367 1.387 . S
C368 H391 0.931 . S
C369 C362 1.399 . S
C369 C366 1.487 . S
C369 N401 1.343 . S
C370 C371 1.384 . S
C370 C372 1.384 . S
C370 H392 0.931 . S
C371 C370 1.384 . S
C371 C374 1.382 . S
C372 C370 1.384 . S
C372 C373 1.381 . S
C372 H393 0.930 . S
C373 C372 1.381 . S
C373 C375 1.381 . S
C373 C376 1.487 . S
C374 C371 1.382 . S
C374 C375 1.387 . S
C374 H394 0.930 . S
C375 C373 1.381 . S
C375 C374 1.387 . S
C375 H395 0.931 . S
C376 C373 1.487 . S
C376 C383 1.399 . S
C376 N401 1.343 . S
C377 C378 1.384 . S
C377 C379 1.384 . S
C377 H396 0.931 . S
C378 C377 1.384 . S
C378 C381 1.382 . S
C379 C377 1.384 . S
C379 C380 1.381 . S
C379 H397 0.930 . S
C380 C379 1.381 . S
C380 C382 1.381 . S
C380 C383 1.487 . S
C381 C378 1.382 . S
C381 C382 1.387 . S
C381 H398 0.930 . S
C382 C380 1.381 . S
C382 C381 1.387 . S
C382 H399 0.931 . S
C383 C376 1.399 . S
C383 C380 1.487 . S
C383 N400 1.343 . S
H384 C356 0.931 . S
H385 C358 0.930 . S
H386 C360 0.930 . S
H387 C361 0.931 . S
H388 C363 0.931 . S
H389 C365 0.930 . S
H390 C367 0.930 . S
H391 C368 0.931 . S
H392 C370 0.931 . S
H393 C372 0.930 . S
H394 C374 0.930 . S
H395 C375 0.931 . S
H396 C377 0.931 . S
H397 C379 0.930 . S
H398 C381 0.930 . S
H399 C382 0.931 . S
N400 C362 1.343 . S
N400 C383 1.343 . S
N401 C369 1.343 . S
N401 C376 1.343 . S
C272 C29 1.949 . S
C137 C311 1.951 . S
C225 C378 2.000 . S
C49 C279 2.000 1_455 S
C332 C117 1.998 1_565 S
C205 C357 1.949 . S
C318 C233 1.951 . S
C57 C371 2.000 . S
C286 C108 2.000 1_455 S
C325 C196 1.998 1_545 S
C364 C20 1.949 . S
C145 C265 1.949 . S
