# Generated by pormake.
# Topology zzz, (3,6)-cn, num edge types: 1
# Building blocks:
#     Node 0, Type 0, BuildingBlock: MIDCAF_clean_linker_0, # of connection points: 3
#     Node 1, Type 0, BuildingBlock: MIDCAF_clean_linker_0, # of connection points: 3
#     Node 2, Type 0, BuildingBlock: MIDCAF_clean_linker_0, # of connection points: 3
#     Node 3, Type 0, BuildingBlock: MIDCAF_clean_linker_0, # of connection points: 3
#     Node 4, Type 0, BuildingBlock: MIDCAF_clean_linker_0, # of connection points: 3
#     Node 5, Type 0, BuildingBlock: MIDCAF_clean_linker_0, # of connection points: 3
#     Node 6, Type 0, BuildingBlock: MIDCAF_clean_linker_0, # of connection points: 3
#     Node 7, Type 0, BuildingBlock: MIDCAF_clean_linker_0, # of connection points: 3
#     Node 8, Type 1, BuildingBlock: KUMBUR_clean_sbu_1, # of connection points: 6
#     Node 9, Type 1, BuildingBlock: KUMBUR_clean_sbu_1, # of connection points: 6
#     Node 10, Type 1, BuildingBlock: KUMBUR_clean_sbu_1, # of connection points: 6
#     Node 11, Type 1, BuildingBlock: KUMBUR_clean_sbu_1, # of connection points: 6
#     Edge 12, Type (0, 1), BuildingBlock: OJICUG_clean_linker_0, # of connection points: 2
#     Edge 13, Type (0, 1), BuildingBlock: OJICUG_clean_linker_0, # of connection points: 2
#     Edge 14, Type (0, 1), BuildingBlock: OJICUG_clean_linker_0, # of connection points: 2
#     Edge 15, Type (0, 1), BuildingBlock: OJICUG_clean_linker_0, # of connection points: 2
#     Edge 16, Type (0, 1), BuildingBlock: OJICUG_clean_linker_0, # of connection points: 2
#     Edge 17, Type (0, 1), BuildingBlock: OJICUG_clean_linker_0, # of connection points: 2
#     Edge 18, Type (0, 1), BuildingBlock: OJICUG_clean_linker_0, # of connection points: 2
#     Edge 19, Type (0, 1), BuildingBlock: OJICUG_clean_linker_0, # of connection points: 2
#     Edge 20, Type (0, 1), BuildingBlock: OJICUG_clean_linker_0, # of connection points: 2
#     Edge 21, Type (0, 1), BuildingBlock: OJICUG_clean_linker_0, # of connection points: 2
#     Edge 22, Type (0, 1), BuildingBlock: OJICUG_clean_linker_0, # of connection points: 2
#     Edge 23, Type (0, 1), BuildingBlock: OJICUG_clean_linker_0, # of connection points: 2
#     Edge 24, Type (0, 1), BuildingBlock: OJICUG_clean_linker_0, # of connection points: 2
#     Edge 25, Type (0, 1), BuildingBlock: OJICUG_clean_linker_0, # of connection points: 2
#     Edge 26, Type (0, 1), BuildingBlock: OJICUG_clean_linker_0, # of connection points: 2
#     Edge 27, Type (0, 1), BuildingBlock: OJICUG_clean_linker_0, # of connection points: 2
#     Edge 28, Type (0, 1), BuildingBlock: OJICUG_clean_linker_0, # of connection points: 2
#     Edge 29, Type (0, 1), BuildingBlock: OJICUG_clean_linker_0, # of connection points: 2
#     Edge 30, Type (0, 1), BuildingBlock: OJICUG_clean_linker_0, # of connection points: 2
#     Edge 31, Type (0, 1), BuildingBlock: OJICUG_clean_linker_0, # of connection points: 2
#     Edge 32, Type (0, 1), BuildingBlock: OJICUG_clean_linker_0, # of connection points: 2
#     Edge 33, Type (0, 1), BuildingBlock: OJICUG_clean_linker_0, # of connection points: 2
#     Edge 34, Type (0, 1), BuildingBlock: OJICUG_clean_linker_0, # of connection points: 2
#     Edge 35, Type (0, 1), BuildingBlock: OJICUG_clean_linker_0, # of connection points: 2
# Relax obj value: 0.358
# Max RMSD: 0.206
# Mean RMSD: 0.185
data_MOF--net-zzz--node1-KUMBUR_clean_sbu_1--node2-MIDCAF_clean_linker_0--edge1-OJICUG_clean_linker_0
_symmetry_space_group_name_H-M    P1
_symmetry_Int_Tables_number       1
_symmetry_cell_setting            triclinic
loop_
_symmetry_equiv_pos_as_xyz
'x, y, z'
_cell_length_a     43.666086
_cell_length_b     43.829515
_cell_length_c     16.344889
_cell_angle_alpha  90.027064
_cell_angle_beta   90.012322
_cell_angle_gamma 90.457066
loop_
_atom_site_label
_atom_site_type_symbol
_atom_site_fract_x
_atom_site_fract_y
_atom_site_fract_z
_atom_type_partial_charge
C0 C 0.83467 0.57735 0.44563 0.0
C1 C 0.84924 0.54873 0.44756 0.0
C2 C 0.83615 0.52519 0.39922 0.0
C3 C 0.81089 0.53075 0.34692 0.0
H4 H 0.70342 0.51595 0.17424 0.0
H5 H 0.65742 0.5056 0.09246 0.0
H6 H 0.65011 0.60213 0.04104 0.0
H7 H 0.6938 0.61195 0.12667 0.0
H8 H 0.76266 0.60424 0.98494 0.0
H9 H 0.79642 0.59719 0.871 0.0
H10 H 0.87454 0.61344 0.02819 0.0
H11 H 0.84034 0.61768 0.14511 0.0
H12 H 0.80064 0.60578 0.39001 0.0
H13 H 0.84328 0.59605 0.48254 0.0
H14 H 0.84656 0.50287 0.39781 0.0
H15 H 0.80319 0.51281 0.30604 0.0
N16 N 0.74925 0.56099 0.25335 0.0
N17 N 0.75098 0.58931 0.13094 0.0
N18 N 0.7945 0.58694 0.21287 0.0
C19 C 0.73483 0.57177 0.18394 0.0
C20 C 0.78059 0.59686 0.14393 0.0
C21 C 0.77938 0.56936 0.26838 0.0
C22 C 0.70237 0.56485 0.15839 0.0
C23 C 0.69101 0.53495 0.14846 0.0
C24 C 0.66485 0.52905 0.0991 0.0
C25 C 0.6495 0.55281 0.0567 0.0
C26 C 0.66014 0.58278 0.07161 0.0
C27 C 0.68567 0.58859 0.12162 0.0
C28 C 0.799 0.60898 0.07508 0.0
C29 C 0.78699 0.60724 0.99535 0.0
C30 C 0.80661 0.60352 0.92898 0.0
C31 C 0.83842 0.60212 0.94165 0.0
C32 C 0.85007 0.6121 1.01764 0.0
C33 C 0.83047 0.61472 0.08479 0.0
C34 C 0.79762 0.5599 0.342 0.0
C35 C 0.80959 0.58283 0.39356 0.0
C36 C 0.96475 0.83063 0.45047 0.0
C37 C 0.99215 0.848 0.4483 0.0
C38 C 0.01484 0.83864 0.39203 0.0
C39 C 1.00952 0.81425 0.33695 0.0
H40 H 0.02128 0.70299 0.17465 0.0
H41 H 0.0307 0.65703 0.093 0.0
H42 H 0.9345 0.65287 0.03047 0.0
H43 H 0.92539 0.69689 0.11522 0.0
H44 H 0.92232 0.76277 0.98957 0.0
H45 H 0.92941 0.78918 0.86019 0.0
H46 H 0.95248 0.8719 0.9903 0.0
H47 H 0.94607 0.84556 0.11969 0.0
H48 H 0.9373 0.79511 0.39554 0.0
H49 H 0.94676 0.83639 0.49319 0.0
H50 H 0.03612 0.85132 0.38689 0.0
H51 H 0.02656 0.80944 0.29065 0.0
N52 N 0.97779 0.75005 0.24843 0.0
N53 N 0.95132 0.75319 0.12328 0.0
N54 N 0.95616 0.79662 0.20466 0.0
C55 C 0.96698 0.73623 0.17804 0.0
C56 C 0.94594 0.78316 0.13508 0.0
C57 C 0.97161 0.78053 0.26228 0.0
C58 C 0.97249 0.70368 0.15284 0.0
C59 C 1.00203 0.69133 0.14644 0.0
C60 C 1.00746 0.66521 0.09732 0.0
C61 C 0.98358 0.65082 0.05205 0.0
C62 C 0.95381 0.66232 0.06355 0.0
C63 C 0.94845 0.68795 0.11297 0.0
C64 C 0.93549 0.80165 0.06473 0.0
C65 C 0.92762 0.78695 0.99091 0.0
C66 C 0.93138 0.8021 0.91651 0.0
C67 C 0.94264 0.83214 0.91542 0.0
C68 C 0.9442 0.84853 0.98934 0.0
C69 C 0.94075 0.8333 0.06385 0.0
C70 C 0.98155 0.79801 0.33684 0.0
C71 C 0.9595 0.80633 0.39543 0.0
C72 C 0.71383 0.9734 0.49298 0.0
C73 C 0.69367 0.9973 0.47346 0.0
C74 C 0.70179 0.01617 0.40655 0.0
C75 C 0.72746 1.00973 0.35699 0.0
H76 H 0.8352 0.01584 0.195 0.0
H77 H 0.88004 0.02625 0.10773 0.0
H78 H 0.87437 0.93446 1.01237 0.0
H79 H 0.83126 0.92402 0.10015 0.0
H80 H 0.75081 0.92305 0.03098 0.0
H81 H 0.7023 0.92265 0.9582 0.0
H82 H 0.65522 0.90498 0.18666 0.0
H83 H 0.70338 0.90283 0.25623 0.0
H84 H 0.75229 0.94643 0.45548 0.0
H85 H 0.70861 0.95809 0.5431 0.0
H86 H 0.68739 0.03515 0.38971 0.0
H87 H 0.73099 0.023 0.30185 0.0
N88 N 0.78899 0.97743 0.26725 0.0
N89 N 0.78088 0.94059 0.16362 0.0
N90 N 0.74461 0.94655 0.26654 0.0
C91 C 0.79922 0.96234 0.19818 0.0
C92 C 0.75374 0.9325 0.19738 0.0
C93 C 0.76145 0.96881 0.30225 0.0
C94 C 0.82914 0.96913 0.15502 0.0
C95 C 0.84397 0.99778 0.15659 0.0
C96 C 0.86958 1.0038 0.10539 0.0
C97 C 0.88124 0.98131 0.05147 0.0
C98 C 0.86689 0.95247 0.05284 0.0
C99 C 0.8416 0.94653 0.1034 0.0
C100 C 0.73049 0.91526 0.15027 0.0
C101 C 0.73016 0.91733 0.06456 0.0
C102 C 0.70214 0.91769 0.02306 0.0
C103 C 0.67446 0.91703 0.06755 0.0
C104 C 0.67562 0.90728 0.14969 0.0
C105 C 0.70357 0.90608 0.19049 0.0
C106 C 0.74606 0.9843 0.3726 0.0
C107 C 0.73937 0.96692 0.4431 0.0
C108 C 0.57966 0.68658 0.99479 0.0
C109 C 0.57768 0.70269 0.92065 0.0
C110 C 0.58808 0.73303 0.91788 0.0
C111 C 0.59422 0.74866 0.99047 0.0
H112 H 0.50931 0.80203 0.05926 0.0
H113 H 0.50234 0.84624 0.97107 0.0
H114 H 0.55862 0.9003 0.13336 0.0
H115 H 0.56629 0.85539 0.22084 0.0
H116 H 0.50083 0.7291 0.31782 0.0
H117 H 0.49339 0.68672 0.41364 0.0
H118 H 0.58906 0.6922 0.48004 0.0
H119 H 0.59632 0.73347 0.38186 0.0
H120 H 0.58275 0.69012 0.12477 0.0
H121 H 0.57222 0.66297 0.99851 0.0
H122 H 0.58747 0.74571 0.86102 0.0
H123 H 0.5984 0.77303 0.98728 0.0
N124 N 0.56845 0.78076 0.12254 0.0
N125 N 0.54442 0.78191 0.25139 0.0
N126 N 0.57293 0.73899 0.20968 0.0
C127 C 0.55141 0.79591 0.17815 0.0
C128 C 0.55605 0.75335 0.26774 0.0
C129 C 0.57921 0.75246 0.13696 0.0
C130 C 0.53784 0.82511 0.14842 0.0
C131 C 0.51922 0.82367 0.07811 0.0
C132 C 0.51576 0.84899 0.02636 0.0
C133 C 0.53069 0.87691 0.043 0.0
C134 C 0.54709 0.87923 0.1174 0.0
C135 C 0.55103 0.85355 0.16877 0.0
C136 C 0.54902 0.73531 0.34336 0.0
C137 C 0.51994 0.72198 0.35528 0.0
C138 C 0.51582 0.69732 0.41013 0.0
C139 C 0.54069 0.68516 0.45478 0.0
C140 C 0.56934 0.69996 0.446 0.0
C141 C 0.57346 0.72426 0.39073 0.0
C142 C 0.58954 0.73412 0.06627 0.0
C143 C 0.58562 0.70226 0.06754 0.0
C144 C 0.17862 0.51609 0.0373 0.0
C145 C 0.17834 0.5033 0.95804 0.0
C146 C 0.20475 0.48723 0.93329 0.0
C147 C 0.22987 0.48317 0.98698 0.0
H148 H 0.32123 0.53925 0.23942 0.0
H149 H 0.36652 0.54992 0.32563 0.0
H150 H 0.38998 0.4547 0.319 0.0
H151 H 0.34575 0.44429 0.23185 0.0
H152 H 0.28271 0.42581 0.3823 0.0
H153 H 0.26008 0.42273 0.51796 0.0
H154 H 0.17123 0.44152 0.41415 0.0
H155 H 0.19365 0.44469 0.27928 0.0
H156 H 0.20182 0.52043 0.15277 0.0
H157 H 0.15885 0.52821 0.05998 0.0
H158 H 0.2058 0.47722 0.87278 0.0
H159 H 0.2489 0.46926 0.96735 0.0
N160 N 0.28072 0.49299 0.14153 0.0
N161 N 0.28462 0.46161 0.25792 0.0
N162 N 0.23821 0.46405 0.18796 0.0
C163 C 0.29788 0.48148 0.20522 0.0
C164 C 0.25505 0.45284 0.25063 0.0
C165 C 0.25066 0.48348 0.13207 0.0
C166 C 0.32999 0.49096 0.22684 0.0
C167 C 0.33702 0.52094 0.25244 0.0
C168 C 0.36278 0.52697 0.30302 0.0
C169 C 0.38176 0.50308 0.33027 0.0
C170 C 0.37587 0.47362 0.29981 0.0
C171 C 0.35064 0.46774 0.2487 0.0
C172 C 0.2402 0.43729 0.32075 0.0
C173 C 0.25811 0.42803 0.38788 0.0
C174 C 0.24516 0.42608 0.4658 0.0
C175 C 0.21419 0.43322 0.47728 0.0
C176 C 0.19533 0.43636 0.40788 0.0
C177 C 0.20828 0.43843 0.33001 0.0
C178 C 0.22944 0.49511 0.06702 0.0
C179 C 0.20352 0.51184 0.09078 0.0
C180 C 0.02418 0.19167 1.0043 0.0
C181 C 0.03983 0.18643 0.92985 0.0
C182 C 0.06042 0.20948 0.90357 0.0
C183 C 0.06635 0.23565 0.95178 0.0
H184 H 1.00996 0.32642 0.213 0.0
H185 H 0.99793 0.37086 0.29843 0.0
H186 H 0.09326 0.39813 0.29246 0.0
H187 H 0.10442 0.35516 0.20508 0.0
H188 H 0.11764 0.28442 0.34857 0.0
H189 H 0.12227 0.24874 0.45956 0.0
H190 H 0.14083 0.17645 0.28738 0.0
H191 H 0.1339 0.21203 0.17483 0.0
H192 H 0.01917 0.21984 0.11148 0.0
H193 H 1.00856 0.17465 0.02849 0.0
H194 H 0.07271 0.20704 0.84649 0.0
H195 H 0.08388 0.25162 0.93195 0.0
N196 N 0.0541 0.28955 0.11012 0.0
N197 N 0.0925 0.29429 0.21078 0.0
N198 N 0.08959 0.24998 0.13221 0.0
C199 C 0.0684 0.3065 0.17051 0.0
C200 C 0.10315 0.2662 0.19298 0.0
C201 C 0.0655 0.26122 0.08965 0.0
C202 C 0.05813 0.3372 0.20085 0.0
C203 C 0.02799 0.34269 0.22721 0.0
C204 C 0.02131 0.36799 0.27816 0.0
C205 C 0.0446 0.38849 0.30486 0.0
C206 C 0.0743 0.38369 0.27386 0.0
C207 C 0.08083 0.35872 0.22304 0.0
C208 C 0.12292 0.25043 0.25287 0.0
C209 C 0.12396 0.2612 0.33392 0.0
C210 C 0.12698 0.24059 0.39835 0.0
C211 C 0.12943 0.20923 0.3818 0.0
C212 C 0.13701 0.20027 0.30158 0.0
C213 C 0.13303 0.22067 0.23688 0.0
C214 C 0.0515 0.24019 0.02728 0.0
C215 C 0.03001 0.21795 0.0521 0.0
C216 C 0.35234 0.01483 0.04028 0.0
C217 C 0.35265 0.01743 0.9543 0.0
C218 C 0.32481 0.02483 0.91535 0.0
C219 C 0.29832 0.03179 0.96135 0.0
H220 H 0.21195 1.00011 0.22867 0.0
H221 H 0.16787 0.98851 0.31748 0.0
H222 H 0.14451 0.08408 0.32036 0.0
H223 H 0.18704 0.09513 0.23072 0.0
H224 H 0.25125 0.13354 0.29229 0.0
H225 H 0.28677 0.15109 0.3968 0.0
H226 H 0.36207 0.13667 0.23046 0.0
H227 H 0.32678 0.12129 0.12549 0.0
H228 H 0.32737 0.02142 0.15209 0.0
H229 H 0.37308 1.00898 0.07284 0.0
H230 H 0.32405 0.02737 0.84948 0.0
H231 H 0.2783 0.04021 0.92969 0.0
N232 N 0.24968 0.03904 0.12956 0.0
N233 N 0.24385 0.08631 0.19674 0.0
N234 N 0.28671 0.07811 0.11518 0.0
C235 C 0.23269 0.05797 0.17923 0.0
C236 C 0.27072 0.0966 0.16546 0.0
C237 C 0.2767 0.0497 0.09591 0.0
C238 C 0.2034 0.0486 0.22194 0.0
C239 C 0.19691 0.01845 0.24671 0.0
C240 C 0.17174 0.01192 0.29891 0.0
C241 C 0.15219 0.0353 0.32766 0.0
C242 C 0.15825 0.06513 0.29974 0.0
C243 C 0.18314 0.07157 0.24812 0.0
C244 C 0.28665 0.12304 0.20364 0.0
C245 C 0.27527 0.13563 0.2766 0.0
C246 C 0.29579 0.14564 0.33688 0.0
C247 C 0.32746 0.14119 0.32566 0.0
C248 C 0.33791 0.13793 0.24453 0.0
C249 C 0.31747 0.12873 0.18354 0.0
C250 C 0.29862 0.03079 0.04753 0.0
C251 C 0.32583 0.02138 0.08591 0.0
C252 C 0.38685 0.32236 0.29341 0.0
C253 C 0.39309 0.31323 0.3744 0.0
C254 C 0.39714 0.28194 0.38934 0.0
C255 C 0.40387 0.26245 0.32446 0.0
H256 H 0.44023 0.17369 0.20348 0.0
H257 H 0.45266 0.1323 0.29655 0.0
H258 H 0.54265 0.17099 0.3335 0.0
H259 H 0.52974 0.21355 0.24072 0.0
H260 H 0.45227 0.28303 0.94471 0.0
H261 H 0.46289 0.32818 0.86162 0.0
H262 H 0.52869 0.35897 0.04153 0.0
H263 H 0.51858 0.31299 0.12265 0.0
H264 H 0.39544 0.31262 0.16718 0.0
H265 H 0.38136 0.34589 0.27995 0.0
H266 H 0.4005 0.27339 0.45078 0.0
H267 H 0.41146 0.23961 0.33905 0.0
N268 N 0.44438 0.23511 0.21218 0.0
N269 N 0.48589 0.24492 0.12382 0.0
N270 N 0.4448 0.27953 0.13406 0.0
C271 C 0.47142 0.22621 0.17984 0.0
C272 C 0.47185 0.27153 0.09934 0.0
C273 C 0.43099 0.26159 0.19086 0.0
C274 C 0.48402 0.19703 0.21357 0.0
C275 C 0.46307 0.17307 0.22933 0.0
C276 C 0.47005 0.14941 0.28368 0.0
C277 C 0.49845 0.14846 0.32382 0.0
C278 C 0.52051 0.17102 0.30364 0.0
C279 C 0.51329 0.19523 0.24956 0.0
C280 C 0.48529 0.2937 0.03918 0.0
C281 C 0.46993 0.29885 0.96479 0.0
C282 C 0.47559 0.32528 0.91792 0.0
C283 C 0.49639 0.34804 0.94455 0.0
C284 C 0.51275 0.34217 1.01758 0.0
C285 C 0.5072 0.31551 0.06419 0.0
C286 C 0.40712 0.27439 0.24497 0.0
C287 C 0.39486 0.30326 0.22849 0.0
Tb288 Tb 0.985 0.03398 0.62797 0.0
C289 C 0.08986 0.05043 0.85856 0.0
N290 N 0.08946 0.03506 0.78623 0.0
C291 C 0.13629 0.05976 0.74602 0.0
C292 C 0.11314 0.07189 0.8763 0.0
C293 C 0.11254 0.03893 0.73074 0.0
C294 C 0.13653 0.07643 0.8189 0.0
C295 C 0.06517 0.06166 0.98778 0.0
C296 C 0.06598 0.04547 0.91316 0.0
C297 C 0.08808 0.0834 1.00528 0.0
C298 C 0.11204 0.08844 0.94979 0.0
Tb299 Tb 0.04997 1.00126 0.76863 0.0
N300 N 0.04394 0.02448 0.89375 0.0
C301 C 0.04173 0.05505 0.0434 0.0
C302 C 0.02294 0.01596 0.95159 0.0
C303 C 0.0209 0.03166 0.02587 0.0
H304 H 0.11277 0.02588 0.67489 0.0
H305 H 1.00373 0.02517 0.07046 0.0
H306 H 0.92309 0.05258 0.7327 0.0
H307 H 0.99959 0.9724 0.34469 0.0
H308 H 1.00856 0.99623 0.94306 0.0
H309 H 0.04028 0.06697 0.10134 0.0
H310 H 0.01622 1.00348 0.46266 0.0
H311 H 0.15442 0.06293 0.7016 0.0
H312 H 0.08768 0.09617 0.06204 0.0
H313 H 0.1296 0.10521 0.96426 0.0
H314 H 0.86772 0.0406 0.72991 0.0
H315 H 0.15484 0.09272 0.83023 0.0
H316 H 0.94513 0.95714 0.33059 0.0
N317 N 0.93323 0.02572 0.62807 0.0
C318 C 0.9218 1.00832 0.56645 0.0
C319 C 0.88271 0.03119 0.68377 0.0
C320 C 0.8903 1.00141 0.56107 0.0
C321 C 0.91415 0.03759 0.6859 0.0
C322 C 0.87072 0.0129 0.62126 0.0
N323 N 0.97195 1.00492 0.51666 0.0
C324 C 0.99251 0.99683 0.45759 0.0
C325 C 0.93118 0.98029 0.44141 0.0
C326 C 0.94183 0.99787 0.50791 0.0
C327 C 0.95234 0.97074 0.3826 0.0
C328 C 0.98311 0.97927 0.39044 0.0
H329 H 0.84635 1.00811 0.61947 0.0
H330 H 0.8553 0.9779 0.49035 0.0
H331 H 0.89116 0.95944 0.38529 0.0
O332 O 1.00075 0.0643 0.53912 0.0
O333 O 0.98604 0.98361 0.62528 0.0
O334 O 0.03312 0.96803 0.67639 0.0
O335 O 0.95887 0.07339 0.60385 0.0
O336 O 0.03326 0.03725 0.58361 0.0
O337 O 0.06243 0.99889 0.6396 0.0
O338 O 0.05884 0.96923 0.86124 0.0
O339 O 0.04772 0.05103 0.73935 0.0
O340 O 0.99671 0.05871 0.74034 0.0
O341 O 0.09122 0.9766 0.7651 0.0
O342 O 1.00195 0.98766 0.79915 0.0
O343 O 0.97465 0.02957 0.75905 0.0
C344 C 1.00762 0.96298 0.63456 0.0
C345 C 0.99402 0.11457 0.58305 0.0
C346 C 0.03708 0.15052 0.57374 0.0
C347 C 0.0232 0.16877 0.63385 0.0
C348 C 0.98034 0.13324 0.6423 0.0
C349 C 0.99505 0.16007 0.66789 0.0
C350 C 0.02246 0.12327 0.5503 0.0
C351 C 0.05704 0.01872 0.5813 0.0
C352 C 0.98064 0.08484 0.55859 0.0
C353 C 0.87943 0.98352 0.49561 0.0
C354 C 0.89985 0.97301 0.43578 0.0
C355 C 0.02435 0.06872 0.75633 0.0
C356 C 0.07904 0.92588 0.79563 0.0
C357 C 0.04488 0.8831 0.76221 0.0
C358 C 0.06895 0.86919 0.71932 0.0
C359 C 0.10283 0.91156 0.75304 0.0
C360 C 0.05046 0.91113 0.80123 0.0
C361 C 0.09779 0.88328 0.71547 0.0
C362 C 0.97718 1.00479 0.80385 0.0
C363 C 0.08203 0.95802 0.8218 0.0
H364 H 0.03352 0.19015 0.65292 0.0
H365 H 0.95863 0.12693 0.66979 0.0
H366 H 0.98449 0.1743 0.71391 0.0
H367 H 0.03343 0.10847 0.50627 0.0
H368 H 0.0655 0.84759 0.68835 0.0
H369 H 0.12494 0.92269 0.74665 0.0
H370 H 0.03228 0.92176 0.83574 0.0
H371 H 0.11614 0.8725 0.68196 0.0
Tb372 Tb 0.5346 0.04841 0.75654 0.0
C373 C 0.52519 0.92794 0.50852 0.0
N374 N 0.5241 0.95863 0.50079 0.0
C375 C 0.55036 0.95535 0.37199 0.0
C376 C 0.53946 0.90954 0.44919 0.0
C377 C 0.53554 0.97248 0.4323 0.0
C378 C 0.55264 0.92373 0.38089 0.0
C379 C 0.50793 0.88302 0.58115 0.0
C380 C 0.50982 0.91499 0.57306 0.0
C381 C 0.52335 0.8644 0.52476 0.0
C382 C 0.53911 0.87766 0.45873 0.0
Tb383 Tb 0.50204 0.9853 0.60556 0.0
N384 N 0.49472 0.93386 0.62439 0.0
C385 C 0.48967 0.87085 0.64364 0.0
C386 C 0.47523 0.92205 0.68202 0.0
C387 C 0.47288 0.89047 0.69354 0.0
H388 H 0.53356 0.99685 0.42435 0.0
H389 H 0.45806 0.88131 0.74072 0.0
H390 H 0.47547 0.09347 0.79202 0.0
H391 H 0.6475 0.07675 0.63718 0.0
H392 H 0.462 0.93692 0.72074 0.0
H393 H 0.48761 0.84641 0.65218 0.0
H394 H 0.6109 0.04836 0.72337 0.0
H395 H 0.55983 0.96651 0.31851 0.0
H396 H 0.52243 0.83978 0.53021 0.0
H397 H 0.55013 0.86308 0.41422 0.0
H398 H 0.45729 0.14379 0.74602 0.0
H399 H 0.56382 0.91046 0.33374 0.0
H400 H 0.63087 0.12315 0.56385 0.0
N401 N 0.51689 0.09583 0.72333 0.0
C402 C 0.53539 0.11343 0.67593 0.0
C403 C 0.47922 0.13542 0.72534 0.0
C404 C 0.52591 0.14224 0.64785 0.0
C405 C 0.48959 0.10687 0.75116 0.0
C406 C 0.49725 0.153 0.67245 0.0
N407 N 0.57252 0.07518 0.68866 0.0
C408 C 0.60276 0.06728 0.68743 0.0
C409 C 0.58443 0.12034 0.6097 0.0
C410 C 0.564 0.10242 0.65655 0.0
C411 C 0.61443 0.11011 0.59943 0.0
C412 C 0.62386 0.08389 0.64045 0.0
H413 H 0.48909 0.17502 0.65216 0.0
H414 H 0.5384 0.18135 0.57354 0.0
H415 H 0.58985 0.16227 0.5406 0.0
O416 O 0.56599 0.06855 0.8388 0.0
O417 O 0.50504 0.05824 0.65012 0.0
O418 O 0.5224 0.02683 0.55208 0.0
O419 O 0.51975 0.05982 0.87487 0.0
O420 O 0.56809 0.0143 0.70848 0.0
O421 O 0.54881 1.0018 0.58169 0.0
O422 O 0.46427 0.01437 0.59355 0.0
O423 O 0.51945 0.96454 0.71889 0.0
O424 O 0.53454 1.0023 0.81221 0.0
O425 O 0.46887 0.97336 0.51702 0.0
O426 O 0.47477 0.99125 0.71902 0.0
O427 O 0.48601 0.03852 0.77707 0.0
C428 C 0.51427 0.05423 0.57452 0.0
C429 C 0.55709 0.05145 0.97346 0.0
C430 C 0.58267 1.0082 0.0368 0.0
C431 C 0.57118 0.01735 0.11331 0.0
C432 C 0.54597 0.06037 0.05016 0.0
C433 C 0.55305 0.04337 0.1198 0.0
C434 C 0.57551 0.02545 0.96712 0.0
C435 C 0.57217 1.00546 0.63167 0.0
C436 C 0.5469 0.06746 0.89957 0.0
C437 C 0.54542 0.15936 0.59691 0.0
C438 C 0.57465 0.14842 0.57783 0.0
C439 C 0.52895 0.97348 0.792 0.0
C440 C 0.42408 1.00508 0.49449 0.0
C441 C 0.38559 0.04246 0.45796 0.0
C442 C 0.36814 0.01911 0.42095 0.0
C443 C 0.40659 0.9821 0.45659 0.0
C444 C 0.41366 0.03534 0.49442 0.0
C445 C 0.37867 0.98915 0.4201 0.0
C446 C 0.4682 0.01437 0.76797 0.0
C447 C 0.45286 0.99745 0.53532 0.0
H448 H 0.57668 1.00475 0.16831 0.0
H449 H 0.5314 0.08015 0.05591 0.0
H450 H 0.54438 0.05031 0.17894 0.0
H451 H 0.58369 0.01819 0.90764 0.0
H452 H 0.34658 0.02417 0.39124 0.0
H453 H 0.41432 0.95867 0.456 0.0
H454 H 0.42722 0.05327 0.52279 0.0
H455 H 0.36519 0.97139 0.39098 0.0
Tb456 Tb 0.54405 0.49729 0.62901 0.0
C457 C 0.46091 0.49256 0.92291 0.0
N458 N 0.45203 0.49873 0.84541 0.0
C459 C 0.40992 0.4636 0.85851 0.0
C460 C 0.44553 0.47048 0.97051 0.0
C461 C 0.42598 0.48582 0.81392 0.0
C462 C 0.42016 0.45538 0.9365 0.0
C463 C 0.4909 0.50794 0.04019 0.0
C464 C 0.48335 0.51081 0.95669 0.0
C465 C 0.47765 0.48423 0.08647 0.0
C466 C 0.45496 0.46548 0.05157 0.0
Tb467 Tb 0.48136 0.53284 0.77403 0.0
N468 N 0.49453 0.53406 0.91049 0.0
C469 C 0.50964 0.53031 0.07586 0.0
C470 C 0.50921 0.55797 0.94792 0.0
C471 C 0.51802 0.55596 0.03011 0.0
H472 H 0.41826 0.49201 0.75334 0.0
H473 H 0.53087 0.57437 0.05832 0.0
H474 H 0.59175 0.45713 0.74049 0.0
H475 H 0.56146 0.55254 0.337 0.0
H476 H 0.51464 0.57845 0.91402 0.0
H477 H 0.516 0.52903 0.13984 0.0
H478 H 0.53139 0.52795 0.44644 0.0
H479 H 0.38981 0.45273 0.83257 0.0
H480 H 0.48354 0.4813 0.15037 0.0
H481 H 0.44381 0.44826 0.08894 0.0
H482 H 0.64775 0.45157 0.75627 0.0
H483 H 0.40766 0.43825 0.97102 0.0
H484 H 0.61802 0.555 0.34668 0.0
N485 N 0.5954 0.4885 0.64173 0.0
C486 C 0.61434 0.50258 0.5881 0.0
C487 C 0.63867 0.4662 0.70893 0.0
C488 C 0.64638 0.49974 0.59338 0.0
C489 C 0.60698 0.46953 0.70012 0.0
C490 C 0.65852 0.48169 0.65592 0.0
N491 N 0.57028 0.51785 0.52014 0.0
C492 C 0.55597 0.52915 0.45225 0.0
C493 C 0.61946 0.53124 0.46275 0.0
C494 C 0.6012 0.51792 0.5244 0.0
C495 C 0.60488 0.54448 0.39547 0.0
C496 C 0.57297 0.54306 0.38973 0.0
H497 H 0.68304 0.47888 0.66231 0.0
H498 H 0.68972 0.5125 0.53769 0.0
H499 H 0.66605 0.54019 0.42283 0.0
O500 O 0.50926 0.46836 0.58896 0.0
O501 O 0.54327 0.54713 0.61242 0.0
O502 O 0.50511 0.56761 0.6968 0.0
O503 O 0.55629 0.45606 0.56977 0.0
O504 O 0.50326 0.51938 0.57186 0.0
O505 O 0.46661 0.5077 0.66533 0.0
O506 O 0.45136 0.56144 0.83935 0.0
O507 O 0.48422 0.48271 0.75572 0.0
O508 O 0.53541 0.47559 0.74824 0.0
O509 O 0.44712 0.5564 0.70993 0.0
O510 O 0.52991 0.54712 0.79677 0.0
O511 O 0.5581 0.50564 0.75679 0.0
C512 C 0.5267 0.57018 0.63966 0.0
C513 C 0.51826 0.41678 0.58865 0.0
C514 C 0.47906 0.37707 0.577 0.0
C515 C 0.49485 0.3597 0.63563 0.0
C516 C 0.534 0.39933 0.64658 0.0
C517 C 0.52204 0.37095 0.67054 0.0
C518 C 0.49063 0.40596 0.55648 0.0
C519 C 0.47403 0.51587 0.59075 0.0
C520 C 0.5277 0.44752 0.56369 0.0
C521 C 0.66501 0.51414 0.53452 0.0
C522 C 0.65153 0.5299 0.46916 0.0
C523 C 0.50837 0.46608 0.77241 0.0
C524 C 0.44153 0.60535 0.76086 0.0
C525 C 0.47459 0.65057 0.75858 0.0
C526 C 0.45245 0.6657 0.71125 0.0
C527 C 0.41972 0.62071 0.71386 0.0
C528 C 0.46839 0.62063 0.78468 0.0
C529 C 0.42508 0.6509 0.68993 0.0
C530 C 0.55464 0.53002 0.80294 0.0
C531 C 0.4391 0.57224 0.77312 0.0
H532 H 0.4868 0.33716 0.65272 0.0
H533 H 0.555 0.40776 0.67403 0.0
H534 H 0.53406 0.35747 0.71558 0.0
H535 H 0.47809 0.42041 0.5145 0.0
H536 H 0.45647 0.68865 0.68912 0.0
H537 H 0.3991 0.60907 0.69357 0.0
H538 H 0.48496 0.60865 0.8216 0.0
H539 H 0.40834 0.6626 0.6528 0.0
Tb540 Tb 0.03854 0.55255 0.61343 0.0
C541 C 0.04561 0.45042 0.85526 0.0
N542 N 0.03542 0.45084 0.77669 0.0
C543 C 0.06535 0.40669 0.74572 0.0
C544 C 0.06737 0.42892 0.88116 0.0
C545 C 0.04383 0.42857 0.72284 0.0
C546 C 0.07748 0.40708 0.82491 0.0
C547 C 0.04345 0.47152 0.99207 0.0
C548 C 0.03379 0.47149 0.90971 0.0
C549 C 0.06617 0.45106 1.0175 0.0
C550 C 0.07805 0.42974 0.96221 0.0
Tb551 Tb 1.00023 0.48726 0.74607 0.0
N552 N 0.01143 0.49055 0.88316 0.0
C553 C 0.02914 0.49128 0.04707 0.0
C554 C 0.99547 0.50761 0.93852 0.0
C555 C 1.00462 0.50894 0.02046 0.0
H556 H 0.03423 0.42798 0.66205 0.0
H557 H 0.99232 0.5231 0.06342 0.0
H558 H 0.04469 0.61623 0.72419 0.0
H559 H 1.00317 0.53713 0.29981 0.0
H560 H 0.9751 0.51963 0.92066 0.0
H561 H 0.03589 0.49202 0.11085 0.0
H562 H 0.02879 0.52327 0.42914 0.0
H563 H 0.07252 0.38949 0.70238 0.0
H564 H 0.07407 0.45095 0.08036 0.0
H565 H 0.09505 0.41365 0.98312 0.0
H566 H 0.02312 0.66796 0.72317 0.0
H567 H 0.09419 0.39015 0.84239 0.0
H568 H 0.97711 0.58689 0.28753 0.0
N569 N 0.02223 0.60226 0.61469 0.0
C570 C 1.00626 0.6117 0.54836 0.0
C571 C 0.01775 0.65221 0.67409 0.0
C572 C 0.99441 0.64147 0.54324 0.0
C573 C 0.02938 0.62255 0.67545 0.0
C574 C 0.99975 0.66158 0.60825 0.0
N575 N 0.01622 0.56403 0.49057 0.0
C576 C 0.01728 0.54485 0.42466 0.0
C577 C 0.98879 0.60108 0.41066 0.0
C578 C 1.00352 0.59198 0.48329 0.0
C579 C 0.98817 0.5808 0.3445 0.0
C580 C 1.00285 0.5527 0.35122 0.0
H581 H 0.99107 0.68467 0.60682 0.0
H582 H 0.9691 0.67313 0.46747 0.0
H583 H 0.96416 0.63766 0.35109 0.0
O584 O 0.07759 0.5379 0.5515 0.0
O585 O 0.99167 0.53843 0.57692 0.0
O586 O 0.96856 0.52161 0.69562 0.0
O587 O 0.07423 0.5844 0.59132 0.0
O588 O 0.04549 0.50479 0.57119 0.0
O589 O 1.00386 0.47668 0.61546 0.0
O590 O 0.9709 0.46144 0.82173 0.0
O591 O 0.05086 0.49086 0.72942 0.0
O592 O 0.0586 0.54176 0.73266 0.0
O593 O 0.97074 0.45475 0.69205 0.0
O594 O 0.98772 0.53424 0.78535 0.0
O595 O 0.02876 0.56398 0.74339 0.0
C596 C 0.96694 0.53176 0.6197 0.0
C597 C 0.1211 0.55842 0.61516 0.0
C598 C 0.16069 0.52296 0.65989 0.0
C599 C 0.17068 0.5443 0.71828 0.0
C600 C 0.13116 0.57947 0.67447 0.0
C601 C 0.15599 0.57246 0.7252 0.0
C602 C 0.1365 0.53063 0.60748 0.0
C603 C 0.02633 0.48142 0.56346 0.0
C604 C 0.09262 0.56293 0.56762 0.0
C605 C 0.97857 0.65043 0.4724 0.0
C606 C 0.9758 0.63026 0.4061 0.0
C607 C 0.06737 0.51441 0.75362 0.0
C608 C 0.9234 0.45848 0.75604 0.0
C609 C 0.88514 0.49814 0.77317 0.0
C610 C 0.86367 0.47978 0.73162 0.0
C611 C 0.90187 0.44017 0.71514 0.0
C612 C 0.91482 0.4873 0.78447 0.0
C613 C 0.87205 0.45086 0.70308 0.0
C614 C 1.00501 0.55907 0.79209 0.0
C615 C 0.95587 0.45031 0.75979 0.0
H616 H 0.18961 0.53915 0.75867 0.0
H617 H 0.11956 0.601 0.68277 0.0
H618 H 0.16354 0.58871 0.77097 0.0
H619 H 0.12938 0.51466 0.56035 0.0
H620 H 0.84041 0.4875 0.72263 0.0
H621 H 0.9083 0.41812 0.69094 0.0
H622 H 0.93166 0.50186 0.81407 0.0
H623 H 0.85545 0.43679 0.67112 0.0
C624 C 0.12917 1.00683 0.45002 0.0
C625 C 0.12658 0.0294 0.38895 0.0
H626 H 0.10984 0.98562 0.55672 0.0
C627 C 0.09985 0.04746 0.3901 0.0
H628 H 0.14924 0.99254 0.4528 0.0
C629 C 0.07728 0.04381 0.45115 0.0
C630 C 0.08035 0.02181 0.51332 0.0
H631 H 0.09622 0.06467 0.34372 0.0
H632 H 0.05749 0.05852 0.44979 0.0
C633 C 0.10648 1.00303 0.51067 0.0
C634 C 0.48192 0.12106 0.45282 0.0
C635 C 0.50365 0.12505 0.38978 0.0
H636 H 0.46839 0.09617 0.56046 0.0
C637 C 0.52928 0.10574 0.38913 0.0
H638 H 0.46197 0.13555 0.45565 0.0
C639 C 0.53256 0.08259 0.44844 0.0
C640 C 0.51077 0.07872 0.51132 0.0
H641 H 0.54639 0.10804 0.34153 0.0
H642 H 0.55234 0.06786 0.44567 0.0
C643 C 0.48559 0.09848 0.51307 0.0
C644 C 0.40279 0.49105 0.47037 0.0
C645 C 0.40534 0.50759 0.39678 0.0
H646 H 0.4217 0.48099 0.58846 0.0
C647 C 0.43075 0.52735 0.38762 0.0
H648 H 0.38358 0.47565 0.47973 0.0
C649 C 0.45324 0.52991 0.44975 0.0
C650 C 0.45047 0.51343 0.52361 0.0
H651 H 0.43354 0.54035 0.33175 0.0
H652 H 0.47264 0.54505 0.44032 0.0
C653 C 0.4247 0.49419 0.53299 0.0
C654 C 0.01585 0.41007 0.42844 0.0
C655 C 0.03879 0.41341 0.36818 0.0
H656 H 0.99389 0.4282 0.53507 0.0
C657 C 0.05723 0.44012 0.37242 0.0
H658 H 1.00136 0.38994 0.42967 0.0
C659 C 0.05342 0.46196 0.43513 0.0
C660 C 0.03063 0.45837 0.49543 0.0
H661 H 0.07479 0.44441 0.32713 0.0
H662 H 0.06844 0.48174 0.43614 0.0
C663 C 0.01174 0.43213 0.49024 0.0
C664 C 0.91098 0.01672 0.95529 0.0
C665 C 0.90715 0.98774 0.99145 0.0
H666 H 0.93587 0.04488 0.87068 0.0
C667 C 0.92749 0.96453 0.96624 0.0
H668 H 0.89598 0.03529 0.97163 0.0
C669 C 0.95007 0.96989 0.90602 0.0
C670 C 0.95332 0.9987 0.86886 0.0
H671 H 0.92612 0.94199 0.9931 0.0
H672 H 0.96491 0.95134 0.88822 0.0
C673 C 0.93366 0.0221 0.89558 0.0
C674 C 0.52802 0.93319 1.00132 0.0
C675 C 0.53094 0.90219 0.97972 0.0
H676 H 0.52515 0.97977 0.96031 0.0
C677 C 0.53426 0.89528 0.89584 0.0
H678 H 0.52484 0.93954 0.06475 0.0
C679 C 0.53437 0.91832 0.8359 0.0
C680 C 0.53133 0.94929 0.85728 0.0
H681 H 0.53701 0.87187 0.87613 0.0
H682 H 0.53681 0.91175 0.77237 0.0
C683 C 0.52829 0.95636 0.94115 0.0
C684 C 0.60335 0.56976 0.96936 0.0
C685 C 0.62405 0.54669 0.99406 0.0
H686 H 0.56711 0.58355 0.88855 0.0
C687 C 0.62101 0.51816 0.95437 0.0
H688 H 0.60373 0.592 0.99785 0.0
C689 C 0.59856 0.51299 0.89376 0.0
C690 C 0.57839 0.53617 0.86859 0.0
H691 H 0.63632 0.49964 0.9685 0.0
H692 H 0.59709 0.49052 0.86656 0.0
C693 C 0.58149 0.56477 0.90696 0.0
C694 C 0.01815 0.62311 0.9496 0.0
C695 C 0.98955 0.62565 0.98932 0.0
H696 H 0.04564 0.60013 0.86042 0.0
C697 C 0.96629 0.60482 0.96453 0.0
H698 H 0.03685 0.63844 0.9646 0.0
C699 C 0.97111 0.58342 0.90123 0.0
C700 C 0.99955 0.58142 0.86108 0.0
H701 H 0.94406 0.60489 0.99364 0.0
H702 H 0.95232 0.56859 0.88323 0.0
C703 C 0.02309 0.6013 0.88766 0.0
C704 C 0.09163 0.16725 0.39999 0.0
C705 C 0.11281 0.18748 0.43615 0.0
H706 H 0.05078 0.14149 0.41281 0.0
C707 C 0.11165 0.1918 0.52151 0.0
H708 H 0.09108 0.16358 0.33449 0.0
C709 C 0.08804 0.1785 0.56787 0.0
C710 C 0.06515 0.16078 0.52955 0.0
H711 H 0.1278 0.20697 0.55155 0.0
H712 H 0.08704 0.18314 0.63288 0.0
C713 C 0.06804 0.15447 0.44559 0.0
C714 C 0.37762 0.12303 0.38434 0.0
C715 C 0.34562 0.12629 0.39218 0.0
H716 H 0.41572 0.09278 0.39823 0.0
C717 C 0.33011 0.1065 0.44669 0.0
H718 H 0.39083 0.13862 0.34665 0.0
C719 C 0.34443 0.08049 0.47626 0.0
C720 C 0.37464 0.0742 0.45398 0.0
H721 H 0.30576 0.10826 0.4576 0.0
H722 H 0.33092 0.06374 0.50944 0.0
C723 C 0.392 0.09682 0.41413 0.0
C724 C 0.42735 0.35778 0.39902 0.0
C725 C 0.40764 0.33542 0.43194 0.0
H726 H 0.46583 0.38658 0.41645 0.0
C727 C 0.40876 0.32994 0.51691 0.0
H728 H 0.42805 0.36253 0.33407 0.0
C729 C 0.43104 0.34436 0.56574 0.0
C730 C 0.45246 0.36456 0.53044 0.0
H731 H 0.39371 0.31317 0.54475 0.0
H732 H 0.43215 0.33886 0.63024 0.0
C733 C 0.44955 0.37172 0.44703 0.0
C734 C 0.22207 0.4704 0.5902 0.0
C735 C 0.20394 0.44701 0.55542 0.0
H736 H 0.22219 0.51342 0.65185 0.0
C737 C 0.17324 0.44417 0.57988 0.0
H738 H 0.2459 0.47322 0.57327 0.0
C739 C 0.15965 0.4674 0.62519 0.0
C740 C 0.17663 0.49368 0.64641 0.0
H741 H 0.15889 0.42602 0.55561 0.0
H742 H 0.13514 0.46645 0.63504 0.0
C743 C 0.20844 0.49368 0.6353 0.0
C744 C 0.987 0.82375 0.82455 0.0
C745 C 0.96228 0.84237 0.84696 0.0
H746 H 0.03298 0.82217 0.78137 0.0
C747 C 0.96203 0.87284 0.82094 0.0
H748 H 0.9879 0.80015 0.84409 0.0
C749 C 0.9878 0.88537 0.78263 0.0
C750 C 0.01457 0.86789 0.77293 0.0
H751 H 0.94312 0.88757 0.83677 0.0
H752 H 0.9877 0.90943 0.76767 0.0
C753 C 0.01304 0.83644 0.7885 0.0
C754 C 0.65201 0.96065 0.98835 0.0
C755 C 0.6474 0.93488 0.0388 0.0
H756 H 0.63535 1.00388 0.94874 0.0
C757 C 0.61861 0.93125 0.07664 0.0
H758 H 0.67361 0.96492 0.95797 0.0
C759 C 0.59716 0.95471 0.07441 0.0
C760 C 0.60315 0.9815 0.03016 0.0
H761 H 0.6134 0.91131 0.11314 0.0
H762 H 0.57641 0.95243 0.11008 0.0
C763 C 0.63006 0.98351 0.98367 0.0
C764 C 0.55649 0.66105 0.83153 0.0
C765 C 0.55604 0.69148 0.85773 0.0
H766 H 0.53166 0.62452 0.77543 0.0
C767 C 0.53059 0.7096 0.8385 0.0
H768 H 0.57587 0.64665 0.84541 0.0
C769 C 0.50477 0.69676 0.80159 0.0
C770 C 0.50401 0.6656 0.78196 0.0
H771 H 0.52937 0.73307 0.85906 0.0
H772 H 0.48468 0.71082 0.79453 0.0
C773 C 0.53088 0.64834 0.79278 0.0
C774 C 0.84901 0.57565 0.80707 0.0
C775 C 0.85678 0.58115 0.88961 0.0
H776 H 0.8515 0.54465 0.7053 0.0
C777 C 0.87719 0.56106 0.92828 0.0
H778 H 0.83399 0.59094 0.77443 0.0
C779 C 0.88689 0.53479 0.88907 0.0
C780 C 0.87683 0.52785 0.80966 0.0
H781 H 0.88367 0.56381 0.99177 0.0
H782 H 0.90086 0.51895 0.9233 0.0
C783 C 0.85875 0.54904 0.76763 0.0
C784 C 0.05993 0.1437 0.83686 0.0
C785 C 0.03571 0.15668 0.88242 0.0
H786 H 0.07539 0.1067 0.76079 0.0
C787 C 1.00769 0.14036 0.88372 0.0
H788 H 0.08206 0.15492 0.83417 0.0
C789 C 1.00419 0.11223 0.84272 0.0
C790 C 0.02851 0.09913 0.79862 0.0
H791 H 0.98812 0.14938 0.91603 0.0
H792 H 0.98226 0.10058 0.8462 0.0
C793 C 0.05632 0.11556 0.79549 0.0
C794 C 0.38449 0.99941 0.83193 0.0
C795 C 0.38241 0.0152 0.90704 0.0
H796 H 0.41298 0.98603 0.73036 0.0
C797 C 0.40914 0.02987 0.93619 0.0
H798 H 0.36455 0.9878 0.80727 0.0
C799 C 0.43669 0.0293 0.89151 0.0
C800 C 0.43886 0.01351 0.81663 0.0
H801 H 0.4086 0.04257 0.99301 0.0
H802 H 0.45643 0.04134 0.91595 0.0
C803 C 0.41238 0.99824 0.78797 0.0
C804 C 0.52781 0.39439 0.89677 0.0
C805 C 0.49975 0.37814 0.89881 0.0
H806 H 0.55251 0.43428 0.85615 0.0
C807 C 0.47464 0.39135 0.8576 0.0
H808 H 0.54793 0.38518 0.92615 0.0
C809 C 0.47744 0.41954 0.81661 0.0
C810 C 0.50532 0.43584 0.81572 0.0
H811 H 0.45246 0.38018 0.8578 0.0
H812 H 0.45772 0.42841 0.78474 0.0
C813 C 0.53054 0.42264 0.85587 0.0
C814 C 0.13246 0.53278 0.90372 0.0
C815 C 0.15024 0.50603 0.90362 0.0
H816 H 0.09315 0.55633 0.85741 0.0
C817 C 0.14021 0.48179 0.85288 0.0
H818 H 0.13931 0.55222 0.94046 0.0
C819 C 0.11336 0.48419 0.80497 0.0
C820 C 0.09571 0.51095 0.80552 0.0
H821 H 0.15285 0.46065 0.85102 0.0
H822 H 0.10662 0.46518 0.76661 0.0
C823 C 0.10588 0.53523 0.85539 0.0
C824 C 0.97097 0.89572 0.51778 0.0
C825 C 0.99611 0.87667 0.50022 0.0
H826 H 0.95459 0.93682 0.5738 0.0
C827 C 0.02501 0.88606 0.5305 0.0
H828 H 0.94835 0.89001 0.49514 0.0
C829 C 0.02863 0.9135 0.57516 0.0
C830 C 1.00354 0.93265 0.59143 0.0
H831 H 0.04501 0.8722 0.5198 0.0
H832 H 0.05135 0.91996 0.59576 0.0
C833 C 0.97461 0.92305 0.56248 0.0
C834 C 0.65928 0.99452 0.60138 0.0
C835 C 0.66304 1.00059 0.51687 0.0
H836 H 0.62829 0.99137 0.70428 0.0
C837 C 0.63657 1.0084 0.47238 0.0
H838 H 0.67889 0.98852 0.63838 0.0
C839 C 0.60768 1.00987 0.5101 0.0
C840 C 0.60381 1.00378 0.59424 0.0
H841 H 0.63792 0.01272 0.40727 0.0
H842 H 0.58821 0.01602 0.47273 0.0
C843 C 0.63018 0.99624 0.63951 0.0
C844 C 0.56181 0.63546 0.51335 0.0
C845 C 0.5374 0.65633 0.50604 0.0
H846 H 0.57784 0.59269 0.56076 0.0
C847 C 0.50968 0.64857 0.54566 0.0
H848 H 0.58335 0.6397 0.48255 0.0
C849 C 0.50646 0.62106 0.58976 0.0
C850 C 0.53092 0.60049 0.59742 0.0
H851 H 0.49021 0.66364 0.54237 0.0
H852 H 0.48437 0.61539 0.61563 0.0
C853 C 0.55861 0.60811 0.55802 0.0
C854 C 0.90085 0.56817 0.50092 0.0
C855 C 0.8789 0.54436 0.4952 0.0
H856 H 0.94479 0.58315 0.54528 0.0
C857 C 0.8862 0.51646 0.53362 0.0
H858 H 0.89679 0.58991 0.47163 0.0
C859 C 0.9143 0.51259 0.5754 0.0
C860 C 0.93613 0.53637 0.58016 0.0
H861 H 0.87019 0.49749 0.53152 0.0
H862 H 0.91936 0.49061 0.60192 0.0
C863 C 0.92885 0.5642 0.5424 0.0
loop_
_geom_bond_atom_site_label_1
_geom_bond_atom_site_label_2
_geom_bond_distance
_geom_bond_site_symmetry_2
_ccdc_geom_bond_type
C0 C1 1.384 . S
C0 H13 0.947 . S
C0 C35 1.382 . S
C1 C0 1.384 . S
C1 C2 1.378 . S
C2 C1 1.378 . S
C2 C3 1.378 . S
C2 H14 0.952 . S
C3 C2 1.378 . S
C3 H15 0.950 . S
C3 C34 1.383 . S
H4 C23 0.947 . S
H5 C24 0.946 . S
H6 C26 0.953 . S
H7 C27 0.945 . S
H8 C29 0.952 . S
H9 C30 0.949 1_556 S
H10 C32 0.950 . S
H11 C33 0.948 . S
H12 C35 0.951 . S
H13 C0 0.947 . S
H14 C2 0.952 . S
H15 C3 0.950 . S
N16 C19 1.382 . S
N16 C21 1.363 . S
N17 C19 1.371 . S
N17 C20 1.372 . S
N18 C20 1.361 . S
N18 C21 1.377 . S
C19 N16 1.382 . S
C19 N17 1.371 . S
C19 C22 1.480 . S
C20 N17 1.372 . S
C20 N18 1.361 . S
C20 C28 1.457 . S
C21 N16 1.363 . S
C21 N18 1.377 . S
C21 C34 1.479 . S
C22 C19 1.480 . S
C22 C23 1.383 . S
C22 C27 1.385 . S
C23 H4 0.947 . S
C23 C22 1.383 . S
C23 C24 1.388 . S
C24 H5 0.946 . S
C24 C23 1.388 . S
C24 C25 1.384 . S
C25 C24 1.384 . S
C25 C26 1.377 . S
C26 H6 0.953 . S
C26 C25 1.377 . S
C26 C27 1.369 . S
C27 H7 0.945 . S
C27 C22 1.385 . S
C27 C26 1.369 . S
C28 C20 1.457 . S
C28 C29 1.372 . S
C28 C33 1.364 . S
C29 H8 0.952 . S
C29 C28 1.372 . S
C29 C30 1.389 . S
C30 H9 0.949 1_554 S
C30 C29 1.389 . S
C30 C31 1.387 . S
C31 C30 1.387 . S
C31 C32 1.372 . S
C32 H10 0.950 . S
C32 C31 1.372 . S
C32 C33 1.379 . S
C33 H11 0.948 . S
C33 C28 1.364 . S
C33 C32 1.379 . S
C34 C3 1.383 . S
C34 C21 1.479 . S
C34 C35 1.398 . S
C35 C0 1.382 . S
C35 H12 0.951 . S
C35 C34 1.398 . S
C36 C37 1.384 . S
C36 H49 0.947 . S
C36 C71 1.382 . S
C37 C36 1.384 . S
C37 C38 1.378 . S
C38 C37 1.378 . S
C38 C39 1.378 . S
C38 H50 0.952 . S
C39 C38 1.378 . S
C39 H51 0.950 . S
C39 C70 1.383 . S
H40 C59 0.947 . S
H41 C60 0.946 . S
H42 C62 0.953 . S
H43 C63 0.945 . S
H44 C65 0.952 . S
H45 C66 0.949 1_556 S
H46 C68 0.950 . S
H47 C69 0.948 . S
H48 C71 0.951 . S
H49 C36 0.947 . S
H50 C38 0.952 . S
H51 C39 0.950 . S
N52 C55 1.382 . S
N52 C57 1.363 . S
N53 C55 1.371 . S
N53 C56 1.372 . S
N54 C56 1.361 . S
N54 C57 1.377 . S
C55 N52 1.382 . S
C55 N53 1.371 . S
C55 C58 1.480 . S
C56 N53 1.372 . S
C56 N54 1.361 . S
C56 C64 1.457 . S
C57 N52 1.363 . S
C57 N54 1.377 . S
C57 C70 1.479 . S
C58 C55 1.480 . S
C58 C59 1.383 . S
C58 C63 1.385 . S
C59 H40 0.947 . S
C59 C58 1.383 . S
C59 C60 1.388 . S
C60 H41 0.946 . S
C60 C59 1.388 . S
C60 C61 1.384 . S
C61 C60 1.384 . S
C61 C62 1.377 . S
C62 H42 0.953 . S
C62 C61 1.377 . S
C62 C63 1.369 . S
C63 H43 0.945 . S
C63 C58 1.385 . S
C63 C62 1.369 . S
C64 C56 1.457 . S
C64 C65 1.372 . S
C64 C69 1.364 . S
C65 H44 0.952 . S
C65 C64 1.372 . S
C65 C66 1.389 . S
C66 H45 0.949 1_554 S
C66 C65 1.389 . S
C66 C67 1.387 . S
C67 C66 1.387 . S
C67 C68 1.372 . S
C68 H46 0.950 . S
C68 C67 1.372 . S
C68 C69 1.379 . S
C69 H47 0.948 . S
C69 C64 1.364 . S
C69 C68 1.379 . S
C70 C39 1.383 . S
C70 C57 1.479 . S
C70 C71 1.398 . S
C71 C36 1.382 . S
C71 H48 0.951 . S
C71 C70 1.398 . S
C72 C73 1.384 . S
C72 H85 0.947 . S
C72 C107 1.382 . S
C73 C72 1.384 . S
C73 C74 1.378 . S
C74 C73 1.378 . S
C74 C75 1.378 . S
C74 H86 0.952 . S
C75 C74 1.378 . S
C75 H87 0.950 . S
C75 C106 1.383 . S
H76 C95 0.947 . S
H77 C96 0.946 . S
H78 C98 0.953 . S
H79 C99 0.945 . S
H80 C101 0.952 . S
H81 C102 0.949 1_556 S
H82 C104 0.950 . S
H83 C105 0.948 . S
H84 C107 0.951 . S
H85 C72 0.947 . S
H86 C74 0.952 . S
H87 C75 0.950 . S
N88 C91 1.382 . S
N88 C93 1.363 . S
N89 C91 1.371 . S
N89 C92 1.372 . S
N90 C92 1.361 . S
N90 C93 1.377 . S
C91 N88 1.382 . S
C91 N89 1.371 . S
C91 C94 1.480 . S
C92 N89 1.372 . S
C92 N90 1.361 . S
C92 C100 1.457 . S
C93 N88 1.363 . S
C93 N90 1.377 . S
C93 C106 1.479 . S
C94 C91 1.480 . S
C94 C95 1.383 . S
C94 C99 1.385 . S
C95 H76 0.947 . S
C95 C94 1.383 . S
C95 C96 1.388 . S
C96 H77 0.946 . S
C96 C95 1.388 . S
C96 C97 1.384 . S
C97 C96 1.384 . S
C97 C98 1.377 . S
C98 H78 0.953 . S
C98 C97 1.377 . S
C98 C99 1.369 . S
C99 H79 0.945 . S
C99 C94 1.385 . S
C99 C98 1.369 . S
C100 C92 1.457 . S
C100 C101 1.372 . S
C100 C105 1.364 . S
C101 H80 0.952 . S
C101 C100 1.372 . S
C101 C102 1.389 . S
C102 H81 0.949 1_554 S
C102 C101 1.389 . S
C102 C103 1.387 . S
C103 C102 1.387 . S
C103 C104 1.372 . S
C104 H82 0.950 . S
C104 C103 1.372 . S
C104 C105 1.379 . S
C105 H83 0.948 . S
C105 C100 1.364 . S
C105 C104 1.379 . S
C106 C75 1.383 . S
C106 C93 1.479 . S
C106 C107 1.398 . S
C107 C72 1.382 . S
C107 H84 0.951 . S
C107 C106 1.398 . S
C108 C109 1.384 . S
C108 H121 0.947 . S
C108 C143 1.382 . S
C109 C108 1.384 . S
C109 C110 1.378 . S
C110 C109 1.378 . S
C110 C111 1.378 . S
C110 H122 0.952 1_554 S
C111 C110 1.378 . S
C111 H123 0.950 . S
C111 C142 1.383 . S
H112 C131 0.947 . S
H113 C132 0.946 . S
H114 C134 0.953 . S
H115 C135 0.945 . S
H116 C137 0.952 . S
H117 C138 0.949 . S
H118 C140 0.950 . S
H119 C141 0.948 . S
H120 C143 0.951 . S
H121 C108 0.947 . S
H122 C110 0.952 1_556 S
H123 C111 0.950 . S
N124 C127 1.382 . S
N124 C129 1.363 . S
N125 C127 1.371 . S
N125 C128 1.372 . S
N126 C128 1.361 . S
N126 C129 1.377 . S
C127 N124 1.382 . S
C127 N125 1.371 . S
C127 C130 1.480 . S
C128 N125 1.372 . S
C128 N126 1.361 . S
C128 C136 1.457 . S
C129 N124 1.363 . S
C129 N126 1.377 . S
C129 C142 1.479 . S
C130 C127 1.480 . S
C130 C131 1.383 . S
C130 C135 1.385 . S
C131 H112 0.947 . S
C131 C130 1.383 . S
C131 C132 1.388 . S
C132 H113 0.946 . S
C132 C131 1.388 . S
C132 C133 1.384 . S
C133 C132 1.384 . S
C133 C134 1.377 . S
C134 H114 0.953 . S
C134 C133 1.377 . S
C134 C135 1.369 . S
C135 H115 0.945 . S
C135 C130 1.385 . S
C135 C134 1.369 . S
C136 C128 1.457 . S
C136 C137 1.372 . S
C136 C141 1.364 . S
C137 H116 0.952 . S
C137 C136 1.372 . S
C137 C138 1.389 . S
C138 H117 0.949 . S
C138 C137 1.389 . S
C138 C139 1.387 . S
C139 C138 1.387 . S
C139 C140 1.372 . S
C140 H118 0.950 . S
C140 C139 1.372 . S
C140 C141 1.379 . S
C141 H119 0.948 . S
C141 C136 1.364 . S
C141 C140 1.379 . S
C142 C111 1.383 . S
C142 C129 1.479 . S
C142 C143 1.398 . S
C143 C108 1.382 . S
C143 H120 0.951 . S
C143 C142 1.398 . S
C144 C145 1.384 . S
C144 H157 0.947 . S
C144 C179 1.382 . S
C145 C144 1.384 . S
C145 C146 1.378 . S
C146 C145 1.378 . S
C146 C147 1.378 . S
C146 H158 0.952 . S
C147 C146 1.378 . S
C147 H159 0.950 . S
C147 C178 1.383 . S
H148 C167 0.947 1_556 S
H149 C168 0.946 . S
H150 C170 0.953 . S
H151 C171 0.945 . S
H152 C173 0.952 . S
H153 C174 0.949 . S
H154 C176 0.950 . S
H155 C177 0.948 . S
H156 C179 0.951 . S
H157 C144 0.947 . S
H158 C146 0.952 . S
H159 C147 0.950 . S
N160 C163 1.382 1_556 S
N160 C165 1.363 . S
N161 C163 1.371 . S
N161 C164 1.372 . S
N162 C164 1.361 . S
N162 C165 1.377 1_554 S
C163 N160 1.382 1_554 S
C163 N161 1.371 . S
C163 C166 1.480 . S
C164 N161 1.372 . S
C164 N162 1.361 . S
C164 C172 1.457 . S
C165 N160 1.363 . S
C165 N162 1.377 1_556 S
C165 C178 1.479 . S
C166 C163 1.480 . S
C166 C167 1.383 . S
C166 C171 1.385 . S
C167 H148 0.947 1_554 S
C167 C166 1.383 . S
C167 C168 1.388 . S
C168 H149 0.946 . S
C168 C167 1.388 . S
C168 C169 1.384 . S
C169 C168 1.384 . S
C169 C170 1.377 . S
C170 H150 0.953 . S
C170 C169 1.377 . S
C170 C171 1.369 . S
C171 H151 0.945 . S
C171 C166 1.385 . S
C171 C170 1.369 . S
C172 C164 1.457 . S
C172 C173 1.372 . S
C172 C177 1.364 . S
C173 H152 0.952 . S
C173 C172 1.372 . S
C173 C174 1.389 . S
C174 H153 0.949 . S
C174 C173 1.389 . S
C174 C175 1.387 . S
C175 C174 1.387 . S
C175 C176 1.372 . S
C176 H154 0.950 . S
C176 C175 1.372 . S
C176 C177 1.379 . S
C177 H155 0.948 . S
C177 C172 1.364 . S
C177 C176 1.379 . S
C178 C147 1.383 . S
C178 C165 1.479 . S
C178 C179 1.398 . S
C179 C144 1.382 . S
C179 H156 0.951 . S
C179 C178 1.398 . S
C180 C181 1.384 . S
C180 H193 0.947 . S
C180 C215 1.382 . S
C181 C180 1.384 . S
C181 C182 1.378 . S
C182 C181 1.378 . S
C182 C183 1.378 . S
C182 H194 0.952 . S
C183 C182 1.378 . S
C183 H195 0.950 . S
C183 C214 1.383 . S
H184 C203 0.947 1_556 S
H185 C204 0.946 . S
H186 C206 0.953 . S
H187 C207 0.945 . S
H188 C209 0.952 . S
H189 C210 0.949 . S
H190 C212 0.950 . S
H191 C213 0.948 . S
H192 C215 0.951 . S
H193 C180 0.947 . S
H194 C182 0.952 . S
H195 C183 0.950 . S
N196 C199 1.382 1_556 S
N196 C201 1.363 . S
N197 C199 1.371 . S
N197 C200 1.372 . S
N198 C200 1.361 . S
N198 C201 1.377 1_554 S
C199 N196 1.382 1_554 S
C199 N197 1.371 . S
C199 C202 1.480 . S
C200 N197 1.372 . S
C200 N198 1.361 . S
C200 C208 1.457 . S
C201 N196 1.363 . S
C201 N198 1.377 1_556 S
C201 C214 1.479 . S
C202 C199 1.480 . S
C202 C203 1.383 . S
C202 C207 1.385 . S
C203 H184 0.947 1_554 S
C203 C202 1.383 . S
C203 C204 1.388 . S
C204 H185 0.946 . S
C204 C203 1.388 . S
C204 C205 1.384 . S
C205 C204 1.384 . S
C205 C206 1.377 . S
C206 H186 0.953 . S
C206 C205 1.377 . S
C206 C207 1.369 . S
C207 H187 0.945 . S
C207 C202 1.385 . S
C207 C206 1.369 . S
C208 C200 1.457 . S
C208 C209 1.372 . S
C208 C213 1.364 . S
C209 H188 0.952 . S
C209 C208 1.372 . S
C209 C210 1.389 . S
C210 H189 0.949 . S
C210 C209 1.389 . S
C210 C211 1.387 . S
C211 C210 1.387 . S
C211 C212 1.372 . S
C212 H190 0.950 . S
C212 C211 1.372 . S
C212 C213 1.379 . S
C213 H191 0.948 . S
C213 C208 1.364 . S
C213 C212 1.379 . S
C214 C183 1.383 . S
C214 C201 1.479 . S
C214 C215 1.398 . S
C215 C180 1.382 . S
C215 H192 0.951 . S
C215 C214 1.398 . S
C216 C217 1.384 . S
C216 H229 0.947 . S
C216 C251 1.382 . S
C217 C216 1.384 . S
C217 C218 1.378 . S
C218 C217 1.378 . S
C218 C219 1.378 . S
C218 H230 0.952 . S
C219 C218 1.378 . S
C219 H231 0.950 . S
C219 C250 1.383 . S
H220 C239 0.947 1_556 S
H221 C240 0.946 . S
H222 C242 0.953 . S
H223 C243 0.945 . S
H224 C245 0.952 . S
H225 C246 0.949 . S
H226 C248 0.950 . S
H227 C249 0.948 . S
H228 C251 0.951 . S
H229 C216 0.947 . S
H230 C218 0.952 . S
H231 C219 0.950 . S
N232 C235 1.382 1_556 S
N232 C237 1.363 . S
N233 C235 1.371 . S
N233 C236 1.372 . S
N234 C236 1.361 . S
N234 C237 1.377 1_554 S
C235 N232 1.382 1_554 S
C235 N233 1.371 . S
C235 C238 1.480 . S
C236 N233 1.372 . S
C236 N234 1.361 . S
C236 C244 1.457 . S
C237 N232 1.363 . S
C237 N234 1.377 1_556 S
C237 C250 1.479 . S
C238 C235 1.480 . S
C238 C239 1.383 . S
C238 C243 1.385 . S
C239 H220 0.947 1_554 S
C239 C238 1.383 . S
C239 C240 1.388 . S
C240 H221 0.946 . S
C240 C239 1.388 . S
C240 C241 1.384 . S
C241 C240 1.384 . S
C241 C242 1.377 . S
C242 H222 0.953 . S
C242 C241 1.377 . S
C242 C243 1.369 . S
C243 H223 0.945 . S
C243 C238 1.385 . S
C243 C242 1.369 . S
C244 C236 1.457 . S
C244 C245 1.372 . S
C244 C249 1.364 . S
C245 H224 0.952 . S
C245 C244 1.372 . S
C245 C246 1.389 . S
C246 H225 0.949 . S
C246 C245 1.389 . S
C246 C247 1.387 . S
C247 C246 1.387 . S
C247 C248 1.372 . S
C248 H226 0.950 . S
C248 C247 1.372 . S
C248 C249 1.379 . S
C249 H227 0.948 . S
C249 C244 1.364 . S
C249 C248 1.379 . S
C250 C219 1.383 . S
C250 C237 1.479 . S
C250 C251 1.398 . S
C251 C216 1.382 . S
C251 H228 0.951 . S
C251 C250 1.398 . S
C252 C253 1.384 . S
C252 H265 0.947 . S
C252 C287 1.382 . S
C253 C252 1.384 . S
C253 C254 1.378 . S
C254 C253 1.378 . S
C254 C255 1.378 . S
C254 H266 0.952 . S
C255 C254 1.378 . S
C255 H267 0.950 . S
C255 C286 1.383 . S
H256 C275 0.947 . S
H257 C276 0.946 . S
H258 C278 0.953 1_556 S
H259 C279 0.945 1_556 S
H260 C281 0.952 . S
H261 C282 0.949 . S
H262 C284 0.950 . S
H263 C285 0.948 . S
H264 C287 0.951 . S
H265 C252 0.947 . S
H266 C254 0.952 . S
H267 C255 0.950 . S
N268 C271 1.382 . S
N268 C273 1.363 . S
N269 C271 1.371 1_556 S
N269 C272 1.372 . S
N270 C272 1.361 1_554 S
N270 C273 1.377 . S
C271 N268 1.382 . S
C271 N269 1.371 1_554 S
C271 C274 1.480 . S
C272 N269 1.372 . S
C272 N270 1.361 1_556 S
C272 C280 1.457 . S
C273 N268 1.363 . S
C273 N270 1.377 . S
C273 C286 1.479 . S
C274 C271 1.480 . S
C274 C275 1.383 . S
C274 C279 1.385 . S
C275 H256 0.947 . S
C275 C274 1.383 . S
C275 C276 1.388 . S
C276 H257 0.946 . S
C276 C275 1.388 . S
C276 C277 1.384 . S
C277 C276 1.384 . S
C277 C278 1.377 . S
C278 H258 0.953 1_554 S
C278 C277 1.377 . S
C278 C279 1.369 . S
C279 H259 0.945 1_554 S
C279 C274 1.385 . S
C279 C278 1.369 . S
C280 C272 1.457 . S
C280 C281 1.372 . S
C280 C285 1.364 . S
C281 H260 0.952 . S
C281 C280 1.372 . S
C281 C282 1.389 . S
C282 H261 0.949 . S
C282 C281 1.389 . S
C282 C283 1.387 . S
C283 C282 1.387 . S
C283 C284 1.372 . S
C284 H262 0.950 . S
C284 C283 1.372 . S
C284 C285 1.379 . S
C285 H263 0.948 . S
C285 C280 1.364 . S
C285 C284 1.379 . S
C286 C255 1.383 . S
C286 C273 1.479 . S
C286 C287 1.398 . S
C287 C252 1.382 . S
C287 H264 0.951 . S
C287 C286 1.398 . S
Tb288 N317 2.617 . S
Tb288 N323 2.572 . S
Tb288 O332 2.465 . S
Tb288 O333 2.387 1_545 S
Tb288 O335 2.428 . S
Tb288 O336 2.308 1_655 S
Tb288 O340 2.330 1_655 S
Tb288 O343 2.393 . S
Tb288 C352 2.802 . S
C289 N290 1.379 . S
C289 C292 1.416 . S
C289 C296 1.424 . S
N290 C289 1.379 . S
N290 C293 1.334 1_545 S
N290 Tb299 2.617 1_545 S
C291 C293 1.390 1_545 S
C291 C294 1.339 . S
C291 H311 0.930 . S
C292 C289 1.416 . S
C292 C294 1.416 . S
C292 C298 1.448 . S
C293 N290 1.334 1_565 S
C293 C291 1.390 1_565 S
C293 H304 0.930 . S
C294 C291 1.339 . S
C294 C292 1.416 . S
C294 H315 0.930 . S
C295 C296 1.413 . S
C295 C297 1.427 1_556 S
C295 C301 1.416 1_556 S
C296 C289 1.424 . S
C296 C295 1.413 . S
C296 N300 1.361 . S
C297 C295 1.427 1_554 S
C297 C298 1.328 1_554 S
C297 H312 0.929 . S
C298 C292 1.448 . S
C298 C297 1.328 1_556 S
C298 H313 0.930 . S
Tb299 N290 2.617 1_565 S
Tb299 N300 2.572 1_565 S
Tb299 O334 2.349 . S
Tb299 O337 2.393 . S
Tb299 O338 2.465 . S
Tb299 O339 2.387 1_565 S
Tb299 O341 2.428 . S
Tb299 O342 2.307 1_465 S
Tb299 C363 2.802 . S
N300 C296 1.361 . S
N300 Tb299 2.572 1_545 S
N300 C302 1.340 . S
C301 C295 1.416 1_554 S
C301 C303 1.332 . S
C301 H309 0.931 . S
C302 N300 1.340 . S
C302 C303 1.407 1_556 S
C302 H308 0.930 . S
C303 C301 1.332 . S
C303 C302 1.407 1_554 S
C303 H305 0.929 . S
H304 C293 0.930 . S
H305 C303 0.929 . S
H306 C321 0.930 . S
H307 C328 0.929 1_455 S
H308 C302 0.930 . S
H309 C301 0.931 . S
H310 C324 0.930 1_455 S
H311 C291 0.930 . S
H312 C297 0.929 . S
H313 C298 0.930 . S
H314 C319 0.930 . S
H315 C294 0.930 . S
H316 C327 0.931 . S
N317 Tb288 2.617 . S
N317 C318 1.368 1_545 S
N317 C321 1.334 . S
C318 N317 1.368 1_565 S
C318 C320 1.425 . S
C318 C326 1.426 . S
C319 H314 0.930 . S
C319 C321 1.390 . S
C319 C322 1.339 1_545 S
C320 C318 1.425 . S
C320 C322 1.416 . S
C320 C353 1.448 . S
C321 H306 0.930 . S
C321 N317 1.334 . S
C321 C319 1.390 . S
C322 C319 1.339 1_565 S
C322 C320 1.416 . S
C322 H329 0.930 . S
N323 Tb288 2.572 . S
N323 C324 1.340 . S
N323 C326 1.361 1_545 S
C324 H310 0.930 1_655 S
C324 N323 1.340 . S
C324 C328 1.407 1_545 S
C325 C326 1.413 . S
C325 C327 1.416 . S
C325 C354 1.427 . S
C326 C318 1.426 . S
C326 N323 1.361 1_565 S
C326 C325 1.413 . S
C327 H316 0.931 . S
C327 C325 1.416 . S
C327 C328 1.332 . S
C328 H307 0.929 1_655 S
C328 C324 1.407 1_565 S
C328 C327 1.332 . S
H329 C322 0.930 . S
H330 C353 0.930 . S
H331 C354 0.929 . S
O332 Tb288 2.465 . S
O332 C352 1.264 . S
O333 Tb288 2.387 1_565 S
O333 C344 1.264 . S
O334 Tb299 2.349 . S
O334 C344 1.243 1_455 S
O335 Tb288 2.428 . S
O335 C352 1.256 . S
O336 Tb288 2.308 1_455 S
O336 C351 1.266 . S
O337 Tb299 2.393 . S
O337 C351 1.248 1_565 S
O338 Tb299 2.465 . S
O338 C363 1.264 . S
O339 Tb299 2.387 1_545 S
O339 C355 1.264 . S
O340 Tb288 2.330 1_455 S
O340 C355 1.271 . S
O341 Tb299 2.428 . S
O341 C363 1.256 . S
O342 Tb299 2.307 1_645 S
O342 C362 1.267 . S
O343 Tb288 2.393 . S
O343 C362 1.248 . S
C344 O333 1.264 . S
C344 O334 1.243 1_655 S
C345 C348 1.399 . S
C345 C350 1.383 . S
C345 C352 1.496 . S
C346 C347 1.399 . S
C346 C350 1.389 . S
C347 C346 1.399 . S
C347 C349 1.380 . S
C347 H364 0.929 . S
C348 C345 1.399 . S
C348 C349 1.392 . S
C348 H365 0.929 . S
C349 C347 1.380 . S
C349 C348 1.392 . S
C349 H366 0.929 . S
C350 C345 1.383 . S
C350 C346 1.389 . S
C350 H367 0.931 1_655 S
C351 O336 1.266 . S
C351 O337 1.248 1_545 S
C352 Tb288 2.802 . S
C352 O332 1.264 . S
C352 O335 1.256 . S
C352 C345 1.496 . S
C353 C320 1.448 . S
C353 H330 0.930 . S
C353 C354 1.328 . S
C354 C325 1.427 . S
C354 H331 0.929 . S
C354 C353 1.328 . S
C355 O339 1.264 . S
C355 O340 1.271 . S
C356 C359 1.399 . S
C356 C360 1.383 . S
C356 C363 1.496 . S
C357 C358 1.399 . S
C357 C360 1.389 . S
C358 C357 1.399 . S
C358 C361 1.380 . S
C358 H368 0.929 . S
C359 C356 1.399 . S
C359 C361 1.392 . S
C359 H369 0.929 . S
C360 C356 1.383 . S
C360 C357 1.389 . S
C360 H370 0.931 . S
C361 C358 1.380 . S
C361 C359 1.392 . S
C361 H371 0.929 . S
C362 O342 1.267 . S
C362 O343 1.248 . S
C363 Tb299 2.802 . S
C363 O338 1.264 . S
C363 O341 1.256 . S
C363 C356 1.496 . S
H364 C347 0.929 . S
H365 C348 0.929 . S
H366 C349 0.929 . S
H367 C350 0.931 1_455 S
H368 C358 0.929 . S
H369 C359 0.929 . S
H370 C360 0.931 . S
H371 C361 0.929 . S
Tb372 N401 2.617 . S
Tb372 N407 2.572 . S
Tb372 O416 2.465 . S
Tb372 O417 2.387 . S
Tb372 O419 2.428 . S
Tb372 O420 2.308 . S
Tb372 O424 2.349 1_545 S
Tb372 O427 2.393 . S
Tb372 C436 2.802 . S
C373 N374 1.379 . S
C373 C376 1.416 . S
C373 C380 1.424 . S
N374 C373 1.379 . S
N374 C377 1.334 . S
N374 Tb383 2.617 . S
C375 C377 1.390 . S
C375 C378 1.339 . S
C375 H395 0.930 . S
C376 C373 1.416 . S
C376 C378 1.416 . S
C376 C382 1.448 . S
C377 N374 1.334 . S
C377 C375 1.390 . S
C377 H388 0.930 . S
C378 C375 1.339 . S
C378 C376 1.416 . S
C378 H399 0.930 . S
C379 C380 1.413 . S
C379 C381 1.427 . S
C379 C385 1.416 . S
C380 C373 1.424 . S
C380 C379 1.413 . S
C380 N384 1.361 . S
C381 C379 1.427 . S
C381 C382 1.328 . S
C381 H396 0.929 . S
C382 C376 1.448 . S
C382 C381 1.328 . S
C382 H397 0.930 . S
Tb383 N374 2.617 . S
Tb383 N384 2.572 . S
Tb383 O418 2.349 1_565 S
Tb383 O421 2.393 . S
Tb383 O422 2.465 . S
Tb383 O423 2.387 . S
Tb383 O425 2.428 . S
Tb383 O426 2.308 1_565 S
Tb383 C447 2.802 . S
N384 C380 1.361 . S
N384 Tb383 2.572 . S
N384 C386 1.340 . S
C385 C379 1.416 . S
C385 C387 1.332 . S
C385 H393 0.931 . S
C386 N384 1.340 . S
C386 C387 1.407 . S
C386 H392 0.930 . S
C387 C385 1.332 . S
C387 C386 1.407 . S
C387 H389 0.929 . S
H388 C377 0.930 . S
H389 C387 0.929 . S
H390 C405 0.930 . S
H391 C412 0.929 . S
H392 C386 0.930 . S
H393 C385 0.931 . S
H394 C408 0.930 . S
H395 C375 0.930 . S
H396 C381 0.929 . S
H397 C382 0.930 . S
H398 C403 0.930 . S
H399 C378 0.930 . S
H400 C411 0.931 . S
N401 Tb372 2.617 . S
N401 C402 1.379 . S
N401 C405 1.334 . S
C402 N401 1.379 . S
C402 C404 1.416 . S
C402 C410 1.424 . S
C403 H398 0.930 . S
C403 C405 1.390 . S
C403 C406 1.339 . S
C404 C402 1.416 . S
C404 C406 1.416 . S
C404 C437 1.448 . S
C405 H390 0.930 . S
C405 N401 1.334 . S
C405 C403 1.390 . S
C406 C403 1.339 . S
C406 C404 1.416 . S
C406 H413 0.930 . S
N407 Tb372 2.572 . S
N407 C408 1.340 . S
N407 C410 1.361 . S
C408 H394 0.930 . S
C408 N407 1.340 . S
C408 C412 1.407 . S
C409 C410 1.413 . S
C409 C411 1.416 . S
C409 C438 1.427 . S
C410 C402 1.424 . S
C410 N407 1.361 . S
C410 C409 1.413 . S
C411 H400 0.931 . S
C411 C409 1.416 . S
C411 C412 1.332 . S
C412 H391 0.929 . S
C412 C408 1.407 . S
C412 C411 1.332 . S
H413 C406 0.930 . S
H414 C437 0.930 . S
H415 C438 0.929 . S
O416 Tb372 2.465 . S
O416 C436 1.264 . S
O417 Tb372 2.387 . S
O417 C428 1.264 . S
O418 Tb383 2.349 1_545 S
O418 C428 1.243 . S
O419 Tb372 2.428 . S
O419 C436 1.256 . S
O420 Tb372 2.308 . S
O420 C435 1.266 1_545 S
O421 Tb383 2.393 . S
O421 C435 1.248 . S
O422 Tb383 2.465 . S
O422 C447 1.264 . S
O423 Tb383 2.387 . S
O423 C439 1.264 . S
O424 Tb372 2.349 1_565 S
O424 C439 1.243 . S
O425 Tb383 2.428 . S
O425 C447 1.256 . S
O426 Tb383 2.308 1_545 S
O426 C446 1.266 . S
O427 Tb372 2.393 . S
O427 C446 1.248 . S
C428 O417 1.264 . S
C428 O418 1.243 . S
C429 C432 1.399 1_556 S
C429 C434 1.383 . S
C429 C436 1.496 . S
C430 C431 1.399 1_556 S
C430 C434 1.389 . S
C431 C430 1.399 1_554 S
C431 C433 1.380 . S
C431 H448 0.929 . S
C432 C429 1.399 1_554 S
C432 C433 1.392 . S
C432 H449 0.929 . S
C433 C431 1.380 . S
C433 C432 1.392 . S
C433 H450 0.929 . S
C434 C429 1.383 . S
C434 C430 1.389 . S
C434 H451 0.931 . S
C435 O420 1.266 1_565 S
C435 O421 1.248 . S
C436 Tb372 2.802 . S
C436 O416 1.264 . S
C436 O419 1.256 . S
C436 C429 1.496 . S
C437 C404 1.448 . S
C437 H414 0.930 . S
C437 C438 1.328 . S
C438 C409 1.427 . S
C438 H415 0.929 . S
C438 C437 1.328 . S
C439 O423 1.264 . S
C439 O424 1.243 . S
C440 C443 1.399 . S
C440 C444 1.383 . S
C440 C447 1.496 . S
C441 C442 1.399 . S
C441 C444 1.389 . S
C442 C441 1.399 . S
C442 C445 1.380 . S
C442 H452 0.929 . S
C443 C440 1.399 . S
C443 C445 1.392 . S
C443 H453 0.929 . S
C444 C440 1.383 . S
C444 C441 1.389 . S
C444 H454 0.931 . S
C445 C442 1.380 . S
C445 C443 1.392 . S
C445 H455 0.929 . S
C446 O426 1.266 . S
C446 O427 1.248 . S
C447 Tb383 2.802 . S
C447 O422 1.264 . S
C447 O425 1.256 . S
C447 C440 1.496 . S
H448 C431 0.929 . S
H449 C432 0.929 . S
H450 C433 0.929 . S
H451 C434 0.931 . S
H452 C442 0.929 . S
H453 C443 0.929 . S
H454 C444 0.931 . S
H455 C445 0.929 . S
Tb456 N485 2.617 . S
Tb456 N491 2.572 . S
Tb456 O500 2.465 . S
Tb456 O501 2.387 . S
Tb456 O503 2.428 . S
Tb456 O504 2.308 . S
Tb456 O508 2.349 . S
Tb456 O511 2.393 . S
Tb456 C520 2.802 . S
C457 N458 1.379 . S
C457 C460 1.416 . S
C457 C464 1.424 . S
N458 C457 1.379 . S
N458 C461 1.334 . S
N458 Tb467 2.617 . S
C459 C461 1.390 . S
C459 C462 1.339 . S
C459 H479 0.930 . S
C460 C457 1.416 . S
C460 C462 1.416 . S
C460 C466 1.448 . S
C461 N458 1.334 . S
C461 C459 1.390 . S
C461 H472 0.930 . S
C462 C459 1.339 . S
C462 C460 1.416 . S
C462 H483 0.930 . S
C463 C464 1.413 . S
C463 C465 1.427 1_556 S
C463 C469 1.416 1_556 S
C464 C457 1.424 . S
C464 C463 1.413 . S
C464 N468 1.361 . S
C465 C463 1.427 1_554 S
C465 C466 1.328 1_554 S
C465 H480 0.929 . S
C466 C460 1.448 . S
C466 C465 1.328 1_556 S
C466 H481 0.930 . S
Tb467 N458 2.617 . S
Tb467 N468 2.572 . S
Tb467 O502 2.349 . S
Tb467 O505 2.393 . S
Tb467 O506 2.465 . S
Tb467 O507 2.387 . S
Tb467 O509 2.428 . S
Tb467 O510 2.308 . S
Tb467 C531 2.802 . S
N468 C464 1.361 . S
N468 Tb467 2.572 . S
N468 C470 1.340 . S
C469 C463 1.416 1_554 S
C469 C471 1.332 . S
C469 H477 0.931 . S
C470 N468 1.340 . S
C470 C471 1.407 1_556 S
C470 H476 0.930 . S
C471 C469 1.332 . S
C471 C470 1.407 1_554 S
C471 H473 0.929 . S
H472 C461 0.930 . S
H473 C471 0.929 . S
H474 C489 0.930 . S
H475 C496 0.929 . S
H476 C470 0.930 . S
H477 C469 0.931 . S
H478 C492 0.930 . S
H479 C459 0.930 . S
H480 C465 0.929 . S
H481 C466 0.930 . S
H482 C487 0.930 . S
H483 C462 0.930 . S
H484 C495 0.931 . S
N485 Tb456 2.617 . S
N485 C486 1.379 . S
N485 C489 1.334 . S
C486 N485 1.379 . S
C486 C488 1.416 . S
C486 C494 1.424 . S
C487 H482 0.930 . S
C487 C489 1.390 . S
C487 C490 1.339 . S
C488 C486 1.416 . S
C488 C490 1.416 . S
C488 C521 1.448 . S
C489 H474 0.930 . S
C489 N485 1.334 . S
C489 C487 1.390 . S
C490 C487 1.339 . S
C490 C488 1.416 . S
C490 H497 0.930 . S
N491 Tb456 2.572 . S
N491 C492 1.340 . S
N491 C494 1.361 . S
C492 H478 0.930 . S
C492 N491 1.340 . S
C492 C496 1.407 . S
C493 C494 1.413 . S
C493 C495 1.416 . S
C493 C522 1.427 . S
C494 C486 1.424 . S
C494 N491 1.361 . S
C494 C493 1.413 . S
C495 H484 0.931 . S
C495 C493 1.416 . S
C495 C496 1.332 . S
C496 H475 0.929 . S
C496 C492 1.407 . S
C496 C495 1.332 . S
H497 C490 0.930 . S
H498 C521 0.930 . S
H499 C522 0.929 . S
O500 Tb456 2.465 . S
O500 C520 1.264 . S
O501 Tb456 2.387 . S
O501 C512 1.264 . S
O502 Tb467 2.349 . S
O502 C512 1.243 . S
O503 Tb456 2.428 . S
O503 C520 1.256 . S
O504 Tb456 2.308 . S
O504 C519 1.266 . S
O505 Tb467 2.393 . S
O505 C519 1.248 . S
O506 Tb467 2.465 . S
O506 C531 1.264 . S
O507 Tb467 2.387 . S
O507 C523 1.264 . S
O508 Tb456 2.349 . S
O508 C523 1.243 . S
O509 Tb467 2.428 . S
O509 C531 1.256 . S
O510 Tb467 2.308 . S
O510 C530 1.266 . S
O511 Tb456 2.393 . S
O511 C530 1.248 . S
C512 O501 1.264 . S
C512 O502 1.243 . S
C513 C516 1.399 . S
C513 C518 1.383 . S
C513 C520 1.496 . S
C514 C515 1.399 . S
C514 C518 1.389 . S
C515 C514 1.399 . S
C515 C517 1.380 . S
C515 H532 0.929 . S
C516 C513 1.399 . S
C516 C517 1.392 . S
C516 H533 0.929 . S
C517 C515 1.380 . S
C517 C516 1.392 . S
C517 H534 0.929 . S
C518 C513 1.383 . S
C518 C514 1.389 . S
C518 H535 0.931 . S
C519 O504 1.266 . S
C519 O505 1.248 . S
C520 Tb456 2.802 . S
C520 O500 1.264 . S
C520 O503 1.256 . S
C520 C513 1.496 . S
C521 C488 1.448 . S
C521 H498 0.930 . S
C521 C522 1.328 . S
C522 C493 1.427 . S
C522 H499 0.929 . S
C522 C521 1.328 . S
C523 O507 1.264 . S
C523 O508 1.243 . S
C524 C527 1.399 . S
C524 C528 1.383 . S
C524 C531 1.496 . S
C525 C526 1.399 . S
C525 C528 1.389 . S
C526 C525 1.399 . S
C526 C529 1.380 . S
C526 H536 0.929 . S
C527 C524 1.399 . S
C527 C529 1.392 . S
C527 H537 0.929 . S
C528 C524 1.383 . S
C528 C525 1.389 . S
C528 H538 0.931 . S
C529 C526 1.380 . S
C529 C527 1.392 . S
C529 H539 0.929 . S
C530 O510 1.266 . S
C530 O511 1.248 . S
C531 Tb467 2.802 . S
C531 O506 1.264 . S
C531 O509 1.256 . S
C531 C524 1.496 . S
H532 C515 0.929 . S
H533 C516 0.929 . S
H534 C517 0.929 . S
H535 C518 0.931 . S
H536 C526 0.929 . S
H537 C527 0.929 . S
H538 C528 0.931 . S
H539 C529 0.929 . S
Tb540 N569 2.617 . S
Tb540 N575 2.572 . S
Tb540 O584 2.465 . S
Tb540 O585 2.387 1_455 S
Tb540 O587 2.428 . S
Tb540 O588 2.308 . S
Tb540 O592 2.349 . S
Tb540 O595 2.393 . S
Tb540 C604 2.802 . S
C541 N542 1.379 1_455 S
C541 C544 1.416 . S
C541 C548 1.424 . S
N542 C541 1.379 1_655 S
N542 C545 1.334 . S
N542 Tb551 2.617 . S
C543 C545 1.390 1_455 S
C543 C546 1.339 . S
C543 H563 0.930 . S
C544 C541 1.416 . S
C544 C546 1.416 . S
C544 C550 1.448 . S
C545 N542 1.334 . S
C545 C543 1.390 1_655 S
C545 H556 0.930 . S
C546 C543 1.339 . S
C546 C544 1.416 . S
C546 H567 0.930 . S
C547 C548 1.413 . S
C547 C549 1.427 1_556 S
C547 C553 1.416 1_556 S
C548 C541 1.424 . S
C548 C547 1.413 . S
C548 N552 1.361 . S
C549 C547 1.427 1_554 S
C549 C550 1.328 1_554 S
C549 H564 0.929 . S
C550 C544 1.448 . S
C550 C549 1.328 1_556 S
C550 H565 0.930 . S
Tb551 N542 2.617 . S
Tb551 N552 2.572 1_655 S
Tb551 O586 2.349 . S
Tb551 O589 2.393 . S
Tb551 O590 2.465 . S
Tb551 O591 2.387 1_655 S
Tb551 O593 2.428 . S
Tb551 O594 2.308 . S
Tb551 C615 2.802 . S
N552 C548 1.361 . S
N552 Tb551 2.572 1_455 S
N552 C554 1.340 . S
C553 C547 1.416 1_554 S
C553 C555 1.332 . S
C553 H561 0.931 . S
C554 N552 1.340 . S
C554 C555 1.407 1_556 S
C554 H560 0.926 1_455 S
C555 C553 1.332 . S
C555 C554 1.407 1_554 S
C555 H557 0.929 . S
H556 C545 0.930 . S
H557 C555 0.929 . S
H558 C573 0.930 . S
H559 C580 0.929 . S
H560 C554 0.926 1_655 S
H561 C553 0.931 . S
H562 C576 0.930 . S
H563 C543 0.930 . S
H564 C549 0.929 . S
H565 C550 0.930 . S
H566 C571 0.930 . S
H567 C546 0.930 . S
H568 C579 0.931 . S
N569 Tb540 2.617 . S
N569 C570 1.365 1_455 S
N569 C573 1.334 . S
C570 N569 1.365 1_655 S
C570 C572 1.428 . S
C570 C578 1.427 . S
C571 H566 0.930 . S
C571 C573 1.390 . S
C571 C574 1.339 1_455 S
C572 C570 1.428 . S
C572 C574 1.416 . S
C572 C605 1.448 . S
C573 H558 0.930 . S
C573 N569 1.334 . S
C573 C571 1.390 . S
C574 C571 1.339 1_655 S
C574 C572 1.416 . S
C574 H581 0.930 . S
N575 Tb540 2.572 . S
N575 C576 1.340 . S
N575 C578 1.361 1_455 S
C576 H562 0.930 . S
C576 N575 1.340 . S
C576 C580 1.407 1_455 S
C577 C578 1.413 . S
C577 C579 1.416 . S
C577 C606 1.427 . S
C578 C570 1.427 . S
C578 N575 1.361 1_655 S
C578 C577 1.413 . S
C579 H568 0.931 . S
C579 C577 1.416 . S
C579 C580 1.332 . S
C580 H559 0.929 . S
C580 C576 1.407 1_655 S
C580 C579 1.332 . S
H581 C574 0.930 . S
H582 C605 0.930 . S
H583 C606 0.929 . S
O584 Tb540 2.465 . S
O584 C604 1.264 . S
O585 Tb540 2.387 1_655 S
O585 C596 1.264 . S
O586 Tb551 2.349 . S
O586 C596 1.243 . S
O587 Tb540 2.428 . S
O587 C604 1.256 . S
O588 Tb540 2.308 . S
O588 C603 1.266 . S
O589 Tb551 2.393 . S
O589 C603 1.248 1_655 S
O590 Tb551 2.465 . S
O590 C615 1.264 . S
O591 Tb551 2.387 1_455 S
O591 C607 1.264 . S
O592 Tb540 2.349 . S
O592 C607 1.243 . S
O593 Tb551 2.428 . S
O593 C615 1.256 . S
O594 Tb551 2.308 . S
O594 C614 1.266 1_655 S
O595 Tb540 2.393 . S
O595 C614 1.248 . S
C596 O585 1.264 . S
C596 O586 1.243 . S
C597 C600 1.399 . S
C597 C602 1.383 . S
C597 C604 1.496 . S
C598 C599 1.399 . S
C598 C602 1.389 . S
C599 C598 1.399 . S
C599 C601 1.380 . S
C599 H616 0.929 . S
C600 C597 1.399 . S
C600 C601 1.392 . S
C600 H617 0.929 . S
C601 C599 1.380 . S
C601 C600 1.392 . S
C601 H618 0.929 . S
C602 C597 1.383 . S
C602 C598 1.389 . S
C602 H619 0.931 . S
C603 O588 1.266 . S
C603 O589 1.248 1_455 S
C604 Tb540 2.802 . S
C604 O584 1.264 . S
C604 O587 1.256 . S
C604 C597 1.496 . S
C605 C572 1.448 . S
C605 H582 0.930 . S
C605 C606 1.328 . S
C606 C577 1.427 . S
C606 H583 0.929 . S
C606 C605 1.328 . S
C607 O591 1.264 . S
C607 O592 1.243 . S
C608 C611 1.399 . S
C608 C612 1.383 . S
C608 C615 1.496 . S
C609 C610 1.399 . S
C609 C612 1.389 . S
C610 C609 1.399 . S
C610 C613 1.380 . S
C610 H620 0.929 . S
C611 C608 1.399 . S
C611 C613 1.392 . S
C611 H621 0.929 . S
C612 C608 1.383 . S
C612 C609 1.389 . S
C612 H622 0.931 . S
C613 C610 1.380 . S
C613 C611 1.392 . S
C613 H623 0.929 . S
C614 O594 1.266 1_455 S
C614 O595 1.248 . S
C615 Tb551 2.802 . S
C615 O590 1.264 . S
C615 O593 1.256 . S
C615 C608 1.496 . S
H616 C599 0.929 . S
H617 C600 0.929 . S
H618 C601 0.929 . S
H619 C602 0.931 . S
H620 C610 0.929 . S
H621 C611 0.929 . S
H622 C612 0.931 . S
H623 C613 0.929 . S
C624 C625 1.387 . S
C624 H628 0.950 . S
C624 C633 1.390 . S
C625 C624 1.387 . S
C625 C627 1.387 . S
H626 C633 0.950 . S
C627 C625 1.387 . S
C627 C629 1.390 . S
C627 H631 0.950 . S
H628 C624 0.950 . S
C629 C627 1.390 . S
C629 C630 1.387 . S
C629 H632 0.950 . S
C630 C629 1.387 . S
C630 C633 1.387 . S
H631 C627 0.950 . S
H632 C629 0.950 . S
C633 C624 1.390 . S
C633 H626 0.950 . S
C633 C630 1.387 . S
C634 C635 1.387 . S
C634 H638 0.950 . S
C634 C643 1.390 . S
C635 C634 1.387 . S
C635 C637 1.387 . S
H636 C643 0.950 . S
C637 C635 1.387 . S
C637 C639 1.390 . S
C637 H641 0.950 . S
H638 C634 0.950 . S
C639 C637 1.390 . S
C639 C640 1.387 . S
C639 H642 0.950 . S
C640 C639 1.387 . S
C640 C643 1.387 . S
H641 C637 0.950 . S
H642 C639 0.950 . S
C643 C634 1.390 . S
C643 H636 0.950 . S
C643 C640 1.387 . S
C644 C645 1.387 . S
C644 H648 0.950 . S
C644 C653 1.390 . S
C645 C644 1.387 . S
C645 C647 1.387 . S
H646 C653 0.950 . S
C647 C645 1.387 . S
C647 C649 1.390 . S
C647 H651 0.950 . S
H648 C644 0.950 . S
C649 C647 1.390 . S
C649 C650 1.387 . S
C649 H652 0.950 . S
C650 C649 1.387 . S
C650 C653 1.387 . S
H651 C647 0.950 . S
H652 C649 0.950 . S
C653 C644 1.390 . S
C653 H646 0.950 . S
C653 C650 1.387 . S
C654 C655 1.387 . S
C654 H658 0.950 . S
C654 C663 1.390 . S
C655 C654 1.387 . S
C655 C657 1.387 . S
H656 C663 0.950 . S
C657 C655 1.387 . S
C657 C659 1.390 . S
C657 H661 0.950 . S
H658 C654 0.950 . S
C659 C657 1.390 . S
C659 C660 1.387 . S
C659 H662 0.950 . S
C660 C659 1.387 . S
C660 C663 1.387 . S
H661 C657 0.950 . S
H662 C659 0.950 . S
C663 C654 1.390 . S
C663 H656 0.950 . S
C663 C660 1.387 . S
C664 C665 1.387 . S
C664 H668 0.950 1_565 S
C664 C673 1.390 1_564 S
C665 C664 1.387 . S
C665 C667 1.387 . S
H666 C673 0.950 . S
C667 C665 1.387 . S
C667 C669 1.390 1_554 S
C667 H671 0.950 . S
H668 C664 0.950 1_545 S
C669 C667 1.390 1_556 S
C669 C670 1.387 . S
C669 H672 0.950 . S
C670 C669 1.387 . S
C670 C673 1.387 1_565 S
H671 C667 0.950 . S
H672 C669 0.950 . S
C673 C664 1.390 1_546 S
C673 H666 0.950 . S
C673 C670 1.387 1_545 S
C674 C675 1.387 . S
C674 H678 0.950 . S
C674 C683 1.390 1_554 S
C675 C674 1.387 . S
C675 C677 1.387 . S
H676 C683 0.950 . S
C677 C675 1.387 . S
C677 C679 1.390 1_554 S
C677 H681 0.950 . S
H678 C674 0.950 . S
C679 C677 1.390 1_556 S
C679 C680 1.387 . S
C679 H682 0.950 . S
C680 C679 1.387 . S
C680 C683 1.387 . S
H681 C677 0.950 . S
H682 C679 0.950 . S
C683 C674 1.390 1_556 S
C683 H676 0.950 . S
C683 C680 1.387 . S
C684 C685 1.387 . S
C684 H688 0.950 . S
C684 C693 1.390 1_554 S
C685 C684 1.387 . S
C685 C687 1.387 . S
H686 C693 0.950 . S
C687 C685 1.387 . S
C687 C689 1.390 1_554 S
C687 H691 0.950 . S
H688 C684 0.950 . S
C689 C687 1.390 1_556 S
C689 C690 1.387 . S
C689 H692 0.950 . S
C690 C689 1.387 . S
C690 C693 1.387 . S
H691 C687 0.950 . S
H692 C689 0.950 . S
C693 C684 1.390 1_556 S
C693 H686 0.950 . S
C693 C690 1.387 . S
C694 C695 1.387 . S
C694 H698 0.950 . S
C694 C703 1.390 1_554 S
C695 C694 1.387 . S
C695 C697 1.387 . S
H696 C703 0.950 . S
C697 C695 1.387 . S
C697 C699 1.390 1_554 S
C697 H701 0.950 . S
H698 C694 0.950 . S
C699 C697 1.390 1_556 S
C699 C700 1.387 . S
C699 H702 0.950 . S
C700 C699 1.387 . S
C700 C703 1.387 . S
H701 C697 0.950 . S
H702 C699 0.950 . S
C703 C694 1.390 1_556 S
C703 H696 0.950 . S
C703 C700 1.387 . S
C704 C705 1.387 . S
C704 H708 0.950 . S
C704 C713 1.390 . S
C705 C704 1.387 . S
C705 C707 1.387 . S
H706 C713 0.950 . S
C707 C705 1.387 . S
C707 C709 1.375 1_455 S
C707 H711 0.950 . S
H708 C704 0.950 . S
C709 C707 1.375 1_655 S
C709 C710 1.392 . S
C709 H712 0.961 . S
C710 C709 1.392 . S
C710 C713 1.387 1_655 S
H711 C707 0.950 . S
H712 C709 0.961 . S
C713 C704 1.390 . S
C713 H706 0.950 . S
C713 C710 1.387 1_455 S
C714 C715 1.387 . S
C714 H718 0.950 . S
C714 C723 1.390 . S
C715 C714 1.387 . S
C715 C717 1.387 . S
H716 C723 0.950 . S
C717 C715 1.387 . S
C717 C719 1.402 . S
C717 H721 0.950 . S
H718 C714 0.950 . S
C719 C717 1.402 . S
C719 C720 1.385 1_545 S
C719 H722 0.941 1_545 S
C720 C719 1.385 1_565 S
C720 C723 1.387 1_565 S
H721 C717 0.950 . S
H722 C719 0.941 1_565 S
C723 C714 1.390 . S
C723 H716 0.950 . S
C723 C720 1.387 1_545 S
C724 C725 1.387 . S
C724 H728 0.950 . S
C724 C733 1.390 . S
C725 C724 1.387 . S
C725 C727 1.387 . S
H726 C733 0.950 . S
C727 C725 1.387 . S
C727 C729 1.390 . S
C727 H731 0.950 . S
H728 C724 0.950 . S
C729 C727 1.390 . S
C729 C730 1.387 . S
C729 H732 0.950 . S
C730 C729 1.387 . S
C730 C733 1.387 . S
H731 C727 0.950 . S
H732 C729 0.950 . S
C733 C724 1.390 . S
C733 H726 0.950 . S
C733 C730 1.387 . S
C734 C735 1.387 . S
C734 H738 0.950 . S
C734 C743 1.390 . S
C735 C734 1.387 . S
C735 C737 1.387 . S
H736 C743 0.950 . S
C737 C735 1.387 . S
C737 C739 1.390 . S
C737 H741 0.950 . S
H738 C734 0.950 . S
C739 C737 1.390 . S
C739 C740 1.387 . S
C739 H742 0.950 . S
C740 C739 1.387 . S
C740 C743 1.387 . S
H741 C737 0.950 . S
H742 C739 0.950 . S
C743 C734 1.390 . S
C743 H736 0.950 . S
C743 C740 1.387 . S
C744 C745 1.387 1_556 S
C744 H748 0.950 . S
C744 C753 1.390 1_655 S
C745 C744 1.387 1_554 S
C745 C747 1.387 . S
H746 C753 0.950 . S
C747 C745 1.387 . S
C747 C749 1.390 1_655 S
C747 H751 0.950 . S
H748 C744 0.950 . S
C749 C747 1.390 1_455 S
C749 C750 1.387 1_554 S
C749 H752 0.950 . S
C750 C749 1.387 1_556 S
C750 C753 1.387 . S
H751 C747 0.950 . S
H752 C749 0.950 . S
C753 C744 1.390 1_455 S
C753 H746 0.950 . S
C753 C750 1.387 . S
C754 C755 1.387 1_556 S
C754 H758 0.950 . S
C754 C763 1.390 1_565 S
C755 C754 1.387 1_554 S
C755 C757 1.387 . S
H756 C763 0.950 . S
C757 C755 1.387 . S
C757 C759 1.390 1_565 S
C757 H761 0.950 . S
H758 C754 0.950 . S
C759 C757 1.390 1_545 S
C759 C760 1.387 1_554 S
C759 H762 0.950 . S
C760 C759 1.387 1_556 S
C760 C763 1.387 . S
H761 C757 0.950 . S
H762 C759 0.950 . S
C763 C754 1.390 1_545 S
C763 H756 0.950 . S
C763 C760 1.387 . S
C764 C765 1.387 . S
C764 H768 0.950 . S
C764 C773 1.390 . S
C765 C764 1.387 . S
C765 C767 1.387 1_554 S
H766 C773 0.950 . S
C767 C765 1.387 1_556 S
C767 C769 1.390 . S
C767 H771 0.950 . S
H768 C764 0.950 . S
C769 C767 1.390 . S
C769 C770 1.387 . S
C769 H772 0.950 . S
C770 C769 1.387 . S
C770 C773 1.387 1_556 S
H771 C767 0.950 . S
H772 C769 0.950 . S
C773 C764 1.390 . S
C773 H766 0.950 . S
C773 C770 1.387 1_554 S
C774 C775 1.387 1_556 S
C774 H778 0.950 . S
C774 C783 1.390 . S
C775 C774 1.387 1_554 S
C775 C777 1.387 . S
H776 C783 0.950 . S
C777 C775 1.387 . S
C777 C779 1.390 . S
C777 H781 0.950 . S
H778 C774 0.950 . S
C779 C777 1.390 . S
C779 C780 1.387 1_554 S
C779 H782 0.950 . S
C780 C779 1.387 1_556 S
C780 C783 1.387 . S
H781 C777 0.950 . S
H782 C779 0.950 . S
C783 C774 1.390 . S
C783 H776 0.950 . S
C783 C780 1.387 . S
C784 C785 1.387 . S
C784 H788 0.950 . S
C784 C793 1.390 . S
C785 C784 1.387 . S
C785 C787 1.387 . S
H786 C793 0.950 . S
C787 C785 1.387 . S
C787 C789 1.390 . S
C787 H791 0.950 1_455 S
H788 C784 0.950 . S
C789 C787 1.390 . S
C789 C790 1.387 . S
C789 H792 0.950 1_455 S
C790 C789 1.387 . S
C790 C793 1.387 . S
H791 C787 0.950 1_655 S
H792 C789 0.950 1_655 S
C793 C784 1.390 . S
C793 H786 0.950 . S
C793 C790 1.387 . S
C794 C795 1.387 . S
C794 H798 0.950 . S
C794 C803 1.390 . S
C795 C794 1.387 . S
C795 C797 1.387 . S
H796 C803 0.950 . S
C797 C795 1.387 . S
C797 C799 1.390 . S
C797 H801 0.950 . S
H798 C794 0.950 . S
C799 C797 1.390 . S
C799 C800 1.387 . S
C799 H802 0.950 . S
C800 C799 1.387 . S
C800 C803 1.387 . S
H801 C797 0.950 . S
H802 C799 0.950 . S
C803 C794 1.390 . S
C803 H796 0.950 . S
C803 C800 1.387 . S
C804 C805 1.387 . S
C804 H808 0.950 . S
C804 C813 1.390 . S
C805 C804 1.387 . S
C805 C807 1.387 . S
H806 C813 0.950 . S
C807 C805 1.387 . S
C807 C809 1.390 . S
C807 H811 0.950 . S
H808 C804 0.950 . S
C809 C807 1.390 . S
C809 C810 1.387 . S
C809 H812 0.950 . S
C810 C809 1.387 . S
C810 C813 1.387 . S
H811 C807 0.950 . S
H812 C809 0.950 . S
C813 C804 1.390 . S
C813 H806 0.950 . S
C813 C810 1.387 . S
C814 C815 1.387 . S
C814 H818 0.950 . S
C814 C823 1.390 . S
C815 C814 1.387 . S
C815 C817 1.387 . S
H816 C823 0.950 . S
C817 C815 1.387 . S
C817 C819 1.390 . S
C817 H821 0.950 . S
H818 C814 0.950 . S
C819 C817 1.390 . S
C819 C820 1.387 . S
C819 H822 0.950 . S
C820 C819 1.387 . S
C820 C823 1.387 . S
H821 C817 0.950 . S
H822 C819 0.950 . S
C823 C814 1.390 . S
C823 H816 0.950 . S
C823 C820 1.387 . S
C824 C825 1.387 . S
C824 H828 0.950 . S
C824 C833 1.390 . S
C825 C824 1.387 . S
C825 C827 1.387 . S
H826 C833 0.950 . S
C827 C825 1.387 . S
C827 C829 1.390 . S
C827 H831 0.950 . S
H828 C824 0.950 . S
C829 C827 1.390 . S
C829 C830 1.387 . S
C829 H832 0.957 . S
C830 C829 1.387 . S
C830 C833 1.387 . S
H831 C827 0.950 . S
H832 C829 0.957 . S
C833 C824 1.390 . S
C833 H826 0.950 . S
C833 C830 1.387 . S
C834 C835 1.387 . S
C834 H838 0.950 . S
C834 C843 1.390 . S
C835 C834 1.387 . S
C835 C837 1.387 . S
H836 C843 0.950 1_545 S
C837 C835 1.387 . S
C837 C839 1.390 . S
C837 H841 0.950 . S
H838 C834 0.950 . S
C839 C837 1.390 . S
C839 C840 1.387 . S
C839 H842 0.950 . S
C840 C839 1.387 . S
C840 C843 1.387 . S
H841 C837 0.950 . S
H842 C839 0.950 . S
C843 C834 1.390 . S
C843 H836 0.950 1_565 S
C843 C840 1.387 . S
C844 C845 1.387 . S
C844 H848 0.950 . S
C844 C853 1.390 . S
C845 C844 1.387 . S
C845 C847 1.387 . S
H846 C853 0.950 . S
C847 C845 1.387 . S
C847 C849 1.390 . S
C847 H851 0.950 . S
H848 C844 0.950 . S
C849 C847 1.390 . S
C849 C850 1.387 . S
C849 H852 0.950 . S
C850 C849 1.387 . S
C850 C853 1.387 . S
H851 C847 0.950 . S
H852 C849 0.950 . S
C853 C844 1.390 . S
C853 H846 0.950 . S
C853 C850 1.387 . S
C854 C855 1.387 . S
C854 H858 0.950 . S
C854 C863 1.390 . S
C855 C854 1.387 . S
C855 C857 1.387 . S
H856 C863 0.950 . S
C857 C855 1.387 . S
C857 C859 1.390 . S
C857 H861 0.950 . S
H858 C854 0.950 . S
C859 C857 1.390 . S
C859 C860 1.387 . S
C859 H862 0.950 . S
C860 C859 1.387 . S
C860 C863 1.387 . S
H861 C857 0.950 . S
H862 C859 0.950 . S
C863 C854 1.390 . S
C863 H856 0.950 . S
C863 C860 1.387 . S
C625 C241 2.528 . S
C630 C351 2.830 . S
C640 C428 2.842 . S
C635 C277 2.609 . S
C650 C519 2.836 . S
C645 C169 2.531 . S
C660 C603 2.821 . S
C655 C205 2.520 . S
C670 C362 2.829 1_565 S
C665 C97 2.497 . S
C675 C133 2.636 . S
C680 C439 2.842 . S
C685 C25 2.505 . S
C690 C530 2.837 . S
C695 C61 2.492 . S
C700 C614 2.820 1_655 S
C710 C346 0.775 . S
C705 C211 0.767 . S
C720 C441 0.768 . S
C715 C247 0.764 . S
C730 C514 0.789 . S
C725 C253 0.771 . S
C735 C175 0.768 . S
C740 C598 0.773 . S
C745 C67 0.761 . S
C750 C357 0.775 . S
C760 C430 0.767 . S
C755 C103 0.759 . S
C770 C525 0.788 . S
C765 C109 0.785 . S
C775 C31 0.761 . S
C780 C609 0.773 . S
C785 C181 2.932 . S
C790 C355 3.293 . S
C795 C217 2.925 . S
C800 C446 3.388 . S
C810 C523 3.314 . S
C805 C283 2.854 . S
C820 C607 3.305 . S
C815 C145 2.943 . S
C825 C37 2.919 . S
C830 C344 3.292 . S
C840 C435 3.388 . S
C835 C73 2.913 . S
C850 C512 3.314 . S
C845 C139 2.870 . S
C855 C1 2.931 . S
C860 C596 3.305 . S
