# Generated by pormake.
# Topology nom, (4,4)-cn, num edge types: 1
# Building blocks:
#     Node 0, Type 0, BuildingBlock: NAWXER_clean_linker_0, # of connection points: 4
#     Node 1, Type 0, BuildingBlock: NAWXER_clean_linker_0, # of connection points: 4
#     Node 2, Type 0, BuildingBlock: NAWXER_clean_linker_0, # of connection points: 4
#     Node 3, Type 0, BuildingBlock: NAWXER_clean_linker_0, # of connection points: 4
#     Node 4, Type 0, BuildingBlock: NAWXER_clean_linker_0, # of connection points: 4
#     Node 5, Type 0, BuildingBlock: NAWXER_clean_linker_0, # of connection points: 4
#     Node 6, Type 1, BuildingBlock: TATPOV_clean_sbu_0, # of connection points: 4
#     Node 7, Type 1, BuildingBlock: TATPOV_clean_sbu_0, # of connection points: 4
#     Node 8, Type 1, BuildingBlock: TATPOV_clean_sbu_0, # of connection points: 4
#     Node 9, Type 1, BuildingBlock: TATPOV_clean_sbu_0, # of connection points: 4
#     Node 10, Type 1, BuildingBlock: TATPOV_clean_sbu_0, # of connection points: 4
#     Node 11, Type 1, BuildingBlock: TATPOV_clean_sbu_0, # of connection points: 4
#     Edge 12, Type (0, 1), BuildingBlock: CIFDUS_clean_linker_0, # of connection points: 2
#     Edge 13, Type (0, 1), BuildingBlock: CIFDUS_clean_linker_0, # of connection points: 2
#     Edge 14, Type (0, 1), BuildingBlock: CIFDUS_clean_linker_0, # of connection points: 2
#     Edge 15, Type (0, 1), BuildingBlock: CIFDUS_clean_linker_0, # of connection points: 2
#     Edge 16, Type (0, 1), BuildingBlock: CIFDUS_clean_linker_0, # of connection points: 2
#     Edge 17, Type (0, 1), BuildingBlock: CIFDUS_clean_linker_0, # of connection points: 2
#     Edge 18, Type (0, 1), BuildingBlock: CIFDUS_clean_linker_0, # of connection points: 2
#     Edge 19, Type (0, 1), BuildingBlock: CIFDUS_clean_linker_0, # of connection points: 2
#     Edge 20, Type (0, 1), BuildingBlock: CIFDUS_clean_linker_0, # of connection points: 2
#     Edge 21, Type (0, 1), BuildingBlock: CIFDUS_clean_linker_0, # of connection points: 2
#     Edge 22, Type (0, 1), BuildingBlock: CIFDUS_clean_linker_0, # of connection points: 2
#     Edge 23, Type (0, 1), BuildingBlock: CIFDUS_clean_linker_0, # of connection points: 2
#     Edge 24, Type (0, 1), BuildingBlock: CIFDUS_clean_linker_0, # of connection points: 2
#     Edge 25, Type (0, 1), BuildingBlock: CIFDUS_clean_linker_0, # of connection points: 2
#     Edge 26, Type (0, 1), BuildingBlock: CIFDUS_clean_linker_0, # of connection points: 2
#     Edge 27, Type (0, 1), BuildingBlock: CIFDUS_clean_linker_0, # of connection points: 2
#     Edge 28, Type (0, 1), BuildingBlock: CIFDUS_clean_linker_0, # of connection points: 2
#     Edge 29, Type (0, 1), BuildingBlock: CIFDUS_clean_linker_0, # of connection points: 2
#     Edge 30, Type (0, 1), BuildingBlock: CIFDUS_clean_linker_0, # of connection points: 2
#     Edge 31, Type (0, 1), BuildingBlock: CIFDUS_clean_linker_0, # of connection points: 2
#     Edge 32, Type (0, 1), BuildingBlock: CIFDUS_clean_linker_0, # of connection points: 2
#     Edge 33, Type (0, 1), BuildingBlock: CIFDUS_clean_linker_0, # of connection points: 2
#     Edge 34, Type (0, 1), BuildingBlock: CIFDUS_clean_linker_0, # of connection points: 2
#     Edge 35, Type (0, 1), BuildingBlock: CIFDUS_clean_linker_0, # of connection points: 2
# Relax obj value: 0.024
# Max RMSD: 0.116
# Mean RMSD: 0.110
data_MOF--net-nom--node1-TATPOV_clean_sbu_0--node2-NAWXER_clean_linker_0--edge1-CIFDUS_clean_linker_0
_symmetry_space_group_name_H-M    P1
_symmetry_Int_Tables_number       1
_symmetry_cell_setting            triclinic
loop_
_symmetry_equiv_pos_as_xyz
'x, y, z'
_cell_length_a     46.501179
_cell_length_b     47.042
_cell_length_c     51.348913
_cell_angle_alpha  90.574151
_cell_angle_beta   90.611512
_cell_angle_gamma 120.02933
loop_
_atom_site_label
_atom_site_type_symbol
_atom_site_fract_x
_atom_site_fract_y
_atom_site_fract_z
_atom_type_partial_charge
C0 C 0.91021 0.46442 0.34888 0.0
C1 C 0.89495 0.43909 0.36689 0.0
C2 C 0.94025 0.47152 0.33779 0.0
C3 C 0.95576 0.45348 0.34449 0.0
C4 C 0.90981 0.4203 0.37311 0.0
C5 C 0.94033 0.42778 0.36224 0.0
C6 C 0.98983 0.46462 0.33548 0.0
C7 C 0.93075 0.42174 0.25868 0.0
C8 C 0.93596 0.44649 0.24098 0.0
C9 C 0.94965 0.42967 0.28188 0.0
C10 C 0.974 0.46236 0.28752 0.0
C11 C 0.95888 0.47935 0.24773 0.0
C12 C 0.97791 0.48711 0.27054 0.0
C13 C 0.99837 0.47103 0.30908 0.0
C14 C 0.14788 0.53873 0.30662 0.0
C15 C 0.1531 0.56649 0.29255 0.0
C16 C 0.11638 0.51679 0.31629 0.0
C17 C 0.08969 0.52223 0.31187 0.0
C18 C 0.12616 0.57178 0.28864 0.0
C19 C 0.09485 0.54972 0.29785 0.0
C20 C 0.05586 0.49969 0.32107 0.0
C21 C 0.11831 0.55365 0.39156 0.0
C22 C 0.11576 0.53406 0.41279 0.0
C23 C 0.09646 0.54027 0.37026 0.0
C24 C 0.07243 0.50666 0.36924 0.0
C25 C 0.09147 0.50062 0.41212 0.0
C26 C 0.07009 0.487 0.39045 0.0
C27 C 0.04758 0.49264 0.34755 0.0
H28 H 0.89919 0.47924 0.34382 0.0
H29 H 0.95208 0.49213 0.32481 0.0
H30 H 0.89851 0.40079 0.3871 0.0
H31 H 0.95218 0.41396 0.36801 0.0
H32 H 0.91325 0.39622 0.25408 0.0
H33 H 0.94647 0.41018 0.2947 0.0
H34 H 0.96277 0.49916 0.23501 0.0
H35 H 0.99638 0.51253 0.27465 0.0
H36 H 0.16797 0.53376 0.3099 0.0
H37 H 0.11276 0.49551 0.32694 0.0
H38 H 0.12922 0.59332 0.27877 0.0
H39 H 0.07464 0.55453 0.29444 0.0
H40 H 0.13619 0.57972 0.39202 0.0
H41 H 0.09767 0.55665 0.35514 0.0
H42 H 0.08878 0.48517 0.42849 0.0
H43 H 0.05134 0.4612 0.39044 0.0
N44 N 0.01477 0.47528 0.3537 0.0
N45 N 0.03094 0.48847 0.30302 0.0
C46 C 0.41901 0.91713 0.49119 0.0
C47 C 0.4287 0.90342 0.51129 0.0
C48 C 0.44099 0.94843 0.48208 0.0
C49 C 0.47337 0.96657 0.49255 0.0
C50 C 0.46133 0.92133 0.52144 0.0
C51 C 0.48335 0.95273 0.51229 0.0
C52 C 0.49527 1.00125 0.48521 0.0
C53 C 0.4776 0.93822 0.41466 0.0
C54 C 0.46038 0.94363 0.39442 0.0
C55 C 0.49183 0.96085 0.43536 0.0
C56 C 0.48865 0.98904 0.43639 0.0
C57 C 0.45893 0.97279 0.39483 0.0
C58 C 0.47292 0.99523 0.41555 0.0
C59 C 0.50085 0.01196 0.45915 0.0
C60 C 0.58505 0.16053 0.4742 0.0
C61 C 0.56996 0.17004 0.45493 0.0
C62 C 0.57199 0.12738 0.48009 0.0
C63 C 0.54317 0.10303 0.46719 0.0
C64 C 0.54193 0.14554 0.44131 0.0
C65 C 0.52874 0.11242 0.44735 0.0
C66 C 0.52762 0.06785 0.47423 0.0
C67 C 0.51708 0.11653 0.54709 0.0
C68 C 0.53351 0.11382 0.56925 0.0
C69 C 0.51469 0.09916 0.5242 0.0
C70 C 0.52892 0.07898 0.52299 0.0
C71 C 0.54849 0.0943 0.56778 0.0
C72 C 0.54595 0.0768 0.5449 0.0
C73 C 0.52245 0.05702 0.50025 0.0
H74 H 0.39415 0.90387 0.4828 0.0
H75 H 0.43224 0.95885 0.46742 0.0
H76 H 0.46942 0.91161 0.53713 0.0
H77 H 0.50802 0.9665 0.52098 0.0
H78 H 0.47927 0.91607 0.41491 0.0
H79 H 0.50475 0.95598 0.45079 0.0
H80 H 0.44661 0.97816 0.37922 0.0
H81 H 0.47054 0.017 0.41566 0.0
H82 H 0.60709 0.17875 0.48466 0.0
H83 H 0.58436 0.12083 0.49485 0.0
H84 H 0.52963 0.15204 0.42645 0.0
H85 H 0.50664 0.09416 0.43696 0.0
H86 H 0.50546 0.13153 0.54765 0.0
H87 H 0.50067 0.10056 0.50778 0.0
H88 H 0.56095 0.09144 0.58465 0.0
H89 H 0.55662 0.06094 0.54447 0.0
N90 N 0.50663 0.02425 0.50465 0.0
N91 N 0.51657 0.04482 0.45472 0.0
C92 C 0.56651 0.48668 0.59837 0.0
C93 C 0.55358 0.47878 0.57287 0.0
C94 C 0.55143 0.49654 0.61702 0.0
C95 C 0.52232 0.49746 0.61079 0.0
C96 C 0.52512 0.48051 0.56633 0.0
C97 C 0.50953 0.48959 0.58515 0.0
C98 C 0.50603 0.50802 0.63042 0.0
C99 C 0.49838 0.41777 0.66622 0.0
C100 C 0.51598 0.42288 0.68984 0.0
C101 C 0.4955 0.44318 0.65507 0.0
C102 C 0.51041 0.47432 0.66721 0.0
C103 C 0.53145 0.45421 0.70174 0.0
C104 C 0.52839 0.47964 0.69064 0.0
C105 C 0.504 0.49999 0.65706 0.0
C106 C 0.4145 0.53931 0.70583 0.0
C107 C 0.4325 0.55376 0.7291 0.0
C108 C 0.42981 0.53372 0.68466 0.0
C109 C 0.46353 0.54288 0.68626 0.0
C110 C 0.46653 0.56393 0.73023 0.0
C111 C 0.4818 0.55837 0.70908 0.0
C112 C 0.47883 0.53243 0.66601 0.0
C113 C 0.44866 0.59983 0.62917 0.0
C114 C 0.42699 0.58569 0.60757 0.0
C115 C 0.4664 0.58537 0.63908 0.0
C116 C 0.46219 0.55606 0.62796 0.0
C117 C 0.42401 0.55723 0.59577 0.0
C118 C 0.44144 0.54263 0.60584 0.0
C119 C 0.47858 0.53864 0.63913 0.0
H120 H 0.58892 0.48627 0.60364 0.0
H121 H 0.56298 0.50398 0.63616 0.0
H122 H 0.51496 0.47482 0.54665 0.0
H123 H 0.48743 0.49045 0.57963 0.0
H124 H 0.48642 0.39394 0.65651 0.0
H125 H 0.48075 0.43817 0.63737 0.0
H126 H 0.54492 0.45874 0.72007 0.0
H127 H 0.53965 0.50334 0.70052 0.0
H128 H 0.3883 0.5314 0.70428 0.0
H129 H 0.41498 0.52102 0.6675 0.0
H130 H 0.48101 0.57465 0.74795 0.0
H131 H 0.50773 0.56518 0.71085 0.0
H132 H 0.45192 0.62209 0.63837 0.0
H133 H 0.48314 0.59697 0.65558 0.0
H134 H 0.40738 0.54564 0.5792 0.0
H135 H 0.43789 0.52018 0.59675 0.0
N136 N 0.4926 0.5265 0.62247 0.0
N137 N 0.49123 0.51313 0.67378 0.0
C138 C 0.86649 0.40951 0.79637 0.0
C139 C 0.85472 0.42474 0.77925 0.0
C140 C 0.8995 0.42591 0.80511 0.0
C141 C 0.9213 0.4583 0.7976 0.0
C142 C 0.87716 0.45652 0.77059 0.0
C143 C 0.91011 0.47311 0.77967 0.0
C144 C 0.95561 0.4768 0.80843 0.0
C145 C 0.88936 0.45841 0.87725 0.0
C146 C 0.89239 0.4395 0.89699 0.0
C147 C 0.91184 0.47005 0.85685 0.0
C148 C 0.93752 0.46261 0.85554 0.0
C149 C 0.91778 0.43162 0.89539 0.0
C150 C 0.94023 0.44324 0.87495 0.0
C151 C 0.9631 0.477 0.83523 0.0
C152 C 0.10948 0.57423 0.84421 0.0
C153 C 0.11998 0.55584 0.85886 0.0
C154 C 0.07718 0.55934 0.83371 0.0
C155 C 0.05499 0.5258 0.83755 0.0
C156 C 0.09735 0.52239 0.86293 0.0
C157 C 0.06517 0.50765 0.8526 0.0
C158 C 0.02089 0.50926 0.82653 0.0
C159 C 0.09143 0.53822 0.76008 0.0
C160 C 0.08894 0.55975 0.74258 0.0
C161 C 0.0668 0.52155 0.77845 0.0
C162 C 0.03946 0.52652 0.78006 0.0
C163 C 0.06098 0.56383 0.74376 0.0
C164 C 0.03652 0.54736 0.76226 0.0
C165 C 0.01351 0.50974 0.79983 0.0
H166 H 0.85004 0.3852 0.80366 0.0
H167 H 0.90779 0.41343 0.81819 0.0
H168 H 0.86922 0.46873 0.75694 0.0
H169 H 0.92665 0.49785 0.7732 0.0
H170 H 0.86999 0.46478 0.87785 0.0
H171 H 0.90965 0.48559 0.84248 0.0
H172 H 0.92113 0.41757 0.9105 0.0
H173 H 0.96006 0.43748 0.87449 0.0
H174 H 0.12615 0.6001 0.84093 0.0
H175 H 0.06953 0.57396 0.8226 0.0
H176 H 0.10471 0.50723 0.87358 0.0
H177 H 0.04839 0.48178 0.85585 0.0
H178 H 0.11257 0.53445 0.75976 0.0
H179 H 0.06917 0.50478 0.79141 0.0
H180 H 0.05775 0.57952 0.73018 0.0
H181 H 0.01541 0.55119 0.76283 0.0
N182 N 0.98109 0.49355 0.79182 0.0
N183 N 0.99545 0.49287 0.84313 0.0
C184 C 0.51334 0.88484 0.9639 0.0
C185 C 0.48704 0.87359 0.94555 0.0
C186 C 0.52804 0.91676 0.97431 0.0
C187 C 0.51665 0.93806 0.96667 0.0
C188 C 0.47611 0.89523 0.93764 0.0
C189 C 0.49092 0.92717 0.94796 0.0
C190 C 0.53185 0.97192 0.9776 0.0
C191 C 0.47727 0.90637 0.04352 0.0
C192 C 0.49624 0.90911 0.0659 0.0
C193 C 0.49101 0.92878 0.02345 0.0
C194 C 0.52438 0.95402 0.02485 0.0
C195 C 0.52977 0.93415 0.06722 0.0
C196 C 0.54364 0.95649 0.04693 0.0
C197 C 0.53805 0.97947 0.00453 0.0
C198 C 0.5827 0.12398 0.00955 0.0
C199 C 0.61217 0.13639 0.02453 0.0
C200 C 0.56611 0.09133 0.00065 0.0
C201 C 0.57905 0.07065 0.00608 0.0
C202 C 0.62418 0.11517 0.03097 0.0
C203 C 0.6077 0.08259 0.02188 0.0
C204 C 0.56301 0.03665 0.99539 0.0
C205 C 0.59656 0.1057 0.92748 0.0
C206 C 0.57026 0.10022 0.91047 0.0
C207 C 0.59219 0.08248 0.94621 0.0
C208 C 0.56128 0.05363 0.94854 0.0
C209 C 0.53978 0.07075 0.91234 0.0
C210 C 0.53538 0.04779 0.93113 0.0
C211 C 0.55526 0.02891 0.9686 0.0
H212 H 0.52286 0.86911 0.97004 0.0
H213 H 0.54845 0.92486 0.9882 0.0
H214 H 0.45568 0.88733 0.92381 0.0
H215 H 0.48181 0.9432 0.94169 0.0
H216 H 0.45147 0.88724 0.04172 0.0
H217 H 0.4751 0.92688 0.00718 0.0
H218 H 0.54495 0.93726 0.08433 0.0
H219 H 0.56928 0.97604 0.04867 0.0
H220 H 0.57247 0.13953 0.0047 0.0
H221 H 0.54342 0.08238 0.9892 0.0
H222 H 0.64687 0.12402 0.04239 0.0
H223 H 0.6179 0.06695 0.02658 0.0
H224 H 0.62037 0.12808 0.92656 0.0
H225 H 0.61289 0.08715 0.95892 0.0
H226 H 0.51927 0.06523 0.89912 0.0
H227 H 0.51146 0.02552 0.93227 0.0
N228 N 0.54017 0.99688 0.96081 0.0
N229 N 0.554 0.0116 0.01231 0.0
C230 C 0.49197 0.60645 0.18018 0.0
C231 C 0.47436 0.60207 0.20331 0.0
C232 C 0.49886 0.58246 0.17115 0.0
C233 C 0.48713 0.55272 0.18432 0.0
C234 C 0.46377 0.57278 0.21707 0.0
C235 C 0.47004 0.54839 0.20764 0.0
C236 C 0.49484 0.52732 0.17489 0.0
C237 C 0.43542 0.53555 0.10779 0.0
C238 C 0.45492 0.55066 0.08596 0.0
C239 C 0.44825 0.52592 0.12846 0.0
C240 C 0.48061 0.53091 0.12741 0.0
C241 C 0.48748 0.55619 0.08522 0.0
C242 C 0.50007 0.54604 0.10563 0.0
C243 C 0.49394 0.51907 0.14824 0.0
C244 C 0.5521 0.42798 0.1494 0.0
C245 C 0.5758 0.44428 0.13009 0.0
C246 C 0.53205 0.44055 0.15798 0.0
C247 C 0.53595 0.46986 0.14766 0.0
C248 C 0.57735 0.47179 0.11827 0.0
C249 C 0.55773 0.48444 0.12697 0.0
C250 C 0.51903 0.48691 0.15839 0.0
C251 C 0.57969 0.47955 0.22426 0.0
C252 C 0.561 0.46334 0.24622 0.0
C253 C 0.56607 0.48966 0.20454 0.0
C254 C 0.53306 0.48279 0.20584 0.0
C255 C 0.52807 0.45693 0.24762 0.0
C256 C 0.5143 0.46663 0.22765 0.0
C257 C 0.51849 0.49378 0.18524 0.0
H258 H 0.50035 0.62835 0.16877 0.0
H259 H 0.51373 0.58752 0.15392 0.0
H260 H 0.4509 0.56871 0.23529 0.0
H261 H 0.46149 0.52609 0.21859 0.0
H262 H 0.4102 0.531 0.10872 0.0
H263 H 0.43272 0.51393 0.14497 0.0
H264 H 0.50282 0.56742 0.06845 0.0
H265 H 0.52505 0.54997 0.10443 0.0
H266 H 0.5502 0.40655 0.15869 0.0
H267 H 0.51452 0.42813 0.17332 0.0
H268 H 0.59478 0.48436 0.10287 0.0
H269 H 0.5608 0.50667 0.11828 0.0
H270 H 0.605 0.48467 0.22232 0.0
H271 H 0.58143 0.50297 0.1883 0.0
H272 H 0.51315 0.44517 0.26445 0.0
H273 H 0.48896 0.46159 0.22927 0.0
N274 N 0.50644 0.51375 0.19241 0.0
N275 N 0.50649 0.49969 0.14109 0.0
Zn276 Zn 0.70547 0.48567 0.41501 0.0
Zn277 Zn 0.66812 0.4223 0.41687 0.0
O278 O 0.717 0.43174 0.41674 0.0
O279 O 0.7478 0.48531 0.42115 0.0
O280 O 0.64286 0.37295 0.42156 0.0
O281 O 0.68146 0.4932 0.44386 0.0
O282 O 0.65217 0.43957 0.44804 0.0
C283 C 0.74557 0.45746 0.4192 0.0
C284 C 0.66537 0.45777 0.36847 0.0
O285 O 0.65277 0.4311 0.38117 0.0
O286 O 0.6892 0.48383 0.37834 0.0
C287 C 0.63843 0.35265 0.40325 0.0
O288 O 0.64898 0.36378 0.37986 0.0
C289 C 0.6591 0.4684 0.45528 0.0
Zn290 Zn 0.20701 0.69066 0.57671 0.0
Zn291 Zn 0.25006 0.6702 0.58374 0.0
O292 O 0.27982 0.71886 0.57305 0.0
O293 O 0.24335 0.73457 0.56502 0.0
O294 O 0.2832 0.65596 0.59342 0.0
O295 O 0.19301 0.68416 0.61393 0.0
O296 O 0.22309 0.66022 0.61787 0.0
C297 C 0.27318 0.74081 0.56567 0.0
C298 C 0.19478 0.63529 0.54345 0.0
O299 O 0.22216 0.63983 0.55311 0.0
O300 O 0.18263 0.65271 0.55105 0.0
C301 C 0.30145 0.65157 0.57751 0.0
O302 O 0.29913 0.65618 0.55256 0.0
C303 C 0.20257 0.66791 0.62732 0.0
Zn304 Zn 0.52535 0.2165 0.75042 0.0
Zn305 Zn 0.59279 0.25179 0.75221 0.0
O306 O 0.5783 0.28657 0.74878 0.0
O307 O 0.52367 0.25833 0.74739 0.0
O308 O 0.64299 0.27769 0.75453 0.0
O309 O 0.52575 0.19774 0.78563 0.0
O310 O 0.58044 0.2249 0.78578 0.0
C311 C 0.55049 0.28561 0.74675 0.0
C312 C 0.55691 0.20265 0.70755 0.0
O313 O 0.58362 0.22406 0.71898 0.0
O314 O 0.52896 0.19485 0.71716 0.0
C315 C 0.66044 0.30834 0.75054 0.0
O316 O 0.64569 0.32497 0.74429 0.0
C317 C 0.5532 0.20492 0.7965 0.0
Zn318 Zn 0.3254 0.54441 0.91013 0.0
Zn319 Zn 0.36345 0.6095 0.91753 0.0
O320 O 0.3161 0.60267 0.91428 0.0
O321 O 0.2847 0.54869 0.91271 0.0
O322 O 0.39138 0.65766 0.92684 0.0
O323 O 0.34314 0.53493 0.94263 0.0
O324 O 0.37283 0.58837 0.94928 0.0
C325 C 0.28754 0.57687 0.91345 0.0
C326 C 0.37115 0.57776 0.86806 0.0
O327 O 0.38101 0.60326 0.88254 0.0
O328 O 0.34782 0.55023 0.8754 0.0
C329 C 0.39628 0.68099 0.91189 0.0
O330 O 0.38331 0.67409 0.88822 0.0
C331 C 0.36344 0.55922 0.95659 0.0
Zn332 Zn 0.8032 0.45028 0.08311 0.0
Zn333 Zn 0.76257 0.38727 0.07678 0.0
O334 O 0.73045 0.40415 0.08671 0.0
O335 O 0.76582 0.45642 0.09472 0.0
O336 O 0.73195 0.33866 0.06954 0.0
O337 O 0.81606 0.45691 0.04593 0.0
O338 O 0.78636 0.4032 0.0411 0.0
C339 C 0.73628 0.43262 0.09393 0.0
C340 C 0.81917 0.41319 0.11767 0.0
O341 O 0.79254 0.38936 0.10793 0.0
O342 O 0.83024 0.44194 0.10925 0.0
C343 C 0.72303 0.31673 0.08678 0.0
O344 O 0.73362 0.32555 0.11094 0.0
C345 C 0.8058 0.43144 0.03176 0.0
Zn346 Zn 0.34614 0.79151 0.2309 0.0
Zn347 Zn 0.38553 0.76518 0.23379 0.0
O348 O 0.33697 0.72719 0.23709 0.0
O349 O 0.30413 0.74782 0.23136 0.0
O350 O 0.41015 0.73979 0.23406 0.0
O351 O 0.366 0.81137 0.1967 0.0
O352 O 0.39875 0.79013 0.1988 0.0
C353 C 0.30792 0.72342 0.23531 0.0
C354 C 0.39234 0.81449 0.27545 0.0
O355 O 0.40276 0.79631 0.26575 0.0
O356 O 0.36839 0.81575 0.26459 0.0
C357 C 0.39975 0.71486 0.24856 0.0
O358 O 0.37553 0.70829 0.26468 0.0
C359 C 0.3886 0.8073 0.18695 0.0
H360 H 0.16668 0.59995 0.24719 0.0
H361 H 0.21473 0.58755 0.31505 0.0
H362 H 0.26822 0.63222 0.30089 0.0
H363 H 0.3001 0.67931 0.2721 0.0
H364 H 0.24967 0.6959 0.20822 0.0
H365 H 0.19823 0.6455 0.21818 0.0
C366 C 0.18873 0.60707 0.25909 0.0
C367 C 0.18638 0.59066 0.28245 0.0
C368 C 0.21901 0.63383 0.25161 0.0
C369 C 0.21562 0.59954 0.29694 0.0
C370 C 0.24624 0.62535 0.28899 0.0
C371 C 0.27793 0.67146 0.26015 0.0
C372 C 0.27847 0.69104 0.23945 0.0
C373 C 0.24806 0.64328 0.26676 0.0
C374 C 0.24963 0.6811 0.22428 0.0
C375 C 0.22028 0.65238 0.22999 0.0
H376 H 0.57921 0.19892 0.40755 0.0
H377 H 0.58985 0.22062 0.49009 0.0
H378 H 0.61094 0.27867 0.48147 0.0
H379 H 0.62675 0.3234 0.45054 0.0
H380 H 0.61718 0.30198 0.36794 0.0
H381 H 0.59489 0.24374 0.37655 0.0
C382 C 0.58593 0.21633 0.42365 0.0
C383 C 0.583 0.2054 0.44943 0.0
C384 C 0.59814 0.24974 0.41855 0.0
C385 C 0.59225 0.22839 0.47006 0.0
C386 C 0.60413 0.26158 0.46515 0.0
C387 C 0.61959 0.30599 0.4344 0.0
C388 C 0.62357 0.31712 0.40861 0.0
C389 C 0.60723 0.27256 0.43948 0.0
C390 C 0.61443 0.29417 0.38797 0.0
C391 C 0.60169 0.26082 0.39288 0.0
H392 H 0.39158 0.60616 0.63606 0.0
H393 H 0.41631 0.5963 0.55703 0.0
H394 H 0.3802 0.61634 0.54073 0.0
H395 H 0.34045 0.63534 0.54889 0.0
H396 H 0.31513 0.64424 0.62805 0.0
H397 H 0.35274 0.62617 0.64426 0.0
C398 C 0.3894 0.60882 0.61529 0.0
C399 C 0.40663 0.59977 0.59779 0.0
C400 C 0.36835 0.62006 0.60604 0.0
C401 C 0.4031 0.60284 0.5709 0.0
C402 C 0.38252 0.61437 0.56157 0.0
C403 C 0.34322 0.63344 0.56969 0.0
C404 C 0.32487 0.64111 0.58717 0.0
C405 C 0.36478 0.62278 0.57894 0.0
C406 C 0.3288 0.63843 0.61409 0.0
C407 C 0.35036 0.6281 0.62342 0.0
H408 H 0.81306 0.35939 0.76883 0.0
H409 H 0.81552 0.45238 0.77228 0.0
H410 H 0.75627 0.42479 0.76195 0.0
H411 H 0.7031 0.37405 0.75447 0.0
H412 H 0.69983 0.28071 0.75426 0.0
H413 H 0.75994 0.30867 0.76136 0.0
C414 C 0.80067 0.37367 0.76755 0.0
C415 C 0.81893 0.40799 0.77141 0.0
C416 C 0.76633 0.35756 0.7624 0.0
C417 C 0.80239 0.42604 0.76903 0.0
C418 C 0.76836 0.41024 0.76336 0.0
C419 C 0.71554 0.35982 0.75581 0.0
C420 C 0.69699 0.32535 0.75388 0.0
C421 C 0.75002 0.37599 0.76033 0.0
C422 C 0.7135 0.30727 0.75581 0.0
C423 C 0.74788 0.32324 0.75983 0.0
H424 H 0.47203 0.81772 0.97156 0.0
H425 H 0.46538 0.85235 0.89544 0.0
H426 H 0.43695 0.79607 0.8783 0.0
H427 H 0.41335 0.73684 0.885 0.0
H428 H 0.42148 0.70265 0.96096 0.0
H429 H 0.4505 0.75895 0.97785 0.0
C430 C 0.46481 0.81307 0.95113 0.0
C431 C 0.47079 0.83934 0.93489 0.0
C432 C 0.44874 0.78066 0.94131 0.0
C433 C 0.46067 0.83264 0.90854 0.0
C434 C 0.44457 0.80044 0.89865 0.0
C435 C 0.42155 0.74169 0.90523 0.0
C436 C 0.4151 0.71545 0.92166 0.0
C437 C 0.43831 0.77423 0.91488 0.0
C438 C 0.42605 0.72229 0.94782 0.0
C439 C 0.44264 0.75452 0.95755 0.0
H440 H 0.6414 0.48537 0.12676 0.0
H441 H 0.56734 0.3828 0.12004 0.0
H442 H 0.61049 0.36956 0.10829 0.0
H443 H 0.66964 0.38802 0.0989 0.0
H444 H 0.74208 0.49151 0.10588 0.0
H445 H 0.69904 0.50343 0.11815 0.0
C446 C 0.63458 0.4601 0.12246 0.0
C447 C 0.60123 0.43517 0.12382 0.0
C448 C 0.65925 0.45286 0.11567 0.0
C449 C 0.59291 0.40244 0.11902 0.0
C450 C 0.61754 0.39492 0.11222 0.0
C451 C 0.67592 0.41313 0.10308 0.0
C452 C 0.70914 0.43877 0.10136 0.0
C453 C 0.65085 0.42004 0.11029 0.0
C454 C 0.71684 0.4712 0.107 0.0
C455 C 0.69223 0.47815 0.11405 0.0
H456 H 0.36496 0.88341 0.5235 0.0
H457 H 0.43748 0.85184 0.52483 0.0
H458 H 0.39634 0.79909 0.54289 0.0
H459 H 0.33887 0.76124 0.55702 0.0
H460 H 0.26704 0.79394 0.5547 0.0
H461 H 0.30873 0.84669 0.53818 0.0
C462 C 0.37173 0.86488 0.52749 0.0
C463 C 0.40413 0.87143 0.52254 0.0
C464 C 0.34802 0.83473 0.53772 0.0
C465 C 0.4127 0.84745 0.5285 0.0
C466 C 0.38915 0.81725 0.53874 0.0
C467 C 0.33242 0.77999 0.55305 0.0
C468 C 0.29973 0.77343 0.55703 0.0
C469 C 0.35662 0.81052 0.54331 0.0
C470 C 0.29187 0.79808 0.55173 0.0
C471 C 0.31572 0.82837 0.54225 0.0
H472 H 0.56957 0.42209 0.71118 0.0
H473 H 0.4641 0.36134 0.69683 0.0
H474 H 0.46514 0.3143 0.7153 0.0
H475 H 0.49625 0.28969 0.73308 0.0
H476 H 0.6021 0.34932 0.74644 0.0
H477 H 0.60056 0.39767 0.73128 0.0
C478 C 0.54681 0.39862 0.71239 0.0
C479 C 0.51687 0.39508 0.7024 0.0
C480 C 0.54763 0.37151 0.72285 0.0
C481 C 0.48756 0.36451 0.70395 0.0
C482 C 0.48809 0.33766 0.71464 0.0
C483 C 0.51899 0.3133 0.73301 0.0
C484 C 0.54928 0.31577 0.74076 0.0
C485 C 0.51805 0.34076 0.72378 0.0
C486 C 0.57845 0.34663 0.74046 0.0
C487 C 0.57761 0.3743 0.73172 0.0
H488 H 0.14073 0.54515 0.9055 0.0
H489 H 0.17744 0.59968 0.83475 0.0
H490 H 0.23435 0.61666 0.84834 0.0
H491 H 0.27263 0.60864 0.87699 0.0
H492 H 0.23426 0.54793 0.94441 0.0
H493 H 0.17916 0.54066 0.93561 0.0
C494 C 0.16117 0.56083 0.89306 0.0
C495 C 0.15471 0.57059 0.86893 0.0
C496 C 0.1936 0.56923 0.9004 0.0
C497 C 0.18161 0.5918 0.85345 0.0
C498 C 0.21419 0.60131 0.86111 0.0
C499 C 0.25232 0.59467 0.89008 0.0
C500 C 0.2572 0.57899 0.91137 0.0
C501 C 0.22036 0.5892 0.88408 0.0
C502 C 0.23081 0.5603 0.928 0.0
C503 C 0.19937 0.556 0.92287 0.0
H504 H 0.64035 0.16228 0.07208 0.0
H505 H 0.62621 0.1896 0.99508 0.0
H506 H 0.65856 0.24764 0.00763 0.0
H507 H 0.69214 0.29069 0.04008 0.0
H508 H 0.70617 0.26348 0.11722 0.0
H509 H 0.67279 0.20545 0.10496 0.0
C510 C 0.64446 0.18096 0.05804 0.0
C511 C 0.6309 0.1716 0.03268 0.0
C512 C 0.66315 0.21433 0.06538 0.0
C513 C 0.63605 0.19611 0.01481 0.0
C514 C 0.65472 0.22932 0.02193 0.0
C515 C 0.68787 0.27209 0.05424 0.0
C516 C 0.70181 0.28151 0.07951 0.0
C517 C 0.66854 0.23872 0.04711 0.0
C518 C 0.6958 0.257 0.09763 0.0
C519 C 0.67673 0.22376 0.09064 0.0
H520 H 0.41932 0.59344 0.22904 0.0
H521 H 0.5126 0.66919 0.19898 0.0
H522 H 0.498 0.71065 0.21039 0.0
H523 H 0.45772 0.7254 0.22738 0.0
H524 H 0.36685 0.65018 0.26073 0.0
H525 H 0.38215 0.60885 0.25031 0.0
C526 C 0.43691 0.61902 0.22543 0.0
C527 C 0.4668 0.62779 0.21264 0.0
C528 C 0.42884 0.64303 0.23272 0.0
C529 C 0.4889 0.66129 0.20799 0.0
C530 C 0.48074 0.68521 0.21475 0.0
C531 C 0.44145 0.7 0.23255 0.0
C532 C 0.41111 0.69087 0.24462 0.0
C533 C 0.45056 0.67631 0.22678 0.0
C534 C 0.39041 0.65792 0.25147 0.0
C535 C 0.39904 0.63419 0.2454 0.0
H536 H 0.88877 0.48351 0.39582 0.0
H537 H 0.83355 0.38373 0.36698 0.0
H538 H 0.78192 0.37892 0.38353 0.0
H539 H 0.7521 0.40567 0.4019 0.0
H540 H 0.8087 0.50596 0.43028 0.0
H541 H 0.86016 0.50784 0.41861 0.0
C542 C 0.86543 0.4606 0.39351 0.0
C543 C 0.86467 0.43413 0.38002 0.0
C544 C 0.83612 0.45819 0.4029 0.0
C545 C 0.83454 0.40439 0.37732 0.0
C546 C 0.80509 0.40174 0.38666 0.0
C547 C 0.77573 0.42768 0.40602 0.0
C548 C 0.77643 0.45578 0.41662 0.0
C549 C 0.80546 0.42881 0.3989 0.0
C550 C 0.80732 0.48409 0.42186 0.0
C551 C 0.83684 0.48526 0.41514 0.0
H552 H 0.09374 0.53445 0.46096 0.0
H553 H 0.18335 0.56945 0.41714 0.0
H554 H 0.21674 0.60097 0.4553 0.0
H555 H 0.21966 0.62273 0.49994 0.0
H556 H 0.12898 0.59203 0.54148 0.0
H557 H 0.09674 0.55437 0.50575 0.0
C558 C 0.12064 0.54847 0.46003 0.0
C559 C 0.13622 0.54955 0.43652 0.0
C560 C 0.13939 0.56745 0.48163 0.0
C561 C 0.17098 0.56829 0.43519 0.0
C562 C 0.18999 0.58633 0.45694 0.0
C563 C 0.19293 0.60727 0.50124 0.0
C564 C 0.1766 0.6099 0.52321 0.0
C565 C 0.1744 0.58671 0.4801 0.0
C566 C 0.14193 0.59031 0.52465 0.0
C567 C 0.12352 0.56886 0.50424 0.0
H568 H 0.58504 0.14858 0.60343 0.0
H569 H 0.48055 0.11363 0.59135 0.0
H570 H 0.47856 0.13759 0.63317 0.0
H571 H 0.50618 0.16791 0.67322 0.0
H572 H 0.61092 0.20403 0.68544 0.0
H573 H 0.61306 0.17987 0.64362 0.0
C574 C 0.56187 0.14619 0.61004 0.0
C575 C 0.53303 0.12948 0.5943 0.0
C576 C 0.56089 0.16005 0.63414 0.0
C577 C 0.5032 0.12679 0.60294 0.0
C578 C 0.50198 0.14027 0.62692 0.0
C579 C 0.52948 0.17039 0.66683 0.0
C580 C 0.5583 0.18759 0.6825 0.0
C581 C 0.53063 0.15686 0.64269 0.0
C582 C 0.58835 0.19089 0.67375 0.0
C583 C 0.58961 0.17709 0.64985 0.0
H584 H 0.454 0.60375 0.76526 0.0
H585 H 0.37265 0.50653 0.74678 0.0
H586 H 0.34629 0.50605 0.78761 0.0
H587 H 0.34756 0.53167 0.82944 0.0
H588 H 0.42863 0.62863 0.84886 0.0
H589 H 0.45404 0.6306 0.80688 0.0
C590 C 0.43047 0.5825 0.77017 0.0
C591 C 0.41535 0.55524 0.75291 0.0
C592 C 0.41556 0.58218 0.79394 0.0
C593 C 0.38464 0.52807 0.75944 0.0
C594 C 0.36967 0.52762 0.78293 0.0
C595 C 0.37082 0.55329 0.82457 0.0
C596 C 0.38634 0.57982 0.84242 0.0
C597 C 0.38512 0.55431 0.80046 0.0
C598 C 0.41621 0.6078 0.83554 0.0
C599 C 0.43075 0.60893 0.81154 0.0
H600 H 0.87501 0.47813 0.92394 0.0
H601 H 0.86261 0.38094 0.92278 0.0
H602 H 0.83197 0.3685 0.96351 0.0
H603 H 0.81199 0.3869 0.00108 0.0
H604 H 0.82667 0.48507 0.00191 0.0
H605 H 0.85237 0.49513 0.95943 0.0
C606 C 0.86501 0.45396 0.93225 0.0
C607 C 0.87108 0.43052 0.92031 0.0
C608 C 0.84784 0.44716 0.95571 0.0
C609 C 0.85854 0.39955 0.93172 0.0
C610 C 0.84094 0.39239 0.95497 0.0
C611 C 0.82037 0.41026 0.99173 0.0
C612 C 0.81761 0.43525 0.0047 0.0
C613 C 0.83592 0.41623 0.9674 0.0
C614 C 0.82879 0.46552 0.99245 0.0
C615 C 0.84352 0.47134 0.96815 0.0
H616 H 0.43533 0.89014 0.08497 0.0
H617 H 0.52145 0.87983 0.09785 0.0
H618 H 0.49523 0.84583 0.13581 0.0
H619 H 0.44808 0.82038 0.16618 0.0
H620 H 0.36264 0.83177 0.15224 0.0
H621 H 0.38806 0.86324 0.11351 0.0
C622 C 0.44821 0.88 0.09574 0.0
C623 C 0.48025 0.88741 0.08844 0.0
C624 C 0.43304 0.86055 0.11739 0.0
C625 C 0.49686 0.87473 0.10314 0.0
C626 C 0.4818 0.85515 0.12477 0.0
C627 C 0.43492 0.82944 0.15448 0.0
C628 C 0.40354 0.82379 0.16222 0.0
C629 C 0.44993 0.84806 0.13221 0.0
C630 C 0.3869 0.8359 0.1469 0.0
C631 C 0.40141 0.85396 0.12471 0.0
H632 H 0.62423 0.49919 0.26515 0.0
H633 H 0.53249 0.40872 0.27715 0.0
H634 H 0.55719 0.3975 0.31514 0.0
H635 H 0.6043 0.41518 0.34648 0.0
H636 H 0.6957 0.50553 0.33294 0.0
H637 H 0.67194 0.51426 0.29358 0.0
C638 C 0.60973 0.47659 0.27562 0.0
C639 C 0.57647 0.45496 0.26823 0.0
C640 C 0.62409 0.47018 0.29725 0.0
C641 C 0.558 0.42617 0.28259 0.0
C642 C 0.57217 0.4196 0.30425 0.0
C643 C 0.61912 0.43647 0.33467 0.0
C644 C 0.65163 0.4598 0.34284 0.0
C645 C 0.60512 0.44168 0.312 0.0
C646 C 0.6705 0.48733 0.32732 0.0
C647 C 0.65694 0.49242 0.30477 0.0
H648 H 0.48177 0.90657 0.3685 0.0
H649 H 0.39922 0.92407 0.37332 0.0
H650 H 0.37085 0.88513 0.33762 0.0
H651 H 0.3699 0.84749 0.30433 0.0
H652 H 0.45126 0.82832 0.2993 0.0
H653 H 0.47932 0.86602 0.3362 0.0
C654 C 0.45743 0.90159 0.36192 0.0
C655 C 0.44292 0.91866 0.37336 0.0
C656 C 0.44098 0.87884 0.34141 0.0
C657 C 0.41138 0.91196 0.36448 0.0
C658 C 0.39498 0.88949 0.34418 0.0
C659 C 0.39374 0.85141 0.3113 0.0
C660 C 0.40856 0.83528 0.29891 0.0
C661 C 0.40969 0.87308 0.33234 0.0
C662 C 0.43929 0.84044 0.30845 0.0
C663 C 0.4554 0.86207 0.32949 0.0
H664 H 0.58085 0.51254 0.52943 0.0
H665 H 0.56606 0.42789 0.5718 0.0
H666 H 0.59633 0.41588 0.53858 0.0
H667 H 0.62803 0.43045 0.4975 0.0
H668 H 0.64601 0.51814 0.45778 0.0
H669 H 0.6136 0.52799 0.48976 0.0
C670 C 0.58413 0.49137 0.53121 0.0
C671 C 0.5711 0.4709 0.55271 0.0
C672 C 0.60227 0.48527 0.51254 0.0
C673 C 0.57588 0.44385 0.55524 0.0
C674 C 0.59316 0.43703 0.53629 0.0
C675 C 0.62474 0.45162 0.49592 0.0
C676 C 0.63943 0.47352 0.47532 0.0
C677 C 0.60662 0.45768 0.51486 0.0
C678 C 0.63521 0.50104 0.47357 0.0
C679 C 0.61657 0.50668 0.4918 0.0
H680 H 0.1138 0.62268 0.72661 0.0
H681 H 0.12267 0.53655 0.714 0.0
H682 H 0.16248 0.56434 0.67955 0.0
H683 H 0.19068 0.6112 0.65013 0.0
H684 H 0.1779 0.69528 0.66065 0.0
H685 H 0.14378 0.67024 0.6987 0.0
C686 C 0.1243 0.60988 0.71628 0.0
C687 C 0.11491 0.57742 0.7228 0.0
C688 C 0.14652 0.62568 0.69603 0.0
C689 C 0.12953 0.5616 0.70959 0.0
C690 C 0.15218 0.57741 0.68974 0.0
C691 C 0.18098 0.62429 0.6611 0.0
C692 C 0.18679 0.65503 0.65262 0.0
C693 C 0.16039 0.60923 0.68245 0.0
C694 C 0.17368 0.67154 0.66679 0.0
C695 C 0.15408 0.65719 0.68847 0.0
H696 H 0.52535 0.11822 0.89584 0.0
H697 H 0.62442 0.13732 0.8802 0.0
H698 H 0.62918 0.17416 0.84519 0.0
H699 H 0.60338 0.19736 0.81667 0.0
H700 H 0.50281 0.17477 0.83075 0.0
H701 H 0.50038 0.14264 0.86851 0.0
C702 C 0.54795 0.13027 0.8847 0.0
C703 C 0.57433 0.12465 0.89052 0.0
C704 C 0.55018 0.15069 0.86418 0.0
C705 C 0.60377 0.14128 0.87631 0.0
C706 C 0.60643 0.16219 0.85614 0.0
C707 C 0.5811 0.18575 0.82821 0.0
C708 C 0.55327 0.18835 0.82083 0.0
C709 C 0.57956 0.16661 0.84959 0.0
C710 C 0.5245 0.17298 0.83589 0.0
C711 C 0.52307 0.15458 0.85749 0.0
H712 H 0.39789 0.51015 0.05986 0.0
H713 H 0.481 0.609 0.06079 0.0
H714 H 0.45936 0.62106 0.02124 0.0
H715 H 0.41772 0.6026 0.98551 0.0
H716 H 0.3364 0.50249 0.98371 0.0
H717 H 0.35635 0.49183 0.02447 0.0
C718 C 0.41096 0.53444 0.05154 0.0
C719 C 0.44078 0.55874 0.06319 0.0
C720 C 0.39883 0.54087 0.02856 0.0
C721 C 0.45794 0.58995 0.05205 0.0
C722 C 0.44561 0.59681 0.02948 0.0
C723 C 0.40431 0.57852 0.99412 0.0
C724 C 0.37567 0.55339 0.98154 0.0
C725 C 0.41623 0.57233 0.01741 0.0
C726 C 0.35866 0.52223 0.99287 0.0
C727 C 0.36997 0.5161 0.01623 0.0
H728 H 0.87102 0.40128 0.22821 0.0
H729 H 0.9636 0.47361 0.19484 0.0
H730 H 0.93595 0.46707 0.15299 0.0
H731 H 0.88488 0.44529 0.12706 0.0
H732 H 0.79208 0.37168 0.15869 0.0
H733 H 0.82052 0.37344 0.19978 0.0
C734 C 0.88521 0.41515 0.21166 0.0
C735 C 0.91916 0.43868 0.21495 0.0
C736 C 0.86915 0.41104 0.18734 0.0
C737 C 0.93722 0.45623 0.19318 0.0
C738 C 0.92151 0.45234 0.16913 0.0
C739 C 0.87099 0.42921 0.14281 0.0
C740 C 0.8365 0.40869 0.14008 0.0
C741 C 0.88738 0.43057 0.1662 0.0
C742 C 0.81874 0.38764 0.16041 0.0
C743 C 0.83495 0.38888 0.18394 0.0
loop_
_geom_bond_atom_site_label_1
_geom_bond_atom_site_label_2
_geom_bond_distance
_geom_bond_site_symmetry_2
_ccdc_geom_bond_type
C0 C1 1.384 . S
C0 C2 1.384 . S
C0 H28 0.931 . S
C1 C0 1.384 . S
C1 C4 1.382 . S
C2 C0 1.384 . S
C2 C3 1.381 . S
C2 H29 0.930 . S
C3 C2 1.381 . S
C3 C5 1.381 . S
C3 C6 1.487 . S
C4 C1 1.382 . S
C4 C5 1.387 . S
C4 H30 0.930 . S
C5 C3 1.381 . S
C5 C4 1.387 . S
C5 H31 0.931 . S
C6 C3 1.487 . S
C6 C13 1.399 . S
C6 N44 1.343 . S
C7 C8 1.384 . S
C7 C9 1.384 . S
C7 H32 0.931 . S
C8 C7 1.384 . S
C8 C11 1.382 . S
C9 C7 1.384 . S
C9 C10 1.381 . S
C9 H33 0.930 . S
C10 C9 1.381 . S
C10 C12 1.381 . S
C10 C13 1.487 . S
C11 C8 1.382 . S
C11 C12 1.387 . S
C11 H34 0.930 . S
C12 C10 1.381 . S
C12 C11 1.387 . S
C12 H35 0.931 . S
C13 C6 1.399 . S
C13 C10 1.487 . S
C13 N45 1.343 1_655 S
C14 C15 1.384 . S
C14 C16 1.384 . S
C14 H36 0.931 . S
C15 C14 1.384 . S
C15 C18 1.382 . S
C16 C14 1.384 . S
C16 C17 1.381 . S
C16 H37 0.930 . S
C17 C16 1.381 . S
C17 C19 1.381 . S
C17 C20 1.487 . S
C18 C15 1.382 . S
C18 C19 1.387 . S
C18 H38 0.930 . S
C19 C17 1.381 . S
C19 C18 1.387 . S
C19 H39 0.931 . S
C20 C17 1.487 . S
C20 C27 1.399 . S
C20 N45 1.343 . S
C21 C22 1.384 . S
C21 C23 1.384 . S
C21 H40 0.931 . S
C22 C21 1.384 . S
C22 C25 1.382 . S
C23 C21 1.384 . S
C23 C24 1.381 . S
C23 H41 0.930 . S
C24 C23 1.381 . S
C24 C26 1.381 . S
C24 C27 1.487 . S
C25 C22 1.382 . S
C25 C26 1.387 . S
C25 H42 0.930 . S
C26 C24 1.381 . S
C26 C25 1.387 . S
C26 H43 0.931 . S
C27 C20 1.399 . S
C27 C24 1.487 . S
C27 N44 1.343 1_455 S
H28 C0 0.931 . S
H29 C2 0.930 . S
H30 C4 0.930 . S
H31 C5 0.931 . S
H32 C7 0.931 . S
H33 C9 0.930 . S
H34 C11 0.930 . S
H35 C12 0.931 . S
H36 C14 0.931 . S
H37 C16 0.930 . S
H38 C18 0.930 . S
H39 C19 0.931 . S
H40 C21 0.931 . S
H41 C23 0.930 . S
H42 C25 0.930 . S
H43 C26 0.931 . S
N44 C6 1.343 . S
N44 C27 1.343 1_655 S
N45 C13 1.343 1_455 S
N45 C20 1.343 . S
C46 C47 1.384 . S
C46 C48 1.384 . S
C46 H74 0.931 . S
C47 C46 1.384 . S
C47 C50 1.382 . S
C48 C46 1.384 . S
C48 C49 1.381 . S
C48 H75 0.930 . S
C49 C48 1.381 . S
C49 C51 1.381 . S
C49 C52 1.487 . S
C50 C47 1.382 . S
C50 C51 1.387 . S
C50 H76 0.930 . S
C51 C49 1.381 . S
C51 C50 1.387 . S
C51 H77 0.931 . S
C52 C49 1.487 . S
C52 C59 1.399 . S
C52 N90 1.343 . S
C53 C54 1.384 . S
C53 C55 1.384 . S
C53 H78 0.931 . S
C54 C53 1.384 . S
C54 C57 1.382 . S
C55 C53 1.384 . S
C55 C56 1.381 . S
C55 H79 0.930 . S
C56 C55 1.381 . S
C56 C58 1.381 . S
C56 C59 1.487 . S
C57 C54 1.382 . S
C57 C58 1.387 . S
C57 H80 0.930 . S
C58 C56 1.381 . S
C58 C57 1.387 . S
C58 H81 0.931 . S
C59 C52 1.399 . S
C59 C56 1.487 . S
C59 N91 1.343 1_565 S
C60 C61 1.384 . S
C60 C62 1.384 . S
C60 H82 0.931 . S
C61 C60 1.384 . S
C61 C64 1.382 . S
C62 C60 1.384 . S
C62 C63 1.381 . S
C62 H83 0.930 . S
C63 C62 1.381 . S
C63 C65 1.381 . S
C63 C66 1.487 . S
C64 C61 1.382 . S
C64 C65 1.387 . S
C64 H84 0.930 . S
C65 C63 1.381 . S
C65 C64 1.387 . S
C65 H85 0.931 . S
C66 C63 1.487 . S
C66 C73 1.399 . S
C66 N91 1.343 . S
C67 C68 1.384 . S
C67 C69 1.384 . S
C67 H86 0.931 . S
C68 C67 1.384 . S
C68 C71 1.382 . S
C69 C67 1.384 . S
C69 C70 1.381 . S
C69 H87 0.930 . S
C70 C69 1.381 . S
C70 C72 1.381 . S
C70 C73 1.487 . S
C71 C68 1.382 . S
C71 C72 1.387 . S
C71 H88 0.930 . S
C72 C70 1.381 . S
C72 C71 1.387 . S
C72 H89 0.931 . S
C73 C66 1.399 . S
C73 C70 1.487 . S
C73 N90 1.343 1_545 S
H74 C46 0.931 . S
H75 C48 0.930 . S
H76 C50 0.930 . S
H77 C51 0.931 . S
H78 C53 0.931 . S
H79 C55 0.930 . S
H80 C57 0.930 . S
H81 C58 0.931 . S
H82 C60 0.931 . S
H83 C62 0.930 . S
H84 C64 0.930 . S
H85 C65 0.931 . S
H86 C67 0.931 . S
H87 C69 0.930 . S
H88 C71 0.930 . S
H89 C72 0.931 . S
N90 C52 1.343 . S
N90 C73 1.343 1_565 S
N91 C59 1.343 1_545 S
N91 C66 1.343 . S
C92 C93 1.384 . S
C92 C94 1.384 . S
C92 H120 0.931 . S
C93 C92 1.384 . S
C93 C96 1.382 . S
C94 C92 1.384 . S
C94 C95 1.381 . S
C94 H121 0.930 . S
C95 C94 1.381 . S
C95 C97 1.381 . S
C95 C98 1.487 . S
C96 C93 1.382 . S
C96 C97 1.387 . S
C96 H122 0.930 . S
C97 C95 1.381 . S
C97 C96 1.387 . S
C97 H123 0.931 . S
C98 C95 1.487 . S
C98 C105 1.399 . S
C98 N136 1.343 . S
C99 C100 1.384 . S
C99 C101 1.384 . S
C99 H124 0.931 . S
C100 C99 1.384 . S
C100 C103 1.382 . S
C101 C99 1.384 . S
C101 C102 1.381 . S
C101 H125 0.930 . S
C102 C101 1.381 . S
C102 C104 1.381 . S
C102 C105 1.487 . S
C103 C100 1.382 . S
C103 C104 1.387 . S
C103 H126 0.930 . S
C104 C102 1.381 . S
C104 C103 1.387 . S
C104 H127 0.931 . S
C105 C98 1.399 . S
C105 C102 1.487 . S
C105 N137 1.343 . S
C106 C107 1.384 . S
C106 C108 1.384 . S
C106 H128 0.931 . S
C107 C106 1.384 . S
C107 C110 1.382 . S
C108 C106 1.384 . S
C108 C109 1.381 . S
C108 H129 0.930 . S
C109 C108 1.381 . S
C109 C111 1.381 . S
C109 C112 1.487 . S
C110 C107 1.382 . S
C110 C111 1.387 . S
C110 H130 0.930 . S
C111 C109 1.381 . S
C111 C110 1.387 . S
C111 H131 0.931 . S
C112 C109 1.487 . S
C112 C119 1.399 . S
C112 N137 1.343 . S
C113 C114 1.384 . S
C113 C115 1.384 . S
C113 H132 0.931 . S
C114 C113 1.384 . S
C114 C117 1.382 . S
C115 C113 1.384 . S
C115 C116 1.381 . S
C115 H133 0.930 . S
C116 C115 1.381 . S
C116 C118 1.381 . S
C116 C119 1.487 . S
C117 C114 1.382 . S
C117 C118 1.387 . S
C117 H134 0.930 . S
C118 C116 1.381 . S
C118 C117 1.387 . S
C118 H135 0.931 . S
C119 C112 1.399 . S
C119 C116 1.487 . S
C119 N136 1.343 . S
H120 C92 0.931 . S
H121 C94 0.930 . S
H122 C96 0.930 . S
H123 C97 0.931 . S
H124 C99 0.931 . S
H125 C101 0.930 . S
H126 C103 0.930 . S
H127 C104 0.931 . S
H128 C106 0.931 . S
H129 C108 0.930 . S
H130 C110 0.930 . S
H131 C111 0.931 . S
H132 C113 0.931 . S
H133 C115 0.930 . S
H134 C117 0.930 . S
H135 C118 0.931 . S
N136 C98 1.343 . S
N136 C119 1.343 . S
N137 C105 1.343 . S
N137 C112 1.343 . S
C138 C139 1.384 . S
C138 C140 1.384 . S
C138 H166 0.931 . S
C139 C138 1.384 . S
C139 C142 1.382 . S
C140 C138 1.384 . S
C140 C141 1.381 . S
C140 H167 0.930 . S
C141 C140 1.381 . S
C141 C143 1.381 . S
C141 C144 1.487 . S
C142 C139 1.382 . S
C142 C143 1.387 . S
C142 H168 0.930 . S
C143 C141 1.381 . S
C143 C142 1.387 . S
C143 H169 0.931 . S
C144 C141 1.487 . S
C144 C151 1.399 . S
C144 N182 1.343 . S
C145 C146 1.384 . S
C145 C147 1.384 . S
C145 H170 0.931 . S
C146 C145 1.384 . S
C146 C149 1.382 . S
C147 C145 1.384 . S
C147 C148 1.381 . S
C147 H171 0.930 . S
C148 C147 1.381 . S
C148 C150 1.381 . S
C148 C151 1.487 . S
C149 C146 1.382 . S
C149 C150 1.387 . S
C149 H172 0.930 . S
C150 C148 1.381 . S
C150 C149 1.387 . S
C150 H173 0.931 . S
C151 C144 1.399 . S
C151 C148 1.487 . S
C151 N183 1.343 1_655 S
C152 C153 1.384 . S
C152 C154 1.384 . S
C152 H174 0.931 . S
C153 C152 1.384 . S
C153 C156 1.382 . S
C154 C152 1.384 . S
C154 C155 1.381 . S
C154 H175 0.930 . S
C155 C154 1.381 . S
C155 C157 1.381 . S
C155 C158 1.487 . S
C156 C153 1.382 . S
C156 C157 1.387 . S
C156 H176 0.930 . S
C157 C155 1.381 . S
C157 C156 1.387 . S
C157 H177 0.931 . S
C158 C155 1.487 . S
C158 C165 1.399 . S
C158 N183 1.343 . S
C159 C160 1.384 . S
C159 C161 1.384 . S
C159 H178 0.931 . S
C160 C159 1.384 . S
C160 C163 1.382 . S
C161 C159 1.384 . S
C161 C162 1.381 . S
C161 H179 0.930 . S
C162 C161 1.381 . S
C162 C164 1.381 . S
C162 C165 1.487 . S
C163 C160 1.382 . S
C163 C164 1.387 . S
C163 H180 0.930 . S
C164 C162 1.381 . S
C164 C163 1.387 . S
C164 H181 0.931 . S
C165 C158 1.399 . S
C165 C162 1.487 . S
C165 N182 1.343 1_455 S
H166 C138 0.931 . S
H167 C140 0.930 . S
H168 C142 0.930 . S
H169 C143 0.931 . S
H170 C145 0.931 . S
H171 C147 0.930 . S
H172 C149 0.930 . S
H173 C150 0.931 . S
H174 C152 0.931 . S
H175 C154 0.930 . S
H176 C156 0.930 . S
H177 C157 0.931 . S
H178 C159 0.931 . S
H179 C161 0.930 . S
H180 C163 0.930 . S
H181 C164 0.931 . S
N182 C144 1.343 . S
N182 C165 1.343 1_655 S
N183 C151 1.343 1_455 S
N183 C158 1.343 . S
C184 C185 1.384 . S
C184 C186 1.384 . S
C184 H212 0.931 . S
C185 C184 1.384 . S
C185 C188 1.382 . S
C186 C184 1.384 . S
C186 C187 1.381 . S
C186 H213 0.916 1_556 S
C187 C186 1.381 . S
C187 C189 1.381 . S
C187 C190 1.487 . S
C188 C185 1.382 . S
C188 C189 1.387 . S
C188 H214 0.930 . S
C189 C187 1.381 . S
C189 C188 1.387 . S
C189 H215 0.931 . S
C190 C187 1.487 . S
C190 C197 1.399 1_556 S
C190 N228 1.343 . S
C191 C192 1.384 . S
C191 C193 1.384 . S
C191 H216 0.931 . S
C192 C191 1.384 . S
C192 C195 1.382 . S
C193 C191 1.384 . S
C193 C194 1.381 . S
C193 H217 0.930 . S
C194 C193 1.381 . S
C194 C196 1.381 . S
C194 C197 1.487 . S
C195 C192 1.382 . S
C195 C196 1.387 . S
C195 H218 0.930 . S
C196 C194 1.381 . S
C196 C195 1.387 . S
C196 H219 0.931 . S
C197 C190 1.399 1_554 S
C197 C194 1.487 . S
C197 N229 1.343 1_565 S
C198 C199 1.384 . S
C198 C200 1.384 1_554 S
C198 H220 0.922 1_554 S
C199 C198 1.384 . S
C199 C202 1.382 . S
C200 C198 1.384 1_556 S
C200 C201 1.381 1_556 S
C200 H221 0.930 . S
C201 C200 1.381 1_554 S
C201 C203 1.381 . S
C201 C204 1.487 1_554 S
C202 C199 1.382 . S
C202 C203 1.387 . S
C202 H222 0.930 . S
C203 C201 1.381 . S
C203 C202 1.387 . S
C203 H223 0.931 . S
C204 C201 1.487 1_556 S
C204 C211 1.399 . S
C204 N229 1.343 1_556 S
C205 C206 1.384 . S
C205 C207 1.384 . S
C205 H224 0.931 . S
C206 C205 1.384 . S
C206 C209 1.382 . S
C207 C205 1.384 . S
C207 C208 1.381 . S
C207 H225 0.930 . S
C208 C207 1.381 . S
C208 C210 1.381 . S
C208 C211 1.487 . S
C209 C206 1.382 . S
C209 C210 1.387 . S
C209 H226 0.930 . S
C210 C208 1.381 . S
C210 C209 1.387 . S
C210 H227 0.931 . S
C211 C204 1.399 . S
C211 C208 1.487 . S
C211 N228 1.343 1_545 S
H212 C184 0.931 . S
H213 C186 0.916 1_554 S
H214 C188 0.930 . S
H215 C189 0.931 . S
H216 C191 0.931 . S
H217 C193 0.930 . S
H218 C195 0.930 . S
H219 C196 0.931 . S
H220 C198 0.922 1_556 S
H221 C200 0.930 . S
H222 C202 0.930 . S
H223 C203 0.931 . S
H224 C205 0.931 . S
H225 C207 0.930 . S
H226 C209 0.930 . S
H227 C210 0.931 . S
N228 C190 1.343 . S
N228 C211 1.343 1_565 S
N229 C197 1.343 1_545 S
N229 C204 1.343 1_554 S
C230 C231 1.384 . S
C230 C232 1.384 . S
C230 H258 0.931 . S
C231 C230 1.384 . S
C231 C234 1.382 . S
C232 C230 1.384 . S
C232 C233 1.381 . S
C232 H259 0.930 . S
C233 C232 1.381 . S
C233 C235 1.381 . S
C233 C236 1.487 . S
C234 C231 1.382 . S
C234 C235 1.387 . S
C234 H260 0.930 . S
C235 C233 1.381 . S
C235 C234 1.387 . S
C235 H261 0.931 . S
C236 C233 1.487 . S
C236 C243 1.399 . S
C236 N274 1.343 . S
C237 C238 1.384 . S
C237 C239 1.384 . S
C237 H262 0.931 . S
C238 C237 1.384 . S
C238 C241 1.382 . S
C239 C237 1.384 . S
C239 C240 1.381 . S
C239 H263 0.930 . S
C240 C239 1.381 . S
C240 C242 1.381 . S
C240 C243 1.487 . S
C241 C238 1.382 . S
C241 C242 1.387 . S
C241 H264 0.930 . S
C242 C240 1.381 . S
C242 C241 1.387 . S
C242 H265 0.931 . S
C243 C236 1.399 . S
C243 C240 1.487 . S
C243 N275 1.343 . S
C244 C245 1.384 . S
C244 C246 1.384 . S
C244 H266 0.931 . S
C245 C244 1.384 . S
C245 C248 1.382 . S
C246 C244 1.384 . S
C246 C247 1.381 . S
C246 H267 0.930 . S
C247 C246 1.381 . S
C247 C249 1.381 . S
C247 C250 1.487 . S
C248 C245 1.382 . S
C248 C249 1.387 . S
C248 H268 0.930 . S
C249 C247 1.381 . S
C249 C248 1.387 . S
C249 H269 0.931 . S
C250 C247 1.487 . S
C250 C257 1.399 . S
C250 N275 1.343 . S
C251 C252 1.384 . S
C251 C253 1.384 . S
C251 H270 0.931 . S
C252 C251 1.384 . S
C252 C255 1.382 . S
C253 C251 1.384 . S
C253 C254 1.381 . S
C253 H271 0.930 . S
C254 C253 1.381 . S
C254 C256 1.381 . S
C254 C257 1.487 . S
C255 C252 1.382 . S
C255 C256 1.387 . S
C255 H272 0.930 . S
C256 C254 1.381 . S
C256 C255 1.387 . S
C256 H273 0.931 . S
C257 C250 1.399 . S
C257 C254 1.487 . S
C257 N274 1.343 . S
H258 C230 0.931 . S
H259 C232 0.930 . S
H260 C234 0.930 . S
H261 C235 0.931 . S
H262 C237 0.931 . S
H263 C239 0.930 . S
H264 C241 0.930 . S
H265 C242 0.931 . S
H266 C244 0.931 . S
H267 C246 0.930 . S
H268 C248 0.930 . S
H269 C249 0.931 . S
H270 C251 0.931 . S
H271 C253 0.930 . S
H272 C255 0.930 . S
H273 C256 0.931 . S
N274 C236 1.343 . S
N274 C257 1.343 . S
N275 C243 1.343 . S
N275 C250 1.343 . S
Zn276 O279 2.031 . S
Zn276 O281 2.049 . S
Zn276 O286 2.067 . S
Zn277 O278 1.962 . S
Zn277 O280 1.986 . S
Zn277 O282 1.996 . S
Zn277 O285 1.943 . S
O278 Zn277 1.962 . S
O278 C283 1.254 . S
O279 Zn276 2.031 . S
O279 C283 1.269 . S
O280 Zn277 1.986 . S
O280 C287 1.262 . S
O281 Zn276 2.049 . S
O281 C289 1.260 . S
O282 Zn277 1.996 . S
O282 C289 1.257 . S
C283 O278 1.254 . S
C283 O279 1.269 . S
C284 O285 1.249 . S
C284 O286 1.270 . S
O285 Zn277 1.943 . S
O285 C284 1.249 . S
O286 Zn276 2.067 . S
O286 C284 1.270 . S
C287 O280 1.262 . S
C287 O288 1.232 . S
O288 C287 1.232 . S
C289 O281 1.260 . S
C289 O282 1.257 . S
Zn290 O293 2.031 . S
Zn290 O295 2.049 . S
Zn290 O300 2.067 . S
Zn291 O292 1.962 . S
Zn291 O294 1.986 . S
Zn291 O296 1.996 . S
Zn291 O299 1.943 . S
O292 Zn291 1.962 . S
O292 C297 1.254 . S
O293 Zn290 2.031 . S
O293 C297 1.269 . S
O294 Zn291 1.986 . S
O294 C301 1.262 . S
O295 Zn290 2.049 . S
O295 C303 1.260 . S
O296 Zn291 1.996 . S
O296 C303 1.257 . S
C297 O292 1.254 . S
C297 O293 1.269 . S
C298 O299 1.249 . S
C298 O300 1.270 . S
O299 Zn291 1.943 . S
O299 C298 1.249 . S
O300 Zn290 2.067 . S
O300 C298 1.270 . S
C301 O294 1.262 . S
C301 O302 1.232 . S
O302 C301 1.232 . S
C303 O295 1.260 . S
C303 O296 1.257 . S
Zn304 O307 2.031 . S
Zn304 O309 2.049 . S
Zn304 O314 2.067 . S
Zn305 O306 1.962 . S
Zn305 O308 1.986 . S
Zn305 O310 1.996 . S
Zn305 O313 1.943 . S
O306 Zn305 1.962 . S
O306 C311 1.254 . S
O307 Zn304 2.031 . S
O307 C311 1.269 . S
O308 Zn305 1.986 . S
O308 C315 1.262 . S
O309 Zn304 2.049 . S
O309 C317 1.260 . S
O310 Zn305 1.996 . S
O310 C317 1.257 . S
C311 O306 1.254 . S
C311 O307 1.269 . S
C312 O313 1.249 . S
C312 O314 1.270 . S
O313 Zn305 1.943 . S
O313 C312 1.249 . S
O314 Zn304 2.067 . S
O314 C312 1.270 . S
C315 O308 1.262 . S
C315 O316 1.232 . S
O316 C315 1.232 . S
C317 O309 1.260 . S
C317 O310 1.257 . S
Zn318 O321 2.031 . S
Zn318 O323 2.049 . S
Zn318 O328 2.067 . S
Zn319 O320 1.962 . S
Zn319 O322 1.986 . S
Zn319 O324 1.996 . S
Zn319 O327 1.943 . S
O320 Zn319 1.962 . S
O320 C325 1.254 . S
O321 Zn318 2.031 . S
O321 C325 1.269 . S
O322 Zn319 1.986 . S
O322 C329 1.262 . S
O323 Zn318 2.049 . S
O323 C331 1.260 . S
O324 Zn319 1.996 . S
O324 C331 1.257 . S
C325 O320 1.254 . S
C325 O321 1.269 . S
C326 O327 1.249 . S
C326 O328 1.270 . S
O327 Zn319 1.943 . S
O327 C326 1.249 . S
O328 Zn318 2.067 . S
O328 C326 1.270 . S
C329 O322 1.262 . S
C329 O330 1.232 . S
O330 C329 1.232 . S
C331 O323 1.260 . S
C331 O324 1.257 . S
Zn332 O335 2.031 . S
Zn332 O337 2.049 . S
Zn332 O342 2.067 . S
Zn333 O334 1.962 . S
Zn333 O336 1.986 . S
Zn333 O338 1.996 . S
Zn333 O341 1.943 . S
O334 Zn333 1.962 . S
O334 C339 1.254 . S
O335 Zn332 2.031 . S
O335 C339 1.269 . S
O336 Zn333 1.986 . S
O336 C343 1.262 . S
O337 Zn332 2.049 . S
O337 C345 1.260 . S
O338 Zn333 1.996 . S
O338 C345 1.257 . S
C339 O334 1.254 . S
C339 O335 1.269 . S
C340 O341 1.249 . S
C340 O342 1.270 . S
O341 Zn333 1.943 . S
O341 C340 1.249 . S
O342 Zn332 2.067 . S
O342 C340 1.270 . S
C343 O336 1.262 . S
C343 O344 1.232 . S
O344 C343 1.232 . S
C345 O337 1.260 . S
C345 O338 1.257 . S
Zn346 O349 2.031 . S
Zn346 O351 2.049 . S
Zn346 O356 2.067 . S
Zn347 O348 1.962 . S
Zn347 O350 1.986 . S
Zn347 O352 1.996 . S
Zn347 O355 1.943 . S
O348 Zn347 1.962 . S
O348 C353 1.254 . S
O349 Zn346 2.031 . S
O349 C353 1.269 . S
O350 Zn347 1.986 . S
O350 C357 1.262 . S
O351 Zn346 2.049 . S
O351 C359 1.260 . S
O352 Zn347 1.996 . S
O352 C359 1.257 . S
C353 O348 1.254 . S
C353 O349 1.269 . S
C354 O355 1.249 . S
C354 O356 1.270 . S
O355 Zn347 1.943 . S
O355 C354 1.249 . S
O356 Zn346 2.067 . S
O356 C354 1.270 . S
C357 O350 1.262 . S
C357 O358 1.232 . S
O358 C357 1.232 . S
C359 O351 1.260 . S
C359 O352 1.257 . S
H360 C366 0.930 . S
H361 C369 0.930 . S
H362 C370 0.930 . S
H363 C371 0.930 . S
H364 C374 0.930 . S
H365 C375 0.930 . S
C366 H360 0.930 . S
C366 C367 1.355 . S
C366 C368 1.415 . S
C367 C366 1.355 . S
C367 C369 1.419 . S
C368 C366 1.415 . S
C368 C373 1.425 . S
C368 C375 1.409 . S
C369 H361 0.930 . S
C369 C367 1.419 . S
C369 C370 1.362 . S
C370 H362 0.930 . S
C370 C369 1.362 . S
C370 C373 1.409 . S
C371 H363 0.930 . S
C371 C372 1.355 . S
C371 C373 1.415 . S
C372 C371 1.355 . S
C372 C374 1.419 . S
C373 C368 1.425 . S
C373 C370 1.409 . S
C373 C371 1.415 . S
C374 H364 0.930 . S
C374 C372 1.419 . S
C374 C375 1.362 . S
C375 H365 0.930 . S
C375 C368 1.409 . S
C375 C374 1.362 . S
H376 C382 0.930 . S
H377 C385 0.930 . S
H378 C386 0.930 . S
H379 C387 0.930 . S
H380 C390 0.930 . S
H381 C391 0.930 . S
C382 H376 0.930 . S
C382 C383 1.355 . S
C382 C384 1.415 . S
C383 C382 1.355 . S
C383 C385 1.419 . S
C384 C382 1.415 . S
C384 C389 1.425 . S
C384 C391 1.409 . S
C385 H377 0.930 . S
C385 C383 1.419 . S
C385 C386 1.362 . S
C386 H378 0.930 . S
C386 C385 1.362 . S
C386 C389 1.409 . S
C387 H379 0.930 . S
C387 C388 1.355 . S
C387 C389 1.415 . S
C388 C387 1.355 . S
C388 C390 1.419 . S
C389 C384 1.425 . S
C389 C386 1.409 . S
C389 C387 1.415 . S
C390 H380 0.930 . S
C390 C388 1.419 . S
C390 C391 1.362 . S
C391 H381 0.930 . S
C391 C384 1.409 . S
C391 C390 1.362 . S
H392 C398 0.930 . S
H393 C401 0.930 . S
H394 C402 0.930 . S
H395 C403 0.930 . S
H396 C406 0.930 . S
H397 C407 0.930 . S
C398 H392 0.930 . S
C398 C399 1.355 . S
C398 C400 1.415 . S
C399 C398 1.355 . S
C399 C401 1.419 . S
C400 C398 1.415 . S
C400 C405 1.425 . S
C400 C407 1.409 . S
C401 H393 0.930 . S
C401 C399 1.419 . S
C401 C402 1.362 . S
C402 H394 0.930 . S
C402 C401 1.362 . S
C402 C405 1.409 . S
C403 H395 0.930 . S
C403 C404 1.355 . S
C403 C405 1.415 . S
C404 C403 1.355 . S
C404 C406 1.419 . S
C405 C400 1.425 . S
C405 C402 1.409 . S
C405 C403 1.415 . S
C406 H396 0.930 . S
C406 C404 1.419 . S
C406 C407 1.362 . S
C407 H397 0.930 . S
C407 C400 1.409 . S
C407 C406 1.362 . S
H408 C414 0.930 . S
H409 C417 0.930 . S
H410 C418 0.930 . S
H411 C419 0.930 . S
H412 C422 0.930 . S
H413 C423 0.930 . S
C414 H408 0.930 . S
C414 C415 1.355 . S
C414 C416 1.415 . S
C415 C414 1.355 . S
C415 C417 1.419 . S
C416 C414 1.415 . S
C416 C421 1.425 . S
C416 C423 1.409 . S
C417 H409 0.930 . S
C417 C415 1.419 . S
C417 C418 1.362 . S
C418 H410 0.930 . S
C418 C417 1.362 . S
C418 C421 1.409 . S
C419 H411 0.930 . S
C419 C420 1.355 . S
C419 C421 1.415 . S
C420 C419 1.355 . S
C420 C422 1.419 . S
C421 C416 1.425 . S
C421 C418 1.409 . S
C421 C419 1.415 . S
C422 H412 0.930 . S
C422 C420 1.419 . S
C422 C423 1.362 . S
C423 H413 0.930 . S
C423 C416 1.409 . S
C423 C422 1.362 . S
H424 C430 0.930 . S
H425 C433 0.930 . S
H426 C434 0.930 . S
H427 C435 0.930 . S
H428 C438 0.930 . S
H429 C439 0.930 . S
C430 H424 0.930 . S
C430 C431 1.355 . S
C430 C432 1.415 . S
C431 C430 1.355 . S
C431 C433 1.419 . S
C432 C430 1.415 . S
C432 C437 1.425 . S
C432 C439 1.409 . S
C433 H425 0.930 . S
C433 C431 1.419 . S
C433 C434 1.362 . S
C434 H426 0.930 . S
C434 C433 1.362 . S
C434 C437 1.409 . S
C435 H427 0.930 . S
C435 C436 1.355 . S
C435 C437 1.415 . S
C436 C435 1.355 . S
C436 C438 1.419 . S
C437 C432 1.425 . S
C437 C434 1.409 . S
C437 C435 1.415 . S
C438 H428 0.930 . S
C438 C436 1.419 . S
C438 C439 1.362 . S
C439 H429 0.930 . S
C439 C432 1.409 . S
C439 C438 1.362 . S
H440 C446 0.930 . S
H441 C449 0.930 . S
H442 C450 0.930 . S
H443 C451 0.930 . S
H444 C454 0.930 . S
H445 C455 0.930 . S
C446 H440 0.930 . S
C446 C447 1.355 . S
C446 C448 1.415 . S
C447 C446 1.355 . S
C447 C449 1.419 . S
C448 C446 1.415 . S
C448 C453 1.425 . S
C448 C455 1.409 . S
C449 H441 0.930 . S
C449 C447 1.419 . S
C449 C450 1.362 . S
C450 H442 0.930 . S
C450 C449 1.362 . S
C450 C453 1.409 . S
C451 H443 0.930 . S
C451 C452 1.355 . S
C451 C453 1.415 . S
C452 C451 1.355 . S
C452 C454 1.419 . S
C453 C448 1.425 . S
C453 C450 1.409 . S
C453 C451 1.415 . S
C454 H444 0.930 . S
C454 C452 1.419 . S
C454 C455 1.362 . S
C455 H445 0.930 . S
C455 C448 1.409 . S
C455 C454 1.362 . S
H456 C462 0.930 . S
H457 C465 0.930 . S
H458 C466 0.930 . S
H459 C467 0.930 . S
H460 C470 0.930 . S
H461 C471 0.930 . S
C462 H456 0.930 . S
C462 C463 1.355 . S
C462 C464 1.415 . S
C463 C462 1.355 . S
C463 C465 1.419 . S
C464 C462 1.415 . S
C464 C469 1.425 . S
C464 C471 1.409 . S
C465 H457 0.930 . S
C465 C463 1.419 . S
C465 C466 1.362 . S
C466 H458 0.930 . S
C466 C465 1.362 . S
C466 C469 1.409 . S
C467 H459 0.930 . S
C467 C468 1.355 . S
C467 C469 1.415 . S
C468 C467 1.355 . S
C468 C470 1.419 . S
C469 C464 1.425 . S
C469 C466 1.409 . S
C469 C467 1.415 . S
C470 H460 0.930 . S
C470 C468 1.419 . S
C470 C471 1.362 . S
C471 H461 0.930 . S
C471 C464 1.409 . S
C471 C470 1.362 . S
H472 C478 0.930 . S
H473 C481 0.930 . S
H474 C482 0.930 . S
H475 C483 0.930 . S
H476 C486 0.930 . S
H477 C487 0.930 . S
C478 H472 0.930 . S
C478 C479 1.355 . S
C478 C480 1.415 . S
C479 C478 1.355 . S
C479 C481 1.419 . S
C480 C478 1.415 . S
C480 C485 1.425 . S
C480 C487 1.409 . S
C481 H473 0.930 . S
C481 C479 1.419 . S
C481 C482 1.362 . S
C482 H474 0.930 . S
C482 C481 1.362 . S
C482 C485 1.409 . S
C483 H475 0.930 . S
C483 C484 1.355 . S
C483 C485 1.415 . S
C484 C483 1.355 . S
C484 C486 1.419 . S
C485 C480 1.425 . S
C485 C482 1.409 . S
C485 C483 1.415 . S
C486 H476 0.930 . S
C486 C484 1.419 . S
C486 C487 1.362 . S
C487 H477 0.930 . S
C487 C480 1.409 . S
C487 C486 1.362 . S
H488 C494 0.930 . S
H489 C497 0.930 . S
H490 C498 0.930 . S
H491 C499 0.930 . S
H492 C502 0.930 . S
H493 C503 0.930 . S
C494 H488 0.930 . S
C494 C495 1.355 . S
C494 C496 1.415 . S
C495 C494 1.355 . S
C495 C497 1.419 . S
C496 C494 1.415 . S
C496 C501 1.425 . S
C496 C503 1.409 . S
C497 H489 0.930 . S
C497 C495 1.419 . S
C497 C498 1.362 . S
C498 H490 0.930 . S
C498 C497 1.362 . S
C498 C501 1.409 . S
C499 H491 0.930 . S
C499 C500 1.355 . S
C499 C501 1.415 . S
C500 C499 1.355 . S
C500 C502 1.419 . S
C501 C496 1.425 . S
C501 C498 1.409 . S
C501 C499 1.415 . S
C502 H492 0.930 . S
C502 C500 1.419 . S
C502 C503 1.362 . S
C503 H493 0.930 . S
C503 C496 1.409 . S
C503 C502 1.362 . S
H504 C510 0.930 . S
H505 C513 0.930 . S
H506 C514 0.930 . S
H507 C515 0.930 . S
H508 C518 0.930 . S
H509 C519 0.930 . S
C510 H504 0.930 . S
C510 C511 1.355 . S
C510 C512 1.415 . S
C511 C510 1.355 . S
C511 C513 1.419 . S
C512 C510 1.415 . S
C512 C517 1.425 . S
C512 C519 1.409 . S
C513 H505 0.930 . S
C513 C511 1.419 . S
C513 C514 1.362 . S
C514 H506 0.930 . S
C514 C513 1.362 . S
C514 C517 1.409 . S
C515 H507 0.930 . S
C515 C516 1.355 . S
C515 C517 1.415 . S
C516 C515 1.355 . S
C516 C518 1.419 . S
C517 C512 1.425 . S
C517 C514 1.409 . S
C517 C515 1.415 . S
C518 H508 0.930 . S
C518 C516 1.419 . S
C518 C519 1.362 . S
C519 H509 0.930 . S
C519 C512 1.409 . S
C519 C518 1.362 . S
H520 C526 0.930 . S
H521 C529 0.930 . S
H522 C530 0.930 . S
H523 C531 0.930 . S
H524 C534 0.930 . S
H525 C535 0.930 . S
C526 H520 0.930 . S
C526 C527 1.355 . S
C526 C528 1.415 . S
C527 C526 1.355 . S
C527 C529 1.419 . S
C528 C526 1.415 . S
C528 C533 1.425 . S
C528 C535 1.409 . S
C529 H521 0.930 . S
C529 C527 1.419 . S
C529 C530 1.362 . S
C530 H522 0.930 . S
C530 C529 1.362 . S
C530 C533 1.409 . S
C531 H523 0.930 . S
C531 C532 1.355 . S
C531 C533 1.415 . S
C532 C531 1.355 . S
C532 C534 1.419 . S
C533 C528 1.425 . S
C533 C530 1.409 . S
C533 C531 1.415 . S
C534 H524 0.930 . S
C534 C532 1.419 . S
C534 C535 1.362 . S
C535 H525 0.930 . S
C535 C528 1.409 . S
C535 C534 1.362 . S
H536 C542 0.930 . S
H537 C545 0.930 . S
H538 C546 0.930 . S
H539 C547 0.930 . S
H540 C550 0.930 . S
H541 C551 0.930 . S
C542 H536 0.930 . S
C542 C543 1.355 . S
C542 C544 1.415 . S
C543 C542 1.355 . S
C543 C545 1.419 . S
C544 C542 1.415 . S
C544 C549 1.425 . S
C544 C551 1.409 . S
C545 H537 0.930 . S
C545 C543 1.419 . S
C545 C546 1.362 . S
C546 H538 0.930 . S
C546 C545 1.362 . S
C546 C549 1.409 . S
C547 H539 0.930 . S
C547 C548 1.355 . S
C547 C549 1.415 . S
C548 C547 1.355 . S
C548 C550 1.419 . S
C549 C544 1.425 . S
C549 C546 1.409 . S
C549 C547 1.415 . S
C550 H540 0.930 . S
C550 C548 1.419 . S
C550 C551 1.362 . S
C551 H541 0.930 . S
C551 C544 1.409 . S
C551 C550 1.362 . S
H552 C558 0.930 . S
H553 C561 0.930 . S
H554 C562 0.930 . S
H555 C563 0.930 . S
H556 C566 0.930 . S
H557 C567 0.930 . S
C558 H552 0.930 . S
C558 C559 1.355 . S
C558 C560 1.415 . S
C559 C558 1.355 . S
C559 C561 1.419 . S
C560 C558 1.415 . S
C560 C565 1.425 . S
C560 C567 1.409 . S
C561 H553 0.930 . S
C561 C559 1.419 . S
C561 C562 1.362 . S
C562 H554 0.930 . S
C562 C561 1.362 . S
C562 C565 1.409 . S
C563 H555 0.930 . S
C563 C564 1.355 . S
C563 C565 1.415 . S
C564 C563 1.355 . S
C564 C566 1.419 . S
C565 C560 1.425 . S
C565 C562 1.409 . S
C565 C563 1.415 . S
C566 H556 0.930 . S
C566 C564 1.419 . S
C566 C567 1.362 . S
C567 H557 0.930 . S
C567 C560 1.409 . S
C567 C566 1.362 . S
H568 C574 0.930 . S
H569 C577 0.930 . S
H570 C578 0.930 . S
H571 C579 0.930 . S
H572 C582 0.930 . S
H573 C583 0.930 . S
C574 H568 0.930 . S
C574 C575 1.355 . S
C574 C576 1.415 . S
C575 C574 1.355 . S
C575 C577 1.419 . S
C576 C574 1.415 . S
C576 C581 1.425 . S
C576 C583 1.409 . S
C577 H569 0.930 . S
C577 C575 1.419 . S
C577 C578 1.362 . S
C578 H570 0.930 . S
C578 C577 1.362 . S
C578 C581 1.409 . S
C579 H571 0.930 . S
C579 C580 1.355 . S
C579 C581 1.415 . S
C580 C579 1.355 . S
C580 C582 1.419 . S
C581 C576 1.425 . S
C581 C578 1.409 . S
C581 C579 1.415 . S
C582 H572 0.930 . S
C582 C580 1.419 . S
C582 C583 1.362 . S
C583 H573 0.930 . S
C583 C576 1.409 . S
C583 C582 1.362 . S
H584 C590 0.930 . S
H585 C593 0.930 . S
H586 C594 0.930 . S
H587 C595 0.930 . S
H588 C598 0.930 . S
H589 C599 0.930 . S
C590 H584 0.930 . S
C590 C591 1.355 . S
C590 C592 1.415 . S
C591 C590 1.355 . S
C591 C593 1.419 . S
C592 C590 1.415 . S
C592 C597 1.425 . S
C592 C599 1.409 . S
C593 H585 0.930 . S
C593 C591 1.419 . S
C593 C594 1.362 . S
C594 H586 0.930 . S
C594 C593 1.362 . S
C594 C597 1.409 . S
C595 H587 0.930 . S
C595 C596 1.355 . S
C595 C597 1.415 . S
C596 C595 1.355 . S
C596 C598 1.419 . S
C597 C592 1.425 . S
C597 C594 1.409 . S
C597 C595 1.415 . S
C598 H588 0.930 . S
C598 C596 1.419 . S
C598 C599 1.362 . S
C599 H589 0.930 . S
C599 C592 1.409 . S
C599 C598 1.362 . S
H600 C606 0.930 . S
H601 C609 0.930 . S
H602 C610 0.930 . S
H603 C611 0.930 . S
H604 C614 0.933 . S
H605 C615 0.930 . S
C606 H600 0.930 . S
C606 C607 1.355 . S
C606 C608 1.415 . S
C607 C606 1.355 . S
C607 C609 1.419 . S
C608 C606 1.415 . S
C608 C613 1.425 . S
C608 C615 1.409 . S
C609 H601 0.930 . S
C609 C607 1.419 . S
C609 C610 1.362 . S
C610 H602 0.930 . S
C610 C609 1.362 . S
C610 C613 1.409 . S
C611 H603 0.930 . S
C611 C612 1.355 . S
C611 C613 1.415 1_554 S
C612 C611 1.355 . S
C612 C614 1.419 1_554 S
C613 C608 1.425 . S
C613 C610 1.409 . S
C613 C611 1.415 1_556 S
C614 H604 0.933 . S
C614 C612 1.419 1_556 S
C614 C615 1.362 . S
C615 H605 0.930 . S
C615 C608 1.409 . S
C615 C614 1.362 . S
H616 C622 0.930 . S
H617 C625 0.930 . S
H618 C626 0.930 . S
H619 C627 0.930 . S
H620 C630 0.930 . S
H621 C631 0.930 . S
C622 H616 0.930 . S
C622 C623 1.355 . S
C622 C624 1.415 . S
C623 C622 1.355 . S
C623 C625 1.419 . S
C624 C622 1.415 . S
C624 C629 1.425 . S
C624 C631 1.409 . S
C625 H617 0.930 . S
C625 C623 1.419 . S
C625 C626 1.362 . S
C626 H618 0.930 . S
C626 C625 1.362 . S
C626 C629 1.409 . S
C627 H619 0.930 . S
C627 C628 1.355 . S
C627 C629 1.415 . S
C628 C627 1.355 . S
C628 C630 1.419 . S
C629 C624 1.425 . S
C629 C626 1.409 . S
C629 C627 1.415 . S
C630 H620 0.930 . S
C630 C628 1.419 . S
C630 C631 1.362 . S
C631 H621 0.930 . S
C631 C624 1.409 . S
C631 C630 1.362 . S
H632 C638 0.930 . S
H633 C641 0.930 . S
H634 C642 0.930 . S
H635 C643 0.930 . S
H636 C646 0.930 . S
H637 C647 0.930 . S
C638 H632 0.930 . S
C638 C639 1.355 . S
C638 C640 1.415 . S
C639 C638 1.355 . S
C639 C641 1.419 . S
C640 C638 1.415 . S
C640 C645 1.425 . S
C640 C647 1.409 . S
C641 H633 0.930 . S
C641 C639 1.419 . S
C641 C642 1.362 . S
C642 H634 0.930 . S
C642 C641 1.362 . S
C642 C645 1.409 . S
C643 H635 0.930 . S
C643 C644 1.355 . S
C643 C645 1.415 . S
C644 C643 1.355 . S
C644 C646 1.419 . S
C645 C640 1.425 . S
C645 C642 1.409 . S
C645 C643 1.415 . S
C646 H636 0.930 . S
C646 C644 1.419 . S
C646 C647 1.362 . S
C647 H637 0.930 . S
C647 C640 1.409 . S
C647 C646 1.362 . S
H648 C654 0.930 . S
H649 C657 0.930 . S
H650 C658 0.930 . S
H651 C659 0.930 . S
H652 C662 0.930 . S
H653 C663 0.930 . S
C654 H648 0.930 . S
C654 C655 1.355 . S
C654 C656 1.415 . S
C655 C654 1.355 . S
C655 C657 1.419 . S
C656 C654 1.415 . S
C656 C661 1.425 . S
C656 C663 1.409 . S
C657 H649 0.930 . S
C657 C655 1.419 . S
C657 C658 1.362 . S
C658 H650 0.930 . S
C658 C657 1.362 . S
C658 C661 1.409 . S
C659 H651 0.930 . S
C659 C660 1.355 . S
C659 C661 1.415 . S
C660 C659 1.355 . S
C660 C662 1.419 . S
C661 C656 1.425 . S
C661 C658 1.409 . S
C661 C659 1.415 . S
C662 H652 0.930 . S
C662 C660 1.419 . S
C662 C663 1.362 . S
C663 H653 0.930 . S
C663 C656 1.409 . S
C663 C662 1.362 . S
H664 C670 0.930 . S
H665 C673 0.930 . S
H666 C674 0.930 . S
H667 C675 0.930 . S
H668 C678 0.930 . S
H669 C679 0.930 . S
C670 H664 0.930 . S
C670 C671 1.355 . S
C670 C672 1.415 . S
C671 C670 1.355 . S
C671 C673 1.419 . S
C672 C670 1.415 . S
C672 C677 1.425 . S
C672 C679 1.409 . S
C673 H665 0.930 . S
C673 C671 1.419 . S
C673 C674 1.362 . S
C674 H666 0.930 . S
C674 C673 1.362 . S
C674 C677 1.409 . S
C675 H667 0.930 . S
C675 C676 1.355 . S
C675 C677 1.415 . S
C676 C675 1.355 . S
C676 C678 1.419 . S
C677 C672 1.425 . S
C677 C674 1.409 . S
C677 C675 1.415 . S
C678 H668 0.930 . S
C678 C676 1.419 . S
C678 C679 1.362 . S
C679 H669 0.930 . S
C679 C672 1.409 . S
C679 C678 1.362 . S
H680 C686 0.930 . S
H681 C689 0.930 . S
H682 C690 0.930 . S
H683 C691 0.930 . S
H684 C694 0.930 . S
H685 C695 0.930 . S
C686 H680 0.930 . S
C686 C687 1.355 . S
C686 C688 1.415 . S
C687 C686 1.355 . S
C687 C689 1.419 . S
C688 C686 1.415 . S
C688 C693 1.425 . S
C688 C695 1.409 . S
C689 H681 0.930 . S
C689 C687 1.419 . S
C689 C690 1.362 . S
C690 H682 0.930 . S
C690 C689 1.362 . S
C690 C693 1.409 . S
C691 H683 0.930 . S
C691 C692 1.355 . S
C691 C693 1.415 . S
C692 C691 1.355 . S
C692 C694 1.419 . S
C693 C688 1.425 . S
C693 C690 1.409 . S
C693 C691 1.415 . S
C694 H684 0.930 . S
C694 C692 1.419 . S
C694 C695 1.362 . S
C695 H685 0.930 . S
C695 C688 1.409 . S
C695 C694 1.362 . S
H696 C702 0.930 . S
H697 C705 0.930 . S
H698 C706 0.930 . S
H699 C707 0.930 . S
H700 C710 0.930 . S
H701 C711 0.930 . S
C702 H696 0.930 . S
C702 C703 1.355 . S
C702 C704 1.415 . S
C703 C702 1.355 . S
C703 C705 1.419 . S
C704 C702 1.415 . S
C704 C709 1.425 . S
C704 C711 1.409 . S
C705 H697 0.930 . S
C705 C703 1.419 . S
C705 C706 1.362 . S
C706 H698 0.930 . S
C706 C705 1.362 . S
C706 C709 1.409 . S
C707 H699 0.930 . S
C707 C708 1.355 . S
C707 C709 1.415 . S
C708 C707 1.355 . S
C708 C710 1.419 . S
C709 C704 1.425 . S
C709 C706 1.409 . S
C709 C707 1.415 . S
C710 H700 0.930 . S
C710 C708 1.419 . S
C710 C711 1.362 . S
C711 H701 0.930 . S
C711 C704 1.409 . S
C711 C710 1.362 . S
H712 C718 0.930 . S
H713 C721 0.930 . S
H714 C722 0.930 . S
H715 C723 0.930 . S
H716 C726 0.930 . S
H717 C727 0.930 . S
C718 H712 0.930 . S
C718 C719 1.355 . S
C718 C720 1.415 . S
C719 C718 1.355 . S
C719 C721 1.419 . S
C720 C718 1.415 . S
C720 C725 1.425 . S
C720 C727 1.409 . S
C721 H713 0.930 . S
C721 C719 1.419 . S
C721 C722 1.362 . S
C722 H714 0.930 . S
C722 C721 1.362 . S
C722 C725 1.409 . S
C723 H715 0.930 . S
C723 C724 1.355 . S
C723 C725 1.415 1_556 S
C724 C723 1.355 . S
C724 C726 1.419 . S
C725 C720 1.425 . S
C725 C722 1.409 . S
C725 C723 1.415 1_554 S
C726 H716 0.930 . S
C726 C724 1.419 . S
C726 C727 1.362 1_556 S
C727 H717 0.930 . S
C727 C720 1.409 . S
C727 C726 1.362 1_554 S
H728 C734 0.930 . S
H729 C737 0.930 . S
H730 C738 0.930 . S
H731 C739 0.930 . S
H732 C742 0.930 . S
H733 C743 0.930 . S
C734 H728 0.930 . S
C734 C735 1.355 . S
C734 C736 1.415 . S
C735 C734 1.355 . S
C735 C737 1.419 . S
C736 C734 1.415 . S
C736 C741 1.425 . S
C736 C743 1.409 . S
C737 H729 0.930 . S
C737 C735 1.419 . S
C737 C738 1.362 . S
C738 H730 0.930 . S
C738 C737 1.362 . S
C738 C741 1.409 . S
C739 H731 0.930 . S
C739 C740 1.355 . S
C739 C741 1.415 . S
C740 C739 1.355 . S
C740 C742 1.419 . S
C741 C736 1.425 . S
C741 C738 1.409 . S
C741 C739 1.415 . S
C742 H732 0.930 . S
C742 C740 1.419 . S
C742 C743 1.362 . S
C743 H733 0.930 . S
C743 C736 1.409 . S
C743 C742 1.362 . S
C372 C353 1.572 . S
C367 C15 1.563 . S
C383 C61 1.479 . S
C388 C287 1.487 . S
C399 C114 1.406 . S
C404 C301 1.391 . S
C415 C139 1.528 . S
C420 C315 1.512 . S
C436 C329 1.548 . S
C431 C185 1.576 . S
C447 C245 1.524 . S
C452 C339 1.555 . S
C463 C47 1.588 . S
C468 C297 1.595 . S
C479 C100 1.627 . S
C484 C311 1.662 . S
C495 C153 1.565 . S
C500 C325 1.611 . S
C516 C343 1.553 . S
C511 C199 1.551 . S
C532 C357 1.497 . S
C527 C231 1.515 . S
C548 C283 1.553 . S
C543 C1 1.554 . S
C559 C22 1.474 . S
C564 C298 1.403 . S
C575 C68 1.566 . S
C580 C312 1.528 . S
C596 C326 1.521 . S
C591 C107 1.559 . S
C607 C146 1.474 . S
C612 C345 1.400 . S
C628 C359 1.345 . S
C623 C192 1.434 . S
C644 C284 1.364 . S
C639 C252 1.441 . S
C660 C354 1.399 . S
C655 C54 1.461 . S
C671 C93 1.365 . S
C676 C289 1.293 . S
C692 C303 1.322 . S
C687 C160 1.387 . S
C703 C206 1.458 . S
C708 C317 1.369 . S
C719 C238 1.478 . S
C724 C331 1.394 . S
C735 C8 1.488 . S
C740 C340 1.417 . S
