# Generated by pormake.
# Topology sit, (3,6)-cn, num edge types: 1
# Building blocks:
#     Node 0, Type 0, BuildingBlock: CUQRIR_clean_linker_1, # of connection points: 3
#     Node 1, Type 0, BuildingBlock: CUQRIR_clean_linker_1, # of connection points: 3
#     Node 2, Type 0, BuildingBlock: CUQRIR_clean_linker_1, # of connection points: 3
#     Node 3, Type 0, BuildingBlock: CUQRIR_clean_linker_1, # of connection points: 3
#     Node 4, Type 1, BuildingBlock: MIDCAF_clean_sbu_0, # of connection points: 6
#     Node 5, Type 1, BuildingBlock: MIDCAF_clean_sbu_0, # of connection points: 6
#     Edge 6, Type (0, 1), BuildingBlock: EZIPEK_clean_linker_0, # of connection points: 2
#     Edge 7, Type (0, 1), BuildingBlock: EZIPEK_clean_linker_0, # of connection points: 2
#     Edge 8, Type (0, 1), BuildingBlock: EZIPEK_clean_linker_0, # of connection points: 2
#     Edge 9, Type (0, 1), BuildingBlock: EZIPEK_clean_linker_0, # of connection points: 2
#     Edge 10, Type (0, 1), BuildingBlock: EZIPEK_clean_linker_0, # of connection points: 2
#     Edge 11, Type (0, 1), BuildingBlock: EZIPEK_clean_linker_0, # of connection points: 2
#     Edge 12, Type (0, 1), BuildingBlock: EZIPEK_clean_linker_0, # of connection points: 2
#     Edge 13, Type (0, 1), BuildingBlock: EZIPEK_clean_linker_0, # of connection points: 2
#     Edge 14, Type (0, 1), BuildingBlock: EZIPEK_clean_linker_0, # of connection points: 2
#     Edge 15, Type (0, 1), BuildingBlock: EZIPEK_clean_linker_0, # of connection points: 2
#     Edge 16, Type (0, 1), BuildingBlock: EZIPEK_clean_linker_0, # of connection points: 2
#     Edge 17, Type (0, 1), BuildingBlock: EZIPEK_clean_linker_0, # of connection points: 2
# Relax obj value: 0.072
# Max RMSD: 0.181
# Mean RMSD: 0.117
data_MOF--net-sit--node1-MIDCAF_clean_sbu_0--node2-CUQRIR_clean_linker_1--edge1-EZIPEK_clean_linker_0
_symmetry_space_group_name_H-M    P1
_symmetry_Int_Tables_number       1
_symmetry_cell_setting            triclinic
loop_
_symmetry_equiv_pos_as_xyz
'x, y, z'
_cell_length_a     14.133845
_cell_length_b     21.467741
_cell_length_c     25.34315
_cell_angle_alpha  90.269686
_cell_angle_beta   89.512101
_cell_angle_gamma 84.116613
loop_
_atom_site_label
_atom_site_type_symbol
_atom_site_fract_x
_atom_site_fract_y
_atom_site_fract_z
_atom_type_partial_charge
C0 C 0.0138 0.27421 0.02191 0.0
N1 N 0.04234 0.31603 -0.0132 0.0
N2 N 0.08719 0.23139 0.03462 0.0
C3 C 0.91539 0.27698 0.04582 0.0
C4 C 0.16081 0.24777 0.00493 0.0
N5 N 0.13382 0.29926 0.97605 0.0
C6 C 0.26065 0.21602 0.00652 0.0
H7 H 0.91382 0.3042 0.08319 0.0
H8 H 0.89543 0.22982 0.05528 0.0
H9 H 0.86121 0.2999 0.01889 0.0
H10 H 0.26318 0.16976 0.02608 0.0
H11 H 0.30642 0.24621 0.02827 0.0
H12 H 0.29001 0.2099 0.96589 0.0
C13 C 0.95054 0.8 0.0023 0.0
N14 N -0.01992 0.74748 0.97456 0.0
N15 N 0.02186 0.81802 0.03238 0.0
C16 C 0.85006 0.83082 0.00292 0.0
C17 C 0.09665 0.77529 0.02091 0.0
N18 N 0.07097 0.73167 -0.01355 0.0
C19 C 0.1936 0.77473 0.04542 0.0
H20 H 0.82336 0.83626 0.96201 0.0
H21 H 0.84516 0.87735 0.02257 0.0
H22 H 0.80356 0.80036 0.02402 0.0
H23 H 0.19205 0.75289 0.08497 0.0
H24 H 0.21369 0.82276 0.05087 0.0
H25 H 0.24937 0.74823 0.02089 0.0
C26 C 0.48939 0.77815 0.5172 0.0
N27 N 0.52386 0.8208 0.48474 0.0
N28 N 0.56104 0.73935 0.53777 0.0
C29 C 0.38598 0.77549 0.53085 0.0
C30 C 0.64045 0.75873 0.51569 0.0
N31 N 0.61813 0.80788 0.48334 0.0
C32 C 0.74024 0.73361 0.52973 0.0
H33 H 0.36952 0.80047 0.56876 0.0
H34 H 0.37045 0.72635 0.5362 0.0
H35 H 0.33904 0.79725 0.49972 0.0
H36 H 0.74168 0.68723 0.54902 0.0
H37 H 0.76987 0.76694 0.55714 0.0
H38 H 0.7863 0.72952 0.49399 0.0
C39 C 0.44116 0.29807 0.51297 0.0
N40 N 0.46149 0.24768 0.48104 0.0
N41 N 0.52177 0.31749 0.53302 0.0
C42 C 0.34223 0.32429 0.52884 0.0
C43 C 0.59202 0.27755 0.5115 0.0
N44 N 0.55566 0.23415 0.48062 0.0
C45 C 0.69604 0.27966 0.52298 0.0
H46 H 0.29533 0.32852 0.49392 0.0
H47 H 0.3424 0.37078 0.54815 0.0
H48 H 0.31246 0.29154 0.55673 0.0
H49 H 0.71312 0.25598 0.56104 0.0
H50 H 0.71287 0.32873 0.52695 0.0
H51 H 0.74163 0.25633 0.49134 0.0
Zn52 Zn -0.00718 0.14207 0.32682 0.0
Zn53 Zn 0.09031 0.90904 0.32718 0.0
Zn54 Zn 0.04252 0.02586 0.33145 0.0
C55 C 0.06127 0.93906 0.22487 0.0
C56 C 0.92018 0.92174 0.38215 0.0
O57 O 0.15534 0.07286 0.37225 0.0
O58 O 0.09241 0.17161 0.37115 0.0
C59 C 0.03183 0.11117 0.22503 0.0
O60 O 0.04498 0.99302 0.24756 0.0
O61 O 0.08579 0.89104 0.25177 0.0
O62 O -0.01393 0.88036 0.36909 0.0
O63 O 0.92711 0.97992 0.3717 0.0
O64 O 0.00546 0.15949 0.25177 0.0
O65 O 0.04575 0.05739 0.24766 0.0
O66 O 0.90169 0.04552 0.37288 0.0
O67 O 0.86603 0.14634 0.35646 0.0
C68 C 0.84432 0.09618 0.37659 0.0
O69 O 0.18059 1.00697 0.37421 0.0
O70 O 0.21369 0.90522 0.35988 0.0
C71 C 0.15945 0.13121 0.38361 0.0
C72 C 0.23586 0.9557 0.37939 0.0
Zn73 Zn 0.51524 0.63626 0.83711 0.0
Zn74 Zn 0.59857 0.40951 0.82979 0.0
Zn75 Zn 0.55727 0.52333 0.83132 0.0
C76 C 0.59302 0.43953 0.72618 0.0
C77 C 0.41964 0.42273 0.87217 0.0
O78 O 0.67825 0.56463 0.86949 0.0
O79 O 0.63665 0.66555 0.85716 0.0
C80 C 0.51307 0.61313 0.73206 0.0
O81 O 0.55834 0.49159 0.74751 0.0
O82 O 0.63177 0.39649 0.75478 0.0
O83 O 0.47814 0.37982 0.85363 0.0
O84 O 0.43817 0.48027 0.87014 0.0
O85 O 0.47576 0.65385 0.76401 0.0
O86 O 0.55068 0.56008 0.74946 0.0
O87 O 0.42008 0.54463 0.87625 0.0
O88 O 0.4163 0.64628 0.89091 0.0
C89 C 0.38072 0.59554 0.89767 0.0
O90 O 0.69615 0.4998 0.87307 0.0
O91 O 0.7028 0.3968 0.87884 0.0
C92 C 0.69645 0.62221 0.87273 0.0
C93 C 0.7374 0.44706 0.88934 0.0
C94 C 0.14525 0.19843 0.12321 0.0
C95 C 0.09002 0.18821 0.07817 0.0
C96 C 0.01085 0.10932 0.12632 0.0
C97 C 0.06596 0.12076 0.17091 0.0
N98 N 0.21212 0.15331 0.2035 0.0
N99 N -0.00523 0.12009 0.03129 0.0
C100 C 0.14307 0.15709 0.16607 0.0
C101 C 0.03155 0.1383 0.07775 0.0
N102 N 0.19296 0.25031 0.12733 0.0
N103 N 0.93642 0.07397 0.13104 0.0
H104 H 0.00939 0.14151 -0.00437 0.0
H105 H 0.95714 0.08102 0.02783 0.0
H106 H 0.92107 0.05207 0.16632 0.0
H107 H 0.88812 0.06894 0.10087 0.0
H108 H 0.2271 0.26202 0.16175 0.0
H109 H 0.18982 0.28504 0.0988 0.0
H110 H 0.27344 0.17624 0.20012 0.0
H111 H 0.21227 0.12132 0.23443 0.0
C112 C 0.95735 0.85032 0.12073 0.0
C113 C 0.01493 0.86128 0.07634 0.0
C114 C 0.0893 0.94076 0.12639 0.0
C115 C 0.03151 0.92881 0.17022 0.0
N116 N 0.88425 0.8947 0.20076 0.0
N117 N 0.11125 0.93068 0.03139 0.0
C118 C 0.9557 0.8917 0.16407 0.0
C119 C 0.07223 0.91179 0.07722 0.0
N120 N 0.91105 0.79773 0.1239 0.0
N121 N 0.16289 0.97651 0.13239 0.0
H122 H 0.09926 0.90929 -0.0047 0.0
H123 H 0.14812 0.9702 0.0289 0.0
H124 H 0.17588 0.9982 0.16817 0.0
H125 H 0.21292 0.98196 0.10279 0.0
H126 H 0.87523 0.78562 0.15787 0.0
H127 H 0.91707 0.76287 0.09515 0.0
H128 H 0.82382 0.87112 0.19642 0.0
H129 H 0.88124 0.92675 0.23202 0.0
C130 C 0.58868 0.72625 0.63295 0.0
C131 C 0.55581 0.70279 0.58506 0.0
C132 C 0.49897 0.61407 0.63232 0.0
C133 C 0.53803 0.63601 0.67935 0.0
N134 N 0.64702 0.70096 0.71998 0.0
N135 N 0.49694 0.61879 0.53641 0.0
C136 C 0.59204 0.68809 0.67803 0.0
C137 C 0.51665 0.64455 0.58384 0.0
N138 N 0.61164 0.78639 0.63625 0.0
N139 N 0.44239 0.56631 0.63432 0.0
H140 H 0.50927 0.64091 0.50076 0.0
H141 H 0.47534 0.57408 0.53243 0.0
H142 H 0.42929 0.54319 0.66935 0.0
H143 H 0.40482 0.552 0.60203 0.0
H144 H 0.62734 0.80751 0.67179 0.0
H145 H 0.60488 0.81732 0.60469 0.0
H146 H 0.69424 0.7352 0.71904 0.0
H147 H 0.65307 0.67271 0.75335 0.0
C148 C 0.5716 0.41176 0.57793 0.0
C149 C 0.52977 0.35447 0.5801 0.0
C150 C 0.50245 0.36915 0.67432 0.0
C151 C 0.55983 0.41953 0.67418 0.0
N152 N 0.65328 0.48829 0.62634 0.0
N153 N 0.47387 0.27209 0.63272 0.0
C154 C 0.59506 0.44139 0.62597 0.0
C155 C 0.49951 0.33154 0.6289 0.0
N156 N 0.58873 0.43722 0.53004 0.0
N157 N 0.45113 0.35699 0.71827 0.0
H158 H 0.47625 0.24122 0.60088 0.0
H159 H 0.46034 0.25116 0.66866 0.0
H160 H 0.45077 0.38467 0.75212 0.0
H161 H 0.40161 0.32419 0.71889 0.0
H162 H 0.6125 0.48123 0.52552 0.0
H163 H 0.57219 0.41563 0.49477 0.0
H164 H 0.68828 0.50253 0.59286 0.0
H165 H 0.66977 0.51099 0.66106 0.0
C166 C 0.24252 0.38266 0.97721 0.0
C167 C 0.19756 0.33692 0.94895 0.0
C168 C 0.27578 0.36622 0.86839 0.0
C169 C 0.33245 0.40424 0.89769 0.0
N170 N 0.38369 0.43698 -0.0169 0.0
N171 N 0.20103 0.27061 0.87189 0.0
C172 C 0.31888 0.41036 0.95301 0.0
C173 C 0.22186 0.3246 0.89552 0.0
N174 N 0.21539 0.39744 0.02781 0.0
N175 N 0.27415 0.3695 0.81472 0.0
H176 H 0.1721 0.23537 0.89291 0.0
H177 H 0.22375 0.25789 0.83372 0.0
H178 H 0.30808 0.40317 0.79443 0.0
H179 H 0.22968 0.34461 0.79187 0.0
H180 H 0.23924 0.43487 0.04843 0.0
H181 H 0.16437 0.37462 0.04762 0.0
H182 H 0.38248 0.43647 0.02421 0.0
H183 H 0.44352 0.4547 0.96707 0.0
C184 C 0.87356 0.66287 0.97582 0.0
C185 C 0.91848 0.70854 0.9474 0.0
C186 C 0.83989 0.67894 0.8673 0.0
C187 C 0.78401 0.64059 0.89706 0.0
N188 N 0.7318 0.60942 -0.01704 0.0
N189 N 0.91617 0.77413 0.87044 0.0
C190 C 0.79735 0.63505 0.95224 0.0
C191 C 0.8945 0.72045 0.89411 0.0
N192 N 0.90005 0.64861 0.02622 0.0
N193 N 0.83891 0.67678 0.81352 0.0
H194 H 0.94652 0.80908 0.89108 0.0
H195 H 0.89331 0.78698 0.83266 0.0
H196 H 0.80185 0.64478 0.79309 0.0
H197 H 0.88314 0.70147 0.79013 0.0
H198 H 0.87638 0.61116 0.04682 0.0
H199 H 0.95022 0.67196 0.04588 0.0
H200 H 0.73287 0.61042 0.02406 0.0
H201 H 0.67131 0.59237 0.96752 0.0
C202 C 0.92695 0.4117 -0.00905 0.0
C203 C -0.01823 0.36484 0.96089 0.0
C204 C 0.90401 0.40697 0.88158 0.0
C205 C 0.83294 0.44068 0.9127 0.0
N206 N 0.77055 0.46839 -0.00068 0.0
N207 N -0.00545 0.30647 0.87946 0.0
C208 C 0.84371 0.44296 0.96815 0.0
C209 C 0.96531 0.36022 0.90616 0.0
N210 N 0.95039 0.42306 0.04184 0.0
N211 N 0.9048 0.41411 0.82817 0.0
H212 H 0.02054 0.26603 0.89933 0.0
H213 H -0.02134 0.29949 0.83989 0.0
H214 H 0.85739 0.4473 0.80947 0.0
H215 H 0.95801 0.39138 0.80412 0.0
H216 H 0.91636 0.4599 0.06406 0.0
H217 H 0.00821 0.39826 0.06008 0.0
H218 H 0.77129 0.46565 0.04037 0.0
H219 H 0.70615 0.48749 -0.01639 0.0
C220 C 0.15109 0.67943 0.90857 0.0
C221 C 0.13282 0.68054 0.96351 0.0
C222 C 0.27021 0.60312 0.9753 0.0
C223 C 0.28382 0.60061 0.91993 0.0
N224 N 0.21555 0.61801 0.83411 0.0
N225 N 0.16059 0.63007 0.04771 0.0
C226 C 0.2137 0.63049 0.88691 0.0
C227 C 0.18614 0.63657 -0.00375 0.0
N228 N 0.12235 0.7301 0.87855 0.0
N229 N 0.34147 0.57976 0.0078 0.0
H230 H 0.10267 0.65687 0.06477 0.0
H231 H 0.19329 0.59524 0.0719 0.0
H232 H 0.40594 0.5583 -0.00686 0.0
H233 H 0.3391 0.58611 0.0486 0.0
H234 H 0.13934 0.73294 0.83856 0.0
H235 H 0.0959 0.77246 0.89585 0.0
H236 H 0.16322 0.6379 0.80873 0.0
H237 H 0.26424 0.58332 0.81754 0.0
C238 C 0.72126 0.89449 0.47949 0.0
C239 C 0.68591 0.8419 0.45553 0.0
C240 C 0.78978 0.8522 0.3795 0.0
C241 C 0.83316 0.90016 0.40586 0.0
N242 N 0.85798 0.95281 0.48789 0.0
N243 N 0.71209 0.75846 0.39138 0.0
C244 C 0.80309 0.91839 0.45761 0.0
C245 C 0.72723 0.81721 0.40788 0.0
N246 N 0.67965 0.91964 0.52445 0.0
N247 N 0.80856 0.83965 0.32739 0.0
H248 H 0.67004 0.72995 0.41254 0.0
H249 H 0.74853 0.73606 0.35952 0.0
H250 H 0.8537 0.8647 0.30505 0.0
H251 H 0.77199 0.8087 0.30551 0.0
H252 H 0.69644 0.96178 0.54073 0.0
H253 H 0.62414 0.90012 0.5432 0.0
H254 H 0.84436 0.96213 0.52778 0.0
H255 H 0.92277 0.96629 0.47451 0.0
C256 C 0.35053 0.23786 0.4075 0.0
C257 C 0.39233 0.21376 0.45464 0.0
C258 C 0.27571 0.13685 0.45813 0.0
C259 C 0.24527 0.1544 0.40674 0.0
N260 N 0.26788 0.21484 0.32818 0.0
N261 N 0.39883 0.13718 0.52382 0.0
C262 C 0.2876 0.20258 0.37998 0.0
C263 C 0.35717 0.16148 0.47918 0.0
N264 N 0.36623 0.29621 0.39053 0.0
N265 N 0.22153 0.10216 0.48885 0.0
H266 H 0.4537 0.15742 0.54212 0.0
H267 H 0.38257 0.09516 0.54037 0.0
H268 H 0.15707 0.08809 0.47603 0.0
H269 H 0.23521 0.09322 0.52858 0.0
H270 H 0.32929 0.31845 0.35929 0.0
H271 H 0.40981 0.32455 0.41061 0.0
H272 H 0.30402 0.24563 0.30581 0.0
H273 H 0.22214 0.18986 0.30643 0.0
C274 C 0.46678 0.87711 0.40364 0.0
C275 C 0.46856 0.87269 0.45933 0.0
C276 C 0.32436 0.94566 0.46425 0.0
C277 C 0.32601 0.95153 0.40861 0.0
N278 N 0.41843 0.94155 0.32858 0.0
N279 N 0.41579 0.91955 0.54271 0.0
C280 C 0.40671 0.92559 0.38001 0.0
C281 C 0.40442 0.91408 0.48963 0.0
N282 N 0.50967 0.82989 0.37324 0.0
N283 N 0.24268 0.96234 0.49215 0.0
H284 H 0.47113 0.89432 0.56273 0.0
H285 H 0.37415 0.95252 0.56557 0.0
H286 H 0.18022 0.98127 0.47421 0.0
H287 H 0.23529 0.95255 0.53214 0.0
H288 H 0.50543 0.82932 0.33219 0.0
H289 H 0.53529 0.78737 0.38982 0.0
H290 H 0.47862 0.92515 0.30653 0.0
H291 H 0.37183 0.97577 0.31049 0.0
C292 C 0.61179 0.17372 0.4003 0.0
C293 C 0.60942 0.1805 0.4559 0.0
C294 C 0.7536 0.10789 0.46145 0.0
C295 C 0.75339 0.10029 0.40591 0.0
N296 N 0.66271 0.10663 0.32618 0.0
N297 N 0.66077 0.137 0.53987 0.0
C298 C 0.673 0.12467 0.37725 0.0
C299 C 0.6729 0.14023 0.48661 0.0
N300 N 0.56818 0.21925 0.36922 0.0
N301 N 0.83471 0.09244 0.4893 0.0
H302 H 0.60566 0.16347 0.5598 0.0
H303 H 0.70175 0.1048 0.56311 0.0
H304 H 0.89773 0.07307 0.47148 0.0
H305 H 0.84111 0.10365 0.5291 0.0
H306 H 0.5729 0.21815 0.32814 0.0
H307 H 0.54098 0.26216 0.38502 0.0
H308 H 0.6028 0.12171 0.3041 0.0
H309 H 0.71026 0.07204 0.30855 0.0
loop_
_geom_bond_atom_site_label_1
_geom_bond_atom_site_label_2
_geom_bond_distance
_geom_bond_site_symmetry_2
_ccdc_geom_bond_type
C0 N1 1.317 1_554 S
C0 N2 1.348 . S
C0 C3 1.485 1_455 S
N1 C0 1.317 1_556 S
N1 N5 1.370 . S
N2 C0 1.348 . S
N2 C4 1.346 . S
C3 C0 1.485 1_655 S
C3 H7 0.960 . S
C3 H8 0.961 . S
C3 H9 0.960 . S
C4 N2 1.346 . S
C4 N5 1.307 1_554 S
C4 C6 1.486 . S
N5 N1 1.370 . S
N5 C4 1.307 1_556 S
C6 C4 1.486 . S
C6 H10 0.960 . S
C6 H11 0.960 . S
C6 H12 0.959 . S
H7 C3 0.960 . S
H8 C3 0.961 . S
H9 C3 0.960 . S
H10 C6 0.960 . S
H11 C6 0.960 . S
H12 C6 0.959 . S
C13 N14 1.318 1_554 S
C13 N15 1.342 1_655 S
C13 C16 1.485 . S
N14 C13 1.318 1_556 S
N14 N18 1.370 1_655 S
N15 C13 1.342 1_455 S
N15 C17 1.352 . S
C16 C13 1.485 . S
C16 H20 0.960 . S
C16 H21 0.961 . S
C16 H22 0.960 . S
C17 N15 1.352 . S
C17 N18 1.307 1_554 S
C17 C19 1.486 . S
N18 N14 1.370 1_455 S
N18 C17 1.307 1_556 S
C19 C17 1.486 . S
C19 H23 0.960 . S
C19 H24 0.960 . S
C19 H25 0.959 . S
H20 C16 0.960 . S
H21 C16 0.961 . S
H22 C16 0.960 . S
H23 C19 0.960 . S
H24 C19 0.960 . S
H25 C19 0.959 . S
C26 N27 1.317 . S
C26 N28 1.348 . S
C26 C29 1.485 . S
N27 C26 1.317 . S
N27 N31 1.370 . S
N28 C26 1.348 . S
N28 C30 1.346 . S
C29 C26 1.485 . S
C29 H33 0.960 . S
C29 H34 0.961 . S
C29 H35 0.960 . S
C30 N28 1.346 . S
C30 N31 1.307 . S
C30 C32 1.486 . S
N31 N27 1.370 . S
N31 C30 1.307 . S
C32 C30 1.486 . S
C32 H36 0.960 . S
C32 H37 0.960 . S
C32 H38 0.959 . S
H33 C29 0.960 . S
H34 C29 0.961 . S
H35 C29 0.960 . S
H36 C32 0.960 . S
H37 C32 0.960 . S
H38 C32 0.959 . S
C39 N40 1.317 . S
C39 N41 1.348 . S
C39 C42 1.485 . S
N40 C39 1.317 . S
N40 N44 1.370 . S
N41 C39 1.348 . S
N41 C43 1.346 . S
C42 C39 1.485 . S
C42 H46 0.960 . S
C42 H47 0.961 . S
C42 H48 0.960 . S
C43 N41 1.346 . S
C43 N44 1.307 . S
C43 C45 1.486 . S
N44 N40 1.370 . S
N44 C43 1.307 . S
C45 C43 1.486 . S
C45 H49 0.960 . S
C45 H50 0.960 . S
C45 H51 0.959 . S
H46 C42 0.960 . S
H47 C42 0.961 . S
H48 C42 0.960 . S
H49 C45 0.960 . S
H50 C45 0.960 . S
H51 C45 0.959 . S
Zn52 O58 1.920 . S
Zn52 O64 1.898 . S
Zn52 O67 1.905 1_455 S
Zn53 O61 1.905 . S
Zn53 O62 1.898 1_455 S
Zn53 O70 1.920 . S
Zn54 O57 2.080 . S
Zn54 O60 2.114 1_545 S
Zn54 O63 2.120 1_545 S
Zn54 O65 2.120 . S
Zn54 O66 2.114 1_455 S
Zn54 O69 2.080 1_545 S
C55 O60 1.166 . S
C55 O61 1.182 . S
C56 O62 1.167 . S
C56 O63 1.299 1_655 S
O57 Zn54 2.080 . S
O57 C71 1.305 . S
O58 Zn52 1.920 . S
O58 C71 1.234 . S
C59 O64 1.167 . S
C59 O65 1.299 . S
O60 Zn54 2.114 1_565 S
O60 C55 1.166 . S
O61 Zn53 1.905 . S
O61 C55 1.182 . S
O62 Zn53 1.898 1_655 S
O62 C56 1.167 . S
O63 Zn54 2.120 1_565 S
O63 C56 1.299 1_455 S
O64 Zn52 1.898 . S
O64 C59 1.167 . S
O65 Zn54 2.120 . S
O65 C59 1.299 . S
O66 Zn54 2.114 1_655 S
O66 C68 1.166 . S
O67 Zn52 1.905 1_655 S
O67 C68 1.182 . S
C68 O66 1.166 . S
C68 O67 1.182 . S
O69 Zn54 2.080 1_565 S
O69 C72 1.305 . S
O70 Zn53 1.920 . S
O70 C72 1.234 . S
C71 O57 1.305 . S
C71 O58 1.234 . S
C72 O69 1.305 . S
C72 O70 1.234 . S
Zn73 O79 1.920 . S
Zn73 O85 1.898 . S
Zn73 O88 1.905 . S
Zn74 O82 1.905 . S
Zn74 O83 1.898 . S
Zn74 O91 1.920 . S
Zn75 O78 2.080 . S
Zn75 O81 2.114 . S
Zn75 O84 2.120 . S
Zn75 O86 2.120 . S
Zn75 O87 2.114 . S
Zn75 O90 2.080 . S
C76 O81 1.166 . S
C76 O82 1.182 . S
C77 O83 1.167 . S
C77 O84 1.299 . S
O78 Zn75 2.080 . S
O78 C92 1.305 . S
O79 Zn73 1.920 . S
O79 C92 1.234 . S
C80 O85 1.167 . S
C80 O86 1.299 . S
O81 Zn75 2.114 . S
O81 C76 1.166 . S
O82 Zn74 1.905 . S
O82 C76 1.182 . S
O83 Zn74 1.898 . S
O83 C77 1.167 . S
O84 Zn75 2.120 . S
O84 C77 1.299 . S
O85 Zn73 1.898 . S
O85 C80 1.167 . S
O86 Zn75 2.120 . S
O86 C80 1.299 . S
O87 Zn75 2.114 . S
O87 C89 1.166 . S
O88 Zn73 1.905 . S
O88 C89 1.182 . S
C89 O87 1.166 . S
C89 O88 1.182 . S
O90 Zn75 2.080 . S
O90 C93 1.305 . S
O91 Zn74 1.920 . S
O91 C93 1.234 . S
C92 O78 1.305 . S
C92 O79 1.234 . S
C93 O90 1.305 . S
C93 O91 1.234 . S
C94 C95 1.363 . S
C94 C100 1.379 . S
C94 N102 1.356 . S
C95 C94 1.363 . S
C95 C101 1.363 . S
C96 C97 1.363 . S
C96 C101 1.379 . S
C96 N103 1.356 1_455 S
C97 C96 1.363 . S
C97 C100 1.363 . S
N98 C100 1.356 . S
N98 H110 0.984 . S
N98 H111 0.985 . S
N99 C101 1.356 . S
N99 H104 0.984 . S
N99 H105 0.985 1_455 S
C100 C94 1.379 . S
C100 C97 1.363 . S
C100 N98 1.356 . S
C101 C95 1.363 . S
C101 C96 1.379 . S
C101 N99 1.356 . S
N102 C94 1.356 . S
N102 H108 0.984 . S
N102 H109 0.984 . S
N103 C96 1.356 1_655 S
N103 H106 0.984 . S
N103 H107 0.985 . S
H104 N99 0.984 . S
H105 N99 0.985 1_655 S
H106 N103 0.984 . S
H107 N103 0.985 . S
H108 N102 0.984 . S
H109 N102 0.984 . S
H110 N98 0.984 . S
H111 N98 0.985 . S
C112 C113 1.363 1_655 S
C112 C118 1.379 . S
C112 N120 1.356 . S
C113 C112 1.363 1_455 S
C113 C119 1.363 . S
C114 C115 1.363 . S
C114 C119 1.379 . S
C114 N121 1.356 . S
C115 C114 1.363 . S
C115 C118 1.363 1_455 S
N116 C118 1.356 . S
N116 H128 0.984 . S
N116 H129 0.985 . S
N117 C119 1.356 . S
N117 H122 0.984 . S
N117 H123 0.985 . S
C118 C112 1.379 . S
C118 C115 1.363 1_655 S
C118 N116 1.356 . S
C119 C113 1.363 . S
C119 C114 1.379 . S
C119 N117 1.356 . S
N120 C112 1.356 . S
N120 H126 0.984 . S
N120 H127 0.984 . S
N121 C114 1.356 . S
N121 H124 0.984 . S
N121 H125 0.985 . S
H122 N117 0.984 . S
H123 N117 0.985 . S
H124 N121 0.984 . S
H125 N121 0.985 . S
H126 N120 0.984 . S
H127 N120 0.984 . S
H128 N116 0.984 . S
H129 N116 0.985 . S
C130 C131 1.363 . S
C130 C136 1.379 . S
C130 N138 1.356 . S
C131 C130 1.363 . S
C131 C137 1.363 . S
C132 C133 1.363 . S
C132 C137 1.379 . S
C132 N139 1.356 . S
C133 C132 1.363 . S
C133 C136 1.363 . S
N134 C136 1.356 . S
N134 H146 0.984 . S
N134 H147 0.985 . S
N135 C137 1.356 . S
N135 H140 0.984 . S
N135 H141 0.985 . S
C136 C130 1.379 . S
C136 C133 1.363 . S
C136 N134 1.356 . S
C137 C131 1.363 . S
C137 C132 1.379 . S
C137 N135 1.356 . S
N138 C130 1.356 . S
N138 H144 0.984 . S
N138 H145 0.984 . S
N139 C132 1.356 . S
N139 H142 0.984 . S
N139 H143 0.985 . S
H140 N135 0.984 . S
H141 N135 0.985 . S
H142 N139 0.984 . S
H143 N139 0.985 . S
H144 N138 0.984 . S
H145 N138 0.984 . S
H146 N134 0.984 . S
H147 N134 0.985 . S
C148 C149 1.363 . S
C148 C154 1.379 . S
C148 N156 1.356 . S
C149 C148 1.363 . S
C149 C155 1.363 . S
C150 C151 1.363 . S
C150 C155 1.379 . S
C150 N157 1.356 . S
C151 C150 1.363 . S
C151 C154 1.363 . S
N152 C154 1.356 . S
N152 H164 0.984 . S
N152 H165 0.985 . S
N153 C155 1.356 . S
N153 H158 0.984 . S
N153 H159 0.985 . S
C154 C148 1.379 . S
C154 C151 1.363 . S
C154 N152 1.356 . S
C155 C149 1.363 . S
C155 C150 1.379 . S
C155 N153 1.356 . S
N156 C148 1.356 . S
N156 H162 0.984 . S
N156 H163 0.984 . S
N157 C150 1.356 . S
N157 H160 0.984 . S
N157 H161 0.985 . S
H158 N153 0.984 . S
H159 N153 0.985 . S
H160 N157 0.984 . S
H161 N157 0.985 . S
H162 N156 0.984 . S
H163 N156 0.984 . S
H164 N152 0.984 . S
H165 N152 0.985 . S
C166 C167 1.363 . S
C166 C172 1.379 . S
C166 N174 1.356 1_556 S
C167 C166 1.363 . S
C167 C173 1.363 . S
C168 C169 1.363 . S
C168 C173 1.379 . S
C168 N175 1.356 . S
C169 C168 1.363 . S
C169 C172 1.363 . S
N170 C172 1.356 . S
N170 H182 0.984 1_556 S
N170 H183 0.985 . S
N171 C173 1.356 . S
N171 H176 0.984 . S
N171 H177 0.985 . S
C172 C166 1.379 . S
C172 C169 1.363 . S
C172 N170 1.356 . S
C173 C167 1.363 . S
C173 C168 1.379 . S
C173 N171 1.356 . S
N174 C166 1.356 1_554 S
N174 H180 0.984 . S
N174 H181 0.984 . S
N175 C168 1.356 . S
N175 H178 0.984 . S
N175 H179 0.985 . S
H176 N171 0.984 . S
H177 N171 0.985 . S
H178 N175 0.984 . S
H179 N175 0.985 . S
H180 N174 0.984 . S
H181 N174 0.984 . S
H182 N170 0.984 1_554 S
H183 N170 0.985 . S
C184 C185 1.363 1_554 S
C184 C190 1.379 1_554 S
C184 N192 1.356 . S
C185 C184 1.363 1_556 S
C185 C191 1.363 . S
C186 C187 1.363 . S
C186 C191 1.379 . S
C186 N193 1.356 . S
C187 C186 1.363 . S
C187 C190 1.363 . S
N188 C190 1.356 1_554 S
N188 H200 0.984 . S
N188 H201 0.985 1_554 S
N189 C191 1.356 . S
N189 H194 0.984 . S
N189 H195 0.985 . S
C190 C184 1.379 1_556 S
C190 C187 1.363 . S
C190 N188 1.356 1_556 S
C191 C185 1.363 . S
C191 C186 1.379 . S
C191 N189 1.356 . S
N192 C184 1.356 . S
N192 H198 0.984 . S
N192 H199 0.984 . S
N193 C186 1.356 . S
N193 H196 0.984 . S
N193 H197 0.985 . S
H194 N189 0.984 . S
H195 N189 0.985 . S
H196 N193 0.984 . S
H197 N193 0.985 . S
H198 N192 0.984 . S
H199 N192 0.984 . S
H200 N188 0.984 . S
H201 N188 0.985 1_556 S
C202 C203 1.363 1_655 S
C202 C208 1.379 . S
C202 N210 1.356 1_556 S
C203 C202 1.363 1_455 S
C203 C209 1.363 . S
C204 C205 1.363 . S
C204 C209 1.379 1_655 S
C204 N211 1.356 . S
C205 C204 1.363 . S
C205 C208 1.363 . S
N206 C208 1.356 . S
N206 H218 0.985 . S
N206 H219 0.985 . S
N207 C209 1.356 . S
N207 H212 0.984 . S
N207 H213 0.985 . S
C208 C202 1.379 . S
C208 C205 1.363 . S
C208 N206 1.356 . S
C209 C203 1.363 . S
C209 C204 1.379 1_455 S
C209 N207 1.356 . S
N210 C202 1.356 1_554 S
N210 H216 0.984 . S
N210 H217 0.984 1_655 S
N211 C204 1.356 . S
N211 H214 0.984 . S
N211 H215 0.985 . S
H212 N207 0.984 . S
H213 N207 0.985 . S
H214 N211 0.984 . S
H215 N211 0.985 . S
H216 N210 0.984 . S
H217 N210 0.984 1_455 S
H218 N206 0.985 . S
H219 N206 0.985 . S
C220 C221 1.363 . S
C220 C226 1.379 . S
C220 N228 1.356 . S
C221 C220 1.363 . S
C221 C227 1.363 . S
C222 C223 1.363 . S
C222 C227 1.379 . S
C222 N229 1.356 . S
C223 C222 1.363 . S
C223 C226 1.363 . S
N224 C226 1.356 . S
N224 H236 0.984 . S
N224 H237 0.985 . S
N225 C227 1.356 1_554 S
N225 H230 0.984 . S
N225 H231 0.985 . S
C226 C220 1.379 . S
C226 C223 1.363 . S
C226 N224 1.356 . S
C227 C221 1.363 . S
C227 C222 1.379 . S
C227 N225 1.356 1_556 S
N228 C220 1.356 . S
N228 H234 0.984 . S
N228 H235 0.984 . S
N229 C222 1.356 . S
N229 H232 0.984 . S
N229 H233 0.985 1_556 S
H230 N225 0.984 . S
H231 N225 0.985 . S
H232 N229 0.984 . S
H233 N229 0.985 1_554 S
H234 N228 0.984 . S
H235 N228 0.984 . S
H236 N224 0.984 . S
H237 N224 0.985 . S
C238 C239 1.363 . S
C238 C244 1.379 . S
C238 N246 1.356 . S
C239 C238 1.363 . S
C239 C245 1.363 . S
C240 C241 1.363 . S
C240 C245 1.379 . S
C240 N247 1.356 . S
C241 C240 1.363 . S
C241 C244 1.363 . S
N242 C244 1.356 . S
N242 H254 0.984 . S
N242 H255 0.985 . S
N243 C245 1.356 . S
N243 H248 0.984 . S
N243 H249 0.985 . S
C244 C238 1.379 . S
C244 C241 1.363 . S
C244 N242 1.356 . S
C245 C239 1.363 . S
C245 C240 1.379 . S
C245 N243 1.356 . S
N246 C238 1.356 . S
N246 H252 0.984 . S
N246 H253 0.984 . S
N247 C240 1.356 . S
N247 H250 0.984 . S
N247 H251 0.985 . S
H248 N243 0.984 . S
H249 N243 0.985 . S
H250 N247 0.984 . S
H251 N247 0.985 . S
H252 N246 0.984 . S
H253 N246 0.984 . S
H254 N242 0.984 . S
H255 N242 0.985 . S
C256 C257 1.363 . S
C256 C262 1.379 . S
C256 N264 1.356 . S
C257 C256 1.363 . S
C257 C263 1.363 . S
C258 C259 1.363 . S
C258 C263 1.379 . S
C258 N265 1.356 . S
C259 C258 1.363 . S
C259 C262 1.363 . S
N260 C262 1.356 . S
N260 H272 0.984 . S
N260 H273 0.985 . S
N261 C263 1.356 . S
N261 H266 0.984 . S
N261 H267 0.985 . S
C262 C256 1.379 . S
C262 C259 1.363 . S
C262 N260 1.356 . S
C263 C257 1.363 . S
C263 C258 1.379 . S
C263 N261 1.356 . S
N264 C256 1.356 . S
N264 H270 0.984 . S
N264 H271 0.984 . S
N265 C258 1.356 . S
N265 H268 0.984 . S
N265 H269 0.985 . S
H266 N261 0.984 . S
H267 N261 0.985 . S
H268 N265 0.984 . S
H269 N265 0.985 . S
H270 N264 0.984 . S
H271 N264 0.984 . S
H272 N260 0.984 . S
H273 N260 0.985 . S
C274 C275 1.363 . S
C274 C280 1.379 . S
C274 N282 1.356 . S
C275 C274 1.363 . S
C275 C281 1.363 . S
C276 C277 1.363 . S
C276 C281 1.379 . S
C276 N283 1.356 . S
C277 C276 1.363 . S
C277 C280 1.363 . S
N278 C280 1.356 . S
N278 H290 0.984 . S
N278 H291 0.985 . S
N279 C281 1.356 . S
N279 H284 0.984 . S
N279 H285 0.985 . S
C280 C274 1.379 . S
C280 C277 1.363 . S
C280 N278 1.356 . S
C281 C275 1.363 . S
C281 C276 1.379 . S
C281 N279 1.356 . S
N282 C274 1.356 . S
N282 H288 0.984 . S
N282 H289 0.984 . S
N283 C276 1.356 . S
N283 H286 0.984 . S
N283 H287 0.985 . S
H284 N279 0.984 . S
H285 N279 0.985 . S
H286 N283 0.984 . S
H287 N283 0.985 . S
H288 N282 0.984 . S
H289 N282 0.984 . S
H290 N278 0.984 . S
H291 N278 0.985 . S
C292 C293 1.363 . S
C292 C298 1.379 . S
C292 N300 1.356 . S
C293 C292 1.363 . S
C293 C299 1.363 . S
C294 C295 1.363 . S
C294 C299 1.379 . S
C294 N301 1.356 . S
C295 C294 1.363 . S
C295 C298 1.363 . S
N296 C298 1.356 . S
N296 H308 0.984 . S
N296 H309 0.985 . S
N297 C299 1.356 . S
N297 H302 0.984 . S
N297 H303 0.985 . S
C298 C292 1.379 . S
C298 C295 1.363 . S
C298 N296 1.356 . S
C299 C293 1.363 . S
C299 C294 1.379 . S
C299 N297 1.356 . S
N300 C292 1.356 . S
N300 H306 0.984 . S
N300 H307 0.984 . S
N301 C294 1.356 . S
N301 H304 0.984 . S
N301 H305 0.985 . S
H302 N297 0.984 . S
H303 N297 0.985 . S
H304 N301 0.984 . S
H305 N301 0.985 . S
H306 N300 0.984 . S
H307 N300 0.984 . S
H308 N296 0.984 . S
H309 N296 0.985 . S
C97 C59 1.397 . S
C95 N2 1.516 . S
C115 C55 1.405 . S
C113 N15 1.513 . S
C133 C80 1.397 . S
C131 N28 1.517 . S
C149 N41 1.513 . S
C151 C76 1.405 . S
C167 N5 1.371 . S
C169 C77 1.199 . S
C187 C92 1.217 . S
C185 N14 1.371 . S
C203 N1 1.697 . S
C205 C93 1.538 . S
C223 C89 1.557 . S
C221 N18 1.704 . S
C241 C56 1.199 . S
C239 N31 1.371 . S
C257 N40 1.371 . S
C259 C71 1.217 . S
C277 C72 1.538 . S
C275 N27 1.697 . S
C295 C68 1.557 . S
C293 N44 1.704 . S
