# Generated by pormake.
# Topology ftw, (4,12)-cn, num edge types: 1
# Building blocks:
#     Node 0, Type 0, BuildingBlock: NAWXER_clean_linker_0, # of connection points: 4
#     Node 1, Type 0, BuildingBlock: NAWXER_clean_linker_0, # of connection points: 4
#     Node 2, Type 0, BuildingBlock: NAWXER_clean_linker_0, # of connection points: 4
#     Node 3, Type 1, BuildingBlock: EZIPEK_clean_sbu_0, # of connection points: 12
#     Edge 4, Type (0, 1), BuildingBlock: MIFKUJ_clean_linker_0, # of connection points: 2
#     Edge 5, Type (0, 1), BuildingBlock: MIFKUJ_clean_linker_0, # of connection points: 2
#     Edge 6, Type (0, 1), BuildingBlock: MIFKUJ_clean_linker_0, # of connection points: 2
#     Edge 7, Type (0, 1), BuildingBlock: MIFKUJ_clean_linker_0, # of connection points: 2
#     Edge 8, Type (0, 1), BuildingBlock: MIFKUJ_clean_linker_0, # of connection points: 2
#     Edge 9, Type (0, 1), BuildingBlock: MIFKUJ_clean_linker_0, # of connection points: 2
#     Edge 10, Type (0, 1), BuildingBlock: MIFKUJ_clean_linker_0, # of connection points: 2
#     Edge 11, Type (0, 1), BuildingBlock: MIFKUJ_clean_linker_0, # of connection points: 2
#     Edge 12, Type (0, 1), BuildingBlock: MIFKUJ_clean_linker_0, # of connection points: 2
#     Edge 13, Type (0, 1), BuildingBlock: MIFKUJ_clean_linker_0, # of connection points: 2
#     Edge 14, Type (0, 1), BuildingBlock: MIFKUJ_clean_linker_0, # of connection points: 2
#     Edge 15, Type (0, 1), BuildingBlock: MIFKUJ_clean_linker_0, # of connection points: 2
# Relax obj value: 0.032
# Max RMSD: 0.131
# Mean RMSD: 0.100
data_MOF--net-ftw--node1-EZIPEK_clean_sbu_0--node2-NAWXER_clean_linker_0--edge1-MIFKUJ_clean_linker_0
_symmetry_space_group_name_H-M    P1
_symmetry_Int_Tables_number       1
_symmetry_cell_setting            triclinic
loop_
_symmetry_equiv_pos_as_xyz
'x, y, z'
_cell_length_a     34.024025
_cell_length_b     35.413594
_cell_length_c     34.485791
_cell_angle_alpha  90.129076
_cell_angle_beta   90.007942
_cell_angle_gamma 90.042869
loop_
_atom_site_label
_atom_site_type_symbol
_atom_site_fract_x
_atom_site_fract_y
_atom_site_fract_z
_atom_type_partial_charge
C0 C 0.00971 0.64326 0.5746 0.0
C1 C 0.98251 0.64297 0.60537 0.0
C2 C 0.01049 0.61371 0.54736 0.0
C3 C 0.98356 0.58359 0.5499 0.0
C4 C 0.955 0.61341 0.60718 0.0
C5 C 0.95555 0.58418 0.57987 0.0
C6 C 0.98727 0.54896 0.52545 0.0
C7 C 0.96609 0.63854 0.43257 0.0
C8 C -0.00222 0.64371 0.40687 0.0
C9 C 0.9663 0.60884 0.45949 0.0
C10 C -0.00201 0.58342 0.46094 0.0
C11 C 0.02991 0.61885 0.40914 0.0
C12 C 0.02977 0.5888 0.43551 0.0
C13 C -0.00376 0.54886 0.48535 0.0
C14 C 0.96798 0.39107 0.43228 0.0
C15 C -3e-05 0.38627 0.40685 0.0
C16 C 0.96769 0.42069 0.45938 0.0
C17 C -0.00082 0.44634 0.46127 0.0
C18 C 0.03194 0.41131 0.40966 0.0
C19 C 0.03131 0.44126 0.43623 0.0
C20 C -0.00323 0.48099 0.48554 0.0
C21 C 0.00974 0.38672 0.57478 0.0
C22 C 0.98218 0.38685 0.60527 0.0
C23 C 0.01085 0.41634 0.54773 0.0
C24 C 0.98395 0.44646 0.55014 0.0
C25 C 0.95479 0.41651 0.60702 0.0
C26 C 0.9557 0.44584 0.57992 0.0
C27 C 0.98765 0.48102 0.5256 0.0
H28 H 0.03157 0.66542 0.57262 0.0
H29 H 0.03335 0.61363 0.52554 0.0
H30 H 0.9333 0.61257 0.63014 0.0
H31 H 0.93452 0.56137 0.5828 0.0
H32 H 0.94097 0.65728 0.4316 0.0
H33 H 0.94105 0.60494 0.47818 0.0
H34 H 0.05458 0.62183 0.38953 0.0
H35 H 0.05432 0.56934 0.43568 0.0
H36 H 0.94298 0.37217 0.43086 0.0
H37 H 0.94219 0.4244 0.4778 0.0
H38 H 0.05681 0.4086 0.39024 0.0
H39 H 0.0557 0.46094 0.43676 0.0
H40 H 0.03157 0.36456 0.57282 0.0
H41 H 0.03391 0.41643 0.52612 0.0
H42 H 0.93279 0.41731 0.62971 0.0
H43 H 0.93466 0.46863 0.58278 0.0
N44 N 0.98333 0.51504 0.54359 0.0
N45 N 0.0008 0.51488 0.46726 0.0
C46 C 0.54586 0.04541 0.6403 0.0
C47 C 0.57803 0.02061 0.64061 0.0
C48 C 0.52133 0.04719 0.60782 0.0
C49 C 0.5284 0.0237 0.57567 0.0
C50 C 0.58416 0.99632 0.60901 0.0
C51 C 0.55961 0.9979 0.57683 0.0
C52 C 0.50643 0.02814 0.53914 0.0
C53 C 0.41551 0.98658 0.62345 0.0
C54 C 0.38127 1.00839 0.62574 0.0
C55 C 0.44367 0.99453 0.59521 0.0
C56 C 0.43842 0.02517 0.56983 0.0
C57 C 0.37605 0.03904 0.60066 0.0
C58 C 0.40449 0.04745 0.573 0.0
C59 C 0.46513 0.0313 0.53678 0.0
C60 C 0.43157 1.01111 0.36984 0.0
C61 C 0.40549 0.04083 0.36211 0.0
C62 C 0.45318 1.01081 0.40414 0.0
C63 C 0.449 0.04023 0.43115 0.0
C64 C 0.40184 0.07058 0.38889 0.0
C65 C 0.42322 0.07008 0.42341 0.0
C66 C 0.46991 0.03864 0.46837 0.0
C67 C 0.56085 0.06504 0.37821 0.0
C68 C 0.58572 0.03411 0.37152 0.0
C69 C 0.53607 0.06533 0.41044 0.0
C70 C 0.53633 0.03487 0.43639 0.0
C71 C 0.58569 1.00364 0.39747 0.0
C72 C 0.56139 1.00418 0.42988 0.0
C73 C 0.51089 0.03475 0.47071 0.0
H74 H 0.54085 0.06461 0.66429 0.0
H75 H 0.49794 0.06791 0.60722 0.0
H76 H 0.60855 0.97666 0.60885 0.0
H77 H 0.56558 0.97951 0.55237 0.0
H78 H 0.41968 0.96258 0.64244 0.0
H79 H 0.46864 0.97582 0.59234 0.0
H80 H 0.34974 0.05622 0.60226 0.0
H81 H 0.39957 0.07089 0.55344 0.0
H82 H 0.43478 0.98787 0.34961 0.0
H83 H 0.47245 0.98717 0.41001 0.0
H84 H 0.38144 0.09351 0.38374 0.0
H85 H 0.41946 0.09279 0.44418 0.0
H86 H 0.5607 0.08889 0.35859 0.0
H87 H 0.51713 0.08944 0.41539 0.0
H88 H 0.6052 0.97982 0.39317 0.0
H89 H 0.56196 0.98054 0.44977 0.0
N90 N 0.52767 0.02969 0.5059 0.0
N91 N 0.44848 0.03679 0.50142 0.0
C92 C 0.41679 0.38993 0.99928 0.0
C93 C 0.38854 0.3878 0.02898 0.0
C94 C 0.44352 0.41994 0.99807 0.0
C95 C 0.44282 0.44806 0.02685 0.0
C96 C 0.38839 0.41566 0.05806 0.0
C97 C 0.41513 0.44553 0.0569 0.0
C98 C 0.46778 0.48218 0.02396 0.0
C99 C 0.55445 0.38648 0.03864 0.0
C100 C 0.5845 0.38447 0.01063 0.0
C101 C 0.52897 0.41744 0.03992 0.0
C102 C 0.53233 0.44664 0.0126 0.0
C103 C 0.58758 0.4137 0.98323 0.0
C104 C 0.56181 0.44432 0.98422 0.0
C105 C 0.50842 0.48154 0.0155 0.0
C106 C 0.55978 0.64164 0.03984 0.0
C107 C 0.58877 0.64335 0.01083 0.0
C108 C 0.53291 0.61173 0.0407 0.0
C109 C 0.53423 0.5833 0.01224 0.0
C110 C 0.58941 0.61531 0.98194 0.0
C111 C 0.56254 0.58555 0.98275 0.0
C112 C 0.50939 0.5491 0.01511 0.0
C113 C 0.42093 0.64267 0.99625 0.0
C114 C 0.39179 0.64578 0.025 0.0
C115 C 0.44708 0.6122 0.99631 0.0
C116 C 0.44491 0.5846 0.02546 0.0
C117 C 0.39034 0.61861 0.05461 0.0
C118 C 0.41651 0.58829 0.05472 0.0
C119 C 0.46879 0.54971 0.02345 0.0
H120 H 0.41724 0.36923 0.97612 0.0
H121 H 0.46378 0.42181 0.97393 0.0
H122 H 0.36728 0.41459 0.08154 0.0
H123 H 0.41385 0.46703 0.07927 0.0
H124 H 0.55089 0.36438 0.06001 0.0
H125 H 0.50748 0.41897 0.06301 0.0
H126 H 0.61075 0.41368 0.96173 0.0
H127 H 0.56545 0.4667 0.96313 0.0
H128 H 0.55891 0.66254 0.06281 0.0
H129 H 0.51217 0.61011 0.06445 0.0
H130 H 0.61106 0.61612 0.95893 0.0
H131 H 0.56428 0.56386 0.9606 0.0
H132 H 0.42241 0.66285 0.97274 0.0
H133 H 0.46787 0.60945 0.97271 0.0
H134 H 0.36854 0.62049 0.07742 0.0
H135 H 0.4141 0.56726 0.07738 0.0
N136 N 0.44976 0.51623 0.0277 0.0
N137 N 0.52742 0.51507 0.01135 0.0
C138 C 0.98372 0.10635 0.9111 0.0
C139 C -0.00413 0.10799 0.09982 0.0
C140 C 0.98506 0.9229 0.91235 0.0
C141 C -0.00362 0.92424 0.10148 0.0
C142 C 0.0863 0.9255 1.00233 0.0
C143 C 0.08335 0.10789 1.00015 0.0
C144 C 0.89555 0.92295 0.01339 0.0
C145 C 0.89292 0.10527 0.01272 0.0
C146 C 0.9035 1.01147 0.10734 0.0
C147 C 0.09206 0.02171 0.09161 0.0
C148 C 0.88717 1.01357 0.92115 0.0
C149 C 0.07688 1.0129 0.90611 0.0
Eu150 Eu 0.98834 0.0874 1.00586 0.0
O151 O 0.02602 0.04977 0.03767 0.0
O152 O 0.95166 0.04841 0.9744 0.0
Eu153 Eu 0.0628 1.01643 1.0007 0.0
Eu154 Eu 0.91651 1.01434 0.01243 0.0
O155 O 0.02089 0.0495 0.96892 0.0
O156 O 0.95751 0.04905 0.04378 0.0
Eu157 Eu 0.98372 1.01475 0.93318 0.0
Eu158 Eu -0.00393 1.01592 0.07991 0.0
O159 O 0.02157 0.98178 0.96976 0.0
O160 O 0.02778 0.98189 0.03859 0.0
O161 O 0.95895 0.98158 0.04369 0.0
O162 O 0.95289 0.98067 0.97495 0.0
Eu163 Eu -0.00938 0.94312 1.00691 0.0
O164 O 0.9856 0.11841 0.9479 0.0
O165 O -0.00945 0.11931 0.06321 0.0
O166 O 0.98836 0.91136 0.94919 0.0
O167 O -0.00817 0.91227 0.06491 0.0
O168 O 0.09707 0.96171 1.00063 0.0
O169 O 0.09506 0.07207 0.99718 0.0
O170 O 0.8839 0.95887 0.01463 0.0
O171 O 0.88232 0.06908 0.01554 0.0
O172 O 0.94128 1.01496 0.11688 0.0
O173 O 0.05643 0.01805 0.10719 0.0
O174 O 0.92323 1.01424 0.90594 0.0
O175 O 0.03888 1.01272 0.89659 0.0
O176 O 0.93275 0.91127 0.0102 0.0
O177 O 0.04935 0.91293 1.00475 0.0
O178 O 0.92973 0.11775 0.00855 0.0
O179 O 0.04614 0.11936 1.00393 0.0
O180 O -0.00069 0.0722 0.1116 0.0
O181 O -7e-05 0.96026 0.11269 0.0
O182 O 0.9826 0.07014 0.90003 0.0
O183 O 0.98232 0.95885 0.90098 0.0
O184 O 0.09125 1.01461 0.94197 0.0
O185 O 0.10051 0.0221 0.05395 0.0
O186 O 0.87869 1.0134 0.95886 0.0
O187 O 0.88878 1.01046 0.07157 0.0
H188 H 0.05796 0.33577 0.38817 0.0
H189 H 0.05784 0.28873 0.33607 0.0
H190 H 0.94116 0.32386 0.30285 0.0
H191 H 0.94068 0.36977 0.35599 0.0
H192 H 0.94324 0.25288 0.29641 0.0
H193 H 0.03011 0.34981 0.25323 0.0
H194 H 0.08637 0.3937 0.25431 0.0
H195 H 0.16632 0.30005 0.2588 0.0
H196 H 0.11053 0.25557 0.25845 0.0
H197 H 0.95353 0.17334 0.10419 0.0
H198 H 0.95498 0.22085 0.15619 0.0
H199 H 0.04523 0.1576 0.21502 0.0
H200 H 0.04295 0.10934 0.16383 0.0
H201 H 0.05639 0.24269 0.20623 0.0
H202 H 0.96637 0.14692 0.25295 0.0
H203 H 0.90929 0.1046 0.24528 0.0
H204 H 0.83421 0.20028 0.22681 0.0
H205 H 0.89107 0.2432 0.23369 0.0
C206 C 0.03227 0.33334 0.36978 0.0
C207 C -0.00064 0.35652 0.37617 0.0
C208 C 0.03229 0.30658 0.33976 0.0
C209 C -0.00019 0.30306 0.3147 0.0
C210 C 0.96666 0.32585 0.32156 0.0
C211 C 0.96636 0.35211 0.35202 0.0
C212 C 0.00023 0.27558 0.2816 0.0
C213 C 0.96789 0.2512 0.27654 0.0
C214 C 0.03244 0.27264 0.2555 0.0
C215 C 0.06606 0.29936 0.25639 0.0
C216 C 0.05966 0.33857 0.25491 0.0
C217 C 0.09148 0.36356 0.25531 0.0
C218 C 0.12989 0.34968 0.25678 0.0
C219 C 0.13656 0.31077 0.25779 0.0
C220 C 0.10484 0.28566 0.25752 0.0
C221 C 0.97378 0.16969 0.12814 0.0
C222 C -0.00203 0.13758 0.13013 0.0
C223 C 0.97455 0.19678 0.15779 0.0
C224 C 0.00017 0.19265 0.18943 0.0
C225 C 0.02524 0.16124 0.19086 0.0
C226 C 0.02376 0.13365 0.16174 0.0
C227 C -0.00018 0.22046 0.22171 0.0
C228 C 0.03199 0.24474 0.22638 0.0
C229 C 0.96735 0.22377 0.247 0.0
C230 C 0.93298 0.19822 0.2436 0.0
C231 C 0.93773 0.15892 0.247 0.0
C232 C 0.90545 0.13484 0.24281 0.0
C233 C 0.86819 0.14975 0.23555 0.0
C234 C 0.86312 0.1888 0.23245 0.0
C235 C 0.89536 0.21302 0.23652 0.0
H236 H 0.8433 0.13102 0.2325 0.0
H237 H 0.15448 0.36908 0.25701 0.0
H238 H 0.59662 0.97905 0.31769 0.0
H239 H 0.65052 0.97459 0.2709 0.0
H240 H 0.69252 0.08421 0.30711 0.0
H241 H 0.63806 0.08912 0.35323 0.0
H242 H 0.70219 0.07427 0.23046 0.0
H243 H 0.72967 1.00445 0.34699 0.0
H244 H 0.71567 0.9575 0.39786 0.0
H245 H 0.71448 0.86912 0.31241 0.0
H246 H 0.72786 0.91567 0.26092 0.0
H247 H 0.90094 0.05309 0.17363 0.0
H248 H 0.84724 0.05401 0.22126 0.0
H249 H 0.78916 0.96374 0.15954 0.0
H250 H 0.84195 0.96353 0.11125 0.0
H251 H 0.78934 0.96331 0.24986 0.0
H252 H 0.75608 0.03417 0.13352 0.0
H253 H 0.77678 0.07939 0.08338 0.0
H254 H 0.79161 0.16535 0.1702 0.0
H255 H 0.77123 0.12032 0.22101 0.0
C256 C 0.61701 1.00241 0.31502 0.0
C257 C 0.6137 0.03423 0.3391 0.0
C258 C 0.64773 0.99983 0.2885 0.0
C259 C 0.67591 0.02868 0.28638 0.0
C260 C 0.67111 0.0616 0.30856 0.0
C261 C 0.64007 0.0644 0.33477 0.0
C262 C 0.71191 0.02333 0.2633 0.0
C263 C 0.72135 0.0502 0.235 0.0
C264 C 0.73677 0.99172 0.26907 0.0
C265 C 0.72943 0.96359 0.30008 0.0
C266 C 0.7262 0.97504 0.33903 0.0
C267 C 0.71839 0.9485 0.36797 0.0
C268 C 0.71411 0.91036 0.35837 0.0
C269 C 0.71777 0.89867 0.3198 0.0
C270 C 0.72549 0.92512 0.29073 0.0
C271 C 0.87708 0.03298 0.17084 0.0
C272 C 0.87501 1.00852 0.13887 0.0
C273 C 0.84666 0.03345 0.19794 0.0
C274 C 0.81458 1.0089 0.19363 0.0
C275 C 0.81394 0.98264 0.16325 0.0
C276 C 0.84378 0.9828 0.13566 0.0
C277 C 0.77921 1.01413 0.21737 0.0
C278 C 0.77001 0.9873 0.2456 0.0
C279 C 0.75458 0.04569 0.21169 0.0
C280 C 0.76294 0.07377 0.18105 0.0
C281 C 0.76383 0.06271 0.1419 0.0
C282 C 0.77552 0.08826 0.11338 0.0
C283 C 0.786 0.12506 0.12367 0.0
C284 C 0.78377 0.13672 0.16235 0.0
C285 C 0.77207 0.11121 0.19101 0.0
H286 H 0.79593 0.14444 0.10165 0.0
H287 H 0.70804 0.88986 0.38081 0.0
H288 H 0.05545 0.69472 0.38836 0.0
H289 H 0.05444 0.74266 0.33703 0.0
H290 H 0.93744 0.70791 0.30487 0.0
H291 H 0.93804 0.66034 0.35655 0.0
H292 H -0.00617 0.71542 0.24074 0.0
H293 H 0.9438 0.78509 0.3511 0.0
H294 H 0.94653 0.80892 0.41829 0.0
H295 H 0.05497 0.86607 0.39347 0.0
H296 H 0.05317 0.8421 0.32624 0.0
H297 H 0.95085 0.861 0.10684 0.0
H298 H 0.94965 0.81443 0.15904 0.0
H299 H 0.04351 0.87414 0.21717 0.0
H300 H 0.04244 0.92229 0.16634 0.0
H301 H -0.00104 0.8527 0.26904 0.0
H302 H 0.05354 0.78457 0.1619 0.0
H303 H 0.05684 0.75972 0.09511 0.0
H304 H 0.9496 0.69823 0.11322 0.0
H305 H 0.9454 0.72309 0.17998 0.0
C306 C 0.02947 0.69739 0.37042 0.0
C307 C -0.00324 0.67382 0.37664 0.0
C308 C 0.0289 0.72483 0.34115 0.0
C309 C -0.00415 0.72891 0.31708 0.0
C310 C 0.96325 0.70528 0.32306 0.0
C311 C 0.96352 0.6783 0.35278 0.0
C312 C -0.00459 0.75768 0.28555 0.0
C313 C -0.00553 0.74548 0.24682 0.0
C314 C -0.00237 0.79683 0.29346 0.0
C315 C -0.00146 0.81149 0.33376 0.0
C316 C 0.96839 0.80247 0.36006 0.0
C317 C 0.96974 0.81606 0.39813 0.0
C318 C 0.00096 0.83891 0.41017 0.0
C319 C 0.03083 0.84832 0.38412 0.0
C320 C 0.02964 0.83478 0.34602 0.0
C321 C 0.97131 0.86403 0.13073 0.0
C322 C -0.00308 0.89513 0.13239 0.0
C323 C 0.97086 0.83719 0.16055 0.0
C324 C -0.00281 0.83985 0.19199 0.0
C325 C 0.02283 0.87108 0.19348 0.0
C326 C 0.02237 0.8986 0.16429 0.0
C327 C -0.00244 0.8107 0.2236 0.0
C328 C -0.00154 0.82273 0.26255 0.0
C329 C -0.00367 0.77128 0.21582 0.0
C330 C -0.00102 0.75596 0.17583 0.0
C331 C 0.03056 0.76591 0.15157 0.0
C332 C 0.0326 0.75181 0.11372 0.0
C333 C 0.0034 0.72748 0.0999 0.0
C334 C 0.97217 0.7171 0.12395 0.0
C335 C 0.96997 0.73115 0.16181 0.0
H336 H 0.00501 0.71662 0.07058 0.0
H337 H 0.00195 0.8494 0.43966 0.0
H338 H 0.36072 0.98186 0.33829 0.0
H339 H 0.3128 0.98104 0.28578 0.0
H340 H 0.34444 0.09546 0.25585 0.0
H341 H 0.3918 0.09667 0.30942 0.0
H342 H 0.26955 0.09051 0.26057 0.0
H343 H 0.36663 0.01782 0.19649 0.0
H344 H 0.41573 0.9679 0.18499 0.0
H345 H 0.32634 0.88309 0.19686 0.0
H346 H 0.2768 0.93242 0.20929 0.0
H347 H 0.15346 0.06957 0.08321 0.0
H348 H 0.21031 0.07644 0.12643 0.0
H349 H 0.16266 0.9907 0.20168 0.0
H350 H 0.10495 0.98464 0.15927 0.0
H351 H 0.24906 0.9854 0.16741 0.0
H352 H 0.15392 0.06215 0.23748 0.0
H353 H 0.10645 0.11427 0.24418 0.0
H354 H 0.19652 0.19436 0.21528 0.0
H355 H 0.2443 0.14253 0.20714 0.0
C356 C 0.35798 1.00655 0.31999 0.0
C357 C 0.37983 0.03933 0.32773 0.0
C358 C 0.33072 1.00602 0.28989 0.0
C359 C 0.32538 0.03803 0.26655 0.0
C360 C 0.34813 0.07045 0.2735 0.0
C361 C 0.37507 0.07115 0.30401 0.0
C362 C 0.29345 0.03864 0.23747 0.0
C363 C 0.26561 0.06788 0.23968 0.0
C364 C 0.288 1.00886 0.2105 0.0
C365 C 0.31798 0.97893 0.20416 0.0
C366 C 0.35748 0.98853 0.19715 0.0
C367 C 0.3854 0.96031 0.19038 0.0
C368 C 0.37417 0.92235 0.19027 0.0
C369 C 0.33501 0.91251 0.19702 0.0
C370 C 0.30699 0.9406 0.20393 0.0
C371 C 0.15513 0.05238 0.10912 0.0
C372 C 0.12522 0.02648 0.11811 0.0
C373 C 0.18737 0.05642 0.13367 0.0
C374 C 0.1903 0.03405 0.16694 0.0
C375 C 0.1605 1.00818 0.17601 0.0
C376 C 0.12773 1.00483 0.152 0.0
C377 C 0.22535 0.03656 0.19153 0.0
C378 C 0.25363 1.00806 0.18818 0.0
C379 C 0.23154 0.06724 0.21693 0.0
C380 C 0.20257 0.09835 0.22108 0.0
C381 C 0.16347 0.09078 0.23184 0.0
C382 C 0.13652 0.1203 0.23604 0.0
C383 C 0.14844 0.15759 0.23013 0.0
C384 C 0.18733 0.16544 0.21987 0.0
C385 C 0.21432 0.13599 0.21531 0.0
H386 H 0.12757 0.18041 0.2336 0.0
H387 H 0.3958 0.90056 0.18487 0.0
H388 H 0.97814 0.63194 0.68362 0.0
H389 H 0.97939 0.67919 0.73522 0.0
H390 H -0.00912 0.76749 0.64997 0.0
H391 H -0.00946 0.71996 0.59808 0.0
H392 H 0.03701 0.78264 0.70834 0.0
H393 H 0.90164 0.74775 0.69811 0.0
H394 H 0.84479 0.70458 0.69578 0.0
H395 H 0.87139 0.66558 0.81062 0.0
H396 H 0.92875 0.70816 0.81344 0.0
H397 H 0.9841 0.93383 0.83359 0.0
H398 H 0.98455 0.88636 0.78238 0.0
H399 H 0.98653 0.79796 0.86809 0.0
H400 H 0.98571 0.84538 0.9199 0.0
H401 H 0.93355 0.7834 0.80972 0.0
H402 H 0.06969 0.82042 0.81859 0.0
H403 H 0.12444 0.86596 0.81973 0.0
H404 H 0.0933 0.90408 0.70567 0.0
H405 H 0.03801 0.85897 0.70401 0.0
C406 C 0.98065 0.66144 0.67579 0.0
C407 C 0.98378 0.67218 0.63664 0.0
C408 C 0.9813 0.68852 0.70539 0.0
C409 C 0.9844 0.72715 0.69665 0.0
C410 C 0.98831 0.73793 0.65759 0.0
C411 C 0.98811 0.71074 0.62791 0.0
C412 C 0.98373 0.75611 0.7283 0.0
C413 C 0.01405 0.78304 0.73016 0.0
C414 C 0.95423 0.75648 0.75739 0.0
C415 C 0.91972 0.73088 0.75582 0.0
C416 C 0.89554 0.72976 0.72275 0.0
C417 C 0.8632 0.70543 0.72136 0.0
C418 C 0.85455 0.68228 0.75299 0.0
C419 C 0.87817 0.68349 0.78612 0.0
C420 C 0.91058 0.70774 0.78764 0.0
C421 C 0.98458 0.90434 0.84181 0.0
C422 C 0.98492 0.89362 0.88116 0.0
C423 C 0.98505 0.87716 0.81231 0.0
C424 C 0.98605 0.83854 0.82128 0.0
C425 C 0.98587 0.82761 0.86043 0.0
C426 C 0.9855 0.85482 0.89006 0.0
C427 C 0.98683 0.80966 0.78973 0.0
C428 C 0.95651 0.78284 0.7879 0.0
C429 C 0.01606 0.80966 0.76047 0.0
C430 C 0.04952 0.83653 0.76131 0.0
C431 C 0.07435 0.83869 0.79385 0.0
C432 C 0.10553 0.86442 0.79456 0.0
C433 C 0.11231 0.888 0.7628 0.0
C434 C 0.08799 0.88582 0.73024 0.0
C435 C 0.05677 0.86013 0.72938 0.0
H436 H 0.13646 0.90789 0.76327 0.0
H437 H 0.82949 0.66346 0.75186 0.0
H438 H 0.30671 0.98799 0.60871 0.0
H439 H 0.25251 0.97855 0.65439 0.0
H440 H 0.33162 0.99956 0.75004 0.0
H441 H 0.3862 1.00726 0.70425 0.0
H442 H 0.27997 0.94792 0.76967 0.0
H443 H 0.27519 0.0703 0.71035 0.0
H444 H 0.2732 0.11538 0.65599 0.0
H445 H 0.16419 0.0673 0.61701 0.0
H446 H 0.16586 0.02151 0.67086 0.0
H447 H 0.15546 0.02684 0.91051 0.0
H448 H 0.20447 0.01778 0.86005 0.0
H449 H 0.11393 0.98247 0.78019 0.0
H450 H 0.0642 0.9916 0.83066 0.0
H451 H 0.16701 0.03431 0.7495 0.0
H452 H 0.16953 0.92069 0.82379 0.0
H453 H 0.1746 0.8825 0.88296 0.0
H454 H 0.29283 0.92145 0.90039 0.0
H455 H 0.288 0.96091 0.84183 0.0
C456 C 0.31242 0.98992 0.63957 0.0
C457 C 0.35012 0.99871 0.65331 0.0
C458 C 0.28161 0.98464 0.66554 0.0
C459 C 0.28794 0.98922 0.70548 0.0
C460 C 0.32615 0.99601 0.7193 0.0
C461 C 0.35717 1.00054 0.69329 0.0
C462 C 0.25437 0.99009 0.73257 0.0
C463 C 0.25535 0.96692 0.76548 0.0
C464 C 0.22208 1.0146 0.72663 0.0
C465 C 0.22089 0.0422 0.69433 0.0
C466 C 0.25095 0.06916 0.69001 0.0
C467 C 0.24987 0.09485 0.65932 0.0
C468 C 0.21865 0.09413 0.63299 0.0
C469 C 0.1884 0.06776 0.63738 0.0
C470 C 0.18939 0.04194 0.66797 0.0
C471 C 0.1458 0.01715 0.88226 0.0
C472 C 0.10593 1.00973 0.87463 0.0
C473 C 0.17391 1.01189 0.85353 0.0
C474 C 0.16275 0.99884 0.8168 0.0
C475 C 0.12295 0.99235 0.80859 0.0
C476 C 0.09465 0.9977 0.83737 0.0
C477 C 0.19292 0.99261 0.78692 0.0
C478 C 0.1913 1.01483 0.75345 0.0
C479 C 0.22514 0.96806 0.79308 0.0
C480 C 0.2283 0.94388 0.82822 0.0
C481 C 0.19655 0.92127 0.84022 0.0
C482 C 0.19939 0.89939 0.87377 0.0
C483 C 0.23411 0.89938 0.89538 0.0
C484 C 0.26597 0.92142 0.88357 0.0
C485 C 0.26316 0.9436 0.85019 0.0
H486 H 0.23639 0.8823 0.92123 0.0
H487 H 0.21785 0.11406 0.60926 0.0
H488 H 0.97497 0.39685 0.68369 0.0
H489 H 0.97555 0.34894 0.73458 0.0
H490 H -0.00796 0.26197 0.64845 0.0
H491 H -0.00888 0.30994 0.59712 0.0
H492 H 0.93553 0.24253 0.70308 0.0
H493 H 0.06792 0.28907 0.70304 0.0
H494 H 0.12001 0.33746 0.7055 0.0
H495 H 0.08054 0.37244 0.81824 0.0
H496 H 0.02782 0.3246 0.81623 0.0
H497 H 0.98608 0.09488 0.83231 0.0
H498 H 0.98604 0.14198 0.78094 0.0
H499 H 0.97996 0.2309 0.86634 0.0
H500 H 0.98074 0.18388 0.91822 0.0
H501 H 0.03121 0.24915 0.8115 0.0
H502 H 0.89877 0.20379 0.81218 0.0
H503 H 0.84659 0.15544 0.81088 0.0
H504 H 0.88483 0.11906 0.69819 0.0
H505 H 0.93764 0.16685 0.69906 0.0
C506 C 0.97846 0.36751 0.67545 0.0
C507 C 0.98287 0.35729 0.6362 0.0
C508 C 0.97909 0.34013 0.70468 0.0
C509 C 0.9841 0.30178 0.69549 0.0
C510 C 0.98819 0.29136 0.65632 0.0
C511 C 0.98791 0.31884 0.62701 0.0
C512 C 0.98496 0.27272 0.72683 0.0
C513 C 0.95682 0.24366 0.72648 0.0
C514 C 0.01201 0.27467 0.75802 0.0
C515 C 0.04366 0.3035 0.7593 0.0
C516 C 0.07011 0.30731 0.72821 0.0
C517 C 0.0998 0.33459 0.72955 0.0
C518 C 0.10351 0.35808 0.76196 0.0
C519 C 0.07759 0.35426 0.79313 0.0
C520 C 0.04782 0.32705 0.79192 0.0
C521 C 0.98461 0.12441 0.8404 0.0
C522 C 0.98322 0.13536 0.8797 0.0
C523 C 0.98443 0.15141 0.8108 0.0
C524 C 0.98242 0.19013 0.81955 0.0
C525 C 0.98144 0.20124 0.85872 0.0
C526 C 0.98177 0.17422 0.88843 0.0
C527 C 0.98172 0.21892 0.78787 0.0
C528 C 0.00988 0.24796 0.78813 0.0
C529 C 0.95452 0.21708 0.75674 0.0
C530 C 0.92241 0.18868 0.75585 0.0
C531 C 0.89622 0.18532 0.78722 0.0
C532 C 0.86651 0.15803 0.78656 0.0
C533 C 0.86246 0.13412 0.75453 0.0
C534 C 0.88803 0.13756 0.72302 0.0
C535 C 0.91784 0.16478 0.72356 0.0
H536 H 0.83948 0.11297 0.75409 0.0
H537 H 0.12653 0.37917 0.76295 0.0
H538 H 0.5647 0.01712 0.71881 0.0
H539 H 0.61447 1.01555 0.77044 0.0
H540 H 0.70612 0.0262 0.68454 0.0
H541 H 0.65681 0.02698 0.63326 0.0
H542 H 0.72277 0.97153 0.7324 0.0
H543 H 0.67729 0.09976 0.74396 0.0
H544 H 0.62993 0.15145 0.75441 0.0
H545 H 0.60295 0.10812 0.8675 0.0
H546 H 0.64959 0.05569 0.85743 0.0
H547 H 0.88862 0.02385 0.84253 0.0
H548 H 0.83279 0.02371 0.79817 0.0
H549 H 0.7541 1.00216 0.89369 0.0
H550 H 0.80956 1.00247 0.93846 0.0
H551 H 0.72751 0.05816 0.84552 0.0
H552 H 0.77731 0.93209 0.83401 0.0
H553 H 0.82861 0.88383 0.82406 0.0
H554 H 0.85044 0.92671 0.70972 0.0
H555 H 0.79964 0.97555 0.71928 0.0
C556 C 0.5955 0.01939 0.71122 0.0
C557 C 0.60713 0.02175 0.67224 0.0
C558 C 0.62382 0.01858 0.74059 0.0
C559 C 0.66395 0.02079 0.73125 0.0
C560 C 0.67534 0.02412 0.69234 0.0
C561 C 0.64721 0.02452 0.66311 0.0
C562 C 0.69457 0.0182 0.7615 0.0
C563 C 0.72396 0.99073 0.75694 0.0
C564 C 0.69544 0.04255 0.79409 0.0
C565 C 0.66653 0.07345 0.79969 0.0
C566 C 0.66085 0.10092 0.77084 0.0
C567 C 0.63421 0.13042 0.77674 0.0
C568 C 0.61332 0.13298 0.81153 0.0
C569 C 0.61903 0.10602 0.8405 0.0
C570 C 0.64554 0.07639 0.83469 0.0
C571 C 0.85951 0.0189 0.85417 0.0
C572 C 0.85361 1.01311 0.89406 0.0
C573 C 0.82767 0.01878 0.82876 0.0
C574 C 0.78951 1.01252 0.84274 0.0
C575 C 0.78341 1.00698 0.88246 0.0
C576 C 0.8152 1.00716 0.90794 0.0
C577 C 0.75592 1.01216 0.81578 0.0
C578 C 0.72597 0.03884 0.82109 0.0
C579 C 0.75467 0.98736 0.78366 0.0
C580 C 0.78483 0.95763 0.77753 0.0
C581 C 0.79321 0.93133 0.80687 0.0
C582 C 0.82218 0.90387 0.80128 0.0
C583 C 0.84283 0.90226 0.76631 0.0
C584 C 0.83443 0.92801 0.73681 0.0
C585 C 0.80551 0.95556 0.74229 0.0
H586 H 0.86529 0.88102 0.76205 0.0
H587 H 0.59284 0.15593 0.81611 0.0
H588 H 0.3979 0.31239 0.01356 0.0
H589 H 0.34667 0.26391 0.01001 0.0
H590 H 0.25903 0.34717 0.03939 0.0
H591 H 0.31001 0.39564 0.04314 0.0
H592 H 0.24547 0.28224 0.07723 0.0
H593 H 0.27321 0.31925 0.94561 0.0
H594 H 0.31541 0.33055 0.88865 0.0
H595 H 0.34941 0.21381 0.88773 0.0
H596 H 0.3078 0.20192 0.94503 0.0
H597 H 0.07555 0.184 0.0135 0.0
H598 H 0.12801 0.23091 0.01858 0.0
H599 H 0.21424 0.14496 0.99396 0.0
H600 H 0.16225 0.09793 0.98836 0.0
H601 H 0.22902 0.21013 0.95472 0.0
H602 H 0.19778 0.17229 0.0843 0.0
H603 H 0.15238 0.16059 0.13858 0.0
H604 H 0.12428 0.27868 0.14369 0.0
H605 H 0.16852 0.29095 0.0884 0.0
C606 C 0.36771 0.32033 0.01924 0.0
C607 C 0.35799 0.35785 0.02853 0.0
C608 C 0.33848 0.29262 0.01726 0.0
C609 C 0.29895 0.30203 0.02402 0.0
C610 C 0.28933 0.33926 0.03419 0.0
C611 C 0.31853 0.3669 0.03637 0.0
C612 C 0.26741 0.27344 0.01927 0.0
C613 C 0.24161 0.26674 0.05033 0.0
C614 C 0.26282 0.25272 0.9844 0.0
C615 C 0.28771 0.25979 0.94984 0.0
C616 C 0.28991 0.29605 0.93343 0.0
C617 C 0.31369 0.30255 0.90106 0.0
C618 C 0.33516 0.27294 0.88465 0.0
C619 C 0.33281 0.23673 0.90051 0.0
C620 C 0.30912 0.23009 0.93291 0.0
C621 C 0.10561 0.17505 0.00882 0.0
C622 C 0.11459 0.13706 1.00071 0.0
C623 C 0.13556 0.20191 0.01192 0.0
C624 C 0.175 0.19126 1.00712 0.0
C625 C 0.18399 0.1537 0.99786 0.0
C626 C 0.15413 0.12683 0.9948 0.0
C627 C 0.20706 0.21906 0.01256 0.0
C628 C 0.23296 0.22557 0.98166 0.0
C629 C 0.21167 0.23954 0.04758 0.0
C630 C 0.18617 0.23248 0.08182 0.0
C631 C 0.18171 0.19576 0.09675 0.0
C632 C 0.15612 0.18901 0.12768 0.0
C633 C 0.13537 0.21888 0.1445 0.0
C634 C 0.1403 0.25557 0.13052 0.0
C635 C 0.16557 0.26243 0.09932 0.0
H636 H 0.1155 0.2136 0.16838 0.0
H637 H 0.35354 0.27803 0.85958 0.0
H638 H 0.40207 0.7209 0.00841 0.0
H639 H 0.35119 0.76964 1.00325 0.0
H640 H 0.26243 0.68718 0.03168 0.0
H641 H 0.31284 0.63835 0.03611 0.0
H642 H 0.241 0.72949 0.9702 0.0
H643 H 0.29325 0.75053 0.0978 0.0
H644 H 0.34325 0.76412 0.14767 0.0
H645 H 0.3693 0.87009 0.09313 0.0
H646 H 0.31999 0.85679 0.04242 0.0
H647 H 0.08016 0.84911 0.014 0.0
H648 H 0.13319 0.80285 0.01572 0.0
H649 H 0.21765 0.89068 0.99187 0.0
H650 H 0.16499 0.93727 0.99037 0.0
H651 H 0.24265 0.84695 0.04881 0.0
H652 H 0.191 0.82625 0.92145 0.0
H653 H 0.13879 0.8148 0.87314 0.0
H654 H 0.11094 0.70936 0.92793 0.0
H655 H 0.16265 0.72057 0.97684 0.0
C656 C 0.37169 0.71321 0.01348 0.0
C657 C 0.36149 0.67585 0.0229 0.0
C658 C 0.34271 0.74109 0.01078 0.0
C659 C 0.30307 0.73206 0.01738 0.0
C660 C 0.29285 0.69477 0.02658 0.0
C661 C 0.32174 0.66698 0.02944 0.0
C662 C 0.27198 0.76117 0.01404 0.0
C663 C 0.24116 0.755 0.98768 0.0
C664 C 0.27275 0.7949 0.03614 0.0
C665 C 0.30327 0.8024 0.06597 0.0
C666 C 0.31003 0.77648 0.09609 0.0
C667 C 0.33817 0.78419 0.12458 0.0
C668 C 0.35953 0.81789 0.12349 0.0
C669 C 0.35282 0.84394 0.09386 0.0
C670 C 0.3248 0.83631 0.06522 0.0
C671 C 0.10994 0.85865 0.00881 0.0
C672 C 0.1182 0.89701 1.00206 0.0
C673 C 0.14025 0.83208 0.00967 0.0
C674 C 0.17934 0.84322 1.00339 0.0
C675 C 0.18768 0.88143 0.99661 0.0
C676 C 0.15745 0.90804 0.99579 0.0
C677 C 0.21168 0.81522 1.00508 0.0
C678 C 0.2427 0.82156 0.03113 0.0
C679 C 0.21117 0.78171 0.98266 0.0
C680 C 0.18044 0.77448 0.95298 0.0
C681 C 0.17353 0.8008 0.92329 0.0
C682 C 0.14407 0.79433 0.8958 0.0
C683 C 0.12147 0.76143 0.89753 0.0
C684 C 0.12843 0.73487 0.92666 0.0
C685 C 0.15786 0.74126 0.95424 0.0
H686 H 0.09863 0.75648 0.87626 0.0
H687 H 0.38117 0.82388 0.14568 0.0
H688 H 0.61959 0.34931 0.94844 0.0
H689 H 0.6714 0.30183 0.94963 0.0
H690 H 0.66633 0.29962 0.07463 0.0
H691 H 0.61657 0.34903 0.07384 0.0
H692 H 0.73851 0.30012 0.0544 0.0
H693 H 0.62624 0.22838 0.01423 0.0
H694 H 0.56894 0.21063 0.97436 0.0
H695 H 0.64342 0.19797 0.87468 0.0
H696 H 0.70109 0.21636 0.91378 0.0
H697 H 0.81409 0.09304 0.02252 0.0
H698 H 0.76161 0.13963 0.02439 0.0
H699 H 0.8461 0.22853 1.00488 0.0
H700 H 0.89909 0.18224 1.00468 0.0
H701 H 0.73341 0.18378 0.97423 0.0
H702 H 0.82184 0.30611 0.03798 0.0
H703 H 0.87622 0.31671 0.08428 0.0
H704 H 0.84096 0.21881 0.14883 0.0
H705 H 0.78581 0.20847 0.10332 0.0
C706 C 0.62966 0.33901 0.97625 0.0
C707 C 0.61378 0.35319 0.01106 0.0
C708 C 0.659 0.31142 0.97685 0.0
C709 C 0.67255 0.29676 0.0122 0.0
C710 C 0.65638 0.31043 0.04695 0.0
C711 C 0.62746 0.3384 0.04642 0.0
C712 C 0.70434 0.26799 0.01314 0.0
C713 C 0.73723 0.27466 0.03688 0.0
C714 C 0.70276 0.23448 0.99066 0.0
C715 C 0.66795 0.22419 0.96687 0.0
C716 C 0.63035 0.22225 0.98371 0.0
C717 C 0.59781 0.212 0.96125 0.0
C718 C 0.60252 0.20329 0.92198 0.0
C719 C 0.6398 0.20482 0.90508 0.0
C720 C 0.67242 0.21517 0.92737 0.0
C721 C 0.82171 0.12253 0.01907 0.0
C722 C 0.86101 0.13381 0.01389 0.0
C723 C 0.79152 0.14919 0.01989 0.0
C724 C 0.79982 0.18777 0.01546 0.0
C725 C 0.83895 0.19911 0.00962 0.0
C726 C 0.86927 0.17247 0.00917 0.0
C727 C 0.76729 0.21582 0.0156 0.0
C728 C 0.73449 0.20921 0.99179 0.0
C729 C 0.76832 0.24878 0.03885 0.0
C730 C 0.80043 0.25594 0.0669 0.0
C731 C 0.82569 0.28697 0.06214 0.0
C732 C 0.85658 0.29298 0.08823 0.0
C733 C 0.86223 0.26828 0.11933 0.0
C734 C 0.83677 0.23774 0.12459 0.0
C735 C 0.80582 0.23172 0.09862 0.0
H736 H 0.8862 0.2729 0.13943 0.0
H737 H 0.57731 0.19524 0.90468 0.0
H738 H 0.66746 0.63454 0.99888 0.0
H739 H 0.7186 0.68287 1.00102 0.0
H740 H 0.63149 0.76734 0.02816 0.0
H741 H 0.57983 0.71906 0.02522 0.0
H742 H 0.68344 0.79146 0.97276 0.0
H743 H 0.6897 0.73467 0.09826 0.0
H744 H 0.69437 0.68262 0.14538 0.0
H745 H 0.80692 0.65137 0.0991 0.0
H746 H 0.80266 0.70291 0.05127 0.0
H747 H 0.81751 0.93367 0.02895 0.0
H748 H 0.76553 0.88646 0.03038 0.0
H749 H 0.84986 0.79921 1.00409 0.0
H750 H 0.9025 0.84629 1.00301 0.0
H751 H 0.79834 0.77746 0.06025 0.0
H752 H 0.79153 0.83452 0.93434 0.0
H753 H 0.78759 0.88807 0.88913 0.0
H754 H 0.67571 0.91956 0.93683 0.0
H755 H 0.67945 0.86662 0.98309 0.0
C756 C 0.65909 0.66346 1.0049 0.0
C757 C 0.61958 0.67303 0.01178 0.0
C758 C 0.6884 0.69098 1.00649 0.0
C759 C 0.67888 0.72859 0.01515 0.0
C760 C 0.63944 0.73841 0.02156 0.0
C761 C 0.61004 0.71081 0.02012 0.0
C762 C 0.71024 0.75758 0.01729 0.0
C763 C 0.70827 0.78872 0.99228 0.0
C764 C 0.74303 0.75351 0.04222 0.0
C765 C 0.74566 0.72243 0.07091 0.0
C766 C 0.71529 0.71649 0.09788 0.0
C767 C 0.71789 0.68712 0.12477 0.0
C768 C 0.75087 0.66364 0.12517 0.0
C769 C 0.78136 0.66954 0.09872 0.0
C770 C 0.77888 0.69885 0.07173 0.0
C771 C 0.82521 0.90448 0.02342 0.0
C772 C 0.86427 0.89389 0.01545 0.0
C773 C 0.79534 0.87752 0.02424 0.0
C774 C 0.80375 0.83945 0.01675 0.0
C775 C 0.84277 0.82852 0.00981 0.0
C776 C 0.87279 0.8555 0.00911 0.0
C777 C 0.77164 0.81118 0.01558 0.0
C778 C 0.77347 0.78021 0.04077 0.0
C779 C 0.73871 0.81543 0.99085 0.0
C780 C 0.73595 0.84678 0.96245 0.0
C781 C 0.76619 0.85299 0.93538 0.0
C782 C 0.76399 0.88326 0.90954 0.0
C783 C 0.73141 0.90726 0.91009 0.0
C784 C 0.70094 0.90097 0.93646 0.0
C785 C 0.7031 0.87084 0.96252 0.0
H786 H 0.7297 0.93068 0.89006 0.0
H787 H 0.75285 0.64093 0.14603 0.0
loop_
_geom_bond_atom_site_label_1
_geom_bond_atom_site_label_2
_geom_bond_distance
_geom_bond_site_symmetry_2
_ccdc_geom_bond_type
C0 C1 1.366 1_455 S
C0 C2 1.384 . S
C0 H28 0.931 . S
C1 C0 1.366 1_655 S
C1 C4 1.402 . S
C2 C0 1.384 . S
C2 C3 1.381 1_455 S
C2 H29 0.930 . S
C3 C2 1.381 1_655 S
C3 C5 1.381 . S
C3 C6 1.487 . S
C4 C1 1.402 . S
C4 C5 1.387 . S
C4 H30 0.930 . S
C5 C3 1.381 . S
C5 C4 1.387 . S
C5 H31 0.931 . S
C6 C3 1.487 . S
C6 C13 1.399 1_655 S
C6 N44 1.343 . S
C7 C8 1.384 1_655 S
C7 C9 1.384 . S
C7 H32 0.931 . S
C8 C7 1.384 1_455 S
C8 C11 1.382 . S
C9 C7 1.384 . S
C9 C10 1.381 1_655 S
C9 H33 0.930 . S
C10 C9 1.381 1_455 S
C10 C12 1.381 . S
C10 C13 1.487 . S
C11 C8 1.382 . S
C11 C12 1.387 . S
C11 H34 0.930 . S
C12 C10 1.381 . S
C12 C11 1.387 . S
C12 H35 0.931 . S
C13 C6 1.399 1_455 S
C13 C10 1.487 . S
C13 N45 1.343 . S
C14 C15 1.384 1_655 S
C14 C16 1.384 . S
C14 H36 0.931 . S
C15 C14 1.384 1_455 S
C15 C18 1.382 . S
C16 C14 1.384 . S
C16 C17 1.381 1_655 S
C16 H37 0.930 . S
C17 C16 1.381 1_455 S
C17 C19 1.381 . S
C17 C20 1.487 . S
C18 C15 1.382 . S
C18 C19 1.387 . S
C18 H38 0.930 . S
C19 C17 1.381 . S
C19 C18 1.387 . S
C19 H39 0.931 . S
C20 C17 1.487 . S
C20 C27 1.399 1_455 S
C20 N45 1.343 . S
C21 C22 1.366 1_455 S
C21 C23 1.384 . S
C21 H40 0.931 . S
C22 C21 1.366 1_655 S
C22 C25 1.402 . S
C23 C21 1.384 . S
C23 C24 1.381 1_455 S
C23 H41 0.930 . S
C24 C23 1.381 1_655 S
C24 C26 1.381 . S
C24 C27 1.487 . S
C25 C22 1.402 . S
C25 C26 1.387 . S
C25 H42 0.930 . S
C26 C24 1.381 . S
C26 C25 1.387 . S
C26 H43 0.931 . S
C27 C20 1.399 1_655 S
C27 C24 1.487 . S
C27 N44 1.343 . S
H28 C0 0.931 . S
H29 C2 0.930 . S
H30 C4 0.930 . S
H31 C5 0.931 . S
H32 C7 0.931 . S
H33 C9 0.930 . S
H34 C11 0.930 . S
H35 C12 0.931 . S
H36 C14 0.931 . S
H37 C16 0.930 . S
H38 C18 0.930 . S
H39 C19 0.931 . S
H40 C21 0.931 . S
H41 C23 0.930 . S
H42 C25 0.930 . S
H43 C26 0.931 . S
N44 C6 1.343 . S
N44 C27 1.343 . S
N45 C13 1.343 . S
N45 C20 1.343 . S
C46 C47 1.366 1_545 S
C46 C48 1.384 . S
C46 H74 0.931 . S
C47 C46 1.366 1_565 S
C47 C50 1.401 . S
C48 C46 1.384 . S
C48 C49 1.381 1_545 S
C48 H75 0.930 . S
C49 C48 1.381 1_565 S
C49 C51 1.381 . S
C49 C52 1.487 . S
C50 C47 1.401 . S
C50 C51 1.387 . S
C50 H76 0.930 . S
C51 C49 1.381 . S
C51 C50 1.387 . S
C51 H77 0.931 . S
C52 C49 1.487 . S
C52 C59 1.399 1_565 S
C52 N90 1.343 . S
C53 C54 1.384 1_565 S
C53 C55 1.384 . S
C53 H78 0.931 . S
C54 C53 1.384 1_545 S
C54 C57 1.382 . S
C55 C53 1.384 . S
C55 C56 1.381 1_565 S
C55 H79 0.930 . S
C56 C55 1.381 1_545 S
C56 C58 1.381 . S
C56 C59 1.487 . S
C57 C54 1.382 . S
C57 C58 1.387 . S
C57 H80 0.930 . S
C58 C56 1.381 . S
C58 C57 1.387 . S
C58 H81 0.931 . S
C59 C52 1.399 1_545 S
C59 C56 1.487 . S
C59 N91 1.343 . S
C60 C61 1.384 1_565 S
C60 C62 1.384 . S
C60 H82 0.931 . S
C61 C60 1.384 1_545 S
C61 C64 1.382 . S
C62 C60 1.384 . S
C62 C63 1.381 1_565 S
C62 H83 0.930 . S
C63 C62 1.381 1_545 S
C63 C65 1.381 . S
C63 C66 1.487 . S
C64 C61 1.382 . S
C64 C65 1.387 . S
C64 H84 0.930 . S
C65 C63 1.381 . S
C65 C64 1.387 . S
C65 H85 0.931 . S
C66 C63 1.487 . S
C66 C73 1.399 1_545 S
C66 N91 1.343 . S
C67 C68 1.366 1_545 S
C67 C69 1.384 . S
C67 H86 0.931 . S
C68 C67 1.366 1_565 S
C68 C71 1.401 . S
C69 C67 1.384 . S
C69 C70 1.381 1_545 S
C69 H87 0.930 . S
C70 C69 1.381 1_565 S
C70 C72 1.381 . S
C70 C73 1.487 . S
C71 C68 1.401 . S
C71 C72 1.387 . S
C71 H88 0.930 . S
C72 C70 1.381 . S
C72 C71 1.387 . S
C72 H89 0.931 . S
C73 C66 1.399 1_565 S
C73 C70 1.487 . S
C73 N90 1.343 . S
H74 C46 0.931 . S
H75 C48 0.930 . S
H76 C50 0.930 . S
H77 C51 0.931 . S
H78 C53 0.931 . S
H79 C55 0.930 . S
H80 C57 0.930 . S
H81 C58 0.931 . S
H82 C60 0.931 . S
H83 C62 0.930 . S
H84 C64 0.930 . S
H85 C65 0.931 . S
H86 C67 0.931 . S
H87 C69 0.930 . S
H88 C71 0.930 . S
H89 C72 0.931 . S
N90 C52 1.343 . S
N90 C73 1.343 . S
N91 C59 1.343 . S
N91 C66 1.343 . S
C92 C93 1.384 1_556 S
C92 C94 1.384 . S
C92 H120 0.931 . S
C93 C92 1.384 1_554 S
C93 C96 1.382 . S
C94 C92 1.384 . S
C94 C95 1.381 1_556 S
C94 H121 0.930 . S
C95 C94 1.381 1_554 S
C95 C97 1.381 . S
C95 C98 1.487 . S
C96 C93 1.382 . S
C96 C97 1.387 . S
C96 H122 0.930 . S
C97 C95 1.381 . S
C97 C96 1.387 . S
C97 H123 0.931 . S
C98 C95 1.487 . S
C98 C105 1.399 1_554 S
C98 N136 1.343 . S
C99 C100 1.366 1_554 S
C99 C101 1.384 . S
C99 H124 0.931 . S
C100 C99 1.366 1_556 S
C100 C103 1.402 . S
C101 C99 1.384 . S
C101 C102 1.381 1_554 S
C101 H125 0.930 . S
C102 C101 1.381 1_556 S
C102 C104 1.381 . S
C102 C105 1.487 . S
C103 C100 1.402 . S
C103 C104 1.387 . S
C103 H126 0.930 . S
C104 C102 1.381 . S
C104 C103 1.387 . S
C104 H127 0.931 . S
C105 C98 1.399 1_556 S
C105 C102 1.487 . S
C105 N137 1.343 . S
C106 C107 1.366 1_554 S
C106 C108 1.384 . S
C106 H128 0.931 . S
C107 C106 1.366 1_556 S
C107 C110 1.402 . S
C108 C106 1.384 . S
C108 C109 1.381 1_554 S
C108 H129 0.930 . S
C109 C108 1.381 1_556 S
C109 C111 1.381 . S
C109 C112 1.487 . S
C110 C107 1.402 . S
C110 C111 1.387 . S
C110 H130 0.930 . S
C111 C109 1.381 . S
C111 C110 1.387 . S
C111 H131 0.931 . S
C112 C109 1.487 . S
C112 C119 1.399 1_556 S
C112 N137 1.343 . S
C113 C114 1.384 1_556 S
C113 C115 1.384 . S
C113 H132 0.931 . S
C114 C113 1.384 1_554 S
C114 C117 1.382 . S
C115 C113 1.384 . S
C115 C116 1.381 1_556 S
C115 H133 0.930 . S
C116 C115 1.381 1_554 S
C116 C118 1.381 . S
C116 C119 1.487 . S
C117 C114 1.382 . S
C117 C118 1.387 . S
C117 H134 0.930 . S
C118 C116 1.381 . S
C118 C117 1.387 . S
C118 H135 0.931 . S
C119 C112 1.399 1_554 S
C119 C116 1.487 . S
C119 N136 1.343 . S
H120 C92 0.931 . S
H121 C94 0.930 . S
H122 C96 0.930 . S
H123 C97 0.931 . S
H124 C99 0.931 . S
H125 C101 0.930 . S
H126 C103 0.930 . S
H127 C104 0.931 . S
H128 C106 0.931 . S
H129 C108 0.930 . S
H130 C110 0.930 . S
H131 C111 0.931 . S
H132 C113 0.931 . S
H133 C115 0.930 . S
H134 C117 0.930 . S
H135 C118 0.931 . S
N136 C98 1.343 . S
N136 C119 1.343 . S
N137 C105 1.343 . S
N137 C112 1.343 . S
C138 O164 1.283 . S
C138 O182 1.283 . S
C139 O165 1.283 . S
C139 O180 1.283 . S
C140 O166 1.283 . S
C140 O183 1.283 . S
C141 O167 1.283 . S
C141 O181 1.283 . S
C142 O168 1.283 . S
C142 O177 1.283 . S
C143 O169 1.283 . S
C143 O179 1.283 . S
C144 O170 1.283 . S
C144 O176 1.283 . S
C145 O171 1.283 . S
C145 O178 1.283 . S
C146 O172 1.283 . S
C146 O187 1.283 . S
C147 O173 1.283 . S
C147 O185 1.283 . S
C148 O174 1.283 . S
C148 O186 1.283 . S
C149 O175 1.283 . S
C149 O184 1.283 . S
Eu150 O151 2.370 . S
Eu150 O152 2.370 1_454 S
Eu150 O155 2.370 1_554 S
Eu150 O156 2.370 1_455 S
Eu150 O164 2.363 1_554 S
Eu150 O165 2.363 . S
Eu150 O178 2.363 1_455 S
Eu150 O179 2.363 . S
O151 Eu150 2.370 . S
O151 Eu153 2.370 . S
O151 Eu158 2.370 . S
O152 Eu150 2.370 1_656 S
O152 Eu154 2.370 1_556 S
O152 Eu157 2.370 1_655 S
Eu153 O151 2.370 . S
Eu153 O155 2.370 1_554 S
Eu153 O159 2.370 1_544 S
Eu153 O160 2.370 1_545 S
Eu153 O168 2.363 1_545 S
Eu153 O169 2.363 . S
Eu153 O184 2.363 1_554 S
Eu153 O185 2.363 . S
Eu154 O152 2.370 1_554 S
Eu154 O156 2.370 . S
Eu154 O161 2.370 1_545 S
Eu154 O162 2.370 1_544 S
Eu154 O170 2.363 1_545 S
Eu154 O171 2.363 . S
Eu154 O186 2.363 1_554 S
Eu154 O187 2.363 . S
O155 Eu150 2.370 1_556 S
O155 Eu153 2.370 1_556 S
O155 Eu157 2.370 . S
O156 Eu150 2.370 1_655 S
O156 Eu154 2.370 . S
O156 Eu158 2.370 1_655 S
Eu157 O152 2.370 1_455 S
Eu157 O155 2.370 . S
Eu157 O159 2.370 1_545 S
Eu157 O162 2.370 1_445 S
Eu157 O174 2.363 1_455 S
Eu157 O175 2.363 . S
Eu157 O182 2.363 . S
Eu157 O183 2.363 1_545 S
Eu158 O151 2.370 . S
Eu158 O156 2.370 1_455 S
Eu158 O160 2.370 1_545 S
Eu158 O161 2.370 1_445 S
Eu158 O172 2.363 1_455 S
Eu158 O173 2.363 . S
Eu158 O180 2.363 . S
Eu158 O181 2.363 1_545 S
O159 Eu153 2.370 1_566 S
O159 Eu157 2.370 1_565 S
O159 Eu163 2.370 1_556 S
O160 Eu153 2.370 1_565 S
O160 Eu158 2.370 1_565 S
O160 Eu163 2.370 . S
O161 Eu154 2.370 1_565 S
O161 Eu158 2.370 1_665 S
O161 Eu163 2.370 1_655 S
O162 Eu154 2.370 1_566 S
O162 Eu157 2.370 1_665 S
O162 Eu163 2.370 1_656 S
Eu163 O159 2.370 1_554 S
Eu163 O160 2.370 . S
Eu163 O161 2.370 1_455 S
Eu163 O162 2.370 1_454 S
Eu163 O166 2.363 1_554 S
Eu163 O167 2.363 . S
Eu163 O176 2.363 1_455 S
Eu163 O177 2.363 . S
O164 C138 1.283 . S
O164 Eu150 2.363 1_556 S
O165 C139 1.283 . S
O165 Eu150 2.363 . S
O166 C140 1.283 . S
O166 Eu163 2.363 1_556 S
O167 C141 1.283 . S
O167 Eu163 2.363 . S
O168 C142 1.283 . S
O168 Eu153 2.363 1_565 S
O169 C143 1.283 . S
O169 Eu153 2.363 . S
O170 C144 1.283 . S
O170 Eu154 2.363 1_565 S
O171 C145 1.283 . S
O171 Eu154 2.363 . S
O172 C146 1.283 . S
O172 Eu158 2.363 1_655 S
O173 C147 1.283 . S
O173 Eu158 2.363 . S
O174 C148 1.283 . S
O174 Eu157 2.363 1_655 S
O175 C149 1.283 . S
O175 Eu157 2.363 . S
O176 C144 1.283 . S
O176 Eu163 2.363 1_655 S
O177 C142 1.283 . S
O177 Eu163 2.363 . S
O178 C145 1.283 . S
O178 Eu150 2.363 1_655 S
O179 C143 1.283 . S
O179 Eu150 2.363 . S
O180 C139 1.283 . S
O180 Eu158 2.363 . S
O181 C141 1.283 . S
O181 Eu158 2.363 1_565 S
O182 C138 1.283 . S
O182 Eu157 2.363 . S
O183 C140 1.283 . S
O183 Eu157 2.363 1_565 S
O184 C149 1.283 . S
O184 Eu153 2.363 1_556 S
O185 C147 1.283 . S
O185 Eu153 2.363 . S
O186 C148 1.283 . S
O186 Eu154 2.363 1_556 S
O187 C146 1.283 . S
O187 Eu154 2.363 . S
H188 C206 0.951 . S
H189 C208 0.951 . S
H190 C210 0.950 . S
H191 C211 0.950 . S
H192 C213 0.950 . S
H193 C216 0.963 . S
H194 C217 0.950 . S
H195 C219 0.950 . S
H196 C220 0.950 . S
H197 C221 0.951 . S
H198 C223 0.951 . S
H199 C225 0.950 . S
H200 C226 0.950 . S
H201 C228 0.950 . S
H202 C231 0.957 . S
H203 C232 0.950 . S
H204 C234 0.950 . S
H205 C235 0.950 . S
C206 H188 0.951 . S
C206 C207 1.365 . S
C206 C208 1.388 . S
C207 C206 1.365 . S
C207 C211 1.385 1_455 S
C208 H189 0.951 . S
C208 C206 1.388 . S
C208 C209 1.365 . S
C209 C208 1.365 . S
C209 C210 1.415 1_455 S
C209 C212 1.499 1_455 S
C210 H190 0.950 . S
C210 C209 1.415 1_655 S
C210 C211 1.374 . S
C211 H191 0.950 . S
C211 C207 1.385 1_655 S
C211 C210 1.374 . S
C212 C209 1.499 1_655 S
C212 C213 1.373 . S
C212 C214 1.389 1_655 S
C213 H192 0.950 . S
C213 C212 1.373 . S
C213 C229 1.377 . S
C214 C212 1.389 1_455 S
C214 C215 1.524 . S
C214 C228 1.377 . S
C215 C214 1.524 . S
C215 C216 1.397 . S
C215 C220 1.363 . S
C216 H193 0.963 . S
C216 C215 1.397 . S
C216 C217 1.334 . S
C217 H194 0.950 . S
C217 C216 1.334 . S
C217 C218 1.287 . S
C218 C217 1.287 . S
C218 C219 1.524 . S
C218 H237 0.913 . S
C219 H195 0.950 . S
C219 C218 1.524 . S
C219 C220 1.415 . S
C220 H196 0.950 . S
C220 C215 1.363 . S
C220 C219 1.415 . S
C221 H197 0.951 . S
C221 C222 1.365 1_655 S
C221 C223 1.388 . S
C222 C221 1.365 1_455 S
C222 C226 1.385 . S
C223 H198 0.951 . S
C223 C221 1.388 . S
C223 C224 1.365 1_655 S
C224 C223 1.365 1_455 S
C224 C225 1.415 . S
C224 C227 1.499 . S
C225 H199 0.950 . S
C225 C224 1.415 . S
C225 C226 1.374 . S
C226 H200 0.950 . S
C226 C222 1.385 . S
C226 C225 1.374 . S
C227 C224 1.499 . S
C227 C228 1.373 . S
C227 C229 1.389 1_455 S
C228 H201 0.950 . S
C228 C214 1.377 . S
C228 C227 1.373 . S
C229 C213 1.377 . S
C229 C227 1.389 1_655 S
C229 C230 1.524 . S
C230 C229 1.524 . S
C230 C231 1.397 . S
C230 C235 1.363 . S
C231 H202 0.957 . S
C231 C230 1.397 . S
C231 C232 1.334 . S
C232 H203 0.950 . S
C232 C231 1.334 . S
C232 C233 1.287 . S
C233 C232 1.287 . S
C233 C234 1.524 . S
C233 H236 0.999 . S
C234 H204 0.950 . S
C234 C233 1.524 . S
C234 C235 1.415 . S
C235 H205 0.950 . S
C235 C230 1.363 . S
C235 C234 1.415 . S
H236 C233 0.999 . S
H237 C218 0.913 . S
H238 C256 0.951 . S
H239 C258 0.951 . S
H240 C260 0.950 . S
H241 C261 0.950 . S
H242 C263 0.950 . S
H243 C266 0.950 . S
H244 C267 0.950 . S
H245 C269 0.950 . S
H246 C270 0.950 . S
H247 C271 0.951 . S
H248 C273 0.951 . S
H249 C275 0.950 . S
H250 C276 0.950 . S
H251 C278 0.950 . S
H252 C281 0.950 . S
H253 C282 0.950 . S
H254 C284 0.950 . S
H255 C285 0.950 . S
C256 H238 0.951 . S
C256 C257 1.365 1_565 S
C256 C258 1.388 . S
C257 C256 1.365 1_545 S
C257 C261 1.386 . S
C258 H239 0.951 . S
C258 C256 1.388 . S
C258 C259 1.386 . S
C259 C258 1.386 . S
C259 C260 1.393 1_565 S
C259 C262 1.498 . S
C260 H240 0.950 . S
C260 C259 1.393 1_545 S
C260 C261 1.374 . S
C261 H241 0.950 . S
C261 C257 1.386 . S
C261 C260 1.374 . S
C262 C259 1.498 . S
C262 C263 1.375 1_565 S
C262 C264 1.387 . S
C263 H242 0.950 . S
C263 C262 1.375 1_545 S
C263 C279 1.377 . S
C264 C262 1.387 . S
C264 C265 1.524 . S
C264 C278 1.377 . S
C265 C264 1.524 . S
C265 C266 1.397 . S
C265 C270 1.363 . S
C266 H243 0.950 . S
C266 C265 1.397 . S
C266 C267 1.334 . S
C267 H244 0.950 . S
C267 C266 1.334 . S
C267 C268 1.287 . S
C268 C267 1.287 . S
C268 C269 1.524 . S
C268 H287 0.913 . S
C269 H245 0.950 . S
C269 C268 1.524 . S
C269 C270 1.415 . S
C270 H246 0.950 . S
C270 C265 1.363 . S
C270 C269 1.415 . S
C271 H247 0.951 . S
C271 C272 1.365 . S
C271 C273 1.388 . S
C272 C271 1.365 . S
C272 C276 1.386 1_545 S
C273 H248 0.951 . S
C273 C271 1.388 . S
C273 C274 1.366 . S
C274 C273 1.366 . S
C274 C275 1.414 1_545 S
C274 C277 1.499 . S
C275 H249 0.950 . S
C275 C274 1.414 1_565 S
C275 C276 1.374 . S
C276 H250 0.950 . S
C276 C272 1.386 1_565 S
C276 C275 1.374 . S
C277 C274 1.499 . S
C277 C278 1.369 1_545 S
C277 C279 1.393 . S
C278 H251 0.950 . S
C278 C264 1.377 . S
C278 C277 1.369 1_565 S
C279 C263 1.377 . S
C279 C277 1.393 . S
C279 C280 1.524 . S
C280 C279 1.524 . S
C280 C281 1.397 . S
C280 C285 1.363 . S
C281 H252 0.950 . S
C281 C280 1.397 . S
C281 C282 1.334 . S
C282 H253 0.950 . S
C282 C281 1.334 . S
C282 C283 1.287 . S
C283 C282 1.287 . S
C283 C284 1.524 . S
C283 H286 0.999 . S
C284 H254 0.950 . S
C284 C283 1.524 . S
C284 C285 1.415 . S
C285 H255 0.950 . S
C285 C280 1.363 . S
C285 C284 1.415 . S
H286 C283 0.999 . S
H287 C268 0.913 . S
H288 C306 0.951 . S
H289 C308 0.951 . S
H290 C310 0.950 . S
H291 C311 0.950 . S
H292 C313 0.950 . S
H293 C316 0.950 . S
H294 C317 0.950 1_655 S
H295 C319 0.950 . S
H296 C320 0.950 . S
H297 C321 0.951 . S
H298 C323 0.951 . S
H299 C325 0.950 . S
H300 C326 0.950 . S
H301 C328 0.950 . S
H302 C331 0.950 . S
H303 C332 0.950 1_455 S
H304 C334 0.950 . S
H305 C335 0.950 . S
C306 H288 0.951 . S
C306 C307 1.366 . S
C306 C308 1.388 . S
C307 C306 1.366 . S
C307 C311 1.385 1_455 S
C308 H289 0.951 . S
C308 C306 1.388 . S
C308 C309 1.350 1_455 S
C309 C308 1.350 1_655 S
C309 C310 1.430 . S
C309 C312 1.499 . S
C310 H290 0.950 . S
C310 C309 1.430 . S
C310 C311 1.374 . S
C311 H291 0.950 . S
C311 C307 1.385 1_655 S
C311 C310 1.374 . S
C312 C309 1.499 . S
C312 C313 1.373 . S
C312 C314 1.389 1_655 S
C313 H292 0.950 . S
C313 C312 1.373 . S
C313 C329 1.377 . S
C314 C312 1.389 1_455 S
C314 C315 1.524 . S
C314 C328 1.377 . S
C315 C314 1.524 . S
C315 C316 1.397 1_455 S
C315 C320 1.363 . S
C316 H293 0.950 . S
C316 C315 1.397 1_655 S
C316 C317 1.334 1_655 S
C317 H294 0.950 1_455 S
C317 C316 1.334 1_455 S
C317 C318 1.287 . S
C318 C317 1.287 . S
C318 C319 1.524 . S
C318 H337 0.913 . S
C319 H295 0.950 . S
C319 C318 1.524 . S
C319 C320 1.415 . S
C320 H296 0.950 . S
C320 C315 1.363 . S
C320 C319 1.415 . S
C321 H297 0.951 . S
C321 C322 1.366 1_655 S
C321 C323 1.388 . S
C322 C321 1.366 1_455 S
C322 C326 1.384 . S
C323 H298 0.951 . S
C323 C321 1.388 . S
C323 C324 1.344 1_655 S
C324 C323 1.344 1_455 S
C324 C325 1.435 . S
C324 C327 1.500 . S
C325 H299 0.950 . S
C325 C324 1.435 . S
C325 C326 1.374 . S
C326 H300 0.950 . S
C326 C322 1.384 . S
C326 C325 1.374 . S
C327 C324 1.500 . S
C327 C328 1.373 . S
C327 C329 1.389 1_455 S
C328 H301 0.950 . S
C328 C314 1.377 . S
C328 C327 1.373 . S
C329 C313 1.377 . S
C329 C327 1.389 1_655 S
C329 C330 1.524 . S
C330 C329 1.524 . S
C330 C331 1.397 1_655 S
C330 C335 1.363 . S
C331 H302 0.950 . S
C331 C330 1.397 1_455 S
C331 C332 1.334 1_455 S
C332 H303 0.950 1_655 S
C332 C331 1.334 1_655 S
C332 C333 1.287 . S
C333 C332 1.287 . S
C333 C334 1.524 . S
C333 H336 0.999 . S
C334 H304 0.950 . S
C334 C333 1.524 . S
C334 C335 1.415 . S
C335 H305 0.950 . S
C335 C330 1.363 . S
C335 C334 1.415 . S
H336 C333 0.999 . S
H337 C318 0.913 . S
H338 C356 0.951 . S
H339 C358 0.951 . S
H340 C360 0.950 . S
H341 C361 0.950 . S
H342 C363 0.950 . S
H343 C366 0.950 . S
H344 C367 0.950 . S
H345 C369 0.950 . S
H346 C370 0.950 . S
H347 C371 0.951 . S
H348 C373 0.951 . S
H349 C375 0.950 . S
H350 C376 0.950 . S
H351 C378 0.950 . S
H352 C381 0.950 . S
H353 C382 0.950 . S
H354 C384 0.950 . S
H355 C385 0.950 . S
C356 H338 0.951 . S
C356 C357 1.365 1_565 S
C356 C358 1.388 . S
C357 C356 1.365 1_545 S
C357 C361 1.386 . S
C358 H339 0.951 . S
C358 C356 1.388 . S
C358 C359 1.379 . S
C359 C358 1.379 . S
C359 C360 1.401 1_565 S
C359 C362 1.498 1_565 S
C360 H340 0.950 . S
C360 C359 1.401 1_545 S
C360 C361 1.374 . S
C361 H341 0.950 . S
C361 C357 1.386 . S
C361 C360 1.374 . S
C362 C359 1.498 1_545 S
C362 C363 1.382 . S
C362 C364 1.381 1_545 S
C363 H342 0.950 . S
C363 C362 1.382 . S
C363 C379 1.377 . S
C364 C362 1.381 1_565 S
C364 C365 1.524 . S
C364 C378 1.377 . S
C365 C364 1.524 . S
C365 C366 1.397 . S
C365 C370 1.363 . S
C366 H343 0.950 . S
C366 C365 1.397 . S
C366 C367 1.334 . S
C367 H344 0.950 . S
C367 C366 1.334 . S
C367 C368 1.287 . S
C368 C367 1.287 . S
C368 C369 1.524 . S
C368 H387 0.913 . S
C369 H345 0.950 . S
C369 C368 1.524 . S
C369 C370 1.415 . S
C370 H346 0.950 . S
C370 C365 1.363 . S
C370 C369 1.415 . S
C371 H347 0.951 . S
C371 C372 1.365 . S
C371 C373 1.388 . S
C372 C371 1.365 . S
C372 C376 1.386 1_545 S
C373 H348 0.951 . S
C373 C371 1.388 . S
C373 C374 1.384 . S
C374 C373 1.384 . S
C374 C375 1.395 1_545 S
C374 C377 1.498 1_545 S
C375 H349 0.950 . S
C375 C374 1.395 1_565 S
C375 C376 1.374 . S
C376 H350 0.950 . S
C376 C372 1.386 1_565 S
C376 C375 1.374 . S
C377 C374 1.498 1_565 S
C377 C378 1.377 . S
C377 C379 1.386 1_565 S
C378 H351 0.950 . S
C378 C364 1.377 . S
C378 C377 1.377 . S
C379 C363 1.377 . S
C379 C377 1.386 1_545 S
C379 C380 1.524 . S
C380 C379 1.524 . S
C380 C381 1.397 . S
C380 C385 1.363 . S
C381 H352 0.950 . S
C381 C380 1.397 . S
C381 C382 1.334 . S
C382 H353 0.950 . S
C382 C381 1.334 . S
C382 C383 1.287 . S
C383 C382 1.287 . S
C383 C384 1.524 . S
C383 H386 0.999 . S
C384 H354 0.950 . S
C384 C383 1.524 . S
C384 C385 1.415 . S
C385 H355 0.950 . S
C385 C380 1.363 . S
C385 C384 1.415 . S
H386 C383 0.999 . S
H387 C368 0.913 . S
H388 C406 0.951 . S
H389 C408 0.951 . S
H390 C410 0.951 . S
H391 C411 0.951 . S
H392 C413 0.950 . S
H393 C416 0.950 . S
H394 C417 0.950 . S
H395 C419 0.950 . S
H396 C420 0.950 . S
H397 C421 0.951 . S
H398 C423 0.951 . S
H399 C425 0.950 . S
H400 C426 0.951 . S
H401 C428 0.950 . S
H402 C431 0.950 . S
H403 C432 0.950 . S
H404 C434 0.950 . S
H405 C435 0.950 . S
C406 H388 0.951 . S
C406 C407 1.366 1_655 S
C406 C408 1.388 . S
C407 C406 1.366 1_455 S
C407 C411 1.384 . S
C408 H389 0.951 . S
C408 C406 1.388 . S
C408 C409 1.366 . S
C409 C408 1.366 . S
C409 C410 1.414 1_655 S
C409 C412 1.499 . S
C410 H390 0.951 . S
C410 C409 1.414 1_455 S
C410 C411 1.374 . S
C411 H391 0.951 . S
C411 C407 1.384 . S
C411 C410 1.374 . S
C412 C409 1.499 . S
C412 C413 1.373 1_655 S
C412 C414 1.389 . S
C413 H392 0.950 . S
C413 C412 1.373 1_455 S
C413 C429 1.377 . S
C414 C412 1.389 . S
C414 C415 1.524 . S
C414 C428 1.377 . S
C415 C414 1.524 . S
C415 C416 1.397 . S
C415 C420 1.363 . S
C416 H393 0.950 . S
C416 C415 1.397 . S
C416 C417 1.334 . S
C417 H394 0.950 . S
C417 C416 1.334 . S
C417 C418 1.287 . S
C418 C417 1.287 . S
C418 C419 1.524 . S
C418 H437 0.913 . S
C419 H395 0.950 . S
C419 C418 1.524 . S
C419 C420 1.415 . S
C420 H396 0.950 . S
C420 C415 1.363 . S
C420 C419 1.415 . S
C421 H397 0.951 . S
C421 C422 1.366 . S
C421 C423 1.388 . S
C422 C421 1.366 . S
C422 C426 1.384 1_455 S
C423 H398 0.951 . S
C423 C421 1.388 . S
C423 C424 1.366 . S
C424 C423 1.366 . S
C424 C425 1.414 1_455 S
C424 C427 1.499 . S
C425 H399 0.950 . S
C425 C424 1.414 1_655 S
C425 C426 1.374 . S
C426 H400 0.951 . S
C426 C422 1.384 1_655 S
C426 C425 1.374 . S
C427 C424 1.499 . S
C427 C428 1.373 1_455 S
C427 C429 1.389 . S
C428 H401 0.950 . S
C428 C414 1.377 . S
C428 C427 1.373 1_655 S
C429 C413 1.377 . S
C429 C427 1.389 . S
C429 C430 1.524 . S
C430 C429 1.524 . S
C430 C431 1.397 . S
C430 C435 1.363 . S
C431 H402 0.950 . S
C431 C430 1.397 . S
C431 C432 1.334 . S
C432 H403 0.950 . S
C432 C431 1.334 . S
C432 C433 1.287 . S
C433 C432 1.287 . S
C433 C434 1.524 . S
C433 H436 0.999 . S
C434 H404 0.950 . S
C434 C433 1.524 . S
C434 C435 1.415 . S
C435 H405 0.950 . S
C435 C430 1.363 . S
C435 C434 1.415 . S
H436 C433 0.999 . S
H437 C418 0.913 . S
H438 C456 0.951 . S
H439 C458 0.950 . S
H440 C460 0.950 . S
H441 C461 0.950 . S
H442 C463 0.950 . S
H443 C466 0.950 . S
H444 C467 0.950 . S
H445 C469 0.950 . S
H446 C470 0.950 . S
H447 C471 0.951 . S
H448 C473 0.951 . S
H449 C475 0.950 . S
H450 C476 0.950 . S
H451 C478 0.950 . S
H452 C481 0.950 . S
H453 C482 0.950 . S
H454 C484 0.950 . S
H455 C485 0.950 . S
C456 H438 0.951 . S
C456 C457 1.366 1_565 S
C456 C458 1.388 . S
C457 C456 1.366 1_545 S
C457 C461 1.384 . S
C458 H439 0.950 . S
C458 C456 1.388 . S
C458 C459 1.366 1_565 S
C459 C458 1.366 1_545 S
C459 C460 1.414 . S
C459 C462 1.499 . S
C460 H440 0.950 . S
C460 C459 1.414 . S
C460 C461 1.374 . S
C461 H441 0.950 . S
C461 C457 1.384 . S
C461 C460 1.374 . S
C462 C459 1.499 . S
C462 C463 1.373 1_545 S
C462 C464 1.389 . S
C463 H442 0.950 . S
C463 C462 1.373 1_565 S
C463 C479 1.377 . S
C464 C462 1.389 . S
C464 C465 1.524 . S
C464 C478 1.377 . S
C465 C464 1.524 . S
C465 C466 1.397 . S
C465 C470 1.363 . S
C466 H443 0.950 . S
C466 C465 1.397 . S
C466 C467 1.334 . S
C467 H444 0.950 . S
C467 C466 1.334 . S
C467 C468 1.287 . S
C468 C467 1.287 . S
C468 C469 1.524 . S
C468 H487 0.913 . S
C469 H445 0.950 . S
C469 C468 1.524 . S
C469 C470 1.415 . S
C470 H446 0.950 . S
C470 C465 1.363 . S
C470 C469 1.415 . S
C471 H447 0.951 . S
C471 C472 1.366 . S
C471 C473 1.388 . S
C472 C471 1.366 . S
C472 C476 1.384 1_545 S
C473 H448 0.951 . S
C473 C471 1.388 . S
C473 C474 1.365 1_545 S
C474 C473 1.365 1_565 S
C474 C475 1.414 . S
C474 C477 1.499 . S
C475 H449 0.950 . S
C475 C474 1.414 . S
C475 C476 1.374 . S
C476 H450 0.950 . S
C476 C472 1.384 1_565 S
C476 C475 1.374 . S
C477 C474 1.499 . S
C477 C478 1.373 1_565 S
C477 C479 1.389 . S
C478 H451 0.950 . S
C478 C464 1.377 . S
C478 C477 1.373 1_545 S
C479 C463 1.377 . S
C479 C477 1.389 . S
C479 C480 1.524 . S
C480 C479 1.524 . S
C480 C481 1.397 . S
C480 C485 1.363 . S
C481 H452 0.950 . S
C481 C480 1.397 . S
C481 C482 1.334 . S
C482 H453 0.950 . S
C482 C481 1.334 . S
C482 C483 1.287 . S
C483 C482 1.287 . S
C483 C484 1.524 . S
C483 H486 0.999 . S
C484 H454 0.950 . S
C484 C483 1.524 . S
C484 C485 1.415 . S
C485 H455 0.950 . S
C485 C480 1.363 . S
C485 C484 1.415 . S
H486 C483 0.999 . S
H487 C468 0.913 . S
H488 C506 0.951 . S
H489 C508 0.951 . S
H490 C510 0.950 . S
H491 C511 0.950 . S
H492 C513 0.950 . S
H493 C516 0.950 . S
H494 C517 0.950 . S
H495 C519 0.950 . S
H496 C520 0.950 . S
H497 C521 0.951 . S
H498 C523 0.951 . S
H499 C525 0.950 . S
H500 C526 0.950 . S
H501 C528 0.950 . S
H502 C531 0.950 . S
H503 C532 0.950 . S
H504 C534 0.950 . S
H505 C535 0.950 . S
C506 H488 0.951 . S
C506 C507 1.365 . S
C506 C508 1.388 . S
C507 C506 1.365 . S
C507 C511 1.385 1_455 S
C508 H489 0.951 . S
C508 C506 1.388 . S
C508 C509 1.366 . S
C509 C508 1.366 . S
C509 C510 1.414 1_455 S
C509 C512 1.499 . S
C510 H490 0.950 . S
C510 C509 1.414 1_655 S
C510 C511 1.374 . S
C511 H491 0.950 . S
C511 C507 1.385 1_655 S
C511 C510 1.374 . S
C512 C509 1.499 . S
C512 C513 1.373 1_455 S
C512 C514 1.389 . S
C513 H492 0.950 . S
C513 C512 1.373 1_655 S
C513 C529 1.377 . S
C514 C512 1.389 . S
C514 C515 1.524 . S
C514 C528 1.377 . S
C515 C514 1.524 . S
C515 C516 1.397 . S
C515 C520 1.363 . S
C516 H493 0.950 . S
C516 C515 1.397 . S
C516 C517 1.334 . S
C517 H494 0.950 . S
C517 C516 1.334 . S
C517 C518 1.287 . S
C518 C517 1.287 . S
C518 C519 1.524 . S
C518 H537 0.913 . S
C519 H495 0.950 . S
C519 C518 1.524 . S
C519 C520 1.415 . S
C520 H496 0.950 . S
C520 C515 1.363 . S
C520 C519 1.415 . S
C521 H497 0.951 . S
C521 C522 1.365 1_655 S
C521 C523 1.388 . S
C522 C521 1.365 1_455 S
C522 C526 1.385 . S
C523 H498 0.951 . S
C523 C521 1.388 . S
C523 C524 1.366 . S
C524 C523 1.366 . S
C524 C525 1.414 1_655 S
C524 C527 1.499 . S
C525 H499 0.950 . S
C525 C524 1.414 1_455 S
C525 C526 1.374 . S
C526 H500 0.950 . S
C526 C522 1.385 . S
C526 C525 1.374 . S
C527 C524 1.499 . S
C527 C528 1.373 1_655 S
C527 C529 1.389 . S
C528 H501 0.950 . S
C528 C514 1.377 . S
C528 C527 1.373 1_455 S
C529 C513 1.377 . S
C529 C527 1.389 . S
C529 C530 1.524 . S
C530 C529 1.524 . S
C530 C531 1.397 . S
C530 C535 1.363 . S
C531 H502 0.950 . S
C531 C530 1.397 . S
C531 C532 1.334 . S
C532 H503 0.950 . S
C532 C531 1.334 . S
C532 C533 1.287 . S
C533 C532 1.287 . S
C533 C534 1.524 . S
C533 H536 0.999 . S
C534 H504 0.950 . S
C534 C533 1.524 . S
C534 C535 1.415 . S
C535 H505 0.950 . S
C535 C530 1.363 . S
C535 C534 1.415 . S
H536 C533 0.999 . S
H537 C518 0.913 . S
H538 C556 0.951 . S
H539 C558 0.951 . S
H540 C560 0.950 . S
H541 C561 0.950 . S
H542 C563 0.950 . S
H543 C566 0.950 . S
H544 C567 0.950 . S
H545 C569 0.950 . S
H546 C570 0.950 . S
H547 C571 0.951 . S
H548 C573 0.951 . S
H549 C575 0.950 . S
H550 C576 0.950 . S
H551 C578 0.950 . S
H552 C581 0.950 . S
H553 C582 0.950 . S
H554 C584 0.950 . S
H555 C585 0.950 . S
C556 H538 0.951 . S
C556 C557 1.366 1_565 S
C556 C558 1.388 . S
C557 C556 1.366 1_545 S
C557 C561 1.384 . S
C558 H539 0.951 . S
C558 C556 1.388 . S
C558 C559 1.366 1_565 S
C559 C558 1.366 1_545 S
C559 C560 1.414 . S
C559 C562 1.499 . S
C560 H540 0.950 . S
C560 C559 1.414 . S
C560 C561 1.374 . S
C561 H541 0.950 . S
C561 C557 1.384 . S
C561 C560 1.374 . S
C562 C559 1.499 . S
C562 C563 1.373 1_545 S
C562 C564 1.389 . S
C563 H542 0.950 . S
C563 C562 1.373 1_565 S
C563 C579 1.377 . S
C564 C562 1.389 . S
C564 C565 1.524 . S
C564 C578 1.377 . S
C565 C564 1.524 . S
C565 C566 1.397 . S
C565 C570 1.363 . S
C566 H543 0.950 . S
C566 C565 1.397 . S
C566 C567 1.334 . S
C567 H544 0.950 . S
C567 C566 1.334 . S
C567 C568 1.287 . S
C568 C567 1.287 . S
C568 C569 1.524 . S
C568 H587 0.913 . S
C569 H545 0.950 . S
C569 C568 1.524 . S
C569 C570 1.415 . S
C570 H546 0.950 . S
C570 C565 1.363 . S
C570 C569 1.415 . S
C571 H547 0.951 . S
C571 C572 1.366 . S
C571 C573 1.388 . S
C572 C571 1.366 . S
C572 C576 1.384 1_545 S
C573 H548 0.951 . S
C573 C571 1.388 . S
C573 C574 1.366 1_545 S
C574 C573 1.366 1_565 S
C574 C575 1.414 . S
C574 C577 1.499 . S
C575 H549 0.950 . S
C575 C574 1.414 . S
C575 C576 1.374 . S
C576 H550 0.950 . S
C576 C572 1.384 1_565 S
C576 C575 1.374 . S
C577 C574 1.499 . S
C577 C578 1.373 1_565 S
C577 C579 1.389 . S
C578 H551 0.950 . S
C578 C564 1.377 . S
C578 C577 1.373 1_545 S
C579 C563 1.377 . S
C579 C577 1.389 . S
C579 C580 1.524 . S
C580 C579 1.524 . S
C580 C581 1.397 . S
C580 C585 1.363 . S
C581 H552 0.950 . S
C581 C580 1.397 . S
C581 C582 1.334 . S
C582 H553 0.950 . S
C582 C581 1.334 . S
C582 C583 1.287 . S
C583 C582 1.287 . S
C583 C584 1.524 . S
C583 H586 0.999 . S
C584 H554 0.950 . S
C584 C583 1.524 . S
C584 C585 1.415 . S
C585 H555 0.950 . S
C585 C580 1.363 . S
C585 C584 1.415 . S
H586 C583 0.999 . S
H587 C568 0.913 . S
H588 C606 0.951 . S
H589 C608 0.951 . S
H590 C610 0.950 . S
H591 C611 0.950 . S
H592 C613 0.950 . S
H593 C616 0.950 . S
H594 C617 0.950 . S
H595 C619 0.950 . S
H596 C620 0.950 . S
H597 C621 0.951 . S
H598 C623 0.951 . S
H599 C625 0.950 . S
H600 C626 0.950 . S
H601 C628 0.950 . S
H602 C631 0.950 . S
H603 C632 0.950 . S
H604 C634 0.950 . S
H605 C635 0.950 . S
C606 H588 0.951 . S
C606 C607 1.366 1_556 S
C606 C608 1.388 . S
C607 C606 1.366 1_554 S
C607 C611 1.385 . S
C608 H589 0.951 . S
C608 C606 1.388 . S
C608 C609 1.366 . S
C609 C608 1.366 . S
C609 C610 1.414 1_556 S
C609 C612 1.499 . S
C610 H590 0.950 . S
C610 C609 1.414 1_554 S
C610 C611 1.374 . S
C611 H591 0.950 . S
C611 C607 1.385 . S
C611 C610 1.374 . S
C612 C609 1.499 . S
C612 C613 1.373 1_556 S
C612 C614 1.389 . S
C613 H592 0.950 . S
C613 C612 1.373 1_554 S
C613 C629 1.377 . S
C614 C612 1.389 . S
C614 C615 1.524 . S
C614 C628 1.377 . S
C615 C614 1.524 . S
C615 C616 1.397 . S
C615 C620 1.363 . S
C616 H593 0.950 . S
C616 C615 1.397 . S
C616 C617 1.334 . S
C617 H594 0.950 . S
C617 C616 1.334 . S
C617 C618 1.287 . S
C618 C617 1.287 . S
C618 C619 1.524 . S
C618 H637 0.913 . S
C619 H595 0.950 . S
C619 C618 1.524 . S
C619 C620 1.415 . S
C620 H596 0.950 . S
C620 C615 1.363 . S
C620 C619 1.415 . S
C621 H597 0.951 . S
C621 C622 1.366 . S
C621 C623 1.388 . S
C622 C621 1.366 . S
C622 C626 1.385 1_554 S
C623 H598 0.951 . S
C623 C621 1.388 . S
C623 C624 1.366 . S
C624 C623 1.366 . S
C624 C625 1.414 1_554 S
C624 C627 1.499 . S
C625 H599 0.950 . S
C625 C624 1.414 1_556 S
C625 C626 1.374 . S
C626 H600 0.950 . S
C626 C622 1.385 1_556 S
C626 C625 1.374 . S
C627 C624 1.499 . S
C627 C628 1.373 1_554 S
C627 C629 1.389 . S
C628 H601 0.950 . S
C628 C614 1.377 . S
C628 C627 1.373 1_556 S
C629 C613 1.377 . S
C629 C627 1.389 . S
C629 C630 1.524 . S
C630 C629 1.524 . S
C630 C631 1.397 . S
C630 C635 1.363 . S
C631 H602 0.950 . S
C631 C630 1.397 . S
C631 C632 1.334 . S
C632 H603 0.950 . S
C632 C631 1.334 . S
C632 C633 1.287 . S
C633 C632 1.287 . S
C633 C634 1.524 . S
C633 H636 0.999 . S
C634 H604 0.950 . S
C634 C633 1.524 . S
C634 C635 1.415 . S
C635 H605 0.950 . S
C635 C630 1.363 . S
C635 C634 1.415 . S
H636 C633 0.999 . S
H637 C618 0.913 . S
H638 C656 0.951 . S
H639 C658 0.951 . S
H640 C660 0.950 . S
H641 C661 0.950 . S
H642 C663 0.950 . S
H643 C666 0.950 . S
H644 C667 0.950 . S
H645 C669 0.950 . S
H646 C670 0.950 . S
H647 C671 0.951 . S
H648 C673 0.951 . S
H649 C675 0.950 . S
H650 C676 0.950 . S
H651 C678 0.950 . S
H652 C681 0.950 . S
H653 C682 0.950 . S
H654 C684 0.950 . S
H655 C685 0.950 . S
C656 H638 0.951 . S
C656 C657 1.366 . S
C656 C658 1.388 . S
C657 C656 1.366 . S
C657 C661 1.385 1_554 S
C658 H639 0.951 . S
C658 C656 1.388 . S
C658 C659 1.366 . S
C659 C658 1.366 . S
C659 C660 1.414 1_554 S
C659 C662 1.499 . S
C660 H640 0.950 . S
C660 C659 1.414 1_556 S
C660 C661 1.374 . S
C661 H641 0.950 . S
C661 C657 1.385 1_556 S
C661 C660 1.374 . S
C662 C659 1.499 . S
C662 C663 1.373 1_554 S
C662 C664 1.389 . S
C663 H642 0.950 . S
C663 C662 1.373 1_556 S
C663 C679 1.377 . S
C664 C662 1.389 . S
C664 C665 1.524 . S
C664 C678 1.377 . S
C665 C664 1.524 . S
C665 C666 1.397 . S
C665 C670 1.363 . S
C666 H643 0.950 . S
C666 C665 1.397 . S
C666 C667 1.334 . S
C667 H644 0.950 . S
C667 C666 1.334 . S
C667 C668 1.287 . S
C668 C667 1.287 . S
C668 C669 1.524 . S
C668 H687 0.913 . S
C669 H645 0.950 . S
C669 C668 1.524 . S
C669 C670 1.415 . S
C670 H646 0.950 . S
C670 C665 1.363 . S
C670 C669 1.415 . S
C671 H647 0.951 . S
C671 C672 1.366 1_556 S
C671 C673 1.388 . S
C672 C671 1.366 1_554 S
C672 C676 1.385 . S
C673 H648 0.951 . S
C673 C671 1.388 . S
C673 C674 1.366 . S
C674 C673 1.366 . S
C674 C675 1.414 1_556 S
C674 C677 1.499 . S
C675 H649 0.950 . S
C675 C674 1.414 1_554 S
C675 C676 1.374 . S
C676 H650 0.950 . S
C676 C672 1.385 . S
C676 C675 1.374 . S
C677 C674 1.499 . S
C677 C678 1.373 1_556 S
C677 C679 1.389 . S
C678 H651 0.950 . S
C678 C664 1.377 . S
C678 C677 1.373 1_554 S
C679 C663 1.377 . S
C679 C677 1.389 . S
C679 C680 1.524 . S
C680 C679 1.524 . S
C680 C681 1.397 . S
C680 C685 1.363 . S
C681 H652 0.950 . S
C681 C680 1.397 . S
C681 C682 1.334 . S
C682 H653 0.950 . S
C682 C681 1.334 . S
C682 C683 1.287 . S
C683 C682 1.287 . S
C683 C684 1.524 . S
C683 H686 0.999 . S
C684 H654 0.950 . S
C684 C683 1.524 . S
C684 C685 1.415 . S
C685 H655 0.950 . S
C685 C680 1.363 . S
C685 C684 1.415 . S
H686 C683 0.999 . S
H687 C668 0.913 . S
H688 C706 0.951 . S
H689 C708 0.951 . S
H690 C710 0.950 . S
H691 C711 0.950 . S
H692 C713 0.950 . S
H693 C716 0.950 . S
H694 C717 0.950 . S
H695 C719 0.950 . S
H696 C720 0.950 . S
H697 C721 0.951 . S
H698 C723 0.951 . S
H699 C725 0.950 . S
H700 C726 0.950 . S
H701 C728 0.950 . S
H702 C731 0.950 . S
H703 C732 0.950 . S
H704 C734 0.950 . S
H705 C735 0.950 . S
C706 H688 0.951 . S
C706 C707 1.365 1_556 S
C706 C708 1.388 . S
C707 C706 1.365 1_554 S
C707 C711 1.386 . S
C708 H689 0.951 . S
C708 C706 1.388 . S
C708 C709 1.383 . S
C709 C708 1.383 . S
C709 C710 1.397 1_556 S
C709 C712 1.498 1_556 S
C710 H690 0.950 . S
C710 C709 1.397 1_554 S
C710 C711 1.374 . S
C711 H691 0.950 . S
C711 C707 1.386 . S
C711 C710 1.374 . S
C712 C709 1.498 1_554 S
C712 C713 1.376 . S
C712 C714 1.386 1_554 S
C713 H692 0.950 . S
C713 C712 1.376 . S
C713 C729 1.377 . S
C714 C712 1.386 1_556 S
C714 C715 1.524 . S
C714 C728 1.377 . S
C715 C714 1.524 . S
C715 C716 1.397 . S
C715 C720 1.363 . S
C716 H693 0.950 . S
C716 C715 1.397 . S
C716 C717 1.334 . S
C717 H694 0.950 . S
C717 C716 1.334 . S
C717 C718 1.287 . S
C718 C717 1.287 . S
C718 C719 1.524 . S
C718 H737 0.913 . S
C719 H695 0.950 . S
C719 C718 1.524 . S
C719 C720 1.415 . S
C720 H696 0.950 . S
C720 C715 1.363 . S
C720 C719 1.415 . S
C721 H697 0.951 . S
C721 C722 1.365 . S
C721 C723 1.388 . S
C722 C721 1.365 . S
C722 C726 1.386 1_554 S
C723 H698 0.951 . S
C723 C721 1.388 . S
C723 C724 1.388 . S
C724 C723 1.388 . S
C724 C725 1.391 1_554 S
C724 C727 1.498 1_554 S
C725 H699 0.950 . S
C725 C724 1.391 1_556 S
C725 C726 1.374 . S
C726 H700 0.950 . S
C726 C722 1.386 1_556 S
C726 C725 1.374 . S
C727 C724 1.498 1_556 S
C727 C728 1.371 . S
C727 C729 1.392 1_556 S
C728 H701 0.950 . S
C728 C714 1.377 . S
C728 C727 1.371 . S
C729 C713 1.377 . S
C729 C727 1.392 1_554 S
C729 C730 1.524 . S
C730 C729 1.524 . S
C730 C731 1.397 . S
C730 C735 1.363 . S
C731 H702 0.950 . S
C731 C730 1.397 . S
C731 C732 1.334 . S
C732 H703 0.950 . S
C732 C731 1.334 . S
C732 C733 1.287 . S
C733 C732 1.287 . S
C733 C734 1.524 . S
C733 H736 0.999 . S
C734 H704 0.950 . S
C734 C733 1.524 . S
C734 C735 1.415 . S
C735 H705 0.950 . S
C735 C730 1.363 . S
C735 C734 1.415 . S
H736 C733 0.999 . S
H737 C718 0.913 . S
H738 C756 0.951 . S
H739 C758 0.951 . S
H740 C760 0.950 . S
H741 C761 0.950 . S
H742 C763 0.950 . S
H743 C766 0.950 . S
H744 C767 0.950 . S
H745 C769 0.950 . S
H746 C770 0.950 . S
H747 C771 0.951 . S
H748 C773 0.951 . S
H749 C775 0.950 . S
H750 C776 0.950 . S
H751 C778 0.950 . S
H752 C781 0.950 . S
H753 C782 0.950 . S
H754 C784 0.950 . S
H755 C785 0.950 . S
C756 H738 0.951 . S
C756 C757 1.366 . S
C756 C758 1.388 . S
C757 C756 1.366 . S
C757 C761 1.385 1_554 S
C758 H739 0.951 . S
C758 C756 1.388 . S
C758 C759 1.366 . S
C759 C758 1.366 . S
C759 C760 1.414 1_554 S
C759 C762 1.499 . S
C760 H740 0.950 . S
C760 C759 1.414 1_556 S
C760 C761 1.374 . S
C761 H741 0.950 . S
C761 C757 1.385 1_556 S
C761 C760 1.374 . S
C762 C759 1.499 . S
C762 C763 1.373 1_554 S
C762 C764 1.389 . S
C763 H742 0.950 . S
C763 C762 1.373 1_556 S
C763 C779 1.377 . S
C764 C762 1.389 . S
C764 C765 1.524 . S
C764 C778 1.377 . S
C765 C764 1.524 . S
C765 C766 1.397 . S
C765 C770 1.363 . S
C766 H743 0.950 . S
C766 C765 1.397 . S
C766 C767 1.334 . S
C767 H744 0.950 . S
C767 C766 1.334 . S
C767 C768 1.287 . S
C768 C767 1.287 . S
C768 C769 1.524 . S
C768 H787 0.913 . S
C769 H745 0.950 . S
C769 C768 1.524 . S
C769 C770 1.415 . S
C770 H746 0.950 . S
C770 C765 1.363 . S
C770 C769 1.415 . S
C771 H747 0.951 . S
C771 C772 1.366 1_556 S
C771 C773 1.388 . S
C772 C771 1.366 1_554 S
C772 C776 1.385 . S
C773 H748 0.951 . S
C773 C771 1.388 . S
C773 C774 1.366 . S
C774 C773 1.366 . S
C774 C775 1.414 1_556 S
C774 C777 1.499 . S
C775 H749 0.950 . S
C775 C774 1.414 1_554 S
C775 C776 1.374 . S
C776 H750 0.950 . S
C776 C772 1.385 . S
C776 C775 1.374 . S
C777 C774 1.499 . S
C777 C778 1.373 1_556 S
C777 C779 1.389 . S
C778 H751 0.950 . S
C778 C764 1.377 . S
C778 C777 1.373 1_554 S
C779 C763 1.377 . S
C779 C777 1.389 . S
C779 C780 1.524 . S
C780 C779 1.524 . S
C780 C781 1.397 . S
C780 C785 1.363 . S
C781 H752 0.950 . S
C781 C780 1.397 . S
C781 C782 1.334 . S
C782 H753 0.950 . S
C782 C781 1.334 . S
C782 C783 1.287 . S
C783 C782 1.287 . S
C783 C784 1.524 . S
C783 H786 0.999 . S
C784 H754 0.950 . S
C784 C783 1.524 . S
C784 C785 1.415 . S
C785 H755 0.950 . S
C785 C780 1.363 . S
C785 C784 1.415 . S
H786 C783 0.999 . S
H787 C768 0.913 . S
C222 C139 1.822 . S
C207 C15 1.814 . S
C272 C146 1.245 . S
C257 C68 1.242 1_545 S
C322 C141 1.822 . S
C307 C8 1.819 . S
C372 C147 1.245 . S
C357 C61 1.238 . S
C407 C1 1.819 1_455 S
C422 C140 1.827 . S
C472 C149 1.245 . S
C457 C54 1.243 . S
C507 C22 1.819 1_455 S
C522 C138 1.823 . S
C557 C47 1.242 1_545 S
C572 C148 1.250 . S
C607 C93 1.523 . S
C622 C143 1.520 . S
C657 C114 1.523 . S
C672 C142 1.525 . S
C722 C145 1.525 . S
C707 C100 1.523 1_554 S
C772 C144 1.525 . S
C757 C107 1.527 1_554 S
